drugbank_target|P16152 Carbonyl reductase [NADPH] 1 (DB01698; DB02709; DB03394; DB03556; DB04216; DB04463; DB11672; DB14635)
 OpenBabel12092120273D

  0  0  0     0  0            999 V3000
M  V30 BEGIN CTAB
M  V30 COUNTS 4309 4347 0 0 0
M  V30 BEGIN ATOM
M  V30 1 H -0.908 1.98254 -0.117106 0
M  V30 2 N 0 1.576 0 0
M  V30 3 C 0.933 2.03868 1.02534 0
M  V30 4 C 1.911 0.928543 1.3348 0
M  V30 5 O 3.095 1.19667 1.45644 0
M  V30 6 C 0.222 2.43627 2.35294 0
M  V30 7 C -0.732 3.65373 2.2001 0
M  V30 8 S 0.101 5.13292 1.52614 0
M  V30 9 C 1.257 5.56322 2.86805 0
M  V30 10 H 1.49 2.90518 0.631377 0
M  V30 11 H -0.977 1.52953 0.210867 0
M  V30 12 H 0.981 2.67203 3.11629 0
M  V30 13 H -0.358 1.57376 2.7183 0
M  V30 14 H -1.165 3.90944 3.18086 0
M  V30 15 H -1.563 3.418 1.51819 0
M  V30 16 H 0.729 5.58782 3.83104 0
M  V30 17 H 1.672 6.56266 2.65933 0
M  V30 18 H 2.08 4.83886 2.90714 0
M  V30 19 N 1.4781 -0.272755 1.55222 0
M  V30 20 C 2.7031 -1.02683 1.80197 0
M  V30 21 C 3.1281 -1.79142 0.573551 0
M  V30 22 O 2.4861 -1.74917 -0.476849 0
M  V30 23 C 2.5341 -1.9609 3.02624 0
M  V30 24 O 1.6381 -3.04863 2.77727 0
M  V30 25 H 0.9791 -0.293557 0.595584 0
M  V30 26 H 3.5091 -0.30159 2.02365 0
M  V30 27 H 3.5191 -2.38039 3.31363 0
M  V30 28 H 2.1941 -1.39851 3.91682 0
M  V30 29 H 0.7711 -2.67228 2.60084 0
M  V30 30 N 2.9562 -1.48159 -0.537278 0
M  V30 31 C 4.1812 -1.59707 -1.32319 0
M  V30 32 C 4.6062 -0.254859 -1.86365 0
M  V30 33 O 3.9642 0.772378 -1.64024 0
M  V30 34 C 4.0122 -2.6412 -2.45505 0
M  V30 35 O 3.1162 -2.20774 -3.48328 0
M  V30 36 H 2.4572 -0.535791 -0.392204 0
M  V30 37 H 4.9872 -1.94092 -0.647268 0
M  V30 38 H 4.9972 -2.85166 -2.91795 0
M  V30 39 H 3.6722 -3.61567 -2.05528 0
M  V30 40 H 2.2492 -2.09911 -3.08207 0
M  V30 41 N 4.4343 0.785586 -1.36625 0
M  V30 42 C 5.6823 1.54057 -1.30808 0
M  V30 43 C 6.0033 1.94683 0.111157 0
M  V30 44 O 5.2733 1.65241 1.05224 0
M  V30 45 H 3.8533 0.571354 -0.481211 0
M  V30 46 H 6.5153 0.935821 -1.70963 0
M  V30 47 H 5.6113 2.44637 -1.93801 0
M  V30 48 N 5.9124 1.20967 1.01018 0
M  V30 49 C 7.1614 1.01796 1.74128 0
M  V30 50 C 7.4744 -0.449691 1.90361 0
M  V30 51 O 8.6804 -0.76068 2.60626 0
M  V30 52 C 7.1364 1.7727 3.13215 0
M  V30 53 C 6.7444 3.28171 3.04972 0
M  V30 54 C 8.4884 1.66489 3.90489 0
M  V30 55 C 6.3954 3.96156 4.39107 0
M  V30 56 H 5.3254 0.377276 0.652824 0
M  V30 57 H 7.9764 1.44651 1.12909 0
M  V30 58 H 6.3584 1.27205 3.75013 0
M  V30 59 H 7.5324 3.85499 2.52443 0
M  V30 60 H 5.8474 3.39437 2.41188 0
M  V30 61 H 8.4444 2.14617 4.89738 0
M  V30 62 H 8.7874 0.6222 4.11624 0
M  V30 63 H 9.3204 2.14003 3.35332 0
M  V30 64 H 6.0594 5.00604 4.23174 0
M  V30 65 H 5.5794 3.43617 4.91617 0
M  V30 66 H 7.2584 4.00774 5.07926 0
M  V30 67 N 7.3905 -1.2043 1.01659 0
M  V30 68 C 8.3405 -2.21076 0.557623 0
M  V30 69 C 9.3245 -1.56176 -0.387029 0
M  V30 70 O 10.5165 -1.7575 -0.209996 0
M  V30 71 C 7.6455 -3.43146 -0.102707 0
M  V30 72 C 6.7315 -4.15213 0.863652 0
M  V30 73 N 7.1225 -4.63662 2.02117 0
M  V30 74 C 5.4205 -4.40716 0.684472 0
M  V30 75 C 6.1215 -5.18868 2.62966 0
M  V30 76 N 5.0975 -5.0893 1.91027 0
M  V30 77 H 8.8995 -2.56201 1.44008 0
M  V30 78 H 6.4135 -1.36366 0.881931 0
M  V30 79 H 8.4105 -4.14475 -0.449054 0
M  V30 80 H 7.0705 -3.09526 -0.981003 0
M  V30 81 H 8.0815 -4.58877 2.40109 0
M  V30 82 H 4.7585 -4.17245 -0.14577 0
M  V30 83 H 6.1485 -5.6673 3.60924 0
M  V30 84 N 8.8686 -0.792821 -1.36206 0
M  V30 85 C 10.1146 -0.36733 -1.99446 0
M  V30 86 C 10.4476 1.05917 -1.62774 0
M  V30 87 O 9.7226 1.7324 -0.88421 0
M  V30 88 C 10.0056 -0.535044 -3.56103 0
M  V30 89 C 9.8586 -2.00548 -4.02617 0
M  V30 90 C 11.1776 0.0478191 -4.40074 0
M  V30 91 H 8.2966 -0.134941 -0.724541 0
M  V30 92 H 10.9386 -0.999794 -1.61568 0
M  V30 93 H 9.0886 0.00336329 -3.885 0
M  V30 94 H 10.7606 -2.60521 -3.80692 0
M  V30 95 H 9.0036 -2.50686 -3.54032 0
M  V30 96 H 9.6746 -2.07377 -5.11565 0
M  V30 97 H 12.1506 -0.411822 -4.14057 0
M  V30 98 H 11.0266 -0.0995336 -5.4881 0
M  V30 99 H 11.2876 1.14025 -4.27142 0
M  V30 100 N 10.3467 1.47872 -0.545128 0
M  V30 101 C 11.3097 2.28337 0.198717 0
M  V30 102 C 12.3097 1.36255 0.853888 0
M  V30 103 O 13.4997 1.59003 0.711606 0
M  V30 104 C 10.6317 3.15585 1.28915 0
M  V30 105 H 11.8247 2.95567 -0.507941 0
M  V30 106 H 9.3777 1.53362 -0.301616 0
M  V30 107 H 10.1127 2.53019 2.02859 0
M  V30 108 H 9.8977 3.83337 0.824309 0
M  V30 109 H 11.3877 3.76243 1.81194 0
M  V30 110 N 11.8248 0.280983 1.55075 0
M  V30 111 C 12.7548 -0.597469 2.25727 0
M  V30 112 C 13.7358 -1.15417 1.24952 0
M  V30 113 O 14.9208 -1.18722 1.53684 0
M  V30 114 C 12.0508 -1.7789 2.98283 0
M  V30 115 C 11.0048 -1.35347 4.06036 0
M  V30 116 C 10.3308 -2.61846 4.66198 0
M  V30 117 C 11.6308 -0.499354 5.19907 0
M  V30 118 H 13.3248 -0.00824265 2.99399 0
M  V30 119 H 10.8708 -0.0025244 1.44 0
M  V30 120 H 12.8238 -2.39937 3.46422 0
M  V30 121 H 11.5478 -2.39405 2.22155 0
M  V30 122 H 10.2068 -0.756156 3.58717 0
M  V30 123 H 9.8548 -3.21632 3.86732 0
M  V30 124 H 9.5548 -2.3409 5.38958 0
M  V30 125 H 11.0788 -3.24732 5.1709 0
M  V30 126 H 12.4928 -1.02498 5.64063 0
M  V30 127 H 10.8898 -0.316424 5.99265 0
M  V30 128 H 11.9598 0.480459 4.82514 0
M  V30 129 N 13.3029 -1.57598 0.00835791 0
M  V30 130 C 14.5489 -1.91211 -0.675732 0
M  V30 131 C 14.8819 -0.883139 -1.72958 0
M  V30 132 O 14.1569 0.097016 -1.94258 0
M  V30 133 C 14.4399 -3.35379 -1.31123 0
M  V30 134 C 14.2929 -4.48999 -0.268356 0
M  V30 135 C 15.6119 -3.7912 -2.23508 0
M  V30 136 H 12.7309 -0.695374 -0.244179 0
M  V30 137 H 15.3729 -1.89901 0.0613655 0
M  V30 138 H 13.5229 -3.36626 -1.93946 0
M  V30 139 H 15.1949 -4.59887 0.360844 0
M  V30 140 H 13.4379 -4.31873 0.408482 0
M  V30 141 H 14.1089 -5.46851 -0.752218 0
M  V30 142 H 16.5849 -3.79477 -1.70693 0
M  V30 143 H 15.4609 -4.80729 -2.64936 0
M  V30 144 H 15.7219 -3.13455 -3.11766 0
M  V30 145 N 14.781 0.264519 -1.55364 0
M  V30 146 C 16.009 1.013 -1.80405 0
M  V30 147 C 16.424 1.79618 -0.581622 0
M  V30 148 O 15.781 1.76879 0.449468 0
M  V30 149 C 15.832 1.96487 -3.03439 0
M  V30 150 O 15.553 1.21341 -4.20961 0
M  V30 151 C 17.054 2.83079 -3.41147 0
M  V30 152 H 14.274 0.298875 -0.600762 0
M  V30 153 H 16.818 0.292736 -2.02394 0
M  V30 154 H 14.973 2.63965 -2.83551 0
M  V30 155 H 15.387 1.85573 -4.90574 0
M  V30 156 H 16.861 3.4565 -4.30384 0
M  V30 157 H 17.338 3.53286 -2.60932 0
M  V30 158 H 17.944 2.2108 -3.63323 0
M  V30 159 N 16.2591 1.48442 0.529413 0
M  V30 160 C 17.5071 1.56179 1.28267 0
M  V30 161 C 17.8281 0.237721 1.93546 0
M  V30 162 O 17.0981 -0.740779 1.81354 0
M  V30 163 H 15.6781 0.575367 0.476405 0
M  V30 164 H 18.3401 1.84909 0.61602 0
M  V30 165 H 17.4361 2.34312 2.06165 0
M  V30 166 N 17.7372 -0.778329 1.37039 0
M  V30 167 C 18.9852 -1.53361 1.31623 0
M  V30 168 C 19.3062 -1.94739 -0.100831 0
M  V30 169 O 18.5762 -1.65797 -1.04347 0
M  V30 170 H 17.1562 -0.568794 0.484234 0
M  V30 171 H 19.8182 -0.926742 1.71457 0
M  V30 172 H 18.9142 -2.43606 1.95096 0
M  V30 173 N 19.2153 -1.21501 -1.00376 0
M  V30 174 C 20.1633 -0.972442 -2.11297 0
M  V30 175 C 21.1573 0.080731 -1.69208 0
M  V30 176 O 22.3633 -0.0707666 -1.79861 0
M  V30 177 H 18.7383 -0.297218 -0.690772 0
M  V30 178 H 20.7093 -1.91394 -2.28934 0
M  V30 179 C 19.4583 -0.555065 -3.43241 0
M  V30 180 H 18.7813 -1.35709 -3.76062 0
M  V30 181 H 20.2213 -0.424664 -4.21868 0
M  V30 182 C 18.6803 0.734147 -3.28804 0
M  V30 183 O 19.2103 1.78937 -3.59645 0
M  V30 184 N 17.4163 0.701133 -2.82015 0
M  V30 185 H 16.9633 -0.157874 -2.57116 0
M  V30 186 H 16.9213 1.56403 -2.72737 0
M  V30 187 N 20.6934 1.19889 -1.02296 0
M  V30 188 C 21.6404 2.22901 -0.598651 0
M  V30 189 C 22.6104 1.61588 0.384521 0
M  V30 190 O 23.7954 1.88697 0.282522 0
M  V30 191 C 20.9354 3.45063 0.0504476 0
M  V30 192 C 20.0484 4.20783 -0.978053 0
M  V30 193 C 19.1834 5.30356 -0.299338 0
M  V30 194 C 18.2224 5.97826 -1.31416 0
M  V30 195 N 17.3594 6.98975 -0.661667 0
M  V30 196 H 22.1994 2.58554 -1.48169 0
M  V30 197 H 19.7364 1.27039 -0.741584 0
M  V30 198 H 21.6944 4.14831 0.443971 0
M  V30 199 H 20.3244 3.10084 0.897097 0
M  V30 200 H 19.3764 3.50018 -1.48969 0
M  V30 201 H 20.6884 4.67109 -1.74958 0
M  V30 202 H 19.8424 6.06516 0.149347 0
M  V30 203 H 18.5814 4.85084 0.504445 0
M  V30 204 H 17.5864 5.20422 -1.77317 0
M  V30 205 H 18.8114 6.45183 -2.11933 0
M  V30 206 H 16.7574 6.55886 0.122132 0
M  V30 207 H 16.6744 7.43461 -1.37117 0
M  V30 208 H 17.9424 7.7914 -0.236785 0
M  V30 209 N 22.1715 0.800033 1.35784 0
M  V30 210 C 23.4195 0.376597 1.9856 0
M  V30 211 C 23.7405 -1.05812 1.63795 0
M  V30 212 O 23.0105 -1.73103 0.917171 0
M  V30 213 H 21.5905 0.136261 0.734467 0
M  V30 214 H 24.2525 1.02442 1.65806 0
M  V30 215 H 23.3485 0.477002 3.08433 0
M  V30 216 N 23.6496 -1.47581 0.552962 0
M  V30 217 C 24.8986 -2.01684 0.0251995 0
M  V30 218 C 25.2116 -1.43317 -1.33115 0
M  V30 219 O 26.4176 -1.89057 -1.94858 0
M  V30 220 C 24.8736 -3.599 -0.00542052 0
M  V30 221 C 24.4816 -4.27257 1.34742 0
M  V30 222 C 26.2256 -4.21768 -0.4808 0
M  V30 223 C 24.1326 -5.77467 1.27614 0
M  V30 224 H 23.0626 -0.753979 0.00565033 0
M  V30 225 H 25.7136 -1.69616 0.70018 0
M  V30 226 H 24.0956 -3.88911 -0.745961 0
M  V30 227 H 25.2696 -4.09893 2.10534 0
M  V30 228 H 23.5846 -3.77358 1.76039 0
M  V30 229 H 26.1816 -5.31838 -0.55246 0
M  V30 230 H 26.5246 -3.88651 -1.49184 0
M  V30 231 H 27.0576 -3.97273 0.204752 0
M  V30 232 H 23.7966 -6.15196 2.26304 0
M  V30 233 H 23.3166 -5.9718 0.55996 0
M  V30 234 H 24.9956 -6.3959 0.976421 0
M  V30 235 N 25.1277 -0.289203 -1.54924 0
M  V30 236 C 26.3757 0.322879 -1.99504 0
M  V30 237 C 26.6967 1.55313 -1.1791 0
M  V30 238 O 25.9667 1.94001 -0.272097 0
M  V30 239 H 24.5467 0.122291 -0.736922 0
M  V30 240 H 27.2087 -0.397802 -1.90797 0
M  V30 241 H 26.3047 0.603061 -3.06218 0
M  V30 242 N 26.6058 1.57591 -0.0167156 0
M  V30 243 C 27.5358 2.12496 0.967858 0
M  V30 244 C 28.5168 1.03807 1.34752 0
M  V30 245 O 29.7018 1.31577 1.42833 0
M  V30 246 C 26.8318 2.64194 2.25431 0
M  V30 247 C 25.7858 3.77559 2.01576 0
M  V30 248 C 25.1118 4.15636 3.36379 0
M  V30 249 C 26.4118 5.04151 1.36489 0
M  V30 250 H 28.1058 2.95013 0.510643 0
M  V30 251 H 25.6518 1.41915 0.244181 0
M  V30 252 H 27.6048 3.01236 2.94678 0
M  V30 253 H 26.3288 1.78821 2.73296 0
M  V30 254 H 24.9878 3.40937 1.34751 0
M  V30 255 H 24.6358 3.27263 3.81979 0
M  V30 256 H 24.3358 4.92022 3.21229 0
M  V30 257 H 25.8598 4.5525 4.06915 0
M  V30 258 H 27.2738 5.38857 1.95718 0
M  V30 259 H 25.6708 5.85453 1.31776 0
M  V30 260 H 26.7408 4.83733 0.336219 0
M  V30 261 N 28.0839 -0.256276 1.55502 0
M  V30 262 C 29.0469 -1.30047 1.88734 0
M  V30 263 C 30.0469 -1.4154 0.763086 0
M  V30 264 O 31.2369 -1.40403 1.03115 0
M  V30 265 C 28.3689 -2.67953 2.10747 0
M  V30 266 H 29.5619 -1.01802 2.82093 0
M  V30 267 H 27.1149 -0.495134 1.4825 0
M  V30 268 H 27.8499 -3.01351 1.19825 0
M  V30 269 H 27.6349 -2.60993 2.92617 0
M  V30 270 H 29.1249 -3.43368 2.37673 0
M  V30 271 N 29.562 -1.4872 -0.521534 0
M  V30 272 C 30.811 -1.56419 -1.27341 0
M  V30 273 C 31.124 -0.246805 -1.94037 0
M  V30 274 O 32.33 -0.202122 -2.70747 0
M  V30 275 C 30.786 -2.75896 -2.31105 0
M  V30 276 C 30.394 -4.14311 -1.70441 0
M  V30 277 C 32.138 -2.92913 -3.07249 0
M  V30 278 C 30.045 -5.25038 -2.72194 0
M  V30 279 H 28.975 -0.582344 -0.478949 0
M  V30 280 H 31.626 -1.75071 -0.549779 0
M  V30 281 H 30.008 -2.50697 -3.06541 0
M  V30 282 H 31.182 -4.49564 -1.01136 0
M  V30 283 H 29.497 -4.02482 -1.06759 0
M  V30 284 H 32.094 -3.72805 -3.83302 0
M  V30 285 H 32.437 -2.02689 -3.63625 0
M  V30 286 H 32.97 -3.18054 -2.38928 0
M  V30 287 H 29.709 -6.17255 -2.20627 0
M  V30 288 H 29.229 -4.94263 -3.39801 0
M  V30 289 H 30.908 -5.53508 -3.35019 0
M  V30 290 N 31.0401 0.771051 -1.3745 0
M  V30 291 C 32.2861 1.5319 -1.32894 0
M  V30 292 C 32.6191 1.94008 0.0862511 0
M  V30 293 O 31.8941 1.64124 1.04373 0
M  V30 294 C 32.1771 2.79648 -2.26868 0
M  V30 295 C 32.0301 2.45079 -3.77169 0
M  V30 296 C 33.3491 3.81583 -2.19277 0
M  V30 297 H 30.4681 0.555744 -0.484064 0
M  V30 298 H 33.1101 0.884492 -1.68157 0
M  V30 299 H 31.2601 3.34891 -1.96926 0
M  V30 300 H 32.9321 1.95745 -4.1771 0
M  V30 301 H 31.1751 1.77767 -3.95704 0
M  V30 302 H 31.8461 3.35478 -4.38359 0
M  V30 303 H 34.3221 3.35835 -2.45671 0
M  V30 304 H 33.1981 4.67787 -2.87171 0
M  V30 305 H 33.4591 4.25897 -1.18592 0
M  V30 306 N 32.5182 1.22032 0.997298 0
M  V30 307 C 33.9342 0.979326 1.26021 0
M  V30 308 C 34.1342 -0.32972 1.98784 0
M  V30 309 O 33.1902 -1.05345 2.29475 0
M  V30 310 C 34.5032 2.17509 2.07631 0
M  V30 311 C 36.0512 2.21817 2.2083 0
M  V30 312 C 36.5262 3.40933 3.05825 0
M  V30 313 N 38.0172 3.41067 3.13412 0
M  V30 314 C 38.7522 4.29885 3.79455 0
M  V30 315 N 38.2482 5.28914 4.47462 0
M  V30 316 N 40.0412 4.17673 3.76173 0
M  V30 317 H 32.1922 2.06202 0.509352 0
M  V30 318 H 34.4552 0.90334 0.287541 0
M  V30 319 H 34.1612 3.12415 1.61524 0
M  V30 320 H 34.0352 2.17206 3.08385 0
M  V30 321 H 36.4222 1.27462 2.66153 0
M  V30 322 H 36.5032 2.2616 1.1952 0
M  V30 323 H 36.1472 4.35586 2.61203 0
M  V30 324 H 36.0772 3.33829 4.07266 0
M  V30 325 H 38.5682 2.69406 2.65007 0
M  V30 326 H 38.8812 5.92973 4.95583 0
M  V30 327 H 37.2262 5.32831 4.46224 0
M  V30 328 H 40.4172 3.39564 3.22202 0
M  V30 329 H 40.5902 4.87098 4.27363 0
M  V30 330 N 33.9963 -1.19345 1.0293 0
M  V30 331 C 35.2733 -1.84811 0.640642 0
M  V30 332 C 35.6533 -1.91855 -0.88062 0
M  V30 333 O 35.0013 -1.43587 -1.7775 0
M  V30 334 C 35.2113 -3.23755 1.30321 0
M  V30 335 C 36.5593 -3.99912 1.42673 0
M  V30 336 O 37.5833 -3.33155 1.26041 0
M  V30 337 O 36.4423 -5.19494 1.6967 0
M  V30 338 H 33.5363 -0.796443 0.222726 0
M  V30 339 H 36.0823 -1.26831 1.12748 0
M  V30 340 H 34.8543 -3.13466 2.34211 0
M  V30 341 H 34.4773 -3.89381 0.804261 0
M  V30 342 N 35.4744 -0.807222 -1.35358 0
M  V30 343 C 36.4044 -0.232509 -2.3234 0
M  V30 344 C 37.3854 0.642386 -1.57504 0
M  V30 345 O 38.5704 0.572526 -1.85569 0
M  V30 346 C 35.7004 0.619238 -3.41735 0
M  V30 347 C 34.6544 -0.157215 -4.27711 0
M  V30 348 C 33.9804 0.816273 -5.28433 0
M  V30 349 C 35.2804 -1.35656 -5.04376 0
M  V30 350 H 36.9744 -1.04276 -2.80654 0
M  V30 351 H 34.5204 -0.50288 -1.34934 0
M  V30 352 H 36.4734 1.03137 -4.08584 0
M  V30 353 H 35.1974 1.46239 -2.92031 0
M  V30 354 H 33.8564 -0.550525 -3.62443 0
M  V30 355 H 33.5044 1.65494 -4.74996 0
M  V30 356 H 33.2044 0.301067 -5.86828 0
M  V30 357 H 34.7284 1.22659 -5.98153 0
M  V30 358 H 36.1424 -1.01927 -5.64166 0
M  V30 359 H 34.5394 -1.8063 -5.7227 0
M  V30 360 H 35.6094 -2.14288 -4.34981 0
M  V30 361 N 36.9525 1.47285 -0.560781 0
M  V30 362 C 38.1925 2.0436 -0.0404627 0
M  V30 363 C 38.5565 1.42534 1.28639 0
M  V30 364 O 39.7575 1.90677 1.89462 0
M  V30 365 C 38.0285 3.57369 0.0471856 0
M  V30 366 S 39.5875 4.3579 0.513109 0
M  V30 367 H 36.4055 0.710492 -0.0268674 0
M  V30 368 H 39.0075 1.80611 -0.748323 0
M  V30 369 H 37.7115 3.9989 -0.922817 0
M  V30 370 H 37.2425 3.8562 0.778491 0
M  V30 371 H 39.2575 4.63476 1.77212 0
M  V30 372 N 38.4306 0.297415 1.54768 0
M  V30 373 C 39.8466 -0.0560823 1.59501 0
M  V30 374 C 40.0466 -1.52725 1.31444 0
M  V30 375 O 39.1026 -2.27947 1.08611 0
M  V30 376 C 40.4156 0.338631 2.98787 0
M  V30 377 C 41.9636 0.287097 3.11681 0
M  V30 378 C 42.4386 0.656579 4.53269 0
M  V30 379 N 43.9296 0.608977 4.59179 0
M  V30 380 C 44.6646 0.867385 5.66802 0
M  V30 381 N 44.1606 1.19157 6.82476 0
M  V30 382 N 45.9536 0.794687 5.56454 0
M  V30 383 H 38.1046 1.25624 1.71267 0
M  V30 384 H 40.3676 0.509057 0.799728 0
M  V30 385 H 40.0736 1.36263 3.2423 0
M  V30 386 H 39.9476 -0.309508 3.75928 0
M  V30 387 H 42.3346 -0.727649 2.85988 0
M  V30 388 H 42.4156 0.969809 2.36703 0
M  V30 389 H 42.0596 1.66912 4.7969 0
M  V30 390 H 41.9896 -0.0481649 5.26578 0
M  V30 391 H 44.4806 0.369198 3.76092 0
M  V30 392 H 44.7936 1.37482 7.60473 0
M  V30 393 H 43.1386 1.22958 6.84037 0
M  V30 394 H 46.3296 0.541098 4.64962 0
M  V30 395 H 46.5026 0.999445 6.40246 0
M  V30 396 N 39.9087 -1.5758 0.0250728 0
M  V30 397 C 40.8387 -2.13007 -0.956575 0
M  V30 398 C 41.8197 -1.0452 -1.342 0
M  V30 399 O 43.0047 -1.32332 -1.42133 0
M  V30 400 C 40.1347 -2.65386 -2.24026 0
M  V30 401 C 39.0887 -3.78623 -1.99571 0
M  V30 402 C 38.4147 -4.17414 -3.3417 0
M  V30 403 C 39.7147 -5.04867 -1.33814 0
M  V30 404 H 41.4087 -2.9528 -0.494991 0
M  V30 405 H 38.9547 -1.42042 -0.236651 0
M  V30 406 H 40.9077 -3.02794 -2.93076 0
M  V30 407 H 39.6317 -1.80268 -2.72343 0
M  V30 408 H 38.2907 -3.41646 -1.32941 0
M  V30 409 H 37.9387 -3.29284 -3.80238 0
M  V30 410 H 37.6387 -4.93719 -3.18615 0
M  V30 411 H 39.1627 -4.57402 -4.04495 0
M  V30 412 H 40.5767 -5.39888 -1.92857 0
M  V30 413 H 38.9737 -5.86144 -1.28669 0
M  V30 414 H 40.0437 -4.83904 -0.310561 0
M  V30 415 N 41.3868 0.248026 -1.55636 0
M  V30 416 C 42.6338 0.976224 -1.77415 0
M  V30 417 C 42.9618 1.85361 -0.589193 0
M  V30 418 O 42.2168 1.90973 0.427529 0
M  V30 419 C 42.5158 1.86819 -3.04686 0
M  V30 420 C 42.1818 1.14625 -4.36087 0
M  V30 421 C 40.8438 0.946723 -4.71795 0
M  V30 422 C 43.1958 0.634463 -5.17324 0
M  V30 423 C 40.5238 0.223091 -5.86276 0
M  V30 424 C 42.8758 -0.0756959 -6.32555 0
M  V30 425 C 41.5398 -0.286711 -6.66884 0
M  V30 426 H 40.8098 0.357226 -0.649208 0
M  V30 427 H 43.4568 0.246415 -1.89908 0
M  V30 428 H 41.7618 2.66502 -2.872 0
M  V30 429 H 43.4588 2.43329 -3.18735 0
M  V30 430 H 40.0488 1.3117 -4.08035 0
M  V30 431 H 44.2328 0.77616 -4.90193 0
M  V30 432 H 39.4888 0.0491185 -6.1138 0
M  V30 433 H 43.6628 -0.479899 -6.94745 0
M  V30 434 H 41.2898 -0.849389 -7.5544 0
M  V30 435 N 42.8649 1.48995 0.513639 0
M  V30 436 C 44.0899 1.61792 1.29762 0
M  V30 437 C 44.5149 0.284475 1.85936 0
M  V30 438 O 43.8729 -0.746185 1.65232 0
M  V30 439 C 43.9209 2.67993 2.41272 0
M  V30 440 O 43.0249 2.26287 3.44772 0
M  V30 441 H 42.3659 0.541963 0.38363 0
M  V30 442 H 44.8959 1.95097 0.616307 0
M  V30 443 H 44.9059 2.89772 2.87221 0
M  V30 444 H 43.5809 3.64791 1.9975 0
M  V30 445 H 42.1579 2.14788 3.04829 0
M  V30 446 N 44.343 -0.763751 1.37857 0
M  V30 447 C 45.591 -1.51957 1.33243 0
M  V30 448 C 45.912 -1.94835 -0.0801709 0
M  V30 449 O 45.182 -1.66894 -1.02582 0
M  V30 450 H 43.762 -0.563626 0.49024 0
M  V30 451 H 46.424 -0.908504 1.7243 0
M  V30 452 H 45.52 -2.41523 1.97669 0
M  V30 453 N 45.8211 -1.22559 -0.990812 0
M  V30 454 C 47.0981 -0.959875 -1.70428 0
M  V30 455 C 47.4781 0.524455 -2.04481 0
M  V30 456 O 46.8261 1.49302 -1.72977 0
M  V30 457 C 47.0361 -1.85955 -2.95333 0
M  V30 458 C 48.3841 -2.11687 -3.68068 0
M  V30 459 O 49.4081 -1.8342 -3.05345 0
M  V30 460 O 48.2671 -2.59572 -4.80921 0
M  V30 461 H 45.3611 -0.361154 -0.743974 0
M  V30 462 H 47.9071 -1.33554 -1.04697 0
M  V30 463 H 46.6791 -2.86346 -2.66687 0
M  V30 464 H 46.3021 -1.4856 -3.68803 0
M  V30 465 N 47.2992 1.18797 -1.03562 0
M  V30 466 C 48.5452 1.8893 -0.737113 0
M  V30 467 C 48.8782 1.79837 0.732956 0
M  V30 468 O 48.1532 1.19525 1.5344 0
M  V30 469 C 48.4362 3.39607 -1.19745 0
M  V30 470 C 48.2892 3.57537 -2.72924 0
M  V30 471 C 49.6082 4.33069 -0.783526 0
M  V30 472 H 46.7272 0.686057 -0.269249 0
M  V30 473 H 49.3692 1.39797 -1.28673 0
M  V30 474 H 47.5192 3.81583 -0.729855 0
M  V30 475 H 49.1912 3.24688 -3.27682 0
M  V30 476 H 47.4342 3.00363 -3.12993 0
M  V30 477 H 48.1052 4.63238 -3.00191 0
M  V30 478 H 50.5812 3.98846 -1.18581 0
M  V30 479 H 49.4572 5.3707 -1.13343 0
M  V30 480 H 49.7182 4.40986 0.313681 0
M  V30 481 N 48.7773 0.814389 1.34928 0
M  V30 482 C 50.0233 0.399013 1.98836 0
M  V30 483 C 50.3563 -1.03314 1.64438 0
M  V30 484 O 49.6313 -1.71811 0.911659 0
M  V30 485 C 49.9143 0.591629 3.55207 0
M  V30 486 C 49.7673 2.06928 3.99376 0
M  V30 487 C 51.0863 0.022199 4.40094 0
M  V30 488 H 48.2053 0.146451 0.722303 0
M  V30 489 H 50.8473 1.02537 1.59957 0
M  V30 490 H 48.9973 0.0584441 3.88456 0
M  V30 491 H 50.6693 2.66544 3.76499 0
M  V30 492 H 48.9123 2.56287 3.49999 0
M  V30 493 H 49.5833 2.1549 5.08201 0
M  V30 494 H 52.0593 0.477643 4.13349 0
M  V30 495 H 50.9353 0.186832 5.48582 0
M  V30 496 H 51.1963 -1.07215 4.28902 0
M  V30 497 N 50.2554 -1.46986 0.568584 0
M  V30 498 C 51.1854 -2.32946 -0.160753 0
M  V30 499 C 52.1664 -1.44487 -0.897631 0
M  V30 500 O 53.3514 -1.73327 -0.875867 0
M  V30 501 C 50.4814 -3.26494 -1.18403 0
M  V30 502 C 49.4354 -4.24282 -0.562895 0
M  V30 503 C 48.7614 -5.07236 -1.69163 0
M  V30 504 C 50.0614 -5.19989 0.490761 0
M  V30 505 H 51.7554 -2.94175 0.556916 0
M  V30 506 H 49.3014 -1.4146 0.26927 0
M  V30 507 H 51.2544 -3.85477 -1.70251 0
M  V30 508 H 49.9784 -2.63343 -1.93179 0
M  V30 509 H 48.6374 -3.66541 -0.0656164 0
M  V30 510 H 48.2854 -4.4048 -2.42871 0
M  V30 511 H 47.9854 -5.7345 -1.28174 0
M  V30 512 H 49.5094 -5.6908 -2.21314 0
M  V30 513 H 50.9234 -5.73271 0.0579047 0
M  V30 514 H 49.3204 -5.94469 0.820165 0
M  V30 515 H 50.3904 -4.64777 1.3824 0
M  V30 516 N 51.7335 -0.305618 -1.54608 0
M  V30 517 C 52.9615 0.304775 -2.04643 0
M  V30 518 C 53.3765 1.47167 -1.18268 0
M  V30 519 O 52.7335 1.81296 -0.209328 0
M  V30 520 C 52.7845 0.756564 -3.53495 0
M  V30 521 O 52.5055 -0.36389 -4.36586 0
M  V30 522 C 54.0065 1.43163 -4.19546 0
M  V30 523 H 51.2265 0.0655481 -0.667791 0
M  V30 524 H 53.7705 -0.446592 -1.99564 0
M  V30 525 H 51.9255 1.45794 -3.58919 0
M  V30 526 H 52.3395 -0.0113121 -5.24499 0
M  V30 527 H 53.8135 1.69886 -5.25207 0
M  V30 528 H 54.2905 2.37318 -3.69563 0
M  V30 529 H 54.8965 0.773307 -4.18211 0
M  V30 530 N 53.2116 1.57565 -0.0334293 0
M  V30 531 C 54.1746 2.09393 0.932048 0
M  V30 532 C 55.1746 1.00986 1.25134 0
M  V30 533 O 56.3646 1.27129 1.19096 0
M  V30 534 C 53.4966 2.56338 2.2473 0
M  V30 535 H 54.6896 2.95984 0.483085 0
M  V30 536 H 52.2426 1.54819 0.21468 0
M  V30 537 H 52.9776 1.7309 2.74245 0
M  V30 538 H 52.7626 3.35542 2.02865 0
M  V30 539 H 54.2526 2.96646 2.93923 0
M  V30 540 N 54.6897 -0.239769 1.55765 0
M  V30 541 C 56.1057 -0.588624 1.48349 0
M  V30 542 C 56.3057 -1.88005 0.72502 0
M  V30 543 O 55.3617 -2.51186 0.257269 0
M  V30 544 C 56.6747 -0.68474 2.928 0
M  V30 545 C 58.2227 -0.77659 3.03213 0
M  V30 546 C 58.6977 -0.904207 4.48986 0
M  V30 547 N 60.1887 -0.968896 4.52953 0
M  V30 548 C 60.9237 -1.08703 5.63002 0
M  V30 549 N 60.4197 -1.17026 6.82845 0
M  V30 550 N 62.2127 -1.12074 5.50814 0
M  V30 551 H 54.3637 0.607911 2.03515 0
M  V30 552 H 56.6267 0.21083 0.924259 0
M  V30 553 H 56.3327 0.194284 3.51163 0
M  V30 554 H 56.2067 -1.55435 3.43686 0
M  V30 555 H 58.5937 -1.64606 2.44926 0
M  V30 556 H 58.6747 0.118315 2.55526 0
M  V30 557 H 58.3187 -0.0392633 5.07885 0
M  V30 558 H 58.2487 -1.81426 4.9436 0
M  V30 559 H 60.7397 -0.915633 3.6664 0
M  V30 560 H 61.0527 -1.25966 7.62465 0
M  V30 561 H 59.3977 -1.13971 6.85591 0
M  V30 562 H 62.5887 -1.05226 4.5612 0
M  V30 563 H 62.7617 -1.20936 6.36615 0
M  V30 564 N 56.1678 -1.49265 -0.50573 0
M  V30 565 C 57.4448 -1.49012 -1.26707 0
M  V30 566 C 57.8248 -0.215205 -2.1 0
M  V30 567 O 57.1728 0.802547 -2.13943 0
M  V30 568 C 57.3828 -2.7663 -2.12783 0
M  V30 569 C 58.7308 -3.25932 -2.72127 0
M  V30 570 O 59.7548 -2.77715 -2.23054 0
M  V30 571 O 58.6138 -4.09897 -3.61451 0
M  V30 572 H 55.7078 -0.596197 -0.57313 0
M  V30 573 H 58.2538 -1.61524 -0.52039 0
M  V30 574 H 57.0258 -3.60916 -1.5118 0
M  V30 575 H 56.6488 -2.66956 -2.94653 0
M  V30 576 N 57.6459 0.756429 -1.3826 0
M  V30 577 C 58.8919 1.51772 -1.34511 0
M  V30 578 C 59.2249 1.94089 0.0656691 0
M  V30 579 O 58.4999 1.65221 1.02626 0
M  V30 580 C 58.7829 2.77226 -2.29821 0
M  V30 581 C 58.6359 2.41065 -3.79747 0
M  V30 582 C 59.9549 3.79236 -2.23312 0
M  V30 583 H 57.0739 0.550578 -0.489931 0
M  V30 584 H 59.7159 0.866607 -1.69086 0
M  V30 585 H 57.8659 3.32784 -2.00467 0
M  V30 586 H 59.5379 1.91303 -4.19763 0
M  V30 587 H 57.7809 1.7356 -3.97567 0
M  V30 588 H 58.4519 3.3081 -4.41892 0
M  V30 589 H 60.9279 3.3321 -2.49219 0
M  V30 590 H 59.8039 4.64714 -2.92116 0
M  V30 591 H 60.0649 4.24615 -1.23102 0
M  V30 592 N 59.124 1.23083 0.984299 0
M  V30 593 C 60.352 1.08714 1.76037 0
M  V30 594 C 60.767 -0.361691 1.85303 0
M  V30 595 O 60.124 -1.25034 1.32939 0
M  V30 596 C 60.175 1.70206 3.18923 0
M  V30 597 O 59.896 3.09423 3.10144 0
M  V30 598 C 61.397 1.61227 4.12941 0
M  V30 599 H 58.617 0.380664 0.552572 0
M  V30 600 H 61.161 1.62853 1.23689 0
M  V30 601 H 59.316 1.20109 3.6831 0
M  V30 602 H 59.73 3.39188 4.00065 0
M  V30 603 H 61.204 2.08962 5.10919 0
M  V30 604 H 61.681 0.570375 4.35481 0
M  V30 605 H 62.287 2.10671 3.69456 0
M  V30 606 N 60.6021 -1.18246 1.0419 0
M  V30 607 C 62.0181 -1.40269 0.761366 0
M  V30 608 C 62.2181 -1.90777 -0.648578 0
M  V30 609 O 61.2741 -2.0929 -1.41258 0
M  V30 610 C 62.5871 -2.40237 1.8085 0
M  V30 611 C 64.1351 -2.53961 1.82955 0
M  V30 612 C 64.6101 -3.57194 2.86664 0
M  V30 613 N 66.1011 -3.64702 2.85563 0
M  V30 614 C 66.8361 -4.44309 3.6246 0
M  V30 615 N 66.3321 -5.27514 4.49111 0
M  V30 616 N 68.1251 -4.39084 3.50944 0
M  V30 617 H 60.2761 -0.837882 1.95175 0
M  V30 618 H 62.5391 -0.430608 0.84456 0
M  V30 619 H 62.2451 -2.10176 2.81991 0
M  V30 620 H 62.1191 -3.39601 1.64168 0
M  V30 621 H 64.5061 -2.83338 0.824855 0
M  V30 622 H 64.5871 -1.54706 2.03715 0
M  V30 623 H 64.2311 -3.28558 3.87314 0
M  V30 624 H 64.1611 -4.5613 2.6316 0
M  V30 625 H 66.6521 -3.05289 2.22727 0
M  V30 626 H 66.9651 -5.85411 5.04493 0
M  V30 627 H 65.3101 -5.2693 4.53178 0
M  V30 628 H 68.5011 -3.7313 2.82651 0
M  V30 629 H 68.6741 -5.00883 4.11121 0
M  V30 630 N 62.0802 -0.821533 -1.34494 0
M  V30 631 C 63.3282 -0.408139 -1.97936 0
M  V30 632 C 63.6492 1.03193 -1.65457 0
M  V30 633 O 62.9192 1.71622 -0.944595 0
M  V30 634 H 61.4992 -0.147928 -0.732206 0
M  V30 635 H 64.1612 -1.05067 -1.64155 0
M  V30 636 H 63.2572 -0.52601 -3.07635 0
M  V30 637 N 63.5583 1.46682 -0.576371 0
M  V30 638 C 64.4903 2.28341 0.198231 0
M  V30 639 C 65.5033 1.38141 0.861453 0
M  V30 640 O 66.6923 1.62797 0.732082 0
M  V30 641 C 63.7923 3.12986 1.29972 0
M  V30 642 C 62.9653 4.31271 0.729639 0
M  V30 643 C 62.0243 4.97363 1.71803 0
M  V30 644 O 61.0503 5.55156 1.25658 0
M  V30 645 N 62.2523 4.93796 3.05198 0
M  V30 646 H 65.0173 2.9546 -0.502324 0
M  V30 647 H 62.5783 1.56525 -0.413715 0
M  V30 648 H 64.5703 3.54066 1.96008 0
M  V30 649 H 63.1403 2.47984 1.90323 0
M  V30 650 H 62.3603 3.94052 -0.108012 0
M  V30 651 H 63.6483 5.07739 0.328438 0
M  V30 652 H 63.0463 4.48077 3.45317 0
M  V30 653 H 61.6033 5.38837 3.6674 0
M  V30 654 N 65.0364 0.313813 1.54444 0
M  V30 655 C 65.9994 -0.54379 2.22656 0
M  V30 656 C 66.9994 -1.05124 1.21678 0
M  V30 657 O 68.1894 -0.945225 1.46325 0
M  V30 658 C 65.3214 -1.75427 2.92298 0
M  V30 659 H 66.5144 0.0523599 2.99854 0
M  V30 660 H 64.0674 0.0647834 1.56166 0
M  V30 661 H 64.8024 -2.38991 2.19211 0
M  V30 662 H 64.5874 -1.39791 3.66334 0
M  V30 663 H 66.0774 -2.36325 3.44297 0
M  V30 664 N 66.5145 -1.57545 0.0417849 0
M  V30 665 C 67.4775 -2.09885 -0.92093 0
M  V30 666 C 68.4775 -1.01648 -1.24596 0
M  V30 667 O 69.6675 -1.27759 -1.1842 0
M  V30 668 C 66.7995 -2.57527 -2.23367 0
M  V30 669 H 67.9925 -2.96236 -0.467382 0
M  V30 670 H 65.5455 -1.5493 -0.206467 0
M  V30 671 H 66.2805 -1.74542 -2.73323 0
M  V30 672 H 66.0655 -3.36613 -2.01083 0
M  V30 673 H 67.5555 -2.98201 -2.92346 0
M  V30 674 N 67.9926 0.231505 -1.5589 0
M  V30 675 C 69.2386 0.95877 -1.78705 0
M  V30 676 C 69.5716 1.8438 -0.609725 0
M  V30 677 O 68.8466 1.90521 0.391426 0
M  V30 678 C 69.1296 1.8062 -3.11526 0
M  V30 679 C 68.9826 0.948328 -4.39689 0
M  V30 680 C 70.3016 2.78585 -3.40703 0
M  V30 681 H 67.4206 0.347129 -0.650131 0
M  V30 682 H 70.0626 0.228259 -1.88624 0
M  V30 683 H 68.2126 2.42902 -3.03201 0
M  V30 684 H 69.8846 0.343016 -4.60023 0
M  V30 685 H 68.1276 0.253314 -4.3306 0
M  V30 686 H 68.7986 1.57543 -5.29041 0
M  V30 687 H 71.2746 2.26439 -3.49091 0
M  V30 688 H 70.1506 3.34988 -4.34826 0
M  V30 689 H 70.4116 3.55825 -2.62375 0
M  V30 690 N 69.4707 1.49531 0.497807 0
M  V30 691 C 70.4027 1.62559 1.61578 0
M  V30 692 C 71.4157 0.508134 1.54667 0
M  V30 693 O 72.6047 0.780309 1.60541 0
M  V30 694 C 69.7047 1.56925 3.00379 0
M  V30 695 C 68.8777 2.84257 3.3244 0
M  V30 696 C 67.9367 2.71632 4.50669 0
M  V30 697 O 66.9627 3.4557 4.52294 0
M  V30 698 N 68.1647 1.83391 5.5077 0
M  V30 699 H 70.9297 2.58981 1.50828 0
M  V30 700 H 68.4907 1.4666 0.685743 0
M  V30 701 H 70.4827 1.46129 3.77397 0
M  V30 702 H 69.0527 0.683483 3.05037 0
M  V30 703 H 68.2727 3.09381 2.44289 0
M  V30 704 H 69.5607 3.68666 3.5066 0
M  V30 705 H 68.9587 1.22583 5.52259 0
M  V30 706 H 67.5157 1.78515 6.26878 0
M  V30 707 N 70.9488 -0.749086 1.3866 0
M  V30 708 C 71.8808 -1.87273 1.32142 0
M  V30 709 C 72.8938 -1.61127 0.232787 0
M  V30 710 O 74.0828 -1.71623 0.49069 0
M  V30 711 C 71.1828 -3.23005 1.02571 0
M  V30 712 C 70.3558 -3.7662 2.22433 0
M  V30 713 C 69.4148 -4.90879 1.89537 0
M  V30 714 O 68.4408 -5.05276 2.62078 0
M  V30 715 N 69.6428 -5.74198 0.853031 0
M  V30 716 H 72.4078 -1.93373 2.28969 0
M  V30 717 H 69.9688 -0.929216 1.32579 0
M  V30 718 H 71.9608 -3.96992 0.786085 0
M  V30 719 H 70.5308 -3.12262 0.145249 0
M  V30 720 H 69.7508 -2.94147 2.62434 0
M  V30 721 H 71.0388 -4.09173 3.02415 0
M  V30 722 H 70.4368 -5.6514 0.25155 0
M  V30 723 H 68.9938 -6.48313 0.67329 0
M  V30 724 N 72.4269 -1.23603 -0.977757 0
M  V30 725 C 73.3569 -1.04401 -2.0886 0
M  V30 726 C 74.3379 0.0399052 -1.70053 0
M  V30 727 O 75.5229 -0.125246 -1.93796 0
M  V30 728 C 72.6529 -0.637269 -3.41403 0
M  V30 729 C 71.6069 -1.66883 -3.94124 0
M  V30 730 C 70.9329 -1.11745 -5.22893 0
M  V30 731 C 72.2329 -3.06247 -4.23096 0
M  V30 732 H 73.9269 -1.97316 -2.25182 0
M  V30 733 H 71.4729 -0.950096 -1.08209 0
M  V30 734 H 73.4259 -0.48998 -4.18542 0
M  V30 735 H 72.1499 0.327557 -3.24953 0
M  V30 736 H 70.8089 -1.80416 -3.19133 0
M  V30 737 H 70.4569 -0.143527 -5.02795 0
M  V30 738 H 70.1569 -1.80672 -5.59134 0
M  V30 739 H 71.6809 -0.982067 -6.02651 0
M  V30 740 H 73.0949 -2.96001 -4.90975 0
M  V30 741 H 71.4919 -3.72436 -4.70544 0
M  V30 742 H 72.5619 -3.55041 -3.30263 0
M  V30 743 N 73.905 1.17692 -1.04816 0
M  V30 744 C 74.837 2.21103 -0.603822 0
M  V30 745 C 75.85 1.59411 0.33046 0
M  V30 746 O 77.039 1.7807 0.12379 0
M  V30 747 C 74.139 3.38623 0.136898 0
M  V30 748 C 73.312 4.29888 -0.807137 0
M  V30 749 C 72.371 5.26088 -0.10836 0
M  V30 750 O 71.397 5.64353 -0.741232 0
M  V30 751 N 72.599 5.68882 1.15558 0
M  V30 752 H 75.364 2.59848 -1.49329 0
M  V30 753 H 72.925 1.32553 -0.929587 0
M  V30 754 H 74.917 4.00009 0.614401 0
M  V30 755 H 73.487 2.98508 0.927993 0
M  V30 756 H 72.707 3.65993 -1.46434 0
M  V30 757 H 73.995 4.87759 -1.44807 0
M  V30 758 H 73.393 5.39861 1.69015 0
M  V30 759 H 71.95 6.32429 1.57722 0
M  V30 760 N 75.3831 0.828654 1.34056 0
M  V30 761 C 76.3461 0.259927 2.27721 0
M  V30 762 C 77.3461 -0.565478 1.50529 0
M  V30 763 O 78.5361 -0.38075 1.69988 0
M  V30 764 C 75.6681 -0.634944 3.34935 0
M  V30 765 H 76.8611 1.0863 2.79534 0
M  V30 766 H 74.4141 0.600951 1.44285 0
M  V30 767 H 75.1491 -1.48416 2.88346 0
M  V30 768 H 74.9341 -0.0444999 3.92075 0
M  V30 769 H 76.4241 -1.02648 4.04788 0
M  V30 770 N 76.8612 -1.46375 0.584142 0
M  V30 771 C 77.7712 -2.34115 -0.150728 0
M  V30 772 C 78.7872 -1.49838 -0.884567 0
M  V30 773 O 79.9632 -1.82704 -0.847429 0
M  V30 774 C 77.0282 -3.2705 -1.15062 0
M  V30 775 C 76.0892 -4.27228 -0.421293 0
M  V30 776 C 75.3222 -5.15722 -1.37355 0
M  V30 777 O 75.5452 -5.07176 -2.61014 0
M  V30 778 O 74.4792 -5.95383 -0.883355 0
M  V30 779 H 78.3052 -2.98309 0.569708 0
M  V30 780 H 75.8902 -1.45373 0.344535 0
M  V30 781 H 77.7722 -3.84381 -1.72712 0
M  V30 782 H 76.4472 -2.65451 -1.8525 0
M  V30 783 H 75.3542 -3.7358 0.197085 0
M  V30 784 H 76.6872 -4.91616 0.239641 0
M  V30 785 N 78.3393 -0.321999 -1.54275 0
M  V30 786 C 79.5873 0.280489 -2.00144 0
M  V30 787 C 79.9083 1.52777 -1.21178 0
M  V30 788 O 79.1783 1.9338 -0.313187 0
M  V30 789 H 77.7583 0.106632 -0.73935 0
M  V30 790 H 80.4203 -0.438184 -1.8991 0
M  V30 791 H 79.5163 0.537972 -3.07428 0
M  V30 792 N 79.8174 1.5752 -0.0501392 0
M  V30 793 C 80.7474 2.14502 0.922566 0
M  V30 794 C 81.7284 1.06642 1.3252 0
M  V30 795 O 82.9134 1.34577 1.4001 0
M  V30 796 C 80.0434 2.68916 2.19776 0
M  V30 797 C 78.9974 3.8175 1.93523 0
M  V30 798 C 78.3234 4.22677 3.27487 0
M  V30 799 C 79.6234 5.06932 1.25765 0
M  V30 800 H 81.3174 2.9603 0.447952 0
M  V30 801 H 78.8634 1.42401 0.214024 0
M  V30 802 H 80.8164 3.07419 2.88222 0
M  V30 803 H 79.5404 1.84578 2.69441 0
M  V30 804 H 78.1994 3.43718 1.27489 0
M  V30 805 H 77.8474 3.35291 3.74952 0
M  V30 806 H 77.5474 4.98725 3.1072 0
M  V30 807 H 79.0714 4.63779 3.97166 0
M  V30 808 H 80.4854 5.42888 1.84244 0
M  V30 809 H 78.8824 5.88116 1.19328 0
M  V30 810 H 79.9524 4.84337 0.233536 0
M  V30 811 N 81.2955 -0.223234 1.56011 0
M  V30 812 C 82.5205 -0.968978 1.83373 0
M  V30 813 C 82.9455 -1.77227 0.630254 0
M  V30 814 O 82.3035 -1.76345 -0.420959 0
M  V30 815 C 82.3515 -1.86363 3.08709 0
M  V30 816 O 81.4555 -2.95873 2.87285 0
M  V30 817 H 80.7965 -0.274461 0.604622 0
M  V30 818 H 83.3265 -0.237056 2.03222 0
M  V30 819 H 83.3365 -2.27376 3.38768 0
M  V30 820 H 82.0115 -1.27319 3.95933 0
M  V30 821 H 80.5885 -2.58818 2.68454 0
M  V30 822 N 82.7736 -1.49793 -0.48987 0
M  V30 823 C 84.1846 -1.52914 -1.07118 0
M  V30 824 C 84.5356 -0.321738 -1.93544 0
M  V30 825 O 83.6606 0.567338 -2.08831 0
M  V30 826 C 84.2556 -2.771 -1.94938 0
M  V30 827 C 82.8146 -2.82963 -2.48212 0
M  V30 828 C 81.9616 -2.46972 -1.26096 0
M  V30 829 H 84.9126 -1.56329 -0.273289 0
M  V30 830 H 84.9336 -2.57892 -2.79771 0
M  V30 831 H 84.4456 -3.64959 -1.32009 0
M  V30 832 H 82.5466 -1.99411 -3.14748 0
M  V30 833 H 82.6596 -3.85406 -2.84603 0
M  V30 834 H 81.0236 -1.98994 -1.58976 0
M  V30 835 H 81.8066 -3.37118 -0.648581 0
M  V30 836 N 84.2517 0.741722 -1.39055 0
M  V30 837 C 85.6677 1.04638 -1.20512 0
M  V30 838 C 85.8677 2.01405 -0.0620218 0
M  V30 839 O 84.9237 2.45547 0.588457 0
M  V30 840 C 86.2367 1.6151 -2.53643 0
M  V30 841 C 87.7847 1.73623 -2.6043 0
M  V30 842 C 88.2597 2.33906 -3.93767 0
M  V30 843 N 89.7507 2.41323 -3.9537 0
M  V30 844 C 90.4857 2.88888 -4.95309 0
M  V30 845 N 89.9817 3.36401 -6.05645 0
M  V30 846 N 91.7747 2.88037 -4.82692 0
M  V30 847 H 83.9257 0.0998155 -2.12165 0
M  V30 848 H 86.1887 0.106907 -0.941953 0
M  V30 849 H 85.8947 0.978739 -3.37807 0
M  V30 850 H 85.7687 2.60411 -2.72885 0
M  V30 851 H 88.1557 2.36384 -1.76655 0
M  V30 852 H 88.2367 0.733945 -2.45045 0
M  V30 853 H 87.8807 1.71776 -4.7797 0
M  V30 854 H 87.8107 3.34799 -4.06469 0
M  V30 855 H 90.3017 2.07734 -3.15682 0
M  V30 856 H 90.6147 3.71186 -6.77821 0
M  V30 857 H 88.9597 3.34427 -6.09248 0
M  V30 858 H 92.1507 2.50237 -3.95599 0
M  V30 859 H 92.3237 3.24792 -5.60726 0
M  V30 860 N 85.7298 1.2412 0.971189 0
M  V30 861 C 86.9768 1.07881 1.71371 0
M  V30 862 C 87.3048 -0.382901 1.90694 0
M  V30 863 O 86.5598 -1.29945 1.46331 0
M  V30 864 C 86.8588 1.75983 3.11071 0
M  V30 865 C 86.5248 3.25909 3.11599 0
M  V30 866 C 85.1868 3.66813 3.11451 0
M  V30 867 C 87.5388 4.21771 3.062 0
M  V30 868 C 84.8668 5.02021 3.03631 0
M  V30 869 C 87.2188 5.56982 2.99923 0
M  V30 870 C 85.8828 5.97237 2.98102 0
M  V30 871 H 85.1528 0.394764 0.62709 0
M  V30 872 H 87.7998 1.54176 1.13587 0
M  V30 873 H 86.1048 1.22072 3.72298 0
M  V30 874 H 87.8018 1.60887 3.6731 0
M  V30 875 H 84.3918 2.93353 3.12477 0
M  V30 876 H 88.5758 3.91172 3.05447 0
M  V30 877 H 83.8318 5.32411 3.0058 0
M  V30 878 H 88.0058 6.30969 2.94704 0
M  V30 879 H 85.6328 7.01967 2.91798 0
M  V30 880 N 87.2079 -1.17134 1.05439 0
M  V30 881 C 88.1579 -2.1919 0.627675 0
M  V30 882 C 89.1419 -1.57328 -0.337147 0
M  V30 883 O 90.3339 -1.76329 -0.153976 0
M  V30 884 C 87.4629 -3.43299 0.00651435 0
M  V30 885 C 86.5489 -4.12255 0.995312 0
M  V30 886 N 86.9399 -4.56997 2.16765 0
M  V30 887 C 85.2379 -4.38316 0.824336 0
M  V30 888 C 85.9389 -5.10239 2.7934 0
M  V30 889 N 84.9149 -5.02595 2.07122 0
M  V30 890 H 88.7169 -2.5149 1.52086 0
M  V30 891 H 86.2309 -1.33491 0.924868 0
M  V30 892 H 88.2279 -4.15693 -0.316965 0
M  V30 893 H 86.8879 -3.1249 -0.882033 0
M  V30 894 H 87.8989 -4.51006 2.54587 0
M  V30 895 H 84.5759 -4.17498 -0.0129526 0
M  V30 896 H 85.9659 -5.54961 3.78772 0
M  V30 897 N 88.686 -0.835752 -1.33615 0
M  V30 898 C 89.618 -0.224151 -2.28101 0
M  V30 899 C 90.631 0.593331 -1.51603 0
M  V30 900 O 91.82 0.420911 -1.73466 0
M  V30 901 C 88.92 0.703309 -3.31522 0
M  V30 902 C 88.093 -0.0741528 -4.37337 0
M  V30 903 C 87.152 0.776176 -5.20444 0
M  V30 904 O 86.178 0.216506 -5.68788 0
M  V30 905 N 87.38 2.09401 -5.41416 0
M  V30 906 H 90.145 -1.03598 -2.81225 0
M  V30 907 H 87.706 -0.69392 -1.46275 0
M  V30 908 H 89.698 1.27707 -3.84022 0
M  V30 909 H 88.268 1.41585 -2.78698 0
M  V30 910 H 87.488 -0.82928 -3.85378 0
M  V30 911 H 88.776 -0.608863 -5.05144 0
M  V30 912 H 88.174 2.57229 -5.03835 0
M  V30 913 H 86.731 2.61633 -5.96985 0
M  V30 914 N 90.1641 1.46063 -0.591896 0
M  V30 915 C 91.0941 2.33172 0.123673 0
M  V30 916 C 92.0751 1.45897 0.87453 0
M  V30 917 O 93.2601 1.74698 0.848181 0
M  V30 918 C 90.3901 3.28336 1.13194 0
M  V30 919 C 89.3441 4.25124 0.495324 0
M  V30 920 C 88.6701 5.09863 1.61071 0
M  V30 921 C 89.9701 5.19143 -0.573425 0
M  V30 922 H 91.6641 2.93252 -0.603646 0
M  V30 923 H 89.2101 1.41014 -0.291741 0
M  V30 924 H 91.1631 3.88137 1.64097 0
M  V30 925 H 89.8871 2.66383 1.88965 0
M  V30 926 H 88.5461 3.66599 0.00729452 0
M  V30 927 H 88.1941 4.44288 2.35832 0
M  V30 928 H 87.8941 5.75417 1.19035 0
M  V30 929 H 89.4181 5.72529 2.12233 0
M  V30 930 H 90.8321 5.73106 -0.1491 0
M  V30 931 H 89.2291 5.93089 -0.914636 0
M  V30 932 H 90.2991 4.62519 -1.45617 0
M  V30 933 N 91.6422 0.330177 1.54103 0
M  V30 934 C 92.9192 -0.325007 1.92881 0
M  V30 935 C 93.2992 -1.6934 1.26045 0
M  V30 936 O 92.6472 -2.24855 0.406526 0
M  V30 937 C 92.8572 -0.410634 3.46576 0
M  V30 938 C 94.2052 -0.667801 4.19316 0
M  V30 939 O 95.2292 -0.49329 3.52768 0
M  V30 940 O 94.0882 -1.00491 5.37181 0
M  V30 941 H 91.1822 -0.186873 0.80561 0
M  V30 942 H 93.7282 0.380376 1.65382 0
M  V30 943 H 92.5002 0.550164 3.87413 0
M  V30 944 H 92.1232 -1.16333 3.802 0
M  V30 945 N 93.1203 -1.57491 0.0584922 0
M  V30 946 C 94.3693 -1.92155 -0.613146 0
M  V30 947 C 94.6823 -0.939334 -1.71569 0
M  V30 948 O 95.8883 -1.17829 -2.44599 0
M  V30 949 C 94.3443 -3.41303 -1.14195 0
M  V30 950 C 93.9523 -4.47944 -0.0711265 0
M  V30 951 C 95.6963 -3.84988 -1.78841 0
M  V30 952 C 93.6033 -5.88212 -0.613225 0
M  V30 953 H 92.5333 -0.717162 -0.232796 0
M  V30 954 H 95.1843 -1.83049 0.12857 0
M  V30 955 H 93.5663 -3.45437 -1.93621 0
M  V30 956 H 94.7403 -4.55408 0.702836 0
M  V30 957 H 93.0553 -4.13644 0.478313 0
M  V30 958 H 95.6523 -4.87159 -2.20408 0
M  V30 959 H 95.9953 -3.21632 -2.64308 0
M  V30 960 H 96.5283 -3.83401 -1.06059 0
M  V30 961 H 93.2673 -6.55183 0.203978 0
M  V30 962 H 92.7873 -5.84294 -1.35501 0
M  V30 963 H 94.4663 -6.37687 -1.09383 0
M  V30 964 N 94.5984 0.214957 -1.56127 0
M  V30 965 C 95.8754 0.963093 -1.70247 0
M  V30 966 C 96.2554 2.02166 -0.60764 0
M  V30 967 O 95.6034 2.25244 0.384385 0
M  V30 968 C 95.8134 1.56756 -3.11815 0
M  V30 969 C 97.1614 2.0573 -3.7143 0
M  V30 970 O 98.1854 1.66637 -3.14818 0
M  V30 971 O 97.0444 2.77603 -4.70743 0
M  V30 972 H 94.1384 0.450321 -0.693643 0
M  V30 973 H 96.6844 0.206219 -1.68442 0
M  V30 974 H 95.4564 0.803533 -3.82961 0
M  V30 975 H 95.0794 2.3898 -3.17765 0
M  V30 976 N 96.0765 1.50051 0.48192 0
M  V30 977 C 97.3535 1.51009 1.2432 0
M  V30 978 C 97.7335 0.248587 2.09631 0
M  V30 979 O 97.0815 -0.768409 2.15192 0
M  V30 980 C 97.2915 2.79981 2.08355 0
M  V30 981 C 98.6395 3.3022 2.66908 0
M  V30 982 O 99.6635 2.81228 2.18607 0
M  V30 983 O 98.5225 4.15595 3.54884 0
M  V30 984 H 95.6165 0.605239 0.563573 0
M  V30 985 H 98.1625 1.62332 0.494627 0
M  V30 986 H 96.9345 3.63275 1.45419 0
M  V30 987 H 96.5575 2.7161 2.90368 0
M  V30 988 N 97.5546 -0.734337 1.39446 0
M  V30 989 C 98.4846 -1.86155 1.40955 0
M  V30 990 C 99.4656 -1.67898 0.272827 0
M  V30 991 O 100.651 -1.88207 0.478743 0
M  V30 992 C 97.7806 -3.23912 1.25294 0
M  V30 993 C 96.7346 -3.56808 2.36373 0
M  V30 994 C 96.0606 -4.93508 2.058 0
M  V30 995 C 97.3606 -3.59713 3.78687 0
M  V30 996 H 99.0546 -1.8515 2.35287 0
M  V30 997 H 96.6006 -0.889367 1.13253 0
M  V30 998 H 98.5536 -4.02443 1.2497 0
M  V30 999 H 97.2776 -3.25446 0.274308 0
M  V30 1000 H 95.9366 -2.80606 2.35914 0
M  V30 1001 H 95.5846 -4.91623 1.06374 0
M  V30 1002 H 95.2846 -5.16486 2.80208 0
M  V30 1003 H 96.8086 -5.74396 2.07128 0
M  V30 1004 H 98.2226 -4.2832 3.81071 0
M  V30 1005 H 96.6196 -3.94209 4.52459 0
M  V30 1006 H 97.6896 -2.59504 4.09617 0
M  V30 1007 N 99.0327 -1.24633 -0.964593 0
M  V30 1008 C 99.9647 -0.999302 -2.06268 0
M  V30 1009 C 100.978 0.0323226 -1.62768 0
M  V30 1010 O 102.167 -0.205079 -1.77318 0
M  V30 1011 C 99.2667 -0.486816 -3.35385 0
M  V30 1012 C 98.4397 -1.5823 -4.07777 0
M  V30 1013 C 97.4987 -1.07191 -5.15166 0
M  V30 1014 O 96.5247 -1.76426 -5.41168 0
M  V30 1015 N 97.7267 0.0920373 -5.80427 0
M  V30 1016 H 100.492 -1.94477 -2.28033 0
M  V30 1017 H 98.0527 -1.15704 -1.13244 0
M  V30 1018 H 100.045 -0.130066 -4.04491 0
M  V30 1019 H 98.6147 0.364459 -3.10468 0
M  V30 1020 H 97.8347 -2.11109 -3.32906 0
M  V30 1021 H 99.1227 -2.31854 -4.52903 0
M  V30 1022 H 98.5207 0.670784 -5.61709 0
M  V30 1023 H 97.0777 0.389905 -6.50633 0
M  V30 1024 N 100.511 1.16574 -1.06058 0
M  V30 1025 C 101.736 1.91493 -0.796562 0
M  V30 1026 C 102.161 1.76773 0.642868 0
M  V30 1027 O 101.519 1.09142 1.44768 0
M  V30 1028 C 101.567 3.40293 -1.19303 0
M  V30 1029 O 100.671 4.11074 -0.330394 0
M  V30 1030 H 100.012 0.596678 -0.291326 0
M  V30 1031 H 102.542 1.47708 -1.41575 0
M  V30 1032 H 102.552 3.91057 -1.16356 0
M  V30 1033 H 101.227 3.50326 -2.24153 0
M  V30 1034 H 99.8038 3.70513 -0.421225 0
M  V30 1035 N 101.989 0.842826 1.3317 0
M  V30 1036 C 103.238 0.436738 1.96915 0
M  V30 1037 C 103.551 -1.01025 1.67491 0
M  V30 1038 O 104.757 -1.5212 2.24881 0
M  V30 1039 C 103.213 0.730021 3.52418 0
M  V30 1040 C 102.821 2.19195 3.90714 0
M  V30 1041 C 104.565 0.391076 4.22695 0
M  V30 1042 C 102.472 2.42907 5.39212 0
M  V30 1043 H 101.402 0.15958 0.736919 0
M  V30 1044 H 104.053 1.03196 1.51733 0
M  V30 1045 H 102.435 0.0643755 3.95948 0
M  V30 1046 H 103.609 2.8984 3.58231 0
M  V30 1047 H 101.924 2.49425 3.33431 0
M  V30 1048 H 104.521 0.545817 5.31907 0
M  V30 1049 H 104.864 -0.666294 4.10933 0
M  V30 1050 H 105.397 1.01212 3.84709 0
M  V30 1051 H 102.136 3.47224 5.55982 0
M  V30 1052 H 101.656 1.76827 5.73142 0
M  V30 1053 H 103.335 2.2626 6.06148 0
M  V30 1054 N 103.467 -1.45747 0.599634 0
M  V30 1055 C 104.883 -1.57424 0.26264 0
M  V30 1056 C 105.083 -1.59222 -1.23493 0
M  V30 1057 O 104.139 -1.51825 -2.01756 0
M  V30 1058 C 105.452 -2.86061 0.926795 0
M  V30 1059 C 107 -2.99722 0.901967 0
M  V30 1060 C 107.475 -4.31119 1.54598 0
M  V30 1061 N 108.966 -4.37858 1.5111 0
M  V30 1062 C 109.701 -5.3818 1.97863 0
M  V30 1063 N 109.197 -6.45083 2.52666 0
M  V30 1064 N 110.99 -5.29487 1.88679 0
M  V30 1065 H 103.141 -1.42823 1.57211 0
M  V30 1066 H 105.404 -0.68235 0.658105 0
M  V30 1067 H 105.11 -2.90605 1.98095 0
M  V30 1068 H 104.984 -3.74563 0.445238 0
M  V30 1069 H 107.371 -2.9475 -0.143617 0
M  V30 1070 H 107.452 -2.12652 1.42171 0
M  V30 1071 H 107.096 -4.36849 2.59085 0
M  V30 1072 H 107.026 -5.16992 1.00132 0
M  V30 1073 H 109.517 -3.61209 1.11068 0
M  V30 1074 H 109.83 -7.17869 2.86155 0
M  V30 1075 H 108.175 -6.45856 2.56701 0
M  V30 1076 H 111.366 -4.44877 1.4561 0
M  V30 1077 H 111.539 -6.07524 2.25429 0
M  V30 1078 N 104.945 -0.338344 -1.53925 0
M  V30 1079 C 105.908 0.508299 -2.23493 0
M  V30 1080 C 106.908 1.03175 -1.23335 0
M  V30 1081 O 108.098 0.921826 -1.47811 0
M  V30 1082 C 105.23 1.70754 -2.95052 0
M  V30 1083 H 106.423 -0.100058 -2.99733 0
M  V30 1084 H 103.976 -0.0896198 -1.56043 0
M  V30 1085 H 104.711 2.35474 -2.22986 0
M  V30 1086 H 104.496 1.33946 -3.68512 0
M  V30 1087 H 105.986 2.30818 -3.48013 0
M  V30 1088 N 106.423 1.57458 -0.0668435 0
M  V30 1089 C 107.353 2.15468 0.899764 0
M  V30 1090 C 108.334 1.08042 1.31381 0
M  V30 1091 O 109.519 1.36054 1.38574 0
M  V30 1092 C 106.649 2.71232 2.16911 0
M  V30 1093 C 105.603 3.83781 1.89463 0
M  V30 1094 C 104.929 4.26127 3.22986 0
M  V30 1095 C 106.229 5.08238 1.20381 0
M  V30 1096 H 107.923 2.96488 0.416529 0
M  V30 1097 H 105.469 1.4262 0.198908 0
M  V30 1098 H 107.422 3.10458 2.84945 0
M  V30 1099 H 106.146 1.87426 2.67468 0
M  V30 1100 H 104.805 3.45051 1.23836 0
M  V30 1101 H 104.453 3.39249 3.71374 0
M  V30 1102 H 104.153 5.01993 3.05413 0
M  V30 1103 H 105.677 4.67966 3.92225 0
M  V30 1104 H 107.091 5.44811 1.78475 0
M  V30 1105 H 105.488 5.89349 1.13083 0
M  V30 1106 H 106.558 4.84558 0.182153 0
M  V30 1107 N 107.901 -0.206675 1.56239 0
M  V30 1108 C 109.317 -0.557025 1.49564 0
M  V30 1109 C 109.517 -1.86424 0.764735 0
M  V30 1110 O 108.573 -2.50584 0.310491 0
M  V30 1111 C 109.886 -0.622478 2.94186 0
M  V30 1112 C 111.434 -0.712099 3.04792 0
M  V30 1113 C 111.909 -0.808767 4.50803 0
M  V30 1114 N 113.4 -0.8726 4.54907 0
M  V30 1115 C 114.135 -0.967365 5.65181 0
M  V30 1116 N 113.631 -1.02515 6.85173 0
M  V30 1117 N 115.424 -1.00366 5.53067 0
M  V30 1118 H 107.575 0.650943 2.02179 0
M  V30 1119 H 109.838 0.230387 0.919579 0
M  V30 1120 H 109.544 0.268727 3.50672 0
M  V30 1121 H 109.418 -1.4811 3.46905 0
M  V30 1122 H 111.805 -1.59374 2.48363 0
M  V30 1123 H 111.886 0.172489 2.55218 0
M  V30 1124 H 111.53 0.0684754 5.07854 0
M  V30 1125 H 111.46 -1.70899 4.98098 0
M  V30 1126 H 113.951 -0.837657 3.68499 0
M  V30 1127 H 114.264 -1.09765 7.64965 0
M  V30 1128 H 112.609 -0.994026 6.87855 0
M  V30 1129 H 115.8 -0.95527 4.58249 0
M  V30 1130 H 115.973 -1.07405 6.39037 0
M  V30 1131 N 109.379 -1.50304 -0.473955 0
M  V30 1132 C 110.656 -1.51667 -1.23518 0
M  V30 1133 C 111.036 -0.259701 -2.09496 0
M  V30 1134 O 110.384 0.756986 -2.15597 0
M  V30 1135 C 110.594 -2.81082 -2.06868 0
M  V30 1136 C 111.942 -3.31631 -2.65153 0
M  V30 1137 O 112.966 -2.82384 -2.17113 0
M  V30 1138 O 111.825 -4.17471 -3.52675 0
M  V30 1139 H 108.919 -0.60822 -0.560355 0
M  V30 1140 H 111.465 -1.62592 -0.486011 0
M  V30 1141 H 110.237 -3.64041 -1.4349 0
M  V30 1142 H 109.86 -2.73146 -2.88924 0
M  V30 1143 N 110.857 0.726932 -1.39834 0
M  V30 1144 C 112.104 1.48664 -1.37496 0
M  V30 1145 C 112.432 1.94482 0.0264678 0
M  V30 1146 O 111.687 1.67692 1.00886 0
M  V30 1147 C 111.986 2.73495 -2.30077 0
M  V30 1148 C 111.652 2.46502 -3.77555 0
M  V30 1149 C 110.314 2.3885 -4.17737 0
M  V30 1150 C 112.666 2.23604 -4.70798 0
M  V30 1151 C 109.994 2.06352 -5.49214 0
M  V30 1152 C 112.346 1.92622 -6.02561 0
M  V30 1153 C 111.01 1.83444 -6.41798 0
M  V30 1154 H 110.28 0.544001 -0.503135 0
M  V30 1155 H 112.927 0.833657 -1.72402 0
M  V30 1156 H 111.232 3.43575 -1.88317 0
M  V30 1157 H 112.929 3.31549 -2.25558 0
M  V30 1158 H 109.519 2.5334 -3.45712 0
M  V30 1159 H 113.703 2.28479 -4.40581 0
M  V30 1160 H 108.959 1.97776 -5.78528 0
M  V30 1161 H 113.133 1.73914 -6.74334 0
M  V30 1162 H 110.76 1.58029 -7.43593 0
M  V30 1163 N 112.336 1.25143 0.95797 0
M  V30 1164 C 113.266 1.07711 2.07173 0
M  V30 1165 C 114.247 -0.0128462 1.70095 0
M  V30 1166 O 115.432 0.156061 1.93572 0
M  V30 1167 C 112.562 0.691503 3.40346 0
M  V30 1168 C 111.516 1.73132 3.9142 0
M  V30 1169 C 110.842 1.20049 5.21049 0
M  V30 1170 C 112.142 3.1294 4.1817 0
M  V30 1171 H 113.836 2.00873 2.22014 0
M  V30 1172 H 111.382 0.967191 1.06684 0
M  V30 1173 H 113.335 0.556505 4.17709 0
M  V30 1174 H 112.059 -0.275819 3.25433 0
M  V30 1175 H 110.718 1.8547 3.16222 0
M  V30 1176 H 110.366 0.223499 5.02503 0
M  V30 1177 H 110.066 1.89545 5.56189 0
M  V30 1178 H 111.59 1.07782 6.01012 0
M  V30 1179 H 113.004 3.03775 4.86203 0
M  V30 1180 H 111.401 3.79875 4.64559 0
M  V30 1181 H 112.471 3.6025 3.24573 0
M  V30 1182 N 113.814 -1.1601 1.06675 0
M  V30 1183 C 115.23 -1.38622 0.790948 0
M  V30 1184 C 115.43 -1.92109 -0.607965 0
M  V30 1185 O 114.486 -2.12239 -1.36787 0
M  V30 1186 C 115.799 -2.36347 1.85905 0
M  V30 1187 C 117.347 -2.50023 1.88301 0
M  V30 1188 C 117.822 -3.51033 2.94176 0
M  V30 1189 N 119.313 -3.58563 2.93235 0
M  V30 1190 C 120.048 -4.36521 3.71803 0
M  V30 1191 N 119.544 -5.17869 4.602 0
M  V30 1192 N 121.337 -4.31541 3.60178 0
M  V30 1193 H 113.488 -0.796294 1.96908 0
M  V30 1194 H 115.751 -0.412597 0.853503 0
M  V30 1195 H 115.457 -2.04147 2.86386 0
M  V30 1196 H 115.331 -3.36042 1.71334 0
M  V30 1197 H 117.718 -2.81524 0.884769 0
M  V30 1198 H 117.799 -1.5035 2.06951 0
M  V30 1199 H 117.443 -3.20268 3.94196 0
M  V30 1200 H 117.373 -4.50445 2.72776 0
M  V30 1201 H 119.864 -3.00496 2.29152 0
M  V30 1202 H 120.177 -5.74578 5.16797 0
M  V30 1203 H 118.522 -5.17199 4.64253 0
M  V30 1204 H 121.713 -3.67051 2.90502 0
M  V30 1205 H 121.886 -4.9205 4.21653 0
M  V30 1206 N 115.292 -0.849877 -1.32721 0
M  V30 1207 C 116.239 -0.289033 -2.28983 0
M  V30 1208 C 117.209 0.601324 -1.54833 0
M  V30 1209 O 118.394 0.537253 -1.8308 0
M  V30 1210 C 115.534 0.520623 -3.4115 0
M  V30 1211 C 114.647 -0.394989 -4.3019 0
M  V30 1212 C 113.782 0.426834 -5.29482 0
M  V30 1213 C 112.821 -0.486476 -6.10164 0
M  V30 1214 N 111.958 0.297879 -7.01468 0
M  V30 1215 H 116.798 -1.11519 -2.76347 0
M  V30 1216 H 114.335 -0.56138 -1.35967 0
M  V30 1217 H 116.293 1.00563 -4.04899 0
M  V30 1218 H 114.923 1.31165 -2.9495 0
M  V30 1219 H 113.975 -0.99836 -3.67065 0
M  V30 1220 H 115.287 -1.09612 -4.86607 0
M  V30 1221 H 114.441 0.975205 -5.98811 0
M  V30 1222 H 113.18 1.16136 -4.73671 0
M  V30 1223 H 112.185 -1.04677 -5.39743 0
M  V30 1224 H 113.41 -1.21953 -6.6806 0
M  V30 1225 H 111.356 1.01558 -6.48091 0
M  V30 1226 H 111.273 -0.344318 -7.55216 0
M  V30 1227 H 112.541 0.828131 -7.75089 0
M  V30 1228 N 116.77 1.45427 -0.607355 0
M  V30 1229 C 117.68 2.34325 0.113463 0
M  V30 1230 C 118.696 1.51226 0.860617 0
M  V30 1231 O 119.872 1.84029 0.818255 0
M  V30 1232 C 116.937 3.28839 1.09844 0
M  V30 1233 C 115.998 4.27844 0.353271 0
M  V30 1234 C 115.231 5.17842 1.29133 0
M  V30 1235 O 115.454 5.11264 2.52913 0
M  V30 1236 O 114.388 5.96713 0.788523 0
M  V30 1237 H 118.214 2.97364 -0.617094 0
M  V30 1238 H 115.799 1.44807 -0.367619 0
M  V30 1239 H 117.681 3.8708 1.66575 0
M  V30 1240 H 116.356 2.68365 1.81003 0
M  V30 1241 H 115.263 3.7322 -0.256494 0
M  V30 1242 H 116.596 4.91173 -0.317822 0
M  V30 1243 N 118.248 0.346503 1.53744 0
M  V30 1244 C 119.478 -0.250047 2.05081 0
M  V30 1245 C 119.886 -1.44529 1.22098 0
M  V30 1246 O 119.229 -1.81992 0.249917 0
M  V30 1247 C 119.291 -0.725934 3.52094 0
M  V30 1248 C 118.955 0.350053 4.55657 0
M  V30 1249 C 119.952 1.19372 5.0601 0
M  V30 1250 C 117.637 0.504827 4.99757 0
M  V30 1251 C 119.631 2.17768 5.99046 0
M  V30 1252 C 117.318 1.49218 5.92602 0
M  V30 1253 C 118.316 2.32706 6.42135 0
M  V30 1254 O 118.004 3.2976 7.33153 0
M  V30 1255 H 117.736 -0.0515469 0.674032 0
M  V30 1256 H 120.29 0.497559 1.99282 0
M  V30 1257 H 118.52 -1.52483 3.55367 0
M  V30 1258 H 120.209 -1.24336 3.86388 0
M  V30 1259 H 120.975 1.08525 4.72702 0
M  V30 1260 H 116.854 -0.135178 4.60802 0
M  V30 1261 H 120.398 2.82971 6.37631 0
M  V30 1262 H 116.295 1.6012 6.25325 0
M  V30 1263 H 117.063 3.25265 7.51096 0
M  V30 1264 N 119.726 -1.57421 0.075193 0
M  V30 1265 C 120.974 -1.93236 -0.591974 0
M  V30 1266 C 121.295 -0.956241 -1.69944 0
M  V30 1267 O 120.565 -0.00494792 -1.95899 0
M  V30 1268 H 119.145 -0.713355 -0.22166 0
M  V30 1269 H 121.807 -1.9444 0.133848 0
M  V30 1270 H 120.903 -2.95131 -1.01509 0
M  V30 1271 N 121.204 0.198386 -1.56346 0
M  V30 1272 C 122.452 0.91747 -1.80075 0
M  V30 1273 C 122.773 1.83929 -0.647692 0
M  V30 1274 O 122.043 1.93029 0.334166 0
M  V30 1275 H 120.623 0.341774 -0.664228 0
M  V30 1276 H 123.285 0.204684 -1.93822 0
M  V30 1277 H 122.381 1.51055 -2.7311 0
M  V30 1278 N 122.682 1.50554 0.465978 0
M  V30 1279 C 123.612 1.72722 1.57128 0
M  V30 1280 C 124.593 0.576294 1.6004 0
M  V30 1281 O 125.778 0.81598 1.76225 0
M  V30 1282 C 122.908 1.82605 2.95419 0
M  V30 1283 C 121.862 2.97835 3.07373 0
M  V30 1284 C 121.188 2.92867 4.47363 0
M  V30 1285 C 122.488 4.38265 2.84114 0
M  V30 1286 H 124.182 2.65267 1.38829 0
M  V30 1287 H 121.728 1.2765 0.666441 0
M  V30 1288 H 123.681 1.96698 3.72677 0
M  V30 1289 H 122.405 0.866858 3.14886 0
M  V30 1290 H 121.064 2.83401 2.3255 0
M  V30 1291 H 120.712 1.94783 4.63755 0
M  V30 1292 H 120.412 3.70227 4.56296 0
M  V30 1293 H 121.936 3.09015 5.26633 0
M  V30 1294 H 123.35 4.53198 3.51118 0
M  V30 1295 H 121.747 5.17115 3.04487 0
M  V30 1296 H 122.817 4.50281 1.7993 0
M  V30 1297 N 124.16 -0.719506 1.40217 0
M  V30 1298 C 125.437 -1.47221 1.28784 0
M  V30 1299 C 125.817 -2.10883 -0.0956067 0
M  V30 1300 O 125.165 -1.99833 -1.10811 0
M  V30 1301 C 125.375 -2.5111 2.42373 0
M  V30 1302 C 126.723 -3.17053 2.82423 0
M  V30 1303 O 127.747 -2.61429 2.41937 0
M  V30 1304 O 126.606 -4.17742 3.52355 0
M  V30 1305 H 123.7 -0.654491 0.50554 0
M  V30 1306 H 126.246 -0.752014 1.52128 0
M  V30 1307 H 125.018 -2.02556 3.34793 0
M  V30 1308 H 124.641 -3.3067 2.20778 0
M  V30 1309 N 125.638 -1.25649 -0.95132 0
M  V30 1310 C 126.884 -1.10757 -1.69884 0
M  V30 1311 C 127.217 0.350061 -1.91019 0
M  V30 1312 O 126.492 1.25783 -1.48354 0
M  V30 1313 C 126.775 -1.86606 -3.07978 0
M  V30 1314 C 126.628 -3.40217 -2.94232 0
M  V30 1315 C 127.947 -1.65182 -4.07925 0
M  V30 1316 H 125.066 -0.40374 -0.616574 0
M  V30 1317 H 127.708 -1.54521 -1.10558 0
M  V30 1318 H 125.858 -1.49409 -3.58621 0
M  V30 1319 H 127.53 -3.87108 -2.50889 0
M  V30 1320 H 125.773 -3.67759 -2.30078 0
M  V30 1321 H 126.444 -3.88505 -3.92133 0
M  V30 1322 H 128.92 -1.9757 -3.66204 0
M  V30 1323 H 127.796 -2.20683 -5.02583 0
M  V30 1324 H 128.057 -0.593933 -4.38092 0
M  V30 1325 N 127.117 1.15442 -1.07289 0
M  V30 1326 C 128.047 2.22312 -0.714107 0
M  V30 1327 C 129.028 1.67467 0.298155 0
M  V30 1328 O 130.213 1.93445 0.171048 0
M  V30 1329 C 127.343 3.47124 -0.110448 0
M  V30 1330 C 126.297 4.14926 -1.04979 0
M  V30 1331 C 125.623 5.33807 -0.308924 0
M  V30 1332 C 126.923 4.64762 -2.38314 0
M  V30 1333 H 128.617 2.5258 -1.6076 0
M  V30 1334 H 126.163 1.21404 -0.77441 0
M  V30 1335 H 128.116 4.21124 0.152482 0
M  V30 1336 H 126.84 3.16187 0.81812 0
M  V30 1337 H 125.499 3.42866 -1.29764 0
M  V30 1338 H 125.147 4.99126 0.623084 0
M  V30 1339 H 124.847 5.80113 -0.935036 0
M  V30 1340 H 126.371 6.10576 -0.0537771 0
M  V30 1341 H 127.785 5.30292 -2.1786 0
M  V30 1342 H 126.182 5.21728 -2.96514 0
M  V30 1343 H 127.252 3.80434 -3.00663 0
M  V30 1344 N 128.595 0.856903 1.32268 0
M  V30 1345 C 129.841 0.462069 1.97466 0
M  V30 1346 C 130.174 -0.980298 1.67642 0
M  V30 1347 O 129.449 -1.68824 0.965858 0
M  V30 1348 C 129.732 0.704336 3.53145 0
M  V30 1349 C 129.585 2.19529 3.9259 0
M  V30 1350 C 130.904 0.1622 4.39801 0
M  V30 1351 H 128.023 0.169357 0.717278 0
M  V30 1352 H 130.665 1.07574 1.56614 0
M  V30 1353 H 128.815 0.181999 3.88073 0
M  V30 1354 H 130.487 2.78387 3.67829 0
M  V30 1355 H 128.73 2.67292 3.41668 0
M  V30 1356 H 129.401 2.31549 5.01088 0
M  V30 1357 H 131.877 0.608905 4.11621 0
M  V30 1358 H 130.753 0.361265 5.4771 0
M  V30 1359 H 131.014 -0.935158 4.32096 0
M  V30 1360 N 130.073 -1.45103 0.615059 0
M  V30 1361 C 131.021 -2.32331 -0.111791 0
M  V30 1362 C 132.015 -1.46409 -0.852102 0
M  V30 1363 O 133.221 -1.62849 -0.766821 0
M  V30 1364 H 129.596 -0.749993 -0.0549072 0
M  V30 1365 H 131.567 -2.91407 0.642225 0
M  V30 1366 C 130.316 -3.3015 -1.09071 0
M  V30 1367 H 129.639 -3.96265 -0.530485 0
M  V30 1368 H 131.079 -3.93898 -1.56908 0
M  V30 1369 C 129.538 -2.57875 -2.168 0
M  V30 1370 O 130.068 -2.36567 -3.24652 0
M  V30 1371 N 128.274 -2.17884 -1.92289 0
M  V30 1372 H 127.821 -2.35413 -1.04587 0
M  V30 1373 H 127.779 -1.6985 -2.64572 0
M  V30 1374 N 131.551 -0.354651 -1.53558 0
M  V30 1375 C 132.499 0.512195 -2.26891 0
M  V30 1376 C 133.493 1.09263 -1.29452 0
M  V30 1377 O 134.699 1.03709 -1.47121 0
M  V30 1378 H 131.074 0.183878 -0.729173 0
M  V30 1379 H 133.045 -0.128202 -2.98124 0
M  V30 1380 C 131.794 1.64563 -3.06291 0
M  V30 1381 H 131.117 1.20829 -3.81104 0
M  V30 1382 H 132.557 2.22711 -3.60799 0
M  V30 1383 C 131.016 2.58158 -2.16462 0
M  V30 1384 O 131.546 3.60695 -1.76811 0
M  V30 1385 N 129.752 2.27096 -1.81317 0
M  V30 1386 H 129.299 1.43751 -2.1376 0
M  V30 1387 H 129.257 2.89975 -1.21498 0
M  V30 1388 N 133.029 1.57378 -0.0835403 0
M  V30 1389 C 133.992 2.12252 0.864959 0
M  V30 1390 C 134.992 1.04916 1.21858 0
M  V30 1391 O 136.182 1.30853 1.14991 0
M  V30 1392 C 133.314 2.63358 2.16461 0
M  V30 1393 H 134.507 2.97371 0.388676 0
M  V30 1394 H 132.06 1.55423 0.165317 0
M  V30 1395 H 132.795 1.81727 2.686 0
M  V30 1396 H 132.58 3.41826 1.92087 0
M  V30 1397 H 134.07 3.05847 2.84337 0
M  V30 1398 N 134.507 -0.190092 1.56449 0
M  V30 1399 C 135.755 -0.907908 1.80559 0
M  V30 1400 C 136.076 -1.83583 0.657438 0
M  V30 1401 O 135.346 -1.93203 -0.323924 0
M  V30 1402 H 133.926 -0.338247 0.666032 0
M  V30 1403 H 136.588 -0.194403 1.93928 0
M  V30 1404 H 135.684 -1.49604 2.73907 0
M  V30 1405 N 135.985 -1.50799 -0.457987 0
M  V30 1406 C 137.234 -1.6168 -1.20593 0
M  V30 1407 C 137.547 -0.32888 -1.92815 0
M  V30 1408 O 138.753 -0.316773 -2.69646 0
M  V30 1409 C 137.209 -2.8545 -2.19195 0
M  V30 1410 C 136.817 -4.21168 -1.52715 0
M  V30 1411 C 138.561 -3.05681 -2.94549 0
M  V30 1412 C 136.468 -5.3611 -2.4968 0
M  V30 1413 H 135.398 -0.602134 -0.453818 0
M  V30 1414 H 138.049 -1.77245 -0.475031 0
M  V30 1415 H 136.431 -2.63472 -2.95632 0
M  V30 1416 H 137.605 -4.53449 -0.819775 0
M  V30 1417 H 135.92 -4.06648 -0.895922 0
M  V30 1418 H 138.517 -3.88727 -3.67145 0
M  V30 1419 H 138.86 -2.17929 -3.54701 0
M  V30 1420 H 139.393 -3.27901 -2.25223 0
M  V30 1421 H 136.132 -6.26057 -1.94249 0
M  V30 1422 H 135.652 -5.0823 -3.18532 0
M  V30 1423 H 137.331 -5.6722 -3.11241 0
M  V30 1424 N 137.463 0.71206 -1.40597 0
M  V30 1425 C 138.426 1.80785 -1.40888 0
M  V30 1426 C 139.426 1.57937 -0.302103 0
M  V30 1427 O 140.616 1.64913 -0.561182 0
M  V30 1428 C 137.748 3.18927 -1.20409 0
M  V30 1429 H 138.941 1.81924 -2.38419 0
M  V30 1430 H 136.494 0.91805 -1.26497 0
M  V30 1431 H 137.229 3.23436 -0.236522 0
M  V30 1432 H 137.014 3.36911 -2.00582 0
M  V30 1433 H 138.504 3.98949 -1.23408 0
M  V30 1434 N 138.941 1.26152 0.944643 0
M  V30 1435 C 140.188 1.11492 1.69044 0
M  V30 1436 C 140.516 -0.342366 1.91463 0
M  V30 1437 O 139.771 -1.26812 1.49054 0
M  V30 1438 C 140.07 1.82541 3.07268 0
M  V30 1439 C 139.736 3.32445 3.04616 0
M  V30 1440 C 138.398 3.73337 3.036 0
M  V30 1441 C 140.75 4.28171 2.97185 0
M  V30 1442 C 138.078 5.08348 2.92915 0
M  V30 1443 C 140.43 5.63218 2.88041 0
M  V30 1444 C 139.094 6.03426 2.85366 0
M  V30 1445 H 138.364 0.407977 0.618576 0
M  V30 1446 H 141.011 1.56551 1.10291 0
M  V30 1447 H 139.316 1.29941 3.69625 0
M  V30 1448 H 141.013 1.68642 3.63815 0
M  V30 1449 H 137.603 2.99915 3.06185 0
M  V30 1450 H 141.787 3.97563 2.97081 0
M  V30 1451 H 137.043 5.38667 2.89219 0
M  V30 1452 H 141.217 6.37078 2.81254 0
M  V30 1453 H 138.844 7.07999 2.76842 0
M  V30 1454 N 140.419 -1.14872 1.07899 0
M  V30 1455 C 141.366 -2.19791 0.704319 0
M  V30 1456 C 142.336 -1.63238 -0.306987 0
M  V30 1457 O 143.521 -1.8983 -0.192171 0
M  V30 1458 C 140.661 -3.44911 0.114244 0
M  V30 1459 C 139.774 -4.15637 1.1777 0
M  V30 1460 C 138.909 -5.28324 0.552037 0
M  V30 1461 C 137.948 -5.90875 1.59789 0
M  V30 1462 N 137.085 -6.95022 0.994404 0
M  V30 1463 H 141.925 -2.5119 1.60336 0
M  V30 1464 H 139.462 -1.23356 0.801352 0
M  V30 1465 H 141.42 -4.16477 -0.245544 0
M  V30 1466 H 140.05 -3.14011 -0.74813 0
M  V30 1467 H 139.102 -3.42512 1.65499 0
M  V30 1468 H 140.414 -4.5823 1.97046 0
M  V30 1469 H 139.568 -6.06538 0.1402 0
M  V30 1470 H 138.307 -4.86939 -0.272431 0
M  V30 1471 H 137.312 -5.11369 2.01945 0
M  V30 1472 H 138.537 -6.34337 2.42474 0
M  V30 1473 H 136.483 -6.55722 0.190939 0
M  V30 1474 H 136.4 -7.36073 1.72432 0
M  V30 1475 H 137.668 -7.77123 0.608253 0
M  V30 1476 N 141.898 -0.863906 -1.31812 0
M  V30 1477 C 143.144 -0.472535 -1.97218 0
M  V30 1478 C 143.477 0.971394 -1.68159 0
M  V30 1479 O 142.752 1.68309 -0.974798 0
M  V30 1480 C 143.035 -0.723054 -3.52766 0
M  V30 1481 C 142.888 -2.21608 -3.91421 0
M  V30 1482 C 144.207 -0.185522 -4.39709 0
M  V30 1483 H 141.326 -0.173158 -0.71637 0
M  V30 1484 H 143.968 -1.08403 -1.56041 0
M  V30 1485 H 142.118 -0.202577 -3.87971 0
M  V30 1486 H 143.79 -2.80334 -3.66347 0
M  V30 1487 H 142.033 -2.691 -3.40246 0
M  V30 1488 H 142.704 -2.34203 -4.99853 0
M  V30 1489 H 145.18 -0.630726 -4.11292 0
M  V30 1490 H 144.056 -0.390306 -5.47511 0
M  V30 1491 H 144.317 0.912229 -4.32586 0
M  V30 1492 N 143.376 1.44774 -0.622745 0
M  V30 1493 C 144.339 2.29069 0.0774015 0
M  V30 1494 C 145.339 1.4059 0.780461 0
M  V30 1495 O 146.529 1.62551 0.626322 0
M  V30 1496 C 143.661 3.21974 1.12006 0
M  V30 1497 H 144.854 2.92459 -0.663901 0
M  V30 1498 H 142.407 1.51548 -0.382486 0
M  V30 1499 H 143.142 2.63417 1.89162 0
M  V30 1500 H 142.927 3.87168 0.619951 0
M  V30 1501 H 144.417 3.85318 1.60995 0
M  V30 1502 N 144.854 0.36279 1.53368 0
M  V30 1503 C 146.131 -0.284021 1.93527 0
M  V30 1504 C 146.511 -1.66628 1.29608 0
M  V30 1505 O 145.859 -2.23942 0.45413 0
M  V30 1506 C 146.069 -0.337028 3.47369 0
M  V30 1507 C 147.417 -0.578708 4.20638 0
M  V30 1508 O 148.441 -0.418352 3.53735 0
M  V30 1509 O 147.3 -0.89074 5.39192 0
M  V30 1510 H 144.394 -0.169743 0.809393 0
M  V30 1511 H 146.94 0.41537 1.64538 0
M  V30 1512 H 145.712 0.632217 3.86159 0
M  V30 1513 H 145.335 -1.08243 3.82582 0
M  V30 1514 N 146.332 -1.57332 0.0918853 0
M  V30 1515 C 147.743 -1.81496 -0.437739 0
M  V30 1516 C 148.094 -1.00727 -1.6837 0
M  V30 1517 O 147.219 -0.235694 -2.15113 0
M  V30 1518 C 147.814 -3.29197 -0.800939 0
M  V30 1519 C 146.373 -3.54136 -1.27532 0
M  V30 1520 C 145.52 -2.75979 -0.270392 0
M  V30 1521 H 148.471 -1.55494 0.317366 0
M  V30 1522 H 148.492 -3.42344 -1.66074 0
M  V30 1523 H 148.004 -3.87955 0.106078 0
M  V30 1524 H 146.105 -3.00705 -2.20016 0
M  V30 1525 H 146.218 -4.62792 -1.23938 0
M  V30 1526 H 144.582 -2.43349 -0.751872 0
M  V30 1527 H 145.365 -3.37484 0.629248 0
M  V30 1528 N 147.81 0.181792 -1.56548 0
M  V30 1529 C 149.038 0.915947 -1.85521 0
M  V30 1530 C 149.453 1.76282 -0.676016 0
M  V30 1531 O 148.81 1.79012 0.355077 0
M  V30 1532 C 148.861 1.80126 -3.13427 0
M  V30 1533 O 148.582 0.988562 -4.26801 0
M  V30 1534 C 150.083 2.64597 -3.55673 0
M  V30 1535 H 147.303 0.26661 -0.61576 0
M  V30 1536 H 149.847 0.185039 -2.03661 0
M  V30 1537 H 148.002 2.48563 -2.97145 0
M  V30 1538 H 148.416 1.59308 -4.99721 0
M  V30 1539 H 149.89 3.2235 -4.48101 0
M  V30 1540 H 150.367 3.38958 -2.79292 0
M  V30 1541 H 150.973 2.0151 -3.74532 0
M  V30 1542 N 149.288 1.51039 0.449983 0
M  V30 1543 C 150.699 1.557 1.03026 0
M  V30 1544 C 151.05 0.372939 1.92623 0
M  V30 1545 O 150.175 -0.511771 2.10261 0
M  V30 1546 C 150.77 2.82171 1.87523 0
M  V30 1547 C 149.329 2.89444 2.40622 0
M  V30 1548 C 148.476 2.50228 1.19504 0
M  V30 1549 H 151.427 1.56999 0.231745 0
M  V30 1550 H 151.448 2.65219 2.72835 0
M  V30 1551 H 150.96 3.68331 1.22286 0
M  V30 1552 H 149.061 2.07685 3.0935 0
M  V30 1553 H 149.174 3.92816 2.74285 0
M  V30 1554 H 147.538 2.03139 1.53644 0
M  V30 1555 H 148.321 3.38719 0.558972 0
M  V30 1556 N 150.766 -0.704594 1.40972 0
M  V30 1557 C 152.013 -1.46458 1.39844 0
M  V30 1558 C 152.341 -1.94499 0.00447594 0
M  V30 1559 O 151.596 -1.69275 -0.982057 0
M  V30 1560 C 151.895 -2.698 2.34399 0
M  V30 1561 C 151.561 -2.40464 3.81429 0
M  V30 1562 C 150.223 -2.32174 4.21484 0
M  V30 1563 C 152.575 -2.16086 4.74296 0
M  V30 1564 C 149.903 -1.97589 5.52427 0
M  V30 1565 C 152.255 -1.83011 6.05549 0
M  V30 1566 C 150.919 -1.7321 6.44635 0
M  V30 1567 H 150.189 -0.535927 0.511725 0
M  V30 1568 H 152.836 -0.806124 1.73706 0
M  V30 1569 H 151.141 -3.40536 1.93759 0
M  V30 1570 H 152.838 -3.27919 2.30804 0
M  V30 1571 H 149.428 -2.47808 3.49699 0
M  V30 1572 H 153.612 -2.2144 4.4416 0
M  V30 1573 H 148.868 -1.88547 5.81601 0
M  V30 1574 H 153.042 -1.63164 6.77016 0
M  V30 1575 H 150.669 -1.46179 7.46013 0
M  V30 1576 N 152.244 -1.26651 -0.937939 0
M  V30 1577 C 153.194 -1.05156 -2.02302 0
M  V30 1578 C 154.178 0.0171233 -1.60891 0
M  V30 1579 O 155.37 -0.200213 -1.75864 0
M  V30 1580 C 152.499 -0.689962 -3.36295 0
M  V30 1581 C 151.585 -1.79626 -3.84181 0
M  V30 1582 N 151.976 -3.03422 -4.04684 0
M  V30 1583 C 150.274 -1.6806 -4.13124 0
M  V30 1584 C 150.975 -3.75345 -4.444 0
M  V30 1585 N 149.951 -3.03051 -4.51288 0
M  V30 1586 H 153.753 -1.99117 -2.1617 0
M  V30 1587 H 151.267 -1.17216 -1.12402 0
M  V30 1588 H 153.264 -0.517112 -4.13681 0
M  V30 1589 H 151.924 0.242139 -3.23796 0
M  V30 1590 H 152.935 -3.39293 -3.91281 0
M  V30 1591 H 149.612 -0.818629 -4.09396 0
M  V30 1592 H 151.002 -4.81691 -4.68427 0
M  V30 1593 N 153.722 1.14298 -1.08507 0
M  V30 1594 C 154.971 1.84708 -0.810305 0
M  V30 1595 C 155.284 1.83903 0.666271 0
M  V30 1596 O 156.49 2.50112 1.05624 0
M  V30 1597 C 154.946 3.31572 -1.39957 0
M  V30 1598 C 154.554 3.40791 -2.90801 0
M  V30 1599 C 156.298 4.07087 -1.20334 0
M  V30 1600 C 154.205 4.81872 -3.4286 0
M  V30 1601 H 153.135 0.691985 -0.299454 0
M  V30 1602 H 155.786 1.28841 -1.30661 0
M  V30 1603 H 154.168 3.87183 -0.830976 0
M  V30 1604 H 155.342 2.95225 -3.53806 0
M  V30 1605 H 153.657 2.78732 -3.0935 0
M  V30 1606 H 156.254 5.11225 -1.56693 0
M  V30 1607 H 156.597 4.16054 -0.143237 0
M  V30 1608 H 157.13 3.57779 -1.73893 0
M  V30 1609 H 153.869 4.78094 -4.48449 0
M  V30 1610 H 153.389 5.27972 -2.84615 0
M  V30 1611 H 155.068 5.50765 -3.39509 0
M  V30 1612 N 155.201 0.870884 1.31352 0
M  V30 1613 C 156.133 0.28455 2.27427 0
M  V30 1614 C 157.146 -0.552927 1.53123 0
M  V30 1615 O 158.335 -0.374771 1.74521 0
M  V30 1616 C 155.435 -0.615164 3.3327 0
M  V30 1617 C 154.608 0.190079 4.36987 0
M  V30 1618 C 153.667 -0.637917 5.22319 0
M  V30 1619 O 152.693 -0.065626 5.69162 0
M  V30 1620 N 153.895 -1.94973 5.46778 0
M  V30 1621 H 156.66 1.11017 2.7838 0
M  V30 1622 H 154.221 0.732458 1.44384 0
M  V30 1623 H 156.213 -1.1748 3.87273 0
M  V30 1624 H 154.783 -1.34146 2.82354 0
M  V30 1625 H 154.003 0.931165 3.83044 0
M  V30 1626 H 155.291 0.742579 5.03352 0
M  V30 1627 H 154.689 -2.4378 5.10478 0
M  V30 1628 H 153.246 -2.45713 6.03712 0
M  V30 1629 N 156.679 -1.44442 0.630414 0
M  V30 1630 C 157.642 -2.29107 -0.0652523 0
M  V30 1631 C 158.642 -1.41002 -0.772995 0
M  V30 1632 O 159.832 -1.62881 -0.617692 0
M  V30 1633 C 156.964 -3.22564 -1.10296 0
M  V30 1634 H 158.157 -2.92103 0.679401 0
M  V30 1635 H 155.71 -1.51343 0.390517 0
M  V30 1636 H 156.445 -2.64416 -1.87762 0
M  V30 1637 H 156.23 -3.87491 -0.59941 0
M  V30 1638 H 157.72 -3.86167 -1.5895 0
M  V30 1639 N 158.157 -0.370918 -1.53173 0
M  V30 1640 C 159.067 0.480823 -2.2962 0
M  V30 1641 C 160.083 1.08789 -1.35798 0
M  V30 1642 O 161.259 1.09768 -1.68858 0
M  V30 1643 C 158.324 1.60227 -3.07454 0
M  V30 1644 C 157.385 1.0222 -4.16953 0
M  V30 1645 C 156.618 2.0902 -4.91066 0
M  V30 1646 O 156.841 3.30222 -4.65091 0
M  V30 1647 O 155.775 1.71778 -5.76867 0
M  V30 1648 H 159.601 -0.141421 -3.03371 0
M  V30 1649 H 157.186 -0.135146 -1.48787 0
M  V30 1650 H 159.068 2.25417 -3.56041 0
M  V30 1651 H 157.743 2.20982 -2.36535 0
M  V30 1652 H 156.65 0.334064 -3.72605 0
M  V30 1653 H 157.983 0.459131 -4.90054 0
M  V30 1654 N 159.635 1.57281 -0.100228 0
M  V30 1655 C 160.881 1.94826 0.563101 0
M  V30 1656 C 161.214 0.982475 1.67514 0
M  V30 1657 O 160.489 0.0164069 1.94493 0
M  V30 1658 C 160.772 3.42453 1.11346 0
M  V30 1659 C 160.625 4.498 0.00612081 0
M  V30 1660 C 161.944 3.91506 2.01024 0
M  V30 1661 H 159.063 0.708428 0.203221 0
M  V30 1662 H 161.705 1.8922 -0.171979 0
M  V30 1663 H 159.855 3.47361 1.7399 0
M  V30 1664 H 161.527 4.57 -0.628357 0
M  V30 1665 H 159.77 4.28756 -0.659581 0
M  V30 1666 H 160.441 5.50306 0.432109 0
M  V30 1667 H 162.917 3.88784 1.48278 0
M  V30 1668 H 161.793 4.95358 2.36457 0
M  V30 1669 H 162.054 3.31099 2.92961 0
M  V30 1670 N 161.113 -0.173488 1.56642 0
M  V30 1671 C 162.341 -0.906095 1.86004 0
M  V30 1672 C 162.756 -1.75921 0.685355 0
M  V30 1673 O 162.113 -1.79198 -0.345578 0
M  V30 1674 C 162.164 -1.78462 3.14378 0
M  V30 1675 O 161.885 -0.965914 4.27319 0
M  V30 1676 C 163.386 -2.62707 3.57071 0
M  V30 1677 H 160.606 -0.263341 0.617165 0
M  V30 1678 H 163.15 -0.174236 2.03756 0
M  V30 1679 H 161.305 -2.46984 2.98459 0
M  V30 1680 H 161.719 -1.56655 5.00559 0
M  V30 1681 H 163.193 -3.19969 4.49804 0
M  V30 1682 H 163.67 -3.37472 2.81086 0
M  V30 1683 H 164.276 -1.99521 3.75595 0
M  V30 1684 N 162.591 -1.51276 -0.441967 0
M  V30 1685 C 163.524 -1.66933 -1.55591 0
M  V30 1686 C 164.502 -0.516958 -1.54163 0
M  V30 1687 O 165.686 -0.740209 -1.73358 0
M  V30 1688 C 162.813 -1.67866 -2.94174 0
M  V30 1689 C 161.859 -2.89013 -3.13646 0
M  V30 1690 S 162.692 -4.49897 -2.90436 0
M  V30 1691 C 163.848 -4.53568 -4.31308 0
M  V30 1692 H 164.081 -2.61155 -1.42076 0
M  V30 1693 H 161.614 -1.40902 -0.631341 0
M  V30 1694 H 163.572 -1.69089 -3.74058 0
M  V30 1695 H 162.233 -0.748296 -3.05056 0
M  V30 1696 H 161.426 -2.86054 -4.14957 0
M  V30 1697 H 161.028 -2.85509 -2.4158 0
M  V30 1698 H 163.32 -4.28924 -5.24434 0
M  V30 1699 H 164.263 -5.55355 -4.39303 0
M  V30 1700 H 164.671 -3.82943 -4.14747 0
M  V30 1701 N 164.069 0.697108 -1.41344 0
M  V30 1702 C 165.016 1.81106 -1.43071 0
M  V30 1703 C 165.986 1.63632 -0.285275 0
M  V30 1704 O 167.171 1.84504 -0.486091 0
M  V30 1705 C 164.311 3.18975 -1.31715 0
M  V30 1706 C 163.424 3.47892 -2.56115 0
M  V30 1707 C 162.559 4.75367 -2.37064 0
M  V30 1708 C 161.598 4.97247 -3.56948 0
M  V30 1709 N 160.735 6.15947 -3.36977 0
M  V30 1710 H 165.575 1.78965 -2.38276 0
M  V30 1711 H 163.112 0.873975 -1.18322 0
M  V30 1712 H 165.07 3.98615 -1.23133 0
M  V30 1713 H 163.7 3.20297 -0.401183 0
M  V30 1714 H 162.752 2.62669 -2.75153 0
M  V30 1715 H 164.064 3.59962 -3.45295 0
M  V30 1716 H 163.218 5.63059 -2.25941 0
M  V30 1717 H 161.957 4.65541 -1.45338 0
M  V30 1718 H 160.962 4.08004 -3.68527 0
M  V30 1719 H 162.187 5.08934 -4.49626 0
M  V30 1720 H 160.133 6.07336 -2.47949 0
M  V30 1721 H 160.05 6.28777 -4.19732 0
M  V30 1722 H 161.318 7.06377 -3.29623 0
M  V30 1723 N 165.547 1.27147 0.931209 0
M  V30 1724 C 166.775 1.16082 1.71267 0
M  V30 1725 C 167.19 -0.282772 1.8667 0
M  V30 1726 O 166.547 -1.19283 1.38122 0
M  V30 1727 C 166.598 1.8358 3.11417 0
M  V30 1728 O 166.319 3.22299 2.96741 0
M  V30 1729 C 167.82 1.78597 4.05732 0
M  V30 1730 H 165.04 0.403758 0.535929 0
M  V30 1731 H 167.584 1.67953 1.16671 0
M  V30 1732 H 165.739 1.35623 3.62885 0
M  V30 1733 H 166.153 3.55851 3.85319 0
M  V30 1734 H 167.627 2.30444 5.01597 0
M  V30 1735 H 168.104 0.754564 4.3267 0
M  V30 1736 H 168.71 2.26152 3.60188 0
M  V30 1737 N 167.025 -1.13721 1.09112 0
M  V30 1738 C 167.973 -2.21103 0.722219 0
M  V30 1739 C 168.967 -1.67147 -0.275374 0
M  V30 1740 O 170.173 -1.79477 -0.137176 0
M  V30 1741 H 166.548 -0.720445 0.215553 0
M  V30 1742 H 168.519 -2.49483 1.63709 0
M  V30 1743 C 167.268 -3.47352 0.15543 0
M  V30 1744 H 166.591 -3.89206 0.914246 0
M  V30 1745 H 168.031 -4.2395 -0.0647967 0
M  V30 1746 C 166.49 -3.1814 -1.10852 0
M  V30 1747 O 167.02 -3.36604 -2.19227 0
M  V30 1748 N 165.226 -2.72045 -1.02176 0
M  V30 1749 H 164.773 -2.57221 -0.139764 0
M  V30 1750 H 164.731 -2.52875 -1.8682 0
M  V30 1751 N 168.503 -0.877838 -1.30888 0
M  V30 1752 C 169.75 -0.492696 -1.96415 0
M  V30 1753 C 170.078 0.956671 -1.69346 0
M  V30 1754 O 169.333 1.68993 -0.986913 0
M  V30 1755 C 169.632 -0.705748 -3.50363 0
M  V30 1756 C 169.298 -2.1291 -3.97467 0
M  V30 1757 C 167.96 -2.51834 -4.1004 0
M  V30 1758 C 170.312 -3.05702 -4.22132 0
M  V30 1759 C 167.64 -3.82775 -4.44635 0
M  V30 1760 C 169.992 -4.36166 -4.58194 0
M  V30 1761 C 168.656 -4.74993 -4.68975 0
M  V30 1762 H 167.926 -0.18029 -0.718733 0
M  V30 1763 H 170.573 -1.11233 -1.55883 0
M  V30 1764 H 168.878 -0.00303058 -3.918 0
M  V30 1765 H 170.575 -0.387456 -3.99124 0
M  V30 1766 H 167.165 -1.81694 -3.88182 0
M  V30 1767 H 171.349 -2.76853 -4.11906 0
M  V30 1768 H 166.605 -4.12609 -4.51181 0
M  V30 1769 H 170.779 -5.08111 -4.76231 0
M  V30 1770 H 168.406 -5.76495 -4.95537 0
M  V30 1771 N 169.982 1.44106 -0.638065 0
M  V30 1772 C 171.229 2.01978 -0.14533 0
M  V30 1773 C 171.557 1.50234 1.23532 0
M  V30 1774 O 170.812 0.679548 1.83523 0
M  V30 1775 C 171.111 3.5729 -0.0887327 0
M  V30 1776 C 170.777 4.28317 -1.40909 0
M  V30 1777 C 169.439 4.47437 -1.77069 0
M  V30 1778 C 171.791 4.6867 -2.28031 0
M  V30 1779 C 169.119 5.04171 -3.00047 0
M  V30 1780 C 171.471 5.26766 -3.50286 0
M  V30 1781 C 170.135 5.44104 -3.86661 0
M  V30 1782 H 169.405 0.739089 -0.0531801 0
M  V30 1783 H 172.052 1.72781 -0.825761 0
M  V30 1784 H 170.357 3.8594 0.675095 0
M  V30 1785 H 172.054 3.99807 0.309145 0
M  V30 1786 H 168.644 4.1377 -1.1177 0
M  V30 1787 H 172.828 4.53604 -2.01388 0
M  V30 1788 H 168.084 5.15782 -3.28298 0
M  V30 1789 H 172.258 5.56983 -4.18023 0
M  V30 1790 H 169.885 5.87832 -4.82034 0
M  V30 1791 N 171.46 0.379036 1.52974 0
M  V30 1792 C 172.708 -0.206014 2.01047 0
M  V30 1793 C 173.029 -1.48175 1.26765 0
M  V30 1794 O 172.299 -1.92085 0.384743 0
M  V30 1795 H 170.879 -0.0791184 0.742798 0
M  V30 1796 H 173.541 0.508366 1.88153 0
M  V30 1797 H 172.637 -0.423501 3.09213 0
M  V30 1798 N 172.938 -1.57226 0.108567 0
M  V30 1799 C 174.166 -1.99179 -0.559954 0
M  V30 1800 C 174.581 -0.988022 -1.60884 0
M  V30 1801 O 173.938 0.0205512 -1.82488 0
M  V30 1802 C 173.989 -3.41159 -1.19552 0
M  V30 1803 O 173.71 -4.37694 -0.188577 0
M  V30 1804 C 175.211 -3.98188 -1.94837 0
M  V30 1805 H 172.431 -0.654228 -0.149088 0
M  V30 1806 H 174.975 -2.03598 0.19183 0
M  V30 1807 H 173.13 -3.37711 -1.89815 0
M  V30 1808 H 173.544 -5.20469 -0.649014 0
M  V30 1809 H 175.018 -4.99644 -2.34648 0
M  V30 1810 H 175.495 -3.3675 -2.81951 0
M  V30 1811 H 176.101 -4.0515 -1.2936 0
M  V30 1812 N 174.416 0.165178 -1.56732 0
M  V30 1813 C 175.832 0.517174 -1.50988 0
M  V30 1814 C 176.032 1.84331 -0.813894 0
M  V30 1815 O 175.088 2.49672 -0.37682 0
M  V30 1816 C 176.401 0.544261 -2.95733 0
M  V30 1817 C 177.949 0.631039 -3.06573 0
M  V30 1818 C 178.424 0.68896 -4.52788 0
M  V30 1819 N 179.915 0.751683 -4.5706 0
M  V30 1820 C 180.65 0.817177 -5.67547 0
M  V30 1821 N 180.146 0.843129 -6.8765 0
M  V30 1822 N 181.939 0.856668 -5.55534 0
M  V30 1823 H 174.09 -0.704318 -2.00382 0
M  V30 1824 H 176.353 -0.254687 -0.913148 0
M  V30 1825 H 176.059 -0.361607 -3.49836 0
M  V30 1826 H 175.933 1.3886 -3.5071 0
M  V30 1827 H 178.32 1.52733 -2.52501 0
M  V30 1828 H 178.401 -0.240095 -2.54671 0
M  V30 1829 H 178.045 -0.2031 -5.07494 0
M  V30 1830 H 177.975 1.57633 -5.02454 0
M  V30 1831 H 180.466 0.739661 -3.70591 0
M  V30 1832 H 180.779 0.894448 -7.67606 0
M  V30 1833 H 179.124 0.811304 -6.90248 0
M  V30 1834 H 182.315 0.833437 -4.60621 0
M  V30 1835 H 182.488 0.904247 -6.4166 0
M  V30 1836 N 175.894 1.51508 0.433938 0
M  V30 1837 C 177.171 1.54888 1.19453 0
M  V30 1838 C 177.551 0.315154 2.08734 0
M  V30 1839 O 176.899 -0.699558 2.17528 0
M  V30 1840 C 177.109 2.86467 1.99342 0
M  V30 1841 C 178.457 3.38545 2.56267 0
M  V30 1842 O 179.481 2.88041 2.0955 0
M  V30 1843 O 178.34 4.26675 3.41483 0
M  V30 1844 H 175.434 0.622863 0.544032 0
M  V30 1845 H 177.98 1.63823 0.442732 0
M  V30 1846 H 176.752 3.67718 1.33788 0
M  V30 1847 H 176.375 2.8071 2.8158 0
M  V30 1848 N 177.372 -0.689602 1.41712 0
M  V30 1849 C 178.618 -1.45181 1.41599 0
M  V30 1850 C 178.951 -1.94181 0.0270081 0
M  V30 1851 O 178.226 -1.6993 -0.946265 0
M  V30 1852 C 178.509 -2.65945 2.42787 0
M  V30 1853 C 178.362 -2.22672 3.90816 0
M  V30 1854 C 179.681 -3.68149 2.41151 0
M  V30 1855 H 176.8 -0.526576 0.515642 0
M  V30 1856 H 179.442 -0.784947 1.73028 0
M  V30 1857 H 177.592 -3.2284 2.16116 0
M  V30 1858 H 179.264 -1.71058 4.28412 0
M  V30 1859 H 177.507 -1.54394 4.05395 0
M  V30 1860 H 178.178 -3.0935 4.57172 0
M  V30 1861 H 180.654 -3.2094 2.64834 0
M  V30 1862 H 179.53 -4.50248 3.13955 0
M  V30 1863 H 179.791 -4.18259 1.43221 0
M  V30 1864 N 178.85 -1.27639 -0.924453 0
M  V30 1865 C 180.09 -1.15407 -1.68703 0
M  V30 1866 C 180.454 0.294581 -1.89727 0
M  V30 1867 O 181.655 0.539385 -2.63333 0
M  V30 1868 C 179.926 -1.9195 -3.0148 0
M  V30 1869 S 181.485 -1.95969 -3.92609 0
M  V30 1870 H 178.303 -0.411937 -0.579507 0
M  V30 1871 H 180.905 -1.61592 -1.10038 0
M  V30 1872 H 179.609 -2.96387 -2.83871 0
M  V30 1873 H 179.14 -1.46272 -3.65196 0
M  V30 1874 H 181.155 -1.05846 -4.84779 0
M  V30 1875 N 180.328 1.1314 -1.09713 0
M  V30 1876 C 181.556 1.88321 -0.856898 0
M  V30 1877 C 181.971 1.79276 0.592073 0
M  V30 1878 O 181.328 1.16142 1.40774 0
M  V30 1879 C 181.379 3.37812 -1.28706 0
M  V30 1880 O 181.1 3.46627 -2.67921 0
M  V30 1881 C 182.601 4.29952 -1.07964 0
M  V30 1882 H 179.821 0.596094 -0.308079 0
M  V30 1883 H 182.365 1.43205 -1.45988 0
M  V30 1884 H 180.52 3.805 -0.727912 0
M  V30 1885 H 180.934 4.39579 -2.8613 0
M  V30 1886 H 182.408 5.33159 -1.42986 0
M  V30 1887 H 182.885 4.39196 -0.0176577 0
M  V30 1888 H 183.491 3.93036 -1.62489 0
M  V30 1889 N 181.806 0.884767 1.30421 0
M  V30 1890 C 182.716 0.355398 2.31892 0
M  V30 1891 C 183.732 -0.542261 1.65335 0
M  V30 1892 O 184.908 -0.435432 1.96637 0
M  V30 1893 C 181.973 -0.421661 3.44126 0
M  V30 1894 C 181.034 0.505727 4.26311 0
M  V30 1895 C 180.267 -0.234343 5.33185 0
M  V30 1896 O 180.49 -1.46045 5.51386 0
M  V30 1897 O 179.424 0.415443 6.00465 0
M  V30 1898 H 183.25 1.19685 2.79122 0
M  V30 1899 H 180.835 0.648596 1.34587 0
M  V30 1900 H 182.717 -0.861641 4.12497 0
M  V30 1901 H 181.392 -1.23942 2.99032 0
M  V30 1902 H 180.299 0.994513 3.60639 0
M  V30 1903 H 181.632 1.28948 4.75009 0
M  V30 1904 N 183.284 -1.43765 0.645699 0
M  V30 1905 C 184.214 -2.33471 -0.0370477 0
M  V30 1906 C 185.195 -1.49042 -0.819779 0
M  V30 1907 O 186.38 -1.77726 -0.782758 0
M  V30 1908 C 183.51 -3.32311 -1.0093 0
M  V30 1909 C 182.464 -4.2667 -0.337201 0
M  V30 1910 C 181.79 -5.1549 -1.42037 0
M  V30 1911 C 183.09 -5.16657 0.765706 0
M  V30 1912 H 184.784 -2.90809 0.712069 0
M  V30 1913 H 182.33 -1.39834 0.343876 0
M  V30 1914 H 184.283 -3.9396 -1.49578 0
M  V30 1915 H 183.007 -2.73213 -1.78948 0
M  V30 1916 H 181.666 -3.66374 0.128771 0
M  V30 1917 H 181.314 -4.52735 -2.1918 0
M  V30 1918 H 181.014 -5.79438 -0.975966 0
M  V30 1919 H 182.538 -5.80012 -1.90838 0
M  V30 1920 H 183.952 -5.72158 0.361702 0
M  V30 1921 H 182.349 -5.89286 1.13413 0
M  V30 1922 H 183.419 -4.56796 1.62683 0
M  V30 1923 N 184.763 -0.387143 -1.52771 0
M  V30 1924 C 185.693 0.440551 -2.29306 0
M  V30 1925 C 186.674 1.06535 -1.32606 0
M  V30 1926 O 187.859 1.07853 -1.61497 0
M  V30 1927 C 184.989 1.56919 -3.09829 0
M  V30 1928 C 183.943 1.07054 -4.14395 0
M  V30 1929 C 183.269 2.29109 -4.83129 0
M  V30 1930 C 184.569 0.140015 -5.22112 0
M  V30 1931 H 186.263 -0.198026 -2.98744 0
M  V30 1932 H 183.809 -0.09668 -1.43675 0
M  V30 1933 H 185.762 2.15503 -3.62128 0
M  V30 1934 H 184.486 2.23532 -2.3812 0
M  V30 1935 H 183.145 0.507247 -3.63074 0
M  V30 1936 H 182.793 2.94227 -4.0797 0
M  V30 1937 H 182.493 1.96406 -5.53804 0
M  V30 1938 H 184.017 2.88339 -5.38231 0
M  V30 1939 H 185.431 0.633978 -5.69784 0
M  V30 1940 H 183.828 -0.0971485 -6.00021 0
M  V30 1941 H 184.898 -0.811711 -4.78058 0
M  V30 1942 N 186.241 1.57166 -0.116904 0
M  V30 1943 C 187.652 1.82169 0.408809 0
M  V30 1944 C 188.003 1.03393 1.66746 0
M  V30 1945 O 187.128 0.269886 2.1471 0
M  V30 1946 C 187.723 3.30429 0.748466 0
M  V30 1947 C 186.282 3.5612 1.21882 0
M  V30 1948 C 185.429 2.76374 0.226452 0
M  V30 1949 H 188.38 1.5497 -0.342063 0
M  V30 1950 H 188.401 3.44943 1.60607 0
M  V30 1951 H 187.913 3.87737 -0.167784 0
M  V30 1952 H 186.014 3.04168 2.15204 0
M  V30 1953 H 186.127 4.64705 1.16559 0
M  V30 1954 H 184.491 2.44515 0.713063 0
M  V30 1955 H 185.274 3.3644 -0.682859 0
M  V30 1956 N 187.719 -0.156864 1.56817 0
M  V30 1957 C 188.649 -1.19589 2.00551 0
M  V30 1958 C 189.63 -1.4536 0.883426 0
M  V30 1959 O 190.815 -1.56449 1.15054 0
M  V30 1960 C 187.945 -2.53143 2.37773 0
M  V30 1961 C 186.899 -2.41913 3.53075 0
M  V30 1962 C 186.225 -3.80088 3.76081 0
M  V30 1963 C 187.525 -1.91157 4.86062 0
M  V30 1964 H 189.219 -0.832293 2.87599 0
M  V30 1965 H 186.765 -0.398918 1.38364 0
M  V30 1966 H 188.718 -3.26047 2.66967 0
M  V30 1967 H 187.442 -2.91319 1.4765 0
M  V30 1968 H 186.101 -1.71462 3.24031 0
M  V30 1969 H 185.749 -4.15683 2.83225 0
M  V30 1970 H 185.449 -3.73439 4.53671 0
M  V30 1971 H 186.973 -4.54556 4.0769 0
M  V30 1972 H 188.387 -2.53846 5.14038 0
M  V30 1973 H 186.784 -1.95422 5.67389 0
M  V30 1974 H 187.854 -0.866673 4.77092 0
M  V30 1975 N 189.197 -1.51736 -0.425897 0
M  V30 1976 C 190.446 -1.64201 -1.17136 0
M  V30 1977 C 190.759 -0.369705 -1.92074 0
M  V30 1978 O 191.965 -0.373898 -2.68913 0
M  V30 1979 C 190.421 -2.90035 -2.13091 0
M  V30 1980 C 190.029 -4.24312 -1.43747 0
M  V30 1981 C 191.773 -3.1186 -2.87999 0
M  V30 1982 C 189.68 -5.41285 -2.38253 0
M  V30 1983 H 188.61 -0.611624 -0.440944 0
M  V30 1984 H 191.261 -1.78212 -0.437328 0
M  V30 1985 H 189.643 -2.69684 -2.89977 0
M  V30 1986 H 190.817 -4.55086 -0.723408 0
M  V30 1987 H 189.132 -4.08456 -0.809465 0
M  V30 1988 H 191.729 -3.96427 -3.58817 0
M  V30 1989 H 192.072 -2.25403 -3.49999 0
M  V30 1990 H 192.605 -3.32605 -2.18217 0
M  V30 1991 H 189.344 -6.30037 -1.80925 0
M  V30 1992 H 188.864 -5.14872 -3.0768 0
M  V30 1993 H 190.543 -5.73694 -2.99139 0
M  V30 1994 N 190.675 0.682077 -1.42076 0
M  V30 1995 C 191.622 1.79578 -1.44984 0
M  V30 1996 C 192.592 1.6332 -0.302614 0
M  V30 1997 O 193.777 1.83978 -0.505633 0
M  V30 1998 C 190.917 3.1756 -1.35091 0
M  V30 1999 C 190.03 3.45156 -2.59791 0
M  V30 2000 C 189.165 4.72826 -2.42093 0
M  V30 2001 C 188.204 4.93433 -3.62202 0
M  V30 2002 N 187.341 6.12338 -3.43491 0
M  V30 2003 H 192.181 1.76427 -2.40161 0
M  V30 2004 H 189.718 0.861376 -1.19242 0
M  V30 2005 H 191.676 3.97287 -1.27354 0
M  V30 2006 H 190.306 3.19854 -0.435133 0
M  V30 2007 H 189.358 2.59736 -2.77923 0
M  V30 2008 H 190.67 3.5628 -3.49094 0
M  V30 2009 H 189.824 5.60631 -2.319 0
M  V30 2010 H 188.563 4.63973 -1.50268 0
M  V30 2011 H 187.568 4.04073 -3.72834 0
M  V30 2012 H 188.793 5.04136 -4.54998 0
M  V30 2013 H 186.739 6.04672 -2.54377 0
M  V30 2014 H 186.656 6.2429 -4.26377 0
M  V30 2015 H 187.924 7.02841 -3.37097 0
M  V30 2016 N 192.153 1.28127 0.917671 0
M  V30 2017 C 193.564 1.13622 1.48145 0
M  V30 2018 C 193.915 -0.275207 1.9426 0
M  V30 2019 O 193.04 -1.1691 1.82102 0
M  V30 2020 C 193.635 2.05648 2.69248 0
M  V30 2021 C 192.194 1.95219 3.21818 0
M  V30 2022 C 191.341 1.97618 1.94532 0
M  V30 2023 H 194.292 1.40874 0.730772 0
M  V30 2024 H 194.313 1.61818 3.44377 0
M  V30 2025 H 193.825 3.08365 2.35653 0
M  V30 2026 H 191.926 0.955244 3.60147 0
M  V30 2027 H 192.039 2.81976 3.87333 0
M  V30 2028 H 190.403 1.41973 2.11461 0
M  V30 2029 H 191.186 3.02007 1.63238 0
M  V30 2030 N 193.631 -1.12557 1.10312 0
M  V30 2031 C 194.563 -2.17971 0.708625 0
M  V30 2032 C 195.576 -1.60806 -0.254027 0
M  V30 2033 O 196.765 -1.78458 -0.0386891 0
M  V30 2034 C 193.865 -3.38891 0.0248198 0
M  V30 2035 C 193.038 -4.25548 1.01132 0
M  V30 2036 C 192.097 -5.24972 0.35924 0
M  V30 2037 O 191.123 -5.60174 1.00965 0
M  V30 2038 N 192.325 -5.73747 -0.882847 0
M  V30 2039 H 195.09 -2.52427 1.61557 0
M  V30 2040 H 192.651 -1.27967 0.991771 0
M  V30 2041 H 194.643 -4.02485 -0.422852 0
M  V30 2042 H 193.213 -3.02596 -0.784514 0
M  V30 2043 H 192.433 -3.58589 1.6373 0
M  V30 2044 H 193.721 -4.80294 1.67914 0
M  V30 2045 H 193.119 -5.4731 -1.43065 0
M  V30 2046 H 191.676 -6.39234 -1.27369 0
M  V30 2047 N 195.109 -0.891671 -1.2995 0
M  V30 2048 C 196.357 -0.512486 -1.95494 0
M  V30 2049 C 196.678 0.942776 -1.70695 0
M  V30 2050 O 195.948 1.66374 -1.03424 0
M  V30 2051 H 194.528 -0.186533 -0.723336 0
M  V30 2052 H 197.19 -1.13621 -1.58355 0
M  V30 2053 H 196.286 -0.688342 -3.04415 0
M  V30 2054 N 196.587 1.43421 -0.653314 0
M  V30 2055 C 198.003 1.56341 -0.320886 0
M  V30 2056 C 198.203 1.63696 1.17499 0
M  V30 2057 O 197.259 1.59208 1.95982 0
M  V30 2058 C 198.572 2.82424 -1.03233 0
M  V30 2059 C 200.12 2.96168 -1.01259 0
M  V30 2060 C 200.595 4.25084 -1.70492 0
M  V30 2061 N 202.086 4.31948 -1.67257 0
M  V30 2062 C 202.821 5.30466 -2.17701 0
M  V30 2063 N 202.317 6.35261 -2.76434 0
M  V30 2064 N 204.11 5.2212 -2.082 0
M  V30 2065 H 196.261 1.3689 -1.62403 0
M  V30 2066 H 198.524 0.657455 -0.682977 0
M  V30 2067 H 198.23 2.83053 -2.08744 0
M  V30 2068 H 198.104 3.72653 -0.583948 0
M  V30 2069 H 200.491 2.9508 0.0341235 0
M  V30 2070 H 200.572 2.07229 -1.49966 0
M  V30 2071 H 200.216 4.26932 -2.7512 0
M  V30 2072 H 200.146 5.1292 -1.19251 0
M  V30 2073 H 202.637 3.56838 -1.24398 0
M  V30 2074 H 202.95 7.06754 -3.12601 0
M  V30 2075 H 201.295 6.35884 -2.80495 0
M  V30 2076 H 204.486 4.39166 -1.62021 0
M  V30 2077 H 204.659 5.98739 -2.47822 0
M  V30 2078 N 198.065 0.39524 1.52563 0
M  V30 2079 C 199.311 -0.185318 2.01952 0
M  V30 2080 C 199.644 -1.45964 1.28095 0
M  V30 2081 O 198.919 -1.90689 0.38315 0
M  V30 2082 C 199.202 -0.447193 3.57312 0
M  V30 2083 C 199.055 0.842828 4.41833 0
M  V30 2084 C 200.374 -1.23529 4.22408 0
M  V30 2085 H 197.493 -0.0658788 0.73405 0
M  V30 2086 H 200.135 0.525975 1.82575 0
M  V30 2087 H 198.285 -1.05312 3.73954 0
M  V30 2088 H 199.957 1.4795 4.36931 0
M  V30 2089 H 198.2 1.45686 4.08605 0
M  V30 2090 H 198.871 0.614165 5.48573 0
M  V30 2091 H 201.347 -0.722445 4.0978 0
M  V30 2092 H 200.223 -1.38727 5.3108 0
M  V30 2093 H 200.484 -2.25213 3.80436 0
M  V30 2094 N 199.544 -1.57102 0.125237 0
M  V30 2095 C 200.79 -1.95697 -0.532035 0
M  V30 2096 C 201.123 -1.009 -1.6593 0
M  V30 2097 O 200.398 -0.047347 -1.94442 0
M  V30 2098 C 200.681 -3.44181 -1.05884 0
M  V30 2099 C 200.534 -4.49752 0.0654392 0
M  V30 2100 C 201.853 -3.94655 -1.9477 0
M  V30 2101 H 198.972 -0.711571 -0.191925 0
M  V30 2102 H 201.614 -1.88923 0.20206 0
M  V30 2103 H 199.764 -3.50085 -1.68442 0
M  V30 2104 H 201.436 -4.55943 0.700982 0
M  V30 2105 H 199.679 -4.27653 0.727709 0
M  V30 2106 H 200.35 -5.50924 -0.344505 0
M  V30 2107 H 202.826 -3.91094 -1.42074 0
M  V30 2108 H 201.702 -4.99057 -2.28546 0
M  V30 2109 H 201.963 -3.35718 -2.87656 0
M  V30 2110 N 201.022 0.148545 -1.56898 0
M  V30 2111 C 201.97 1.20265 -1.99096 0
M  V30 2112 C 202.964 1.44559 -0.883123 0
M  V30 2113 O 204.17 1.4487 -1.0683 0
M  V30 2114 H 200.545 0.404786 -0.63376 0
M  V30 2115 H 202.516 0.82004 -2.86911 0
M  V30 2116 C 201.265 2.52886 -2.3863 0
M  V30 2117 H 200.588 2.35021 -3.23427 0
M  V30 2118 H 202.028 3.25274 -2.7198 0
M  V30 2119 C 200.487 3.13315 -1.23837 0
M  V30 2120 O 201.017 3.98077 -0.538268 0
M  V30 2121 N 199.223 2.72742 -1.00301 0
M  V30 2122 H 198.77 2.03912 -1.5741 0
M  V30 2123 H 198.728 3.13507 -0.236838 0
M  V30 2124 N 202.5 1.5196 0.417844 0
M  V30 2125 C 203.746 1.65836 1.16732 0
M  V30 2126 C 204.079 0.382881 1.90388 0
M  V30 2127 O 203.354 -0.618368 1.84408 0
M  V30 2128 C 203.637 2.87466 2.16876 0
M  V30 2129 C 203.49 4.25041 1.47174 0
M  V30 2130 C 204.809 3.04613 3.17646 0
M  V30 2131 H 201.928 0.603515 0.423011 0
M  V30 2132 H 204.57 1.84494 0.454105 0
M  V30 2133 H 202.72 2.71689 2.777 0
M  V30 2134 H 204.392 4.52527 0.895376 0
M  V30 2135 H 202.635 4.26843 0.773806 0
M  V30 2136 H 203.306 5.06176 2.20204 0
M  V30 2137 H 205.782 3.1923 2.66892 0
M  V30 2138 H 204.658 3.91247 3.8499 0
M  V30 2139 H 204.919 2.17541 3.84874 0
M  V30 2140 N 203.978 -0.674533 1.42435 0
M  V30 2141 C 205.203 -1.46784 1.46524 0
M  V30 2142 C 205.628 -1.87938 0.078066 0
M  V30 2143 O 204.986 -1.56014 -0.92354 0
M  V30 2144 C 205.034 -2.69307 2.39805 0
M  V30 2145 O 204.138 -3.67587 1.86959 0
M  V30 2146 H 203.479 -0.440959 0.496439 0
M  V30 2147 H 206.009 -0.827326 1.87127 0
M  V30 2148 H 206.019 -3.17374 2.56393 0
M  V30 2149 H 204.694 -2.38692 3.40586 0
M  V30 2150 H 203.271 -3.2662 1.79927 0
M  V30 2151 N 205.456 -1.28612 -0.910864 0
M  V30 2152 C 206.681 -1.1891 -1.69927 0
M  V30 2153 C 207.106 0.248372 -1.86453 0
M  V30 2154 O 206.464 1.17961 -1.37676 0
M  V30 2155 C 206.512 -1.89578 -3.06745 0
M  V30 2156 O 205.616 -1.20521 -3.94396 0
M  V30 2157 H 204.957 -0.412632 -0.520222 0
M  V30 2158 H 207.487 -1.69985 -1.1387 0
M  V30 2159 H 207.497 -1.97597 -3.56958 0
M  V30 2160 H 206.172 -2.94136 -2.94035 0
M  V30 2161 H 204.749 -1.20684 -3.52831 0
M  V30 2162 N 206.934 1.1197 -1.10907 0
M  V30 2163 C 208.183 1.82947 -0.849302 0
M  V30 2164 C 208.496 1.85275 0.627112 0
M  V30 2165 O 209.702 2.52296 1.00295 0
M  V30 2166 C 208.158 3.28529 -1.46959 0
M  V30 2167 C 207.766 3.34546 -2.97965 0
M  V30 2168 C 209.51 4.04443 -1.28942 0
M  V30 2169 C 207.417 4.74491 -3.53004 0
M  V30 2170 H 206.347 0.685477 -0.314065 0
M  V30 2171 H 208.998 1.2604 -1.33365 0
M  V30 2172 H 207.38 3.85333 -0.912917 0
M  V30 2173 H 208.554 2.87654 -3.59989 0
M  V30 2174 H 206.869 2.72108 -3.15192 0
M  V30 2175 H 209.466 5.07787 -1.67502 0
M  V30 2176 H 209.809 4.15656 -0.231456 0
M  V30 2177 H 210.342 3.5401 -1.81443 0
M  V30 2178 H 207.081 4.68474 -4.58489 0
M  V30 2179 H 206.601 5.21816 -2.9575 0
M  V30 2180 H 208.28 5.4344 -3.51115 0
M  V30 2181 N 208.412 0.89855 1.29475 0
M  V30 2182 C 209.345 0.319981 2.25945 0
M  V30 2183 C 210.323 -0.567189 1.52387 0
M  V30 2184 O 211.507 -0.514254 1.8135 0
M  V30 2185 C 208.634 -0.544013 3.34303 0
M  V30 2186 C 207.68 0.275682 4.25608 0
M  V30 2187 S 208.513 1.67272 5.08704 0
M  V30 2188 C 209.669 0.815621 6.20563 0
M  V30 2189 H 209.902 1.13767 2.74671 0
M  V30 2190 H 207.435 0.69882 1.3768 0
M  V30 2191 H 209.393 -1.03673 3.97193 0
M  V30 2192 H 208.054 -1.33593 2.84274 0
M  V30 2193 H 207.247 -0.384263 5.02533 0
M  V30 2194 H 206.849 0.701496 3.67362 0
M  V30 2195 H 209.141 0.0385042 6.77489 0
M  V30 2196 H 210.084 1.55691 6.90772 0
M  V30 2197 H 210.492 0.370516 5.63283 0
M  V30 2198 N 209.89 -1.43072 0.660911 0
M  V30 2199 C 211.115 -2.06584 0.183805 0
M  V30 2200 C 211.54 -1.49257 -1.14472 0
M  V30 2201 O 210.898 -0.605528 -1.70889 0
M  V30 2202 C 210.946 -3.60418 0.114434 0
M  V30 2203 O 210.05 -4.01981 -0.921137 0
M  V30 2204 H 209.391 -0.656669 0.0983994 0
M  V30 2205 H 211.921 -1.83447 0.906006 0
M  V30 2206 H 211.931 -4.07946 -0.0663394 0
M  V30 2207 H 210.606 -4.01519 1.08422 0
M  V30 2208 H 209.183 -3.66029 -0.71253 0
M  V30 2209 N 211.368 -0.403325 -1.52352 0
M  V30 2210 C 212.614 0.174605 -2.02047 0
M  V30 2211 C 212.947 1.45282 -1.28867 0
M  V30 2212 O 212.222 1.90483 -0.393257 0
M  V30 2213 C 212.505 0.428238 -3.57545 0
M  V30 2214 C 212.358 -0.866248 -4.4138 0
M  V30 2215 C 213.677 1.21287 -4.23057 0
M  V30 2216 H 210.796 0.0619851 -0.734389 0
M  V30 2217 H 213.438 -0.53565 -1.82293 0
M  V30 2218 H 211.588 1.03327 -3.74507 0
M  V30 2219 H 213.26 -1.50265 -4.3614 0
M  V30 2220 H 211.503 -1.47851 -4.07827 0
M  V30 2221 H 212.174 -0.643249 -5.48239 0
M  V30 2222 H 214.65 0.700703 -4.10158 0
M  V30 2223 H 213.526 1.35909 -5.31808 0
M  V30 2224 H 213.787 2.23193 -3.81625 0
M  V30 2225 N 212.846 1.57033 -0.133567 0
M  V30 2226 C 214.262 1.58035 0.222944 0
M  V30 2227 C 214.462 1.14713 1.6566 0
M  V30 2228 O 213.518 0.841218 2.38075 0
M  V30 2229 C 214.831 3.00691 -0.0236116 0
M  V30 2230 C 216.379 3.12973 0.0411512 0
M  V30 2231 C 216.854 4.57654 -0.177899 0
M  V30 2232 N 218.345 4.63033 -0.124365 0
M  V30 2233 C 219.08 5.72771 -0.268553 0
M  V30 2234 N 218.576 6.91206 -0.46972 0
M  V30 2235 N 220.369 5.61718 -0.2071 0
M  V30 2236 H 212.52 1.8349 -1.06981 0
M  V30 2237 H 214.783 0.848677 -0.422436 0
M  V30 2238 H 214.489 3.36726 -1.0153 0
M  V30 2239 H 214.363 3.70614 0.701808 0
M  V30 2240 H 216.75 2.76787 1.02338 0
M  V30 2241 H 216.831 2.45564 -0.716383 0
M  V30 2242 H 216.475 4.94542 -1.15717 0
M  V30 2243 H 216.405 5.23173 0.599797 0
M  V30 2244 H 218.896 3.7789 0.027011 0
M  V30 2245 H 219.209 7.70693 -0.570212 0
M  V30 2246 H 217.554 6.93156 -0.505876 0
M  V30 2247 H 220.745 4.68072 -0.0507986 0
M  V30 2248 H 220.918 6.47195 -0.322909 0
M  V30 2249 N 214.325 -0.140222 1.56975 0
M  V30 2250 C 215.288 -1.15689 1.97861 0
M  V30 2251 C 216.288 -1.3549 0.865974 0
M  V30 2252 O 217.478 -1.32367 1.13246 0
M  V30 2253 C 214.61 -2.51582 2.30042 0
M  V30 2254 H 215.803 -0.805971 2.88867 0
M  V30 2255 H 213.356 -0.383801 1.51515 0
M  V30 2256 H 214.091 -2.91632 1.41849 0
M  V30 2257 H 213.876 -2.38569 3.11171 0
M  V30 2258 H 215.366 -3.24792 2.62488 0
M  V30 2259 N 215.803 -1.52179 -0.40978 0
M  V30 2260 C 216.733 -1.78435 -1.5061 0
M  V30 2261 C 217.714 -0.635295 -1.57791 0
M  V30 2262 O 218.899 -0.880823 -1.73076 0
M  V30 2263 C 216.029 -1.93444 -2.88439 0
M  V30 2264 C 214.983 -3.09038 -2.96108 0
M  V30 2265 C 214.309 -3.09268 -4.36185 0
M  V30 2266 C 215.609 -4.48508 -2.67652 0
M  V30 2267 H 217.303 -2.70237 -1.28889 0
M  V30 2268 H 214.849 -1.30036 -0.618605 0
M  V30 2269 H 216.802 -2.10394 -3.65119 0
M  V30 2270 H 215.526 -0.983129 -3.11452 0
M  V30 2271 H 214.185 -2.91837 -2.21872 0
M  V30 2272 H 213.833 -2.11861 -4.56206 0
M  V30 2273 H 213.533 -3.86907 -4.42241 0
M  V30 2274 H 215.057 -3.28348 -5.14801 0
M  V30 2275 H 216.471 -4.65918 -3.34056 0
M  V30 2276 H 214.868 -5.28059 -2.85085 0
M  V30 2277 H 215.938 -4.56649 -1.63095 0
M  V30 2278 N 217.281 0.66697 -1.42791 0
M  V30 2279 C 218.228 1.7803 -1.4688 0
M  V30 2280 C 219.198 1.6299 -0.319919 0
M  V30 2281 O 220.383 1.83432 -0.525118 0
M  V30 2282 C 217.523 3.1611 -1.38451 0
M  V30 2283 C 216.636 3.42381 -2.63437 0
M  V30 2284 C 215.771 4.70232 -2.47094 0
M  V30 2285 C 214.81 4.89564 -3.67415 0
M  V30 2286 N 213.947 6.08661 -3.49966 0
M  V30 2287 H 218.787 1.7387 -2.42019 0
M  V30 2288 H 216.324 0.84868 -1.20149 0
M  V30 2289 H 218.282 3.95914 -1.31561 0
M  V30 2290 H 216.912 3.19374 -0.469033 0
M  V30 2291 H 215.964 2.56774 -2.80662 0
M  V30 2292 H 217.276 3.52557 -3.52853 0
M  V30 2293 H 216.43 5.5814 -2.37834 0
M  V30 2294 H 215.169 4.62353 -1.5518 0
M  V30 2295 H 214.174 4.00096 -3.77099 0
M  V30 2296 H 215.399 4.99282 -4.6032 0
M  V30 2297 H 213.345 6.0194 -2.60776 0
M  V30 2298 H 213.262 6.19733 -4.32975 0
M  V30 2299 H 214.53 6.99226 -3.44532 0
M  V30 2300 N 218.759 1.29093 0.90403 0
M  V30 2301 C 219.984 1.19809 1.69294 0
M  V30 2302 C 220.409 -0.238481 1.86582 0
M  V30 2303 O 219.767 -1.1723 1.383 0
M  V30 2304 C 219.815 1.91202 3.05736 0
M  V30 2305 O 218.919 1.22611 3.93752 0
M  V30 2306 H 218.26 0.415385 0.518027 0
M  V30 2307 H 220.79 1.70586 1.12967 0
M  V30 2308 H 220.8 1.99487 3.55906 0
M  V30 2309 H 219.475 2.95692 2.92471 0
M  V30 2310 H 218.052 1.22554 3.52186 0
M  V30 2311 N 220.237 -1.11381 1.11499 0
M  V30 2312 C 221.477 -1.84763 0.874188 0
M  V30 2313 C 221.841 -1.82726 -0.589496 0
M  V30 2314 O 223.042 -2.51562 -0.947089 0
M  V30 2315 C 221.313 -3.27931 1.42112 0
M  V30 2316 S 222.872 -4.18557 1.31739 0
M  V30 2317 H 219.69 -0.637115 0.315603 0
M  V30 2318 H 222.292 -1.34097 1.42261 0
M  V30 2319 H 220.996 -3.26978 2.48019 0
M  V30 2320 H 220.527 -3.83665 0.869761 0
M  V30 2321 H 222.542 -4.95396 0.282335 0
M  V30 2322 N 221.715 -0.905404 -1.28997 0
M  V30 2323 C 222.94 -0.549175 -1.99997 0
M  V30 2324 C 223.365 0.860276 -1.67275 0
M  V30 2325 O 222.723 1.57355 -0.900502 0
M  V30 2326 C 222.771 -0.755185 -3.52604 0
M  V30 2327 O 221.875 0.189692 -4.11964 0
M  V30 2328 H 221.216 -0.213899 -0.628604 0
M  V30 2329 H 223.746 -1.21856 -1.64354 0
M  V30 2330 H 223.756 -0.662045 -4.02593 0
M  V30 2331 H 222.431 -1.78271 -3.75755 0
M  V30 2332 H 221.008 0.0485257 -3.72868 0
M  V30 2333 N 223.193 1.4272 -0.668489 0
M  V30 2334 C 224.604 1.84793 -0.266151 0
M  V30 2335 C 224.955 1.55959 1.19043 0
M  V30 2336 O 224.08 1.01622 1.91055 0
M  V30 2337 C 224.675 3.35436 -0.476271 0
M  V30 2338 C 223.234 3.76182 -0.128113 0
M  V30 2339 C 222.381 2.66344 -0.771777 0
M  V30 2340 H 225.332 1.32656 -0.871098 0
M  V30 2341 H 225.353 3.79515 0.273561 0
M  V30 2342 H 224.865 3.5639 -1.53647 0
M  V30 2343 H 222.966 3.60836 0.928891 0
M  V30 2344 H 223.079 4.75766 -0.564231 0
M  V30 2345 H 221.443 2.53885 -0.203652 0
M  V30 2346 H 222.226 2.90123 -1.83531 0
M  V30 2347 N 224.671 0.411399 1.52136 0
M  V30 2348 C 225.581 -0.419774 2.30814 0
M  V30 2349 C 226.597 -1.0515 1.38634 0
M  V30 2350 O 227.773 -1.05252 1.71709 0
M  V30 2351 C 224.838 -1.52019 3.11594 0
M  V30 2352 C 223.899 -0.91129 4.19516 0
M  V30 2353 C 223.132 -1.95927 4.96436 0
M  V30 2354 O 223.355 -3.17775 4.73683 0
M  V30 2355 O 222.289 -1.56423 5.81219 0
M  V30 2356 H 226.115 0.221805 3.02889 0
M  V30 2357 H 223.7 0.174547 1.48377 0
M  V30 2358 H 225.582 -2.15898 3.61892 0
M  V30 2359 H 224.257 -2.14633 2.42311 0
M  V30 2360 H 223.164 -0.235157 3.7336 0
M  V30 2361 H 224.497 -0.32904 4.91099 0
M  V30 2362 N 226.149 -1.5696 0.141893 0
M  V30 2363 C 227.079 -2.19516 -0.795936 0
M  V30 2364 C 228.06 -1.14187 -1.26077 0
M  V30 2365 O 229.245 -1.42511 -1.31925 0
M  V30 2366 C 226.375 -2.81272 -2.03723 0
M  V30 2367 C 225.329 -3.92384 -1.70936 0
M  V30 2368 C 224.655 -4.41052 -3.02287 0
M  V30 2369 C 225.955 -5.13403 -0.959954 0
M  V30 2370 H 227.649 -2.98138 -0.274596 0
M  V30 2371 H 225.195 -1.43406 -0.130636 0
M  V30 2372 H 227.148 -3.237 -2.69808 0
M  V30 2373 H 225.872 -1.99973 -2.58221 0
M  V30 2374 H 224.531 -3.50566 -1.07232 0
M  V30 2375 H 224.179 -3.56582 -3.54765 0
M  V30 2376 H 223.879 -5.15993 -2.81114 0
M  V30 2377 H 225.403 -4.86146 -3.69451 0
M  V30 2378 H 226.817 -5.52706 -1.52279 0
M  V30 2379 H 225.214 -5.94073 -0.848357 0
M  V30 2380 H 226.284 -4.84875 0.0492434 0
M  V30 2381 N 227.627 0.131896 -1.57047 0
M  V30 2382 C 228.559 1.1878 -1.9602 0
M  V30 2383 C 229.572 1.38363 -0.857875 0
M  V30 2384 O 230.761 1.37666 -1.13623 0
M  V30 2385 C 227.861 2.55008 -2.23213 0
M  V30 2386 C 227.034 2.56201 -3.54513 0
M  V30 2387 C 226.093 3.7408 -3.70069 0
M  V30 2388 O 225.119 3.58258 -4.42312 0
M  V30 2389 N 226.321 4.92137 -3.07866 0
M  V30 2390 H 229.086 0.85639 -2.87204 0
M  V30 2391 H 226.647 0.321309 -1.5868 0
M  V30 2392 H 228.639 3.32404 -2.30846 0
M  V30 2393 H 227.209 2.80382 -1.3822 0
M  V30 2394 H 226.429 1.64613 -3.58185 0
M  V30 2395 H 227.717 2.54043 -4.4084 0
M  V30 2396 H 227.115 5.07895 -2.49116 0
M  V30 2397 H 225.672 5.67254 -3.21039 0
M  V30 2398 N 229.106 1.52395 0.401703 0
M  V30 2399 C 230.038 1.72505 1.50912 0
M  V30 2400 C 231.051 0.605468 1.51122 0
M  V30 2401 O 232.24 0.880828 1.55254 0
M  V30 2402 C 229.34 1.75711 2.89791 0
M  V30 2403 C 228.513 3.04824 3.1369 0
M  V30 2404 C 227.572 2.99743 4.32482 0
M  V30 2405 O 226.598 3.73635 4.29402 0
M  V30 2406 N 227.8 2.18047 5.37992 0
M  V30 2407 H 230.565 2.68049 1.34052 0
M  V30 2408 H 228.126 1.50724 0.591084 0
M  V30 2409 H 230.118 1.69834 3.6734 0
M  V30 2410 H 228.688 0.876092 3.00072 0
M  V30 2411 H 227.908 3.2429 2.24119 0
M  V30 2412 H 229.196 3.90221 3.26504 0
M  V30 2413 H 228.594 1.57456 5.43345 0
M  V30 2414 H 227.151 2.18021 6.14256 0
M  V30 2415 N 230.584 -0.659388 1.43143 0
M  V30 2416 C 231.531 -1.77249 1.47822 0
M  V30 2417 C 232.501 -1.62818 0.328558 0
M  V30 2418 O 233.686 -1.83151 0.534838 0
M  V30 2419 C 230.826 -3.15371 1.40126 0
M  V30 2420 C 229.939 -3.4098 2.65249 0
M  V30 2421 C 229.074 -4.68915 2.49584 0
M  V30 2422 C 228.113 -4.87608 3.70006 0
M  V30 2423 N 227.25 -6.06796 3.53189 0
M  V30 2424 H 232.09 -1.72584 2.42938 0
M  V30 2425 H 229.627 -0.842297 1.20598 0
M  V30 2426 H 231.585 -3.9521 1.33659 0
M  V30 2427 H 230.215 -3.19121 0.485964 0
M  V30 2428 H 229.267 -2.55282 2.8202 0
M  V30 2429 H 230.579 -3.50681 3.54717 0
M  V30 2430 H 229.733 -5.56871 2.4079 0
M  V30 2431 H 228.472 -4.61524 1.5763 0
M  V30 2432 H 227.477 -3.9809 3.79215 0
M  V30 2433 H 228.702 -4.96834 4.62961 0
M  V30 2434 H 226.648 -6.00549 2.63965 0
M  V30 2435 H 226.565 -6.17428 4.36255 0
M  V30 2436 H 227.833 -6.9739 3.48236 0
M  V30 2437 N 232.062 -1.29571 -0.897171 0
M  V30 2438 C 233.309 -1.17689 -1.6479 0
M  V30 2439 C 233.637 0.27107 -1.92602 0
M  V30 2440 O 232.892 1.21193 -1.53658 0
M  V30 2441 C 233.191 -1.9382 -3.00281 0
M  V30 2442 C 232.857 -3.43522 -2.92068 0
M  V30 2443 C 231.519 -3.84348 -2.89535 0
M  V30 2444 C 233.871 -4.38906 -2.81089 0
M  V30 2445 C 231.199 -5.18869 -2.73846 0
M  V30 2446 C 233.551 -5.73521 -2.66939 0
M  V30 2447 C 232.215 -6.13601 -2.62774 0
M  V30 2448 H 231.485 -0.430654 -0.603008 0
M  V30 2449 H 234.132 -1.60536 -1.04404 0
M  V30 2450 H 232.437 -1.4357 -3.64547 0
M  V30 2451 H 234.134 -1.82028 -3.57305 0
M  V30 2452 H 230.724 -3.11072 -2.94842 0
M  V30 2453 H 234.908 -4.08315 -2.82121 0
M  V30 2454 H 230.164 -5.4903 -2.69027 0
M  V30 2455 H 234.338 -6.47078 -2.57416 0
M  V30 2456 H 231.965 -7.17786 -2.50375 0
M  V30 2457 N 233.54 1.10788 -1.12088 0
M  V30 2458 C 234.956 1.34691 -0.856186 0
M  V30 2459 C 235.156 1.94791 0.515615 0
M  V30 2460 O 234.212 2.18524 1.26505 0
M  V30 2461 C 235.525 2.27208 -1.9697 0
M  V30 2462 C 237.073 2.40755 -2.00016 0
M  V30 2463 C 237.548 3.36598 -3.1059 0
M  V30 2464 N 239.039 3.44164 -3.10008 0
M  V30 2465 C 239.774 4.18284 -3.92206 0
M  V30 2466 N 239.27 4.95322 -4.84384 0
M  V30 2467 N 241.063 4.13865 -3.80357 0
M  V30 2468 H 233.214 0.70144 -2.00483 0
M  V30 2469 H 235.477 0.371405 -0.872217 0
M  V30 2470 H 235.183 1.90251 -2.958 0
M  V30 2471 H 235.057 3.27485 -1.87172 0
M  V30 2472 H 237.444 2.76982 -1.01808 0
M  V30 2473 H 237.525 1.40305 -2.13888 0
M  V30 2474 H 237.169 3.01096 -4.09028 0
M  V30 2475 H 237.099 4.36918 -2.93956 0
M  V30 2476 H 239.59 2.8922 -2.43228 0
M  V30 2477 H 239.903 5.49267 -5.43623 0
M  V30 2478 H 238.248 4.94459 -4.884 0
M  V30 2479 H 241.439 3.52773 -3.07683 0
M  V30 2480 H 241.612 4.71372 -4.44649 0
M  V30 2481 N 235.018 0.912232 1.28515 0
M  V30 2482 C 236.243 0.559774 1.99703 0
M  V30 2483 C 236.668 -0.851393 1.67729 0
M  V30 2484 O 236.026 -1.56875 0.908834 0
M  V30 2485 C 236.074 0.773874 3.52198 0
M  V30 2486 O 235.178 -0.167842 4.12058 0
M  V30 2487 H 234.519 0.21723 0.627461 0
M  V30 2488 H 237.049 1.22725 1.63706 0
M  V30 2489 H 237.059 0.683386 4.02236 0
M  V30 2490 H 235.734 1.80261 3.74805 0
M  V30 2491 H 234.311 -0.0287509 3.72889 0
M  V30 2492 N 236.496 -1.42363 0.676048 0
M  V30 2493 C 237.406 -2.346 -0.00153389 0
M  V30 2494 C 238.422 -1.5516 -0.787485 0
M  V30 2495 O 239.598 -1.87723 -0.729521 0
M  V30 2496 C 236.663 -3.33705 -0.940298 0
M  V30 2497 C 235.724 -4.29042 -0.148739 0
M  V30 2498 C 234.957 -5.23413 -1.04279 0
M  V30 2499 O 235.18 -5.22749 -2.28232 0
M  V30 2500 O 234.114 -5.99795 -0.502925 0
M  V30 2501 H 237.94 -2.94082 0.758268 0
M  V30 2502 H 235.525 -1.42888 0.436289 0
M  V30 2503 H 237.407 -3.94586 -1.47917 0
M  V30 2504 H 236.082 -2.76695 -1.67993 0
M  V30 2505 H 234.989 -3.71571 0.43427 0
M  V30 2506 H 236.322 -4.89097 0.551805 0
M  V30 2507 N 237.974 -0.419461 -1.51915 0
M  V30 2508 C 239.202 0.152136 -2.0634 0
M  V30 2509 C 239.617 1.37988 -1.28859 0
M  V30 2510 O 238.974 1.79243 -0.343232 0
M  V30 2511 C 239.025 0.492266 -3.58133 0
M  V30 2512 O 238.746 -0.686736 -4.32684 0
M  V30 2513 C 240.247 1.11648 -4.2901 0
M  V30 2514 H 237.467 0.0158325 -0.670813 0
M  V30 2515 H 240.011 -0.593394 -1.95702 0
M  V30 2516 H 238.166 1.18769 -3.68745 0
M  V30 2517 H 238.58 -0.400341 -5.2297 0
M  V30 2518 H 240.054 1.3046 -5.36362 0
M  V30 2519 H 240.531 2.09251 -3.86148 0
M  V30 2520 H 241.137 0.460958 -4.22795 0
M  V30 2521 N 239.452 1.56882 -0.150215 0
M  V30 2522 C 240.701 1.95403 0.500071 0
M  V30 2523 C 241.014 1.03777 1.658 0
M  V30 2524 O 242.22 1.31889 2.37313 0
M  V30 2525 C 240.676 3.4738 0.941018 0
M  V30 2526 C 240.284 4.47596 -0.190158 0
M  V30 2527 C 242.028 3.9476 1.56091 0
M  V30 2528 C 239.935 5.90787 0.269237 0
M  V30 2529 H 238.865 0.729515 0.190588 0
M  V30 2530 H 241.516 1.81988 -0.235074 0
M  V30 2531 H 239.898 3.56138 1.73152 0
M  V30 2532 H 241.072 4.50536 -0.967157 0
M  V30 2533 H 239.387 4.10151 -0.718666 0
M  V30 2534 H 241.984 4.99181 1.9163 0
M  V30 2535 H 242.327 3.36494 2.45107 0
M  V30 2536 H 242.86 3.88932 0.835249 0
M  V30 2537 H 239.599 6.52879 -0.585621 0
M  V30 2538 H 239.119 5.912 1.01204 0
M  V30 2539 H 240.798 6.42979 0.720176 0
M  V30 2540 N 240.93 -0.123565 1.57115 0
M  V30 2541 C 242.158 -0.846461 1.88793 0
M  V30 2542 C 242.573 -1.73652 0.740976 0
M  V30 2543 O 241.93 -1.80207 -0.288393 0
M  V30 2544 C 241.981 -1.6837 3.19897 0
M  V30 2545 O 241.702 -0.829477 4.30176 0
M  V30 2546 C 243.203 -2.51214 3.65248 0
M  V30 2547 H 240.423 -0.243573 0.625231 0
M  V30 2548 H 242.967 -0.109324 2.04208 0
M  V30 2549 H 241.122 -2.37364 3.06165 0
M  V30 2550 H 241.536 -1.40651 5.0529 0
M  V30 2551 H 243.01 -3.05497 4.59756 0
M  V30 2552 H 243.487 -3.28359 2.9168 0
M  V30 2553 H 244.093 -1.8747 3.81752 0
M  V30 2554 N 242.408 -1.52605 -0.393616 0
M  V30 2555 C 243.318 -1.79971 -1.50492 0
M  V30 2556 C 244.334 -0.686181 -1.59899 0
M  V30 2557 O 245.51 -0.973274 -1.76322 0
M  V30 2558 C 242.575 -1.95867 -2.86072 0
M  V30 2559 C 241.636 -3.19781 -2.86424 0
M  V30 2560 C 240.869 -3.34909 -4.15538 0
M  V30 2561 O 241.092 -2.54948 -5.10253 0
M  V30 2562 O 240.026 -4.28141 -4.23059 0
M  V30 2563 H 243.852 -2.74328 -1.30299 0
M  V30 2564 H 241.437 -1.3764 -0.581005 0
M  V30 2565 H 243.319 -2.08056 -3.66457 0
M  V30 2566 H 241.994 -1.04699 -3.063 0
M  V30 2567 H 240.901 -3.13038 -2.04837 0
M  V30 2568 H 242.234 -4.1078 -2.71147 0
M  V30 2569 N 243.887 0.651787 -1.4349 0
M  V30 2570 C 244.797 1.79368 -1.5121 0
M  V30 2571 C 245.813 1.69361 -0.399093 0
M  V30 2572 O 246.989 1.90505 -0.653431 0
M  V30 2573 C 244.054 3.15653 -1.43401 0
M  V30 2574 C 243.115 3.37446 -2.65384 0
M  V30 2575 C 242.348 4.67229 -2.57939 0
M  V30 2576 O 242.571 5.46676 -1.62792 0
M  V30 2577 O 241.505 4.90773 -3.48462 0
M  V30 2578 H 245.331 1.7581 -2.47638 0
M  V30 2579 H 242.916 0.810447 -1.25507 0
M  V30 2580 H 244.798 3.96935 -1.41494 0
M  V30 2581 H 243.473 3.19798 -0.501085 0
M  V30 2582 H 242.38 2.55923 -2.72863 0
M  V30 2583 H 243.713 3.38148 -3.57654 0
M  V30 2584 N 245.365 1.30045 0.890287 0
M  V30 2585 C 246.275 1.17885 2.02831 0
M  V30 2586 C 247.291 0.0999609 1.73713 0
M  V30 2587 O 248.467 0.313867 1.98939 0
M  V30 2588 C 245.532 0.866079 3.35708 0
M  V30 2589 C 244.593 2.02979 3.78283 0
M  V30 2590 C 243.826 1.73184 5.0482 0
M  V30 2591 O 244.049 0.657237 5.66601 0
M  V30 2592 O 242.983 2.58267 5.43674 0
M  V30 2593 H 246.809 2.13474 2.16015 0
M  V30 2594 H 244.394 1.09587 1.01543 0
M  V30 2595 H 246.276 0.706623 4.15433 0
M  V30 2596 H 244.951 -0.0599443 3.23644 0
M  V30 2597 H 243.858 2.24454 2.99285 0
M  V30 2598 H 245.191 2.93734 3.94944 0
M  V30 2599 N 246.843 -1.10192 1.12674 0
M  V30 2600 C 247.773 -2.18652 0.819362 0
M  V30 2601 C 248.754 -1.68698 -0.217915 0
M  V30 2602 O 249.939 -1.94041 -0.0785581 0
M  V30 2603 C 247.069 -3.46202 0.27594 0
M  V30 2604 C 246.023 -4.09444 1.24656 0
M  V30 2605 C 245.349 -5.31725 0.563258 0
M  V30 2606 C 246.649 -4.52863 2.60217 0
M  V30 2607 H 248.343 -2.44622 1.72628 0
M  V30 2608 H 245.889 -1.17571 0.831451 0
M  V30 2609 H 247.842 -4.21372 0.0486149 0
M  V30 2610 H 246.566 -3.1973 -0.666331 0
M  V30 2611 H 245.225 -3.36284 1.45974 0
M  V30 2612 H 244.873 -5.0153 -0.384235 0
M  V30 2613 H 244.573 -5.74991 1.21075 0
M  V30 2614 H 246.097 -6.09624 0.34503 0
M  V30 2615 H 247.511 -5.19294 2.42913 0
M  V30 2616 H 245.908 -5.06986 3.21068 0
M  V30 2617 H 246.978 -3.65656 3.18471 0
M  V30 2618 N 248.321 -0.919034 -1.28029 0
M  V30 2619 C 249.567 -0.555757 -1.95036 0
M  V30 2620 C 249.9 0.899198 -1.72128 0
M  V30 2621 O 249.175 1.64023 -1.04531 0
M  V30 2622 C 249.458 -0.872024 -3.49382 0
M  V30 2623 C 249.311 -2.3801 -3.81669 0
M  V30 2624 C 250.63 -0.37185 -4.38526 0
M  V30 2625 H 247.749 -0.203386 -0.708381 0
M  V30 2626 H 250.391 -1.14924 -1.51303 0
M  V30 2627 H 248.541 -0.366946 -3.86763 0
M  V30 2628 H 250.213 -2.9562 -3.54128 0
M  V30 2629 H 248.456 -2.83289 -3.28526 0
M  V30 2630 H 249.127 -2.55192 -4.8947 0
M  V30 2631 H 251.603 -0.804602 -4.08247 0
M  V30 2632 H 250.479 -0.622173 -5.45362 0
M  V30 2633 H 250.74 0.727934 -4.36066 0
M  V30 2634 N 249.799 1.42003 -0.683588 0
M  V30 2635 C 251.047 2.01015 -0.209101 0
M  V30 2636 C 251.368 1.54365 1.19149 0
M  V30 2637 O 250.638 0.769083 1.80172 0
M  V30 2638 H 249.218 0.743294 -0.074315 0
M  V30 2639 H 251.88 1.73798 -0.882066 0
M  V30 2640 H 250.976 3.11343 -0.2172 0
M  V30 2641 N 251.277 0.427512 1.51691 0
M  V30 2642 C 252.207 -0.3796 2.30394 0
M  V30 2643 C 253.188 -1.02982 1.35384 0
M  V30 2644 O 254.373 -1.03534 1.643 0
M  V30 2645 C 251.503 -1.48649 3.1388 0
M  V30 2646 C 250.457 -0.960294 4.17088 0
M  V30 2647 C 249.783 -2.16219 4.89033 0
M  V30 2648 C 251.083 -0.00153679 5.223 0
M  V30 2649 H 252.777 0.277164 2.98114 0
M  V30 2650 H 250.323 0.134739 1.43368 0
M  V30 2651 H 252.276 -2.05826 3.67714 0
M  V30 2652 H 251 -2.1714 2.43962 0
M  V30 2653 H 249.659 -0.410806 3.64291 0
M  V30 2654 H 249.307 -2.83307 4.15628 0
M  V30 2655 H 249.007 -1.81654 5.58816 0
M  V30 2656 H 250.531 -2.73968 5.45687 0
M  V30 2657 H 251.945 -0.482687 5.71264 0
M  V30 2658 H 250.342 0.256199 5.99553 0
M  V30 2659 H 251.412 0.938174 4.75738 0
M  V30 2660 N 252.755 -1.56801 0.158532 0
M  V30 2661 C 253.688 -2.13148 -0.815065 0
M  V30 2662 C 254.666 -1.0581 -1.23462 0
M  V30 2663 O 255.85 -1.3371 -1.32868 0
M  V30 2664 C 252.977 -2.6606 -2.09594 0
M  V30 2665 C 252.023 -3.85651 -1.82141 0
M  V30 2666 S 252.856 -5.26041 -1.00207 0
M  V30 2667 C 254.012 -5.8235 -2.29389 0
M  V30 2668 H 254.245 -2.95396 -0.335937 0
M  V30 2669 H 251.778 -1.54299 -0.0559391 0
M  V30 2670 H 253.736 -2.97195 -2.8317 0
M  V30 2671 H 252.397 -1.83921 -2.54621 0
M  V30 2672 H 251.59 -4.20958 -2.77147 0
M  V30 2673 H 251.192 -3.55338 -1.16667 0
M  V30 2674 H 253.484 -5.94485 -3.24952 0
M  V30 2675 H 254.427 -6.79688 -1.9857 0
M  V30 2676 H 254.835 -5.10675 -2.40564 0
M  V30 2677 N 254.233 0.115231 -1.57178 0
M  V30 2678 C 255.181 1.16014 -2.01602 0
M  V30 2679 C 256.175 1.42653 -0.913587 0
M  V30 2680 O 257.381 1.42571 -1.09879 0
M  V30 2681 H 253.756 0.391252 -0.642204 0
M  V30 2682 H 255.727 0.758998 -2.88586 0
M  V30 2683 C 254.476 2.47767 -2.4394 0
M  V30 2684 H 253.799 2.28108 -3.28339 0
M  V30 2685 H 255.239 3.19432 -2.78818 0
M  V30 2686 C 253.698 3.10617 -1.30455 0
M  V30 2687 O 254.228 3.96846 -0.622585 0
M  V30 2688 N 252.434 2.70553 -1.06064 0
M  V30 2689 H 251.981 2.00527 -1.61699 0
M  V30 2690 H 251.939 3.12934 -0.303284 0
M  V30 2691 N 255.711 1.52812 0.385517 0
M  V30 2692 C 256.658 1.77838 1.47113 0
M  V30 2693 C 257.628 0.621757 1.54024 0
M  V30 2694 O 258.813 0.861846 1.70226 0
M  V30 2695 C 255.953 1.95618 2.84302 0
M  V30 2696 C 255.066 3.23316 2.86515 0
M  V30 2697 C 254.201 3.31394 4.15152 0
M  V30 2698 C 253.24 4.53201 4.1143 0
M  V30 2699 N 252.377 4.58542 5.3168 0
M  V30 2700 H 257.217 2.70482 1.25073 0
M  V30 2701 H 254.754 1.34006 0.606692 0
M  V30 2702 H 256.712 2.03912 3.63972 0
M  V30 2703 H 255.342 1.06331 3.04784 0
M  V30 2704 H 254.394 3.24076 1.99195 0
M  V30 2705 H 255.706 4.13045 2.79634 0
M  V30 2706 H 254.86 3.3889 5.03228 0
M  V30 2707 H 253.599 2.39645 4.24761 0
M  V30 2708 H 252.604 4.45827 3.21742 0
M  V30 2709 H 253.829 5.46271 4.03442 0
M  V30 2710 H 251.775 3.69686 5.41912 0
M  V30 2711 H 251.692 5.42148 5.26889 0
M  V30 2712 H 252.96 4.70296 6.21644 0
M  V30 2713 N 257.189 -0.644168 1.43834 0
M  V30 2714 C 258.436 -1.40395 1.4593 0
M  V30 2715 C 258.764 -1.94305 0.0869658 0
M  V30 2716 O 258.019 -1.73288 -0.909378 0
M  V30 2717 C 258.318 -2.59615 2.45631 0
M  V30 2718 C 257.984 -2.2407 3.91284 0
M  V30 2719 C 256.646 -2.14089 4.30952 0
M  V30 2720 C 258.998 -1.95775 4.83034 0
M  V30 2721 C 256.326 -1.73981 5.6031 0
M  V30 2722 C 258.678 -1.57163 6.12766 0
M  V30 2723 C 257.342 -1.45713 6.51402 0
M  V30 2724 H 256.612 -0.513741 0.533995 0
M  V30 2725 H 259.259 -0.731724 1.76969 0
M  V30 2726 H 257.564 -3.32011 2.08028 0
M  V30 2727 H 259.261 -3.17834 2.44504 0
M  V30 2728 H 255.851 -2.32753 3.59895 0
M  V30 2729 H 260.035 -2.02403 4.53152 0
M  V30 2730 H 255.291 -1.63709 5.89075 0
M  V30 2731 H 259.465 -1.34303 6.83327 0
M  V30 2732 H 257.092 -1.14406 7.51542 0
M  V30 2733 N 258.668 -1.30515 -0.883378 0
M  V30 2734 C 259.914 -1.19607 -1.63774 0
M  V30 2735 C 260.247 0.248314 -1.92606 0
M  V30 2736 O 259.522 1.17742 -1.54813 0
M  V30 2737 C 259.805 -2.02669 -2.97653 0
M  V30 2738 C 259.658 -3.55335 -2.75784 0
M  V30 2739 C 260.977 -1.86573 -3.98596 0
M  V30 2740 H 258.096 -0.435856 -0.594305 0
M  V30 2741 H 260.738 -1.60165 -1.02212 0
M  V30 2742 H 258.888 -1.68208 -3.50197 0
M  V30 2743 H 260.56 -3.99863 -2.30016 0
M  V30 2744 H 258.803 -3.79438 -2.1026 0
M  V30 2745 H 259.474 -4.08745 -3.70988 0
M  V30 2746 H 261.95 -2.16703 -3.55217 0
M  V30 2747 H 260.826 -2.47014 -4.90179 0
M  V30 2748 H 261.087 -0.825321 -4.34328 0
M  V30 2749 N 260.146 1.09593 -1.13257 0
M  V30 2750 C 261.056 2.19739 -0.821691 0
M  V30 2751 C 262.072 1.72926 0.19302 0
M  V30 2752 O 263.248 2.01385 0.0244895 0
M  V30 2753 C 260.313 3.45482 -0.290333 0
M  V30 2754 C 259.374 4.06985 -1.36607 0
M  V30 2755 C 258.607 5.26726 -0.859975 0
M  V30 2756 O 258.83 5.69594 0.303082 0
M  V30 2757 O 257.764 5.7931 -1.63351 0
M  V30 2758 H 261.59 2.48781 -1.74189 0
M  V30 2759 H 259.175 1.18496 -0.909894 0
M  V30 2760 H 261.057 4.214 0.000674022 0
M  V30 2761 H 259.732 3.18047 0.602306 0
M  V30 2762 H 258.639 3.32712 -1.71037 0
M  V30 2763 H 259.972 4.38643 -2.23279 0
M  V30 2764 N 261.624 0.925811 1.2754 0
M  V30 2765 C 262.901 0.483726 1.89524 0
M  V30 2766 C 263.281 -1.03809 1.83812 0
M  V30 2767 O 262.629 -1.89143 1.28207 0
M  V30 2768 C 262.839 1.02769 3.33526 0
M  V30 2769 C 264.187 1.08703 4.10449 0
M  V30 2770 O 265.211 0.977175 3.42534 0
M  V30 2771 O 264.07 1.25599 5.31871 0
M  V30 2772 H 261.164 0.15529 0.812289 0
M  V30 2773 H 263.71 1.01738 1.35822 0
M  V30 2774 H 262.482 2.07155 3.31967 0
M  V30 2775 H 262.105 0.475567 3.94746 0
M  V30 2776 N 263.102 -1.41638 0.69111 0
M  V30 2777 C 264.33 -2.05628 0.22909 0
M  V30 2778 C 264.745 -1.51992 -1.11999 0
M  V30 2779 O 264.102 -0.666322 -1.69901 0
M  V30 2780 C 264.153 -3.61084 0.173283 0
M  V30 2781 O 263.874 -4.12735 1.46907 0
M  V30 2782 C 265.375 -4.42213 -0.310266 0
M  V30 2783 H 262.595 -0.662327 0.107534 0
M  V30 2784 H 265.139 -1.81489 0.942438 0
M  V30 2785 H 263.294 -3.84278 -0.490858 0
M  V30 2786 H 263.708 -5.06743 1.35322 0
M  V30 2787 H 265.182 -5.51194 -0.298196 0
M  V30 2788 H 265.659 -4.1799 -1.34838 0
M  V30 2789 H 266.265 -4.24074 0.322716 0
M  V30 2790 N 264.58 -0.43555 -1.51462 0
M  V30 2791 C 265.527 0.376797 -2.27703 0
M  V30 2792 C 266.497 1.01838 -1.31219 0
M  V30 2793 O 267.682 1.03762 -1.60119 0
M  V30 2794 C 264.822 1.47301 -3.12084 0
M  V30 2795 C 263.935 0.849744 -4.2356 0
M  V30 2796 C 263.07 1.92086 -4.95254 0
M  V30 2797 C 262.109 1.27593 -5.98654 0
M  V30 2798 N 261.246 2.28833 -6.63762 0
M  V30 2799 H 266.086 -0.279734 -2.96684 0
M  V30 2800 H 263.623 -0.149795 -1.46335 0
M  V30 2801 H 265.581 2.11984 -3.59331 0
M  V30 2802 H 264.211 2.0992 -2.45221 0
M  V30 2803 H 263.263 0.0912529 -3.80291 0
M  V30 2804 H 264.575 0.338878 -4.97648 0
M  V30 2805 H 263.729 2.64435 -5.46039 0
M  V30 2806 H 262.468 2.46545 -4.20793 0
M  V30 2807 H 261.473 0.537893 -5.47162 0
M  V30 2808 H 262.698 0.738693 -6.7507 0
M  V30 2809 H 260.644 2.82375 -5.92115 0
M  V30 2810 H 260.561 1.82632 -7.33608 0
M  V30 2811 H 261.829 3.00671 -7.19178 0
M  V30 2812 N 266.058 1.56714 -0.166846 0
M  V30 2813 C 267.005 2.17746 0.765193 0
M  V30 2814 C 267.975 1.11614 1.23011 0
M  V30 2815 O 269.16 1.39745 1.29908 0
M  V30 2816 C 266.3 2.81882 1.9909 0
M  V30 2817 C 265.413 4.02462 1.56997 0
M  V30 2818 C 264.548 4.54537 2.749 0
M  V30 2819 C 263.587 5.67538 2.29275 0
M  V30 2820 N 262.724 6.14142 3.40255 0
M  V30 2821 H 267.564 2.97048 0.237952 0
M  V30 2822 H 265.101 1.4672 0.105725 0
M  V30 2823 H 267.059 3.17221 2.70974 0
M  V30 2824 H 265.689 2.05191 2.49192 0
M  V30 2825 H 264.741 3.72973 0.748037 0
M  V30 2826 H 266.053 4.84273 1.19503 0
M  V30 2827 H 265.207 4.92035 3.54946 0
M  V30 2828 H 263.946 3.71774 3.1565 0
M  V30 2829 H 262.951 5.29597 1.47674 0
M  V30 2830 H 264.176 6.52099 1.89588 0
M  V30 2831 H 262.122 5.3431 3.8059 0
M  V30 2832 H 262.039 6.9093 3.06841 0
M  V30 2833 H 263.307 6.56289 4.206 0
M  V30 2834 N 267.536 -0.106894 1.57237 0
M  V30 2835 C 268.784 -0.810921 1.85117 0
M  V30 2836 C 269.105 -1.7984 0.753827 0
M  V30 2837 O 268.375 -1.94649 -0.221056 0
M  V30 2838 H 266.955 -0.302466 0.683025 0
M  V30 2839 H 269.617 -0.0913324 1.94686 0
M  V30 2840 H 268.713 -1.34875 2.81452 0
M  V30 2841 N 269.014 -1.53014 -0.377408 0
M  V30 2842 C 270.26 -1.68872 -1.12294 0
M  V30 2843 C 270.593 -0.433224 -1.89306 0
M  V30 2844 O 269.868 0.569258 -1.85983 0
M  V30 2845 C 270.151 -2.93115 -2.09179 0
M  V30 2846 C 270.004 -4.28794 -1.35853 0
M  V30 2847 C 271.323 -3.12928 -3.09458 0
M  V30 2848 H 268.442 -0.614518 -0.406862 0
M  V30 2849 H 271.084 -1.85633 -0.40503 0
M  V30 2850 H 269.234 -2.78956 -2.70399 0
M  V30 2851 H 270.906 -4.54742 -0.775082 0
M  V30 2852 H 269.149 -4.28744 -0.660364 0
M  V30 2853 H 269.82 -5.11837 -2.06706 0
M  V30 2854 H 272.296 -3.26194 -2.58334 0
M  V30 2855 H 271.172 -4.01316 -3.74482 0
M  V30 2856 H 271.433 -2.27669 -3.78971 0
M  V30 2857 N 270.492 0.636531 -1.44174 0
M  V30 2858 C 271.442 1.74233 -1.47061 0
M  V30 2859 C 272.426 1.57331 -0.337034 0
M  V30 2860 O 273.618 1.67159 -0.581973 0
M  V30 2861 C 270.747 3.12897 -1.41246 0
M  V30 2862 C 269.833 3.35288 -2.59698 0
M  V30 2863 N 270.224 3.2807 -3.84972 0
M  V30 2864 C 268.522 3.66065 -2.54778 0
M  V30 2865 C 269.223 3.51001 -4.63867 0
M  V30 2866 N 268.199 3.73616 -3.94857 0
M  V30 2867 H 272.001 1.67103 -2.41773 0
M  V30 2868 H 269.515 0.838806 -1.3906 0
M  V30 2869 H 271.512 3.92189 -1.41398 0
M  V30 2870 H 270.172 3.21197 -0.47569 0
M  V30 2871 H 271.183 3.07109 -4.17019 0
M  V30 2872 H 267.86 3.81379 -1.6987 0
M  V30 2873 H 269.25 3.51059 -5.72894 0
M  V30 2874 N 271.97 1.30982 0.876444 0
M  V30 2875 C 272.902 1.13902 1.98894 0
M  V30 2876 C 273.915 0.0798815 1.62604 0
M  V30 2877 O 275.104 0.326743 1.75484 0
M  V30 2878 C 272.204 0.716699 3.31235 0
M  V30 2879 C 271.377 1.85945 3.95908 0
M  V30 2880 C 270.436 1.42426 5.06558 0
M  V30 2881 O 269.462 2.13287 5.27729 0
M  V30 2882 N 270.664 0.308025 5.79682 0
M  V30 2883 H 273.429 2.09724 2.14094 0
M  V30 2884 H 270.99 1.2323 1.05004 0
M  V30 2885 H 272.982 0.408403 4.02634 0
M  V30 2886 H 271.552 -0.149719 3.12241 0
M  V30 2887 H 270.772 2.33541 3.17573 0
M  V30 2888 H 272.06 2.62503 4.35855 0
M  V30 2889 H 271.458 -0.282241 5.64995 0
M  V30 2890 H 270.015 0.0592282 6.51773 0
M  V30 2891 N 273.449 -1.08991 1.13837 0
M  V30 2892 C 274.396 -2.15748 0.819835 0
M  V30 2893 C 275.366 -1.64636 -0.220026 0
M  V30 2894 O 276.551 -1.90582 -0.0912757 0
M  V30 2895 C 273.691 -3.4382 0.296913 0
M  V30 2896 C 272.804 -4.0881 1.39636 0
M  V30 2897 C 271.939 -5.24655 0.831314 0
M  V30 2898 C 270.978 -5.81575 1.90886 0
M  V30 2899 N 270.115 -6.88774 1.36142 0
M  V30 2900 H 274.955 -2.42338 1.73426 0
M  V30 2901 H 272.492 -1.18935 0.865613 0
M  V30 2902 H 274.45 -4.17193 -0.0244339 0
M  V30 2903 H 273.08 -3.17535 -0.580628 0
M  V30 2904 H 272.132 -3.33258 1.83422 0
M  V30 2905 H 273.444 -4.47141 2.21058 0
M  V30 2906 H 272.598 -6.04942 0.461515 0
M  V30 2907 H 271.337 -4.87698 -0.013932 0
M  V30 2908 H 270.342 -4.99946 2.28767 0
M  V30 2909 H 271.567 -6.20592 2.75758 0
M  V30 2910 H 269.513 -6.53788 0.538254 0
M  V30 2911 H 269.43 -7.25898 2.11208 0
M  V30 2912 H 270.698 -7.72806 1.01933 0
M  V30 2913 N 274.927 -0.932562 -1.27047 0
M  V30 2914 C 275.837 -0.441219 -2.30414 0
M  V30 2915 C 276.853 0.480525 -1.67233 0
M  V30 2916 O 278.029 0.362151 -1.98117 0
M  V30 2917 C 275.094 0.293651 -3.45454 0
M  V30 2918 C 274.155 -0.663601 -4.2414 0
M  V30 2919 C 273.388 0.0362932 -5.33688 0
M  V30 2920 O 273.611 1.2548 -5.56427 0
M  V30 2921 O 272.545 -0.638015 -5.98509 0
M  V30 2922 H 276.371 -1.29962 -2.74488 0
M  V30 2923 H 273.956 -0.6981 -1.32087 0
M  V30 2924 H 275.838 0.707951 -4.15411 0
M  V30 2925 H 274.513 1.12758 -3.03426 0
M  V30 2926 H 273.42 -1.12768 -3.56699 0
M  V30 2927 H 274.753 -1.46489 -4.69896 0
M  V30 2928 N 276.405 1.4127 -0.698611 0
M  V30 2929 C 277.653 2.00782 -0.230409 0
M  V30 2930 C 277.974 1.5562 1.17505 0
M  V30 2931 O 277.244 0.78815 1.79346 0
M  V30 2932 H 275.824 0.742464 -0.0821944 0
M  V30 2933 H 278.486 1.72852 -0.90045 0
M  V30 2934 H 277.582 3.11095 -0.25021 0
M  V30 2935 N 277.883 0.443576 1.51229 0
M  V30 2936 C 279.129 -0.11321 2.03085 0
M  V30 2937 C 279.484 -1.39841 1.32145 0
M  V30 2938 O 278.777 -1.86723 0.429542 0
M  V30 2939 C 278.971 -0.380579 3.55368 0
M  V30 2940 C 278.8 0.877157 4.41062 0
M  V30 2941 C 277.57 1.4125 4.85156 0
M  V30 2942 C 279.768 1.76503 4.83064 0
M  V30 2943 N 277.75 2.62213 5.55083 0
M  V30 2944 C 279.121 2.82067 5.52122 0
M  V30 2945 C 281.176 1.7787 4.65045 0
M  V30 2946 C 279.879 3.88952 6.05069 0
M  V30 2947 C 281.905 2.83694 5.18914 0
M  V30 2948 C 281.267 3.87978 5.87922 0
M  V30 2949 H 277.366 -0.00210178 0.781997 0
M  V30 2950 H 279.95 0.605641 1.85041 0
M  V30 2951 H 278.121 -1.06847 3.73414 0
M  V30 2952 H 279.853 -0.929274 3.93887 0
M  V30 2953 H 276.608 0.965542 4.63653 0
M  V30 2954 H 277.032 3.23568 5.9467 0
M  V30 2955 H 281.674 0.985744 4.11148 0
M  V30 2956 H 279.392 4.69082 6.58018 0
M  V30 2957 H 282.978 2.85702 5.06819 0
M  V30 2958 H 281.858 4.68517 6.28857 0
M  V30 2959 N 279.361 -1.56624 0.175154 0
M  V30 2960 C 280.772 -1.83561 -0.340916 0
M  V30 2961 C 281.123 -1.09511 -1.62794 0
M  V30 2962 O 280.248 -0.349389 -2.13561 0
M  V30 2963 C 280.843 -3.32979 -0.625313 0
M  V30 2964 C 279.402 -3.60399 -1.08581 0
M  V30 2965 C 278.549 -2.77024 -0.123722 0
M  V30 2966 H 281.5 -1.53593 0.399344 0
M  V30 2967 H 281.521 -3.50666 -1.47694 0
M  V30 2968 H 281.033 -3.86847 0.311575 0
M  V30 2969 H 279.134 -3.11945 -2.03767 0
M  V30 2970 H 279.247 -4.68711 -0.992317 0
M  V30 2971 H 277.611 -2.46993 -0.621821 0
M  V30 2972 H 278.394 -3.33674 0.807256 0
M  V30 2973 N 280.839 0.0985539 -1.57292 0
M  V30 2974 C 282.064 0.820196 -1.90493 0
M  V30 2975 C 282.489 1.71658 -0.769094 0
M  V30 2976 O 281.847 1.79133 0.279495 0
M  V30 2977 C 281.895 1.61242 -3.22542 0
M  V30 2978 O 280.999 2.72108 -3.09888 0
M  V30 2979 H 280.34 0.225547 -0.62452 0
M  V30 2980 H 282.87 0.0748159 -2.04463 0
M  V30 2981 H 282.88 1.99737 -3.55766 0
M  V30 2982 H 281.555 0.954535 -4.04798 0
M  V30 2983 H 280.132 2.36667 -2.88172 0
M  V30 2984 N 282.317 1.53212 0.369288 0
M  V30 2985 C 283.542 1.73423 1.1375 0
M  V30 2986 C 283.967 0.460404 1.82378 0
M  V30 2987 O 283.325 -0.585298 1.71592 0
M  V30 2988 C 283.373 2.89769 2.1463 0
M  V30 2989 O 282.477 2.58119 3.21634 0
M  V30 2990 H 281.818 0.576061 0.330227 0
M  V30 2991 H 284.348 2.00083 0.427547 0
M  V30 2992 H 284.358 3.15829 2.58294 0
M  V30 2993 H 283.033 3.8217 1.64071 0
M  V30 2994 H 281.61 2.42864 2.82969 0
M  V30 2995 N 283.795 -0.628877 1.44509 0
M  V30 2996 C 284.758 -1.72263 1.51188 0
M  V30 2997 C 285.758 -1.55907 0.39367 0
M  V30 2998 O 286.948 -1.61361 0.656377 0
M  V30 2999 C 284.08 -3.11365 1.38798 0
M  V30 3000 H 285.273 -1.67714 2.4862 0
M  V30 3001 H 282.826 -0.842737 1.31634 0
M  V30 3002 H 283.561 -3.21507 0.424693 0
M  V30 3003 H 283.346 -3.24644 2.19884 0
M  V30 3004 H 284.836 -3.91075 1.46458 0
M  V30 3005 N 285.273 -1.31445 -0.869486 0
M  V30 3006 C 286.503 -1.23942 -1.65294 0
M  V30 3007 C 286.911 0.197561 -1.88166 0
M  V30 3008 O 286.254 1.14019 -1.44033 0
M  V30 3009 C 286.316 -1.91385 -3.04322 0
M  V30 3010 C 285.98 -3.40726 -3.04557 0
M  V30 3011 C 286.977 -4.36464 -2.82481 0
M  V30 3012 C 284.662 -3.82425 -3.25663 0
M  V30 3013 C 286.656 -5.71876 -2.8149 0
M  V30 3014 C 284.343 -5.1795 -3.243 0
M  V30 3015 C 285.341 -6.12486 -3.02241 0
M  V30 3016 O 285.029 -7.45534 -3.00724 0
M  V30 3017 H 284.761 -0.429459 -0.522054 0
M  V30 3018 H 287.315 -1.73873 -1.0935 0
M  V30 3019 H 285.545 -1.36004 -3.61994 0
M  V30 3020 H 287.234 -1.77791 -3.64891 0
M  V30 3021 H 288 -4.05576 -2.65956 0
M  V30 3022 H 283.879 -3.09274 -3.41863 0
M  V30 3023 H 287.423 -6.45638 -2.64191 0
M  V30 3024 H 283.32 -5.48473 -3.40365 0
M  V30 3025 H 284.088 -7.54713 -3.16782 0
M  V30 3026 N 286.751 1.08385 -1.14413 0
M  V30 3027 C 287.999 1.80419 -0.910679 0
M  V30 3028 C 288.32 1.86658 0.564243 0
M  V30 3029 O 287.59 1.35985 1.41014 0
M  V30 3030 H 286.17 0.668204 -0.333934 0
M  V30 3031 H 288.832 1.31037 -1.44275 0
M  V30 3032 H 287.928 2.83238 -1.31082 0
M  V30 3033 N 288.23 0.939286 1.26551 0
M  V30 3034 C 289.476 0.586715 1.94128 0
M  V30 3035 C 289.809 -0.8717 1.73537 0
M  V30 3036 O 289.084 -1.62339 1.07127 0
M  V30 3037 C 289.367 0.927497 3.4795 0
M  V30 3038 C 289.22 2.44052 3.77834 0
M  V30 3039 C 290.539 0.441569 4.37879 0
M  V30 3040 H 287.658 0.21463 0.705055 0
M  V30 3041 H 290.3 1.17316 1.49455 0
M  V30 3042 H 288.45 0.428431 3.8613 0
M  V30 3043 H 290.122 3.01216 3.4938 0
M  V30 3044 H 288.365 2.8848 3.23978 0
M  V30 3045 H 289.036 2.62947 4.85348 0
M  V30 3046 H 291.512 0.869448 4.06915 0
M  V30 3047 H 290.388 0.708856 5.44304 0
M  V30 3048 H 290.649 -0.658467 4.37169 0
M  V30 3049 N 289.708 -1.40897 0.706093 0
M  V30 3050 C 290.936 -2.05373 0.250887 0
M  V30 3051 C 291.351 -1.53172 -1.10381 0
M  V30 3052 O 290.708 -0.684305 -1.69185 0
M  V30 3053 C 290.759 -3.6088 0.211571 0
M  V30 3054 O 290.48 -4.11153 1.51276 0
M  V30 3055 C 291.981 -4.42517 -0.263346 0
M  V30 3056 H 289.201 -0.66115 0.114552 0
M  V30 3057 H 291.745 -1.80479 0.961635 0
M  V30 3058 H 289.9 -3.84777 -0.450073 0
M  V30 3059 H 290.314 -5.05279 1.40689 0
M  V30 3060 H 291.788 -5.51479 -0.239718 0
M  V30 3061 H 292.265 -4.19396 -1.30397 0
M  V30 3062 H 292.871 -4.23708 0.367677 0
M  V30 3063 N 291.186 -0.45159 -1.50991 0
M  V30 3064 C 292.133 0.352625 -2.2809 0
M  V30 3065 C 293.103 1.0044 -1.32291 0
M  V30 3066 O 294.288 1.02058 -1.6121 0
M  V30 3067 C 291.428 1.43983 -3.13629 0
M  V30 3068 C 290.541 0.804772 -4.24438 0
M  V30 3069 C 289.676 1.86822 -4.97263 0
M  V30 3070 C 288.715 1.21236 -5.99973 0
M  V30 3071 N 287.852 2.2178 -6.66152 0
M  V30 3072 H 292.692 -0.311186 -2.96371 0
M  V30 3073 H 290.229 -0.165308 -1.46168 0
M  V30 3074 H 292.187 2.08161 -3.61559 0
M  V30 3075 H 290.817 2.07307 -2.47434 0
M  V30 3076 H 289.869 0.0509129 -3.80366 0
M  V30 3077 H 291.181 0.286076 -4.97979 0
M  V30 3078 H 290.335 2.58628 -5.48813 0
M  V30 3079 H 289.074 2.42068 -4.23385 0
M  V30 3080 H 288.079 0.479828 -5.47702 0
M  V30 3081 H 289.304 0.667051 -6.75816 0
M  V30 3082 H 287.25 2.76079 -5.95077 0
M  V30 3083 H 287.167 1.74841 -7.35504 0
M  V30 3084 H 288.435 2.93026 -7.22327 0
M  V30 3085 N 292.664 1.56529 -0.183458 0
M  V30 3086 C 293.913 1.96419 0.458511 0
M  V30 3087 C 294.226 1.0727 1.63562 0
M  V30 3088 O 295.432 1.36893 2.34462 0
M  V30 3089 C 293.888 3.49298 0.867122 0
M  V30 3090 C 293.496 4.47092 -0.285057 0
M  V30 3091 C 295.24 3.97983 1.47683 0
M  V30 3092 C 293.147 5.91225 0.143862 0
M  V30 3093 H 292.077 0.733394 0.175071 0
M  V30 3094 H 294.728 1.81448 -0.273624 0
M  V30 3095 H 293.11 3.59731 1.65559 0
M  V30 3096 H 294.284 4.48383 -1.0625 0
M  V30 3097 H 292.599 4.08535 -0.805503 0
M  V30 3098 H 295.196 5.03134 1.80999 0
M  V30 3099 H 295.539 3.41618 2.37914 0
M  V30 3100 H 296.072 3.90617 0.752562 0
M  V30 3101 H 292.811 6.5149 -0.723974 0
M  V30 3102 H 292.331 5.93214 0.886413 0
M  V30 3103 H 294.01 6.44362 0.583628 0
M  V30 3104 N 294.142 -0.090211 1.57342 0
M  V30 3105 C 295.39 -0.791241 1.85967 0
M  V30 3106 C 295.711 -1.7903 0.772859 0
M  V30 3107 O 294.981 -1.94872 -0.200398 0
M  V30 3108 H 293.561 -0.295205 0.686195 0
M  V30 3109 H 296.223 -0.0706782 1.94772 0
M  V30 3110 H 295.319 -1.31882 2.82867 0
M  V30 3111 N 295.62 -1.53406 -0.361157 0
M  V30 3112 C 296.866 -1.70054 -1.10496 0
M  V30 3113 C 297.199 -0.453278 -1.88836 0
M  V30 3114 O 296.474 0.5495 -1.86576 0
M  V30 3115 C 296.757 -2.95317 -2.06058 0
M  V30 3116 C 296.61 -4.3021 -1.31298 0
M  V30 3117 C 297.929 -3.16193 -3.06121 0
M  V30 3118 H 295.048 -0.618799 -0.400321 0
M  V30 3119 H 297.69 -1.86052 -0.385318 0
M  V30 3120 H 295.84 -2.81809 -2.67425 0
M  V30 3121 H 297.512 -4.55538 -0.726807 0
M  V30 3122 H 295.755 -4.29421 -0.614853 0
M  V30 3123 H 296.426 -5.14 -2.01265 0
M  V30 3124 H 298.902 -3.28916 -2.5486 0
M  V30 3125 H 297.778 -4.05266 -3.70204 0
M  V30 3126 H 298.039 -2.31676 -3.76535 0
M  V30 3127 N 297.098 0.621204 -1.44841 0
M  V30 3128 C 298.326 1.40752 -1.51646 0
M  V30 3129 C 298.741 1.88246 -0.144549 0
M  V30 3130 O 298.098 1.61422 0.851416 0
M  V30 3131 C 298.149 2.62119 -2.4895 0
M  V30 3132 O 297.87 2.16602 -3.80808 0
M  V30 3133 C 299.371 3.55135 -2.65319 0
M  V30 3134 H 296.591 0.431325 -0.514004 0
M  V30 3135 H 299.135 0.758835 -1.899 0
M  V30 3136 H 297.29 3.23058 -2.13805 0
M  V30 3137 H 297.704 2.95358 -4.33433 0
M  V30 3138 H 299.178 4.36874 -3.37409 0
M  V30 3139 H 299.655 4.04592 -1.70886 0
M  V30 3140 H 300.261 3.00058 -3.01405 0
M  V30 3141 N 298.576 1.31904 0.862503 0
M  V30 3142 C 299.822 1.22197 1.61851 0
M  V30 3143 C 300.155 -0.217641 1.92977 0
M  V30 3144 O 299.43 -1.15264 1.56666 0
M  V30 3145 C 299.713 2.07378 2.94391 0
M  V30 3146 C 299.566 3.59678 2.70096 0
M  V30 3147 C 300.885 1.92891 3.95577 0
M  V30 3148 H 298.004 0.445255 0.587296 0
M  V30 3149 H 300.646 1.6177 0.99651 0
M  V30 3150 H 298.796 1.73758 3.47477 0
M  V30 3151 H 300.468 4.03472 2.23625 0
M  V30 3152 H 298.711 3.82735 2.04197 0
M  V30 3153 H 299.382 4.14595 3.64438 0
M  V30 3154 H 301.858 2.22327 3.51724 0
M  V30 3155 H 300.734 2.54781 4.86187 0
M  V30 3156 H 300.995 0.894315 4.3296 0
M  V30 3157 N 300.054 -1.07777 1.14986 0
M  V30 3158 C 300.984 -2.16865 0.865557 0
M  V30 3159 C 301.965 -1.69123 -0.182083 0
M  V30 3160 O 303.15 -1.94164 -0.0373815 0
M  V30 3161 C 300.28 -3.45539 0.349313 0
M  V30 3162 C 299.234 -4.06708 1.33313 0
M  V30 3163 C 298.56 -5.30411 0.675918 0
M  V30 3164 C 299.86 -4.47241 2.69764 0
M  V30 3165 H 301.554 -2.40905 1.77778 0
M  V30 3166 H 299.1 -1.15781 0.856203 0
M  V30 3167 H 301.053 -4.21174 0.137983 0
M  V30 3168 H 299.777 -3.21072 -0.598362 0
M  V30 3169 H 298.436 -3.33112 1.53075 0
M  V30 3170 H 298.084 -5.02232 -0.277767 0
M  V30 3171 H 297.784 -5.72293 1.33244 0
M  V30 3172 H 299.308 -6.08755 0.474262 0
M  V30 3173 H 300.722 -5.14025 2.53873 0
M  V30 3174 H 299.119 -5.00062 3.3175 0
M  V30 3175 H 300.189 -3.58818 3.26156 0
M  V30 3176 N 301.532 -0.945985 -1.26051 0
M  V30 3177 C 302.757 -0.612525 -1.98149 0
M  V30 3178 C 303.182 0.806623 -1.69927 0
M  V30 3179 O 302.54 1.54411 -0.950108 0
M  V30 3180 C 302.588 -0.866981 -3.50023 0
M  V30 3181 O 301.692 0.0585333 -4.12358 0
M  V30 3182 H 301.033 -0.23379 -0.621481 0
M  V30 3183 H 303.563 -1.27023 -1.60395 0
M  V30 3184 H 303.573 -0.789792 -4.00283 0
M  V30 3185 H 302.248 -1.90135 -3.69894 0
M  V30 3186 H 300.825 -0.0701241 -3.72834 0
M  V30 3187 N 303.011 1.40521 -0.713556 0
M  V30 3188 C 304.427 1.54839 -0.386907 0
M  V30 3189 C 304.627 1.68532 1.1045 0
M  V30 3190 O 303.683 1.67377 1.89053 0
M  V30 3191 C 304.996 2.77792 -1.15118 0
M  V30 3192 C 306.544 2.91607 -1.13729 0
M  V30 3193 C 307.019 4.1747 -1.88368 0
M  V30 3194 N 308.51 4.24466 -1.85427 0
M  V30 3195 C 309.245 5.20755 -2.40004 0
M  V30 3196 N 308.741 6.22965 -3.03129 0
M  V30 3197 N 310.534 5.1282 -2.30158 0
M  V30 3198 H 302.685 1.29879 -1.68063 0
M  V30 3199 H 304.948 0.627896 -0.710247 0
M  V30 3200 H 304.654 2.73944 -2.20561 0
M  V30 3201 H 304.528 3.6984 -0.741477 0
M  V30 3202 H 306.915 2.94959 -0.0910608 0
M  V30 3203 H 306.996 2.00682 -1.5862 0
M  V30 3204 H 306.64 4.1488 -2.9298 0
M  V30 3205 H 306.57 5.074 -1.40898 0
M  V30 3206 H 309.061 3.51241 -1.3942 0
M  V30 3207 H 309.374 6.92859 -3.42295 0
M  V30 3208 H 307.719 6.23415 -3.07212 0
M  V30 3209 H 310.91 4.31899 -1.80501 0
M  V30 3210 H 311.083 5.87689 -2.72993 0
M  V30 3211 N 304.489 0.459591 1.5075 0
M  V30 3212 C 305.738 -0.100971 2.01447 0
M  V30 3213 C 306.051 -1.41816 1.34713 0
M  V30 3214 O 307.257 -2.06299 1.76502 0
M  V30 3215 C 305.713 -0.23047 3.59161 0
M  V30 3216 C 305.321 1.0776 4.34847 0
M  V30 3217 C 307.065 -0.743608 4.17936 0
M  V30 3218 C 304.972 0.91253 5.84317 0
M  V30 3219 H 303.902 -0.0415102 0.752856 0
M  V30 3220 H 306.553 0.592742 1.73663 0
M  V30 3221 H 304.935 -0.987703 3.83485 0
M  V30 3222 H 306.109 1.8449 4.22256 0
M  V30 3223 H 304.424 1.52097 3.87628 0
M  V30 3224 H 307.021 -0.883959 5.27343 0
M  V30 3225 H 307.364 -1.73196 3.78562 0
M  V30 3226 H 307.897 -0.04408 3.97776 0
M  V30 3227 H 304.636 1.87391 6.28144 0
M  V30 3228 H 304.156 0.185422 5.99513 0
M  V30 3229 H 305.835 0.574547 6.44444 0
M  V30 3230 N 305.967 -1.56429 0.191757 0
M  V30 3231 C 306.917 -2.15548 -0.743184 0
M  V30 3232 C 307.901 -1.09531 -1.17863 0
M  V30 3233 O 309.093 -1.35602 -1.13759 0
M  V30 3234 C 306.222 -2.81577 -1.96391 0
M  V30 3235 C 305.308 -3.9478 -1.54951 0
M  V30 3236 N 305.699 -4.98677 -0.845876 0
M  V30 3237 C 303.997 -4.06319 -1.83905 0
M  V30 3238 C 304.698 -5.78183 -0.638724 0
M  V30 3239 N 303.674 -5.30495 -1.18643 0
M  V30 3240 H 307.476 -2.9324 -0.196839 0
M  V30 3241 H 304.99 -1.62398 -0.0081603 0
M  V30 3242 H 306.987 -3.22321 -2.64415 0
M  V30 3243 H 305.647 -2.05371 -2.51501 0
M  V30 3244 H 306.658 -5.15464 -0.501704 0
M  V30 3245 H 303.335 -3.41238 -2.40548 0
M  V30 3246 H 304.725 -6.71851 -0.0807929 0
M  V30 3247 N 307.445 0.0818655 -1.57387 0
M  V30 3248 C 308.408 1.08265 -2.02018 0
M  V30 3249 C 309.408 1.32183 -0.915664 0
M  V30 3250 O 310.598 1.28073 -1.18081 0
M  V30 3251 C 307.73 2.42871 -2.39221 0
M  V30 3252 H 308.923 0.698204 -2.91659 0
M  V30 3253 H 306.476 0.327303 -1.52835 0
M  V30 3254 H 307.211 2.86167 -1.52575 0
M  V30 3255 H 306.996 2.26855 -3.19811 0
M  V30 3256 H 308.486 3.14826 -2.74362 0
M  V30 3257 N 308.923 1.53595 0.353017 0
M  V30 3258 C 310.339 1.43648 0.695516 0
M  V30 3259 C 310.539 0.585617 1.92802 0
M  V30 3260 O 309.595 0.0729223 2.52395 0
M  V30 3261 C 310.908 2.8701 0.896991 0
M  V30 3262 C 312.456 2.96723 0.996209 0
M  V30 3263 C 312.931 4.41173 1.23007 0
M  V30 3264 N 314.422 4.44657 1.29749 0
M  V30 3265 C 315.157 5.53547 1.49577 0
M  V30 3266 N 314.653 6.72461 1.66639 0
M  V30 3267 N 316.446 5.41145 1.52048 0
M  V30 3268 H 308.597 2.07415 -0.457481 0
M  V30 3269 H 310.86 0.9372 -0.142687 0
M  V30 3270 H 310.566 3.51644 0.0629938 0
M  V30 3271 H 310.44 3.31401 1.80148 0
M  V30 3272 H 312.827 2.32235 1.82074 0
M  V30 3273 H 312.908 2.55707 0.0688331 0
M  V30 3274 H 312.552 5.06238 0.410505 0
M  V30 3275 H 312.482 4.79772 2.17086 0
M  V30 3276 H 314.973 3.58963 1.18126 0
M  V30 3277 H 315.286 7.51214 1.81378 0
M  V30 3278 H 313.631 6.75423 1.63794 0
M  V30 3279 H 316.822 4.47205 1.38294 0
M  V30 3280 H 316.995 6.26068 1.67159 0
M  V30 3281 N 310.401 -0.613514 1.45168 0
M  V30 3282 C 311.348 -1.72456 1.53387 0
M  V30 3283 C 312.318 -1.6169 0.380191 0
M  V30 3284 O 313.503 -1.81356 0.592836 0
M  V30 3285 C 310.643 -3.10753 1.50088 0
M  V30 3286 C 309.756 -3.32368 2.75963 0
M  V30 3287 C 308.891 -4.60737 2.64376 0
M  V30 3288 C 307.93 -4.7559 3.85332 0
M  V30 3289 N 307.067 -5.95253 3.72315 0
M  V30 3290 H 311.907 -1.64768 2.48305 0
M  V30 3291 H 309.444 -0.803503 1.23216 0
M  V30 3292 H 311.402 -3.90758 1.46164 0
M  V30 3293 H 310.032 -3.17413 0.587243 0
M  V30 3294 H 309.084 -2.4618 2.89999 0
M  V30 3295 H 310.396 -3.39218 3.65695 0
M  V30 3296 H 309.55 -5.48928 2.58385 0
M  V30 3297 H 308.289 -4.56275 1.72233 0
M  V30 3298 H 307.294 -3.85824 3.91688 0
M  V30 3299 H 308.519 -4.81854 4.78533 0
M  V30 3300 H 306.465 -5.91847 2.82937 0
M  V30 3301 H 306.382 -6.03236 4.55677 0
M  V30 3302 H 307.65 -6.85958 3.70246 0
M  V30 3303 N 311.879 -1.3236 -0.855495 0
M  V30 3304 C 312.809 -1.23833 -1.97958 0
M  V30 3305 C 313.79 -0.122361 -1.69659 0
M  V30 3306 O 314.975 -0.30939 -1.9172 0
M  V30 3307 C 312.105 -0.959772 -3.33775 0
M  V30 3308 C 311.059 -2.03689 -3.76424 0
M  V30 3309 C 310.385 -1.61075 -5.09862 0
M  V30 3310 C 311.685 -3.4518 -3.9198 0
M  V30 3311 H 313.379 -2.1788 -2.0535 0
M  V30 3312 H 310.925 -1.04891 -0.986605 0
M  V30 3313 H 312.878 -0.886678 -4.11966 0
M  V30 3314 H 311.602 0.0163404 -3.26596 0
M  V30 3315 H 310.261 -2.10012 -3.00484 0
M  V30 3316 H 309.909 -0.622107 -4.99138 0
M  V30 3317 H 309.609 -2.33143 -5.39368 0
M  V30 3318 H 311.133 -1.55201 -5.90546 0
M  V30 3319 H 312.547 -3.4145 -4.60526 0
M  V30 3320 H 310.944 -4.1559 -4.32903 0
M  V30 3321 H 312.014 -3.84903 -2.94919 0
M  V30 3322 N 313.357 1.07166 -1.15556 0
M  V30 3323 C 314.582 1.84053 -0.955988 0
M  V30 3324 C 315.007 1.81586 0.490739 0
M  V30 3325 O 314.365 1.21018 1.34997 0
M  V30 3326 C 314.413 3.28957 -1.47714 0
M  V30 3327 O 313.517 4.06795 -0.677593 0
M  V30 3328 H 312.858 0.569842 -0.340847 0
M  V30 3329 H 315.388 1.35178 -1.53584 0
M  V30 3330 H 315.398 3.79788 -1.4908 0
M  V30 3331 H 314.073 3.30068 -2.53037 0
M  V30 3332 H 312.65 3.6561 -0.733721 0
M  V30 3333 N 314.835 0.952656 1.25548 0
M  V30 3334 C 315.745 0.47782 2.29682 0
M  V30 3335 C 316.761 -0.453859 1.67977 0
M  V30 3336 O 317.937 -0.330587 1.98668 0
M  V30 3337 C 315.002 -0.238655 3.45878 0
M  V30 3338 C 314.063 0.730994 4.23031 0
M  V30 3339 C 313.296 0.0486165 5.33678 0
M  V30 3340 O 313.519 -1.16612 5.58353 0
M  V30 3341 O 312.453 0.733152 5.97418 0
M  V30 3342 H 316.279 1.34312 2.72386 0
M  V30 3343 H 313.864 0.719026 1.30959 0
M  V30 3344 H 315.746 -0.641774 4.16484 0
M  V30 3345 H 314.421 -1.07916 3.05181 0
M  V30 3346 H 313.328 1.18428 3.5486 0
M  V30 3347 H 314.661 1.53946 4.67506 0
M  V30 3348 N 316.313 -1.40141 0.720998 0
M  V30 3349 C 317.245 -2.29177 0.0324669 0
M  V30 3350 C 318.258 -1.46105 -0.718126 0
M  V30 3351 O 319.447 -1.69335 -0.564608 0
M  V30 3352 C 316.547 -3.24473 -0.978292 0
M  V30 3353 C 315.72 -4.36423 -0.292115 0
M  V30 3354 C 314.779 -5.12122 -1.20901 0
M  V30 3355 O 313.805 -5.64981 -0.691766 0
M  V30 3356 N 315.007 -5.21992 -2.53978 0
M  V30 3357 H 317.772 -2.88909 0.796984 0
M  V30 3358 H 315.333 -1.51569 0.569068 0
M  V30 3359 H 317.325 -3.71987 -1.59398 0
M  V30 3360 H 315.895 -2.65871 -1.64413 0
M  V30 3361 H 315.115 -3.90967 0.503847 0
M  V30 3362 H 316.403 -5.08467 0.183971 0
M  V30 3363 H 315.801 -4.8054 -2.98493 0
M  V30 3364 H 314.358 -5.72995 -3.10677 0
M  V30 3365 N 317.792 -0.46758 -1.50504 0
M  V30 3366 C 319.208 -0.121533 -1.59137 0
M  V30 3367 C 319.408 1.3717 -1.47603 0
M  V30 3368 O 318.464 2.14464 -1.33272 0
M  V30 3369 C 319.777 -0.6686 -2.93173 0
M  V30 3370 C 321.325 -0.631716 -3.06559 0
M  V30 3371 C 321.8 -1.15627 -4.43164 0
M  V30 3372 N 323.291 -1.11553 -4.49567 0
M  V30 3373 C 324.026 -1.49195 -5.5365 0
M  V30 3374 N 323.522 -1.94269 -6.65005 0
M  V30 3375 N 325.315 -1.4082 -5.44175 0
M  V30 3376 H 317.466 -1.4388 -1.56245 0
M  V30 3377 H 319.729 -0.594784 -0.738198 0
M  V30 3378 H 319.435 -1.71453 -3.07078 0
M  V30 3379 H 319.309 -0.11021 -3.77039 0
M  V30 3380 H 321.696 0.405297 -2.92304 0
M  V30 3381 H 321.777 -1.22687 -2.24458 0
M  V30 3382 H 321.421 -2.1919 -4.58168 0
M  V30 3383 H 321.351 -0.537365 -5.23851 0
M  V30 3384 H 323.842 -0.784895 -3.69659 0
M  V30 3385 H 324.155 -2.21148 -7.40482 0
M  V30 3386 H 322.5 -1.98219 -6.66134 0
M  V30 3387 H 325.691 -1.0545 -4.56068 0
M  V30 3388 H 325.864 -1.70481 -6.25172 0
M  V30 3389 N 319.27 1.56325 -0.20005 0
M  V30 3390 C 320.217 2.1932 0.718833 0
M  V30 3391 C 321.187 1.14198 1.20615 0
M  V30 3392 O 322.372 1.42469 1.26914 0
M  V30 3393 C 319.512 2.86041 1.93066 0
M  V30 3394 C 318.625 4.05702 1.48425 0
M  V30 3395 C 317.76 4.60266 2.65196 0
M  V30 3396 C 316.799 5.72273 2.17185 0
M  V30 3397 N 315.936 6.21221 3.27152 0
M  V30 3398 H 320.776 2.97486 0.17489 0
M  V30 3399 H 318.313 1.46911 0.0745794 0
M  V30 3400 H 320.271 3.22897 2.64184 0
M  V30 3401 H 318.901 2.1043 2.44783 0
M  V30 3402 H 317.953 3.74475 0.668755 0
M  V30 3403 H 319.265 4.86699 1.09204 0
M  V30 3404 H 318.419 4.99453 3.4443 0
M  V30 3405 H 317.158 3.78386 3.07693 0
M  V30 3406 H 316.163 5.3261 1.36407 0
M  V30 3407 H 317.388 6.55974 1.75713 0
M  V30 3408 H 315.334 5.42263 3.69171 0
M  V30 3409 H 315.251 6.97284 2.92116 0
M  V30 3410 H 316.519 6.65063 4.06585 0
M  V30 3411 N 320.748 -0.0735177 1.57428 0
M  V30 3412 C 321.996 -0.771472 1.86796 0
M  V30 3413 C 322.317 -1.78201 0.791804 0
M  V30 3414 O 321.587 -1.95074 -0.179718 0
M  V30 3415 H 320.167 -0.28791 0.689287 0
M  V30 3416 H 322.829 -0.0500161 1.94836 0
M  V30 3417 H 321.925 -1.28874 2.8425 0
M  V30 3418 N 322.226 -1.5378 -0.344866 0
M  V30 3419 C 323.503 -1.61589 -1.10219 0
M  V30 3420 C 323.883 -0.436316 -2.06542 0
M  V30 3421 O 323.231 0.571543 -2.21237 0
M  V30 3422 C 323.441 -2.97602 -1.82301 0
M  V30 3423 C 324.789 -3.5291 -2.36093 0
M  V30 3424 O 325.813 -2.99768 -1.924 0
M  V30 3425 O 324.672 -4.45859 -3.16026 0
M  V30 3426 H 321.766 -0.653522 -0.506792 0
M  V30 3427 H 324.312 -1.66126 -0.346465 0
M  V30 3428 H 323.084 -3.74893 -1.12121 0
M  V30 3429 H 322.707 -2.9665 -2.64735 0
M  V30 3430 N 323.704 0.605807 -1.45491 0
M  V30 3431 C 324.651 1.7164 -1.54299 0
M  V30 3432 C 325.621 1.61486 -0.388761 0
M  V30 3433 O 326.806 1.81039 -0.602445 0
M  V30 3434 C 323.946 3.09953 -1.51734 0
M  V30 3435 C 323.059 3.309 -2.77721 0
M  V30 3436 C 322.194 4.59329 -2.66816 0
M  V30 3437 C 321.233 4.7354 -3.87848 0
M  V30 3438 N 320.37 5.9327 -3.75467 0
M  V30 3439 H 325.21 1.63449 -2.49176 0
M  V30 3440 H 322.747 0.796957 -1.23641 0
M  V30 3441 H 324.705 3.89977 -1.48235 0
M  V30 3442 H 323.335 3.17098 -0.604068 0
M  V30 3443 H 322.387 2.44639 -2.913 0
M  V30 3444 H 323.699 3.37274 -3.67488 0
M  V30 3445 H 322.853 5.4755 -2.61292 0
M  V30 3446 H 321.592 4.55355 -1.74651 0
M  V30 3447 H 320.597 3.83741 -3.93729 0
M  V30 3448 H 321.822 4.79309 -4.81082 0
M  V30 3449 H 319.768 5.90338 -2.86072 0
M  V30 3450 H 319.685 6.00811 -4.5887 0
M  V30 3451 H 320.953 6.83984 -3.73879 0
M  V30 3452 N 325.182 1.32811 0.848464 0
M  V30 3453 C 326.431 1.23075 1.59798 0
M  V30 3454 C 326.744 -0.204419 1.94529 0
M  V30 3455 O 327.95 -0.423701 2.68173 0
M  V30 3456 C 326.406 2.15594 2.88179 0
M  V30 3457 C 326.014 3.64228 2.60849 0
M  V30 3458 C 327.758 2.14709 3.66197 0
M  V30 3459 C 325.665 4.48689 3.85269 0
M  V30 3460 H 324.595 0.457091 0.599653 0
M  V30 3461 H 327.246 1.57813 0.936342 0
M  V30 3462 H 325.628 1.73778 3.55833 0
M  V30 3463 H 326.802 4.14424 2.01467 0
M  V30 3464 H 325.117 3.67306 1.96151 0
M  V30 3465 H 327.714 2.75046 4.58534 0
M  V30 3466 H 328.057 1.13966 4.00397 0
M  V30 3467 H 328.59 2.54837 3.05455 0
M  V30 3468 H 325.329 5.5027 3.56207 0
M  V30 3469 H 324.849 4.03241 4.44024 0
M  V30 3470 H 326.528 4.62006 4.52946 0
M  V30 3471 N 326.66 -1.06551 1.16123 0
M  V30 3472 C 327.59 -2.15935 0.88851 0
M  V30 3473 C 328.571 -1.69306 -0.164135 0
M  V30 3474 O 329.756 -1.94193 -0.0167857 0
M  V30 3475 C 326.886 -3.45149 0.385942 0
M  V30 3476 C 325.84 -4.05271 1.3762 0
M  V30 3477 C 325.166 -5.29664 0.732137 0
M  V30 3478 C 326.466 -4.44355 2.74493 0
M  V30 3479 H 328.16 -2.39006 1.80323 0
M  V30 3480 H 325.706 -1.14866 0.868435 0
M  V30 3481 H 327.659 -4.21004 0.182647 0
M  V30 3482 H 326.383 -3.21689 -0.564274 0
M  V30 3483 H 325.042 -3.3147 1.56599 0
M  V30 3484 H 324.69 -5.02499 -0.224483 0
M  V30 3485 H 324.39 -5.70848 1.39307 0
M  V30 3486 H 325.914 -6.08218 0.538802 0
M  V30 3487 H 327.328 -5.11303 2.59311 0
M  V30 3488 H 325.725 -4.96515 3.37035 0
M  V30 3489 H 326.795 -3.55339 3.29943 0
M  V30 3490 N 328.138 -0.959301 -1.25041 0
M  V30 3491 C 329.068 -0.501388 -2.28053 0
M  V30 3492 C 330.049 0.454673 -1.63911 0
M  V30 3493 O 331.234 0.352618 -1.90972 0
M  V30 3494 C 328.364 0.217224 -3.4662 0
M  V30 3495 C 327.318 -0.654034 -4.22973 0
M  V30 3496 C 326.644 0.195589 -5.34342 0
M  V30 3497 C 327.944 -1.93447 -4.85155 0
M  V30 3498 H 329.638 -1.36238 -2.66608 0
M  V30 3499 H 327.184 -0.656534 -1.28163 0
M  V30 3500 H 329.137 0.548732 -4.17812 0
M  V30 3501 H 327.861 1.1125 -3.07068 0
M  V30 3502 H 326.52 -0.968693 -3.5357 0
M  V30 3503 H 326.168 1.09076 -4.91031 0
M  V30 3504 H 325.868 -0.384091 -5.86343 0
M  V30 3505 H 327.392 0.521958 -6.08365 0
M  V30 3506 H 328.806 -1.66908 -5.48466 0
M  V30 3507 H 327.203 -2.46018 -5.47353 0
M  V30 3508 H 328.273 -2.63466 -4.07079 0
M  V30 3509 N 329.616 1.39756 -0.72842 0
M  V30 3510 C 330.564 2.32485 -0.0731849 0
M  V30 3511 C 331.558 1.52717 0.733063 0
M  V30 3512 O 332.764 1.68428 0.634988 0
M  V30 3513 H 329.139 0.751984 -0.00486469 0
M  V30 3514 H 331.11 2.85382 -0.871761 0
M  V30 3515 C 329.859 3.37773 0.824908 0
M  V30 3516 H 329.182 3.99227 0.213915 0
M  V30 3517 H 330.622 4.05121 1.25111 0
M  V30 3518 C 329.081 2.74287 1.95622 0
M  V30 3519 O 329.611 2.61618 3.04826 0
M  V30 3520 N 327.817 2.32475 1.74367 0
M  V30 3521 H 327.364 2.4298 0.855494 0
M  V30 3522 H 327.322 1.90337 2.50238 0
M  V30 3523 N 331.094 0.475555 1.50254 0
M  V30 3524 C 332.057 -0.305016 2.27161 0
M  V30 3525 C 333.057 -0.916519 1.32123 0
M  V30 3526 O 334.247 -0.785003 1.5551 0
M  V30 3527 C 331.379 -1.43496 3.09227 0
M  V30 3528 H 332.572 0.369511 2.97615 0
M  V30 3529 H 330.125 0.229747 1.54602 0
M  V30 3530 H 330.86 -2.14441 2.43281 0
M  V30 3531 H 330.645 -1.00223 3.79075 0
M  V30 3532 H 332.135 -1.98548 3.67381 0
M  V30 3533 N 332.573 -1.56217 0.208337 0
M  V30 3534 C 333.813 -1.99849 -0.428927 0
M  V30 3535 C 334.177 -1.09262 -1.57879 0
M  V30 3536 O 335.378 -1.42185 -2.28116 0
M  V30 3537 C 333.649 -3.46777 -0.864879 0
M  V30 3538 S 335.208 -4.12434 -1.49811 0
M  V30 3539 H 332.026 -0.697742 -0.136665 0
M  V30 3540 H 334.628 -1.92953 0.314519 0
M  V30 3541 H 333.332 -4.10396 -0.0181326 0
M  V30 3542 H 332.863 -3.57518 -1.64147 0
M  V30 3543 H 334.878 -4.10532 -2.78707 0
M  V30 3544 N 334.051 0.0651679 -1.57465 0
M  V30 3545 C 335.291 0.768329 -1.8941 0
M  V30 3546 C 335.655 1.74406 -0.802894 0
M  V30 3547 O 336.856 2.49281 -1.0056 0
M  V30 3548 C 335.127 1.45199 -3.26576 0
M  V30 3549 S 336.686 2.1893 -3.80283 0
M  V30 3550 H 333.504 0.255359 -0.663561 0
M  V30 3551 H 336.106 0.024167 -1.95485 0
M  V30 3552 H 334.81 0.728123 -4.03889 0
M  V30 3553 H 334.341 2.23545 -3.23715 0
M  V30 3554 H 336.356 3.45551 -3.56102 0
M  V30 3555 N 335.529 1.53961 0.336706 0
M  V30 3556 C 336.94 1.62914 0.911925 0
M  V30 3557 C 337.291 0.514795 1.89326 0
M  V30 3558 O 336.416 -0.354395 2.13478 0
M  V30 3559 C 337.011 2.95304 1.66076 0
M  V30 3560 C 335.57 3.06496 2.18489 0
M  V30 3561 C 334.717 2.58403 1.00613 0
M  V30 3562 H 337.668 1.58285 0.114649 0
M  V30 3563 H 337.689 2.84727 2.5241 0
M  V30 3564 H 337.201 3.76387 0.946276 0
M  V30 3565 H 335.302 2.3006 2.93092 0
M  V30 3566 H 335.415 4.1208 2.44391 0
M  V30 3567 H 333.779 2.13977 1.38152 0
M  V30 3568 H 334.562 3.41932 0.306179 0
M  V30 3569 N 337.007 -0.598083 1.45811 0
M  V30 3570 C 338.255 -1.35413 1.50026 0
M  V30 3571 C 338.576 -1.94444 0.147177 0
M  V30 3572 O 337.846 -1.77701 -0.824571 0
M  V30 3573 H 336.426 -0.502727 0.552517 0
M  V30 3574 H 339.088 -0.701606 1.81834 0
M  V30 3575 H 338.184 -2.16871 2.2444 0
M  V30 3576 N 338.485 -1.33259 -0.841409 0
M  V30 3577 C 339.731 -1.25766 -1.59857 0
M  V30 3578 C 340.086 0.175602 -1.91597 0
M  V30 3579 O 339.379 1.117 -1.55672 0
M  V30 3580 C 339.573 -2.06381 -2.9179 0
M  V30 3581 C 339.402 -3.57401 -2.72937 0
M  V30 3582 C 338.172 -4.26718 -2.70628 0
M  V30 3583 C 340.37 -4.51786 -2.45753 0
M  V30 3584 N 338.352 -5.63705 -2.43125 0
M  V30 3585 C 339.723 -5.76643 -2.27777 0
M  V30 3586 C 341.778 -4.40898 -2.31329 0
M  V30 3587 C 340.481 -6.91842 -1.96841 0
M  V30 3588 C 342.507 -5.55911 -2.01786 0
M  V30 3589 C 341.869 -6.79776 -1.8462 0
M  V30 3590 H 337.968 -0.515406 -0.588117 0
M  V30 3591 H 340.552 -1.67772 -0.987955 0
M  V30 3592 H 338.723 -1.667 -3.50807 0
M  V30 3593 H 340.455 -1.90678 -3.56965 0
M  V30 3594 H 337.21 -3.78968 -2.84043 0
M  V30 3595 H 337.634 -6.35911 -2.32265 0
M  V30 3596 H 342.276 -3.45772 -2.43314 0
M  V30 3597 H 339.994 -7.86968 -1.83594 0
M  V30 3598 H 343.58 -5.49421 -1.91384 0
M  V30 3599 H 342.46 -7.67266 -1.62088 0
M  V30 3600 N 339.963 1.05934 -1.16686 0
M  V30 3601 C 341.209 1.79065 -0.95203 0
M  V30 3602 C 341.542 1.87147 0.518629 0
M  V30 3603 O 340.817 1.36574 1.38484 0
M  V30 3604 C 341.1 3.23359 -1.58464 0
M  V30 3605 C 340.953 3.23336 -3.12689 0
M  V30 3606 C 342.272 4.21004 -1.28232 0
M  V30 3607 H 339.391 0.65005 -0.34728 0
M  V30 3608 H 342.033 1.23868 -1.44072 0
M  V30 3609 H 340.183 3.70493 -1.16908 0
M  V30 3610 H 341.855 2.84336 -3.6325 0
M  V30 3611 H 340.098 2.61886 -3.4583 0
M  V30 3612 H 340.769 4.25144 -3.52075 0
M  V30 3613 H 343.245 3.8233 -1.64203 0
M  V30 3614 H 342.121 5.20225 -1.75092 0
M  V30 3615 H 342.382 4.41639 -0.201791 0
M  V30 3616 N 341.441 0.965919 1.2453 0
M  V30 3617 C 342.857 0.67216 1.44756 0
M  V30 3618 C 343.057 -0.766609 1.86347 0
M  V30 3619 O 342.113 -1.5407 2.00047 0
M  V30 3620 C 343.426 1.65473 2.51076 0
M  V30 3621 C 344.974 1.66716 2.64905 0
M  V30 3622 C 345.449 2.63766 3.74421 0
M  V30 3623 N 346.94 2.62198 3.81846 0
M  V30 3624 C 347.675 3.33966 4.66106 0
M  V30 3625 N 347.171 4.15245 5.54566 0
M  V30 3626 N 348.964 3.22799 4.60171 0
M  V30 3627 H 341.115 1.89553 0.958293 0
M  V30 3628 H 343.378 0.815979 0.482579 0
M  V30 3629 H 343.084 2.68296 2.27399 0
M  V30 3630 H 342.958 1.4261 3.49202 0
M  V30 3631 H 345.345 0.646057 2.87941 0
M  V30 3632 H 345.426 1.93642 1.67142 0
M  V30 3633 H 345.07 3.6601 3.52135 0
M  V30 3634 H 345 2.34121 4.71694 0
M  V30 3635 H 347.491 2.032 3.18619 0
M  V30 3636 H 347.804 4.66898 6.15814 0
M  V30 3637 H 346.149 4.1934 5.54237 0
M  V30 3638 H 349.34 2.58764 3.90075 0
M  V30 3639 H 349.513 3.78994 5.25612 0
M  V30 3640 N 342.919 -1.39368 0.735821 0
M  V30 3641 C 344.147 -2.04795 0.294393 0
M  V30 3642 C 344.562 -1.55478 -1.07107 0
M  V30 3643 O 343.919 -0.720038 -1.67695 0
M  V30 3644 C 343.97 -3.6035 0.288071 0
M  V30 3645 O 343.691 -4.07852 1.59963 0
M  V30 3646 C 345.192 -4.42976 -0.169422 0
M  V30 3647 H 342.412 -0.658571 0.128551 0
M  V30 3648 H 344.956 -1.78399 0.999701 0
M  V30 3649 H 343.111 -3.85645 -0.368355 0
M  V30 3650 H 343.525 -5.02181 1.51375 0
M  V30 3651 H 344.999 -5.51864 -0.122687 0
M  V30 3652 H 345.476 -4.22068 -1.21472 0
M  V30 3653 H 346.082 -4.22832 0.457469 0
M  V30 3654 N 344.397 -0.483516 -1.5 0
M  V30 3655 C 345.674 0.129337 -1.95172 0
M  V30 3656 C 346.054 1.55802 -1.4244 0
M  V30 3657 O 345.402 2.19625 -0.630649 0
M  V30 3658 C 345.612 0.0599251 -3.48949 0
M  V30 3659 C 346.96 0.242617 -4.23906 0
M  V30 3660 O 347.984 0.135933 -3.55941 0
M  V30 3661 O 346.843 0.459454 -5.44565 0
M  V30 3662 H 343.937 0.104887 -0.820322 0
M  V30 3663 H 346.483 -0.544807 -1.60717 0
M  V30 3664 H 345.255 -0.937079 -3.79914 0
M  V30 3665 H 344.878 0.774984 -3.89974 0
M  V30 3666 N 345.875 1.56104 -0.216619 0
M  V30 3667 C 346.808 2.16026 0.735395 0
M  V30 3668 C 347.786 1.1032 1.1945 0
M  V30 3669 O 348.97 1.38549 1.27814 0
M  V30 3670 C 346.097 2.73656 1.99575 0
M  V30 3671 C 345.143 3.92146 1.67702 0
M  V30 3672 S 345.976 5.29397 0.806145 0
M  V30 3673 C 347.132 5.90463 2.07617 0
M  V30 3674 H 347.365 2.96439 0.226072 0
M  V30 3675 H 344.898 1.544 -0.00136639 0
M  V30 3676 H 346.856 3.075 2.71945 0
M  V30 3677 H 345.517 1.93245 2.47619 0
M  V30 3678 H 344.71 4.30954 2.61332 0
M  V30 3679 H 344.312 3.59423 1.03398 0
M  V30 3680 H 346.604 6.06136 3.02664 0
M  V30 3681 H 347.547 6.86589 1.73207 0
M  V30 3682 H 347.955 5.19252 2.21445 0
M  V30 3683 N 347.353 -0.0568162 1.57498 0
M  V30 3684 C 348.316 -1.05038 2.03715 0
M  V30 3685 C 349.316 -1.30709 0.936577 0
M  V30 3686 O 350.506 -1.26178 1.20103 0
M  V30 3687 C 347.638 -2.39034 2.43055 0
M  V30 3688 H 348.831 -0.651715 2.92733 0
M  V30 3689 H 346.384 -0.302947 1.53336 0
M  V30 3690 H 347.119 -2.83703 1.57108 0
M  V30 3691 H 346.904 -2.21739 3.2338 0
M  V30 3692 H 348.394 -3.10421 2.79336 0
M  V30 3693 N 348.832 -1.54138 -0.328536 0
M  V30 3694 C 350.08 -1.71765 -1.06496 0
M  V30 3695 C 350.401 -0.49149 -1.88704 0
M  V30 3696 O 349.671 0.494539 -1.89555 0
M  V30 3697 H 348.251 -0.633295 -0.396164 0
M  V30 3698 H 350.913 -1.91429 -0.366176 0
M  V30 3699 H 350.009 -2.5951 -1.73381 0
M  V30 3700 N 350.31 0.590341 -1.46126 0
M  V30 3701 C 351.721 1.17243 -1.45296 0
M  V30 3702 C 352.072 1.95281 -0.189723 0
M  V30 3703 O 351.197 2.04502 0.707674 0
M  V30 3704 C 351.792 2.13284 -2.6324 0
M  V30 3705 C 350.351 2.66832 -2.65476 0
M  V30 3706 C 349.498 1.42557 -2.3785 0
M  V30 3707 H 352.449 0.378692 -1.54116 0
M  V30 3708 H 352.47 2.96619 -2.38323 0
M  V30 3709 H 351.982 1.56459 -3.55165 0
M  V30 3710 H 350.083 3.27548 -1.77603 0
M  V30 3711 H 350.196 3.10088 -3.65215 0
M  V30 3712 H 348.56 1.72107 -1.87753 0
M  V30 3713 H 349.343 0.875741 -3.31942 0
M  V30 3714 N 351.788 1.33704 0.83433 0
M  V30 3715 C 352.735 1.24335 1.94447 0
M  V30 3716 C 353.705 0.120991 1.65659 0
M  V30 3717 O 354.89 0.300035 1.88426 0
M  V30 3718 C 352.03 0.993124 3.30501 0
M  V30 3719 C 351.143 2.20217 3.71657 0
M  V30 3720 C 350.278 1.88572 4.96602 0
M  V30 3721 C 349.317 3.05683 5.30306 0
M  V30 3722 N 348.454 2.73997 6.46429 0
M  V30 3723 H 353.294 2.1928 2.01792 0
M  V30 3724 H 350.831 1.09035 0.987404 0
M  V30 3725 H 352.789 0.828467 4.08892 0
M  V30 3726 H 351.419 0.0803902 3.227 0
M  V30 3727 H 350.471 2.47642 2.88752 0
M  V30 3728 H 351.783 3.07752 3.92543 0
M  V30 3729 H 350.937 1.68776 5.82752 0
M  V30 3730 H 349.676 0.982799 4.77695 0
M  V30 3731 H 348.681 3.26088 4.42659 0
M  V30 3732 H 349.906 3.96737 5.51159 0
M  V30 3733 H 347.852 1.86268 6.28999 0
M  V30 3734 H 347.769 3.55064 6.67432 0
M  V30 3735 H 349.037 2.57679 7.35678 0
M  V30 3736 N 353.266 -1.05314 1.17247 0
M  V30 3737 C 354.229 -2.112 0.890357 0
M  V30 3738 C 355.229 -1.60359 -0.118943 0
M  V30 3739 O 356.419 -1.73833 0.113086 0
M  V30 3740 C 353.551 -3.39266 0.333422 0
M  V30 3741 H 354.744 -2.37659 1.82916 0
M  V30 3742 H 352.297 -1.21538 0.982758 0
M  V30 3743 H 353.032 -3.18462 -0.612587 0
M  V30 3744 H 352.817 -3.77477 1.06082 0
M  V30 3745 H 354.307 -4.17315 0.154322 0
M  V30 3746 N 354.744 -0.972509 -1.24016 0
M  V30 3747 C 355.972 -0.654803 -1.96265 0
M  V30 3748 C 356.387 0.776708 -1.72083 0
M  V30 3749 O 355.744 1.52171 -1.00748 0
M  V30 3750 C 355.795 -0.92592 -3.49441 0
M  V30 3751 O 355.516 -2.30116 -3.72798 0
M  V30 3752 C 357.017 -0.623068 -4.38899 0
M  V30 3753 H 354.237 -0.243907 -0.6251 0
M  V30 3754 H 356.781 -1.30175 -1.57717 0
M  V30 3755 H 354.936 -0.325108 -3.86033 0
M  V30 3756 H 355.35 -2.38483 -4.67147 0
M  V30 3757 H 356.824 -0.863189 -5.45209 0
M  V30 3758 H 357.301 0.442754 -4.36963 0
M  V30 3759 H 357.907 -1.204 -4.07902 0
M  V30 3760 N 356.222 1.38976 -0.743202 0
M  V30 3761 C 357.169 2.30544 -0.10861 0
M  V30 3762 C 358.139 1.49642 0.720869 0
M  V30 3763 O 359.324 1.78304 0.679142 0
M  V30 3764 C 356.464 3.36018 0.786496 0
M  V30 3765 C 355.577 4.31963 -0.0564849 0
M  V30 3766 C 354.712 5.24506 0.840657 0
M  V30 3767 C 353.751 6.121 -0.00658363 0
M  V30 3768 N 352.888 6.96973 0.846943 0
M  V30 3769 H 357.728 2.8424 -0.895088 0
M  V30 3770 H 355.265 1.3995 -0.453048 0
M  V30 3771 H 357.223 3.95768 1.31999 0
M  V30 3772 H 355.853 2.83758 1.53887 0
M  V30 3773 H 354.905 3.73763 -0.707492 0
M  V30 3774 H 356.217 4.93703 -0.711229 0
M  V30 3775 H 355.371 5.89322 1.4417 0
M  V30 3776 H 354.11 4.63107 1.52916 0
M  V30 3777 H 353.115 5.46289 -0.620366 0
M  V30 3778 H 354.34 6.75565 -0.691992 0
M  V30 3779 H 352.286 6.38133 1.52059 0
M  V30 3780 H 352.203 7.5559 0.248864 0
M  V30 3781 H 353.471 7.6621 1.43328 0
M  V30 3782 N 357.7 0.491464 1.49741 0
M  V30 3783 C 358.925 -0.0557177 2.07325 0
M  V30 3784 C 359.35 -1.30925 1.35056 0
M  V30 3785 O 358.708 -1.76733 0.404365 0
M  V30 3786 C 358.756 -0.302074 3.59333 0
M  V30 3787 O 357.86 -1.37868 3.88672 0
M  V30 3788 H 357.201 0.0219956 0.663636 0
M  V30 3789 H 359.731 0.688352 1.92673 0
M  V30 3790 H 359.741 -0.536464 4.04458 0
M  V30 3791 H 358.416 0.61383 4.11345 0
M  V30 3792 H 356.993 -1.12999 3.55367 0
M  V30 3793 N 359.178 -1.55987 0.224894 0
M  V30 3794 C 360.589 -1.84553 -0.282345 0
M  V30 3795 C 360.94 -1.14634 -1.59227 0
M  V30 3796 O 360.065 -0.417155 -2.12341 0
M  V30 3797 C 360.66 -3.348 -0.519062 0
M  V30 3798 C 359.219 -3.63671 -0.970604 0
M  V30 3799 C 358.366 -2.77277 -0.0355261 0
M  V30 3800 H 361.317 -1.52245 0.448006 0
M  V30 3801 H 361.338 -3.55187 -1.36463 0
M  V30 3802 H 360.85 -3.8566 0.43449 0
M  V30 3803 H 358.951 -3.1827 -1.9374 0
M  V30 3804 H 359.064 -4.71631 -0.842698 0
M  V30 3805 H 357.428 -2.48846 -0.542927 0
M  V30 3806 H 358.211 -3.30937 0.913003 0
M  V30 3807 N 360.656 0.0484629 -1.57525 0
M  V30 3808 C 361.566 1.07241 -2.08654 0
M  V30 3809 C 362.582 1.409 -1.02095 0
M  V30 3810 O 363.758 1.50609 -1.33712 0
M  V30 3811 C 360.823 2.36008 -2.5397 0
M  V30 3812 C 359.884 2.09108 -3.7493 0
M  V30 3813 C 359.117 3.31736 -4.18075 0
M  V30 3814 O 359.34 4.41714 -3.60895 0
M  V30 3815 O 358.274 3.18576 -5.10679 0
M  V30 3816 H 362.1 0.667965 -2.96263 0
M  V30 3817 H 359.685 0.26417 -1.47046 0
M  V30 3818 H 361.567 3.11747 -2.83535 0
M  V30 3819 H 360.242 2.75786 -1.69481 0
M  V30 3820 H 359.149 1.31 -3.50414 0
M  V30 3821 H 360.482 1.74198 -4.60343 0
M  V30 3822 N 362.134 1.5431 0.320358 0
M  V30 3823 C 363.044 1.86946 1.41734 0
M  V30 3824 C 364.06 0.761689 1.56443 0
M  V30 3825 O 365.236 1.05629 1.71477 0
M  V30 3826 C 362.301 2.09293 2.76401 0
M  V30 3827 C 361.362 3.33082 2.70841 0
M  V30 3828 C 360.595 3.54353 3.99086 0
M  V30 3829 O 360.818 2.79002 4.97508 0
M  V30 3830 O 359.752 4.47838 4.0215 0
M  V30 3831 H 363.578 2.80232 1.17062 0
M  V30 3832 H 361.163 1.40255 0.514673 0
M  V30 3833 H 363.045 2.25303 3.56113 0
M  V30 3834 H 361.72 1.19194 3.00956 0
M  V30 3835 H 360.627 3.22454 1.89668 0
M  V30 3836 H 361.96 4.23249 2.5124 0
M  V30 3837 N 363.613 -0.582584 1.46437 0
M  V30 3838 C 364.861 -1.33814 1.51453 0
M  V30 3839 C 365.182 -1.94277 0.167792 0
M  V30 3840 O 364.452 -1.78566 -0.805677 0
M  V30 3841 H 363.032 -0.496838 0.557818 0
M  V30 3842 H 365.694 -0.682281 1.82568 0
M  V30 3843 H 364.79 -2.14479 2.26728 0
M  V30 3844 N 365.091 -1.34144 -0.827227 0
M  V30 3845 C 366.054 -1.25264 -1.91942 0
M  V30 3846 C 367.054 -0.168866 -1.59911 0
M  V30 3847 O 368.244 -0.421198 -1.69031 0
M  V30 3848 C 365.376 -0.932952 -3.27885 0
M  V30 3849 H 366.569 -2.22357 -2.0124 0
M  V30 3850 H 364.122 -1.1837 -1.0207 0
M  V30 3851 H 364.857 0.0349917 -3.24281 0
M  V30 3852 H 364.642 -1.71682 -3.52516 0
M  V30 3853 H 366.132 -0.895874 -4.07877 0
M  V30 3854 N 366.569 1.04691 -1.17803 0
M  V30 3855 C 367.479 2.16057 -0.914151 0
M  V30 3856 C 368.495 1.73589 0.119503 0
M  V30 3857 O 369.671 2.01308 -0.0609468 0
M  V30 3858 C 366.736 3.4394 -0.436603 0
M  V30 3859 C 365.797 4.00825 -1.53746 0
M  V30 3860 C 365.03 5.22604 -1.0826 0
M  V30 3861 O 365.253 5.70367 0.0612244 0
M  V30 3862 O 364.187 5.7186 -1.87775 0
M  V30 3863 H 368.013 2.41169 -1.84584 0
M  V30 3864 H 365.598 1.1453 -0.959334 0
M  V30 3865 H 367.48 4.21024 -0.178057 0
M  V30 3866 H 366.155 3.20316 0.466869 0
M  V30 3867 H 365.062 3.25158 -1.84995 0
M  V30 3868 H 366.395 4.28778 -2.41683 0
M  V30 3869 N 368.047 0.979072 1.23499 0
M  V30 3870 C 369.275 0.665202 1.95915 0
M  V30 3871 C 369.69 -0.767571 1.72493 0
M  V30 3872 O 369.047 -1.51635 1.01554 0
M  V30 3873 C 369.098 0.944438 3.48945 0
M  V30 3874 O 368.819 2.3209 3.71572 0
M  V30 3875 C 370.32 0.646336 4.38563 0
M  V30 3876 H 367.54 0.247218 0.623798 0
M  V30 3877 H 370.084 1.31009 1.57025 0
M  V30 3878 H 368.239 0.345575 3.85856 0
M  V30 3879 H 368.653 2.40957 4.65876 0
M  V30 3880 H 370.127 0.892091 5.44744 0
M  V30 3881 H 370.604 -0.419575 4.37191 0
M  V30 3882 H 371.21 1.22562 4.07258 0
M  V30 3883 N 369.525 -1.3858 0.750561 0
M  V30 3884 C 370.936 -1.82927 0.373438 0
M  V30 3885 C 371.287 -1.62634 -1.09748 0
M  V30 3886 O 370.412 -1.12588 -1.84805 0
M  V30 3887 C 371.007 -3.32088 0.671029 0
M  V30 3888 C 369.566 -3.74795 0.34722 0
M  V30 3889 C 368.713 -2.61391 0.92575 0
M  V30 3890 H 371.664 -1.27351 0.946958 0
M  V30 3891 H 371.685 -3.80465 -0.0518269 0
M  V30 3892 H 371.197 -3.46826 1.74164 0
M  V30 3893 H 369.298 -3.65638 -0.716933 0
M  V30 3894 H 369.411 -4.71667 0.840656 0
M  V30 3895 H 367.775 -2.52265 0.351327 0
M  V30 3896 H 368.558 -2.78929 2.00133 0
M  V30 3897 N 371.003 -0.499398 -1.49478 0
M  V30 3898 C 372.249 0.0457576 -2.02748 0
M  V30 3899 C 372.582 1.36793 -1.37846 0
M  V30 3900 O 371.857 1.87596 -0.513601 0
M  V30 3901 C 372.14 0.199986 -3.59544 0
M  V30 3902 C 371.993 -1.1452 -4.34977 0
M  V30 3903 C 373.312 0.94137 -4.29914 0
M  V30 3904 H 370.431 0.0151552 -0.736844 0
M  V30 3905 H 373.073 -0.650498 -1.78518 0
M  V30 3906 H 371.223 0.793007 -3.8032 0
M  V30 3907 H 372.895 -1.77697 -4.25701 0
M  V30 3908 H 371.138 -1.73488 -3.97598 0
M  V30 3909 H 371.809 -0.990607 -5.43039 0
M  V30 3910 H 374.285 0.43844 -4.13784 0
M  V30 3911 H 373.161 1.01812 -5.39375 0
M  V30 3912 H 373.422 1.98471 -3.95046 0
M  V30 3913 N 372.481 1.55866 -0.233164 0
M  V30 3914 C 373.711 2.02704 0.399325 0
M  V30 3915 C 374.119 1.11204 1.53069 0
M  V30 3916 O 373.462 0.116182 1.83332 0
M  V30 3917 C 373.524 3.45844 0.981429 0
M  V30 3918 C 373.188 4.56997 -0.0159561 0
M  V30 3919 C 374.185 5.13384 -0.820552 0
M  V30 3920 C 371.87 5.0211 -0.138072 0
M  V30 3921 C 373.864 6.13365 -1.73386 0
M  V30 3922 C 371.551 6.01926 -1.0549 0
M  V30 3923 C 372.549 6.57431 -1.85132 0
M  V30 3924 O 372.237 7.55302 -2.75272 0
M  V30 3925 H 371.969 0.668459 0.100692 0
M  V30 3926 H 374.523 2.02387 -0.35052 0
M  V30 3927 H 372.753 3.43267 1.78058 0
M  V30 3928 H 374.442 3.76262 1.52255 0
M  V30 3929 H 375.208 4.79372 -0.736721 0
M  V30 3930 H 371.087 4.5858 0.471737 0
M  V30 3931 H 374.631 6.56614 -2.35592 0
M  V30 3932 H 370.528 6.35359 -1.1397 0
M  V30 3933 H 371.296 7.72867 -2.69477 0
M  V30 3934 N 373.959 -0.0401083 1.57549 0
M  V30 3935 C 374.889 -1.04384 2.08869 0
M  V30 3936 C 375.87 -1.38407 0.988817 0
M  V30 3937 O 377.055 -1.47483 1.26342 0
M  V30 3938 C 374.185 -2.34808 2.55895 0
M  V30 3939 C 373.139 -2.15057 3.70047 0
M  V30 3940 C 372.465 -3.51145 4.03239 0
M  V30 3941 C 373.765 -1.54576 4.98902 0
M  V30 3942 H 375.459 -0.616666 2.92981 0
M  V30 3943 H 373.005 -0.295184 1.40942 0
M  V30 3944 H 374.958 -3.05346 2.90417 0
M  V30 3945 H 373.682 -2.79565 1.68853 0
M  V30 3946 H 372.341 -1.46954 3.35857 0
M  V30 3947 H 371.989 -3.93529 3.13279 0
M  V30 3948 H 371.689 -3.38758 4.80122 0
M  V30 3949 H 373.213 -4.23062 4.40285 0
M  V30 3950 H 374.627 -2.15017 5.31451 0
M  V30 3951 H 373.024 -1.52796 5.80322 0
M  V30 3952 H 374.094 -0.51039 4.82206 0
M  V30 3953 N 375.437 -1.54477 -0.31217 0
M  V30 3954 C 376.4 -1.83923 -1.36766 0
M  V30 3955 C 377.4 -0.711563 -1.44199 0
M  V30 3956 O 378.59 -0.979866 -1.44029 0
M  V30 3957 C 375.722 -2.0095 -2.75376 0
M  V30 3958 H 376.915 -2.78239 -1.11906 0
M  V30 3959 H 374.468 -1.46369 -0.548257 0
M  V30 3960 H 375.203 -1.08883 -3.05475 0
M  V30 3961 H 374.988 -2.83018 -2.71373 0
M  V30 3962 H 376.478 -2.2514 -3.51713 0
M  V30 3963 N 376.915 0.57481 -1.46744 0
M  V30 3964 C 377.845 1.69337 -1.60771 0
M  V30 3965 C 378.826 1.63825 -0.457736 0
M  V30 3966 O 380.011 1.8172 -0.684947 0
M  V30 3967 C 377.141 3.0798 -1.60517 0
M  V30 3968 C 376.095 3.28327 -2.74564 0
M  V30 3969 C 375.421 4.67578 -2.59373 0
M  V30 3970 C 376.721 3.15398 -4.16319 0
M  V30 3971 H 378.415 1.57853 -2.54407 0
M  V30 3972 H 375.961 0.75799 -1.22436 0
M  V30 3973 H 377.914 3.86061 -1.68923 0
M  V30 3974 H 376.638 3.20381 -0.634305 0
M  V30 3975 H 375.297 2.52649 -2.65639 0
M  V30 3976 H 374.945 4.76755 -1.60353 0
M  V30 3977 H 374.645 4.82144 -3.35873 0
M  V30 3978 H 376.169 5.47817 -2.69682 0
M  V30 3979 H 377.583 3.83315 -4.26313 0
M  V30 3980 H 375.98 3.41482 -4.93468 0
M  V30 3981 H 377.05 2.12372 -4.3592 0
M  V30 3982 N 378.394 1.34581 0.820102 0
M  V30 3983 C 379.324 1.29038 1.94606 0
M  V30 3984 C 380.305 0.1673 1.69275 0
M  V30 3985 O 381.49 0.360112 1.90832 0
M  V30 3986 C 378.62 1.04793 3.31113 0
M  V30 3987 C 377.574 2.13597 3.70891 0
M  V30 3988 C 376.9 1.74537 5.05412 0
M  V30 3989 C 378.2 3.55451 3.8269 0
M  V30 3990 H 379.894 2.23248 1.99501 0
M  V30 3991 H 377.44 1.0747 0.958449 0
M  V30 3992 H 379.393 0.995592 4.0947 0
M  V30 3993 H 378.117 0.0702565 3.26524 0
M  V30 3994 H 376.776 2.17905 2.9481 0
M  V30 3995 H 376.424 0.754226 4.97313 0
M  V30 3996 H 376.124 2.47361 5.32997 0
M  V30 3997 H 377.648 1.70803 5.86224 0
M  V30 3998 H 379.062 3.5354 4.51312 0
M  V30 3999 H 377.459 4.26922 4.21732 0
M  V30 4000 H 378.529 3.92587 2.84611 0
M  V30 4001 N 379.872 -1.04064 1.18357 0
M  V30 4002 C 381.283 -1.58719 0.98312 0
M  V30 4003 C 381.634 -1.90556 -0.467193 0
M  V30 4004 O 380.759 -1.69561 -1.34454 0
M  V30 4005 C 381.354 -2.88379 1.77828 0
M  V30 4006 C 379.913 -3.3965 1.62218 0
M  V30 4007 C 379.06 -2.13235 1.77274 0
M  V30 4008 H 382.011 -0.867359 1.32901 0
M  V30 4009 H 382.032 -3.58773 1.26737 0
M  V30 4010 H 381.544 -2.65176 2.83379 0
M  V30 4011 H 379.645 -3.67866 0.592036 0
M  V30 4012 H 379.758 -4.13475 2.42023 0
M  V30 4013 H 378.122 -2.24542 1.20221 0
M  V30 4014 H 378.905 -1.92487 2.8426 0
M  V30 4015 N 381.35 -0.985608 -1.22978 0
M  V30 4016 C 382.761 -0.693593 -1.73338 0
M  V30 4017 C 383.112 0.789935 -1.79595 0
M  V30 4018 O 382.237 1.61771 -1.43733 0
M  V30 4019 C 382.832 -1.25235 -3.14804 0
M  V30 4020 C 381.391 -1.00987 -3.626 0
M  V30 4021 C 380.538 -1.37695 -2.40698 0
M  V30 4022 H 383.489 -1.15884 -1.08428 0
M  V30 4023 H 383.51 -0.627329 -3.75293 0
M  V30 4024 H 383.022 -2.33209 -3.10218 0
M  V30 4025 H 381.123 0.0535565 -3.72562 0
M  V30 4026 H 381.236 -1.66812 -4.49122 0
M  V30 4027 H 379.6 -0.795459 -2.4196 0
M  V30 4028 H 380.383 -2.46657 -2.38779 0
M  V30 4029 N 382.828 1.3818 -0.7579 0
M  V30 4030 C 384.105 1.94106 -0.241306 0
M  V30 4031 C 384.485 1.69282 1.26122 0
M  V30 4032 O 383.833 1.03378 2.03777 0
M  V30 4033 C 384.043 3.43809 -0.59967 0
M  V30 4034 C 385.391 4.20868 -0.561717 0
M  V30 4035 O 386.415 3.5211 -0.538222 0
M  V30 4036 O 385.274 5.43451 -0.576478 0
M  V30 4037 H 382.368 0.825376 -0.0518042 0
M  V30 4038 H 384.914 1.47548 -0.838315 0
M  V30 4039 H 383.686 3.55403 -1.6372 0
M  V30 4040 H 383.309 3.97592 0.0251197 0
M  V30 4041 N 384.306 0.507319 1.49211 0
M  V30 4042 C 385.269 -0.256763 2.27757 0
M  V30 4043 C 386.269 -0.888287 1.34038 0
M  V30 4044 O 387.459 -0.751841 1.5714 0
M  V30 4045 C 384.591 -1.36905 3.12202 0
M  V30 4046 H 385.784 0.432557 2.96764 0
M  V30 4047 H 383.337 0.262488 1.5408 0
M  V30 4048 H 384.072 -2.09233 2.47775 0
M  V30 4049 H 383.857 -0.921599 3.81115 0
M  V30 4050 H 385.347 -1.9071 3.7151 0
M  V30 4051 N 385.784 -1.5574 0.241426 0
M  V30 4052 C 386.694 -2.2479 -0.671305 0
M  V30 4053 C 387.71 -1.26217 -1.19772 0
M  V30 4054 O 388.886 -1.59079 -1.23514 0
M  V30 4055 C 385.951 -2.92966 -1.85396 0
M  V30 4056 C 385.012 -4.06935 -1.36756 0
M  V30 4057 C 384.245 -4.71851 -2.49384 0
M  V30 4058 O 384.468 -4.35823 -3.67987 0
M  V30 4059 O 383.402 -5.60467 -2.19454 0
M  V30 4060 H 387.228 -3.0349 -0.112966 0
M  V30 4061 H 384.813 -1.49397 0.0101513 0
M  V30 4062 H 386.695 -3.35927 -2.54423 0
M  V30 4063 H 385.37 -2.17211 -2.40002 0
M  V30 4064 H 384.277 -3.68503 -0.644726 0
M  V30 4065 H 385.61 -4.84492 -0.867647 0
M  V30 4066 N 387.262 0.0317525 -1.57568 0
M  V30 4067 C 388.51 0.721676 -1.88776 0
M  V30 4068 C 388.831 1.76039 -0.838772 0
M  V30 4069 O 388.101 1.95482 0.127935 0
M  V30 4070 H 386.681 0.269534 -0.696678 0
M  V30 4071 H 389.343 -0.00165879 -1.949 0
M  V30 4072 H 388.439 1.21293 -2.87566 0
M  V30 4073 N 388.74 1.54641 0.303973 0
M  V30 4074 C 390.151 1.64811 0.877163 0
M  V30 4075 C 390.502 0.554838 1.88191 0
M  V30 4076 O 389.627 -0.309033 2.14182 0
M  V30 4077 C 390.222 2.9876 1.59775 0
M  V30 4078 C 388.781 3.11061 2.11938 0
M  V30 4079 C 387.928 2.60479 0.951097 0
M  V30 4080 H 390.879 1.58493 0.0810486 0
M  V30 4081 H 390.9 2.90017 2.46314 0
M  V30 4082 H 390.412 3.7831 0.866226 0
M  V30 4083 H 388.513 2.36225 2.88146 0
M  V30 4084 H 388.626 4.17171 2.35595 0
M  V30 4085 H 386.99 2.16859 1.33583 0
M  V30 4086 H 387.773 3.42504 0.233581 0
M  V30 4087 N 390.218 -0.567019 1.47046 0
M  V30 4088 C 391.168 -1.67018 1.55207 0
M  V30 4089 C 392.152 -1.55543 0.411714 0
M  V30 4090 O 393.344 -1.64192 0.661064 0
M  V30 4091 C 390.473 -3.05801 1.56014 0
M  V30 4092 C 389.559 -3.22515 2.75399 0
M  V30 4093 N 389.95 -3.09329 4.00186 0
M  V30 4094 C 388.248 -3.53493 2.71954 0
M  V30 4095 C 388.949 -3.2847 4.80086 0
M  V30 4096 N 387.925 -3.54352 4.12233 0
M  V30 4097 H 391.727 -1.55377 2.4947 0
M  V30 4098 H 389.241 -0.771503 1.42904 0
M  V30 4099 H 391.238 -3.84996 1.59949 0
M  V30 4100 H 389.898 -3.18561 0.628396 0
M  V30 4101 H 390.909 -2.86863 4.31196 0
M  V30 4102 H 387.586 -3.7284 1.87873 0
M  V30 4103 H 388.976 -3.23326 5.88991 0
M  V30 4104 N 391.696 -1.35014 -0.812953 0
M  V30 4105 C 392.944 -1.27678 -1.56661 0
M  V30 4106 C 393.265 0.150359 -1.94419 0
M  V30 4107 O 392.535 1.08532 -1.63088 0
M  V30 4108 H 391.115 -0.469602 -0.580933 0
M  V30 4109 H 393.777 -1.69043 -0.970076 0
M  V30 4110 H 392.873 -1.88833 -2.48492 0
M  V30 4111 N 393.175 1.03435 -1.18907 0
M  V30 4112 C 394.107 2.1165 -0.879595 0
M  V30 4113 C 395.12 1.62316 0.125439 0
M  V30 4114 O 396.309 1.78201 -0.103245 0
M  V30 4115 C 393.409 3.37622 -0.294042 0
M  V30 4116 C 392.582 4.16166 -1.34629 0
M  V30 4117 C 391.641 5.20457 -0.775274 0
M  V30 4118 O 390.667 5.50379 -1.4516 0
M  V30 4119 N 391.869 5.78949 0.424126 0
M  V30 4120 H 394.634 2.38791 -1.81105 0
M  V30 4121 H 392.195 1.19681 -1.09032 0
M  V30 4122 H 394.187 4.04572 0.101679 0
M  V30 4123 H 392.757 3.07873 0.541575 0
M  V30 4124 H 391.977 3.44444 -1.91707 0
M  V30 4125 H 393.265 4.65432 -2.05549 0
M  V30 4126 H 392.663 5.56948 0.991209 0
M  V30 4127 H 391.22 6.47334 0.761691 0
M  V30 4128 N 394.653 0.992116 1.22453 0
M  V30 4129 C 395.9 0.667534 1.91181 0
M  V30 4130 C 396.228 -0.800317 1.77271 0
M  V30 4131 O 395.483 -1.59421 1.13505 0
M  V30 4132 C 395.782 1.01832 3.42586 0
M  V30 4133 C 395.448 2.47831 3.76684 0
M  V30 4134 C 394.11 2.87729 3.85701 0
M  V30 4135 C 396.462 3.42466 3.92895 0
M  V30 4136 C 393.79 4.21252 4.08367 0
M  V30 4137 C 396.142 4.75648 4.17064 0
M  V30 4138 C 394.806 5.15288 4.24305 0
M  V30 4139 H 394.076 0.244268 0.699581 0
M  V30 4140 H 396.723 1.24816 1.45235 0
M  V30 4141 H 395.028 0.355769 3.90181 0
M  V30 4142 H 396.725 0.745228 3.94014 0
M  V30 4143 H 393.315 2.15905 3.70247 0
M  V30 4144 H 397.499 3.12814 3.85307 0
M  V30 4145 H 392.755 4.51554 4.122 0
M  V30 4146 H 396.929 5.48924 4.2855 0
M  V30 4147 H 394.556 6.18769 4.41621 0
M  V30 4148 N 396.131 -1.37776 0.765217 0
M  V30 4149 C 397.377 -2.00145 0.327072 0
M  V30 4150 C 397.71 -1.60607 -1.09175 0
M  V30 4151 O 396.985 -0.849127 -1.74986 0
M  V30 4152 C 397.268 -3.57109 0.46319 0
M  V30 4153 C 397.121 -4.06576 1.92395 0
M  V30 4154 C 398.44 -4.39888 -0.136473 0
M  V30 4155 H 395.559 -0.727113 0.120316 0
M  V30 4156 H 398.201 -1.63549 0.967039 0
M  V30 4157 H 396.351 -3.88414 -0.0816358 0
M  V30 4158 H 398.023 -3.85864 2.52798 0
M  V30 4159 H 396.266 -3.59011 2.43503 0
M  V30 4160 H 396.937 -5.15639 1.97028 0
M  V30 4161 H 399.413 -4.14803 0.328317 0
M  V30 4162 H 398.289 -5.48899 -0.0110582 0
M  V30 4163 H 398.55 -4.24758 -1.22608 0
M  V30 4164 N 397.609 -0.515225 -1.4894 0
M  V30 4165 C 398.834 0.022727 -2.07388 0
M  V30 4166 C 399.259 1.2876 -1.37122 0
M  V30 4167 O 398.617 1.76067 -0.432431 0
M  V30 4168 C 398.665 0.244869 -3.59768 0
M  V30 4169 O 397.769 1.31667 -3.90817 0
M  V30 4170 H 397.11 -0.0325506 -0.663202 0
M  V30 4171 H 399.64 -0.718918 -1.91553 0
M  V30 4172 H 399.65 0.47205 -4.0526 0
M  V30 4173 H 398.325 -0.679194 -4.10317 0
M  V30 4174 H 396.902 1.07331 -3.5712 0
M  V30 4175 N 399.087 1.5561 -0.249682 0
M  V30 4176 C 399.997 2.25143 0.659375 0
M  V30 4177 C 401.013 1.2685 1.19101 0
M  V30 4178 O 402.189 1.59732 1.22669 0
M  V30 4179 C 399.254 2.93945 1.8384 0
M  V30 4180 C 398.315 4.07655 1.34596 0
M  V30 4181 C 397.548 4.73167 2.46878 0
M  V30 4182 O 397.771 4.37768 3.65671 0
M  V30 4183 O 396.705 5.61623 2.16478 0
M  V30 4184 H 400.531 3.03545 0.0968698 0
M  V30 4185 H 398.116 1.49389 -0.018074 0
M  V30 4186 H 399.998 3.37271 2.52638 0
M  V30 4187 H 398.673 2.18481 2.38847 0
M  V30 4188 H 397.58 3.68839 0.625174 0
M  V30 4189 H 398.913 4.84946 0.841941 0
M  V30 4190 N 400.565 -0.0233959 1.57583 0
M  V30 4191 C 401.512 -1.02224 2.06927 0
M  V30 4192 C 402.482 -1.35575 0.959617 0
M  V30 4193 O 403.667 -1.45815 1.23055 0
M  V30 4194 C 400.807 -2.31636 2.5581 0
M  V30 4195 C 399.92 -2.04394 3.80588 0
M  V30 4196 C 399.055 -3.27717 4.18061 0
M  V30 4197 C 398.094 -2.96056 5.3574 0
M  V30 4198 N 397.231 -4.11847 5.68618 0
M  V30 4199 H 402.071 -0.594504 2.9201 0
M  V30 4200 H 399.608 -0.281921 1.44373 0
M  V30 4201 H 401.566 -3.07258 2.82221 0
M  V30 4202 H 400.196 -2.72122 1.73636 0
M  V30 4203 H 399.248 -1.19244 3.61227 0
M  V30 4204 H 400.56 -1.77042 4.66323 0
M  V30 4205 H 399.714 -4.11702 4.4563 0
M  V30 4206 H 398.453 -3.58188 3.30988 0
M  V30 4207 H 397.458 -2.10474 5.07918 0
M  V30 4208 H 398.683 -2.66857 6.24471 0
M  V30 4209 H 396.629 -4.42258 4.84504 0
M  V30 4210 H 396.546 -3.87938 6.48876 0
M  V30 4211 H 397.814 -4.96689 6.00766 0
M  V30 4212 N 402.043 -1.548 -0.295768 0
M  V30 4213 C 403.459 -1.4613 -0.641722 0
M  V30 4214 C 403.659 -0.656771 -1.90496 0
M  V30 4215 O 402.715 -0.166547 -2.5195 0
M  V30 4216 C 404.028 -2.90141 -0.789852 0
M  V30 4217 C 405.576 -3.00216 -0.885396 0
M  V30 4218 C 406.051 -4.45434 -1.06548 0
M  V30 4219 N 407.542 -4.49166 -1.13156 0
M  V30 4220 C 408.277 -5.58717 -1.28929 0
M  V30 4221 N 407.773 -6.78182 -1.41567 0
M  V30 4222 N 409.566 -5.46415 -1.31859 0
M  V30 4223 H 401.717 -2.05574 0.534147 0
M  V30 4224 H 403.98 -0.931259 0.177372 0
M  V30 4225 H 403.686 -3.51635 0.0675598 0
M  V30 4226 H 403.56 -3.37859 -1.67724 0
M  V30 4227 H 405.947 -2.38833 -1.73329 0
M  V30 4228 H 406.028 -2.55787 0.0261185 0
M  V30 4229 H 405.672 -5.07413 -0.222335 0
M  V30 4230 H 405.602 -4.87499 -1.9913 0
M  V30 4231 H 408.093 -3.631 -1.04721 0
M  V30 4232 H 408.406 -7.57428 -1.53372 0
M  V30 4233 H 406.751 -6.81037 -1.38613 0
M  V30 4234 H 409.942 -4.5203 -1.21601 0
M  V30 4235 H 410.115 -6.31841 -1.43808 0
M  V30 4236 N 403.521 0.559213 -1.47345 0
M  V30 4237 C 404.767 1.31843 -1.54095 0
M  V30 4238 C 405.1 1.93149 -0.201726 0
M  V30 4239 O 404.375 1.77759 0.789428 0
M  V30 4240 C 404.658 2.43006 -2.65744 0
M  V30 4241 C 404.511 1.86581 -4.09277 0
M  V30 4242 C 405.83 3.44943 -2.73318 0
M  V30 4243 H 402.949 0.478012 -0.560957 0
M  V30 4244 H 405.591 0.625977 -1.79392 0
M  V30 4245 H 403.741 3.02072 -2.44305 0
M  V30 4246 H 405.413 1.31792 -4.42073 0
M  V30 4247 H 403.656 1.17268 -4.17649 0
M  V30 4248 H 404.327 2.66933 -4.83168 0
M  V30 4249 H 406.803 2.95793 -2.92653 0
M  V30 4250 H 405.679 4.20153 -3.53218 0
M  V30 4251 H 405.94 4.03665 -1.80296 0
M  V30 4252 N 404.999 1.35443 0.805782 0
M  V30 4253 C 405.909 1.30546 1.94923 0
M  V30 4254 C 406.925 0.210233 1.72725 0
M  V30 4255 O 408.101 0.43975 1.9654 0
M  V30 4256 C 405.166 1.07782 3.29521 0
M  V30 4257 C 404.227 2.26625 3.64609 0
M  V30 4258 C 403.46 2.04938 4.92784 0
M  V30 4259 O 403.683 1.01624 5.61274 0
M  V30 4260 O 402.617 2.9232 5.26149 0
M  V30 4261 H 406.443 2.26779 2.02002 0
M  V30 4262 H 404.028 1.15823 0.943682 0
M  V30 4263 H 405.91 0.969392 4.10098 0
M  V30 4264 H 404.585 0.146003 3.23371 0
M  V30 4265 H 403.492 2.43033 2.84404 0
M  V30 4266 H 404.825 3.18257 3.75464 0
M  V30 4267 N 406.477 -1.02803 1.19454 0
M  V30 4268 C 407.409 -2.11181 0.890807 0
M  V30 4269 C 408.422 -1.6238 -0.116829 0
M  V30 4270 O 409.611 -1.78144 0.112694 0
M  V30 4271 C 406.711 -3.37461 0.311942 0
M  V30 4272 C 405.884 -4.15446 1.36834 0
M  V30 4273 C 404.943 -5.20039 0.802864 0
M  V30 4274 O 403.969 -5.49602 1.48077 0
M  V30 4275 N 405.171 -5.79165 -0.393417 0
M  V30 4276 H 407.936 -2.37827 1.82369 0
M  V30 4277 H 405.497 -1.19101 1.09666 0
M  V30 4278 H 407.489 -4.0462 -0.0802225 0
M  V30 4279 H 406.059 -3.08156 -0.52524 0
M  V30 4280 H 405.279 -3.43423 1.93531 0
M  V30 4281 H 406.567 -4.64335 2.08015 0
M  V30 4282 H 405.965 -5.57466 -0.961658 0
M  V30 4283 H 404.522 -6.47729 -0.727351 0
M  V30 4284 N 407.956 -0.998596 -1.21925 0
M  V30 4285 C 409.202 -0.688337 -1.91399 0
M  V30 4286 C 409.557 0.771805 -1.76241 0
M  V30 4287 O 408.85 1.55153 -1.1242 0
M  V30 4288 C 409.044 -1.03648 -3.42041 0
M  V30 4289 C 408.873 -2.52892 -3.71855 0
M  V30 4290 C 407.643 -3.19389 -3.91559 0
M  V30 4291 C 409.841 -3.5103 -3.75875 0
M  V30 4292 N 407.823 -4.5805 -4.08734 0
M  V30 4293 C 409.194 -4.75174 -3.98259 0
M  V30 4294 C 411.249 -3.45257 -3.58751 0
M  V30 4295 C 409.952 -5.94247 -4.05294 0
M  V30 4296 C 411.978 -4.63712 -3.67049 0
M  V30 4297 C 411.34 -5.86658 -3.89887 0
M  V30 4298 H 407.439 -0.303251 -0.720807 0
M  V30 4299 H 410.023 -1.27977 -1.46731 0
M  V30 4300 H 408.194 -0.473569 -3.85502 0
M  V30 4301 H 409.926 -0.681619 -3.98919 0
M  V30 4302 H 406.681 -2.69846 -3.89205 0
M  V30 4303 H 407.105 -5.29989 -4.21237 0
M  V30 4304 H 411.747 -2.51215 -3.40075 0
M  V30 4305 H 409.465 -6.88687 -4.22772 0
M  V30 4306 H 413.051 -4.6084 -3.5513 0
M  V30 4307 H 411.931 -6.76786 -3.96144 0
M  V30 4308 O 409.473 1.33471 -0.909268 0
M  V30 4309 H 410.164 1.86473 -0.524175 0
M  V30 END ATOM
M  V30 BEGIN BOND
M  V30 END BOND
M  V30 END CTAB
M  END
$$$$
