drugbank_target|P35499 Sodium channel protein type 4 subunit alpha (DB00273; DB00555; DB00564; DB01069; DB09085; DB09088; DB09342; DB09345; DB11186; DB13746)
 OpenBabel12092120043D

  0  0  0     0  0            999 V3000
M  V30 BEGIN CTAB
M  V30 COUNTS 29190 29555 0 0 0
M  V30 BEGIN ATOM
M  V30 1 H -0.908 1.98254 -0.117106 0
M  V30 2 N 0 1.576 0 0
M  V30 3 C 0.933 2.03868 1.02534 0
M  V30 4 C 1.911 0.928543 1.3348 0
M  V30 5 O 3.095 1.19667 1.45644 0
M  V30 6 C 0.222 2.43627 2.35294 0
M  V30 7 C -0.732 3.65373 2.2001 0
M  V30 8 S 0.101 5.13292 1.52614 0
M  V30 9 C 1.257 5.56322 2.86805 0
M  V30 10 H 1.49 2.90518 0.631377 0
M  V30 11 H -0.977 1.52953 0.210867 0
M  V30 12 H 0.981 2.67203 3.11629 0
M  V30 13 H -0.358 1.57376 2.7183 0
M  V30 14 H -1.165 3.90944 3.18086 0
M  V30 15 H -1.563 3.418 1.51819 0
M  V30 16 H 0.729 5.58782 3.83104 0
M  V30 17 H 1.672 6.56266 2.65933 0
M  V30 18 H 2.08 4.83886 2.90714 0
M  V30 19 N 1.4781 -0.272755 1.55222 0
M  V30 20 C 2.4411 -1.32041 1.87344 0
M  V30 21 C 3.4411 -1.42342 0.74803 0
M  V30 22 O 4.6311 -1.41488 1.0162 0
M  V30 23 C 1.7631 -2.70173 2.07893 0
M  V30 24 H 2.9561 -1.04789 2.80997 0
M  V30 25 H 0.5091 -0.51083 1.47717 0
M  V30 26 H 1.2441 -3.02605 1.16622 0
M  V30 27 H 1.0291 -2.64082 2.89833 0
M  V30 28 H 2.5191 -3.45869 2.34017 0
M  V30 29 N 2.9562 -1.48159 -0.537278 0
M  V30 30 C 4.3722 -1.34118 -0.865129 0
M  V30 31 C 4.5722 -0.346678 -1.98495 0
M  V30 32 O 3.6282 0.234715 -2.51407 0
M  V30 33 C 4.9412 -2.73963 -1.23954 0
M  V30 34 C 6.4892 -2.82397 -1.34984 0
M  V30 35 C 6.9642 -4.22928 -1.75772 0
M  V30 36 N 8.4552 -4.25566 -1.82887 0
M  V30 37 C 9.1902 -5.31235 -2.15817 0
M  V30 38 N 8.6862 -6.47189 -2.47222 0
M  V30 39 N 10.4792 -5.18624 -2.16761 0
M  V30 40 H 2.6302 -2.1144 0.201715 0
M  V30 41 H 4.8932 -0.947598 0.0275949 0
M  V30 42 H 4.5992 -3.48264 -0.490381 0
M  V30 43 H 4.4732 -3.0702 -2.19132 0
M  V30 44 H 6.8602 -2.08356 -2.08978 0
M  V30 45 H 6.9412 -2.5297 -0.379448 0
M  V30 46 H 6.5852 -4.97482 -1.02341 0
M  V30 47 H 6.5152 -4.49794 -2.73848 0
M  V30 48 H 9.0062 -3.41924 -1.60924 0
M  V30 49 H 9.3192 -7.23564 -2.71433 0
M  V30 50 H 7.6642 -6.50476 -2.44757 0
M  V30 51 H 10.8552 -4.27056 -1.91679 0
M  V30 52 H 11.0282 -6.01078 -2.42093 0
M  V30 53 N 4.4343 0.785586 -1.36625 0
M  V30 54 C 5.8453 1.36101 -1.27803 0
M  V30 55 C 6.1963 1.96035 0.0804875 0
M  V30 56 O 5.3213 1.92834 0.982042 0
M  V30 57 C 5.9163 2.47442 -2.31426 0
M  V30 58 C 4.4753 3.00789 -2.26281 0
M  V30 59 C 3.6223 1.73896 -2.15999 0
M  V30 60 H 6.5733 0.586928 -1.47448 0
M  V30 61 H 6.5943 3.2656 -1.95291 0
M  V30 62 H 6.1063 2.03791 -3.30289 0
M  V30 63 H 4.2073 3.48851 -1.30896 0
M  V30 64 H 4.3203 3.57343 -3.19128 0
M  V30 65 H 2.6843 1.9628 -1.62316 0
M  V30 66 H 3.4673 1.32368 -3.16755 0
M  V30 67 N 5.9124 1.20967 1.01018 0
M  V30 68 C 7.1374 1.0503 1.78839 0
M  V30 69 C 7.5624 -0.395752 1.8389 0
M  V30 70 O 6.9204 -1.28529 1.27867 0
M  V30 71 C 6.9684 1.64602 3.2084 0
M  V30 72 O 6.0724 0.887988 4.02726 0
M  V30 73 H 5.4134 0.369987 0.551367 0
M  V30 74 H 7.9434 1.60399 1.27018 0
M  V30 75 H 7.9534 1.68607 3.71532 0
M  V30 76 H 6.6284 2.69841 3.16479 0
M  V30 77 H 5.2054 0.922648 3.61305 0
M  V30 78 N 7.3905 -1.2043 1.01659 0
M  V30 79 C 8.3205 -2.25466 0.607226 0
M  V30 80 C 9.3015 -1.65853 -0.377716 0
M  V30 81 O 10.4865 -1.92409 -0.263149 0
M  V30 82 C 7.6165 -3.47256 -0.0552949 0
M  V30 83 C 6.5705 -4.19462 0.850632 0
M  V30 84 C 5.8965 -5.34673 0.0538859 0
M  V30 85 C 7.1965 -4.75603 2.15868 0
M  V30 86 H 8.8905 -2.59962 1.48526 0
M  V30 87 H 6.4365 -1.2496 0.715605 0
M  V30 88 H 8.3895 -4.19917 -0.353233 0
M  V30 89 H 7.1135 -3.11924 -0.968045 0
M  V30 90 H 5.7725 -3.48667 1.13257 0
M  V30 91 H 5.4205 -4.95585 -0.860514 0
M  V30 92 H 5.1205 -5.83913 0.657192 0
M  V30 93 H 6.6445 -6.10138 -0.237598 0
M  V30 94 H 8.0585 -5.40083 1.92311 0
M  V30 95 H 6.4555 -5.3528 2.71284 0
M  V30 96 H 7.5255 -3.94346 2.82169 0
M  V30 97 N 8.8686 -0.792821 -1.36206 0
M  V30 98 C 10.1086 -0.372238 -2.00982 0
M  V30 99 C 10.4726 1.03749 -1.61555 0
M  V30 100 O 11.6736 1.55934 -2.18948 0
M  V30 101 C 9.9446 -0.534566 -3.5338 0
M  V30 102 S 11.5036 -0.202365 -4.38333 0
M  V30 103 H 8.3216 -0.142044 -0.696667 0
M  V30 104 H 10.9236 -1.03206 -1.66039 0
M  V30 105 H 9.6276 -1.5608 -3.79562 0
M  V30 106 H 9.1586 0.141065 -3.93147 0
M  V30 107 H 11.1736 0.994869 -4.86124 0
M  V30 108 N 10.3467 1.47872 -0.545128 0
M  V30 109 C 11.5747 2.06889 -0.021084 0
M  V30 110 C 11.9897 1.39955 1.2672 0
M  V30 111 O 11.3467 0.492036 1.75742 0
M  V30 112 C 11.3977 3.60996 0.190817 0
M  V30 113 O 11.1187 4.25419 -1.04644 0
M  V30 114 C 12.6197 4.36849 0.753521 0
M  V30 115 H 9.8397 0.669785 -0.0403635 0
M  V30 116 H 12.3837 1.90049 -0.755095 0
M  V30 117 H 10.5387 3.77391 0.87492 0
M  V30 118 H 10.9527 5.17785 -0.836611 0
M  V30 119 H 12.4267 5.45399 0.851139 0
M  V30 120 H 12.9037 4.02306 1.762 0
M  V30 121 H 13.5097 4.25169 0.105503 0
M  V30 122 N 11.8248 0.280983 1.55075 0
M  V30 123 C 12.7548 -0.597469 2.25727 0
M  V30 124 C 13.7358 -1.15417 1.24952 0
M  V30 125 O 14.9208 -1.18722 1.53684 0
M  V30 126 C 12.0508 -1.7789 2.98283 0
M  V30 127 C 11.0048 -1.35347 4.06036 0
M  V30 128 C 10.3308 -2.61846 4.66198 0
M  V30 129 C 11.6308 -0.499354 5.19907 0
M  V30 130 H 13.3248 -0.00824265 2.99399 0
M  V30 131 H 10.8708 -0.0025244 1.44 0
M  V30 132 H 12.8238 -2.39937 3.46422 0
M  V30 133 H 11.5478 -2.39405 2.22155 0
M  V30 134 H 10.2068 -0.756156 3.58717 0
M  V30 135 H 9.8548 -3.21632 3.86732 0
M  V30 136 H 9.5548 -2.3409 5.38958 0
M  V30 137 H 11.0788 -3.24732 5.1709 0
M  V30 138 H 12.4928 -1.02498 5.64063 0
M  V30 139 H 10.8898 -0.316424 5.99265 0
M  V30 140 H 11.9598 0.480459 4.82514 0
M  V30 141 N 13.3029 -1.57598 0.00835791 0
M  V30 142 C 14.5489 -1.91211 -0.675732 0
M  V30 143 C 14.8819 -0.883139 -1.72958 0
M  V30 144 O 14.1569 0.097016 -1.94258 0
M  V30 145 C 14.4399 -3.35379 -1.31123 0
M  V30 146 C 14.2929 -4.48999 -0.268356 0
M  V30 147 C 15.6119 -3.7912 -2.23508 0
M  V30 148 H 12.7309 -0.695374 -0.244179 0
M  V30 149 H 15.3729 -1.89901 0.0613655 0
M  V30 150 H 13.5229 -3.36626 -1.93946 0
M  V30 151 H 15.1949 -4.59887 0.360844 0
M  V30 152 H 13.4379 -4.31873 0.408482 0
M  V30 153 H 14.1089 -5.46851 -0.752218 0
M  V30 154 H 16.5849 -3.79477 -1.70693 0
M  V30 155 H 15.4609 -4.80729 -2.64936 0
M  V30 156 H 15.7219 -3.13455 -3.11766 0
M  V30 157 N 14.781 0.264519 -1.55364 0
M  V30 158 C 16.192 0.834936 -1.6699 0
M  V30 159 C 16.543 1.86718 -0.602552 0
M  V30 160 O 15.668 2.14899 0.254425 0
M  V30 161 C 16.263 1.5212 -3.02729 0
M  V30 162 C 14.822 2.03954 -3.16354 0
M  V30 163 C 13.969 0.884498 -2.62815 0
M  V30 164 H 16.92 0.0406869 -1.58648 0
M  V30 165 H 16.941 2.38853 -2.96191 0
M  V30 166 H 16.453 0.769668 -3.80392 0
M  V30 167 H 14.554 2.82041 -2.43482 0
M  V30 168 H 14.667 2.24902 -4.23032 0
M  V30 169 H 13.031 1.2802 -2.20188 0
M  V30 170 H 13.814 0.14634 -3.42988 0
M  V30 171 N 16.2591 1.48442 0.529413 0
M  V30 172 C 17.1891 1.65902 1.64313 0
M  V30 173 C 18.1701 0.507897 1.6234 0
M  V30 174 O 19.3551 0.740503 1.79528 0
M  V30 175 C 16.4851 1.69911 3.02898 0
M  V30 176 C 15.4391 2.8453 3.19729 0
M  V30 177 C 14.7651 2.73629 4.59381 0
M  V30 178 C 16.0651 4.25821 3.02447 0
M  V30 179 H 17.7591 2.5914 1.49955 0
M  V30 180 H 15.3051 1.24709 0.719982 0
M  V30 181 H 17.2581 1.80715 3.80684 0
M  V30 182 H 15.9821 0.732524 3.18279 0
M  V30 183 H 14.6411 2.73283 2.44361 0
M  V30 184 H 14.2891 1.74938 4.71599 0
M  V30 185 H 13.9891 3.50541 4.71588 0
M  V30 186 H 15.5131 2.86401 5.39265 0
M  V30 187 H 16.9271 4.37898 3.70024 0
M  V30 188 H 15.3241 5.03735 3.26146 0
M  V30 189 H 16.3941 4.42244 1.98867 0
M  V30 190 N 17.7372 -0.778329 1.37039 0
M  V30 191 C 18.9852 -1.53361 1.31623 0
M  V30 192 C 19.3062 -1.94739 -0.100831 0
M  V30 193 O 18.5762 -1.65797 -1.04347 0
M  V30 194 H 17.1562 -0.568794 0.484234 0
M  V30 195 H 19.8182 -0.926742 1.71457 0
M  V30 196 H 18.9142 -2.43606 1.95096 0
M  V30 197 N 19.2153 -1.21501 -1.00376 0
M  V30 198 C 20.6263 -1.03146 -1.55621 0
M  V30 199 C 20.9773 0.408375 -1.91903 0
M  V30 200 O 20.1023 1.29177 -1.73616 0
M  V30 201 C 20.6973 -1.86612 -2.82775 0
M  V30 202 C 19.2563 -1.72586 -3.34501 0
M  V30 203 C 18.4033 -1.83747 -2.07683 0
M  V30 204 H 21.3543 -1.35505 -0.826081 0
M  V30 205 H 21.3753 -1.3771 -3.54706 0
M  V30 206 H 20.8873 -2.91399 -2.56336 0
M  V30 207 H 18.9883 -0.704877 -3.65872 0
M  V30 208 H 19.1013 -2.54623 -4.05837 0
M  V30 209 H 17.4653 -1.27069 -2.20739 0
M  V30 210 H 18.2483 -2.90044 -1.83655 0
M  V30 211 N 20.6934 1.19889 -1.02296 0
M  V30 212 C 21.6034 2.26571 -0.608508 0
M  V30 213 C 22.6194 1.70299 0.356964 0
M  V30 214 O 23.7954 2.00235 0.216326 0
M  V30 215 C 20.8604 3.46677 0.0402814 0
M  V30 216 C 19.9214 4.18153 -0.97194 0
M  V30 217 C 19.1544 5.32525 -0.354016 0
M  V30 218 O 19.3774 5.64112 0.844604 0
M  V30 219 O 18.3114 5.92242 -1.07391 0
M  V30 220 H 22.1374 2.64251 -1.49684 0
M  V30 221 H 19.7224 1.26629 -0.792809 0
M  V30 222 H 21.6044 4.19475 0.402324 0
M  V30 223 H 20.2794 3.10858 0.902707 0
M  V30 224 H 19.1864 3.47499 -1.38546 0
M  V30 225 H 20.5194 4.57927 -1.80454 0
M  V30 226 N 22.1715 0.800033 1.35784 0
M  V30 227 C 23.4115 0.382891 2.00782 0
M  V30 228 C 23.7755 -1.02891 1.62103 0
M  V30 229 O 24.9765 -1.54771 2.19771 0
M  V30 230 C 23.2475 0.553299 3.53091 0
M  V30 231 S 24.8065 0.225608 4.3822 0
M  V30 232 H 21.6245 0.145737 0.695904 0
M  V30 233 H 24.2265 1.04085 1.65489 0
M  V30 234 H 22.9305 1.58091 3.78729 0
M  V30 235 H 22.4615 -0.120214 3.93216 0
M  V30 236 H 24.4765 -0.969074 4.86645 0
M  V30 237 N 23.6496 -1.47581 0.552962 0
M  V30 238 C 24.5796 -2.32762 -0.185451 0
M  V30 239 C 25.5606 -1.43527 -0.912905 0
M  V30 240 O 26.7456 -1.72388 -0.894201 0
M  V30 241 C 23.8756 -3.25219 -1.21859 0
M  V30 242 C 22.8296 -4.23661 -0.607864 0
M  V30 243 C 22.1556 -5.05413 -1.74533 0
M  V30 244 C 23.4556 -5.20481 0.435582 0
M  V30 245 H 25.1496 -2.94749 0.525684 0
M  V30 246 H 22.6956 -1.41738 0.254251 0
M  V30 247 H 24.6486 -3.8365 -1.7433 0
M  V30 248 H 23.3726 -2.61279 -1.95961 0
M  V30 249 H 22.0316 -3.66451 -0.104489 0
M  V30 250 H 21.6796 -4.3788 -2.47529 0
M  V30 251 H 21.3796 -5.72059 -1.34249 0
M  V30 252 H 22.9036 -5.66701 -2.27338 0
M  V30 253 H 24.3176 -5.733 -0.00290157 0
M  V30 254 H 22.7146 -5.95305 0.757067 0
M  V30 255 H 23.7846 -4.66217 1.33303 0
M  V30 256 N 25.1277 -0.289203 -1.54924 0
M  V30 257 C 26.5437 0.0645403 -1.59469 0
M  V30 258 C 26.7437 1.53419 -1.30632 0
M  V30 259 O 25.7997 2.2852 -1.074 0
M  V30 260 C 27.1127 -0.32278 -2.98963 0
M  V30 261 C 28.6607 -0.270564 -3.11828 0
M  V30 262 C 29.1357 -0.632532 -4.53611 0
M  V30 263 N 30.6267 -0.584617 -4.59496 0
M  V30 264 C 31.3617 -0.837314 -5.67254 0
M  V30 265 N 30.8577 -1.15536 -6.83098 0
M  V30 266 N 32.6507 -0.765166 -5.56868 0
M  V30 267 H 24.8017 -1.24714 -1.71931 0
M  V30 268 H 27.0647 -0.504809 -0.802416 0
M  V30 269 H 26.7707 -1.34541 -3.24948 0
M  V30 270 H 26.6447 0.32944 -3.75759 0
M  V30 271 H 29.0317 0.742805 -2.85598 0
M  V30 272 H 29.1127 -0.957242 -2.37214 0
M  V30 273 H 28.7567 -1.64365 -4.80569 0
M  V30 274 H 28.6867 0.07609 -5.26545 0
M  V30 275 H 31.1777 -0.349248 -3.76283 0
M  V30 276 H 31.4907 -1.33447 -7.61191 0
M  V30 277 H 29.8357 -1.19328 -6.84679 0
M  V30 278 H 33.0267 -0.516432 -4.65243 0
M  V30 279 H 33.1997 -0.965477 -6.40767 0
M  V30 280 N 26.6058 1.57591 -0.0167156 0
M  V30 281 C 28.0168 1.79201 0.523834 0
M  V30 282 C 28.3678 0.925796 1.72984 0
M  V30 283 O 27.4928 0.132792 2.15992 0
M  V30 284 C 28.0878 3.25 0.957091 0
M  V30 285 C 26.6468 3.47648 1.44283 0
M  V30 286 C 25.7938 2.74374 0.401757 0
M  V30 287 H 28.7448 1.56831 -0.242816 0
M  V30 288 H 28.7658 3.34031 1.82219 0
M  V30 289 H 28.2778 3.88019 0.0791415 0
M  V30 290 H 26.3788 2.89866 2.34113 0
M  V30 291 H 26.4918 4.56352 1.45877 0
M  V30 292 H 24.8558 2.39485 0.867121 0
M  V30 293 H 25.6388 3.40102 -0.467513 0
M  V30 294 N 28.0839 -0.256276 1.55502 0
M  V30 295 C 29.3309 -0.985619 1.76895 0
M  V30 296 C 29.6589 -1.85671 0.579355 0
M  V30 297 O 28.9139 -1.90744 -0.437651 0
M  V30 298 C 29.2129 -1.88432 3.03691 0
M  V30 299 C 28.8789 -1.16936 4.35473 0
M  V30 300 C 27.5409 -0.97173 4.71286 0
M  V30 301 C 29.8929 -0.661889 5.1698 0
M  V30 302 C 27.2209 -0.254179 5.86149 0
M  V30 303 C 29.5729 0.042149 6.32586 0
M  V30 304 C 28.2369 0.25134 6.67027 0
M  V30 305 H 27.5069 -0.360663 0.647304 0
M  V30 306 H 30.1539 -0.256483 1.89775 0
M  V30 307 H 28.4589 -2.68021 2.85783 0
M  V30 308 H 30.1559 -2.45015 3.1744 0
M  V30 309 H 26.7459 -1.33332 4.07333 0
M  V30 310 H 30.9299 -0.802145 4.89775 0
M  V30 311 H 26.1859 -0.0815408 6.11346 0
M  V30 312 H 30.3599 0.443049 6.94989 0
M  V30 313 H 27.9869 0.809314 7.5588 0
M  V30 314 N 29.562 -1.4872 -0.521534 0
M  V30 315 C 30.79 -1.60843 -1.30142 0
M  V30 316 C 31.205 -0.271897 -1.86832 0
M  V30 317 O 30.562 0.739969 -1.66825 0
M  V30 318 C 30.613 -2.66155 -2.4463 0
M  V30 319 O 30.334 -3.94623 -1.90275 0
M  V30 320 C 31.835 -2.88795 -3.36322 0
M  V30 321 H 29.055 -0.542075 -0.395468 0
M  V30 322 H 31.599 -1.94609 -0.628285 0
M  V30 323 H 29.754 -2.35224 -3.07812 0
M  V30 324 H 30.168 -4.52468 -2.65279 0
M  V30 325 H 31.642 -3.66264 -4.12983 0
M  V30 326 H 32.119 -1.97934 -3.9207 0
M  V30 327 H 32.725 -3.21063 -2.78924 0
M  V30 328 N 31.0401 0.771051 -1.3745 0
M  V30 329 C 32.4561 1.07171 -1.18265 0
M  V30 330 C 32.6561 2.01491 -0.019287 0
M  V30 331 O 31.7121 2.44244 0.640408 0
M  V30 332 C 33.0251 1.66854 -2.50161 0
M  V30 333 C 34.5731 1.79109 -2.56689 0
M  V30 334 C 35.0481 2.42205 -3.88717 0
M  V30 335 N 36.5391 2.49655 -3.90162 0
M  V30 336 C 37.2741 2.9933 -4.8907 0
M  V30 337 N 36.7701 3.49172 -5.98374 0
M  V30 338 N 38.5631 2.9821 -4.76474 0
M  V30 339 H 30.7141 0.144796 -2.11906 0
M  V30 340 H 32.9771 0.126863 -0.939473 0
M  V30 341 H 32.6831 1.05017 -3.35655 0
M  V30 342 H 32.5571 2.6614 -2.673 0
M  V30 343 H 34.9441 2.40077 -1.71601 0
M  V30 344 H 35.0251 0.785757 -2.43433 0
M  V30 345 H 34.6691 1.81875 -4.74219 0
M  V30 346 H 34.5991 3.43345 -3.99276 0
M  V30 347 H 37.0901 2.14383 -3.11205 0
M  V30 348 H 37.4031 3.8548 -6.69795 0
M  V30 349 H 35.7481 3.47275 -6.02018 0
M  V30 350 H 38.9391 2.58572 -3.90203 0
M  V30 351 H 39.1121 3.36613 -5.53711 0
M  V30 352 N 32.5182 1.22032 0.997298 0
M  V30 353 C 33.4282 1.00271 2.12092 0
M  V30 354 C 34.4442 -0.047621 1.73935 0
M  V30 355 O 35.6202 0.144136 2.00884 0
M  V30 356 C 32.6852 0.578449 3.4184 0
M  V30 357 C 31.7462 1.70189 3.94125 0
M  V30 358 C 30.9792 1.29778 5.17681 0
M  V30 359 O 31.2022 0.174676 5.70132 0
M  V30 360 O 30.1362 2.11261 5.63607 0
M  V30 361 H 33.9622 1.94398 2.3333 0
M  V30 362 H 31.5472 1.00587 1.10465 0
M  V30 363 H 33.4292 0.351998 4.19927 0
M  V30 364 H 32.1042 -0.334019 3.21972 0
M  V30 365 H 31.0112 1.98282 3.1723 0
M  V30 366 H 32.3442 2.59206 4.18417 0
M  V30 367 N 33.9963 -1.19345 1.0293 0
M  V30 368 C 35.2213 -1.93538 0.745511 0
M  V30 369 C 35.6463 -1.75007 -0.689511 0
M  V30 370 O 35.0043 -1.05265 -1.47611 0
M  V30 371 C 35.0523 -3.43336 1.10239 0
M  V30 372 O 34.1563 -4.11806 0.221289 0
M  V30 373 H 33.4973 -0.604193 0.275404 0
M  V30 374 H 36.0273 -1.5141 1.37609 0
M  V30 375 H 36.0373 -3.94004 1.05947 0
M  V30 376 H 34.7123 -3.56146 2.14786 0
M  V30 377 H 33.2893 -3.715 0.322842 0
M  V30 378 N 35.4744 -0.807222 -1.35358 0
M  V30 379 C 36.4044 -0.232509 -2.3234 0
M  V30 380 C 37.3854 0.642386 -1.57504 0
M  V30 381 O 38.5704 0.572526 -1.85569 0
M  V30 382 C 35.7004 0.619238 -3.41735 0
M  V30 383 C 34.6544 -0.157215 -4.27711 0
M  V30 384 C 33.9804 0.816273 -5.28433 0
M  V30 385 C 35.2804 -1.35656 -5.04376 0
M  V30 386 H 36.9744 -1.04276 -2.80654 0
M  V30 387 H 34.5204 -0.50288 -1.34934 0
M  V30 388 H 36.4734 1.03137 -4.08584 0
M  V30 389 H 35.1974 1.46239 -2.92031 0
M  V30 390 H 33.8564 -0.550525 -3.62443 0
M  V30 391 H 33.5044 1.65494 -4.74996 0
M  V30 392 H 33.2044 0.301067 -5.86828 0
M  V30 393 H 34.7284 1.22659 -5.98153 0
M  V30 394 H 36.1424 -1.01927 -5.64166 0
M  V30 395 H 34.5394 -1.8063 -5.7227 0
M  V30 396 H 35.6094 -2.14288 -4.34981 0
M  V30 397 N 36.9525 1.47285 -0.560781 0
M  V30 398 C 37.9155 2.28535 0.174488 0
M  V30 399 C 38.9155 1.37153 0.839388 0
M  V30 400 O 40.1055 1.59748 0.694702 0
M  V30 401 C 37.2375 3.16934 1.25561 0
M  V30 402 H 38.4305 2.95012 -0.539262 0
M  V30 403 H 35.9835 1.53034 -0.317865 0
M  V30 404 H 36.7185 2.55157 2.00164 0
M  V30 405 H 36.5035 3.8419 0.783604 0
M  V30 406 H 37.9935 3.78143 1.77193 0
M  V30 407 N 38.4306 0.297415 1.54768 0
M  V30 408 C 39.3936 -0.567375 2.22066 0
M  V30 409 C 40.3936 -1.06409 1.20556 0
M  V30 410 O 41.5836 -0.960691 1.45315 0
M  V30 411 C 38.7156 -1.78517 2.90421 0
M  V30 412 H 39.9086 0.0205534 2.99893 0
M  V30 413 H 37.4616 0.0482163 1.56226 0
M  V30 414 H 38.1966 -2.41303 2.16664 0
M  V30 415 H 37.9816 -1.43669 3.64831 0
M  V30 416 H 39.4716 -2.39964 3.41771 0
M  V30 417 N 39.9087 -1.5758 0.0250728 0
M  V30 418 C 41.1577 -1.90811 -0.653767 0
M  V30 419 C 41.4707 -0.90273 -1.73523 0
M  V30 420 O 42.6767 -1.12614 -2.47043 0
M  V30 421 C 41.1327 -3.38804 -1.21409 0
M  V30 422 C 40.7407 -4.47692 -0.166126 0
M  V30 423 C 42.4847 -3.81108 -1.86967 0
M  V30 424 C 40.3917 -5.86779 -0.737856 0
M  V30 425 H 39.3217 -0.712063 -0.247956 0
M  V30 426 H 41.9727 -1.83281 0.0897137 0
M  V30 427 H 40.3547 -3.41252 -2.00905 0
M  V30 428 H 41.5287 -4.56797 0.606079 0
M  V30 429 H 39.8437 -4.14565 0.390466 0
M  V30 430 H 42.4407 -4.82375 -2.30692 0
M  V30 431 H 42.7837 -3.15953 -2.71071 0
M  V30 432 H 43.3167 -3.81065 -1.14167 0
M  V30 433 H 40.0557 -6.55468 0.0649577 0
M  V30 434 H 39.5757 -5.81288 -1.47864 0
M  V30 435 H 41.2547 -6.35223 -1.22884 0
M  V30 436 N 41.3868 0.248026 -1.55636 0
M  V30 437 C 42.2968 1.32859 -1.93354 0
M  V30 438 C 43.3128 1.52719 -0.833838 0
M  V30 439 O 44.4888 1.66363 -1.13513 0
M  V30 440 C 41.5538 2.66337 -2.21958 0
M  V30 441 C 40.6148 2.55008 -3.45354 0
M  V30 442 C 39.8478 3.82121 -3.72584 0
M  V30 443 O 40.0708 4.83951 -3.01907 0
M  V30 444 O 39.0048 3.80822 -4.6611 0
M  V30 445 H 42.8308 1.03862 -2.85388 0
M  V30 446 H 40.4158 0.448686 -1.42503 0
M  V30 447 H 42.2978 3.45216 -2.4167 0
M  V30 448 H 40.9728 2.95068 -1.33103 0
M  V30 449 H 39.8798 1.7442 -3.30951 0
M  V30 450 H 41.2128 2.31222 -4.34508 0
M  V30 451 N 42.8649 1.48995 0.513639 0
M  V30 452 C 43.7969 1.60836 1.63293 0
M  V30 453 C 44.8099 0.491701 1.55197 0
M  V30 454 O 45.9989 0.763238 1.6136 0
M  V30 455 C 43.0989 1.53731 3.02027 0
M  V30 456 C 42.2719 2.80715 3.35437 0
M  V30 457 C 41.3309 2.66837 4.53525 0
M  V30 458 O 40.3569 3.40753 4.55934 0
M  V30 459 N 41.5589 1.77539 5.52684 0
M  V30 460 H 44.3239 2.57366 1.53566 0
M  V30 461 H 41.8849 1.45925 0.701259 0
M  V30 462 H 43.8769 1.42118 3.78926 0
M  V30 463 H 42.4469 0.651092 3.05744 0
M  V30 464 H 41.6669 3.06772 2.47557 0
M  V30 465 H 42.9549 3.64927 3.54551 0
M  V30 466 H 42.3529 1.16719 5.53528 0
M  V30 467 H 40.9099 1.71856 6.28736 0
M  V30 468 N 44.343 -0.763751 1.37857 0
M  V30 469 C 45.759 -1.06542 1.18832 0
M  V30 470 C 45.959 -2.01478 0.0299722 0
M  V30 471 O 45.015 -2.4458 -0.627447 0
M  V30 472 C 46.328 -1.65525 2.51042 0
M  V30 473 C 47.876 -1.77745 2.57635 0
M  V30 474 C 48.351 -2.4014 3.89996 0
M  V30 475 N 49.842 -2.47582 3.91481 0
M  V30 476 C 50.577 -2.96732 4.9065 0
M  V30 477 N 50.073 -3.45993 6.00217 0
M  V30 478 N 51.866 -2.95679 4.78048 0
M  V30 479 H 44.017 -0.133556 2.1198 0
M  V30 480 H 46.28 -0.121879 0.940133 0
M  V30 481 H 45.986 -1.03236 3.36207 0
M  V30 482 H 45.86 -2.64719 2.68707 0
M  V30 483 H 48.247 -2.39164 1.72872 0
M  V30 484 H 48.328 -0.772836 2.43846 0
M  V30 485 H 47.972 -1.79358 4.75177 0
M  V30 486 H 47.902 -3.41223 4.01092 0
M  V30 487 H 50.393 -2.1273 3.12337 0
M  V30 488 H 50.706 -3.81922 6.7183 0
M  V30 489 H 49.051 -3.44077 6.03851 0
M  V30 490 H 52.242 -2.56499 3.91568 0
M  V30 491 H 52.415 -3.33672 5.55488 0
M  V30 492 N 45.8211 -1.22559 -0.990812 0
M  V30 493 C 46.7841 -0.998863 -2.0629 0
M  V30 494 C 47.7841 0.0354834 -1.60761 0
M  V30 495 O 48.9741 -0.203231 -1.7301 0
M  V30 496 C 46.1061 -0.509203 -3.37076 0
M  V30 497 H 47.2991 -1.95014 -2.27837 0
M  V30 498 H 44.8521 -1.04456 -1.16269 0
M  V30 499 H 45.5871 0.446335 -3.21214 0
M  V30 500 H 45.3721 -1.25547 -3.71457 0
M  V30 501 H 46.8621 -0.370888 -4.1595 0
M  V30 502 N 47.2992 1.18797 -1.03562 0
M  V30 503 C 48.5452 1.8893 -0.737113 0
M  V30 504 C 48.8782 1.79837 0.732956 0
M  V30 505 O 48.1532 1.19525 1.5344 0
M  V30 506 C 48.4362 3.39607 -1.19745 0
M  V30 507 C 48.2892 3.57537 -2.72924 0
M  V30 508 C 49.6082 4.33069 -0.783526 0
M  V30 509 H 46.7272 0.686057 -0.269249 0
M  V30 510 H 49.3692 1.39797 -1.28673 0
M  V30 511 H 47.5192 3.81583 -0.729855 0
M  V30 512 H 49.1912 3.24688 -3.27682 0
M  V30 513 H 47.4342 3.00363 -3.12993 0
M  V30 514 H 48.1052 4.63238 -3.00191 0
M  V30 515 H 50.5812 3.98846 -1.18581 0
M  V30 516 H 49.4572 5.3707 -1.13343 0
M  V30 517 H 49.7182 4.40986 0.313681 0
M  V30 518 N 48.7773 0.814389 1.34928 0
M  V30 519 C 49.6873 0.231978 2.3345 0
M  V30 520 C 50.7033 -0.629139 1.62228 0
M  V30 521 O 51.8793 -0.539052 1.94052 0
M  V30 522 C 48.9443 -0.603482 3.41407 0
M  V30 523 C 48.0053 0.279037 4.28392 0
M  V30 524 C 47.2383 -0.516643 5.31193 0
M  V30 525 O 47.4613 -1.75068 5.4287 0
M  V30 526 O 46.3953 0.0965652 6.01823 0
M  V30 527 H 50.2213 1.04721 2.85074 0
M  V30 528 H 47.8063 0.576343 1.37836 0
M  V30 529 H 49.6883 -1.07908 4.0735 0
M  V30 530 H 48.3633 -1.39618 2.92042 0
M  V30 531 H 47.2703 0.801948 3.65403 0
M  V30 532 H 48.6033 1.03588 4.81176 0
M  V30 533 N 50.2554 -1.46986 0.568584 0
M  V30 534 C 51.1654 -2.33942 -0.17555 0
M  V30 535 C 52.1814 -1.48891 -0.90041 0
M  V30 536 O 53.3574 -1.81794 -0.86676 0
M  V30 537 C 50.4224 -3.25811 -1.18524 0
M  V30 538 C 49.4834 -4.26757 -0.466582 0
M  V30 539 C 48.7164 -5.14236 -1.42817 0
M  V30 540 O 48.9394 -5.04379 -2.66379 0
M  V30 541 O 47.8734 -5.94412 -0.946453 0
M  V30 542 H 51.6994 -2.98896 0.538036 0
M  V30 543 H 49.2844 -1.4573 0.329097 0
M  V30 544 H 51.1664 -3.82527 -1.76779 0
M  V30 545 H 49.8414 -2.63471 -1.88055 0
M  V30 546 H 48.7484 -3.73769 0.157451 0
M  V30 547 H 50.0814 -4.91843 0.187485 0
M  V30 548 N 51.7335 -0.305618 -1.54608 0
M  V30 549 C 52.6435 0.57778 -2.27374 0
M  V30 550 C 53.6595 1.14451 -1.31061 0
M  V30 551 O 54.8355 1.16831 -1.6405 0
M  V30 552 C 51.9005 1.73123 -3.00382 0
M  V30 553 C 50.9615 1.19812 -4.12242 0
M  V30 554 C 50.1945 2.2966 -4.81759 0
M  V30 555 O 50.4175 3.49651 -4.50666 0
M  V30 556 O 49.3515 1.96091 -5.69062 0
M  V30 557 H 53.1775 -0.012624 -3.03697 0
M  V30 558 H 50.7625 -0.0719184 -1.49227 0
M  V30 559 H 52.6445 2.40315 -3.4616 0
M  V30 560 H 51.3195 2.30815 -2.26949 0
M  V30 561 H 50.2265 0.491798 -3.70853 0
M  V30 562 H 51.5595 0.666566 -4.87666 0
M  V30 563 N 53.2116 1.57565 -0.0334293 0
M  V30 564 C 54.1746 2.09393 0.932048 0
M  V30 565 C 55.1746 1.00986 1.25134 0
M  V30 566 O 56.3646 1.27129 1.19096 0
M  V30 567 C 53.4966 2.56338 2.2473 0
M  V30 568 H 54.6896 2.95984 0.483085 0
M  V30 569 H 52.2426 1.54819 0.21468 0
M  V30 570 H 52.9776 1.7309 2.74245 0
M  V30 571 H 52.7626 3.35542 2.02865 0
M  V30 572 H 54.2526 2.96646 2.93923 0
M  V30 573 N 54.6897 -0.239769 1.55765 0
M  V30 574 C 56.1057 -0.588624 1.48349 0
M  V30 575 C 56.3057 -1.88005 0.72502 0
M  V30 576 O 55.3617 -2.51186 0.257269 0
M  V30 577 C 56.6747 -0.68474 2.928 0
M  V30 578 C 58.2227 -0.77659 3.03213 0
M  V30 579 C 58.6977 -0.904207 4.48986 0
M  V30 580 N 60.1887 -0.968896 4.52953 0
M  V30 581 C 60.9237 -1.08703 5.63002 0
M  V30 582 N 60.4197 -1.17026 6.82845 0
M  V30 583 N 62.2127 -1.12074 5.50814 0
M  V30 584 H 54.3637 0.607911 2.03515 0
M  V30 585 H 56.6267 0.21083 0.924259 0
M  V30 586 H 56.3327 0.194284 3.51163 0
M  V30 587 H 56.2067 -1.55435 3.43686 0
M  V30 588 H 58.5937 -1.64606 2.44926 0
M  V30 589 H 58.6747 0.118315 2.55526 0
M  V30 590 H 58.3187 -0.0392633 5.07885 0
M  V30 591 H 58.2487 -1.81426 4.9436 0
M  V30 592 H 60.7397 -0.915633 3.6664 0
M  V30 593 H 61.0527 -1.25966 7.62465 0
M  V30 594 H 59.3977 -1.13971 6.85591 0
M  V30 595 H 62.5887 -1.05226 4.5612 0
M  V30 596 H 62.7617 -1.20936 6.36615 0
M  V30 597 N 56.1678 -1.49265 -0.50573 0
M  V30 598 C 57.0978 -1.68495 -1.61653 0
M  V30 599 C 58.0788 -0.53366 -1.61512 0
M  V30 600 O 59.2638 -0.76897 -1.78327 0
M  V30 601 C 56.3938 -1.74709 -3.00157 0
M  V30 602 C 55.3478 -2.89581 -3.15162 0
M  V30 603 C 54.6738 -2.80903 -4.5497 0
M  V30 604 C 55.9738 -4.30578 -2.95634 0
M  V30 605 H 57.6678 -2.61493 -1.45814 0
M  V30 606 H 55.2138 -1.25838 -0.70005 0
M  V30 607 H 57.1668 -1.86748 -3.77761 0
M  V30 608 H 55.8908 -0.783067 -3.17074 0
M  V30 609 H 54.5498 -2.77136 -2.39982 0
M  V30 610 H 54.1978 -1.82419 -4.68756 0
M  V30 611 H 53.8978 -3.57999 -4.65951 0
M  V30 612 H 55.4218 -2.94944 -5.34641 0
M  V30 613 H 56.8358 -4.4373 -3.63011 0
M  V30 614 H 55.2328 -5.0886 -3.18091 0
M  V30 615 H 56.3028 -4.45352 -1.91806 0
M  V30 616 N 57.6459 0.756429 -1.3826 0
M  V30 617 C 58.5779 1.87971 -1.31147 0
M  V30 618 C 59.5909 1.61248 -0.224239 0
M  V30 619 O 60.7799 1.71881 -0.481581 0
M  V30 620 C 57.8799 3.23545 -1.00857 0
M  V30 621 C 57.0529 3.77794 -2.20432 0
M  V30 622 C 56.1119 4.91877 -1.86931 0
M  V30 623 O 55.1379 5.06659 -2.59395 0
M  V30 624 N 56.3399 5.74643 -0.822568 0
M  V30 625 H 59.1049 1.94585 -2.2794 0
M  V30 626 H 56.6659 0.936234 -1.32084 0
M  V30 627 H 58.6579 3.97403 -0.765021 0
M  V30 628 H 57.2279 3.12335 -0.128687 0
M  V30 629 H 56.4479 2.95534 -2.6087 0
M  V30 630 H 57.7359 4.10771 -3.00241 0
M  V30 631 H 57.1339 5.65266 -0.221575 0
M  V30 632 H 55.6909 6.48661 -0.638899 0
M  V30 633 N 59.124 1.23083 0.984299 0
M  V30 634 C 60.54 0.992637 1.24975 0
M  V30 635 C 60.74 -0.308618 1.99123 0
M  V30 636 O 59.796 -1.02905 2.30579 0
M  V30 637 C 61.109 2.19698 2.05312 0
M  V30 638 C 62.657 2.24147 2.18465 0
M  V30 639 C 63.132 3.44157 3.02192 0
M  V30 640 N 64.623 3.44372 3.09777 0
M  V30 641 C 65.358 4.33886 3.74874 0
M  V30 642 N 64.854 5.3363 4.41827 0
M  V30 643 N 66.647 4.21639 3.71721 0
M  V30 644 H 58.798 2.06731 0.487453 0
M  V30 645 H 61.061 0.906339 0.277944 0
M  V30 646 H 60.767 3.1411 1.58201 0
M  V30 647 H 60.641 2.20465 3.06064 0
M  V30 648 H 63.028 1.30277 2.64786 0
M  V30 649 H 63.109 2.27415 1.17115 0
M  V30 650 H 62.753 4.38332 2.56568 0
M  V30 651 H 62.683 3.3813 4.03702 0
M  V30 652 H 65.174 2.72201 2.62135 0
M  V30 653 H 65.487 5.98196 4.89266 0
M  V30 654 H 63.832 5.37534 4.40548 0
M  V30 655 H 67.023 3.42962 3.18582 0
M  V30 656 H 67.196 4.91604 4.22173 0
M  V30 657 N 60.6021 -1.18246 1.0419 0
M  V30 658 C 61.5501 -2.23968 0.627792 0
M  V30 659 C 62.5441 -1.65828 -0.346019 0
M  V30 660 O 63.7501 -1.78733 -0.213175 0
M  V30 661 H 60.1251 -0.728939 0.184802 0
M  V30 662 H 62.0961 -2.56202 1.52981 0
M  V30 663 C 60.8451 -3.47699 0.00796591 0
M  V30 664 H 60.1681 -3.92734 0.748347 0
M  V30 665 H 61.6081 -4.23294 -0.24455 0
M  V30 666 C 60.0671 -3.13153 -1.24246 0
M  V30 667 O 60.5971 -3.27003 -2.33307 0
M  V30 668 N 58.8031 -2.67467 -1.13622 0
M  V30 669 H 58.3501 -2.56396 -0.248734 0
M  V30 670 H 58.3081 -2.44724 -1.97377 0
M  V30 671 N 62.0802 -0.821533 -1.34494 0
M  V30 672 C 63.0272 -0.240397 -2.29545 0
M  V30 673 C 63.9972 0.634031 -1.53523 0
M  V30 674 O 65.1822 0.575966 -1.81899 0
M  V30 675 C 62.3222 0.592869 -3.39969 0
M  V30 676 C 61.4352 -0.30365 -4.30932 0
M  V30 677 C 60.5702 0.539049 -5.28458 0
M  V30 678 C 59.6092 -0.356942 -6.11058 0
M  V30 679 N 58.7462 0.446603 -7.00678 0
M  V30 680 H 63.5862 -1.05632 -2.7865 0
M  V30 681 H 61.1232 -0.532413 -1.37127 0
M  V30 682 H 63.0812 1.09129 -4.02675 0
M  V30 683 H 61.7112 1.37392 -2.92102 0
M  V30 684 H 60.7632 -0.920276 -3.691 0
M  V30 685 H 62.0752 -0.992661 -4.88823 0
M  V30 686 H 61.2292 1.102 -5.96608 0
M  V30 687 H 59.9682 1.26157 -4.71101 0
M  V30 688 H 58.9732 -0.932047 -5.41842 0
M  V30 689 H 60.1982 -1.07755 -6.70497 0
M  V30 690 H 58.1442 1.15282 -6.45791 0
M  V30 691 H 58.0612 -0.184048 -7.55776 0
M  V30 692 H 59.3292 0.992352 -7.73158 0
M  V30 693 N 63.5583 1.46682 -0.576371 0
M  V30 694 C 64.4903 2.28341 0.198231 0
M  V30 695 C 65.5033 1.38141 0.861453 0
M  V30 696 O 66.6923 1.62797 0.732082 0
M  V30 697 C 63.7923 3.12986 1.29972 0
M  V30 698 C 62.9653 4.31271 0.729639 0
M  V30 699 C 62.0243 4.97363 1.71803 0
M  V30 700 O 61.0503 5.55156 1.25658 0
M  V30 701 N 62.2523 4.93796 3.05198 0
M  V30 702 H 65.0173 2.9546 -0.502324 0
M  V30 703 H 62.5783 1.56525 -0.413715 0
M  V30 704 H 64.5703 3.54066 1.96008 0
M  V30 705 H 63.1403 2.47984 1.90323 0
M  V30 706 H 62.3603 3.94052 -0.108012 0
M  V30 707 H 63.6483 5.07739 0.328438 0
M  V30 708 H 63.0463 4.48077 3.45317 0
M  V30 709 H 61.6033 5.38837 3.6674 0
M  V30 710 N 65.0364 0.313813 1.54444 0
M  V30 711 C 65.9694 -0.598866 2.20202 0
M  V30 712 C 66.9474 -1.12318 1.17573 0
M  V30 713 O 68.1314 -1.18899 1.46271 0
M  V30 714 C 65.2584 -1.82071 2.85601 0
M  V30 715 C 64.3044 -1.42851 4.01865 0
M  V30 716 S 65.1374 -0.473512 5.33402 0
M  V30 717 C 66.2934 -1.70286 6.0229 0
M  V30 718 H 66.5264 -0.0402532 2.97273 0
M  V30 719 H 64.0594 0.0979165 1.54089 0
M  V30 720 H 66.0174 -2.52184 3.23904 0
M  V30 721 H 64.6784 -2.3505 2.08351 0
M  V30 722 H 63.8714 -2.33871 4.46453 0
M  V30 723 H 63.4734 -0.807198 3.65185 0
M  V30 724 H 65.7654 -2.64168 6.23876 0
M  V30 725 H 66.7084 -1.29932 6.96077 0
M  V30 726 H 67.1164 -1.88541 5.32083 0
M  V30 727 N 66.5145 -1.57545 0.0417849 0
M  V30 728 C 67.4245 -2.14451 -0.951213 0
M  V30 729 C 68.4405 -1.09992 -1.34825 0
M  V30 730 O 69.6165 -1.42114 -1.42708 0
M  V30 731 C 66.6815 -2.67063 -2.21084 0
M  V30 732 C 65.7425 -3.86284 -1.87304 0
M  V30 733 C 64.9755 -4.36378 -3.07261 0
M  V30 734 O 65.1985 -3.85587 -4.20332 0
M  V30 735 O 64.1325 -5.28077 -2.88822 0
M  V30 736 H 67.9585 -2.99601 -0.497287 0
M  V30 737 H 65.5435 -1.48317 -0.179567 0
M  V30 738 H 67.4255 -3.00914 -2.95006 0
M  V30 739 H 66.1005 -1.84989 -2.65633 0
M  V30 740 H 65.0075 -3.57338 -1.10727 0
M  V30 741 H 66.3405 -4.6956 -1.47562 0
M  V30 742 N 67.9926 0.231505 -1.5589 0
M  V30 743 C 69.2416 0.955346 -1.7764 0
M  V30 744 C 69.5546 1.85893 -0.608546 0
M  V30 745 O 70.7606 2.62067 -0.70943 0
M  V30 746 C 69.2166 1.74886 -3.14552 0
M  V30 747 C 68.8246 0.891915 -4.39032 0
M  V30 748 C 70.5686 2.46452 -3.45633 0
M  V30 749 C 68.4756 1.68221 -5.66971 0
M  V30 750 H 67.4056 0.360446 -0.662265 0
M  V30 751 H 70.0566 0.209516 -1.823 0
M  V30 752 H 68.4386 2.53723 -3.04041 0
M  V30 753 H 69.6126 0.144793 -4.60572 0
M  V30 754 H 67.9276 0.288863 -4.15397 0
M  V30 755 H 70.5246 3.06061 -4.38441 0
M  V30 756 H 70.8676 3.18841 -2.67668 0
M  V30 757 H 71.4006 1.74613 -3.57428 0
M  V30 758 H 68.1396 1.00178 -6.478 0
M  V30 759 H 67.6596 2.4042 -5.49507 0
M  V30 760 H 69.3386 2.24544 -6.06786 0
M  V30 761 N 69.4707 1.49531 0.497807 0
M  V30 762 C 70.3807 1.69176 1.62532 0
M  V30 763 C 71.3967 0.5744 1.64246 0
M  V30 764 O 72.5727 0.849497 1.82608 0
M  V30 765 C 69.6377 1.75695 2.98885 0
M  V30 766 C 68.6987 2.9929 3.07773 0
M  V30 767 C 67.9317 3.05488 4.37622 0
M  V30 768 O 68.1547 2.19192 5.26603 0
M  V30 769 O 67.0887 3.9798 4.51548 0
M  V30 770 H 70.9147 2.647 1.48887 0
M  V30 771 H 68.4997 1.3331 0.674441 0
M  V30 772 H 70.3817 1.82317 3.79919 0
M  V30 773 H 69.0567 0.8335 3.12785 0
M  V30 774 H 67.9637 2.98183 2.25915 0
M  V30 775 H 69.2967 3.91125 2.98801 0
M  V30 776 N 70.9488 -0.749086 1.3866 0
M  V30 777 C 71.8588 -1.89358 1.38494 0
M  V30 778 C 72.8748 -1.71708 0.281476 0
M  V30 779 O 74.0508 -1.94554 0.520643 0
M  V30 780 C 71.1158 -3.24782 1.21316 0
M  V30 781 C 70.1768 -3.54926 2.41508 0
M  V30 782 C 69.4098 -4.83888 2.2514 0
M  V30 783 O 69.6328 -5.56592 1.24746 0
M  V30 784 O 68.5668 -5.13612 3.13826 0
M  V30 785 H 72.3928 -1.92452 2.34938 0
M  V30 786 H 69.9778 -0.894981 1.19626 0
M  V30 787 H 71.8598 -4.05739 1.13814 0
M  V30 788 H 70.5348 -3.2249 0.279592 0
M  V30 789 H 69.4418 -2.74112 2.54585 0
M  V30 790 H 70.7748 -3.61983 3.3351 0
M  V30 791 N 72.4269 -1.23603 -0.977757 0
M  V30 792 C 73.8379 -1.06424 -1.53398 0
M  V30 793 C 74.1889 0.367578 -1.92726 0
M  V30 794 O 73.3139 1.25465 -1.76316 0
M  V30 795 C 73.9089 -1.92568 -2.78753 0
M  V30 796 C 72.4679 -1.79642 -3.30765 0
M  V30 797 C 71.6149 -1.88111 -2.03739 0
M  V30 798 H 74.5659 -1.37227 -0.797152 0
M  V30 799 H 74.5869 -1.45203 -3.51705 0
M  V30 800 H 74.0989 -2.96771 -2.50098 0
M  V30 801 H 72.1999 -0.782325 -3.64294 0
M  V30 802 H 72.3129 -2.63174 -4.00345 0
M  V30 803 H 70.6769 -1.31723 -2.17994 0
M  V30 804 H 71.4599 -2.93875 -1.77461 0
M  V30 805 N 73.905 1.17692 -1.04816 0
M  V30 806 C 74.815 2.25229 -0.65643 0
M  V30 807 C 75.831 1.71018 0.320761 0
M  V30 808 O 77.007 2.00649 0.173805 0
M  V30 809 C 74.072 3.46684 -0.0332629 0
M  V30 810 C 73.133 4.15997 -1.06042 0
M  V30 811 C 72.366 5.31654 -0.466893 0
M  V30 812 O 72.589 5.65777 0.724758 0
M  V30 813 O 71.523 5.89831 -1.1993 0
M  V30 814 H 75.349 2.61016 -1.55255 0
M  V30 815 H 72.934 1.24919 -0.81949 0
M  V30 816 H 74.816 4.20234 0.313256 0
M  V30 817 H 73.491 3.12703 0.836566 0
M  V30 818 H 72.398 3.44482 -1.45886 0
M  V30 819 H 73.731 4.53996 -1.90127 0
M  V30 820 N 75.3831 0.828654 1.34056 0
M  V30 821 C 76.7991 0.515135 1.51058 0
M  V30 822 C 76.9991 -0.959581 1.77184 0
M  V30 823 O 76.0551 -1.74382 1.82612 0
M  V30 824 C 77.3681 1.37963 2.67183 0
M  V30 825 C 78.9161 1.37735 2.81066 0
M  V30 826 C 79.3911 2.22645 4.00241 0
M  V30 827 N 80.8821 2.203 4.07458 0
M  V30 828 C 81.6171 2.82744 4.98842 0
M  V30 829 N 81.1131 3.54201 5.9541 0
M  V30 830 N 82.9061 2.72268 4.91759 0
M  V30 831 H 75.0571 1.78343 1.15358 0
M  V30 832 H 77.3201 0.760304 0.566252 0
M  V30 833 H 77.0261 2.42714 2.54525 0
M  V30 834 H 76.9001 1.0484 3.62338 0
M  V30 835 H 79.2871 0.337593 2.93163 0
M  V30 836 H 79.3681 1.74859 1.86703 0
M  V30 837 H 79.0121 3.26674 3.88905 0
M  V30 838 H 78.9421 1.82869 4.93829 0
M  V30 839 H 81.4331 1.68327 3.38341 0
M  V30 840 H 81.7461 3.9908 6.61782 0
M  V30 841 H 80.0911 3.58308 5.95517 0
M  V30 842 H 83.2821 2.16014 4.15278 0
M  V30 843 H 83.4551 3.21219 5.62781 0
M  V30 844 N 76.8612 -1.46375 0.584142 0
M  V30 845 C 77.8082 -2.30323 -0.148286 0
M  V30 846 C 78.7782 -1.40703 -0.882713 0
M  V30 847 O 79.9632 -1.69651 -0.873099 0
M  V30 848 C 77.1032 -3.25196 -1.15507 0
M  V30 849 C 76.2162 -4.29915 -0.423943 0
M  V30 850 C 75.3512 -5.11914 -1.41838 0
M  V30 851 C 74.3902 -6.08381 -0.673736 0
M  V30 852 N 73.5272 -6.83242 -1.6163 0
M  V30 853 H 78.3672 -2.92427 0.573644 0
M  V30 854 H 75.9042 -1.44118 0.294703 0
M  V30 855 H 77.8622 -3.78646 -1.75166 0
M  V30 856 H 76.4922 -2.64898 -1.8447 0
M  V30 857 H 75.5442 -3.7931 0.287714 0
M  V30 858 H 76.8562 -4.98549 0.158128 0
M  V30 859 H 76.0102 -5.69648 -2.08773 0
M  V30 860 H 74.7492 -4.43243 -2.03438 0
M  V30 861 H 73.7542 -5.49799 0.00938483 0
M  V30 862 H 74.9792 -6.79071 -0.0631082 0
M  V30 863 H 72.9252 -6.1728 -2.22038 0
M  V30 864 H 72.8422 -7.48144 -1.08707 0
M  V30 865 H 74.1102 -7.45534 -2.27596 0
M  V30 866 N 78.3393 -0.321999 -1.54275 0
M  V30 867 C 79.7503 0.166384 -1.85957 0
M  V30 868 C 80.1013 1.51747 -1.24367 0
M  V30 869 O 79.2263 2.09317 -0.549124 0
M  V30 870 C 79.8213 0.308681 -3.37391 0
M  V30 871 C 78.3803 0.741286 -3.69028 0
M  V30 872 C 77.5273 -0.137937 -2.76957 0
M  V30 873 H 80.4783 -0.542335 -1.49146 0
M  V30 874 H 80.4993 1.13984 -3.63026 0
M  V30 875 H 80.0113 -0.674809 -3.82188 0
M  V30 876 H 78.1123 1.73458 -3.29762 0
M  V30 877 H 78.2253 0.546118 -4.75977 0
M  V30 878 H 76.5893 0.386251 -2.51754 0
M  V30 879 H 77.3723 -1.11816 -3.2458 0
M  V30 880 N 79.8174 1.5752 -0.0501392 0
M  V30 881 C 81.2334 1.56631 0.306402 0
M  V30 882 C 81.4334 1.0577 1.71508 0
M  V30 883 O 80.4894 0.713837 2.422 0
M  V30 884 C 81.8024 3.00393 0.135811 0
M  V30 885 C 83.3504 3.12315 0.206993 0
M  V30 886 C 83.8254 4.57954 0.064944 0
M  V30 887 N 85.3164 4.63041 0.121254 0
M  V30 888 C 86.0514 5.73389 0.0354381 0
M  V30 889 N 85.5474 6.92724 -0.102666 0
M  V30 890 N 87.3404 5.62026 0.090946 0
M  V30 891 H 79.4914 1.88903 -0.971046 0
M  V30 892 H 81.7544 0.869876 -0.376855 0
M  V30 893 H 81.4604 3.41635 -0.835384 0
M  V30 894 H 81.3344 3.66373 0.897275 0
M  V30 895 H 83.7214 2.70973 1.16866 0
M  V30 896 H 83.8024 2.49016 -0.585208 0
M  V30 897 H 83.4464 4.99981 -0.893394 0
M  V30 898 H 83.3764 5.19258 0.876277 0
M  V30 899 H 85.8674 3.77216 0.227284 0
M  V30 900 H 86.1804 7.72633 -0.160882 0
M  V30 901 H 84.5254 6.94864 -0.137737 0
M  V30 902 H 87.7164 4.67684 0.197388 0
M  V30 903 H 87.8894 6.47997 0.0206089 0
M  V30 904 N 81.2955 -0.223234 1.56011 0
M  V30 905 C 82.5205 -0.968978 1.83373 0
M  V30 906 C 82.9455 -1.77227 0.630254 0
M  V30 907 O 82.3035 -1.76345 -0.420959 0
M  V30 908 C 82.3515 -1.86363 3.08709 0
M  V30 909 O 81.4555 -2.95873 2.87285 0
M  V30 910 H 80.7965 -0.274461 0.604622 0
M  V30 911 H 83.3265 -0.237056 2.03222 0
M  V30 912 H 83.3365 -2.27376 3.38768 0
M  V30 913 H 82.0115 -1.27319 3.95933 0
M  V30 914 H 80.5885 -2.58818 2.68454 0
M  V30 915 N 82.7736 -1.49793 -0.48987 0
M  V30 916 C 84.0506 -1.50348 -1.25119 0
M  V30 917 C 84.4306 -0.237466 -2.0976 0
M  V30 918 O 83.7786 0.77981 -2.14782 0
M  V30 919 C 83.9886 -2.78872 -2.09837 0
M  V30 920 C 85.3366 -3.288 -2.68655 0
M  V30 921 O 86.3606 -2.80065 -2.20096 0
M  V30 922 O 85.2196 -4.13707 -3.57083 0
M  V30 923 H 82.3136 -0.602242 -0.566775 0
M  V30 924 H 84.8596 -1.62067 -0.503229 0
M  V30 925 H 83.6316 -3.62499 -1.47343 0
M  V30 926 H 83.2546 -2.70066 -2.91805 0
M  V30 927 N 84.2517 0.741722 -1.39055 0
M  V30 928 C 85.1817 1.869 -1.39966 0
M  V30 929 C 86.1627 1.6804 -0.26392 0
M  V30 930 O 87.3477 1.88458 -0.468755 0
M  V30 931 C 84.4777 3.24572 -1.23574 0
M  V30 932 C 83.4317 3.58056 -2.34477 0
M  V30 933 C 82.7577 4.94593 -2.0318 0
M  V30 934 C 84.0577 3.61716 -3.76774 0
M  V30 935 H 85.7517 1.86395 -2.34302 0
M  V30 936 H 83.2977 0.895361 -1.1278 0
M  V30 937 H 85.2507 4.031 -1.22834 0
M  V30 938 H 83.9747 3.25587 -0.257045 0
M  V30 939 H 82.6337 2.81854 -2.34423 0
M  V30 940 H 82.2817 4.92181 -1.03765 0
M  V30 941 H 81.9817 5.17964 -2.77465 0
M  V30 942 H 83.5057 5.75486 -2.04079 0
M  V30 943 H 84.9197 4.30335 -3.78794 0
M  V30 944 H 83.3167 3.96603 -4.50362 0
M  V30 945 H 84.3867 2.61672 -4.08235 0
M  V30 946 N 85.7298 1.2412 0.971189 0
M  V30 947 C 86.6398 1.04747 2.09917 0
M  V30 948 C 87.6558 -0.0107162 1.73997 0
M  V30 949 O 88.8318 0.186714 2.00533 0
M  V30 950 C 85.8968 0.650828 3.40537 0
M  V30 951 C 84.9578 1.7851 3.90426 0
M  V30 952 C 84.1908 1.40729 5.14812 0
M  V30 953 O 84.4138 0.29557 5.69634 0
M  V30 954 O 83.3478 2.23168 5.58999 0
M  V30 955 H 87.1738 1.99304 2.29154 0
M  V30 956 H 84.7588 1.02908 1.08307 0
M  V30 957 H 86.6408 0.440992 4.19086 0
M  V30 958 H 85.3158 -0.265649 3.22608 0
M  V30 959 H 84.2228 2.04966 3.12953 0
M  V30 960 H 85.5558 2.68023 4.12825 0
M  V30 961 N 87.2079 -1.17134 1.05439 0
M  V30 962 C 88.1709 -2.19439 0.661764 0
M  V30 963 C 89.1709 -1.58199 -0.288042 0
M  V30 964 O 90.3609 -1.74053 -0.0715803 0
M  V30 965 C 87.4929 -3.40889 -0.0276209 0
M  V30 966 H 88.6859 -2.55688 1.56728 0
M  V30 967 H 86.2389 -1.31259 0.848567 0
M  V30 968 H 86.9739 -3.10187 -0.94629 0
M  V30 969 H 86.7589 -3.86586 0.655238 0
M  V30 970 H 88.2489 -4.16603 -0.288342 0
M  V30 971 N 88.686 -0.835752 -1.33615 0
M  V30 972 C 89.934 -0.429109 -1.97492 0
M  V30 973 C 90.255 1.01433 -1.66543 0
M  V30 974 O 89.525 1.70611 -0.962744 0
M  V30 975 H 88.105 -0.155686 -0.730596 0
M  V30 976 H 90.767 -1.06802 -1.63031 0
M  V30 977 H 89.863 -0.55861 -3.0706 0
M  V30 978 N 90.1641 1.46063 -0.591896 0
M  V30 979 C 91.1111 2.30399 0.136069 0
M  V30 980 C 92.0811 1.41169 0.875238 0
M  V30 981 O 93.2661 1.70112 0.86409 0
M  V30 982 C 90.4061 3.25804 1.13781 0
M  V30 983 C 89.5191 4.30134 0.401137 0
M  V30 984 C 88.6541 5.12659 1.39121 0
M  V30 985 C 87.6931 6.0873 0.641462 0
M  V30 986 N 86.8301 6.8409 1.58004 0
M  V30 987 H 91.6701 2.92118 -0.589144 0
M  V30 988 H 89.2071 1.43959 -0.302342 0
M  V30 989 H 91.1651 3.79569 1.73156 0
M  V30 990 H 89.7951 2.65872 1.83062 0
M  V30 991 H 88.8471 3.79152 -0.307826 0
M  V30 992 H 90.1591 4.98458 -0.184565 0
M  V30 993 H 89.3131 5.70747 2.05749 0
M  V30 994 H 88.0521 4.44316 2.01084 0
M  V30 995 H 87.0571 5.49786 -0.0385419 0
M  V30 996 H 88.2821 6.79095 0.0270945 0
M  V30 997 H 86.2281 6.18449 2.18761 0
M  V30 998 H 86.1451 7.48709 1.04738 0
M  V30 999 H 87.4131 7.4673 2.23639 0
M  V30 1000 N 91.6422 0.330177 1.54103 0
M  V30 1001 C 92.5902 -0.548226 2.26047 0
M  V30 1002 C 93.5842 -1.11309 1.27698 0
M  V30 1003 O 94.7902 -1.06036 1.45452 0
M  V30 1004 H 91.1652 -0.195456 0.726155 0
M  V30 1005 H 93.1362 0.0807567 2.98291 0
M  V30 1006 C 91.8852 -1.69415 3.03634 0
M  V30 1007 H 91.2082 -1.26876 3.79134 0
M  V30 1008 H 92.6482 -2.28423 3.5721 0
M  V30 1009 C 91.1072 -2.61569 2.12328 0
M  V30 1010 O 91.6372 -3.63462 1.7105 0
M  V30 1011 N 89.8432 -2.29952 1.77681 0
M  V30 1012 H 89.3902 -1.47134 2.11446 0
M  V30 1013 H 89.3482 -2.91871 1.16869 0
M  V30 1014 N 93.1203 -1.57491 0.0584922 0
M  V30 1015 C 94.0503 -2.14988 -0.911178 0
M  V30 1016 C 95.0313 -1.07343 -1.31952 0
M  V30 1017 O 96.2163 -1.35318 -1.39294 0
M  V30 1018 C 93.3463 -2.70078 -2.18347 0
M  V30 1019 C 92.3003 -3.82771 -1.91495 0
M  V30 1020 C 91.6263 -4.24408 -3.25241 0
M  V30 1021 C 92.9263 -5.07592 -1.23075 0
M  V30 1022 H 94.6203 -2.96263 -0.432246 0
M  V30 1023 H 92.1663 -1.42512 -0.206469 0
M  V30 1024 H 94.1193 -3.08943 -2.86587 0
M  V30 1025 H 92.8433 -1.86005 -2.68458 0
M  V30 1026 H 91.5023 -3.44389 -1.25664 0
M  V30 1027 H 91.1503 -3.37275 -3.73168 0
M  V30 1028 H 90.8503 -5.00366 -3.08071 0
M  V30 1029 H 92.3743 -4.65879 -3.94701 0
M  V30 1030 H 93.7883 -5.43857 -1.81362 0
M  V30 1031 H 92.1853 -5.88741 -1.16207 0
M  V30 1032 H 93.2553 -4.84454 -0.207847 0
M  V30 1033 N 94.5984 0.214957 -1.56127 0
M  V30 1034 C 96.0094 0.781386 -1.69562 0
M  V30 1035 C 96.3604 1.84707 -0.66165 0
M  V30 1036 O 95.4854 2.156 0.185927 0
M  V30 1037 C 96.0804 1.42411 -3.07416 0
M  V30 1038 C 94.6394 1.93786 -3.22683 0
M  V30 1039 C 93.7864 0.800438 -2.65496 0
M  V30 1040 H 96.7374 -0.00980633 -1.58697 0
M  V30 1041 H 96.7584 2.29309 -3.0364 0
M  V30 1042 H 96.2704 0.64826 -3.82648 0
M  V30 1043 H 94.3714 2.74152 -2.52332 0
M  V30 1044 H 94.4844 2.1133 -4.29973 0
M  V30 1045 H 92.8484 1.2095 -2.2415 0
M  V30 1046 H 93.6314 0.0371471 -3.4328 0
M  V30 1047 N 96.0765 1.50051 0.48192 0
M  V30 1048 C 97.0095 1.62749 1.59963 0
M  V30 1049 C 97.9875 0.475903 1.5548 0
M  V30 1050 O 99.1715 0.693986 1.7526 0
M  V30 1051 C 96.2985 1.60008 2.98522 0
M  V30 1052 C 95.3445 2.80596 3.21198 0
M  V30 1053 S 96.1775 4.42038 3.02262 0
M  V30 1054 C 97.3335 4.41973 4.43182 0
M  V30 1055 H 97.5665 2.57296 1.4895 0
M  V30 1056 H 95.0995 1.39179 0.668477 0
M  V30 1057 H 97.0575 1.59112 3.78409 0
M  V30 1058 H 95.7185 0.667153 3.06933 0
M  V30 1059 H 94.9115 2.74952 4.22395 0
M  V30 1060 H 94.5135 2.79003 2.49065 0
M  V30 1061 H 96.8055 4.14868 5.35622 0
M  V30 1062 H 97.7485 5.43512 4.53873 0
M  V30 1063 H 98.1565 3.71812 4.24755 0
M  V30 1064 N 97.5546 -0.734337 1.39446 0
M  V30 1065 C 98.8036 -1.48937 1.36017 0
M  V30 1066 C 99.1166 -1.95557 -0.0409005 0
M  V30 1067 O 100.323 -2.70779 -0.19778 0
M  V30 1068 C 98.7786 -2.69125 2.38955 0
M  V30 1069 C 98.3866 -2.29452 3.8478 0
M  V30 1070 C 100.131 -3.46944 2.44603 0
M  V30 1071 C 98.0376 -3.46366 4.79358 0
M  V30 1072 H 96.9676 -0.559296 0.505672 0
M  V30 1073 H 99.6186 -0.800983 1.65095 0
M  V30 1074 H 98.0006 -3.40041 2.02948 0
M  V30 1075 H 99.1746 -1.66077 4.29831 0
M  V30 1076 H 97.4896 -1.64723 3.82433 0
M  V30 1077 H 100.087 -4.33907 3.12456 0
M  V30 1078 H 100.43 -3.89454 1.47076 0
M  V30 1079 H 100.963 -2.83056 2.79507 0
M  V30 1080 H 97.7016 -3.08905 5.78151 0
M  V30 1081 H 97.2216 -4.08719 4.38986 0
M  V30 1082 H 98.9006 -4.12691 4.98292 0
M  V30 1083 N 99.0327 -1.24633 -0.964593 0
M  V30 1084 C 100.263 -1.11339 -1.74032 0
M  V30 1085 C 100.671 0.336593 -1.86182 0
M  V30 1086 O 100.014 1.24389 -1.35178 0
M  V30 1087 C 100.076 -1.68284 -3.1768 0
M  V30 1088 C 99.7397 -3.17196 -3.28992 0
M  V30 1089 C 100.737 -4.14308 -3.14078 0
M  V30 1090 C 98.4217 -3.57215 -3.53133 0
M  V30 1091 C 100.416 -5.4942 -3.23135 0
M  V30 1092 C 98.1027 -4.92468 -3.61827 0
M  V30 1093 C 99.1007 -5.8838 -3.46841 0
M  V30 1094 O 98.7887 -7.21173 -3.55197 0
M  V30 1095 H 98.5207 -0.389551 -0.552472 0
M  V30 1096 H 101.075 -1.65282 -1.21946 0
M  V30 1097 H 99.3047 -1.08777 -3.71085 0
M  V30 1098 H 100.994 -1.50234 -3.77074 0
M  V30 1099 H 101.76 -3.84731 -2.95308 0
M  V30 1100 H 97.6387 -2.83063 -3.63863 0
M  V30 1101 H 101.183 -6.24263 -3.11355 0
M  V30 1102 H 97.0797 -5.21714 -3.80111 0
M  V30 1103 H 97.8477 -7.29135 -3.71892 0
M  V30 1104 N 100.511 1.16574 -1.06058 0
M  V30 1105 C 101.759 1.86677 -0.77434 0
M  V30 1106 C 102.08 1.81959 0.701147 0
M  V30 1107 O 101.35 1.2515 1.50713 0
M  V30 1108 H 99.9298 0.691134 -0.283449 0
M  V30 1109 H 102.592 1.41378 -1.34158 0
M  V30 1110 H 101.688 2.92181 -1.09711 0
M  V30 1111 N 101.989 0.842826 1.3317 0
M  V30 1112 C 103.266 0.362216 1.92217 0
M  V30 1113 C 103.646 -1.15289 1.76838 0
M  V30 1114 O 102.994 -1.96914 1.15919 0
M  V30 1115 C 103.204 0.813495 3.39387 0
M  V30 1116 C 104.552 0.823804 4.16532 0
M  V30 1117 O 105.576 0.757358 3.48055 0
M  V30 1118 O 104.435 0.915193 5.38782 0
M  V30 1119 H 101.529 0.103317 0.820521 0
M  V30 1120 H 104.075 0.928942 1.42017 0
M  V30 1121 H 102.847 1.85624 3.4447 0
M  V30 1122 H 102.47 0.223561 3.96971 0
M  V30 1123 N 103.467 -1.45747 0.599634 0
M  V30 1124 C 104.878 -1.85853 0.177681 0
M  V30 1125 C 105.229 -1.50102 -1.26348 0
M  V30 1126 O 104.354 -0.923905 -1.95686 0
M  V30 1127 C 104.949 -3.37326 0.315688 0
M  V30 1128 C 103.508 -3.76365 -0.0515144 0
M  V30 1129 C 102.655 -2.69722 0.643822 0
M  V30 1130 H 105.606 -1.36661 0.806814 0
M  V30 1131 H 105.627 -3.77778 -0.454321 0
M  V30 1132 H 105.139 -3.63315 1.36468 0
M  V30 1133 H 103.24 -3.55993 -1.09999 0
M  V30 1134 H 103.353 -4.77916 0.336594 0
M  V30 1135 H 101.717 -2.54567 0.0822881 0
M  V30 1136 H 102.5 -2.98549 1.6948 0
M  V30 1137 N 104.945 -0.338344 -1.53925 0
M  V30 1138 C 106.356 0.146651 -1.86123 0
M  V30 1139 C 106.707 1.5042 -1.2597 0
M  V30 1140 O 105.832 2.08723 -0.571294 0
M  V30 1141 C 106.427 0.272879 -3.37699 0
M  V30 1142 C 104.986 0.702103 -3.69794 0
M  V30 1143 C 104.133 -0.167304 -2.76795 0
M  V30 1144 H 107.084 -0.558123 -1.48562 0
M  V30 1145 H 107.105 1.10128 -3.64214 0
M  V30 1146 H 106.617 -0.715307 -3.81451 0
M  V30 1147 H 104.718 1.6995 -3.31584 0
M  V30 1148 H 104.831 0.495604 -4.7653 0
M  V30 1149 H 103.195 0.359527 -2.5215 0
M  V30 1150 H 103.978 -1.15253 -3.23375 0
M  V30 1151 N 106.423 1.57458 -0.0668435 0
M  V30 1152 C 107.834 1.80776 0.466558 0
M  V30 1153 C 108.185 0.980361 1.69951 0
M  V30 1154 O 107.31 0.201441 2.1546 0
M  V30 1155 C 107.905 3.27881 0.85321 0
M  V30 1156 C 106.464 3.52062 1.3315 0
M  V30 1157 C 105.611 2.75513 0.314264 0
M  V30 1158 H 108.562 1.5598 -0.292588 0
M  V30 1159 H 108.583 3.39659 1.715 0
M  V30 1160 H 108.095 3.88075 -0.0443439 0
M  V30 1161 H 106.196 2.97167 2.24772 0
M  V30 1162 H 106.309 4.60762 1.31285 0
M  V30 1163 H 104.673 2.42123 0.790492 0
M  V30 1164 H 105.456 3.38442 -0.575477 0
M  V30 1165 N 107.901 -0.206675 1.56239 0
M  V30 1166 C 108.811 -1.27686 1.96808 0
M  V30 1167 C 109.827 -1.50455 0.874035 0
M  V30 1168 O 111.003 -1.63295 1.17884 0
M  V30 1169 C 108.068 -2.60358 2.28942 0
M  V30 1170 C 107.129 -2.45762 3.51994 0
M  V30 1171 C 106.362 -3.72108 3.82585 0
M  V30 1172 O 106.585 -4.75776 3.14631 0
M  V30 1173 O 105.519 -3.6833 4.76043 0
M  V30 1174 H 109.345 -0.962593 2.88041 0
M  V30 1175 H 106.93 -0.410746 1.43643 0
M  V30 1176 H 108.812 -3.38687 2.50737 0
M  V30 1177 H 107.487 -2.91435 1.4088 0
M  V30 1178 H 106.394 -1.65584 3.35459 0
M  V30 1179 H 107.727 -2.19621 4.40486 0
M  V30 1180 N 109.379 -1.50304 -0.473955 0
M  V30 1181 C 110.625 -1.61389 -1.22806 0
M  V30 1182 C 110.958 -0.311955 -1.91678 0
M  V30 1183 O 110.233 0.686384 -1.81986 0
M  V30 1184 C 110.516 -2.79219 -2.27396 0
M  V30 1185 C 110.369 -4.19286 -1.62848 0
M  V30 1186 C 111.688 -2.92614 -3.28732 0
M  V30 1187 H 108.807 -0.587399 -0.445119 0
M  V30 1188 H 111.449 -1.82681 -0.522265 0
M  V30 1189 H 109.599 -2.61195 -2.87592 0
M  V30 1190 H 111.271 -4.48892 -1.06271 0
M  V30 1191 H 109.514 -4.23677 -0.931693 0
M  V30 1192 H 110.185 -4.97655 -2.38838 0
M  V30 1193 H 112.661 -3.09105 -2.78556 0
M  V30 1194 H 111.537 -3.76688 -3.99246 0
M  V30 1195 H 111.798 -2.03107 -3.92683 0
M  V30 1196 N 110.857 0.726932 -1.39834 0
M  V30 1197 C 112.106 1.48214 -1.36805 0
M  V30 1198 C 112.419 1.95576 0.0305291 0
M  V30 1199 O 113.625 2.7088 0.183417 0
M  V30 1200 C 112.081 2.67854 -2.40379 0
M  V30 1201 C 111.689 2.27408 -3.85992 0
M  V30 1202 C 113.433 3.45641 -2.46439 0
M  V30 1203 C 111.34 3.43819 -4.81189 0
M  V30 1204 H 110.27 0.556606 -0.508631 0
M  V30 1205 H 112.921 0.792216 -1.65518 0
M  V30 1206 H 111.303 3.3896 -2.04749 0
M  V30 1207 H 112.477 1.63795 -4.30706 0
M  V30 1208 H 110.792 1.62692 -3.83302 0
M  V30 1209 H 113.389 4.32244 -3.14753 0
M  V30 1210 H 113.732 3.88669 -1.49139 0
M  V30 1211 H 114.265 2.8157 -2.81004 0
M  V30 1212 H 111.004 3.05834 -5.79781 0
M  V30 1213 H 110.524 4.06385 -4.41148 0
M  V30 1214 H 112.203 4.10043 -5.00474 0
M  V30 1215 N 112.336 1.25143 0.95797 0
M  V30 1216 C 113.584 1.09476 1.69881 0
M  V30 1217 C 113.905 -0.365502 1.91544 0
M  V30 1218 O 113.175 -1.25985 1.50015 0
M  V30 1219 H 111.755 0.402128 0.629525 0
M  V30 1220 H 114.417 1.57214 1.15194 0
M  V30 1221 H 113.513 1.60046 2.6794 0
M  V30 1222 N 113.814 -1.1601 1.06675 0
M  V30 1223 C 115.063 -1.85973 0.780818 0
M  V30 1224 C 115.376 -1.82819 -0.695444 0
M  V30 1225 O 116.582 -2.484 -1.09589 0
M  V30 1226 C 115.038 -3.33757 1.34665 0
M  V30 1227 C 114.646 -3.45374 2.85343 0
M  V30 1228 C 116.39 -4.0895 1.13843 0
M  V30 1229 C 114.297 -4.87266 3.35151 0
M  V30 1230 H 113.227 -0.696661 0.288407 0
M  V30 1231 H 115.878 -1.30903 1.28595 0
M  V30 1232 H 114.26 -3.88456 0.769274 0
M  V30 1233 H 115.434 -3.00816 3.49065 0
M  V30 1234 H 113.749 -2.83619 3.04876 0
M  V30 1235 H 116.346 -5.13654 1.4854 0
M  V30 1236 H 116.689 -4.16229 0.0770282 0
M  V30 1237 H 117.222 -3.605 1.68179 0
M  V30 1238 H 113.961 -4.85168 4.40786 0
M  V30 1239 H 113.481 -5.32433 2.76179 0
M  V30 1240 H 115.16 -5.56097 3.30704 0
M  V30 1241 N 115.292 -0.849877 -1.32721 0
M  V30 1242 C 116.703 -0.506188 -1.79707 0
M  V30 1243 C 117.054 0.975627 -1.70223 0
M  V30 1244 O 116.179 1.76078 -1.25799 0
M  V30 1245 C 116.774 -0.912044 -3.26293 0
M  V30 1246 C 115.333 -0.620326 -3.71253 0
M  V30 1247 C 114.48 -1.11439 -2.53922 0
M  V30 1248 H 117.431 -1.03754 -1.20087 0
M  V30 1249 H 117.452 -0.226493 -3.79825 0
M  V30 1250 H 116.964 -1.99057 -3.33164 0
M  V30 1251 H 115.065 0.447674 -3.69901 0
M  V30 1252 H 115.178 -1.18327 -4.64258 0
M  V30 1253 H 113.542 -0.534834 -2.49021 0
M  V30 1254 H 114.325 -2.19992 -2.6355 0
M  V30 1255 N 116.77 1.45427 -0.607355 0
M  V30 1256 C 117.7 2.3329 0.0989352 0
M  V30 1257 C 118.681 1.46816 0.859007 0
M  V30 1258 O 119.866 1.75588 0.829604 0
M  V30 1259 C 116.996 3.29518 1.09705 0
M  V30 1260 C 115.95 4.25626 0.450206 0
M  V30 1261 C 115.276 5.11542 1.55655 0
M  V30 1262 C 116.576 5.18505 -0.628455 0
M  V30 1263 H 118.27 2.92595 -0.634716 0
M  V30 1264 H 115.816 1.40696 -0.306681 0
M  V30 1265 H 117.769 3.89855 1.59971 0
M  V30 1266 H 116.493 2.68372 1.86129 0
M  V30 1267 H 115.152 3.66586 -0.0315886 0
M  V30 1268 H 114.8 4.46765 2.31107 0
M  V30 1269 H 114.5 5.76647 1.12925 0
M  V30 1270 H 116.024 5.74748 2.06148 0
M  V30 1271 H 117.438 5.72916 -0.209877 0
M  V30 1272 H 115.835 5.92085 -0.977489 0
M  V30 1273 H 116.905 4.60948 -1.50514 0
M  V30 1274 N 118.248 0.346503 1.53744 0
M  V30 1275 C 119.158 -0.517293 2.28826 0
M  V30 1276 C 120.174 -1.10935 1.3405 0
M  V30 1277 O 121.35 -1.1244 1.6709 0
M  V30 1278 C 118.415 -1.65098 3.04866 0
M  V30 1279 C 117.476 -1.0884 4.15274 0
M  V30 1280 C 116.709 -2.16806 4.87679 0
M  V30 1281 O 116.932 -3.3758 4.59778 0
M  V30 1282 O 115.866 -1.80934 5.74061 0
M  V30 1283 H 119.692 0.0931396 3.03557 0
M  V30 1284 H 117.277 0.111458 1.48984 0
M  V30 1285 H 119.159 -2.31053 3.5241 0
M  V30 1286 H 117.834 -2.24717 2.32989 0
M  V30 1287 H 116.741 -0.3933 3.72027 0
M  V30 1288 H 118.074 -0.537036 4.89261 0
M  V30 1289 N 119.726 -1.57421 0.075193 0
M  V30 1290 C 121.003 -1.85029 -0.634329 0
M  V30 1291 C 121.383 -0.968305 -1.87582 0
M  V30 1292 O 120.731 -0.0354749 -2.28472 0
M  V30 1293 C 120.941 -3.35286 -0.968742 0
M  V30 1294 C 122.289 -4.02875 -1.34077 0
M  V30 1295 O 123.313 -3.40051 -1.06037 0
M  V30 1296 O 122.172 -5.13691 -1.86506 0
M  V30 1297 H 119.266 -0.7645 -0.315387 0
M  V30 1298 H 121.812 -1.69366 0.106382 0
M  V30 1299 H 120.584 -3.91203 -0.0871376 0
M  V30 1300 H 120.207 -3.56223 -1.7661 0
M  V30 1301 N 121.204 0.198386 -1.56346 0
M  V30 1302 C 122.134 1.24865 -1.9731 0
M  V30 1303 C 123.115 1.47651 -0.844576 0
M  V30 1304 O 124.3 1.59444 -1.10866 0
M  V30 1305 C 121.43 2.59358 -2.30977 0
M  V30 1306 C 120.384 2.5119 -3.46537 0
M  V30 1307 C 119.71 3.89926 -3.65871 0
M  V30 1308 C 121.01 2.03977 -4.80823 0
M  V30 1309 H 122.704 0.908252 -2.85291 0
M  V30 1310 H 120.25 0.435462 -1.37258 0
M  V30 1311 H 122.203 3.33011 -2.58228 0
M  V30 1312 H 120.927 2.95132 -1.39874 0
M  V30 1313 H 119.586 1.79993 -3.19371 0
M  V30 1314 H 119.234 4.23046 -2.72105 0
M  V30 1315 H 118.934 3.85336 -4.4361 0
M  V30 1316 H 120.458 4.65205 -3.95495 0
M  V30 1317 H 121.872 2.67386 -5.07127 0
M  V30 1318 H 120.269 2.10397 -5.62008 0
M  V30 1319 H 121.339 0.992861 -4.74626 0
M  V30 1320 N 122.682 1.50554 0.465978 0
M  V30 1321 C 123.959 1.5232 1.22712 0
M  V30 1322 C 124.339 0.270807 2.09356 0
M  V30 1323 O 123.687 -0.745541 2.15995 0
M  V30 1324 C 123.897 2.82175 2.05374 0
M  V30 1325 C 125.245 3.33033 2.6339 0
M  V30 1326 O 126.269 2.83531 2.15612 0
M  V30 1327 O 125.128 4.19336 3.50456 0
M  V30 1328 H 122.222 0.611183 0.557122 0
M  V30 1329 H 124.768 1.62847 0.477381 0
M  V30 1330 H 123.54 3.64797 1.41558 0
M  V30 1331 H 123.163 2.74675 2.87471 0
M  V30 1332 N 124.16 -0.719506 1.40217 0
M  V30 1333 C 125.571 -1.29848 1.34151 0
M  V30 1334 C 125.922 -1.96196 0.0131349 0
M  V30 1335 O 125.047 -1.973 -0.88892 0
M  V30 1336 C 125.642 -2.36118 2.42968 0
M  V30 1337 C 124.201 -2.8965 2.40374 0
M  V30 1338 C 123.348 -1.63393 2.24049 0
M  V30 1339 H 126.299 -0.51591 1.5008 0
M  V30 1340 H 126.32 -3.16871 2.10649 0
M  V30 1341 H 125.832 -1.878 3.39636 0
M  V30 1342 H 123.933 -3.42208 1.47392 0
M  V30 1343 H 124.046 -3.4171 3.35814 0
M  V30 1344 H 122.41 -1.88312 1.71495 0
M  V30 1345 H 123.193 -1.17104 3.2271 0
M  V30 1346 N 125.638 -1.25649 -0.95132 0
M  V30 1347 C 126.868 -1.13179 -1.72841 0
M  V30 1348 C 127.276 0.316827 -1.86528 0
M  V30 1349 O 126.619 1.22948 -1.3649 0
M  V30 1350 C 126.681 -1.71644 -3.15878 0
M  V30 1351 C 126.345 -3.20667 -3.25609 0
M  V30 1352 C 127.342 -4.17616 -3.09666 0
M  V30 1353 C 125.027 -3.6094 -3.49324 0
M  V30 1354 C 127.021 -5.52817 -3.17289 0
M  V30 1355 C 124.708 -4.96278 -3.56584 0
M  V30 1356 C 125.706 -5.92025 -3.40581 0
M  V30 1357 O 125.394 -7.24899 -3.47528 0
M  V30 1358 H 125.126 -0.395389 -0.54831 0
M  V30 1359 H 127.68 -1.66566 -1.20187 0
M  V30 1360 H 125.91 -1.12707 -3.69911 0
M  V30 1361 H 127.599 -1.54225 -3.75459 0
M  V30 1362 H 128.365 -3.87842 -2.91211 0
M  V30 1363 H 124.244 -2.86907 -3.6084 0
M  V30 1364 H 127.788 -6.2753 -3.04716 0
M  V30 1365 H 123.685 -5.25716 -3.74556 0
M  V30 1366 H 124.453 -7.33039 -3.64138 0
M  V30 1367 N 127.117 1.15442 -1.07289 0
M  V30 1368 C 128.347 1.89821 -0.815576 0
M  V30 1369 C 128.755 1.7823 0.634867 0
M  V30 1370 O 128.098 1.13152 1.44715 0
M  V30 1371 C 128.16 3.40817 -1.14385 0
M  V30 1372 C 127.824 3.76193 -2.59476 0
M  V30 1373 C 128.821 3.77269 -3.57721 0
M  V30 1374 C 126.506 4.0652 -2.95037 0
M  V30 1375 C 128.5 4.08176 -4.89562 0
M  V30 1376 C 126.187 4.37092 -4.27076 0
M  V30 1377 C 127.185 4.37902 -5.24148 0
M  V30 1378 O 126.873 4.67741 -6.53815 0
M  V30 1379 H 126.605 0.608465 -0.294528 0
M  V30 1380 H 129.159 1.472 -1.43252 0
M  V30 1381 H 127.389 3.83835 -0.469865 0
M  V30 1382 H 129.078 3.96485 -0.869179 0
M  V30 1383 H 129.844 3.5394 -3.3159 0
M  V30 1384 H 125.723 4.05049 -2.20128 0
M  V30 1385 H 129.267 4.08723 -5.65324 0
M  V30 1386 H 125.164 4.59889 -4.5296 0
M  V30 1387 H 125.932 4.85509 -6.58957 0
M  V30 1388 N 128.595 0.856903 1.32268 0
M  V30 1389 C 129.82 0.474569 2.01897 0
M  V30 1390 C 130.245 -0.921766 1.63967 0
M  V30 1391 O 129.603 -1.60589 0.84148 0
M  V30 1392 C 129.651 0.623799 3.55164 0
M  V30 1393 O 128.755 -0.342459 4.10976 0
M  V30 1394 H 128.096 0.190422 0.63611 0
M  V30 1395 H 130.626 1.15672 1.68764 0
M  V30 1396 H 130.636 0.512169 4.04773 0
M  V30 1397 H 129.311 1.64202 3.82113 0
M  V30 1398 H 127.888 -0.18688 3.72431 0
M  V30 1399 N 130.073 -1.45103 0.615059 0
M  V30 1400 C 131.021 -2.32331 -0.111791 0
M  V30 1401 C 132.015 -1.46409 -0.852102 0
M  V30 1402 O 133.221 -1.62849 -0.766821 0
M  V30 1403 H 129.596 -0.749993 -0.0549072 0
M  V30 1404 H 131.567 -2.91407 0.642225 0
M  V30 1405 C 130.316 -3.3015 -1.09071 0
M  V30 1406 H 129.639 -3.96265 -0.530485 0
M  V30 1407 H 131.079 -3.93898 -1.56908 0
M  V30 1408 C 129.538 -2.57875 -2.168 0
M  V30 1409 O 130.068 -2.36567 -3.24652 0
M  V30 1410 N 128.274 -2.17884 -1.92289 0
M  V30 1411 H 127.821 -2.35413 -1.04587 0
M  V30 1412 H 127.779 -1.6985 -2.64572 0
M  V30 1413 N 131.551 -0.354651 -1.53558 0
M  V30 1414 C 132.498 0.496968 -2.25386 0
M  V30 1415 C 133.468 1.0865 -1.25636 0
M  V30 1416 O 134.653 1.12104 -1.54394 0
M  V30 1417 C 131.793 1.63637 -3.03837 0
M  V30 1418 C 130.906 1.07307 -4.18461 0
M  V30 1419 C 130.041 2.18068 -4.84376 0
M  V30 1420 C 129.08 1.59147 -5.91049 0
M  V30 1421 N 128.217 2.63695 -6.50699 0
M  V30 1422 H 133.057 -0.122075 -2.9775 0
M  V30 1423 H 130.594 -0.0720154 -1.46924 0
M  V30 1424 H 132.552 2.30734 -3.47589 0
M  V30 1425 H 131.182 2.22623 -2.33749 0
M  V30 1426 H 130.234 0.292708 -3.79272 0
M  V30 1427 H 131.546 0.602193 -4.95152 0
M  V30 1428 H 130.7 2.93007 -5.31255 0
M  V30 1429 H 129.439 2.68504 -4.07133 0
M  V30 1430 H 128.444 0.827175 -5.43542 0
M  V30 1431 H 129.669 1.09549 -6.70206 0
M  V30 1432 H 127.615 3.13365 -5.76315 0
M  V30 1433 H 127.532 2.21263 -7.22896 0
M  V30 1434 H 128.8 3.3837 -7.02229 0
M  V30 1435 N 133.029 1.57378 -0.0835403 0
M  V30 1436 C 133.976 2.13384 0.879539 0
M  V30 1437 C 134.946 1.04936 1.28754 0
M  V30 1438 O 136.131 1.32662 1.37133 0
M  V30 1439 C 133.271 2.70932 2.13752 0
M  V30 1440 C 132.384 3.93575 1.7811 0
M  V30 1441 C 131.519 4.39326 2.98607 0
M  V30 1442 C 130.558 5.54587 2.59037 0
M  V30 1443 N 129.695 5.95243 3.72331 0
M  V30 1444 H 134.535 2.9537 0.395076 0
M  V30 1445 H 132.072 1.45953 0.183349 0
M  V30 1446 H 134.03 3.02411 2.87408 0
M  V30 1447 H 132.66 1.91693 2.59718 0
M  V30 1448 H 131.712 3.68483 0.94469 0
M  V30 1449 H 133.024 4.77258 1.45005 0
M  V30 1450 H 132.178 4.72528 3.80529 0
M  V30 1451 H 130.917 3.5452 3.34913 0
M  V30 1452 H 129.922 5.21024 1.75539 0
M  V30 1453 H 131.147 6.41133 2.23887 0
M  V30 1454 H 129.093 5.13385 4.08378 0
M  V30 1455 H 129.01 6.73694 3.43034 0
M  V30 1456 H 130.278 6.33072 4.54797 0
M  V30 1457 N 134.507 -0.190092 1.56449 0
M  V30 1458 C 135.735 -0.925772 1.85033 0
M  V30 1459 C 136.15 -1.76638 0.666658 0
M  V30 1460 O 135.507 -1.78822 -0.364565 0
M  V30 1461 C 135.558 -1.81786 3.12468 0
M  V30 1462 O 135.279 -1.01118 4.26271 0
M  V30 1463 C 136.78 -2.6648 3.54265 0
M  V30 1464 H 134 -0.269872 0.614337 0
M  V30 1465 H 136.544 -0.195837 2.0356 0
M  V30 1466 H 134.699 -2.50136 2.95822 0
M  V30 1467 H 135.113 -1.61956 4.98869 0
M  V30 1468 H 136.587 -3.24722 4.46385 0
M  V30 1469 H 137.064 -3.40434 2.77491 0
M  V30 1470 H 137.67 -2.03493 3.73458 0
M  V30 1471 N 135.985 -1.50799 -0.457987 0
M  V30 1472 C 137.232 -1.62442 -1.20908 0
M  V30 1473 C 137.56 -0.330865 -1.91665 0
M  V30 1474 O 136.815 0.68401 -1.83357 0
M  V30 1475 C 137.114 -2.76358 -2.2663 0
M  V30 1476 C 136.78 -4.16378 -1.73033 0
M  V30 1477 C 135.442 -4.54473 -1.58138 0
M  V30 1478 C 137.794 -5.03836 -1.33413 0
M  V30 1479 C 135.122 -5.77754 -1.02065 0
M  V30 1480 C 137.474 -6.27676 -0.78778 0
M  V30 1481 C 136.138 -6.64562 -0.625561 0
M  V30 1482 H 135.408 -0.594417 -0.442435 0
M  V30 1483 H 138.055 -1.84772 -0.503136 0
M  V30 1484 H 136.36 -2.48167 -3.03184 0
M  V30 1485 H 138.057 -2.82568 -2.84528 0
M  V30 1486 H 134.647 -3.86331 -1.85598 0
M  V30 1487 H 138.831 -4.75026 -1.4375 0
M  V30 1488 H 134.087 -6.04997 -0.882547 0
M  V30 1489 H 138.261 -6.94797 -0.472177 0
M  V30 1490 H 135.888 -7.59965 -0.188926 0
M  V30 1491 N 137.463 0.71206 -1.40597 0
M  V30 1492 C 138.712 1.46754 -1.38369 0
M  V30 1493 C 139.025 1.95598 0.0097839 0
M  V30 1494 O 140.231 2.71059 0.154677 0
M  V30 1495 C 138.687 2.65289 -2.43207 0
M  V30 1496 C 138.295 2.23301 -3.88382 0
M  V30 1497 C 140.039 3.43008 -2.50091 0
M  V30 1498 C 137.946 3.38696 -4.84808 0
M  V30 1499 H 136.876 0.55118 -0.514506 0
M  V30 1500 H 139.527 0.774616 -1.66349 0
M  V30 1501 H 137.909 3.36769 -2.08332 0
M  V30 1502 H 139.083 1.59218 -4.32419 0
M  V30 1503 H 137.398 1.58618 -3.85006 0
M  V30 1504 H 139.995 4.28881 -3.1932 0
M  V30 1505 H 140.338 3.87065 -1.53253 0
M  V30 1506 H 140.871 2.78574 -2.83974 0
M  V30 1507 H 137.61 2.99668 -5.82992 0
M  V30 1508 H 137.13 4.01683 -4.45433 0
M  V30 1509 H 138.809 4.04712 -5.04794 0
M  V30 1510 N 138.941 1.26152 0.944643 0
M  V30 1511 C 140.187 1.11657 1.69294 0
M  V30 1512 C 140.52 -0.339926 1.91202 0
M  V30 1513 O 139.795 -1.24994 1.49019 0
M  V30 1514 C 140.078 1.88236 3.06984 0
M  V30 1515 C 139.931 3.41772 2.92424 0
M  V30 1516 C 141.25 1.67343 4.07043 0
M  V30 1517 H 138.369 0.407004 0.614424 0
M  V30 1518 H 141.011 1.55106 1.09737 0
M  V30 1519 H 139.161 1.51308 3.57824 0
M  V30 1520 H 140.833 3.88433 2.48832 0
M  V30 1521 H 139.076 3.68974 2.28124 0
M  V30 1522 H 139.747 3.90579 3.90067 0
M  V30 1523 H 142.223 1.99509 3.65151 0
M  V30 1524 H 141.099 2.23346 5.01406 0
M  V30 1525 H 141.36 0.617158 4.37771 0
M  V30 1526 N 140.419 -1.14872 1.07899 0
M  V30 1527 C 141.349 -2.2193 0.725887 0
M  V30 1528 C 142.33 -1.67622 -0.28927 0
M  V30 1529 O 143.515 -1.93533 -0.160787 0
M  V30 1530 C 140.645 -3.47061 0.128856 0
M  V30 1531 C 139.599 -4.14363 1.07178 0
M  V30 1532 C 138.925 -5.33636 0.337229 0
M  V30 1533 C 140.225 -4.63492 2.40775 0
M  V30 1534 H 141.919 -2.51724 1.62097 0
M  V30 1535 H 139.465 -1.20991 0.780838 0
M  V30 1536 H 141.418 -4.21199 -0.130147 0
M  V30 1537 H 140.142 -3.16617 -0.80134 0
M  V30 1538 H 138.801 -3.42173 1.3158 0
M  V30 1539 H 138.449 -4.99449 -0.596606 0
M  V30 1540 H 138.149 -5.79609 0.965788 0
M  V30 1541 H 139.673 -6.10539 0.0861567 0
M  V30 1542 H 141.087 -5.2913 2.20669 0
M  V30 1543 H 139.484 -5.20148 2.99276 0
M  V30 1544 H 140.554 -3.78834 3.02676 0
M  V30 1545 N 141.898 -0.863906 -1.31812 0
M  V30 1546 C 142.846 -0.30422 -2.30602 0
M  V30 1547 C 143.84 0.577419 -1.59255 0
M  V30 1548 O 145.046 0.464194 -1.73912 0
M  V30 1549 H 141.421 -0.0796877 -0.747766 0
M  V30 1550 H 143.392 -1.15148 -2.75288 0
M  V30 1551 C 142.141 0.484617 -3.44306 0
M  V30 1552 H 141.464 -0.18451 -3.99374 0
M  V30 1553 H 142.904 0.841664 -4.15562 0
M  V30 1554 C 141.363 1.6735 -2.92396 0
M  V30 1555 O 141.893 2.77273 -2.90659 0
M  V30 1556 N 140.099 1.50362 -2.48676 0
M  V30 1557 H 139.646 0.609402 -2.50288 0
M  V30 1558 H 139.604 2.30051 -2.14299 0
M  V30 1559 N 143.376 1.44774 -0.622745 0
M  V30 1560 C 144.323 2.30635 0.0871679 0
M  V30 1561 C 145.293 1.42994 0.845097 0
M  V30 1562 O 146.478 1.71907 0.827812 0
M  V30 1563 C 143.618 3.28144 1.06844 0
M  V30 1564 C 142.731 4.30888 0.309809 0
M  V30 1565 C 141.866 5.15494 1.28215 0
M  V30 1566 C 140.905 6.09953 0.512198 0
M  V30 1567 N 140.042 6.87287 1.43458 0
M  V30 1568 H 144.882 2.90803 -0.650974 0
M  V30 1569 H 142.419 1.43286 -0.33281 0
M  V30 1570 H 144.377 3.83157 1.65066 0
M  V30 1571 H 143.007 2.69695 1.77382 0
M  V30 1572 H 142.059 3.78414 -0.388181 0
M  V30 1573 H 143.371 4.97955 -0.290254 0
M  V30 1574 H 142.525 5.74983 1.93596 0
M  V30 1575 H 141.264 4.48481 1.91614 0
M  V30 1576 H 140.269 5.49581 -0.155151 0
M  V30 1577 H 141.494 6.78999 -0.116958 0
M  V30 1578 H 139.44 6.2295 2.05594 0
M  V30 1579 H 139.357 7.50763 0.888335 0
M  V30 1580 H 140.625 7.51306 2.07749 0
M  V30 1581 N 144.854 0.36279 1.53368 0
M  V30 1582 C 146.102 -0.227326 2.00817 0
M  V30 1583 C 146.423 -1.49511 1.25186 0
M  V30 1584 O 145.693 -1.92482 0.364348 0
M  V30 1585 H 144.273 -0.0869923 0.741917 0
M  V30 1586 H 146.935 0.488381 1.88682 0
M  V30 1587 H 146.031 -0.456273 3.08747 0
M  V30 1588 N 146.332 -1.57332 0.0918853 0
M  V30 1589 C 147.279 -2.13847 -0.868211 0
M  V30 1590 C 148.249 -1.05618 -1.28196 0
M  V30 1591 O 149.434 -1.33387 -1.36427 0
M  V30 1592 C 146.574 -2.72062 -2.12312 0
M  V30 1593 C 145.687 -3.94514 -1.7602 0
M  V30 1594 C 144.822 -4.40903 -2.96273 0
M  V30 1595 C 143.861 -5.55953 -2.56092 0
M  V30 1596 N 142.998 -5.97209 -3.69169 0
M  V30 1597 H 147.838 -2.95575 -0.379406 0
M  V30 1598 H 145.375 -1.46048 -0.175606 0
M  V30 1599 H 147.333 -3.03931 -2.858 0
M  V30 1600 H 145.963 -1.93068 -2.58698 0
M  V30 1601 H 145.015 -3.68979 -0.925135 0
M  V30 1602 H 146.327 -4.7802 -1.42472 0
M  V30 1603 H 145.481 -4.74539 -3.78018 0
M  V30 1604 H 144.22 -3.56291 -3.33029 0
M  V30 1605 H 143.225 -5.21948 -1.72773 0
M  V30 1606 H 144.45 -6.42311 -2.20484 0
M  V30 1607 H 142.396 -5.15543 -4.05649 0
M  V30 1608 H 142.313 -6.75504 -3.39456 0
M  V30 1609 H 143.581 -6.35475 -4.51434 0
M  V30 1610 N 147.81 0.181792 -1.56548 0
M  V30 1611 C 148.773 1.20894 -1.94724 0
M  V30 1612 C 149.773 1.37738 -0.829747 0
M  V30 1613 O 150.963 1.35323 -1.09697 0
M  V30 1614 C 148.095 2.57593 -2.23291 0
M  V30 1615 H 149.288 0.882275 -2.86629 0
M  V30 1616 H 146.841 0.423838 -1.50444 0
M  V30 1617 H 147.576 2.95291 -1.34067 0
M  V30 1618 H 147.361 2.46735 -3.04736 0
M  V30 1619 H 148.851 3.31637 -2.53785 0
M  V30 1620 N 149.288 1.51039 0.449983 0
M  V30 1621 C 150.537 1.62317 1.19733 0
M  V30 1622 C 150.85 0.339101 1.92638 0
M  V30 1623 O 152.056 0.331069 2.69474 0
M  V30 1624 C 150.512 2.86608 2.17678 0
M  V30 1625 C 150.12 4.21972 1.50479 0
M  V30 1626 C 151.864 3.07239 2.92924 0
M  V30 1627 C 149.771 5.37426 2.46834 0
M  V30 1628 H 148.701 0.604532 0.450619 0
M  V30 1629 H 151.352 1.77494 0.465625 0
M  V30 1630 H 149.734 2.65037 2.94231 0
M  V30 1631 H 150.908 4.53878 0.795716 0
M  V30 1632 H 149.223 4.07117 0.874344 0
M  V30 1633 H 151.82 3.90668 3.65079 0
M  V30 1634 H 152.163 2.19807 3.5354 0
M  V30 1635 H 152.696 3.29091 2.23481 0
M  V30 1636 H 149.435 6.27079 1.90926 0
M  V30 1637 H 148.955 5.09912 3.15832 0
M  V30 1638 H 150.634 5.68862 3.08228 0
M  V30 1639 N 150.766 -0.704594 1.40972 0
M  V30 1640 C 152.013 -1.46458 1.39844 0
M  V30 1641 C 152.341 -1.94499 0.00447594 0
M  V30 1642 O 151.596 -1.69275 -0.982057 0
M  V30 1643 C 151.895 -2.698 2.34399 0
M  V30 1644 C 151.561 -2.40464 3.81429 0
M  V30 1645 C 150.223 -2.32174 4.21484 0
M  V30 1646 C 152.575 -2.16086 4.74296 0
M  V30 1647 C 149.903 -1.97589 5.52427 0
M  V30 1648 C 152.255 -1.83011 6.05549 0
M  V30 1649 C 150.919 -1.7321 6.44635 0
M  V30 1650 H 150.189 -0.535927 0.511725 0
M  V30 1651 H 152.836 -0.806124 1.73706 0
M  V30 1652 H 151.141 -3.40536 1.93759 0
M  V30 1653 H 152.838 -3.27919 2.30804 0
M  V30 1654 H 149.428 -2.47808 3.49699 0
M  V30 1655 H 153.612 -2.2144 4.4416 0
M  V30 1656 H 148.868 -1.88547 5.81601 0
M  V30 1657 H 153.042 -1.63164 6.77016 0
M  V30 1658 H 150.669 -1.46179 7.46013 0
M  V30 1659 N 152.244 -1.26651 -0.937939 0
M  V30 1660 C 153.66 -1.03834 -1.21205 0
M  V30 1661 C 153.86 0.234502 -2.00131 0
M  V30 1662 O 152.916 0.942767 -2.3424 0
M  V30 1663 C 154.229 -2.27167 -1.97017 0
M  V30 1664 C 155.777 -2.32101 -2.09996 0
M  V30 1665 C 156.252 -3.55136 -2.8921 0
M  V30 1666 N 157.743 -3.55632 -2.96783 0
M  V30 1667 C 158.478 -4.475 -3.58512 0
M  V30 1668 N 157.974 -5.4966 -4.21717 0
M  V30 1669 N 159.767 -4.35145 -3.55816 0
M  V30 1670 H 151.918 -2.08398 -0.410391 0
M  V30 1671 H 154.181 -0.916031 -0.244114 0
M  V30 1672 H 153.887 -3.19765 -1.46434 0
M  V30 1673 H 153.761 -2.31672 -2.97671 0
M  V30 1674 H 156.148 -1.40015 -2.59769 0
M  V30 1675 H 156.229 -2.31605 -1.08594 0
M  V30 1676 H 155.873 -4.47553 -2.40123 0
M  V30 1677 H 155.803 -3.5288 -3.90875 0
M  V30 1678 H 158.294 -2.81743 -2.51852 0
M  V30 1679 H 158.607 -6.15943 -4.66727 0
M  V30 1680 H 156.952 -5.53514 -4.20294 0
M  V30 1681 H 160.143 -3.5455 -3.05634 0
M  V30 1682 H 160.316 -5.06934 -4.03636 0
M  V30 1683 N 153.722 1.14298 -1.08507 0
M  V30 1684 C 154.969 1.85359 -0.815373 0
M  V30 1685 C 155.297 1.83001 0.658865 0
M  V30 1686 O 154.552 1.25655 1.50031 0
M  V30 1687 C 154.851 3.33547 -1.28379 0
M  V30 1688 C 154.517 3.56093 -2.76602 0
M  V30 1689 C 153.179 3.61955 -3.17084 0
M  V30 1690 C 155.531 3.64834 -3.72217 0
M  V30 1691 C 152.859 3.74082 -4.51973 0
M  V30 1692 C 155.211 3.78487 -5.06883 0
M  V30 1693 C 153.875 3.82598 -5.46969 0
M  V30 1694 H 153.145 0.678276 -0.298366 0
M  V30 1695 H 155.792 1.35002 -1.35819 0
M  V30 1696 H 154.097 3.86191 -0.660593 0
M  V30 1697 H 155.794 3.86959 -1.05186 0
M  V30 1698 H 152.384 3.52179 -2.4427 0
M  V30 1699 H 156.568 3.59595 -3.42061 0
M  V30 1700 H 151.824 3.75527 -4.82483 0
M  V30 1701 H 155.998 3.84193 -5.80834 0
M  V30 1702 H 153.625 3.91747 -6.51489 0
M  V30 1703 N 155.201 0.870884 1.31352 0
M  V30 1704 C 156.426 0.495957 2.01383 0
M  V30 1705 C 156.851 -0.904324 1.64935 0
M  V30 1706 O 156.209 -1.59687 0.858466 0
M  V30 1707 C 156.257 0.661433 3.54482 0
M  V30 1708 O 155.361 -0.298851 4.11316 0
M  V30 1709 H 154.702 0.197158 0.634054 0
M  V30 1710 H 157.232 1.17455 1.67527 0
M  V30 1711 H 157.242 0.555072 4.04207 0
M  V30 1712 H 155.917 1.68246 3.8035 0
M  V30 1713 H 154.494 -0.147368 3.72609 0
M  V30 1714 N 156.679 -1.44442 0.630414 0
M  V30 1715 C 157.642 -2.29107 -0.0652523 0
M  V30 1716 C 158.642 -1.41002 -0.772995 0
M  V30 1717 O 159.832 -1.62881 -0.617692 0
M  V30 1718 C 156.964 -3.22564 -1.10296 0
M  V30 1719 H 158.157 -2.92103 0.679401 0
M  V30 1720 H 155.71 -1.51343 0.390517 0
M  V30 1721 H 156.445 -2.64416 -1.87762 0
M  V30 1722 H 156.23 -3.87491 -0.59941 0
M  V30 1723 H 157.72 -3.86167 -1.5895 0
M  V30 1724 N 158.157 -0.370918 -1.53173 0
M  V30 1725 C 159.385 0.217704 -2.05751 0
M  V30 1726 C 159.8 1.42018 -1.24404 0
M  V30 1727 O 159.157 1.80245 -0.286033 0
M  V30 1728 C 159.208 0.605954 -3.56385 0
M  V30 1729 O 158.929 -0.548734 -4.3465 0
M  V30 1730 C 160.43 1.2524 -4.25241 0
M  V30 1731 H 157.65 0.0371659 -0.66997 0
M  V30 1732 H 160.194 -0.530832 -1.9749 0
M  V30 1733 H 158.349 1.3044 -3.6478 0
M  V30 1734 H 158.763 -0.23376 -5.23979 0
M  V30 1735 H 160.237 1.47458 -5.3194 0
M  V30 1736 H 160.714 2.2143 -3.79296 0
M  V30 1737 H 161.32 0.595233 -4.21114 0
M  V30 1738 N 159.635 1.57281 -0.100228 0
M  V30 1739 C 161.046 1.81725 0.428107 0
M  V30 1740 C 161.397 1.01619 1.67833 0
M  V30 1741 O 160.522 0.247098 2.14985 0
M  V30 1742 C 161.117 3.29617 0.78347 0
M  V30 1743 C 159.676 3.54808 1.25653 0
M  V30 1744 C 158.823 2.76118 0.255752 0
M  V30 1745 H 161.774 1.55324 -0.325608 0
M  V30 1746 H 161.795 3.4322 1.64256 0
M  V30 1747 H 161.307 3.87893 -0.12665 0
M  V30 1748 H 159.408 3.01868 2.18418 0
M  V30 1749 H 159.521 4.63443 1.21482 0
M  V30 1750 H 157.885 2.43745 0.738956 0
M  V30 1751 H 158.668 3.37145 -0.647136 0
M  V30 1752 N 161.113 -0.173488 1.56642 0
M  V30 1753 C 162.076 -1.19859 1.95362 0
M  V30 1754 C 163.076 -1.37296 0.83704 0
M  V30 1755 O 164.266 -1.34739 1.10413 0
M  V30 1756 C 161.398 -2.56405 2.24654 0
M  V30 1757 H 162.591 -0.867062 2.87092 0
M  V30 1758 H 160.144 -0.415853 1.50666 0
M  V30 1759 H 160.879 -2.94576 1.35631 0
M  V30 1760 H 160.664 -2.45115 3.06041 0
M  V30 1761 H 162.154 -3.30287 2.5554 0
M  V30 1762 N 162.591 -1.51276 -0.441967 0
M  V30 1763 C 163.521 -1.752 -1.54361 0
M  V30 1764 C 164.502 -0.601682 -1.59103 0
M  V30 1765 O 165.687 -0.843913 -1.74905 0
M  V30 1766 C 162.817 -1.87282 -2.92477 0
M  V30 1767 C 161.771 -3.02687 -3.02596 0
M  V30 1768 C 161.097 -2.99947 -4.42647 0
M  V30 1769 C 162.397 -4.4273 -2.77106 0
M  V30 1770 H 164.091 -2.67442 -1.34592 0
M  V30 1771 H 161.637 -1.28694 -0.646048 0
M  V30 1772 H 163.59 -2.02602 -3.695 0
M  V30 1773 H 162.314 -0.916844 -3.13467 0
M  V30 1774 H 160.973 -2.87065 -2.28012 0
M  V30 1775 H 160.621 -2.02136 -4.60597 0
M  V30 1776 H 160.321 -3.77439 -4.50348 0
M  V30 1777 H 161.845 -3.17354 -5.2165 0
M  V30 1778 H 163.259 -4.58727 -3.43864 0
M  V30 1779 H 161.656 -5.21893 -2.96222 0
M  V30 1780 H 162.726 -4.53087 -1.72744 0
M  V30 1781 N 164.069 0.697108 -1.41344 0
M  V30 1782 C 165.299 1.48377 -1.43763 0
M  V30 1783 C 165.707 1.89156 -0.0408726 0
M  V30 1784 O 165.05 1.57239 0.949812 0
M  V30 1785 C 165.112 2.7781 -2.2817 0
M  V30 1786 C 164.776 2.59244 -3.76353 0
M  V30 1787 C 165.773 2.25292 -4.68551 0
M  V30 1788 C 163.458 2.74933 -4.20378 0
M  V30 1789 C 165.452 2.07264 -6.02761 0
M  V30 1790 C 163.139 2.56521 -5.54653 0
M  V30 1791 C 164.137 2.22737 -6.4566 0
M  V30 1792 O 163.825 2.04485 -7.77458 0
M  V30 1793 H 163.557 0.463842 -0.491759 0
M  V30 1794 H 166.111 0.865934 -1.86255 0
M  V30 1795 H 164.341 3.41995 -1.8049 0
M  V30 1796 H 166.03 3.39608 -2.22309 0
M  V30 1797 H 166.796 2.12787 -4.35829 0
M  V30 1798 H 162.675 3.00213 -3.49848 0
M  V30 1799 H 166.219 1.80817 -6.73759 0
M  V30 1800 H 162.116 2.68616 -5.86955 0
M  V30 1801 H 162.884 2.1926 -7.88586 0
M  V30 1802 N 165.547 1.27147 0.931209 0
M  V30 1803 C 166.477 1.12081 2.04842 0
M  V30 1804 C 167.458 0.0232364 1.70084 0
M  V30 1805 O 168.643 0.197085 1.93197 0
M  V30 1806 C 165.773 0.76354 3.38803 0
M  V30 1807 C 164.727 1.81396 3.87659 0
M  V30 1808 C 164.053 1.31075 5.18385 0
M  V30 1809 C 165.353 3.21739 4.11438 0
M  V30 1810 H 167.047 2.05537 2.17703 0
M  V30 1811 H 164.593 0.989603 1.04608 0
M  V30 1812 H 166.546 0.644982 4.16435 0
M  V30 1813 H 165.27 -0.206727 3.25945 0
M  V30 1814 H 163.929 1.92136 3.12217 0
M  V30 1815 H 163.577 0.330037 5.01916 0
M  V30 1816 H 163.277 2.013 5.52044 0
M  V30 1817 H 164.801 1.20506 5.98591 0
M  V30 1818 H 166.215 3.14019 4.79651 0
M  V30 1819 H 164.612 3.89644 4.56397 0
M  V30 1820 H 165.682 3.67054 3.16859 0
M  V30 1821 N 167.025 -1.13721 1.09112 0
M  V30 1822 C 167.955 -2.21148 0.749385 0
M  V30 1823 C 168.936 -1.6792 -0.271475 0
M  V30 1824 O 170.121 -1.93693 -0.140251 0
M  V30 1825 C 167.251 -3.46905 0.165659 0
M  V30 1826 C 166.205 -4.13203 1.11567 0
M  V30 1827 C 165.531 -5.33248 0.393809 0
M  V30 1828 C 166.831 -4.60912 2.45678 0
M  V30 1829 H 168.525 -2.4999 1.64758 0
M  V30 1830 H 166.071 -1.20156 0.793626 0
M  V30 1831 H 168.024 -4.21313 -0.085466 0
M  V30 1832 H 166.748 -3.17449 -0.767714 0
M  V30 1833 H 165.407 -3.40758 1.35202 0
M  V30 1834 H 165.055 -5.00054 -0.543599 0
M  V30 1835 H 164.755 -5.78552 1.02721 0
M  V30 1836 H 166.279 -6.10413 0.150908 0
M  V30 1837 H 167.693 -5.26759 2.26269 0
M  V30 1838 H 166.09 -5.16944 3.04776 0
M  V30 1839 H 167.16 -3.75603 3.06677 0
M  V30 1840 N 168.503 -0.877838 -1.30888 0
M  V30 1841 C 169.728 -0.506629 -2.01117 0
M  V30 1842 C 170.153 0.895564 -1.65412 0
M  V30 1843 O 169.511 1.5923 -0.866922 0
M  V30 1844 C 169.559 -0.680223 -3.54126 0
M  V30 1845 O 168.663 0.277033 -4.11468 0
M  V30 1846 H 168.004 -0.200518 -0.633 0
M  V30 1847 H 170.534 -1.18342 -1.66902 0
M  V30 1848 H 170.544 -0.5765 -4.03907 0
M  V30 1849 H 169.219 -1.70261 -3.79452 0
M  V30 1850 H 167.796 0.127606 -3.72682 0
M  V30 1851 N 169.982 1.44106 -0.638065 0
M  V30 1852 C 171.393 1.85316 -0.226894 0
M  V30 1853 C 171.744 1.53399 1.22324 0
M  V30 1854 O 170.869 0.975463 1.93167 0
M  V30 1855 C 171.464 3.3637 -0.405013 0
M  V30 1856 C 170.023 3.76369 -0.0482902 0
M  V30 1857 C 169.17 2.67921 -0.715108 0
M  V30 1858 H 172.121 1.34474 -0.842764 0
M  V30 1859 H 172.142 3.7885 0.354 0
M  V30 1860 H 171.654 3.59569 -1.46053 0
M  V30 1861 H 169.755 3.58784 1.00522 0
M  V30 1862 H 169.868 4.76856 -0.463187 0
M  V30 1863 H 168.232 2.54259 -0.149753 0
M  V30 1864 H 169.015 2.93951 -1.77335 0
M  V30 1865 N 171.46 0.379036 1.52974 0
M  V30 1866 C 172.707 -0.206421 2.01445 0
M  V30 1867 C 173.035 -1.47668 1.26587 0
M  V30 1868 O 172.29 -1.92514 0.351675 0
M  V30 1869 C 172.589 -0.53096 3.53434 0
M  V30 1870 C 172.255 0.646546 4.46241 0
M  V30 1871 C 170.917 0.969604 4.7133 0
M  V30 1872 C 173.269 1.43479 5.01062 0
M  V30 1873 C 170.597 2.08263 5.48492 0
M  V30 1874 C 172.949 2.53834 5.7944 0
M  V30 1875 C 171.613 2.86659 6.02812 0
M  V30 1876 H 170.883 -0.0755349 0.73714 0
M  V30 1877 H 173.53 0.514271 1.84465 0
M  V30 1878 H 171.835 -1.33285 3.68432 0
M  V30 1879 H 173.532 -0.996417 3.88423 0
M  V30 1880 H 170.122 0.384734 4.2687 0
M  V30 1881 H 174.306 1.19844 4.81613 0
M  V30 1882 H 169.562 2.34078 5.64816 0
M  V30 1883 H 173.736 3.15319 6.20924 0
M  V30 1884 H 171.363 3.73026 6.62387 0
M  V30 1885 N 172.938 -1.57226 0.108567 0
M  V30 1886 C 174.163 -1.99604 -0.563303 0
M  V30 1887 C 174.588 -0.987563 -1.6009 0
M  V30 1888 O 173.946 0.0421687 -1.81251 0
M  V30 1889 C 173.994 -3.40902 -1.17552 0
M  V30 1890 O 173.098 -3.42896 -2.2912 0
M  V30 1891 H 172.439 -0.648704 -0.1417 0
M  V30 1892 H 174.969 -2.03679 0.193961 0
M  V30 1893 H 174.979 -3.78886 -1.51357 0
M  V30 1894 H 173.654 -4.1382 -0.415445 0
M  V30 1895 H 172.231 -3.1672 -1.96832 0
M  V30 1896 N 174.416 0.165178 -1.56732 0
M  V30 1897 C 175.662 0.882112 -1.82611 0
M  V30 1898 C 175.995 1.81628 -0.687378 0
M  V30 1899 O 175.27 1.92009 0.310267 0
M  V30 1900 C 175.553 1.67245 -3.18906 0
M  V30 1901 C 175.406 0.760987 -4.43316 0
M  V30 1902 C 176.725 2.63884 -3.52212 0
M  V30 1903 H 173.844 0.319242 -0.664269 0
M  V30 1904 H 176.486 0.148052 -1.89422 0
M  V30 1905 H 174.636 2.29824 -3.1323 0
M  V30 1906 H 176.308 0.147596 -4.61064 0
M  V30 1907 H 174.551 0.0694102 -4.33744 0
M  V30 1908 H 175.222 1.34962 -5.35247 0
M  V30 1909 H 177.698 2.11429 -3.58381 0
M  V30 1910 H 176.574 3.16245 -4.48643 0
M  V30 1911 H 176.835 3.44377 -2.77231 0
M  V30 1912 N 175.894 1.51508 0.433938 0
M  V30 1913 C 177.14 1.64588 1.18484 0
M  V30 1914 C 177.473 0.362666 1.90784 0
M  V30 1915 O 176.748 -0.637892 1.83742 0
M  V30 1916 C 177.031 2.85149 2.19913 0
M  V30 1917 C 176.884 4.23456 1.51674 0
M  V30 1918 C 178.203 3.01227 3.20858 0
M  V30 1919 H 175.322 0.598994 0.429389 0
M  V30 1920 H 177.964 1.84002 0.473647 0
M  V30 1921 H 176.114 2.68729 2.80566 0
M  V30 1922 H 177.786 4.51552 0.943322 0
M  V30 1923 H 176.029 4.25998 0.819035 0
M  V30 1924 H 176.7 5.03812 2.2556 0
M  V30 1925 H 179.176 3.16382 2.70263 0
M  V30 1926 H 178.052 3.87141 3.89118 0
M  V30 1927 H 178.313 2.13447 3.8716 0
M  V30 1928 N 177.372 -0.689602 1.41712 0
M  V30 1929 C 178.788 -1.00093 1.24312 0
M  V30 1930 C 178.988 -2.01036 0.136729 0
M  V30 1931 O 178.044 -2.47562 -0.496918 0
M  V30 1932 C 179.357 -1.51985 2.59463 0
M  V30 1933 C 180.905 -1.63838 2.66695 0
M  V30 1934 C 181.38 -2.1913 4.02177 0
M  V30 1935 N 182.871 -2.26483 4.04054 0
M  V30 1936 C 183.606 -2.70306 5.0569 0
M  V30 1937 N 183.102 -3.13691 6.17713 0
M  V30 1938 N 184.895 -2.69923 4.9305 0
M  V30 1939 H 177.046 -0.0210029 2.1239 0
M  V30 1940 H 179.309 -0.0718733 0.945272 0
M  V30 1941 H 179.015 -0.85269 3.41207 0
M  V30 1942 H 178.889 -2.50103 2.82362 0
M  V30 1943 H 181.276 -2.29664 1.85306 0
M  V30 1944 H 181.357 -0.642492 2.476 0
M  V30 1945 H 181.001 -1.53918 4.84016 0
M  V30 1946 H 180.931 -3.19482 4.18615 0
M  V30 1947 H 183.422 -1.95874 3.23174 0
M  V30 1948 H 183.735 -3.45773 6.9113 0
M  V30 1949 H 182.08 -3.11585 6.21241 0
M  V30 1950 H 185.271 -2.35382 4.04614 0
M  V30 1951 H 185.444 -3.03758 5.72394 0
M  V30 1952 N 178.85 -1.27639 -0.924453 0
M  V30 1953 C 180.266 -1.05113 -1.20097 0
M  V30 1954 C 180.466 0.213262 -2.00368 0
M  V30 1955 O 179.522 0.91787 -2.35226 0
M  V30 1956 C 180.835 -2.29244 -1.94596 0
M  V30 1957 C 182.383 -2.34315 -2.07522 0
M  V30 1958 C 182.858 -3.58183 -2.85427 0
M  V30 1959 N 184.349 -3.5876 -2.92994 0
M  V30 1960 C 185.084 -4.51277 -3.53746 0
M  V30 1961 N 184.58 -5.54102 -4.15863 0
M  V30 1962 N 186.373 -4.38894 -3.51181 0
M  V30 1963 H 178.524 -2.08821 -0.388264 0
M  V30 1964 H 180.787 -0.918568 -0.234385 0
M  V30 1965 H 180.493 -3.21301 -1.43034 0
M  V30 1966 H 180.367 -2.34816 -2.95197 0
M  V30 1967 H 182.754 -1.42762 -2.58269 0
M  V30 1968 H 182.835 -2.32744 -1.06131 0
M  V30 1969 H 182.479 -4.50074 -2.35363 0
M  V30 1970 H 182.409 -3.57006 -3.8711 0
M  V30 1971 H 184.9 -2.84398 -2.4885 0
M  V30 1972 H 185.213 -6.20859 -4.60168 0
M  V30 1973 H 183.558 -5.57941 -4.144 0
M  V30 1974 H 186.749 -3.57772 -3.01856 0
M  V30 1975 H 186.922 -5.11186 -3.98237 0
M  V30 1976 N 180.328 1.1314 -1.09713 0
M  V30 1977 C 181.576 1.84119 -0.833338 0
M  V30 1978 C 181.897 1.84097 0.642904 0
M  V30 1979 O 181.167 1.29881 1.46655 0
M  V30 1980 H 179.747 0.681766 -0.305293 0
M  V30 1981 H 182.409 1.37038 -1.38588 0
M  V30 1982 H 181.505 2.88543 -1.18951 0
M  V30 1983 N 181.806 0.884767 1.30421 0
M  V30 1984 C 182.769 0.356277 2.26414 0
M  V30 1985 C 183.769 -0.501124 1.52792 0
M  V30 1986 O 184.959 -0.30831 1.7145 0
M  V30 1987 C 182.091 -0.492316 3.37326 0
M  V30 1988 H 183.284 1.20389 2.74675 0
M  V30 1989 H 180.837 0.661607 1.41607 0
M  V30 1990 H 181.572 -1.36052 2.94381 0
M  V30 1991 H 181.357 0.121832 3.91911 0
M  V30 1992 H 182.847 -0.853871 4.08777 0
M  V30 1993 N 183.284 -1.43765 0.645699 0
M  V30 1994 C 184.533 -2.01116 0.153412 0
M  V30 1995 C 184.846 -1.51493 -1.23731 0
M  V30 1996 O 186.052 -2.01067 -1.8244 0
M  V30 1997 C 184.508 -3.59206 0.223473 0
M  V30 1998 C 184.116 -4.17823 1.61642 0
M  V30 1999 C 185.86 -4.23972 -0.211597 0
M  V30 2000 C 183.767 -5.68183 1.64081 0
M  V30 2001 H 182.697 -0.752093 0.0535891 0
M  V30 2002 H 185.348 -1.6482 0.806633 0
M  V30 2003 H 183.73 -3.92867 -0.497118 0
M  V30 2004 H 184.904 -3.95674 2.36176 0
M  V30 2005 H 183.219 -3.65399 1.99681 0
M  V30 2006 H 185.816 -5.34275 -0.213112 0
M  V30 2007 H 186.159 -3.97352 -1.24165 0
M  V30 2008 H 186.692 -3.95166 0.456988 0
M  V30 2009 H 183.431 -5.99559 2.64971 0
M  V30 2010 H 182.951 -5.9241 0.938611 0
M  V30 2011 H 184.63 -6.32085 1.3812 0
M  V30 2012 N 184.763 -0.387143 -1.52771 0
M  V30 2013 C 185.71 0.449048 -2.26389 0
M  V30 2014 C 186.68 1.05961 -1.27912 0
M  V30 2015 O 187.865 1.08804 -1.56737 0
M  V30 2016 C 185.005 1.57155 -3.0724 0
M  V30 2017 C 184.118 0.984066 -4.20643 0
M  V30 2018 C 183.253 2.07745 -4.88892 0
M  V30 2019 C 182.292 1.46574 -5.94292 0
M  V30 2020 N 181.429 2.49834 -6.56146 0
M  V30 2021 H 186.269 -0.185205 -2.97424 0
M  V30 2022 H 183.806 -0.103164 -1.46738 0
M  V30 2023 H 185.764 2.23309 -3.52405 0
M  V30 2024 H 184.394 2.17615 -2.38419 0
M  V30 2025 H 183.446 0.212193 -3.79808 0
M  V30 2026 H 184.758 0.497029 -4.96318 0
M  V30 2027 H 183.912 2.81673 -5.3735 0
M  V30 2028 H 182.651 2.59807 -4.12737 0
M  V30 2029 H 181.656 0.711696 -5.45174 0
M  V30 2030 H 182.881 0.953088 -6.72379 0
M  V30 2031 H 180.827 3.0107 -5.82832 0
M  V30 2032 H 180.744 2.05879 -7.27427 0
M  V30 2033 H 182.012 3.23399 -7.09249 0
M  V30 2034 N 186.241 1.57166 -0.116904 0
M  V30 2035 C 187.487 1.95412 0.542405 0
M  V30 2036 C 187.82 1.00019 1.66463 0
M  V30 2037 O 187.095 0.0370346 1.94465 0
M  V30 2038 C 187.378 3.43615 1.07708 0
M  V30 2039 C 187.231 4.49781 -0.0415868 0
M  V30 2040 C 188.55 3.93616 1.96861 0
M  V30 2041 H 185.669 0.710543 0.195696 0
M  V30 2042 H 188.311 1.89027 -0.192038 0
M  V30 2043 H 186.461 3.49187 1.70296 0
M  V30 2044 H 188.133 4.56308 -0.676793 0
M  V30 2045 H 186.376 4.28033 -0.705019 0
M  V30 2046 H 187.047 5.50733 0.373717 0
M  V30 2047 H 189.523 3.90335 1.44146 0
M  V30 2048 H 188.399 4.97838 2.3119 0
M  V30 2049 H 188.66 3.34188 2.89432 0
M  V30 2050 N 187.719 -0.156864 1.56817 0
M  V30 2051 C 188.649 -1.19589 2.00551 0
M  V30 2052 C 189.63 -1.4536 0.883426 0
M  V30 2053 O 190.815 -1.56449 1.15054 0
M  V30 2054 C 187.945 -2.53143 2.37773 0
M  V30 2055 C 186.899 -2.41913 3.53075 0
M  V30 2056 C 186.225 -3.80088 3.76081 0
M  V30 2057 C 187.525 -1.91157 4.86062 0
M  V30 2058 H 189.219 -0.832293 2.87599 0
M  V30 2059 H 186.765 -0.398918 1.38364 0
M  V30 2060 H 188.718 -3.26047 2.66967 0
M  V30 2061 H 187.442 -2.91319 1.4765 0
M  V30 2062 H 186.101 -1.71462 3.24031 0
M  V30 2063 H 185.749 -4.15683 2.83225 0
M  V30 2064 H 185.449 -3.73439 4.53671 0
M  V30 2065 H 186.973 -4.54556 4.0769 0
M  V30 2066 H 188.387 -2.53846 5.14038 0
M  V30 2067 H 186.784 -1.95422 5.67389 0
M  V30 2068 H 187.854 -0.866673 4.77092 0
M  V30 2069 N 189.197 -1.51736 -0.425897 0
M  V30 2070 C 190.446 -1.64201 -1.17136 0
M  V30 2071 C 190.759 -0.369705 -1.92074 0
M  V30 2072 O 191.965 -0.373898 -2.68913 0
M  V30 2073 C 190.421 -2.90035 -2.13091 0
M  V30 2074 C 190.029 -4.24312 -1.43747 0
M  V30 2075 C 191.773 -3.1186 -2.87999 0
M  V30 2076 C 189.68 -5.41285 -2.38253 0
M  V30 2077 H 188.61 -0.611624 -0.440944 0
M  V30 2078 H 191.261 -1.78212 -0.437328 0
M  V30 2079 H 189.643 -2.69684 -2.89977 0
M  V30 2080 H 190.817 -4.55086 -0.723408 0
M  V30 2081 H 189.132 -4.08456 -0.809465 0
M  V30 2082 H 191.729 -3.96427 -3.58817 0
M  V30 2083 H 192.072 -2.25403 -3.49999 0
M  V30 2084 H 192.605 -3.32605 -2.18217 0
M  V30 2085 H 189.344 -6.30037 -1.80925 0
M  V30 2086 H 188.864 -5.14872 -3.0768 0
M  V30 2087 H 190.543 -5.73694 -2.99139 0
M  V30 2088 N 190.675 0.682077 -1.42076 0
M  V30 2089 C 191.625 1.78823 -1.41444 0
M  V30 2090 C 192.609 1.58323 -0.28681 0
M  V30 2091 O 193.801 1.68926 -0.528498 0
M  V30 2092 C 190.93 3.17232 -1.3122 0
M  V30 2093 C 190.016 3.4338 -2.489 0
M  V30 2094 N 190.407 3.40152 -3.7434 0
M  V30 2095 C 188.705 3.73986 -2.43003 0
M  V30 2096 C 189.406 3.65581 -4.52466 0
M  V30 2097 N 188.382 3.85989 -3.8277 0
M  V30 2098 H 192.184 1.7471 -2.36334 0
M  V30 2099 H 189.698 0.882622 -1.36321 0
M  V30 2100 H 191.695 3.96489 -1.2885 0
M  V30 2101 H 190.355 3.22547 -0.373263 0
M  V30 2102 H 191.366 3.20221 -4.07037 0
M  V30 2103 H 188.043 3.86591 -1.57651 0
M  V30 2104 H 189.433 3.69108 -5.61435 0
M  V30 2105 N 192.153 1.28127 0.917671 0
M  V30 2106 C 193.116 1.11744 2.00115 0
M  V30 2107 C 194.116 0.0583052 1.60694 0
M  V30 2108 O 195.306 0.303755 1.71531 0
M  V30 2109 C 192.438 0.704862 3.33533 0
M  V30 2110 H 193.631 2.07966 2.16079 0
M  V30 2111 H 191.184 1.11058 1.09981 0
M  V30 2112 H 191.919 -0.258299 3.2327 0
M  V30 2113 H 191.704 1.4699 3.63505 0
M  V30 2114 H 193.194 0.612768 4.1308 0
M  V30 2115 N 193.631 -1.12557 1.10312 0
M  V30 2116 C 194.561 -2.20341 0.772798 0
M  V30 2117 C 195.542 -1.68198 -0.25365 0
M  V30 2118 O 196.727 -1.93831 -0.119699 0
M  V30 2119 C 193.857 -3.46709 0.202443 0
M  V30 2120 C 192.811 -4.11996 1.15943 0
M  V30 2121 C 192.137 -5.328 0.450345 0
M  V30 2122 C 193.437 -4.5828 2.50552 0
M  V30 2123 H 195.131 -2.48229 1.674 0
M  V30 2124 H 192.677 -1.19308 0.806326 0
M  V30 2125 H 194.63 -4.2138 -0.0407752 0
M  V30 2126 H 193.354 -3.18245 -0.734001 0
M  V30 2127 H 192.013 -3.39305 1.38808 0
M  V30 2128 H 191.661 -5.00602 -0.490531 0
M  V30 2129 H 191.361 -5.7743 1.08851 0
M  V30 2130 H 192.885 -6.10219 0.215642 0
M  V30 2131 H 194.299 -5.2433 2.31843 0
M  V30 2132 H 192.696 -5.13683 3.10242 0
M  V30 2133 H 193.766 -3.72329 3.10643 0
M  V30 2134 N 195.109 -0.891671 -1.2995 0
M  V30 2135 C 196.356 -0.513501 -1.95881 0
M  V30 2136 C 196.684 0.938655 -1.70351 0
M  V30 2137 O 195.939 1.67936 -1.00478 0
M  V30 2138 C 196.238 -0.742868 -3.49594 0
M  V30 2139 C 195.904 -2.17114 -3.95186 0
M  V30 2140 C 194.566 -2.56169 -4.07346 0
M  V30 2141 C 196.918 -3.10162 -4.18866 0
M  V30 2142 C 194.246 -3.87469 -4.4055 0
M  V30 2143 C 196.598 -4.41001 -4.53542 0
M  V30 2144 C 195.262 -4.79941 -4.63911 0
M  V30 2145 H 194.532 -0.187903 -0.71678 0
M  V30 2146 H 197.179 -1.1288 -1.54694 0
M  V30 2147 H 195.484 -0.044586 -3.91775 0
M  V30 2148 H 197.181 -0.429767 -3.9869 0
M  V30 2149 H 193.771 -1.85801 -3.86233 0
M  V30 2150 H 197.955 -2.81206 -4.08946 0
M  V30 2151 H 193.211 -4.17371 -4.46779 0
M  V30 2152 H 197.385 -5.13133 -4.70815 0
M  V30 2153 H 195.012 -5.81719 -4.89395 0
M  V30 2154 N 196.587 1.43421 -0.653314 0
M  V30 2155 C 197.812 2.06678 -0.172846 0
M  V30 2156 C 198.237 1.48648 1.15262 0
M  V30 2157 O 197.595 0.596457 1.71208 0
M  V30 2158 C 197.643 3.60474 -0.0953184 0
M  V30 2159 O 196.747 4.01487 0.942442 0
M  V30 2160 H 196.088 0.657181 -0.0949155 0
M  V30 2161 H 198.618 1.83925 -0.896265 0
M  V30 2162 H 198.628 4.07905 0.0879728 0
M  V30 2163 H 197.303 4.02088 -1.06291 0
M  V30 2164 H 195.88 3.65646 0.731932 0
M  V30 2165 N 198.065 0.39524 1.52563 0
M  V30 2166 C 198.998 -0.4813 2.23067 0
M  V30 2167 C 199.976 -1.05927 1.23362 0
M  V30 2168 O 201.16 -1.10979 1.52368 0
M  V30 2169 C 198.287 -1.66676 2.9485 0
M  V30 2170 C 197.333 -1.21348 4.08873 0
M  V30 2171 S 198.166 -0.190102 5.35162 0
M  V30 2172 C 199.322 -1.38121 6.1047 0
M  V30 2173 H 199.555 0.117381 2.97068 0
M  V30 2174 H 197.088 0.179458 1.53354 0
M  V30 2175 H 199.046 -2.3466 3.36816 0
M  V30 2176 H 197.707 -2.23676 2.20518 0
M  V30 2177 H 196.9 -2.09877 4.58222 0
M  V30 2178 H 196.502 -0.612486 3.68951 0
M  V30 2179 H 198.794 -2.30726 6.37002 0
M  V30 2180 H 199.737 -0.928521 7.01986 0
M  V30 2181 H 200.145 -1.60071 5.41329 0
M  V30 2182 N 199.544 -1.57102 0.125237 0
M  V30 2183 C 200.791 -1.95407 -0.531248 0
M  V30 2184 C 201.119 -1.0089 -1.66287 0
M  V30 2185 O 200.374 -0.0339431 -1.95671 0
M  V30 2186 C 200.673 -3.40096 -1.09862 0
M  V30 2187 C 200.339 -4.50815 -0.0876989 0
M  V30 2188 C 199.001 -4.80824 0.19026 0
M  V30 2189 C 201.353 -5.17724 0.600902 0
M  V30 2190 C 198.681 -5.75058 1.163 0
M  V30 2191 C 201.033 -6.13005 1.56231 0
M  V30 2192 C 199.697 -6.41403 1.8482 0
M  V30 2193 H 198.967 -0.715046 -0.194397 0
M  V30 2194 H 201.614 -1.90373 0.207463 0
M  V30 2195 H 199.919 -3.41855 -1.91422 0
M  V30 2196 H 201.616 -3.6705 -1.61478 0
M  V30 2197 H 198.206 -4.27444 -0.314528 0
M  V30 2198 H 202.39 -4.94691 0.399333 0
M  V30 2199 H 197.646 -5.95362 1.39117 0
M  V30 2200 H 201.82 -6.63934 2.10153 0
M  V30 2201 H 199.447 -7.14229 2.60349 0
M  V30 2202 N 201.022 0.148545 -1.56898 0
M  V30 2203 C 202.271 0.85984 -1.82454 0
M  V30 2204 C 202.584 1.82406 -0.706229 0
M  V30 2205 O 203.79 2.57938 -0.847349 0
M  V30 2206 C 202.246 1.57967 -3.2338 0
M  V30 2207 C 201.854 0.65794 -4.43142 0
M  V30 2208 C 203.598 2.27784 -3.58211 0
M  V30 2209 C 201.505 1.3793 -5.75091 0
M  V30 2210 H 200.435 0.324834 -0.68044 0
M  V30 2211 H 203.086 0.112588 -1.83154 0
M  V30 2212 H 201.468 2.37249 -3.17063 0
M  V30 2213 H 202.642 -0.0995497 -4.60692 0
M  V30 2214 H 200.957 0.0682643 -4.16344 0
M  V30 2215 H 203.554 2.8239 -4.54048 0
M  V30 2216 H 203.897 3.04204 -2.84193 0
M  V30 2217 H 204.43 1.55421 -3.66182 0
M  V30 2218 H 201.169 0.656982 -6.52199 0
M  V30 2219 H 200.689 2.10954 -5.61479 0
M  V30 2220 H 202.368 1.92063 -6.17835 0
M  V30 2221 N 202.5 1.5196 0.417844 0
M  V30 2222 C 203.433 1.69387 1.52916 0
M  V30 2223 C 204.411 0.541419 1.53321 0
M  V30 2224 O 205.595 0.767695 1.72159 0
M  V30 2225 C 202.722 1.72525 2.91467 0
M  V30 2226 C 201.768 2.93967 3.09008 0
M  V30 2227 S 202.601 4.54461 2.83242 0
M  V30 2228 C 203.757 4.60372 4.24038 0
M  V30 2229 H 203.99 2.63382 1.37903 0
M  V30 2230 H 201.523 1.41889 0.608845 0
M  V30 2231 H 203.481 1.75018 3.7132 0
M  V30 2232 H 202.142 0.796733 3.03827 0
M  V30 2233 H 201.335 2.92619 4.10353 0
M  V30 2234 H 200.937 2.89316 2.37007 0
M  V30 2235 H 203.229 4.37213 5.17544 0
M  V30 2236 H 204.172 5.62273 4.30412 0
M  V30 2237 H 204.58 3.89492 4.08602 0
M  V30 2238 N 203.978 -0.674533 1.42435 0
M  V30 2239 C 205.227 -1.43034 1.42212 0
M  V30 2240 C 205.54 -1.95555 0.0420788 0
M  V30 2241 O 206.746 -2.71374 -0.0827558 0
M  V30 2242 C 205.202 -2.58748 2.50155 0
M  V30 2243 C 204.81 -2.12925 3.94166 0
M  V30 2244 C 206.554 -3.36257 2.59098 0
M  V30 2245 C 204.461 -3.25723 4.93618 0
M  V30 2246 H 203.391 -0.537345 0.528939 0
M  V30 2247 H 206.042 -0.73024 1.68344 0
M  V30 2248 H 204.424 -3.31128 2.17188 0
M  V30 2249 H 205.598 -1.47697 4.36488 0
M  V30 2250 H 203.913 -1.48354 3.89076 0
M  V30 2251 H 206.51 -4.20264 3.30578 0
M  V30 2252 H 206.853 -3.82866 1.63461 0
M  V30 2253 H 207.386 -2.70947 2.9126 0
M  V30 2254 H 204.125 -2.84105 5.90732 0
M  V30 2255 H 203.645 -3.89732 4.55926 0
M  V30 2256 H 205.324 -3.91186 5.15347 0
M  V30 2257 N 205.456 -1.28612 -0.910864 0
M  V30 2258 C 206.684 -1.18792 -1.69399 0
M  V30 2259 C 207.099 0.253039 -1.87097 0
M  V30 2260 O 206.456 1.17071 -1.40003 0
M  V30 2261 C 206.507 -1.88511 -3.08457 0
M  V30 2262 O 206.228 -3.26979 -2.91576 0
M  V30 2263 C 207.729 -1.85029 -4.02839 0
M  V30 2264 H 204.949 -0.412233 -0.529438 0
M  V30 2265 H 207.493 -1.69788 -1.13984 0
M  V30 2266 H 205.648 -1.41379 -3.60681 0
M  V30 2267 H 206.062 -3.61936 -3.79608 0
M  V30 2268 H 207.536 -2.38395 -4.97867 0
M  V30 2269 H 208.013 -0.823303 -4.31414 0
M  V30 2270 H 208.619 -2.31853 -3.56545 0
M  V30 2271 N 206.934 1.1197 -1.10907 0
M  V30 2272 C 208.183 1.82947 -0.849302 0
M  V30 2273 C 208.496 1.85275 0.627112 0
M  V30 2274 O 209.702 2.52296 1.00295 0
M  V30 2275 C 208.158 3.28529 -1.46959 0
M  V30 2276 C 207.766 3.34546 -2.97965 0
M  V30 2277 C 209.51 4.04443 -1.28942 0
M  V30 2278 C 207.417 4.74491 -3.53004 0
M  V30 2279 H 206.347 0.685477 -0.314065 0
M  V30 2280 H 208.998 1.2604 -1.33365 0
M  V30 2281 H 207.38 3.85333 -0.912917 0
M  V30 2282 H 208.554 2.87654 -3.59989 0
M  V30 2283 H 206.869 2.72108 -3.15192 0
M  V30 2284 H 209.466 5.07787 -1.67502 0
M  V30 2285 H 209.809 4.15656 -0.231456 0
M  V30 2286 H 210.342 3.5401 -1.81443 0
M  V30 2287 H 207.081 4.68474 -4.58489 0
M  V30 2288 H 206.601 5.21816 -2.9575 0
M  V30 2289 H 208.28 5.4344 -3.51115 0
M  V30 2290 N 208.412 0.89855 1.29475 0
M  V30 2291 C 209.342 0.39201 2.30186 0
M  V30 2292 C 210.323 -0.532359 1.61555 0
M  V30 2293 O 211.508 -0.443331 1.89072 0
M  V30 2294 C 208.638 -0.382353 3.45189 0
M  V30 2295 C 207.592 0.451483 4.25612 0
M  V30 2296 C 206.918 -0.450307 5.328 0
M  V30 2297 C 208.218 1.70079 4.93832 0
M  V30 2298 H 209.912 1.23362 2.72804 0
M  V30 2299 H 207.458 0.594638 1.31149 0
M  V30 2300 H 209.411 -0.747451 4.14718 0
M  V30 2301 H 208.135 -1.25774 3.01411 0
M  V30 2302 H 206.794 0.798897 3.57789 0
M  V30 2303 H 206.442 -1.32379 4.85268 0
M  V30 2304 H 206.142 0.103902 5.87508 0
M  V30 2305 H 207.666 -0.811623 6.05182 0
M  V30 2306 H 209.08 1.40549 5.55805 0
M  V30 2307 H 207.477 2.19623 5.58467 0
M  V30 2308 H 208.547 2.43744 4.19186 0
M  V30 2309 N 209.89 -1.43072 0.660911 0
M  V30 2310 C 211.118 -2.06067 0.185422 0
M  V30 2311 C 211.533 -1.49582 -1.15198 0
M  V30 2312 O 210.89 -0.630134 -1.71276 0
M  V30 2313 C 210.941 -3.61371 0.0966523 0
M  V30 2314 O 210.662 -4.15758 1.38119 0
M  V30 2315 C 212.163 -4.41455 -0.403996 0
M  V30 2316 H 209.383 -0.664459 0.0934604 0
M  V30 2317 H 211.927 -1.83447 0.90373 0
M  V30 2318 H 210.082 -3.8315 -0.572259 0
M  V30 2319 H 210.496 -5.09499 1.24542 0
M  V30 2320 H 211.97 -5.50437 -0.415045 0
M  V30 2321 H 212.447 -4.15036 -1.43674 0
M  V30 2322 H 213.053 -4.24663 0.232691 0
M  V30 2323 N 211.368 -0.403325 -1.52352 0
M  V30 2324 C 212.316 0.439752 -2.28405 0
M  V30 2325 C 213.31 1.05089 -1.32863 0
M  V30 2326 O 214.516 0.989759 -1.50345 0
M  V30 2327 H 210.891 0.160587 -0.734653 0
M  V30 2328 H 212.862 -0.222983 -2.97566 0
M  V30 2329 C 211.611 1.54736 -3.11371 0
M  V30 2330 H 210.934 1.08643 -3.84755 0
M  V30 2331 H 212.374 2.1112 -3.67701 0
M  V30 2332 C 210.833 2.51141 -2.24566 0
M  V30 2333 O 211.363 3.54887 -1.88196 0
M  V30 2334 N 209.569 2.21213 -1.8845 0
M  V30 2335 H 209.116 1.36878 -2.18225 0
M  V30 2336 H 209.074 2.85963 -1.30662 0
M  V30 2337 N 212.846 1.57033 -0.133567 0
M  V30 2338 C 214.086 1.97575 0.523789 0
M  V30 2339 C 214.45 1.01605 1.62912 0
M  V30 2340 O 215.651 1.3114 2.3464 0
M  V30 2341 C 213.922 3.42256 1.02935 0
M  V30 2342 S 215.481 4.04817 1.69319 0
M  V30 2343 H 212.299 0.690427 0.169799 0
M  V30 2344 H 214.901 1.94234 -0.222101 0
M  V30 2345 H 213.605 4.09842 0.213917 0
M  V30 2346 H 213.136 3.4928 1.81017 0
M  V30 2347 H 215.151 3.96767 2.97977 0
M  V30 2348 N 214.325 -0.140222 1.56975 0
M  V30 2349 C 215.571 -0.852949 1.83991 0
M  V30 2350 C 215.904 -1.80512 0.716187 0
M  V30 2351 O 215.179 -1.92479 -0.279681 0
M  V30 2352 C 215.462 -1.6215 3.21527 0
M  V30 2353 C 215.315 -0.690363 4.4447 0
M  V30 2354 C 216.634 -2.58247 3.56366 0
M  V30 2355 H 213.753 -0.308634 0.669264 0
M  V30 2356 H 216.395 -0.117898 1.89634 0
M  V30 2357 H 214.545 -2.24812 3.16847 0
M  V30 2358 H 216.217 -0.0742264 4.6124 0
M  V30 2359 H 214.46 -0.000396433 4.338 0
M  V30 2360 H 215.131 -1.2643 5.37326 0
M  V30 2361 H 217.607 -2.05701 3.61699 0
M  V30 2362 H 216.483 -3.09067 4.53617 0
M  V30 2363 H 216.744 -3.39923 2.82674 0
M  V30 2364 N 215.803 -1.52179 -0.40978 0
M  V30 2365 C 217.05 -1.66206 -1.15679 0
M  V30 2366 C 217.378 -0.391674 -1.90516 0
M  V30 2367 O 216.633 0.62533 -1.8544 0
M  V30 2368 C 216.932 -2.83428 -2.17723 0
M  V30 2369 C 216.598 -4.21672 -1.59699 0
M  V30 2370 C 215.26 -4.59274 -1.43599 0
M  V30 2371 C 217.612 -5.07825 -1.17317 0
M  V30 2372 C 214.94 -5.80709 -0.836328 0
M  V30 2373 C 217.292 -6.29864 -0.587691 0
M  V30 2374 C 215.956 -6.66216 -0.413818 0
M  V30 2375 H 215.226 -0.608192 -0.423301 0
M  V30 2376 H 217.873 -1.86279 -0.444097 0
M  V30 2377 H 216.178 -2.57687 -2.95135 0
M  V30 2378 H 217.875 -2.91477 -2.75394 0
M  V30 2379 H 214.465 -3.9204 -1.73213 0
M  V30 2380 H 218.649 -4.79359 -1.28565 0
M  V30 2381 H 213.905 -6.07498 -0.689626 0
M  V30 2382 H 218.079 -6.95948 -0.250894 0
M  V30 2383 H 215.706 -7.60182 0.0529471 0
M  V30 2384 N 217.281 0.66697 -1.42791 0
M  V30 2385 C 218.214 1.79177 -1.41318 0
M  V30 2386 C 219.192 1.60234 -0.276401 0
M  V30 2387 O 220.376 1.82602 -0.46785 0
M  V30 2388 C 217.503 3.16289 -1.21157 0
M  V30 2389 C 216.549 3.53964 -2.37932 0
M  V30 2390 S 217.382 3.55501 -4.00474 0
M  V30 2391 C 218.538 4.95292 -3.8267 0
M  V30 2392 H 218.771 1.80153 -2.365 0
M  V30 2393 H 216.304 0.838357 -1.29657 0
M  V30 2394 H 218.262 3.95428 -1.10212 0
M  V30 2395 H 216.923 3.1289 -0.275481 0
M  V30 2396 H 216.116 4.53646 -2.19594 0
M  V30 2397 H 215.718 2.82204 -2.45432 0
M  V30 2398 H 218.01 5.83584 -3.44145 0
M  V30 2399 H 218.953 5.18679 -4.82055 0
M  V30 2400 H 219.361 4.68179 -3.15386 0
M  V30 2401 N 218.759 1.29093 0.90403 0
M  V30 2402 C 219.987 1.19689 1.68766 0
M  V30 2403 C 220.402 -0.243113 1.87228 0
M  V30 2404 O 219.759 -1.16326 1.40621 0
M  V30 2405 C 219.81 1.90144 3.07453 0
M  V30 2406 O 219.531 3.2852 2.89838 0
M  V30 2407 C 221.032 1.87162 4.01852 0
M  V30 2408 H 218.252 0.415035 0.527244 0
M  V30 2409 H 220.796 1.7039 1.13082 0
M  V30 2410 H 218.951 1.43289 3.59926 0
M  V30 2411 H 219.365 3.63944 3.77684 0
M  V30 2412 H 220.839 2.41032 4.96596 0
M  V30 2413 H 221.316 0.84617 4.30972 0
M  V30 2414 H 221.922 2.33741 3.5531 0
M  V30 2415 N 220.237 -1.11381 1.11499 0
M  V30 2416 C 221.17 -2.16621 0.71769 0
M  V30 2417 C 222.148 -1.60058 -0.286413 0
M  V30 2418 O 223.332 -1.87613 -0.182689 0
M  V30 2419 C 220.459 -3.38646 0.0607265 0
M  V30 2420 C 219.505 -4.13874 1.03008 0
M  V30 2421 S 220.338 -4.70731 2.55289 0
M  V30 2422 C 221.494 -5.96079 1.90895 0
M  V30 2423 H 221.727 -2.49987 1.60915 0
M  V30 2424 H 219.26 -1.23015 0.933092 0
M  V30 2425 H 221.218 -4.09313 -0.311965 0
M  V30 2426 H 219.879 -3.03537 -0.807702 0
M  V30 2427 H 219.072 -5.01333 0.517853 0
M  V30 2428 H 218.674 -3.4897 1.34522 0
M  V30 2429 H 220.966 -6.65948 1.24577 0
M  V30 2430 H 221.909 -6.51946 2.76354 0
M  V30 2431 H 222.317 -5.47652 1.36885 0
M  V30 2432 N 221.715 -0.905404 -1.28997 0
M  V30 2433 C 222.94 -0.549175 -1.99997 0
M  V30 2434 C 223.365 0.860276 -1.67275 0
M  V30 2435 O 222.723 1.57355 -0.900502 0
M  V30 2436 C 222.771 -0.755185 -3.52604 0
M  V30 2437 O 221.875 0.189692 -4.11964 0
M  V30 2438 H 221.216 -0.213899 -0.628604 0
M  V30 2439 H 223.746 -1.21856 -1.64354 0
M  V30 2440 H 223.756 -0.662045 -4.02593 0
M  V30 2441 H 222.431 -1.78271 -3.75755 0
M  V30 2442 H 221.008 0.0485257 -3.72868 0
M  V30 2443 N 223.193 1.4272 -0.668489 0
M  V30 2444 C 224.47 1.95248 -0.117373 0
M  V30 2445 C 224.85 1.60919 1.36632 0
M  V30 2446 O 224.198 0.902095 2.09939 0
M  V30 2447 C 224.408 3.46927 -0.379806 0
M  V30 2448 C 225.756 4.23588 -0.292923 0
M  V30 2449 O 226.78 3.5482 -0.313204 0
M  V30 2450 O 225.639 5.46017 -0.229697 0
M  V30 2451 H 222.733 0.827 0.00079152 0
M  V30 2452 H 225.279 1.52581 -0.742783 0
M  V30 2453 H 224.051 3.65096 -1.40786 0
M  V30 2454 H 223.674 3.96627 0.277923 0
M  V30 2455 N 224.671 0.411399 1.52136 0
M  V30 2456 C 226.082 -0.0576826 1.86611 0
M  V30 2457 C 226.433 -1.44238 1.33003 0
M  V30 2458 O 225.558 -2.05759 0.670228 0
M  V30 2459 C 226.153 -0.111448 3.38617 0
M  V30 2460 C 224.712 -0.52487 3.72723 0
M  V30 2461 C 223.859 0.299176 2.75681 0
M  V30 2462 H 226.81 0.628368 1.4573 0
M  V30 2463 H 226.831 -0.926252 3.69054 0
M  V30 2464 H 226.343 0.896488 3.77604 0
M  V30 2465 H 224.444 -1.53936 3.39315 0
M  V30 2466 H 224.557 -0.267681 4.78352 0
M  V30 2467 H 222.921 -0.238814 2.53578 0
M  V30 2468 H 223.704 1.3055 3.17508 0
M  V30 2469 N 226.149 -1.5696 0.141893 0
M  V30 2470 C 227.56 -1.82797 -0.379776 0
M  V30 2471 C 227.911 -1.06033 -1.6508 0
M  V30 2472 O 227.036 -0.304011 -2.14254 0
M  V30 2473 C 227.631 -3.31578 -0.695802 0
M  V30 2474 C 226.19 -3.58014 -1.16201 0
M  V30 2475 C 225.337 -2.76699 -0.182455 0
M  V30 2476 H 228.288 -1.54406 0.366675 0
M  V30 2477 H 228.309 -3.47454 -1.55099 0
M  V30 2478 H 227.821 -3.87421 0.229449 0
M  V30 2479 H 225.922 -3.07553 -2.10338 0
M  V30 2480 H 226.035 -4.66501 -1.09151 0
M  V30 2481 H 224.399 -2.45618 -0.674072 0
M  V30 2482 H 225.182 -3.35311 0.736297 0
M  V30 2483 N 227.627 0.131896 -1.57047 0
M  V30 2484 C 229.038 0.690407 -1.73465 0
M  V30 2485 C 229.389 1.8094 -0.758629 0
M  V30 2486 O 228.514 2.16282 0.0713813 0
M  V30 2487 C 229.109 1.25916 -3.14532 0
M  V30 2488 C 227.668 1.76409 -3.32501 0
M  V30 2489 C 226.815 0.658579 -2.69366 0
M  V30 2490 H 229.766 -0.0939144 -1.58422 0
M  V30 2491 H 229.787 2.12892 -3.15369 0
M  V30 2492 H 229.299 0.444515 -3.85546 0
M  V30 2493 H 227.4 2.60391 -2.66509 0
M  V30 2494 H 227.513 1.88241 -4.4057 0
M  V30 2495 H 225.877 1.08899 -2.30246 0
M  V30 2496 H 226.66 -0.14487 -3.42994 0
M  V30 2497 N 229.106 1.52395 0.401703 0
M  V30 2498 C 230.352 1.68019 1.14635 0
M  V30 2499 C 230.707 0.408722 1.88009 0
M  V30 2500 O 230 -0.597133 1.82057 0
M  V30 2501 C 230.194 2.84578 2.16217 0
M  V30 2502 C 230.023 4.22938 1.5282 0
M  V30 2503 C 228.793 4.88352 1.29772 0
M  V30 2504 C 230.991 5.04778 0.985094 0
M  V30 2505 N 228.973 6.10726 0.623455 0
M  V30 2506 C 230.344 6.1845 0.438172 0
M  V30 2507 C 232.399 4.90057 0.880275 0
M  V30 2508 C 231.102 7.19013 -0.203306 0
M  V30 2509 C 233.128 5.9086 0.252639 0
M  V30 2510 C 232.49 7.03829 -0.283573 0
M  V30 2511 H 228.589 0.668413 0.405892 0
M  V30 2512 H 231.173 1.89717 0.437674 0
M  V30 2513 H 229.344 2.64483 2.84435 0
M  V30 2514 H 231.076 2.89202 2.83098 0
M  V30 2515 H 227.831 4.46846 1.56926 0
M  V30 2516 H 228.255 6.76323 0.302733 0
M  V30 2517 H 232.897 4.02938 1.28065 0
M  V30 2518 H 230.615 8.05751 -0.615726 0
M  V30 2519 H 234.201 5.81543 0.172954 0
M  V30 2520 H 233.081 7.80493 -0.761575 0
M  V30 2521 N 230.584 -0.659388 1.43143 0
M  V30 2522 C 231.809 -1.45221 1.48073 0
M  V30 2523 C 232.234 -1.87845 0.097995 0
M  V30 2524 O 231.592 -1.56985 -0.90694 0
M  V30 2525 C 231.64 -2.66748 2.42647 0
M  V30 2526 O 230.744 -3.65583 1.90848 0
M  V30 2527 H 230.085 -0.435669 0.501088 0
M  V30 2528 H 232.615 -0.807432 1.87994 0
M  V30 2529 H 232.625 -3.14637 2.59745 0
M  V30 2530 H 231.3 -2.35067 3.43098 0
M  V30 2531 H 229.877 -3.24693 1.83381 0
M  V30 2532 N 232.062 -1.29571 -0.897171 0
M  V30 2533 C 233.009 -1.14916 -2.00158 0
M  V30 2534 C 233.979 -0.0418149 -1.66047 0
M  V30 2535 O 235.164 -0.209793 -1.89643 0
M  V30 2536 C 232.304 -0.834307 -3.34863 0
M  V30 2537 C 231.417 -2.02234 -3.8174 0
M  V30 2538 C 230.552 -1.64664 -5.05034 0
M  V30 2539 C 229.591 -2.80033 -5.44286 0
M  V30 2540 N 228.728 -2.42843 -6.58765 0
M  V30 2541 H 233.568 -2.09403 -2.12025 0
M  V30 2542 H 231.105 -1.042 -1.0383 0
M  V30 2543 H 233.063 -0.632436 -4.12379 0
M  V30 2544 H 231.693 0.0736656 -3.22716 0
M  V30 2545 H 230.745 -2.33583 -3.00238 0
M  V30 2546 H 232.057 -2.88673 -4.06779 0
M  V30 2547 H 231.211 -1.4078 -5.9014 0
M  V30 2548 H 229.95 -0.753766 -4.8184 0
M  V30 2549 H 228.955 -3.04596 -4.57713 0
M  V30 2550 H 230.18 -3.69989 -5.6946 0
M  V30 2551 H 228.126 -1.56046 -6.3717 0
M  V30 2552 H 228.043 -3.22815 -6.83613 0
M  V30 2553 H 229.311 -2.22285 -7.47134 0
M  V30 2554 N 233.54 1.10788 -1.12088 0
M  V30 2555 C 234.488 2.19111 -0.780587 0
M  V30 2556 C 235.482 1.67818 0.230961 0
M  V30 2557 O 236.688 1.79777 0.0895427 0
M  V30 2558 H 233.063 0.714477 -0.234578 0
M  V30 2559 H 235.034 2.45055 -1.70266 0
M  V30 2560 C 233.783 3.46818 -0.24747 0
M  V30 2561 H 233.106 3.86646 -1.01712 0
M  V30 2562 H 234.546 4.23973 -0.0476291 0
M  V30 2563 C 233.005 3.20968 1.02378 0
M  V30 2564 O 233.535 3.42298 2.10226 0
M  V30 2565 N 231.741 2.74658 0.949271 0
M  V30 2566 H 231.288 2.57501 0.0715173 0
M  V30 2567 H 231.246 2.57739 1.80049 0
M  V30 2568 N 235.018 0.912232 1.28515 0
M  V30 2569 C 236.264 0.545405 1.95328 0
M  V30 2570 C 236.597 -0.908313 1.71649 0
M  V30 2571 O 235.872 -1.64575 1.03659 0
M  V30 2572 C 236.155 0.853483 3.4984 0
M  V30 2573 C 236.008 2.35982 3.82926 0
M  V30 2574 C 237.327 0.348589 4.38717 0
M  V30 2575 H 234.446 0.199626 0.709449 0
M  V30 2576 H 237.088 1.1412 1.5191 0
M  V30 2577 H 235.238 0.34643 3.86952 0
M  V30 2578 H 236.91 2.93738 3.55691 0
M  V30 2579 H 235.153 2.81543 3.30024 0
M  V30 2580 H 235.824 2.52593 4.90816 0
M  V30 2581 H 238.3 0.78294 4.08668 0
M  V30 2582 H 237.176 0.593242 5.45685 0
M  V30 2583 H 237.437 -0.751049 4.35674 0
M  V30 2584 N 236.496 -1.42363 0.676048 0
M  V30 2585 C 237.406 -2.346 -0.00153389 0
M  V30 2586 C 238.422 -1.5516 -0.787485 0
M  V30 2587 O 239.598 -1.87723 -0.729521 0
M  V30 2588 C 236.663 -3.33705 -0.940298 0
M  V30 2589 C 235.724 -4.29042 -0.148739 0
M  V30 2590 C 234.957 -5.23413 -1.04279 0
M  V30 2591 O 235.18 -5.22749 -2.28232 0
M  V30 2592 O 234.114 -5.99795 -0.502925 0
M  V30 2593 H 237.94 -2.94082 0.758268 0
M  V30 2594 H 235.525 -1.42888 0.436289 0
M  V30 2595 H 237.407 -3.94586 -1.47917 0
M  V30 2596 H 236.082 -2.76695 -1.67993 0
M  V30 2597 H 234.989 -3.71571 0.43427 0
M  V30 2598 H 236.322 -4.89097 0.551805 0
M  V30 2599 N 237.974 -0.419461 -1.51915 0
M  V30 2600 C 239.204 0.151915 -2.06041 0
M  V30 2601 C 239.612 1.38539 -1.28855 0
M  V30 2602 O 238.955 1.80592 -0.336463 0
M  V30 2603 C 239.017 0.557119 -3.55157 0
M  V30 2604 C 238.681 -0.567054 -4.53468 0
M  V30 2605 C 239.678 -1.43379 -4.99738 0
M  V30 2606 C 237.363 -0.742693 -4.96779 0
M  V30 2607 C 239.357 -2.46102 -5.87973 0
M  V30 2608 C 237.044 -1.77322 -5.84808 0
M  V30 2609 C 238.042 -2.63078 -6.30301 0
M  V30 2610 O 237.73 -3.64364 -7.16585 0
M  V30 2611 H 237.462 0.0193293 -0.675724 0
M  V30 2612 H 240.016 -0.592073 -1.96682 0
M  V30 2613 H 238.246 1.35355 -3.62238 0
M  V30 2614 H 239.935 1.05759 -3.9188 0
M  V30 2615 H 240.701 -1.30954 -4.66986 0
M  V30 2616 H 236.58 -0.0848307 -4.60922 0
M  V30 2617 H 240.124 -3.13071 -6.23404 0
M  V30 2618 H 236.021 -1.89773 -6.16974 0
M  V30 2619 H 236.789 -3.60731 -7.34721 0
M  V30 2620 N 239.452 1.56882 -0.150215 0
M  V30 2621 C 240.68 2.00593 0.506948 0
M  V30 2622 C 241.095 1.03033 1.58208 0
M  V30 2623 O 240.452 0.0278396 1.82479 0
M  V30 2624 C 240.503 3.44209 1.10465 0
M  V30 2625 O 240.224 4.3804 0.0724636 0
M  V30 2626 C 241.725 4.03214 1.84211 0
M  V30 2627 H 238.945 0.65795 0.13169 0
M  V30 2628 H 241.489 2.03018 -0.245743 0
M  V30 2629 H 239.644 3.42625 1.80795 0
M  V30 2630 H 240.058 5.22007 0.510793 0
M  V30 2631 H 241.532 5.0569 2.21318 0
M  V30 2632 H 242.009 3.44107 2.72923 0
M  V30 2633 H 242.615 4.08437 1.18572 0
M  V30 2634 N 240.93 -0.123565 1.57115 0
M  V30 2635 C 242.177 -0.832153 1.84612 0
M  V30 2636 C 242.505 -1.80093 0.734627 0
M  V30 2637 O 241.76 -1.93766 -0.27442 0
M  V30 2638 C 242.059 -1.62016 3.18568 0
M  V30 2639 C 241.725 -0.796084 4.43817 0
M  V30 2640 C 240.387 -0.568816 4.77826 0
M  V30 2641 C 242.739 -0.221364 5.2073 0
M  V30 2642 C 240.067 0.243499 5.86194 0
M  V30 2643 C 242.419 0.578117 6.29953 0
M  V30 2644 C 241.083 0.815744 6.62497 0
M  V30 2645 H 240.353 -0.304507 0.675542 0
M  V30 2646 H 243 -0.0947248 1.91266 0
M  V30 2647 H 241.305 -2.42837 3.0747 0
M  V30 2648 H 243.002 -2.17231 3.37064 0
M  V30 2649 H 239.592 -0.983307 4.17168 0
M  V30 2650 H 243.776 -0.384173 4.94811 0
M  V30 2651 H 239.032 0.436871 6.09837 0
M  V30 2652 H 243.206 1.03046 6.88734 0
M  V30 2653 H 240.833 1.44701 7.46301 0
M  V30 2654 N 242.408 -1.52605 -0.393616 0
M  V30 2655 C 243.636 -1.71294 -1.16043 0
M  V30 2656 C 244.051 -0.429259 -1.83855 0
M  V30 2657 O 243.408 0.595921 -1.72496 0
M  V30 2658 C 243.459 -2.8593 -2.21193 0
M  V30 2659 O 243.18 -4.09329 -1.56146 0
M  V30 2660 C 244.681 -3.16259 -3.10636 0
M  V30 2661 H 241.901 -0.573641 -0.348104 0
M  V30 2662 H 244.445 -1.99234 -0.461092 0
M  V30 2663 H 242.6 -2.60465 -2.86769 0
M  V30 2664 H 243.014 -4.73323 -2.25978 0
M  V30 2665 H 244.488 -3.99946 -3.80456 0
M  V30 2666 H 244.965 -2.3045 -3.73884 0
M  V30 2667 H 245.571 -3.43547 -2.50711 0
M  V30 2668 N 243.887 0.651787 -1.4349 0
M  V30 2669 C 245.135 1.40888 -1.44897 0
M  V30 2670 C 245.456 1.94856 -0.0749086 0
M  V30 2671 O 244.726 1.74518 0.889956 0
M  V30 2672 H 243.306 0.522887 -0.533478 0
M  V30 2673 H 245.968 0.768609 -1.79104 0
M  V30 2674 H 245.064 2.25052 -2.16236 0
M  V30 2675 N 245.365 1.30045 0.890287 0
M  V30 2676 C 246.614 1.17929 1.63633 0
M  V30 2677 C 246.927 -0.266204 1.9378 0
M  V30 2678 O 248.133 -0.508804 2.6669 0
M  V30 2679 C 246.589 2.06317 2.94892 0
M  V30 2680 C 246.197 3.55745 2.72305 0
M  V30 2681 C 247.941 2.0295 3.72843 0
M  V30 2682 C 245.848 4.36205 3.99348 0
M  V30 2683 H 244.778 0.437782 0.613892 0
M  V30 2684 H 247.429 1.54754 0.986075 0
M  V30 2685 H 245.811 1.6237 3.61182 0
M  V30 2686 H 246.985 4.07805 2.1455 0
M  V30 2687 H 245.3 3.6088 2.07737 0
M  V30 2688 H 247.897 2.60319 4.67053 0
M  V30 2689 H 248.24 1.0117 4.0382 0
M  V30 2690 H 248.773 2.4499 3.13408 0
M  V30 2691 H 245.512 5.38659 3.73533 0
M  V30 2692 H 245.032 3.8891 4.56628 0
M  V30 2693 H 246.711 4.47362 4.67415 0
M  V30 2694 N 246.843 -1.10192 1.12674 0
M  V30 2695 C 248.073 -1.85713 0.905213 0
M  V30 2696 C 248.481 -1.81056 -0.549108 0
M  V30 2697 O 247.824 -1.19927 -1.39151 0
M  V30 2698 C 247.886 -3.34972 1.30516 0
M  V30 2699 C 247.55 -3.63385 2.77129 0
M  V30 2700 C 248.547 -3.59772 3.75313 0
M  V30 2701 C 246.232 -3.91981 3.14096 0
M  V30 2702 C 248.226 -3.84354 5.08479 0
M  V30 2703 C 245.913 -4.16218 4.47443 0
M  V30 2704 C 246.911 -4.12395 5.44444 0
M  V30 2705 O 246.599 -4.36014 6.75387 0
M  V30 2706 H 246.331 -0.593719 0.323223 0
M  V30 2707 H 248.885 -1.40198 1.50112 0
M  V30 2708 H 247.115 -3.81156 0.652463 0
M  V30 2709 H 248.804 -3.91886 1.05736 0
M  V30 2710 H 249.57 -3.37716 3.48099 0
M  V30 2711 H 245.449 -3.94085 2.39202 0
M  V30 2712 H 248.993 -3.81285 5.84181 0
M  V30 2713 H 244.89 -4.37754 4.74386 0
M  V30 2714 H 245.658 -4.53516 6.8137 0
M  V30 2715 N 248.321 -0.919034 -1.28029 0
M  V30 2716 C 249.549 -0.570971 -1.98866 0
M  V30 2717 C 249.964 0.848996 -1.68634 0
M  V30 2718 O 249.321 1.56307 -0.942036 0
M  V30 2719 C 249.372 -0.776876 -3.53054 0
M  V30 2720 O 249.093 -2.14097 -3.82222 0
M  V30 2721 C 250.594 -0.436356 -4.41147 0
M  V30 2722 H 247.814 -0.217175 -0.634883 0
M  V30 2723 H 250.358 -1.23368 -1.63097 0
M  V30 2724 H 248.513 -0.161085 -3.87065 0
M  V30 2725 H 248.927 -2.18455 -4.76841 0
M  V30 2726 H 250.401 -0.63117 -5.4838 0
M  V30 2727 H 250.878 0.627686 -4.34692 0
M  V30 2728 H 251.484 -1.02991 -4.12641 0
M  V30 2729 N 249.799 1.42003 -0.683588 0
M  V30 2730 C 251.046 2.01413 -0.209514 0
M  V30 2731 C 251.374 1.54088 1.1869 0
M  V30 2732 O 250.629 0.737591 1.81268 0
M  V30 2733 C 250.928 3.56827 -0.202357 0
M  V30 2734 C 250.594 4.23617 -1.54464 0
M  V30 2735 C 249.256 4.41577 -1.91215 0
M  V30 2736 C 251.608 4.61178 -2.42826 0
M  V30 2737 C 248.936 4.9437 -3.15935 0
M  V30 2738 C 251.288 5.15355 -3.66867 0
M  V30 2739 C 249.952 5.31528 -4.03776 0
M  V30 2740 H 249.222 0.737023 -0.0766668 0
M  V30 2741 H 251.869 1.70067 -0.880312 0
M  V30 2742 H 250.174 3.87892 0.551969 0
M  V30 2743 H 251.871 4.00588 0.181793 0
M  V30 2744 H 248.461 4.10004 -1.24877 0
M  V30 2745 H 252.645 4.46968 -2.15717 0
M  V30 2746 H 247.901 5.05076 -3.44541 0
M  V30 2747 H 252.075 5.43402 -4.35531 0
M  V30 2748 H 249.702 5.72199 -5.00492 0
M  V30 2749 N 251.277 0.427512 1.51691 0
M  V30 2750 C 252.187 -0.39527 2.31246 0
M  V30 2751 C 253.203 -1.03674 1.39742 0
M  V30 2752 O 254.379 -1.03425 1.72816 0
M  V30 2753 C 251.444 -1.48706 3.13189 0
M  V30 2754 C 250.505 -0.866743 4.20459 0
M  V30 2755 C 249.738 -1.90651 4.98486 0
M  V30 2756 O 249.961 -3.12733 4.77026 0
M  V30 2757 O 248.895 -1.5025 5.82845 0
M  V30 2758 H 252.721 0.253918 3.02637 0
M  V30 2759 H 250.306 0.190274 1.48183 0
M  V30 2760 H 252.188 -2.12047 3.64162 0
M  V30 2761 H 250.863 -2.12051 2.44573 0
M  V30 2762 H 249.77 -0.195544 3.73589 0
M  V30 2763 H 251.103 -0.276934 4.9142 0
M  V30 2764 N 252.755 -1.56801 0.158532 0
M  V30 2765 C 253.98 -2.01295 -0.499516 0
M  V30 2766 C 254.405 -1.03799 -1.56867 0
M  V30 2767 O 253.763 -0.0155162 -1.81293 0
M  V30 2768 C 253.811 -3.44469 -1.06647 0
M  V30 2769 O 252.915 -3.50012 -2.18095 0
M  V30 2770 H 252.256 -0.652884 -0.12099 0
M  V30 2771 H 254.786 -2.02958 0.258661 0
M  V30 2772 H 254.796 -3.8351 -1.39227 0
M  V30 2773 H 253.471 -4.14932 -0.283581 0
M  V30 2774 H 252.048 -3.22822 -1.86656 0
M  V30 2775 N 254.233 0.115231 -1.57178 0
M  V30 2776 C 255.163 1.1423 -2.03651 0
M  V30 2777 C 256.144 1.42967 -0.921655 0
M  V30 2778 O 257.329 1.53343 -1.19162 0
M  V30 2779 C 254.459 2.4675 -2.44401 0
M  V30 2780 C 253.413 2.32467 -3.59365 0
M  V30 2781 C 252.739 3.69984 -3.86026 0
M  V30 2782 C 254.039 1.78203 -4.90959 0
M  V30 2783 H 255.733 0.755749 -2.89705 0
M  V30 2784 H 253.279 0.362093 -1.39373 0
M  V30 2785 H 255.232 3.18854 -2.75517 0
M  V30 2786 H 253.956 2.87302 -1.55322 0
M  V30 2787 H 252.615 1.62811 -3.28463 0
M  V30 2788 H 252.263 4.08028 -2.94147 0
M  V30 2789 H 251.963 3.61279 -4.63412 0
M  V30 2790 H 253.487 4.43587 -4.19599 0
M  V30 2791 H 254.901 2.40128 -5.20587 0
M  V30 2792 H 253.298 1.8031 -5.72371 0
M  V30 2793 H 254.368 0.739876 -4.79222 0
M  V30 2794 N 255.711 1.52812 0.385517 0
M  V30 2795 C 256.96 1.67249 1.12741 0
M  V30 2796 C 257.273 0.4205 1.91027 0
M  V30 2797 O 258.479 0.445064 2.67827 0
M  V30 2798 C 256.935 2.95583 2.05326 0
M  V30 2799 C 256.543 4.27974 1.32447 0
M  V30 2800 C 258.287 3.19386 2.7963 0
M  V30 2801 C 256.194 5.47412 2.23818 0
M  V30 2802 H 255.124 0.6231 0.424573 0
M  V30 2803 H 257.775 1.79309 0.389924 0
M  V30 2804 H 256.157 2.77277 2.82725 0
M  V30 2805 H 257.331 4.56844 0.602495 0
M  V30 2806 H 255.646 4.10459 0.700885 0
M  V30 2807 H 258.243 4.05801 3.48181 0
M  V30 2808 H 258.586 2.34604 3.43899 0
M  V30 2809 H 259.119 3.38274 2.09322 0
M  V30 2810 H 255.858 6.34612 1.64157 0
M  V30 2811 H 255.378 5.22849 2.93921 0
M  V30 2812 H 257.057 5.81423 2.83824 0
M  V30 2813 N 257.189 -0.644168 1.43834 0
M  V30 2814 C 258.136 -1.75671 1.49694 0
M  V30 2815 C 259.106 -1.6246 0.345809 0
M  V30 2816 O 260.291 -1.82573 0.554234 0
M  V30 2817 C 257.431 -3.13867 1.43463 0
M  V30 2818 C 256.544 -3.38147 2.6885 0
M  V30 2819 C 255.679 -4.66241 2.54544 0
M  V30 2820 C 254.718 -4.83657 3.75157 0
M  V30 2821 N 253.855 -6.03016 3.59605 0
M  V30 2822 H 258.695 -1.69998 2.44754 0
M  V30 2823 H 256.232 -0.829458 1.21484 0
M  V30 2824 H 258.19 -3.9377 1.37843 0
M  V30 2825 H 256.82 -3.18588 0.519783 0
M  V30 2826 H 255.872 -2.52276 2.84712 0
M  V30 2827 H 257.184 -3.46899 3.58417 0
M  V30 2828 H 256.338 -5.54285 2.46683 0
M  V30 2829 H 255.077 -4.59826 1.62516 0
M  V30 2830 H 254.082 -3.94046 3.83416 0
M  V30 2831 H 255.307 -4.91896 4.68204 0
M  V30 2832 H 253.253 -5.97715 2.7032 0
M  V30 2833 H 253.17 -6.12766 4.42779 0
M  V30 2834 H 254.438 -6.93657 3.55613 0
M  V30 2835 N 258.668 -1.30515 -0.883378 0
M  V30 2836 C 259.917 -1.18795 -1.63005 0
M  V30 2837 C 260.23 0.255923 -1.93919 0
M  V30 2838 O 261.436 0.494654 -2.66956 0
M  V30 2839 C 259.892 -2.07878 -2.93794 0
M  V30 2840 C 259.5 -3.57184 -2.70414 0
M  V30 2841 C 261.244 -2.04924 -3.71761 0
M  V30 2842 C 259.151 -4.38317 -3.97029 0
M  V30 2843 H 258.081 -0.441031 -0.611562 0
M  V30 2844 H 260.732 -1.55275 -0.977854 0
M  V30 2845 H 259.114 -1.64283 -3.60315 0
M  V30 2846 H 260.288 -4.08937 -2.12384 0
M  V30 2847 H 258.603 -3.61976 -2.0582 0
M  V30 2848 H 261.2 -2.62792 -4.65665 0
M  V30 2849 H 261.543 -1.0331 -4.03277 0
M  V30 2850 H 262.076 -2.46649 -3.12104 0
M  V30 2851 H 258.815 -5.40632 -3.70671 0
M  V30 2852 H 258.335 -3.91326 -4.54559 0
M  V30 2853 H 260.014 -4.49834 -4.65036 0
M  V30 2854 N 260.146 1.09593 -1.13257 0
M  V30 2855 C 261.076 2.18214 -0.830946 0
M  V30 2856 C 262.057 1.68812 0.208966 0
M  V30 2857 O 263.242 1.9408 0.0682666 0
M  V30 2858 C 260.372 3.46051 -0.294296 0
M  V30 2859 C 259.326 4.08778 -1.26826 0
M  V30 2860 C 258.652 5.31419 -0.591449 0
M  V30 2861 C 259.952 4.51476 -2.62615 0
M  V30 2862 H 261.646 2.43703 -1.73923 0
M  V30 2863 H 259.192 1.17128 -0.837675 0
M  V30 2864 H 261.145 4.2134 -0.0709606 0
M  V30 2865 H 259.869 3.20079 0.649366 0
M  V30 2866 H 258.528 3.35505 -1.47756 0
M  V30 2867 H 258.176 5.01727 0.357633 0
M  V30 2868 H 257.876 5.74341 -1.24123 0
M  V30 2869 H 259.4 6.09433 -0.377355 0
M  V30 2870 H 260.814 5.17999 -2.45663 0
M  V30 2871 H 259.211 5.05277 -3.23752 0
M  V30 2872 H 260.281 3.63962 -3.20406 0
M  V30 2873 N 261.624 0.925811 1.2754 0
M  V30 2874 C 262.587 0.428129 2.25166 0
M  V30 2875 C 263.587 -0.452261 1.54309 0
M  V30 2876 O 264.777 -0.253608 1.72344 0
M  V30 2877 C 261.909 -0.384749 3.38722 0
M  V30 2878 H 263.102 1.29066 2.70706 0
M  V30 2879 H 260.655 0.706323 1.3943 0
M  V30 2880 H 261.39 -1.26618 2.98561 0
M  V30 2881 H 261.175 0.246454 3.91325 0
M  V30 2882 H 262.665 -0.723389 4.11287 0
M  V30 2883 N 263.102 -1.41638 0.69111 0
M  V30 2884 C 264.518 -1.55435 0.362224 0
M  V30 2885 C 264.718 -1.66754 -1.13117 0
M  V30 2886 O 263.774 -1.64348 -1.91692 0
M  V30 2887 C 265.087 -2.79588 1.10684 0
M  V30 2888 C 266.635 -2.9338 1.09075 0
M  V30 2889 C 267.11 -4.20414 1.81703 0
M  V30 2890 N 268.601 -4.27362 1.7865 0
M  V30 2891 C 269.336 -5.24507 2.31689 0
M  V30 2892 N 268.832 -6.27708 2.93179 0
M  V30 2893 N 270.625 -5.16416 2.2197 0
M  V30 2894 H 262.776 -1.32536 1.65976 0
M  V30 2895 H 265.039 -0.639115 0.700168 0
M  V30 2896 H 264.745 -2.77419 2.16175 0
M  V30 2897 H 264.619 -3.70973 0.682545 0
M  V30 2898 H 267.006 -2.95067 0.0441238 0
M  V30 2899 H 267.087 -2.0318 1.55407 0
M  V30 2900 H 266.731 -4.19488 2.86343 0
M  V30 2901 H 266.661 -5.09578 1.32808 0
M  V30 2902 H 269.152 -3.53415 1.33815 0
M  V30 2903 H 269.465 -6.98217 3.31229 0
M  V30 2904 H 267.81 -6.28223 2.97255 0
M  V30 2905 H 271.001 -4.34716 1.73607 0
M  V30 2906 H 271.174 -5.91958 2.63609 0
M  V30 2907 N 264.58 -0.43555 -1.51462 0
M  V30 2908 C 265.828 0.131254 -2.01673 0
M  V30 2909 C 266.149 1.43368 -1.32177 0
M  V30 2910 O 265.419 1.90524 -0.455769 0
M  V30 2911 H 263.999 0.0514954 -0.745223 0
M  V30 2912 H 266.661 -0.577847 -1.86137 0
M  V30 2913 H 265.757 0.308446 -3.10572 0
M  V30 2914 N 266.058 1.56714 -0.166846 0
M  V30 2915 C 267.305 1.96747 0.479252 0
M  V30 2916 C 267.633 1.05263 1.63554 0
M  V30 2917 O 266.888 0.0858098 1.95512 0
M  V30 2918 C 267.187 3.42889 1.00806 0
M  V30 2919 C 266.853 4.50889 -0.0318574 0
M  V30 2920 C 265.515 4.8015 -0.317675 0
M  V30 2921 C 267.867 5.15949 -0.737956 0
M  V30 2922 C 265.195 5.71772 -1.31506 0
M  V30 2923 C 267.547 6.08647 -1.72429 0
M  V30 2924 C 266.211 6.36277 -2.0176 0
M  V30 2925 H 265.481 0.719949 0.175371 0
M  V30 2926 H 268.128 1.89756 -0.257864 0
M  V30 2927 H 266.433 3.4681 1.82291 0
M  V30 2928 H 268.13 3.71203 1.51689 0
M  V30 2929 H 264.72 4.28128 0.201088 0
M  V30 2930 H 268.904 4.93458 -0.530351 0
M  V30 2931 H 264.16 5.91465 -1.54853 0
M  V30 2932 H 268.334 6.58129 -2.27682 0
M  V30 2933 H 265.961 7.07075 -2.79194 0
M  V30 2934 N 267.536 -0.106894 1.57237 0
M  V30 2935 C 268.776 -0.818277 1.87306 0
M  V30 2936 C 269.14 -1.76474 0.756371 0
M  V30 2937 O 270.341 -2.5186 0.939155 0
M  V30 2938 C 268.612 -1.53806 3.22612 0
M  V30 2939 S 270.171 -2.28935 3.74345 0
M  V30 2940 H 266.989 -0.272862 0.656557 0
M  V30 2941 H 269.591 -0.075988 1.95352 0
M  V30 2942 H 268.295 -0.834951 4.01817 0
M  V30 2943 H 267.826 -2.32049 3.17674 0
M  V30 2944 H 269.841 -3.54871 3.46815 0
M  V30 2945 N 269.014 -1.53014 -0.377408 0
M  V30 2946 C 270.26 -1.68872 -1.12294 0
M  V30 2947 C 270.593 -0.433224 -1.89306 0
M  V30 2948 O 269.868 0.569258 -1.85983 0
M  V30 2949 C 270.151 -2.93115 -2.09179 0
M  V30 2950 C 270.004 -4.28794 -1.35853 0
M  V30 2951 C 271.323 -3.12928 -3.09458 0
M  V30 2952 H 268.442 -0.614518 -0.406862 0
M  V30 2953 H 271.084 -1.85633 -0.40503 0
M  V30 2954 H 269.234 -2.78956 -2.70399 0
M  V30 2955 H 270.906 -4.54742 -0.775082 0
M  V30 2956 H 269.149 -4.28744 -0.660364 0
M  V30 2957 H 269.82 -5.11837 -2.06706 0
M  V30 2958 H 272.296 -3.26194 -2.58334 0
M  V30 2959 H 271.172 -4.01316 -3.74482 0
M  V30 2960 H 271.433 -2.27669 -3.78971 0
M  V30 2961 N 270.492 0.636531 -1.44174 0
M  V30 2962 C 271.769 1.39463 -1.37148 0
M  V30 2963 C 272.149 2.11082 -0.027507 0
M  V30 2964 O 271.497 2.05954 0.989716 0
M  V30 2965 C 271.707 2.36552 -2.56601 0
M  V30 2966 C 273.055 3.00048 -3.00427 0
M  V30 2967 O 274.079 2.46878 -2.56767 0
M  V30 2968 O 272.938 3.96488 -3.76111 0
M  V30 2969 H 270.032 0.623903 -0.542839 0
M  V30 2970 H 272.578 0.662039 -1.56253 0
M  V30 2971 H 271.35 1.82692 -3.46034 0
M  V30 2972 H 270.973 3.17236 -2.39681 0
M  V30 2973 N 271.97 1.30982 0.876444 0
M  V30 2974 C 273.247 1.10942 1.61094 0
M  V30 2975 C 273.627 -0.338223 2.08373 0
M  V30 2976 O 272.975 -1.33122 1.85717 0
M  V30 2977 C 273.185 2.11789 2.77392 0
M  V30 2978 C 274.533 2.43965 3.47514 0
M  V30 2979 O 275.557 2.10166 2.87591 0
M  V30 2980 O 274.416 3.01817 4.55597 0
M  V30 2981 H 271.51 0.42667 0.708436 0
M  V30 2982 H 274.056 1.42438 0.922474 0
M  V30 2983 H 272.828 3.09194 2.39823 0
M  V30 2984 H 272.451 1.81161 3.5393 0
M  V30 2985 N 273.449 -1.08991 1.13837 0
M  V30 2986 C 274.696 -1.81258 0.902882 0
M  V30 2987 C 275.024 -1.85936 -0.570803 0
M  V30 2988 O 274.279 -1.3267 -1.43865 0
M  V30 2989 C 274.578 -3.27042 1.44147 0
M  V30 2990 C 274.244 -3.4249 2.93276 0
M  V30 2991 C 272.906 -3.46414 3.33992 0
M  V30 2992 C 275.258 -3.4666 3.892 0
M  V30 2993 C 272.586 -3.52091 4.69307 0
M  V30 2994 C 274.938 -3.53872 5.24364 0
M  V30 2995 C 273.602 -3.56066 5.646 0
M  V30 2996 H 272.872 -0.663268 0.330388 0
M  V30 2997 H 275.519 -1.28368 1.42105 0
M  V30 2998 H 273.824 -3.82599 0.844097 0
M  V30 2999 H 275.521 -3.81499 1.23528 0
M  V30 3000 H 272.111 -3.40124 2.60794 0
M  V30 3001 H 276.295 -3.42865 3.58828 0
M  V30 3002 H 271.551 -3.52079 4.9985 0
M  V30 3003 H 275.725 -3.56043 5.98503 0
M  V30 3004 H 273.352 -3.60218 6.69438 0
M  V30 3005 N 274.927 -0.932562 -1.27047 0
M  V30 3006 C 276.155 -0.592031 -1.98249 0
M  V30 3007 C 276.57 0.831062 -1.69525 0
M  V30 3008 O 275.927 1.55299 -0.958561 0
M  V30 3009 C 275.978 -0.814279 -3.5221 0
M  V30 3010 O 275.699 -2.18139 -3.7993 0
M  V30 3011 C 277.2 -0.483121 -4.4066 0
M  V30 3012 H 274.42 -0.223896 -0.632544 0
M  V30 3013 H 276.964 -1.25091 -1.61779 0
M  V30 3014 H 275.119 -0.20213 -3.86872 0
M  V30 3015 H 275.533 -2.235 -4.74498 0
M  V30 3016 H 277.007 -0.689298 -5.47679 0
M  V30 3017 H 277.484 0.581546 -4.35333 0
M  V30 3018 H 278.09 -1.07362 -4.11526 0
M  V30 3019 N 276.405 1.4127 -0.698611 0
M  V30 3020 C 277.652 2.0118 -0.230865 0
M  V30 3021 C 277.98 1.55338 1.17049 0
M  V30 3022 O 277.235 0.756775 1.80475 0
M  V30 3023 C 277.534 3.56592 -0.240192 0
M  V30 3024 C 277.2 4.21955 -1.58948 0
M  V30 3025 C 275.862 4.39524 -1.95887 0
M  V30 3026 C 278.214 4.58576 -2.47704 0
M  V30 3027 C 275.542 4.90992 -3.2116 0
M  V30 3028 C 277.894 5.11435 -3.72313 0
M  V30 3029 C 276.558 5.27215 -4.0939 0
M  V30 3030 H 275.828 0.736169 -0.0844796 0
M  V30 3031 H 278.475 1.69124 -0.8983 0
M  V30 3032 H 276.78 3.88456 0.510797 0
M  V30 3033 H 278.477 4.00758 0.139296 0
M  V30 3034 H 275.067 4.08657 -1.29219 0
M  V30 3035 H 279.251 4.44654 -2.20445 0
M  V30 3036 H 274.507 5.01393 -3.49878 0
M  V30 3037 H 278.681 5.38752 -4.4127 0
M  V30 3038 H 276.308 5.66859 -5.06533 0
M  V30 3039 N 277.883 0.443576 1.51229 0
M  V30 3040 C 278.813 -0.355142 2.30783 0
M  V30 3041 C 279.794 -1.0154 1.36468 0
M  V30 3042 O 280.979 -1.01785 1.65389 0
M  V30 3043 C 278.109 -1.45312 3.15439 0
M  V30 3044 C 277.063 -0.916002 4.18083 0
M  V30 3045 C 276.389 -2.1102 4.91299 0
M  V30 3046 C 277.689 0.0538602 5.22272 0
M  V30 3047 H 279.383 0.308767 2.97804 0
M  V30 3048 H 276.929 0.149937 1.43217 0
M  V30 3049 H 278.882 -2.01914 3.69876 0
M  V30 3050 H 277.606 -2.14541 2.46252 0
M  V30 3051 H 276.265 -0.372145 3.64706 0
M  V30 3052 H 275.913 -2.78882 4.18609 0
M  V30 3053 H 275.613 -1.75717 5.60712 0
M  V30 3054 H 277.137 -2.68164 5.48562 0
M  V30 3055 H 278.551 -0.422069 5.71744 0
M  V30 3056 H 276.948 0.319776 5.99247 0
M  V30 3057 H 278.018 0.98858 4.74716 0
M  V30 3058 N 279.361 -1.56624 0.175154 0
M  V30 3059 C 280.777 -1.58571 -0.180966 0
M  V30 3060 C 280.977 -1.19065 -1.6256 0
M  V30 3061 O 280.033 -0.904044 -2.35761 0
M  V30 3062 C 281.346 -3.00522 0.103326 0
M  V30 3063 C 282.894 -3.12972 0.0418426 0
M  V30 3064 C 283.369 -4.57022 0.299175 0
M  V30 3065 N 284.86 -4.62541 0.247086 0
M  V30 3066 C 285.595 -5.71857 0.420318 0
M  V30 3067 N 285.091 -6.89717 0.652816 0
M  V30 3068 N 286.884 -5.60972 0.355957 0
M  V30 3069 H 279.035 -1.80589 1.11809 0
M  V30 3070 H 281.298 -0.837178 0.444788 0
M  V30 3071 H 281.004 -3.33916 1.10422 0
M  V30 3072 H 280.878 -3.72344 -0.603299 0
M  V30 3073 H 283.265 -2.79403 -0.949636 0
M  V30 3074 H 283.346 -2.43578 0.781238 0
M  V30 3075 H 282.99 -4.913 1.28788 0
M  V30 3076 H 282.92 -5.24579 -0.460876 0
M  V30 3077 H 285.411 -3.77829 0.0731895 0
M  V30 3078 H 285.724 -7.68911 0.774347 0
M  V30 3079 H 284.069 -6.91572 0.689476 0
M  V30 3080 H 287.26 -4.67773 0.174882 0
M  V30 3081 H 287.433 -6.46111 0.494388 0
M  V30 3082 N 280.839 0.0985539 -1.57292 0
M  V30 3083 C 282.116 0.834155 -1.76921 0
M  V30 3084 C 282.496 1.97101 -0.755928 0
M  V30 3085 O 281.844 2.27474 0.216245 0
M  V30 3086 C 282.054 1.33194 -3.22584 0
M  V30 3087 C 283.402 1.77611 -3.85668 0
M  V30 3088 O 284.426 1.42825 -3.26312 0
M  V30 3089 O 283.285 2.4192 -4.90038 0
M  V30 3090 H 280.379 0.397628 -0.725135 0
M  V30 3091 H 282.925 0.0807044 -1.69508 0
M  V30 3092 H 281.697 0.517248 -3.87866 0
M  V30 3093 H 281.32 2.1475 -3.34616 0
M  V30 3094 N 282.317 1.53212 0.369288 0
M  V30 3095 C 283.728 1.60943 0.946276 0
M  V30 3096 C 284.079 0.47452 1.90375 0
M  V30 3097 O 283.204 -0.399597 2.12679 0
M  V30 3098 C 283.799 2.91715 1.72302 0
M  V30 3099 C 282.358 3.01792 2.24941 0
M  V30 3100 C 281.505 2.56211 1.06072 0
M  V30 3101 H 284.456 1.58007 0.148198 0
M  V30 3102 H 284.477 2.79309 2.58393 0
M  V30 3103 H 283.989 3.74295 1.0259 0
M  V30 3104 H 282.09 2.23791 2.97906 0
M  V30 3105 H 282.203 4.06803 2.53077 0
M  V30 3106 H 280.567 2.10998 1.4266 0
M  V30 3107 H 281.35 3.41206 0.378639 0
M  V30 3108 N 283.795 -0.628877 1.44509 0
M  V30 3109 C 285.041 -1.38863 1.48623 0
M  V30 3110 C 285.396 -1.92038 0.117933 0
M  V30 3111 O 284.689 -1.70853 -0.86716 0
M  V30 3112 C 284.883 -2.56995 2.48371 0
M  V30 3113 C 284.712 -2.15385 3.94765 0
M  V30 3114 C 283.482 -2.02558 4.62924 0
M  V30 3115 C 285.68 -1.74158 4.83915 0
M  V30 3116 N 283.662 -1.54534 5.94132 0
M  V30 3117 C 285.033 -1.37396 6.04584 0
M  V30 3118 C 287.088 -1.61559 4.7096 0
M  V30 3119 C 285.791 -0.892948 7.13736 0
M  V30 3120 C 287.817 -1.14862 5.80139 0
M  V30 3121 C 287.179 -0.790516 6.9995 0
M  V30 3122 H 283.278 -0.502858 0.59888 0
M  V30 3123 H 285.862 -0.72121 1.8085 0
M  V30 3124 H 284.033 -3.21362 2.1813 0
M  V30 3125 H 285.765 -3.23801 2.42766 0
M  V30 3126 H 282.52 -2.23082 4.1777 0
M  V30 3127 H 282.944 -1.32815 6.63844 0
M  V30 3128 H 287.586 -1.87876 3.78764 0
M  V30 3129 H 285.304 -0.617291 8.05739 0
M  V30 3130 H 288.89 -1.05569 5.72142 0
M  V30 3131 H 287.77 -0.434713 7.82994 0
M  V30 3132 N 285.273 -1.31445 -0.869486 0
M  V30 3133 C 286.221 -1.19067 -1.99814 0
M  V30 3134 C 287.215 -0.0988569 -1.69111 0
M  V30 3135 O 288.421 -0.260781 -1.78101 0
M  V30 3136 H 284.796 -0.368677 -0.655425 0
M  V30 3137 H 286.767 -2.14555 -2.07385 0
M  V30 3138 C 285.516 -0.915323 -3.35436 0
M  V30 3139 H 284.839 -1.74759 -3.59582 0
M  V30 3140 H 286.279 -0.868895 -4.15001 0
M  V30 3141 C 284.738 0.381928 -3.34728 0
M  V30 3142 O 285.268 1.39857 -3.76567 0
M  V30 3143 N 283.474 0.398633 -2.87853 0
M  V30 3144 H 283.021 -0.429186 -2.54 0
M  V30 3145 H 282.979 1.26651 -2.87762 0
M  V30 3146 N 286.751 1.08385 -1.14413 0
M  V30 3147 C 287.997 1.81212 -0.923793 0
M  V30 3148 C 288.352 1.84555 0.543814 0
M  V30 3149 O 287.645 1.31056 1.39767 0
M  V30 3150 C 287.839 3.26273 -1.45879 0
M  V30 3151 C 287.668 3.37063 -2.97689 0
M  V30 3152 C 286.438 3.4824 -3.66138 0
M  V30 3153 C 288.636 3.28698 -3.95553 0
M  V30 3154 N 286.618 3.47824 -5.05858 0
M  V30 3155 C 287.989 3.35276 -5.21527 0
M  V30 3156 C 290.044 3.12437 -3.8767 0
M  V30 3157 C 288.747 3.27267 -6.40538 0
M  V30 3158 C 290.773 3.05757 -5.06228 0
M  V30 3159 C 290.135 3.12938 -6.3107 0
M  V30 3160 H 286.234 0.6769 -0.391574 0
M  V30 3161 H 288.818 1.29455 -1.45429 0
M  V30 3162 H 286.989 3.76474 -0.95507 0
M  V30 3163 H 288.721 3.87165 -1.17835 0
M  V30 3164 H 285.476 3.52141 -3.16692 0
M  V30 3165 H 285.9 3.51171 -5.78798 0
M  V30 3166 H 290.542 3.05747 -2.92025 0
M  V30 3167 H 288.26 3.32718 -7.36427 0
M  V30 3168 H 291.846 2.94295 -5.01878 0
M  V30 3169 H 290.726 3.078 -7.21269 0
M  V30 3170 N 288.23 0.939286 1.26551 0
M  V30 3171 C 289.16 0.465044 2.28822 0
M  V30 3172 C 290.141 -0.480692 1.63167 0
M  V30 3173 O 291.326 -0.382955 1.90387 0
M  V30 3174 C 288.456 -0.27234 3.46231 0
M  V30 3175 C 287.41 0.58666 4.2396 0
M  V30 3176 C 286.736 -0.280573 5.33963 0
M  V30 3177 C 288.036 1.85704 4.88171 0
M  V30 3178 H 289.73 1.31979 2.68741 0
M  V30 3179 H 287.276 0.636061 1.29191 0
M  V30 3180 H 289.229 -0.615133 4.16886 0
M  V30 3181 H 287.953 -1.16121 3.0526 0
M  V30 3182 H 286.612 0.91232 3.55067 0
M  V30 3183 H 286.26 -1.16874 4.89234 0
M  V30 3184 H 285.96 0.29076 5.8688 0
M  V30 3185 H 287.484 -0.618678 6.07458 0
M  V30 3186 H 288.898 1.58161 5.51052 0
M  V30 3187 H 287.295 2.37279 5.51197 0
M  V30 3188 H 288.365 2.56957 4.11219 0
M  V30 3189 N 289.708 -1.40897 0.706093 0
M  V30 3190 C 290.985 -1.94868 0.169099 0
M  V30 3191 C 291.365 -1.64485 -1.32318 0
M  V30 3192 O 290.713 -0.95744 -2.07474 0
M  V30 3193 C 290.923 -3.45798 0.471654 0
M  V30 3194 C 292.271 -4.22663 0.405127 0
M  V30 3195 O 293.295 -3.53865 0.407168 0
M  V30 3196 O 292.154 -5.45216 0.374383 0
M  V30 3197 H 289.248 -0.82673 0.0211352 0
M  V30 3198 H 291.794 -1.50558 0.782976 0
M  V30 3199 H 290.566 -3.61235 1.50416 0
M  V30 3200 H 290.189 -3.97225 -0.172666 0
M  V30 3201 N 291.186 -0.45159 -1.50991 0
M  V30 3202 C 292.433 0.110074 -2.02201 0
M  V30 3203 C 292.761 1.4146 -1.33489 0
M  V30 3204 O 292.016 1.90617 -0.443125 0
M  V30 3205 C 292.315 0.361728 -3.55565 0
M  V30 3206 C 291.981 -0.858717 -4.42648 0
M  V30 3207 C 290.643 -1.19338 -4.66167 0
M  V30 3208 C 292.995 -1.67221 -4.93646 0
M  V30 3209 C 290.323 -2.34195 -5.37931 0
M  V30 3210 C 292.675 -2.8119 -5.6667 0
M  V30 3211 C 291.339 -3.15094 -5.88449 0
M  V30 3212 H 290.609 0.040279 -0.739904 0
M  V30 3213 H 293.256 -0.601696 -1.81802 0
M  V30 3214 H 291.561 1.15554 -3.74372 0
M  V30 3215 H 293.258 0.80996 -3.92735 0
M  V30 3216 H 289.848 -0.58796 -4.24548 0
M  V30 3217 H 294.032 -1.42686 -4.75347 0
M  V30 3218 H 289.288 -2.6076 -5.53005 0
M  V30 3219 H 293.462 -3.44585 -6.05173 0
M  V30 3220 H 291.089 -4.04204 -6.43835 0
M  V30 3221 N 292.664 1.56529 -0.183458 0
M  V30 3222 C 293.889 2.02064 0.467428 0
M  V30 3223 C 294.314 1.06282 1.55196 0
M  V30 3224 O 293.672 0.0443565 1.81246 0
M  V30 3225 C 293.72 3.46122 1.01153 0
M  V30 3226 O 292.824 3.53437 2.12499 0
M  V30 3227 H 292.165 0.654726 0.110588 0
M  V30 3228 H 294.695 2.02521 -0.290917 0
M  V30 3229 H 294.705 3.85676 1.33108 0
M  V30 3230 H 293.38 4.15331 0.217533 0
M  V30 3231 H 291.957 3.2575 1.81497 0
M  V30 3232 N 294.142 -0.090211 1.57342 0
M  V30 3233 C 295.388 -0.793982 1.86611 0
M  V30 3234 C 295.721 -1.78142 0.773252 0
M  V30 3235 O 294.996 -1.93271 -0.218304 0
M  V30 3236 C 295.279 -1.51839 3.26523 0
M  V30 3237 C 295.132 -0.548609 4.46442 0
M  V30 3238 C 296.451 -2.46779 3.64401 0
M  V30 3239 H 293.57 -0.287186 0.678744 0
M  V30 3240 H 296.212 -0.0575076 1.89913 0
M  V30 3241 H 294.362 -2.14617 3.23839 0
M  V30 3242 H 296.034 0.0725513 4.61243 0
M  V30 3243 H 294.277 0.137614 4.33582 0
M  V30 3244 H 294.948 -1.09271 5.41076 0
M  V30 3245 H 297.424 -1.94089 3.68061 0
M  V30 3246 H 296.3 -2.94479 4.63221 0
M  V30 3247 H 296.561 -3.30758 2.93346 0
M  V30 3248 N 295.62 -1.53406 -0.361157 0
M  V30 3249 C 296.869 -1.69022 -1.10066 0
M  V30 3250 C 297.182 -0.450838 -1.90333 0
M  V30 3251 O 298.388 -0.487617 -2.67085 0
M  V30 3252 C 296.844 -2.98812 -2.00598 0
M  V30 3253 C 296.452 -4.30027 -1.25621 0
M  V30 3254 C 298.196 -3.23795 -2.74513 0
M  V30 3255 C 296.103 -5.50903 -2.1508 0
M  V30 3256 H 295.033 -0.629776 -0.414606 0
M  V30 3257 H 297.684 -1.79907 -0.361348 0
M  V30 3258 H 296.066 -2.8174 -2.78278 0
M  V30 3259 H 297.24 -4.57745 -0.529739 0
M  V30 3260 H 295.555 -4.11522 -0.635496 0
M  V30 3261 H 298.152 -4.11289 -3.41681 0
M  V30 3262 H 298.495 -2.40045 -3.40123 0
M  V30 3263 H 299.028 -3.41561 -2.03914 0
M  V30 3264 H 295.767 -6.37143 -1.54041 0
M  V30 3265 H 295.287 -5.27459 -2.85565 0
M  V30 3266 H 296.966 -5.85865 -2.74538 0
M  V30 3267 N 297.098 0.621204 -1.44841 0
M  V30 3268 C 298.031 1.7459 -1.46947 0
M  V30 3269 C 299.009 1.59273 -0.327238 0
M  V30 3270 O 300.193 1.81021 -0.525706 0
M  V30 3271 C 297.32 3.12274 -1.31159 0
M  V30 3272 C 296.366 3.46216 -2.49072 0
M  V30 3273 S 297.199 3.4258 -4.11581 0
M  V30 3274 C 298.355 4.82867 -3.98233 0
M  V30 3275 H 298.588 1.72538 -2.42111 0
M  V30 3276 H 296.121 0.796683 -1.32259 0
M  V30 3277 H 298.079 3.91722 -1.22737 0
M  V30 3278 H 296.74 3.11855 -0.374885 0
M  V30 3279 H 295.933 4.4643 -2.33915 0
M  V30 3280 H 295.535 2.74253 -2.54286 0
M  V30 3281 H 297.827 5.7234 -3.62537 0
M  V30 3282 H 298.77 5.0308 -4.98313 0
M  V30 3283 H 299.178 4.57908 -3.30121 0
M  V30 3284 N 298.576 1.31904 0.862503 0
M  V30 3285 C 299.509 1.14514 1.97388 0
M  V30 3286 C 300.487 0.0466493 1.62533 0
M  V30 3287 O 301.671 0.204484 1.87388 0
M  V30 3288 C 298.798 0.751347 3.30261 0
M  V30 3289 C 297.844 1.85395 3.84098 0
M  V30 3290 S 298.677 3.46081 4.08642 0
M  V30 3291 C 299.833 3.08655 5.44502 0
M  V30 3292 H 300.066 2.08597 2.11836 0
M  V30 3293 H 297.599 1.16475 1.01356 0
M  V30 3294 H 299.557 0.530901 4.07052 0
M  V30 3295 H 298.218 -0.170493 3.13637 0
M  V30 3296 H 297.411 1.53122 4.80177 0
M  V30 3297 H 297.013 2.02984 3.14123 0
M  V30 3298 H 299.305 2.58012 6.26447 0
M  V30 3299 H 300.248 4.03726 5.81731 0
M  V30 3300 H 300.656 2.45891 5.08132 0
M  V30 3301 N 300.054 -1.07777 1.14986 0
M  V30 3302 C 301.017 -2.13041 0.845358 0
M  V30 3303 C 302.017 -1.60071 -0.152931 0
M  V30 3304 O 303.207 -1.74033 0.0761879 0
M  V30 3305 C 300.339 -3.39896 0.261383 0
M  V30 3306 H 301.532 -2.41485 1.77834 0
M  V30 3307 H 299.085 -1.23595 0.956757 0
M  V30 3308 H 299.82 -3.17091 -0.68 0
M  V30 3309 H 299.605 -3.79642 0.980514 0
M  V30 3310 H 301.095 -4.17548 0.0657687 0
M  V30 3311 N 301.532 -0.945985 -1.26051 0
M  V30 3312 C 302.762 -0.612136 -1.97323 0
M  V30 3313 C 303.17 0.818171 -1.70595 0
M  V30 3314 O 302.513 1.55777 -0.973613 0
M  V30 3315 C 302.575 -0.780347 -3.50929 0
M  V30 3316 C 302.239 -2.18619 -4.01317 0
M  V30 3317 C 303.236 -3.16209 -4.12683 0
M  V30 3318 C 300.921 -2.50805 -4.35203 0
M  V30 3319 C 302.915 -4.44085 -4.57238 0
M  V30 3320 C 300.602 -3.78912 -4.79446 0
M  V30 3321 C 301.6 -4.75365 -4.90425 0
M  V30 3322 O 301.288 -6.01191 -5.3369 0
M  V30 3323 H 301.02 -0.229134 -0.635982 0
M  V30 3324 H 303.574 -1.27036 -1.61404 0
M  V30 3325 H 301.804 -0.0649864 -3.86645 0
M  V30 3326 H 303.493 -0.448842 -4.03411 0
M  V30 3327 H 304.259 -2.92668 -3.86744 0
M  V30 3328 H 300.138 -1.76463 -4.2589 0
M  V30 3329 H 303.682 -5.19373 -4.65723 0
M  V30 3330 H 299.579 -4.02265 -5.0483 0
M  V30 3331 H 300.347 -6.04442 -5.51899 0
M  V30 3332 N 303.011 1.40521 -0.713556 0
M  V30 3333 C 303.941 2.33381 -0.0743864 0
M  V30 3334 C 304.922 1.52784 0.747735 0
M  V30 3335 O 306.107 1.81258 0.697071 0
M  V30 3336 C 303.237 3.36748 0.849598 0
M  V30 3337 C 302.191 4.27793 0.133247 0
M  V30 3338 C 301.517 5.21679 1.17281 0
M  V30 3339 C 302.817 5.12415 -1.01134 0
M  V30 3340 H 304.511 2.87081 -0.850007 0
M  V30 3341 H 302.057 1.38034 -0.410201 0
M  V30 3342 H 304.01 4.00648 1.30612 0
M  V30 3343 H 302.734 2.81439 1.65709 0
M  V30 3344 H 301.393 3.65342 -0.303426 0
M  V30 3345 H 301.041 4.62677 1.9733 0
M  V30 3346 H 300.741 5.83435 0.698397 0
M  V30 3347 H 302.265 5.88456 1.62947 0
M  V30 3348 H 303.679 5.69781 -0.634274 0
M  V30 3349 H 302.076 5.83203 -1.41399 0
M  V30 3350 H 303.146 4.48514 -1.84292 0
M  V30 3351 N 304.489 0.459591 1.5075 0
M  V30 3352 C 305.717 -0.0973749 2.06671 0
M  V30 3353 C 306.132 -1.34524 1.32472 0
M  V30 3354 O 305.489 -1.7827 0.390634 0
M  V30 3355 C 305.54 -0.39714 3.59312 0
M  V30 3356 O 305.261 0.801214 4.30711 0
M  V30 3357 C 306.762 -1.00234 4.31819 0
M  V30 3358 H 303.982 0.00195854 0.670997 0
M  V30 3359 H 306.526 0.645072 1.94059 0
M  V30 3360 H 304.681 -1.08951 3.71764 0
M  V30 3361 H 305.095 0.538857 5.21725 0
M  V30 3362 H 306.569 -1.16193 5.39632 0
M  V30 3363 H 307.046 -1.98939 3.91561 0
M  V30 3364 H 307.652 -0.348699 4.23868 0
M  V30 3365 N 305.967 -1.56429 0.191757 0
M  V30 3366 C 306.877 -2.22541 -0.742481 0
M  V30 3367 C 307.893 -1.22342 -1.23727 0
M  V30 3368 O 309.069 -1.55069 -1.28513 0
M  V30 3369 C 306.134 -2.8692 -1.94623 0
M  V30 3370 C 305.195 -4.02378 -1.49633 0
M  V30 3371 C 304.428 -4.63678 -2.6427 0
M  V30 3372 O 304.651 -4.23895 -3.81666 0
M  V30 3373 O 303.585 -5.53202 -2.37174 0
M  V30 3374 H 307.411 -3.02977 -0.209462 0
M  V30 3375 H 304.996 -1.49353 -0.0373832 0
M  V30 3376 H 306.878 -3.27663 -2.64982 0
M  V30 3377 H 305.553 -2.09466 -2.46791 0
M  V30 3378 H 304.46 -3.66265 -0.761636 0
M  V30 3379 H 305.793 -4.81487 -1.02134 0
M  V30 3380 N 307.445 0.0818655 -1.57387 0
M  V30 3381 C 308.692 0.782914 -1.86753 0
M  V30 3382 C 309.02 1.78082 -0.782118 0
M  V30 3383 O 308.275 1.94426 0.22295 0
M  V30 3384 C 308.574 1.53513 -3.22752 0
M  V30 3385 C 308.24 0.678134 -4.45771 0
M  V30 3386 C 306.902 0.441929 -4.79166 0
M  V30 3387 C 309.254 0.0832243 -5.21134 0
M  V30 3388 C 306.582 -0.398833 -5.85343 0
M  V30 3389 C 308.934 -0.744935 -6.28199 0
M  V30 3390 C 307.598 -0.991107 -6.60101 0
M  V30 3391 H 306.868 0.286489 -0.683378 0
M  V30 3392 H 309.515 0.0439808 -1.91449 0
M  V30 3393 H 307.82 2.34599 -3.138 0
M  V30 3394 H 309.517 2.08218 -3.42705 0
M  V30 3395 H 306.107 0.872357 -4.19628 0
M  V30 3396 H 310.291 0.252847 -4.95655 0
M  V30 3397 H 305.547 -0.598405 -6.08465 0
M  V30 3398 H 309.721 -1.21271 -6.8576 0
M  V30 3399 H 307.348 -1.64437 -7.42202 0
M  V30 3400 N 308.923 1.53595 0.353017 0
M  V30 3401 C 310.169 1.70638 1.09593 0
M  V30 3402 C 310.502 0.463286 1.88593 0
M  V30 3403 O 309.777 -0.539597 1.86865 0
M  V30 3404 C 310.06 2.96406 2.04489 0
M  V30 3405 C 309.913 4.30901 1.29014 0
M  V30 3406 C 311.232 3.17812 3.0444 0
M  V30 3407 H 308.351 0.620913 0.397034 0
M  V30 3408 H 310.993 1.86254 0.375446 0
M  V30 3409 H 309.143 2.83223 2.65927 0
M  V30 3410 H 310.815 4.55917 0.702638 0
M  V30 3411 H 309.058 4.29741 0.592071 0
M  V30 3412 H 309.729 5.1506 1.98537 0
M  V30 3413 H 312.205 3.30263 2.53112 0
M  V30 3414 H 311.081 4.07223 3.6805 0
M  V30 3415 H 311.342 2.33669 3.75301 0
M  V30 3416 N 310.401 -0.613514 1.45168 0
M  V30 3417 C 311.678 -1.37263 1.39349 0
M  V30 3418 C 312.058 -2.11012 0.0610848 0
M  V30 3419 O 311.406 -2.07502 -0.956825 0
M  V30 3420 C 311.616 -2.3244 2.60332 0
M  V30 3421 C 312.964 -2.9523 3.05163 0
M  V30 3422 O 313.988 -2.42762 2.60663 0
M  V30 3423 O 312.847 -3.90454 3.82372 0
M  V30 3424 H 309.941 -0.615188 0.552696 0
M  V30 3425 H 312.487 -0.637097 1.57287 0
M  V30 3426 H 311.259 -1.77164 3.48896 0
M  V30 3427 H 310.882 -3.13383 2.44698 0
M  V30 3428 N 311.879 -1.3236 -0.855495 0
M  V30 3429 C 312.809 -1.23833 -1.97958 0
M  V30 3430 C 313.79 -0.122361 -1.69659 0
M  V30 3431 O 314.975 -0.30939 -1.9172 0
M  V30 3432 C 312.105 -0.959772 -3.33775 0
M  V30 3433 C 311.059 -2.03689 -3.76424 0
M  V30 3434 C 310.385 -1.61075 -5.09862 0
M  V30 3435 C 311.685 -3.4518 -3.9198 0
M  V30 3436 H 313.379 -2.1788 -2.0535 0
M  V30 3437 H 310.925 -1.04891 -0.986605 0
M  V30 3438 H 312.878 -0.886678 -4.11966 0
M  V30 3439 H 311.602 0.0163404 -3.26596 0
M  V30 3440 H 310.261 -2.10012 -3.00484 0
M  V30 3441 H 309.909 -0.622107 -4.99138 0
M  V30 3442 H 309.609 -2.33143 -5.39368 0
M  V30 3443 H 311.133 -1.55201 -5.90546 0
M  V30 3444 H 312.547 -3.4145 -4.60526 0
M  V30 3445 H 310.944 -4.1559 -4.32903 0
M  V30 3446 H 312.014 -3.84903 -2.94919 0
M  V30 3447 N 313.357 1.07166 -1.15556 0
M  V30 3448 C 314.605 1.79443 -0.929764 0
M  V30 3449 C 314.926 1.87246 0.544414 0
M  V30 3450 O 314.196 1.37473 1.39564 0
M  V30 3451 H 312.776 0.664625 -0.341003 0
M  V30 3452 H 315.438 1.29499 -1.45657 0
M  V30 3453 H 314.534 2.81832 -1.34079 0
M  V30 3454 N 314.835 0.952656 1.25548 0
M  V30 3455 C 315.783 0.462354 2.27958 0
M  V30 3456 C 316.777 -0.46634 1.62855 0
M  V30 3457 O 317.983 -0.343287 1.76696 0
M  V30 3458 H 314.358 0.13101 0.7405 0
M  V30 3459 H 316.329 1.33839 2.66702 0
M  V30 3460 C 315.078 -0.24628 3.46827 0
M  V30 3461 H 314.401 0.459192 3.97154 0
M  V30 3462 H 315.841 -0.553393 4.20373 0
M  V30 3463 C 314.3 -1.4681 3.0323 0
M  V30 3464 O 314.83 -2.56591 3.09069 0
M  V30 3465 N 313.036 -1.32874 2.58443 0
M  V30 3466 H 312.583 -0.435536 2.53891 0
M  V30 3467 H 312.541 -2.14742 2.29637 0
M  V30 3468 N 316.313 -1.40141 0.720998 0
M  V30 3469 C 317.562 -2.0002 0.259804 0
M  V30 3470 C 317.875 -1.57839 -1.15526 0
M  V30 3471 O 319.081 -2.10455 -1.71525 0
M  V30 3472 C 317.537 -3.57516 0.413566 0
M  V30 3473 C 317.145 -4.08667 1.83562 0
M  V30 3474 C 318.889 -4.24498 0.0134387 0
M  V30 3475 C 316.796 -5.58686 1.93968 0
M  V30 3476 H 315.726 -0.748195 0.0933806 0
M  V30 3477 H 318.377 -1.60313 0.892866 0
M  V30 3478 H 316.759 -3.9495 -0.288169 0
M  V30 3479 H 317.933 -3.82598 2.56817 0
M  V30 3480 H 316.248 -3.543 2.1877 0
M  V30 3481 H 318.845 -5.34654 0.0703954 0
M  V30 3482 H 319.188 -4.03375 -1.02927 0
M  V30 3483 H 319.721 -3.92188 0.665815 0
M  V30 3484 H 316.46 -5.8467 2.96379 0
M  V30 3485 H 315.98 -5.86602 1.25131 0
M  V30 3486 H 317.659 -6.23875 1.71431 0
M  V30 3487 N 317.792 -0.46758 -1.50504 0
M  V30 3488 C 319.017 0.0886943 -2.0721 0
M  V30 3489 C 319.442 1.33057 -1.32956 0
M  V30 3490 O 318.8 1.77354 -0.376197 0
M  V30 3491 C 318.848 0.359202 -3.58806 0
M  V30 3492 O 317.952 1.44034 -3.8643 0
M  V30 3493 H 317.293 -0.0114349 -0.663902 0
M  V30 3494 H 319.823 -0.657613 -1.93744 0
M  V30 3495 H 319.833 0.600742 -4.03553 0
M  V30 3496 H 318.508 -0.548311 -4.1227 0
M  V30 3497 H 317.085 1.18638 -3.53524 0
M  V30 3498 N 319.27 1.56325 -0.20005 0
M  V30 3499 C 320.233 2.18084 0.705132 0
M  V30 3500 C 321.233 1.13666 1.1374 0
M  V30 3501 O 322.423 1.39023 1.04968 0
M  V30 3502 C 319.555 2.78689 1.96329 0
M  V30 3503 H 320.748 2.99435 0.167023 0
M  V30 3504 H 318.301 1.56221 0.0495725 0
M  V30 3505 H 319.036 2.0115 2.5438 0
M  V30 3506 H 318.821 3.55133 1.66202 0
M  V30 3507 H 320.311 3.26096 2.60866 0
M  V30 3508 N 320.748 -0.0735177 1.57428 0
M  V30 3509 C 321.678 -1.0879 2.06608 0
M  V30 3510 C 322.659 -1.40473 0.959237 0
M  V30 3511 O 323.844 -1.5013 1.23185 0
M  V30 3512 C 320.974 -2.40183 2.50857 0
M  V30 3513 C 319.928 -2.22858 3.65402 0
M  V30 3514 C 319.254 -3.59619 3.957 0
M  V30 3515 C 320.554 -1.65123 4.95511 0
M  V30 3516 H 322.248 -0.678673 2.91607 0
M  V30 3517 H 319.794 -0.325013 1.40284 0
M  V30 3518 H 321.747 -3.11437 2.83874 0
M  V30 3519 H 320.471 -2.83083 1.62885 0
M  V30 3520 H 319.13 -1.54045 3.32664 0
M  V30 3521 H 318.778 -4.00086 3.04861 0
M  V30 3522 H 318.478 -3.48866 4.72828 0
M  V30 3523 H 320.002 -4.32306 4.31212 0
M  V30 3524 H 321.416 -2.26241 5.26771 0
M  V30 3525 H 319.813 -1.65071 5.7695 0
M  V30 3526 H 320.883 -0.612559 4.81015 0
M  V30 3527 N 322.226 -1.5378 -0.344866 0
M  V30 3528 C 323.642 -1.44015 -0.687888 0
M  V30 3529 C 323.842 -0.595834 -1.92489 0
M  V30 3530 O 322.898 -0.0863064 -2.52352 0
M  V30 3531 C 324.211 -2.87481 -0.881758 0
M  V30 3532 C 325.759 -2.97247 -0.980459 0
M  V30 3533 C 326.234 -4.41819 -1.20665 0
M  V30 3534 N 327.725 -4.45339 -1.27389 0
M  V30 3535 C 328.46 -5.54333 -1.46639 0
M  V30 3536 N 327.956 -6.73335 -1.63071 0
M  V30 3537 N 329.749 -5.41944 -1.49176 0
M  V30 3538 H 321.9 -2.07169 0.468475 0
M  V30 3539 H 324.163 -0.93643 0.147655 0
M  V30 3540 H 323.869 -3.51672 -0.0443444 0
M  V30 3541 H 323.743 -3.32352 -1.78388 0
M  V30 3542 H 326.13 -2.33197 -1.8084 0
M  V30 3543 H 326.211 -2.5574 -0.0552713 0
M  V30 3544 H 325.855 -5.06449 -0.383652 0
M  V30 3545 H 325.785 -4.80917 -2.14539 0
M  V30 3546 H 328.276 -3.59585 -1.1622 0
M  V30 3547 H 328.589 -7.52165 -1.77391 0
M  V30 3548 H 326.934 -6.76282 -1.60209 0
M  V30 3549 H 330.125 -4.47932 -1.3592 0
M  V30 3550 H 330.298 -6.26946 -1.63837 0
M  V30 3551 N 323.704 0.605807 -1.45491 0
M  V30 3552 C 324.932 1.39136 -1.5313 0
M  V30 3553 C 325.347 1.88082 -0.164507 0
M  V30 3554 O 324.704 1.62316 0.834247 0
M  V30 3555 C 324.755 2.59463 -2.51716 0
M  V30 3556 O 324.476 2.12551 -3.83084 0
M  V30 3557 C 325.977 3.52301 -2.6907 0
M  V30 3558 H 323.197 0.425849 -0.51855 0
M  V30 3559 H 325.741 0.73865 -1.90694 0
M  V30 3560 H 323.896 3.20772 -2.17219 0
M  V30 3561 H 324.31 2.90744 -4.36541 0
M  V30 3562 H 325.784 4.33271 -3.42024 0
M  V30 3563 H 326.261 4.02757 -1.75167 0
M  V30 3564 H 326.867 2.96845 -3.04571 0
M  V30 3565 N 325.182 1.32811 0.848464 0
M  V30 3566 C 326.429 1.23724 1.60308 0
M  V30 3567 C 326.757 -0.1994 1.93475 0
M  V30 3568 O 326.012 -1.15406 1.5805 0
M  V30 3569 C 326.311 2.04831 2.92881 0
M  V30 3570 C 325.977 3.54125 2.79117 0
M  V30 3571 C 324.639 3.94829 2.7507 0
M  V30 3572 C 326.991 4.49036 2.64606 0
M  V30 3573 C 324.319 5.28675 2.544 0
M  V30 3574 C 326.671 5.83033 2.4547 0
M  V30 3575 C 325.335 6.22931 2.39819 0
M  V30 3576 H 324.605 0.452737 0.586609 0
M  V30 3577 H 327.252 1.64301 0.983743 0
M  V30 3578 H 325.557 1.57001 3.58968 0
M  V30 3579 H 327.254 1.95164 3.50303 0
M  V30 3580 H 323.844 3.21801 2.83094 0
M  V30 3581 H 328.028 4.18505 2.66772 0
M  V30 3582 H 323.284 5.58637 2.48465 0
M  V30 3583 H 327.458 6.56186 2.33222 0
M  V30 3584 H 325.085 7.26584 2.23562 0
M  V30 3585 N 326.66 -1.06551 1.16123 0
M  V30 3586 C 328.076 -1.3142 0.905585 0
M  V30 3587 C 328.276 -1.96571 -0.442964 0
M  V30 3588 O 327.332 -2.23068 -1.18308 0
M  V30 3589 C 328.645 -2.19741 2.05267 0
M  V30 3590 C 330.193 -2.33165 2.08813 0
M  V30 3591 C 330.668 -3.24838 3.22868 0
M  V30 3592 N 332.159 -3.32421 3.22568 0
M  V30 3593 C 332.894 -4.0344 4.0746 0
M  V30 3594 N 332.39 -4.77003 5.02434 0
M  V30 3595 N 334.183 -3.99464 3.95456 0
M  V30 3596 H 326.334 -0.626548 2.02949 0
M  V30 3597 H 328.597 -0.338777 0.8854 0
M  V30 3598 H 328.303 -1.79142 3.02657 0
M  V30 3599 H 328.177 -3.20313 1.99198 0
M  V30 3600 H 330.564 -2.73013 1.12018 0
M  V30 3601 H 330.645 -1.3227 2.18948 0
M  V30 3602 H 330.289 -2.85708 4.19921 0
M  V30 3603 H 330.219 -4.25707 3.0997 0
M  V30 3604 H 332.71 -2.79994 2.53795 0
M  V30 3605 H 333.023 -5.28712 5.63634 0
M  V30 3606 H 331.368 -4.75992 5.06415 0
M  V30 3607 H 334.559 -3.4111 3.20564 0
M  V30 3608 H 334.732 -4.54544 4.61837 0
M  V30 3609 N 328.138 -0.959301 -1.25041 0
M  V30 3610 C 329.384 -0.617525 -1.9317 0
M  V30 3611 C 329.717 0.843981 -1.74902 0
M  V30 3612 O 328.992 1.60615 -1.09696 0
M  V30 3613 C 329.275 -0.982736 -3.46431 0
M  V30 3614 C 329.128 -2.50032 -3.73904 0
M  V30 3615 C 330.447 -0.511176 -4.37121 0
M  V30 3616 H 327.566 -0.22582 -0.701552 0
M  V30 3617 H 330.208 -1.19679 -1.4757 0
M  V30 3618 H 328.358 -0.489806 -3.854 0
M  V30 3619 H 330.03 -3.06737 -3.44544 0
M  V30 3620 H 328.273 -2.93598 -3.19348 0
M  V30 3621 H 328.944 -2.70635 -4.81103 0
M  V30 3622 H 331.42 -0.934075 -4.0548 0
M  V30 3623 H 330.296 -0.795361 -5.43107 0
M  V30 3624 H 330.557 0.588834 -4.38161 0
M  V30 3625 N 329.616 1.39756 -0.72842 0
M  V30 3626 C 330.546 2.33289 -0.0991354 0
M  V30 3627 C 331.527 1.53568 0.731489 0
M  V30 3628 O 332.712 1.81987 0.677807 0
M  V30 3629 C 329.842 3.3763 0.813834 0
M  V30 3630 C 328.796 4.2791 0.0878663 0
M  V30 3631 C 328.122 5.22894 1.11741 0
M  V30 3632 C 329.422 5.11314 -1.06563 0
M  V30 3633 H 331.116 2.86163 -0.880408 0
M  V30 3634 H 328.662 1.37591 -0.424819 0
M  V30 3635 H 330.615 4.0201 1.26355 0
M  V30 3636 H 329.339 2.83181 1.62715 0
M  V30 3637 H 327.998 3.65 -0.342159 0
M  V30 3638 H 327.646 4.64744 1.92412 0
M  V30 3639 H 327.346 5.84143 0.636477 0
M  V30 3640 H 328.87 5.90151 1.56697 0
M  V30 3641 H 330.284 5.69076 -0.694671 0
M  V30 3642 H 328.681 5.81671 -1.47577 0
M  V30 3643 H 329.751 4.46534 -1.89038 0
M  V30 3644 N 331.094 0.475555 1.50254 0
M  V30 3645 C 332.51 0.12997 1.5907 0
M  V30 3646 C 332.71 -1.36385 1.48328 0
M  V30 3647 O 331.766 -2.13754 1.34407 0
M  V30 3648 C 333.079 0.684139 2.92814 0
M  V30 3649 C 334.627 0.647965 3.0622 0
M  V30 3650 C 335.102 1.17975 4.42545 0
M  V30 3651 N 336.593 1.13936 4.48969 0
M  V30 3652 C 337.328 1.52129 5.52851 0
M  V30 3653 N 336.824 1.97793 6.63965 0
M  V30 3654 N 338.617 1.43704 5.4342 0
M  V30 3655 H 330.768 1.44706 1.55479 0
M  V30 3656 H 333.031 0.598691 0.735033 0
M  V30 3657 H 332.737 1.73079 3.06164 0
M  V30 3658 H 332.611 0.130204 3.76975 0
M  V30 3659 H 334.998 -0.38979 2.92514 0
M  V30 3660 H 335.079 1.23876 2.23805 0
M  V30 3661 H 334.723 2.21616 4.57 0
M  V30 3662 H 334.653 0.565138 5.23559 0
M  V30 3663 H 337.144 0.804488 3.69238 0
M  V30 3664 H 337.457 2.25072 7.39299 0
M  V30 3665 H 335.802 2.01749 6.65073 0
M  V30 3666 H 338.993 1.07867 4.55502 0
M  V30 3667 H 339.166 1.73794 6.24259 0
M  V30 3668 N 332.573 -1.56217 0.208337 0
M  V30 3669 C 333.536 -2.18455 -0.693557 0
M  V30 3670 C 334.536 -1.14268 -1.13135 0
M  V30 3671 O 335.726 -1.39577 -1.0423 0
M  V30 3672 C 332.858 -2.79727 -1.94848 0
M  V30 3673 H 334.051 -2.99519 -0.15114 0
M  V30 3674 H 331.604 -1.56245 -0.041287 0
M  V30 3675 H 332.339 -2.02497 -2.53309 0
M  V30 3676 H 332.124 -3.56009 -1.64316 0
M  V30 3677 H 333.614 -3.27475 -2.59133 0
M  V30 3678 N 334.051 0.0651679 -1.57465 0
M  V30 3679 C 334.981 1.07693 -2.07182 0
M  V30 3680 C 335.962 1.39962 -0.966673 0
M  V30 3681 O 337.147 1.49475 -1.2398 0
M  V30 3682 C 334.277 2.3885 -2.52127 0
M  V30 3683 C 333.231 2.20917 -3.66579 0
M  V30 3684 C 332.557 3.57515 -3.97601 0
M  V30 3685 C 333.857 1.62493 -4.9638 0
M  V30 3686 H 335.551 0.663199 -2.91962 0
M  V30 3687 H 333.097 0.317569 -1.40455 0
M  V30 3688 H 335.05 3.09928 -2.85522 0
M  V30 3689 H 333.774 2.82215 -1.64384 0
M  V30 3690 H 332.433 1.52279 -3.33477 0
M  V30 3691 H 332.081 3.98463 -3.06979 0
M  V30 3692 H 331.781 3.46353 -4.74672 0
M  V30 3693 H 333.305 4.30013 -4.33499 0
M  V30 3694 H 334.719 2.23445 -5.27963 0
M  V30 3695 H 333.116 1.62009 -5.77818 0
M  V30 3696 H 334.186 0.587041 -4.81333 0
M  V30 3697 N 335.529 1.53961 0.336706 0
M  V30 3698 C 336.476 1.82428 1.41381 0
M  V30 3699 C 337.446 0.670444 1.51968 0
M  V30 3700 O 338.631 0.915565 1.67398 0
M  V30 3701 C 335.771 2.04564 2.77934 0
M  V30 3702 C 334.884 3.32267 2.76084 0
M  V30 3703 C 334.019 3.44434 4.04399 0
M  V30 3704 C 333.058 4.66061 3.96804 0
M  V30 3705 N 332.195 4.75224 5.16823 0
M  V30 3706 H 337.035 2.74324 1.16405 0
M  V30 3707 H 334.572 1.35869 0.563752 0
M  V30 3708 H 336.53 2.15388 3.57301 0
M  V30 3709 H 335.16 1.15974 3.01247 0
M  V30 3710 H 334.212 3.3025 1.88784 0
M  V30 3711 H 335.524 4.21733 2.66351 0
M  V30 3712 H 334.678 3.54728 4.92192 0
M  V30 3713 H 333.417 2.53037 4.16921 0
M  V30 3714 H 332.422 4.55838 3.07396 0
M  V30 3715 H 333.647 5.58829 3.85858 0
M  V30 3716 H 331.593 3.86739 5.29876 0
M  V30 3717 H 331.51 5.58636 5.09374 0
M  V30 3718 H 332.778 4.89835 6.06367 0
M  V30 3719 N 337.007 -0.598083 1.45811 0
M  V30 3720 C 338.235 -1.38322 1.53866 0
M  V30 3721 C 338.65 -1.87992 0.174479 0
M  V30 3722 O 338.007 -1.62756 -0.825627 0
M  V30 3723 C 338.058 -2.58125 2.53089 0
M  V30 3724 O 337.779 -2.10516 3.84206 0
M  V30 3725 C 339.28 -3.50869 2.70935 0
M  V30 3726 H 336.5 -0.423093 0.520801 0
M  V30 3727 H 339.044 -0.728527 1.91083 0
M  V30 3728 H 337.199 -3.19615 2.18917 0
M  V30 3729 H 337.613 -2.88425 4.38077 0
M  V30 3730 H 339.087 -4.31451 3.44317 0
M  V30 3731 H 339.564 -4.01822 1.77301 0
M  V30 3732 H 340.17 -2.95225 3.06141 0
M  V30 3733 N 338.485 -1.33259 -0.841409 0
M  V30 3734 C 339.734 -1.23921 -1.59143 0
M  V30 3735 C 340.047 0.1941 -1.94635 0
M  V30 3736 O 341.253 0.409474 -2.68394 0
M  V30 3737 C 339.709 -2.17119 -2.87032 0
M  V30 3738 C 339.317 -3.65606 -2.58914 0
M  V30 3739 C 341.061 -2.16648 -3.65053 0
M  V30 3740 C 338.968 -4.50726 -3.82884 0
M  V30 3741 H 337.898 -0.460264 -0.597221 0
M  V30 3742 H 340.549 -1.58307 -0.927959 0
M  V30 3743 H 338.931 -1.75663 -3.54906 0
M  V30 3744 H 340.105 -4.15487 -1.99267 0
M  V30 3745 H 338.42 -3.68341 -1.942 0
M  V30 3746 H 341.017 -2.77474 -4.57069 0
M  V30 3747 H 341.36 -1.16088 -3.99787 0
M  V30 3748 H 341.893 -2.56453 -3.041 0
M  V30 3749 H 338.632 -5.52151 -3.53283 0
M  V30 3750 H 338.152 -4.0559 -4.41879 0
M  V30 3751 H 339.831 -4.64401 -4.50489 0
M  V30 3752 N 339.963 1.05934 -1.16686 0
M  V30 3753 C 341.191 1.8249 -0.974929 0
M  V30 3754 C 341.606 1.82679 0.476861 0
M  V30 3755 O 340.963 1.2486 1.33103 0
M  V30 3756 C 341.014 3.28943 -1.49929 0
M  V30 3757 O 340.735 3.28886 -2.89423 0
M  V30 3758 C 342.236 4.22215 -1.35089 0
M  V30 3759 H 339.456 0.575295 -0.345365 0
M  V30 3760 H 342 1.33631 -1.548 0
M  V30 3761 H 340.155 3.751 -0.968423 0
M  V30 3762 H 340.569 4.20493 -3.13506 0
M  V30 3763 H 342.043 5.22987 -1.76603 0
M  V30 3764 H 342.52 4.38195 -0.296935 0
M  V30 3765 H 343.126 3.81907 -1.87155 0
M  V30 3766 N 341.441 0.965919 1.2453 0
M  V30 3767 C 342.687 0.62776 1.92839 0
M  V30 3768 C 343.02 -0.834694 1.75347 0
M  V30 3769 O 342.295 -1.60031 1.10546 0
M  V30 3770 C 342.578 1.00109 3.45905 0
M  V30 3771 C 342.431 2.52011 3.72573 0
M  V30 3772 C 343.75 0.53435 4.36844 0
M  V30 3773 H 340.869 0.229537 0.700344 0
M  V30 3774 H 343.511 1.2046 1.46933 0
M  V30 3775 H 341.661 0.510238 3.85135 0
M  V30 3776 H 343.333 3.08559 3.42912 0
M  V30 3777 H 341.576 2.95287 3.17786 0
M  V30 3778 H 342.247 2.73183 4.79661 0
M  V30 3779 H 344.723 0.955565 4.04979 0
M  V30 3780 H 343.599 0.824152 5.42678 0
M  V30 3781 H 343.86 -0.565589 4.38467 0
M  V30 3782 N 342.919 -1.39368 0.735821 0
M  V30 3783 C 344.168 -1.99733 0.281004 0
M  V30 3784 C 344.481 -1.59055 -1.13846 0
M  V30 3785 O 345.687 -2.12262 -1.69284 0
M  V30 3786 C 344.143 -3.57057 0.451462 0
M  V30 3787 C 343.751 -4.06697 1.87886 0
M  V30 3788 C 345.495 -4.2446 0.0584616 0
M  V30 3789 C 343.402 -5.56598 1.99883 0
M  V30 3790 H 342.332 -0.747163 0.101311 0
M  V30 3791 H 344.983 -1.59357 0.909819 0
M  V30 3792 H 343.365 -3.95234 -0.246263 0
M  V30 3793 H 344.539 -3.79853 2.60861 0
M  V30 3794 H 342.854 -3.5196 2.22515 0
M  V30 3795 H 345.451 -5.34549 0.127099 0
M  V30 3796 H 345.794 -4.04444 -0.986433 0
M  V30 3797 H 346.327 -3.9146 0.707374 0
M  V30 3798 H 343.066 -5.81494 3.02564 0
M  V30 3799 H 342.586 -5.85242 1.31346 0
M  V30 3800 H 344.265 -6.22022 1.78039 0
M  V30 3801 N 344.397 -0.483516 -1.5 0
M  V30 3802 C 345.808 -0.0314176 -1.86674 0
M  V30 3803 C 346.159 1.37728 -1.39733 0
M  V30 3804 O 345.284 2.02327 -0.767635 0
M  V30 3805 C 345.879 -0.0502376 -3.38763 0
M  V30 3806 C 344.438 0.346442 -3.74802 0
M  V30 3807 C 343.585 -0.430366 -2.7394 0
M  V30 3808 H 346.536 -0.697182 -1.42566 0
M  V30 3809 H 346.557 0.749116 -3.73053 0
M  V30 3810 H 346.069 -1.07563 -3.72897 0
M  V30 3811 H 344.17 1.37572 -3.46273 0
M  V30 3812 H 344.283 0.0391486 -4.79084 0
M  V30 3813 H 342.647 0.117557 -2.54429 0
M  V30 3814 H 343.43 -1.4555 -3.10918 0
M  V30 3815 N 345.875 1.56104 -0.216619 0
M  V30 3816 C 347.123 1.97781 0.415593 0
M  V30 3817 C 347.444 1.10536 1.60645 0
M  V30 3818 O 346.714 0.181303 1.95059 0
M  V30 3819 H 345.294 0.730415 0.156534 0
M  V30 3820 H 347.956 1.92445 -0.308366 0
M  V30 3821 H 347.052 3.03072 0.74525 0
M  V30 3822 N 347.353 -0.0568162 1.57498 0
M  V30 3823 C 348.283 -1.06593 2.0775 0
M  V30 3824 C 349.264 -1.39448 0.974082 0
M  V30 3825 O 350.449 -1.48815 1.24771 0
M  V30 3826 C 347.579 -2.37509 2.5339 0
M  V30 3827 C 346.533 -2.1897 3.67745 0
M  V30 3828 C 345.859 -3.55402 3.99492 0
M  V30 3829 C 347.159 -1.59859 4.97235 0
M  V30 3830 H 348.853 -0.647706 2.9231 0
M  V30 3831 H 346.399 -0.310116 1.40621 0
M  V30 3832 H 348.352 -3.08409 2.87162 0
M  V30 3833 H 347.076 -2.8134 1.65878 0
M  V30 3834 H 345.735 -1.50508 3.3428 0
M  V30 3835 H 345.383 -3.9683 3.09088 0
M  V30 3836 H 345.083 -3.43831 4.76502 0
M  V30 3837 H 346.607 -4.27708 4.35773 0
M  V30 3838 H 348.021 -2.20642 5.29141 0
M  V30 3839 H 346.418 -1.58942 5.78669 0
M  V30 3840 H 347.488 -0.561506 4.81638 0
M  V30 3841 N 348.832 -1.54138 -0.328536 0
M  V30 3842 C 349.779 -1.83176 -1.40411 0
M  V30 3843 C 350.749 -0.678494 -1.5161 0
M  V30 3844 O 351.934 -0.92443 -1.6691 0
M  V30 3845 C 349.074 -2.06035 -2.76846 0
M  V30 3846 C 348.187 -3.33727 -2.74318 0
M  V30 3847 C 347.322 -3.46574 -4.02567 0
M  V30 3848 C 346.361 -4.68159 -3.94327 0
M  V30 3849 N 345.498 -4.77959 -5.14296 0
M  V30 3850 H 350.338 -2.74938 -1.14948 0
M  V30 3851 H 347.875 -1.36166 -0.556538 0
M  V30 3852 H 349.833 -2.1728 -3.56153 0
M  V30 3853 H 348.463 -1.1757 -3.00628 0
M  V30 3854 H 347.515 -3.31246 -1.8703 0
M  V30 3855 H 348.827 -4.23139 -2.64111 0
M  V30 3856 H 347.981 -3.57333 -4.90304 0
M  V30 3857 H 346.72 -2.55245 -4.15574 0
M  V30 3858 H 345.725 -4.57461 -3.04974 0
M  V30 3859 H 346.95 -5.60868 -3.82889 0
M  V30 3860 H 344.896 -3.89544 -5.27818 0
M  V30 3861 H 344.813 -5.6133 -5.06404 0
M  V30 3862 H 346.081 -4.93044 -6.03761 0
M  V30 3863 N 350.31 0.590341 -1.46126 0
M  V30 3864 C 351.538 1.37504 -1.54597 0
M  V30 3865 C 351.953 1.87897 -0.184447 0
M  V30 3866 O 351.31 1.63192 0.816984 0
M  V30 3867 C 351.361 2.56779 -2.54454 0
M  V30 3868 O 351.082 2.08476 -3.85317 0
M  V30 3869 C 352.583 3.49427 -2.72792 0
M  V30 3870 H 349.803 0.420325 -0.523037 0
M  V30 3871 H 352.347 0.718383 -1.91467 0
M  V30 3872 H 350.502 3.1845 -2.20609 0
M  V30 3873 H 350.916 2.86097 -4.396 0
M  V30 3874 H 352.39 4.29619 -3.466 0
M  V30 3875 H 352.867 4.00876 -1.79429 0
M  V30 3876 H 353.473 2.93598 -3.07702 0
M  V30 3877 N 351.788 1.33704 0.83433 0
M  V30 3878 C 353.037 1.24763 1.58484 0
M  V30 3879 C 353.35 -0.183775 1.94735 0
M  V30 3880 O 354.556 -0.395234 2.68608 0
M  V30 3881 C 353.012 2.18638 2.85876 0
M  V30 3882 C 352.62 3.66974 2.56971 0
M  V30 3883 C 354.364 2.18581 3.63899 0
M  V30 3884 C 352.271 4.5275 3.80488 0
M  V30 3885 H 351.201 0.463425 0.594772 0
M  V30 3886 H 353.852 1.58797 0.919551 0
M  V30 3887 H 352.234 1.77542 3.5397 0
M  V30 3888 H 353.408 4.16538 1.9706 0
M  V30 3889 H 351.723 3.69366 1.92244 0
M  V30 3890 H 354.32 2.79894 4.55591 0
M  V30 3891 H 354.663 1.18207 3.99165 0
M  V30 3892 H 355.196 2.58062 3.02735 0
M  V30 3893 H 351.935 5.54017 3.5035 0
M  V30 3894 H 351.455 4.07927 4.39722 0
M  V30 3895 H 353.134 4.66784 4.4802 0
M  V30 3896 N 353.266 -1.05314 1.17247 0
M  V30 3897 C 354.512 -1.78557 0.961513 0
M  V30 3898 C 354.845 -1.87419 -0.508697 0
M  V30 3899 O 354.12 -1.37307 -1.37757 0
M  V30 3900 C 354.403 -3.22514 1.60176 0
M  V30 3901 C 354.256 -3.21673 3.14399 0
M  V30 3902 C 355.575 -4.20318 1.30463 0
M  V30 3903 H 352.694 -0.6482 0.350723 0
M  V30 3904 H 355.336 -1.23102 1.44727 0
M  V30 3905 H 353.486 -3.69867 1.18871 0
M  V30 3906 H 355.158 -2.82405 3.64753 0
M  V30 3907 H 353.401 -2.60048 3.47214 0
M  V30 3908 H 354.072 -4.23271 3.54324 0
M  V30 3909 H 356.548 -3.81454 1.66229 0
M  V30 3910 H 355.424 -5.19289 1.77848 0
M  V30 3911 H 355.685 -4.41526 0.22521 0
M  V30 3912 N 354.744 -0.972509 -1.24016 0
M  V30 3913 C 355.992 -0.635776 -1.91839 0
M  V30 3914 C 356.313 0.832312 -1.76345 0
M  V30 3915 O 355.583 1.5946 -1.13795 0
M  V30 3916 H 354.163 -0.232157 -0.710009 0
M  V30 3917 H 356.825 -1.23462 -1.50809 0
M  V30 3918 H 355.921 -0.880545 -2.99421 0
M  V30 3919 N 356.222 1.38976 -0.743202 0
M  V30 3920 C 357.185 2.28901 -0.117014 0
M  V30 3921 C 358.185 1.46698 0.658503 0
M  V30 3922 O 359.375 1.67274 0.486305 0
M  V30 3923 C 356.507 3.30309 0.84315 0
M  V30 3924 H 357.7 2.8578 -0.909373 0
M  V30 3925 H 355.253 1.47761 -0.509547 0
M  V30 3926 H 355.988 2.785 1.66157 0
M  V30 3927 H 355.773 3.91029 0.289594 0
M  V30 3928 H 357.263 3.97577 1.2776 0
M  V30 3929 N 357.7 0.491464 1.49741 0
M  V30 3930 C 358.63 -0.28154 2.31796 0
M  V30 3931 C 359.611 -0.971473 1.3963 0
M  V30 3932 O 360.796 -0.964719 1.68543 0
M  V30 3933 C 357.926 -1.35203 3.19902 0
M  V30 3934 C 356.88 -0.782529 4.20786 0
M  V30 3935 C 356.206 -1.95283 4.97764 0
M  V30 3936 C 357.506 0.21999 5.21837 0
M  V30 3937 H 359.2 0.403355 2.96671 0
M  V30 3938 H 356.746 0.195425 1.42668 0
M  V30 3939 H 358.699 -1.90045 3.76113 0
M  V30 3940 H 357.423 -2.06598 2.52953 0
M  V30 3941 H 356.082 -0.255928 3.65706 0
M  V30 3942 H 355.73 -2.65423 4.2727 0
M  V30 3943 H 355.43 -1.57789 5.66018 0
M  V30 3944 H 356.954 -2.50577 5.56816 0
M  V30 3945 H 358.368 -0.23996 5.72798 0
M  V30 3946 H 356.765 0.51026 5.97927 0
M  V30 3947 H 357.835 1.13911 4.7133 0
M  V30 3948 N 359.178 -1.55987 0.224894 0
M  V30 3949 C 360.427 -1.97566 -0.406273 0
M  V30 3950 C 360.74 -1.11569 -1.6066 0
M  V30 3951 O 361.946 -1.43062 -2.3075 0
M  V30 3952 C 360.402 -3.51474 -0.774207 0
M  V30 3953 C 360.01 -4.46179 0.403496 0
M  V30 3954 C 361.754 -4.01758 -1.37079 0
M  V30 3955 C 359.661 -5.91399 0.0129412 0
M  V30 3956 H 358.591 -0.737777 -0.155565 0
M  V30 3957 H 361.242 -1.80659 0.321635 0
M  V30 3958 H 359.624 -3.63994 -1.55963 0
M  V30 3959 H 360.798 -4.45409 1.18101 0
M  V30 3960 H 359.113 -4.06255 0.913536 0
M  V30 3961 H 361.71 -5.07756 -1.67596 0
M  V30 3962 H 362.053 -3.47805 -2.28773 0
M  V30 3963 H 362.586 -3.92475 -0.648733 0
M  V30 3964 H 359.325 -6.49341 0.896451 0
M  V30 3965 H 358.845 -5.95356 -0.728821 0
M  V30 3966 H 360.524 -6.45683 -0.412582 0
M  V30 3967 N 360.656 0.0484629 -1.57525 0
M  V30 3968 C 361.588 1.08222 -2.02041 0
M  V30 3969 C 362.601 1.33621 -0.930012 0
M  V30 3970 O 363.79 1.3145 -1.20761 0
M  V30 3971 C 360.89 2.42818 -2.36416 0
M  V30 3972 C 360.063 2.37049 -3.67596 0
M  V30 3973 C 359.122 3.53937 -3.89378 0
M  V30 3974 O 358.148 3.34308 -4.60681 0
M  V30 3975 N 359.35 4.75126 -3.3352 0
M  V30 3976 H 362.115 0.702946 -2.9134 0
M  V30 3977 H 359.676 0.236745 -1.6016 0
M  V30 3978 H 361.668 3.197 -2.48141 0
M  V30 3979 H 360.238 2.72661 -1.52888 0
M  V30 3980 H 359.458 1.45395 -3.66407 0
M  V30 3981 H 360.746 2.30318 -4.53686 0
M  V30 3982 H 360.144 4.93976 -2.75688 0
M  V30 3983 H 358.701 5.49439 -3.50656 0
M  V30 3984 N 362.134 1.5431 0.320358 0
M  V30 3985 C 363.359 1.76954 1.08175 0
M  V30 3986 C 363.784 0.518193 1.80821 0
M  V30 3987 O 363.142 -0.530411 1.73368 0
M  V30 3988 C 363.19 2.96451 2.05303 0
M  V30 3989 O 362.294 2.68221 3.13259 0
M  V30 3990 H 361.635 0.586275 0.311733 0
M  V30 3991 H 364.165 2.01342 0.363676 0
M  V30 3992 H 364.175 3.23887 2.48116 0
M  V30 3993 H 362.85 3.87196 1.51829 0
M  V30 3994 H 361.427 2.51744 2.75099 0
M  V30 3995 N 363.613 -0.582584 1.46437 0
M  V30 3996 C 364.859 -1.34278 1.51978 0
M  V30 3997 C 365.192 -1.93446 0.170973 0
M  V30 3998 O 364.467 -1.76481 -0.817608 0
M  V30 3999 C 364.75 -2.47203 2.61845 0
M  V30 4000 C 364.603 -1.93069 4.06257 0
M  V30 4001 C 365.922 -3.49247 2.67795 0
M  V30 4002 H 363.041 -0.486876 0.553282 0
M  V30 4003 H 365.683 -0.654437 1.78374 0
M  V30 4004 H 363.833 -3.0592 2.39469 0
M  V30 4005 H 365.505 -1.38808 4.3992 0
M  V30 4006 H 363.748 -1.23898 4.1573 0
M  V30 4007 H 364.419 -2.74586 4.7886 0
M  V30 4008 H 366.895 -3.00411 2.8791 0
M  V30 4009 H 365.771 -4.25719 3.46489 0
M  V30 4010 H 366.032 -4.06482 1.73852 0
M  V30 4011 N 365.091 -1.34144 -0.827227 0
M  V30 4012 C 366.038 -1.25364 -1.93785 0
M  V30 4013 C 367.008 -0.129774 -1.65592 0
M  V30 4014 O 368.193 -0.310024 -1.88264 0
M  V30 4015 C 365.333 -1.01064 -3.2997 0
M  V30 4016 C 364.446 -2.22185 -3.70484 0
M  V30 4017 C 363.581 -1.91203 -4.95595 0
M  V30 4018 C 362.62 -3.08491 -5.28677 0
M  V30 4019 N 361.757 -2.77421 -6.44967 0
M  V30 4020 H 366.597 -2.20347 -2.00627 0
M  V30 4021 H 364.134 -1.09558 -0.981608 0
M  V30 4022 H 366.092 -0.850139 -4.08446 0
M  V30 4023 H 364.722 -0.0975026 -3.22653 0
M  V30 4024 H 363.774 -2.4917 -2.87434 0
M  V30 4025 H 365.086 -3.0983 -3.90905 0
M  V30 4026 H 364.24 -1.71864 -5.81848 0
M  V30 4027 H 362.979 -1.00812 -4.77167 0
M  V30 4028 H 361.984 -3.28431 -4.40923 0
M  V30 4029 H 363.209 -3.99655 -5.49047 0
M  V30 4030 H 361.155 -1.89601 -6.28003 0
M  V30 4031 H 361.072 -3.58598 -6.6554 0
M  V30 4032 H 362.34 -2.61577 -7.34301 0
M  V30 4033 N 366.569 1.04691 -1.17803 0
M  V30 4034 C 367.516 2.12557 -0.899343 0
M  V30 4035 C 368.486 1.65339 0.158771 0
M  V30 4036 O 369.671 1.90789 0.0204797 0
M  V30 4037 C 366.811 3.42481 -0.424315 0
M  V30 4038 C 365.924 4.03346 -1.54713 0
M  V30 4039 C 365.059 5.21208 -1.02546 0
M  V30 4040 C 364.098 5.74089 -2.12339 0
M  V30 4041 N 363.235 6.83247 -1.61612 0
M  V30 4042 H 368.075 2.35734 -1.823 0
M  V30 4043 H 365.612 1.1564 -0.909159 0
M  V30 4044 H 367.57 4.16996 -0.130421 0
M  V30 4045 H 366.2 3.19471 0.462377 0
M  V30 4046 H 365.252 3.2622 -1.95664 0
M  V30 4047 H 366.564 4.38628 -2.37501 0
M  V30 4048 H 365.718 6.02812 -0.685718 0
M  V30 4049 H 364.457 4.87414 -0.167084 0
M  V30 4050 H 363.462 4.91111 -2.47165 0
M  V30 4051 H 364.687 6.0993 -2.98601 0
M  V30 4052 H 362.633 6.5134 -0.780533 0
M  V30 4053 H 362.55 7.17559 -2.38003 0
M  V30 4054 H 363.818 7.68491 -1.30545 0
M  V30 4055 N 368.047 0.979072 1.23499 0
M  V30 4056 C 368.977 0.537606 2.27227 0
M  V30 4057 C 369.958 -0.428539 1.64613 0
M  V30 4058 O 371.143 -0.322191 1.91509 0
M  V30 4059 C 368.273 -0.162052 3.46922 0
M  V30 4060 C 367.227 0.721242 4.21879 0
M  V30 4061 C 366.553 -0.110555 5.34586 0
M  V30 4062 C 367.853 2.01141 4.82016 0
M  V30 4063 H 369.547 1.40462 2.64406 0
M  V30 4064 H 367.093 0.67684 1.27102 0
M  V30 4065 H 369.046 -0.482192 4.18632 0
M  V30 4066 H 367.77 -1.06351 3.08799 0
M  V30 4067 H 366.429 1.02482 3.51984 0
M  V30 4068 H 366.077 -1.0125 4.92704 0
M  V30 4069 H 365.777 0.477325 5.85658 0
M  V30 4070 H 367.301 -0.425107 6.09118 0
M  V30 4071 H 368.715 1.75612 5.45741 0
M  V30 4072 H 367.112 2.54695 5.43369 0
M  V30 4073 H 368.182 2.69909 4.02836 0
M  V30 4074 N 369.525 -1.3858 0.750561 0
M  V30 4075 C 370.75 -2.04997 0.314812 0
M  V30 4076 C 371.175 -1.56235 -1.04749 0
M  V30 4077 O 370.533 -0.712981 -1.66692 0
M  V30 4078 C 370.581 -3.58961 0.343415 0
M  V30 4079 O 369.685 -4.07025 -0.663628 0
M  V30 4080 H 369.026 -0.649081 0.139962 0
M  V30 4081 H 371.556 -1.77313 1.02084 0
M  V30 4082 H 371.566 -4.07542 0.193233 0
M  V30 4083 H 370.241 -3.93811 1.33738 0
M  V30 4084 H 368.818 -3.6982 -0.478307 0
M  V30 4085 N 371.003 -0.499398 -1.49478 0
M  V30 4086 C 372.28 0.108629 -1.95298 0
M  V30 4087 C 372.66 1.54282 -1.44084 0
M  V30 4088 O 372.008 2.18944 -0.653908 0
M  V30 4089 C 372.218 0.0229111 -3.48992 0
M  V30 4090 C 373.566 0.197643 -4.2414 0
M  V30 4091 O 374.59 0.0981735 -3.56065 0
M  V30 4092 O 373.449 0.401669 -5.45022 0
M  V30 4093 H 370.543 0.096181 -0.821388 0
M  V30 4094 H 373.089 -0.561822 -1.6013 0
M  V30 4095 H 371.861 -0.977321 -3.78899 0
M  V30 4096 H 371.484 0.733579 -3.90774 0
M  V30 4097 N 372.481 1.55866 -0.233164 0
M  V30 4098 C 373.727 1.98897 0.395959 0
M  V30 4099 C 374.06 1.12091 1.58585 0
M  V30 4100 O 373.335 0.181182 1.93654 0
M  V30 4101 C 373.618 3.50658 0.819224 0
M  V30 4102 C 373.471 4.48233 -0.375109 0
M  V30 4103 C 374.79 4.07135 1.67121 0
M  V30 4104 H 371.909 0.723102 0.142451 0
M  V30 4105 H 374.551 1.87082 -0.331725 0
M  V30 4106 H 372.701 3.60857 1.43925 0
M  V30 4107 H 374.373 4.50031 -1.01341 0
M  V30 4108 H 372.616 4.21624 -1.02058 0
M  V30 4109 H 373.287 5.51988 -0.0358328 0
M  V30 4110 H 375.763 3.99952 1.14795 0
M  V30 4111 H 374.639 5.13615 1.93625 0
M  V30 4112 H 374.9 3.54736 2.63846 0
M  V30 4113 N 373.959 -0.0401083 1.57549 0
M  V30 4114 C 374.892 -1.07689 2.01192 0
M  V30 4115 C 375.87 -1.358 0.894273 0
M  V30 4116 O 377.054 -1.48642 1.15921 0
M  V30 4117 C 374.181 -2.41418 2.3756 0
M  V30 4118 C 373.227 -2.29237 3.59656 0
M  V30 4119 S 374.06 -1.65628 5.09242 0
M  V30 4120 C 375.216 -3.0087 5.48843 0
M  V30 4121 H 375.449 -0.705108 2.88817 0
M  V30 4122 H 372.982 -0.249724 1.52367 0
M  V30 4123 H 374.94 -3.18329 2.59186 0
M  V30 4124 H 373.601 -2.75747 1.50407 0
M  V30 4125 H 372.794 -3.27932 3.82722 0
M  V30 4126 H 372.396 -1.60469 3.37825 0
M  V30 4127 H 374.688 -3.97201 5.48851 0
M  V30 4128 H 375.631 -2.82549 6.49286 0
M  V30 4129 H 376.039 -3.02934 4.76331 0
M  V30 4130 N 375.437 -1.54477 -0.31217 0
M  V30 4131 C 376.686 -1.72438 -1.04633 0
M  V30 4132 C 376.999 -0.511163 -1.88803 0
M  V30 4133 O 378.205 -0.572341 -2.65399 0
M  V30 4134 C 376.661 -3.05043 -1.9099 0
M  V30 4135 C 376.269 -4.33806 -1.11877 0
M  V30 4136 C 378.013 -3.32364 -2.64073 0
M  V30 4137 C 375.92 -5.57467 -1.97445 0
M  V30 4138 H 374.85 -0.642647 -0.394361 0
M  V30 4139 H 377.501 -1.80966 -0.303929 0
M  V30 4140 H 375.883 -2.90451 -2.69173 0
M  V30 4141 H 377.057 -4.59199 -0.383843 0
M  V30 4142 H 375.372 -4.13336 -0.504252 0
M  V30 4143 H 377.969 -4.21951 -3.28423 0
M  V30 4144 H 378.312 -2.50745 -3.32314 0
M  V30 4145 H 378.845 -3.47875 -1.92944 0
M  V30 4146 H 375.584 -6.41722 -1.33692 0
M  V30 4147 H 375.104 -5.36277 -2.6864 0
M  V30 4148 H 376.783 -5.94303 -2.5576 0
M  V30 4149 N 376.915 0.57481 -1.46744 0
M  V30 4150 C 377.845 1.69337 -1.60771 0
M  V30 4151 C 378.826 1.63825 -0.457736 0
M  V30 4152 O 380.011 1.8172 -0.684947 0
M  V30 4153 C 377.141 3.0798 -1.60517 0
M  V30 4154 C 376.095 3.28327 -2.74564 0
M  V30 4155 C 375.421 4.67578 -2.59373 0
M  V30 4156 C 376.721 3.15398 -4.16319 0
M  V30 4157 H 378.415 1.57853 -2.54407 0
M  V30 4158 H 375.961 0.75799 -1.22436 0
M  V30 4159 H 377.914 3.86061 -1.68923 0
M  V30 4160 H 376.638 3.20381 -0.634305 0
M  V30 4161 H 375.297 2.52649 -2.65639 0
M  V30 4162 H 374.945 4.76755 -1.60353 0
M  V30 4163 H 374.645 4.82144 -3.35873 0
M  V30 4164 H 376.169 5.47817 -2.69682 0
M  V30 4165 H 377.583 3.83315 -4.26313 0
M  V30 4166 H 375.98 3.41482 -4.93468 0
M  V30 4167 H 377.05 2.12372 -4.3592 0
M  V30 4168 N 378.394 1.34581 0.820102 0
M  V30 4169 C 379.622 1.3018 1.60813 0
M  V30 4170 C 380.037 -0.123551 1.88395 0
M  V30 4171 O 379.394 -1.07148 1.47735 0
M  V30 4172 C 379.445 2.09312 2.94739 0
M  V30 4173 O 379.166 3.46288 2.68358 0
M  V30 4174 C 380.667 2.1234 3.89136 0
M  V30 4175 H 377.887 0.447726 0.499782 0
M  V30 4176 H 380.431 1.77237 1.02017 0
M  V30 4177 H 378.586 1.65889 3.50085 0
M  V30 4178 H 379 3.87227 3.53774 0
M  V30 4179 H 380.474 2.72126 4.80262 0
M  V30 4180 H 380.951 1.11854 4.24718 0
M  V30 4181 H 381.557 2.55864 3.39726 0
M  V30 4182 N 379.872 -1.04064 1.18357 0
M  V30 4183 C 381.118 -1.77528 0.980397 0
M  V30 4184 C 381.451 -1.87948 -0.48879 0
M  V30 4185 O 380.726 -1.3876 -1.36293 0
M  V30 4186 C 381.009 -3.20797 1.63588 0
M  V30 4187 C 380.862 -3.1832 3.17793 0
M  V30 4188 C 382.181 -4.18911 1.34914 0
M  V30 4189 H 379.3 -0.644443 0.357578 0
M  V30 4190 H 381.942 -1.2156 1.46024 0
M  V30 4191 H 380.092 -3.68586 1.22788 0
M  V30 4192 H 381.764 -2.78521 3.67728 0
M  V30 4193 H 380.007 -2.56351 3.49952 0
M  V30 4194 H 380.678 -4.19489 3.58794 0
M  V30 4195 H 383.154 -3.7967 1.70265 0
M  V30 4196 H 382.03 -5.17374 1.83346 0
M  V30 4197 H 382.291 -4.41262 0.272027 0
M  V30 4198 N 381.35 -0.985608 -1.22978 0
M  V30 4199 C 382.597 -0.657386 -1.91532 0
M  V30 4200 C 382.925 0.809707 -1.76845 0
M  V30 4201 O 382.18 1.60021 -1.12658 0
M  V30 4202 C 382.479 -1.00014 -3.43121 0
M  V30 4203 C 382.145 -2.4583 -3.77993 0
M  V30 4204 C 380.807 -2.85679 -3.87222 0
M  V30 4205 C 383.159 -3.40378 -3.94705 0
M  V30 4206 C 380.487 -4.19081 -4.10595 0
M  V30 4207 C 382.839 -4.73429 -4.1958 0
M  V30 4208 C 381.503 -5.1303 -4.27032 0
M  V30 4209 H 380.773 -0.240555 -0.700867 0
M  V30 4210 H 383.42 -1.24044 -1.45895 0
M  V30 4211 H 381.725 -0.335072 -3.90365 0
M  V30 4212 H 383.422 -0.724322 -3.94404 0
M  V30 4213 H 380.012 -2.13939 -3.71387 0
M  V30 4214 H 384.196 -3.10766 -3.8696 0
M  V30 4215 H 379.452 -4.49362 -4.14589 0
M  V30 4216 H 383.626 -5.46644 -4.31455 0
M  V30 4217 H 381.253 -6.16418 -4.44896 0
M  V30 4218 N 382.828 1.3818 -0.7579 0
M  V30 4219 C 384.068 2.01864 -0.320968 0
M  V30 4220 C 384.432 1.58863 1.07827 0
M  V30 4221 O 385.633 2.14908 1.61456 0
M  V30 4222 C 383.904 3.54626 -0.44446 0
M  V30 4223 S 385.463 4.38706 -0.0907467 0
M  V30 4224 H 382.281 0.700056 -0.124268 0
M  V30 4225 H 384.883 1.68611 -0.989468 0
M  V30 4226 H 383.587 3.83411 -1.4637 0
M  V30 4227 H 383.118 3.92661 0.241073 0
M  V30 4228 H 385.133 4.83435 1.11826 0
M  V30 4229 N 384.306 0.507319 1.49211 0
M  V30 4230 C 385.236 -0.256939 2.32082 0
M  V30 4231 C 386.217 -0.956609 1.40652 0
M  V30 4232 O 387.402 -0.946788 1.69557 0
M  V30 4233 C 384.532 -1.31802 3.21318 0
M  V30 4234 C 383.486 -0.737855 4.21592 0
M  V30 4235 C 382.812 -1.89992 4.99807 0
M  V30 4236 C 384.112 0.275325 5.21574 0
M  V30 4237 H 385.806 0.434798 2.96226 0
M  V30 4238 H 383.352 0.210546 1.42452 0
M  V30 4239 H 385.305 -1.86045 3.78107 0
M  V30 4240 H 384.029 -2.03903 2.5513 0
M  V30 4241 H 382.688 -0.217126 3.65956 0
M  V30 4242 H 382.336 -2.60877 4.30061 0
M  V30 4243 H 382.036 -1.51777 5.6766 0
M  V30 4244 H 383.56 -2.44657 5.59442 0
M  V30 4245 H 384.974 -0.179193 5.7302 0
M  V30 4246 H 383.371 0.573649 5.97352 0
M  V30 4247 H 384.441 1.18903 4.70096 0
M  V30 4248 N 385.784 -1.5574 0.241426 0
M  V30 4249 C 387.009 -2.0366 -0.392111 0
M  V30 4250 C 387.434 -1.11969 -1.51144 0
M  V30 4251 O 386.792 -0.111594 -1.80956 0
M  V30 4252 C 386.84 -3.49638 -0.882371 0
M  V30 4253 O 385.944 -3.6108 -1.99235 0
M  V30 4254 H 385.285 -0.658379 -0.0862122 0
M  V30 4255 H 387.815 -2.01302 0.365881 0
M  V30 4256 H 387.825 -3.90351 -1.18702 0
M  V30 4257 H 386.5 -4.15852 -0.0632361 0
M  V30 4258 H 385.077 -3.32262 -1.69282 0
M  V30 4259 N 387.262 0.0317525 -1.57568 0
M  V30 4260 C 388.508 0.724175 -1.8943 0
M  V30 4261 C 388.841 1.75149 -0.838836 0
M  V30 4262 O 388.116 1.93948 0.146422 0
M  V30 4263 C 388.399 1.39615 -3.31933 0
M  V30 4264 C 388.252 0.382537 -4.4817 0
M  V30 4265 C 389.571 2.33084 -3.73309 0
M  V30 4266 H 386.69 0.261797 -0.688935 0
M  V30 4267 H 389.332 -0.013017 -1.89996 0
M  V30 4268 H 387.482 2.02451 -3.31581 0
M  V30 4269 H 389.154 -0.243689 -4.60656 0
M  V30 4270 H 387.397 -0.29844 -4.32772 0
M  V30 4271 H 388.068 0.891145 -5.44759 0
M  V30 4272 H 390.544 1.80295 -3.7501 0
M  V30 4273 H 389.42 2.77084 -4.73831 0
M  V30 4274 H 389.681 3.19643 -3.05419 0
M  V30 4275 N 388.74 1.54641 0.303973 0
M  V30 4276 C 389.987 1.7378 1.03955 0
M  V30 4277 C 390.315 0.521986 1.87365 0
M  V30 4278 O 389.57 -0.496099 1.89308 0
M  V30 4279 C 389.869 2.97753 1.97681 0
M  V30 4280 C 389.535 4.31671 1.30271 0
M  V30 4281 C 388.197 4.68075 1.11619 0
M  V30 4282 C 390.549 5.147 0.82055 0
M  V30 4283 C 387.877 5.8509 0.434304 0
M  V30 4284 C 390.229 6.32416 0.152395 0
M  V30 4285 C 388.893 6.67484 -0.0461067 0
M  V30 4286 H 388.163 0.635908 0.380398 0
M  V30 4287 H 390.81 1.88896 0.314718 0
M  V30 4288 H 389.115 2.77406 2.76682 0
M  V30 4289 H 390.812 3.09756 2.54661 0
M  V30 4290 H 387.402 4.03041 1.45795 0
M  V30 4291 H 391.586 4.87077 0.952374 0
M  V30 4292 H 386.842 6.10806 0.269495 0
M  V30 4293 H 391.016 6.96023 -0.229126 0
M  V30 4294 H 388.643 7.58011 -0.576494 0
M  V30 4295 N 390.218 -0.567019 1.47046 0
M  V30 4296 C 391.181 -1.65696 1.58359 0
M  V30 4297 C 392.181 -1.54097 0.459441 0
M  V30 4298 O 393.371 -1.58432 0.724225 0
M  V30 4299 C 390.503 -3.05197 1.51879 0
M  V30 4300 H 391.696 -1.57019 2.5551 0
M  V30 4301 H 389.249 -0.786148 1.3509 0
M  V30 4302 H 389.984 -3.19417 0.560673 0
M  V30 4303 H 389.769 -3.15025 2.33455 0
M  V30 4304 H 391.259 -3.84511 1.62913 0
M  V30 4305 N 391.696 -1.35014 -0.812953 0
M  V30 4306 C 392.626 -1.30069 -1.93919 0
M  V30 4307 C 393.607 -0.176275 -1.69184 0
M  V30 4308 O 394.792 -0.370227 -1.90638 0
M  V30 4309 C 391.922 -1.06547 -3.30552 0
M  V30 4310 C 390.876 -2.15561 -3.69753 0
M  V30 4311 C 390.202 -1.77214 -5.04479 0
M  V30 4312 C 391.502 -3.57476 -3.808 0
M  V30 4313 H 393.196 -2.24303 -1.98314 0
M  V30 4314 H 390.742 -1.07977 -0.952736 0
M  V30 4315 H 392.695 -1.01729 -4.08937 0
M  V30 4316 H 391.419 -0.0875719 -3.26483 0
M  V30 4317 H 390.078 -2.19466 -2.9365 0
M  V30 4318 H 389.726 -0.780589 -4.96906 0
M  V30 4319 H 389.426 -2.50184 -5.31678 0
M  V30 4320 H 390.95 -1.7391 -5.8531 0
M  V30 4321 H 392.364 -3.55929 -4.4943 0
M  V30 4322 H 390.761 -4.29152 -4.19462 0
M  V30 4323 H 391.831 -3.94091 -2.82525 0
M  V30 4324 N 393.175 1.03435 -1.18907 0
M  V30 4325 C 394.421 1.77005 -0.989798 0
M  V30 4326 C 394.754 1.88205 0.478816 0
M  V30 4327 O 394.029 1.39481 1.35556 0
M  V30 4328 C 394.312 3.19925 -1.65287 0
M  V30 4329 C 394.165 3.1663 -3.19477 0
M  V30 4330 C 395.484 4.18189 -1.37134 0
M  V30 4331 H 392.603 0.642538 -0.360991 0
M  V30 4332 H 395.245 1.20784 -1.46667 0
M  V30 4333 H 393.395 3.67929 -1.24741 0
M  V30 4334 H 395.067 2.76567 -3.692 0
M  V30 4335 H 393.31 2.54491 -3.51307 0
M  V30 4336 H 393.981 4.1758 -3.61013 0
M  V30 4337 H 396.457 3.78761 -1.72276 0
M  V30 4338 H 395.333 5.16394 -1.86087 0
M  V30 4339 H 395.594 4.41112 -0.295424 0
M  V30 4340 N 394.653 0.992116 1.22453 0
M  V30 4341 C 395.901 0.666215 1.90804 0
M  V30 4342 C 396.222 -0.804152 1.77647 0
M  V30 4343 O 395.492 -1.57629 1.16318 0
M  V30 4344 H 394.072 0.243423 0.706225 0
M  V30 4345 H 396.734 1.25845 1.48825 0
M  V30 4346 H 395.83 0.928069 2.97982 0
M  V30 4347 N 396.131 -1.37776 0.765217 0
M  V30 4348 C 397.061 -2.32945 0.160953 0
M  V30 4349 C 398.042 -1.55454 -0.690516 0
M  V30 4350 O 399.227 -1.83721 -0.629318 0
M  V30 4351 C 396.357 -3.39669 -0.724031 0
M  V30 4352 C 395.311 -4.27992 0.0256173 0
M  V30 4353 C 394.637 -5.25673 -0.978383 0
M  V30 4354 C 395.937 -5.08309 1.20082 0
M  V30 4355 H 397.631 -2.83728 0.955969 0
M  V30 4356 H 395.177 -1.36416 0.461149 0
M  V30 4357 H 397.13 -4.05219 -1.15652 0
M  V30 4358 H 395.854 -2.87396 -1.5515 0
M  V30 4359 H 394.513 -3.63964 0.438812 0
M  V30 4360 H 394.161 -4.69682 -1.80022 0
M  V30 4361 H 393.861 -5.85625 -0.481378 0
M  V30 4362 H 395.385 -5.94098 -1.40995 0
M  V30 4363 H 396.799 -5.67034 0.845307 0
M  V30 4364 H 395.196 -5.77554 1.62947 0
M  V30 4365 H 396.266 -4.41365 2.00811 0
M  V30 4366 N 397.609 -0.515225 -1.4894 0
M  V30 4367 C 398.541 0.292481 -2.27326 0
M  V30 4368 C 399.554 0.917838 -1.3446 0
M  V30 4369 O 400.743 0.798772 -1.5963 0
M  V30 4370 C 397.843 1.42803 -3.07344 0
M  V30 4371 C 397.016 0.907347 -4.27885 0
M  V30 4372 C 396.075 1.92222 -4.89834 0
M  V30 4373 O 395.101 1.48506 -5.49486 0
M  V30 4374 N 396.303 3.25355 -4.80754 0
M  V30 4375 H 399.068 -0.379721 -2.97285 0
M  V30 4376 H 396.629 -0.348638 -1.58102 0
M  V30 4377 H 398.621 2.10481 -3.45658 0
M  V30 4378 H 397.191 2.00414 -2.39902 0
M  V30 4379 H 396.411 0.0550218 -3.94162 0
M  V30 4380 H 397.699 0.538108 -5.05946 0
M  V30 4381 H 397.097 3.6355 -4.33414 0
M  V30 4382 H 395.654 3.88707 -5.23211 0
M  V30 4383 N 399.087 1.5561 -0.249682 0
M  V30 4384 C 400.017 2.24477 0.642826 0
M  V30 4385 C 400.998 1.22601 1.17911 0
M  V30 4386 O 402.183 1.5126 1.21795 0
M  V30 4387 C 399.313 2.94638 1.83863 0
M  V30 4388 C 398.267 4.03227 1.435 0
M  V30 4389 C 397.593 4.60828 2.71186 0
M  V30 4390 C 398.893 5.18796 0.604002 0
M  V30 4391 H 400.587 2.99321 0.0685625 0
M  V30 4392 H 398.133 1.43965 0.0315363 0
M  V30 4393 H 400.086 3.41517 2.46868 0
M  V30 4394 H 398.81 2.17287 2.43832 0
M  V30 4395 H 397.469 3.57121 0.828275 0
M  V30 4396 H 397.117 3.80174 3.29358 0
M  V30 4397 H 396.817 5.34132 2.44901 0
M  V30 4398 H 398.341 5.10442 3.35084 0
M  V30 4399 H 399.755 5.61883 1.13842 0
M  V30 4400 H 398.152 5.98506 0.437097 0
M  V30 4401 H 399.222 4.83384 -0.383147 0
M  V30 4402 N 400.565 -0.0233959 1.57583 0
M  V30 4403 C 401.812 -0.713063 1.8953 0
M  V30 4404 C 402.14 -1.75056 0.847673 0
M  V30 4405 O 401.395 -1.95119 -0.150636 0
M  V30 4406 C 401.694 -1.41428 3.28227 0
M  V30 4407 C 401.36 -0.512222 4.47981 0
M  V30 4408 C 400.022 -0.263785 4.80476 0
M  V30 4409 C 402.374 0.110248 5.21083 0
M  V30 4410 C 399.702 0.615804 5.83459 0
M  V30 4411 C 402.054 0.977573 6.25001 0
M  V30 4412 C 400.718 1.23542 6.55968 0
M  V30 4413 H 399.988 -0.260928 0.69354 0
M  V30 4414 H 402.635 0.0271047 1.91481 0
M  V30 4415 H 400.94 -2.22791 3.22291 0
M  V30 4416 H 402.637 -1.95355 3.50196 0
M  V30 4417 H 399.227 -0.716013 4.22577 0
M  V30 4418 H 403.411 -0.0687137 4.96252 0
M  V30 4419 H 398.667 0.82382 6.05824 0
M  V30 4420 H 402.841 1.46638 6.80786 0
M  V30 4421 H 400.468 1.91871 7.35588 0
M  V30 4422 N 402.043 -1.548 -0.295768 0
M  V30 4423 C 402.976 -1.81003 -1.38972 0
M  V30 4424 C 403.954 -0.661544 -1.48534 0
M  V30 4425 O 405.138 -0.902074 -1.65514 0
M  V30 4426 C 402.265 -1.95141 -2.76835 0
M  V30 4427 C 401.311 -3.17592 -2.84671 0
M  V30 4428 S 402.144 -4.75531 -2.46232 0
M  V30 4429 C 403.3 -4.92613 -3.86114 0
M  V30 4430 H 403.533 -2.73507 -1.16537 0
M  V30 4431 H 401.066 -1.46278 -0.494168 0
M  V30 4432 H 403.024 -2.03972 -3.56238 0
M  V30 4433 H 401.685 -1.03565 -2.96535 0
M  V30 4434 H 400.878 -3.24303 -3.85803 0
M  V30 4435 H 400.48 -3.07235 -2.13267 0
M  V30 4436 H 402.772 -4.76957 -4.81164 0
M  V30 4437 H 403.715 -5.94698 -3.8437 0
M  V30 4438 H 404.123 -4.2073 -3.76359 0
M  V30 4439 N 403.521 0.559213 -1.47345 0
M  V30 4440 C 404.769 1.31388 -1.53563 0
M  V30 4441 C 405.09 1.93985 -0.198678 0
M  V30 4442 O 404.36 1.79825 0.777167 0
M  V30 4443 H 402.94 0.487901 -0.565652 0
M  V30 4444 H 405.602 0.65315 -1.8363 0
M  V30 4445 H 404.698 2.10844 -2.30111 0
M  V30 4446 N 404.999 1.35443 0.805782 0
M  V30 4447 C 405.947 1.28465 1.93906 0
M  V30 4448 C 406.941 0.17943 1.68447 0
M  V30 4449 O 408.147 0.345459 1.76654 0
M  V30 4450 H 404.522 0.399528 0.637088 0
M  V30 4451 H 406.493 2.24206 1.96912 0
M  V30 4452 C 405.242 1.07432 3.30687 0
M  V30 4453 H 404.565 1.91716 3.50835 0
M  V30 4454 H 406.005 1.06591 4.10383 0
M  V30 4455 C 404.464 -0.22179 3.36169 0
M  V30 4456 O 404.994 -1.21731 3.82811 0
M  V30 4457 N 403.2 -0.260841 2.89427 0
M  V30 4458 H 402.747 0.549884 2.51663 0
M  V30 4459 H 402.705 -1.12777 2.93477 0
M  V30 4460 N 406.477 -1.02803 1.19454 0
M  V30 4461 C 407.407 -2.12999 0.956758 0
M  V30 4462 C 408.388 -1.69743 -0.110188 0
M  V30 4463 O 409.573 -1.94148 0.0450038 0
M  V30 4464 C 406.703 -3.43746 0.495553 0
M  V30 4465 C 405.657 -4.00688 1.50443 0
M  V30 4466 C 404.983 -5.27067 0.900275 0
M  V30 4467 C 406.283 -4.35397 2.8849 0
M  V30 4468 H 407.977 -2.33148 1.87836 0
M  V30 4469 H 405.523 -1.12045 0.904539 0
M  V30 4470 H 407.476 -4.2021 0.316493 0
M  V30 4471 H 406.2 -3.23321 -0.461646 0
M  V30 4472 H 404.859 -3.2632 1.67065 0
M  V30 4473 H 404.507 -5.02959 -0.064503 0
M  V30 4474 H 404.207 -5.66127 1.57397 0
M  V30 4475 H 405.731 -6.06196 0.73203 0
M  V30 4476 H 407.145 -5.02795 2.75446 0
M  V30 4477 H 405.542 -4.85541 3.52661 0
M  V30 4478 H 406.612 -3.44662 3.41081 0
M  V30 4479 N 407.956 -0.998596 -1.21925 0
M  V30 4480 C 409.372 -0.710303 -1.42923 0
M  V30 4481 C 409.572 0.716933 -1.88314 0
M  V30 4482 O 408.628 1.48712 -2.04062 0
M  V30 4483 C 409.941 -1.72072 -2.466 0
M  V30 4484 C 411.489 -1.73681 -2.60392 0
M  V30 4485 C 411.964 -2.73601 -3.67296 0
M  V30 4486 N 413.455 -2.7223 -3.7476 0
M  V30 4487 C 414.19 -3.46206 -4.57087 0
M  V30 4488 N 413.686 -4.29802 -5.43362 0
M  V30 4489 N 415.479 -3.34886 -4.51451 0
M  V30 4490 H 407.63 -1.92028 -0.9077 0
M  V30 4491 H 409.893 -0.828487 -0.460775 0
M  V30 4492 H 409.599 -2.74231 -2.20206 0
M  V30 4493 H 409.473 -1.51818 -3.45299 0
M  V30 4494 H 411.86 -0.722173 -2.86127 0
M  V30 4495 H 411.941 -1.98005 -1.61949 0
M  V30 4496 H 411.585 -3.75217 -3.42307 0
M  V30 4497 H 411.515 -2.46545 -4.65321 0
M  V30 4498 H 414.006 -2.11576 -3.1312 0
M  V30 4499 H 414.319 -4.83061 -6.03218 0
M  V30 4500 H 412.664 -4.33887 -5.42925 0
M  V30 4501 H 415.855 -2.69015 -3.83078 0
M  V30 4502 H 416.028 -3.92796 -5.15379 0
M  V30 4503 N 409.434 1.37368 -0.772513 0
M  V30 4504 C 410.366 2.28899 -0.117502 0
M  V30 4505 C 411.379 1.4867 0.663405 0
M  V30 4506 O 412.568 1.71314 0.501372 0
M  V30 4507 C 409.668 3.2788 0.857192 0
M  V30 4508 C 408.841 4.37207 0.129938 0
M  V30 4509 C 407.9 5.16257 1.01811 0
M  V30 4510 O 406.926 5.67159 0.481601 0
M  V30 4511 N 408.128 5.31058 2.3443 0
M  V30 4512 H 410.893 2.85752 -0.903662 0
M  V30 4513 H 408.454 1.49353 -0.62493 0
M  V30 4514 H 410.446 3.77647 1.45482 0
M  V30 4515 H 409.016 2.7179 1.54432 0
M  V30 4516 H 408.236 3.88827 -0.648605 0
M  V30 4517 H 409.524 5.07434 -0.372559 0
M  V30 4518 H 408.922 4.91287 2.80452 0
M  V30 4519 H 407.479 5.84131 2.89197 0
M  V30 4520 N 410.912 0.523116 1.48665 0
M  V30 4521 C 411.859 -0.243398 2.29513 0
M  V30 4522 C 412.829 -0.940139 1.36933 0
M  V30 4523 O 414.014 -0.942503 1.65896 0
M  V30 4524 C 411.154 -1.28855 3.20141 0
M  V30 4525 C 410.267 -0.60135 4.27794 0
M  V30 4526 C 409.402 -1.62884 5.05611 0
M  V30 4527 C 408.441 -0.924726 6.05075 0
M  V30 4528 N 407.578 -1.89744 6.75975 0
M  V30 4529 H 412.418 0.452234 2.94549 0
M  V30 4530 H 409.955 0.234858 1.45213 0
M  V30 4531 H 411.913 -1.90674 3.71079 0
M  V30 4532 H 410.543 -1.95266 2.57043 0
M  V30 4533 H 409.595 0.130623 3.80176 0
M  V30 4534 H 410.907 -0.0481585 4.98777 0
M  V30 4535 H 410.061 -2.32149 5.60528 0
M  V30 4536 H 408.8 -2.21592 4.34452 0
M  V30 4537 H 407.805 -0.217966 5.49368 0
M  V30 4538 H 409.03 -0.343851 6.78229 0
M  V30 4539 H 406.976 -2.47373 6.07571 0
M  V30 4540 H 406.893 -1.3955 7.43009 0
M  V30 4541 H 408.161 -2.58229 7.35485 0
M  V30 4542 N 412.39 -1.55475 0.257931 0
M  V30 4543 C 413.63 -2.01112 -0.365129 0
M  V30 4544 C 413.994 -1.1423 -1.54323 0
M  V30 4545 O 415.195 -1.49371 -2.23477 0
M  V30 4546 C 413.466 -3.49353 -0.754117 0
M  V30 4547 S 415.025 -4.16992 -1.36614 0
M  V30 4548 H 411.843 -0.701737 -0.114397 0
M  V30 4549 H 414.445 -1.91855 0.375747 0
M  V30 4550 H 413.149 -4.10246 0.112441 0
M  V30 4551 H 412.68 -3.6256 -1.52689 0
M  V30 4552 H 414.695 -4.19191 -2.65505 0
M  V30 4553 N 413.868 0.0150385 -1.57593 0
M  V30 4554 C 415.114 0.704043 -1.90187 0
M  V30 4555 C 415.447 1.74249 -0.857366 0
M  V30 4556 O 414.722 1.94092 0.125843 0
M  V30 4557 C 415.005 1.36087 -3.33395 0
M  V30 4558 C 414.858 0.334981 -4.48551 0
M  V30 4559 C 416.177 2.29112 -3.7576 0
M  V30 4560 H 413.296 0.254475 -0.691673 0
M  V30 4561 H 415.938 -0.0331678 -1.89971 0
M  V30 4562 H 414.088 1.98922 -3.3371 0
M  V30 4563 H 415.76 -0.292534 -4.60372 0
M  V30 4564 H 414.003 -0.344325 -4.32431 0
M  V30 4565 H 414.674 0.833316 -5.45674 0
M  V30 4566 H 417.15 1.76308 -3.76902 0
M  V30 4567 H 416.026 2.72043 -4.76743 0
M  V30 4568 H 416.287 3.16385 -3.08793 0
M  V30 4569 N 415.346 1.54954 0.287554 0
M  V30 4570 C 416.762 1.46469 0.633964 0
M  V30 4571 C 416.962 0.666865 1.90145 0
M  V30 4572 O 416.018 0.179906 2.51858 0
M  V30 4573 C 417.331 2.90556 0.774454 0
M  V30 4574 C 418.879 3.00681 0.869462 0
M  V30 4575 C 419.354 4.45993 1.04184 0
M  V30 4576 N 420.845 4.4976 1.10772 0
M  V30 4577 C 421.58 5.59393 1.25964 0
M  V30 4578 N 421.076 6.78923 1.37968 0
M  V30 4579 N 422.869 5.47107 1.28959 0
M  V30 4580 H 415.02 2.05288 -0.545041 0
M  V30 4581 H 417.283 0.930305 -0.182308 0
M  V30 4582 H 416.989 3.51594 -0.086207 0
M  V30 4583 H 416.863 3.38743 1.6593 0
M  V30 4584 H 419.25 2.39749 1.7206 0
M  V30 4585 H 419.331 2.55769 -0.0396831 0
M  V30 4586 H 418.975 5.07524 0.195422 0
M  V30 4587 H 418.905 4.88548 1.96542 0
M  V30 4588 H 421.396 3.63651 1.02794 0
M  V30 4589 H 421.709 7.58231 1.49353 0
M  V30 4590 H 420.054 6.81763 1.34999 0
M  V30 4591 H 423.245 4.52668 1.19202 0
M  V30 4592 H 423.418 6.32595 1.40455 0
M  V30 4593 N 416.824 -0.551391 1.4764 0
M  V30 4594 C 418.07 -1.30789 1.55774 0
M  V30 4595 C 418.425 -1.91143 0.219562 0
M  V30 4596 O 417.718 -1.7521 -0.775375 0
M  V30 4597 C 417.912 -2.43469 2.61644 0
M  V30 4598 C 417.741 -1.94157 4.05627 0
M  V30 4599 C 416.511 -1.77734 4.7301 0
M  V30 4600 C 418.709 -1.48262 4.92466 0
M  V30 4601 N 416.691 -1.22823 6.01488 0
M  V30 4602 C 418.062 -1.05156 6.11017 0
M  V30 4603 C 420.117 -1.36367 4.78862 0
M  V30 4604 C 418.82 -0.513357 7.17466 0
M  V30 4605 C 420.846 -0.839484 5.85411 0
M  V30 4606 C 420.208 -0.418377 7.03156 0
M  V30 4607 H 416.307 -0.470406 0.624694 0
M  V30 4608 H 418.891 -0.624331 1.84419 0
M  V30 4609 H 417.062 -3.09348 2.34859 0
M  V30 4610 H 418.794 -3.10477 2.59589 0
M  V30 4611 H 415.549 -2.00623 4.29007 0
M  V30 4612 H 415.973 -0.974393 6.69951 0
M  V30 4613 H 420.615 -1.67535 3.88191 0
M  V30 4614 H 418.333 -0.189318 8.07878 0
M  V30 4615 H 421.919 -0.750921 5.76934 0
M  V30 4616 H 420.799 -0.0190538 7.84198 0
M  V30 4617 N 418.302 -1.35869 -0.798587 0
M  V30 4618 C 419.713 -1.26498 -1.37314 0
M  V30 4619 C 420.064 0.0991899 -1.95949 0
M  V30 4620 O 419.189 1.0004 -1.91888 0
M  V30 4621 C 419.784 -2.29054 -2.49639 0
M  V30 4622 C 418.343 -2.234 -3.02935 0
M  V30 4623 C 417.49 -2.14329 -1.75949 0
M  V30 4624 H 420.441 -1.46881 -0.600971 0
M  V30 4625 H 420.462 -1.92166 -3.28409 0
M  V30 4626 H 419.974 -3.2833 -2.06933 0
M  V30 4627 H 418.075 -1.27562 -3.50084 0
M  V30 4628 H 418.188 -3.15703 -3.60372 0
M  V30 4629 H 416.552 -1.60435 -1.9782 0
M  V30 4630 H 417.335 -3.15477 -1.35384 0
M  V30 4631 N 419.78 1.02168 -1.19998 0
M  V30 4632 C 421.191 1.57135 -1.00825 0
M  V30 4633 C 421.542 1.91276 0.436818 0
M  V30 4634 O 420.667 1.71679 1.3174 0
M  V30 4635 C 421.262 2.85514 -1.82393 0
M  V30 4636 C 419.821 3.37027 -1.67601 0
M  V30 4637 C 418.968 2.10388 -1.80644 0
M  V30 4638 H 421.919 0.846106 -1.34264 0
M  V30 4639 H 421.94 3.56711 -1.32429 0
M  V30 4640 H 421.452 2.60634 -2.87561 0
M  V30 4641 H 419.553 3.66878 -0.650485 0
M  V30 4642 H 419.666 4.09572 -2.4857 0
M  V30 4643 H 418.03 2.22601 -1.23778 0
M  V30 4644 H 418.813 1.8794 -2.87286 0
M  V30 4645 N 421.258 1.00505 1.21394 0
M  V30 4646 C 422.669 0.721082 1.72213 0
M  V30 4647 C 423.02 -0.761263 1.80829 0
M  V30 4648 O 422.145 -1.59464 1.46288 0
M  V30 4649 C 422.74 1.30228 3.12772 0
M  V30 4650 C 421.299 1.06743 3.60947 0
M  V30 4651 C 420.446 1.41507 2.38477 0
M  V30 4652 H 423.397 1.17594 1.06571 0
M  V30 4653 H 423.418 0.686955 3.74247 0
M  V30 4654 H 422.93 2.38115 3.06468 0
M  V30 4655 H 421.031 0.00572162 3.726 0
M  V30 4656 H 421.144 1.73936 4.46411 0
M  V30 4657 H 419.508 0.833852 2.40664 0
M  V30 4658 H 420.291 2.50424 2.34824 0
M  V30 4659 N 422.737 -1.36956 0.779787 0
M  V30 4660 C 423.984 -1.99491 0.347766 0
M  V30 4661 C 424.312 -1.61898 -1.07793 0
M  V30 4662 O 423.567 -0.86071 -1.75756 0
M  V30 4663 C 423.866 -3.54585 0.447686 0
M  V30 4664 C 423.532 -4.1197 1.83279 0
M  V30 4665 C 422.194 -4.27356 2.2118 0
M  V30 4666 C 424.546 -4.43354 2.74019 0
M  V30 4667 C 421.874 -4.71432 3.4924 0
M  V30 4668 C 424.226 -4.88858 4.01497 0
M  V30 4669 C 422.89 -5.0245 4.39432 0
M  V30 4670 H 422.16 -0.729991 0.127257 0
M  V30 4671 H 424.807 -1.63599 0.995376 0
M  V30 4672 H 423.112 -3.90773 -0.283447 0
M  V30 4673 H 424.809 -4.00888 0.0945948 0
M  V30 4674 H 421.399 -4.00428 1.52825 0
M  V30 4675 H 425.583 -4.31045 2.45995 0
M  V30 4676 H 420.839 -4.80141 3.78516 0
M  V30 4677 H 425.013 -5.12108 4.71931 0
M  V30 4678 H 422.64 -5.36362 5.38721 0
M  V30 4679 N 424.215 -0.530993 -1.48385 0
M  V30 4680 C 425.163 0.244595 -2.3131 0
M  V30 4681 C 426.157 0.93451 -1.41291 0
M  V30 4682 O 427.363 0.85878 -1.58193 0
M  V30 4683 H 423.738 0.0977472 -0.74562 0
M  V30 4684 H 425.709 -0.474369 -2.94605 0
M  V30 4685 C 424.458 1.2779 -3.23365 0
M  V30 4686 H 423.781 0.756439 -3.92579 0
M  V30 4687 H 425.221 1.79198 -3.84271 0
M  V30 4688 C 423.68 2.31205 -2.45042 0
M  V30 4689 O 424.21 3.37661 -2.17596 0
M  V30 4690 N 422.416 2.04446 -2.0652 0
M  V30 4691 H 421.963 1.17891 -2.2904 0
M  V30 4692 H 421.921 2.73861 -1.54427 0
M  V30 4693 N 425.693 1.55336 -0.266172 0
M  V30 4694 C 426.97 1.91372 0.404486 0
M  V30 4695 C 427.35 1.18935 1.74407 0
M  V30 4696 O 426.698 0.3132 2.26343 0
M  V30 4697 C 426.908 3.44581 0.553593 0
M  V30 4698 C 428.256 4.16196 0.840618 0
M  V30 4699 O 429.28 3.50426 0.638739 0
M  V30 4700 O 428.139 5.32567 1.22618 0
M  V30 4701 H 425.233 0.797194 0.220025 0
M  V30 4702 H 427.779 1.66813 -0.311664 0
M  V30 4703 H 426.551 3.89357 -0.389498 0
M  V30 4704 H 426.174 3.75065 1.31955 0
M  V30 4705 N 427.171 -0.0066808 1.57599 0
M  V30 4706 C 428.399 -0.704087 1.94551 0
M  V30 4707 C 428.814 -1.67677 0.867746 0
M  V30 4708 O 428.171 -1.8185 -0.153925 0
M  V30 4709 C 428.222 -1.44177 3.31505 0
M  V30 4710 O 427.943 -0.508097 4.35144 0
M  V30 4711 C 429.444 -2.23429 3.82876 0
M  V30 4712 H 426.664 -0.196523 0.641576 0
M  V30 4713 H 429.208 0.042453 2.04456 0
M  V30 4714 H 427.363 -2.13999 3.22929 0
M  V30 4715 H 427.777 -1.02782 5.14331 0
M  V30 4716 H 429.251 -2.70552 4.8115 0
M  V30 4717 H 429.728 -3.05818 3.15233 0
M  V30 4718 H 430.334 -1.58636 3.94607 0
M  V30 4719 N 428.649 -1.55105 -0.279332 0
M  V30 4720 C 429.597 -1.88333 -1.36505 0
M  V30 4721 C 430.591 -0.759043 -1.51443 0
M  V30 4722 O 431.797 -0.943312 -1.53302 0
M  V30 4723 H 428.172 -0.59766 -0.456406 0
M  V30 4724 H 430.143 -2.79041 -1.05728 0
M  V30 4725 C 428.892 -2.16628 -2.7197 0
M  V30 4726 H 428.215 -3.02624 -2.61264 0
M  V30 4727 H 429.655 -2.43803 -3.46895 0
M  V30 4728 C 428.114 -0.971807 -3.22579 0
M  V30 4729 O 428.644 -0.203228 -4.01186 0
M  V30 4730 N 426.85 -0.771238 -2.80179 0
M  V30 4731 H 426.397 -1.39792 -2.1637 0
M  V30 4732 H 426.355 0.0263667 -3.14389 0
M  V30 4733 N 430.127 0.543554 -1.4793 0
M  V30 4734 C 431.355 1.32516 -1.58894 0
M  V30 4735 C 431.77 1.87215 -0.244131 0
M  V30 4736 O 431.127 1.65709 0.764652 0
M  V30 4737 C 431.178 2.48554 -2.62494 0
M  V30 4738 O 430.899 1.96112 -3.91755 0
M  V30 4739 C 432.4 3.40572 -2.8377 0
M  V30 4740 H 429.62 0.403472 -0.536145 0
M  V30 4741 H 432.164 0.657106 -1.93655 0
M  V30 4742 H 430.319 3.1127 -2.30629 0
M  V30 4743 H 430.733 2.71967 -4.4848 0
M  V30 4744 H 432.207 4.18375 -3.60093 0
M  V30 4745 H 432.684 3.94965 -1.92092 0
M  V30 4746 H 433.29 2.8366 -3.16887 0
M  V30 4747 N 431.605 1.3629 0.791371 0
M  V30 4748 C 432.833 1.33562 1.58016 0
M  V30 4749 C 433.248 -0.0835616 1.88615 0
M  V30 4750 O 432.605 -1.0399 1.49974 0
M  V30 4751 C 432.656 2.15517 2.90232 0
M  V30 4752 O 432.377 3.51902 2.60953 0
M  V30 4753 C 433.878 2.20546 3.84544 0
M  V30 4754 H 431.098 0.458226 0.490173 0
M  V30 4755 H 433.642 1.79361 0.982345 0
M  V30 4756 H 431.797 1.73278 3.46487 0
M  V30 4757 H 432.211 3.94644 3.4548 0
M  V30 4758 H 433.685 2.82252 4.74382 0
M  V30 4759 H 434.162 1.20838 4.2225 0
M  V30 4760 H 434.768 2.63013 3.34222 0
M  V30 4761 N 433.083 -1.0153 1.20538 0
M  V30 4762 C 434.329 -1.75517 1.02787 0
M  V30 4763 C 434.684 -1.87411 -0.435289 0
M  V30 4764 O 433.977 -1.38982 -1.31889 0
M  V30 4765 C 434.171 -3.17213 1.64654 0
M  V30 4766 C 434 -3.19134 3.16834 0
M  V30 4767 C 432.77 -3.26301 3.85818 0
M  V30 4768 C 434.968 -3.05077 4.14044 0
M  V30 4769 N 432.95 -3.17739 5.25276 0
M  V30 4770 C 434.321 -3.04299 5.40187 0
M  V30 4771 C 436.376 -2.89303 4.05226 0
M  V30 4772 C 435.079 -2.89365 6.58529 0
M  V30 4773 C 437.105 -2.75723 5.23193 0
M  V30 4774 C 436.467 -2.75612 6.48242 0
M  V30 4775 H 432.566 -0.652919 0.430373 0
M  V30 4776 H 435.15 -1.20755 1.52729 0
M  V30 4777 H 433.321 -3.70266 1.17294 0
M  V30 4778 H 435.053 -3.79637 1.40208 0
M  V30 4779 H 431.808 -3.33078 3.36684 0
M  V30 4780 H 432.232 -3.16829 5.98288 0
M  V30 4781 H 436.874 -2.88201 3.09354 0
M  V30 4782 H 434.592 -2.89216 7.54573 0
M  V30 4783 H 438.178 -2.64533 5.18183 0
M  V30 4784 H 437.058 -2.65224 7.37988 0
M  V30 4785 N 434.561 -1.01147 -1.20859 0
M  V30 4786 C 435.791 -0.715872 -1.93801 0
M  V30 4787 C 436.199 0.726592 -1.74692 0
M  V30 4788 O 435.542 1.50397 -1.05482 0
M  V30 4789 C 435.604 -0.965269 -3.46299 0
M  V30 4790 C 435.268 -2.39584 -3.89164 0
M  V30 4791 C 436.265 -3.3764 -3.95342 0
M  V30 4792 C 433.95 -2.73522 -4.21297 0
M  V30 4793 C 435.944 -4.67698 -4.33056 0
M  V30 4794 C 433.631 -4.03794 -4.58687 0
M  V30 4795 C 434.629 -5.00693 -4.64538 0
M  V30 4796 O 434.317 -6.28635 -5.01072 0
M  V30 4797 H 434.049 -0.262524 -0.622942 0
M  V30 4798 H 436.603 -1.35413 -1.54443 0
M  V30 4799 H 434.833 -0.269847 -3.85757 0
M  V30 4800 H 436.522 -0.662051 -4.00464 0
M  V30 4801 H 437.288 -3.12757 -3.70686 0
M  V30 4802 H 433.167 -1.9879 -4.15937 0
M  V30 4803 H 436.711 -5.4333 -4.37537 0
M  V30 4804 H 432.608 -4.28459 -4.82797 0
M  V30 4805 H 433.376 -6.32847 -5.19083 0
M  V30 4806 N 436.039 1.36541 -0.78704 0
M  V30 4807 C 437.264 2.0409 -0.369053 0
M  V30 4808 C 437.689 1.58957 1.00569 0
M  V30 4809 O 437.047 0.756926 1.64743 0
M  V30 4810 C 437.095 3.57924 -0.438466 0
M  V30 4811 O 436.199 4.08642 0.555479 0
M  V30 4812 H 435.54 0.645142 -0.157122 0
M  V30 4813 H 438.07 1.74545 -1.06749 0
M  V30 4814 H 438.08 4.06887 -0.301218 0
M  V30 4815 H 436.755 3.90127 -1.44132 0
M  V30 4816 H 435.332 3.70958 0.380088 0
M  V30 4817 N 437.518 0.538854 1.48102 0
M  V30 4818 C 438.466 -0.232325 2.31437 0
M  V30 4819 C 439.46 -0.927004 1.41785 0
M  V30 4820 O 440.666 -0.850378 1.58646 0
M  V30 4821 H 437.041 -0.0937916 0.746128 0
M  V30 4822 H 439.012 0.489986 2.9435 0
M  V30 4823 C 437.761 -1.26074 3.24038 0
M  V30 4824 H 437.084 -0.735609 3.92974 0
M  V30 4825 H 438.524 -1.77157 3.85216 0
M  V30 4826 C 436.983 -2.29902 2.46265 0
M  V30 4827 O 437.513 -3.36502 2.19384 0
M  V30 4828 N 435.719 -2.03348 2.07601 0
M  V30 4829 H 435.266 -1.16675 2.29662 0
M  V30 4830 H 435.224 -2.73038 1.55877 0
M  V30 4831 N 438.996 -1.55193 0.274407 0
M  V30 4832 C 440.273 -1.91584 -0.394331 0
M  V30 4833 C 440.653 -1.19858 -1.73774 0
M  V30 4834 O 440.001 -0.3252 -2.26174 0
M  V30 4835 C 440.211 -3.4487 -0.535311 0
M  V30 4836 C 441.559 -4.16636 -0.818534 0
M  V30 4837 O 442.583 -3.5076 -0.620146 0
M  V30 4838 O 441.442 -5.33209 -1.19792 0
M  V30 4839 H 438.536 -0.798349 -0.215794 0
M  V30 4840 H 441.082 -1.66646 0.320507 0
M  V30 4841 H 439.854 -3.89145 0.410141 0
M  V30 4842 H 439.477 -3.75759 -1.29964 0
M  V30 4843 N 440.474 -0.00167713 -1.576 0
M  V30 4844 C 441.702 0.693759 -1.94922 0
M  V30 4845 C 442.117 1.67215 -0.876626 0
M  V30 4846 O 441.474 1.81929 0.144279 0
M  V30 4847 C 441.525 1.42416 -3.32265 0
M  V30 4848 O 441.246 0.485014 -4.35407 0
M  V30 4849 C 442.747 2.21395 -3.84056 0
M  V30 4850 H 439.967 0.193118 -0.642609 0
M  V30 4851 H 442.511 -0.0532952 -2.04431 0
M  V30 4852 H 440.666 2.12284 -3.24059 0
M  V30 4853 H 441.08 1.00053 -5.14868 0
M  V30 4854 H 442.554 2.67996 -4.82578 0
M  V30 4855 H 443.031 3.04142 -3.16851 0
M  V30 4856 H 443.637 1.56542 -3.95443 0
M  V30 4857 N 441.952 1.55251 0.271103 0
M  V30 4858 C 443.198 1.7713 0.999832 0
M  V30 4859 C 443.553 0.56659 1.83868 0
M  V30 4860 O 442.846 -0.44069 1.86463 0
M  V30 4861 C 443.04 3.01879 1.91321 0
M  V30 4862 C 442.869 4.34368 1.16426 0
M  V30 4863 C 441.639 4.97593 0.879169 0
M  V30 4864 C 443.837 5.1131 0.553749 0
M  V30 4865 N 441.819 6.13813 0.103618 0
M  V30 4866 C 443.19 6.19938 -0.0875442 0
M  V30 4867 C 445.245 4.95754 0.461782 0
M  V30 4868 C 443.948 7.14703 -0.811942 0
M  V30 4869 C 445.974 5.90875 -0.249027 0
M  V30 4870 C 445.336 6.98893 -0.879051 0
M  V30 4871 H 441.435 0.700407 0.347784 0
M  V30 4872 H 444.019 1.92744 0.275314 0
M  V30 4873 H 442.19 2.87637 2.60997 0
M  V30 4874 H 443.922 3.12154 2.57569 0
M  V30 4875 H 440.677 4.58538 1.18491 0
M  V30 4876 H 441.101 6.76455 -0.271543 0
M  V30 4877 H 445.743 4.12342 0.934552 0
M  V30 4878 H 443.461 7.97634 -1.29639 0
M  V30 4879 H 447.047 5.80916 -0.320529 0
M  V30 4880 H 445.927 7.71231 -1.42031 0
M  V30 4881 N 443.43 -0.535701 1.48216 0
M  V30 4882 C 444.66 -1.3148 1.59363 0
M  V30 4883 C 445.068 -1.8753 0.250844 0
M  V30 4884 O 444.411 -1.66821 -0.769174 0
M  V30 4885 C 444.473 -2.50731 2.57632 0
M  V30 4886 C 444.137 -2.15811 4.02833 0
M  V30 4887 C 445.134 -1.71822 4.90686 0
M  V30 4888 C 442.819 -2.26509 4.48329 0
M  V30 4889 C 444.813 -1.3899 6.22062 0
M  V30 4890 C 442.5 -1.93289 5.79726 0
M  V30 4891 C 443.498 -1.49599 6.66415 0
M  V30 4892 O 443.186 -1.16812 7.95368 0
M  V30 4893 H 442.918 -0.406315 0.540263 0
M  V30 4894 H 445.472 -0.653569 1.94725 0
M  V30 4895 H 443.702 -3.19817 2.1738 0
M  V30 4896 H 445.391 -3.12797 2.58675 0
M  V30 4897 H 446.157 -1.63031 4.56778 0
M  V30 4898 H 442.036 -2.59471 3.81045 0
M  V30 4899 H 445.58 -1.04816 6.89681 0
M  V30 4900 H 441.477 -2.01718 6.13172 0
M  V30 4901 H 442.245 -1.30259 8.08069 0
M  V30 4902 N 444.908 -1.36708 -0.784132 0
M  V30 4903 C 446.156 -1.30972 -1.53918 0
M  V30 4904 C 446.477 0.109086 -1.94695 0
M  V30 4905 O 445.747 1.05048 -1.65353 0
M  V30 4906 H 444.327 -0.481819 -0.570841 0
M  V30 4907 H 446.989 -1.71063 -0.934002 0
M  V30 4908 H 446.085 -1.94061 -2.44431 0
M  V30 4909 N 446.386 1.0089 -1.21074 0
M  V30 4910 C 447.334 2.11707 -0.963476 0
M  V30 4911 C 448.328 1.69172 0.0879032 0
M  V30 4912 O 449.534 1.79889 -0.0631415 0
M  V30 4913 H 445.909 0.692026 -0.294287 0
M  V30 4914 H 447.88 2.29743 -1.90422 0
M  V30 4915 C 446.629 3.43473 -0.540509 0
M  V30 4916 H 445.952 3.76634 -1.34114 0
M  V30 4917 H 447.392 4.22044 -0.406777 0
M  V30 4918 C 445.851 3.2849 0.748079 0
M  V30 4919 O 446.381 3.58883 1.8046 0
M  V30 4920 N 444.587 2.81715 0.713081 0
M  V30 4921 H 444.134 2.5718 -0.146973 0
M  V30 4922 H 444.092 2.72071 1.57558 0
M  V30 4923 N 447.864 1.01787 1.20321 0
M  V30 4924 C 449.141 0.622978 1.85414 0
M  V30 4925 C 449.521 -0.898887 1.91006 0
M  V30 4926 O 448.869 -1.79112 1.41884 0
M  V30 4927 C 449.079 1.27226 3.24984 0
M  V30 4928 C 450.427 1.3885 4.01255 0
M  V30 4929 O 451.451 1.22857 3.34342 0
M  V30 4930 O 450.31 1.64705 5.2109 0
M  V30 4931 H 447.404 0.215116 0.798533 0
M  V30 4932 H 449.95 1.11533 1.27901 0
M  V30 4933 H 448.722 2.31209 3.15687 0
M  V30 4934 H 448.345 0.767069 3.90131 0
M  V30 4935 N 449.342 -1.36122 0.79427 0
M  V30 4936 C 450.57 -2.03362 0.380989 0
M  V30 4937 C 450.985 -1.59881 -1.00416 0
M  V30 4938 O 450.342 -0.790515 -1.6449 0
M  V30 4939 C 450.393 -3.58804 0.440649 0
M  V30 4940 O 450.114 -4.007 1.77118 0
M  V30 4941 C 451.615 -4.43296 0.0186117 0
M  V30 4942 H 448.835 -0.652526 0.156367 0
M  V30 4943 H 451.379 -1.73998 1.07447 0
M  V30 4944 H 449.534 -3.8686 -0.204458 0
M  V30 4945 H 449.948 -4.95309 1.72538 0
M  V30 4946 H 451.422 -5.51887 0.111488 0
M  V30 4947 H 451.899 -4.2684 -1.03461 0
M  V30 4948 H 452.505 -4.20512 0.636395 0
M  V30 4949 N 450.82 -0.546701 -1.47814 0
M  V30 4950 C 452.066 -0.0269594 -2.03382 0
M  V30 4951 C 452.421 1.30406 -1.41464 0
M  V30 4952 O 451.714 1.8332 -0.557151 0
M  V30 4953 C 451.908 0.134869 -3.57145 0
M  V30 4954 C 451.737 -1.17891 -4.33972 0
M  V30 4955 C 450.507 -1.74336 -4.74273 0
M  V30 4956 C 452.705 -2.09361 -4.69758 0
M  V30 4957 N 450.687 -2.99829 -5.35701 0
M  V30 4958 C 452.058 -3.19431 -5.31379 0
M  V30 4959 C 454.113 -2.09484 -4.51687 0
M  V30 4960 C 452.816 -4.2971 -5.76838 0
M  V30 4961 C 454.842 -3.18767 -4.98138 0
M  V30 4962 C 454.204 -4.27557 -5.59799 0
M  V30 4963 H 450.303 -0.0517733 -0.780284 0
M  V30 4964 H 452.887 -0.731673 -1.80429 0
M  V30 4965 H 451.058 0.80869 -3.79888 0
M  V30 4966 H 452.79 0.655726 -3.99352 0
M  V30 4967 H 449.545 -1.28265 -4.559 0
M  V30 4968 H 449.969 -3.63765 -5.70968 0
M  V30 4969 H 454.611 -1.26663 -4.03381 0
M  V30 4970 H 452.329 -5.13297 -6.24141 0
M  V30 4971 H 455.915 -3.19937 -4.85934 0
M  V30 4972 H 454.795 -5.10725 -5.95088 0
M  V30 4973 N 452.299 1.55045 -0.282633 0
M  V30 4974 C 453.529 2.03872 0.334635 0
M  V30 4975 C 453.937 1.16018 1.49454 0
M  V30 4976 O 453.28 0.174449 1.8287 0
M  V30 4977 C 453.342 3.48791 0.870905 0
M  V30 4978 C 453.006 4.56715 -0.161338 0
M  V30 4979 C 454.003 5.10513 -0.983466 0
M  V30 4980 C 451.688 5.01417 -0.297745 0
M  V30 4981 C 453.682 6.07538 -1.92811 0
M  V30 4982 C 451.369 5.98265 -1.24586 0
M  V30 4983 C 452.367 6.51208 -2.05954 0
M  V30 4984 O 452.055 7.46162 -2.99162 0
M  V30 4985 H 451.787 0.671324 0.0793742 0
M  V30 4986 H 454.341 2.01169 -0.41473 0
M  V30 4987 H 452.571 3.48758 1.67047 0
M  V30 4988 H 454.26 3.80916 1.40207 0
M  V30 4989 H 455.026 4.76785 -0.888856 0
M  V30 4990 H 450.905 4.59849 0.325604 0
M  V30 4991 H 454.449 6.48787 -2.56363 0
M  V30 4992 H 450.346 6.31412 -1.34126 0
M  V30 4993 H 451.114 7.63903 -2.93929 0
M  V30 4994 N 453.777 0.010035 1.57597 0
M  V30 4995 C 455.025 -0.671371 1.90623 0
M  V30 4996 C 455.346 -1.73753 0.885151 0
M  V30 4997 O 454.616 -1.95752 -0.0760611 0
M  V30 4998 H 453.196 -0.250968 0.703579 0
M  V30 4999 H 455.858 0.0533325 1.94827 0
M  V30 5000 H 454.954 -1.13626 2.90681 0
M  V30 5001 N 455.255 -1.55392 -0.262866 0
M  V30 5002 C 456.203 -1.8977 -1.345 0
M  V30 5003 C 457.197 -0.775063 -1.50629 0
M  V30 5004 O 458.403 -0.959519 -1.52293 0
M  V30 5005 H 454.778 -0.602467 -0.450041 0
M  V30 5006 H 456.749 -2.80147 -1.02762 0
M  V30 5007 C 455.498 -2.19501 -2.69657 0
M  V30 5008 H 454.821 -3.05378 -2.5804 0
M  V30 5009 H 456.261 -2.47469 -3.44289 0
M  V30 5010 C 454.72 -1.00597 -3.21531 0
M  V30 5011 O 455.25 -0.245768 -4.00947 0
M  V30 5012 N 453.456 -0.800911 -2.79345 0
M  V30 5013 H 453.003 -1.42079 -2.14875 0
M  V30 5014 H 452.961 -0.00697996 -3.14399 0
M  V30 5015 N 456.733 0.527833 -1.48498 0
M  V30 5016 C 457.643 1.65907 -1.65867 0
M  V30 5017 C 458.659 1.6537 -0.541192 0
M  V30 5018 O 459.835 1.84282 -0.812534 0
M  V30 5019 C 456.9 3.02364 -1.69637 0
M  V30 5020 C 455.961 3.1374 -2.93028 0
M  V30 5021 C 455.194 4.43688 -2.96609 0
M  V30 5022 O 455.417 5.30913 -2.08538 0
M  V30 5023 O 454.351 4.59475 -3.88802 0
M  V30 5024 H 458.177 1.5419 -2.61647 0
M  V30 5025 H 455.762 0.701163 -1.31924 0
M  V30 5026 H 457.644 3.83515 -1.74625 0
M  V30 5027 H 456.319 3.14401 -0.770312 0
M  V30 5028 H 455.226 2.31877 -2.93571 0
M  V30 5029 H 456.559 3.06621 -3.85026 0
M  V30 5030 N 458.211 1.37122 0.776871 0
M  V30 5031 C 459.144 1.26835 1.89705 0
M  V30 5032 C 460.122 0.14992 1.61907 0
M  V30 5033 O 461.306 0.323242 1.85708 0
M  V30 5034 C 458.433 0.95986 3.24814 0
M  V30 5035 C 457.479 2.09447 3.7153 0
M  V30 5036 S 458.312 3.71368 3.85806 0
M  V30 5037 C 459.468 3.42659 5.23771 0
M  V30 5038 H 459.701 2.21647 1.98141 0
M  V30 5039 H 457.234 1.22685 0.937433 0
M  V30 5040 H 459.192 0.788696 4.02852 0
M  V30 5041 H 457.853 0.0293137 3.14086 0
M  V30 5042 H 457.046 1.8335 4.69467 0
M  V30 5043 H 456.648 2.2255 3.00578 0
M  V30 5044 H 458.94 2.9733 6.0877 0
M  V30 5045 H 459.883 4.39905 5.54878 0
M  V30 5046 H 460.291 2.77708 4.91466 0
M  V30 5047 N 459.689 -1.00246 1.21608 0
M  V30 5048 C 460.935 -1.74417 1.04643 0
M  V30 5049 C 461.29 -1.87862 -0.415387 0
M  V30 5050 O 460.583 -1.40373 -1.30407 0
M  V30 5051 C 460.777 -3.15448 1.68009 0
M  V30 5052 C 460.606 -3.15755 3.20201 0
M  V30 5053 C 459.376 -3.2219 3.89258 0
M  V30 5054 C 461.574 -3.00668 4.17257 0
M  V30 5055 N 459.556 -3.1215 5.28617 0
M  V30 5056 C 460.927 -2.98553 5.43384 0
M  V30 5057 C 462.982 -2.84989 4.08272 0
M  V30 5058 C 461.685 -2.82364 6.61561 0
M  V30 5059 C 463.711 -2.70158 5.26088 0
M  V30 5060 C 463.073 -2.68721 6.51128 0
M  V30 5061 H 459.172 -0.648317 0.437274 0
M  V30 5062 H 461.756 -1.19129 1.54001 0
M  V30 5063 H 459.927 -3.69001 1.21215 0
M  V30 5064 H 461.659 -3.78128 1.44226 0
M  V30 5065 H 458.414 -3.29488 3.40198 0
M  V30 5066 H 458.838 -3.10465 6.01615 0
M  V30 5067 H 463.48 -2.84904 3.12393 0
M  V30 5068 H 461.198 -2.81196 7.57598 0
M  V30 5069 H 464.784 -2.59022 5.20959 0
M  V30 5070 H 463.664 -2.57382 7.40759 0
M  V30 5071 N 461.167 -1.02423 -1.1978 0
M  V30 5072 C 462.397 -0.736387 -1.93031 0
M  V30 5073 C 462.805 0.708023 -1.75453 0
M  V30 5074 O 462.148 1.4927 -1.07071 0
M  V30 5075 C 462.21 -1.00194 -3.45255 0
M  V30 5076 C 461.874 -2.43698 -3.86601 0
M  V30 5077 C 462.871 -3.41814 -3.91738 0
M  V30 5078 C 460.556 -2.77975 -4.18372 0
M  V30 5079 C 462.55 -4.72265 -4.28071 0
M  V30 5080 C 460.237 -4.08636 -4.54378 0
M  V30 5081 C 461.235 -5.05592 -4.59201 0
M  V30 5082 O 460.923 -6.33914 -4.94376 0
M  V30 5083 H 460.655 -0.269116 -0.620123 0
M  V30 5084 H 463.209 -1.37043 -1.52998 0
M  V30 5085 H 461.439 -0.310747 -3.85449 0
M  V30 5086 H 463.128 -0.704488 -3.9974 0
M  V30 5087 H 463.894 -3.16671 -3.67348 0
M  V30 5088 H 459.773 -2.0319 -4.13805 0
M  V30 5089 H 463.317 -5.4794 -4.3175 0
M  V30 5090 H 459.214 -4.33556 -4.78226 0
M  V30 5091 H 459.982 -6.38317 -5.12341 0
M  V30 5092 N 462.645 1.35699 -0.801477 0
M  V30 5093 C 463.893 1.9852 -0.37871 0
M  V30 5094 C 464.214 1.63907 1.05638 0
M  V30 5095 O 463.484 0.919013 1.73006 0
M  V30 5096 H 462.064 0.734322 -0.137042 0
M  V30 5097 H 464.726 1.65697 -1.02619 0
M  V30 5098 H 463.822 3.08382 -0.480284 0
M  V30 5099 N 464.123 0.554532 1.47522 0
M  V30 5100 C 465.071 -0.207765 2.3167 0
M  V30 5101 C 466.065 -0.911914 1.4276 0
M  V30 5102 O 467.271 -0.833504 1.59539 0
M  V30 5103 H 463.646 -0.0858726 0.747081 0
M  V30 5104 H 465.617 0.521178 2.93813 0
M  V30 5105 C 464.366 -1.2263 3.25357 0
M  V30 5106 H 463.689 -0.693887 3.93732 0
M  V30 5107 H 465.129 -1.73062 3.87073 0
M  V30 5108 C 463.588 -2.27278 2.4869 0
M  V30 5109 O 464.118 -3.34156 2.22941 0
M  V30 5110 N 462.324 -2.01134 2.09746 0
M  V30 5111 H 461.871 -1.14232 2.30887 0
M  V30 5112 H 461.829 -2.71369 1.58765 0
M  V30 5113 N 465.601 -1.54893 0.290851 0
M  V30 5114 C 466.878 -1.91991 -0.373989 0
M  V30 5115 C 467.258 -1.21694 -1.72493 0
M  V30 5116 O 466.606 -0.34917 -2.25816 0
M  V30 5117 C 466.816 -3.45419 -0.498703 0
M  V30 5118 C 468.164 -4.1748 -0.774298 0
M  V30 5119 O 469.188 -3.51398 -0.582908 0
M  V30 5120 O 468.047 -5.3445 -1.14129 0
M  V30 5121 H 465.141 -0.800593 -0.207315 0
M  V30 5122 H 467.687 -1.66297 0.338164 0
M  V30 5123 H 466.459 -3.88688 0.451392 0
M  V30 5124 H 466.082 -3.77117 -1.25972 0
M  V30 5125 N 467.08 -0.0183926 -1.57589 0
M  V30 5126 C 468.305 0.676634 -1.96052 0
M  V30 5127 C 468.73 1.6548 -0.894307 0
M  V30 5128 O 468.088 1.80712 0.145849 0
M  V30 5129 C 468.136 1.36872 -3.33614 0
M  V30 5130 O 467.24 2.48372 -3.29219 0
M  V30 5131 H 466.581 0.1786 -0.63953 0
M  V30 5132 H 469.111 -0.077056 -2.04455 0
M  V30 5133 H 469.121 1.72797 -3.69601 0
M  V30 5134 H 467.796 0.651636 -4.10763 0
M  V30 5135 H 466.373 2.14639 -3.04934 0
M  V30 5136 N 468.558 1.5553 0.254621 0
M  V30 5137 C 469.804 1.7818 0.980989 0
M  V30 5138 C 470.159 0.586059 1.83257 0
M  V30 5139 O 469.452 -0.420889 1.8692 0
M  V30 5140 C 469.646 3.03891 1.88109 0
M  V30 5141 C 469.475 4.35578 1.11812 0
M  V30 5142 C 468.245 4.98497 0.826343 0
M  V30 5143 C 470.443 5.11869 0.499486 0
M  V30 5144 N 468.425 6.13888 0.0385095 0
M  V30 5145 C 469.796 6.1981 -0.153292 0
M  V30 5146 C 471.851 4.96216 0.409175 0
M  V30 5147 C 470.554 7.13801 -0.8877 0
M  V30 5148 C 472.58 5.90578 -0.311683 0
M  V30 5149 C 471.942 6.97922 -0.953129 0
M  V30 5150 H 468.041 0.704057 0.340335 0
M  V30 5151 H 470.625 1.93025 0.254855 0
M  V30 5152 H 468.796 2.90389 2.57932 0
M  V30 5153 H 470.528 3.14869 2.54244 0
M  V30 5154 H 467.283 4.59769 1.13621 0
M  V30 5155 H 467.707 6.76129 -0.343275 0
M  V30 5156 H 472.349 4.1331 0.890765 0
M  V30 5157 H 470.067 7.96214 -1.38092 0
M  V30 5158 H 473.653 5.80544 -0.382125 0
M  V30 5159 H 472.533 7.69681 -1.50203 0
M  V30 5160 N 470.036 -0.519951 1.48776 0
M  V30 5161 C 471.266 -1.29783 1.60748 0
M  V30 5162 C 471.674 -1.87253 0.27072 0
M  V30 5163 O 471.017 -1.67628 -0.751438 0
M  V30 5164 C 471.079 -2.47984 2.60277 0
M  V30 5165 C 470.743 -2.11526 4.051 0
M  V30 5166 C 471.74 -1.66608 4.92481 0
M  V30 5167 C 469.425 -2.21742 4.50706 0
M  V30 5168 C 471.419 -1.32384 6.23501 0
M  V30 5169 C 469.106 -1.87129 5.81744 0
M  V30 5170 C 470.104 -1.42523 6.67964 0
M  V30 5171 O 469.792 -1.0837 7.96562 0
M  V30 5172 H 469.524 -0.400562 0.544542 0
M  V30 5173 H 472.078 -0.632879 1.95407 0
M  V30 5174 H 470.308 -3.17493 2.2076 0
M  V30 5175 H 471.997 -3.10036 2.61978 0
M  V30 5176 H 472.763 -1.58178 4.58481 0
M  V30 5177 H 468.642 -2.55415 3.83776 0
M  V30 5178 H 472.186 -0.974949 6.90754 0
M  V30 5179 H 468.083 -1.95204 6.15277 0
M  V30 5180 H 468.851 -1.21681 8.09405 0
M  V30 5181 N 471.514 -1.37532 -0.769588 0
M  V30 5182 C 472.477 -1.33292 -1.86456 0
M  V30 5183 C 473.477 -0.236537 -1.59051 0
M  V30 5184 O 474.667 -0.492511 -1.67093 0
M  V30 5185 C 471.799 -1.07118 -3.23633 0
M  V30 5186 H 472.992 -2.30692 -1.91628 0
M  V30 5187 H 470.545 -1.22593 -0.969572 0
M  V30 5188 H 471.28 -0.102578 -3.24138 0
M  V30 5189 H 471.065 -1.86479 -3.44917 0
M  V30 5190 H 472.555 -1.06806 -4.03711 0
M  V30 5191 N 472.992 0.995999 -1.22138 0
M  V30 5192 C 473.94 2.10673 -0.985876 0
M  V30 5193 C 474.934 1.69255 0.0699553 0
M  V30 5194 O 476.14 1.79812 -0.0822176 0
M  V30 5195 H 472.515 0.688865 -0.30161 0
M  V30 5196 H 474.486 2.27711 -1.92848 0
M  V30 5197 C 473.235 3.42881 -0.576909 0
M  V30 5198 H 472.558 3.75191 -1.38101 0
M  V30 5199 H 473.998 4.21589 -0.451518 0
M  V30 5200 C 472.457 3.29265 0.713196 0
M  V30 5201 O 472.987 3.60777 1.76643 0
M  V30 5202 N 471.193 2.82456 0.683162 0
M  V30 5203 H 470.74 2.5701 -0.174242 0
M  V30 5204 H 470.698 2.73727 1.54663 0
M  V30 5205 N 474.47 1.03057 1.19235 0
M  V30 5206 C 475.747 0.642608 1.84743 0
M  V30 5207 C 476.127 -0.878577 1.91948 0
M  V30 5208 O 475.475 -1.77597 1.43776 0
M  V30 5209 C 475.685 1.30665 3.23616 0
M  V30 5210 C 477.033 1.43098 3.9976 0
M  V30 5211 O 478.057 1.26396 3.3302 0
M  V30 5212 O 476.916 1.70223 5.19313 0
M  V30 5213 H 474.01 0.223573 0.796206 0
M  V30 5214 H 476.556 1.12883 1.26711 0
M  V30 5215 H 475.328 2.34544 3.13217 0
M  V30 5216 H 474.951 0.808405 3.89295 0
M  V30 5217 N 475.948 -1.35272 0.808662 0
M  V30 5218 C 477.176 -2.02946 0.402537 0
M  V30 5219 C 477.591 -1.60937 -0.987147 0
M  V30 5220 O 476.948 -0.807917 -1.63643 0
M  V30 5221 C 476.999 -3.58317 0.47868 0
M  V30 5222 O 476.72 -3.98799 1.81358 0
M  V30 5223 C 478.221 -4.43251 0.0656281 0
M  V30 5224 H 475.441 -0.650831 0.163279 0
M  V30 5225 H 477.985 -1.72849 1.09286 0
M  V30 5226 H 476.14 -3.87055 -0.163415 0
M  V30 5227 H 476.554 -4.93451 1.77781 0
M  V30 5228 H 478.028 -5.51738 0.170017 0
M  V30 5229 H 478.505 -4.27913 -0.989278 0
M  V30 5230 H 479.111 -4.19813 0.68096 0
M  V30 5231 N 477.426 -0.562348 -1.47226 0
M  V30 5232 C 478.672 -0.0485293 -2.03342 0
M  V30 5233 C 479.027 1.28898 -1.42839 0
M  V30 5234 O 478.32 1.82719 -0.576563 0
M  V30 5235 C 478.514 0.0969817 -3.57268 0
M  V30 5236 C 478.343 -1.22487 -4.32697 0
M  V30 5237 C 477.113 -1.79357 -4.72397 0
M  V30 5238 C 479.311 -2.14332 -4.67511 0
M  V30 5239 N 477.293 -3.05493 -5.32491 0
M  V30 5240 C 478.664 -3.25049 -5.27961 0
M  V30 5241 C 480.719 -2.14263 -4.4944 0
M  V30 5242 C 479.422 -4.35804 -5.72248 0
M  V30 5243 C 481.448 -3.24033 -4.94729 0
M  V30 5244 C 480.81 -4.3347 -5.55233 0
M  V30 5245 H 476.909 -0.0600464 -0.779691 0
M  V30 5246 H 479.493 -0.750769 -1.79643 0
M  V30 5247 H 477.664 0.768353 -3.80724 0
M  V30 5248 H 479.396 0.613333 -4.00025 0
M  V30 5249 H 476.151 -1.33093 -4.54514 0
M  V30 5250 H 476.575 -3.698 -5.67077 0
M  V30 5251 H 481.217 -1.30935 -4.02015 0
M  V30 5252 H 478.935 -5.19888 -6.18661 0
M  V30 5253 H 482.521 -3.25073 -4.82513 0
M  V30 5254 H 481.401 -5.17008 -5.89638 0
M  V30 5255 N 478.904 1.54736 -0.299062 0
M  V30 5256 C 479.852 2.24897 0.593658 0
M  V30 5257 C 480.846 1.25429 1.13859 0
M  V30 5258 O 482.052 1.43286 1.08945 0
M  V30 5259 H 478.427 0.72207 0.210046 0
M  V30 5260 H 480.398 2.98393 -0.0206421 0
M  V30 5261 C 479.147 3.00159 1.75499 0
M  V30 5262 H 478.47 3.76501 1.34489 0
M  V30 5263 H 479.91 3.52535 2.35574 0
M  V30 5264 C 478.369 2.07015 2.65794 0
M  V30 5265 O 478.899 1.63692 3.66835 0
M  V30 5266 N 477.105 1.73012 2.33485 0
M  V30 5267 H 476.652 2.08439 1.51364 0
M  V30 5268 H 476.61 1.10965 2.94167 0
M  V30 5269 N 480.382 0.0267497 1.57577 0
M  V30 5270 C 481.607 -0.666227 1.96408 0
M  V30 5271 C 482.032 -1.65004 0.903071 0
M  V30 5272 O 481.39 -1.80787 -0.136263 0
M  V30 5273 C 481.438 -1.35101 3.34335 0
M  V30 5274 O 480.542 -2.46623 3.30531 0
M  V30 5275 H 479.883 -0.175206 0.640468 0
M  V30 5276 H 482.413 0.0878977 2.04411 0
M  V30 5277 H 482.423 -1.70834 3.70513 0
M  V30 5278 H 481.098 -0.629844 4.11103 0
M  V30 5279 H 479.675 -2.13019 3.06068 0
M  V30 5280 N 481.861 -1.55662 -0.24637 0
M  V30 5281 C 482.811 -1.86753 -1.30795 0
M  V30 5282 C 483.795 -0.728445 -1.43466 0
M  V30 5283 O 484.987 -0.99038 -1.46699 0
M  V30 5284 C 482.116 -2.16618 -2.66329 0
M  V30 5285 C 481.202 -3.36855 -2.57661 0
M  V30 5286 N 481.593 -4.56111 -2.18624 0
M  V30 5287 C 479.891 -3.39976 -2.88673 0
M  V30 5288 C 480.592 -5.38247 -2.20601 0
M  V30 5289 N 479.568 -4.77322 -2.60124 0
M  V30 5290 H 483.37 -2.76486 -0.996642 0
M  V30 5291 H 480.884 -1.55896 -0.454994 0
M  V30 5292 H 482.881 -2.37057 -3.42942 0
M  V30 5293 H 481.541 -1.28185 -2.98327 0
M  V30 5294 H 482.552 -4.81726 -1.9016 0
M  V30 5295 H 479.229 -2.61815 -3.25206 0
M  V30 5296 H 480.619 -6.43657 -1.92756 0
M  V30 5297 N 483.339 0.512053 -1.4905 0
M  V30 5298 C 484.302 1.59704 -1.64399 0
M  V30 5299 C 485.302 1.52285 -0.516317 0
M  V30 5300 O 486.492 1.55635 -0.782527 0
M  V30 5301 C 483.624 2.9935 -1.63102 0
M  V30 5302 H 484.817 1.47428 -2.61161 0
M  V30 5303 H 482.37 0.735469 -1.37915 0
M  V30 5304 H 483.105 3.17116 -0.678836 0
M  V30 5305 H 482.89 3.06144 -2.44986 0
M  V30 5306 H 484.38 3.782 -1.77072 0
M  V30 5307 N 484.817 1.37938 0.762283 0
M  V30 5308 C 486.042 1.37059 1.55659 0
M  V30 5309 C 486.467 -0.0396123 1.88058 0
M  V30 5310 O 485.825 -1.01929 1.49934 0
M  V30 5311 C 485.873 2.22494 2.83776 0
M  V30 5312 O 484.977 1.63607 3.78559 0
M  V30 5313 H 484.318 0.467892 0.47114 0
M  V30 5314 H 486.848 1.81587 0.942725 0
M  V30 5315 H 486.858 2.36045 3.32786 0
M  V30 5316 H 485.533 3.24993 2.59524 0
M  V30 5317 H 484.11 1.5915 3.37233 0
M  V30 5318 N 486.295 -0.989507 1.22664 0
M  V30 5319 C 487.541 -1.73298 1.06487 0
M  V30 5320 C 487.896 -1.88292 -0.395438 0
M  V30 5321 O 487.189 -1.41748 -1.28911 0
M  V30 5322 C 487.383 -3.13649 1.71345 0
M  V30 5323 C 487.212 -3.12341 3.23532 0
M  V30 5324 C 485.982 -3.18044 3.92653 0
M  V30 5325 C 488.18 -2.96226 4.20422 0
M  V30 5326 N 486.162 -3.06526 5.31898 0
M  V30 5327 C 487.533 -2.92773 5.4652 0
M  V30 5328 C 489.588 -2.80642 4.11271 0
M  V30 5329 C 488.291 -2.75332 6.64519 0
M  V30 5330 C 490.317 -2.64563 5.28924 0
M  V30 5331 C 489.679 -2.618 6.53942 0
M  V30 5332 H 485.778 -0.643643 0.444126 0
M  V30 5333 H 488.362 -1.17489 1.55256 0
M  V30 5334 H 486.533 -3.67694 1.25122 0
M  V30 5335 H 488.265 -3.76577 1.48229 0
M  V30 5336 H 485.02 -3.25861 3.43673 0
M  V30 5337 H 485.444 -3.04067 6.04874 0
M  V30 5338 H 490.086 -2.81574 3.15398 0
M  V30 5339 H 487.804 -2.73145 7.60538 0
M  V30 5340 H 491.39 -2.53482 5.23677 0
M  V30 5341 H 490.27 -2.49511 7.43447 0
M  V30 5342 N 487.773 -1.03688 -1.18687 0
M  V30 5343 C 488.736 -0.629115 -2.20397 0
M  V30 5344 C 489.736 0.311495 -1.57754 0
M  V30 5345 O 490.926 0.0974107 -1.73927 0
M  V30 5346 C 488.058 0.0782231 -3.4081 0
M  V30 5347 H 489.251 -1.52915 -2.57987 0
M  V30 5348 H 486.804 -0.828988 -1.32505 0
M  V30 5349 H 487.539 0.992233 -3.08748 0
M  V30 5350 H 487.324 -0.597776 -3.87517 0
M  V30 5351 H 488.814 0.350156 -4.16129 0
M  V30 5352 N 489.251 1.34841 -0.815825 0
M  V30 5353 C 490.479 2.0273 -0.413294 0
M  V30 5354 C 490.894 1.61459 0.978599 0
M  V30 5355 O 490.251 0.816584 1.63212 0
M  V30 5356 C 490.302 3.58058 -0.497676 0
M  V30 5357 O 490.023 3.97832 -1.8347 0
M  V30 5358 C 491.524 4.4321 -0.0891339 0
M  V30 5359 H 488.744 0.649956 -0.166728 0
M  V30 5360 H 491.288 1.72267 -1.10201 0
M  V30 5361 H 489.443 3.87136 0.142886 0
M  V30 5362 H 489.857 4.92501 -1.80396 0
M  V30 5363 H 491.331 5.5164 -0.199274 0
M  V30 5364 H 491.808 4.28432 0.966571 0
M  V30 5365 H 492.414 4.19446 -0.703214 0
M  V30 5366 N 490.729 0.570148 1.46925 0
M  V30 5367 C 491.677 -0.183181 2.31878 0
M  V30 5368 C 492.671 -0.896721 1.43719 0
M  V30 5369 O 493.877 -0.816536 1.60414 0
M  V30 5370 H 490.252 -0.077944 0.74795 0
M  V30 5371 H 492.223 0.552312 2.93244 0
M  V30 5372 C 490.972 -1.19172 3.2664 0
M  V30 5373 H 490.295 -0.652088 3.94446 0
M  V30 5374 H 491.735 -1.68946 3.88887 0
M  V30 5375 C 490.194 -2.24627 2.51086 0
M  V30 5376 O 490.724 -3.31773 2.26472 0
M  V30 5377 N 488.93 -1.98898 2.11867 0
M  V30 5378 H 488.477 -1.11777 2.32086 0
M  V30 5379 H 488.435 -2.6967 1.61634 0
M  V30 5380 N 492.207 -1.54576 0.307264 0
M  V30 5381 C 493.484 -1.92377 -0.353605 0
M  V30 5382 C 493.864 -1.23517 -1.71192 0
M  V30 5383 O 493.212 -0.373101 -2.25433 0
M  V30 5384 C 493.422 -3.45928 -0.462039 0
M  V30 5385 C 494.77 -4.18278 -0.729975 0
M  V30 5386 O 495.794 -3.51997 -0.545605 0
M  V30 5387 O 494.653 -5.3563 -1.08454 0
M  V30 5388 H 491.747 -0.802747 -0.198812 0
M  V30 5389 H 494.293 -1.65929 0.355783 0
M  V30 5390 H 493.065 -3.88187 0.492592 0
M  V30 5391 H 492.688 -3.78431 -1.21965 0
M  V30 5392 N 493.685 -0.035106 -1.57561 0
M  V30 5393 C 494.913 0.652258 -1.9635 0
M  V30 5394 C 495.328 1.65317 -0.911897 0
M  V30 5395 O 494.685 1.82194 0.105657 0
M  V30 5396 C 494.736 1.35337 -3.35211 0
M  V30 5397 O 494.457 0.392548 -4.36338 0
M  V30 5398 C 495.958 2.13199 -3.88666 0
M  V30 5399 H 493.178 0.179444 -0.646561 0
M  V30 5400 H 495.722 -0.0966459 -2.04271 0
M  V30 5401 H 493.877 2.05362 -3.28489 0
M  V30 5402 H 494.291 0.891097 -5.16875 0
M  V30 5403 H 495.765 2.577 -4.88154 0
M  V30 5404 H 496.242 2.97353 -3.23231 0
M  V30 5405 H 496.848 1.48118 -3.98674 0
M  V30 5406 N 495.163 1.55791 0.238111 0
M  V30 5407 C 496.41 1.78033 0.964907 0
M  V30 5408 C 496.738 0.600984 1.84982 0
M  V30 5409 O 495.993 -0.41536 1.91241 0
M  V30 5410 C 496.292 3.05869 1.84875 0
M  V30 5411 C 495.958 4.36808 1.11846 0
M  V30 5412 C 494.62 4.72388 0.916662 0
M  V30 5413 C 496.972 5.17717 0.60151 0
M  V30 5414 C 494.3 5.86406 0.185756 0
M  V30 5415 C 496.652 6.32494 -0.115972 0
M  V30 5416 C 495.316 6.66688 -0.329168 0
M  V30 5417 H 494.586 0.651469 0.353085 0
M  V30 5418 H 497.233 1.90061 0.234318 0
M  V30 5419 H 495.538 2.88891 2.64668 0
M  V30 5420 H 497.235 3.20278 2.41294 0
M  V30 5421 H 493.825 4.08862 1.28569 0
M  V30 5422 H 498.009 4.90678 0.744932 0
M  V30 5423 H 493.265 6.11399 0.0101886 0
M  V30 5424 H 497.439 6.94425 -0.524127 0
M  V30 5425 H 495.066 7.54884 -0.897474 0
M  V30 5426 N 496.642 -0.504142 1.49319 0
M  V30 5427 C 497.919 -1.26548 1.49147 0
M  V30 5428 C 498.299 -2.09977 0.21744 0
M  V30 5429 O 497.647 -2.14028 -0.800269 0
M  V30 5430 C 497.857 -2.12489 2.76857 0
M  V30 5431 C 499.205 -2.7178 3.26222 0
M  V30 5432 O 500.229 -2.22758 2.77952 0
M  V30 5433 O 499.088 -3.61015 4.10281 0
M  V30 5434 H 496.182 -0.572495 0.596806 0
M  V30 5435 H 498.728 -0.51867 1.61579 0
M  V30 5436 H 497.5 -1.50796 3.61077 0
M  V30 5437 H 497.123 -2.94368 2.6727 0
M  V30 5438 N 498.12 -1.38341 -0.754957 0
M  V30 5439 C 499.366 -1.35678 -1.51536 0
M  V30 5440 C 499.721 0.0533985 -1.92326 0
M  V30 5441 O 499.014 1.01573 -1.6246 0
M  V30 5442 C 499.208 -2.2452 -2.78075 0
M  V30 5443 C 499.037 -3.74035 -2.49655 0
M  V30 5444 C 497.807 -4.43066 -2.42942 0
M  V30 5445 C 500.005 -4.665 -2.16523 0
M  V30 5446 N 497.987 -5.78026 -2.06783 0
M  V30 5447 C 499.358 -5.89962 -1.90644 0
M  V30 5448 C 501.413 -4.54718 -2.02821 0
M  V30 5449 C 500.116 -7.0296 -1.52444 0
M  V30 5450 C 502.142 -5.67618 -1.66023 0
M  V30 5451 C 501.504 -6.90141 -1.41015 0
M  V30 5452 H 497.603 -0.551764 -0.554148 0
M  V30 5453 H 500.187 -1.73716 -0.879258 0
M  V30 5454 H 498.358 -1.88673 -3.39496 0
M  V30 5455 H 500.09 -2.12993 -3.44116 0
M  V30 5456 H 496.845 -3.96264 -2.59367 0
M  V30 5457 H 497.269 -6.49394 -1.91353 0
M  V30 5458 H 501.911 -3.60546 -2.20831 0
M  V30 5459 H 499.629 -7.97051 -1.33174 0
M  V30 5460 H 503.215 -5.6048 -1.56055 0
M  V30 5461 H 502.095 -7.76021 -1.12965 0
M  V30 5462 N 499.598 0.982988 -1.23187 0
M  V30 5463 C 500.875 1.69814 -0.970707 0
M  V30 5464 C 501.255 2.04811 0.511424 0
M  V30 5465 O 500.603 1.73924 1.48198 0
M  V30 5466 C 500.813 2.94143 -1.87831 0
M  V30 5467 C 502.161 3.66712 -2.14026 0
M  V30 5468 O 503.185 3.04171 -1.8536 0
M  V30 5469 O 502.044 4.79258 -2.62629 0
M  V30 5470 H 499.138 0.741659 -0.365884 0
M  V30 5471 H 501.684 1.03844 -1.34218 0
M  V30 5472 H 500.456 2.64858 -2.88038 0
M  V30 5473 H 500.079 3.6785 -1.50905 0
M  V30 5474 N 501.076 1.04316 1.18135 0
M  V30 5475 C 502.039 0.640794 2.2006 0
M  V30 5476 C 503.039 -0.303124 1.57917 0
M  V30 5477 O 504.229 -0.0881855 1.73977 0
M  V30 5478 C 501.361 -0.060148 3.40847 0
M  V30 5479 H 502.554 1.54281 2.57172 0
M  V30 5480 H 500.107 0.836004 1.32063 0
M  V30 5481 H 500.842 -0.975845 3.0927 0
M  V30 5482 H 500.627 0.618319 3.87194 0
M  V30 5483 H 502.117 -0.328082 4.16309 0
M  V30 5484 N 502.554 -1.34406 0.822964 0
M  V30 5485 C 503.784 -2.02214 0.423424 0
M  V30 5486 C 504.192 -1.62124 -0.975322 0
M  V30 5487 O 503.535 -0.822452 -1.6426 0
M  V30 5488 C 503.597 -3.56721 0.446107 0
M  V30 5489 C 503.261 -4.20136 1.79819 0
M  V30 5490 C 504.258 -4.4065 2.75904 0
M  V30 5491 C 501.943 -4.56906 2.08669 0
M  V30 5492 C 503.937 -4.9706 3.99012 0
M  V30 5493 C 501.624 -5.13026 3.32036 0
M  V30 5494 C 502.622 -5.33047 4.27024 0
M  V30 5495 O 502.31 -5.87979 5.48211 0
M  V30 5496 H 502.042 -0.654748 0.168169 0
M  V30 5497 H 504.596 -1.72659 1.11257 0
M  V30 5498 H 502.826 -3.85537 -0.299734 0
M  V30 5499 H 504.515 -4.05845 0.0666114 0
M  V30 5500 H 505.281 -4.12607 2.54912 0
M  V30 5501 H 501.16 -4.40626 1.35535 0
M  V30 5502 H 504.704 -5.12603 4.73164 0
M  V30 5503 H 500.601 -5.40498 3.52891 0
M  V30 5504 H 501.369 -6.06413 5.49732 0
M  V30 5505 N 504.032 -0.577932 -1.46621 0
M  V30 5506 C 505.281 -0.0594281 -2.01612 0
M  V30 5507 C 505.594 1.30663 -1.45556 0
M  V30 5508 O 506.8 1.91621 -1.92337 0
M  V30 5509 C 505.256 -0.0556666 -3.59857 0
M  V30 5510 C 504.864 -1.41975 -4.24908 0
M  V30 5511 C 506.608 0.409143 -4.22524 0
M  V30 5512 C 504.515 -1.37397 -5.75218 0
M  V30 5513 H 503.445 -0.0184469 -0.753774 0
M  V30 5514 H 506.096 -0.728869 -1.68404 0
M  V30 5515 H 504.478 0.679843 -3.90121 0
M  V30 5516 H 505.652 -2.17461 -4.0626 0
M  V30 5517 H 503.967 -1.82419 -3.74316 0
M  V30 5518 H 506.564 0.46211 -5.32699 0
M  V30 5519 H 506.907 1.42565 -3.91128 0
M  V30 5520 H 507.44 -0.272152 -3.96868 0
M  V30 5521 H 504.179 -2.36714 -6.11267 0
M  V30 5522 H 503.699 -0.661239 -5.96144 0
M  V30 5523 H 505.378 -1.08484 -6.3784 0
M  V30 5524 N 505.51 1.54411 -0.315457 0
M  V30 5525 C 506.735 2.05299 0.294496 0
M  V30 5526 C 507.16 1.19052 1.4563 0
M  V30 5527 O 506.518 0.197804 1.80218 0
M  V30 5528 C 506.566 3.5345 0.714549 0
M  V30 5529 O 505.67 3.70175 1.81781 0
M  V30 5530 H 505.011 0.661743 0.0547019 0
M  V30 5531 H 507.541 1.99327 -0.461508 0
M  V30 5532 H 507.551 3.9557 0.999426 0
M  V30 5533 H 506.226 4.1568 -0.135244 0
M  V30 5534 H 504.803 3.3996 1.53236 0
M  V30 5535 N 506.988 0.0434614 1.5754 0
M  V30 5536 C 508.265 -0.671479 1.83713 0
M  V30 5537 C 508.645 -1.89495 0.930315 0
M  V30 5538 O 507.993 -2.28498 -0.0105639 0
M  V30 5539 C 508.203 -1.0361 3.33266 0
M  V30 5540 C 509.551 -1.42167 4.00092 0
M  V30 5541 O 510.575 -1.12866 3.37846 0
M  V30 5542 O 509.434 -1.96817 5.09829 0
M  V30 5543 H 506.528 -0.330726 0.75799 0
M  V30 5544 H 509.074 0.0722373 1.69546 0
M  V30 5545 H 507.846 -0.165938 3.90948 0
M  V30 5546 H 507.469 -1.83751 3.52592 0
M  V30 5547 N 508.466 -1.55915 -0.229846 0
M  V30 5548 C 509.376 -1.94891 -1.30593 0
M  V30 5549 C 510.392 -0.851604 -1.51736 0
M  V30 5550 O 511.568 -1.15447 -1.65027 0
M  V30 5551 C 508.633 -2.25052 -2.63728 0
M  V30 5552 C 507.694 -3.48306 -2.5096 0
M  V30 5553 C 506.927 -3.77019 -3.77747 0
M  V30 5554 O 507.15 -3.07534 -4.80395 0
M  V30 5555 O 506.084 -4.70523 -3.75356 0
M  V30 5556 H 509.91 -2.86581 -1.00525 0
M  V30 5557 H 507.495 -1.43017 -0.432025 0
M  V30 5558 H 509.377 -2.45682 -3.42372 0
M  V30 5559 H 508.052 -1.36538 -2.93495 0
M  V30 5560 H 506.959 -3.32964 -1.70546 0
M  V30 5561 H 508.292 -4.37177 -2.26136 0
M  V30 5562 N 509.944 0.496216 -1.49584 0
M  V30 5563 C 511.192 1.24756 -1.58998 0
M  V30 5564 C 511.513 1.92968 -0.280775 0
M  V30 5565 O 510.783 1.82959 0.700198 0
M  V30 5566 H 509.363 0.463471 -0.585836 0
M  V30 5567 H 512.025 0.574678 -1.86235 0
M  V30 5568 H 511.121 2.00895 -2.38847 0
M  V30 5569 N 511.423 1.38739 0.74761 0
M  V30 5570 C 512.371 1.36573 1.88283 0
M  V30 5571 C 513.365 0.250712 1.67534 0
M  V30 5572 O 514.571 0.420073 1.7503 0
M  V30 5573 H 510.946 0.42619 0.619569 0
M  V30 5574 H 512.917 2.32356 1.87226 0
M  V30 5575 C 511.666 1.21361 3.25832 0
M  V30 5576 H 510.989 2.06424 3.42388 0
M  V30 5577 H 512.429 1.23901 4.05493 0
M  V30 5578 C 510.888 -0.0790099 3.36807 0
M  V30 5579 O 511.418 -1.05385 3.8763 0
M  V30 5580 N 509.624 -0.13785 2.90273 0
M  V30 5581 H 509.171 0.656128 2.49104 0
M  V30 5582 H 509.129 -1.00228 2.97996 0
M  V30 5583 N 512.901 -0.976442 1.23707 0
M  V30 5584 C 514.148 -1.71827 1.07153 0
M  V30 5585 C 514.476 -1.9053 -0.390982 0
M  V30 5586 O 513.731 -1.45779 -1.30564 0
M  V30 5587 C 514.03 -3.11814 1.74662 0
M  V30 5588 C 513.696 -3.12978 3.24585 0
M  V30 5589 C 512.358 -3.13003 3.6549 0
M  V30 5590 C 514.71 -3.07986 4.20469 0
M  V30 5591 C 512.038 -3.05757 5.00729 0
M  V30 5592 C 514.39 -3.02282 5.55705 0
M  V30 5593 C 513.054 -3.00631 5.95968 0
M  V30 5594 H 512.324 -0.628758 0.392102 0
M  V30 5595 H 514.971 -1.14239 1.53693 0
M  V30 5596 H 513.276 -3.72812 1.20492 0
M  V30 5597 H 514.973 -3.67989 1.59328 0
M  V30 5598 H 511.563 -3.13718 2.92026 0
M  V30 5599 H 515.747 -3.07103 3.89874 0
M  V30 5600 H 511.003 -3.02834 5.31132 0
M  V30 5601 H 515.177 -2.97376 6.29714 0
M  V30 5602 H 512.804 -2.94771 7.00724 0
M  V30 5603 N 514.379 -1.04941 -1.1758 0
M  V30 5604 C 515.609 -0.777166 -1.91425 0
M  V30 5605 C 516.017 0.670647 -1.76915 0
M  V30 5606 O 515.36 1.46965 -1.10213 0
M  V30 5607 C 515.422 -1.07495 -3.43052 0
M  V30 5608 C 515.086 -2.51844 -3.81345 0
M  V30 5609 C 516.083 -3.50047 -3.844 0
M  V30 5610 C 513.768 -2.86787 -4.12382 0
M  V30 5611 C 515.762 -4.81239 -4.17957 0
M  V30 5612 C 513.449 -4.18182 -4.45608 0
M  V30 5613 C 514.447 -5.15219 -4.48373 0
M  V30 5614 O 514.135 -6.44258 -4.80819 0
M  V30 5615 H 513.867 -0.282209 -0.614275 0
M  V30 5616 H 516.421 -1.40258 -1.50056 0
M  V30 5617 H 514.651 -0.392437 -3.84704 0
M  V30 5618 H 516.34 -0.78912 -3.98155 0
M  V30 5619 H 517.106 -3.24391 -3.60548 0
M  V30 5620 H 512.985 -2.11922 -4.09402 0
M  V30 5621 H 516.529 -5.56974 -4.2003 0
M  V30 5622 H 512.426 -4.43602 -4.68922 0
M  V30 5623 H 513.194 -6.49041 -4.98686 0
M  V30 5624 N 515.857 1.33968 -0.830081 0
M  V30 5625 C 517.104 1.98063 -0.421566 0
M  V30 5626 C 517.432 1.65787 1.0171 0
M  V30 5627 O 516.687 0.925348 1.72441 0
M  V30 5628 C 516.986 3.52679 -0.57898 0
M  V30 5629 C 516.652 4.04884 -1.98443 0
M  V30 5630 C 515.314 4.18852 -2.36888 0
M  V30 5631 C 517.666 4.32879 -2.90285 0
M  V30 5632 C 514.994 4.58145 -3.66497 0
M  V30 5633 C 517.346 4.7362 -4.19364 0
M  V30 5634 C 516.01 4.85794 -4.57778 0
M  V30 5635 H 515.28 0.724765 -0.154262 0
M  V30 5636 H 517.927 1.59792 -1.05541 0
M  V30 5637 H 516.232 3.91556 0.138219 0
M  V30 5638 H 517.929 4.00261 -0.243317 0
M  V30 5639 H 514.519 3.9448 -1.67581 0
M  V30 5640 H 518.703 4.21619 -2.61823 0
M  V30 5641 H 513.959 4.65762 -3.96075 0
M  V30 5642 H 518.133 4.9424 -4.90612 0
M  V30 5643 H 515.76 5.15998 -5.58256 0
M  V30 5644 N 517.335 0.585699 1.46312 0
M  V30 5645 C 518.265 -0.133556 2.33118 0
M  V30 5646 C 519.246 -0.880707 1.45525 0
M  V30 5647 O 520.431 -0.855579 1.74337 0
M  V30 5648 C 517.561 -1.14585 3.27853 0
M  V30 5649 C 516.515 -0.513341 4.2491 0
M  V30 5650 C 515.841 -1.63231 5.09175 0
M  V30 5651 C 517.141 0.551413 5.19381 0
M  V30 5652 H 518.835 0.59121 2.93505 0
M  V30 5653 H 516.381 0.285761 1.41136 0
M  V30 5654 H 518.334 -1.65741 3.87438 0
M  V30 5655 H 517.058 -1.90093 2.65579 0
M  V30 5656 H 515.717 -0.0228349 3.66593 0
M  V30 5657 H 515.365 -2.37713 4.43285 0
M  V30 5658 H 515.065 -1.21473 5.74907 0
M  V30 5659 H 516.589 -2.14658 5.71624 0
M  V30 5660 H 518.003 0.124804 5.73164 0
M  V30 5661 H 516.4 0.889486 5.93471 0
M  V30 5662 H 517.47 1.43655 4.63132 0
M  V30 5663 N 518.813 -1.54241 0.323641 0
M  V30 5664 C 519.723 -2.28033 -0.551205 0
M  V30 5665 C 520.739 -1.32388 -1.12913 0
M  V30 5666 O 521.915 -1.65403 -1.14908 0
M  V30 5667 C 518.98 -3.02382 -1.69606 0
M  V30 5668 C 518.041 -4.13612 -1.14993 0
M  V30 5669 C 517.274 -4.84407 -2.24022 0
M  V30 5670 O 517.497 -4.54716 -3.44368 0
M  V30 5671 O 516.431 -5.71312 -1.89436 0
M  V30 5672 H 520.257 -3.03662 0.048066 0
M  V30 5673 H 517.842 -1.49133 0.0893289 0
M  V30 5674 H 519.724 -3.48941 -2.36259 0
M  V30 5675 H 518.399 -2.29628 -2.28151 0
M  V30 5676 H 517.306 -3.71402 -0.448484 0
M  V30 5677 H 518.639 -4.8841 -0.609608 0
M  V30 5678 N 520.291 -0.0518155 -1.57515 0
M  V30 5679 C 521.539 0.620595 -1.92336 0
M  V30 5680 C 521.86 1.71345 -0.930907 0
M  V30 5681 O 521.13 1.95885 0.0241341 0
M  V30 5682 H 519.71 0.232226 -0.709986 0
M  V30 5683 H 522.372 -0.104969 -1.94617 0
M  V30 5684 H 521.468 1.05879 -2.93592 0
M  V30 5685 N 521.769 1.56035 0.221574 0
M  V30 5686 C 522.994 1.83476 0.967026 0
M  V30 5687 C 523.419 0.632139 1.7716 0
M  V30 5688 O 522.777 -0.419082 1.7639 0
M  V30 5689 C 522.825 3.08907 1.86034 0
M  V30 5690 O 521.929 2.876 2.95567 0
M  V30 5691 H 521.27 0.604913 0.273817 0
M  V30 5692 H 523.8 2.03247 0.234893 0
M  V30 5693 H 523.81 3.3901 2.27016 0
M  V30 5694 H 522.485 3.96068 1.26898 0
M  V30 5695 H 521.062 2.6873 2.58532 0
M  V30 5696 N 523.247 -0.488276 1.49845 0
M  V30 5697 C 524.195 -1.60917 1.67954 0
M  V30 5698 C 525.189 -1.6038 0.54539 0
M  V30 5699 O 526.395 -1.64736 0.7254 0
M  V30 5700 H 522.77 -0.533658 0.529824 0
M  V30 5701 H 524.741 -1.428 2.62013 0
M  V30 5702 C 523.49 -2.98975 1.77509 0
M  V30 5703 H 522.813 -3.00099 2.6416 0
M  V30 5704 H 524.253 -3.76906 1.9421 0
M  V30 5705 C 522.712 -3.3282 0.522745 0
M  V30 5706 O 523.242 -4.00208 -0.345866 0
M  V30 5707 N 521.448 -2.8808 0.381882 0
M  V30 5708 H 520.995 -2.33415 1.08974 0
M  V30 5709 H 520.953 -3.11091 -0.454929 0
M  V30 5710 N 524.725 -1.39134 -0.740242 0
M  V30 5711 C 526.002 -1.26584 -1.49117 0
M  V30 5712 C 526.382 0.126902 -2.10718 0
M  V30 5713 O 525.73 1.13765 -1.98166 0
M  V30 5714 C 525.94 -2.38619 -2.54681 0
M  V30 5715 C 527.288 -2.77685 -3.21211 0
M  V30 5716 O 528.312 -2.38029 -2.64991 0
M  V30 5717 O 527.171 -3.46115 -4.22926 0
M  V30 5718 H 524.265 -0.495769 -0.661923 0
M  V30 5719 H 526.811 -1.50995 -0.774514 0
M  V30 5720 H 525.583 -3.3175 -2.07504 0
M  V30 5721 H 525.206 -2.15845 -3.33911 0
M  V30 5722 N 526.204 0.969867 -1.24223 0
M  V30 5723 C 527.167 2.04564 -1.03373 0
M  V30 5724 C 528.167 1.60798 0.00819206 0
M  V30 5725 O 529.357 1.72641 -0.232567 0
M  V30 5726 C 526.489 3.36163 -0.566343 0
M  V30 5727 H 527.682 2.24494 -1.98853 0
M  V30 5728 H 525.235 1.1448 -1.06415 0
M  V30 5729 H 525.97 3.21925 0.391751 0
M  V30 5730 H 525.755 3.69273 -1.31834 0
M  V30 5731 H 527.245 4.1526 -0.441435 0
M  V30 5732 N 527.682 1.05563 1.17022 0
M  V30 5733 C 528.612 0.681026 2.23348 0
M  V30 5734 C 529.593 -0.322983 1.67005 0
M  V30 5735 O 530.778 -0.199746 1.9317 0
M  V30 5736 C 527.908 0.0589053 3.4725 0
M  V30 5737 C 526.862 0.988082 4.16438 0
M  V30 5738 C 526.188 0.229646 5.34207 0
M  V30 5739 C 527.488 2.31388 4.68249 0
M  V30 5740 H 529.182 1.56993 2.54938 0
M  V30 5741 H 526.728 0.756302 1.2254 0
M  V30 5742 H 528.681 -0.214982 4.20851 0
M  V30 5743 H 527.405 -0.864968 3.14938 0
M  V30 5744 H 526.064 1.24659 3.44754 0
M  V30 5745 H 525.712 -0.697111 4.98146 0
M  V30 5746 H 525.412 0.848815 5.81437 0
M  V30 5747 H 526.936 -0.0368694 6.10589 0
M  V30 5748 H 528.35 2.09964 5.33468 0
M  V30 5749 H 526.747 2.88736 5.26072 0
M  V30 5750 H 527.817 2.94982 3.84855 0
M  V30 5751 N 529.16 -1.33526 0.837174 0
M  V30 5752 C 530.09 -2.31764 0.284206 0
M  V30 5753 C 531.071 -1.58896 -0.607142 0
M  V30 5754 O 532.256 -1.86798 -0.531047 0
M  V30 5755 C 529.386 -3.43029 -0.542962 0
M  V30 5756 C 528.34 -4.27255 0.252451 0
M  V30 5757 C 527.666 -5.3012 -0.69836 0
M  V30 5758 C 528.966 -5.01229 1.46858 0
M  V30 5759 H 530.66 -2.78262 1.10502 0
M  V30 5760 H 528.206 -1.3378 0.532812 0
M  V30 5761 H 530.159 -4.1078 -0.940096 0
M  V30 5762 H 528.883 -2.95216 -1.39697 0
M  V30 5763 H 527.542 -3.61127 0.631124 0
M  V30 5764 H 527.19 -4.78564 -1.54872 0
M  V30 5765 H 526.89 -5.87353 -0.170274 0
M  V30 5766 H 528.414 -6.00737 -1.09305 0
M  V30 5767 H 529.828 -5.61756 1.14469 0
M  V30 5768 H 528.225 -5.68104 1.93333 0
M  V30 5769 H 529.295 -4.301 2.23924 0
M  V30 5770 N 530.638 -0.59345 -1.46 0
M  V30 5771 C 531.878 -0.0859747 -2.04219 0
M  V30 5772 C 532.242 1.25432 -1.45364 0
M  V30 5773 O 533.443 1.85168 -1.9485 0
M  V30 5774 C 531.714 -0.0324314 -3.57385 0
M  V30 5775 S 533.273 0.415908 -4.36824 0
M  V30 5776 H 530.091 -0.0426872 -0.709717 0
M  V30 5777 H 532.693 -0.788369 -1.78899 0
M  V30 5778 H 531.397 -1.01166 -3.97735 0
M  V30 5779 H 530.928 0.6924 -3.87259 0
M  V30 5780 H 532.943 1.66844 -4.67309 0
M  V30 5781 N 532.116 1.54067 -0.331816 0
M  V30 5782 C 533.364 2.00319 0.267739 0
M  V30 5783 C 533.685 1.22148 1.52003 0
M  V30 5784 O 532.955 0.325494 1.93177 0
M  V30 5785 H 531.535 0.740014 0.101922 0
M  V30 5786 H 534.197 1.89628 -0.450267 0
M  V30 5787 H 533.293 3.07765 0.518385 0
M  V30 5788 N 533.594 0.0601682 1.57485 0
M  V30 5789 C 534.542 -0.928899 2.13247 0
M  V30 5790 C 535.536 -1.31616 1.06647 0
M  V30 5791 O 536.742 -1.29476 1.25043 0
M  V30 5792 H 533.117 -0.317455 0.681708 0
M  V30 5793 H 535.088 -0.433566 2.95233 0
M  V30 5794 C 533.837 -2.19121 2.69965 0
M  V30 5795 H 533.16 -1.90204 3.51657 0
M  V30 5796 H 534.6 -2.86465 3.12592 0
M  V30 5797 C 533.059 -2.94195 1.64168 0
M  V30 5798 O 533.589 -3.87468 1.05978 0
M  V30 5799 N 531.795 -2.57089 1.35476 0
M  V30 5800 H 531.342 -1.81314 1.82984 0
M  V30 5801 H 531.3 -3.07624 0.649196 0
M  V30 5802 N 535.072 -1.5615 -0.213296 0
M  V30 5803 C 536.297 -1.83986 -0.957282 0
M  V30 5804 C 536.722 -0.641526 -1.76822 0
M  V30 5805 O 536.08 0.409722 -1.7661 0
M  V30 5806 C 536.128 -3.09889 -1.84393 0
M  V30 5807 O 535.232 -2.89163 -2.94038 0
M  V30 5808 H 534.573 -0.606357 -0.270605 0
M  V30 5809 H 537.103 -2.03369 -0.224111 0
M  V30 5810 H 537.113 -3.40209 -2.25215 0
M  V30 5811 H 535.788 -3.96735 -1.24795 0
M  V30 5812 H 534.365 -2.70097 -2.57103 0
M  V30 5813 N 536.55 0.480323 -1.50102 0
M  V30 5814 C 537.775 1.26126 -1.64642 0
M  V30 5815 C 538.2 1.85257 -0.325823 0
M  V30 5816 O 537.558 1.66854 0.709194 0
M  V30 5817 C 537.606 2.35243 -2.73301 0
M  V30 5818 O 536.71 3.39646 -2.33911 0
M  V30 5819 H 536.051 0.371463 -0.550374 0
M  V30 5820 H 538.581 0.572696 -1.96421 0
M  V30 5821 H 538.591 2.80695 -2.96098 0
M  V30 5822 H 537.266 1.91574 -3.6915 0
M  V30 5823 H 535.843 2.99969 -2.21525 0
M  V30 5824 N 538.028 1.39524 0.732853 0
M  V30 5825 C 539.305 1.27373 1.48444 0
M  V30 5826 C 539.685 -0.115725 2.10783 0
M  V30 5827 O 539.033 -1.12713 1.98766 0
M  V30 5828 C 539.243 2.39966 2.53412 0
M  V30 5829 C 540.591 2.79384 3.19733 0
M  V30 5830 O 541.615 2.39431 2.63725 0
M  V30 5831 O 540.474 3.48353 4.21085 0
M  V30 5832 H 537.568 0.499272 0.659285 0
M  V30 5833 H 540.114 1.51403 0.766496 0
M  V30 5834 H 538.886 3.32845 2.05742 0
M  V30 5835 H 538.509 2.17612 3.32762 0
M  V30 5836 N 539.506 -0.963266 1.24736 0
M  V30 5837 C 540.469 -2.04013 1.04457 0
M  V30 5838 C 541.469 -1.608 0.000335555 0
M  V30 5839 O 542.659 -1.72515 0.241719 0
M  V30 5840 C 539.791 -3.35858 0.584162 0
M  V30 5841 H 540.984 -2.23436 2.00041 0
M  V30 5842 H 538.537 -1.13914 1.07021 0
M  V30 5843 H 539.272 -3.22128 -0.374673 0
M  V30 5844 H 539.057 -3.68568 1.3379 0
M  V30 5845 H 540.547 -4.1502 0.463451 0
M  V30 5846 N 540.985 -1.06182 -1.16461 0
M  V30 5847 C 542.233 -0.776326 -1.86595 0
M  V30 5848 C 542.554 0.69921 -1.82033 0
M  V30 5849 O 541.824 1.50579 -1.2531 0
M  V30 5850 H 540.404 -0.284184 -0.690832 0
M  V30 5851 H 543.066 -1.34308 -1.41235 0
M  V30 5852 H 542.162 -1.10022 -2.92064 0
M  V30 5853 N 542.463 1.3308 -0.844243 0
M  V30 5854 C 543.413 2.26589 -0.253289 0
M  V30 5855 C 544.397 1.49501 0.594836 0
M  V30 5856 O 545.589 1.71291 0.445924 0
M  V30 5857 C 542.718 3.38599 0.566176 0
M  V30 5858 C 541.804 4.23081 -0.293756 0
M  V30 5859 N 542.195 4.86751 -1.37505 0
M  V30 5860 C 540.493 4.45925 -0.0817086 0
M  V30 5861 C 541.194 5.49684 -1.90323 0
M  V30 5862 N 540.17 5.30101 -1.20391 0
M  V30 5863 H 543.972 2.73334 -1.08009 0
M  V30 5864 H 541.486 1.47048 -0.689258 0
M  V30 5865 H 543.483 4.04584 1.00587 0
M  V30 5866 H 542.143 2.93401 1.39089 0
M  V30 5867 H 543.154 4.87151 -1.75796 0
M  V30 5868 H 539.831 4.11434 0.709129 0
M  V30 5869 H 541.221 6.10363 -2.80902 0
M  V30 5870 N 543.941 0.601185 1.45683 0
M  V30 5871 C 545.181 0.0968037 2.04171 0
M  V30 5872 C 545.545 -1.2466 1.46027 0
M  V30 5873 O 546.746 -1.84132 1.95829 0
M  V30 5874 C 545.017 0.051384 3.57363 0
M  V30 5875 S 546.576 -0.392737 4.37039 0
M  V30 5876 H 543.394 0.0464504 0.709481 0
M  V30 5877 H 545.996 0.797846 1.78479 0
M  V30 5878 H 544.7 1.03274 3.97193 0
M  V30 5879 H 544.231 -0.671853 3.87621 0
M  V30 5880 H 546.246 -1.64364 4.68187 0
M  V30 5881 N 545.419 -1.53889 0.339982 0
M  V30 5882 C 546.83 -1.86139 -0.144671 0
M  V30 5883 C 547.181 -1.2613 -1.50285 0
M  V30 5884 O 546.306 -0.573515 -2.08662 0
M  V30 5885 C 546.901 -3.37728 -0.269285 0
M  V30 5886 C 545.46 -3.69868 -0.698168 0
M  V30 5887 C 544.607 -2.76777 0.170249 0
M  V30 5888 H 547.558 -1.48503 0.559704 0
M  V30 5889 H 547.579 -3.64331 -1.0974 0
M  V30 5890 H 547.091 -3.81375 0.719366 0
M  V30 5891 H 545.192 -3.31764 -1.69597 0
M  V30 5892 H 545.305 -4.76582 -0.490533 0
M  V30 5893 H 543.669 -2.52188 -0.356844 0
M  V30 5894 H 544.452 -3.23253 1.15597 0
M  V30 5895 N 546.897 -0.0685191 -1.57451 0
M  V30 5896 C 547.807 0.914677 -2.16034 0
M  V30 5897 C 548.823 1.32938 -1.12265 0
M  V30 5898 O 549.999 1.40275 -1.44516 0
M  V30 5899 C 547.064 2.16519 -2.70777 0
M  V30 5900 C 546.125 1.80721 -3.89408 0
M  V30 5901 C 545.358 2.9981 -4.41531 0
M  V30 5902 O 545.581 4.13727 -3.92666 0
M  V30 5903 O 544.515 2.79817 -5.32903 0
M  V30 5904 H 548.341 0.446364 -3.00402 0
M  V30 5905 H 545.926 0.154367 -1.486 0
M  V30 5906 H 547.808 2.89856 -3.05878 0
M  V30 5907 H 546.483 2.62454 -1.89471 0
M  V30 5908 H 545.39 1.04646 -3.59166 0
M  V30 5909 H 546.723 1.39571 -4.71997 0
M  V30 5910 N 548.375 1.56261 0.205012 0
M  V30 5911 C 549.623 1.79684 0.925096 0
M  V30 5912 C 549.944 0.63989 1.84202 0
M  V30 5913 O 549.214 -0.342345 1.92885 0
M  V30 5914 H 547.794 0.662774 0.344587 0
M  V30 5915 H 550.456 1.93734 0.212899 0
M  V30 5916 H 549.552 2.72467 1.52211 0
M  V30 5917 N 549.853 -0.472356 1.50355 0
M  V30 5918 C 551.083 -1.24603 1.64796 0
M  V30 5919 C 551.491 -1.86297 0.330156 0
M  V30 5920 O 550.834 -1.69934 -0.697728 0
M  V30 5921 C 550.896 -2.39578 2.68035 0
M  V30 5922 C 550.56 -1.98531 4.11624 0
M  V30 5923 C 551.557 -1.50856 4.97532 0
M  V30 5924 C 549.242 -2.0729 4.57532 0
M  V30 5925 C 551.236 -1.12481 6.27397 0
M  V30 5926 C 548.923 -1.68527 5.87403 0
M  V30 5927 C 549.921 -1.212 6.7216 0
M  V30 5928 O 549.609 -0.829728 7.99607 0
M  V30 5929 H 549.341 -0.383035 0.55701 0
M  V30 5930 H 551.895 -0.570392 1.97321 0
M  V30 5931 H 550.125 -3.10309 2.30749 0
M  V30 5932 H 551.814 -3.01544 2.71709 0
M  V30 5933 H 552.58 -1.43511 4.63281 0
M  V30 5934 H 548.459 -2.43076 3.91708 0
M  V30 5935 H 552.003 -0.754698 6.93506 0
M  V30 5936 H 547.9 -1.7553 6.21176 0
M  V30 5937 H 548.668 -0.958689 8.12866 0
M  V30 5938 N 551.331 -1.39911 -0.725443 0
M  V30 5939 C 552.241 -1.41688 -1.8698 0
M  V30 5940 C 553.257 -0.310579 -1.71206 0
M  V30 5941 O 554.433 -0.55359 -1.93642 0
M  V30 5942 C 551.498 -1.26811 -3.22676 0
M  V30 5943 C 550.559 -2.47497 -3.50776 0
M  V30 5944 C 549.792 -2.3332 -4.79997 0
M  V30 5945 O 550.015 -1.34175 -5.54394 0
M  V30 5946 O 548.949 -3.22498 -5.08211 0
M  V30 5947 H 552.775 -2.38171 -1.88436 0
M  V30 5948 H 550.36 -1.21128 -0.874548 0
M  V30 5949 H 552.242 -1.20684 -4.03749 0
M  V30 5950 H 550.917 -0.334289 -3.21969 0
M  V30 5951 H 549.824 -2.59201 -2.69751 0
M  V30 5952 H 551.157 -3.39606 -3.5627 0
M  V30 5953 N 552.809 0.956637 -1.25245 0
M  V30 5954 C 554.049 1.71585 -1.11076 0
M  V30 5955 C 554.413 1.88916 0.34277 0
M  V30 5956 O 555.614 2.61875 0.606227 0
M  V30 5957 C 553.885 3.06267 -1.84215 0
M  V30 5958 S 555.444 3.97469 -1.85914 0
M  V30 5959 H 552.262 0.589803 -0.397055 0
M  V30 5960 H 554.864 1.14114 -1.58739 0
M  V30 5961 H 553.568 2.91322 -2.89067 0
M  V30 5962 H 553.099 3.688 -1.36931 0
M  V30 5963 H 555.114 4.87316 -0.93474 0
M  V30 5964 N 554.287 1.06798 1.15896 0
M  V30 5965 C 555.536 0.782796 1.8589 0
M  V30 5966 C 555.849 -0.693498 1.82893 0
M  V30 5967 O 557.055 -1.09325 2.48516 0
M  V30 5968 C 555.511 1.3502 3.33613 0
M  V30 5969 C 555.119 2.8571 3.45071 0
M  V30 5970 C 556.863 1.14278 4.08829 0
M  V30 5971 C 554.77 3.35669 4.86909 0
M  V30 5972 H 553.7 0.289149 0.696354 0
M  V30 5973 H 556.351 1.28734 1.30766 0
M  V30 5974 H 554.733 0.773407 3.88374 0
M  V30 5975 H 555.907 3.49385 3.00445 0
M  V30 5976 H 554.222 3.05178 2.83294 0
M  V30 5977 H 556.819 1.49087 5.13495 0
M  V30 5978 H 557.162 0.0814575 4.1622 0
M  V30 5979 H 557.695 1.68563 3.60321 0
M  V30 5980 H 554.434 4.41302 4.84698 0
M  V30 5981 H 553.954 2.76745 5.32139 0
M  V30 5982 H 555.633 3.31296 5.55745 0
M  V30 5983 N 555.766 -1.3263 0.851289 0
M  V30 5984 C 556.713 -2.28952 0.291469 0
M  V30 5985 C 557.683 -1.54897 -0.599676 0
M  V30 5986 O 558.868 -1.83137 -0.535305 0
M  V30 5987 C 556.008 -3.41206 -0.516992 0
M  V30 5988 C 555.121 -4.30148 0.399566 0
M  V30 5989 C 554.256 -5.29527 -0.4212 0
M  V30 5990 C 553.295 -6.10112 0.492969 0
M  V30 5991 N 552.432 -7.01499 -0.290414 0
M  V30 5992 H 557.272 -2.76228 1.11813 0
M  V30 5993 H 554.809 -1.35907 0.562826 0
M  V30 5994 H 556.767 -4.05005 -1.00132 0
M  V30 5995 H 555.397 -2.9509 -1.30851 0
M  V30 5996 H 554.449 -3.66959 1.00227 0
M  V30 5997 H 555.761 -4.8649 1.1013 0
M  V30 5998 H 554.915 -5.98914 -0.968832 0
M  V30 5999 H 553.654 -4.73794 -1.15632 0
M  V30 6000 H 552.659 -5.39632 1.05251 0
M  V30 6001 H 553.884 -6.6793 1.22664 0
M  V30 6002 H 551.83 -6.48199 -1.00868 0
M  V30 6003 H 551.747 -7.55178 0.352354 0
M  V30 6004 H 553.015 -7.75176 -0.819882 0
M  V30 6005 N 557.244 -0.608902 -1.45362 0
M  V30 6006 C 558.472 -0.111013 -2.06602 0
M  V30 6007 C 558.887 1.20516 -1.45332 0
M  V30 6008 O 558.244 1.73437 -0.567978 0
M  V30 6009 C 558.295 0.033688 -3.61484 0
M  V30 6010 O 558.016 -1.23041 -4.20467 0
M  V30 6011 C 559.517 0.562882 -4.39712 0
M  V30 6012 H 556.737 -0.0694453 -0.667397 0
M  V30 6013 H 559.281 -0.837008 -1.86586 0
M  V30 6014 H 557.436 0.710016 -3.80838 0
M  V30 6015 H 557.85 -1.06094 -5.13658 0
M  V30 6016 H 559.324 0.613213 -5.48583 0
M  V30 6017 H 559.801 1.58543 -4.09586 0
M  V30 6018 H 560.407 -0.0794454 -4.25226 0
M  V30 6019 N 558.722 1.53707 -0.348139 0
M  V30 6020 C 559.97 2.00591 0.246478 0
M  V30 6021 C 560.291 1.23753 1.50699 0
M  V30 6022 O 559.561 0.345964 1.92821 0
M  V30 6023 H 558.141 0.741053 0.0940679 0
M  V30 6024 H 560.803 1.89139 -0.470354 0
M  V30 6025 H 559.899 3.08297 0.485714 0
M  V30 6026 N 560.2 0.0768682 1.57412 0
M  V30 6027 C 561.616 -0.279772 1.57129 0
M  V30 6028 C 561.816 -1.69688 1.08666 0
M  V30 6029 O 560.872 -2.40953 0.754843 0
M  V30 6030 C 562.185 -0.0848055 3.0058 0
M  V30 6031 C 563.733 -0.153954 3.12621 0
M  V30 6032 C 564.208 0.0127946 4.57998 0
M  V30 6033 N 565.699 -0.0426435 4.6318 0
M  V30 6034 C 566.434 0.0618892 5.73367 0
M  V30 6035 N 565.93 0.220229 6.9245 0
M  V30 6036 N 567.723 0.00446072 5.621 0
M  V30 6037 H 559.874 1.00297 1.87228 0
M  V30 6038 H 562.137 0.391565 0.863354 0
M  V30 6039 H 561.843 0.89325 3.40168 0
M  V30 6040 H 561.717 -0.834961 3.67843 0
M  V30 6041 H 564.104 -1.1225 2.72917 0
M  V30 6042 H 564.185 0.627389 2.47987 0
M  V30 6043 H 563.829 0.978128 4.98392 0
M  V30 6044 H 563.759 -0.788016 5.20671 0
M  V30 6045 H 566.25 -0.163226 3.77547 0
M  V30 6046 H 566.563 0.291999 7.72248 0
M  V30 6047 H 564.908 0.255658 6.9453 0
M  V30 6048 H 568.099 -0.117979 4.67951 0
M  V30 6049 H 568.272 0.0893796 6.47938 0
M  V30 6050 N 561.678 -1.56367 -0.196722 0
M  V30 6051 C 562.626 -1.95304 -1.2633 0
M  V30 6052 C 563.62 -0.838252 -1.47206 0
M  V30 6053 O 564.826 -1.02325 -1.48087 0
M  V30 6054 H 561.201 -0.621013 -0.424083 0
M  V30 6055 H 563.172 -2.84254 -0.907879 0
M  V30 6056 C 561.921 -2.3074 -2.60104 0
M  V30 6057 H 561.244 -3.16047 -2.44856 0
M  V30 6058 H 562.684 -2.61849 -3.33484 0
M  V30 6059 C 561.143 -1.14143 -3.16975 0
M  V30 6060 O 561.673 -0.415602 -3.99544 0
M  V30 6061 N 559.879 -0.91867 -2.75697 0
M  V30 6062 H 559.426 -1.51065 -2.08656 0
M  V30 6063 H 559.384 -0.140321 -3.14087 0
M  V30 6064 N 563.156 0.464375 -1.50603 0
M  V30 6065 C 564.567 1.04507 -1.5471 0
M  V30 6066 C 564.918 1.9297 -0.354542 0
M  V30 6067 O 564.043 2.09763 0.531812 0
M  V30 6068 C 564.638 1.90207 -2.80369 0
M  V30 6069 C 563.197 2.43373 -2.87135 0
M  V30 6070 C 562.344 1.21886 -2.49076 0
M  V30 6071 H 565.295 0.246716 -1.56771 0
M  V30 6072 H 565.316 2.75353 -2.62604 0
M  V30 6073 H 564.828 1.25796 -3.67147 0
M  V30 6074 H 562.929 3.11318 -2.04724 0
M  V30 6075 H 563.042 2.7802 -3.90181 0
M  V30 6076 H 561.406 1.55575 -2.01664 0
M  V30 6077 H 562.189 0.591268 -3.3817 0
M  V30 6078 N 564.634 1.40294 0.718013 0
M  V30 6079 C 565.582 1.40536 1.85344 0
M  V30 6080 C 566.576 0.286192 1.66965 0
M  V30 6081 O 567.782 0.457105 1.74099 0
M  V30 6082 H 564.157 0.439236 0.61039 0
M  V30 6083 H 566.128 2.36275 1.82255 0
M  V30 6084 C 564.877 1.28245 3.23185 0
M  V30 6085 H 564.2 2.1364 3.37932 0
M  V30 6086 H 565.64 1.32474 4.02774 0
M  V30 6087 C 564.099 -0.0075503 3.36899 0
M  V30 6088 O 564.629 -0.971391 3.89778 0
M  V30 6089 N 562.835 -0.0762479 2.905 0
M  V30 6090 H 562.382 0.708819 2.47656 0
M  V30 6091 H 562.34 -0.938846 3.00055 0
M  V30 6092 N 566.112 -0.949982 1.2575 0
M  V30 6093 C 567.342 -1.72721 1.13363 0
M  V30 6094 C 567.75 -1.86562 -0.314842 0
M  V30 6095 O 567.093 -1.36621 -1.22803 0
M  V30 6096 C 567.155 -3.15695 1.7198 0
M  V30 6097 C 566.819 -3.25268 3.21014 0
M  V30 6098 C 567.816 -3.09222 4.17945 0
M  V30 6099 C 565.501 -3.4894 3.61312 0
M  V30 6100 C 567.495 -3.16701 5.53154 0
M  V30 6101 C 565.182 -3.56055 4.96657 0
M  V30 6102 C 566.18 -3.3995 5.92387 0
M  V30 6103 O 565.868 -3.46757 7.25269 0
M  V30 6104 H 565.6 -0.547888 0.395973 0
M  V30 6105 H 568.154 -1.20009 1.66694 0
M  V30 6106 H 566.384 -3.69791 1.13101 0
M  V30 6107 H 568.073 -3.75295 1.54624 0
M  V30 6108 H 568.839 -2.90798 3.88151 0
M  V30 6109 H 564.718 -3.60534 2.87291 0
M  V30 6110 H 568.262 -3.04048 6.27854 0
M  V30 6111 H 564.159 -3.73997 5.26115 0
M  V30 6112 H 564.927 -3.63358 7.33426 0
M  V30 6113 N 567.59 -1.07411 -1.15328 0
M  V30 6114 C 568.838 -0.796073 -1.85761 0
M  V30 6115 C 569.159 0.679864 -1.82764 0
M  V30 6116 O 568.429 1.49242 -1.269 0
M  V30 6117 H 567.009 -0.291495 -0.687779 0
M  V30 6118 H 569.671 -1.35799 -1.39802 0
M  V30 6119 H 568.767 -1.13114 -2.90881 0
M  V30 6120 N 569.068 1.32177 -0.85831 0
M  V30 6121 C 570.298 2.01021 -0.476889 0
M  V30 6122 C 570.706 1.64653 0.931995 0
M  V30 6123 O 570.049 0.865713 1.62022 0
M  V30 6124 C 570.111 3.55413 -0.540528 0
M  V30 6125 C 569.775 4.1522 -1.90895 0
M  V30 6126 C 570.772 4.3318 -2.87491 0
M  V30 6127 C 568.457 4.51212 -2.20709 0
M  V30 6128 C 570.451 4.86306 -4.1205 0
M  V30 6129 C 568.138 5.04042 -3.45521 0
M  V30 6130 C 569.136 5.21538 -4.41007 0
M  V30 6131 O 568.824 5.73238 -5.63608 0
M  V30 6132 H 568.556 0.650059 -0.18547 0
M  V30 6133 H 571.11 1.69648 -1.15796 0
M  V30 6134 H 569.34 3.86196 0.19741 0
M  V30 6135 H 571.029 4.05526 -0.174191 0
M  V30 6136 H 571.795 4.05704 -2.65762 0
M  V30 6137 H 567.674 4.36878 -1.4717 0
M  V30 6138 H 571.218 4.99877 -4.86589 0
M  V30 6139 H 567.115 5.30952 -3.67098 0
M  V30 6140 H 567.883 5.91625 -5.65617 0
M  V30 6141 N 570.547 0.616602 1.45037 0
M  V30 6142 C 571.775 0.121968 2.0654 0
M  V30 6143 C 572.19 -1.19743 1.45969 0
M  V30 6144 O 571.547 -1.73133 0.577168 0
M  V30 6145 C 571.598 -0.0145171 3.61497 0
M  V30 6146 O 571.319 1.25269 4.19809 0
M  V30 6147 C 572.82 -0.539555 4.40004 0
M  V30 6148 H 570.04 0.0729837 0.667019 0
M  V30 6149 H 572.584 0.846891 1.8614 0
M  V30 6150 H 570.739 -0.689809 3.81209 0
M  V30 6151 H 571.153 1.08816 5.13088 0
M  V30 6152 H 572.627 -0.584112 5.48901 0
M  V30 6153 H 573.104 -1.56368 4.10421 0
M  V30 6154 H 573.71 0.101995 4.25178 0
M  V30 6155 N 572.025 -1.5352 0.356285 0
M  V30 6156 C 573.25 -2.06007 -0.239961 0
M  V30 6157 C 573.675 -1.22872 -1.42422 0
M  V30 6158 O 573.033 -0.245516 -1.7963 0
M  V30 6159 C 573.081 -3.5522 -0.620587 0
M  V30 6160 O 572.185 -3.74864 -1.71902 0
M  V30 6161 H 571.526 -0.662961 -0.0371377 0
M  V30 6162 H 574.056 -1.98033 0.514194 0
M  V30 6163 H 574.066 -3.98081 -0.894197 0
M  V30 6164 H 572.741 -4.15175 0.245407 0
M  V30 6165 H 571.318 -3.43904 -1.44169 0
M  V30 6166 N 573.503 -0.0852151 -1.57369 0
M  V30 6167 C 574.733 0.588605 -1.98038 0
M  V30 6168 C 575.141 1.62869 -0.962817 0
M  V30 6169 O 574.484 1.83611 0.057134 0
M  V30 6170 C 574.546 1.30303 -3.35054 0
M  V30 6171 C 574.21 0.414855 -4.55113 0
M  V30 6172 C 575.207 -0.333011 -5.18832 0
M  V30 6173 C 572.892 0.335804 -5.01176 0
M  V30 6174 C 574.886 -1.14801 -6.26976 0
M  V30 6175 C 572.573 -0.482857 -6.09189 0
M  V30 6176 C 573.571 -1.22342 -6.71953 0
M  V30 6177 O 573.259 -2.02855 -7.77885 0
M  V30 6178 H 572.991 0.163249 -0.655992 0
M  V30 6179 H 575.545 -0.1582 -2.0479 0
M  V30 6180 H 573.775 2.0962 -3.24956 0
M  V30 6181 H 575.464 1.87041 -3.60237 0
M  V30 6182 H 576.23 -0.281611 -4.84182 0
M  V30 6183 H 572.109 0.901869 -4.52092 0
M  V30 6184 H 575.653 -1.72654 -6.75897 0
M  V30 6185 H 571.55 -0.535773 -6.43273 0
M  V30 6186 H 572.318 -1.95432 -7.94826 0
M  V30 6187 N 574.981 1.5647 0.188427 0
M  V30 6188 C 576.258 1.71857 0.934058 0
M  V30 6189 C 576.638 0.641867 2.01105 0
M  V30 6190 O 575.986 -0.346098 2.25864 0
M  V30 6191 C 576.196 3.14431 1.5144 0
M  V30 6192 C 577.544 3.74869 1.99396 0
M  V30 6193 O 578.568 3.17601 1.61269 0
M  V30 6194 O 577.427 4.75387 2.69573 0
M  V30 6195 H 574.521 0.701186 0.438483 0
M  V30 6196 H 577.067 1.68768 0.177599 0
M  V30 6197 H 575.839 3.8427 0.738416 0
M  V30 6198 H 575.462 3.21775 2.33552 0
M  V30 6199 N 576.459 -0.456382 1.50847 0
M  V30 6200 C 577.687 -1.23026 1.66349 0
M  V30 6201 C 578.102 -1.85473 0.352868 0
M  V30 6202 O 577.459 -1.69885 -0.666739 0
M  V30 6203 C 577.51 -2.32827 2.76539 0
M  V30 6204 O 577.231 -1.72938 4.02522 0
M  V30 6205 C 578.732 -3.23448 3.03144 0
M  V30 6206 H 575.952 -0.371527 0.558756 0
M  V30 6207 H 578.496 -0.543082 1.97157 0
M  V30 6208 H 576.651 -2.97294 2.48384 0
M  V30 6209 H 577.065 -2.45357 4.63573 0
M  V30 6210 H 578.539 -3.96669 3.83872 0
M  V30 6211 H 579.016 -3.83094 2.14793 0
M  V30 6212 H 579.622 -2.64702 3.32886 0
M  V30 6213 N 577.937 -1.40673 -0.710563 0
M  V30 6214 C 579.184 -1.39222 -1.47049 0
M  V30 6215 C 579.512 0.0037691 -1.945 0
M  V30 6216 O 578.767 0.989224 -1.68857 0
M  V30 6217 C 579.066 -2.33253 -2.70791 0
M  V30 6218 C 578.732 -3.80406 -2.42079 0
M  V30 6219 C 577.394 -4.20496 -2.33959 0
M  V30 6220 C 579.746 -4.73375 -2.18094 0
M  V30 6221 C 577.074 -5.51584 -1.99929 0
M  V30 6222 C 579.426 -6.04768 -1.85576 0
M  V30 6223 C 578.09 -6.43895 -1.75941 0
M  V30 6224 H 577.36 -0.509449 -0.538092 0
M  V30 6225 H 580.007 -1.73363 -0.81348 0
M  V30 6226 H 578.312 -1.92314 -3.41354 0
M  V30 6227 H 580.009 -2.29412 -3.28894 0
M  V30 6228 H 576.599 -3.48645 -2.49288 0
M  V30 6229 H 580.783 -4.43217 -2.23321 0
M  V30 6230 H 576.039 -5.80797 -1.91011 0
M  V30 6231 H 580.213 -6.76318 -1.66033 0
M  V30 6232 H 577.84 -7.45387 -1.4934 0
M  V30 6233 N 579.415 0.9433 -1.26252 0
M  V30 6234 C 580.64 1.72898 -1.14547 0
M  V30 6235 C 581.065 1.85761 0.295743 0
M  V30 6236 O 580.423 1.3463 1.21427 0
M  V30 6237 C 580.471 3.11471 -1.8171 0
M  V30 6238 O 579.575 3.97336 -1.10445 0
M  V30 6239 H 578.916 0.530555 -0.399259 0
M  V30 6240 H 581.446 1.18159 -1.67032 0
M  V30 6241 H 581.456 3.61872 -1.88449 0
M  V30 6242 H 580.131 3.01425 -2.86558 0
M  V30 6243 H 578.708 3.55788 -1.11666 0
M  V30 6244 N 580.893 1.08022 1.14757 0
M  V30 6245 C 582.139 0.818552 1.86202 0
M  V30 6246 C 582.494 -0.648563 1.81139 0
M  V30 6247 O 581.787 -1.4704 1.22841 0
M  V30 6248 C 581.981 1.26964 3.34088 0
M  V30 6249 C 581.81 2.77907 3.5355 0
M  V30 6250 C 580.58 3.45604 3.68627 0
M  V30 6251 C 582.778 3.7609 3.50801 0
M  V30 6252 N 580.76 4.85119 3.76209 0
M  V30 6253 C 582.131 5.0148 3.64579 0
M  V30 6254 C 584.186 3.6915 3.34115 0
M  V30 6255 C 582.889 6.20755 3.63395 0
M  V30 6256 C 584.915 4.87896 3.34233 0
M  V30 6257 C 584.277 6.12123 3.48547 0
M  V30 6258 H 580.376 0.352186 0.698204 0
M  V30 6259 H 582.96 1.37781 1.37567 0
M  V30 6260 H 581.131 0.738008 3.81324 0
M  V30 6261 H 582.863 0.954806 3.93275 0
M  V30 6262 H 579.618 2.96016 3.69691 0
M  V30 6263 H 580.042 5.57748 3.83726 0
M  V30 6264 H 584.684 2.74045 3.21961 0
M  V30 6265 H 582.402 7.16175 3.74326 0
M  V30 6266 H 585.988 4.8421 3.2254 0
M  V30 6267 H 584.868 7.02468 3.48581 0
M  V30 6268 N 582.371 -1.3172 0.865308 0
M  V30 6269 C 583.334 -2.26918 0.322627 0
M  V30 6270 C 584.334 -1.52031 -0.523751 0
M  V30 6271 O 585.524 -1.70973 -0.333727 0
M  V30 6272 C 582.656 -3.36558 -0.542338 0
M  V30 6273 H 583.849 -2.76432 1.16298 0
M  V30 6274 H 581.402 -1.42573 0.640512 0
M  V30 6275 H 582.137 -2.92329 -1.40407 0
M  V30 6276 H 581.922 -3.92048 0.0636395 0
M  V30 6277 H 583.412 -4.07465 -0.91446 0
M  V30 6278 N 583.85 -0.624285 -1.44708 0
M  V30 6279 C 585.096 -0.126051 -2.02107 0
M  V30 6280 C 585.425 1.2496 -1.49048 0
M  V30 6281 O 584.68 1.84163 -0.662005 0
M  V30 6282 C 584.979 -0.0546353 -3.57358 0
M  V30 6283 C 584.644 -1.36815 -4.29642 0
M  V30 6284 C 583.307 -1.72792 -4.49106 0
M  V30 6285 C 585.659 -2.23549 -4.70824 0
M  V30 6286 C 582.986 -2.95222 -5.07012 0
M  V30 6287 C 585.339 -3.45243 -5.30085 0
M  V30 6288 C 584.003 -3.81452 -5.47769 0
M  V30 6289 H 583.273 -0.0461252 -0.739563 0
M  V30 6290 H 585.92 -0.809236 -1.73562 0
M  V30 6291 H 584.225 0.711891 -3.85278 0
M  V30 6292 H 585.922 0.347282 -3.99493 0
M  V30 6293 H 582.512 -1.07817 -4.14817 0
M  V30 6294 H 586.696 -1.9705 -4.55505 0
M  V30 6295 H 581.952 -3.23361 -5.18891 0
M  V30 6296 H 586.125 -4.12689 -5.60946 0
M  V30 6297 H 583.753 -4.76403 -5.92405 0
M  V30 6298 N 585.328 1.53329 -0.364422 0
M  V30 6299 C 586.258 2.28627 0.474543 0
M  V30 6300 C 587.239 1.31009 1.08492 0
M  V30 6301 O 588.424 1.59878 1.10239 0
M  V30 6302 C 585.554 3.07465 1.61501 0
M  V30 6303 C 584.508 4.1276 1.13194 0
M  V30 6304 C 583.834 4.79674 2.36255 0
M  V30 6305 C 585.134 5.21847 0.217507 0
M  V30 6306 H 586.828 2.99005 -0.153656 0
M  V30 6307 H 584.374 1.43803 -0.0753406 0
M  V30 6308 H 586.327 3.58889 2.20855 0
M  V30 6309 H 585.051 2.34775 2.27042 0
M  V30 6310 H 583.71 3.62281 0.56109 0
M  V30 6311 H 583.358 4.03557 3.00251 0
M  V30 6312 H 583.058 5.50827 2.04606 0
M  V30 6313 H 584.582 5.33892 2.96297 0
M  V30 6314 H 585.996 5.6878 0.718493 0
M  V30 6315 H 584.393 6.00099 -0.00806408 0
M  V30 6316 H 585.463 4.7921 -0.740653 0
M  V30 6317 N 586.806 0.0935595 1.57322 0
M  V30 6318 C 587.769 -0.851426 2.12799 0
M  V30 6319 C 588.769 -1.21187 1.0569 0
M  V30 6320 O 589.959 -1.14156 1.31583 0
M  V30 6321 C 587.091 -2.14779 2.64731 0
M  V30 6322 H 588.284 -0.369733 2.97612 0
M  V30 6323 H 585.837 -0.155417 1.55525 0
M  V30 6324 H 586.572 -2.67437 1.83434 0
M  V30 6325 H 586.357 -1.89907 3.43042 0
M  V30 6326 H 587.847 -2.82383 3.07651 0
M  V30 6327 N 588.284 -1.56567 -0.180126 0
M  V30 6328 C 589.214 -1.98753 -1.22553 0
M  V30 6329 C 590.195 -0.86175 -1.46656 0
M  V30 6330 O 591.38 -1.12719 -1.58139 0
M  V30 6331 C 588.51 -2.33988 -2.56645 0
M  V30 6332 C 587.464 -3.49445 -2.47128 0
M  V30 6333 C 586.79 -3.70397 -3.8563 0
M  V30 6334 C 588.09 -4.83171 -1.98352 0
M  V30 6335 H 589.784 -2.86332 -0.874896 0
M  V30 6336 H 587.33 -1.37757 -0.419414 0
M  V30 6337 H 589.283 -2.62097 -3.29974 0
M  V30 6338 H 588.007 -1.43309 -2.93479 0
M  V30 6339 H 586.666 -3.2145 -1.76254 0
M  V30 6340 H 586.314 -2.77023 -4.19842 0
M  V30 6341 H 586.014 -4.48077 -3.80132 0
M  V30 6342 H 587.538 -4.00897 -4.60558 0
M  V30 6343 H 588.952 -5.10213 -2.61449 0
M  V30 6344 H 587.349 -5.64425 -2.03823 0
M  V30 6345 H 588.419 -4.75753 -0.937402 0
M  V30 6346 N 589.762 0.448376 -1.51087 0
M  V30 6347 C 591.009 1.19872 -1.63209 0
M  V30 6348 C 591.337 1.91451 -0.343062 0
M  V30 6349 O 590.592 1.83789 0.672321 0
M  V30 6350 C 590.891 2.24866 -2.77795 0
M  V30 6351 C 590.557 1.70378 -4.17471 0
M  V30 6352 C 589.219 1.55241 -4.55471 0
M  V30 6353 C 591.571 1.30203 -5.04675 0
M  V30 6354 C 588.899 0.983844 -5.78392 0
M  V30 6355 C 591.251 0.747798 -6.28165 0
M  V30 6356 C 589.915 0.583233 -6.64947 0
M  V30 6357 H 589.185 0.438642 -0.597222 0
M  V30 6358 H 591.832 0.49136 -1.85089 0
M  V30 6359 H 590.137 3.01598 -2.50092 0
M  V30 6360 H 591.834 2.82723 -2.84374 0
M  V30 6361 H 588.424 1.83134 -3.87505 0
M  V30 6362 H 592.608 1.40723 -4.75932 0
M  V30 6363 H 587.864 0.844007 -6.05546 0
M  V30 6364 H 592.038 0.427927 -6.95084 0
M  V30 6365 H 589.665 0.140532 -7.6007 0
M  V30 6366 N 591.24 1.41047 0.703093 0
M  V30 6367 C 592.656 1.23351 1.01275 0
M  V30 6368 C 592.856 0.11754 2.01157 0
M  V30 6369 O 591.912 -0.520518 2.47077 0
M  V30 6370 C 593.225 2.58001 1.54454 0
M  V30 6371 C 594.773 2.65119 1.66376 0
M  V30 6372 C 595.248 4.00067 2.22958 0
M  V30 6373 N 596.739 4.01875 2.30328 0
M  V30 6374 C 597.474 5.03087 2.75119 0
M  V30 6375 N 596.97 6.14692 3.19571 0
M  V30 6376 N 598.763 4.90451 2.74616 0
M  V30 6377 H 590.914 2.1236 0.0412686 0
M  V30 6378 H 593.177 0.944543 0.08089 0
M  V30 6379 H 592.883 3.40378 0.88521 0
M  V30 6380 H 592.757 2.79962 2.52786 0
M  V30 6381 H 595.144 1.83106 2.31422 0
M  V30 6382 H 595.225 2.46975 0.666089 0
M  V30 6383 H 594.869 4.82526 1.58529 0
M  V30 6384 H 594.799 4.15547 3.23462 0
M  V30 6385 H 597.29 3.21291 1.98949 0
M  V30 6386 H 597.603 6.87799 3.52352 0
M  V30 6387 H 595.948 6.18239 3.17498 0
M  V30 6388 H 599.139 4.0235 2.39233 0
M  V30 6389 H 599.312 5.6947 3.09206 0
M  V30 6390 N 592.718 -0.936591 1.26751 0
M  V30 6391 C 593.648 -2.05315 1.11212 0
M  V30 6392 C 594.629 -1.70092 0.0160262 0
M  V30 6393 O 595.814 -1.93279 0.188894 0
M  V30 6394 C 592.944 -3.39123 0.749171 0
M  V30 6395 C 591.898 -3.88425 1.79751 0
M  V30 6396 C 591.224 -5.18936 1.28876 0
M  V30 6397 C 592.524 -4.12798 3.19992 0
M  V30 6398 H 594.218 -2.18573 2.04613 0
M  V30 6399 H 591.764 -1.05027 0.985159 0
M  V30 6400 H 593.717 -4.16704 0.627323 0
M  V30 6401 H 592.441 -3.25855 -0.220543 0
M  V30 6402 H 591.1 -3.13028 1.90811 0
M  V30 6403 H 590.748 -5.02051 0.308757 0
M  V30 6404 H 590.448 -5.52892 1.98958 0
M  V30 6405 H 591.972 -5.99096 1.17967 0
M  V30 6406 H 593.386 -4.80977 3.11983 0
M  V30 6407 H 591.783 -4.58044 3.87705 0
M  V30 6408 H 592.853 -3.18412 3.65707 0
M  V30 6409 N 594.196 -1.08629 -1.14182 0
M  V30 6410 C 595.129 -0.662329 -2.18377 0
M  V30 6411 C 596.107 0.327054 -1.59277 0
M  V30 6412 O 597.291 0.230376 -1.87087 0
M  V30 6413 C 594.418 0.0254765 -3.3869 0
M  V30 6414 C 593.464 -0.924414 -4.16361 0
M  V30 6415 S 594.297 -2.43226 -4.77076 0
M  V30 6416 C 595.453 -1.75663 -6.00744 0
M  V30 6417 H 595.686 -1.54501 -2.54001 0
M  V30 6418 H 593.219 -0.901484 -1.2535 0
M  V30 6419 H 595.177 0.416032 -4.08386 0
M  V30 6420 H 593.838 0.884689 -3.01384 0
M  V30 6421 H 593.031 -0.390099 -5.02488 0
M  V30 6422 H 592.633 -1.25598 -3.5228 0
M  V30 6423 H 594.925 -1.07589 -6.68903 0
M  V30 6424 H 595.868 -2.59673 -6.58768 0
M  V30 6425 H 596.276 -1.22903 -5.50958 0
M  V30 6426 N 595.674 1.31259 -0.872281 0
M  V30 6427 C 596.902 2.00795 -0.498907 0
M  V30 6428 C 597.317 1.65464 0.909238 0
M  V30 6429 O 596.674 0.885073 1.59602 0
M  V30 6430 C 596.725 3.55625 -0.649092 0
M  V30 6431 O 596.446 3.89692 -2.00179 0
M  V30 6432 C 597.947 4.42434 -0.277034 0
M  V30 6433 H 595.167 0.642299 -0.194145 0
M  V30 6434 H 597.711 1.67438 -1.17408 0
M  V30 6435 H 595.866 3.87394 -0.0214402 0
M  V30 6436 H 596.28 4.84407 -2.01122 0
M  V30 6437 H 597.754 5.50299 -0.433064 0
M  V30 6438 H 598.231 4.32146 0.783989 0
M  V30 6439 H 598.837 4.16086 -0.880483 0
M  V30 6440 N 597.152 0.631951 1.44375 0
M  V30 6441 C 598.084 -0.110911 2.28931 0
M  V30 6442 C 599.097 -0.808086 1.41329 0
M  V30 6443 O 600.286 -0.669396 1.65473 0
M  V30 6444 C 597.386 -1.17928 3.1772 0
M  V30 6445 C 596.559 -0.564458 4.33743 0
M  V30 6446 C 595.618 -1.5269 5.0356 0
M  V30 6447 O 594.644 -1.04372 5.59549 0
M  V30 6448 N 595.846 -2.86123 5.05088 0
M  V30 6449 H 598.611 0.614758 2.93327 0
M  V30 6450 H 596.172 0.473171 1.54831 0
M  V30 6451 H 598.164 -1.82348 3.61291 0
M  V30 6452 H 596.734 -1.80717 2.55069 0
M  V30 6453 H 595.954 0.258373 3.93352 0
M  V30 6454 H 597.242 -0.134355 5.08623 0
M  V30 6455 H 596.64 -3.27959 4.60933 0
M  V30 6456 H 595.197 -3.45901 5.52445 0
M  V30 6457 N 598.631 -1.53133 0.372548 0
M  V30 6458 C 599.908 -1.93704 -0.271693 0
M  V30 6459 C 600.288 -1.30667 -1.65799 0
M  V30 6460 O 599.636 -0.46838 -2.23648 0
M  V30 6461 C 599.846 -3.47576 -0.314903 0
M  V30 6462 C 601.194 -4.20998 -0.551912 0
M  V30 6463 O 602.218 -3.53994 -0.39582 0
M  V30 6464 O 601.077 -5.39748 -0.85639 0
M  V30 6465 H 598.171 -0.810457 -0.164586 0
M  V30 6466 H 600.717 -1.6427 0.425838 0
M  V30 6467 H 599.489 -3.85749 0.656792 0
M  V30 6468 H 599.112 -3.83264 -1.05804 0
M  V30 6469 N 600.109 -0.101901 -1.5727 0
M  V30 6470 C 601.339 0.567568 -1.98651 0
M  V30 6471 C 601.747 1.61839 -0.980037 0
M  V30 6472 O 601.09 1.83661 0.0376564 0
M  V30 6473 C 601.152 1.26742 -3.36417 0
M  V30 6474 C 600.816 0.366561 -4.55528 0
M  V30 6475 C 601.813 -0.388022 -5.1845 0
M  V30 6476 C 599.498 0.282629 -5.01504 0
M  V30 6477 C 601.492 -1.21445 -6.25724 0
M  V30 6478 C 599.179 -0.547443 -6.08643 0
M  V30 6479 C 600.177 -1.29462 -6.70618 0
M  V30 6480 O 599.865 -2.11095 -7.7569 0
M  V30 6481 H 599.597 0.156282 -0.657687 0
M  V30 6482 H 602.151 -0.179912 -2.04611 0
M  V30 6483 H 600.381 2.06162 -3.27161 0
M  V30 6484 H 602.07 1.8321 -3.622 0
M  V30 6485 H 602.836 -0.332949 -4.83856 0
M  V30 6486 H 598.715 0.853868 -4.53023 0
M  V30 6487 H 602.259 -1.79814 -6.74027 0
M  V30 6488 H 598.156 -0.603971 -6.42668 0
M  V30 6489 H 598.924 -2.03851 -7.92709 0
M  V30 6490 N 601.587 1.56661 0.17182 0
M  V30 6491 C 602.833 1.8313 0.88516 0
M  V30 6492 C 603.188 0.682376 1.79893 0
M  V30 6493 O 602.481 -0.321215 1.88888 0
M  V30 6494 C 602.675 3.13435 1.71736 0
M  V30 6495 C 602.504 4.40892 0.885659 0
M  V30 6496 C 601.274 5.02177 0.560939 0
M  V30 6497 C 603.472 5.13797 0.227454 0
M  V30 6498 N 601.454 6.13229 -0.286953 0
M  V30 6499 C 602.825 6.18127 -0.481625 0
M  V30 6500 C 604.88 4.97687 0.145567 0
M  V30 6501 C 603.583 7.08092 -1.26482 0
M  V30 6502 C 605.609 5.88096 -0.624298 0
M  V30 6503 C 604.971 6.91888 -1.32174 0
M  V30 6504 H 601.07 0.721107 0.302536 0
M  V30 6505 H 603.654 1.94104 0.152178 0
M  V30 6506 H 601.825 3.03653 2.42176 0
M  V30 6507 H 603.557 3.27903 2.37196 0
M  V30 6508 H 600.312 4.65145 0.890902 0
M  V30 6509 H 600.736 6.73359 -0.701193 0
M  V30 6510 H 605.378 4.17451 0.670426 0
M  V30 6511 H 603.096 7.87774 -1.80103 0
M  V30 6512 H 606.682 5.77702 -0.689321 0
M  V30 6513 H 605.562 7.60637 -1.90791 0
M  V30 6514 N 603.065 -0.440357 1.51323 0
M  V30 6515 C 603.975 -1.55955 1.75258 0
M  V30 6516 C 604.991 -1.61933 0.636687 0
M  V30 6517 O 606.167 -1.79231 0.918593 0
M  V30 6518 C 603.232 -2.9196 1.86977 0
M  V30 6519 C 602.293 -2.96122 3.10822 0
M  V30 6520 C 601.526 -4.2564 3.21973 0
M  V30 6521 O 601.749 -5.17851 2.39137 0
M  V30 6522 O 600.683 -4.36025 4.14929 0
M  V30 6523 H 604.509 -1.38673 2.70191 0
M  V30 6524 H 602.094 -0.623055 1.35788 0
M  V30 6525 H 603.976 -3.72682 1.96688 0
M  V30 6526 H 602.651 -3.09375 0.952307 0
M  V30 6527 H 601.558 -2.14366 3.06591 0
M  V30 6528 H 602.891 -2.83651 4.02247 0
M  V30 6529 N 604.543 -1.41418 -0.695603 0
M  V30 6530 C 605.491 -1.43467 -1.83084 0
M  V30 6531 C 606.485 -0.312719 -1.66489 0
M  V30 6532 O 607.691 -0.484744 -1.7335 0
M  V30 6533 H 604.066 -0.448891 -0.603325 0
M  V30 6534 H 606.037 -2.39144 -1.78473 0
M  V30 6535 C 604.786 -1.3337 -3.21104 0
M  V30 6536 H 604.109 -2.18989 -3.3449 0
M  V30 6537 H 605.549 -1.38865 -4.00615 0
M  V30 6538 C 604.008 -0.0460484 -3.36869 0
M  V30 6539 O 604.538 0.909258 -3.91274 0
M  V30 6540 N 602.744 0.0300222 -2.90584 0
M  V30 6541 H 602.291 -0.748129 -2.46497 0
M  V30 6542 H 602.249 0.890991 -3.01511 0
M  V30 6543 N 606.021 0.929856 -1.27246 0
M  V30 6544 C 606.951 2.04722 -1.12299 0
M  V30 6545 C 607.932 1.70082 -0.0250464 0
M  V30 6546 O 609.117 1.93176 -0.199141 0
M  V30 6547 C 606.247 3.38721 -0.767145 0
M  V30 6548 C 605.201 3.87466 -1.81808 0
M  V30 6549 C 604.527 5.18246 -1.31626 0
M  V30 6550 C 605.827 4.11095 -3.22177 0
M  V30 6551 H 607.521 2.17485 -2.05769 0
M  V30 6552 H 605.067 1.04503 -0.990715 0
M  V30 6553 H 607.02 4.16366 -0.649413 0
M  V30 6554 H 605.744 3.25967 0.203259 0
M  V30 6555 H 604.403 3.12012 -1.92468 0
M  V30 6556 H 604.051 5.01881 -0.335378 0
M  V30 6557 H 603.751 5.51829 -2.01887 0
M  V30 6558 H 605.275 5.98462 -1.21143 0
M  V30 6559 H 606.689 4.79316 -3.1453 0
M  V30 6560 H 605.086 4.55982 -3.90129 0
M  V30 6561 H 606.156 3.16468 -3.67391 0
M  V30 6562 N 607.499 1.09233 1.13605 0
M  V30 6563 C 608.746 0.827159 1.84836 0
M  V30 6564 C 609.074 -0.647199 1.83416 0
M  V30 6565 O 608.329 -1.49228 1.26608 0
M  V30 6566 C 608.628 1.305 3.32723 0
M  V30 6567 C 608.294 2.78864 3.54325 0
M  V30 6568 C 606.956 3.19382 3.59928 0
M  V30 6569 C 609.308 3.74532 3.62457 0
M  V30 6570 C 606.636 4.54346 3.71196 0
M  V30 6571 C 608.988 5.09283 3.75252 0
M  V30 6572 C 607.652 5.49394 3.79108 0
M  V30 6573 H 606.922 0.302679 0.676363 0
M  V30 6574 H 609.569 1.36676 1.34134 0
M  V30 6575 H 607.874 0.68517 3.85762 0
M  V30 6576 H 609.571 1.07648 3.86281 0
M  V30 6577 H 606.161 2.46507 3.50617 0
M  V30 6578 H 610.345 3.44343 3.57409 0
M  V30 6579 H 605.601 4.84864 3.72447 0
M  V30 6580 H 609.775 5.83269 3.80487 0
M  V30 6581 H 607.402 6.5397 3.87591 0
M  V30 6582 N 608.977 -1.30795 0.87923 0
M  V30 6583 C 609.909 -2.27241 0.299025 0
M  V30 6584 C 610.922 -1.53472 -0.543166 0
M  V30 6585 O 612.111 -1.74756 -0.363651 0
M  V30 6586 C 609.211 -3.33655 -0.593931 0
M  V30 6587 C 608.384 -4.36857 0.2179 0
M  V30 6588 C 607.443 -5.22715 -0.604646 0
M  V30 6589 O 606.469 -5.69192 -0.0293838 0
M  V30 6590 N 607.671 -5.48008 -1.91488 0
M  V30 6591 H 610.436 -2.77667 1.12788 0
M  V30 6592 H 607.997 -1.43914 0.741637 0
M  V30 6593 H 609.989 -3.88013 -1.15012 0
M  V30 6594 H 608.559 -2.83202 -1.32346 0
M  V30 6595 H 607.779 -3.82444 0.955536 0
M  V30 6596 H 609.067 -5.02869 0.774614 0
M  V30 6597 H 608.465 -5.1202 -2.40525 0
M  V30 6598 H 607.022 -6.05264 -2.41864 0
M  V30 6599 N 610.455 -0.639598 -1.44038 0
M  V30 6600 C 611.385 0.0469443 -2.33453 0
M  V30 6601 C 612.366 0.82609 -1.48694 0
M  V30 6602 O 613.551 0.790285 -1.77393 0
M  V30 6603 C 610.681 1.02338 -3.3188 0
M  V30 6604 C 609.635 0.355284 -4.26523 0
M  V30 6605 C 608.961 1.44221 -5.14883 0
M  V30 6606 C 610.261 -0.743798 -5.16977 0
M  V30 6607 H 611.955 -0.699735 -2.91108 0
M  V30 6608 H 609.501 -0.337946 -1.39978 0
M  V30 6609 H 611.454 1.51247 -3.93322 0
M  V30 6610 H 610.178 1.80105 -2.72451 0
M  V30 6611 H 608.837 -0.113239 -3.66425 0
M  V30 6612 H 608.485 2.21097 -4.51802 0
M  V30 6613 H 608.185 1.00052 -5.79019 0
M  V30 6614 H 609.709 1.93295 -5.79197 0
M  V30 6615 H 611.123 -0.337444 -5.72306 0
M  V30 6616 H 609.52 -1.10914 -5.89761 0
M  V30 6617 H 610.59 -1.60745 -4.57481 0
M  V30 6618 N 611.933 1.52934 -0.380664 0
M  V30 6619 C 613.161 2.05886 0.204599 0
M  V30 6620 C 613.576 1.25305 1.41223 0
M  V30 6621 O 612.933 0.297504 1.80059 0
M  V30 6622 C 612.984 3.56764 0.583249 0
M  V30 6623 O 612.705 4.34292 -0.576398 0
M  V30 6624 C 614.206 4.2603 1.2253 0
M  V30 6625 H 611.426 0.670193 0.0328991 0
M  V30 6626 H 613.97 1.97148 -0.543397 0
M  V30 6627 H 612.125 3.65603 1.28115 0
M  V30 6628 H 612.539 5.23819 -0.267119 0
M  V30 6629 H 614.013 5.32868 1.44068 0
M  V30 6630 H 614.49 3.80698 2.19011 0
M  V30 6631 H 615.096 4.21485 0.568407 0
M  V30 6632 N 613.412 0.11024 1.57214 0
M  V30 6633 C 614.342 -0.840002 2.17867 0
M  V30 6634 C 615.323 -1.28352 1.11624 0
M  V30 6635 O 616.508 -1.3477 1.39824 0
M  V30 6636 C 613.638 -2.09349 2.77111 0
M  V30 6637 C 612.592 -1.78807 3.8886 0
M  V30 6638 C 611.918 -3.11112 4.34872 0
M  V30 6639 C 613.218 -1.0632 5.11364 0
M  V30 6640 H 614.912 -0.334608 2.97524 0
M  V30 6641 H 612.458 -0.159502 1.43114 0
M  V30 6642 H 614.411 -2.76275 3.18198 0
M  V30 6643 H 613.135 -2.62198 1.9473 0
M  V30 6644 H 611.794 -1.14273 3.48335 0
M  V30 6645 H 611.442 -3.61877 3.49362 0
M  V30 6646 H 611.142 -2.91453 5.10224 0
M  V30 6647 H 612.666 -3.79171 4.78604 0
M  V30 6648 H 614.08 -1.63383 5.49526 0
M  V30 6649 H 612.477 -0.967876 5.92243 0
M  V30 6650 H 613.547 -0.0484569 4.84876 0
M  V30 6651 N 614.89 -1.56749 -0.16351 0
M  V30 6652 C 616.306 -1.51043 -0.515567 0
M  V30 6653 C 616.506 -0.815855 -1.84245 0
M  V30 6654 O 615.562 -0.379477 -2.49632 0
M  V30 6655 C 616.875 -2.95791 -0.541114 0
M  V30 6656 C 618.423 -3.0664 -0.627776 0
M  V30 6657 C 618.898 -4.52861 -0.684141 0
M  V30 6658 N 620.389 -4.5714 -0.746818 0
M  V30 6659 C 621.124 -5.67634 -0.811137 0
M  V30 6660 N 620.62 -6.8774 -0.835811 0
M  V30 6661 N 622.413 -5.55624 -0.850756 0
M  V30 6662 H 614.564 -2.00307 0.70645 0
M  V30 6663 H 616.827 -0.912876 0.255659 0
M  V30 6664 H 616.533 -3.49797 0.365329 0
M  V30 6665 H 616.407 -3.50858 -1.38487 0
M  V30 6666 H 618.794 -2.52663 -1.52464 0
M  V30 6667 H 618.875 -2.54645 0.242805 0
M  V30 6668 H 618.519 -5.07472 0.2085 0
M  V30 6669 H 618.449 -5.02621 -1.57098 0
M  V30 6670 H 620.94 -3.70669 -0.735717 0
M  V30 6671 H 621.253 -7.67701 -0.886279 0
M  V30 6672 H 619.598 -6.90334 -0.803958 0
M  V30 6673 H 622.789 -4.60709 -0.828535 0
M  V30 6674 H 622.962 -6.41756 -0.897418 0
M  V30 6675 N 616.368 0.432326 -1.51554 0
M  V30 6676 C 617.331 1.50765 -1.72634 0
M  V30 6677 C 618.331 1.49334 -0.596314 0
M  V30 6678 O 619.521 1.51268 -0.863925 0
M  V30 6679 C 616.653 2.90284 -1.7874 0
M  V30 6680 H 617.846 1.33377 -2.68609 0
M  V30 6681 H 615.399 0.661329 -1.4162 0
M  V30 6682 H 616.134 3.13071 -0.845977 0
M  V30 6683 H 615.919 2.92727 -2.6087 0
M  V30 6684 H 617.409 3.68282 -1.96871 0
M  V30 6685 N 617.846 1.41785 0.688094 0
M  V30 6686 C 618.809 1.43936 1.78368 0
M  V30 6687 C 619.809 0.328866 1.57401 0
M  V30 6688 O 620.999 0.589093 1.63937 0
M  V30 6689 C 618.131 1.25804 3.16838 0
M  V30 6690 H 619.324 2.41472 1.77852 0
M  V30 6691 H 616.877 1.28037 0.896448 0
M  V30 6692 H 617.612 0.291386 3.22988 0
M  V30 6693 H 617.397 2.06272 3.33458 0
M  V30 6694 H 618.887 1.30162 3.96797 0
M  V30 6695 N 619.324 -0.923095 1.27737 0
M  V30 6696 C 620.572 -1.66797 1.14119 0
M  V30 6697 C 620.893 -1.92479 -0.312541 0
M  V30 6698 O 620.163 -1.53432 -1.218 0
M  V30 6699 H 618.743 -0.618196 0.419336 0
M  V30 6700 H 621.405 -1.10815 1.60331 0
M  V30 6701 H 620.501 -2.63424 1.67374 0
M  V30 6702 N 620.802 -1.09834 -1.13024 0
M  V30 6703 C 621.749 -0.741522 -2.18564 0
M  V30 6704 C 622.719 0.279236 -1.63736 0
M  V30 6705 O 623.904 0.159923 -1.90129 0
M  V30 6706 C 621.044 -0.17277 -3.44667 0
M  V30 6707 C 620.157 -1.24808 -4.13578 0
M  V30 6708 C 619.292 -0.641631 -5.27311 0
M  V30 6709 C 618.331 -1.69795 -5.88078 0
M  V30 6710 N 617.468 -1.11223 -6.93234 0
M  V30 6711 H 622.308 -1.64576 -2.48432 0
M  V30 6712 H 619.845 -0.822174 -1.21978 0
M  V30 6713 H 621.803 0.17482 -4.16834 0
M  V30 6714 H 620.433 0.694725 -3.15235 0
M  V30 6715 H 619.485 -1.71288 -3.39653 0
M  V30 6716 H 620.797 -2.04795 -4.54819 0
M  V30 6717 H 619.951 -0.243128 -6.06213 0
M  V30 6718 H 618.69 0.189742 -4.87331 0
M  V30 6719 H 617.695 -2.10595 -5.07868 0
M  V30 6720 H 618.92 -2.53206 -6.3013 0
M  V30 6721 H 616.866 -0.302208 -6.55304 0
M  V30 6722 H 616.783 -1.84901 -7.3304 0
M  V30 6723 H 618.051 -0.740068 -7.75979 0
M  V30 6724 N 622.28 1.30327 -0.886154 0
M  V30 6725 C 623.508 2.00254 -0.520176 0
M  V30 6726 C 623.923 1.66419 0.891637 0
M  V30 6727 O 623.28 0.901951 1.58654 0
M  V30 6728 C 623.331 3.54916 -0.686775 0
M  V30 6729 O 623.052 3.87547 -2.04301 0
M  V30 6730 C 624.553 4.42115 -0.323945 0
M  V30 6731 H 621.773 0.640204 -0.200947 0
M  V30 6732 H 624.317 1.66183 -1.19178 0
M  V30 6733 H 622.472 3.8735 -0.0625273 0
M  V30 6734 H 622.886 4.82247 -2.06249 0
M  V30 6735 H 624.36 5.49808 -0.491407 0
M  V30 6736 H 624.837 4.32953 0.73811 0
M  V30 6737 H 625.443 4.15129 -0.924565 0
M  V30 6738 N 623.758 0.647228 1.43697 0
M  V30 6739 C 624.988 0.16551 2.05936 0
M  V30 6740 C 625.396 -1.17164 1.48557 0
M  V30 6741 O 624.739 -1.73307 0.60914 0
M  V30 6742 C 624.801 -0.00648082 3.59499 0
M  V30 6743 C 624.465 1.25503 4.39429 0
M  V30 6744 C 625.462 2.18241 4.71876 0
M  V30 6745 C 623.147 1.49494 4.79538 0
M  V30 6746 C 625.141 3.33268 5.43333 0
M  V30 6747 C 622.828 2.64815 5.50742 0
M  V30 6748 C 623.826 3.56528 5.82561 0
M  V30 6749 O 623.514 4.69836 6.52311 0
M  V30 6750 H 623.246 0.0844124 0.670709 0
M  V30 6751 H 625.8 0.88638 1.8529 0
M  V30 6752 H 624.03 -0.782661 3.78697 0
M  V30 6753 H 625.719 -0.444794 4.03456 0
M  V30 6754 H 626.485 2.00946 4.41413 0
M  V30 6755 H 622.364 0.789912 4.54182 0
M  V30 6756 H 625.908 4.04874 5.68087 0
M  V30 6757 H 621.805 2.82047 5.8062 0
M  V30 6758 H 622.573 4.69024 6.70789 0
M  V30 6759 N 625.236 -1.5273 0.388769 0
M  V30 6760 C 626.169 -2.22861 -0.490752 0
M  V30 6761 C 627.147 -1.22912 -1.06449 0
M  V30 6762 O 628.331 -1.51896 -1.11624 0
M  V30 6763 C 625.458 -2.94141 -1.67925 0
M  V30 6764 C 624.504 -4.08355 -1.23081 0
M  V30 6765 S 625.337 -5.35077 -0.212786 0
M  V30 6766 C 626.493 -6.09879 -1.40708 0
M  V30 6767 H 626.726 -2.97115 0.104787 0
M  V30 6768 H 624.259 -1.53428 0.172956 0
M  V30 6769 H 626.217 -3.35818 -2.36085 0
M  V30 6770 H 624.878 -2.19568 -2.24608 0
M  V30 6771 H 624.071 -4.57328 -2.11818 0
M  V30 6772 H 623.673 -3.68688 -0.628121 0
M  V30 6773 H 625.965 -6.36018 -2.33424 0
M  V30 6774 H 626.908 -7.01586 -0.958271 0
M  V30 6775 H 627.316 -5.40646 -1.62364 0
M  V30 6776 N 626.714 -0.118576 -1.57153 0
M  V30 6777 C 627.963 0.539339 -1.94355 0
M  V30 6778 C 628.276 1.67858 -1.00415 0
M  V30 6779 O 629.482 2.39922 -1.27081 0
M  V30 6780 C 627.938 1.01082 -3.45414 0
M  V30 6781 C 627.546 -0.0999402 -4.47889 0
M  V30 6782 C 629.29 1.64013 -3.91535 0
M  V30 6783 C 627.197 0.388212 -5.90124 0
M  V30 6784 H 626.127 0.205247 -0.725527 0
M  V30 6785 H 628.778 -0.19836 -1.82425 0
M  V30 6786 H 627.16 1.80292 -3.52577 0
M  V30 6787 H 628.334 -0.876189 -4.52393 0
M  V30 6788 H 626.649 -0.635885 -4.11516 0
M  V30 6789 H 629.246 2.01649 -4.95219 0
M  V30 6790 H 629.589 2.51836 -3.31488 0
M  V30 6791 H 630.122 0.913439 -3.87171 0
M  V30 6792 H 626.861 -0.453963 -6.53926 0
M  V30 6793 H 626.381 1.13095 -5.89041 0
M  V30 6794 H 628.06 0.849574 -6.41398 0
M  V30 6795 N 628.193 1.56834 0.155195 0
M  V30 6796 C 629.44 1.82898 0.869179 0
M  V30 6797 C 629.768 0.698194 1.81537 0
M  V30 6798 O 629.023 -0.313404 1.93174 0
M  V30 6799 C 629.322 3.15239 1.68402 0
M  V30 6800 C 628.988 4.42123 0.885341 0
M  V30 6801 C 627.65 4.76583 0.664971 0
M  V30 6802 C 630.002 5.20178 0.326234 0
M  V30 6803 C 627.33 5.86566 -0.125346 0
M  V30 6804 C 629.682 6.3099 -0.45108 0
M  V30 6805 C 628.346 6.64006 -0.682102 0
M  V30 6806 H 627.616 0.66927 0.318055 0
M  V30 6807 H 630.263 1.91036 0.133241 0
M  V30 6808 H 628.568 3.02515 2.48982 0
M  V30 6809 H 630.265 3.32618 2.23978 0
M  V30 6810 H 626.855 4.15102 1.06716 0
M  V30 6811 H 631.039 4.93936 0.483787 0
M  V30 6812 H 626.295 6.10594 -0.313915 0
M  V30 6813 H 630.469 6.9067 -0.89149 0
M  V30 6814 H 628.096 7.49065 -1.29636 0
M  V30 6815 N 629.671 -0.424282 1.51781 0
M  V30 6816 C 630.918 -1.1726 1.65095 0
M  V30 6817 C 631.246 -1.90881 0.373477 0
M  V30 6818 O 630.501 -1.84835 -0.642997 0
M  V30 6819 C 630.8 -2.20418 2.81337 0
M  V30 6820 C 630.466 -1.63715 4.20129 0
M  V30 6821 C 629.128 -1.47975 4.57883 0
M  V30 6822 C 631.48 -1.22157 5.06682 0
M  V30 6823 C 628.808 -0.891703 5.79884 0
M  V30 6824 C 631.16 -0.647767 6.29275 0
M  V30 6825 C 629.824 -0.477371 6.65791 0
M  V30 6826 H 629.094 -0.429085 0.604125 0
M  V30 6827 H 631.741 -0.461852 1.85847 0
M  V30 6828 H 630.046 -2.97581 2.54859 0
M  V30 6829 H 631.743 -2.78163 2.88836 0
M  V30 6830 H 628.333 -1.76946 3.90369 0
M  V30 6831 H 632.517 -1.33133 4.7811 0
M  V30 6832 H 627.773 -0.747563 6.06813 0
M  V30 6833 H 631.947 -0.317291 6.95677 0
M  V30 6834 H 629.574 -0.0195936 7.60197 0
M  V30 6835 N 631.149 -1.42148 -0.680565 0
M  V30 6836 C 632.395 -1.42521 -1.44277 0
M  V30 6837 C 632.728 -0.0393718 -1.9416 0
M  V30 6838 O 632.003 0.935425 -1.70529 0
M  V30 6839 C 632.286 -2.44475 -2.64394 0
M  V30 6840 C 632.139 -3.92226 -2.20179 0
M  V30 6841 C 633.458 -2.43491 -3.66606 0
M  V30 6842 H 630.577 -0.518985 -0.523282 0
M  V30 6843 H 633.219 -1.73524 -0.773914 0
M  V30 6844 H 631.369 -2.18168 -3.21458 0
M  V30 6845 H 633.041 -4.29493 -1.68327 0
M  V30 6846 H 631.284 -4.0637 -1.5181 0
M  V30 6847 H 631.955 -4.59133 -3.06433 0
M  V30 6848 H 634.431 -2.66872 -3.19247 0
M  V30 6849 H 633.307 -3.16816 -4.4824 0
M  V30 6850 H 633.568 -1.45881 -4.17338 0
M  V30 6851 N 632.627 0.916307 -1.28225 0
M  V30 6852 C 633.873 1.66765 -1.154 0
M  V30 6853 C 634.206 1.91912 0.297251 0
M  V30 6854 O 633.481 1.51766 1.21644 0
M  V30 6855 C 633.764 3.02715 -1.95028 0
M  V30 6856 C 633.617 2.84738 -3.48201 0
M  V30 6857 C 634.936 4.03215 -1.76369 0
M  V30 6858 H 632.055 0.605205 -0.42059 0
M  V30 6859 H 634.697 1.06255 -1.57512 0
M  V30 6860 H 632.847 3.54365 -1.59242 0
M  V30 6861 H 634.519 2.40118 -3.9388 0
M  V30 6862 H 632.762 2.19848 -3.73964 0
M  V30 6863 H 633.433 3.8127 -3.99171 0
M  V30 6864 H 635.909 3.60617 -2.07593 0
M  V30 6865 H 634.785 4.96306 -2.34459 0
M  V30 6866 H 635.046 4.36288 -0.71452 0
M  V30 6867 N 634.105 1.10431 1.1244 0
M  V30 6868 C 635.354 0.841539 1.83306 0
M  V30 6869 C 635.667 -0.634961 1.85007 0
M  V30 6870 O 636.873 -1.01363 2.51869 0
M  V30 6871 C 635.329 1.45565 3.29149 0
M  V30 6872 C 634.937 2.96544 3.35806 0
M  V30 6873 C 636.681 1.27227 4.04986 0
M  V30 6874 C 634.588 3.5099 4.75983 0
M  V30 6875 H 633.518 0.311156 0.686803 0
M  V30 6876 H 636.169 1.32829 1.26604 0
M  V30 6877 H 634.551 0.896574 3.85717 0
M  V30 6878 H 635.725 3.58766 2.89177 0
M  V30 6879 H 634.04 3.14036 2.73442 0
M  V30 6880 H 636.637 1.65348 5.08492 0
M  V30 6881 H 636.98 0.213834 4.1575 0
M  V30 6882 H 637.513 1.79941 3.54776 0
M  V30 6883 H 634.252 4.56499 4.70413 0
M  V30 6884 H 633.772 2.93535 5.23065 0
M  V30 6885 H 635.451 3.48808 5.44924 0
M  V30 6886 N 635.583 -1.29855 0.893053 0
M  V30 6887 C 636.832 -1.95104 0.511597 0
M  V30 6888 C 637.145 -1.71226 -0.945567 0
M  V30 6889 O 638.351 -2.30525 -1.43424 0
M  V30 6890 C 636.807 -3.49374 0.864034 0
M  V30 6891 C 636.415 -3.82061 2.33952 0
M  V30 6892 C 638.159 -4.20894 0.552167 0
M  V30 6893 C 636.066 -5.29546 2.63316 0
M  V30 6894 H 634.996 -0.73029 0.187597 0
M  V30 6895 H 637.647 -1.47682 1.08914 0
M  V30 6896 H 636.029 -3.95413 0.215493 0
M  V30 6897 H 637.203 -3.46904 3.03305 0
M  V30 6898 H 635.518 -3.23665 2.61973 0
M  V30 6899 H 638.115 -5.29435 0.748489 0
M  V30 6900 H 638.458 -4.13178 -0.508924 0
M  V30 6901 H 638.991 -3.80564 1.15825 0
M  V30 6902 H 635.73 -5.4232 3.68197 0
M  V30 6903 H 635.25 -5.65974 1.9858 0
M  V30 6904 H 636.929 -5.97068 2.49236 0
M  V30 6905 N 637.061 -0.65484 -1.43351 0
M  V30 6906 C 638.308 -0.168892 -2.01794 0
M  V30 6907 C 638.636 1.2177 -1.51665 0
M  V30 6908 O 637.891 1.82717 -0.70092 0
M  V30 6909 C 638.19 -0.130424 -3.57162 0
M  V30 6910 C 637.856 -1.45898 -4.26643 0
M  V30 6911 C 636.518 -1.82279 -4.4534 0
M  V30 6912 C 638.87 -2.33485 -4.65976 0
M  V30 6913 C 636.198 -3.0591 -5.00635 0
M  V30 6914 C 638.55 -3.5641 -5.22642 0
M  V30 6915 C 637.214 -3.92985 -5.39555 0
M  V30 6916 H 636.484 -0.061802 -0.738418 0
M  V30 6917 H 639.131 -0.845869 -1.71806 0
M  V30 6918 H 637.436 0.630008 -3.86702 0
M  V30 6919 H 639.133 0.262465 -4.0014 0
M  V30 6920 H 635.723 -1.16591 -4.12437 0
M  V30 6921 H 639.907 -2.06668 -4.51223 0
M  V30 6922 H 635.163 -3.34295 -5.11915 0
M  V30 6923 H 639.337 -4.24495 -5.52066 0
M  V30 6924 H 636.964 -4.88862 -5.82167 0
M  V30 6925 N 638.539 1.52521 -0.396863 0
M  V30 6926 C 639.469 2.29582 0.425941 0
M  V30 6927 C 640.45 1.33281 1.05689 0
M  V30 6928 O 641.635 1.62181 1.06823 0
M  V30 6929 C 638.765 3.10821 1.54943 0
M  V30 6930 C 637.719 4.15069 1.04413 0
M  V30 6931 C 637.045 4.84578 2.26028 0
M  V30 6932 C 638.345 5.22191 0.106767 0
M  V30 6933 H 640.039 2.98612 -0.217045 0
M  V30 6934 H 637.585 1.43611 -0.105826 0
M  V30 6935 H 639.538 3.63492 2.13193 0
M  V30 6936 H 638.262 2.39538 2.22011 0
M  V30 6937 H 636.921 3.63389 0.484118 0
M  V30 6938 H 636.569 4.09835 2.91623 0
M  V30 6939 H 636.269 5.55043 1.92876 0
M  V30 6940 H 637.793 5.40056 2.84906 0
M  V30 6941 H 639.207 5.70176 0.597685 0
M  V30 6942 H 637.604 5.99947 -0.135352 0
M  V30 6943 H 638.674 4.77531 -0.842134 0
M  V30 6944 N 640.017 0.126909 1.57088 0
M  V30 6945 C 641.265 -0.528123 1.95078 0
M  V30 6946 C 641.586 -1.66708 1.0116 0
M  V30 6947 O 640.856 -1.95777 0.0693527 0
M  V30 6948 H 639.436 -0.198087 0.720257 0
M  V30 6949 H 642.098 0.197703 1.93895 0
M  V30 6950 H 641.194 -0.917507 2.98309 0
M  V30 6951 N 641.495 -1.56914 -0.146875 0
M  V30 6952 C 642.72 -1.87881 -0.878386 0
M  V30 6953 C 643.145 -0.715945 -1.73942 0
M  V30 6954 O 642.503 0.334447 -1.78189 0
M  V30 6955 C 642.551 -3.17431 -1.71084 0
M  V30 6956 O 641.655 -3.01374 -2.81509 0
M  V30 6957 H 640.996 -0.617289 -0.244644 0
M  V30 6958 H 643.526 -2.04136 -0.137654 0
M  V30 6959 H 643.536 -3.49455 -2.10582 0
M  V30 6960 H 642.211 -4.01671 -1.07856 0
M  V30 6961 H 640.788 -2.80758 -2.45416 0
M  V30 6962 N 642.974 0.416227 -1.52004 0
M  V30 6963 C 644.221 1.16383 -1.65714 0
M  V30 6964 C 644.549 1.9068 -0.383594 0
M  V30 6965 O 643.804 1.85174 0.633185 0
M  V30 6966 C 644.103 2.18923 -2.82502 0
M  V30 6967 C 643.769 1.61485 -4.20991 0
M  V30 6968 C 642.431 1.45545 -4.58661 0
M  V30 6969 C 644.783 1.19468 -5.07323 0
M  V30 6970 C 642.111 0.860937 -5.80349 0
M  V30 6971 C 644.463 0.614386 -6.29609 0
M  V30 6972 C 643.127 0.442056 -6.66035 0
M  V30 6973 H 642.397 0.425875 -0.606392 0
M  V30 6974 H 645.044 0.45199 -1.8609 0
M  V30 6975 H 643.349 2.96225 -2.56433 0
M  V30 6976 H 645.046 2.76628 -2.90307 0
M  V30 6977 H 641.636 1.74873 -3.91302 0
M  V30 6978 H 645.82 1.30596 -4.78809 0
M  V30 6979 H 641.076 0.715372 -6.072 0
M  V30 6980 H 645.25 0.280393 -6.95835 0
M  V30 6981 H 642.877 -0.0207218 -7.60197 0
M  V30 6982 N 644.452 1.42507 0.673017 0
M  V30 6983 C 645.682 1.46261 1.45916 0
M  V30 6984 C 646.09 0.0729724 1.89059 0
M  V30 6985 O 645.433 -0.922987 1.58829 0
M  V30 6986 C 645.495 2.32853 2.73898 0
M  V30 6987 C 645.159 3.80699 2.52819 0
M  V30 6988 C 646.156 4.72307 2.17306 0
M  V30 6989 C 643.841 4.24983 2.67758 0
M  V30 6990 C 645.835 6.06192 1.97003 0
M  V30 6991 C 643.522 5.58927 2.4707 0
M  V30 6992 C 644.52 6.49348 2.11746 0
M  V30 6993 O 644.208 7.80817 1.91259 0
M  V30 6994 H 643.94 0.499561 0.455428 0
M  V30 6995 H 646.494 1.87697 0.834196 0
M  V30 6996 H 644.724 1.86268 3.38882 0
M  V30 6997 H 646.413 2.28041 3.35786 0
M  V30 6998 H 647.179 4.39378 2.05359 0
M  V30 6999 H 643.058 3.54893 2.94231 0
M  V30 7000 H 646.602 6.76731 1.69355 0
M  V30 7001 H 642.499 5.91429 2.58615 0
M  V30 7002 H 643.267 7.92194 2.05843 0
M  V30 7003 N 645.93 -0.909495 1.28709 0
M  V30 7004 C 646.86 -2.0291 1.15542 0
M  V30 7005 C 647.841 -1.7002 0.0521017 0
M  V30 7006 O 649.026 -1.92835 0.229849 0
M  V30 7007 C 646.156 -3.37458 0.820935 0
M  V30 7008 C 645.11 -3.84524 1.87949 0
M  V30 7009 C 644.436 -5.16086 1.39854 0
M  V30 7010 C 645.736 -4.05918 3.28676 0
M  V30 7011 H 647.43 -2.14183 2.09203 0
M  V30 7012 H 644.976 -1.02913 1.00722 0
M  V30 7013 H 646.929 -4.1528 0.715571 0
M  V30 7014 H 645.653 -3.26249 -0.151374 0
M  V30 7015 H 644.312 -3.08911 1.97408 0
M  V30 7016 H 643.96 -5.01284 0.41518 0
M  V30 7017 H 643.66 -5.48547 2.1064 0
M  V30 7018 H 645.184 -5.96459 1.30649 0
M  V30 7019 H 646.598 -4.74252 3.22115 0
M  V30 7020 H 644.995 -4.49717 3.97334 0
M  V30 7021 H 646.065 -3.10583 3.72379 0
M  V30 7022 N 647.408 -1.11026 -1.11852 0
M  V30 7023 C 648.657 -0.851249 -1.82857 0
M  V30 7024 C 648.97 0.62514 -1.85341 0
M  V30 7025 O 650.176 1.00026 -2.52403 0
M  V30 7026 C 648.632 -1.47309 -3.28372 0
M  V30 7027 C 648.24 -2.9832 -3.34229 0
M  V30 7028 C 649.984 -1.29373 -4.04306 0
M  V30 7029 C 647.891 -3.53509 -4.74115 0
M  V30 7030 H 646.821 -0.314794 -0.685143 0
M  V30 7031 H 649.472 -1.33499 -1.25898 0
M  V30 7032 H 647.854 -0.917017 -3.85236 0
M  V30 7033 H 649.028 -3.60295 -2.87271 0
M  V30 7034 H 647.343 -3.15482 -2.71772 0
M  V30 7035 H 649.94 -1.68042 -5.07608 0
M  V30 7036 H 650.283 -0.235879 -4.15631 0
M  V30 7037 H 650.816 -1.8182 -3.53817 0
M  V30 7038 H 647.555 -4.58987 -4.67986 0
M  V30 7039 H 647.075 -2.96305 -5.21501 0
M  V30 7040 H 648.754 -3.51693 -5.43066 0
M  V30 7041 N 648.886 1.2938 -0.899927 0
M  V30 7042 C 649.834 2.29675 -0.367698 0
M  V30 7043 C 650.828 1.60787 0.533282 0
M  V30 7044 O 652.034 1.75126 0.416058 0
M  V30 7045 H 648.409 0.745284 -0.100279 0
M  V30 7046 H 650.38 2.72008 -1.22696 0
M  V30 7047 C 649.129 3.45512 0.389483 0
M  V30 7048 H 648.452 3.98713 -0.294575 0
M  V30 7049 H 649.892 4.17725 0.726744 0
M  V30 7050 C 648.351 2.969 1.59223 0
M  V30 7051 O 648.881 2.98195 2.69152 0
M  V30 7052 N 647.087 2.52728 1.43447 0
M  V30 7053 H 646.634 2.51873 0.540148 0
M  V30 7054 H 646.592 2.20561 2.24054 0
M  V30 7055 N 650.364 0.662433 1.43002 0
M  V30 7056 C 651.294 -0.00979809 2.33498 0
M  V30 7057 C 652.275 -0.802329 1.49989 0
M  V30 7058 O 653.46 -0.761964 1.78627 0
M  V30 7059 C 650.59 -0.970446 3.33466 0
M  V30 7060 C 649.544 -0.287383 4.27034 0
M  V30 7061 C 648.87 -1.36012 5.17112 0
M  V30 7062 C 650.17 0.82595 5.15728 0
M  V30 7063 H 651.864 0.745959 2.89958 0
M  V30 7064 H 649.41 0.360172 1.39423 0
M  V30 7065 H 651.363 -1.44971 3.95679 0
M  V30 7066 H 650.087 -1.75748 2.75282 0
M  V30 7067 H 648.746 0.17152 3.66199 0
M  V30 7068 H 648.394 -2.13882 4.55262 0
M  V30 7069 H 648.094 -0.908276 5.80538 0
M  V30 7070 H 649.618 -1.84056 5.82199 0
M  V30 7071 H 651.032 0.42845 5.71697 0
M  V30 7072 H 649.429 1.20282 5.87922 0
M  V30 7073 H 650.499 1.68003 4.54866 0
M  V30 7074 N 651.842 -1.52309 0.404946 0
M  V30 7075 C 653.091 -2.00952 -0.173529 0
M  V30 7076 C 653.404 -1.29512 -1.46581 0
M  V30 7077 O 654.61 -1.6895 -2.12528 0
M  V30 7078 C 653.066 -3.58097 -0.359801 0
M  V30 7079 C 652.674 -4.38449 0.920138 0
M  V30 7080 C 654.418 -4.14984 -0.893794 0
M  V30 7081 C 652.325 -5.87227 0.701285 0
M  V30 7082 H 651.255 -0.750871 -0.0686244 0
M  V30 7083 H 653.906 -1.75687 0.529749 0
M  V30 7084 H 652.288 -3.79675 -1.12531 0
M  V30 7085 H 653.462 -4.28633 1.69147 0
M  V30 7086 H 651.777 -3.92859 1.38024 0
M  V30 7087 H 654.374 -5.23813 -1.0735 0
M  V30 7088 H 654.717 -3.72072 -1.8673 0
M  V30 7089 H 655.25 -3.97358 -0.187453 0
M  V30 7090 H 651.989 -6.34491 1.64624 0
M  V30 7091 H 651.509 -5.99792 -0.0308288 0
M  V30 7092 H 653.188 -6.46096 0.341846 0
M  V30 7093 N 653.32 -0.135238 -1.57019 0
M  V30 7094 C 654.25 0.805235 -2.19176 0
M  V30 7095 C 655.231 1.2656 -1.13651 0
M  V30 7096 O 656.416 1.32528 -1.4195 0
M  V30 7097 C 653.546 2.04914 -2.80406 0
M  V30 7098 C 652.5 1.72598 -3.91655 0
M  V30 7099 C 651.826 3.04154 -4.39766 0
M  V30 7100 C 653.126 0.981709 -5.12991 0
M  V30 7101 H 654.82 0.287232 -2.98019 0
M  V30 7102 H 652.366 0.136714 -1.4335 0
M  V30 7103 H 654.319 2.71178 -3.22553 0
M  V30 7104 H 653.043 2.59067 -1.98877 0
M  V30 7105 H 651.702 1.08717 -3.50109 0
M  V30 7106 H 651.35 3.56274 -3.55075 0
M  V30 7107 H 651.05 2.83299 -5.14796 0
M  V30 7108 H 652.574 3.71509 -4.84576 0
M  V30 7109 H 653.988 1.5462 -5.52056 0
M  V30 7110 H 652.385 0.873533 -5.93708 0
M  V30 7111 H 653.455 -0.0286887 -4.84892 0
M  V30 7112 N 654.798 1.5699 0.138552 0
M  V30 7113 C 655.761 1.97984 1.15478 0
M  V30 7114 C 656.761 0.867416 1.35398 0
M  V30 7115 O 657.951 1.13387 1.32246 0
M  V30 7116 C 655.083 2.3031 2.51337 0
M  V30 7117 H 656.276 2.88953 0.802896 0
M  V30 7118 H 653.829 1.51555 0.382189 0
M  V30 7119 H 654.564 1.42159 2.91481 0
M  V30 7120 H 654.349 3.11425 2.38237 0
M  V30 7121 H 655.839 2.62834 3.24512 0
M  V30 7122 N 656.276 -0.40816 1.52223 0
M  V30 7123 C 657.522 -1.15673 1.66576 0
M  V30 7124 C 657.855 -1.90141 0.394996 0
M  V30 7125 O 657.13 -1.84798 -0.606613 0
M  V30 7126 C 657.413 -2.15042 2.88841 0
M  V30 7127 C 657.266 -1.44465 4.25969 0
M  V30 7128 C 658.585 -3.15699 3.0663 0
M  V30 7129 H 655.704 -0.41916 0.606196 0
M  V30 7130 H 658.346 -0.442348 1.84779 0
M  V30 7131 H 656.496 -2.75964 2.73452 0
M  V30 7132 H 658.168 -0.866544 4.53088 0
M  V30 7133 H 656.411 -0.746612 4.27327 0
M  V30 7134 H 657.082 -2.16976 5.07568 0
M  V30 7135 H 659.558 -2.64854 3.20923 0
M  V30 7136 H 658.434 -3.82491 3.9369 0
M  V30 7137 H 658.695 -3.83481 2.19987 0
M  V30 7138 N 657.755 -1.42862 -0.66545 0
M  V30 7139 C 659.001 -1.44043 -1.42757 0
M  V30 7140 C 659.334 -0.0599629 -1.94107 0
M  V30 7141 O 658.609 0.917286 -1.71511 0
M  V30 7142 C 658.892 -2.47266 -2.61786 0
M  V30 7143 C 658.745 -3.94539 -2.16007 0
M  V30 7144 C 660.064 -2.47365 -3.64003 0
M  V30 7145 H 657.183 -0.524506 -0.517748 0
M  V30 7146 H 659.825 -1.74335 -0.755466 0
M  V30 7147 H 657.975 -2.21565 -3.19126 0
M  V30 7148 H 659.647 -4.31254 -1.63762 0
M  V30 7149 H 657.89 -4.07957 -1.47491 0
M  V30 7150 H 658.561 -4.62357 -3.01546 0
M  V30 7151 H 661.037 -2.70243 -3.16399 0
M  V30 7152 H 659.913 -3.21552 -4.44854 0
M  V30 7153 H 660.174 -1.50299 -4.15767 0
M  V30 7154 N 659.233 0.902656 -1.29189 0
M  V30 7155 C 660.196 1.98797 -1.14071 0
M  V30 7156 C 661.196 1.60615 -0.0770549 0
M  V30 7157 O 662.386 1.71165 -0.323753 0
M  V30 7158 C 659.518 3.32688 -0.743739 0
M  V30 7159 H 660.711 2.13637 -2.10473 0
M  V30 7160 H 658.264 1.08678 -1.12334 0
M  V30 7161 H 658.999 3.23549 0.220554 0
M  V30 7162 H 658.784 3.61765 -1.51223 0
M  V30 7163 H 660.274 4.12337 -0.660935 0
M  V30 7164 N 660.711 1.11618 1.11262 0
M  V30 7165 C 661.644 0.719995 2.16544 0
M  V30 7166 C 662.622 -0.28471 1.60088 0
M  V30 7167 O 663.806 -0.180693 1.87632 0
M  V30 7168 C 660.933 0.0643302 3.38639 0
M  V30 7169 C 659.979 1.03448 4.13764 0
M  V30 7170 S 660.812 2.55789 4.70459 0
M  V30 7171 C 661.968 1.91529 5.95875 0
M  V30 7172 H 662.201 1.61181 2.49816 0
M  V30 7173 H 659.734 0.934401 1.22916 0
M  V30 7174 H 661.692 -0.307609 4.09346 0
M  V30 7175 H 660.353 -0.804471 3.03623 0
M  V30 7176 H 659.546 0.523188 5.01277 0
M  V30 7177 H 659.148 1.34893 3.48826 0
M  V30 7178 H 661.44 1.25286 6.65815 0
M  V30 7179 H 662.383 2.77047 6.51652 0
M  V30 7180 H 662.791 1.37468 5.47506 0
M  V30 7181 N 662.189 -1.289 0.906776 0
M  V30 7182 C 663.152 -2.25777 0.394656 0
M  V30 7183 C 664.152 -1.53621 -0.475119 0
M  V30 7184 O 665.342 -1.71949 -0.279165 0
M  V30 7185 C 662.474 -3.38113 -0.43499 0
M  V30 7186 H 663.667 -2.72592 1.25033 0
M  V30 7187 H 661.22 -1.40463 0.685547 0
M  V30 7188 H 661.955 -2.96648 -1.31036 0
M  V30 7189 H 661.74 -3.91647 0.188334 0
M  V30 7190 H 663.23 -4.10168 -0.784365 0
M  V30 7191 N 663.667 -0.670007 -1.42649 0
M  V30 7192 C 664.897 -0.198252 -2.05647 0
M  V30 7193 C 665.305 1.14786 -1.50402 0
M  V30 7194 O 664.648 1.72316 -0.636634 0
M  V30 7195 C 664.71 -0.0507132 -3.59464 0
M  V30 7196 C 664.374 -1.32478 -4.37377 0
M  V30 7197 C 665.371 -2.2572 -4.68344 0
M  V30 7198 C 663.056 -1.57104 -4.77099 0
M  V30 7199 C 665.05 -3.4187 -5.37963 0
M  V30 7200 C 662.737 -2.73543 -5.46459 0
M  V30 7201 C 663.735 -3.65751 -5.76815 0
M  V30 7202 O 663.423 -4.80154 -6.44753 0
M  V30 7203 H 663.155 -0.0950721 -0.669281 0
M  V30 7204 H 665.709 -0.915745 -1.83857 0
M  V30 7205 H 663.939 0.722314 -3.79894 0
M  V30 7206 H 665.628 0.380552 -4.04112 0
M  V30 7207 H 666.394 -2.07943 -4.38161 0
M  V30 7208 H 662.273 -0.862069 -4.52868 0
M  V30 7209 H 665.817 -4.13861 -5.61574 0
M  V30 7210 H 661.714 -2.91248 -5.7606 0
M  V30 7211 H 662.482 -4.79637 -6.63243 0
M  V30 7212 N 665.145 1.52092 -0.413018 0
M  V30 7213 C 666.108 2.25706 0.398687 0
M  V30 7214 C 667.108 1.28221 0.970368 0
M  V30 7215 O 668.298 1.52131 0.848635 0
M  V30 7216 C 665.43 3.03029 1.5616 0
M  V30 7217 H 666.623 2.98888 -0.246131 0
M  V30 7218 H 664.176 1.5542 -0.165622 0
M  V30 7219 H 664.911 2.34205 2.24317 0
M  V30 7220 H 664.696 3.74606 1.15812 0
M  V30 7221 H 666.186 3.58857 2.13569 0
M  V30 7222 N 666.623 0.143563 1.56945 0
M  V30 7223 C 667.533 -0.810562 2.20152 0
M  V30 7224 C 668.549 -1.27431 1.1848 0
M  V30 7225 O 669.725 -1.33221 1.51044 0
M  V30 7226 C 666.79 -2.03353 2.80799 0
M  V30 7227 C 665.851 -1.61936 3.97587 0
M  V30 7228 C 665.084 -2.78403 4.55332 0
M  V30 7229 O 665.307 -3.94521 4.11958 0
M  V30 7230 O 664.241 -2.54073 5.45647 0
M  V30 7231 H 668.067 -0.30253 3.02189 0
M  V30 7232 H 665.652 -0.0832925 1.49168 0
M  V30 7233 H 667.534 -2.74932 3.19359 0
M  V30 7234 H 666.209 -2.53116 2.01777 0
M  V30 7235 H 665.116 -0.873904 3.6375 0
M  V30 7236 H 666.449 -1.16892 4.78118 0
M  V30 7237 N 668.101 -1.57061 -0.130224 0
M  V30 7238 C 669.033 -1.96147 -1.18571 0
M  V30 7239 C 670.046 -0.859347 -1.38272 0
M  V30 7240 O 671.235 -1.13769 -1.37545 0
M  V30 7241 C 668.335 -2.23484 -2.54771 0
M  V30 7242 C 667.508 -3.54786 -2.55824 0
M  V30 7243 C 666.567 -3.70467 -3.73686 0
M  V30 7244 O 665.593 -4.42693 -3.57787 0
M  V30 7245 N 666.795 -3.08389 -4.91809 0
M  V30 7246 H 669.56 -2.87295 -0.853333 0
M  V30 7247 H 667.121 -1.58714 -0.319621 0
M  V30 7248 H 669.113 -2.312 -3.32158 0
M  V30 7249 H 667.683 -1.38518 -2.80235 0
M  V30 7250 H 666.903 -3.5836 -1.64232 0
M  V30 7251 H 668.191 -4.4111 -2.53573 0
M  V30 7252 H 667.589 -2.49656 -5.0763 0
M  V30 7253 H 666.146 -3.21642 -5.66912 0
M  V30 7254 N 669.579 0.400081 -1.52437 0
M  V30 7255 C 670.527 1.50851 -1.7705 0
M  V30 7256 C 671.521 1.56928 -0.637969 0
M  V30 7257 O 672.727 1.60226 -0.820212 0
M  V30 7258 H 669.102 0.50186 -0.560036 0
M  V30 7259 H 671.073 1.27281 -2.69893 0
M  V30 7260 C 669.822 2.88117 -1.94638 0
M  V30 7261 H 669.145 2.84187 -2.81208 0
M  V30 7262 H 670.585 3.64942 -2.15855 0
M  V30 7263 C 669.044 3.29206 -0.715899 0
M  V30 7264 O 669.574 4.01544 0.111944 0
M  V30 7265 N 667.78 2.85363 -0.549191 0
M  V30 7266 H 667.327 2.26664 -1.22397 0
M  V30 7267 H 667.285 3.13214 0.27278 0
M  V30 7268 N 671.057 1.43213 0.657864 0
M  V30 7269 C 671.967 1.50448 1.80007 0
M  V30 7270 C 672.983 0.39191 1.69529 0
M  V30 7271 O 674.159 0.645349 1.90781 0
M  V30 7272 C 671.224 1.42062 3.16258 0
M  V30 7273 C 670.285 2.63951 3.38568 0
M  V30 7274 C 669.518 2.55956 4.68318 0
M  V30 7275 O 669.741 1.60473 5.47361 0
M  V30 7276 O 668.675 3.46378 4.92245 0
M  V30 7277 H 672.501 2.4689 1.76858 0
M  V30 7278 H 670.086 1.25163 0.81576 0
M  V30 7279 H 671.968 1.3981 3.97531 0
M  V30 7280 H 670.643 0.487524 3.20008 0
M  V30 7281 H 669.55 2.71776 2.57077 0
M  V30 7282 H 670.883 3.56217 3.39662 0
M  V30 7283 N 672.536 -0.895792 1.29666 0
M  V30 7284 C 673.499 -1.98189 1.15124 0
M  V30 7285 C 674.499 -1.60572 0.0855717 0
M  V30 7286 O 675.689 -1.70991 0.332826 0
M  V30 7287 C 672.821 -3.32289 0.761372 0
M  V30 7288 H 674.014 -2.12518 2.11603 0
M  V30 7289 H 671.567 -1.0808 1.12908 0
M  V30 7290 H 672.302 -3.23662 -0.203393 0
M  V30 7291 H 672.087 -3.60958 1.53139 0
M  V30 7292 H 673.577 -4.1198 0.682792 0
M  V30 7293 N 674.014 -1.12206 -1.10668 0
M  V30 7294 C 675.242 -0.898635 -1.86366 0
M  V30 7295 C 675.657 0.551991 -1.80551 0
M  V30 7296 O 675.014 1.38152 -1.19249 0
M  V30 7297 C 675.065 -1.36199 -3.34861 0
M  V30 7298 O 674.786 -2.75576 -3.40573 0
M  V30 7299 C 676.287 -1.17515 -4.2744 0
M  V30 7300 H 673.507 -0.321281 -0.589084 0
M  V30 7301 H 676.051 -1.49142 -1.39918 0
M  V30 7302 H 674.206 -0.81249 -3.78784 0
M  V30 7303 H 674.62 -2.95851 -4.33096 0
M  V30 7304 H 676.094 -1.54827 -5.29842 0
M  V30 7305 H 676.571 -0.115486 -4.39048 0
M  V30 7306 H 677.177 -1.71203 -3.89319 0
M  V30 7307 N 675.492 1.28418 -0.913599 0
M  V30 7308 C 676.422 2.29713 -0.418847 0
M  V30 7309 C 677.403 1.62165 0.513469 0
M  V30 7310 O 678.588 1.89576 0.421235 0
M  V30 7311 C 675.718 3.45612 0.342042 0
M  V30 7312 C 674.672 4.25056 -0.501123 0
M  V30 7313 C 673.998 5.3329 0.388097 0
M  V30 7314 C 675.298 4.91814 -1.75831 0
M  V30 7315 H 676.992 2.71346 -1.26538 0
M  V30 7316 H 674.538 1.30446 -0.609903 0
M  V30 7317 H 676.491 4.15562 0.699 0
M  V30 7318 H 675.215 3.02858 1.22248 0
M  V30 7319 H 673.874 3.56833 -0.840598 0
M  V30 7320 H 673.522 4.8678 1.26707 0
M  V30 7321 H 673.222 5.87347 -0.172459 0
M  V30 7322 H 674.746 6.06088 0.74094 0
M  V30 7323 H 676.16 5.54126 -1.47026 0
M  V30 7324 H 674.557 5.55866 -2.26126 0
M  V30 7325 H 675.627 4.16313 -2.4862 0
M  V30 7326 N 676.97 0.677563 1.42291 0
M  V30 7327 C 677.933 0.0101085 2.29198 0
M  V30 7328 C 678.933 -0.726219 1.43467 0
M  V30 7329 O 680.123 -0.563807 1.64824 0
M  V30 7330 C 677.255 -0.996316 3.26016 0
M  V30 7331 H 678.448 0.775071 2.89711 0
M  V30 7332 H 676.001 0.440065 1.49977 0
M  V30 7333 H 676.736 -1.78967 2.70446 0
M  V30 7334 H 676.521 -0.471687 3.89253 0
M  V30 7335 H 678.011 -1.46167 3.91184 0
M  V30 7336 N 678.448 -1.51871 0.421078 0
M  V30 7337 C 679.358 -2.31077 -0.405069 0
M  V30 7338 C 680.374 -1.39301 -1.04265 0
M  V30 7339 O 681.55 -1.72376 -1.04157 0
M  V30 7340 C 678.615 -3.12556 -1.50032 0
M  V30 7341 C 677.676 -4.20088 -0.884559 0
M  V30 7342 C 676.909 -4.97673 -1.92762 0
M  V30 7343 O 677.132 -4.75696 -3.14753 0
M  V30 7344 O 676.066 -5.82203 -1.52719 0
M  V30 7345 H 679.892 -3.02742 0.241086 0
M  V30 7346 H 677.477 -1.48263 0.183991 0
M  V30 7347 H 679.359 -3.6326 -2.13589 0
M  V30 7348 H 678.034 -2.43672 -2.13086 0
M  V30 7349 H 676.941 -3.73502 -0.211379 0
M  V30 7350 H 678.274 -4.91298 -0.297763 0
M  V30 7351 N 679.926 -0.151884 -1.56866 0
M  V30 7352 C 681.203 0.543328 -1.87902 0
M  V30 7353 C 681.583 1.82636 -1.05864 0
M  V30 7354 O 680.931 2.28028 -0.146868 0
M  V30 7355 C 681.141 0.804056 -3.39611 0
M  V30 7356 C 682.489 1.14267 -4.08935 0
M  V30 7357 O 683.513 0.893248 -3.44818 0
M  V30 7358 O 682.372 1.61229 -5.22176 0
M  V30 7359 H 679.466 0.277724 -0.778973 0
M  V30 7360 H 682.012 -0.188862 -1.68646 0
M  V30 7361 H 680.784 -0.103772 -3.91162 0
M  V30 7362 H 680.407 1.59025 -3.64413 0
M  V30 7363 N 681.404 1.57128 0.121893 0
M  V30 7364 C 682.351 2.0013 1.14964 0
M  V30 7365 C 683.321 0.872959 1.4131 0
M  V30 7366 O 684.506 1.13696 1.53225 0
M  V30 7367 C 681.646 2.40824 2.4718 0
M  V30 7368 C 680.759 3.67061 2.27794 0
M  V30 7369 C 679.894 3.96749 3.53219 0
M  V30 7370 C 678.933 5.16178 3.28978 0
M  V30 7371 N 678.07 5.41751 4.46599 0
M  V30 7372 H 682.91 2.8772 0.775947 0
M  V30 7373 H 680.447 1.42328 0.371652 0
M  V30 7374 H 682.405 2.62454 3.24305 0
M  V30 7375 H 681.035 1.56279 2.82448 0
M  V30 7376 H 680.087 3.53063 1.416 0
M  V30 7377 H 681.399 4.5434 2.05857 0
M  V30 7378 H 680.553 4.19012 4.38764 0
M  V30 7379 H 679.292 3.07941 3.78185 0
M  V30 7380 H 678.297 4.93762 2.41824 0
M  V30 7381 H 679.522 6.06561 3.05386 0
M  V30 7382 H 677.468 4.55899 4.71691 0
M  V30 7383 H 677.385 6.23347 4.27756 0
M  V30 7384 H 678.653 5.68531 5.33285 0
M  V30 7385 N 682.882 -0.391992 1.52647 0
M  V30 7386 C 683.792 -1.503 1.80131 0
M  V30 7387 C 684.808 -1.59825 0.687882 0
M  V30 7388 O 685.984 -1.76218 0.975149 0
M  V30 7389 C 683.049 -2.85863 1.96171 0
M  V30 7390 C 682.11 -2.86084 3.20085 0
M  V30 7391 C 681.343 -4.15181 3.35351 0
M  V30 7392 O 681.566 -5.09981 2.55491 0
M  V30 7393 O 680.5 -4.22603 4.28591 0
M  V30 7394 H 684.326 -1.30007 2.74466 0
M  V30 7395 H 681.911 -0.579539 1.37701 0
M  V30 7396 H 683.793 -3.66236 2.08445 0
M  V30 7397 H 682.468 -3.06189 1.05025 0
M  V30 7398 H 681.375 -2.04504 3.13256 0
M  V30 7399 H 682.708 -2.7071 4.11068 0
M  V30 7400 N 684.36 -1.4356 -0.65026 0
M  V30 7401 C 685.307 -1.48948 -1.76304 0
M  V30 7402 C 686.277 -0.338919 -1.62605 0
M  V30 7403 O 687.462 -0.54649 -1.82806 0
M  V30 7404 C 684.602 -1.42131 -3.14472 0
M  V30 7405 C 683.715 -2.67415 -3.39284 0
M  V30 7406 C 682.85 -2.52565 -4.67316 0
M  V30 7407 C 681.889 -3.73103 -4.85243 0
M  V30 7408 N 681.026 -3.57046 -6.04535 0
M  V30 7409 H 685.866 -2.44032 -1.71034 0
M  V30 7410 H 683.403 -1.21131 -0.834601 0
M  V30 7411 H 685.361 -1.36172 -3.94351 0
M  V30 7412 H 683.991 -0.506273 -3.18805 0
M  V30 7413 H 683.043 -2.8364 -2.53481 0
M  V30 7414 H 684.355 -3.56943 -3.48415 0
M  V30 7415 H 683.509 -2.44331 -5.55326 0
M  V30 7416 H 682.248 -1.60566 -4.60511 0
M  V30 7417 H 681.253 -3.81743 -3.95667 0
M  V30 7418 H 682.478 -4.66115 -4.93876 0
M  V30 7419 H 680.424 -2.67783 -5.98856 0
M  V30 7420 H 680.341 -4.40178 -6.14638 0
M  V30 7421 H 681.609 -3.52669 -6.95158 0
M  V30 7422 N 685.838 0.888903 -1.30139 0
M  V30 7423 C 686.748 2.02705 -1.18101 0
M  V30 7424 C 687.764 1.73702 -0.101809 0
M  V30 7425 O 688.94 1.98906 -0.315984 0
M  V30 7426 C 686.005 3.35616 -0.869651 0
M  V30 7427 C 685.066 3.78067 -2.03381 0
M  V30 7428 C 684.299 5.04635 -1.73721 0
M  V30 7429 O 684.522 5.66531 -0.663267 0
M  V30 7430 O 683.456 5.43399 -2.58845 0
M  V30 7431 H 687.282 2.15788 -2.13704 0
M  V30 7432 H 684.867 1.01426 -1.09695 0
M  V30 7433 H 686.749 4.15358 -0.711043 0
M  V30 7434 H 685.424 3.23651 0.0565002 0
M  V30 7435 H 684.331 2.99046 -2.24772 0
M  V30 7436 H 685.664 3.94631 -2.94155 0
M  V30 7437 N 687.317 1.12792 1.10072 0
M  V30 7438 C 688.227 0.812369 2.20086 0
M  V30 7439 C 689.243 -0.200349 1.72843 0
M  V30 7440 O 690.419 -0.0330262 2.01373 0
M  V30 7441 C 687.484 0.275685 3.45602 0
M  V30 7442 C 686.545 1.34881 4.07561 0
M  V30 7443 C 685.778 0.837639 5.27086 0
M  V30 7444 O 686.001 -0.327224 5.69461 0
M  V30 7445 O 684.935 1.60894 5.79997 0
M  V30 7446 H 688.761 1.73133 2.49517 0
M  V30 7447 H 686.346 0.904863 1.18881 0
M  V30 7448 H 688.228 -0.0185375 4.21396 0
M  V30 7449 H 686.903 -0.615783 3.17789 0
M  V30 7450 H 685.81 1.69625 3.33434 0
M  V30 7451 H 687.143 2.21418 4.39585 0
M  V30 7452 N 688.795 -1.27931 0.920396 0
M  V30 7453 C 689.705 -2.30824 0.419212 0
M  V30 7454 C 690.721 -1.66767 -0.496461 0
M  V30 7455 O 691.897 -1.97763 -0.38104 0
M  V30 7456 C 688.962 -3.45158 -0.326601 0
M  V30 7457 C 688.023 -4.24754 0.623098 0
M  V30 7458 C 687.256 -5.33629 -0.0872172 0
M  V30 7459 O 687.479 -5.55204 -1.30784 0
M  V30 7460 O 686.413 -5.99091 0.580875 0
M  V30 7461 H 690.239 -2.75716 1.27337 0
M  V30 7462 H 687.824 -1.32747 0.685465 0
M  V30 7463 H 689.706 -4.14716 -0.747559 0
M  V30 7464 H 688.381 -3.02336 -1.15648 0
M  V30 7465 H 687.288 -3.57759 1.09359 0
M  V30 7466 H 688.621 -4.71272 1.41998 0
M  V30 7467 N 690.273 -0.685099 -1.4193 0
M  V30 7468 C 691.52 -0.211658 -2.01391 0
M  V30 7469 C 691.848 1.18526 -1.54214 0
M  V30 7470 O 691.103 1.81189 -0.739519 0
M  V30 7471 C 691.402 -0.206154 -3.56805 0
M  V30 7472 C 691.068 -1.54915 -4.23453 0
M  V30 7473 C 689.73 -1.91684 -4.41373 0
M  V30 7474 C 692.082 -2.43317 -4.60919 0
M  V30 7475 C 689.41 -3.16461 -4.94034 0
M  V30 7476 C 691.762 -3.67415 -5.14965 0
M  V30 7477 C 690.426 -4.04341 -5.31098 0
M  V30 7478 H 689.696 -0.0774511 -0.736941 0
M  V30 7479 H 692.343 -0.882121 -1.69973 0
M  V30 7480 H 690.648 0.547841 -3.87951 0
M  V30 7481 H 692.345 0.17753 -4.00607 0
M  V30 7482 H 688.935 -1.25314 -4.09871 0
M  V30 7483 H 693.119 -2.16192 -4.46738 0
M  V30 7484 H 688.375 -3.45078 -5.04709 0
M  V30 7485 H 692.549 -4.3611 -5.42938 0
M  V30 7486 H 690.176 -5.01101 -5.71666 0
M  V30 7487 N 691.751 1.51645 -0.429126 0
M  V30 7488 C 692.683 2.25279 0.422124 0
M  V30 7489 C 693.696 1.28986 0.993299 0
M  V30 7490 O 694.885 1.54797 0.888836 0
M  V30 7491 C 691.985 2.98666 1.60162 0
M  V30 7492 C 691.158 4.2199 1.15078 0
M  V30 7493 C 690.217 4.78028 2.19946 0
M  V30 7494 O 689.243 5.40084 1.79716 0
M  V30 7495 N 690.445 4.61342 3.5234 0
M  V30 7496 H 693.21 2.98971 -0.208931 0
M  V30 7497 H 690.771 1.59838 -0.257568 0
M  V30 7498 H 692.763 3.33044 2.29922 0
M  V30 7499 H 691.333 2.28036 2.13818 0
M  V30 7500 H 690.553 3.932 0.280552 0
M  V30 7501 H 691.841 5.02037 0.826831 0
M  V30 7502 H 691.239 4.11894 3.87763 0
M  V30 7503 H 689.796 5.00104 4.18019 0
M  V30 7504 N 693.229 0.160201 1.56784 0
M  V30 7505 C 694.161 -0.80564 2.14574 0
M  V30 7506 C 695.174 -1.20154 1.09849 0
M  V30 7507 O 696.363 -1.14333 1.37078 0
M  V30 7508 C 693.463 -2.09434 2.6644 0
M  V30 7509 C 692.636 -1.86375 3.95706 0
M  V30 7510 C 691.695 -2.99358 4.32749 0
M  V30 7511 O 690.721 -2.70475 5.00831 0
M  V30 7512 N 691.923 -4.26867 3.93402 0
M  V30 7513 H 694.688 -0.311644 2.98075 0
M  V30 7514 H 692.249 -0.0229465 1.61884 0
M  V30 7515 H 694.241 -2.84091 2.88226 0
M  V30 7516 H 692.811 -2.50057 1.8759 0
M  V30 7517 H 692.031 -0.956821 3.82412 0
M  V30 7518 H 693.319 -1.68322 4.80151 0
M  V30 7519 H 692.717 -4.53197 3.38569 0
M  V30 7520 H 691.274 -4.98263 4.20211 0
M  V30 7521 N 694.707 -1.5719 -0.113559 0
M  V30 7522 C 695.64 -1.9595 -1.16957 0
M  V30 7523 C 696.618 -0.829951 -1.39823 0
M  V30 7524 O 697.802 -1.08861 -1.53888 0
M  V30 7525 C 694.929 -2.2604 -2.52237 0
M  V30 7526 C 693.975 -3.48571 -2.45765 0
M  V30 7527 S 694.808 -5.00962 -1.89203 0
M  V30 7528 C 695.964 -5.3421 -3.26145 0
M  V30 7529 H 696.197 -2.85214 -0.839069 0
M  V30 7530 H 693.73 -1.51036 -0.320529 0
M  V30 7531 H 695.688 -2.44054 -3.30073 0
M  V30 7532 H 694.349 -1.3738 -2.82463 0
M  V30 7533 H 693.542 -3.67008 -3.45429 0
M  V30 7534 H 693.144 -3.29972 -1.76053 0
M  V30 7535 H 695.436 -5.29725 -4.22371 0
M  V30 7536 H 696.379 -6.35398 -3.12529 0
M  V30 7537 H 696.787 -4.61681 -3.24825 0
M  V30 7538 N 696.185 0.383891 -1.52853 0
M  V30 7539 C 697.115 1.47559 -1.80965 0
M  V30 7540 C 698.096 1.5669 -0.661986 0
M  V30 7541 O 699.281 1.71556 -0.910072 0
M  V30 7542 C 696.411 2.85114 -1.98312 0
M  V30 7543 C 695.365 2.9082 -3.14019 0
M  V30 7544 C 694.691 4.30873 -3.16627 0
M  V30 7545 C 695.991 2.60001 -4.52986 0
M  V30 7546 H 697.685 1.24283 -2.72386 0
M  V30 7547 H 695.231 0.596445 -1.31067 0
M  V30 7548 H 697.184 3.61496 -2.16561 0
M  V30 7549 H 695.908 3.09738 -1.03585 0
M  V30 7550 H 694.567 2.16886 -2.9556 0
M  V30 7551 H 694.215 4.52545 -2.19573 0
M  V30 7552 H 693.915 4.3561 -3.94357 0
M  V30 7553 H 695.439 5.09154 -3.37038 0
M  V30 7554 H 696.853 3.261 -4.71521 0
M  V30 7555 H 695.25 2.76081 -5.32822 0
M  V30 7556 H 696.32 1.5532 -4.59351 0
M  V30 7557 N 697.663 1.43903 0.642637 0
M  V30 7558 C 698.573 1.52349 1.78401 0
M  V30 7559 C 699.589 0.409869 1.69104 0
M  V30 7560 O 700.765 0.665548 1.90085 0
M  V30 7561 C 697.83 1.45408 3.14734 0
M  V30 7562 C 696.891 2.67528 3.35749 0
M  V30 7563 C 696.124 2.60909 4.65577 0
M  V30 7564 O 696.347 1.6627 5.45628 0
M  V30 7565 O 695.281 3.5158 4.88544 0
M  V30 7566 H 699.107 2.48752 1.7423 0
M  V30 7567 H 696.692 1.26021 0.802439 0
M  V30 7568 H 698.574 1.44019 3.96026 0
M  V30 7569 H 697.249 0.521437 3.19473 0
M  V30 7570 H 696.156 2.74487 2.5418 0
M  V30 7571 H 697.489 3.598 3.35864 0
M  V30 7572 N 699.141 -0.881989 1.30609 0
M  V30 7573 C 700.088 -1.98803 1.17244 0
M  V30 7574 C 701.058 -1.65987 0.0611905 0
M  V30 7575 O 702.243 -1.89385 0.231911 0
M  V30 7576 C 699.383 -3.33867 0.87333 0
M  V30 7577 C 698.496 -3.79354 2.06675 0
M  V30 7578 C 697.631 -5.03078 1.70547 0
M  V30 7579 C 696.67 -5.40981 2.86366 0
M  V30 7580 N 695.807 -6.55886 2.50514 0
M  V30 7581 H 700.647 -2.09566 2.11863 0
M  V30 7582 H 698.184 -1.02607 1.05405 0
M  V30 7583 H 700.142 -4.11612 0.680519 0
M  V30 7584 H 698.772 -3.2278 -0.0359983 0
M  V30 7585 H 697.824 -2.97492 2.37071 0
M  V30 7586 H 699.136 -4.03382 2.93401 0
M  V30 7587 H 698.29 -5.88457 1.47658 0
M  V30 7588 H 697.029 -4.80927 0.809947 0
M  V30 7589 H 696.034 -4.54127 3.09917 0
M  V30 7590 H 697.259 -5.65104 3.76609 0
M  V30 7591 H 695.205 -6.35306 1.63471 0
M  V30 7592 H 695.122 -6.79799 3.30771 0
M  V30 7593 H 696.39 -7.44489 2.30989 0
M  V30 7594 N 700.619 -1.13374 -1.09472 0
M  V30 7595 C 701.866 -0.89519 -1.81639 0
M  V30 7596 C 702.194 0.57868 -1.85692 0
M  V30 7597 O 701.449 1.44426 -1.32059 0
M  V30 7598 C 701.748 -1.42759 -3.2765 0
M  V30 7599 C 701.414 -2.91822 -3.43731 0
M  V30 7600 C 700.076 -3.32521 -3.47827 0
M  V30 7601 C 702.428 -3.87727 -3.48307 0
M  V30 7602 C 699.756 -4.6781 -3.54078 0
M  V30 7603 C 702.108 -5.22859 -3.56091 0
M  V30 7604 C 700.772 -5.63086 -3.58456 0
M  V30 7605 H 700.042 -0.327573 -0.664663 0
M  V30 7606 H 702.689 -1.4156 -1.28969 0
M  V30 7607 H 700.994 -0.827871 -3.82954 0
M  V30 7608 H 702.691 -1.2191 -3.8202 0
M  V30 7609 H 699.281 -2.5935 -3.41226 0
M  V30 7610 H 703.465 -3.57371 -3.44383 0
M  V30 7611 H 698.721 -4.98353 -3.54195 0
M  V30 7612 H 702.895 -5.96989 -3.58577 0
M  V30 7613 H 700.522 -6.67905 -3.63052 0
M  V30 7614 N 702.098 1.27442 -0.927168 0
M  V30 7615 C 703.045 2.26863 -0.424459 0
M  V30 7616 C 704.015 1.5813 0.508346 0
M  V30 7617 O 705.2 1.85946 0.42762 0
M  V30 7618 C 702.34 3.43639 0.31718 0
M  V30 7619 C 701.453 4.27087 -0.649675 0
M  V30 7620 C 700.588 5.31082 0.111753 0
M  V30 7621 C 699.627 6.062 -0.847843 0
M  V30 7622 N 698.764 7.01999 -0.119074 0
M  V30 7623 H 703.604 2.69239 -1.27728 0
M  V30 7624 H 701.141 1.32394 -0.641106 0
M  V30 7625 H 703.099 4.10155 0.763486 0
M  V30 7626 H 701.729 3.02217 1.13424 0
M  V30 7627 H 700.781 3.60491 -1.21451 0
M  V30 7628 H 702.093 4.79242 -1.38307 0
M  V30 7629 H 701.247 6.03544 0.618 0
M  V30 7630 H 699.986 4.7973 0.878114 0
M  V30 7631 H 698.991 5.32577 -1.36534 0
M  V30 7632 H 700.216 6.59642 -1.61398 0
M  V30 7633 H 698.162 6.52977 0.629051 0
M  V30 7634 H 698.079 7.5184 -0.792046 0
M  V30 7635 H 699.347 7.78638 0.366537 0
M  V30 7636 N 703.576 0.692616 1.41565 0
M  V30 7637 C 704.523 0.0254264 2.30786 0
M  V30 7638 C 705.493 -0.774347 1.46946 0
M  V30 7639 O 706.678 -0.742981 1.7574 0
M  V30 7640 C 703.818 -0.907123 3.32964 0
M  V30 7641 C 702.931 -0.0992784 4.31886 0
M  V30 7642 C 702.066 -1.0292 5.21134 0
M  V30 7643 C 701.105 -0.214088 6.11725 0
M  V30 7644 N 700.242 -1.09766 6.93467 0
M  V30 7645 H 705.082 0.792036 2.87282 0
M  V30 7646 H 702.619 0.4023 1.41492 0
M  V30 7647 H 704.577 -1.46181 3.90752 0
M  V30 7648 H 703.207 -1.64016 2.78026 0
M  V30 7649 H 702.259 0.572287 3.76071 0
M  V30 7650 H 703.571 0.532782 4.95946 0
M  V30 7651 H 702.725 -1.65321 5.83741 0
M  V30 7652 H 701.464 -1.69512 4.57293 0
M  V30 7653 H 700.469 0.42302 5.4817 0
M  V30 7654 H 701.694 0.447995 6.77621 0
M  V30 7655 H 699.64 -1.74965 6.32237 0
M  V30 7656 H 699.557 -0.521099 7.54202 0
M  V30 7657 H 700.825 -1.70858 7.60544 0
M  V30 7658 N 705.054 -1.51416 0.437162 0
M  V30 7659 C 706.004 -2.24599 -0.392311 0
M  V30 7660 C 706.988 -1.2682 -0.990221 0
M  V30 7661 O 708.18 -1.51912 -0.908391 0
M  V30 7662 C 705.309 -3.09134 -1.49301 0
M  V30 7663 C 704.395 -4.14342 -0.904503 0
M  V30 7664 N 704.786 -5.0578 -0.0451511 0
M  V30 7665 C 703.084 -4.30323 -1.1721 0
M  V30 7666 C 703.785 -5.81 0.285344 0
M  V30 7667 N 702.761 -5.42591 -0.330993 0
M  V30 7668 H 706.563 -2.92655 0.270221 0
M  V30 7669 H 704.077 -1.60476 0.249226 0
M  V30 7670 H 706.074 -3.6014 -2.10011 0
M  V30 7671 H 704.734 -2.42622 -2.15788 0
M  V30 7672 H 705.745 -5.16903 0.321271 0
M  V30 7673 H 702.422 -3.75037 -1.83448 0
M  V30 7674 H 703.812 -6.64646 0.984626 0
M  V30 7675 N 706.532 -0.168513 -1.56696 0
M  V30 7676 C 707.464 0.794249 -2.14998 0
M  V30 7677 C 708.477 1.1957 -1.10485 0
M  V30 7678 O 709.666 1.13604 -1.37682 0
M  V30 7679 C 706.766 2.08018 -2.67547 0
M  V30 7680 C 705.939 1.84274 -3.96689 0
M  V30 7681 C 704.998 2.97059 -4.3433 0
M  V30 7682 O 704.024 2.67815 -5.02259 0
M  V30 7683 N 705.226 4.24775 -3.9566 0
M  V30 7684 H 707.991 0.295832 -2.98236 0
M  V30 7685 H 705.552 0.0143611 -1.61894 0
M  V30 7686 H 707.544 2.82559 -2.89729 0
M  V30 7687 H 706.114 2.49059 -1.88914 0
M  V30 7688 H 705.334 0.936528 -3.82914 0
M  V30 7689 H 706.622 1.65773 -4.81037 0
M  V30 7690 H 706.02 4.51395 -3.40968 0
M  V30 7691 H 704.577 4.96027 -4.22848 0
M  V30 7692 N 708.01 1.57248 0.105221 0
M  V30 7693 C 708.92 2.04653 1.14693 0
M  V30 7694 C 709.936 0.969488 1.44489 0
M  V30 7695 O 711.112 1.28196 1.55331 0
M  V30 7696 C 708.177 2.45297 2.45011 0
M  V30 7697 C 707.238 3.67148 2.22489 0
M  V30 7698 C 706.471 4.05844 3.46592 0
M  V30 7699 O 706.694 3.44736 4.54437 0
M  V30 7700 O 705.628 4.98862 3.36779 0
M  V30 7701 H 709.454 2.93663 0.774336 0
M  V30 7702 H 707.039 1.45998 0.31701 0
M  V30 7703 H 708.921 2.72112 3.21766 0
M  V30 7704 H 707.596 1.59429 2.81717 0
M  V30 7705 H 706.503 3.45463 1.43547 0
M  V30 7706 H 707.836 4.53764 1.9068 0
M  V30 7707 N 709.488 -0.375779 1.53054 0
M  V30 7708 C 710.398 -1.48381 1.81715 0
M  V30 7709 C 711.414 -1.59087 0.704795 0
M  V30 7710 O 712.59 -1.75174 0.993785 0
M  V30 7711 C 709.655 -2.83767 1.99192 0
M  V30 7712 C 708.716 -2.82673 3.23102 0
M  V30 7713 C 707.949 -4.11601 3.39736 0
M  V30 7714 O 708.172 -5.07243 2.60885 0
M  V30 7715 O 707.106 -4.18034 4.33049 0
M  V30 7716 H 710.932 -1.27089 2.7583 0
M  V30 7717 H 708.517 -0.564902 1.38308 0
M  V30 7718 H 710.399 -3.64004 2.12318 0
M  V30 7719 H 709.074 -3.05057 1.08267 0
M  V30 7720 H 707.981 -2.0117 3.15407 0
M  V30 7721 H 709.314 -2.66335 4.13916 0
M  V30 7722 N 710.966 -1.44241 -0.634997 0
M  V30 7723 C 711.896 -1.53632 -1.7584 0
M  V30 7724 C 712.877 -0.389603 -1.65578 0
M  V30 7725 O 714.062 -0.609219 -1.84397 0
M  V30 7726 C 711.192 -1.47644 -3.14354 0
M  V30 7727 C 710.146 -2.60752 -3.394 0
M  V30 7728 C 709.472 -2.39817 -4.77904 0
M  V30 7729 C 710.772 -4.02921 -3.32343 0
M  V30 7730 H 712.466 -2.47662 -1.68238 0
M  V30 7731 H 710.012 -1.19197 -0.807969 0
M  V30 7732 H 711.965 -1.52815 -3.92716 0
M  V30 7733 H 710.689 -0.501284 -3.2273 0
M  V30 7734 H 709.348 -2.54965 -2.63417 0
M  V30 7735 H 708.996 -1.40502 -4.82978 0
M  V30 7736 H 708.696 -3.15649 -4.9562 0
M  V30 7737 H 710.22 -2.46799 -5.585 0
M  V30 7738 H 711.634 -4.10098 -4.00615 0
M  V30 7739 H 710.031 -4.78925 -3.61595 0
M  V30 7740 H 711.101 -4.26766 -2.30215 0
M  V30 7741 N 712.444 0.87505 -1.31075 0
M  V30 7742 C 713.354 2.01441 -1.20244 0
M  V30 7743 C 714.37 1.73584 -0.120227 0
M  V30 7744 O 715.546 1.98559 -0.337063 0
M  V30 7745 C 712.611 3.34675 -0.905199 0
M  V30 7746 C 711.672 3.75889 -2.0738 0
M  V30 7747 C 710.905 5.02764 -1.79064 0
M  V30 7748 O 711.128 5.65795 -0.723318 0
M  V30 7749 O 710.062 5.40623 -2.64594 0
M  V30 7750 H 713.888 2.13509 -2.1598 0
M  V30 7751 H 711.473 1.00257 -1.10765 0
M  V30 7752 H 713.355 4.1458 -0.755057 0
M  V30 7753 H 712.03 3.23692 0.0221695 0
M  V30 7754 H 710.937 2.96645 -2.27931 0
M  V30 7755 H 712.27 3.91489 -2.98324 0
M  V30 7756 N 713.922 1.13953 1.08869 0
M  V30 7757 C 714.869 0.82213 2.15661 0
M  V30 7758 C 715.839 -0.218274 1.6466 0
M  V30 7759 O 717.024 -0.0892475 1.90591 0
M  V30 7760 C 714.164 0.300572 3.43789 0
M  V30 7761 C 713.277 1.40071 4.08661 0
M  V30 7762 C 712.412 0.836897 5.24566 0
M  V30 7763 C 711.451 1.91504 5.81371 0
M  V30 7764 N 710.588 1.36875 6.88629 0
M  V30 7765 H 715.428 1.73683 2.42153 0
M  V30 7766 H 712.965 0.866879 1.18843 0
M  V30 7767 H 714.923 -0.0199943 4.17195 0
M  V30 7768 H 713.553 -0.577248 3.17597 0
M  V30 7769 H 712.605 1.83776 3.33062 0
M  V30 7770 H 713.917 2.21534 4.46905 0
M  V30 7771 H 713.071 0.467953 6.04893 0
M  V30 7772 H 711.81 -0.00874207 4.87699 0
M  V30 7773 H 710.815 2.29299 4.99702 0
M  V30 7774 H 712.04 2.76419 6.20298 0
M  V30 7775 H 709.986 0.545211 6.5373 0
M  V30 7776 H 709.903 2.1198 7.25672 0
M  V30 7777 H 711.171 1.02756 7.72698 0
M  V30 7778 N 715.4 -1.26948 0.933913 0
M  V30 7779 C 716.363 -2.24889 0.442457 0
M  V30 7780 C 717.363 -1.54594 -0.442426 0
M  V30 7781 O 718.553 -1.72502 -0.242629 0
M  V30 7782 C 715.685 -3.3896 -0.363173 0
M  V30 7783 H 716.878 -2.69879 1.30787 0
M  V30 7784 H 714.431 -1.38978 0.715187 0
M  V30 7785 H 715.166 -2.99361 -1.24714 0
M  V30 7786 H 714.951 -3.9116 0.271366 0
M  V30 7787 H 716.441 -4.11739 -0.697186 0
M  V30 7788 N 716.879 -0.700114 -1.41195 0
M  V30 7789 C 717.826 -0.0376652 -2.30769 0
M  V30 7790 C 718.796 0.766544 -1.47354 0
M  V30 7791 O 719.981 0.73365 -1.76131 0
M  V30 7792 C 717.121 0.889452 -3.33441 0
M  V30 7793 C 716.234 0.076373 -4.31932 0
M  V30 7794 C 715.369 1.00155 -5.21673 0
M  V30 7795 C 714.408 0.181644 -6.1183 0
M  V30 7796 N 713.545 1.06087 -6.94039 0
M  V30 7797 H 718.385 -0.80726 -2.86858 0
M  V30 7798 H 715.922 -0.409798 -1.41277 0
M  V30 7799 H 717.88 1.44107 -3.91522 0
M  V30 7800 H 716.51 1.6254 -2.78892 0
M  V30 7801 H 715.562 -0.592223 -3.75762 0
M  V30 7802 H 716.874 -0.559076 -4.95657 0
M  V30 7803 H 716.028 1.62223 -5.8461 0
M  V30 7804 H 714.767 1.67085 -4.58186 0
M  V30 7805 H 713.772 -0.452085 -5.47938 0
M  V30 7806 H 714.997 -0.483925 -6.77374 0
M  V30 7807 H 712.943 1.7161 -6.33156 0
M  V30 7808 H 712.86 0.481094 -7.54468 0
M  V30 7809 H 714.128 1.66822 -7.6144 0
M  V30 7810 N 718.357 1.51182 -0.445186 0
M  V30 7811 C 719.32 2.26501 0.350722 0
M  V30 7812 C 720.32 1.3025 0.942952 0
M  V30 7813 O 721.51 1.53897 0.816175 0
M  V30 7814 C 718.642 3.06274 1.49697 0
M  V30 7815 H 719.835 2.98299 -0.309474 0
M  V30 7816 H 717.388 1.55034 -0.198551 0
M  V30 7817 H 718.123 2.38911 2.19299 0
M  V30 7818 H 717.908 3.76979 1.0784 0
M  V30 7819 H 719.398 3.63306 2.05909 0
M  V30 7820 N 719.835 0.176821 1.56605 0
M  V30 7821 C 720.798 -0.737429 2.17013 0
M  V30 7822 C 721.798 -1.15414 1.11965 0
M  V30 7823 O 722.988 -1.0702 1.37449 0
M  V30 7824 C 720.12 -2.00445 2.75744 0
M  V30 7825 H 721.313 -0.211455 2.99154 0
M  V30 7826 H 718.866 -0.0727582 1.56131 0
M  V30 7827 H 719.601 -2.57338 1.97352 0
M  V30 7828 H 719.386 -1.71456 3.52626 0
M  V30 7829 H 720.876 -2.65679 3.22187 0
M  V30 7830 N 721.313 -1.57302 -0.09688 0
M  V30 7831 C 722.245 -1.98618 -1.14384 0
M  V30 7832 C 723.258 -0.888483 -1.36418 0
M  V30 7833 O 724.447 -1.16661 -1.35101 0
M  V30 7834 C 721.547 -2.28838 -2.49973 0
M  V30 7835 C 720.72 -3.60132 -2.48241 0
M  V30 7836 C 719.779 -3.7831 -3.65743 0
M  V30 7837 O 718.805 -4.50183 -3.48316 0
M  V30 7838 N 720.007 -3.18752 -4.85157 0
M  V30 7839 H 722.772 -2.8904 -0.792202 0
M  V30 7840 H 720.333 -1.59356 -0.285883 0
M  V30 7841 H 722.325 -2.38193 -3.27179 0
M  V30 7842 H 720.895 -1.44431 -2.77233 0
M  V30 7843 H 720.115 -3.61763 -1.56593 0
M  V30 7844 H 721.403 -4.46389 -2.4416 0
M  V30 7845 H 720.801 -2.60368 -5.0222 0
M  V30 7846 H 719.358 -3.33595 -5.59962 0
M  V30 7847 N 722.791 0.367657 -1.53252 0
M  V30 7848 C 723.754 1.43308 -1.78873 0
M  V30 7849 C 724.754 1.46671 -0.659115 0
M  V30 7850 O 725.944 1.47468 -0.927306 0
M  V30 7851 C 723.076 2.82442 -1.90892 0
M  V30 7852 H 724.269 1.21864 -2.74024 0
M  V30 7853 H 721.822 0.600668 -1.44297 0
M  V30 7854 H 722.557 3.09202 -0.978 0
M  V30 7855 H 722.342 2.81399 -2.73051 0
M  V30 7856 H 723.832 3.59601 -2.12314 0
M  V30 7857 N 724.269 1.44576 0.627338 0
M  V30 7858 C 725.199 1.54562 1.75022 0
M  V30 7859 C 726.18 0.398378 1.65369 0
M  V30 7860 O 727.365 0.61899 1.84071 0
M  V30 7861 C 724.495 1.49309 3.13567 0
M  V30 7862 C 723.449 2.62549 3.38012 0
M  V30 7863 C 722.775 2.42348 4.76625 0
M  V30 7864 C 724.075 4.04678 3.30202 0
M  V30 7865 H 725.769 2.4855 1.66922 0
M  V30 7866 H 723.315 1.19624 0.801636 0
M  V30 7867 H 725.268 1.54895 3.919 0
M  V30 7868 H 723.992 0.518392 3.2246 0
M  V30 7869 H 722.651 2.56358 2.62061 0
M  V30 7870 H 722.299 1.43062 4.82226 0
M  V30 7871 H 721.999 3.18273 4.93939 0
M  V30 7872 H 723.523 2.49758 5.57183 0
M  V30 7873 H 724.937 4.12217 3.98435 0
M  V30 7874 H 723.334 4.80836 3.5905 0
M  V30 7875 H 724.404 4.2798 2.27949 0
M  V30 7876 N 725.747 -0.868086 1.31537 0
M  V30 7877 C 726.657 -2.00801 1.21311 0
M  V30 7878 C 727.673 -1.73518 0.129431 0
M  V30 7879 O 728.849 -1.98378 0.347588 0
M  V30 7880 C 725.914 -3.3419 0.922935 0
M  V30 7881 C 724.975 -3.74783 2.0937 0
M  V30 7882 C 724.208 -5.01807 1.81728 0
M  V30 7883 O 724.431 -5.65404 0.753313 0
M  V30 7884 O 723.365 -5.39213 2.67457 0
M  V30 7885 H 727.191 -2.12361 2.17109 0
M  V30 7886 H 724.776 -0.996684 1.11295 0
M  V30 7887 H 726.658 -4.14174 0.777033 0
M  V30 7888 H 725.333 -3.237 -0.00500301 0
M  V30 7889 H 724.24 -2.95432 2.29501 0
M  V30 7890 H 725.573 -3.89902 3.00396 0
M  V30 7891 N 727.225 -1.14528 -1.08264 0
M  V30 7892 C 728.473 -0.912599 -1.80322 0
M  V30 7893 C 728.794 0.562256 -1.86718 0
M  V30 7894 O 728.064 1.40869 -1.36135 0
M  V30 7895 H 726.644 -0.334645 -0.667849 0
M  V30 7896 H 729.306 -1.44415 -1.30883 0
M  V30 7897 H 728.402 -1.31384 -2.83098 0
M  V30 7898 N 728.703 1.26451 -0.940633 0
M  V30 7899 C 729.951 1.93395 -0.586748 0
M  V30 7900 C 730.272 1.7417 0.876921 0
M  V30 7901 O 729.542 1.097 1.62304 0
M  V30 7902 H 728.122 0.715687 -0.214012 0
M  V30 7903 H 730.784 1.53902 -1.19584 0
M  V30 7904 H 729.88 3.01565 -0.804059 0
M  V30 7905 N 730.181 0.707592 1.40822 0
M  V30 7906 C 731.091 0.0507246 2.34545 0
M  V30 7907 C 732.107 -0.752727 1.56876 0
M  V30 7908 O 733.283 -0.687524 1.89302 0
M  V30 7909 C 730.348 -0.865731 3.35717 0
M  V30 7910 C 729.409 -0.0531313 4.29267 0
M  V30 7911 C 728.642 -0.925939 5.25606 0
M  V30 7912 O 728.865 -2.16531 5.27703 0
M  V30 7913 O 727.799 -0.369194 6.00767 0
M  V30 7914 H 731.625 0.823587 2.9232 0
M  V30 7915 H 729.21 0.46801 1.4188 0
M  V30 7916 H 731.092 -1.39091 3.97783 0
M  V30 7917 H 729.767 -1.61788 2.80368 0
M  V30 7918 H 728.674 0.516931 3.70511 0
M  V30 7919 H 730.007 0.660617 4.87747 0
M  V30 7920 N 731.66 -1.50943 0.453197 0
M  V30 7921 C 732.623 -2.26684 -0.338705 0
M  V30 7922 C 733.623 -1.30748 -0.936032 0
M  V30 7923 O 734.813 -1.54327 -0.808002 0
M  V30 7924 C 731.945 -3.07063 -1.48071 0
M  V30 7925 H 733.138 -2.98131 0.325289 0
M  V30 7926 H 730.691 -1.54926 0.206771 0
M  V30 7927 H 731.426 -2.4007 -2.18029 0
M  V30 7928 H 731.211 -3.77545 -1.0584 0
M  V30 7929 H 732.701 -3.64393 -2.0398 0
M  V30 7930 N 733.138 -0.185124 -1.56509 0
M  V30 7931 C 734.415 0.503348 -1.89013 0
M  V30 7932 C 734.795 1.80349 -1.09715 0
M  V30 7933 O 734.143 2.27665 -0.195203 0
M  V30 7934 C 734.353 0.731839 -3.41241 0
M  V30 7935 C 735.701 1.05568 -4.11267 0
M  V30 7936 O 736.725 0.819906 -3.46635 0
M  V30 7937 O 735.584 1.50116 -5.25478 0
M  V30 7938 H 732.678 0.261139 -0.784688 0
M  V30 7939 H 735.224 -0.224592 -1.68207 0
M  V30 7940 H 733.996 -0.18672 -3.90854 0
M  V30 7941 H 733.619 1.5126 -3.67704 0
M  V30 7942 N 734.616 1.57351 0.0885366 0
M  V30 7943 C 735.864 1.86051 0.789262 0
M  V30 7944 C 736.185 0.774763 1.78948 0
M  V30 7945 O 735.455 -0.198324 1.94894 0
M  V30 7946 H 734.035 0.686508 0.294475 0
M  V30 7947 H 736.697 1.94779 0.0686055 0
M  V30 7948 H 735.793 2.83007 1.31581 0
M  V30 7949 N 736.094 -0.359525 1.53444 0
M  V30 7950 C 737.371 -1.11756 1.6053 0
M  V30 7951 C 737.751 -2.06949 0.416587 0
M  V30 7952 O 737.099 -2.20681 -0.592628 0
M  V30 7953 C 737.309 -1.85133 2.95849 0
M  V30 7954 C 738.657 -2.3945 3.50641 0
M  V30 7955 O 739.681 -1.95251 2.97918 0
M  V30 7956 O 738.54 -3.20266 4.42823 0
M  V30 7957 H 735.634 -0.513005 0.648656 0
M  V30 7958 H 738.18 -0.362301 1.65787 0
M  V30 7959 H 736.952 -1.15694 3.73806 0
M  V30 7960 H 736.575 -2.67554 2.9411 0
M  V30 7961 N 737.572 -1.44907 -0.619662 0
M  V30 7962 C 738.983 -1.42905 -1.20146 0
M  V30 7963 C 739.334 -0.150341 -1.95623 0
M  V30 7964 O 738.459 0.748732 -2.03034 0
M  V30 7965 C 739.054 -2.58889 -2.18545 0
M  V30 7966 C 737.613 -2.60046 -2.72127 0
M  V30 7967 C 736.76 -2.3493 -1.4732 0
M  V30 7968 H 739.711 -1.53321 -0.409666 0
M  V30 7969 H 739.732 -2.32298 -3.0136 0
M  V30 7970 H 739.244 -3.51941 -1.63583 0
M  V30 7971 H 737.345 -1.70968 -3.3106 0
M  V30 7972 H 737.458 -3.58893 -3.17384 0
M  V30 7973 H 735.822 -1.84248 -1.75855 0
M  V30 7974 H 736.605 -3.3011 -0.942442 0
M  V30 7975 N 739.05 0.861098 -1.31996 0
M  V30 7976 C 740.013 1.95068 -1.20338 0
M  V30 7977 C 741.013 1.60289 -0.128114 0
M  V30 7978 O 742.203 1.70048 -0.378044 0
M  V30 7979 C 739.335 3.30153 -0.849205 0
M  V30 7980 H 740.528 2.06833 -2.17164 0
M  V30 7981 H 738.081 1.05049 -1.15734 0
M  V30 7982 H 738.816 3.24087 0.117508 0
M  V30 7983 H 738.601 3.56771 -1.62655 0
M  V30 7984 H 740.091 4.10025 -0.791782 0
M  V30 7985 N 740.528 1.15101 1.07655 0
M  V30 7986 C 741.478 0.813448 2.12995 0
M  V30 7987 C 742.462 -0.200899 1.59641 0
M  V30 7988 O 743.654 -0.00209918 1.77 0
M  V30 7989 C 740.783 0.301078 3.41977 0
M  V30 7990 C 739.869 1.3454 4.02194 0
M  V30 7991 N 740.26 2.55181 4.36711 0
M  V30 7992 C 738.558 1.19742 4.29625 0
M  V30 7993 C 739.259 3.22094 4.84387 0
M  V30 7994 N 738.235 2.49486 4.82968 0
M  V30 7995 H 742.037 1.73105 2.37511 0
M  V30 7996 H 739.551 1.03601 1.25063 0
M  V30 7997 H 741.548 0.040914 4.1688 0
M  V30 7998 H 740.208 -0.610629 3.18907 0
M  V30 7999 H 741.219 2.92349 4.27496 0
M  V30 8000 H 737.896 0.345353 4.16069 0
M  V30 8001 H 739.286 4.24996 5.20411 0
M  V30 8002 N 742.006 -1.2595 0.947325 0
M  V30 8003 C 743.254 -1.93081 0.596996 0
M  V30 8004 C 743.575 -1.74632 -0.867672 0
M  V30 8005 O 742.845 -1.1056 -1.6172 0
M  V30 8006 H 741.425 -0.714542 0.217805 0
M  V30 8007 H 744.087 -1.53265 1.20398 0
M  V30 8008 H 743.183 -3.01134 0.82004 0
M  V30 8009 N 743.484 -0.715051 -1.40445 0
M  V30 8010 C 744.431 -0.0621393 -2.30716 0
M  V30 8011 C 745.401 0.750871 -1.48159 0
M  V30 8012 O 746.586 0.714928 -1.76899 0
M  V30 8013 C 743.726 0.854036 -3.34365 0
M  V30 8014 C 742.839 0.0305565 -4.31989 0
M  V30 8015 C 741.974 0.946162 -5.22706 0
M  V30 8016 C 741.013 0.116741 -6.11989 0
M  V30 8017 N 740.15 0.987194 -6.95125 0
M  V30 8018 H 744.99 -0.83764 -2.85985 0
M  V30 8019 H 742.527 -0.424759 -1.40834 0
M  V30 8020 H 744.485 1.39946 -3.93028 0
M  V30 8021 H 743.115 1.59572 -2.806 0
M  V30 8022 H 742.167 -0.632044 -3.75112 0
M  V30 8023 H 743.479 -0.611615 -4.95036 0
M  V30 8024 H 742.633 1.56014 -5.86297 0
M  V30 8025 H 741.372 1.62216 -4.59932 0
M  V30 8026 H 740.377 -0.510176 -5.47428 0
M  V30 8027 H 741.602 -0.555742 -6.76822 0
M  V30 8028 H 739.548 1.64885 -6.3494 0
M  V30 8029 H 739.465 0.401046 -7.54936 0
M  V30 8030 H 740.733 1.58737 -7.63166 0
M  V30 8031 N 744.962 1.50701 -0.461195 0
M  V30 8032 C 746.239 1.94958 0.158296 0
M  V30 8033 C 746.619 1.40111 1.57899 0
M  V30 8034 O 745.967 0.597976 2.20537 0
M  V30 8035 C 746.177 3.48821 0.11172 0
M  V30 8036 C 747.525 4.23499 0.30552 0
M  V30 8037 O 748.549 3.557 0.188758 0
M  V30 8038 O 747.408 5.43823 0.540244 0
M  V30 8039 H 744.502 0.818674 0.117054 0
M  V30 8040 H 747.048 1.61508 -0.520888 0
M  V30 8041 H 745.82 3.81263 -0.880577 0
M  V30 8042 H 745.443 3.88781 0.832791 0
M  V30 8043 N 746.441 0.193421 1.56409 0
M  V30 8044 C 747.681 -0.447977 1.9943 0
M  V30 8045 C 748.045 -1.58915 1.07751 0
M  V30 8046 O 749.246 -2.29462 1.40002 0
M  V30 8047 C 747.517 -0.89793 3.45936 0
M  V30 8048 S 749.076 -1.5374 4.10986 0
M  V30 8049 H 745.894 -0.143316 0.696406 0
M  V30 8050 H 748.496 0.296093 1.93245 0
M  V30 8051 H 747.2 -0.0572927 4.1036 0
M  V30 8052 H 746.731 -1.67551 3.55936 0
M  V30 8053 H 748.746 -2.82612 4.07854 0
M  V30 8054 N 747.919 -1.57396 -0.0801906 0
M  V30 8055 C 748.867 -2.04136 -1.11495 0
M  V30 8056 C 749.861 -0.945137 -1.40583 0
M  V30 8057 O 751.067 -1.13028 -1.40088 0
M  V30 8058 H 747.442 -0.65076 -0.37685 0
M  V30 8059 H 749.413 -2.90205 -0.694526 0
M  V30 8060 C 748.162 -2.49399 -2.42272 0
M  V30 8061 H 747.485 -3.33339 -2.20737 0
M  V30 8062 H 748.925 -2.85864 -3.13142 0
M  V30 8063 C 747.384 -1.37341 -3.07635 0
M  V30 8064 O 747.914 -0.710829 -3.95361 0
M  V30 8065 N 746.12 -1.12064 -2.68123 0
M  V30 8066 H 745.667 -1.66126 -1.96875 0
M  V30 8067 H 745.625 -0.372916 -3.12181 0
M  V30 8068 N 749.397 0.351382 -1.53633 0
M  V30 8069 C 750.645 1.09034 -1.70165 0
M  V30 8070 C 750.966 1.89413 -0.463422 0
M  V30 8071 O 750.236 1.888 0.522624 0
M  V30 8072 H 748.816 0.405522 -0.627344 0
M  V30 8073 H 751.478 0.394554 -1.90865 0
M  V30 8074 H 750.574 1.77215 -2.56907 0
M  V30 8075 N 750.875 1.45233 0.611969 0
M  V30 8076 C 752.1 1.52767 1.40274 0
M  V30 8077 C 752.525 0.159701 1.87421 0
M  V30 8078 O 751.883 -0.854837 1.59882 0
M  V30 8079 C 751.931 2.51286 2.58626 0
M  V30 8080 O 751.035 2.02764 3.59111 0
M  V30 8081 H 750.376 0.515141 0.418958 0
M  V30 8082 H 752.906 1.90547 0.745188 0
M  V30 8083 H 752.916 2.69949 3.05927 0
M  V30 8084 H 751.591 3.50641 2.23659 0
M  V30 8085 H 750.168 1.93957 3.18489 0
M  V30 8086 N 752.353 -0.854086 1.3245 0
M  V30 8087 C 753.283 -1.97827 1.24044 0
M  V30 8088 C 754.264 -1.69646 0.124166 0
M  V30 8089 O 755.449 -1.91687 0.31143 0
M  V30 8090 C 752.579 -3.33673 0.963324 0
M  V30 8091 C 751.533 -3.76207 2.04089 0
M  V30 8092 C 750.859 -5.0969 1.61618 0
M  V30 8093 C 752.159 -3.91612 3.45597 0
M  V30 8094 H 753.853 -2.05118 2.18099 0
M  V30 8095 H 751.399 -0.985489 1.04996 0
M  V30 8096 H 753.352 -4.11871 0.891061 0
M  V30 8097 H 752.076 -3.26597 -0.0128649 0
M  V30 8098 H 750.735 -3.0026 2.10332 0
M  V30 8099 H 750.383 -4.99072 0.627418 0
M  V30 8100 H 750.083 -5.3912 2.33717 0
M  V30 8101 H 751.607 -5.90381 1.55829 0
M  V30 8102 H 753.021 -4.60163 3.4194 0
M  V30 8103 H 751.418 -4.3246 4.16051 0
M  V30 8104 H 752.488 -2.9451 3.85217 0
M  V30 8105 N 753.831 -1.1567 -1.07043 0
M  V30 8106 C 755.108 -0.843948 -1.76456 0
M  V30 8107 C 755.488 0.659806 -2.00524 0
M  V30 8108 O 754.836 1.60518 -1.62623 0
M  V30 8109 C 755.046 -1.65822 -3.0709 0
M  V30 8110 C 756.394 -1.8664 -3.8138 0
M  V30 8111 O 757.418 -1.62624 -3.1691 0
M  V30 8112 O 756.277 -2.26884 -4.97178 0
M  V30 8113 H 753.371 -0.310677 -0.766426 0
M  V30 8114 H 755.917 -1.26266 -1.1338 0
M  V30 8115 H 754.689 -2.67902 -2.85209 0
M  V30 8116 H 754.312 -1.23605 -3.77899 0
M  V30 8117 N 755.309 1.25446 -0.953992 0
M  V30 8118 C 756.537 1.97215 -0.625595 0
M  V30 8119 C 756.952 1.70911 0.802168 0
M  V30 8120 O 756.309 0.984782 1.5365 0
M  V30 8121 C 756.36 3.50777 -0.873943 0
M  V30 8122 O 756.081 3.76173 -2.24556 0
M  V30 8123 C 757.582 4.39776 -0.557845 0
M  V30 8124 H 754.802 0.628652 -0.2346 0
M  V30 8125 H 757.346 1.59632 -1.27819 0
M  V30 8126 H 755.501 3.86474 -0.267765 0
M  V30 8127 H 755.915 4.70636 -2.31522 0
M  V30 8128 H 757.389 5.46431 -0.782157 0
M  V30 8129 H 757.866 4.36257 0.507573 0
M  V30 8130 H 758.472 4.09644 -1.14332 0
M  V30 8131 N 756.787 0.722489 1.40064 0
M  V30 8132 C 758.012 0.273446 2.05589 0
M  V30 8133 C 758.437 -1.07875 1.54093 0
M  V30 8134 O 757.795 -1.68095 0.679252 0
M  V30 8135 C 757.843 0.271023 3.5958 0
M  V30 8136 O 756.947 -0.745499 4.05606 0
M  V30 8137 H 756.288 0.126856 0.65177 0
M  V30 8138 H 758.818 0.984906 1.79334 0
M  V30 8139 H 758.828 0.111084 4.07849 0
M  V30 8140 H 757.503 1.25776 3.96425 0
M  V30 8141 H 756.08 -0.552719 3.68781 0
M  V30 8142 N 758.265 -1.50454 0.469181 0
M  V30 8143 C 759.197 -2.26319 -0.362247 0
M  V30 8144 C 760.21 -1.31574 -0.958751 0
M  V30 8145 O 761.399 -1.57099 -0.847482 0
M  V30 8146 C 758.499 -3.02808 -1.52187 0
M  V30 8147 C 757.672 -4.24893 -1.03849 0
M  V30 8148 C 756.731 -4.83691 -2.07194 0
M  V30 8149 O 755.757 -5.44659 -1.65333 0
M  V30 8150 N 756.959 -4.70522 -3.39985 0
M  V30 8151 H 759.724 -2.98312 0.288124 0
M  V30 8152 H 757.285 -1.59099 0.299856 0
M  V30 8153 H 759.277 -3.39023 -2.21011 0
M  V30 8154 H 757.847 -2.33625 -2.07697 0
M  V30 8155 H 757.067 -3.93806 -0.176203 0
M  V30 8156 H 758.355 -5.04053 -0.693435 0
M  V30 8157 H 757.753 -4.2203 -3.76706 0
M  V30 8158 H 756.31 -5.11011 -4.04612 0
M  V30 8159 N 759.743 -0.201713 -1.56304 0
M  V30 8160 C 760.991 0.434447 -1.97375 0
M  V30 8161 C 761.312 1.61692 -1.08998 0
M  V30 8162 O 760.582 1.95223 -0.162682 0
M  V30 8163 H 759.162 0.163497 -0.728888 0
M  V30 8164 H 761.824 -0.289988 -1.92731 0
M  V30 8165 H 760.92 0.774136 -3.02347 0
M  V30 8166 N 761.222 1.57436 0.0718424 0
M  V30 8167 C 762.132 2.07039 1.10326 0
M  V30 8168 C 763.148 0.999918 1.424 0
M  V30 8169 O 764.324 1.31462 1.52577 0
M  V30 8170 C 761.389 2.50439 2.39752 0
M  V30 8171 C 760.45 3.71784 2.14651 0
M  V30 8172 C 759.683 4.13104 3.37906 0
M  V30 8173 O 759.906 3.54298 4.47023 0
M  V30 8174 O 758.84 5.05894 3.26121 0
M  V30 8175 H 762.666 2.95239 0.711872 0
M  V30 8176 H 760.251 1.46638 0.28597 0
M  V30 8177 H 762.133 2.78876 3.15921 0
M  V30 8178 H 760.808 1.65368 2.78271 0
M  V30 8179 H 759.715 3.48431 1.36187 0
M  V30 8180 H 761.048 4.57707 1.81012 0
M  V30 8181 N 762.7 -0.34323 1.53817 0
M  V30 8182 C 763.647 -1.42153 1.81827 0
M  V30 8183 C 764.617 -1.52251 0.663996 0
M  V30 8184 O 765.802 -1.67784 0.908461 0
M  V30 8185 C 762.942 -2.78799 2.03384 0
M  V30 8186 C 762.055 -2.7749 3.31094 0
M  V30 8187 C 761.19 -4.05856 3.42717 0
M  V30 8188 C 760.229 -3.98776 4.64375 0
M  V30 8189 N 759.366 -5.18833 4.73029 0
M  V30 8190 H 764.206 -1.17567 2.73829 0
M  V30 8191 H 761.743 -0.569506 1.35628 0
M  V30 8192 H 763.701 -3.58211 2.13872 0
M  V30 8193 H 762.331 -3.01736 1.14696 0
M  V30 8194 H 761.383 -1.90182 3.29446 0
M  V30 8195 H 762.695 -2.68137 4.206 0
M  V30 8196 H 761.849 -4.93691 3.52638 0
M  V30 8197 H 760.588 -4.1799 2.51267 0
M  V30 8198 H 759.593 -3.09325 4.5453 0
M  V30 8199 H 760.818 -3.88224 5.57189 0
M  V30 8200 H 758.764 -5.31511 3.84489 0
M  V30 8201 H 758.681 -5.11737 5.56472 0
M  V30 8202 H 759.949 -6.08439 4.87261 0
M  V30 8203 N 764.178 -1.45556 -0.604258 0
M  V30 8204 C 765.426 -1.4945 -1.36048 0
M  V30 8205 C 765.747 -0.138933 -1.94504 0
M  V30 8206 O 765.017 0.832097 -1.7735 0
M  V30 8207 H 763.597 -0.550381 -0.505064 0
M  V30 8208 H 766.259 -1.81535 -0.709308 0
M  V30 8209 H 765.355 -2.23519 -2.17821 0
M  V30 8210 N 765.656 0.84705 -1.32902 0
M  V30 8211 C 766.619 1.9378 -1.224 0
M  V30 8212 C 767.619 1.60144 -0.145108 0
M  V30 8213 O 768.809 1.69638 -0.396058 0
M  V30 8214 C 765.941 3.29234 -0.884174 0
M  V30 8215 H 767.134 2.04518 -2.19345 0
M  V30 8216 H 764.687 1.03816 -1.16842 0
M  V30 8217 H 765.422 3.24193 0.0831277 0
M  V30 8218 H 765.207 3.55026 -1.6643 0
M  V30 8219 H 766.697 4.09162 -0.835226 0
M  V30 8220 N 767.134 1.16236 1.06428 0
M  V30 8221 C 768.545 0.950942 1.60667 0
M  V30 8222 C 768.896 -0.505491 1.89576 0
M  V30 8223 O 768.021 -1.37843 1.66818 0
M  V30 8224 C 768.616 1.71982 2.91904 0
M  V30 8225 C 767.175 1.55342 3.4285 0
M  V30 8226 C 766.322 1.72942 2.16763 0
M  V30 8227 H 769.273 1.31126 0.893959 0
M  V30 8228 H 769.294 1.19483 3.61253 0
M  V30 8229 H 768.806 2.77978 2.70831 0
M  V30 8230 H 766.907 0.5178 3.68985 0
M  V30 8231 H 767.02 2.33643 4.18267 0
M  V30 8232 H 765.384 1.15673 2.26918 0
M  V30 8233 H 766.167 2.80324 1.98175 0
M  V30 8234 N 768.612 -1.24939 0.960631 0
M  V30 8235 C 770.028 -1.45039 0.666018 0
M  V30 8236 C 770.228 -1.86021 -0.774501 0
M  V30 8237 O 769.284 -1.99392 -1.54916 0
M  V30 8238 C 770.597 -2.51775 1.64408 0
M  V30 8239 C 772.145 -2.6561 1.65592 0
M  V30 8240 C 772.62 -3.75536 2.62177 0
M  V30 8241 N 774.111 -3.82954 2.60577 0
M  V30 8242 C 774.846 -4.67517 3.31987 0
M  V30 8243 N 774.342 -5.56321 4.1289 0
M  V30 8244 N 776.135 -4.61535 3.20845 0
M  V30 8245 H 768.286 -0.96632 1.89145 0
M  V30 8246 H 770.549 -0.486034 0.813926 0
M  V30 8247 H 770.255 -2.28534 2.67329 0
M  V30 8248 H 770.129 -3.49804 1.41128 0
M  V30 8249 H 772.516 -2.88212 0.633846 0
M  V30 8250 H 772.597 -1.67962 1.92931 0
M  V30 8251 H 772.241 -3.53684 3.64514 0
M  V30 8252 H 772.171 -4.72682 2.32119 0
M  V30 8253 H 774.662 -3.19478 2.01847 0
M  V30 8254 H 774.975 -6.17787 4.64283 0
M  V30 8255 H 773.32 -5.5601 4.16987 0
M  V30 8256 H 776.511 -3.91169 2.57108 0
M  V30 8257 H 776.684 -5.27214 3.76762 0
M  V30 8258 N 770.09 -0.729906 -1.39679 0
M  V30 8259 C 771.022 -0.0470588 -2.29152 0
M  V30 8260 C 772.035 0.708808 -1.4656 0
M  V30 8261 O 773.224 0.553815 -1.69691 0
M  V30 8262 C 770.324 0.957612 -3.25089 0
M  V30 8263 C 769.497 0.264321 -4.36601 0
M  V30 8264 C 768.556 1.17638 -5.12882 0
M  V30 8265 O 767.582 0.655777 -5.6541 0
M  V30 8266 N 768.784 2.50649 -5.23598 0
M  V30 8267 H 771.549 -0.815364 -2.88395 0
M  V30 8268 H 769.11 -0.578707 -1.51204 0
M  V30 8269 H 771.102 1.57026 -3.72995 0
M  V30 8270 H 769.672 1.62716 -2.66912 0
M  V30 8271 H 768.892 -0.528732 -3.90638 0
M  V30 8272 H 770.18 -0.216344 -5.0834 0
M  V30 8273 H 769.578 2.95427 -4.82431 0
M  V30 8274 H 768.135 3.07022 -5.74961 0
M  V30 8275 N 771.568 1.50203 -0.477153 0
M  V30 8276 C 772.793 2.07263 0.0754986 0
M  V30 8277 C 773.218 1.33801 1.32208 0
M  V30 8278 O 772.576 0.387482 1.77111 0
M  V30 8279 C 772.624 3.59028 0.336348 0
M  V30 8280 O 771.728 3.87339 1.4157 0
M  V30 8281 H 771.069 0.663815 -0.015662 0
M  V30 8282 H 773.599 1.93321 -0.669936 0
M  V30 8283 H 773.609 4.03927 0.575034 0
M  V30 8284 H 772.284 4.11912 -0.574551 0
M  V30 8285 H 770.861 3.54272 1.16385 0
M  V30 8286 N 773.046 0.209999 1.56195 0
M  V30 8287 C 774.271 -0.433064 2.02828 0
M  V30 8288 C 774.696 -1.5337 1.08901 0
M  V30 8289 O 774.054 -1.81144 0.0751132 0
M  V30 8290 C 774.102 -0.952635 3.47789 0
M  V30 8291 O 773.206 -2.0647 3.56993 0
M  V30 8292 H 772.547 -0.0994594 0.656509 0
M  V30 8293 H 775.077 0.32525 2.01998 0
M  V30 8294 H 775.087 -1.26542 3.8788 0
M  V30 8295 H 773.762 -0.147007 4.1564 0
M  V30 8296 H 772.339 -1.75942 3.28784 0
M  V30 8297 N 774.524 -1.57472 -0.0634922 0
M  V30 8298 C 775.749 -1.92273 -0.77756 0
M  V30 8299 C 776.174 -0.807141 -1.69902 0
M  V30 8300 O 775.532 0.239523 -1.79711 0
M  V30 8301 C 775.58 -3.26054 -1.54017 0
M  V30 8302 O 774.684 -3.15873 -2.65138 0
M  V30 8303 H 774.025 -0.629389 -0.211579 0
M  V30 8304 H 776.555 -2.04579 -0.0292523 0
M  V30 8305 H 776.565 -3.60127 -1.91763 0
M  V30 8306 H 775.24 -4.06824 -0.864128 0
M  V30 8307 H 773.817 -2.93373 -2.30189 0
M  V30 8308 N 776.003 0.335068 -1.53997 0
M  V30 8309 C 777.251 1.07223 -1.71312 0
M  V30 8310 C 777.572 1.88911 -0.483486 0
M  V30 8311 O 776.842 1.89344 0.50257 0
M  V30 8312 H 775.422 0.398846 -0.63161 0
M  V30 8313 H 778.084 0.374288 -1.91272 0
M  V30 8314 H 777.18 1.7448 -2.58772 0
M  V30 8315 N 777.481 1.45874 0.596531 0
M  V30 8316 C 778.758 1.40942 1.35627 0
M  V30 8317 C 779.138 0.0857066 2.10926 0
M  V30 8318 O 778.486 -0.932544 2.08605 0
M  V30 8319 C 778.696 2.63027 2.29386 0
M  V30 8320 C 780.044 3.08588 2.91649 0
M  V30 8321 O 781.068 2.63478 2.39704 0
M  V30 8322 O 779.927 3.86902 3.85965 0
M  V30 8323 H 777.021 0.559838 0.608696 0
M  V30 8324 H 779.567 1.5802 0.618698 0
M  V30 8325 H 778.339 3.5094 1.7308 0
M  V30 8326 H 777.962 2.48338 3.10506 0
M  V30 8327 N 778.959 -0.83999 1.33349 0
M  V30 8328 C 780.184 -1.63249 1.27924 0
M  V30 8329 C 780.609 -1.87523 -0.147193 0
M  V30 8330 O 779.967 -1.43853 -1.10345 0
M  V30 8331 C 780.015 -2.96046 2.05886 0
M  V30 8332 O 779.119 -3.87303 1.4167 0
M  V30 8333 H 778.46 -0.49715 0.440157 0
M  V30 8334 H 780.99 -1.04512 1.75893 0
M  V30 8335 H 781 -3.45752 2.16609 0
M  V30 8336 H 779.675 -2.77701 3.09605 0
M  V30 8337 H 778.252 -3.45789 1.39585 0
M  V30 8338 N 780.437 -1.16799 -1.0581 0
M  V30 8339 C 781.685 -0.950642 -1.78346 0
M  V30 8340 C 782.006 0.522524 -1.87869 0
M  V30 8341 O 781.276 1.3795 -1.39092 0
M  V30 8342 H 779.856 -0.348736 -0.6606 0
M  V30 8343 H 782.518 -1.47158 -1.27791 0
M  V30 8344 H 781.614 -1.37359 -2.80248 0
M  V30 8345 N 781.915 1.24427 -0.967243 0
M  V30 8346 C 783.164 1.91789 -0.624478 0
M  V30 8347 C 783.477 1.76448 0.844129 0
M  V30 8348 O 784.683 2.38495 1.2974 0
M  V30 8349 C 783.139 3.43743 -1.06626 0
M  V30 8350 C 782.747 3.67771 -2.55829 0
M  V30 8351 C 784.491 4.16958 -0.79662 0
M  V30 8352 C 782.398 5.13293 -2.93742 0
M  V30 8353 H 781.328 0.71811 -0.229856 0
M  V30 8354 H 783.979 1.41081 -1.17339 0
M  V30 8355 H 782.361 3.93484 -0.445663 0
M  V30 8356 H 783.535 3.28631 -3.23015 0
M  V30 8357 H 781.85 3.07841 -2.80398 0
M  V30 8358 H 784.447 5.24171 -1.05589 0
M  V30 8359 H 784.79 4.15442 0.267163 0
M  V30 8360 H 785.323 3.73164 -1.37816 0
M  V30 8361 H 782.062 5.19931 -3.9919 0
M  V30 8362 H 781.582 5.53433 -2.3124 0
M  V30 8363 H 783.261 5.81521 -2.83623 0
M  V30 8364 N 783.393 0.737304 1.3929 0
M  V30 8365 C 784.618 0.295237 2.05288 0
M  V30 8366 C 785.043 -1.06235 1.55228 0
M  V30 8367 O 784.401 -1.67365 0.697043 0
M  V30 8368 C 784.449 0.309146 3.59272 0
M  V30 8369 O 783.553 -0.702437 4.06374 0
M  V30 8370 H 782.894 0.133762 0.650387 0
M  V30 8371 H 785.424 1.00387 1.78279 0
M  V30 8372 H 785.434 0.154336 4.07708 0
M  V30 8373 H 784.109 1.29974 3.95069 0
M  V30 8374 H 782.686 -0.513574 3.69346 0
M  V30 8375 N 784.871 -1.49948 0.485112 0
M  V30 8376 C 786.148 -1.95186 -0.12726 0
M  V30 8377 C 786.528 -1.42605 -1.5565 0
M  V30 8378 O 785.876 -0.632986 -2.19558 0
M  V30 8379 C 786.086 -3.48955 -0.0562117 0
M  V30 8380 C 787.434 -4.23932 -0.238106 0
M  V30 8381 O 788.458 -3.55955 -0.132145 0
M  V30 8382 O 787.317 -5.44614 -0.453658 0
M  V30 8383 H 784.411 -0.820433 -0.104014 0
M  V30 8384 H 786.957 -1.60659 0.546517 0
M  V30 8385 H 785.729 -3.79814 0.941122 0
M  V30 8386 H 785.352 -3.90056 -0.770834 0
M  V30 8387 N 786.349 -0.21828 -1.56081 0
M  V30 8388 C 787.312 0.679633 -2.18892 0
M  V30 8389 C 788.312 1.12405 -1.14986 0
M  V30 8390 O 789.502 1.03339 -1.40238 0
M  V30 8391 C 786.634 1.93063 -2.80962 0
M  V30 8392 H 787.827 0.132066 -2.99609 0
M  V30 8393 H 785.38 0.0313374 -1.56269 0
M  V30 8394 H 786.115 2.52015 -2.04106 0
M  V30 8395 H 785.9 1.62046 -3.57048 0
M  V30 8396 H 787.39 2.57043 -3.29118 0
M  V30 8397 N 787.827 1.57504 0.0551401 0
M  V30 8398 C 788.76 2.00155 1.09604 0
M  V30 8399 C 789.738 0.881274 1.36647 0
M  V30 8400 O 790.922 1.14498 1.49742 0
M  V30 8401 C 788.049 2.35246 2.43674 0
M  V30 8402 C 787.095 3.57452 2.32659 0
M  V30 8403 S 787.928 5.07639 1.7048 0
M  V30 8404 C 789.084 5.45947 3.06093 0
M  V30 8405 H 789.317 2.88131 0.732635 0
M  V30 8406 H 786.85 1.52122 0.264252 0
M  V30 8407 H 788.808 2.56136 3.20787 0
M  V30 8408 H 787.469 1.47769 2.7717 0
M  V30 8409 H 786.662 3.79576 3.31569 0
M  V30 8410 H 786.264 3.36279 1.63685 0
M  V30 8411 H 788.556 5.45036 4.0242 0
M  V30 8412 H 789.499 6.4656 2.88732 0
M  V30 8413 H 789.907 4.73419 3.07466 0
M  V30 8414 N 789.305 -0.326896 1.54172 0
M  V30 8415 C 790.215 -1.42525 1.86343 0
M  V30 8416 C 791.231 -1.56764 0.75505 0
M  V30 8417 O 792.407 -1.71924 1.04901 0
M  V30 8418 C 789.472 -2.77286 2.08119 0
M  V30 8419 C 788.533 -2.7225 3.31931 0
M  V30 8420 C 787.766 -4.00584 3.52659 0
M  V30 8421 O 787.989 -4.98686 2.76891 0
M  V30 8422 O 786.923 -4.04045 4.46129 0
M  V30 8423 H 790.749 -1.18249 2.79734 0
M  V30 8424 H 788.334 -0.520614 1.40036 0
M  V30 8425 H 790.216 -3.57065 2.23791 0
M  V30 8426 H 788.891 -3.01459 1.17917 0
M  V30 8427 H 787.798 -1.91033 3.21647 0
M  V30 8428 H 789.131 -2.53032 4.2218 0
M  V30 8429 N 790.784 -1.46188 -0.588786 0
M  V30 8430 C 791.694 -1.58865 -1.72624 0
M  V30 8431 C 792.71 -0.472348 -1.67466 0
M  V30 8432 O 793.886 -0.735638 -1.87484 0
M  V30 8433 C 790.951 -1.56989 -3.0912 0
M  V30 8434 C 790.012 -2.79804 -3.25589 0
M  V30 8435 C 789.245 -2.78009 -4.55573 0
M  V30 8436 O 789.468 -1.86406 -5.39082 0
M  V30 8437 O 788.402 -3.6947 -4.75159 0
M  V30 8438 H 792.228 -2.55047 -1.64878 0
M  V30 8439 H 789.813 -1.28912 -0.755115 0
M  V30 8440 H 791.695 -1.58618 -3.90408 0
M  V30 8441 H 790.37 -0.639648 -3.17317 0
M  V30 8442 H 789.277 -2.83732 -2.43818 0
M  V30 8443 H 790.61 -3.72017 -3.22279 0
M  V30 8444 N 792.262 0.832906 -1.33792 0
M  V30 8445 C 793.192 1.95828 -1.27176 0
M  V30 8446 C 794.173 1.69427 -0.15114 0
M  V30 8447 O 795.358 1.91167 -0.341886 0
M  V30 8448 C 792.488 3.32098 -1.01629 0
M  V30 8449 C 791.442 3.72912 -2.10049 0
M  V30 8450 C 790.768 5.07054 -1.69706 0
M  V30 8451 C 792.068 3.86064 -3.51783 0
M  V30 8452 H 793.762 2.01622 -2.21334 0
M  V30 8453 H 791.308 0.96866 -1.0655 0
M  V30 8454 H 793.261 4.10402 -0.956474 0
M  V30 8455 H 791.985 3.26577 -0.0390956 0
M  V30 8456 H 790.644 2.96876 -2.15082 0
M  V30 8457 H 790.292 4.9801 -0.706737 0
M  V30 8458 H 789.992 5.35333 -2.42264 0
M  V30 8459 H 791.516 5.87827 -1.65202 0
M  V30 8460 H 792.93 4.54665 -3.49218 0
M  V30 8461 H 791.327 4.25787 -4.22878 0
M  V30 8462 H 792.397 2.88344 -3.89854 0
M  V30 8463 N 793.74 1.17359 1.05189 0
M  V30 8464 C 794.65 0.904984 2.16442 0
M  V30 8465 C 795.666 -0.12686 1.73537 0
M  V30 8466 O 796.842 0.0524127 2.01332 0
M  V30 8467 C 793.907 0.422019 3.44122 0
M  V30 8468 C 792.968 1.52045 4.01473 0
M  V30 8469 C 792.201 1.06044 5.23059 0
M  V30 8470 O 792.424 -0.0854023 5.70336 0
M  V30 8471 O 791.358 1.85349 5.72651 0
M  V30 8472 H 795.184 1.8356 2.41949 0
M  V30 8473 H 792.769 0.95447 1.14936 0
M  V30 8474 H 794.651 0.160208 4.21095 0
M  V30 8475 H 793.326 -0.480444 3.20115 0
M  V30 8476 H 792.233 1.83615 3.25939 0
M  V30 8477 H 793.566 2.39863 4.29798 0
M  V30 8478 N 795.218 -1.23913 0.973828 0
M  V30 8479 C 796.128 -2.28838 0.516735 0
M  V30 8480 C 797.144 -1.68723 -0.425282 0
M  V30 8481 O 798.32 -1.99201 -0.296819 0
M  V30 8482 C 795.385 -3.46233 -0.179914 0
M  V30 8483 C 794.446 -4.21729 0.80269 0
M  V30 8484 C 793.679 -5.33518 0.139191 0
M  V30 8485 O 793.902 -5.60252 -1.07118 0
M  V30 8486 O 792.836 -5.96088 0.834447 0
M  V30 8487 H 796.662 -2.70067 1.38916 0
M  V30 8488 H 794.247 -1.2972 0.74115 0
M  V30 8489 H 796.129 -4.17514 -0.570991 0
M  V30 8490 H 794.804 -3.06969 -1.02721 0
M  V30 8491 H 793.711 -3.52799 1.24434 0
M  V30 8492 H 795.044 -4.64825 1.61859 0
M  V30 8493 N 796.696 -0.74468 -1.38897 0
M  V30 8494 C 797.659 -0.11945 -2.28889 0
M  V30 8495 C 798.659 0.656942 -1.46768 0
M  V30 8496 O 799.849 0.484525 -1.67326 0
M  V30 8497 C 796.981 0.839635 -3.30398 0
M  V30 8498 H 798.174 -0.912414 -2.85683 0
M  V30 8499 H 795.727 -0.511119 -1.47707 0
M  V30 8500 H 796.462 1.6586 -2.78677 0
M  V30 8501 H 796.247 0.285432 -3.9106 0
M  V30 8502 H 797.737 1.27337 -3.97712 0
M  V30 8503 N 798.174 1.49689 -0.493057 0
M  V30 8504 C 799.124 2.25901 0.308682 0
M  V30 8505 C 800.108 1.30408 0.94247 0
M  V30 8506 O 801.3 1.55179 0.851384 0
M  V30 8507 C 798.429 3.14463 1.37725 0
M  V30 8508 C 797.515 4.17414 0.7501 0
M  V30 8509 N 797.906 5.05599 -0.142597 0
M  V30 8510 C 796.204 4.34377 1.01159 0
M  V30 8511 C 796.905 5.7954 -0.500782 0
M  V30 8512 N 795.881 5.43446 0.129386 0
M  V30 8513 H 799.683 2.91451 -0.378652 0
M  V30 8514 H 797.197 1.59441 -0.308614 0
M  V30 8515 H 799.194 3.67687 1.965 0
M  V30 8516 H 797.854 2.50464 2.06635 0
M  V30 8517 H 798.865 5.15354 -0.512894 0
M  V30 8518 H 795.542 3.81588 1.69402 0
M  V30 8519 H 796.932 6.60534 -1.23063 0
M  V30 8520 N 799.652 0.226554 1.55963 0
M  V30 8521 C 800.584 -0.713907 2.17798 0
M  V30 8522 C 801.597 -1.15387 1.14846 0
M  V30 8523 O 802.786 -1.08416 1.41804 0
M  V30 8524 C 799.886 -1.97945 2.75084 0
M  V30 8525 C 799.059 -1.69424 4.03255 0
M  V30 8526 C 798.118 -2.80734 4.45056 0
M  V30 8527 O 797.144 -2.4899 5.11852 0
M  V30 8528 N 798.346 -4.09797 4.11152 0
M  V30 8529 H 801.111 -0.18494 2.99129 0
M  V30 8530 H 798.672 0.0457346 1.61835 0
M  V30 8531 H 800.664 -2.71611 3.00016 0
M  V30 8532 H 799.234 -2.41876 1.98027 0
M  V30 8533 H 798.454 -0.793767 3.86126 0
M  V30 8534 H 799.742 -1.47806 4.86858 0
M  V30 8535 H 799.14 -4.38429 3.57486 0
M  V30 8536 H 797.697 -4.79992 4.40966 0
M  V30 8537 N 801.13 -1.57531 -0.0467866 0
M  V30 8538 C 802.077 -2.05387 -1.05285 0
M  V30 8539 C 803.047 -0.939385 -1.36985 0
M  V30 8540 O 804.232 -1.20877 -1.47626 0
M  V30 8541 C 801.372 -2.52343 -2.35408 0
M  V30 8542 C 800.485 -3.77512 -2.10022 0
M  V30 8543 C 799.62 -4.1315 -3.33887 0
M  V30 8544 C 798.659 -5.31286 -3.03976 0
M  V30 8545 N 797.796 -5.62441 -4.20243 0
M  V30 8546 H 802.636 -2.91095 -0.637788 0
M  V30 8547 H 800.173 -1.43939 -0.303322 0
M  V30 8548 H 802.131 -2.77628 -3.11413 0
M  V30 8549 H 800.761 -1.69577 -2.7467 0
M  V30 8550 H 799.813 -3.59417 -1.24594 0
M  V30 8551 H 801.125 -4.63644 -1.83945 0
M  V30 8552 H 800.279 -4.39469 -4.18273 0
M  V30 8553 H 799.018 -3.25634 -3.63062 0
M  V30 8554 H 798.023 -5.04738 -2.17991 0
M  V30 8555 H 799.248 -6.20441 -2.76098 0
M  V30 8556 H 797.194 -4.77885 -4.49402 0
M  V30 8557 H 797.111 -6.43046 -3.97528 0
M  V30 8558 H 798.379 -5.93327 -5.05553 0
M  V30 8559 N 802.608 0.318715 -1.54344 0
M  V30 8560 C 803.848 1.06425 -1.74508 0
M  V30 8561 C 804.212 1.85087 -0.510572 0
M  V30 8562 O 805.413 2.62253 -0.589647 0
M  V30 8563 C 803.684 1.96054 -2.98827 0
M  V30 8564 S 805.243 2.77493 -3.39916 0
M  V30 8565 H 802.061 0.35921 -0.613587 0
M  V30 8566 H 804.663 0.339679 -1.92526 0
M  V30 8567 H 803.367 1.37109 -3.8682 0
M  V30 8568 H 802.898 2.72908 -2.83346 0
M  V30 8569 H 804.913 3.98544 -2.95596 0
M  V30 8570 N 804.086 1.46499 0.581025 0
M  V30 8571 C 805.497 1.4604 1.16315 0
M  V30 8572 C 805.848 0.202154 1.95156 0
M  V30 8573 O 804.973 -0.694638 2.04948 0
M  V30 8574 C 805.568 2.64593 2.11604 0
M  V30 8575 C 804.127 2.6717 2.65136 0
M  V30 8576 C 803.274 2.38753 1.4104 0
M  V30 8577 H 806.225 1.54354 0.368871 0
M  V30 8578 H 806.246 2.40207 2.95095 0
M  V30 8579 H 805.758 3.56154 1.54194 0
M  V30 8580 H 803.859 1.79685 3.26411 0
M  V30 8581 H 803.972 3.67182 3.07757 0
M  V30 8582 H 802.336 1.88845 1.70908 0
M  V30 8583 H 803.119 3.32493 0.854588 0
M  V30 8584 N 805.565 -0.825799 1.34232 0
M  V30 8585 C 806.976 -1.39835 1.23706 0
M  V30 8586 C 807.327 -1.95709 -0.138649 0
M  V30 8587 O 806.452 -1.89833 -1.03886 0
M  V30 8588 C 807.047 -2.54203 2.23978 0
M  V30 8589 C 805.606 -3.07374 2.17251 0
M  V30 8590 C 804.753 -1.80232 2.10741 0
M  V30 8591 H 807.704 -0.630442 1.4564 0
M  V30 8592 H 807.725 -3.32214 1.8551 0
M  V30 8593 H 807.237 -2.13506 3.24094 0
M  V30 8594 H 805.338 -3.52583 1.20483 0
M  V30 8595 H 805.451 -3.6666 3.08379 0
M  V30 8596 H 803.815 -2.01012 1.56417 0
M  V30 8597 H 804.598 -1.41713 3.12686 0
M  V30 8598 N 807.043 -1.17915 -1.04565 0
M  V30 8599 C 808.289 -0.982872 -1.78076 0
M  V30 8600 C 808.644 0.482843 -1.86243 0
M  V30 8601 O 807.937 1.35383 -1.3558 0
M  V30 8602 C 808.131 -1.56528 -3.213 0
M  V30 8603 C 807.96 -3.0861 -3.27093 0
M  V30 8604 C 806.73 -3.77389 -3.36014 0
M  V30 8605 C 808.928 -4.06146 -3.15515 0
M  V30 8606 N 806.91 -5.1702 -3.31004 0
M  V30 8607 C 808.281 -5.32268 -3.17948 0
M  V30 8608 C 810.336 -3.97732 -2.99522 0
M  V30 8609 C 809.039 -6.50951 -3.06031 0
M  V30 8610 C 811.065 -5.16007 -2.88948 0
M  V30 8611 C 810.427 -6.41018 -2.9202 0
M  V30 8612 H 806.526 -0.413617 -0.66366 0
M  V30 8613 H 809.11 -1.49607 -1.24603 0
M  V30 8614 H 807.281 -1.07833 -3.73131 0
M  V30 8615 H 809.013 -1.30501 -3.83082 0
M  V30 8616 H 805.768 -3.28098 -3.41538 0
M  V30 8617 H 806.192 -5.90031 -3.31952 0
M  V30 8618 H 810.834 -3.01919 -2.95981 0
M  V30 8619 H 808.552 -7.46968 -3.08326 0
M  V30 8620 H 812.138 -5.11283 -2.77635 0
M  V30 8621 H 811.018 -7.30999 -2.83919 0
M  V30 8622 N 808.521 1.23394 -0.980386 0
M  V30 8623 C 809.767 1.924 -0.659848 0
M  V30 8624 C 810.122 1.75076 0.797883 0
M  V30 8625 O 809.415 1.10104 1.56805 0
M  V30 8626 C 809.609 3.43542 -0.985588 0
M  V30 8627 C 809.438 3.75568 -2.47343 0
M  V30 8628 C 808.208 3.96257 -3.13541 0
M  V30 8629 C 810.406 3.81045 -3.45412 0
M  V30 8630 N 808.388 4.15489 -4.51932 0
M  V30 8631 C 809.759 4.05269 -4.69209 0
M  V30 8632 C 811.814 3.63837 -3.39893 0
M  V30 8633 C 810.517 4.14071 -5.88164 0
M  V30 8634 C 812.543 3.73892 -4.58212 0
M  V30 8635 C 811.905 3.98553 -5.80805 0
M  V30 8636 H 808.004 0.725229 -0.292518 0
M  V30 8637 H 810.588 1.48615 -1.25784 0
M  V30 8638 H 808.759 3.86163 -0.416289 0
M  V30 8639 H 810.491 3.99887 -0.622324 0
M  V30 8640 H 807.246 3.93168 -2.64038 0
M  V30 8641 H 807.67 4.29058 -5.23677 0
M  V30 8642 H 812.312 3.43767 -2.46139 0
M  V30 8643 H 810.03 4.32949 -6.82335 0
M  V30 8644 H 813.616 3.61932 -4.55518 0
M  V30 8645 H 812.496 4.06148 -6.70831 0
M  V30 8646 N 809.999 0.752036 1.385 0
M  V30 8647 C 811.229 0.317812 2.04141 0
M  V30 8648 C 811.637 -1.05822 1.56839 0
M  V30 8649 O 810.98 -1.68311 0.736016 0
M  V30 8650 C 811.042 0.260205 3.58557 0
M  V30 8651 C 810.706 1.57753 4.28909 0
M  V30 8652 C 811.703 2.52642 4.54387 0
M  V30 8653 C 809.388 1.84653 4.67128 0
M  V30 8654 C 811.382 3.72653 5.17116 0
M  V30 8655 C 809.069 3.04938 5.29581 0
M  V30 8656 C 810.067 3.98759 5.54509 0
M  V30 8657 O 809.755 5.16929 6.15662 0
M  V30 8658 H 809.487 0.133931 0.6626 0
M  V30 8659 H 812.041 1.02138 1.78205 0
M  V30 8660 H 810.271 -0.499596 3.83459 0
M  V30 8661 H 811.96 -0.144295 4.05643 0
M  V30 8662 H 812.726 2.33135 4.25292 0
M  V30 8663 H 808.605 1.12464 4.47071 0
M  V30 8664 H 812.149 4.45898 5.36489 0
M  V30 8665 H 808.046 3.24339 5.58099 0
M  V30 8666 H 808.814 5.1749 6.3415 0
M  V30 8667 N 811.477 -1.49425 0.500989 0
M  V30 8668 C 812.424 -2.29126 -0.277443 0
M  V30 8669 C 813.394 -1.35522 -0.960363 0
M  V30 8670 O 814.579 -1.64479 -0.967027 0
M  V30 8671 C 811.719 -3.18193 -1.33593 0
M  V30 8672 C 810.832 -4.26854 -0.664791 0
M  V30 8673 C 809.967 -5.03137 -1.70372 0
M  V30 8674 C 809.006 -6.03635 -1.01445 0
M  V30 8675 N 808.143 -6.73083 -1.99758 0
M  V30 8676 H 812.983 -2.95187 0.408458 0
M  V30 8677 H 810.52 -1.45546 0.213275 0
M  V30 8678 H 812.478 -3.68207 -1.96161 0
M  V30 8679 H 811.108 -2.54116 -1.9906 0
M  V30 8680 H 810.16 -3.80328 0.0741708 0
M  V30 8681 H 811.472 -4.9865 -0.122197 0
M  V30 8682 H 810.626 -5.5702 -2.40445 0
M  V30 8683 H 809.365 -4.31114 -2.28017 0
M  V30 8684 H 808.37 -5.48984 -0.299496 0
M  V30 8685 H 809.595 -6.77644 -0.444497 0
M  V30 8686 H 807.541 -6.03832 -2.56365 0
M  V30 8687 H 807.458 -7.40855 -1.50565 0
M  V30 8688 H 808.726 -7.3157 -2.69119 0
M  V30 8689 N 812.955 -0.234822 -1.55841 0
M  V30 8690 C 814.195 0.394944 -2.00548 0
M  V30 8691 C 814.559 1.56002 -1.11926 0
M  V30 8692 O 815.76 2.2567 -1.46037 0
M  V30 8693 C 814.031 0.805896 -3.48195 0
M  V30 8694 S 815.59 1.4279 -4.14918 0
M  V30 8695 H 812.408 0.124802 -0.699961 0
M  V30 8696 H 815.01 -0.347224 -1.92392 0
M  V30 8697 H 813.714 -0.0515271 -4.10368 0
M  V30 8698 H 813.245 1.58055 -3.60253 0
M  V30 8699 H 815.26 2.71699 -4.15204 0
M  V30 8700 N 814.433 1.57553 0.0384317 0
M  V30 8701 C 815.396 2.04927 1.02653 0
M  V30 8702 C 816.396 0.951768 1.29607 0
M  V30 8703 O 817.586 1.21568 1.24768 0
M  V30 8704 C 814.718 2.45828 2.36181 0
M  V30 8705 H 815.911 2.93474 0.617508 0
M  V30 8706 H 813.464 1.53679 0.285031 0
M  V30 8707 H 814.199 1.60408 2.8185 0
M  V30 8708 H 813.984 3.25945 2.1795 0
M  V30 8709 H 815.474 2.82939 3.0714 0
M  V30 8710 N 815.911 -0.310526 1.54511 0
M  V30 8711 C 816.861 -1.38405 1.81185 0
M  V30 8712 C 817.845 -1.46355 0.668499 0
M  V30 8713 O 819.037 -1.50668 0.928873 0
M  V30 8714 C 816.166 -2.75059 2.0542 0
M  V30 8715 C 815.252 -2.7137 3.25913 0
M  V30 8716 N 815.643 -2.37298 4.4668 0
M  V30 8717 C 813.941 -3.02484 3.27749 0
M  V30 8718 C 814.642 -2.42669 5.28665 0
M  V30 8719 N 813.618 -2.79639 4.66158 0
M  V30 8720 H 817.42 -1.11012 2.72128 0
M  V30 8721 H 814.934 -0.519068 1.53881 0
M  V30 8722 H 816.931 -3.52451 2.22674 0
M  V30 8723 H 815.591 -3.03372 1.15739 0
M  V30 8724 H 816.602 -2.09917 4.73451 0
M  V30 8725 H 813.279 -3.35754 2.48144 0
M  V30 8726 H 814.669 -2.19206 6.35136 0
M  V30 8727 N 817.389 -1.46805 -0.573248 0
M  V30 8728 C 818.336 -1.58084 -1.68161 0
M  V30 8729 C 819.306 -0.424636 -1.6058 0
M  V30 8730 O 820.491 -0.642623 -1.79652 0
M  V30 8731 C 817.631 -1.58601 -3.06496 0
M  V30 8732 C 816.744 -2.85023 -3.24632 0
M  V30 8733 C 815.879 -2.76981 -4.53271 0
M  V30 8734 C 814.918 -3.983 -4.64783 0
M  V30 8735 N 814.055 -3.88589 -5.84759 0
M  V30 8736 H 818.895 -2.52755 -1.57858 0
M  V30 8737 H 816.432 -1.25385 -0.769218 0
M  V30 8738 H 818.39 -1.56885 -3.86579 0
M  V30 8739 H 817.02 -0.674553 -3.15673 0
M  V30 8740 H 816.072 -2.96678 -2.38089 0
M  V30 8741 H 817.384 -3.7491 -3.29004 0
M  V30 8742 H 816.538 -2.73424 -5.41594 0
M  V30 8743 H 815.277 -1.84751 -4.51352 0
M  V30 8744 H 814.282 -4.02179 -3.74876 0
M  V30 8745 H 815.507 -4.91639 -4.68474 0
M  V30 8746 H 813.453 -2.99151 -5.83819 0
M  V30 8747 H 813.37 -4.7214 -5.90441 0
M  V30 8748 H 814.638 -3.89022 -6.75486 0
M  V30 8749 N 818.867 0.818669 -1.34668 0
M  V30 8750 C 820.113 1.57746 -1.27453 0
M  V30 8751 C 820.446 1.93588 0.154077 0
M  V30 8752 O 819.721 1.60371 1.10051 0
M  V30 8753 C 820.004 2.87414 -2.16945 0
M  V30 8754 C 819.857 2.58125 -3.68363 0
M  V30 8755 C 821.176 3.89021 -2.05792 0
M  V30 8756 H 818.295 0.572339 -0.464324 0
M  V30 8757 H 820.937 0.942784 -1.64959 0
M  V30 8758 H 819.087 3.41576 -1.85089 0
M  V30 8759 H 820.759 2.10239 -4.10606 0
M  V30 8760 H 819.002 1.91503 -3.89242 0
M  V30 8761 H 819.673 3.5061 -4.26353 0
M  V30 8762 H 822.149 3.44224 -2.33771 0
M  V30 8763 H 821.025 4.77548 -2.70628 0
M  V30 8764 H 821.286 4.29786 -1.03618 0
M  V30 8765 N 820.346 1.18468 1.03938 0
M  V30 8766 C 821.276 0.936389 2.13902 0
M  V30 8767 C 822.257 -0.126381 1.6963 0
M  V30 8768 O 823.442 0.0264757 1.94182 0
M  V30 8769 C 820.572 0.462729 3.44204 0
M  V30 8770 C 819.526 1.46613 4.02105 0
M  V30 8771 C 818.852 0.84994 5.27902 0
M  V30 8772 C 820.152 2.84323 4.3813 0
M  V30 8773 H 821.846 1.85602 2.3493 0
M  V30 8774 H 819.392 0.893806 1.12903 0
M  V30 8775 H 821.345 0.276382 4.20493 0
M  V30 8776 H 820.069 -0.492477 3.22866 0
M  V30 8777 H 818.728 1.63944 3.27899 0
M  V30 8778 H 818.376 -0.112493 5.02874 0
M  V30 8779 H 818.076 1.51988 5.67603 0
M  V30 8780 H 819.6 0.674152 6.06867 0
M  V30 8781 H 821.014 2.70636 5.054 0
M  V30 8782 H 819.411 3.48012 4.88884 0
M  V30 8783 H 820.481 3.37776 3.47901 0
M  V30 8784 N 821.824 -1.22873 0.986916 0
M  V30 8785 C 823.073 -1.90772 0.654911 0
M  V30 8786 C 823.386 -1.77768 -0.81595 0
M  V30 8787 O 824.592 -2.40529 -1.25929 0
M  V30 8788 C 823.048 -3.42003 1.12081 0
M  V30 8789 C 822.656 -3.63655 2.61647 0
M  V30 8790 C 824.4 -4.15638 0.862854 0
M  V30 8791 C 822.307 -5.08555 3.01871 0
M  V30 8792 H 821.237 -0.714362 0.241252 0
M  V30 8793 H 823.888 -1.39196 1.19568 0
M  V30 8794 H 822.27 -3.92725 0.508207 0
M  V30 8795 H 823.444 -3.2345 3.28202 0
M  V30 8796 H 821.759 -3.03341 2.8526 0
M  V30 8797 H 824.356 -5.22425 1.13915 0
M  V30 8798 H 824.699 -4.15814 -0.201036 0
M  V30 8799 H 825.232 -3.70924 1.43736 0
M  V30 8800 H 821.971 -5.13514 4.07411 0
M  V30 8801 H 821.491 -5.49684 2.40015 0
M  V30 8802 H 823.17 -5.76936 2.92839 0
M  V30 8803 N 823.302 -0.75937 -1.38099 0
M  V30 8804 C 824.548 -0.327559 -2.00745 0
M  V30 8805 C 824.903 1.08042 -1.592 0
M  V30 8806 O 824.196 1.7306 -0.822236 0
M  V30 8807 C 824.39 -0.394999 -3.55211 0
M  V30 8808 C 824.219 -1.80798 -4.11755 0
M  V30 8809 C 822.989 -2.42585 -4.43262 0
M  V30 8810 C 825.187 -2.76556 -4.33614 0
M  V30 8811 N 823.169 -3.75784 -4.85448 0
M  V30 8812 C 824.54 -3.94532 -4.78273 0
M  V30 8813 C 826.595 -2.74004 -4.15724 0
M  V30 8814 C 825.298 -5.10322 -5.06916 0
M  V30 8815 C 827.324 -3.88957 -4.45496 0
M  V30 8816 C 826.686 -5.05672 -4.90383 0
M  V30 8817 H 822.785 -0.166644 -0.764038 0
M  V30 8818 H 825.369 -0.99056 -1.67619 0
M  V30 8819 H 823.54 0.237761 -3.87672 0
M  V30 8820 H 825.272 0.0576828 -4.04659 0
M  V30 8821 H 822.027 -1.94302 -4.31907 0
M  V30 8822 H 822.451 -4.44234 -5.10867 0
M  V30 8823 H 827.093 -1.84948 -3.80203 0
M  V30 8824 H 824.811 -5.99988 -5.41332 0
M  V30 8825 H 828.397 -3.88308 -4.33253 0
M  V30 8826 H 827.277 -5.93146 -5.1298 0
M  V30 8827 N 824.78 1.49157 -0.508906 0
M  V30 8828 C 825.728 2.30922 0.278906 0
M  V30 8829 C 826.722 1.39889 0.955382 0
M  V30 8830 O 827.928 1.56901 0.882169 0
M  V30 8831 H 824.303 0.744087 0.108805 0
M  V30 8832 H 826.274 2.95277 -0.430583 0
M  V30 8833 C 825.023 3.21432 1.32576 0
M  V30 8834 H 824.346 3.91413 0.814634 0
M  V30 8835 H 825.786 3.81568 1.84882 0
M  V30 8836 C 824.245 2.41583 2.34817 0
M  V30 8837 O 824.775 2.1256 3.40854 0
M  V30 8838 N 822.981 2.03462 2.07489 0
M  V30 8839 H 822.528 2.27265 1.21278 0
M  V30 8840 H 822.486 1.50345 2.76123 0
M  V30 8841 N 826.258 0.243083 1.55714 0
M  V30 8842 C 827.498 -0.384303 2.00755 0
M  V30 8843 C 827.862 -1.55406 1.12752 0
M  V30 8844 O 829.063 -2.24892 1.47231 0
M  V30 8845 C 827.334 -0.787419 3.48618 0
M  V30 8846 S 828.893 -1.40587 4.15669 0
M  V30 8847 H 825.711 -0.121088 0.700613 0
M  V30 8848 H 828.313 0.357423 1.92205 0
M  V30 8849 H 827.017 0.0732892 4.10335 0
M  V30 8850 H 826.548 -1.56142 3.61086 0
M  V30 8851 H 828.563 -2.69493 4.16639 0
M  V30 8852 N 827.736 -1.57571 -0.0300757 0
M  V30 8853 C 828.976 -1.91074 -0.725946 0
M  V30 8854 C 829.34 -0.841545 -1.72575 0
M  V30 8855 O 830.541 -1.06088 -2.46979 0
M  V30 8856 C 828.812 -3.2973 -1.37888 0
M  V30 8857 S 830.371 -3.85065 -2.10405 0
M  V30 8858 H 827.189 -0.669084 -0.240515 0
M  V30 8859 H 829.791 -1.9549 0.019384 0
M  V30 8860 H 828.495 -4.05411 -0.637974 0
M  V30 8861 H 828.026 -3.28614 -2.16278 0
M  V30 8862 H 830.041 -3.63711 -3.37533 0
M  V30 8863 N 829.214 0.302327 -1.54673 0
M  V30 8864 C 830.177 1.35592 -1.8479 0
M  V30 8865 C 831.177 1.43743 -0.72073 0
M  V30 8866 O 832.367 1.43402 -0.989017 0
M  V30 8867 C 829.499 2.74091 -2.02699 0
M  V30 8868 H 830.692 1.10132 -2.78946 0
M  V30 8869 H 828.245 0.538926 -1.46715 0
M  V30 8870 H 828.98 3.04775 -1.10826 0
M  V30 8871 H 828.765 2.69565 -2.8474 0
M  V30 8872 H 830.255 3.50272 -2.27374 0
M  V30 8873 N 830.692 1.47107 0.565454 0
M  V30 8874 C 832.103 1.47266 1.1476 0
M  V30 8875 C 832.454 0.222841 1.9493 0
M  V30 8876 O 831.579 -0.672862 2.05673 0
M  V30 8877 C 832.174 2.66822 2.08785 0
M  V30 8878 C 830.733 2.69967 2.62288 0
M  V30 8879 C 829.88 2.40236 1.38499 0
M  V30 8880 H 832.831 1.54736 0.352479 0
M  V30 8881 H 832.852 2.43323 2.92531 0
M  V30 8882 H 832.364 3.5777 1.50408 0
M  V30 8883 H 830.465 1.83137 3.24487 0
M  V30 8884 H 830.578 3.70426 3.03845 0
M  V30 8885 H 828.942 1.90648 1.68895 0
M  V30 8886 H 829.725 3.33381 0.819274 0
M  V30 8887 N 832.17 -0.811516 1.35101 0
M  V30 8888 C 833.416 -1.57016 1.29296 0
M  V30 8889 C 833.771 -1.91941 -0.13288 0
M  V30 8890 O 833.064 -1.58121 -1.08204 0
M  V30 8891 C 833.258 -2.87121 2.1283 0
M  V30 8892 C 833.087 -2.64908 3.63392 0
M  V30 8893 C 831.857 -2.61055 4.32641 0
M  V30 8894 C 834.055 -2.35628 4.57148 0
M  V30 8895 N 832.037 -2.30508 5.68981 0
M  V30 8896 C 833.408 -2.14876 5.81574 0
M  V30 8897 C 835.463 -2.2145 4.45942 0
M  V30 8898 C 834.166 -1.81381 6.96055 0
M  V30 8899 C 836.192 -1.89352 5.60267 0
M  V30 8900 C 835.554 -1.69432 6.83719 0
M  V30 8901 H 831.653 -0.57649 0.528378 0
M  V30 8902 H 834.237 -0.950338 1.69931 0
M  V30 8903 H 832.408 -3.47007 1.74473 0
M  V30 8904 H 834.14 -3.52629 1.98582 0
M  V30 8905 H 830.895 -2.75531 3.85201 0
M  V30 8906 H 831.319 -2.18042 6.40927 0
M  V30 8907 H 835.961 -2.35551 3.51106 0
M  V30 8908 H 833.679 -1.66018 7.90863 0
M  V30 8909 H 837.265 -1.79098 5.53548 0
M  V30 8910 H 836.145 -1.44957 7.70686 0
M  V30 8911 N 833.648 -1.19017 -1.03309 0
M  V30 8912 C 834.578 -0.94772 -2.13402 0
M  V30 8913 C 835.559 0.117383 -1.69694 0
M  V30 8914 O 836.744 -0.0367733 -1.94165 0
M  V30 8915 C 833.874 -0.480977 -3.43953 0
M  V30 8916 C 832.828 -1.48743 -4.01322 0
M  V30 8917 C 832.154 -0.877924 -5.27443 0
M  V30 8918 C 833.454 -2.86642 -4.36616 0
M  V30 8919 H 835.148 -1.86846 -2.33942 0
M  V30 8920 H 832.694 -0.899781 -1.12427 0
M  V30 8921 H 834.647 -0.298677 -4.2034 0
M  V30 8922 H 833.371 0.475348 -3.23122 0
M  V30 8923 H 832.03 -1.65681 -3.27025 0
M  V30 8924 H 831.678 0.0858232 -5.02927 0
M  V30 8925 H 831.378 -1.54996 -5.66789 0
M  V30 8926 H 832.902 -0.706326 -6.06501 0
M  V30 8927 H 834.316 -2.73312 -5.03958 0
M  V30 8928 H 832.713 -3.50599 -4.87032 0
M  V30 8929 H 833.783 -3.39617 -3.46105 0
M  V30 8930 N 835.127 1.22348 -0.993418 0
M  V30 8931 C 836.074 2.24294 -0.544118 0
M  V30 8932 C 837.044 1.60602 0.42381 0
M  V30 8933 O 838.229 1.87952 0.328453 0
M  V30 8934 C 835.369 3.44837 0.134578 0
M  V30 8935 C 834.482 4.23043 -0.875151 0
M  V30 8936 C 833.617 5.30928 -0.169919 0
M  V30 8937 C 832.656 6.00853 -1.16798 0
M  V30 8938 N 831.793 7.00381 -0.491021 0
M  V30 8939 H 836.633 2.6209 -1.4182 0
M  V30 8940 H 834.17 1.2881 -0.710384 0
M  V30 8941 H 836.128 4.13625 0.544998 0
M  V30 8942 H 834.758 3.07804 0.972446 0
M  V30 8943 H 833.81 3.53546 -1.40389 0
M  V30 8944 H 835.122 4.71237 -1.63516 0
M  V30 8945 H 834.276 6.05972 0.297205 0
M  V30 8946 H 833.015 4.8371 0.622586 0
M  V30 8947 H 832.02 5.24591 -1.64573 0
M  V30 8948 H 833.245 6.50159 -1.96137 0
M  V30 8949 H 831.191 6.55393 0.282037 0
M  V30 8950 H 831.108 7.46584 -1.18947 0
M  V30 8951 H 832.376 7.79486 -0.0467169 0
M  V30 8952 N 836.605 0.766683 1.37694 0
M  V30 8953 C 837.852 0.328714 1.99814 0
M  V30 8954 C 838.18 -1.09333 1.60862 0
M  V30 8955 O 837.435 -1.7657 0.8439 0
M  V30 8956 C 837.734 0.413831 3.54996 0
M  V30 8957 C 837.4 1.7934 4.137 0
M  V30 8958 C 836.062 2.17092 4.29447 0
M  V30 8959 C 838.414 2.69776 4.45949 0
M  V30 8960 C 835.742 3.44726 4.74743 0
M  V30 8961 C 838.094 3.96814 4.92667 0
M  V30 8962 C 836.758 4.34618 5.0662 0
M  V30 8963 H 836.028 0.120285 0.731172 0
M  V30 8964 H 838.675 0.97972 1.64541 0
M  V30 8965 H 836.98 -0.320723 3.90485 0
M  V30 8966 H 838.677 0.0563369 4.0096 0
M  V30 8967 H 835.267 1.48997 4.01868 0
M  V30 8968 H 839.451 2.41871 4.33373 0
M  V30 8969 H 834.707 3.73917 4.83731 0
M  V30 8970 H 838.881 4.67022 5.16588 0
M  V30 8971 H 836.508 5.33578 5.41478 0
M  V30 8972 N 838.083 -1.48885 0.516809 0
M  V30 8973 C 839.03 -2.29408 -0.253125 0
M  V30 8974 C 840 -1.36533 -0.945935 0
M  V30 8975 O 841.185 -1.65495 -0.949527 0
M  V30 8976 C 838.325 -3.19592 -1.30211 0
M  V30 8977 C 837.438 -4.27535 -0.61948 0
M  V30 8978 C 836.573 -5.04916 -1.65026 0
M  V30 8979 C 835.612 -6.04677 -0.950368 0
M  V30 8980 N 834.749 -6.75164 -1.92608 0
M  V30 8981 H 839.589 -2.94738 0.439744 0
M  V30 8982 H 837.126 -1.45311 0.2287 0
M  V30 8983 H 839.084 -3.70267 -1.92245 0
M  V30 8984 H 837.714 -2.56213 -1.96353 0
M  V30 8985 H 836.766 -3.80228 0.114505 0
M  V30 8986 H 838.078 -4.98752 -0.0693016 0
M  V30 8987 H 837.232 -5.59539 -2.34523 0
M  V30 8988 H 835.971 -4.33508 -2.23432 0
M  V30 8989 H 834.976 -5.4927 -0.241252 0
M  V30 8990 H 836.201 -6.78077 -0.372599 0
M  V30 8991 H 834.147 -6.06517 -2.49946 0
M  V30 8992 H 834.064 -7.4241 -1.42699 0
M  V30 8993 H 835.332 -7.34384 -2.61345 0
M  V30 8994 N 839.561 -0.251338 -1.55583 0
M  V30 8995 C 840.509 0.662534 -2.22965 0
M  V30 8996 C 841.503 1.17662 -1.21869 0
M  V30 8997 O 842.709 1.133 -1.39868 0
M  V30 8998 H 839.084 0.232151 -0.715269 0
M  V30 8999 H 841.055 0.0711252 -2.98315 0
M  V30 9000 C 839.804 1.84646 -2.94621 0
M  V30 9001 H 839.127 1.46003 -3.72187 0
M  V30 9002 H 840.567 2.46303 -3.45124 0
M  V30 9003 C 839.026 2.72034 -1.98744 0
M  V30 9004 O 839.556 3.71695 -1.52335 0
M  V30 9005 N 837.762 2.38695 -1.6575 0
M  V30 9006 H 837.309 1.57702 -2.03685 0
M  V30 9007 H 837.267 2.9744 -1.01867 0
M  V30 9008 N 841.039 1.57585 0.0217189 0
M  V30 9009 C 842.288 1.88786 0.710125 0
M  V30 9010 C 842.601 0.850819 1.76126 0
M  V30 9011 O 843.807 1.0523 2.50277 0
M  V30 9012 C 842.263 3.3505 1.31413 0
M  V30 9013 C 841.871 4.47001 0.298959 0
M  V30 9014 C 843.615 3.7539 1.98199 0
M  V30 9015 C 841.522 5.8433 0.911727 0
M  V30 9016 H 840.452 0.704388 0.268986 0
M  V30 9017 H 843.103 1.83466 -0.0352638 0
M  V30 9018 H 841.485 3.35138 2.10947 0
M  V30 9019 H 842.659 4.58395 -0.470203 0
M  V30 9020 H 840.974 4.15542 -0.267222 0
M  V30 9021 H 843.571 4.75314 2.4491 0
M  V30 9022 H 843.914 3.07766 2.80331 0
M  V30 9023 H 844.447 3.77508 1.2543 0
M  V30 9024 H 841.186 6.55372 0.129659 0
M  V30 9025 H 840.706 5.76643 1.65056 0
M  V30 9026 H 842.385 6.31295 1.41688 0
M  V30 9027 N 842.517 -0.29412 1.54831 0
M  V30 9028 C 843.766 -1.02614 1.73647 0
M  V30 9029 C 844.079 -1.88193 0.533162 0
M  V30 9030 O 845.285 -2.64713 0.603275 0
M  V30 9031 C 843.741 -1.87417 3.07251 0
M  V30 9032 C 843.349 -1.06806 4.35082 0
M  V30 9033 C 845.093 -2.60176 3.35423 0
M  V30 9034 C 843 -1.90926 5.59733 0
M  V30 9035 H 841.93 -0.386834 0.647206 0
M  V30 9036 H 844.581 -0.282789 1.81308 0
M  V30 9037 H 842.963 -2.65765 2.93572 0
M  V30 9038 H 844.137 -0.330226 4.59615 0
M  V30 9039 H 842.452 -0.455979 4.13896 0
M  V30 9040 H 845.049 -3.23476 4.25755 0
M  V30 9041 H 845.392 -3.29365 2.54606 0
M  V30 9042 H 845.925 -1.88871 3.50103 0
M  V30 9043 H 842.664 -1.26194 6.43238 0
M  V30 9044 H 842.184 -2.62363 5.39375 0
M  V30 9045 H 843.863 -2.48807 5.97247 0
M  V30 9046 N 843.995 -1.47404 -0.557645 0
M  V30 9047 C 844.945 -1.56267 -1.66026 0
M  V30 9048 C 845.929 -0.42161 -1.55278 0
M  V30 9049 O 847.121 -0.671505 -1.63768 0
M  V30 9050 C 844.25 -1.57958 -3.04802 0
M  V30 9051 C 843.336 -2.77447 -3.20755 0
M  V30 9052 N 843.727 -4.02148 -3.06775 0
M  V30 9053 C 842.025 -2.74199 -3.51754 0
M  V30 9054 C 842.726 -4.82168 -3.25406 0
M  V30 9055 N 841.702 -4.14481 -3.5172 0
M  V30 9056 H 845.504 -2.50454 -1.53785 0
M  V30 9057 H 843.018 -1.43392 -0.762388 0
M  V30 9058 H 845.015 -1.62397 -3.8397 0
M  V30 9059 H 843.675 -0.648667 -3.18155 0
M  V30 9060 H 844.686 -4.33014 -2.84111 0
M  V30 9061 H 841.363 -1.90243 -3.71637 0
M  V30 9062 H 842.753 -5.91037 -3.19569 0
M  V30 9063 N 845.473 0.80434 -1.35529 0
M  V30 9064 C 846.403 1.93086 -1.31301 0
M  V30 9065 C 847.384 1.69068 -0.187044 0
M  V30 9066 O 848.569 1.90399 -0.382359 0
M  V30 9067 C 845.699 3.29867 -1.0865 0
M  V30 9068 C 844.653 3.68373 -2.17911 0
M  V30 9069 C 843.979 5.0334 -1.80423 0
M  V30 9070 C 845.279 3.78516 -3.59893 0
M  V30 9071 H 846.973 1.96882 -2.25561 0
M  V30 9072 H 844.519 0.945841 -1.08581 0
M  V30 9073 H 846.472 4.08281 -1.04331 0
M  V30 9074 H 845.196 3.2642 -0.108359 0
M  V30 9075 H 843.855 2.92247 -2.21331 0
M  V30 9076 H 843.503 4.96399 -0.812213 0
M  V30 9077 H 843.203 5.30074 -2.53565 0
M  V30 9078 H 844.727 5.84191 -1.77633 0
M  V30 9079 H 846.141 4.47155 -3.58783 0
M  V30 9080 H 844.538 4.16721 -4.31814 0
M  V30 9081 H 845.608 2.8001 -3.95882 0
M  V30 9082 N 846.951 1.19563 1.02676 0
M  V30 9083 C 848.2 0.993864 1.75514 0
M  V30 9084 C 848.513 -0.475882 1.89723 0
M  V30 9085 O 849.719 -0.796525 2.59553 0
M  V30 9086 C 848.175 1.72937 3.15628 0
M  V30 9087 C 847.783 3.23937 3.09466 0
M  V30 9088 C 849.527 1.61092 3.92746 0
M  V30 9089 C 847.434 3.90067 4.44524 0
M  V30 9090 H 846.364 0.368244 0.657961 0
M  V30 9091 H 849.015 1.43081 1.14891 0
M  V30 9092 H 847.397 1.22025 3.76731 0
M  V30 9093 H 848.571 3.81983 2.57731 0
M  V30 9094 H 846.886 3.3608 2.45843 0
M  V30 9095 H 849.483 2.07848 4.92649 0
M  V30 9096 H 849.826 0.565415 4.12442 0
M  V30 9097 H 850.359 2.09361 3.3825 0
M  V30 9098 H 847.098 4.94725 4.30032 0
M  V30 9099 H 846.618 3.36809 4.96306 0
M  V30 9100 H 848.297 3.93736 5.13401 0
M  V30 9101 N 848.429 -1.21819 0.999893 0
M  V30 9102 C 849.675 -1.91035 0.680701 0
M  V30 9103 C 850.008 -1.77582 -0.786021 0
M  V30 9104 O 849.283 -1.14917 -1.56921 0
M  V30 9105 C 849.566 -3.43013 1.0961 0
M  V30 9106 C 849.419 -3.65481 2.6219 0
M  V30 9107 C 850.738 -4.35204 0.654616 0
M  V30 9108 H 847.857 -0.693748 0.248763 0
M  V30 9109 H 850.499 -1.43555 1.24466 0
M  V30 9110 H 848.649 -3.83581 0.616253 0
M  V30 9111 H 850.321 -3.34273 3.17899 0
M  V30 9112 H 848.564 -3.09522 3.03938 0
M  V30 9113 H 849.235 -4.71945 2.86307 0
M  V30 9114 H 851.711 -4.0219 1.06688 0
M  V30 9115 H 850.587 -5.40198 0.973492 0
M  V30 9116 H 850.848 -4.3986 -0.444458 0
M  V30 9117 N 849.908 -0.773975 -1.37286 0
M  V30 9118 C 850.841 -0.108019 -2.27944 0
M  V30 9119 C 851.819 0.706737 -1.46438 0
M  V30 9120 O 853.003 0.681025 -1.75768 0
M  V30 9121 C 850.13 0.853199 -3.27778 0
M  V30 9122 C 849.176 0.122164 -4.26325 0
M  V30 9123 S 850.009 -1.19136 -5.22079 0
M  V30 9124 C 851.165 -0.233737 -6.25463 0
M  V30 9125 H 851.398 -0.876743 -2.84078 0
M  V30 9126 H 848.931 -0.567468 -1.43594 0
M  V30 9127 H 850.889 1.40238 -3.85803 0
M  V30 9128 H 849.55 1.59505 -2.70586 0
M  V30 9129 H 848.743 0.850926 -4.96765 0
M  V30 9130 H 848.345 -0.356079 -3.72301 0
M  V30 9131 H 850.637 0.59305 -6.74899 0
M  V30 9132 H 851.58 -0.906373 -7.02275 0
M  V30 9133 H 851.988 0.156048 -5.64284 0
M  V30 9134 N 851.386 1.48609 -0.524698 0
M  V30 9135 C 852.663 1.95454 0.075465 0
M  V30 9136 C 853.043 1.46682 1.51814 0
M  V30 9137 O 852.391 0.690975 2.17802 0
M  V30 9138 C 852.601 3.48981 -0.0363273 0
M  V30 9139 C 853.949 4.24414 0.125624 0
M  V30 9140 O 854.973 3.5618 0.0377239 0
M  V30 9141 O 853.832 5.45625 0.309104 0
M  V30 9142 H 850.926 0.822902 0.0822256 0
M  V30 9143 H 853.472 1.59153 -0.588921 0
M  V30 9144 H 852.244 3.77185 -1.04149 0
M  V30 9145 H 851.867 3.91963 0.667146 0
M  V30 9146 N 852.864 0.259585 1.55447 0
M  V30 9147 C 854.275 -0.241165 1.85136 0
M  V30 9148 C 854.626 -1.56634 1.18153 0
M  V30 9149 O 853.751 -2.11359 0.464351 0
M  V30 9150 C 854.346 -0.444355 3.35873 0
M  V30 9151 C 852.905 -0.889354 3.65742 0
M  V30 9152 C 852.052 0.0262474 2.77288 0
M  V30 9153 H 855.003 0.481808 1.51209 0
M  V30 9154 H 855.024 -1.28517 3.58139 0
M  V30 9155 H 854.536 0.520289 3.84597 0
M  V30 9156 H 852.637 -1.86602 3.22507 0
M  V30 9157 H 852.75 -0.737432 4.73391 0
M  V30 9158 H 851.114 -0.487361 2.49994 0
M  V30 9159 H 851.897 0.986494 3.28821 0
M  V30 9160 N 854.342 -1.57594 -0.0133615 0
M  V30 9161 C 855.589 -1.8998 -0.70098 0
M  V30 9162 C 855.917 -0.858802 -1.74513 0
M  V30 9163 O 855.172 0.138209 -1.95211 0
M  V30 9164 C 855.471 -3.29121 -1.39336 0
M  V30 9165 C 855.137 -4.48298 -0.483687 0
M  V30 9166 C 853.799 -4.80635 -0.233186 0
M  V30 9167 C 856.151 -5.21003 0.143426 0
M  V30 9168 C 853.479 -5.83055 0.652943 0
M  V30 9169 C 855.831 -6.24366 1.01735 0
M  V30 9170 C 854.495 -6.55168 1.27716 0
M  V30 9171 H 853.765 -0.695187 -0.256507 0
M  V30 9172 H 856.412 -1.9146 0.0392965 0
M  V30 9173 H 854.717 -3.23703 -2.20735 0
M  V30 9174 H 856.414 -3.51433 -1.93121 0
M  V30 9175 H 853.004 -4.23024 -0.689092 0
M  V30 9176 H 857.188 -4.96286 -0.0371139 0
M  V30 9177 H 852.444 -6.05288 0.862379 0
M  V30 9178 H 856.618 -6.79839 1.5097 0
M  V30 9179 H 854.245 -7.34351 1.9655 0
M  V30 9180 N 855.82 0.285905 -1.54985 0
M  V30 9181 C 857.066 1.02071 -1.75241 0
M  V30 9182 C 857.399 1.864 -0.544842 0
M  V30 9183 O 856.674 1.89034 0.457844 0
M  V30 9184 C 856.957 1.91409 -3.05016 0
M  V30 9185 C 856.81 1.10158 -4.36102 0
M  V30 9186 C 858.129 2.90335 -3.30747 0
M  V30 9187 H 855.248 0.369663 -0.637588 0
M  V30 9188 H 857.89 0.294114 -1.8771 0
M  V30 9189 H 856.04 2.53362 -2.94517 0
M  V30 9190 H 857.712 0.503756 -4.58541 0
M  V30 9191 H 855.955 0.404675 -4.31908 0
M  V30 9192 H 856.626 1.75956 -5.23205 0
M  V30 9193 H 859.102 2.38514 -3.40955 0
M  V30 9194 H 857.978 3.49997 -4.2284 0
M  V30 9195 H 858.239 3.64787 -2.49765 0
M  V30 9196 N 857.298 1.47698 0.54982 0
M  V30 9197 C 858.575 1.45185 1.31075 0
M  V30 9198 C 858.955 0.152768 2.10547 0
M  V30 9199 O 858.303 -0.865706 2.11466 0
M  V30 9200 C 858.513 2.70192 2.20902 0
M  V30 9201 C 859.861 3.1771 2.81683 0
M  V30 9202 O 860.885 2.70971 2.312 0
M  V30 9203 O 859.744 3.98986 3.7346 0
M  V30 9204 H 856.838 0.57892 0.590577 0
M  V30 9205 H 859.384 1.59908 0.568112 0
M  V30 9206 H 858.156 3.56269 1.61828 0
M  V30 9207 H 857.779 2.58091 3.02448 0
M  V30 9208 N 858.776 -0.797141 1.35954 0
M  V30 9209 C 859.706 -1.92387 1.32323 0
M  V30 9210 C 860.687 -1.68967 0.196007 0
M  V30 9211 O 861.872 -1.90193 0.39245 0
M  V30 9212 C 859.002 -3.29286 1.10398 0
M  V30 9213 C 857.956 -3.67212 2.19862 0
M  V30 9214 C 857.282 -5.02377 1.8309 0
M  V30 9215 C 858.582 -3.76602 3.61896 0
M  V30 9216 H 860.276 -1.95683 2.26602 0
M  V30 9217 H 857.822 -0.94007 1.09081 0
M  V30 9218 H 859.775 -4.07721 1.06495 0
M  V30 9219 H 858.499 -3.26358 0.125668 0
M  V30 9220 H 857.158 -2.91069 2.22878 0
M  V30 9221 H 856.806 -4.95961 0.838527 0
M  V30 9222 H 856.506 -5.28722 2.56372 0
M  V30 9223 H 858.03 -5.8324 1.80729 0
M  V30 9224 H 859.444 -4.45246 3.6115 0
M  V30 9225 H 857.841 -4.14425 4.34018 0
M  V30 9226 H 858.911 -2.77906 3.97361 0
M  V30 9227 N 860.254 -1.20106 -1.0204 0
M  V30 9228 C 861.502 -1.0069 -1.75231 0
M  V30 9229 C 861.823 0.462491 -1.89436 0
M  V30 9230 O 861.093 1.33455 -1.4341 0
M  V30 9231 H 859.673 -0.369576 -0.649171 0
M  V30 9232 H 862.335 -1.51149 -1.23044 0
M  V30 9233 H 861.431 -1.46205 -2.75736 0
M  V30 9234 N 861.732 1.21287 -1.00634 0
M  V30 9235 C 862.981 1.89706 -0.685178 0
M  V30 9236 C 863.294 1.79044 0.787566 0
M  V30 9237 O 864.5 2.42502 1.22086 0
M  V30 9238 C 862.956 3.40176 -1.17508 0
M  V30 9239 C 862.564 3.59446 -2.674 0
M  V30 9240 C 864.308 4.14213 -0.928869 0
M  V30 9241 C 862.215 5.03688 -3.09923 0
M  V30 9242 H 861.145 0.710434 -0.252586 0
M  V30 9243 H 863.796 1.37277 -1.21768 0
M  V30 9244 H 862.178 3.91867 -0.570622 0
M  V30 9245 H 863.352 3.18188 -3.33306 0
M  V30 9246 H 861.667 2.98764 -2.9005 0
M  V30 9247 H 864.264 5.20546 -1.22212 0
M  V30 9248 H 864.607 4.16082 0.134859 0
M  V30 9249 H 865.14 3.68591 -1.49619 0
M  V30 9250 H 861.879 5.06968 -4.15529 0
M  V30 9251 H 861.399 5.45796 -2.4873 0
M  V30 9252 H 863.078 5.72204 -3.0198 0
M  V30 9253 N 863.21 0.781244 1.36873 0
M  V30 9254 C 864.438 0.361566 2.03716 0
M  V30 9255 C 864.853 -1.01937 1.58916 0
M  V30 9256 O 864.21 -1.65237 0.774783 0
M  V30 9257 C 864.261 0.406391 3.59208 0
M  V30 9258 O 863.982 1.73286 4.02372 0
M  V30 9259 C 865.483 -0.0236894 4.43294 0
M  V30 9260 H 862.703 0.150133 0.653988 0
M  V30 9261 H 865.247 1.05781 1.75016 0
M  V30 9262 H 863.402 -0.241364 3.86647 0
M  V30 9263 H 863.816 1.67804 4.96933 0
M  V30 9264 H 865.29 0.0588205 5.51969 0
M  V30 9265 H 865.767 -1.07529 4.25833 0
M  V30 9266 H 866.373 0.59624 4.211 0
M  V30 9267 N 864.689 -1.48329 0.532571 0
M  V30 9268 C 865.938 -2.017 -0.00259705 0
M  V30 9269 C 866.251 -1.41469 -1.35077 0
M  V30 9270 O 867.457 -1.86354 -1.97445 0
M  V30 9271 C 865.913 -3.59858 -0.0550179 0
M  V30 9272 C 865.521 -4.29073 1.28842 0
M  V30 9273 C 867.265 -4.21066 -0.538878 0
M  V30 9274 C 865.172 -5.79171 1.19644 0
M  V30 9275 H 864.102 -0.753985 -0.00474081 0
M  V30 9276 H 866.753 -1.70565 0.676739 0
M  V30 9277 H 865.135 -3.87846 -0.799486 0
M  V30 9278 H 866.309 -4.12755 2.04865 0
M  V30 9279 H 864.624 -3.79748 1.70822 0
M  V30 9280 H 867.221 -5.31026 -0.6257 0
M  V30 9281 H 867.564 -3.86559 -1.54525 0
M  V30 9282 H 868.097 -3.97517 0.149984 0
M  V30 9283 H 864.836 -6.18257 2.17805 0
M  V30 9284 H 864.356 -5.97895 0.477609 0
M  V30 9285 H 866.035 -6.40875 0.888186 0
M  V30 9286 N 866.167 -0.267825 -1.55308 0
M  V30 9287 C 867.407 0.352316 -2.01341 0
M  V30 9288 C 867.771 1.53593 -1.1521 0
M  V30 9289 O 868.972 2.22521 -1.50791 0
M  V30 9290 C 867.243 0.731857 -3.49827 0
M  V30 9291 S 868.802 1.33956 -4.17853 0
M  V30 9292 H 865.62 0.109927 -0.702451 0
M  V30 9293 H 868.222 -0.387955 -1.91612 0
M  V30 9294 H 866.926 -0.138561 -4.10166 0
M  V30 9295 H 866.457 1.50378 -3.63525 0
M  V30 9296 H 868.472 2.62831 -4.20874 0
M  V30 9297 N 867.645 1.57599 0.00500368 0
M  V30 9298 C 868.894 1.89528 0.690061 0
M  V30 9299 C 869.207 0.869451 1.75214 0
M  V30 9300 O 870.413 1.07879 2.49147 0
M  V30 9301 C 868.869 3.36425 1.27852 0
M  V30 9302 C 868.477 4.47293 0.251531 0
M  V30 9303 C 870.221 3.77471 1.94206 0
M  V30 9304 C 868.128 5.85264 0.8497 0
M  V30 9305 H 867.058 0.707201 0.2615 0
M  V30 9306 H 869.709 1.83418 -0.0547209 0
M  V30 9307 H 868.091 3.37356 2.07381 0
M  V30 9308 H 869.265 4.5787 -0.518796 0
M  V30 9309 H 867.58 4.15235 -0.311281 0
M  V30 9310 H 870.177 4.77884 2.39855 0
M  V30 9311 H 870.52 3.10722 2.77051 0
M  V30 9312 H 871.053 3.78817 1.21419 0
M  V30 9313 H 867.792 6.55472 0.0601408 0
M  V30 9314 H 867.312 5.78361 1.5893 0
M  V30 9315 H 868.991 6.32762 1.34984 0
M  V30 9316 N 869.123 -0.277682 1.55134 0
M  V30 9317 C 870.369 -1.0114 1.7578 0
M  V30 9318 C 870.702 -1.86109 0.554719 0
M  V30 9319 O 869.977 -1.89275 -0.447813 0
M  V30 9320 C 870.26 -1.89789 3.06027 0
M  V30 9321 C 870.113 -1.07844 4.3668 0
M  V30 9322 C 871.432 -2.88577 3.32282 0
M  V30 9323 H 868.551 -0.366277 0.639539 0
M  V30 9324 H 871.193 -0.284155 1.87863 0
M  V30 9325 H 869.343 -2.51796 2.95856 0
M  V30 9326 H 871.015 -0.479432 4.58802 0
M  V30 9327 H 869.258 -0.381764 4.32117 0
M  V30 9328 H 869.929 -1.73179 5.24131 0
M  V30 9329 H 872.405 -2.36702 3.42215 0
M  V30 9330 H 871.281 -3.47749 4.2469 0
M  V30 9331 H 871.542 -3.63458 2.51696 0
M  V30 9332 N 870.601 -1.47988 -0.541979 0
M  V30 9333 C 871.531 -1.64503 -1.65713 0
M  V30 9334 C 872.512 -0.494116 -1.62765 0
M  V30 9335 O 873.697 -0.725256 -1.80149 0
M  V30 9336 C 870.827 -1.67337 -3.04328 0
M  V30 9337 C 869.781 -2.81809 -3.2213 0
M  V30 9338 C 869.107 -2.69724 -4.61685 0
M  V30 9339 C 870.407 -4.23241 -3.06046 0
M  V30 9340 H 872.101 -2.5786 -1.52147 0
M  V30 9341 H 869.647 -1.24094 -0.730529 0
M  V30 9342 H 871.6 -1.77481 -3.82202 0
M  V30 9343 H 870.324 -0.705514 -3.18889 0
M  V30 9344 H 868.983 -2.71201 -2.46669 0
M  V30 9345 H 868.631 -1.70934 -4.73065 0
M  V30 9346 H 868.331 -3.4653 -4.74543 0
M  V30 9347 H 869.855 -2.81818 -5.41674 0
M  V30 9348 H 871.269 -4.34746 -3.73723 0
M  V30 9349 H 869.666 -5.00952 -3.30405 0
M  V30 9350 H 870.736 -4.40543 -2.02609 0
M  V30 9351 N 872.079 0.78992 -1.36375 0
M  V30 9352 C 873.027 1.92394 -1.30719 0
M  V30 9353 C 874.021 1.68226 -0.199076 0
M  V30 9354 O 875.227 1.76239 -0.366051 0
M  V30 9355 H 871.602 0.632382 -0.406936 0
M  V30 9356 H 873.573 1.94282 -2.26488 0
M  V30 9357 C 872.322 3.2941 -1.11284 0
M  V30 9358 H 871.645 3.48573 -1.95798 0
M  V30 9359 H 873.085 4.09111 -1.11373 0
M  V30 9360 C 871.544 3.36405 0.182543 0
M  V30 9361 O 872.074 3.84206 1.17255 0
M  V30 9362 N 870.28 2.89712 0.227046 0
M  V30 9363 H 869.827 2.51004 -0.579217 0
M  V30 9364 H 869.785 2.94773 1.09344 0
M  V30 9365 N 873.557 1.20646 1.01402 0
M  V30 9366 C 874.785 1.04389 1.78635 0
M  V30 9367 C 875.2 -0.406771 1.84366 0
M  V30 9368 O 874.557 -1.28239 1.2985 0
M  V30 9369 C 874.608 1.62378 3.22979 0
M  V30 9370 O 874.329 3.01768 3.17597 0
M  V30 9371 C 875.83 1.5111 4.1675 0
M  V30 9372 H 873.05 0.367077 0.56169 0
M  V30 9373 H 875.594 1.59789 1.27624 0
M  V30 9374 H 873.749 1.11092 3.7113 0
M  V30 9375 H 874.163 3.29331 4.08217 0
M  V30 9376 H 875.637 1.96441 5.15863 0
M  V30 9377 H 876.114 0.464011 4.36742 0
M  V30 9378 H 876.72 2.01599 3.74483 0
M  V30 9379 N 875.035 -1.20752 1.01276 0
M  V30 9380 C 875.965 -2.25658 0.600064 0
M  V30 9381 C 876.946 -1.65733 -0.38298 0
M  V30 9382 O 878.131 -1.92324 -0.269256 0
M  V30 9383 C 875.261 -3.47237 -0.0663197 0
M  V30 9384 C 874.215 -4.1973 0.83731 0
M  V30 9385 C 873.541 -5.34687 0.0369102 0
M  V30 9386 C 874.841 -4.76286 2.14357 0
M  V30 9387 H 876.535 -2.60432 1.477 0
M  V30 9388 H 874.081 -1.25187 0.711634 0
M  V30 9389 H 876.034 -4.19803 -0.366563 0
M  V30 9390 H 874.758 -3.11615 -0.977944 0
M  V30 9391 H 873.417 -3.49024 1.1215 0
M  V30 9392 H 873.065 -4.95309 -0.876244 0
M  V30 9393 H 872.765 -5.84119 0.63865 0
M  V30 9394 H 874.289 -6.10059 -0.256968 0
M  V30 9395 H 875.703 -5.40691 1.90595 0
M  V30 9396 H 874.1 -5.36139 2.69583 0
M  V30 9397 H 875.17 -3.9524 2.80916 0
M  V30 9398 N 876.513 -0.788492 -1.36457 0
M  V30 9399 C 877.76 -0.360461 -1.99266 0
M  V30 9400 C 878.088 1.0676 -1.62581 0
M  V30 9401 O 877.343 1.75205 -0.871884 0
M  V30 9402 C 877.642 -0.470255 -3.54293 0
M  V30 9403 C 877.308 -1.85899 -4.10795 0
M  V30 9404 C 875.97 -2.23896 -4.25939 0
M  V30 9405 C 878.322 -2.76836 -4.41601 0
M  V30 9406 C 875.65 -3.52235 -4.69199 0
M  V30 9407 C 878.002 -4.04602 -4.86292 0
M  V30 9408 C 876.666 -4.42623 -4.99641 0
M  V30 9409 H 875.936 -0.131902 -0.729166 0
M  V30 9410 H 878.583 -1.00577 -1.62962 0
M  V30 9411 H 876.888 0.258559 -3.90946 0
M  V30 9412 H 878.585 -0.120119 -4.0082 0
M  V30 9413 H 875.175 -1.55372 -3.99447 0
M  V30 9414 H 879.359 -2.48735 -4.2947 0
M  V30 9415 H 874.615 -3.81565 -4.77722 0
M  V30 9416 H 878.789 -4.75182 -5.09092 0
M  V30 9417 H 876.416 -5.42125 -5.32921 0
M  V30 9418 N 877.991 1.48044 -0.54043 0
M  V30 9419 C 878.924 2.26667 0.264083 0
M  V30 9420 C 879.902 1.32996 0.935456 0
M  V30 9421 O 881.086 1.62354 0.95778 0
M  V30 9422 C 878.213 3.09541 1.37485 0
M  V30 9423 C 877.259 4.18664 0.813792 0
M  V30 9424 S 878.092 5.34503 -0.326536 0
M  V30 9425 C 879.248 6.20939 0.786452 0
M  V30 9426 H 879.481 2.94554 -0.403129 0
M  V30 9427 H 877.014 1.5091 -0.326415 0
M  V30 9428 H 878.972 3.57863 2.01107 0
M  V30 9429 H 877.633 2.41048 2.01382 0
M  V30 9430 H 876.826 4.76316 1.6474 0
M  V30 9431 H 876.428 3.73136 0.254066 0
M  V30 9432 H 878.72 6.56273 1.68262 0
M  V30 9433 H 879.663 7.07667 0.247673 0
M  V30 9434 H 880.071 5.54236 1.07156 0
M  V30 9435 N 879.47 0.276058 1.55163 0
M  V30 9436 C 880.433 -0.597924 2.21263 0
M  V30 9437 C 881.433 -1.0806 1.19078 0
M  V30 9438 O 882.623 -0.980626 1.43977 0
M  V30 9439 C 879.755 -1.82503 2.87933 0
M  V30 9440 H 880.948 -0.0207769 2.99893 0
M  V30 9441 H 878.501 0.0266823 1.56277 0
M  V30 9442 H 879.236 -2.44266 2.13318 0
M  V30 9443 H 879.021 -1.48683 3.62816 0
M  V30 9444 H 880.511 -2.44651 3.38431 0
M  V30 9445 N 880.948 -1.576 0.00335426 0
M  V30 9446 C 881.881 -2.04085 -1.021 0
M  V30 9447 C 882.859 -0.931382 -1.33282 0
M  V30 9448 O 884.043 -1.19976 -1.45389 0
M  V30 9449 C 881.17 -2.44128 -2.34775 0
M  V30 9450 C 880.216 -3.65841 -2.19232 0
M  V30 9451 S 881.049 -5.13616 -1.51521 0
M  V30 9452 C 882.205 -5.56931 -2.8562 0
M  V30 9453 H 882.438 -2.90652 -0.625192 0
M  V30 9454 H 879.971 -1.52998 -0.207611 0
M  V30 9455 H 881.929 -2.67866 -3.1106 0
M  V30 9456 H 880.59 -1.57954 -2.71495 0
M  V30 9457 H 879.783 -3.9162 -3.17253 0
M  V30 9458 H 879.385 -3.42122 -1.51091 0
M  V30 9459 H 881.677 -5.59596 -3.81914 0
M  V30 9460 H 882.62 -6.5683 -2.64536 0
M  V30 9461 H 883.028 -4.84504 -2.89683 0
M  V30 9462 N 882.426 0.269451 -1.5528 0
M  V30 9463 C 883.336 1.35511 -1.91505 0
M  V30 9464 C 884.352 1.53854 -0.812712 0
M  V30 9465 O 885.528 1.67912 -1.1121 0
M  V30 9466 C 882.593 2.6937 -2.18267 0
M  V30 9467 C 881.654 2.59743 -3.41807 0
M  V30 9468 C 880.887 3.87219 -3.67283 0
M  V30 9469 O 881.11 4.88066 -2.95208 0
M  V30 9470 O 880.044 3.87209 -4.60818 0
M  V30 9471 H 883.87 1.07785 -2.8393 0
M  V30 9472 H 881.455 0.468282 -1.41871 0
M  V30 9473 H 883.337 3.48513 -2.36889 0
M  V30 9474 H 882.012 2.96874 -1.29024 0
M  V30 9475 H 880.919 1.78964 -3.28516 0
M  V30 9476 H 882.252 2.37188 -4.3128 0
M  V30 9477 N 883.904 1.48273 0.534124 0
M  V30 9478 C 884.854 1.58889 1.63519 0
M  V30 9479 C 885.838 0.44626 1.54588 0
M  V30 9480 O 887.03 0.697474 1.62679 0
M  V30 9481 C 884.159 1.62787 3.0225 0
M  V30 9482 C 883.245 2.82515 3.16301 0
M  V30 9483 N 883.636 4.06977 3.00338 0
M  V30 9484 C 881.934 2.7976 3.47347 0
M  V30 9485 C 882.635 4.87283 3.17694 0
M  V30 9486 N 881.611 4.20024 3.45081 0
M  V30 9487 H 885.413 2.52869 1.49781 0
M  V30 9488 H 882.927 1.44587 0.739479 0
M  V30 9489 H 884.924 1.68486 3.81337 0
M  V30 9490 H 883.584 0.699201 3.17082 0
M  V30 9491 H 884.595 4.37479 2.77186 0
M  V30 9492 H 881.272 1.96132 3.68563 0
M  V30 9493 H 882.662 5.96047 3.10126 0
M  V30 9494 N 885.382 -0.782676 1.36792 0
M  V30 9495 C 886.612 -1.56934 1.3437 0
M  V30 9496 C 887.02 -1.89049 -0.0754828 0
M  V30 9497 O 886.363 -1.51103 -1.04467 0
M  V30 9498 C 886.425 -2.91311 2.10661 0
M  V30 9499 C 886.089 -2.81889 3.59705 0
M  V30 9500 C 887.086 -2.53668 4.53815 0
M  V30 9501 C 884.771 -3.00254 4.02682 0
M  V30 9502 C 886.765 -2.43925 5.8888 0
M  V30 9503 C 884.452 -2.90132 5.37835 0
M  V30 9504 C 885.45 -2.62006 6.30747 0
M  V30 9505 O 885.138 -2.5189 7.63418 0
M  V30 9506 H 884.87 -0.493194 0.462316 0
M  V30 9507 H 887.424 -0.978791 1.80579 0
M  V30 9508 H 885.654 -3.52443 1.59125 0
M  V30 9509 H 887.343 -3.52632 2.01012 0
M  V30 9510 H 888.109 -2.39176 4.21924 0
M  V30 9511 H 883.988 -3.21151 3.30731 0
M  V30 9512 H 887.532 -2.21892 6.6137 0
M  V30 9513 H 883.429 -3.04189 5.69332 0
M  V30 9514 H 884.197 -2.67321 7.73616 0
M  V30 9515 N 886.86 -1.21182 -1.00761 0
M  V30 9516 C 888.271 -1.02652 -1.55947 0
M  V30 9517 C 888.622 0.414466 -1.91772 0
M  V30 9518 O 887.747 1.29727 -1.73204 0
M  V30 9519 C 888.342 -1.85713 -2.83366 0
M  V30 9520 C 886.901 -1.71523 -3.35048 0
M  V30 9521 C 886.048 -1.83087 -2.08265 0
M  V30 9522 H 888.999 -1.35242 -0.830379 0
M  V30 9523 H 889.02 -1.36583 -3.55141 0
M  V30 9524 H 888.532 -2.90584 -2.5726 0
M  V30 9525 H 886.633 -0.693257 -3.66094 0
M  V30 9526 H 886.746 -2.53333 -4.06644 0
M  V30 9527 H 885.11 -1.26367 -2.21141 0
M  V30 9528 H 885.893 -2.8946 -1.84575 0
M  V30 9529 N 888.338 1.20213 -1.01915 0
M  V30 9530 C 889.271 2.2181 -0.536243 0
M  V30 9531 C 890.249 1.57144 0.417689 0
M  V30 9532 O 891.433 1.85461 0.337088 0
M  V30 9533 C 888.56 3.37989 0.219303 0
M  V30 9534 C 887.606 4.2097 -0.684571 0
M  V30 9535 S 888.439 4.90216 -2.15519 0
M  V30 9536 C 889.595 6.09814 -1.40988 0
M  V30 9537 H 889.828 2.62429 -1.39709 0
M  V30 9538 H 887.361 1.30305 -0.828254 0
M  V30 9539 H 889.319 4.05335 0.649112 0
M  V30 9540 H 887.98 2.95825 1.05575 0
M  V30 9541 H 887.173 5.03897 -0.101833 0
M  V30 9542 H 886.775 3.58892 -1.05227 0
M  V30 9543 H 889.067 6.73964 -0.691243 0
M  V30 9544 H 890.01 6.72552 -2.21539 0
M  V30 9545 H 890.418 5.5709 -0.911645 0
M  V30 9546 N 889.816 0.795718 1.36037 0
M  V30 9547 C 891.044 0.383153 2.03321 0
M  V30 9548 C 891.459 -1.00246 1.59988 0
M  V30 9549 O 890.816 -1.64406 0.792265 0
M  V30 9550 C 890.867 0.444467 3.58757 0
M  V30 9551 O 890.588 1.77544 4.00512 0
M  V30 9552 C 892.089 0.0233291 4.43294 0
M  V30 9553 H 889.309 0.157061 0.652359 0
M  V30 9554 H 891.853 1.07632 1.73884 0
M  V30 9555 H 890.008 -0.200341 3.86882 0
M  V30 9556 H 890.422 1.73065 4.95125 0
M  V30 9557 H 891.896 0.117361 5.51875 0
M  V30 9558 H 892.373 -1.03007 4.2695 0
M  V30 9559 H 892.979 0.64087 4.20444 0
M  V30 9560 N 891.294 -1.47756 0.548274 0
M  V30 9561 C 892.204 -2.33678 -0.207773 0
M  V30 9562 C 893.22 -1.47636 -0.920843 0
M  V30 9563 O 894.396 -1.80583 -0.89173 0
M  V30 9564 C 891.461 -3.24147 -1.23003 0
M  V30 9565 C 890.522 -4.26073 -0.52535 0
M  V30 9566 C 889.755 -5.12219 -1.4989 0
M  V30 9567 O 889.978 -5.0066 -2.73305 0
M  V30 9568 O 888.912 -5.93051 -1.02828 0
M  V30 9569 H 892.738 -2.99609 0.496794 0
M  V30 9570 H 890.323 -1.4617 0.308982 0
M  V30 9571 H 892.205 -3.80055 -1.82034 0
M  V30 9572 H 890.88 -2.60855 -1.91668 0
M  V30 9573 H 889.787 -3.7395 0.105927 0
M  V30 9574 H 891.12 -4.92054 0.119686 0
M  V30 9575 N 892.772 -0.284283 -1.55015 0
M  V30 9576 C 893.722 0.613913 -2.19579 0
M  V30 9577 C 894.706 1.11153 -1.16335 0
M  V30 9578 O 895.898 1.05508 -1.42116 0
M  V30 9579 C 893.027 1.79329 -2.92739 0
M  V30 9580 C 892.113 1.31242 -4.03282 0
M  V30 9581 N 892.504 0.548344 -5.02819 0
M  V30 9582 C 890.802 1.5946 -4.1652 0
M  V30 9583 C 891.503 0.294358 -5.80955 0
M  V30 9584 N 890.479 0.869406 -5.36603 0
M  V30 9585 H 894.281 0.0224088 -2.93891 0
M  V30 9586 H 891.795 -0.0882619 -1.6216 0
M  V30 9587 H 893.792 2.44814 -3.37449 0
M  V30 9588 H 892.452 2.38865 -2.1994 0
M  V30 9589 H 893.463 0.194812 -5.17533 0
M  V30 9590 H 890.14 2.19866 -3.54916 0
M  V30 9591 H 891.53 -0.318195 -6.71146 0
M  V30 9592 N 894.251 1.57596 -0.0117121 0
M  V30 9593 C 895.498 1.91071 0.670667 0
M  V30 9594 C 895.826 0.886457 1.73125 0
M  V30 9595 O 895.081 -0.107135 1.95407 0
M  V30 9596 C 895.38 3.31296 1.34082 0
M  V30 9597 C 895.046 4.49011 0.412305 0
M  V30 9598 C 893.708 4.80945 0.156691 0
M  V30 9599 C 896.06 5.20709 -0.226294 0
M  V30 9600 C 893.388 5.81943 -0.745619 0
M  V30 9601 C 895.74 6.22668 -1.11655 0
M  V30 9602 C 894.404 6.53053 -1.38123 0
M  V30 9603 H 893.674 0.69918 0.245415 0
M  V30 9604 H 896.321 1.91373 -0.0697511 0
M  V30 9605 H 894.626 3.27174 2.15557 0
M  V30 9606 H 896.323 3.54461 1.87506 0
M  V30 9607 H 892.913 4.24067 0.621705 0
M  V30 9608 H 897.097 4.96282 -0.0418456 0
M  V30 9609 H 892.353 6.03839 -0.958566 0
M  V30 9610 H 896.527 6.77351 -1.61767 0
M  V30 9611 H 894.154 7.31132 -2.08208 0
M  V30 9612 N 895.729 -0.261212 1.5542 0
M  V30 9613 C 897.006 -1.01321 1.67312 0
M  V30 9614 C 897.386 -2.0388 0.547356 0
M  V30 9615 O 896.734 -2.24003 -0.451083 0
M  V30 9616 C 896.944 -1.65943 3.07024 0
M  V30 9617 C 898.292 -2.16666 3.65159 0
M  V30 9618 O 899.316 -1.75909 3.09733 0
M  V30 9619 O 898.175 -2.91455 4.62294 0
M  V30 9620 H 895.269 -0.470714 0.679968 0
M  V30 9621 H 897.815 -0.256133 1.67756 0
M  V30 9622 H 896.587 -0.916868 3.80407 0
M  V30 9623 H 896.21 -2.48308 3.1053 0
M  V30 9624 N 897.207 -1.48554 -0.526253 0
M  V30 9625 C 898.155 -1.63804 -1.65139 0
M  V30 9626 C 899.149 -0.504398 -1.61716 0
M  V30 9627 O 900.355 -0.683241 -1.66529 0
M  V30 9628 H 896.73 -0.516071 -0.546969 0
M  V30 9629 H 898.701 -2.58294 -1.49421 0
M  V30 9630 C 897.45 -1.69843 -3.03395 0
M  V30 9631 H 896.773 -2.56438 -3.06724 0
M  V30 9632 H 898.213 -1.84555 -3.81727 0
M  V30 9633 C 896.672 -0.437875 -3.34042 0
M  V30 9634 O 897.202 0.447604 -3.99198 0
M  V30 9635 N 895.408 -0.308444 -2.88958 0
M  V30 9636 H 894.955 -1.02998 -2.36112 0
M  V30 9637 H 894.913 0.533952 -3.09833 0
M  V30 9638 N 898.685 0.775411 -1.37205 0
M  V30 9639 C 899.931 1.53611 -1.32407 0
M  V30 9640 C 900.264 1.9398 0.0924103 0
M  V30 9641 O 899.539 1.63791 1.04893 0
M  V30 9642 C 899.822 2.80367 -2.25979 0
M  V30 9643 C 899.675 2.46275 -3.76389 0
M  V30 9644 C 900.994 3.82277 -2.18064 0
M  V30 9645 H 898.113 0.557278 -0.482297 0
M  V30 9646 H 900.755 0.889826 -1.67875 0
M  V30 9647 H 898.905 3.35515 -1.95862 0
M  V30 9648 H 900.577 1.9707 -4.17087 0
M  V30 9649 H 898.82 1.79023 -3.95137 0
M  V30 9650 H 899.491 3.36868 -4.37291 0
M  V30 9651 H 901.967 3.36613 -2.44604 0
M  V30 9652 H 900.843 4.68696 -2.85684 0
M  V30 9653 H 901.104 4.26272 -1.17239 0
M  V30 9654 N 900.163 1.21714 1.00117 0
M  V30 9655 C 901.093 1.00397 2.10815 0
M  V30 9656 C 902.074 -0.0723502 1.69946 0
M  V30 9657 O 903.259 0.0882398 1.93999 0
M  V30 9658 C 900.389 0.572001 3.42557 0
M  V30 9659 C 899.343 1.59331 3.97237 0
M  V30 9660 C 898.669 1.01746 5.2493 0
M  V30 9661 C 899.969 2.98117 4.28863 0
M  V30 9662 H 901.663 1.92983 2.28906 0
M  V30 9663 H 899.209 0.929273 1.10002 0
M  V30 9664 H 901.162 0.410018 4.19401 0
M  V30 9665 H 899.886 -0.38951 3.24269 0
M  V30 9666 H 898.545 1.74293 3.22518 0
M  V30 9667 H 898.193 0.0475491 5.02978 0
M  V30 9668 H 897.893 1.69969 5.62481 0
M  V30 9669 H 899.417 0.866881 6.04415 0
M  V30 9670 H 900.831 2.86578 4.96534 0
M  V30 9671 H 899.228 3.63389 4.77565 0
M  V30 9672 H 900.298 3.48674 3.36979 0
M  V30 9673 N 901.641 -1.19671 1.02551 0
M  V30 9674 C 902.869 -1.93233 0.739513 0
M  V30 9675 C 903.284 -1.75298 -0.701158 0
M  V30 9676 O 902.641 -1.07269 -1.47647 0
M  V30 9677 C 902.692 -3.45085 1.07697 0
M  V30 9678 O 902.413 -3.62441 2.46106 0
M  V30 9679 C 903.914 -4.35776 0.813298 0
M  V30 9680 H 901.134 -0.613905 0.270853 0
M  V30 9681 H 903.678 -1.51909 1.36909 0
M  V30 9682 H 901.833 -3.84255 0.492635 0
M  V30 9683 H 902.247 -4.56337 2.58567 0
M  V30 9684 H 903.721 -5.40941 1.09941 0
M  V30 9685 H 904.198 -4.38474 -0.252359 0
M  V30 9686 H 904.804 -4.02282 1.38021 0
M  V30 9687 N 903.119 -0.802921 -1.35613 0
M  V30 9688 C 904.365 -0.382141 -1.99167 0
M  V30 9689 C 904.698 1.04704 -1.63556 0
M  V30 9690 O 903.973 1.72578 -0.89706 0
M  V30 9691 C 904.256 -0.561493 -3.55695 0
M  V30 9692 C 904.109 -2.03534 -4.01116 0
M  V30 9693 C 905.428 0.0151135 -4.40097 0
M  V30 9694 H 902.547 -0.140322 -0.723518 0
M  V30 9695 H 905.189 -1.01177 -1.6082 0
M  V30 9696 H 903.339 -0.0255083 -3.88492 0
M  V30 9697 H 905.011 -2.63343 -3.78746 0
M  V30 9698 H 903.254 -2.5331 -3.52159 0
M  V30 9699 H 903.925 -2.11173 -5.1001 0
M  V30 9700 H 906.401 -0.442582 -4.1374 0
M  V30 9701 H 905.277 -0.140316 -5.48721 0
M  V30 9702 H 905.538 1.10848 -4.27978 0
M  V30 9703 N 904.597 1.47463 -0.556102 0
M  V30 9704 C 905.845 2.02075 -0.0315712 0
M  V30 9705 C 906.166 1.43292 1.32259 0
M  V30 9706 O 905.436 0.60771 1.86236 0
M  V30 9707 H 904.016 0.74695 -0.0086816 0
M  V30 9708 H 906.678 1.80879 -0.725859 0
M  V30 9709 H 905.774 3.12047 0.0573538 0
M  V30 9710 N 906.075 0.2925 1.54862 0
M  V30 9711 C 907.023 -0.603186 2.24643 0
M  V30 9712 C 908.017 -1.1439 1.24946 0
M  V30 9713 O 909.223 -1.09552 1.42823 0
M  V30 9714 H 905.598 -0.213105 0.721173 0
M  V30 9715 H 907.569 0.00799278 2.98399 0
M  V30 9716 C 906.318 -1.76769 2.99413 0
M  V30 9717 H 905.641 -1.36084 3.75927 0
M  V30 9718 H 907.081 -2.37066 3.51533 0
M  V30 9719 C 905.54 -2.66669 2.05886 0
M  V30 9720 O 906.07 -3.67525 1.62136 0
M  V30 9721 N 904.276 -2.34216 1.7202 0
M  V30 9722 H 903.823 -1.52246 2.07795 0
M  V30 9723 H 903.781 -2.94635 1.09717 0
M  V30 9724 N 907.553 -1.57587 0.0200696 0
M  V30 9725 C 908.483 -2.12702 -0.963333 0
M  V30 9726 C 909.464 -1.04094 -1.34531 0
M  V30 9727 O 910.649 -1.31881 -1.42552 0
M  V30 9728 C 907.779 -2.64673 -2.24868 0
M  V30 9729 C 906.733 -3.77987 -2.00772 0
M  V30 9730 C 906.059 -4.16351 -3.35494 0
M  V30 9731 C 907.359 -5.0444 -1.35416 0
M  V30 9732 H 909.053 -2.95121 -0.504363 0
M  V30 9733 H 906.599 -1.41966 -0.24116 0
M  V30 9734 H 908.552 -3.01862 -2.94036 0
M  V30 9735 H 907.276 -1.79403 -2.72914 0
M  V30 9736 H 905.935 -3.41223 -1.34025 0
M  V30 9737 H 905.583 -3.28075 -3.81282 0
M  V30 9738 H 905.283 -4.92705 -3.20181 0
M  V30 9739 H 906.807 -4.56115 -4.05945 0
M  V30 9740 H 908.221 -5.39273 -1.94571 0
M  V30 9741 H 906.618 -5.85732 -1.30529 0
M  V30 9742 H 907.688 -4.83803 -0.325923 0
M  V30 9743 N 909.032 0.252966 -1.55557 0
M  V30 9744 C 910.278 0.983306 -1.77367 0
M  V30 9745 C 910.611 1.85203 -0.584258 0
M  V30 9746 O 909.886 1.89963 0.417644 0
M  V30 9747 C 910.169 1.84896 -3.09007 0
M  V30 9748 C 910.022 1.00883 -4.38341 0
M  V30 9749 C 911.341 2.83254 -3.36831 0
M  V30 9750 H 908.46 0.356056 -0.645286 0
M  V30 9751 H 911.102 0.254232 -1.88291 0
M  V30 9752 H 909.252 2.47058 -2.99825 0
M  V30 9753 H 910.924 0.40638 -4.59507 0
M  V30 9754 H 909.167 0.31297 -4.3267 0
M  V30 9755 H 909.838 1.64818 -5.2682 0
M  V30 9756 H 912.314 2.31228 -3.45937 0
M  V30 9757 H 911.19 3.40949 -4.30169 0
M  V30 9758 H 911.451 3.59407 -2.57447 0
M  V30 9759 N 910.51 1.48831 0.518367 0
M  V30 9760 C 911.757 1.57439 1.27355 0
M  V30 9761 C 912.085 0.25338 1.92843 0
M  V30 9762 O 911.34 -0.757323 1.80452 0
M  V30 9763 C 911.639 2.67003 2.3758 0
M  V30 9764 C 911.305 4.09069 1.89667 0
M  V30 9765 C 909.967 4.47733 1.76319 0
M  V30 9766 C 912.319 4.98052 1.53603 0
M  V30 9767 C 909.647 5.73173 1.25258 0
M  V30 9768 C 911.999 6.23992 1.04001 0
M  V30 9769 C 910.663 6.61503 0.892784 0
M  V30 9770 H 909.933 0.57611 0.466023 0
M  V30 9771 H 912.58 1.82595 0.577166 0
M  V30 9772 H 910.885 2.35751 3.12936 0
M  V30 9773 H 912.582 2.70876 2.95681 0
M  V30 9774 H 909.172 3.7854 2.01011 0
M  V30 9775 H 913.356 4.68849 1.62771 0
M  V30 9776 H 908.612 6.0095 1.12557 0
M  V30 9777 H 912.786 6.92331 0.751706 0
M  V30 9778 H 910.413 7.58587 0.494939 0
M  V30 9779 N 911.988 -0.768124 1.37614 0
M  V30 9780 C 913.216 -1.55726 1.36224 0
M  V30 9781 C 913.631 -1.8873 -0.0515357 0
M  V30 9782 O 912.988 -1.51718 -1.0143 0
M  V30 9783 C 913.039 -2.86533 2.20412 0
M  V30 9784 O 912.76 -2.54942 3.56281 0
M  V30 9785 C 914.261 -3.80745 2.27041 0
M  V30 9786 H 911.481 -0.482325 0.46648 0
M  V30 9787 H 914.025 -0.95176 1.81002 0
M  V30 9788 H 912.18 -3.43496 1.79134 0
M  V30 9789 H 912.594 -3.38732 4.00451 0
M  V30 9790 H 914.068 -4.69523 2.90263 0
M  V30 9791 H 914.545 -4.20138 1.27987 0
M  V30 9792 H 915.151 -3.2971 2.68647 0
M  V30 9793 N 913.466 -1.22244 -0.994698 0
M  V30 9794 C 914.714 -1.04384 -1.73056 0
M  V30 9795 C 915.035 0.422204 -1.90374 0
M  V30 9796 O 914.305 1.30383 -1.46209 0
M  V30 9797 H 912.885 -0.383263 -0.641185 0
M  V30 9798 H 915.547 -1.53725 -1.1981 0
M  V30 9799 H 914.643 -1.52021 -2.72573 0
M  V30 9800 N 914.944 1.19125 -1.03184 0
M  V30 9801 C 916.193 1.8821 -0.725264 0
M  V30 9802 C 916.506 1.80674 0.749411 0
M  V30 9803 O 917.712 2.45037 1.16915 0
M  V30 9804 C 916.168 3.37607 -1.24697 0
M  V30 9805 C 915.776 3.53693 -2.74964 0
M  V30 9806 C 917.52 4.12149 -1.01652 0
M  V30 9807 C 915.427 4.97001 -3.20538 0
M  V30 9808 H 914.357 0.704916 -0.267599 0
M  V30 9809 H 917.008 1.34663 -1.24652 0
M  V30 9810 H 915.39 3.90569 -0.653614 0
M  V30 9811 H 916.564 3.11046 -3.39981 0
M  V30 9812 H 914.879 2.92544 -2.96322 0
M  V30 9813 H 917.476 5.17837 -1.33226 0
M  V30 9814 H 917.819 4.16274 0.0465712 0
M  V30 9815 H 918.352 3.65334 -1.57403 0
M  V30 9816 H 915.091 4.9804 -4.26189 0
M  V30 9817 H 914.611 5.40398 -2.60251 0
M  V30 9818 H 916.29 5.65669 -3.14049 0
M  V30 9819 N 916.422 0.810101 1.35185 0
M  V30 9820 C 917.669 0.392117 1.98667 0
M  V30 9821 C 917.997 -1.0416 1.64259 0
M  V30 9822 O 917.252 -1.73795 0.899647 0
M  V30 9823 C 917.551 0.526561 3.535 0
M  V30 9824 C 917.217 1.92411 4.07785 0
M  V30 9825 C 915.879 2.30644 4.22323 0
M  V30 9826 C 918.231 2.83827 4.37141 0
M  V30 9827 C 915.559 3.59655 4.63536 0
M  V30 9828 C 917.911 4.12287 4.79794 0
M  V30 9829 C 916.575 4.50515 4.92536 0
M  V30 9830 H 915.845 0.143486 0.726975 0
M  V30 9831 H 918.492 1.03157 1.61341 0
M  V30 9832 H 916.797 -0.19633 3.91308 0
M  V30 9833 H 918.494 0.183871 4.00578 0
M  V30 9834 H 915.084 1.61707 3.96924 0
M  V30 9835 H 919.268 2.55536 4.25459 0
M  V30 9836 H 914.524 3.89117 4.71591 0
M  V30 9837 H 918.698 4.83221 5.01468 0
M  V30 9838 H 916.325 5.50535 5.24229 0
M  V30 9839 N 917.9 -1.47166 0.563914 0
M  V30 9840 C 919.128 -2.06846 0.0474287 0
M  V30 9841 C 919.543 -1.41557 -1.24928 0
M  V30 9842 O 918.9 -0.514376 -1.75101 0
M  V30 9843 C 918.951 -3.6121 -0.144831 0
M  V30 9844 O 918.672 -4.24052 1.10053 0
M  V30 9845 C 920.173 -4.37773 -0.69783 0
M  V30 9846 H 917.393 -0.669217 0.0488896 0
M  V30 9847 H 919.937 -1.89072 0.779235 0
M  V30 9848 H 918.092 -3.78474 -0.82679 0
M  V30 9849 H 918.506 -5.16677 0.902481 0
M  V30 9850 H 919.98 -5.46438 -0.781616 0
M  V30 9851 H 920.457 -4.04517 -1.71063 0
M  V30 9852 H 921.063 -4.25269 -0.0513516 0
M  V30 9853 N 919.378 -0.300708 -1.54705 0
M  V30 9854 C 920.341 0.562648 -2.22187 0
M  V30 9855 C 921.341 1.06152 -1.20782 0
M  V30 9856 O 922.531 0.957596 -1.45519 0
M  V30 9857 C 919.663 1.77899 -2.908 0
M  V30 9858 H 920.856 -0.0269361 -2.99888 0
M  V30 9859 H 918.409 -0.0515412 -1.56215 0
M  V30 9860 H 919.144 2.40841 -2.17177 0
M  V30 9861 H 918.929 1.42892 -3.65136 0
M  V30 9862 H 920.419 2.39236 -3.42281 0
M  V30 9863 N 920.856 1.57574 -0.0284266 0
M  V30 9864 C 921.766 2.13637 0.96936 0
M  V30 9865 C 922.782 1.08845 1.35752 0
M  V30 9866 O 923.958 1.40899 1.43908 0
M  V30 9867 C 921.023 2.65179 2.2334 0
M  V30 9868 C 920.084 3.84683 1.90572 0
M  V30 9869 C 919.317 4.33758 3.1095 0
M  V30 9870 O 919.54 3.82009 4.23586 0
M  V30 9871 O 918.474 5.2561 2.93288 0
M  V30 9872 H 922.3 2.99169 0.52267 0
M  V30 9873 H 919.885 1.48159 0.192135 0
M  V30 9874 H 921.767 2.98402 2.97547 0
M  V30 9875 H 920.442 1.82731 2.67191 0
M  V30 9876 H 919.349 3.56386 1.13753 0
M  V30 9877 H 920.682 4.68292 1.51538 0
M  V30 9878 N 922.334 -0.244713 1.55689 0
M  V30 9879 C 923.267 -1.32946 1.85474 0
M  V30 9880 C 924.245 -1.46279 0.710021 0
M  V30 9881 O 925.429 -1.62459 0.956004 0
M  V30 9882 C 922.556 -2.7027 2.04137 0
M  V30 9883 C 921.602 -2.74075 3.2678 0
M  V30 9884 S 922.435 -2.30465 4.8337 0
M  V30 9885 C 923.591 -3.69709 5.05041 0
M  V30 9886 H 923.824 -1.07482 2.77191 0
M  V30 9887 H 921.357 -0.445807 1.47824 0
M  V30 9888 H 923.315 -3.4934 2.15574 0
M  V30 9889 H 921.976 -2.9297 1.13259 0
M  V30 9890 H 921.169 -3.74932 3.36812 0
M  V30 9891 H 920.771 -2.03051 3.1408 0
M  V30 9892 H 923.063 -4.65222 4.92518 0
M  V30 9893 H 924.006 -3.6461 6.07014 0
M  V30 9894 H 924.414 -3.62323 4.32877 0
M  V30 9895 N 923.813 -1.49104 -0.510467 0
M  V30 9896 C 925.059 -1.58346 -1.26705 0
M  V30 9897 C 925.392 -0.265121 -1.92382 0
M  V30 9898 O 924.667 0.730558 -1.80258 0
M  V30 9899 C 924.95 -2.7359 -2.34137 0
M  V30 9900 C 924.803 -4.1519 -1.73024 0
M  V30 9901 C 926.122 -2.84511 -3.3577 0
M  V30 9902 H 923.241 -0.57637 -0.459311 0
M  V30 9903 H 925.883 -1.81353 -0.566658 0
M  V30 9904 H 924.033 -2.54105 -2.93876 0
M  V30 9905 H 925.705 -4.46167 -1.17186 0
M  V30 9906 H 923.948 -4.21279 -1.03473 0
M  V30 9907 H 924.619 -4.91683 -2.50903 0
M  V30 9908 H 927.095 -3.0222 -2.86011 0
M  V30 9909 H 925.971 -3.6684 -4.08313 0
M  V30 9910 H 926.232 -1.93471 -3.97519 0
M  V30 9911 N 925.291 0.760815 -1.38019 0
M  V30 9912 C 926.221 1.88811 -1.37377 0
M  V30 9913 C 927.202 1.68388 -0.240737 0
M  V30 9914 O 928.387 1.89086 -0.442739 0
M  V30 9915 C 925.517 3.26244 -1.1909 0
M  V30 9916 C 924.471 3.61254 -2.29521 0
M  V30 9917 C 923.797 4.97346 -1.96345 0
M  V30 9918 C 925.097 3.66874 -3.71753 0
M  V30 9919 H 926.791 1.89606 -2.31711 0
M  V30 9920 H 924.337 0.910818 -1.11535 0
M  V30 9921 H 926.29 4.04755 -1.17267 0
M  V30 9922 H 925.014 3.2591 -0.212152 0
M  V30 9923 H 923.673 2.85057 -2.30517 0
M  V30 9924 H 923.321 4.93564 -0.969728 0
M  V30 9925 H 923.021 5.21739 -2.703 0
M  V30 9926 H 924.545 5.78244 -1.96129 0
M  V30 9927 H 925.959 4.35514 -3.72828 0
M  V30 9928 H 924.356 4.02772 -4.44853 0
M  V30 9929 H 925.426 2.67273 -4.0459 0
M  V30 9930 N 926.769 1.22769 0.988202 0
M  V30 9931 C 927.716 1.00195 2.07917 0
M  V30 9932 C 928.686 -0.0779391 1.65917 0
M  V30 9933 O 929.871 0.0726005 1.90662 0
M  V30 9934 C 927.011 0.590853 3.40004 0
M  V30 9935 C 926.124 1.74202 3.9532 0
M  V30 9936 C 925.259 1.27846 5.15586 0
M  V30 9937 C 924.298 2.40087 5.63049 0
M  V30 9938 N 923.435 1.94744 6.74551 0
M  V30 9939 H 928.275 1.93581 2.26562 0
M  V30 9940 H 925.812 0.96448 1.11068 0
M  V30 9941 H 927.77 0.333653 4.15864 0
M  V30 9942 H 926.4 -0.306007 3.21346 0
M  V30 9943 H 925.452 2.11342 3.16289 0
M  V30 9944 H 926.764 2.58612 4.26522 0
M  V30 9945 H 925.918 0.978919 5.9875 0
M  V30 9946 H 924.657 0.404617 4.86019 0
M  V30 9947 H 923.662 2.70824 4.78471 0
M  V30 9948 H 924.887 3.27995 5.9464 0
M  V30 9949 H 922.833 1.09729 6.46758 0
M  V30 9950 H 922.75 2.72718 7.05096 0
M  V30 9951 H 924.018 1.67873 7.61209 0
M  V30 9952 N 928.247 -1.18576 1.03814 0
M  V30 9953 C 929.177 -2.24334 0.647795 0
M  V30 9954 C 930.158 -1.66508 -0.34774 0
M  V30 9955 O 931.343 -1.92852 -0.228401 0
M  V30 9956 C 928.473 -3.47299 0.00734922 0
M  V30 9957 C 927.427 -4.17859 0.926152 0
M  V30 9958 C 926.753 -5.34489 0.150317 0
M  V30 9959 C 928.053 -4.71632 2.24411 0
M  V30 9960 H 929.747 -2.57241 1.53191 0
M  V30 9961 H 927.293 -1.23649 0.738028 0
M  V30 9962 H 929.246 -4.20486 -0.277434 0
M  V30 9963 H 927.97 -3.13619 -0.911626 0
M  V30 9964 H 926.629 -3.46567 1.19528 0
M  V30 9965 H 926.277 -4.97056 -0.770985 0
M  V30 9966 H 925.977 -5.82633 0.762407 0
M  V30 9967 H 927.501 -6.10467 -0.127508 0
M  V30 9968 H 928.915 -5.36526 2.02021 0
M  V30 9969 H 927.312 -5.303 2.80894 0
M  V30 9970 H 928.382 -3.89192 2.89236 0
M  V30 9971 N 929.725 -0.817259 -1.34754 0
M  V30 9972 C 930.974 -0.39908 -1.97713 0
M  V30 9973 C 931.287 1.04203 -1.65533 0
M  V30 9974 O 932.493 1.56384 -2.21937 0
M  V30 9975 C 930.949 -0.662634 -3.53747 0
M  V30 9976 C 930.557 -2.11699 -3.94826 0
M  V30 9977 C 932.301 -0.31034 -4.23364 0
M  V30 9978 C 930.208 -2.32573 -5.4375 0
M  V30 9979 H 929.138 -0.145488 -0.739831 0
M  V30 9980 H 931.789 -1.00282 -1.53674 0
M  V30 9981 H 930.171 0.0111972 -3.95998 0
M  V30 9982 H 931.345 -2.82951 -3.63697 0
M  V30 9983 H 929.66 -2.43017 -3.3813 0
M  V30 9984 H 932.257 -0.44421 -5.32852 0
M  V30 9985 H 932.6 0.744594 -4.09587 0
M  V30 9986 H 933.133 -0.938518 -3.8657 0
M  V30 9987 H 929.872 -3.36551 -5.62507 0
M  V30 9988 H 929.392 -1.65858 -5.76412 0
M  V30 9989 H 931.071 -2.14651 -6.10356 0
M  V30 9990 N 931.203 1.46865 -0.571711 0
M  V30 9991 C 932.166 2.28658 0.157499 0
M  V30 9992 C 933.166 1.37773 0.829172 0
M  V30 9993 O 934.356 1.6026 0.682811 0
M  V30 9994 C 931.488 3.17859 1.23202 0
M  V30 9995 H 932.681 2.94603 -0.561171 0
M  V30 9996 H 930.234 1.52793 -0.329229 0
M  V30 9997 H 930.969 2.56637 1.98262 0
M  V30 9998 H 930.754 3.84762 0.755031 0
M  V30 9999 H 932.244 3.7945 1.74378 0
M  V30 10000 N 932.681 0.308908 1.54543 0
M  V30 10001 C 933.614 -0.605854 2.20011 0
M  V30 10002 C 934.592 -1.1269 1.17216 0
M  V30 10003 O 935.776 -1.19363 1.45893 0
M  V30 10004 C 932.903 -1.82977 2.85021 0
M  V30 10005 C 931.949 -1.44126 4.0141 0
M  V30 10006 S 932.782 -0.490445 5.33249 0
M  V30 10007 C 933.938 -1.72198 6.01746 0
M  V30 10008 H 934.171 -0.0496911 2.97258 0
M  V30 10009 H 931.704 0.0930238 1.5412 0
M  V30 10010 H 933.662 -2.53211 3.23102 0
M  V30 10011 H 932.323 -2.35711 2.07604 0
M  V30 10012 H 931.516 -2.35288 4.45708 0
M  V30 10013 H 931.118 -0.818788 3.64927 0
M  V30 10014 H 933.41 -2.66147 6.23034 0
M  V30 10015 H 934.353 -1.32142 6.95661 0
M  V30 10016 H 934.761 -1.90229 5.31482 0
M  V30 10017 N 934.159 -1.57557 0.0367827 0
M  V30 10018 C 935.436 -1.83427 -0.679261 0
M  V30 10019 C 935.816 -0.922274 -1.89888 0
M  V30 10020 O 935.164 0.02025 -2.28491 0
M  V30 10021 C 935.374 -3.32823 -1.05022 0
M  V30 10022 C 936.722 -3.99486 -1.43861 0
M  V30 10023 O 937.746 -3.37364 -1.14297 0
M  V30 10024 O 936.605 -5.0899 -1.98977 0
M  V30 10025 H 933.699 -0.756581 -0.333936 0
M  V30 10026 H 936.245 -1.69575 0.0650494 0
M  V30 10027 H 935.017 -3.90874 -0.182509 0
M  V30 10028 H 934.64 -3.5181 -1.85244 0
M  V30 10029 N 935.637 0.236453 -1.55816 0
M  V30 10030 C 937.048 0.80468 -1.68469 0
M  V30 10031 C 937.399 1.85601 -0.636133 0
M  V30 10032 O 936.524 2.15323 0.215622 0
M  V30 10033 C 937.119 1.46634 -3.05424 0
M  V30 10034 C 935.678 1.98214 -3.19981 0
M  V30 10035 C 934.825 0.83695 -2.64368 0
M  V30 10036 H 937.776 0.0120647 -1.58695 0
M  V30 10037 H 937.797 2.33472 -3.00451 0
M  V30 10038 H 937.309 0.700931 -3.81718 0
M  V30 10039 H 935.41 2.77604 -2.4853 0
M  V30 10040 H 935.523 2.17235 -4.2702 0
M  V30 10041 H 933.887 1.24028 -2.22462 0
M  V30 10042 H 934.67 0.084451 -3.43196 0
M  V30 10043 N 937.115 1.49373 0.502552 0
M  V30 10044 C 938.345 1.62252 1.27898 0
M  V30 10045 C 938.753 0.292555 1.86924 0
M  V30 10046 O 938.096 -0.731823 1.68493 0
M  V30 10047 C 938.158 2.63153 2.4493 0
M  V30 10048 C 937.822 4.07541 2.06784 0
M  V30 10049 C 938.819 4.94392 1.60849 0
M  V30 10050 C 936.504 4.53263 2.16466 0
M  V30 10051 C 938.498 6.25003 1.25098 0
M  V30 10052 C 936.185 5.83888 1.80327 0
M  V30 10053 C 937.183 6.69582 1.34718 0
M  V30 10054 O 936.871 7.97773 0.990661 0
M  V30 10055 H 936.603 0.54918 0.394179 0
M  V30 10056 H 939.157 1.96132 0.610031 0
M  V30 10057 H 937.387 2.2445 3.14895 0
M  V30 10058 H 939.076 2.65578 3.06957 0
M  V30 10059 H 939.842 4.60296 1.52816 0
M  V30 10060 H 935.721 3.86731 2.50919 0
M  V30 10061 H 939.265 6.91844 0.894269 0
M  V30 10062 H 935.162 6.17513 1.8801 0
M  V30 10063 H 935.93 8.1077 1.12227 0
M  V30 10064 N 938.594 -0.753485 1.38421 0
M  V30 10065 C 939.504 -1.89797 1.37892 0
M  V30 10066 C 940.52 -1.71797 0.276023 0
M  V30 10067 O 941.696 -1.94718 0.514464 0
M  V30 10068 C 938.761 -3.25166 1.20284 0
M  V30 10069 C 937.822 -3.55691 2.4038 0
M  V30 10070 C 937.055 -4.84601 2.23602 0
M  V30 10071 O 937.278 -5.56985 1.22979 0
M  V30 10072 O 936.212 -5.14605 3.12194 0
M  V30 10073 H 940.038 -1.93197 2.34326 0
M  V30 10074 H 937.623 -0.898775 1.19342 0
M  V30 10075 H 939.505 -4.06099 1.12525 0
M  V30 10076 H 938.18 -3.22577 0.269352 0
M  V30 10077 H 937.087 -2.74919 2.53714 0
M  V30 10078 H 938.42 -3.6304 3.32359 0
M  V30 10079 N 940.072 -1.23292 -0.981677 0
M  V30 10080 C 941.302 -1.0893 -1.7555 0
M  V30 10081 C 941.71 0.362219 -1.857 0
M  V30 10082 O 941.053 1.2624 -1.33451 0
M  V30 10083 C 941.115 -1.6389 -3.19969 0
M  V30 10084 C 940.779 -3.12632 -3.33332 0
M  V30 10085 C 941.776 -4.0994 -3.19758 0
M  V30 10086 C 939.461 -3.52314 -3.58022 0
M  V30 10087 C 941.455 -5.44915 -3.30676 0
M  V30 10088 C 939.142 -4.87434 -3.6858 0
M  V30 10089 C 940.14 -5.83544 -3.54916 0
M  V30 10090 O 939.828 -7.16209 -3.65102 0
M  V30 10091 H 939.56 -0.381901 -0.557788 0
M  V30 10092 H 942.114 -1.63586 -1.24213 0
M  V30 10093 H 940.344 -1.03653 -3.72549 0
M  V30 10094 H 942.033 -1.45023 -3.79108 0
M  V30 10095 H 942.799 -3.80625 -3.00582 0
M  V30 10096 H 938.678 -2.78022 -3.67729 0
M  V30 10097 H 942.222 -6.19913 -3.19928 0
M  V30 10098 H 938.119 -5.16426 -3.87265 0
M  V30 10099 H 938.887 -7.23941 -3.81905 0
M  V30 10100 N 941.55 1.18024 -1.04442 0
M  V30 10101 C 942.797 1.88098 -0.750022 0
M  V30 10102 C 943.125 1.80583 0.722489 0
M  V30 10103 O 942.38 1.20329 1.54335 0
M  V30 10104 C 942.679 3.37834 -1.16631 0
M  V30 10105 C 942.345 3.65553 -2.63974 0
M  V30 10106 C 941.007 3.72827 -3.04226 0
M  V30 10107 C 943.359 3.77634 -3.59224 0
M  V30 10108 C 940.687 3.89666 -4.38608 0
M  V30 10109 C 943.039 3.9599 -4.9333 0
M  V30 10110 C 941.703 4.01501 -5.33248 0
M  V30 10111 H 940.973 0.6883 -0.274452 0
M  V30 10112 H 943.62 1.39671 -1.31012 0
M  V30 10113 H 941.925 3.88266 -0.525071 0
M  V30 10114 H 943.622 3.90402 -0.915827 0
M  V30 10115 H 940.212 3.6051 -2.31798 0
M  V30 10116 H 944.396 3.71342 -3.2927 0
M  V30 10117 H 939.652 3.92178 -4.69048 0
M  V30 10118 H 943.826 4.0428 -5.67037 0
M  V30 10119 H 941.453 4.14301 -6.37384 0
M  V30 10120 N 943.028 0.824394 1.34319 0
M  V30 10121 C 943.96 0.204805 2.28283 0
M  V30 10122 C 944.973 -0.606162 1.51094 0
M  V30 10123 O 946.162 -0.435602 1.73103 0
M  V30 10124 C 943.262 -0.73139 3.30914 0
M  V30 10125 C 942.435 0.0370723 4.37384 0
M  V30 10126 C 941.494 -0.820272 5.19767 0
M  V30 10127 O 940.52 -0.264721 5.68584 0
M  V30 10128 N 941.722 -2.13984 5.39621 0
M  V30 10129 H 944.487 1.0121 2.82093 0
M  V30 10130 H 942.048 0.681494 1.46858 0
M  V30 10131 H 944.04 -1.30958 3.82926 0
M  V30 10132 H 942.61 -1.43943 2.77487 0
M  V30 10133 H 941.83 0.796578 3.86068 0
M  V30 10134 H 943.118 0.566014 5.05642 0
M  V30 10135 H 942.516 -2.61492 5.01636 0
M  V30 10136 H 941.073 -2.66685 5.94746 0
M  V30 10137 N 944.506 -1.46559 0.579492 0
M  V30 10138 C 945.438 -2.28383 -0.19337 0
M  V30 10139 C 946.451 -1.38324 -0.858511 0
M  V30 10140 O 947.64 -1.62952 -0.728615 0
M  V30 10141 C 944.74 -3.13262 -1.29306 0
M  V30 10142 C 943.913 -4.31426 -0.720459 0
M  V30 10143 C 942.972 -4.97728 -1.70744 0
M  V30 10144 O 941.998 -5.55423 -1.24476 0
M  V30 10145 N 943.2 -4.94445 -3.04146 0
M  V30 10146 H 945.965 -2.95353 0.508611 0
M  V30 10147 H 943.526 -1.56436 0.417046 0
M  V30 10148 H 945.518 -3.54483 -1.95254 0
M  V30 10149 H 944.088 -2.48388 -1.89795 0
M  V30 10150 H 943.308 -3.94028 0.116398 0
M  V30 10151 H 944.596 -5.07808 -0.31763 0
M  V30 10152 H 943.994 -4.4881 -3.44363 0
M  V30 10153 H 942.551 -5.39616 -3.65592 0
M  V30 10154 N 945.984 -0.3171 -1.54377 0
M  V30 10155 C 947.232 0.286842 -2.00054 0
M  V30 10156 C 947.553 1.53161 -1.20692 0
M  V30 10157 O 946.823 1.93479 -0.307045 0
M  V30 10158 H 945.403 0.108979 -0.739008 0
M  V30 10159 H 948.065 -0.432152 -1.90049 0
M  V30 10160 H 947.161 0.547729 -3.07256 0
M  V30 10161 N 947.462 1.57535 -0.0451378 0
M  V30 10162 C 948.708 1.93558 0.62505 0
M  V30 10163 C 949.063 0.923159 1.68806 0
M  V30 10164 O 948.356 -0.0585419 1.91511 0
M  V30 10165 C 948.55 3.34065 1.27024 0
M  V30 10166 C 948.379 4.48881 0.271253 0
M  V30 10167 C 947.149 5.05121 -0.13462 0
M  V30 10168 C 949.347 5.12047 -0.480911 0
M  V30 10169 N 947.329 6.03465 -1.1271 0
M  V30 10170 C 948.7 6.0564 -1.32666 0
M  V30 10171 C 950.755 4.94964 -0.539878 0
M  V30 10172 C 949.458 6.83987 -2.22608 0
M  V30 10173 C 951.484 5.73933 -1.4267 0
M  V30 10174 C 950.846 6.67154 -2.26019 0
M  V30 10175 H 946.945 0.755846 0.20055 0
M  V30 10176 H 949.529 1.94354 -0.116059 0
M  V30 10177 H 947.7 3.34058 1.98141 0
M  V30 10178 H 949.432 3.57393 1.89875 0
M  V30 10179 H 946.187 4.72976 0.243112 0
M  V30 10180 H 946.611 6.5733 -1.62006 0
M  V30 10181 H 951.253 4.22704 0.0902834 0
M  V30 10182 H 948.971 7.55543 -2.86672 0
M  V30 10183 H 952.557 5.62744 -1.47682 0
M  V30 10184 H 951.437 7.27194 -2.93528 0
M  V30 10185 N 948.94 -0.228186 1.55939 0
M  V30 10186 C 949.888 -1.30239 1.92719 0
M  V30 10187 C 950.882 -1.48865 0.808424 0
M  V30 10188 O 952.088 -1.50118 0.993204 0
M  V30 10189 H 948.463 -0.436509 0.612343 0
M  V30 10190 H 950.434 -0.964965 2.82367 0
M  V30 10191 C 949.183 -2.647 2.25453 0
M  V30 10192 H 948.506 -2.51173 3.1105 0
M  V30 10193 H 949.946 -3.38691 2.55077 0
M  V30 10194 C 948.405 -3.1921 1.07734 0
M  V30 10195 O 948.935 -4.00301 0.335019 0
M  V30 10196 N 947.141 -2.77492 0.862938 0
M  V30 10197 H 946.688 -2.11657 1.4683 0
M  V30 10198 H 946.646 -3.14306 0.0770119 0
M  V30 10199 N 950.418 -1.49637 -0.494624 0
M  V30 10200 C 951.667 -1.58691 -1.24499 0
M  V30 10201 C 951.98 -0.281763 -1.9356 0
M  V30 10202 O 953.186 -0.250925 -2.70338 0
M  V30 10203 C 951.642 -2.8002 -2.26091 0
M  V30 10204 C 951.25 -4.17318 -1.6294 0
M  V30 10205 C 952.994 -2.98407 -3.01916 0
M  V30 10206 C 950.901 -5.29862 -2.62679 0
M  V30 10207 H 949.831 -0.590888 -0.468367 0
M  V30 10208 H 952.482 -1.76034 -0.518112 0
M  V30 10209 H 950.864 -2.56185 -3.01969 0
M  V30 10210 H 952.038 -4.51315 -0.930108 0
M  V30 10211 H 950.353 -4.04342 -0.994819 0
M  V30 10212 H 952.95 -3.79658 -3.76516 0
M  V30 10213 H 953.293 -2.09214 -3.5991 0
M  V30 10214 H 953.826 -3.22312 -2.33152 0
M  V30 10215 H 950.565 -6.21134 -2.09458 0
M  V30 10216 H 950.085 -5.00311 -3.3083 0
M  V30 10217 H 951.764 -5.59461 -3.2498 0
M  V30 10218 N 951.896 0.746133 -1.38819 0
M  V30 10219 C 953.143 1.50545 -1.35434 0
M  V30 10220 C 953.471 1.94427 0.0532669 0
M  V30 10221 O 952.726 1.66285 1.03188 0
M  V30 10222 C 953.025 2.76639 -2.26286 0
M  V30 10223 C 952.691 2.51682 -3.74122 0
M  V30 10224 C 951.353 2.44584 -4.14406 0
M  V30 10225 C 953.705 2.30071 -4.67672 0
M  V30 10226 C 951.033 2.13902 -5.46318 0
M  V30 10227 C 953.385 2.00907 -5.99849 0
M  V30 10228 C 952.049 1.92271 -6.39209 0
M  V30 10229 H 951.319 0.550883 -0.49559 0
M  V30 10230 H 953.966 0.857337 -1.71237 0
M  V30 10231 H 952.271 3.46138 -1.83564 0
M  V30 10232 H 953.968 3.34626 -2.20967 0
M  V30 10233 H 950.558 2.5808 -3.42188 0
M  V30 10234 H 954.742 2.34528 -4.3739 0
M  V30 10235 H 949.998 2.0573 -5.75748 0
M  V30 10236 H 954.172 1.83191 -6.71874 0
M  V30 10237 H 951.799 1.68261 -7.41345 0
M  V30 10238 N 953.375 1.23811 0.975125 0
M  V30 10239 C 954.652 0.9815 1.69192 0
M  V30 10240 C 955.032 -0.498373 2.05133 0
M  V30 10241 O 954.38 -1.47087 1.74864 0
M  V30 10242 C 954.59 1.89701 2.92941 0
M  V30 10243 C 955.938 2.16357 3.65342 0
M  V30 10244 O 956.962 1.87293 3.02985 0
M  V30 10245 O 955.821 2.65675 4.77576 0
M  V30 10246 H 952.915 0.370599 0.739314 0
M  V30 10247 H 955.461 1.34876 1.02988 0
M  V30 10248 H 954.233 2.89719 2.63018 0
M  V30 10249 H 953.856 1.53244 3.66881 0
M  V30 10250 N 954.853 -1.17469 1.05066 0
M  V30 10251 C 956.078 -1.92162 0.780298 0
M  V30 10252 C 956.503 -1.76222 -0.657832 0
M  V30 10253 O 955.861 -1.0791 -1.45688 0
M  V30 10254 C 955.909 -3.41292 1.16414 0
M  V30 10255 O 955.013 -4.1134 0.295531 0
M  V30 10256 H 954.354 -0.599127 0.286257 0
M  V30 10257 H 956.884 -1.48903 1.40318 0
M  V30 10258 H 956.894 -3.92029 1.13036 0
M  V30 10259 H 955.569 -3.52214 2.21175 0
M  V30 10260 H 954.146 -3.70857 0.389797 0
M  V30 10261 N 956.331 -0.831506 -1.3388 0
M  V30 10262 C 957.58 -0.420028 -1.97278 0
M  V30 10263 C 957.893 1.02441 -1.66629 0
M  V30 10264 O 959.099 1.54021 -2.23584 0
M  V30 10265 C 957.555 -0.700116 -3.53025 0
M  V30 10266 C 957.163 -2.15874 -3.92559 0
M  V30 10267 C 958.907 -0.355226 -4.23011 0
M  V30 10268 C 956.814 -2.38327 -5.41252 0
M  V30 10269 H 955.744 -0.153326 -0.738246 0
M  V30 10270 H 958.395 -1.01906 -1.52602 0
M  V30 10271 H 956.777 -0.0308044 -3.95988 0
M  V30 10272 H 957.951 -2.86792 -3.60675 0
M  V30 10273 H 956.266 -2.4659 -3.35533 0
M  V30 10274 H 958.863 -0.500701 -5.32351 0
M  V30 10275 H 959.206 0.70111 -4.10354 0
M  V30 10276 H 959.739 -0.979466 -3.85553 0
M  V30 10277 H 956.478 -3.42498 -5.58906 0
M  V30 10278 H 955.998 -1.71962 -5.74621 0
M  V30 10279 H 957.677 -2.21113 -6.08045 0
M  V30 10280 N 957.809 1.4625 -0.587256 0
M  V30 10281 C 959.058 2.01571 -0.0722643 0
M  V30 10282 C 959.371 1.46385 1.29733 0
M  V30 10283 O 960.577 1.93554 1.90392 0
M  V30 10284 C 959.033 3.59814 -0.078579 0
M  V30 10285 C 958.641 4.23996 -1.44678 0
M  V30 10286 C 960.385 4.22776 0.382231 0
M  V30 10287 C 958.292 5.74332 -1.41057 0
M  V30 10288 H 957.222 0.753642 -0.0232461 0
M  V30 10289 H 959.873 1.67936 -0.739577 0
M  V30 10290 H 958.255 3.90546 0.654988 0
M  V30 10291 H 959.429 4.04867 -2.20043 0
M  V30 10292 H 957.744 3.73147 -1.84799 0
M  V30 10293 H 960.341 5.32983 0.428182 0
M  V30 10294 H 960.684 3.92027 1.40072 0
M  V30 10295 H 961.217 3.96687 -0.297417 0
M  V30 10296 H 957.956 6.09747 -2.40601 0
M  V30 10297 H 957.476 5.95711 -0.699185 0
M  V30 10298 H 959.155 6.37137 -1.12543 0
M  V30 10299 N 959.287 0.325282 1.54207 0
M  V30 10300 C 960.533 -0.277185 2.00897 0
M  V30 10301 C 960.866 -1.51651 1.21308 0
M  V30 10302 O 960.141 -1.92237 0.295825 0
M  V30 10303 C 960.424 -0.60961 3.54902 0
M  V30 10304 C 960.277 0.640542 4.45216 0
M  V30 10305 C 961.596 -1.42656 4.16338 0
M  V30 10306 H 958.715 -0.0992722 0.730284 0
M  V30 10307 H 961.357 0.442201 1.84783 0
M  V30 10308 H 959.507 -1.22249 3.68765 0
M  V30 10309 H 961.179 1.27878 4.43221 0
M  V30 10310 H 959.422 1.26908 4.14821 0
M  V30 10311 H 960.093 0.363459 5.50802 0
M  V30 10312 H 962.569 -0.908494 4.06061 0
M  V30 10313 H 961.445 -1.62792 5.24204 0
M  V30 10314 H 961.706 -2.42321 3.69774 0
M  V30 10315 N 960.765 -1.57509 0.0534917 0
M  V30 10316 C 961.993 -1.97098 -0.629298 0
M  V30 10317 C 962.408 -0.931128 -1.64242 0
M  V30 10318 O 961.765 0.0843866 -1.82305 0
M  V30 10319 C 961.816 -3.36767 -1.31415 0
M  V30 10320 O 961.537 -4.36766 -0.341599 0
M  V30 10321 C 963.038 -3.91127 -2.08649 0
M  V30 10322 H 960.258 -0.648611 -0.171886 0
M  V30 10323 H 962.802 -2.04145 0.120479 0
M  V30 10324 H 960.957 -3.30863 -2.01515 0
M  V30 10325 H 961.371 -5.1788 -0.830715 0
M  V30 10326 H 962.845 -4.91129 -2.51985 0
M  V30 10327 H 963.322 -3.26679 -2.9356 0
M  V30 10328 H 963.928 -4.00376 -1.43456 0
M  V30 10329 N 962.243 0.219913 -1.56058 0
M  V30 10330 C 963.173 1.27572 -1.9557 0
M  V30 10331 C 964.154 1.48801 -0.824148 0
M  V30 10332 O 965.339 1.60957 -1.08658 0
M  V30 10333 C 962.469 2.62517 -2.27381 0
M  V30 10334 C 961.423 2.55941 -3.43042 0
M  V30 10335 C 960.749 3.94931 -3.60463 0
M  V30 10336 C 962.049 2.10584 -4.77966 0
M  V30 10337 H 963.743 0.947482 -2.84013 0
M  V30 10338 H 961.289 0.454337 -1.36645 0
M  V30 10339 H 963.242 3.36538 -2.53615 0
M  V30 10340 H 961.966 2.97031 -1.35794 0
M  V30 10341 H 960.625 1.84377 -3.1686 0
M  V30 10342 H 960.273 4.26756 -2.66249 0
M  V30 10343 H 959.973 3.91413 -4.38258 0
M  V30 10344 H 961.497 4.70611 -3.89046 0
M  V30 10345 H 962.911 2.74349 -5.03394 0
M  V30 10346 H 961.308 2.18122 -5.59055 0
M  V30 10347 H 962.378 1.05818 -4.73213 0
M  V30 10348 N 963.721 1.49897 0.486681 0
M  V30 10349 C 964.946 1.64106 1.26823 0
M  V30 10350 C 965.371 0.317967 1.85393 0
M  V30 10351 O 964.729 -0.71626 1.66551 0
M  V30 10352 C 964.777 2.72301 2.36399 0
M  V30 10353 O 963.881 2.32469 3.40634 0
M  V30 10354 H 963.222 0.548794 0.373793 0
M  V30 10355 H 965.752 1.96177 0.581017 0
M  V30 10356 H 965.762 2.94906 2.81948 0
M  V30 10357 H 964.437 3.68335 1.93137 0
M  V30 10358 H 963.014 2.20251 3.00905 0
M  V30 10359 N 965.199 -0.738761 1.39212 0
M  V30 10360 C 966.129 -1.86602 1.40364 0
M  V30 10361 C 967.11 -1.67984 0.267495 0
M  V30 10362 O 968.295 -1.88358 0.472765 0
M  V30 10363 C 965.425 -3.24308 1.24265 0
M  V30 10364 C 964.379 -3.57557 2.35239 0
M  V30 10365 C 963.705 -4.94159 2.04233 0
M  V30 10366 C 965.005 -3.60914 3.77543 0
M  V30 10367 H 966.699 -1.85896 2.34698 0
M  V30 10368 H 964.245 -0.892959 1.1297 0
M  V30 10369 H 966.198 -4.02838 1.23692 0
M  V30 10370 H 964.922 -3.25531 0.263974 0
M  V30 10371 H 963.581 -2.81354 2.35022 0
M  V30 10372 H 963.229 -4.91959 1.04813 0
M  V30 10373 H 962.929 -5.17373 2.78567 0
M  V30 10374 H 964.453 -5.7505 2.05303 0
M  V30 10375 H 965.867 -4.29528 3.79709 0
M  V30 10376 H 964.264 -3.95644 4.51205 0
M  V30 10377 H 965.334 -2.60803 4.08791 0
M  V30 10378 N 966.677 -1.24326 -0.968545 0
M  V30 10379 C 967.923 -1.08406 -1.71394 0
M  V30 10380 C 968.256 0.376353 -1.90518 0
M  V30 10381 O 967.531 1.27816 -1.46606 0
M  V30 10382 C 967.814 -1.82344 -3.1052 0
M  V30 10383 C 967.667 -3.3613 -2.98893 0
M  V30 10384 C 968.986 -1.59545 -4.10163 0
M  V30 10385 H 966.105 -0.395205 -0.622079 0
M  V30 10386 H 968.747 -1.52983 -1.12677 0
M  V30 10387 H 966.897 -1.44452 -3.60646 0
M  V30 10388 H 968.569 -3.83614 -2.56199 0
M  V30 10389 H 966.812 -3.64553 -2.35124 0
M  V30 10390 H 967.483 -3.83064 -3.97449 0
M  V30 10391 H 969.959 -1.92504 -3.68892 0
M  V30 10392 H 968.835 -2.13736 -5.05577 0
M  V30 10393 H 969.096 -0.533503 -4.38869 0
M  V30 10394 N 968.156 1.1691 -1.05688 0
M  V30 10395 C 969.066 2.24735 -0.67315 0
M  V30 10396 C 970.082 1.71252 0.308043 0
M  V30 10397 O 971.258 2.00772 0.158889 0
M  V30 10398 C 968.323 3.4665 -0.059026 0
M  V30 10399 C 967.384 4.15198 -1.0913 0
M  V30 10400 C 966.617 5.31292 -0.50639 0
M  V30 10401 O 966.84 5.663 0.682692 0
M  V30 10402 O 965.774 5.88923 -1.2431 0
M  V30 10403 H 969.6 2.59855 -1.57191 0
M  V30 10404 H 967.185 1.24306 -0.828751 0
M  V30 10405 H 969.067 4.20455 0.282018 0
M  V30 10406 H 967.742 3.13316 0.813304 0
M  V30 10407 H 966.649 3.43389 -1.48442 0
M  V30 10408 H 967.982 4.52571 -1.93495 0
M  V30 10409 N 969.634 0.838594 1.33437 0
M  V30 10410 C 970.564 0.286672 2.31734 0
M  V30 10411 C 971.545 -0.605451 1.5896 0
M  V30 10412 O 972.73 -0.529059 1.86854 0
M  V30 10413 C 969.86 -0.539311 3.43087 0
M  V30 10414 C 968.814 0.256997 4.27228 0
M  V30 10415 C 968.14 -0.692718 5.30194 0
M  V30 10416 C 969.44 1.47391 5.01072 0
M  V30 10417 H 971.134 1.10798 2.78144 0
M  V30 10418 H 968.68 0.534235 1.33723 0
M  V30 10419 H 970.633 -0.935724 4.1088 0
M  V30 10420 H 969.357 -1.39383 2.95364 0
M  V30 10421 H 968.016 0.634967 3.61059 0
M  V30 10422 H 967.664 -1.54363 4.78729 0
M  V30 10423 H 967.364 -0.164023 5.87371 0
M  V30 10424 H 968.888 -1.08665 6.00853 0
M  V30 10425 H 970.302 1.15067 5.61634 0
M  V30 10426 H 968.699 1.93937 5.67898 0
M  V30 10427 H 969.769 2.24382 4.29861 0
M  V30 10428 N 971.112 -1.45937 0.595003 0
M  V30 10429 C 972.36 -2.01921 0.0851368 0
M  V30 10430 C 972.681 -1.46748 -1.28413 0
M  V30 10431 O 971.951 -0.656873 -1.84559 0
M  V30 10432 H 970.531 -0.746457 0.0284826 0
M  V30 10433 H 973.193 -1.78891 0.773561 0
M  V30 10434 H 972.289 -3.1209 0.0254002 0
M  V30 10435 N 972.59 -0.333456 -1.54032 0
M  V30 10436 C 973.52 0.52051 -2.27625 0
M  V30 10437 C 974.501 1.1111 -1.28797 0
M  V30 10438 O 975.686 1.13438 -1.57625 0
M  V30 10439 C 972.816 1.67663 -3.04149 0
M  V30 10440 C 971.77 1.21487 -4.10396 0
M  V30 10441 C 971.096 2.45872 -4.74817 0
M  V30 10442 C 972.396 0.322603 -5.21303 0
M  V30 10443 H 974.09 -0.0933823 -2.99254 0
M  V30 10444 H 971.636 -0.0463526 -1.43925 0
M  V30 10445 H 973.589 2.28041 -3.54366 0
M  V30 10446 H 972.313 2.31727 -2.30153 0
M  V30 10447 H 970.972 0.633966 -3.61077 0
M  V30 10448 H 970.62 3.0832 -3.97426 0
M  V30 10449 H 970.32 2.15662 -5.46593 0
M  V30 10450 H 971.844 3.06994 -5.27814 0
M  V30 10451 H 973.258 0.832942 -5.67217 0
M  V30 10452 H 971.655 0.112843 -5.99994 0
M  V30 10453 H 972.725 -0.643954 -4.80605 0
M  V30 10454 N 974.068 1.57479 -0.061844 0
M  V30 10455 C 975.031 2.1104 0.894127 0
M  V30 10456 C 976.031 1.03227 1.23292 0
M  V30 10457 O 977.221 1.29256 1.16784 0
M  V30 10458 C 974.353 2.6035 2.20069 0
M  V30 10459 H 975.546 2.96807 0.429619 0
M  V30 10460 H 973.099 1.55181 0.18672 0
M  V30 10461 H 973.834 1.78008 2.71079 0
M  V30 10462 H 973.619 3.39146 1.9678 0
M  V30 10463 H 975.109 3.019 2.88525 0
M  V30 10464 N 975.546 -0.211634 1.56173 0
M  V30 10465 C 976.494 -1.28188 1.94089 0
M  V30 10466 C 977.488 -1.47999 0.824167 0
M  V30 10467 O 978.694 -1.49056 1.00907 0
M  V30 10468 H 975.069 -0.42999 0.616938 0
M  V30 10469 H 977.04 -0.934962 2.83374 0
M  V30 10470 C 975.789 -2.62294 2.28248 0
M  V30 10471 H 975.112 -2.4786 3.13696 0
M  V30 10472 H 976.552 -3.35967 2.58655 0
M  V30 10473 C 975.011 -3.18049 1.11113 0
M  V30 10474 O 975.541 -3.99923 0.377458 0
M  V30 10475 N 973.747 -2.76561 0.892321 0
M  V30 10476 H 973.294 -2.10088 1.49067 0
M  V30 10477 H 973.252 -3.14206 0.110344 0
M  V30 10478 N 977.024 -1.50153 -0.478725 0
M  V30 10479 C 978.27 -1.60998 -1.23318 0
M  V30 10480 C 978.603 -0.305868 -1.91776 0
M  V30 10481 O 977.878 0.692158 -1.81767 0
M  V30 10482 C 978.161 -2.78495 -2.28282 0
M  V30 10483 C 978.014 -4.18767 -1.64178 0
M  V30 10484 C 979.333 -2.91569 -3.2966 0
M  V30 10485 H 976.452 -0.585983 -0.446982 0
M  V30 10486 H 979.094 -1.82514 -0.528063 0
M  V30 10487 H 977.244 -2.60281 -2.8842 0
M  V30 10488 H 978.916 -4.48552 -1.07696 0
M  V30 10489 H 977.159 -4.23379 -0.94514 0
M  V30 10490 H 977.83 -4.96894 -2.40417 0
M  V30 10491 H 980.306 -3.08219 -2.79536 0
M  V30 10492 H 979.182 -3.75419 -4.0044 0
M  V30 10493 H 979.443 -2.01859 -3.93326 0
M  V30 10494 N 978.502 0.731368 -1.39602 0
M  V30 10495 C 979.434 1.85575 -1.34516 0
M  V30 10496 C 980.447 1.60818 -0.253287 0
M  V30 10497 O 981.636 1.70984 -0.512505 0
M  V30 10498 C 978.736 3.21673 -1.06676 0
M  V30 10499 C 977.909 3.73757 -2.27211 0
M  V30 10500 C 976.968 4.88426 -1.95773 0
M  V30 10501 O 975.994 5.01898 -2.68491 0
M  V30 10502 N 977.196 5.73065 -0.926083 0
M  V30 10503 H 979.961 1.90442 -2.31413 0
M  V30 10504 H 977.522 0.912258 -1.33752 0
M  V30 10505 H 979.514 3.95959 -0.836577 0
M  V30 10506 H 978.084 3.12052 -0.185003 0
M  V30 10507 H 977.304 2.90781 -2.66158 0
M  V30 10508 H 978.592 4.05289 -3.07601 0
M  V30 10509 H 977.99 5.64774 -0.323497 0
M  V30 10510 H 976.547 6.47403 -0.755795 0
M  V30 10511 N 979.98 1.24838 0.961938 0
M  V30 10512 C 981.228 1.08936 1.70227 0
M  V30 10513 C 981.549 -0.371582 1.91427 0
M  V30 10514 O 980.819 -1.26461 1.49614 0
M  V30 10515 H 979.399 0.400128 0.630799 0
M  V30 10516 H 982.061 1.56848 1.15692 0
M  V30 10517 H 981.157 1.59195 2.68446 0
M  V30 10518 N 981.458 -1.16348 1.06306 0
M  V30 10519 C 982.388 -2.2291 0.695234 0
M  V30 10520 C 983.369 -1.67208 -0.312343 0
M  V30 10521 O 984.554 -1.93293 -0.187442 0
M  V30 10522 C 981.684 -3.47205 0.0810149 0
M  V30 10523 C 980.638 -4.15801 1.01458 0
M  V30 10524 C 979.964 -5.3405 0.263656 0
M  V30 10525 C 981.264 -4.66766 2.34365 0
M  V30 10526 H 982.958 -2.53934 1.58613 0
M  V30 10527 H 980.504 -1.22056 0.76409 0
M  V30 10528 H 982.457 -4.2098 -0.18818 0
M  V30 10529 H 981.181 -3.15482 -0.844897 0
M  V30 10530 H 979.84 -3.43954 1.26852 0
M  V30 10531 H 979.488 -4.9858 -0.665378 0
M  V30 10532 H 979.188 -5.80885 0.88582 0
M  V30 10533 H 980.712 -6.106 0.00200994 0
M  V30 10534 H 982.126 -5.3212 2.13356 0
M  V30 10535 H 980.523 -5.24223 2.9208 0
M  V30 10536 H 981.593 -3.82969 2.97426 0
M  V30 10537 N 982.937 -0.845659 -1.3299 0
M  V30 10538 C 984.162 -0.457435 -2.02293 0
M  V30 10539 C 984.587 0.935634 -1.63179 0
M  V30 10540 O 983.945 1.61297 -0.827835 0
M  V30 10541 C 983.993 -0.593665 -3.5568 0
M  V30 10542 O 983.097 0.37729 -4.10671 0
M  V30 10543 H 982.438 -0.185022 -0.637701 0
M  V30 10544 H 984.968 -1.14237 -1.69738 0
M  V30 10545 H 984.978 -0.477834 -4.05192 0
M  V30 10546 H 983.653 -1.60957 -3.83491 0
M  V30 10547 H 982.23 0.218448 -3.7226 0
M  V30 10548 N 984.415 1.45619 -0.602734 0
M  V30 10549 C 985.661 2.02572 -0.0961759 0
M  V30 10550 C 985.994 1.47076 1.26815 0
M  V30 10551 O 985.269 0.643566 1.83544 0
M  V30 10552 C 985.552 3.60062 -0.0520032 0
M  V30 10553 C 985.405 4.25901 -1.44665 0
M  V30 10554 C 986.724 4.35446 0.638342 0
M  V30 10555 H 983.843 0.736099 -0.0364238 0
M  V30 10556 H 986.485 1.7353 -0.773776 0
M  V30 10557 H 984.635 3.84936 0.525032 0
M  V30 10558 H 986.307 4.12228 -2.0704 0
M  V30 10559 H 984.55 3.84489 -2.00874 0
M  V30 10560 H 985.221 5.34779 -1.36803 0
M  V30 10561 H 987.697 4.15837 0.147926 0
M  V30 10562 H 986.573 5.45176 0.63834 0
M  V30 10563 H 986.834 4.07962 1.70351 0
M  V30 10564 N 985.893 0.34162 1.53853 0
M  V30 10565 C 986.823 -0.508431 2.27897 0
M  V30 10566 C 987.804 -1.10425 1.29384 0
M  V30 10567 O 988.989 -1.126 1.58224 0
M  V30 10568 C 986.119 -1.66048 3.05034 0
M  V30 10569 C 985.073 -1.19309 4.11035 0
M  V30 10570 C 984.399 -2.4335 4.76114 0
M  V30 10571 C 985.699 -0.294952 5.21467 0
M  V30 10572 H 987.393 0.109251 2.99201 0
M  V30 10573 H 984.939 0.0539847 1.43899 0
M  V30 10574 H 986.892 -2.26158 3.5557 0
M  V30 10575 H 985.616 -2.30503 2.31379 0
M  V30 10576 H 984.275 -0.614809 3.61408 0
M  V30 10577 H 983.923 -3.06208 3.99056 0
M  V30 10578 H 983.623 -2.1276 5.47729 0
M  V30 10579 H 985.147 -3.0419 5.29434 0
M  V30 10580 H 986.561 -0.80285 5.67651 0
M  V30 10581 H 984.958 -0.0810221 6.00045 0
M  V30 10582 H 986.028 0.669433 4.80257 0
M  V30 10583 N 987.371 -1.57444 0.0701946 0
M  V30 10584 C 988.787 -1.57009 -0.286431 0
M  V30 10585 C 988.987 -1.07946 -1.70147 0
M  V30 10586 O 988.043 -0.744622 -2.41271 0
M  V30 10587 C 989.356 -3.00542 -0.0975466 0
M  V30 10588 C 990.904 -3.12553 -0.167205 0
M  V30 10589 C 991.379 -4.58 -0.00662047 0
M  V30 10590 N 992.87 -4.63158 -0.0622778 0
M  V30 10591 C 993.605 -5.73388 0.0375831 0
M  V30 10592 N 993.101 -6.92537 0.190873 0
M  V30 10593 N 994.894 -5.62097 -0.0193672 0
M  V30 10594 H 987.045 -1.87651 0.995023 0
M  V30 10595 H 989.308 -0.865006 0.387902 0
M  V30 10596 H 989.014 -3.40543 0.878822 0
M  V30 10597 H 988.888 -3.67485 -0.850547 0
M  V30 10598 H 991.275 -2.72439 -1.13406 0
M  V30 10599 H 991.356 -2.48251 0.616871 0
M  V30 10600 H 991 -4.98803 0.956992 0
M  V30 10601 H 990.93 -5.20332 -0.810081 0
M  V30 10602 H 993.421 -3.77475 -0.179229 0
M  V30 10603 H 993.734 -7.72365 0.25926 0
M  V30 10604 H 992.079 -6.94632 0.226214 0
M  V30 10605 H 995.27 -4.67897 -0.137815 0
M  V30 10606 H 995.443 -6.4797 0.0619121 0
M  V30 10607 N 988.849 0.203349 -1.56283 0
M  V30 10608 C 990.074 0.945548 -1.84592 0
M  V30 10609 C 990.499 1.7641 -0.652772 0
M  V30 10610 O 989.857 1.76867 0.398468 0
M  V30 10611 C 989.905 1.82416 -3.11057 0
M  V30 10612 O 989.009 2.92191 -2.9103 0
M  V30 10613 H 988.35 0.266739 -0.608068 0
M  V30 10614 H 990.88 0.211158 -2.03507 0
M  V30 10615 H 990.89 2.23044 -3.41636 0
M  V30 10616 H 989.565 1.22267 -3.97522 0
M  V30 10617 H 988.142 2.55378 -2.71728 0
M  V30 10618 N 990.327 1.50405 0.470755 0
M  V30 10619 C 991.574 1.61411 1.22281 0
M  V30 10620 C 991.902 0.314603 1.91939 0
M  V30 10621 O 991.157 -0.699531 1.82771 0
M  V30 10622 C 991.456 2.74426 2.28965 0
M  V30 10623 C 991.122 4.14896 1.76557 0
M  V30 10624 C 989.784 4.53116 1.61985 0
M  V30 10625 C 992.136 5.02686 1.3768 0
M  V30 10626 C 989.464 5.76868 1.0696 0
M  V30 10627 C 991.816 6.26985 0.840967 0
M  V30 10628 C 990.48 6.64008 0.68188 0
M  V30 10629 H 989.75 0.590645 0.447459 0
M  V30 10630 H 992.397 1.84339 0.518783 0
M  V30 10631 H 990.702 2.45588 3.05277 0
M  V30 10632 H 992.399 2.80146 2.86914 0
M  V30 10633 H 988.989 3.84743 1.88867 0
M  V30 10634 H 993.173 4.7379 1.47772 0
M  V30 10635 H 988.429 6.04227 0.933808 0
M  V30 10636 H 992.603 6.94372 0.531066 0
M  V30 10637 H 990.23 7.59778 0.25335 0
M  V30 10638 N 991.805 -0.723954 1.39988 0
M  V30 10639 C 993.221 -1.03095 1.21834 0
M  V30 10640 C 993.421 -2.01309 0.0876647 0
M  V30 10641 O 992.477 -2.46277 -0.55714 0
M  V30 10642 C 993.79 -1.58267 2.5568 0
M  V30 10643 C 995.338 -1.70293 2.6262 0
M  V30 10644 C 995.813 -2.28872 3.96713 0
M  V30 10645 N 997.304 -2.36269 3.98411 0
M  V30 10646 C 998.039 -2.82557 4.98948 0
M  V30 10647 N 997.535 -3.28661 6.0988 0
M  V30 10648 N 999.328 -2.81866 4.86321 0
M  V30 10649 H 991.479 -0.0727891 2.12275 0
M  V30 10650 H 993.742 -0.0949029 0.943238 0
M  V30 10651 H 993.448 -0.935642 3.39026 0
M  V30 10652 H 993.322 -2.56914 2.76179 0
M  V30 10653 H 995.709 -2.34115 1.7965 0
M  V30 10654 H 995.79 -0.70268 2.45959 0
M  V30 10655 H 995.434 -1.65675 4.80119 0
M  V30 10656 H 995.364 -3.29595 4.107 0
M  V30 10657 H 997.855 -2.03697 3.18302 0
M  V30 10658 H 998.168 -3.62524 6.82493 0
M  V30 10659 H 996.513 -3.26641 6.13458 0
M  V30 10660 H 999.704 -2.45179 3.98754 0
M  V30 10661 H 999.877 -3.17626 5.64817 0
M  V30 10662 N 993.283 -1.25346 -0.955304 0
M  V30 10663 C 994.213 -1.08152 -2.06943 0
M  V30 10664 C 995.194 0.00922598 -1.70097 0
M  V30 10665 O 996.379 -0.160181 -1.93538 0
M  V30 10666 C 993.509 -0.698745 -3.40198 0
M  V30 10667 C 992.463 -1.73965 -3.9105 0
M  V30 10668 C 991.789 -1.21158 -5.20792 0
M  V30 10669 C 993.089 -3.13829 -4.17503 0
M  V30 10670 H 994.783 -2.01345 -2.21586 0
M  V30 10671 H 992.329 -0.969459 -1.06478 0
M  V30 10672 H 994.282 -0.565394 -4.1759 0
M  V30 10673 H 993.006 0.268892 -3.25491 0
M  V30 10674 H 991.665 -1.86143 -3.15827 0
M  V30 10675 H 991.313 -0.234193 -5.02455 0
M  V30 10676 H 991.013 -1.90728 -5.55785 0
M  V30 10677 H 992.537 -1.09061 -6.00781 0
M  V30 10678 H 993.951 -3.04809 -4.85556 0
M  V30 10679 H 992.348 -3.80863 -4.63749 0
M  V30 10680 H 993.418 -3.6094 -3.23806 0
M  V30 10681 N 994.761 1.15782 -1.06922 0
M  V30 10682 C 995.691 2.22538 -0.707045 0
M  V30 10683 C 996.672 1.67371 0.303471 0
M  V30 10684 O 997.857 1.9339 0.177189 0
M  V30 10685 C 994.987 3.47158 -0.0994269 0
M  V30 10686 C 993.941 4.15257 -1.03661 0
M  V30 10687 C 993.267 5.33902 -0.291974 0
M  V30 10688 C 994.567 4.65516 -2.36837 0
M  V30 10689 H 996.261 2.53089 -1.59958 0
M  V30 10690 H 993.807 1.21649 -0.770552 0
M  V30 10691 H 995.76 4.21073 0.165852 0
M  V30 10692 H 994.484 3.15926 0.828155 0
M  V30 10693 H 993.143 3.43276 -1.28674 0
M  V30 10694 H 992.791 4.98926 0.638928 0
M  V30 10695 H 992.491 5.80407 -0.916613 0
M  V30 10696 H 994.015 6.1059 -0.0343915 0
M  V30 10697 H 995.429 5.30981 -2.16175 0
M  V30 10698 H 993.826 5.22666 -2.94856 0
M  V30 10699 H 994.896 3.81387 -2.99453 0
M  V30 10700 N 996.239 0.8527 1.3254 0
M  V30 10701 C 997.655 0.542298 1.50104 0
M  V30 10702 C 997.855 -0.927465 1.78886 0
M  V30 10703 O 996.911 -1.7106 1.85728 0
M  V30 10704 C 998.224 1.4276 2.64651 0
M  V30 10705 C 999.772 1.42782 2.78536 0
M  V30 10706 C 1000.25 2.29828 3.9616 0
M  V30 10707 N 1001.74 2.27613 4.03418 0
M  V30 10708 C 1002.47 2.91696 4.93661 0
M  V30 10709 N 1001.97 3.64883 5.88925 0
M  V30 10710 N 1003.76 2.81094 4.86768 0
M  V30 10711 H 995.913 1.80395 1.12123 0
M  V30 10712 H 998.176 0.770394 0.552446 0
M  V30 10713 H 997.882 2.47266 2.50105 0
M  V30 10714 H 997.756 1.11358 3.60388 0
M  V30 10715 H 1000.14 0.390417 2.92506 0
M  V30 10716 H 1000.22 1.78198 1.83519 0
M  V30 10717 H 999.868 3.33635 3.82949 0
M  V30 10718 H 999.798 1.91746 4.9045 0
M  V30 10719 H 1002.29 1.74402 3.3525 0
M  V30 10720 H 1002.6 4.10952 6.54476 0
M  V30 10721 H 1000.95 3.68991 5.88957 0
M  V30 10722 H 1004.14 2.23469 4.11314 0
M  V30 10723 H 1004.31 3.31318 5.56895 0
M  V30 10724 N 997.718 -1.45297 0.610449 0
M  V30 10725 C 998.964 -2.02518 0.106917 0
M  V30 10726 C 999.297 -1.47747 -1.26034 0
M  V30 10727 O 998.572 -0.65329 -1.832 0
M  V30 10728 C 998.855 -3.6003 0.0710975 0
M  V30 10729 C 998.708 -4.25128 1.46922 0
M  V30 10730 C 1000.03 -4.35778 -0.61524 0
M  V30 10731 H 997.146 -0.735896 0.040327 0
M  V30 10732 H 999.788 -1.73117 0.782968 0
M  V30 10733 H 997.938 -3.85209 -0.504611 0
M  V30 10734 H 999.61 -4.11125 2.09223 0
M  V30 10735 H 997.853 -3.83418 2.02911 0
M  V30 10736 H 998.524 -5.34046 1.39637 0
M  V30 10737 H 1001 -4.1591 -0.125871 0
M  V30 10738 H 999.876 -5.45506 -0.609419 0
M  V30 10739 H 1000.14 -4.08859 -1.68186 0
M  V30 10740 N 999.196 -0.349774 -1.5367 0
M  V30 10741 C 1000.44 0.244827 -2.01015 0
M  V30 10742 C 1000.77 1.50057 -1.23746 0
M  V30 10743 O 1000.03 1.9315 -0.314872 0
M  V30 10744 C 1000.32 0.598311 -3.52356 0
M  V30 10745 C 999.991 -0.56127 -4.47393 0
M  V30 10746 C 998.653 -0.879481 -4.73095 0
M  V30 10747 C 1001 -1.3389 -5.03709 0
M  V30 10748 C 998.333 -1.97758 -5.52366 0
M  V30 10749 C 1000.68 -2.4273 -5.84179 0
M  V30 10750 C 999.349 -2.75103 -6.08173 0
M  V30 10751 H 998.619 0.0895884 -0.735564 0
M  V30 10752 H 1001.27 -0.478975 -1.85413 0
M  V30 10753 H 999.571 1.40291 -3.65822 0
M  V30 10754 H 1001.27 1.07036 -3.86451 0
M  V30 10755 H 997.858 -0.303201 -4.27526 0
M  V30 10756 H 1002.04 -1.10632 -4.83812 0
M  V30 10757 H 997.298 -2.23257 -5.6918 0
M  V30 10758 H 1001.47 -3.03412 -6.26828 0
M  V30 10759 H 999.099 -3.60317 -6.69385 0
M  V30 10760 N 1000.67 1.57404 -0.0785433 0
M  V30 10761 C 1001.62 2.13104 0.88631 0
M  V30 10762 C 1002.59 1.04527 1.29086 0
M  V30 10763 O 1003.78 1.32226 1.37553 0
M  V30 10764 C 1000.92 2.70252 2.14611 0
M  V30 10765 C 1000.03 3.93007 1.79358 0
M  V30 10766 C 999.164 4.38376 3 0
M  V30 10767 C 998.203 5.53761 2.60796 0
M  V30 10768 N 997.34 5.94058 3.74219 0
M  V30 10769 H 1002.18 2.95243 0.404452 0
M  V30 10770 H 999.717 1.45894 0.187982 0
M  V30 10771 H 1001.67 3.01497 2.88367 0
M  V30 10772 H 1000.3 1.90868 2.60326 0
M  V30 10773 H 999.357 3.68181 0.956384 0
M  V30 10774 H 1000.67 4.76795 1.4652 0
M  V30 10775 H 999.823 4.71317 3.82027 0
M  V30 10776 H 998.562 3.53455 3.36037 0
M  V30 10777 H 997.567 5.20464 1.77192 0
M  V30 10778 H 998.792 6.40419 2.25922 0
M  V30 10779 H 996.738 5.12085 4.10005 0
M  V30 10780 H 996.655 6.72602 3.45171 0
M  V30 10781 H 997.923 6.31624 4.56805 0
M  V30 10782 N 1002.15 -0.195058 1.56388 0
M  V30 10783 C 1003.08 -1.24444 1.97575 0
M  V30 10784 C 1004.06 -1.47471 0.847717 0
M  V30 10785 O 1005.25 -1.59208 1.11205 0
M  V30 10786 C 1002.38 -2.58866 2.31529 0
M  V30 10787 C 1001.33 -2.50451 3.47071 0
M  V30 10788 C 1000.66 -3.89146 3.667 0
M  V30 10789 C 1001.96 -2.02953 4.81256 0
M  V30 10790 H 1003.65 -0.902178 2.85484 0
M  V30 10791 H 1001.2 -0.43254 1.3735 0
M  V30 10792 H 1003.15 -3.3246 2.58936 0
M  V30 10793 H 1001.87 -2.94833 1.40502 0
M  V30 10794 H 1000.53 -1.79313 3.19754 0
M  V30 10795 H 1000.18 -4.22466 2.73004 0
M  V30 10796 H 999.882 -3.84391 4.44429 0
M  V30 10797 H 1001.41 -4.64363 3.96484 0
M  V30 10798 H 1002.82 -2.66306 5.07695 0
M  V30 10799 H 1001.22 -2.092 5.62455 0
M  V30 10800 H 1002.29 -0.982757 4.74837 0
M  V30 10801 N 1003.63 -1.50653 -0.462772 0
M  V30 10802 C 1004.59 -1.69561 -1.54213 0
M  V30 10803 C 1005.59 -0.566106 -1.50505 0
M  V30 10804 O 1006.78 -0.833273 -1.52978 0
M  V30 10805 C 1003.91 -1.72856 -2.93826 0
M  V30 10806 H 1005.11 -2.65867 -1.38761 0
M  V30 10807 H 1002.66 -1.40259 -0.689728 0
M  V30 10808 H 1003.4 -0.78273 -3.14712 0
M  V30 10809 H 1003.18 -2.54919 -2.97924 0
M  V30 10810 H 1004.67 -1.89411 -3.72174 0
M  V30 10811 N 1005.11 0.71652 -1.4037 0
M  V30 10812 C 1006.06 1.8306 -1.40562 0
M  V30 10813 C 1007.03 1.64009 -0.262697 0
M  V30 10814 O 1008.21 1.85157 -0.460619 0
M  V30 10815 C 1005.35 3.2076 -1.27307 0
M  V30 10816 C 1004.46 3.51389 -2.51296 0
M  V30 10817 C 1003.6 4.78589 -2.30491 0
M  V30 10818 C 1002.64 5.02119 -3.50061 0
M  V30 10819 N 1001.77 6.20533 -3.28457 0
M  V30 10820 H 1006.61 1.82231 -2.35788 0
M  V30 10821 H 1004.15 0.890198 -1.17106 0
M  V30 10822 H 1006.11 4.00274 -1.17628 0
M  V30 10823 H 1004.74 3.2082 -0.357005 0
M  V30 10824 H 1003.79 2.66436 -2.71507 0
M  V30 10825 H 1005.1 3.64686 -3.40302 0
M  V30 10826 H 1004.26 5.66119 -2.1816 0
M  V30 10827 H 1003 4.67499 -1.38909 0
M  V30 10828 H 1002 4.13044 -3.6287 0
M  V30 10829 H 1003.23 5.15082 -4.42569 0
M  V30 10830 H 1001.17 6.10695 -2.39556 0
M  V30 10831 H 1001.09 6.34502 -4.11027 0
M  V30 10832 H 1002.36 7.10853 -3.19857 0
M  V30 10833 N 1006.59 1.25851 0.948643 0
M  V30 10834 C 1007.81 1.13813 1.73382 0
M  V30 10835 C 1008.24 -0.303615 1.85633 0
M  V30 10836 O 1007.59 -1.21997 1.34114 0
M  V30 10837 C 1007.64 1.80388 3.12238 0
M  V30 10838 O 1006.75 1.08759 3.978 0
M  V30 10839 H 1006.09 0.397006 0.532243 0
M  V30 10840 H 1008.62 1.66529 1.18866 0
M  V30 10841 H 1008.63 1.86913 3.62667 0
M  V30 10842 H 1007.3 2.85278 3.02637 0
M  V30 10843 H 1005.88 1.10157 3.56258 0
M  V30 10844 N 1008.06 -1.15214 1.07534 0
M  V30 10845 C 1009.31 -1.86548 0.810651 0
M  V30 10846 C 1009.67 -1.80863 -0.656236 0
M  V30 10847 O 1008.96 -1.22216 -1.47559 0
M  V30 10848 C 1009.15 -3.34623 1.25547 0
M  V30 10849 C 1008.98 -3.54725 2.76406 0
M  V30 10850 C 1007.75 -3.70089 3.44038 0
M  V30 10851 C 1009.95 -3.52392 3.74599 0
M  V30 10852 N 1007.93 -3.78262 4.8352 0
M  V30 10853 C 1009.3 -3.66701 4.9993 0
M  V30 10854 C 1011.36 -3.35677 3.6773 0
M  V30 10855 C 1010.06 -3.66023 6.19209 0
M  V30 10856 C 1012.09 -3.36298 4.86475 0
M  V30 10857 C 1011.45 -3.51139 6.1064 0
M  V30 10858 H 1007.55 -0.699691 0.349223 0
M  V30 10859 H 1010.13 -1.3815 1.37196 0
M  V30 10860 H 1008.3 -3.81633 0.721837 0
M  V30 10861 H 1010.03 -3.93677 0.938126 0
M  V30 10862 H 1006.79 -3.70943 2.94446 0
M  V30 10863 H 1007.21 -3.86087 5.56117 0
M  V30 10864 H 1011.86 -3.2312 2.72678 0
M  V30 10865 H 1009.57 -3.77358 7.14581 0
M  V30 10866 H 1013.16 -3.2459 4.82838 0
M  V30 10867 H 1012.04 -3.51555 7.00984 0
M  V30 10868 N 1009.54 -0.859717 -1.32086 0
M  V30 10869 C 1010.95 -0.519529 -1.79326 0
M  V30 10870 C 1011.3 0.96295 -1.70944 0
M  V30 10871 O 1010.43 1.75139 -1.27104 0
M  V30 10872 C 1011.02 -0.936267 -3.25606 0
M  V30 10873 C 1009.58 -0.647899 -3.70782 0
M  V30 10874 C 1008.73 -1.13323 -2.53087 0
M  V30 10875 H 1011.68 -1.04643 -1.19312 0
M  V30 10876 H 1011.7 -0.254714 -3.79646 0
M  V30 10877 H 1011.21 -2.01527 -3.31675 0
M  V30 10878 H 1009.32 0.420172 -3.70223 0
M  V30 10879 H 1009.43 -1.21774 -4.63366 0
M  V30 10880 H 1007.79 -0.553325 -2.48617 0
M  V30 10881 H 1008.58 -2.21945 -2.61907 0
M  V30 10882 N 1011.02 1.44971 -0.618145 0
M  V30 10883 C 1012.25 2.06527 -0.124165 0
M  V30 10884 C 1012.66 1.46097 1.19588 0
M  V30 10885 O 1012.02 0.57901 1.73071 0
M  V30 10886 C 1012.07 3.61498 0.0106701 0
M  V30 10887 O 1011.79 4.19675 -1.25716 0
M  V30 10888 C 1013.29 4.40061 0.534872 0
M  V30 10889 H 1010.51 0.666941 -0.0736935 0
M  V30 10890 H 1013.06 1.8605 -0.848871 0
M  V30 10891 H 1011.21 3.81282 0.685752 0
M  V30 10892 H 1011.63 5.12972 -1.09362 0
M  V30 10893 H 1013.1 5.48963 0.57827 0
M  V30 10894 H 1013.58 4.10587 1.55931 0
M  V30 10895 H 1014.18 4.25167 -0.10652 0
M  V30 10896 N 1012.5 0.357919 1.53482 0
M  V30 10897 C 1013.43 -0.484231 2.28424 0
M  V30 10898 C 1014.41 -1.09046 1.30548 0
M  V30 10899 O 1015.59 -1.10916 1.59409 0
M  V30 10900 C 1012.72 -1.62803 3.06778 0
M  V30 10901 C 1011.68 -1.14943 4.12277 0
M  V30 10902 C 1011 -2.38287 4.78669 0
M  V30 10903 C 1012.3 -0.239627 5.2175 0
M  V30 10904 H 1014 0.140979 2.99068 0
M  V30 10905 H 1011.54 0.069244 1.43833 0
M  V30 10906 H 1013.5 -2.22374 3.57949 0
M  V30 10907 H 1012.22 -2.28036 2.3381 0
M  V30 10908 H 1010.88 -0.576442 3.6204 0
M  V30 10909 H 1010.53 -3.01959 4.02281 0
M  V30 10910 H 1010.23 -2.06939 5.49955 0
M  V30 10911 H 1011.75 -2.98558 5.32631 0
M  V30 10912 H 1013.17 -0.742597 5.6847 0
M  V30 10913 H 1011.56 -0.0173747 6.00097 0
M  V30 10914 H 1012.63 0.720333 4.7952 0
M  V30 10915 N 1013.98 -1.5736 0.0868897 0
M  V30 10916 C 1014.92 -2.14793 -0.892571 0
M  V30 10917 C 1015.92 -1.08866 -1.29787 0
M  V30 10918 O 1017.12 -1.27223 -1.27335 0
M  V30 10919 H 1013.5 -0.686998 -0.305838 0
M  V30 10920 H 1015.47 -2.95927 -0.383393 0
M  V30 10921 C 1014.22 -2.73646 -2.14507 0
M  V30 10922 H 1013.54 -3.54835 -1.84207 0
M  V30 10923 H 1014.98 -3.17409 -2.81118 0
M  V30 10924 C 1013.44 -1.69138 -2.91366 0
M  V30 10925 O 1013.97 -1.12539 -3.85614 0
M  V30 10926 N 1012.18 -1.3982 -2.54752 0
M  V30 10927 H 1011.72 -1.86035 -1.78182 0
M  V30 10928 H 1011.68 -0.701316 -3.06478 0
M  V30 10929 N 1015.45 0.186762 -1.56489 0
M  V30 10930 C 1016.39 1.25971 -1.9028 0
M  V30 10931 C 1017.37 1.43543 -0.763822 0
M  V30 10932 O 1018.55 1.58799 -1.01564 0
M  V30 10933 C 1015.68 2.62507 -2.14028 0
M  V30 10934 C 1014.72 2.61758 -3.36727 0
M  V30 10935 S 1015.56 2.12366 -4.9159 0
M  V30 10936 C 1016.71 3.5071 -5.18414 0
M  V30 10937 H 1016.94 0.971203 -2.80989 0
M  V30 10938 H 1014.48 0.390636 -1.49377 0
M  V30 10939 H 1016.44 3.41098 -2.28391 0
M  V30 10940 H 1015.1 2.88564 -1.24054 0
M  V30 10941 H 1014.29 3.62173 -3.50495 0
M  V30 10942 H 1013.89 1.91254 -3.214 0
M  V30 10943 H 1016.18 4.46622 -5.09445 0
M  V30 10944 H 1017.13 3.41829 -6.20128 0
M  V30 10945 H 1017.53 3.46008 -4.46026 0
M  V30 10946 N 1016.93 1.50896 0.454776 0
M  V30 10947 C 1017.86 1.73885 1.5584 0
M  V30 10948 C 1018.84 0.588172 1.59607 0
M  V30 10949 O 1020.03 0.829054 1.75614 0
M  V30 10950 C 1017.16 1.84796 2.94054 0
M  V30 10951 C 1016.11 3.00111 3.05152 0
M  V30 10952 C 1015.44 2.96183 4.45174 0
M  V30 10953 C 1016.74 4.40365 2.80849 0
M  V30 10954 H 1018.43 2.66292 1.36854 0
M  V30 10955 H 1015.98 1.28142 0.656936 0
M  V30 10956 H 1017.93 1.99462 3.71204 0
M  V30 10957 H 1016.66 0.890235 3.14233 0
M  V30 10958 H 1015.31 2.85121 2.30438 0
M  V30 10959 H 1014.96 1.98224 4.62295 0
M  V30 10960 H 1014.66 3.73608 4.53532 0
M  V30 10961 H 1016.19 3.1292 5.24322 0
M  V30 10962 H 1017.6 4.55795 3.47741 0
M  V30 10963 H 1016 5.19363 3.00636 0
M  V30 10964 H 1017.07 4.51606 1.76579 0
M  V30 10965 N 1018.41 -0.709066 1.40748 0
M  V30 10966 C 1019.66 -1.4646 1.38681 0
M  V30 10967 C 1019.97 -1.95599 -0.0056209 0
M  V30 10968 O 1021.18 -2.71091 -0.148907 0
M  V30 10969 C 1019.63 -2.64771 2.43771 0
M  V30 10970 C 1019.24 -2.22474 3.88856 0
M  V30 10971 C 1020.99 -3.42475 2.50821 0
M  V30 10972 C 1018.89 -3.37663 4.85528 0
M  V30 10973 H 1017.82 -0.550084 0.515678 0
M  V30 10974 H 1020.47 -0.771074 1.66513 0
M  V30 10975 H 1018.86 -3.36325 2.09048 0
M  V30 10976 H 1020.03 -1.58297 4.32757 0
M  V30 10977 H 1018.35 -1.57798 3.85342 0
M  V30 10978 H 1020.94 -4.28201 3.20232 0
M  V30 10979 H 1021.29 -3.86738 1.54076 0
M  V30 10980 H 1021.82 -2.77969 2.84567 0
M  V30 10981 H 1018.56 -2.98426 5.83628 0
M  V30 10982 H 1018.08 -4.00734 4.46287 0
M  V30 10983 H 1019.76 -4.03636 5.05655 0
M  V30 10984 N 1019.89 -1.26353 -0.941956 0
M  V30 10985 C 1020.84 -1.07842 -2.04056 0
M  V30 10986 C 1021.81 0.0163064 -1.66092 0
M  V30 10987 O 1022.99 -0.143313 -1.90261 0
M  V30 10988 C 1020.13 -0.716636 -3.37577 0
M  V30 10989 C 1019.24 -1.88754 -3.88582 0
M  V30 10990 C 1018.38 -1.46893 -5.10486 0
M  V30 10991 C 1017.42 -2.60819 -5.53751 0
M  V30 10992 N 1016.56 -2.19646 -6.66858 0
M  V30 10993 H 1021.4 -2.01856 -2.19221 0
M  V30 10994 H 1018.93 -1.00504 -1.07412 0
M  V30 10995 H 1020.89 -0.487768 -4.14339 0
M  V30 10996 H 1019.52 0.18653 -3.22261 0
M  V30 10997 H 1018.57 -2.22936 -3.08227 0
M  V30 10998 H 1019.88 -2.74264 -4.1663 0
M  V30 10999 H 1019.04 -1.20047 -5.94705 0
M  V30 11000 H 1017.78 -0.584721 -4.84182 0
M  V30 11001 H 1016.78 -2.88396 -4.6809 0
M  V30 11002 H 1018.01 -3.49838 -5.82057 0
M  V30 11003 H 1015.95 -1.33657 -6.4224 0
M  V30 11004 H 1015.87 -2.987 -6.94489 0
M  V30 11005 H 1017.14 -1.96009 -7.54454 0
M  V30 11006 N 1021.37 1.14642 -1.08144 0
M  V30 11007 C 1022.62 1.84964 -0.804437 0
M  V30 11008 C 1022.93 1.8369 0.672106 0
M  V30 11009 O 1024.14 2.49775 1.06417 0
M  V30 11010 C 1022.59 3.32015 -1.38904 0
M  V30 11011 C 1022.2 3.41713 -2.89718 0
M  V30 11012 C 1023.94 4.07467 -1.19041 0
M  V30 11013 C 1021.85 4.82958 -3.41329 0
M  V30 11014 H 1020.78 0.692932 -0.297256 0
M  V30 11015 H 1023.43 1.29255 -1.30251 0
M  V30 11016 H 1021.81 3.87445 -0.818679 0
M  V30 11017 H 1022.99 2.96347 -3.52867 0
M  V30 11018 H 1021.3 2.79713 -3.08463 0
M  V30 11019 H 1023.9 5.1172 -1.55069 0
M  V30 11020 H 1024.24 4.16097 -0.130027 0
M  V30 11021 H 1024.78 3.58329 -1.72757 0
M  V30 11022 H 1021.51 4.79515 -4.46929 0
M  V30 11023 H 1021.03 5.28873 -2.82937 0
M  V30 11024 H 1022.71 5.51841 -3.37759 0
M  V30 11025 N 1022.85 0.866709 1.31628 0
M  V30 11026 C 1024.09 0.472185 1.96095 0
M  V30 11027 C 1024.41 -0.979873 1.69286 0
M  V30 11028 O 1025.61 -1.48039 2.27589 0
M  V30 11029 C 1024.07 0.793468 3.51044 0
M  V30 11030 C 1023.68 2.26206 3.86697 0
M  V30 11031 C 1025.42 0.467255 4.21921 0
M  V30 11032 C 1023.33 2.52593 5.34743 0
M  V30 11033 H 1022.26 0.172846 0.733921 0
M  V30 11034 H 1024.91 1.05916 1.49847 0
M  V30 11035 H 1023.29 0.135783 3.95767 0
M  V30 11036 H 1024.47 2.96254 3.52945 0
M  V30 11037 H 1022.78 2.55399 3.28877 0
M  V30 11038 H 1025.38 0.641669 5.30836 0
M  V30 11039 H 1025.72 -0.592065 4.12068 0
M  V30 11040 H 1026.25 1.08134 3.82821 0
M  V30 11041 H 1022.99 3.57196 5.49628 0
M  V30 11042 H 1022.51 1.87136 5.6986 0
M  V30 11043 H 1024.19 2.37156 6.01968 0
M  V30 11044 N 1024.32 -1.44642 0.625825 0
M  V30 11045 C 1025.57 -2.01695 0.127948 0
M  V30 11046 C 1025.89 -1.49439 -1.25271 0
M  V30 11047 O 1025.16 -0.695873 -1.83124 0
M  V30 11048 H 1023.74 -0.745685 0.0443096 0
M  V30 11049 H 1026.4 -1.7721 0.811332 0
M  V30 11050 H 1025.5 -3.11966 0.0915933 0
M  V30 11051 N 1025.8 -0.366053 -1.5329 0
M  V30 11052 C 1026.75 0.495319 -2.27265 0
M  V30 11053 C 1027.74 1.08298 -1.30261 0
M  V30 11054 O 1028.95 1.02613 -1.47887 0
M  V30 11055 H 1025.32 0.178454 -0.730519 0
M  V30 11056 H 1027.3 -0.150354 -2.98021 0
M  V30 11057 C 1026.04 1.62283 -3.07505 0
M  V30 11058 H 1025.37 1.17993 -3.81992 0
M  V30 11059 H 1026.81 2.20024 -3.62444 0
M  V30 11060 C 1025.27 2.56542 -2.18375 0
M  V30 11061 O 1025.8 3.59371 -1.79486 0
M  V30 11062 N 1024 2.25742 -1.82999 0
M  V30 11063 H 1023.55 1.42159 -2.14822 0
M  V30 11064 H 1023.51 2.89064 -1.2365 0
M  V30 11065 N 1027.28 1.57312 -0.0952337 0
M  V30 11066 C 1028.5 1.99119 0.580206 0
M  V30 11067 C 1028.93 0.973955 1.60922 0
M  V30 11068 O 1028.29 -0.0575338 1.81209 0
M  V30 11069 C 1028.34 3.39893 1.20438 0
M  V30 11070 O 1027.44 3.40941 2.32019 0
M  V30 11071 H 1026.78 0.64748 0.147195 0
M  V30 11072 H 1029.31 2.03836 -0.176686 0
M  V30 11073 H 1029.32 3.7759 1.54564 0
M  V30 11074 H 1028 4.13453 0.450514 0
M  V30 11075 H 1026.57 3.1504 1.9951 0
M  V30 11076 N 1028.76 -0.17846 1.56586 0
M  V30 11077 C 1030 -0.897562 1.81856 0
M  V30 11078 C 1030.34 -1.82204 0.671955 0
M  V30 11079 O 1029.61 -1.91739 -0.326535 0
M  V30 11080 C 1029.89 -1.69942 3.17477 0
M  V30 11081 C 1029.75 -0.798545 4.42655 0
M  V30 11082 C 1031.07 -2.66861 3.49962 0
M  V30 11083 H 1028.19 -0.324863 0.661539 0
M  V30 11084 H 1030.83 -0.164106 1.8929 0
M  V30 11085 H 1028.98 -2.32471 3.11271 0
M  V30 11086 H 1030.65 -0.18668 4.60922 0
M  V30 11087 H 1028.89 -0.106181 4.3367 0
M  V30 11088 H 1029.56 -1.39496 5.34083 0
M  V30 11089 H 1032.04 -2.1446 3.56576 0
M  V30 11090 H 1030.92 -3.20037 4.45946 0
M  V30 11091 H 1031.18 -3.46715 2.74301 0
M  V30 11092 N 1030.24 -1.51135 -0.446768 0
M  V30 11093 C 1031.48 -1.63013 -1.19461 0
M  V30 11094 C 1031.8 -0.344067 -1.91941 0
M  V30 11095 O 1031.07 0.639666 -1.85162 0
M  V30 11096 H 1029.65 -0.600757 -0.443959 0
M  V30 11097 H 1032.32 -1.88024 -0.513137 0
M  V30 11098 H 1031.41 -2.45322 -1.92933 0
M  V30 11099 N 1031.71 0.701592 -1.41122 0
M  V30 11100 C 1032.68 1.79733 -1.42227 0
M  V30 11101 C 1033.68 1.57708 -0.313831 0
M  V30 11102 O 1034.87 1.64492 -0.573423 0
M  V30 11103 C 1032 3.18024 -1.22775 0
M  V30 11104 H 1033.19 1.80148 -2.39764 0
M  V30 11105 H 1030.74 0.908624 -1.27176 0
M  V30 11106 H 1031.48 3.23252 -0.260552 0
M  V30 11107 H 1031.26 3.35411 -2.0308 0
M  V30 11108 H 1032.75 3.98021 -1.2637 0
M  V30 11109 N 1033.19 1.2685 0.935242 0
M  V30 11110 C 1034.12 1.1143 2.05196 0
M  V30 11111 C 1035.1 0.0178362 1.70091 0
M  V30 11112 O 1036.29 0.190951 1.93259 0
M  V30 11113 C 1033.42 0.752779 3.39044 0
M  V30 11114 C 1032.37 1.80164 3.88233 0
M  V30 11115 C 1031.7 1.29428 5.18799 0
M  V30 11116 C 1033 3.20431 4.12457 0
M  V30 11117 H 1034.69 2.04845 2.18355 0
M  V30 11118 H 1032.24 0.986276 1.04922 0
M  V30 11119 H 1034.19 0.631757 4.16637 0
M  V30 11120 H 1032.91 -0.217075 3.25878 0
M  V30 11121 H 1031.57 1.91144 3.12825 0
M  V30 11122 H 1031.22 0.3141 5.02018 0
M  V30 11123 H 1030.92 1.99546 5.5268 0
M  V30 11124 H 1032.45 1.18605 5.9897 0
M  V30 11125 H 1033.86 3.12495 4.80645 0
M  V30 11126 H 1032.26 3.88193 4.57631 0
M  V30 11127 H 1033.33 3.66046 3.18023 0
M  V30 11128 N 1034.67 -1.14067 1.0875 0
M  V30 11129 C 1035.92 -1.84819 0.817698 0
M  V30 11130 C 1036.24 -1.83545 -0.658488 0
M  V30 11131 O 1035.51 -1.28633 -1.47751 0
M  V30 11132 H 1034.09 -0.68433 0.299502 0
M  V30 11133 H 1036.75 -1.38208 1.37421 0
M  V30 11134 H 1035.85 -2.89541 1.16501 0
M  V30 11135 N 1036.15 -0.873678 -1.31166 0
M  V30 11136 C 1037.1 -0.321349 -2.3037 0
M  V30 11137 C 1038.09 0.565568 -1.5968 0
M  V30 11138 O 1039.3 0.451257 -1.74252 0
M  V30 11139 H 1035.67 -0.0852425 -0.747153 0
M  V30 11140 H 1037.64 -1.17191 -2.74425 0
M  V30 11141 C 1036.39 0.459016 -3.44657 0
M  V30 11142 H 1035.71 -0.214185 -3.99226 0
M  V30 11143 H 1037.15 0.810758 -4.16176 0
M  V30 11144 C 1035.61 1.65173 -2.93632 0
M  V30 11145 O 1036.14 2.75105 -2.92711 0
M  V30 11146 N 1034.35 1.4851 -2.49786 0
M  V30 11147 H 1033.9 0.590785 -2.50734 0
M  V30 11148 H 1033.85 2.28452 -2.16002 0
M  V30 11149 N 1037.63 1.44308 -0.633487 0
M  V30 11150 C 1038.56 2.33431 0.0568402 0
M  V30 11151 C 1039.54 1.48342 0.832386 0
M  V30 11152 O 1040.72 1.77056 0.797798 0
M  V30 11153 C 1037.85 3.31443 1.03743 0
M  V30 11154 C 1036.81 4.26368 0.373362 0
M  V30 11155 C 1036.13 5.14267 1.46403 0
M  V30 11156 C 1037.43 5.17287 -0.721876 0
M  V30 11157 H 1039.13 2.91402 -0.687388 0
M  V30 11158 H 1036.67 1.4012 -0.332009 0
M  V30 11159 H 1038.63 3.92677 1.52913 0
M  V30 11160 H 1037.35 2.71686 1.81258 0
M  V30 11161 H 1036.01 3.6647 -0.0977053 0
M  V30 11162 H 1035.66 4.50861 2.23011 0
M  V30 11163 H 1035.36 5.7859 1.02506 0
M  V30 11164 H 1036.88 5.78373 1.95748 0
M  V30 11165 H 1038.29 5.72444 -0.313181 0
M  V30 11166 H 1036.69 5.90226 -1.08413 0
M  V30 11167 H 1037.76 4.58159 -1.58804 0
M  V30 11168 N 1039.1 0.374177 1.53094 0
M  V30 11169 C 1040.33 -0.213325 2.05797 0
M  V30 11170 C 1040.75 -1.41753 1.24706 0
M  V30 11171 O 1040.1 -1.80183 0.289868 0
M  V30 11172 C 1040.16 -0.598367 3.56513 0
M  V30 11173 O 1039.88 0.557983 4.34532 0
M  V30 11174 C 1041.38 -1.24334 4.25507 0
M  V30 11175 H 1038.6 -0.0357398 0.670048 0
M  V30 11176 H 1041.14 0.535035 1.97377 0
M  V30 11177 H 1039.3 -1.29663 3.65056 0
M  V30 11178 H 1039.71 0.244911 5.23928 0
M  V30 11179 H 1041.18 -1.46325 5.32253 0
M  V30 11180 H 1041.66 -2.20622 3.79766 0
M  V30 11181 H 1042.27 -0.586269 4.2124 0
M  V30 11182 N 1040.58 -1.57259 0.103575 0
M  V30 11183 C 1041.51 -2.17509 -0.84923 0
M  V30 11184 C 1042.49 -1.11079 -1.28824 0
M  V30 11185 O 1043.68 -1.39252 -1.35361 0
M  V30 11186 C 1040.81 -2.76221 -2.10522 0
M  V30 11187 C 1039.76 -3.88098 -1.80454 0
M  V30 11188 C 1039.09 -4.33549 -3.12952 0
M  V30 11189 C 1040.39 -5.10909 -1.08486 0
M  V30 11190 H 1042.08 -2.9738 -0.347217 0
M  V30 11191 H 1039.63 -1.43045 -0.165568 0
M  V30 11192 H 1041.58 -3.17024 -2.77621 0
M  V30 11193 H 1040.31 -1.93617 -2.63021 0
M  V30 11194 H 1038.96 -3.47847 -1.15749 0
M  V30 11195 H 1038.61 -3.47825 -3.63355 0
M  V30 11196 H 1038.31 -5.08984 -2.93614 0
M  V30 11197 H 1039.84 -4.76992 -3.81196 0
M  V30 11198 H 1041.25 -5.48828 -1.65711 0
M  V30 11199 H 1039.65 -5.91828 -0.992973 0
M  V30 11200 H 1040.72 -4.84851 -0.0690108 0
M  V30 11201 N 1042.06 0.170153 -1.56679 0
M  V30 11202 C 1043.31 0.887906 -1.8233 0
M  V30 11203 C 1043.64 1.81845 -0.681608 0
M  V30 11204 O 1042.91 1.9191 0.316362 0
M  V30 11205 C 1043.2 1.68256 -3.18374 0
M  V30 11206 C 1043.05 0.775059 -4.43072 0
M  V30 11207 C 1044.37 2.65001 -3.51372 0
M  V30 11208 H 1041.49 0.32135 -0.663252 0
M  V30 11209 H 1044.13 0.154065 -1.89374 0
M  V30 11210 H 1042.28 2.30817 -3.12499 0
M  V30 11211 H 1043.95 0.162234 -4.61015 0
M  V30 11212 H 1042.2 0.0831809 -4.3372 0
M  V30 11213 H 1042.87 1.36661 -5.34816 0
M  V30 11214 H 1045.34 2.12566 -3.57708 0
M  V30 11215 H 1044.22 3.17667 -4.47637 0
M  V30 11216 H 1044.48 3.45255 -2.76136 0
M  V30 11217 N 1043.54 1.5137 0.438746 0
M  V30 11218 C 1044.47 1.75528 1.53987 0
M  V30 11219 C 1045.45 0.605067 1.58975 0
M  V30 11220 O 1046.63 0.847634 1.74725 0
M  V30 11221 C 1043.76 1.87904 2.92078 0
M  V30 11222 C 1042.72 3.0333 3.01951 0
M  V30 11223 C 1042.04 3.00888 4.42007 0
M  V30 11224 C 1043.34 4.43319 2.76163 0
M  V30 11225 H 1045.04 2.67728 1.34022 0
M  V30 11226 H 1042.58 1.28831 0.643308 0
M  V30 11227 H 1044.54 2.03388 3.69068 0
M  V30 11228 H 1043.26 0.923514 3.13271 0
M  V30 11229 H 1041.92 2.87549 2.274 0
M  V30 11230 H 1041.57 2.03116 4.60166 0
M  V30 11231 H 1041.27 3.78397 4.49544 0
M  V30 11232 H 1042.79 3.18464 5.20973 0
M  V30 11233 H 1044.21 4.59458 3.42887 0
M  V30 11234 H 1042.6 5.22523 2.9511 0
M  V30 11235 H 1043.67 4.53453 1.71779 0
M  V30 11236 N 1045.02 -0.694098 1.41492 0
M  V30 11237 C 1045.98 -1.78976 1.43179 0
M  V30 11238 C 1046.98 -1.57539 0.322191 0
M  V30 11239 O 1048.17 -1.64185 0.582138 0
M  V30 11240 C 1045.3 -3.17368 1.2446 0
M  V30 11241 H 1046.49 -1.78874 2.40716 0
M  V30 11242 H 1044.05 -0.901867 1.27656 0
M  V30 11243 H 1044.78 -3.23109 0.277691 0
M  V30 11244 H 1044.57 -3.3433 2.04856 0
M  V30 11245 H 1046.06 -3.97345 1.28479 0
M  V30 11246 N 1046.49 -1.27344 -0.928501 0
M  V30 11247 C 1047.74 -1.13019 -1.67061 0
M  V30 11248 C 1048.06 0.323614 -1.92904 0
M  V30 11249 O 1049.26 0.587752 -2.65062 0
M  V30 11250 C 1047.72 -1.97471 -3.00887 0
M  V30 11251 C 1047.33 -3.47504 -2.82746 0
M  V30 11252 C 1049.07 -1.91792 -3.78703 0
M  V30 11253 C 1046.98 -4.24158 -4.12122 0
M  V30 11254 H 1045.91 -0.419364 -0.626618 0
M  V30 11255 H 1048.56 -1.51759 -1.03158 0
M  V30 11256 H 1046.94 -1.51576 -3.65843 0
M  V30 11257 H 1048.11 -4.01256 -2.26562 0
M  V30 11258 H 1046.43 -3.54554 -2.18359 0
M  V30 11259 H 1049.03 -2.46339 -4.74575 0
M  V30 11260 H 1049.37 -0.891375 -4.06645 0
M  V30 11261 H 1049.9 -2.35578 -3.20543 0
M  V30 11262 H 1046.64 -5.27333 -3.89359 0
M  V30 11263 H 1046.16 -3.75183 -4.67972 0
M  V30 11264 H 1047.84 -4.33288 -4.80489 0
M  V30 11265 N 1047.97 1.13488 -1.09353 0
M  V30 11266 C 1049.22 1.841 -0.82401 0
M  V30 11267 C 1049.53 1.84393 0.652586 0
M  V30 11268 O 1050.74 2.5089 1.03762 0
M  V30 11269 C 1049.2 3.30523 -1.42418 0
M  V30 11270 C 1048.8 3.38621 -2.93326 0
M  V30 11271 C 1050.55 4.06182 -1.23356 0
M  V30 11272 C 1048.46 4.79311 -3.46432 0
M  V30 11273 H 1047.39 0.68974 -0.304589 0
M  V30 11274 H 1050.04 1.27866 -1.31615 0
M  V30 11275 H 1048.42 3.86555 -0.859727 0
M  V30 11276 H 1049.59 2.92587 -3.5599 0
M  V30 11277 H 1047.91 2.76426 -3.11412 0
M  V30 11278 H 1050.5 5.10047 -1.60488 0
M  V30 11279 H 1050.85 4.15936 -0.174152 0
M  V30 11280 H 1051.38 3.56477 -1.76547 0
M  V30 11281 H 1048.12 4.74748 -4.5199 0
M  V30 11282 H 1047.64 5.25842 -2.8853 0
M  V30 11283 H 1049.32 5.48227 -3.43593 0
M  V30 11284 N 1049.45 0.880621 1.30701 0
M  V30 11285 C 1050.7 0.497611 1.966 0
M  V30 11286 C 1051.03 -0.949901 1.69383 0
M  V30 11287 O 1050.31 -1.67054 0.996152 0
M  V30 11288 C 1050.59 0.767919 3.51817 0
M  V30 11289 C 1050.44 2.26574 3.88567 0
M  V30 11290 C 1051.76 0.241502 4.39437 0
M  V30 11291 H 1048.88 0.182267 0.714106 0
M  V30 11292 H 1051.52 1.10382 1.54648 0
M  V30 11293 H 1049.67 0.251967 3.87682 0
M  V30 11294 H 1051.34 2.84977 3.62748 0
M  V30 11295 H 1049.59 2.73411 3.36792 0
M  V30 11296 H 1050.26 2.40549 4.9683 0
M  V30 11297 H 1052.73 0.683051 4.10455 0
M  V30 11298 H 1051.61 0.459997 5.46969 0
M  V30 11299 H 1051.87 -0.857068 4.33713 0
M  V30 11300 N 1050.93 -1.4397 0.641131 0
M  V30 11301 C 1052.18 -2.01946 0.149629 0
M  V30 11302 C 1052.5 -1.50496 -1.23212 0
M  V30 11303 O 1051.76 -0.683453 -1.83378 0
M  V30 11304 C 1052.06 -3.5727 0.0963368 0
M  V30 11305 C 1051.72 -4.28016 1.4182 0
M  V30 11306 C 1050.39 -4.47059 1.78021 0
M  V30 11307 C 1052.74 -4.68183 2.29028 0
M  V30 11308 C 1050.07 -5.03532 3.01119 0
M  V30 11309 C 1052.42 -5.26019 3.51406 0
M  V30 11310 C 1051.08 -5.4328 3.87818 0
M  V30 11311 H 1050.35 -0.738974 0.0547531 0
M  V30 11312 H 1053 -1.72605 0.829436 0
M  V30 11313 H 1051.3 -3.86083 -0.666879 0
M  V30 11314 H 1053 -3.99871 -0.300635 0
M  V30 11315 H 1049.59 -4.13531 1.12651 0
M  V30 11316 H 1053.78 -4.53175 2.02353 0
M  V30 11317 H 1049.03 -5.15082 3.29395 0
M  V30 11318 H 1053.21 -5.56092 4.19208 0
M  V30 11319 H 1050.83 -5.86805 4.83284 0
M  V30 11320 N 1052.41 -0.382291 -1.52893 0
M  V30 11321 C 1053.66 0.203342 -2.00672 0
M  V30 11322 C 1053.97 1.48487 -1.27322 0
M  V30 11323 O 1055.18 2.15013 -1.65776 0
M  V30 11324 C 1053.63 0.412922 -3.57523 0
M  V30 11325 C 1053.24 -0.854949 -4.39767 0
M  V30 11326 C 1054.98 0.955301 -4.13611 0
M  V30 11327 C 1052.89 -0.614033 -5.88204 0
M  V30 11328 H 1051.82 0.0797635 -0.749769 0
M  V30 11329 H 1054.47 -0.50361 -1.76454 0
M  V30 11330 H 1052.85 1.18155 -3.77962 0
M  V30 11331 H 1054.03 -1.62765 -4.31096 0
M  V30 11332 H 1052.34 -1.32176 -3.94865 0
M  V30 11333 H 1054.94 1.15114 -5.22162 0
M  V30 11334 H 1055.28 1.92233 -3.69259 0
M  V30 11335 H 1055.82 0.24642 -3.97036 0
M  V30 11336 H 1052.55 -1.55187 -6.36865 0
M  V30 11337 H 1052.07 0.119865 -5.9968 0
M  V30 11338 H 1053.75 -0.245895 -6.46533 0
M  V30 11339 N 1053.89 1.57202 -0.111913 0
M  V30 11340 C 1055.13 1.9495 0.547795 0
M  V30 11341 C 1055.46 0.994763 1.67137 0
M  V30 11342 O 1054.72 0.0173528 1.95692 0
M  V30 11343 C 1055.01 3.39152 1.12741 0
M  V30 11344 C 1054.68 4.50724 0.125916 0
M  V30 11345 C 1053.34 4.80968 -0.149489 0
M  V30 11346 C 1055.69 5.18215 -0.556987 0
M  V30 11347 C 1053.02 5.76023 -1.1142 0
M  V30 11348 C 1055.37 6.14307 -1.51029 0
M  V30 11349 C 1054.04 6.42947 -1.79375 0
M  V30 11350 H 1053.31 0.713372 0.200453 0
M  V30 11351 H 1055.96 1.90542 -0.191316 0
M  V30 11352 H 1054.26 3.4022 1.94313 0
M  V30 11353 H 1055.96 3.65668 1.64584 0
M  V30 11354 H 1052.55 4.27162 0.350756 0
M  V30 11355 H 1056.73 4.95012 -0.357378 0
M  V30 11356 H 1051.99 5.9652 -1.34064 0
M  V30 11357 H 1056.16 6.65692 -2.04516 0
M  V30 11358 H 1053.79 7.1641 -2.54284 0
M  V30 11359 N 1055.36 -0.161842 1.56767 0
M  V30 11360 C 1056.33 -1.18404 1.96247 0
M  V30 11361 C 1057.33 -1.3667 0.84722 0
M  V30 11362 O 1058.52 -1.33915 1.11411 0
M  V30 11363 C 1055.65 -2.54728 2.26553 0
M  V30 11364 H 1056.84 -0.845703 2.87729 0
M  V30 11365 H 1054.39 -0.404645 1.50971 0
M  V30 11366 H 1055.13 -2.93559 1.37816 0
M  V30 11367 H 1054.91 -2.42834 3.07854 0
M  V30 11368 H 1056.4 -3.28378 2.57987 0
M  V30 11369 N 1056.84 -1.516 -0.430713 0
M  V30 11370 C 1058.09 -1.6484 -1.18134 0
M  V30 11371 C 1058.42 -0.366725 -1.90706 0
M  V30 11372 O 1057.7 0.63398 -1.83878 0
M  V30 11373 C 1057.98 -2.85617 -2.19306 0
M  V30 11374 C 1057.83 -4.23778 -1.50773 0
M  V30 11375 C 1059.15 -3.01909 -3.20217 0
M  V30 11376 H 1056.27 -0.599907 -0.428113 0
M  V30 11377 H 1058.91 -1.84102 -0.46973 0
M  V30 11378 H 1057.06 -2.69325 -2.79993 0
M  V30 11379 H 1058.73 -4.51752 -0.93371 0
M  V30 11380 H 1056.98 -4.26171 -0.809966 0
M  V30 11381 H 1057.65 -5.04291 -2.24487 0
M  V30 11382 H 1060.12 -3.16956 -2.69589 0
M  V30 11383 H 1059 -3.87968 -3.88293 0
M  V30 11384 H 1059.26 -2.1427 -3.86705 0
M  V30 11385 N 1058.32 0.686584 -1.41858 0
M  V30 11386 C 1059.57 1.44879 -1.41908 0
M  V30 11387 C 1059.9 1.94175 -0.0311408 0
M  V30 11388 O 1059.17 1.70131 0.942646 0
M  V30 11389 C 1059.46 2.65428 -2.43352 0
M  V30 11390 C 1059.31 2.2184 -3.91289 0
M  V30 11391 C 1060.63 3.67635 -2.41934 0
M  V30 11392 H 1057.75 0.525477 -0.516762 0
M  V30 11393 H 1060.39 0.781263 -1.73194 0
M  V30 11394 H 1058.54 3.2238 -2.16803 0
M  V30 11395 H 1060.21 1.70146 -4.28775 0
M  V30 11396 H 1058.45 1.53531 -4.05722 0
M  V30 11397 H 1059.13 3.08376 -4.5783 0
M  V30 11398 H 1061.6 3.20376 -2.65516 0
M  V30 11399 H 1060.48 4.49579 -3.14913 0
M  V30 11400 H 1060.74 4.17953 -1.44111 0
M  V30 11401 N 1059.8 1.27835 0.921735 0
M  V30 11402 C 1061.05 1.14296 1.66676 0
M  V30 11403 C 1061.37 -0.310493 1.92512 0
M  V30 11404 O 1060.64 -1.21637 1.53562 0
M  V30 11405 H 1059.22 0.419994 0.617749 0
M  V30 11406 H 1061.88 1.60449 1.10644 0
M  V30 11407 H 1060.97 1.67654 2.63246 0
M  V30 11408 N 1061.28 -1.12907 1.09954 0
M  V30 11409 C 1062.21 -2.17589 0.687769 0
M  V30 11410 C 1063.19 -1.59648 -0.308444 0
M  V30 11411 O 1064.37 -1.87343 -0.208527 0
M  V30 11412 C 1061.5 -3.38697 0.0140519 0
M  V30 11413 C 1060.54 -4.15254 0.972942 0
M  V30 11414 S 1061.38 -4.74205 2.48777 0
M  V30 11415 C 1062.53 -5.98653 1.82662 0
M  V30 11416 H 1062.77 -2.52181 1.57455 0
M  V30 11417 H 1060.3 -1.24289 0.916051 0
M  V30 11418 H 1062.26 -4.08844 -0.368343 0
M  V30 11419 H 1060.92 -3.02396 -0.849456 0
M  V30 11420 H 1060.11 -5.01999 0.448715 0
M  V30 11421 H 1059.71 -3.5079 1.297 0
M  V30 11422 H 1062 -6.67602 1.15388 0
M  V30 11423 H 1062.95 -6.55693 2.67343 0
M  V30 11424 H 1063.36 -5.49486 1.29325 0
M  V30 11425 N 1062.75 -0.88754 -1.30232 0
M  V30 11426 C 1063.69 -0.313488 -2.27046 0
M  V30 11427 C 1064.7 0.533383 -1.53814 0
M  V30 11428 O 1065.89 0.352516 -1.74984 0
M  V30 11429 C 1062.99 0.572674 -3.34026 0
M  V30 11430 C 1062.16 -0.245712 -4.36709 0
M  V30 11431 C 1061.22 0.57135 -5.23089 0
M  V30 11432 O 1060.25 -0.00685948 -5.692 0
M  V30 11433 N 1061.45 1.87994 -5.49216 0
M  V30 11434 H 1064.21 -1.14553 -2.76943 0
M  V30 11435 H 1061.77 -0.750785 -1.43439 0
M  V30 11436 H 1063.77 1.12539 -3.88738 0
M  V30 11437 H 1062.34 1.3054 -2.84039 0
M  V30 11438 H 1061.56 -0.979869 -3.81827 0
M  V30 11439 H 1062.84 -0.806618 -5.02366 0
M  V30 11440 H 1062.24 2.3726 -5.13541 0
M  V30 11441 H 1060.8 2.38005 -6.06792 0
M  V30 11442 N 1064.23 1.43628 -0.648757 0
M  V30 11443 C 1065.16 2.33478 0.0320785 0
M  V30 11444 C 1066.14 1.49217 0.816605 0
M  V30 11445 O 1067.33 1.77892 0.778974 0
M  V30 11446 C 1064.46 3.32525 1.00222 0
M  V30 11447 C 1063.41 4.2674 0.328119 0
M  V30 11448 C 1062.74 5.15791 1.4094 0
M  V30 11449 C 1064.04 5.16493 -0.776701 0
M  V30 11450 H 1065.73 2.90657 -0.718257 0
M  V30 11451 H 1063.28 1.3976 -0.346852 0
M  V30 11452 H 1065.23 3.94277 1.4874 0
M  V30 11453 H 1063.96 2.73593 1.78366 0
M  V30 11454 H 1062.61 3.66346 -0.136569 0
M  V30 11455 H 1062.26 4.53201 2.18216 0
M  V30 11456 H 1061.96 5.79645 0.963631 0
M  V30 11457 H 1063.49 5.80416 1.89603 0
M  V30 11458 H 1064.9 5.7208 -0.373878 0
M  V30 11459 H 1063.3 5.89043 -1.14667 0
M  V30 11460 H 1064.37 4.56448 -1.63654 0
M  V30 11461 N 1065.71 0.390394 1.52688 0
M  V30 11462 C 1066.96 -0.191445 2.01593 0
M  V30 11463 C 1067.29 -1.46723 1.27681 0
M  V30 11464 O 1066.54 -1.92248 0.365972 0
M  V30 11465 C 1066.84 -0.50468 3.53819 0
M  V30 11466 C 1066.51 0.679691 4.45748 0
M  V30 11467 C 1065.17 1.0046 4.70597 0
M  V30 11468 C 1067.52 1.47198 4.99982 0
M  V30 11469 C 1064.85 2.12334 5.46929 0
M  V30 11470 C 1067.2 2.58133 5.77538 0
M  V30 11471 C 1065.86 2.91131 6.00665 0
M  V30 11472 H 1065.13 -0.0700548 0.737681 0
M  V30 11473 H 1067.78 0.527965 1.84078 0
M  V30 11474 H 1066.09 -1.30543 3.69413 0
M  V30 11475 H 1067.78 -0.967524 3.89153 0
M  V30 11476 H 1064.37 0.416446 4.26572 0
M  V30 11477 H 1068.56 1.2342 4.80709 0
M  V30 11478 H 1063.81 2.38269 5.63061 0
M  V30 11479 H 1067.99 3.19925 6.18564 0
M  V30 11480 H 1065.61 3.77938 6.59596 0
M  V30 11481 N 1067.19 -1.57141 0.120249 0
M  V30 11482 C 1068.44 -1.94852 -0.536387 0
M  V30 11483 C 1068.76 -1.00452 -1.67136 0
M  V30 11484 O 1068.03 -0.061053 -1.95805 0
M  V30 11485 H 1066.61 -0.719411 -0.201138 0
M  V30 11486 H 1069.27 -1.93977 0.189482 0
M  V30 11487 H 1068.37 -2.97917 -0.930145 0
M  V30 11488 N 1068.67 0.153526 -1.5685 0
M  V30 11489 C 1069.61 1.18973 -1.97773 0
M  V30 11490 C 1070.58 1.43041 -0.844311 0
M  V30 11491 O 1071.77 1.55484 -1.10586 0
M  V30 11492 C 1068.91 2.51981 -2.35795 0
M  V30 11493 C 1068.02 2.35143 -3.62397 0
M  V30 11494 C 1067.16 3.61141 -3.89552 0
M  V30 11495 C 1066.2 3.39311 -5.09445 0
M  V30 11496 N 1065.33 4.57423 -5.32643 0
M  V30 11497 H 1070.17 0.833758 -2.86099 0
M  V30 11498 H 1067.71 0.400252 -1.4155 0
M  V30 11499 H 1069.67 3.29527 -2.55867 0
M  V30 11500 H 1068.3 2.85539 -1.50557 0
M  V30 11501 H 1067.35 1.48684 -3.50139 0
M  V30 11502 H 1068.66 2.14969 -4.501 0
M  V30 11503 H 1067.82 4.47117 -4.10087 0
M  V30 11504 H 1066.55 3.84312 -3.00259 0
M  V30 11505 H 1065.56 2.51723 -4.8879 0
M  V30 11506 H 1066.78 3.17545 -6.00285 0
M  V30 11507 H 1064.73 4.8078 -4.46303 0
M  V30 11508 H 1064.65 4.40228 -6.14602 0
M  V30 11509 H 1065.92 5.44632 -5.57671 0
M  V30 11510 N 1070.14 1.51827 0.422667 0
M  V30 11511 C 1071.37 1.69337 1.19748 0
M  V30 11512 C 1071.79 0.396312 1.83878 0
M  V30 11513 O 1071.15 -0.644976 1.6944 0
M  V30 11514 C 1071.2 2.82082 2.24637 0
M  V30 11515 O 1070.3 2.46708 3.30468 0
M  V30 11516 H 1069.65 0.564154 0.35018 0
M  V30 11517 H 1072.18 1.98465 0.497289 0
M  V30 11518 H 1072.19 3.06599 2.69186 0
M  V30 11519 H 1070.86 3.76195 1.77341 0
M  V30 11520 H 1069.44 2.32815 2.91293 0
M  V30 11521 N 1071.62 -0.679052 1.4222 0
M  V30 11522 C 1072.85 -1.46534 1.45641 0
M  V30 11523 C 1073.26 -1.89088 0.0649574 0
M  V30 11524 O 1072.6 -1.58436 -0.929712 0
M  V30 11525 C 1072.67 -2.74882 2.3169 0
M  V30 11526 C 1072.33 -2.5443 3.79624 0
M  V30 11527 C 1073.33 -2.19307 4.71382 0
M  V30 11528 C 1071.01 -2.69557 4.23845 0
M  V30 11529 C 1073.01 -1.99571 6.05351 0
M  V30 11530 C 1070.69 -2.49437 5.57875 0
M  V30 11531 C 1071.69 -2.14497 6.48444 0
M  V30 11532 O 1071.38 -1.94567 7.79999 0
M  V30 11533 H 1071.11 -0.457542 0.497626 0
M  V30 11534 H 1073.66 -0.842145 1.87342 0
M  V30 11535 H 1071.89 -3.39669 1.8483 0
M  V30 11536 H 1073.58 -3.3675 2.26615 0
M  V30 11537 H 1074.35 -2.0722 4.38503 0
M  V30 11538 H 1070.23 -2.95733 3.53642 0
M  V30 11539 H 1073.77 -1.72222 6.76007 0
M  V30 11540 H 1069.67 -2.61119 5.90328 0
M  V30 11541 H 1070.44 -2.092 7.91314 0
M  V30 11542 N 1073.1 -1.28322 -0.914942 0
M  V30 11543 C 1074.05 -1.12146 -2.01722 0
M  V30 11544 C 1075.02 -0.0189279 -1.66089 0
M  V30 11545 O 1076.2 -0.183638 -1.89914 0
M  V30 11546 C 1073.34 -0.78808 -3.35981 0
M  V30 11547 C 1072.46 -1.96954 -3.84491 0
M  V30 11548 C 1071.59 -1.57688 -5.07255 0
M  V30 11549 C 1070.63 -2.72506 -5.48094 0
M  V30 11550 N 1069.77 -2.33741 -6.62049 0
M  V30 11551 H 1074.61 -2.06461 -2.1489 0
M  V30 11552 H 1072.14 -1.0276 -1.05256 0
M  V30 11553 H 1074.1 -0.575546 -4.13211 0
M  V30 11554 H 1072.73 0.118132 -3.22584 0
M  V30 11555 H 1071.78 -2.29423 -3.03429 0
M  V30 11556 H 1073.1 -2.8304 -4.10719 0
M  V30 11557 H 1072.25 -1.32634 -5.92025 0
M  V30 11558 H 1070.99 -0.687291 -4.82833 0
M  V30 11559 H 1069.99 -2.9826 -4.61867 0
M  V30 11560 H 1071.22 -3.62106 -5.74505 0
M  V30 11561 H 1069.16 -1.4725 -6.3926 0
M  V30 11562 H 1069.08 -3.13364 -6.87997 0
M  V30 11563 H 1070.35 -2.11968 -7.50127 0
M  V30 11564 N 1074.58 1.12322 -1.10551 0
M  V30 11565 C 1075.49 2.21678 -0.767862 0
M  V30 11566 C 1076.5 1.72404 0.235132 0
M  V30 11567 O 1077.68 2.01266 0.0735912 0
M  V30 11568 C 1074.75 3.46087 -0.205999 0
M  V30 11569 C 1073.81 4.10195 -1.26642 0
M  V30 11570 C 1073.04 5.28666 -0.731274 0
M  V30 11571 O 1073.26 5.68686 0.44189 0
M  V30 11572 O 1072.2 5.83121 -1.49176 0
M  V30 11573 H 1076.02 2.52955 -1.6807 0
M  V30 11574 H 1073.61 1.2068 -0.880728 0
M  V30 11575 H 1075.49 4.21273 0.103435 0
M  V30 11576 H 1074.16 3.16484 0.679685 0
M  V30 11577 H 1073.07 3.36784 -1.62873 0
M  V30 11578 H 1074.4 4.43957 -2.12516 0
M  V30 11579 N 1076.06 0.894434 1.2976 0
M  V30 11580 C 1077.3 0.524501 1.97556 0
M  V30 11581 C 1077.66 -0.911202 1.69 0
M  V30 11582 O 1078.86 -1.38774 2.30207 0
M  V30 11583 C 1077.13 0.802636 3.48271 0
M  V30 11584 S 1078.69 0.536223 4.35511 0
M  V30 11585 H 1075.51 0.194786 0.683798 0
M  V30 11586 H 1078.11 1.15574 1.5768 0
M  V30 11587 H 1076.82 1.84586 3.66546 0
M  V30 11588 H 1076.35 0.159316 3.93077 0
M  V30 11589 H 1078.36 -0.621056 4.92298 0
M  V30 11590 N 1077.53 -1.43282 0.656365 0
M  V30 11591 C 1078.78 -2.02075 0.171293 0
M  V30 11592 C 1079.11 -1.51682 -1.21269 0
M  V30 11593 O 1078.39 -0.711243 -1.81029 0
M  V30 11594 C 1078.67 -3.59621 0.185602 0
M  V30 11595 C 1078.52 -4.20239 1.60373 0
M  V30 11596 C 1079.84 -4.37515 -0.476289 0
M  V30 11597 H 1076.96 -0.73424 0.0637185 0
M  V30 11598 H 1079.6 -1.70539 0.837648 0
M  V30 11599 H 1077.75 -3.86619 -0.381804 0
M  V30 11600 H 1079.43 -4.0426 2.22197 0
M  V30 11601 H 1077.67 -3.76769 2.15006 0
M  V30 11602 H 1078.34 -5.29333 1.56557 0
M  V30 11603 H 1080.82 -4.16099 0.00651073 0
M  V30 11604 H 1079.69 -5.47169 -0.435562 0
M  V30 11605 H 1079.95 -4.14003 -1.55093 0
M  V30 11606 N 1079.01 -0.398486 -1.52479 0
M  V30 11607 C 1080.25 0.180412 -2.03602 0
M  V30 11608 C 1080.62 1.43276 -1.27812 0
M  V30 11609 O 1081.82 2.08941 -1.69107 0
M  V30 11610 C 1080.09 0.432744 -3.5477 0
M  V30 11611 S 1081.65 0.980612 -4.27703 0
M  V30 11612 H 1078.47 0.0499981 -0.70924 0
M  V30 11613 H 1081.07 -0.548952 -1.87635 0
M  V30 11614 H 1079.77 -0.48568 -4.07516 0
M  V30 11615 H 1079.3 1.19028 -3.74961 0
M  V30 11616 H 1081.32 2.26216 -4.41634 0
M  V30 11617 N 1080.49 1.57075 -0.12858 0
M  V30 11618 C 1081.44 2.15816 0.818064 0
M  V30 11619 C 1082.41 1.08581 1.25696 0
M  V30 11620 O 1083.59 1.36535 1.33277 0
M  V30 11621 C 1080.73 2.76943 2.05905 0
M  V30 11622 C 1079.85 3.98514 1.66764 0
M  V30 11623 C 1078.98 4.47698 2.85902 0
M  V30 11624 C 1078.02 5.61778 2.43047 0
M  V30 11625 N 1077.16 6.05662 3.5513 0
M  V30 11626 H 1082 2.9638 0.310318 0
M  V30 11627 H 1079.53 1.46418 0.141472 0
M  V30 11628 H 1081.49 3.10519 2.78629 0
M  V30 11629 H 1080.12 1.99053 2.54122 0
M  V30 11630 H 1079.17 3.71038 0.838766 0
M  V30 11631 H 1080.49 4.81215 1.31277 0
M  V30 11632 H 1079.64 4.83233 3.66839 0
M  V30 11633 H 1078.38 3.63967 3.24622 0
M  V30 11634 H 1077.38 5.25838 1.60544 0
M  V30 11635 H 1078.61 6.47282 2.05433 0
M  V30 11636 H 1076.56 5.2487 3.93506 0
M  V30 11637 H 1076.47 6.83242 3.23598 0
M  V30 11638 H 1077.74 6.45838 4.36479 0
M  V30 11639 N 1081.97 -0.145205 1.5693 0
M  V30 11640 C 1083.22 -0.855955 1.82637 0
M  V30 11641 C 1083.53 -1.82255 0.710109 0
M  V30 11642 O 1084.74 -2.57758 0.852837 0
M  V30 11643 C 1083.19 -1.57278 3.23715 0
M  V30 11644 C 1082.8 -0.648507 4.43281 0
M  V30 11645 C 1084.55 -2.27021 3.58695 0
M  V30 11646 C 1082.45 -1.36706 5.75383 0
M  V30 11647 H 1081.38 -0.323385 0.68113 0
M  V30 11648 H 1084.03 -0.10869 1.83178 0
M  V30 11649 H 1082.42 -2.36574 3.17567 0
M  V30 11650 H 1083.59 0.109355 4.6067 0
M  V30 11651 H 1081.9 -0.0594029 4.16358 0
M  V30 11652 H 1084.5 -2.81423 4.54648 0
M  V30 11653 H 1084.84 -3.03598 2.8484 0
M  V30 11654 H 1085.38 -1.54642 3.66512 0
M  V30 11655 H 1082.12 -0.6431 6.52338 0
M  V30 11656 H 1081.64 -2.09759 5.61926 0
M  V30 11657 H 1083.32 -1.90748 6.18243 0
M  V30 11658 N 1083.45 -1.52049 -0.414609 0
M  V30 11659 C 1084.41 -1.74382 -1.4874 0
M  V30 11660 C 1085.41 -0.613701 -1.48628 0
M  V30 11661 O 1086.6 -0.88152 -1.50249 0
M  V30 11662 C 1083.73 -1.82116 -2.88178 0
M  V30 11663 H 1084.93 -2.70147 -1.30233 0
M  V30 11664 H 1082.48 -1.42382 -0.644756 0
M  V30 11665 H 1083.21 -0.882457 -3.12063 0
M  V30 11666 H 1083 -2.64268 -2.89663 0
M  V30 11667 H 1084.49 -2.01155 -3.65959 0
M  V30 11668 N 1084.93 0.6715 -1.42579 0
M  V30 11669 C 1085.86 1.79693 -1.49107 0
M  V30 11670 C 1086.84 1.66516 -0.347338 0
M  V30 11671 O 1088.02 1.85887 -0.562094 0
M  V30 11672 C 1085.15 3.1801 -1.39596 0
M  V30 11673 C 1084.11 3.45926 -2.5203 0
M  V30 11674 C 1083.43 4.83852 -2.27577 0
M  V30 11675 C 1084.73 3.4249 -3.94333 0
M  V30 11676 H 1086.43 1.74486 -2.433 0
M  V30 11677 H 1083.97 0.838042 -1.17102 0
M  V30 11678 H 1085.92 3.96478 -1.42771 0
M  V30 11679 H 1084.65 3.23901 -0.418989 0
M  V30 11680 H 1083.31 2.6982 -2.48178 0
M  V30 11681 H 1082.96 4.86398 -1.28165 0
M  V30 11682 H 1082.66 5.03493 -3.02934 0
M  V30 11683 H 1084.18 5.646 -2.32506 0
M  V30 11684 H 1085.59 4.10922 -3.9977 0
M  V30 11685 H 1083.99 3.73666 -4.69568 0
M  V30 11686 H 1085.06 2.41002 -4.20768 0
M  V30 11687 N 1086.4 1.28806 0.908124 0
M  V30 11688 C 1087.68 1.06981 1.63751 0
M  V30 11689 C 1088.06 -0.388936 2.07486 0
M  V30 11690 O 1087.41 -1.37611 1.82415 0
M  V30 11691 C 1087.62 2.04962 2.82474 0
M  V30 11692 C 1088.97 2.35418 3.5336 0
M  V30 11693 O 1089.99 2.03091 2.92631 0
M  V30 11694 O 1088.85 2.90617 4.62822 0
M  V30 11695 H 1085.94 0.409267 0.71863 0
M  V30 11696 H 1088.49 1.40146 0.956934 0
M  V30 11697 H 1087.26 3.03254 2.47291 0
M  V30 11698 H 1086.88 1.72476 3.58242 0
M  V30 11699 N 1087.88 -1.11734 1.11145 0
M  V30 11700 C 1089.12 -1.85039 0.868318 0
M  V30 11701 C 1089.49 -1.82538 -0.595294 0
M  V30 11702 O 1090.69 -2.5126 -0.955071 0
M  V30 11703 C 1088.96 -3.28381 1.4107 0
M  V30 11704 S 1090.52 -4.18973 1.3041 0
M  V30 11705 H 1087.33 -0.638114 0.313578 0
M  V30 11706 H 1089.94 -1.34548 1.41835 0
M  V30 11707 H 1088.64 -3.27764 2.46979 0
M  V30 11708 H 1088.17 -3.83939 0.857576 0
M  V30 11709 H 1090.19 -4.95483 0.266605 0
M  V30 11710 N 1089.36 -0.901303 -1.29284 0
M  V30 11711 C 1090.31 -0.370142 -2.29636 0
M  V30 11712 C 1091.3 0.53157 -1.60844 0
M  V30 11713 O 1092.51 0.414194 -1.7517 0
M  V30 11714 H 1088.88 -0.101072 -0.745177 0
M  V30 11715 H 1090.85 -1.22985 -2.71877 0
M  V30 11716 C 1089.6 0.385806 -3.45553 0
M  V30 11717 H 1088.93 -0.298818 -3.98682 0
M  V30 11718 H 1090.37 0.722299 -4.17802 0
M  V30 11719 C 1088.82 1.58907 -2.97069 0
M  V30 11720 O 1089.35 2.68835 -2.98481 0
M  V30 11721 N 1087.56 1.43178 -2.5288 0
M  V30 11722 H 1087.11 0.537467 -2.51931 0
M  V30 11723 H 1087.07 2.23819 -2.208 0
M  V30 11724 N 1090.84 1.42931 -0.663954 0
M  V30 11725 C 1091.77 2.33499 0.00731327 0
M  V30 11726 C 1092.75 1.50074 0.800733 0
M  V30 11727 O 1093.93 1.78708 0.760062 0
M  V30 11728 C 1091.06 3.33569 0.966897 0
M  V30 11729 C 1090.02 4.27064 0.282839 0
M  V30 11730 C 1089.34 5.17257 1.35461 0
M  V30 11731 C 1090.64 5.1564 -0.831438 0
M  V30 11732 H 1092.34 2.89879 -0.749044 0
M  V30 11733 H 1089.88 1.39385 -0.361656 0
M  V30 11734 H 1091.84 3.95833 1.44549 0
M  V30 11735 H 1090.56 2.75469 1.75455 0
M  V30 11736 H 1089.22 3.6618 -0.175417 0
M  V30 11737 H 1088.87 4.5549 2.13397 0
M  V30 11738 H 1088.57 5.80634 0.902098 0
M  V30 11739 H 1090.09 5.82395 1.83436 0
M  V30 11740 H 1091.51 5.71651 -0.434534 0
M  V30 11741 H 1089.9 5.87794 -1.20908 0
M  V30 11742 H 1090.97 4.54687 -1.68487 0
M  V30 11743 N 1092.32 0.406567 1.52266 0
M  V30 11744 C 1093.73 -0.063607 1.86592 0
M  V30 11745 C 1094.08 -1.4466 1.32544 0
M  V30 11746 O 1093.2 -2.05971 0.663692 0
M  V30 11747 C 1093.8 -0.122198 3.3858 0
M  V30 11748 C 1092.36 -0.536701 3.72554 0
M  V30 11749 C 1091.5 0.290422 2.75775 0
M  V30 11750 H 1094.45 0.623738 1.45929 0
M  V30 11751 H 1094.48 -0.937964 3.68758 0
M  V30 11752 H 1093.99 0.884495 3.77887 0
M  V30 11753 H 1092.09 -1.55013 3.38824 0
M  V30 11754 H 1092.2 -0.282867 4.78264 0
M  V30 11755 H 1090.57 -0.246864 2.53501 0
M  V30 11756 H 1091.35 1.29541 3.17921 0
M  V30 11757 N 1093.79 -1.57004 0.136909 0
M  V30 11758 C 1095.21 -1.58082 -0.21958 0
M  V30 11759 C 1095.41 -1.15065 -1.65415 0
M  V30 11760 O 1094.47 -0.846284 -2.37896 0
M  V30 11761 C 1095.78 -3.00685 0.0300112 0
M  V30 11762 C 1097.33 -3.12981 -0.0344899 0
M  V30 11763 C 1097.8 -4.57615 0.187639 0
M  V30 11764 N 1099.29 -4.63005 0.134219 0
M  V30 11765 C 1100.03 -5.72712 0.280743 0
M  V30 11766 N 1099.52 -6.91104 0.48443 0
M  V30 11767 N 1101.32 -5.61673 0.219055 0
M  V30 11768 H 1093.47 -1.83262 1.07372 0
M  V30 11769 H 1095.73 -0.847776 0.424241 0
M  V30 11770 H 1095.44 -3.36509 1.02247 0
M  V30 11771 H 1095.31 -3.70762 -0.693918 0
M  V30 11772 H 1097.7 -2.77004 -1.01749 0
M  V30 11773 H 1097.78 -2.45411 0.721608 0
M  V30 11774 H 1097.42 -4.94295 1.16769 0
M  V30 11775 H 1097.35 -5.23299 -0.588661 0
M  V30 11776 H 1099.84 -3.77895 -0.0189681 0
M  V30 11777 H 1100.16 -7.7057 0.586613 0
M  V30 11778 H 1098.5 -6.93047 0.520627 0
M  V30 11779 H 1101.69 -4.68061 0.0607606 0
M  V30 11780 H 1101.87 -6.47125 0.336683 0
M  V30 11781 N 1095.27 0.136881 -1.57004 0
M  V30 11782 C 1096.52 0.844147 -1.85056 0
M  V30 11783 C 1096.87 1.78328 -0.722278 0
M  V30 11784 O 1096.17 1.89557 0.279059 0
M  V30 11785 C 1096.36 1.64711 -3.17183 0
M  V30 11786 C 1096.19 0.787229 -4.42756 0
M  V30 11787 C 1094.96 0.448938 -5.03302 0
M  V30 11788 C 1097.16 0.112947 -5.14176 0
M  V30 11789 N 1095.14 -0.423481 -6.12438 0
M  V30 11790 C 1096.51 -0.619195 -6.169 0
M  V30 11791 C 1098.57 0.0346687 -4.97888 0
M  V30 11792 C 1097.27 -1.42224 -7.05099 0
M  V30 11793 C 1099.29 -0.755143 -5.86559 0
M  V30 11794 C 1098.66 -1.47553 -6.88772 0
M  V30 11795 H 1094.76 0.286398 -0.727668 0
M  V30 11796 H 1097.34 0.108903 -1.94395 0
M  V30 11797 H 1095.51 2.35352 -3.08972 0
M  V30 11798 H 1097.24 2.29833 -3.33105 0
M  V30 11799 H 1094 0.787068 -4.67014 0
M  V30 11800 H 1094.42 -0.851013 -6.7163 0
M  V30 11801 H 1099.06 0.577271 -4.18841 0
M  V30 11802 H 1096.78 -1.97606 -7.83567 0
M  V30 11803 H 1100.37 -0.817835 -5.76023 0
M  V30 11804 H 1099.25 -2.07687 -7.56198 0
M  V30 11805 N 1096.75 1.52266 0.40654 0
M  V30 11806 C 1097.7 1.72175 1.49465 0
M  V30 11807 C 1098.68 0.575668 1.50249 0
M  V30 11808 O 1099.88 0.832835 1.56182 0
M  V30 11809 C 1097.01 1.87818 2.87366 0
M  V30 11810 C 1096.09 3.08305 2.91219 0
M  V30 11811 N 1096.48 4.30967 2.64766 0
M  V30 11812 C 1094.78 3.08192 3.22388 0
M  V30 11813 C 1095.48 5.12455 2.75254 0
M  V30 11814 N 1094.46 4.47758 3.08242 0
M  V30 11815 H 1098.26 2.64653 1.27812 0
M  V30 11816 H 1095.77 1.50334 0.61428 0
M  V30 11817 H 1097.77 2.00198 3.65686 0
M  V30 11818 H 1096.43 0.965414 3.10016 0
M  V30 11819 H 1097.44 4.59397 2.39113 0
M  V30 11820 H 1094.12 2.26662 3.50615 0
M  V30 11821 H 1095.51 6.20186 2.58495 0
M  V30 11822 N 1098.23 -0.663929 1.42933 0
M  V30 11823 C 1099.16 -1.78876 1.41699 0
M  V30 11824 C 1100.14 -1.60174 0.27981 0
M  V30 11825 O 1101.32 -1.82502 0.471735 0
M  V30 11826 C 1098.45 -3.1603 1.2183 0
M  V30 11827 C 1097.5 -3.53457 2.38685 0
M  V30 11828 S 1098.33 -3.54648 4.01229 0
M  V30 11829 C 1099.49 -4.94477 3.83723 0
M  V30 11830 H 1099.72 -1.7965 2.36882 0
M  V30 11831 H 1097.25 -0.835596 1.29835 0
M  V30 11832 H 1099.21 -3.95193 1.11054 0
M  V30 11833 H 1097.87 -3.1283 0.282139 0
M  V30 11834 H 1097.06 -4.53178 2.20559 0
M  V30 11835 H 1096.67 -2.81681 2.46032 0
M  V30 11836 H 1098.96 -5.82851 3.45386 0
M  V30 11837 H 1099.9 -5.17652 4.83158 0
M  V30 11838 H 1100.31 -4.67507 3.16382 0
M  V30 11839 N 1099.71 -1.29285 -0.901281 0
M  V30 11840 C 1100.66 -1.10907 -1.99208 0
M  V30 11841 C 1101.64 -0.0289641 -1.60874 0
M  V30 11842 O 1102.83 -0.2505 -1.75218 0
M  V30 11843 C 1099.96 -0.785997 -3.34181 0
M  V30 11844 C 1099.05 -1.90556 -3.78879 0
M  V30 11845 N 1099.44 -3.14888 -3.95827 0
M  V30 11846 C 1097.74 -1.79824 -4.08141 0
M  V30 11847 C 1098.44 -3.87919 -4.33467 0
M  V30 11848 N 1097.41 -3.15852 -4.42424 0
M  V30 11849 H 1101.22 -2.05227 -2.10379 0
M  V30 11850 H 1098.73 -1.20387 -1.08999 0
M  V30 11851 H 1100.73 -0.635381 -4.1203 0
M  V30 11852 H 1099.39 0.149302 -3.24357 0
M  V30 11853 H 1100.4 -3.5036 -3.81403 0
M  V30 11854 H 1097.07 -0.935548 -4.06883 0
M  V30 11855 H 1098.46 -4.94909 -4.54439 0
M  V30 11856 N 1101.18 1.11143 -1.11736 0
M  V30 11857 C 1102.46 1.79384 -0.779785 0
M  V30 11858 C 1102.84 1.98015 0.731668 0
M  V30 11859 O 1102.19 1.56731 1.66276 0
M  V30 11860 C 1102.4 3.12868 -1.54643 0
M  V30 11861 C 1103.75 3.8786 -1.7277 0
M  V30 11862 O 1104.77 3.22566 -1.51094 0
M  V30 11863 O 1103.63 5.05034 -2.08813 0
M  V30 11864 H 1100.72 0.777128 -0.282845 0
M  V30 11865 H 1103.27 1.17858 -1.22096 0
M  V30 11866 H 1102.04 2.94682 -2.57446 0
M  V30 11867 H 1101.67 3.82109 -1.09901 0
M  V30 11868 N 1102.66 0.908147 1.28804 0
M  V30 11869 C 1103.91 0.538404 1.95211 0
M  V30 11870 C 1104.24 -0.916886 1.71533 0
M  V30 11871 O 1103.49 -1.66643 1.02609 0
M  V30 11872 C 1103.79 0.787327 3.4862 0
M  V30 11873 C 1103.46 2.22129 3.92389 0
M  V30 11874 C 1102.12 2.61336 4.04051 0
M  V30 11875 C 1104.47 3.15471 4.14883 0
M  V30 11876 C 1101.8 3.93048 4.3558 0
M  V30 11877 C 1104.15 4.46741 4.47889 0
M  V30 11878 C 1102.82 4.85809 4.57761 0
M  V30 11879 H 1102.09 0.197016 0.714329 0
M  V30 11880 H 1104.73 1.14841 1.53244 0
M  V30 11881 H 1103.04 0.0944731 3.91686 0
M  V30 11882 H 1104.73 0.480503 3.98111 0
M  V30 11883 H 1101.32 1.90704 3.83836 0
M  V30 11884 H 1105.51 2.86391 4.05332 0
M  V30 11885 H 1100.76 4.23027 4.41428 0
M  V30 11886 H 1104.94 5.19087 4.64243 0
M  V30 11887 H 1102.57 5.87904 4.81947 0
M  V30 11888 N 1104.14 -1.42577 0.671525 0
M  V30 11889 C 1105.39 -2.01584 0.192431 0
M  V30 11890 C 1105.72 -1.53076 -1.19992 0
M  V30 11891 O 1104.97 -0.722196 -1.81887 0
M  V30 11892 C 1105.27 -3.56985 0.172097 0
M  V30 11893 C 1104.94 -4.24912 1.50867 0
M  V30 11894 C 1103.6 -4.43182 1.87464 0
M  V30 11895 C 1105.95 -4.6322 2.38908 0
M  V30 11896 C 1103.28 -4.97031 3.11732 0
M  V30 11897 C 1105.63 -5.18447 3.62485 0
M  V30 11898 C 1104.29 -5.34932 3.99255 0
M  V30 11899 H 1103.56 -0.737647 0.0704155 0
M  V30 11900 H 1106.21 -1.70807 0.865862 0
M  V30 11901 H 1104.52 -3.87411 -0.584835 0
M  V30 11902 H 1106.21 -4.00419 -0.215749 0
M  V30 11903 H 1102.8 -4.11048 1.21397 0
M  V30 11904 H 1106.99 -4.4878 2.1192 0
M  V30 11905 H 1102.24 -5.07979 3.40246 0
M  V30 11906 H 1106.42 -5.47075 4.30909 0
M  V30 11907 H 1104.04 -5.76422 4.95623 0
M  V30 11908 N 1105.62 -0.414636 -1.52048 0
M  V30 11909 C 1106.57 0.42561 -2.23992 0
M  V30 11910 C 1107.55 1.00894 -1.25337 0
M  V30 11911 O 1108.74 0.930842 -1.50547 0
M  V30 11912 C 1105.87 1.53874 -3.06884 0
M  V30 11913 C 1104.96 0.965913 -4.12954 0
M  V30 11914 N 1105.35 0.12023 -5.05657 0
M  V30 11915 C 1103.65 1.23586 -4.28535 0
M  V30 11916 C 1104.35 -0.199063 -5.81359 0
M  V30 11917 N 1103.33 0.411505 -5.4204 0
M  V30 11918 H 1107.13 -0.226746 -2.93024 0
M  V30 11919 H 1104.64 -0.225376 -1.60829 0
M  V30 11920 H 1106.64 2.15334 -3.56983 0
M  V30 11921 H 1105.3 2.19366 -2.39392 0
M  V30 11922 H 1106.31 -0.244501 -5.17323 0
M  V30 11923 H 1102.99 1.88995 -3.72273 0
M  V30 11924 H 1104.38 -0.88585 -6.66035 0
M  V30 11925 N 1107.1 1.56929 -0.145233 0
M  V30 11926 C 1108.32 2.00864 0.516564 0
M  V30 11927 C 1108.75 1.02466 1.57741 0
M  V30 11928 O 1108.1 0.000145439 1.813 0
M  V30 11929 C 1108.15 3.43552 1.09563 0
M  V30 11930 O 1107.26 3.4815 2.21055 0
M  V30 11931 H 1106.6 0.651835 0.126521 0
M  V30 11932 H 1109.13 2.0317 -0.241445 0
M  V30 11933 H 1109.14 3.82316 1.42473 0
M  V30 11934 H 1107.81 4.14677 0.318749 0
M  V30 11935 H 1106.39 3.21228 1.89387 0
M  V30 11936 N 1108.58 -0.128553 1.57075 0
M  V30 11937 C 1109.82 -0.83801 1.84347 0
M  V30 11938 C 1110.15 -1.80325 0.728906 0
M  V30 11939 O 1109.41 -1.93678 -0.280571 0
M  V30 11940 C 1109.7 -1.63027 3.18052 0
M  V30 11941 C 1109.37 -0.810171 4.43562 0
M  V30 11942 C 1108.03 -0.583984 4.77643 0
M  V30 11943 C 1110.38 -0.237896 5.20657 0
M  V30 11944 C 1107.71 0.224887 5.86269 0
M  V30 11945 C 1110.06 0.558114 6.30133 0
M  V30 11946 C 1108.73 0.794706 6.62752 0
M  V30 11947 H 1108 -0.30665 0.674572 0
M  V30 11948 H 1110.65 -0.100797 1.91235 0
M  V30 11949 H 1108.95 -2.43812 3.06697 0
M  V30 11950 H 1110.65 -2.183 3.36372 0
M  V30 11951 H 1107.24 -0.996547 4.16854 0
M  V30 11952 H 1111.42 -0.399881 4.94686 0
M  V30 11953 H 1106.68 0.417507 6.09973 0
M  V30 11954 H 1110.85 1.00859 6.89058 0
M  V30 11955 H 1108.48 1.42331 7.46757 0
M  V30 11956 N 1110.05 -1.5248 -0.398459 0
M  V30 11957 C 1110.98 -1.79549 -1.49279 0
M  V30 11958 C 1111.96 -0.647004 -1.57315 0
M  V30 11959 O 1113.15 -0.893661 -1.72416 0
M  V30 11960 C 1110.28 -1.95582 -2.86993 0
M  V30 11961 C 1109.23 -3.1123 -2.93803 0
M  V30 11962 C 1108.56 -3.12501 -4.33874 0
M  V30 11963 C 1109.86 -4.50485 -2.64312 0
M  V30 11964 H 1111.55 -2.71187 -1.26877 0
M  V30 11965 H 1109.1 -1.30492 -0.608924 0
M  V30 11966 H 1111.05 -2.13102 -3.63546 0
M  V30 11967 H 1109.78 -1.00625 -3.10712 0
M  V30 11968 H 1108.44 -2.93477 -2.19697 0
M  V30 11969 H 1108.08 -2.15245 -4.54619 0
M  V30 11970 H 1107.78 -3.90183 -4.39353 0
M  V30 11971 H 1109.31 -3.32164 -5.12347 0
M  V30 11972 H 1110.72 -4.68387 -3.30585 0
M  V30 11973 H 1109.12 -5.30163 -2.81153 0
M  V30 11974 H 1110.19 -4.57848 -1.59696 0
M  V30 11975 N 1111.53 0.65634 -1.43283 0
M  V30 11976 C 1112.78 1.41212 -1.44021 0
M  V30 11977 C 1113.09 1.95485 -0.0669783 0
M  V30 11978 O 1114.3 2.71457 0.0481909 0
M  V30 11979 C 1112.76 2.55541 -2.5343 0
M  V30 11980 C 1112.36 2.07889 -3.96845 0
M  V30 11981 C 1114.11 3.3293 -2.63359 0
M  V30 11982 C 1112.01 3.19411 -4.97726 0
M  V30 11983 H 1110.94 0.530566 -0.535739 0
M  V30 11984 H 1113.6 0.708743 -1.6926 0
M  V30 11985 H 1111.98 3.28335 -2.21387 0
M  V30 11986 H 1113.15 1.42127 -4.38334 0
M  V30 11987 H 1111.47 1.43388 -3.90933 0
M  V30 11988 H 1114.06 4.1602 -3.35903 0
M  V30 11989 H 1114.41 3.80753 -1.68324 0
M  V30 11990 H 1114.94 2.67216 -2.94687 0
M  V30 11991 H 1111.68 2.7656 -5.94302 0
M  V30 11992 H 1111.2 3.83895 -4.60853 0
M  V30 11993 H 1112.88 3.84591 -5.20287 0
M  V30 11994 N 1113.01 1.29761 0.894412 0
M  V30 11995 C 1114.26 1.18214 1.64782 0
M  V30 11996 C 1114.59 -0.264635 1.92388 0
M  V30 11997 O 1113.86 -1.19051 1.53809 0
M  V30 11998 C 1114.15 2.00138 2.99361 0
M  V30 11999 C 1114 3.52984 2.78787 0
M  V30 12000 C 1115.32 1.83187 4.00163 0
M  V30 12001 H 1112.44 0.430802 0.597979 0
M  V30 12002 H 1115.08 1.59292 1.03566 0
M  V30 12003 H 1113.23 1.65233 3.51611 0
M  V30 12004 H 1114.9 3.97898 2.33398 0
M  V30 12005 H 1113.14 3.77642 2.13469 0
M  V30 12006 H 1113.82 4.05585 3.7444 0
M  V30 12007 H 1116.29 2.13684 3.57041 0
M  V30 12008 H 1115.17 2.42849 4.92255 0
M  V30 12009 H 1115.43 0.788469 4.35012 0
M  V30 12010 N 1114.49 -1.10549 1.12324 0
M  V30 12011 C 1115.73 -1.82485 0.877817 0
M  V30 12012 C 1116.06 -1.85131 -0.596373 0
M  V30 12013 O 1115.32 -1.30675 -1.45679 0
M  V30 12014 C 1115.62 -3.28997 1.39626 0
M  V30 12015 C 1115.28 -3.465 2.88529 0
M  V30 12016 C 1113.94 -3.50984 3.29186 0
M  V30 12017 C 1116.3 -3.51991 3.84385 0
M  V30 12018 C 1113.62 -3.58525 4.6441 0
M  V30 12019 C 1115.98 -3.61065 5.19437 0
M  V30 12020 C 1114.64 -3.63813 5.5964 0
M  V30 12021 H 1113.91 -0.667758 0.321216 0
M  V30 12022 H 1116.56 -1.30314 1.40323 0
M  V30 12023 H 1114.86 -3.83726 0.791291 0
M  V30 12024 H 1116.56 -3.83165 1.18259 0
M  V30 12025 H 1113.15 -3.43686 2.56082 0
M  V30 12026 H 1117.33 -3.47777 3.54069 0
M  V30 12027 H 1112.59 -3.58934 4.94951 0
M  V30 12028 H 1116.76 -3.64257 5.9354 0
M  V30 12029 H 1114.39 -3.69409 6.6441 0
M  V30 12030 N 1115.97 -0.914965 -1.28321 0
M  V30 12031 C 1117.38 -0.613297 -1.47346 0
M  V30 12032 C 1117.58 0.84106 -1.83108 0
M  V30 12033 O 1116.64 1.62004 -1.93678 0
M  V30 12034 C 1117.95 -1.55224 -2.57538 0
M  V30 12035 C 1119.5 -1.55909 -2.71407 0
M  V30 12036 C 1119.97 -2.48468 -3.84744 0
M  V30 12037 N 1121.46 -2.46602 -3.92099 0
M  V30 12038 C 1122.2 -3.14917 -4.79182 0
M  V30 12039 N 1121.7 -3.92566 -5.70845 0
M  V30 12040 N 1123.49 -3.03998 -4.72802 0
M  V30 12041 H 1115.64 -1.85539 -1.03388 0
M  V30 12042 H 1117.9 -0.795875 -0.515061 0
M  V30 12043 H 1117.61 -2.58917 -2.38023 0
M  V30 12044 H 1117.48 -1.28426 -3.54664 0
M  V30 12045 H 1119.87 -0.52953 -2.9031 0
M  V30 12046 H 1119.95 -1.86751 -1.74808 0
M  V30 12047 H 1119.59 -3.51526 -3.66595 0
M  V30 12048 H 1119.52 -2.14928 -4.80743 0
M  V30 12049 H 1122.02 -1.90199 -3.26547 0
M  V30 12050 H 1122.33 -4.41709 -6.34123 0
M  V30 12051 H 1120.67 -3.96671 -5.70681 0
M  V30 12052 H 1123.86 -2.42839 -4.00184 0
M  V30 12053 H 1124.04 -3.57511 -5.40454 0
M  V30 12054 N 1117.44 1.42219 -0.679077 0
M  V30 12055 C 1118.69 2.00703 -0.200309 0
M  V30 12056 C 1119.01 1.54339 1.20161 0
M  V30 12057 O 1120.21 2.0527 1.77698 0
M  V30 12058 C 1118.67 3.58586 -0.307248 0
M  V30 12059 C 1118.28 4.13937 -1.71349 0
M  V30 12060 C 1120.02 4.24351 0.112588 0
M  V30 12061 C 1117.93 5.64198 -1.77297 0
M  V30 12062 H 1116.86 0.750638 -0.0711279 0
M  V30 12063 H 1119.51 1.62893 -0.844881 0
M  V30 12064 H 1117.89 3.93921 0.40529 0
M  V30 12065 H 1119.06 3.90054 -2.45346 0
M  V30 12066 H 1117.38 3.60639 -2.08155 0
M  V30 12067 H 1119.98 5.34627 0.0883578 0
M  V30 12068 H 1120.32 4.00142 1.14857 0
M  V30 12069 H 1120.85 3.93992 -0.549093 0
M  V30 12070 H 1117.59 5.93211 -2.78892 0
M  V30 12071 H 1117.11 5.90058 -1.07662 0
M  V30 12072 H 1118.79 6.2869 -1.52835 0
M  V30 12073 N 1118.92 0.422693 1.51826 0
M  V30 12074 C 1119.85 -0.386913 2.30272 0
M  V30 12075 C 1120.83 -1.03411 1.35056 0
M  V30 12076 O 1122.02 -1.04055 1.6397 0
M  V30 12077 C 1119.15 -1.49645 3.13407 0
M  V30 12078 C 1118.1 -0.973532 4.16781 0
M  V30 12079 C 1117.43 -2.1777 4.88344 0
M  V30 12080 C 1118.73 -0.0181194 5.22297 0
M  V30 12081 H 1120.42 0.267697 2.98201 0
M  V30 12082 H 1117.97 0.130186 1.4341 0
M  V30 12083 H 1119.92 -2.06993 3.67059 0
M  V30 12084 H 1118.64 -2.17914 2.43272 0
M  V30 12085 H 1117.3 -0.42237 3.64159 0
M  V30 12086 H 1116.95 -2.84625 4.14726 0
M  V30 12087 H 1116.65 -1.83427 5.58237 0
M  V30 12088 H 1118.18 -2.75699 5.44814 0
M  V30 12089 H 1119.59 -0.500822 5.71108 0
M  V30 12090 H 1117.99 0.237163 5.99631 0
M  V30 12091 H 1119.06 0.923065 4.76033 0
M  V30 12092 N 1120.4 -1.5685 0.153553 0
M  V30 12093 C 1121.64 -1.98226 -0.498586 0
M  V30 12094 C 1122 -1.03671 -1.61605 0
M  V30 12095 O 1123.2 -1.34117 -2.32951 0
M  V30 12096 C 1121.48 -3.43539 -0.985678 0
M  V30 12097 S 1123.03 -4.0694 -1.6415 0
M  V30 12098 H 1119.85 -0.692533 -0.160993 0
M  V30 12099 H 1122.45 -1.93936 0.246817 0
M  V30 12100 H 1121.16 -4.10081 -0.161708 0
M  V30 12101 H 1120.69 -3.51557 -1.76555 0
M  V30 12102 H 1122.7 -4.0053 -2.929 0
M  V30 12103 N 1121.88 0.120221 -1.57141 0
M  V30 12104 C 1123.13 0.826586 -1.84423 0
M  V30 12105 C 1123.45 1.80473 -0.738553 0
M  V30 12106 O 1122.72 1.94454 0.23755 0
M  V30 12107 H 1121.3 0.308246 -0.680436 0
M  V30 12108 H 1123.96 0.107835 -1.94601 0
M  V30 12109 H 1123.05 1.37256 -2.80298 0
M  V30 12110 N 1123.36 1.52689 0.390367 0
M  V30 12111 C 1124.27 1.8029 1.50108 0
M  V30 12112 C 1125.28 0.689582 1.59752 0
M  V30 12113 O 1126.46 0.977024 1.76114 0
M  V30 12114 C 1123.52 1.96475 2.85654 0
M  V30 12115 C 1122.58 3.2039 2.85743 0
M  V30 12116 C 1121.82 3.35793 4.14824 0
M  V30 12117 O 1122.04 2.56033 5.09709 0
M  V30 12118 O 1120.97 4.2904 4.22147 0
M  V30 12119 H 1124.8 2.74605 1.29715 0
M  V30 12120 H 1122.39 1.37763 0.578074 0
M  V30 12121 H 1124.27 2.08835 3.66013 0
M  V30 12122 H 1122.94 1.05351 3.06077 0
M  V30 12123 H 1121.85 3.13473 2.0417 0
M  V30 12124 H 1123.18 4.11356 2.70272 0
M  V30 12125 N 1124.83 -0.648732 1.43629 0
M  V30 12126 C 1126.08 -1.40898 1.46695 0
M  V30 12127 C 1126.44 -1.92183 0.0914565 0
M  V30 12128 O 1125.73 -1.69642 -0.890623 0
M  V30 12129 C 1125.92 -2.60394 2.44806 0
M  V30 12130 C 1125.75 -2.20805 3.91759 0
M  V30 12131 C 1124.52 -2.08918 4.60088 0
M  V30 12132 C 1126.72 -1.80811 4.81469 0
M  V30 12133 N 1124.7 -1.62707 5.91946 0
M  V30 12134 C 1126.07 -1.45715 6.02633 0
M  V30 12135 C 1128.13 -1.68034 4.68689 0
M  V30 12136 C 1126.83 -0.991224 7.12438 0
M  V30 12137 C 1128.86 -1.22846 5.78501 0
M  V30 12138 C 1128.22 -0.886902 6.98794 0
M  V30 12139 H 1124.32 -0.511063 0.591894 0
M  V30 12140 H 1126.9 -0.746064 1.79839 0
M  V30 12141 H 1125.07 -3.24338 2.13681 0
M  V30 12142 H 1126.8 -3.27115 2.38281 0
M  V30 12143 H 1123.56 -2.28818 4.14656 0
M  V30 12144 H 1123.98 -1.41951 6.61951 0
M  V30 12145 H 1128.63 -1.93078 3.76139 0
M  V30 12146 H 1126.34 -0.728271 8.04812 0
M  V30 12147 H 1129.93 -1.13443 5.70633 0
M  V30 12148 H 1128.81 -0.542577 7.82321 0
M  V30 12149 N 1126.31 -1.30234 -0.887518 0
M  V30 12150 C 1127.56 -1.18277 -1.63381 0
M  V30 12151 C 1127.87 0.262079 -1.93836 0
M  V30 12152 O 1129.08 0.503127 -2.66797 0
M  V30 12153 C 1127.54 -2.06944 -2.94452 0
M  V30 12154 C 1127.14 -3.56323 -2.71547 0
M  V30 12155 C 1128.89 -2.03743 -3.7241 0
M  V30 12156 C 1126.8 -4.37054 -3.98419 0
M  V30 12157 H 1125.73 -0.439087 -0.612959 0
M  V30 12158 H 1128.38 -1.54964 -0.982779 0
M  V30 12159 H 1126.76 -1.63138 -3.60835 0
M  V30 12160 H 1127.93 -4.08261 -2.13681 0
M  V30 12161 H 1126.25 -3.61321 -2.06969 0
M  V30 12162 H 1128.84 -2.61312 -4.66497 0
M  V30 12163 H 1129.19 -1.02029 -4.03603 0
M  V30 12164 H 1129.72 -2.45657 -3.12886 0
M  V30 12165 H 1126.46 -5.39453 -3.72385 0
M  V30 12166 H 1125.98 -3.89881 -4.55799 0
M  V30 12167 H 1127.66 -4.48356 -4.66462 0
M  V30 12168 N 1127.79 1.09952 -1.12909 0
M  V30 12169 C 1128.7 2.19999 -0.81471 0
M  V30 12170 C 1129.72 1.72864 0.19851 0
M  V30 12171 O 1130.89 2.01376 0.0308832 0
M  V30 12172 C 1127.96 3.45573 -0.279363 0
M  V30 12173 C 1127.02 4.07417 -1.35314 0
M  V30 12174 C 1126.25 5.26996 -0.843247 0
M  V30 12175 O 1126.47 5.69495 0.321164 0
M  V30 12176 O 1125.41 5.79826 -1.61511 0
M  V30 12177 H 1129.23 2.49333 -1.73398 0
M  V30 12178 H 1126.82 1.18784 -0.906128 0
M  V30 12179 H 1128.7 4.21398 0.0140531 0
M  V30 12180 H 1127.38 3.17854 0.612401 0
M  V30 12181 H 1126.28 3.33253 -1.6998 0
M  V30 12182 H 1127.62 4.39349 -2.21885 0
M  V30 12183 N 1129.27 0.921757 1.27833 0
M  V30 12184 C 1130.5 0.575202 1.98744 0
M  V30 12185 C 1130.91 -0.845405 1.68815 0
M  V30 12186 O 1130.27 -1.56106 0.94536 0
M  V30 12187 C 1130.32 0.784389 3.52888 0
M  V30 12188 O 1130.04 2.1491 3.81766 0
M  V30 12189 C 1131.54 0.445744 4.41053 0
M  V30 12190 H 1128.76 0.218525 0.634419 0
M  V30 12191 H 1131.31 1.23715 1.62834 0
M  V30 12192 H 1129.46 0.169323 3.8703 0
M  V30 12193 H 1129.87 2.19469 4.76375 0
M  V30 12194 H 1131.35 0.64284 5.48244 0
M  V30 12195 H 1131.83 -0.618433 4.34824 0
M  V30 12196 H 1132.43 1.03869 4.12421 0
M  V30 12197 N 1130.75 -1.41857 0.686609 0
M  V30 12198 C 1131.68 -2.28174 -0.0347358 0
M  V30 12199 C 1132.66 -1.41732 -0.796928 0
M  V30 12200 O 1133.84 -1.71165 -0.789607 0
M  V30 12201 C 1130.97 -3.21801 -1.0565 0
M  V30 12202 C 1130.01 -4.24727 -0.388523 0
M  V30 12203 S 1130.85 -5.28508 0.862546 0
M  V30 12204 C 1132 -6.25701 -0.157849 0
M  V30 12205 H 1132.24 -2.89005 0.697381 0
M  V30 12206 H 1129.77 -1.46861 0.476562 0
M  V30 12207 H 1131.73 -3.76278 -1.64089 0
M  V30 12208 H 1130.39 -2.60082 -1.76114 0
M  V30 12209 H 1129.58 -4.90471 -1.15991 0
M  V30 12210 H 1129.18 -3.73799 0.122567 0
M  V30 12211 H 1131.48 -6.6987 -1.01393 0
M  V30 12212 H 1132.42 -7.06569 0.465437 0
M  V30 12213 H 1132.83 -5.62204 -0.508614 0
M  V30 12214 N 1132.22 -0.430739 -1.51599 0
M  V30 12215 C 1133.47 0.130424 -2.02981 0
M  V30 12216 C 1133.83 1.40956 -1.30954 0
M  V30 12217 O 1133.12 1.87081 -0.413696 0
M  V30 12218 C 1133.31 0.410694 -3.55032 0
M  V30 12219 C 1133.14 -0.839732 -4.4179 0
M  V30 12220 C 1131.91 -1.37132 -4.86336 0
M  V30 12221 C 1134.11 -1.72401 -4.84543 0
M  V30 12222 N 1132.09 -2.57497 -5.57287 0
M  V30 12223 C 1133.46 -2.77376 -5.54493 0
M  V30 12224 C 1135.52 -1.73921 -4.66536 0
M  V30 12225 C 1134.22 -3.83808 -6.08345 0
M  V30 12226 C 1136.25 -2.79285 -5.213 0
M  V30 12227 C 1135.61 -3.82979 -5.91191 0
M  V30 12228 H 1131.71 0.00873155 -0.781951 0
M  V30 12229 H 1134.29 -0.589932 -1.85548 0
M  V30 12230 H 1132.46 1.10009 -3.72495 0
M  V30 12231 H 1134.19 0.962635 -3.93085 0
M  V30 12232 H 1130.95 -0.926198 -4.64455 0
M  V30 12233 H 1131.37 -3.18515 -5.97392 0
M  V30 12234 H 1136.02 -0.950851 -4.11969 0
M  V30 12235 H 1133.73 -4.63487 -6.61971 0
M  V30 12236 H 1137.32 -2.81395 -5.09223 0
M  V30 12237 H 1136.2 -4.63169 -6.32807 0
M  V30 12238 N 1133.7 1.56767 -0.161869 0
M  V30 12239 C 1134.98 1.88245 0.531352 0
M  V30 12240 C 1135.36 1.07025 1.81958 0
M  V30 12241 O 1134.71 0.161385 2.27929 0
M  V30 12242 C 1134.92 3.40117 0.782416 0
M  V30 12243 C 1136.27 4.09655 1.11661 0
M  V30 12244 O 1137.29 3.4538 0.871274 0
M  V30 12245 O 1136.15 5.23192 1.57901 0
M  V30 12246 H 1133.24 0.780725 0.272759 0
M  V30 12247 H 1135.79 1.68522 -0.199597 0
M  V30 12248 H 1134.56 3.91088 -0.128677 0
M  V30 12249 H 1134.18 3.65418 1.56702 0
M  V30 12250 N 1135.18 -0.111886 1.57202 0
M  V30 12251 C 1136.42 -0.82422 1.87045 0
M  V30 12252 C 1136.78 -1.76713 0.750765 0
M  V30 12253 O 1137.99 -2.52157 0.931154 0
M  V30 12254 C 1136.26 -1.5483 3.22122 0
M  V30 12255 S 1137.82 -2.30123 3.73616 0
M  V30 12256 H 1134.63 -0.274945 0.655687 0
M  V30 12257 H 1137.24 -0.0821899 1.95327 0
M  V30 12258 H 1135.94 -0.847704 4.0155 0
M  V30 12259 H 1135.47 -2.33056 3.16936 0
M  V30 12260 H 1137.49 -3.5597 3.45687 0
M  V30 12261 N 1136.66 -1.52894 -0.382264 0
M  V30 12262 C 1137.59 -1.7291 -1.48921 0
M  V30 12263 C 1138.57 -0.577056 -1.52016 0
M  V30 12264 O 1139.75 -0.807667 -1.7032 0
M  V30 12265 C 1136.88 -1.79281 -2.87361 0
M  V30 12266 C 1135.93 -3.01099 -3.02063 0
M  V30 12267 S 1136.76 -4.60947 -2.72558 0
M  V30 12268 C 1137.92 -4.70144 -4.13178 0
M  V30 12269 H 1138.15 -2.66529 -1.31718 0
M  V30 12270 H 1135.68 -1.43271 -0.575563 0
M  V30 12271 H 1137.64 -1.83637 -3.67134 0
M  V30 12272 H 1136.3 -0.867428 -3.01885 0
M  V30 12273 H 1135.49 -3.02117 -4.03412 0
M  V30 12274 H 1135.1 -2.94769 -2.3019 0
M  V30 12275 H 1137.39 -4.49173 -5.07198 0
M  V30 12276 H 1138.33 -5.72166 -4.17172 0
M  V30 12277 H 1138.74 -3.98923 -3.99401 0
M  V30 12278 N 1138.14 0.641106 -1.43971 0
M  V30 12279 C 1139.05 1.78239 -1.52538 0
M  V30 12280 C 1140.06 1.6906 -0.411668 0
M  V30 12281 O 1141.24 1.90014 -0.66757 0
M  V30 12282 C 1138.3 3.14579 -1.45743 0
M  V30 12283 C 1137.37 3.35464 -2.67885 0
M  V30 12284 C 1136.6 4.65299 -2.61404 0
M  V30 12285 O 1136.82 5.45451 -1.66851 0
M  V30 12286 O 1135.76 4.8817 -3.521 0
M  V30 12287 H 1139.58 1.73965 -2.48937 0
M  V30 12288 H 1137.17 0.801098 -1.26106 0
M  V30 12289 H 1139.05 3.95873 -1.4444 0
M  V30 12290 H 1137.72 3.19417 -0.524837 0
M  V30 12291 H 1136.63 2.53888 -2.74758 0
M  V30 12292 H 1137.96 3.35481 -3.60157 0
M  V30 12293 N 1139.62 1.30703 0.880598 0
M  V30 12294 C 1140.86 1.19955 1.63519 0
M  V30 12295 C 1141.19 -0.244214 1.92658 0
M  V30 12296 O 1140.47 -1.17412 1.55063 0
M  V30 12297 C 1140.75 2.03302 2.97221 0
M  V30 12298 C 1140.61 3.55921 2.75028 0
M  V30 12299 C 1141.92 1.87421 3.98198 0
M  V30 12300 H 1139.04 0.43712 0.593376 0
M  V30 12301 H 1141.69 1.60382 1.01871 0
M  V30 12302 H 1139.84 1.68953 3.49839 0
M  V30 12303 H 1141.51 4.00352 2.29164 0
M  V30 12304 H 1139.75 3.79885 2.09452 0
M  V30 12305 H 1140.42 4.09533 3.70117 0
M  V30 12306 H 1142.9 2.17459 3.54755 0
M  V30 12307 H 1141.77 2.48057 4.89652 0
M  V30 12308 H 1142.03 0.834563 4.34151 0
M  V30 12309 N 1141.09 -1.09351 1.1349 0
M  V30 12310 C 1142.06 -2.14185 0.815919 0
M  V30 12311 C 1143.06 -1.59845 -0.174976 0
M  V30 12312 O 1144.25 -1.74122 0.0521971 0
M  V30 12313 C 1141.38 -3.40224 0.214517 0
M  V30 12314 H 1142.57 -2.43913 1.74489 0
M  V30 12315 H 1140.12 -1.24902 0.939634 0
M  V30 12316 H 1140.86 -3.16123 -0.723634 0
M  V30 12317 H 1140.64 -3.80958 0.928102 0
M  V30 12318 H 1142.13 -4.17599 0.00821999 0
M  V30 12319 N 1142.57 -0.928524 -1.27343 0
M  V30 12320 C 1143.82 -0.568267 -1.93946 0
M  V30 12321 C 1144.14 0.893501 -1.73325 0
M  V30 12322 O 1143.41 1.63344 -1.08147 0
M  V30 12323 H 1141.99 -0.207173 -0.717696 0
M  V30 12324 H 1144.65 -1.1811 -1.55036 0
M  V30 12325 H 1143.75 -0.775246 -3.02318 0
M  V30 12326 N 1144.05 1.41491 -0.694123 0
M  V30 12327 C 1144.98 2.29197 0.0112742 0
M  V30 12328 C 1145.99 1.44708 0.745877 0
M  V30 12329 O 1147.18 1.68227 0.596821 0
M  V30 12330 C 1144.28 3.22547 1.04004 0
M  V30 12331 C 1143.46 4.35787 0.375347 0
M  V30 12332 C 1142.52 5.09722 1.30652 0
M  V30 12333 O 1141.54 5.63558 0.799459 0
M  V30 12334 N 1142.74 5.1705 2.63893 0
M  V30 12335 H 1145.51 2.90377 -0.741705 0
M  V30 12336 H 1143.07 1.52628 -0.540039 0
M  V30 12337 H 1145.06 3.68878 1.66468 0
M  V30 12338 H 1143.63 2.62685 1.69456 0
M  V30 12339 H 1142.85 3.91857 -0.429145 0
M  V30 12340 H 1144.14 5.08726 -0.0869041 0
M  V30 12341 H 1143.54 4.74756 3.07609 0
M  V30 12342 H 1142.09 5.66962 3.21555 0
M  V30 12343 N 1145.53 0.438773 1.51369 0
M  V30 12344 C 1146.49 -0.36032 2.2635 0
M  V30 12345 C 1147.49 -0.948465 1.29849 0
M  V30 12346 O 1148.68 -0.822692 1.53549 0
M  V30 12347 C 1145.81 -1.50994 3.05636 0
M  V30 12348 H 1147.01 0.296826 2.98427 0
M  V30 12349 H 1144.56 0.191978 1.55117 0
M  V30 12350 H 1145.29 -2.2031 2.37979 0
M  V30 12351 H 1145.08 -1.09437 3.76518 0
M  V30 12352 H 1146.57 -2.07447 3.6243 0
M  V30 12353 N 1147.01 -1.56678 0.170181 0
M  V30 12354 C 1147.94 -2.13747 -0.799203 0
M  V30 12355 C 1148.92 -1.06725 -1.22673 0
M  V30 12356 O 1150.1 -1.34694 -1.3187 0
M  V30 12357 C 1147.23 -2.67611 -2.07611 0
M  V30 12358 C 1146.27 -3.86994 -1.7927 0
M  V30 12359 S 1147.11 -5.26771 -0.962951 0
M  V30 12360 C 1148.26 -5.84039 -2.25054 0
M  V30 12361 H 1148.5 -2.95637 -0.313976 0
M  V30 12362 H 1146.03 -1.54336 -0.0444708 0
M  V30 12363 H 1147.99 -2.99291 -2.80954 0
M  V30 12364 H 1146.65 -1.85808 -2.53247 0
M  V30 12365 H 1145.84 -4.23006 -2.74011 0
M  V30 12366 H 1145.44 -3.56195 -1.14023 0
M  V30 12367 H 1147.73 -5.96883 -3.20525 0
M  V30 12368 H 1148.68 -6.81145 -1.93513 0
M  V30 12369 H 1149.09 -5.12449 -2.36763 0
M  V30 12370 N 1148.48 0.103547 -1.57259 0
M  V30 12371 C 1149.72 0.814289 -1.8748 0
M  V30 12372 C 1150.09 1.76312 -0.760126 0
M  V30 12373 O 1151.29 2.51659 -0.944514 0
M  V30 12374 C 1149.56 1.53119 -3.22938 0
M  V30 12375 S 1151.12 2.28138 -3.74831 0
M  V30 12376 H 1147.94 0.271464 -0.657136 0
M  V30 12377 H 1150.54 0.07183 -1.95368 0
M  V30 12378 H 1149.24 0.826397 -4.01994 0
M  V30 12379 H 1148.77 2.31372 -3.18167 0
M  V30 12380 H 1150.79 3.54132 -3.4757 0
M  V30 12381 N 1149.96 1.53094 0.37415 0
M  V30 12382 C 1150.89 1.81901 1.46404 0
M  V30 12383 C 1151.87 0.671949 1.56265 0
M  V30 12384 O 1153.06 0.920978 1.70973 0
M  V30 12385 C 1150.19 2.00123 2.83845 0
M  V30 12386 C 1149.14 3.15864 2.88814 0
M  V30 12387 C 1148.47 3.19364 4.28848 0
M  V30 12388 C 1149.77 4.54633 2.57112 0
M  V30 12389 H 1151.46 2.73172 1.22546 0
M  V30 12390 H 1149.01 1.31444 0.588087 0
M  V30 12391 H 1150.96 2.18859 3.6011 0
M  V30 12392 H 1149.68 1.05555 3.09072 0
M  V30 12393 H 1148.34 2.96935 2.15 0
M  V30 12394 H 1147.99 2.2245 4.51137 0
M  V30 12395 H 1147.69 3.97123 4.3309 0
M  V30 12396 H 1149.22 3.40273 5.06997 0
M  V30 12397 H 1150.63 4.73587 3.23091 0
M  V30 12398 H 1149.03 5.34569 2.72683 0
M  V30 12399 H 1150.1 4.60331 1.52392 0
M  V30 12400 N 1151.44 -0.633461 1.44309 0
M  V30 12401 C 1152.67 -1.42033 1.50447 0
M  V30 12402 C 1153.08 -1.88362 0.128585 0
M  V30 12403 O 1152.44 -1.60695 -0.865071 0
M  V30 12404 C 1152.49 -2.6422 2.46719 0
M  V30 12405 O 1152.21 -2.19823 3.78958 0
M  V30 12406 C 1153.71 -3.57372 2.62298 0
M  V30 12407 H 1150.93 -0.435667 0.510329 0
M  V30 12408 H 1153.48 -0.774907 1.8925 0
M  V30 12409 H 1151.63 -3.24859 2.11058 0
M  V30 12410 H 1152.05 -2.99022 4.30913 0
M  V30 12411 H 1153.52 -4.39719 3.33693 0
M  V30 12412 H 1154 -4.06026 1.67449 0
M  V30 12413 H 1154.6 -3.02603 2.9885 0
M  V30 12414 N 1152.92 -1.31168 -0.873655 0
M  V30 12415 C 1154.16 -1.20821 -1.62881 0
M  V30 12416 C 1154.5 0.233994 -1.92785 0
M  V30 12417 O 1153.77 1.16588 -1.55684 0
M  V30 12418 C 1154.06 -2.04875 -2.96139 0
M  V30 12419 C 1153.91 -3.57375 -2.73136 0
M  V30 12420 C 1155.23 -1.8953 -3.97198 0
M  V30 12421 H 1152.35 -0.44026 -0.59105 0
M  V30 12422 H 1154.99 -1.6092 -1.01019 0
M  V30 12423 H 1153.14 -1.70806 -3.48938 0
M  V30 12424 H 1154.81 -4.01561 -2.27038 0
M  V30 12425 H 1153.05 -3.8099 -2.07434 0
M  V30 12426 H 1153.72 -4.1149 -3.6794 0
M  V30 12427 H 1156.2 -2.19337 -3.53596 0
M  V30 12428 H 1155.08 -2.5065 -4.8833 0
M  V30 12429 H 1155.34 -0.857576 -4.33703 0
M  V30 12430 N 1154.4 1.08748 -1.14068 0
M  V30 12431 C 1155.64 1.81065 -0.906738 0
M  V30 12432 C 1155.97 1.86057 0.566844 0
M  V30 12433 O 1155.23 1.32976 1.43582 0
M  V30 12434 C 1155.53 3.26734 -1.44843 0
M  V30 12435 C 1155.19 3.41866 -2.94005 0
M  V30 12436 C 1153.85 3.45703 -3.34729 0
M  V30 12437 C 1156.21 3.45831 -3.89937 0
M  V30 12438 C 1153.53 3.51092 -4.70055 0
M  V30 12439 C 1155.89 3.52755 -5.25116 0
M  V30 12440 C 1154.55 3.54863 -5.65357 0
M  V30 12441 H 1153.82 0.662564 -0.331799 0
M  V30 12442 H 1156.47 1.28065 -1.42378 0
M  V30 12443 H 1154.77 3.82419 -0.852239 0
M  V30 12444 H 1156.47 3.81236 -1.2434 0
M  V30 12445 H 1153.06 3.39568 -2.61518 0
M  V30 12446 H 1157.24 3.421 -3.59557 0
M  V30 12447 H 1152.5 3.51015 -5.00598 0
M  V30 12448 H 1156.67 3.54768 -5.9926 0
M  V30 12449 H 1154.3 3.58792 -6.70203 0
M  V30 12450 N 1155.87 0.935264 1.26849 0
M  V30 12451 C 1156.8 0.457776 2.28969 0
M  V30 12452 C 1157.79 -0.48587 1.63013 0
M  V30 12453 O 1158.97 -0.388998 1.90264 0
M  V30 12454 C 1156.1 -0.283332 3.46142 0
M  V30 12455 C 1155.05 0.573196 4.24144 0
M  V30 12456 C 1154.38 -0.297525 5.33872 0
M  V30 12457 C 1155.68 1.84153 4.88759 0
M  V30 12458 H 1157.37 1.31125 2.69159 0
M  V30 12459 H 1154.92 0.631956 1.29392 0
M  V30 12460 H 1156.87 -0.628366 4.16689 0
M  V30 12461 H 1155.6 -1.1709 3.04889 0
M  V30 12462 H 1154.26 0.901043 3.55354 0
M  V30 12463 H 1153.9 -1.18427 4.8886 0
M  V30 12464 H 1153.6 0.272126 5.8697 0
M  V30 12465 H 1155.13 -0.637961 6.07258 0
M  V30 12466 H 1156.54 1.5641 5.51551 0
M  V30 12467 H 1154.94 2.35528 5.51948 0
M  V30 12468 H 1156.01 2.5565 4.12033 0
M  V30 12469 N 1157.35 -1.41121 0.701616 0
M  V30 12470 C 1158.29 -2.28198 -0.010533 0
M  V30 12471 C 1159.26 -1.42569 -0.78185 0
M  V30 12472 O 1160.45 -1.71993 -0.771408 0
M  V30 12473 C 1157.57 -3.22903 -1.02231 0
M  V30 12474 C 1156.62 -4.25115 -0.343454 0
M  V30 12475 S 1157.45 -5.27563 0.918553 0
M  V30 12476 C 1158.61 -6.25833 -0.0914763 0
M  V30 12477 H 1158.84 -2.88249 0.727995 0
M  V30 12478 H 1156.38 -1.46348 0.492112 0
M  V30 12479 H 1158.33 -3.77997 -1.60089 0
M  V30 12480 H 1156.99 -2.61936 -1.73345 0
M  V30 12481 H 1156.19 -4.91674 -1.10782 0
M  V30 12482 H 1155.79 -3.73648 0.162206 0
M  V30 12483 H 1158.08 -6.70908 -0.942826 0
M  V30 12484 H 1159.02 -7.06035 0.540351 0
M  V30 12485 H 1159.43 -5.62712 -0.448956 0
M  V30 12486 N 1158.83 -0.446794 -1.51134 0
M  V30 12487 C 1160.08 0.116666 -2.02464 0
M  V30 12488 C 1160.41 1.41532 -1.32975 0
M  V30 12489 O 1159.68 1.89278 -0.447651 0
M  V30 12490 C 1159.97 0.325659 -3.58624 0
M  V30 12491 C 1159.82 -0.992307 -4.38718 0
M  V30 12492 C 1161.14 1.09121 -4.26357 0
M  V30 12493 H 1158.26 0.0409262 -0.735863 0
M  V30 12494 H 1160.9 -0.587641 -1.80684 0
M  V30 12495 H 1159.05 0.925585 -3.77313 0
M  V30 12496 H 1160.72 -1.62694 -4.31658 0
M  V30 12497 H 1158.97 -1.5947 -4.03425 0
M  V30 12498 H 1159.64 -0.800005 -5.46172 0
M  V30 12499 H 1162.11 0.582944 -4.11996 0
M  V30 12500 H 1160.99 1.20621 -5.35483 0
M  V30 12501 H 1161.25 2.12171 -3.87861 0
M  V30 12502 N 1160.31 1.56586 -0.178487 0
M  V30 12503 C 1161.24 2.14168 0.787856 0
M  V30 12504 C 1162.22 1.07374 1.22105 0
M  V30 12505 O 1163.4 1.35391 1.31154 0
M  V30 12506 C 1160.53 2.68708 2.06189 0
M  V30 12507 C 1159.58 3.8794 1.77215 0
M  V30 12508 S 1160.41 5.27274 0.935002 0
M  V30 12509 C 1161.57 5.85224 2.21954 0
M  V30 12510 H 1161.8 2.958 0.298293 0
M  V30 12511 H 1159.33 1.54357 0.0362853 0
M  V30 12512 H 1161.29 3.00777 2.79363 0
M  V30 12513 H 1159.95 1.87149 2.52258 0
M  V30 12514 H 1159.14 4.24453 2.71764 0
M  V30 12515 H 1158.75 3.56795 1.12132 0
M  V30 12516 H 1161.04 5.98575 3.17355 0
M  V30 12517 H 1161.98 6.82162 1.89898 0
M  V30 12518 H 1162.39 5.13697 2.34042 0
M  V30 12519 N 1161.79 -0.095206 1.57312 0
M  V30 12520 C 1163.03 -0.799903 1.86358 0
M  V30 12521 C 1163.37 -1.78386 0.767593 0
M  V30 12522 O 1162.64 -1.93201 -0.224439 0
M  V30 12523 C 1162.92 -1.52875 3.26039 0
M  V30 12524 C 1162.78 -0.562781 4.46265 0
M  V30 12525 C 1164.1 -2.47935 3.63616 0
M  V30 12526 H 1161.21 -0.289339 0.677829 0
M  V30 12527 H 1163.86 -0.0635369 1.89894 0
M  V30 12528 H 1162.01 -2.15645 3.23156 0
M  V30 12529 H 1163.68 0.0579068 4.61264 0
M  V30 12530 H 1161.92 0.123847 4.33623 0
M  V30 12531 H 1162.59 -1.10989 5.40727 0
M  V30 12532 H 1165.07 -1.95257 3.67442 0
M  V30 12533 H 1163.94 -2.95948 4.62283 0
M  V30 12534 H 1164.21 -3.31687 2.92294 0
M  V30 12535 N 1163.26 -1.53291 -0.366026 0
M  V30 12536 C 1164.51 -1.68671 -1.10602 0
M  V30 12537 C 1164.83 -0.444793 -1.90476 0
M  V30 12538 O 1166.03 -0.479135 -2.67239 0
M  V30 12539 C 1164.49 -2.98174 -2.01545 0
M  V30 12540 C 1164.1 -4.29626 -1.26986 0
M  V30 12541 C 1165.84 -3.22921 -2.7554 0
M  V30 12542 C 1163.75 -5.50218 -2.16828 0
M  V30 12543 H 1162.68 -0.628456 -0.416604 0
M  V30 12544 H 1165.33 -1.79791 -0.367058 0
M  V30 12545 H 1163.71 -2.80855 -2.79171 0
M  V30 12546 H 1164.88 -4.57574 -0.544269 0
M  V30 12547 H 1163.2 -4.11318 -0.648558 0
M  V30 12548 H 1165.8 -4.10202 -3.42985 0
M  V30 12549 H 1166.14 -2.38964 -3.40884 0
M  V30 12550 H 1166.67 -3.40912 -2.04997 0
M  V30 12551 H 1163.41 -6.36651 -1.56063 0
M  V30 12552 H 1162.93 -5.26549 -2.87238 0
M  V30 12553 H 1164.61 -5.84991 -2.76396 0
M  V30 12554 N 1164.74 0.6258 -1.44643 0
M  V30 12555 C 1165.99 1.38251 -1.47414 0
M  V30 12556 C 1166.31 1.94689 -0.110043 0
M  V30 12557 O 1165.58 1.76095 0.858333 0
M  V30 12558 H 1164.16 0.513179 -0.542823 0
M  V30 12559 H 1166.82 0.736179 -1.80462 0
M  V30 12560 H 1165.92 2.21115 -2.2026 0
M  V30 12561 N 1166.22 1.31629 0.866686 0
M  V30 12562 C 1167.17 1.19492 1.99561 0
M  V30 12563 C 1168.16 0.102456 1.6909 0
M  V30 12564 O 1169.37 0.264571 1.78045 0
M  V30 12565 H 1165.74 0.370071 0.654638 0
M  V30 12566 H 1167.71 2.14996 2.06928 0
M  V30 12567 C 1166.46 0.92246 3.3524 0
M  V30 12568 H 1165.79 1.75524 3.59209 0
M  V30 12569 H 1167.23 0.877726 4.14816 0
M  V30 12570 C 1165.69 -0.374803 3.34809 0
M  V30 12571 O 1166.22 -1.39055 3.76864 0
M  V30 12572 N 1164.42 -0.392506 2.87937 0
M  V30 12573 H 1163.97 0.434591 2.53908 0
M  V30 12574 H 1163.93 -1.26038 2.88031 0
M  V30 12575 N 1167.7 -1.08142 1.14644 0
M  V30 12576 C 1168.63 -2.17139 0.858667 0
M  V30 12577 C 1169.61 -1.69064 -0.187452 0
M  V30 12578 O 1170.8 -1.94151 -0.0435458 0
M  V30 12579 C 1167.93 -3.45648 0.33834 0
M  V30 12580 C 1166.88 -4.07129 1.32021 0
M  V30 12581 C 1166.21 -5.30623 0.659075 0
M  V30 12582 C 1167.51 -4.48095 2.68343 0
M  V30 12583 H 1169.2 -2.41468 1.77012 0
M  V30 12584 H 1166.75 -1.16052 0.852523 0
M  V30 12585 H 1168.7 -4.21216 0.124611 0
M  V30 12586 H 1167.42 -3.2088 -0.608553 0
M  V30 12587 H 1166.08 -3.33596 1.52016 0
M  V30 12588 H 1165.73 -5.02142 -0.293711 0
M  V30 12589 H 1165.43 -5.72714 1.31427 0
M  V30 12590 H 1166.95 -6.08903 0.454933 0
M  V30 12591 H 1168.37 -5.14828 2.5224 0
M  V30 12592 H 1166.76 -5.01113 3.30161 0
M  V30 12593 H 1167.83 -3.59852 3.25015 0
M  V30 12594 N 1169.18 -0.941978 -1.26351 0
M  V30 12595 C 1170.42 -0.590845 -1.94002 0
M  V30 12596 C 1170.76 0.868004 -1.73722 0
M  V30 12597 O 1170.03 1.62111 -1.07472 0
M  V30 12598 C 1170.31 -0.934901 -3.47752 0
M  V30 12599 C 1170.17 -2.44855 -3.77314 0
M  V30 12600 C 1171.49 -0.450888 -4.37784 0
M  V30 12601 H 1168.61 -0.21613 -0.704597 0
M  V30 12602 H 1171.25 -1.17634 -1.49205 0
M  V30 12603 H 1169.4 -0.436648 -3.86038 0
M  V30 12604 H 1171.07 -3.01959 -3.48738 0
M  V30 12605 H 1169.31 -2.89169 -3.23363 0
M  V30 12606 H 1169.98 -2.6398 -4.84787 0
M  V30 12607 H 1172.46 -0.878107 -4.06729 0
M  V30 12608 H 1171.34 -0.720439 -5.44152 0
M  V30 12609 H 1171.6 0.649162 -4.37308 0
M  V30 12610 N 1170.66 1.40747 -0.709091 0
M  V30 12611 C 1171.9 2.013 -0.246174 0
M  V30 12612 C 1172.23 1.56078 1.15556 0
M  V30 12613 O 1171.51 0.777941 1.78265 0
M  V30 12614 C 1171.79 3.58685 -0.318945 0
M  V30 12615 C 1171.65 4.13997 -1.75859 0
M  V30 12616 C 1172.96 4.38981 0.31358 0
M  V30 12617 H 1170.08 0.73137 -0.0909255 0
M  V30 12618 H 1172.73 1.67312 -0.900365 0
M  V30 12619 H 1170.88 3.8777 0.23805 0
M  V30 12620 H 1172.55 3.95735 -2.37047 0
M  V30 12621 H 1170.79 3.6853 -2.28841 0
M  V30 12622 H 1171.46 5.23158 -1.76095 0
M  V30 12623 H 1173.94 4.15789 -0.160939 0
M  V30 12624 H 1172.81 5.48409 0.232184 0
M  V30 12625 H 1173.07 4.19474 1.39621 0
M  V30 12626 N 1172.13 0.454803 1.50895 0
M  V30 12627 C 1173.06 -0.337982 2.31041 0
M  V30 12628 C 1174.04 -1.00523 1.37219 0
M  V30 12629 O 1175.23 -1.00553 1.66141 0
M  V30 12630 C 1172.36 -1.42964 3.1651 0
M  V30 12631 C 1171.31 -0.884907 4.18752 0
M  V30 12632 C 1170.64 -2.07363 4.92854 0
M  V30 12633 C 1171.94 0.0926716 5.22218 0
M  V30 12634 H 1173.63 0.33089 2.97566 0
M  V30 12635 H 1171.18 0.160577 1.43102 0
M  V30 12636 H 1173.13 -1.9916 3.71367 0
M  V30 12637 H 1171.86 -2.12705 2.47839 0
M  V30 12638 H 1170.52 -0.345031 3.64973 0
M  V30 12639 H 1170.16 -2.75764 4.2067 0
M  V30 12640 H 1169.86 -1.71545 5.62002 0
M  V30 12641 H 1171.39 -2.6408 5.5054 0
M  V30 12642 H 1172.8 -0.379568 5.72042 0
M  V30 12643 H 1171.2 0.3643 5.98993 0
M  V30 12644 H 1172.27 1.02383 4.73968 0
M  V30 12645 N 1173.61 -1.56489 0.186789 0
M  V30 12646 C 1174.56 -2.20034 -0.754164 0
M  V30 12647 C 1175.55 -1.16899 -1.22601 0
M  V30 12648 O 1176.76 -1.35064 -1.18987 0
M  V30 12649 H 1173.13 -0.705058 -0.261529 0
M  V30 12650 H 1175.11 -2.97766 -0.194418 0
M  V30 12651 C 1173.85 -2.86733 -1.9667 0
M  V30 12652 H 1173.18 -3.65831 -1.61268 0
M  V30 12653 H 1174.62 -3.34645 -2.60363 0
M  V30 12654 C 1173.08 -1.87325 -2.8002 0
M  V30 12655 O 1173.61 -1.36835 -3.77676 0
M  V30 12656 N 1171.81 -1.55738 -2.45345 0
M  V30 12657 H 1171.36 -1.9699 -1.6599 0
M  V30 12658 H 1171.32 -0.894805 -3.01398 0
M  V30 12659 N 1175.09 0.086862 -1.5736 0
M  V30 12660 C 1176.02 1.10538 -2.05678 0
M  V30 12661 C 1177 1.41281 -0.947293 0
M  V30 12662 O 1178.19 1.51169 -1.21908 0
M  V30 12663 C 1175.32 2.42302 -2.48812 0
M  V30 12664 C 1174.27 2.25948 -3.63499 0
M  V30 12665 C 1173.6 3.62961 -3.92637 0
M  V30 12666 C 1174.9 1.69319 -4.94094 0
M  V30 12667 H 1176.59 0.703371 -2.91021 0
M  V30 12668 H 1174.14 0.336895 -1.40004 0
M  V30 12669 H 1176.09 3.13833 -2.81224 0
M  V30 12670 H 1174.81 2.84454 -1.60479 0
M  V30 12671 H 1173.47 1.5686 -3.31347 0
M  V30 12672 H 1173.12 4.02656 -3.01459 0
M  V30 12673 H 1172.82 3.52862 -4.69853 0
M  V30 12674 H 1174.34 4.35946 -4.27531 0
M  V30 12675 H 1175.76 2.30699 -5.24834 0
M  V30 12676 H 1174.15 1.69957 -5.7553 0
M  V30 12677 H 1175.22 0.653318 -4.80479 0
M  V30 12678 N 1176.57 1.53483 0.357892 0
M  V30 12679 C 1177.81 1.70037 1.09971 0
M  V30 12680 C 1178.14 0.456112 1.89076 0
M  V30 12681 O 1177.4 -0.562029 1.87456 0
M  V30 12682 C 1177.7 2.90654 2.07978 0
M  V30 12683 C 1177.36 4.26849 1.45295 0
M  V30 12684 C 1176.02 4.63884 1.27928 0
M  V30 12685 C 1178.38 5.11514 1.00013 0
M  V30 12686 C 1175.7 5.83213 0.638745 0
M  V30 12687 C 1178.06 6.31496 0.373568 0
M  V30 12688 C 1176.72 6.67237 0.187457 0
M  V30 12689 H 1175.99 0.622209 0.402414 0
M  V30 12690 H 1178.64 1.87679 0.380615 0
M  V30 12691 H 1176.94 2.67556 2.86219 0
M  V30 12692 H 1178.64 3.00656 2.65343 0
M  V30 12693 H 1175.23 3.97693 1.59807 0
M  V30 12694 H 1179.41 4.83446 1.12221 0
M  V30 12695 H 1174.67 6.09489 0.483035 0
M  V30 12696 H 1178.84 6.96398 0.0145346 0
M  V30 12697 H 1176.47 7.59564 -0.310933 0
M  V30 12698 N 1178.05 -0.61812 1.44973 0
M  V30 12699 C 1178.98 -1.74035 1.55673 0
M  V30 12700 C 1179.96 -1.65112 0.4089 0
M  V30 12701 O 1181.14 -1.83673 0.630698 0
M  V30 12702 C 1178.27 -3.1261 1.51303 0
M  V30 12703 C 1177.23 -3.36334 2.64696 0
M  V30 12704 C 1176.55 -4.75072 2.45378 0
M  V30 12705 C 1177.85 -3.27618 4.06772 0
M  V30 12706 H 1179.55 -1.65336 2.49608 0
M  V30 12707 H 1177.09 -0.794003 1.20132 0
M  V30 12708 H 1179.04 -3.90906 1.57388 0
M  V30 12709 H 1177.77 -3.22123 0.538914 0
M  V30 12710 H 1176.43 -2.60423 2.58022 0
M  V30 12711 H 1176.08 -4.81306 1.46129 0
M  V30 12712 H 1175.78 -4.91903 3.21412 0
M  V30 12713 H 1177.3 -5.55582 2.53301 0
M  V30 12714 H 1178.71 -3.95802 4.14746 0
M  V30 12715 H 1177.11 -3.55981 4.83113 0
M  V30 12716 H 1178.18 -2.25219 4.29423 0
M  V30 12717 N 1179.52 -1.32087 -0.859693 0
M  V30 12718 C 1180.49 -1.20546 -1.94939 0
M  V30 12719 C 1181.49 -0.12982 -1.60275 0
M  V30 12720 O 1182.68 -0.379853 -1.70008 0
M  V30 12721 C 1179.81 -0.852717 -3.30063 0
M  V30 12722 H 1181 -2.17384 -2.06602 0
M  V30 12723 H 1178.55 -1.15846 -1.04926 0
M  V30 12724 H 1179.29 0.114059 -3.24099 0
M  V30 12725 H 1179.07 -1.63035 -3.56598 0
M  V30 12726 H 1180.56 -0.796145 -4.09941 0
M  V30 12727 N 1181 1.07532 -1.15215 0
M  V30 12728 C 1181.93 2.1668 -0.870171 0
M  V30 12729 C 1182.91 1.69161 0.178483 0
M  V30 12730 O 1184.1 1.94172 0.0332489 0
M  V30 12731 C 1181.23 3.45464 -0.356666 0
M  V30 12732 C 1180.18 4.06424 -1.34179 0
M  V30 12733 C 1179.51 5.30266 -0.687206 0
M  V30 12734 C 1180.81 4.46666 -2.70715 0
M  V30 12735 H 1182.5 2.40526 -1.7829 0
M  V30 12736 H 1180.05 1.15598 -0.858665 0
M  V30 12737 H 1182 4.21144 -0.146947 0
M  V30 12738 H 1180.72 3.21199 0.591527 0
M  V30 12739 H 1179.38 3.32786 -1.53783 0
M  V30 12740 H 1179.03 5.0229 0.267077 0
M  V30 12741 H 1178.73 5.72009 -1.34462 0
M  V30 12742 H 1180.26 6.08653 -0.487218 0
M  V30 12743 H 1181.67 5.13483 -2.54966 0
M  V30 12744 H 1180.07 4.99355 -3.32813 0
M  V30 12745 H 1181.14 3.58123 -3.26919 0
M  V30 12746 N 1182.48 0.948665 1.2585 0
M  V30 12747 C 1183.41 0.482036 2.2847 0
M  V30 12748 C 1184.39 -0.468553 1.63519 0
M  V30 12749 O 1185.58 -0.368796 1.90666 0
M  V30 12750 C 1182.71 -0.246603 3.46423 0
M  V30 12751 C 1181.66 0.61815 4.23513 0
M  V30 12752 C 1180.99 -0.240884 5.34157 0
M  V30 12753 C 1182.29 1.89327 4.86778 0
M  V30 12754 H 1183.98 1.33973 2.67753 0
M  V30 12755 H 1181.53 0.645645 1.28715 0
M  V30 12756 H 1183.48 -0.584135 4.17332 0
M  V30 12757 H 1182.2 -1.13849 3.06114 0
M  V30 12758 H 1180.86 0.938682 3.54379 0
M  V30 12759 H 1180.51 -1.13235 4.90089 0
M  V30 12760 H 1180.21 0.334367 5.86648 0
M  V30 12761 H 1181.73 -0.573517 6.07901 0
M  V30 12762 H 1183.15 1.62252 5.49861 0
M  V30 12763 H 1181.55 2.41369 5.49419 0
M  V30 12764 H 1182.62 2.60006 4.09298 0
M  V30 12765 N 1183.96 -1.40369 0.716545 0
M  V30 12766 C 1184.89 -2.33365 0.0793533 0
M  V30 12767 C 1185.87 -1.52943 -0.744482 0
M  V30 12768 O 1187.05 -1.81406 -0.693212 0
M  V30 12769 C 1184.18 -3.36928 -0.842429 0
M  V30 12770 C 1183.14 -4.2782 -0.124142 0
M  V30 12771 C 1182.46 -5.21928 -1.1617 0
M  V30 12772 C 1183.76 -5.12199 1.02224 0
M  V30 12773 H 1185.46 -2.86899 0.856115 0
M  V30 12774 H 1183 -1.37946 0.413138 0
M  V30 12775 H 1184.96 -4.00925 -1.29759 0
M  V30 12776 H 1183.68 -2.81791 -1.6511 0
M  V30 12777 H 1182.34 -3.65277 0.311201 0
M  V30 12778 H 1181.99 -4.63096 -1.96345 0
M  V30 12779 H 1181.69 -5.83582 -0.685978 0
M  V30 12780 H 1183.21 -5.88802 -1.61694 0
M  V30 12781 H 1184.63 -5.69644 0.646399 0
M  V30 12782 H 1183.02 -5.82901 1.4264 0
M  V30 12783 H 1184.09 -4.4812 1.85246 0
M  V30 12784 N 1185.44 -0.462799 -1.50652 0
M  V30 12785 C 1186.66 0.0952726 -2.07181 0
M  V30 12786 C 1187.09 1.33479 -1.32533 0
M  V30 12787 O 1186.44 1.77473 -0.370564 0
M  V30 12788 C 1186.49 0.370592 -3.58691 0
M  V30 12789 O 1185.6 1.4526 -3.85971 0
M  V30 12790 H 1184.94 -0.00932702 -0.663934 0
M  V30 12791 H 1187.47 -0.651458 -1.93951 0
M  V30 12792 H 1187.48 0.613551 -4.0336 0
M  V30 12793 H 1186.15 -0.535219 -4.12442 0
M  V30 12794 H 1184.73 1.1976 -3.53146 0
M  V30 12795 N 1186.91 1.56388 -0.195085 0
M  V30 12796 C 1188.14 2.02406 0.452399 0
M  V30 12797 C 1188.56 1.07432 1.54402 0
M  V30 12798 O 1187.92 0.0578246 1.81208 0
M  V30 12799 C 1187.97 3.46864 0.985778 0
M  V30 12800 O 1187.07 3.55007 2.09867 0
M  V30 12801 H 1186.42 0.65553 0.105719 0
M  V30 12802 H 1188.95 2.02299 -0.30596 0
M  V30 12803 H 1188.96 3.86655 1.30238 0
M  V30 12804 H 1187.63 4.15481 0.186662 0
M  V30 12805 H 1186.21 3.2709 1.79071 0
M  V30 12806 N 1188.39 -0.0785156 1.57404 0
M  V30 12807 C 1189.64 -0.778938 1.86919 0
M  V30 12808 C 1189.97 -1.77915 0.785906 0
M  V30 12809 O 1189.22 -1.94473 -0.218811 0
M  V30 12810 C 1189.52 -1.52826 3.23078 0
M  V30 12811 C 1189.19 -0.668645 4.45915 0
M  V30 12812 C 1187.85 -0.43173 4.79259 0
M  V30 12813 C 1190.2 -0.0721327 5.2115 0
M  V30 12814 C 1187.53 0.41129 5.85257 0
M  V30 12815 C 1189.88 0.758303 6.28039 0
M  V30 12816 C 1188.55 1.00515 6.59889 0
M  V30 12817 H 1187.82 -0.285034 0.683986 0
M  V30 12818 H 1190.46 -0.039906 1.91458 0
M  V30 12819 H 1188.77 -2.33931 3.14299 0
M  V30 12820 H 1190.46 -2.07488 3.43147 0
M  V30 12821 H 1187.05 -0.863424 4.19813 0
M  V30 12822 H 1191.24 -0.242297 4.95708 0
M  V30 12823 H 1186.49 0.611354 6.08336 0
M  V30 12824 H 1190.67 1.2273 6.855 0
M  V30 12825 H 1188.3 1.66017 7.41851 0
M  V30 12826 N 1189.87 -1.5367 -0.349747 0
M  V30 12827 C 1191.1 -1.74858 -1.11532 0
M  V30 12828 C 1191.52 -0.483591 -1.81777 0
M  V30 12829 O 1190.88 0.563399 -1.72324 0
M  V30 12830 C 1190.93 -2.92479 -2.10923 0
M  V30 12831 O 1190.03 -2.62194 -3.18321 0
M  V30 12832 H 1189.37 -0.580219 -0.322865 0
M  V30 12833 H 1191.9 -2.00611 -0.402033 0
M  V30 12834 H 1191.91 -3.19093 -2.54252 0
M  V30 12835 H 1190.59 -3.84228 -1.59191 0
M  V30 12836 H 1189.16 -2.46448 -2.79853 0
M  V30 12837 N 1191.35 0.610423 -1.45298 0
M  V30 12838 C 1192.31 1.70324 -1.5337 0
M  V30 12839 C 1193.31 1.55393 -0.413492 0
M  V30 12840 O 1194.5 1.60512 -0.676872 0
M  V30 12841 C 1191.63 3.09572 -1.42752 0
M  V30 12842 H 1192.83 1.64535 -2.50736 0
M  V30 12843 H 1190.38 0.825906 -1.32697 0
M  V30 12844 H 1191.11 3.2094 -0.465601 0
M  V30 12845 H 1190.9 3.21817 -2.24 0
M  V30 12846 H 1192.39 3.89178 -1.51427 0
M  V30 12847 N 1192.83 1.32541 0.852676 0
M  V30 12848 C 1194.1 1.1383 1.59067 0
M  V30 12849 C 1194.48 -0.300584 2.08949 0
M  V30 12850 O 1193.83 -1.29751 1.88088 0
M  V30 12851 C 1194.04 2.16758 2.73527 0
M  V30 12852 C 1195.39 2.50194 3.43057 0
M  V30 12853 O 1196.41 2.15319 2.83754 0
M  V30 12854 O 1195.27 3.09985 4.50079 0
M  V30 12855 H 1192.37 0.439379 0.700625 0
M  V30 12856 H 1194.91 1.44078 0.896632 0
M  V30 12857 H 1193.68 3.13469 2.34207 0
M  V30 12858 H 1193.31 1.87515 3.50605 0
M  V30 12859 N 1194.3 -1.0692 1.15784 0
M  V30 12860 C 1195.53 -1.83849 0.959903 0
M  V30 12861 C 1195.95 -1.8169 -0.486873 0
M  V30 12862 O 1195.31 -1.21305 -1.34739 0
M  V30 12863 C 1195.36 -3.28642 1.48414 0
M  V30 12864 O 1194.46 -4.0665 0.686249 0
M  V30 12865 H 1193.81 -0.569115 0.342059 0
M  V30 12866 H 1196.34 -1.34851 1.53871 0
M  V30 12867 H 1196.35 -3.7947 1.49888 0
M  V30 12868 H 1195.02 -3.29529 2.53739 0
M  V30 12869 H 1193.6 -3.65453 0.741501 0
M  V30 12870 N 1195.78 -0.955326 -1.25345 0
M  V30 12871 C 1196.71 -0.494145 -2.28211 0
M  V30 12872 C 1197.69 0.459875 -1.63766 0
M  V30 12873 O 1198.88 0.358679 -1.90859 0
M  V30 12874 C 1196.01 0.228228 -3.46549 0
M  V30 12875 C 1194.96 -0.640601 -4.23179 0
M  V30 12876 C 1194.29 0.212553 -5.34277 0
M  V30 12877 C 1195.59 -1.91906 -4.85767 0
M  V30 12878 H 1197.28 -1.35391 -2.67039 0
M  V30 12879 H 1194.83 -0.652462 -1.2837 0
M  V30 12880 H 1196.78 0.561995 -4.17636 0
M  V30 12881 H 1195.51 1.12224 -3.06714 0
M  V30 12882 H 1194.16 -0.957462 -3.53876 0
M  V30 12883 H 1193.81 1.10634 -4.90682 0
M  V30 12884 H 1193.51 -0.365473 -5.86462 0
M  V30 12885 H 1195.04 0.541271 -6.08196 0
M  V30 12886 H 1196.45 -1.65165 -5.48993 0
M  V30 12887 H 1194.85 -2.44279 -5.48131 0
M  V30 12888 H 1195.92 -2.62173 -4.07914 0
M  V30 12889 N 1197.26 1.39987 -0.723979 0
M  V30 12890 C 1198.22 2.29041 -0.0854583 0
M  V30 12891 C 1199.22 1.45777 0.678657 0
M  V30 12892 O 1200.41 1.66588 0.509311 0
M  V30 12893 C 1197.55 3.29115 0.88859 0
M  V30 12894 H 1198.74 2.87006 -0.869903 0
M  V30 12895 H 1196.29 1.48449 -0.489136 0
M  V30 12896 H 1197.03 2.76184 1.69979 0
M  V30 12897 H 1196.81 3.90593 0.343454 0
M  V30 12898 H 1198.3 3.95778 1.33227 0
M  V30 12899 N 1198.74 0.470782 1.50404 0
M  V30 12900 C 1199.7 -0.312227 2.27063 0
M  V30 12901 C 1200.7 -0.920709 1.31832 0
M  V30 12902 O 1201.89 -0.789937 1.5526 0
M  V30 12903 C 1199.02 -1.44477 3.0877 0
M  V30 12904 H 1200.22 0.36006 2.97731 0
M  V30 12905 H 1197.77 0.224837 1.54674 0
M  V30 12906 H 1198.51 -2.15212 2.42599 0
M  V30 12907 H 1198.29 -1.01426 3.78755 0
M  V30 12908 H 1199.78 -1.99713 3.66749 0
M  V30 12909 N 1200.22 -1.56282 0.203376 0
M  V30 12910 C 1201.44 -2.02643 -0.441658 0
M  V30 12911 C 1201.87 -1.0825 -1.5383 0
M  V30 12912 O 1201.23 -0.0674337 -1.81175 0
M  V30 12913 C 1201.27 -3.47382 -0.967369 0
M  V30 12914 O 1200.38 -3.56115 -2.07981 0
M  V30 12915 H 1199.72 -0.656081 -0.102242 0
M  V30 12916 H 1202.25 -2.02134 0.316684 0
M  V30 12917 H 1202.26 -3.8734 -1.28186 0
M  V30 12918 H 1200.93 -4.15574 -0.164625 0
M  V30 12919 H 1199.51 -3.28035 -1.77334 0
M  V30 12920 N 1201.7 0.070167 -1.57444 0
M  V30 12921 C 1202.97 0.802108 -1.78397 0
M  V30 12922 C 1203.35 1.95706 -0.791356 0
M  V30 12923 O 1202.7 2.27827 0.17518 0
M  V30 12924 C 1202.91 1.27354 -3.24934 0
M  V30 12925 C 1204.26 1.70626 -3.88808 0
M  V30 12926 O 1205.28 1.36916 -3.28835 0
M  V30 12927 O 1204.14 2.33041 -4.94322 0
M  V30 12928 H 1201.24 0.384483 -0.73219 0
M  V30 12929 H 1203.78 0.0501168 -1.69626 0
M  V30 12930 H 1202.55 0.447204 -3.88736 0
M  V30 12931 H 1202.18 2.0868 -3.38435 0
M  V30 12932 N 1203.17 1.53854 0.341593 0
M  V30 12933 C 1204.08 1.84975 1.44297 0
M  V30 12934 C 1205.1 0.740057 1.57477 0
M  V30 12935 O 1206.28 1.03256 1.72917 0
M  V30 12936 C 1203.34 2.05464 2.79259 0
M  V30 12937 C 1202.4 3.29318 2.75405 0
M  V30 12938 C 1201.63 3.4882 4.03931 0
M  V30 12939 O 1201.86 2.7212 5.01305 0
M  V30 12940 O 1200.79 4.42253 4.08284 0
M  V30 12941 H 1204.62 2.78592 1.20913 0
M  V30 12942 H 1202.2 1.39532 0.533953 0
M  V30 12943 H 1204.08 2.20374 3.59184 0
M  V30 12944 H 1202.76 1.15035 3.0257 0
M  V30 12945 H 1201.67 3.1981 1.94094 0
M  V30 12946 H 1203 4.19746 2.57049 0
M  V30 12947 N 1204.65 -0.602709 1.4562 0
M  V30 12948 C 1205.93 -1.36224 1.40366 0
M  V30 12949 C 1206.31 -2.1096 0.0767645 0
M  V30 12950 O 1205.66 -2.08207 -0.941378 0
M  V30 12951 C 1205.87 -2.30499 2.62052 0
M  V30 12952 C 1207.21 -2.92954 3.07348 0
M  V30 12953 O 1208.24 -2.40818 2.62459 0
M  V30 12954 O 1207.1 -3.87601 3.85263 0
M  V30 12955 H 1204.19 -0.611064 0.557253 0
M  V30 12956 H 1206.74 -0.625391 1.57756 0
M  V30 12957 H 1205.51 -1.74566 3.50203 0
M  V30 12958 H 1205.13 -3.11556 2.4702 0
M  V30 12959 N 1206.13 -1.32992 -0.845635 0
M  V30 12960 C 1207.38 -1.2382 -1.59728 0
M  V30 12961 C 1207.7 0.197724 -1.93995 0
M  V30 12962 O 1206.97 1.12477 -1.60392 0
M  V30 12963 H 1205.55 -0.455296 -0.592212 0
M  V30 12964 H 1208.21 -1.66627 -1.01101 0
M  V30 12965 H 1207.31 -1.82717 -2.53023 0
M  V30 12966 N 1207.61 1.06304 -1.1635 0
M  V30 12967 C 1208.52 2.17296 -0.884289 0
M  V30 12968 C 1209.53 1.73408 0.143414 0
M  V30 12969 O 1210.71 2.01373 -0.0331987 0
M  V30 12970 C 1207.77 3.44509 -0.389163 0
M  V30 12971 C 1206.84 4.02906 -1.48208 0
M  V30 12972 C 1206.07 5.24047 -1.01048 0
M  V30 12973 O 1206.29 5.70229 0.139821 0
M  V30 12974 O 1205.23 5.74394 -1.79876 0
M  V30 12975 H 1209.05 2.4369 -1.81243 0
M  V30 12976 H 1206.64 1.15841 -0.943459 0
M  V30 12977 H 1208.52 4.21229 -0.120018 0
M  V30 12978 H 1207.19 3.19642 0.510968 0
M  V30 12979 H 1206.1 3.27677 -1.80496 0
M  V30 12980 H 1207.43 4.32068 -2.35751 0
M  V30 12981 N 1209.09 0.96196 1.24836 0
M  V30 12982 C 1210.02 0.432188 2.2407 0
M  V30 12983 C 1211 -0.490539 1.55024 0
M  V30 12984 O 1212.18 -0.423236 1.83687 0
M  V30 12985 C 1209.31 -0.37673 3.36598 0
M  V30 12986 C 1208.35 0.48745 4.23705 0
M  V30 12987 S 1209.19 1.92417 4.99736 0
M  V30 12988 C 1210.34 1.12388 6.15727 0
M  V30 12989 H 1210.58 1.27315 2.6866 0
M  V30 12990 H 1208.11 0.766568 1.34026 0
M  V30 12991 H 1210.07 -0.837488 4.01866 0
M  V30 12992 H 1208.73 -1.1926 2.90579 0
M  V30 12993 H 1207.92 -0.133338 5.03824 0
M  V30 12994 H 1207.52 0.883707 3.6341 0
M  V30 12995 H 1209.81 0.376097 6.76455 0
M  V30 12996 H 1210.76 1.89924 6.82154 0
M  V30 12997 H 1211.17 0.650779 5.60736 0
M  V30 12998 N 1210.56 -1.39601 0.731392 0
M  V30 12999 C 1211.51 -2.32469 0.0781328 0
M  V30 13000 C 1212.51 -1.52873 -0.729811 0
M  V30 13001 O 1213.71 -1.68563 -0.631402 0
M  V30 13002 H 1210.09 -0.751972 0.00646515 0
M  V30 13003 H 1212.06 -2.85196 0.877833 0
M  V30 13004 C 1210.81 -3.37948 -0.817717 0
M  V30 13005 H 1210.13 -3.99272 -0.205417 0
M  V30 13006 H 1211.57 -4.05387 -1.24248 0
M  V30 13007 C 1210.03 -2.74703 -1.95038 0
M  V30 13008 O 1210.56 -2.62266 -3.04269 0
M  V30 13009 N 1208.76 -2.32845 -1.73872 0
M  V30 13010 H 1208.31 -2.43161 -0.850321 0
M  V30 13011 H 1208.27 -1.90869 -2.49833 0
M  V30 13012 N 1212.04 -0.478751 -1.50152 0
M  V30 13013 C 1212.99 0.325375 -2.30313 0
M  V30 13014 C 1213.98 0.983372 -1.37935 0
M  V30 13015 O 1215.19 0.913601 -1.55091 0
M  V30 13016 H 1211.57 0.123775 -0.741744 0
M  V30 13017 H 1213.54 -0.371004 -2.96085 0
M  V30 13018 C 1212.29 1.39026 -3.18696 0
M  V30 13019 H 1211.61 0.893329 -3.89692 0
M  V30 13020 H 1213.05 1.92533 -3.77766 0
M  V30 13021 C 1211.51 2.39637 -2.36803 0
M  V30 13022 O 1212.04 3.45067 -2.05649 0
M  V30 13023 N 1210.24 2.11546 -1.9924 0
M  V30 13024 H 1209.79 1.25832 -2.24775 0
M  V30 13025 H 1209.75 2.79096 -1.44751 0
M  V30 13026 N 1213.52 1.56172 -0.211661 0
M  V30 13027 C 1214.45 2.22843 0.697375 0
M  V30 13028 C 1215.43 1.19689 1.20866 0
M  V30 13029 O 1216.62 1.48245 1.25447 0
M  V30 13030 C 1213.75 2.90067 1.90993 0
M  V30 13031 C 1212.7 3.99608 1.5329 0
M  V30 13032 C 1212.03 4.54078 2.82343 0
M  V30 13033 C 1213.33 5.17169 0.730333 0
M  V30 13034 H 1215.02 2.99065 0.141533 0
M  V30 13035 H 1212.57 1.43846 0.0666337 0
M  V30 13036 H 1214.52 3.35396 2.55123 0
M  V30 13037 H 1213.24 2.11276 2.49058 0
M  V30 13038 H 1211.9 3.54995 0.915115 0
M  V30 13039 H 1211.55 3.72029 3.38531 0
M  V30 13040 H 1211.25 5.28001 2.57853 0
M  V30 13041 H 1212.77 5.02119 3.47432 0
M  V30 13042 H 1214.19 5.5894 1.2751 0
M  V30 13043 H 1212.59 5.97262 0.582916 0
M  V30 13044 H 1213.66 4.84174 -0.265157 0
M  V30 13045 N 1215 -0.0618163 1.57479 0
M  V30 13046 C 1215.93 -1.09931 2.01116 0
M  V30 13047 C 1216.94 -1.34405 0.91865 0
M  V30 13048 O 1218.13 -1.32469 1.19642 0
M  V30 13049 C 1215.23 -2.44814 2.34349 0
M  V30 13050 C 1214.41 -2.40157 3.65573 0
M  V30 13051 C 1213.46 -3.57226 3.86363 0
M  V30 13052 O 1212.49 -3.38202 4.5783 0
M  V30 13053 N 1213.69 -4.77937 3.2948 0
M  V30 13054 H 1216.46 -0.727621 2.90733 0
M  V30 13055 H 1214.02 -0.250315 1.59953 0
M  V30 13056 H 1216.01 -3.21792 2.45422 0
M  V30 13057 H 1214.58 -2.73947 1.50571 0
M  V30 13058 H 1213.8 -1.48496 3.65161 0
M  V30 13059 H 1215.09 -2.34156 4.51717 0
M  V30 13060 H 1214.49 -4.96296 2.7149 0
M  V30 13061 H 1213.04 -5.52392 3.45986 0
M  V30 13062 N 1216.48 -1.54033 -0.333429 0
M  V30 13063 C 1217.73 -1.70979 -1.07 0
M  V30 13064 C 1218.04 -0.485095 -1.89489 0
M  V30 13065 O 1219.24 -0.535712 -2.66162 0
M  V30 13066 C 1217.7 -3.02382 -1.95175 0
M  V30 13067 C 1217.31 -4.32223 -1.17844 0
M  V30 13068 C 1219.05 -3.28693 -2.68628 0
M  V30 13069 C 1216.96 -5.54693 -2.05109 0
M  V30 13070 H 1215.89 -0.637152 -0.403179 0
M  V30 13071 H 1218.54 -1.80529 -0.328839 0
M  V30 13072 H 1216.92 -2.86714 -2.73151 0
M  V30 13073 H 1218.1 -4.58626 -0.447089 0
M  V30 13074 H 1216.41 -4.12601 -0.561166 0
M  V30 13075 H 1219.01 -4.17385 -3.34207 0
M  V30 13076 H 1219.35 -2.46141 -3.35738 0
M  V30 13077 H 1219.88 -3.45183 -1.9772 0
M  V30 13078 H 1216.62 -6.39818 -1.42523 0
M  V30 13079 H 1216.14 -5.32524 -2.76005 0
M  V30 13080 H 1217.82 -5.90722 -2.63926 0
M  V30 13081 N 1217.95 0.594978 -1.45938 0
M  V30 13082 C 1218.92 1.68688 -1.55168 0
M  V30 13083 C 1219.92 1.54945 -0.429951 0
M  V30 13084 O 1221.11 1.59785 -0.693859 0
M  V30 13085 C 1218.24 3.0804 -1.46027 0
M  V30 13086 H 1219.43 1.61866 -2.52467 0
M  V30 13087 H 1216.99 0.811785 -1.33565 0
M  V30 13088 H 1217.72 3.20428 -0.499614 0
M  V30 13089 H 1217.51 3.19423 -2.27401 0
M  V30 13090 H 1219 3.8755 -1.55546 0
M  V30 13091 N 1219.43 1.33438 0.838571 0
M  V30 13092 C 1220.68 1.24259 1.58879 0
M  V30 13093 C 1220.99 -0.189957 1.94675 0
M  V30 13094 O 1222.2 -0.40376 2.68481 0
M  V30 13095 C 1220.66 2.1773 2.86569 0
M  V30 13096 C 1220.26 3.66156 2.58135 0
M  V30 13097 C 1222.01 2.17424 3.64591 0
M  V30 13098 C 1219.92 4.5154 3.81923 0
M  V30 13099 H 1218.85 0.461534 0.59624 0
M  V30 13100 H 1221.5 1.58504 0.924588 0
M  V30 13101 H 1219.88 1.76418 3.54532 0
M  V30 13102 H 1221.05 4.1591 1.98382 0
M  V30 13103 H 1219.37 3.68754 1.93416 0
M  V30 13104 H 1221.96 2.78446 4.56478 0
M  V30 13105 H 1222.31 1.16939 3.99539 0
M  V30 13106 H 1222.84 2.571 3.03553 0
M  V30 13107 H 1219.58 5.52902 3.52107 0
M  V30 13108 H 1219.1 4.06529 4.41015 0
M  V30 13109 H 1220.78 4.65359 4.495 0
M  V30 13110 N 1220.91 -1.05686 1.16912 0
M  V30 13111 C 1222.16 -1.78244 0.95254 0
M  V30 13112 C 1222.48 -1.87924 -0.520525 0
M  V30 13113 O 1221.75 -1.39239 -1.37802 0
M  V30 13114 H 1220.33 -0.660228 0.349439 0
M  V30 13115 H 1222.99 -1.27634 1.47294 0
M  V30 13116 H 1222.09 -2.80102 1.37657 0
M  V30 13117 N 1222.39 -0.968567 -1.24324 0
M  V30 13118 C 1223.8 -0.675239 -1.44612 0
M  V30 13119 C 1224 0.762641 -1.8651 0
M  V30 13120 O 1223.06 1.53644 -2.00374 0
M  V30 13121 C 1224.37 -1.66007 -2.50723 0
M  V30 13122 C 1225.92 -1.6728 -2.6455 0
M  V30 13123 C 1226.4 -2.64563 -3.73859 0
M  V30 13124 N 1227.89 -2.6301 -3.81287 0
M  V30 13125 C 1228.62 -3.34957 -4.65394 0
M  V30 13126 N 1228.12 -4.16424 -5.53681 0
M  V30 13127 N 1229.91 -3.23778 -4.59483 0
M  V30 13128 H 1222.06 -1.89757 -0.954257 0
M  V30 13129 H 1224.33 -0.817004 -0.480841 0
M  V30 13130 H 1224.03 -2.68779 -2.26827 0
M  V30 13131 H 1223.91 -1.43353 -3.48898 0
M  V30 13132 H 1226.29 -0.652184 -2.87803 0
M  V30 13133 H 1226.37 -1.93997 -1.6673 0
M  V30 13134 H 1226.02 -3.66759 -3.51355 0
M  V30 13135 H 1225.95 -2.35124 -4.71194 0
M  V30 13136 H 1228.44 -2.03877 -3.18186 0
M  V30 13137 H 1228.75 -4.68207 -6.14818 0
M  V30 13138 H 1227.1 -4.20518 -5.53344 0
M  V30 13139 H 1230.29 -2.59594 -3.89524 0
M  V30 13140 H 1230.46 -3.80112 -5.24804 0
M  V30 13141 N 1223.87 1.39211 -0.738786 0
M  V30 13142 C 1225.12 1.99673 -0.285254 0
M  V30 13143 C 1225.43 1.59297 1.13507 0
M  V30 13144 O 1226.63 2.12622 1.68832 0
M  V30 13145 C 1225.09 3.5696 -0.45906 0
M  V30 13146 C 1224.7 4.06297 -1.88751 0
M  V30 13147 C 1226.44 4.24446 -0.0674954 0
M  V30 13148 C 1224.35 5.56171 -2.01067 0
M  V30 13149 H 1223.28 0.746945 -0.102901 0
M  V30 13150 H 1225.93 1.59163 -0.913209 0
M  V30 13151 H 1224.31 3.95285 0.23785 0
M  V30 13152 H 1225.49 3.79297 -2.61669 0
M  V30 13153 H 1223.8 3.51486 -2.23264 0
M  V30 13154 H 1226.4 5.34521 -0.138475 0
M  V30 13155 H 1226.74 4.04653 0.977823 0
M  V30 13156 H 1227.27 3.91309 -0.715704 0
M  V30 13157 H 1224.01 5.80849 -3.03801 0
M  V30 13158 H 1223.53 5.84961 -1.32591 0
M  V30 13159 H 1225.21 6.21642 -1.79362 0
M  V30 13160 N 1225.34 0.486708 1.49896 0
M  V30 13161 C 1226.29 -0.299294 2.28851 0
M  V30 13162 C 1227.26 -0.973251 1.346 0
M  V30 13163 O 1228.45 -0.982678 1.63548 0
M  V30 13164 C 1225.59 -1.36624 3.16904 0
M  V30 13165 C 1224.7 -0.705492 4.262 0
M  V30 13166 C 1223.83 -1.75165 5.01488 0
M  V30 13167 C 1222.87 -1.072 6.0264 0
M  V30 13168 N 1222.01 -2.06172 6.71147 0
M  V30 13169 H 1226.85 0.380272 2.95564 0
M  V30 13170 H 1224.39 0.199377 1.45743 0
M  V30 13171 H 1226.35 -1.99666 3.66319 0
M  V30 13172 H 1224.98 -2.01476 2.52205 0
M  V30 13173 H 1224.03 0.0378757 3.80381 0
M  V30 13174 H 1225.34 -0.169774 4.98511 0
M  V30 13175 H 1224.49 -2.45749 5.547 0
M  V30 13176 H 1223.23 -2.3212 4.28919 0
M  V30 13177 H 1222.24 -0.351868 5.48673 0
M  V30 13178 H 1223.46 -0.509139 6.77189 0
M  V30 13179 H 1221.41 -2.62115 6.01358 0
M  V30 13180 H 1221.33 -1.57627 7.39385 0
M  V30 13181 H 1222.59 -2.76088 7.28969 0
M  V30 13182 N 1226.82 -1.56058 0.219941 0
M  V30 13183 C 1227.75 -2.2321 -0.685547 0
M  V30 13184 C 1228.73 -1.20328 -1.20229 0
M  V30 13185 O 1229.92 -1.48909 -1.24659 0
M  V30 13186 C 1227.05 -2.91076 -1.89452 0
M  V30 13187 C 1226 -4.00415 -1.51169 0
M  V30 13188 C 1225.33 -4.55569 -2.79931 0
M  V30 13189 C 1226.63 -5.17549 -0.702896 0
M  V30 13190 H 1228.32 -2.99136 -0.125671 0
M  V30 13191 H 1225.87 -1.43879 -0.0590043 0
M  V30 13192 H 1227.82 -3.36744 -2.53341 0
M  V30 13193 H 1226.55 -2.12594 -2.47934 0
M  V30 13194 H 1225.21 -3.55475 -0.896275 0
M  V30 13195 H 1224.85 -3.73819 -3.36553 0
M  V30 13196 H 1224.55 -5.29361 -2.55049 0
M  V30 13197 H 1226.08 -5.03955 -3.44764 0
M  V30 13198 H 1227.49 -5.59608 -1.24544 0
M  V30 13199 H 1225.89 -5.97563 -0.551234 0
M  V30 13200 H 1226.96 -4.84027 0.29083 0
M  V30 13201 N 1228.3 0.053464 -1.57509 0
M  V30 13202 C 1229.55 0.747622 -1.87763 0
M  V30 13203 C 1229.87 1.77178 -0.814433 0
M  V30 13204 O 1229.14 1.95287 0.154862 0
M  V30 13205 H 1227.72 0.279109 -0.692898 0
M  V30 13206 H 1230.38 0.0252006 -1.94884 0
M  V30 13207 H 1229.48 1.25244 -2.85868 0
M  V30 13208 N 1229.78 1.54207 0.325255 0
M  V30 13209 C 1231.03 1.71544 1.06091 0
M  V30 13210 C 1231.34 0.495137 1.89229 0
M  V30 13211 O 1232.55 0.54982 2.65874 0
M  V30 13212 C 1231 3.03412 1.93569 0
M  V30 13213 C 1230.61 4.32842 1.1555 0
M  V30 13214 C 1232.36 3.30113 2.66881 0
M  V30 13215 C 1230.26 5.55773 2.02164 0
M  V30 13216 H 1229.19 0.639281 0.399795 0
M  V30 13217 H 1231.84 1.80701 0.319261 0
M  V30 13218 H 1230.23 2.88158 2.71626 0
M  V30 13219 H 1231.4 4.58857 0.42276 0
M  V30 13220 H 1229.71 4.12893 0.539277 0
M  V30 13221 H 1232.31 4.19151 3.31988 0
M  V30 13222 H 1232.65 2.47918 3.34428 0
M  V30 13223 H 1233.19 3.46227 1.95887 0
M  V30 13224 H 1229.93 6.40565 1.39128 0
M  V30 13225 H 1229.45 5.3398 2.73177 0
M  V30 13226 H 1231.13 5.92113 2.60789 0
M  V30 13227 N 1231.26 -0.58723 1.46251 0
M  V30 13228 C 1232.51 -1.34294 1.51028 0
M  V30 13229 C 1232.83 -1.94329 0.161623 0
M  V30 13230 O 1232.1 -1.78309 -0.811342 0
M  V30 13231 H 1230.68 -0.498607 0.556238 0
M  V30 13232 H 1233.34 -0.688074 1.8235 0
M  V30 13233 H 1232.43 -2.15197 2.26045 0
M  V30 13234 N 1232.74 -1.33881 -0.831482 0
M  V30 13235 C 1233.98 -1.25755 -1.58719 0
M  V30 13236 C 1234.31 0.174746 -1.93713 0
M  V30 13237 O 1233.57 1.13384 -1.59507 0
M  V30 13238 C 1233.86 -2.08544 -2.90249 0
M  V30 13239 C 1233.53 -3.57651 -2.74585 0
M  V30 13240 C 1232.19 -3.983 -2.7002 0
M  V30 13241 C 1234.54 -4.52369 -2.58866 0
M  V30 13242 C 1231.87 -5.31872 -2.47647 0
M  V30 13243 C 1234.22 -5.86112 -2.38025 0
M  V30 13244 C 1232.89 -6.25934 -2.31867 0
M  V30 13245 H 1232.16 -0.460171 -0.580796 0
M  V30 13246 H 1234.81 -1.6554 -0.96274 0
M  V30 13247 H 1233.11 -1.6156 -3.56939 0
M  V30 13248 H 1234.81 -1.99609 -3.47789 0
M  V30 13249 H 1231.4 -3.2538 -2.78973 0
M  V30 13250 H 1235.58 -4.21868 -2.61421 0
M  V30 13251 H 1230.84 -5.61756 -2.41331 0
M  V30 13252 H 1235.01 -6.59103 -2.24847 0
M  V30 13253 H 1232.64 -7.29372 -2.14291 0
M  V30 13254 N 1234.21 1.05064 -1.1747 0
M  V30 13255 C 1235.18 2.1101 -0.89485 0
M  V30 13256 C 1236.18 1.60384 0.11553 0
M  V30 13257 O 1237.37 1.73808 -0.116785 0
M  V30 13258 C 1234.5 3.39194 -0.340642 0
M  V30 13259 H 1235.69 2.37269 -1.83421 0
M  V30 13260 H 1233.24 1.21329 -0.985343 0
M  V30 13261 H 1233.98 3.18591 0.605808 0
M  V30 13262 H 1233.76 3.77251 -1.06885 0
M  V30 13263 H 1235.25 4.17281 -0.163204 0
M  V30 13264 N 1235.69 0.975146 1.23809 0
M  V30 13265 C 1236.64 0.510761 2.25077 0
M  V30 13266 C 1237.61 -0.447605 1.59955 0
M  V30 13267 O 1238.79 -0.356318 1.87443 0
M  V30 13268 C 1235.93 -0.185755 3.446 0
M  V30 13269 C 1235.05 0.812254 4.24295 0
M  V30 13270 C 1234.18 0.0910835 5.31122 0
M  V30 13271 C 1233.22 1.07866 6.02521 0
M  V30 13272 N 1232.36 0.386995 7.01033 0
M  V30 13273 H 1237.2 1.37913 2.64166 0
M  V30 13274 H 1234.73 0.691184 1.2985 0
M  V30 13275 H 1236.69 -0.606341 4.1277 0
M  V30 13276 H 1235.32 -1.01803 3.06327 0
M  V30 13277 H 1234.37 1.35125 3.55592 0
M  V30 13278 H 1235.69 1.56502 4.73612 0
M  V30 13279 H 1234.84 -0.387129 6.05464 0
M  V30 13280 H 1233.58 -0.694324 4.82732 0
M  V30 13281 H 1232.58 1.56767 5.26976 0
M  V30 13282 H 1233.81 1.86464 6.52999 0
M  V30 13283 H 1231.76 -0.3793 6.54903 0
M  V30 13284 H 1231.67 1.0785 7.48268 0
M  V30 13285 H 1232.94 -0.0690036 7.79469 0
M  V30 13286 N 1237.17 -1.38817 0.746158 0
M  V30 13287 C 1238.13 -2.28876 0.121886 0
M  V30 13288 C 1239.13 -1.46838 -0.655379 0
M  V30 13289 O 1240.32 -1.67377 -0.482744 0
M  V30 13290 C 1237.45 -3.30487 -0.836118 0
M  V30 13291 H 1238.65 -2.85586 0.915453 0
M  V30 13292 H 1236.2 -1.47652 0.512691 0
M  V30 13293 H 1236.94 -2.78853 -1.65563 0
M  V30 13294 H 1236.72 -3.9109 -0.281271 0
M  V30 13295 H 1238.21 -3.97848 -1.26914 0
M  V30 13296 N 1238.65 -0.49465 -1.49636 0
M  V30 13297 C 1239.89 0.0521172 -2.02433 0
M  V30 13298 C 1240.22 1.37579 -1.37485 0
M  V30 13299 O 1239.48 1.8927 -0.497538 0
M  V30 13300 C 1239.78 0.259743 -3.56455 0
M  V30 13301 C 1239.44 -0.985143 -4.40007 0
M  V30 13302 C 1238.1 -1.3264 -4.62558 0
M  V30 13303 C 1240.46 -1.81291 -4.88654 0
M  V30 13304 C 1237.78 -2.49506 -5.31003 0
M  V30 13305 C 1240.14 -2.97305 -5.58384 0
M  V30 13306 C 1238.8 -3.31818 -5.79183 0
M  V30 13307 H 1238.07 0.0190711 -0.740755 0
M  V30 13308 H 1240.72 -0.653519 -1.80004 0
M  V30 13309 H 1239.02 1.04785 -3.77528 0
M  V30 13310 H 1240.72 0.697146 -3.94893 0
M  V30 13311 H 1237.31 -0.709313 -4.2269 0
M  V30 13312 H 1241.49 -1.56242 -4.71065 0
M  V30 13313 H 1236.75 -2.76491 -5.4531 0
M  V30 13314 H 1240.92 -3.61777 -5.95055 0
M  V30 13315 H 1238.55 -4.22478 -6.31994 0
M  V30 13316 N 1240.13 1.55939 -0.228214 0
M  V30 13317 C 1241.06 2.2357 0.6737 0
M  V30 13318 C 1242.04 1.20964 1.1959 0
M  V30 13319 O 1243.22 1.49568 1.23867 0
M  V30 13320 C 1240.35 2.92076 1.87906 0
M  V30 13321 C 1239.31 4.01211 1.49043 0
M  V30 13322 C 1238.63 4.57047 2.77511 0
M  V30 13323 C 1239.93 5.17914 0.67544 0
M  V30 13324 H 1241.63 2.99199 0.109806 0
M  V30 13325 H 1239.17 1.43908 0.0513732 0
M  V30 13326 H 1241.12 3.38083 2.51551 0
M  V30 13327 H 1239.85 2.13906 2.46803 0
M  V30 13328 H 1238.51 3.55945 0.877411 0
M  V30 13329 H 1238.16 3.75599 3.34566 0
M  V30 13330 H 1237.86 5.30707 2.52239 0
M  V30 13331 H 1239.38 5.05776 3.42087 0
M  V30 13332 H 1240.79 5.60261 1.21575 0
M  V30 13333 H 1239.19 5.97847 0.519536 0
M  V30 13334 H 1240.26 4.83866 -0.316495 0
M  V30 13335 N 1241.6 -0.0451101 1.57535 0
M  V30 13336 C 1242.53 -1.05046 2.08537 0
M  V30 13337 C 1243.52 -1.3872 0.984418 0
M  V30 13338 O 1244.7 -1.47884 1.25873 0
M  V30 13339 C 1241.83 -2.3562 2.55148 0
M  V30 13340 C 1240.78 -2.16231 3.69362 0
M  V30 13341 C 1240.11 -3.52423 4.02122 0
M  V30 13342 C 1241.41 -1.56159 4.98409 0
M  V30 13343 H 1243.1 -0.625965 2.92783 0
M  V30 13344 H 1240.65 -0.299657 1.40848 0
M  V30 13345 H 1242.6 -3.06266 2.89446 0
M  V30 13346 H 1241.33 -2.80099 1.67964 0
M  V30 13347 H 1239.99 -1.4802 3.35389 0
M  V30 13348 H 1239.63 -3.94522 3.12028 0
M  V30 13349 H 1239.33 -3.4028 4.79044 0
M  V30 13350 H 1240.86 -4.24458 4.38939 0
M  V30 13351 H 1242.27 -2.16703 5.30766 0
M  V30 13352 H 1240.67 -1.54638 5.79834 0
M  V30 13353 H 1241.74 -0.525698 4.82042 0
M  V30 13354 N 1243.08 -1.54377 -0.317073 0
M  V30 13355 C 1244.33 -1.72551 -1.05216 0
M  V30 13356 C 1244.65 -0.5055 -1.88334 0
M  V30 13357 O 1243.92 0.480439 -1.89917 0
M  V30 13358 H 1242.5 -0.636222 -0.391447 0
M  V30 13359 H 1245.16 -1.91696 -0.35194 0
M  V30 13360 H 1244.26 -2.60791 -1.71448 0
M  V30 13361 N 1244.56 0.579466 -1.4656 0
M  V30 13362 C 1245.49 1.69846 -1.60233 0
M  V30 13363 C 1246.47 1.6397 -0.452533 0
M  V30 13364 O 1247.66 1.81936 -0.679174 0
M  V30 13365 C 1244.79 3.08488 -1.59538 0
M  V30 13366 C 1243.74 3.29197 -2.7352 0
M  V30 13367 C 1243.07 4.684 -2.57887 0
M  V30 13368 C 1244.37 3.16718 -4.15315 0
M  V30 13369 H 1246.06 1.5866 -2.53904 0
M  V30 13370 H 1243.61 0.761873 -1.22194 0
M  V30 13371 H 1245.56 3.86595 -1.67696 0
M  V30 13372 H 1244.28 3.20581 -0.62413 0
M  V30 13373 H 1242.94 2.53491 -2.64836 0
M  V30 13374 H 1242.59 4.77262 -1.58839 0
M  V30 13375 H 1242.29 4.83208 -3.34341 0
M  V30 13376 H 1243.81 5.48671 -2.67942 0
M  V30 13377 H 1245.23 3.84666 -4.25094 0
M  V30 13378 H 1243.63 3.43047 -4.92381 0
M  V30 13379 H 1244.7 2.13755 -4.35244 0
M  V30 13380 N 1246.04 1.3432 0.824371 0
M  V30 13381 C 1246.97 1.2842 1.95014 0
M  V30 13382 C 1247.95 0.161925 1.69328 0
M  V30 13383 O 1249.13 0.354052 1.90945 0
M  V30 13384 C 1246.26 1.03741 3.31444 0
M  V30 13385 C 1245.22 2.12419 3.71567 0
M  V30 13386 C 1244.54 1.72931 5.05963 0
M  V30 13387 C 1245.84 3.54235 3.83817 0
M  V30 13388 H 1247.54 2.22614 2.00209 0
M  V30 13389 H 1245.08 1.07165 0.961856 0
M  V30 13390 H 1247.04 0.982586 4.09784 0
M  V30 13391 H 1245.76 0.0598892 3.26545 0
M  V30 13392 H 1244.42 2.16968 2.955 0
M  V30 13393 H 1244.07 0.738433 4.9755 0
M  V30 13394 H 1243.77 2.45668 5.3378 0
M  V30 13395 H 1245.29 1.68941 5.86763 0
M  V30 13396 H 1246.71 3.52106 4.52432 0
M  V30 13397 H 1245.1 4.25581 4.23085 0
M  V30 13398 H 1246.17 3.91682 2.85856 0
M  V30 13399 N 1247.52 -1.0444 1.18026 0
M  V30 13400 C 1248.47 -2.10671 0.871877 0
M  V30 13401 C 1249.45 -1.60134 -0.156798 0
M  V30 13402 O 1250.64 -1.76938 0.0467129 0
M  V30 13403 C 1247.77 -3.41017 0.395271 0
M  V30 13404 C 1246.86 -3.98331 1.4558 0
M  V30 13405 N 1247.25 -4.29508 2.67127 0
M  V30 13406 C 1245.55 -4.2616 1.31544 0
M  V30 13407 C 1246.25 -4.7532 3.35329 0
M  V30 13408 N 1245.22 -4.75904 2.6271 0
M  V30 13409 H 1249.03 -2.32647 1.79589 0
M  V30 13410 H 1246.54 -1.22158 1.0701 0
M  V30 13411 H 1248.54 -4.16609 0.155861 0
M  V30 13412 H 1247.2 -3.20469 -0.522452 0
M  V30 13413 H 1248.21 -4.19271 3.04027 0
M  V30 13414 H 1244.88 -4.14959 0.459962 0
M  V30 13415 H 1246.27 -5.08493 4.39186 0
M  V30 13416 N 1248.99 -0.981699 -1.2329 0
M  V30 13417 C 1250.24 -0.650015 -1.91361 0
M  V30 13418 C 1250.56 0.819184 -1.76959 0
M  V30 13419 O 1249.83 1.5861 -1.14977 0
M  V30 13420 H 1248.41 -0.237427 -0.708264 0
M  V30 13421 H 1251.08 -1.24579 -1.49887 0
M  V30 13422 H 1250.17 -0.902772 -2.98758 0
M  V30 13423 N 1250.47 1.3842 -0.753509 0
M  V30 13424 C 1251.42 2.30457 -0.12574 0
M  V30 13425 C 1252.39 1.50173 0.709728 0
M  V30 13426 O 1253.57 1.78804 0.665872 0
M  V30 13427 C 1250.71 3.36593 0.761503 0
M  V30 13428 C 1249.83 4.31909 -0.0885848 0
M  V30 13429 C 1248.96 5.25116 0.801655 0
M  V30 13430 C 1248 6.12078 -0.0520719 0
M  V30 13431 N 1247.14 6.97583 0.795124 0
M  V30 13432 H 1251.98 2.83567 -0.916187 0
M  V30 13433 H 1249.52 1.39609 -0.463436 0
M  V30 13434 H 1251.47 3.96738 1.29054 0
M  V30 13435 H 1250.1 2.84894 1.51774 0
M  V30 13436 H 1249.16 3.73227 -0.735249 0
M  V30 13437 H 1250.47 4.93161 -0.747899 0
M  V30 13438 H 1249.62 5.90377 1.39786 0
M  V30 13439 H 1248.36 4.6423 1.4947 0
M  V30 13440 H 1247.37 5.45813 -0.660946 0
M  V30 13441 H 1248.59 6.75032 -0.742178 0
M  V30 13442 H 1246.54 6.39246 1.47312 0
M  V30 13443 H 1246.45 7.55754 0.192705 0
M  V30 13444 H 1247.72 7.67254 1.3763 0
M  V30 13445 N 1251.95 0.502579 1.49372 0
M  V30 13446 C 1253.2 -0.0432341 2.01654 0
M  V30 13447 C 1253.51 -1.379 1.38719 0
M  V30 13448 O 1254.72 -2.01159 1.82338 0
M  V30 13449 C 1253.17 -0.127509 3.59674 0
M  V30 13450 C 1252.78 1.20171 4.31582 0
M  V30 13451 C 1254.53 -0.623603 4.19895 0
M  V30 13452 C 1252.43 1.07951 5.81464 0
M  V30 13453 H 1251.36 -0.0199308 0.753737 0
M  V30 13454 H 1254.01 0.642237 1.71894 0
M  V30 13455 H 1252.4 -0.877465 3.86156 0
M  V30 13456 H 1253.57 1.96508 4.16799 0
M  V30 13457 H 1251.89 1.63136 3.83113 0
M  V30 13458 H 1254.48 -0.732562 5.29658 0
M  V30 13459 H 1254.83 -1.62282 3.83367 0
M  V30 13460 H 1255.36 0.0698641 3.97739 0
M  V30 13461 H 1252.1 2.05304 6.22519 0
M  V30 13462 H 1251.62 0.357051 5.98736 0
M  V30 13463 H 1253.3 0.758885 6.42534 0
M  V30 13464 N 1253.43 -1.55816 0.23648 0
M  V30 13465 C 1254.36 -2.23924 -0.661834 0
M  V30 13466 C 1255.34 -1.21597 -1.18946 0
M  V30 13467 O 1256.52 -1.50222 -1.23073 0
M  V30 13468 C 1253.65 -2.93069 -1.86355 0
M  V30 13469 C 1252.61 -4.01996 -1.46913 0
M  V30 13470 C 1251.93 -4.58512 -2.75083 0
M  V30 13471 C 1253.23 -5.18265 -0.647964 0
M  V30 13472 H 1254.93 -2.99253 -0.0939368 0
M  V30 13473 H 1252.47 -1.43934 -0.0437407 0
M  V30 13474 H 1254.43 -3.39412 -2.49755 0
M  V30 13475 H 1253.15 -2.15212 -2.45665 0
M  V30 13476 H 1251.81 -3.56406 -0.858522 0
M  V30 13477 H 1251.46 -3.77368 -3.3257 0
M  V30 13478 H 1251.16 -5.32037 -2.49421 0
M  V30 13479 H 1252.68 -5.07583 -3.39399 0
M  V30 13480 H 1254.1 -5.60898 -1.18602 0
M  V30 13481 H 1252.49 -5.98114 -0.487823 0
M  V30 13482 H 1253.56 -4.83691 0.342151 0
M  V30 13483 N 1254.91 0.036755 -1.57557 0
M  V30 13484 C 1256.13 0.744813 -1.93565 0
M  V30 13485 C 1256.56 1.68508 -0.835863 0
M  V30 13486 O 1255.91 1.80091 0.208986 0
M  V30 13487 C 1255.96 1.48461 -3.28621 0
M  V30 13488 O 1255.07 2.59739 -3.20327 0
M  V30 13489 H 1254.41 0.200866 -0.632889 0
M  V30 13490 H 1256.94 -0.00547543 -2.04599 0
M  V30 13491 H 1256.95 1.85622 -3.63329 0
M  V30 13492 H 1255.62 0.794953 -4.08232 0
M  V30 13493 H 1254.2 2.25176 -2.97237 0
M  V30 13494 N 1256.39 1.54543 0.308881 0
M  V30 13495 C 1257.8 1.64532 0.882392 0
M  V30 13496 C 1258.15 0.54886 1.88367 0
M  V30 13497 O 1257.27 -0.315832 2.14083 0
M  V30 13498 C 1257.87 2.98251 1.60722 0
M  V30 13499 C 1256.43 3.10387 2.12925 0
M  V30 13500 C 1255.57 2.60176 0.959362 0
M  V30 13501 H 1258.52 1.58466 0.0860803 0
M  V30 13502 H 1258.55 2.89233 2.47233 0
M  V30 13503 H 1258.06 3.78033 0.878233 0
M  V30 13504 H 1256.16 2.35309 2.88895 0
M  V30 13505 H 1256.27 4.16421 2.36918 0
M  V30 13506 H 1254.64 2.16434 1.3427 0
M  V30 13507 H 1255.42 3.42429 0.244454 0
M  V30 13508 N 1257.86 -0.571685 1.46866 0
M  V30 13509 C 1258.81 -1.67992 1.58263 0
M  V30 13510 C 1259.78 -1.60535 0.426345 0
M  V30 13511 O 1260.97 -1.79584 0.644534 0
M  V30 13512 C 1258.11 -3.06327 1.58927 0
M  V30 13513 C 1257.22 -3.24328 2.85369 0
M  V30 13514 C 1256.35 -4.52976 2.77464 0
M  V30 13515 C 1255.39 -4.64359 3.98795 0
M  V30 13516 N 1254.53 -5.84345 3.89211 0
M  V30 13517 H 1259.37 -1.57589 2.52922 0
M  V30 13518 H 1256.91 -0.767883 1.25467 0
M  V30 13519 H 1258.86 -3.86411 1.57296 0
M  V30 13520 H 1257.49 -3.15601 0.677912 0
M  V30 13521 H 1256.55 -2.37774 2.96931 0
M  V30 13522 H 1257.86 -3.28605 3.7526 0
M  V30 13523 H 1257.01 -5.41303 2.74001 0
M  V30 13524 H 1255.75 -4.51155 1.85231 0
M  V30 13525 H 1254.76 -3.74448 4.02578 0
M  V30 13526 H 1255.98 -4.6795 4.92137 0
M  V30 13527 H 1253.93 -5.835 2.99772 0
M  V30 13528 H 1253.84 -5.89938 4.72768 0
M  V30 13529 H 1255.11 -6.75072 3.89741 0
M  V30 13530 N 1259.34 -1.34755 -0.817236 0
M  V30 13531 C 1260.62 -1.18007 -1.55993 0
M  V30 13532 C 1261 0.245079 -2.09673 0
M  V30 13533 O 1260.35 1.24718 -1.91462 0
M  V30 13534 C 1260.56 -2.23934 -2.67684 0
M  V30 13535 C 1261.9 -2.59201 -3.36303 0
M  V30 13536 O 1262.93 -2.22767 -2.77945 0
M  V30 13537 O 1261.79 -3.21809 -4.41702 0
M  V30 13538 H 1258.88 -0.4578 -0.688729 0
M  V30 13539 H 1261.43 -1.46405 -0.858117 0
M  V30 13540 H 1260.2 -3.19568 -2.25813 0
M  V30 13541 H 1259.82 -1.96745 -3.4551 0
M  V30 13542 N 1260.82 1.03812 -1.18578 0
M  V30 13543 C 1262.07 1.76455 -0.977071 0
M  V30 13544 C 1262.38 1.8926 0.493964 0
M  V30 13545 O 1263.59 2.58781 0.821256 0
M  V30 13546 C 1262.04 3.17264 -1.69917 0
M  V30 13547 C 1261.65 3.12543 -3.20969 0
M  V30 13548 C 1263.4 3.94266 -1.57337 0
M  V30 13549 C 1261.3 4.48226 -3.85807 0
M  V30 13550 H 1260.23 0.661445 -0.361949 0
M  V30 13551 H 1262.88 1.16252 -1.41978 0
M  V30 13552 H 1261.27 3.77878 -1.18424 0
M  V30 13553 H 1262.44 2.61364 -3.79507 0
M  V30 13554 H 1260.75 2.49039 -3.33719 0
M  V30 13555 H 1263.35 4.9461 -2.03137 0
M  V30 13556 H 1263.69 4.12963 -0.526033 0
M  V30 13557 H 1264.23 3.40232 -2.06124 0
M  V30 13558 H 1260.97 4.34734 -4.90599 0
M  V30 13559 H 1260.49 4.99497 -3.32058 0
M  V30 13560 H 1262.17 5.17135 -3.88819 0
M  V30 13561 N 1262.3 0.988223 1.22768 0
M  V30 13562 C 1263.23 0.47962 2.23103 0
M  V30 13563 C 1264.21 -0.457546 1.5603 0
M  V30 13564 O 1265.39 -0.384178 1.84544 0
M  V30 13565 C 1262.52 -0.305248 3.37322 0
M  V30 13566 C 1261.57 0.577215 4.22576 0
M  V30 13567 S 1262.4 2.02974 4.95542 0
M  V30 13568 C 1263.55 1.25423 6.13205 0
M  V30 13569 H 1263.79 1.32985 2.65899 0
M  V30 13570 H 1261.32 0.794824 1.3237 0
M  V30 13571 H 1263.28 -0.752057 4.03552 0
M  V30 13572 H 1261.94 -1.1307 2.93043 0
M  V30 13573 H 1261.13 -0.0264391 5.03993 0
M  V30 13574 H 1260.73 0.960593 3.61453 0
M  V30 13575 H 1263.03 0.519499 6.75505 0
M  V30 13576 H 1263.97 2.04351 6.77972 0
M  V30 13577 H 1264.38 0.769573 5.5923 0
M  V30 13578 N 1263.78 -1.38018 0.760839 0
M  V30 13579 C 1264.71 -2.32995 0.153557 0
M  V30 13580 C 1265.69 -1.55234 -0.695448 0
M  V30 13581 O 1266.87 -1.8352 -0.635148 0
M  V30 13582 C 1264 -3.39437 -0.734811 0
M  V30 13583 C 1262.96 -4.27998 0.0120287 0
M  V30 13584 C 1262.28 -5.25359 -0.995067 0
M  V30 13585 C 1263.58 -5.08687 1.18468 0
M  V30 13586 H 1265.28 -2.8403 0.946956 0
M  V30 13587 H 1262.82 -1.36562 0.456816 0
M  V30 13588 H 1264.77 -4.0485 -1.16938 0
M  V30 13589 H 1263.5 -2.86901 -1.56061 0
M  V30 13590 H 1262.16 -3.64102 0.427254 0
M  V30 13591 H 1261.81 -4.69108 -1.81512 0
M  V30 13592 H 1261.51 -5.85469 -0.499969 0
M  V30 13593 H 1263.03 -5.93648 -1.4288 0
M  V30 13594 H 1264.44 -5.67299 0.8273 0
M  V30 13595 H 1262.84 -5.78068 1.61112 0
M  V30 13596 H 1263.91 -4.42 1.99409 0
M  V30 13597 N 1265.25 -0.510493 -1.49103 0
M  V30 13598 C 1266.48 0.0293113 -2.07379 0
M  V30 13599 C 1266.9 1.29195 -1.36713 0
M  V30 13600 O 1266.26 1.76204 -0.426838 0
M  V30 13601 C 1266.31 0.25629 -3.59688 0
M  V30 13602 O 1265.41 1.32907 -3.90397 0
M  V30 13603 H 1264.75 -0.0304449 -0.663302 0
M  V30 13604 H 1267.28 -0.712832 -1.91781 0
M  V30 13605 H 1267.29 0.484915 -4.05108 0
M  V30 13606 H 1265.97 -0.666163 -4.1053 0
M  V30 13607 H 1264.55 1.08464 -3.56777 0
M  V30 13608 N 1266.73 1.55688 -0.24474 0
M  V30 13609 C 1267.66 2.24272 0.64995 0
M  V30 13610 C 1268.64 1.22226 1.183 0
M  V30 13611 O 1269.83 1.50873 1.22274 0
M  V30 13612 C 1266.96 2.94053 1.84798 0
M  V30 13613 C 1265.91 4.02769 1.44779 0
M  V30 13614 C 1265.24 4.59965 2.72647 0
M  V30 13615 C 1266.54 5.18601 0.62047 0
M  V30 13616 H 1268.23 2.99298 0.0780654 0
M  V30 13617 H 1265.78 1.43955 0.0361069 0
M  V30 13618 H 1267.73 3.40732 2.47951 0
M  V30 13619 H 1266.45 2.16511 2.44521 0
M  V30 13620 H 1265.11 3.56856 0.839609 0
M  V30 13621 H 1264.76 3.79126 3.30564 0
M  V30 13622 H 1264.46 5.33352 2.46596 0
M  V30 13623 H 1265.99 5.09376 3.36703 0
M  V30 13624 H 1267.4 5.61519 1.15625 0
M  V30 13625 H 1265.8 5.98364 0.456097 0
M  V30 13626 H 1266.87 4.83503 -0.367798 0
M  V30 13627 N 1268.21 -0.0283989 1.57574 0
M  V30 13628 C 1269.46 -0.717656 1.88929 0
M  V30 13629 C 1269.78 -1.7586 0.842517 0
M  V30 13630 O 1269.05 -1.95509 -0.123774 0
M  V30 13631 H 1267.63 -0.268051 0.69725 0
M  V30 13632 H 1270.29 0.00580691 1.94899 0
M  V30 13633 H 1269.39 -1.2068 2.87824 0
M  V30 13634 N 1269.69 -1.54705 -0.300681 0
M  V30 13635 C 1270.6 -1.88736 -1.39341 0
M  V30 13636 C 1271.61 -0.78155 -1.5546 0
M  V30 13637 O 1272.79 -1.07804 -1.70118 0
M  V30 13638 C 1269.85 -2.12795 -2.73713 0
M  V30 13639 C 1268.92 -3.36504 -2.66577 0
M  V30 13640 C 1268.15 -3.59407 -3.94541 0
M  V30 13641 O 1268.37 -2.85315 -4.93914 0
M  V30 13642 O 1267.31 -4.52923 -3.96415 0
M  V30 13643 H 1271.13 -2.817 -1.13484 0
M  V30 13644 H 1268.72 -1.40899 -0.496771 0
M  V30 13645 H 1270.6 -2.29819 -3.53215 0
M  V30 13646 H 1269.27 -1.23017 -2.99414 0
M  V30 13647 H 1268.18 -3.24844 -1.85546 0
M  V30 13648 H 1269.51 -4.26414 -2.45829 0
M  V30 13649 N 1271.17 0.563888 -1.47167 0
M  V30 13650 C 1272.13 1.65359 -1.58711 0
M  V30 13651 C 1273.13 1.53999 -0.46272 0
M  V30 13652 O 1274.32 1.58277 -0.727595 0
M  V30 13653 C 1271.45 3.04874 -1.52529 0
M  V30 13654 H 1272.64 1.56475 -2.55843 0
M  V30 13655 H 1270.2 0.783271 -1.35257 0
M  V30 13656 H 1270.93 3.19297 -0.56747 0
M  V30 13657 H 1270.72 3.14528 -2.34125 0
M  V30 13658 H 1272.21 3.84164 -1.63731 0
M  V30 13659 N 1272.64 1.35187 0.810078 0
M  V30 13660 C 1273.92 1.18832 1.55365 0
M  V30 13661 C 1274.3 -0.233956 2.098 0
M  V30 13662 O 1273.65 -1.23701 1.92121 0
M  V30 13663 C 1273.86 2.25351 2.66492 0
M  V30 13664 C 1275.21 2.60981 3.34924 0
M  V30 13665 O 1276.23 2.24238 2.7676 0
M  V30 13666 O 1275.09 3.24147 4.3999 0
M  V30 13667 H 1272.18 0.461446 0.686292 0
M  V30 13668 H 1274.73 1.46858 0.850341 0
M  V30 13669 H 1273.5 3.20762 2.24115 0
M  V30 13670 H 1273.13 1.98575 3.44462 0
M  V30 13671 N 1274.12 -1.03182 1.19127 0
M  V30 13672 C 1275.37 -1.76184 0.990134 0
M  V30 13673 C 1275.69 -1.88986 -0.480546 0
M  V30 13674 O 1274.96 -1.4213 -1.34817 0
M  V30 13675 H 1273.54 -0.652668 0.363364 0
M  V30 13676 H 1276.2 -1.24481 1.49968 0
M  V30 13677 H 1275.3 -2.77119 1.43568 0
M  V30 13678 N 1275.6 -0.99472 -1.22242 0
M  V30 13679 C 1276.56 -0.551619 -2.22463 0
M  V30 13680 C 1277.56 0.366498 -1.56568 0
M  V30 13681 O 1278.75 0.158204 -1.7348 0
M  V30 13682 C 1275.89 0.197416 -3.40328 0
M  V30 13683 H 1277.08 -1.43795 -2.63179 0
M  V30 13684 H 1274.63 -0.782121 -1.35324 0
M  V30 13685 H 1275.37 1.09965 -3.05087 0
M  V30 13686 H 1275.15 -0.461829 -3.89371 0
M  V30 13687 H 1276.64 0.495534 -4.1465 0
M  V30 13688 N 1277.08 1.37613 -0.768148 0
M  V30 13689 C 1278.33 1.99384 -0.330187 0
M  V30 13690 C 1278.65 1.61283 1.09604 0
M  V30 13691 O 1277.92 0.876551 1.75195 0
M  V30 13692 H 1276.5 0.737445 -0.119095 0
M  V30 13693 H 1279.16 1.6815 -0.985476 0
M  V30 13694 H 1278.26 3.09462 -0.40494 0
M  V30 13695 N 1278.56 0.518393 1.4883 0
M  V30 13696 C 1279.47 -0.254811 2.33212 0
M  V30 13697 C 1280.48 -0.950401 1.45751 0
M  V30 13698 O 1281.66 -0.927932 1.78749 0
M  V30 13699 C 1278.72 -1.29509 3.21603 0
M  V30 13700 C 1277.78 -0.611086 4.24928 0
M  V30 13701 C 1277.02 -1.6018 5.09095 0
M  V30 13702 O 1277.24 -2.83336 4.95052 0
M  V30 13703 O 1276.17 -1.14756 5.90859 0
M  V30 13704 H 1280 0.436329 3.00549 0
M  V30 13705 H 1277.59 0.27947 1.46763 0
M  V30 13706 H 1279.47 -1.89654 3.7631 0
M  V30 13707 H 1278.14 -1.96884 2.5694 0
M  V30 13708 H 1277.05 0.0305638 3.74088 0
M  V30 13709 H 1278.38 0.0205249 4.92196 0
M  V30 13710 N 1280.03 -1.55556 0.252993 0
M  V30 13711 C 1281 -2.20351 -0.630705 0
M  V30 13712 C 1282 -1.17461 -1.09816 0
M  V30 13713 O 1283.19 -1.42505 -1.00189 0
M  V30 13714 C 1280.32 -2.85192 -1.86757 0
M  V30 13715 H 1281.51 -2.99829 -0.0652939 0
M  V30 13716 H 1279.07 -1.563 0.00347982 0
M  V30 13717 H 1279.8 -2.09669 -2.47406 0
M  V30 13718 H 1279.59 -3.60569 -1.54053 0
M  V30 13719 H 1281.08 -3.34762 -2.49648 0
M  V30 13720 N 1281.51 0.0200419 -1.57587 0
M  V30 13721 C 1282.76 0.707627 -1.89307 0
M  V30 13722 C 1283.08 1.7541 -0.851831 0
M  V30 13723 O 1282.35 1.95571 0.113404 0
M  V30 13724 H 1280.93 0.264349 -0.698662 0
M  V30 13725 H 1283.59 -0.0161428 -1.94893 0
M  V30 13726 H 1282.69 1.19152 -2.8846 0
M  V30 13727 N 1282.99 1.54862 0.292472 0
M  V30 13728 C 1283.9 1.89472 1.38339 0
M  V30 13729 C 1284.92 0.789783 1.55043 0
M  V30 13730 O 1286.09 1.08705 1.69544 0
M  V30 13731 C 1283.16 2.14244 2.72581 0
M  V30 13732 C 1282.22 3.37913 2.64789 0
M  V30 13733 C 1281.45 3.61494 3.92629 0
M  V30 13734 O 1281.67 2.87931 4.92394 0
M  V30 13735 O 1280.61 4.55019 3.94007 0
M  V30 13736 H 1284.43 2.82298 1.11989 0
M  V30 13737 H 1282.02 1.41161 0.489291 0
M  V30 13738 H 1283.9 2.31689 3.51991 0
M  V30 13739 H 1282.58 1.24603 2.98757 0
M  V30 13740 H 1281.48 3.25823 1.83821 0
M  V30 13741 H 1282.82 4.27711 2.43565 0
M  V30 13742 N 1284.47 -0.556076 1.47464 0
M  V30 13743 C 1285.43 -1.64515 1.59586 0
M  V30 13744 C 1286.43 -1.53751 0.470881 0
M  V30 13745 O 1287.62 -1.57889 0.735979 0
M  V30 13746 C 1284.75 -3.0406 1.54143 0
M  V30 13747 H 1285.95 -1.55116 2.56669 0
M  V30 13748 H 1283.5 -0.776087 1.35671 0
M  V30 13749 H 1284.23 -3.18991 0.584395 0
M  V30 13750 H 1284.02 -3.13282 2.3579 0
M  V30 13751 H 1285.51 -3.8329 1.65766 0
M  V30 13752 N 1285.95 -1.35615 -0.802897 0
M  V30 13753 C 1287.2 -1.28839 -1.55708 0
M  V30 13754 C 1287.52 0.135906 -1.94526 0
M  V30 13755 O 1286.79 1.07317 -1.6389 0
M  V30 13756 H 1285.37 -0.473906 -0.577427 0
M  V30 13757 H 1288.03 -1.69759 -0.957487 0
M  V30 13758 H 1287.12 -1.90675 -2.47082 0
M  V30 13759 N 1287.43 1.02549 -1.19673 0
M  V30 13760 C 1288.34 2.14373 -0.952972 0
M  V30 13761 C 1289.35 1.73776 0.0881727 0
M  V30 13762 O 1290.53 2.01165 -0.0972471 0
M  V30 13763 C 1287.59 3.43096 -0.498569 0
M  V30 13764 C 1286.65 3.97987 -1.60951 0
M  V30 13765 C 1285.89 5.20567 -1.17669 0
M  V30 13766 O 1286.11 5.70385 -0.0416636 0
M  V30 13767 O 1285.04 5.6838 -1.98059 0
M  V30 13768 H 1288.87 2.378 -1.88904 0
M  V30 13769 H 1286.45 1.12781 -0.979836 0
M  V30 13770 H 1288.34 4.20634 -0.253968 0
M  V30 13771 H 1287.01 3.21105 0.409018 0
M  V30 13772 H 1285.92 3.21768 -1.90829 0
M  V30 13773 H 1287.25 4.24349 -2.49377 0
M  V30 13774 N 1288.9 1.00119 1.21713 0
M  V30 13775 C 1290.13 0.700431 1.94683 0
M  V30 13776 C 1290.55 -0.736333 1.73849 0
M  V30 13777 O 1289.9 -1.49778 1.04272 0
M  V30 13778 C 1289.95 1.00722 3.47185 0
M  V30 13779 O 1289.68 2.38754 3.67326 0
M  V30 13780 C 1291.18 0.725335 4.37326 0
M  V30 13781 H 1288.4 0.25843 0.619238 0
M  V30 13782 H 1290.94 1.3382 1.54636 0
M  V30 13783 H 1289.1 0.415117 3.85169 0
M  V30 13784 H 1289.51 2.49321 4.61454 0
M  V30 13785 H 1290.98 0.990202 5.43046 0
M  V30 13786 H 1291.46 -0.340649 4.37877 0
M  V30 13787 H 1292.07 1.29888 4.04981 0
M  V30 13788 N 1290.38 -1.37203 0.775435 0
M  V30 13789 C 1291.34 -2.28566 0.170406 0
M  V30 13790 C 1292.34 -1.48195 -0.624085 0
M  V30 13791 O 1293.53 -1.68364 -0.447132 0
M  V30 13792 C 1290.67 -3.32186 -0.765829 0
M  V30 13793 H 1291.86 -2.8358 0.975824 0
M  V30 13794 H 1289.41 -1.46531 0.543895 0
M  V30 13795 H 1290.15 -2.82303 -1.59611 0
M  V30 13796 H 1289.93 -3.91598 -0.198251 0
M  V30 13797 H 1291.42 -4.0045 -1.18446 0
M  V30 13798 N 1291.86 -0.526279 -1.48553 0
M  V30 13799 C 1293.27 -0.0848694 -1.86507 0
M  V30 13800 C 1293.62 1.3367 -1.43621 0
M  V30 13801 O 1292.75 2.00046 -0.825268 0
M  V30 13802 C 1293.34 -0.147241 -3.3848 0
M  V30 13803 C 1291.9 0.238954 -3.75641 0
M  V30 13804 C 1291.05 -0.508648 -2.72595 0
M  V30 13805 H 1294 -0.737728 -1.40511 0
M  V30 13806 H 1294.02 0.641964 -3.75045 0
M  V30 13807 H 1293.53 -1.18199 -3.69663 0
M  V30 13808 H 1291.63 1.27598 -3.50071 0
M  V30 13809 H 1291.75 -0.0980808 -4.79 0
M  V30 13810 H 1290.11 0.0446382 -2.54661 0
M  V30 13811 H 1290.89 -1.54395 -3.06622 0
M  V30 13812 N 1293.34 1.5542 -0.261239 0
M  V30 13813 C 1294.25 2.25627 0.642625 0
M  V30 13814 C 1295.26 1.27732 1.18155 0
M  V30 13815 O 1296.44 1.60639 1.21479 0
M  V30 13816 C 1293.5 2.95303 1.8165 0
M  V30 13817 C 1292.57 4.08644 1.31563 0
M  V30 13818 C 1291.8 4.74988 2.43355 0
M  V30 13819 O 1292.02 4.40474 3.62407 0
M  V30 13820 O 1290.96 5.63217 2.12299 0
M  V30 13821 H 1294.78 3.03609 0.0743091 0
M  V30 13822 H 1292.37 1.49372 -0.0291754 0
M  V30 13823 H 1294.25 3.3914 2.50125 0
M  V30 13824 H 1292.92 2.2025 2.37217 0
M  V30 13825 H 1291.83 3.69294 0.597746 0
M  V30 13826 H 1293.16 4.85558 0.805878 0
M  V30 13827 N 1294.82 -0.0116844 1.57596 0
M  V30 13828 C 1296.09 -0.735344 1.81251 0
M  V30 13829 C 1296.47 -1.92634 0.863446 0
M  V30 13830 O 1295.82 -2.28321 -0.0905028 0
M  V30 13831 C 1296.03 -1.15206 3.29437 0
M  V30 13832 C 1297.38 -1.56078 3.94873 0
M  V30 13833 O 1298.4 -1.24618 3.3369 0
M  V30 13834 O 1297.26 -2.14534 5.0263 0
M  V30 13835 H 1294.36 -0.357044 0.745955 0
M  V30 13836 H 1296.9 0.0128733 1.69695 0
M  V30 13837 H 1295.67 -0.302619 3.90128 0
M  V30 13838 H 1295.3 -1.95975 3.45947 0
M  V30 13839 N 1296.29 -1.55015 -0.284256 0
M  V30 13840 C 1297.2 -1.90203 -1.37332 0
M  V30 13841 C 1298.22 -0.797994 -1.54622 0
M  V30 13842 O 1299.4 -1.09602 -1.68965 0
M  V30 13843 C 1296.46 -2.15687 -2.71441 0
M  V30 13844 C 1295.52 -3.39313 -2.62993 0
M  V30 13845 C 1294.75 -3.63571 -3.90707 0
M  V30 13846 O 1294.98 -2.90538 -4.9086 0
M  V30 13847 O 1293.91 -4.57102 -3.91589 0
M  V30 13848 H 1297.74 -2.82888 -1.1049 0
M  V30 13849 H 1295.32 -1.41418 -0.481798 0
M  V30 13850 H 1297.2 -2.33553 -3.50758 0
M  V30 13851 H 1295.88 -1.26185 -2.98092 0
M  V30 13852 H 1294.79 -3.26793 -1.82091 0
M  V30 13853 H 1296.12 -4.28997 -2.41293 0
M  V30 13854 N 1297.77 0.548248 -1.47757 0
M  V30 13855 C 1298.72 1.65453 -1.60916 0
M  V30 13856 C 1299.69 1.59836 -0.451831 0
M  V30 13857 O 1300.87 1.78536 -0.673023 0
M  V30 13858 C 1298.01 3.0376 -1.6378 0
M  V30 13859 C 1297.13 3.19747 -2.90492 0
M  V30 13860 C 1296.26 4.48505 -2.84635 0
M  V30 13861 C 1295.3 4.57956 -4.06132 0
M  V30 13862 N 1294.44 5.78079 -3.98458 0
M  V30 13863 H 1299.28 1.53545 -2.55398 0
M  V30 13864 H 1296.81 0.747826 -1.26673 0
M  V30 13865 H 1298.77 3.8386 -1.63424 0
M  V30 13866 H 1297.4 3.14483 -0.728036 0
M  V30 13867 H 1296.45 2.3302 -3.00676 0
M  V30 13868 H 1297.77 3.22594 -3.8044 0
M  V30 13869 H 1296.92 5.36875 -2.82577 0
M  V30 13870 H 1295.66 4.48151 -1.92385 0
M  V30 13871 H 1294.66 3.67995 -4.08484 0
M  V30 13872 H 1295.89 4.60062 -4.9952 0
M  V30 13873 H 1293.84 5.78657 -3.09017 0
M  V30 13874 H 1293.75 5.82342 -4.82093 0
M  V30 13875 H 1295.02 6.68786 -4.00431 0
M  V30 13876 N 1299.25 1.36039 0.795694 0
M  V30 13877 C 1300.2 1.29853 1.90806 0
M  V30 13878 C 1301.17 0.168387 1.65244 0
M  V30 13879 O 1302.35 0.353879 1.8749 0
M  V30 13880 C 1299.49 1.08737 3.27521 0
M  V30 13881 C 1298.6 2.30771 3.65197 0
M  V30 13882 C 1297.74 2.02718 4.90998 0
M  V30 13883 C 1296.78 3.20746 5.21333 0
M  V30 13884 N 1295.92 2.92399 6.38316 0
M  V30 13885 H 1300.76 2.2497 1.95429 0
M  V30 13886 H 1298.29 1.11819 0.955771 0
M  V30 13887 H 1300.25 0.945236 4.06351 0
M  V30 13888 H 1298.88 0.172781 3.22337 0
M  V30 13889 H 1297.93 2.5581 2.81541 0
M  V30 13890 H 1299.24 3.18869 3.83568 0
M  V30 13891 H 1298.4 1.85398 5.77679 0
M  V30 13892 H 1297.14 1.11921 4.74684 0
M  V30 13893 H 1296.14 3.38632 4.33138 0
M  V30 13894 H 1297.37 4.1236 5.3957 0
M  V30 13895 H 1295.31 2.04207 6.23406 0
M  V30 13896 H 1295.23 3.74034 6.56989 0
M  V30 13897 H 1296.5 2.78643 7.27996 0
M  V30 13898 N 1300.73 -1.01913 1.20215 0
M  V30 13899 C 1301.64 -2.13864 0.964328 0
M  V30 13900 C 1302.65 -1.73821 -0.0789556 0
M  V30 13901 O 1303.83 -2.01111 0.107914 0
M  V30 13902 C 1300.9 -3.42827 0.516757 0
M  V30 13903 C 1299.96 -3.97127 1.63059 0
M  V30 13904 C 1299.19 -5.19935 1.20428 0
M  V30 13905 O 1299.41 -5.70355 0.0719119 0
M  V30 13906 O 1298.35 -5.67322 2.01071 0
M  V30 13907 H 1302.17 -2.36795 1.90162 0
M  V30 13908 H 1299.76 -1.1226 0.985803 0
M  V30 13909 H 1301.64 -4.20493 0.276272 0
M  V30 13910 H 1300.31 -3.21318 -0.391983 0
M  V30 13911 H 1299.22 -3.20752 1.92533 0
M  V30 13912 H 1300.55 -4.2302 2.51624 0
M  V30 13913 N 1302.21 -1.00763 -1.2118 0
M  V30 13914 C 1303.62 -0.724746 -1.72059 0
M  V30 13915 C 1303.97 0.757413 -1.80991 0
M  V30 13916 O 1303.09 1.59152 -1.46627 0
M  V30 13917 C 1303.69 -1.30893 -3.12494 0
M  V30 13918 C 1302.25 -1.07511 -3.60719 0
M  V30 13919 C 1301.39 -1.42014 -2.38175 0
M  V30 13920 H 1304.35 -1.17821 -1.0632 0
M  V30 13921 H 1304.37 -0.694919 -3.741 0
M  V30 13922 H 1303.88 -2.38767 -3.05961 0
M  V30 13923 H 1301.98 -0.0136518 -3.72597 0
M  V30 13924 H 1302.09 -1.74885 -4.4604 0
M  V30 13925 H 1300.46 -0.838972 -2.40486 0
M  V30 13926 H 1301.24 -2.50924 -2.34291 0
M  V30 13927 N 1303.68 1.3679 -0.7827 0
M  V30 13928 C 1305.1 1.82006 -0.41603 0
M  V30 13929 C 1305.45 1.65151 1.05922 0
M  V30 13930 O 1304.57 1.1687 1.82127 0
M  V30 13931 C 1305.17 3.30432 -0.748353 0
M  V30 13932 C 1303.73 3.73883 -0.4346 0
M  V30 13933 C 1302.87 2.59159 -0.986505 0
M  V30 13934 H 1305.82 1.25107 -0.976423 0
M  V30 13935 H 1305.84 3.80482 -0.036985 0
M  V30 13936 H 1305.36 3.42667 -1.82212 0
M  V30 13937 H 1303.46 3.67211 0.631401 0
M  V30 13938 H 1303.57 4.69577 -0.950511 0
M  V30 13939 H 1301.93 2.51377 -0.410108 0
M  V30 13940 H 1302.72 2.74182 -2.06589 0
M  V30 13941 N 1305.16 0.53415 1.48272 0
M  V30 13942 C 1306.07 -0.230062 2.33469 0
M  V30 13943 C 1307.09 -0.934889 1.46751 0
M  V30 13944 O 1308.26 -0.908921 1.79724 0
M  V30 13945 C 1305.33 -1.2609 3.22958 0
M  V30 13946 C 1304.39 -0.565983 4.25553 0
M  V30 13947 C 1303.62 -1.54771 5.10766 0
M  V30 13948 O 1303.85 -2.7807 4.9803 0
M  V30 13949 O 1302.78 -1.08482 5.92043 0
M  V30 13950 H 1306.61 0.468182 3.0007 0
M  V30 13951 H 1304.19 0.29502 1.46458 0
M  V30 13952 H 1306.07 -1.85652 3.783 0
M  V30 13953 H 1304.75 -1.94148 2.59014 0
M  V30 13954 H 1303.66 0.0702391 3.74034 0
M  V30 13955 H 1304.99 0.0727277 4.92146 0
M  V30 13956 N 1306.64 -1.55279 0.269478 0
M  V30 13957 C 1307.55 -2.25965 -0.63065 0
M  V30 13958 C 1308.57 -1.28357 -1.17476 0
M  V30 13959 O 1309.74 -1.61281 -1.20625 0
M  V30 13960 C 1306.81 -2.96263 -1.80081 0
M  V30 13961 C 1305.87 -4.09336 -1.29394 0
M  V30 13962 C 1305.1 -4.76272 -2.40833 0
M  V30 13963 O 1305.32 -4.42389 -3.60066 0
M  V30 13964 O 1304.26 -5.64334 -2.09309 0
M  V30 13965 H 1308.08 -3.03644 -0.0582069 0
M  V30 13966 H 1305.67 -1.49354 0.0370966 0
M  V30 13967 H 1307.55 -3.40461 -2.48322 0
M  V30 13968 H 1306.23 -2.21505 -2.36045 0
M  V30 13969 H 1305.13 -3.69605 -0.578154 0
M  V30 13970 H 1306.47 -4.85978 -0.780117 0
M  V30 13971 N 1308.12 0.00332656 -1.576 0
M  V30 13972 C 1309.4 0.725722 -1.81639 0
M  V30 13973 C 1309.78 1.92173 -0.87365 0
M  V30 13974 O 1309.12 2.28365 0.0783931 0
M  V30 13975 C 1309.33 1.13458 -3.30043 0
M  V30 13976 C 1310.68 1.53982 -3.95695 0
M  V30 13977 O 1311.71 1.22846 -3.34346 0
M  V30 13978 O 1310.56 2.11866 -5.03761 0
M  V30 13979 H 1307.66 0.353083 -0.747838 0
M  V30 13980 H 1310.2 -0.0218724 -1.69686 0
M  V30 13981 H 1308.98 0.281925 -3.90283 0
M  V30 13982 H 1308.6 1.94138 -3.46982 0
M  V30 13983 N 1309.6 1.55164 0.276031 0
M  V30 13984 C 1310.53 1.90844 1.34539 0
M  V30 13985 C 1311.51 0.769968 1.51676 0
M  V30 13986 O 1312.69 1.02785 1.64769 0
M  V30 13987 C 1309.82 2.17769 2.70543 0
M  V30 13988 C 1308.78 3.33592 2.68142 0
M  V30 13989 C 1308.1 3.45991 4.07669 0
M  V30 13990 C 1309.4 4.70064 2.27678 0
M  V30 13991 H 1311.1 2.80412 1.04926 0
M  V30 13992 H 1308.64 1.34918 0.503303 0
M  V30 13993 H 1310.6 2.41317 3.45462 0
M  V30 13994 H 1309.32 1.24997 3.01734 0
M  V30 13995 H 1307.98 3.10007 1.95681 0
M  V30 13996 H 1307.63 2.50691 4.36077 0
M  V30 13997 H 1307.33 4.23862 4.06958 0
M  V30 13998 H 1308.85 3.71828 4.84331 0
M  V30 13999 H 1310.26 4.93176 2.92319 0
M  V30 14000 H 1308.66 5.50829 2.38134 0
M  V30 14001 H 1309.73 4.69091 1.22808 0
M  V30 14002 N 1311.07 -0.540404 1.48045 0
M  V30 14003 C 1312.02 -1.64598 1.61791 0
M  V30 14004 C 1312.99 -1.59595 0.460301 0
M  V30 14005 O 1314.18 -1.78176 0.682482 0
M  V30 14006 C 1311.32 -3.02887 1.65389 0
M  V30 14007 C 1310.43 -3.18202 2.92184 0
M  V30 14008 C 1309.56 -4.46989 2.87009 0
M  V30 14009 C 1308.6 -4.55795 4.08555 0
M  V30 14010 N 1307.74 -5.75958 4.01518 0
M  V30 14011 H 1312.58 -1.52188 2.56208 0
M  V30 14012 H 1310.12 -0.741097 1.27068 0
M  V30 14013 H 1312.08 -3.82988 1.65457 0
M  V30 14014 H 1310.71 -3.14092 0.744703 0
M  V30 14015 H 1309.76 -2.31422 3.01907 0
M  V30 14016 H 1311.07 -3.20571 3.82146 0
M  V30 14017 H 1310.22 -5.35369 2.85421 0
M  V30 14018 H 1308.96 -4.47125 1.94759 0
M  V30 14019 H 1307.97 -3.65824 4.1043 0
M  V30 14020 H 1309.19 -4.57406 5.01953 0
M  V30 14021 H 1307.14 -5.77011 3.12081 0
M  V30 14022 H 1307.06 -5.79777 4.85175 0
M  V30 14023 H 1308.32 -6.66653 4.03972 0
M  V30 14024 N 1312.55 -1.36459 -0.788468 0
M  V30 14025 C 1313.5 -1.30863 -1.90115 0
M  V30 14026 C 1314.47 -0.177148 -1.65153 0
M  V30 14027 O 1315.65 -0.363817 -1.87299 0
M  V30 14028 C 1312.79 -1.10473 -3.2694 0
M  V30 14029 C 1311.91 -2.32704 -3.63968 0
M  V30 14030 C 1311.04 -2.05319 -4.89916 0
M  V30 14031 C 1310.08 -3.23506 -5.19625 0
M  V30 14032 N 1309.22 -2.9578 -6.36756 0
M  V30 14033 H 1314.06 -2.26003 -1.94233 0
M  V30 14034 H 1311.6 -1.12324 -0.949827 0
M  V30 14035 H 1313.55 -0.966773 -4.05844 0
M  V30 14036 H 1312.18 -0.189873 -3.22241 0
M  V30 14037 H 1311.24 -2.573 -2.8018 0
M  V30 14038 H 1312.55 -3.20899 -3.81871 0
M  V30 14039 H 1311.7 -1.88459 -5.76687 0
M  V30 14040 H 1310.44 -1.14437 -4.74084 0
M  V30 14041 H 1309.45 -3.40924 -4.31336 0
M  V30 14042 H 1310.67 -4.15216 -5.37376 0
M  V30 14043 H 1308.62 -2.0751 -6.22315 0
M  V30 14044 H 1308.53 -3.77513 -6.54996 0
M  V30 14045 H 1309.8 -2.825 -7.26508 0
M  V30 14046 N 1314.03 1.01274 -1.20754 0
M  V30 14047 C 1315.31 1.7213 -0.929008 0
M  V30 14048 C 1315.69 2.03503 0.561217 0
M  V30 14049 O 1315.04 1.70259 1.52395 0
M  V30 14050 C 1315.25 2.98636 -1.80603 0
M  V30 14051 C 1316.59 3.71823 -2.0502 0
M  V30 14052 O 1317.62 3.08601 -1.77888 0
M  V30 14053 O 1316.48 4.8552 -2.50864 0
M  V30 14054 H 1313.57 0.750361 -0.347689 0
M  V30 14055 H 1316.12 1.07086 -1.31646 0
M  V30 14056 H 1314.89 2.71803 -2.81494 0
M  V30 14057 H 1314.51 3.7142 -1.4189 0
M  V30 14058 N 1315.51 1.01404 1.20644 0
M  V30 14059 C 1316.46 0.575388 2.25371 0
M  V30 14060 C 1317.45 -0.384598 1.64976 0
M  V30 14061 O 1318.66 -0.2548 1.78187 0
M  V30 14062 H 1315.03 0.167752 0.733051 0
M  V30 14063 H 1317 1.46964 2.597 0
M  V30 14064 C 1315.75 -0.0731257 3.47623 0
M  V30 14065 H 1315.08 0.656551 3.94372 0
M  V30 14066 H 1316.52 -0.343203 4.22609 0
M  V30 14067 C 1314.97 -1.31515 3.1017 0
M  V30 14068 O 1315.5 -2.40869 3.21473 0
M  V30 14069 N 1313.71 -1.19829 2.64744 0
M  V30 14070 H 1313.26 -0.308463 2.55746 0
M  V30 14071 H 1313.22 -2.0303 2.40054 0
M  V30 14072 N 1316.99 -1.36373 0.789944 0
M  V30 14073 C 1317.94 -2.27425 0.161798 0
M  V30 14074 C 1318.92 -1.46983 -0.654583 0
M  V30 14075 O 1320.11 -1.69355 -0.51457 0
M  V30 14076 C 1317.24 -3.36043 -0.702128 0
M  V30 14077 C 1316.33 -4.23921 0.123071 0
M  V30 14078 N 1316.72 -4.91895 1.17784 0
M  V30 14079 C 1315.02 -4.45892 -0.0980072 0
M  V30 14080 C 1315.72 -5.56905 1.68023 0
M  V30 14081 N 1314.69 -5.34521 0.989371 0
M  V30 14082 H 1318.5 -2.77463 0.969093 0
M  V30 14083 H 1316.01 -1.49705 0.629458 0
M  V30 14084 H 1318.01 -4.00203 -1.16805 0
M  V30 14085 H 1316.67 -2.8756 -1.50796 0
M  V30 14086 H 1317.68 -4.93838 1.56027 0
M  V30 14087 H 1314.36 -4.08243 -0.874307 0
M  V30 14088 H 1315.75 -6.21185 2.56085 0
M  V30 14089 N 1318.47 -0.542005 -1.47987 0
M  V30 14090 C 1319.71 -0.010246 -2.01697 0
M  V30 14091 C 1320.03 1.34173 -1.42327 0
M  V30 14092 O 1321.23 1.96254 -1.87607 0
M  V30 14093 C 1319.69 0.0321032 -3.59886 0
M  V30 14094 C 1319.3 -1.31571 -4.28244 0
M  V30 14095 C 1321.04 0.512056 -4.214 0
M  V30 14096 C 1318.95 -1.23329 -5.78398 0
M  V30 14097 H 1317.88 -6.02097e-05 -0.754 0
M  V30 14098 H 1320.53 -0.687586 -1.70131 0
M  V30 14099 H 1318.91 0.774774 -3.88347 0
M  V30 14100 H 1320.09 -2.07489 -4.11442 0
M  V30 14101 H 1318.4 -1.73237 -3.78653 0
M  V30 14102 H 1321 0.591875 -5.31414 0
M  V30 14103 H 1321.34 1.52061 -3.87535 0
M  V30 14104 H 1321.87 -0.175293 -3.97414 0
M  V30 14105 H 1318.61 -2.21737 -6.16857 0
M  V30 14106 H 1318.13 -0.51567 -5.97579 0
M  V30 14107 H 1319.81 -0.928975 -6.40296 0
M  V30 14108 N 1319.94 1.55134 -0.277709 0
M  V30 14109 C 1320.87 2.256 0.602232 0
M  V30 14110 C 1321.85 1.24708 1.15681 0
M  V30 14111 O 1323.04 1.53433 1.19046 0
M  V30 14112 C 1320.17 2.97907 1.78519 0
M  V30 14113 C 1319.12 4.0575 1.36203 0
M  V30 14114 C 1318.45 4.65644 2.62829 0
M  V30 14115 C 1319.75 5.19801 0.510327 0
M  V30 14116 H 1321.44 2.99396 0.0145622 0
M  V30 14117 H 1318.99 1.43999 0.00556389 0
M  V30 14118 H 1320.94 3.45915 2.40668 0
M  V30 14119 H 1319.67 2.21649 2.39873 0
M  V30 14120 H 1318.33 3.58557 0.763726 0
M  V30 14121 H 1317.97 3.86053 3.22447 0
M  V30 14122 H 1317.67 5.38463 2.35227 0
M  V30 14123 H 1319.2 5.16403 3.25823 0
M  V30 14124 H 1320.61 5.63845 1.03689 0
M  V30 14125 H 1319.01 5.99197 0.329073 0
M  V30 14126 H 1320.08 4.82614 -0.470273 0
M  V30 14127 N 1321.42 0.00503138 1.57599 0
M  V30 14128 C 1322.37 -1.00294 2.09866 0
M  V30 14129 C 1323.36 -1.35267 1.01977 0
M  V30 14130 O 1324.57 -1.33772 1.20437 0
M  V30 14131 H 1320.94 -0.341112 0.670184 0
M  V30 14132 H 1322.92 -0.536595 2.93536 0
M  V30 14133 C 1321.66 -2.28432 2.62133 0
M  V30 14134 H 1320.99 -2.02391 3.44787 0
M  V30 14135 H 1322.43 -2.97227 3.02378 0
M  V30 14136 C 1320.89 -2.99758 1.53774 0
M  V30 14137 O 1321.42 -3.90939 0.923563 0
M  V30 14138 N 1319.62 -2.61671 1.26398 0
M  V30 14139 H 1319.17 -1.87605 1.76528 0
M  V30 14140 H 1319.13 -3.09707 0.541168 0
M  V30 14141 N 1322.9 -1.55308 -0.267798 0
M  V30 14142 C 1323.85 -1.84933 -1.33356 0
M  V30 14143 C 1324.83 -0.708605 -1.44456 0
M  V30 14144 O 1326.03 -0.970069 -1.4805 0
M  V30 14145 C 1323.15 -2.12927 -2.69289 0
M  V30 14146 C 1322.24 -3.33273 -2.62279 0
M  V30 14147 N 1322.63 -4.53055 -2.24889 0
M  V30 14148 C 1320.93 -3.35966 -2.93331 0
M  V30 14149 C 1321.63 -5.35156 -2.27998 0
M  V30 14150 N 1320.61 -4.73692 -2.66677 0
M  V30 14151 H 1324.41 -2.75086 -1.03465 0
M  V30 14152 H 1321.92 -1.55254 -0.476435 0
M  V30 14153 H 1323.92 -2.32309 -3.46177 0
M  V30 14154 H 1322.58 -1.24061 -3.00065 0
M  V30 14155 H 1323.59 -4.79059 -1.9678 0
M  V30 14156 H 1320.27 -2.57308 -3.28784 0
M  V30 14157 H 1321.66 -6.4094 -2.01608 0
M  V30 14158 N 1324.38 0.532545 -1.4833 0
M  V30 14159 C 1325.31 1.65392 -1.57229 0
M  V30 14160 C 1326.29 1.57005 -0.422884 0
M  V30 14161 O 1327.47 1.77513 -0.634132 0
M  V30 14162 C 1324.6 3.03778 -1.49789 0
M  V30 14163 C 1323.65 3.30532 -2.69538 0
M  V30 14164 S 1324.48 3.17084 -4.3153 0
M  V30 14165 C 1325.63 4.57921 -4.26684 0
M  V30 14166 H 1325.87 1.57593 -2.52095 0
M  V30 14167 H 1323.4 0.715307 -1.36831 0
M  V30 14168 H 1325.36 3.83589 -1.46183 0
M  V30 14169 H 1324.02 3.0902 -0.562646 0
M  V30 14170 H 1323.21 4.31479 -2.60464 0
M  V30 14171 H 1322.81 2.58386 -2.70393 0
M  V30 14172 H 1325.11 5.49387 -3.96459 0
M  V30 14173 H 1326.05 4.72049 -5.27802 0
M  V30 14174 H 1326.46 4.37123 -3.57188 0
M  V30 14175 N 1325.86 1.36875 0.78122 0
M  V30 14176 C 1327.1 1.31299 1.53639 0
M  V30 14177 C 1327.42 -0.104942 1.94717 0
M  V30 14178 O 1326.69 -1.04696 1.65576 0
M  V30 14179 H 1325.27 0.483032 0.569815 0
M  V30 14180 H 1327.94 1.71261 0.930359 0
M  V30 14181 H 1327.03 1.94581 2.44018 0
M  V30 14182 N 1327.33 -1.00632 1.21289 0
M  V30 14183 C 1328.26 -2.11238 0.995021 0
M  V30 14184 C 1329.24 -1.69914 -0.0795537 0
M  V30 14185 O 1330.43 -1.94035 0.0800152 0
M  V30 14186 C 1327.56 -3.42797 0.557475 0
M  V30 14187 C 1326.51 -3.97909 1.57646 0
M  V30 14188 C 1325.84 -5.25357 0.995197 0
M  V30 14189 C 1327.14 -4.30123 2.96297 0
M  V30 14190 H 1328.83 -2.29722 1.9201 0
M  V30 14191 H 1326.38 -1.10395 0.924602 0
M  V30 14192 H 1328.33 -4.19571 0.392236 0
M  V30 14193 H 1327.06 -3.24101 -0.403253 0
M  V30 14194 H 1325.72 -3.23254 1.72924 0
M  V30 14195 H 1325.36 -5.02993 0.026227 0
M  V30 14196 H 1325.06 -5.63196 1.67583 0
M  V30 14197 H 1326.59 -6.04777 0.841251 0
M  V30 14198 H 1328 -4.97744 2.8447 0
M  V30 14199 H 1326.4 -4.79101 3.61361 0
M  V30 14200 H 1327.47 -3.38454 3.47242 0
M  V30 14201 N 1328.81 -1.02043 -1.20104 0
M  V30 14202 C 1329.77 -0.598682 -2.21243 0
M  V30 14203 C 1330.77 0.333205 -1.5731 0
M  V30 14204 O 1331.96 0.12137 -1.73777 0
M  V30 14205 C 1329.1 0.125183 -3.4067 0
M  V30 14206 H 1330.29 -1.49345 -2.60069 0
M  V30 14207 H 1327.84 -0.810649 -1.33634 0
M  V30 14208 H 1328.58 1.03469 -3.07351 0
M  V30 14209 H 1328.36 -0.544316 -3.88304 0
M  V30 14210 H 1329.85 0.407469 -4.15607 0
M  V30 14211 N 1330.29 1.35952 -0.797165 0
M  V30 14212 C 1331.57 1.93335 -0.2968 0
M  V30 14213 C 1331.95 1.72825 1.21222 0
M  V30 14214 O 1331.3 1.09172 2.00733 0
M  V30 14215 C 1331.51 3.41951 -0.697894 0
M  V30 14216 C 1332.85 4.19087 -0.682026 0
M  V30 14217 O 1333.88 3.50424 -0.638849 0
M  V30 14218 O 1332.74 5.41577 -0.73189 0
M  V30 14219 H 1329.83 0.823554 -0.0754223 0
M  V30 14220 H 1332.38 1.45086 -0.88023 0
M  V30 14221 H 1331.15 3.50569 -1.73831 0
M  V30 14222 H 1330.77 3.97501 -0.088764 0
M  V30 14223 N 1331.77 0.549846 1.47697 0
M  V30 14224 C 1333.02 0.0230048 2.02087 0
M  V30 14225 C 1333.34 -1.32865 1.4273 0
M  V30 14226 O 1332.61 -1.86492 0.59981 0
M  V30 14227 H 1331.19 0.00551514 0.74698 0
M  V30 14228 H 1333.85 0.718185 1.81185 0
M  V30 14229 H 1332.95 -0.0705813 3.1202 0
M  V30 14230 N 1333.25 -1.54984 0.285932 0
M  V30 14231 C 1334.66 -1.85519 -0.209707 0
M  V30 14232 C 1335.01 -1.20794 -1.54606 0
M  V30 14233 O 1334.13 -0.500159 -2.10541 0
M  V30 14234 C 1334.73 -3.36579 -0.387283 0
M  V30 14235 C 1333.29 -3.67199 -0.827148 0
M  V30 14236 C 1332.43 -2.77203 0.073308 0
M  V30 14237 H 1335.39 -1.5037 0.507404 0
M  V30 14238 H 1335.41 -3.60269 -1.2242 0
M  V30 14239 H 1334.92 -3.83658 0.585493 0
M  V30 14240 H 1333.02 -3.25627 -1.81101 0
M  V30 14241 H 1333.13 -4.74574 -0.656976 0
M  V30 14242 H 1331.5 -2.50785 -0.444859 0
M  V30 14243 H 1332.28 -3.27099 1.04216 0
M  V30 14244 N 1334.72 -0.0133892 -1.57594 0
M  V30 14245 C 1336.14 0.527615 -1.7909 0
M  V30 14246 C 1336.49 1.73179 -0.922142 0
M  V30 14247 O 1335.61 2.1602 -0.128233 0
M  V30 14248 C 1336.21 0.963949 -3.24798 0
M  V30 14249 C 1334.77 1.45017 -3.47343 0
M  V30 14250 C 1333.91 0.407548 -2.74289 0
M  V30 14251 H 1336.86 -0.239505 -1.56882 0
M  V30 14252 H 1336.88 1.82924 -3.33645 0
M  V30 14253 H 1336.4 0.0873315 -3.88002 0
M  V30 14254 H 1334.5 2.34724 -2.89371 0
M  V30 14255 H 1334.61 1.4684 -4.56043 0
M  V30 14256 H 1332.97 0.872174 -2.39301 0
M  V30 14257 H 1333.76 -0.460333 -3.402 0
M  V30 14258 N 1336.2 1.55448 0.259558 0
M  V30 14259 C 1337.43 1.81063 1.01148 0
M  V30 14260 C 1337.85 0.58875 1.78649 0
M  V30 14261 O 1337.21 -0.461971 1.75315 0
M  V30 14262 C 1337.26 3.04279 1.93512 0
M  V30 14263 O 1336.36 2.80307 3.02493 0
M  V30 14264 H 1335.7 0.598056 0.288487 0
M  V30 14265 H 1338.23 2.02614 0.284387 0
M  V30 14266 H 1338.24 3.33373 2.35215 0
M  V30 14267 H 1336.92 3.92856 1.36518 0
M  V30 14268 H 1335.5 2.62345 2.65008 0
M  V30 14269 N 1337.68 -0.524672 1.4861 0
M  V30 14270 C 1338.91 -1.30958 1.60825 0
M  V30 14271 C 1339.33 -1.86142 0.270682 0
M  V30 14272 O 1338.69 -1.64675 -0.758415 0
M  V30 14273 C 1338.74 -2.43252 2.66197 0
M  V30 14274 O 1337.84 -3.4644 2.23725 0
M  V30 14275 H 1337.18 -0.387638 0.539104 0
M  V30 14276 H 1339.71 -0.630755 1.94635 0
M  V30 14277 H 1339.72 -2.89362 2.87635 0
M  V30 14278 H 1338.4 -2.02449 3.63301 0
M  V30 14279 H 1336.97 -3.06413 2.12522 0
M  V30 14280 N 1339.16 -1.37287 -0.77395 0
M  V30 14281 C 1340.09 -1.35569 -1.90114 0
M  V30 14282 C 1341.07 -0.224658 -1.6861 0
M  V30 14283 O 1342.25 -0.424676 -1.895 0
M  V30 14284 C 1339.38 -1.15971 -3.27365 0
M  V30 14285 C 1338.34 -2.26063 -3.63427 0
M  V30 14286 C 1337.66 -1.9159 -4.99197 0
M  V30 14287 C 1338.96 -3.68236 -3.70405 0
M  V30 14288 H 1340.66 -2.29891 -1.91808 0
M  V30 14289 H 1338.2 -1.10661 -0.92142 0
M  V30 14290 H 1340.16 -1.134 -4.05855 0
M  V30 14291 H 1338.88 -0.181043 -3.26098 0
M  V30 14292 H 1337.54 -2.27786 -2.87244 0
M  V30 14293 H 1337.19 -0.922586 -4.94467 0
M  V30 14294 H 1336.89 -2.65309 -5.24294 0
M  V30 14295 H 1338.41 -1.90602 -5.80089 0
M  V30 14296 H 1339.83 -3.68655 -4.39052 0
M  V30 14297 H 1338.22 -4.4099 -4.06999 0
M  V30 14298 H 1339.29 -4.02021 -2.71122 0
M  V30 14299 N 1340.64 0.999871 -1.21821 0
M  V30 14300 C 1341.55 2.12303 -0.99823 0
M  V30 14301 C 1342.56 1.73924 0.0512923 0
M  V30 14302 O 1343.74 2.00914 -0.139895 0
M  V30 14303 C 1340.8 3.41962 -0.571232 0
M  V30 14304 C 1339.86 3.94483 -1.69356 0
M  V30 14305 C 1339.1 5.17954 -1.28685 0
M  V30 14306 O 1339.32 5.70168 -0.162641 0
M  V30 14307 O 1338.25 5.64051 -2.10071 0
M  V30 14308 H 1342.08 2.3374 -1.93905 0
M  V30 14309 H 1339.67 1.10677 -1.00354 0
M  V30 14310 H 1341.55 4.20001 -0.343134 0
M  V30 14311 H 1340.22 3.21901 0.340814 0
M  V30 14312 H 1339.13 3.17648 -1.97612 0
M  V30 14313 H 1340.46 4.18964 -2.58322 0
M  V30 14314 N 1342.11 1.02678 1.19562 0
M  V30 14315 C 1343.04 0.626359 2.24942 0
M  V30 14316 C 1344.03 -0.363612 1.66168 0
M  V30 14317 O 1345.21 -0.246793 1.92625 0
M  V30 14318 C 1342.34 -0.0257912 3.4729 0
M  V30 14319 C 1341.29 0.886237 4.18724 0
M  V30 14320 C 1340.62 0.0993081 5.34608 0
M  V30 14321 C 1341.92 2.19901 4.73752 0
M  V30 14322 H 1343.61 1.50729 2.58691 0
M  V30 14323 H 1341.16 0.726195 1.24348 0
M  V30 14324 H 1343.11 -0.317545 4.20202 0
M  V30 14325 H 1341.84 -0.941511 3.12735 0
M  V30 14326 H 1340.5 1.16215 3.47692 0
M  V30 14327 H 1340.14 -0.81838 4.96298 0
M  V30 14328 H 1339.84 0.706776 5.83334 0
M  V30 14329 H 1341.37 -0.185754 6.10317 0
M  V30 14330 H 1342.78 1.96892 5.3843 0
M  V30 14331 H 1341.18 2.75821 5.32956 0
M  V30 14332 H 1342.25 2.85509 3.91934 0
M  V30 14333 N 1343.59 -1.35528 0.804364 0
M  V30 14334 C 1344.87 -1.93175 0.307049 0
M  V30 14335 C 1345.25 -1.73466 -1.20303 0
M  V30 14336 O 1344.6 -1.10235 -2.00151 0
M  V30 14337 C 1344.81 -3.41576 0.716018 0
M  V30 14338 C 1346.16 -4.18719 0.704242 0
M  V30 14339 O 1347.18 -3.50081 0.657423 0
M  V30 14340 O 1346.04 -5.41181 0.760601 0
M  V30 14341 H 1343.13 -0.823142 0.0797888 0
M  V30 14342 H 1345.68 -1.44617 0.887912 0
M  V30 14343 H 1344.45 -3.49642 1.75688 0
M  V30 14344 H 1344.07 -3.97448 0.109843 0
M  V30 14345 N 1345.07 -0.557671 -1.47404 0
M  V30 14346 C 1346.02 0.210176 -2.27029 0
M  V30 14347 C 1347.01 0.884882 -1.34382 0
M  V30 14348 O 1348.2 0.783112 -1.58734 0
M  V30 14349 C 1345.33 1.23923 -3.20153 0
M  V30 14350 C 1344.41 0.567913 -4.2028 0
M  V30 14351 N 1344.8 -0.362279 -5.04501 0
M  V30 14352 C 1343.1 0.821776 -4.38364 0
M  V30 14353 C 1343.8 -0.752273 -5.76815 0
M  V30 14354 N 1342.78 -0.107008 -5.43495 0
M  V30 14355 H 1346.58 -0.505007 -2.89529 0
M  V30 14356 H 1344.09 -0.377642 -1.57948 0
M  V30 14357 H 1346.09 1.80328 -3.75882 0
M  V30 14358 H 1344.75 1.9555 -2.59211 0
M  V30 14359 H 1345.76 -0.736468 -5.12637 0
M  V30 14360 H 1342.44 1.52652 -3.88592 0
M  V30 14361 H 1343.83 -1.51664 -6.54559 0
M  V30 14362 N 1346.55 1.54831 -0.294147 0
M  V30 14363 C 1347.48 2.26226 0.57827 0
M  V30 14364 C 1348.46 1.25928 1.14351 0
M  V30 14365 O 1349.65 1.54687 1.17412 0
M  V30 14366 C 1346.78 2.99783 1.75349 0
M  V30 14367 C 1345.73 4.07171 1.31892 0
M  V30 14368 C 1345.06 4.68406 2.57876 0
M  V30 14369 C 1346.36 5.20313 0.455167 0
M  V30 14370 H 1348.05 2.99395 -0.0171936 0
M  V30 14371 H 1345.6 1.43997 -0.00970944 0
M  V30 14372 H 1347.55 3.48448 2.36986 0
M  V30 14373 H 1346.27 2.24181 2.37509 0
M  V30 14374 H 1344.93 3.59346 0.725653 0
M  V30 14375 H 1344.58 3.89451 3.18335 0
M  V30 14376 H 1344.28 5.40927 2.29502 0
M  V30 14377 H 1345.8 5.1983 3.20327 0
M  V30 14378 H 1347.22 5.64913 0.977026 0
M  V30 14379 H 1345.61 5.99512 0.265501 0
M  V30 14380 H 1346.68 4.82088 -0.521434 0
M  V30 14381 N 1348.03 0.0217466 1.57585 0
M  V30 14382 C 1348.98 -0.980624 2.10918 0
M  V30 14383 C 1349.97 -1.34178 1.03406 0
M  V30 14384 O 1351.18 -1.32487 1.21849 0
M  V30 14385 H 1347.55 -0.333984 0.673764 0
M  V30 14386 H 1349.52 -0.505431 2.94088 0
M  V30 14387 C 1348.27 -2.25639 2.64542 0
M  V30 14388 H 1347.59 -1.98722 3.46914 0
M  V30 14389 H 1349.03 -2.94003 3.05513 0
M  V30 14390 C 1347.49 -2.98111 1.56945 0
M  V30 14391 O 1348.02 -3.89937 0.964975 0
M  V30 14392 N 1346.23 -2.60316 1.29166 0
M  V30 14393 H 1345.78 -1.85722 1.78508 0
M  V30 14394 H 1345.73 -3.09116 0.573987 0
M  V30 14395 N 1349.51 -1.55583 -0.251311 0
M  V30 14396 C 1350.75 -1.77209 -0.979966 0
M  V30 14397 C 1351.08 -0.585279 -1.85485 0
M  V30 14398 O 1350.34 0.431559 -1.90882 0
M  V30 14399 C 1350.63 -3.04291 -1.87461 0
M  V30 14400 C 1350.3 -4.35844 -1.15545 0
M  V30 14401 C 1348.96 -4.71594 -0.956679 0
M  V30 14402 C 1351.31 -5.17189 -0.645381 0
M  V30 14403 C 1348.64 -5.86227 -0.235465 0
M  V30 14404 C 1350.99 -6.32569 0.0623441 0
M  V30 14405 C 1349.66 -6.66943 0.272634 0
M  V30 14406 H 1348.93 -0.648452 -0.358595 0
M  V30 14407 H 1351.58 -1.89856 -0.250423 0
M  V30 14408 H 1349.88 -2.86637 -2.67108 0
M  V30 14409 H 1351.58 -3.18221 -2.44001 0
M  V30 14410 H 1348.17 -4.07757 -1.32031 0
M  V30 14411 H 1352.35 -4.90028 -0.786505 0
M  V30 14412 H 1347.61 -6.11369 -0.0620232 0
M  V30 14413 H 1351.78 -6.94844 0.465234 0
M  V30 14414 H 1349.41 -7.55617 0.833442 0
M  V30 14415 N 1350.98 0.516783 -1.48886 0
M  V30 14416 C 1352.23 1.26841 -1.56825 0
M  V30 14417 C 1352.55 1.93957 -0.252998 0
M  V30 14418 O 1353.75 2.70681 -0.210765 0
M  V30 14419 C 1352.21 2.30223 -2.76633 0
M  V30 14420 C 1351.82 1.69117 -4.14853 0
M  V30 14421 C 1353.56 3.06313 -2.93893 0
M  V30 14422 C 1351.47 2.70516 -5.25904 0
M  V30 14423 H 1350.4 0.477087 -0.58387 0
M  V30 14424 H 1353.05 0.544187 -1.75245 0
M  V30 14425 H 1351.43 3.05739 -2.51674 0
M  V30 14426 H 1352.6 0.997003 -4.49885 0
M  V30 14427 H 1350.92 1.05473 -4.0282 0
M  V30 14428 H 1353.52 3.8211 -3.74027 0
M  V30 14429 H 1353.86 3.62976 -2.03848 0
M  V30 14430 H 1354.39 2.37911 -3.18815 0
M  V30 14431 H 1351.13 2.18655 -6.17956 0
M  V30 14432 H 1350.65 3.38221 -4.95345 0
M  V30 14433 H 1352.33 3.3325 -5.54575 0
M  V30 14434 N 1352.46 1.37696 0.766659 0
M  V30 14435 C 1353.41 1.33966 1.90147 0
M  V30 14436 C 1354.4 0.2276 1.67864 0
M  V30 14437 O 1355.61 0.395912 1.75592 0
M  V30 14438 H 1351.98 0.417611 0.625384 0
M  V30 14439 H 1353.96 2.29753 1.9041 0
M  V30 14440 C 1352.7 1.16859 3.27474 0
M  V30 14441 H 1352.03 2.01686 3.452 0
M  V30 14442 H 1353.47 1.18301 4.07162 0
M  V30 14443 C 1351.93 -0.125418 3.36666 0
M  V30 14444 O 1352.46 -1.10717 3.86141 0
M  V30 14445 N 1350.66 -0.17784 2.90055 0
M  V30 14446 H 1350.21 0.621737 2.49984 0
M  V30 14447 H 1350.17 -1.04325 2.96587 0
M  V30 14448 N 1353.94 -0.993397 1.22349 0
M  V30 14449 C 1354.89 -2.10463 0.990358 0
M  V30 14450 C 1355.88 -1.6927 -0.0663528 0
M  V30 14451 O 1357.09 -1.79794 0.0860444 0
M  V30 14452 H 1353.46 -0.688222 0.303075 0
M  V30 14453 H 1355.43 -2.273 1.93333 0
M  V30 14454 C 1354.18 -3.42757 0.584205 0
M  V30 14455 H 1353.51 -3.74896 1.38899 0
M  V30 14456 H 1354.95 -4.21492 0.46049 0
M  V30 14457 C 1353.4 -3.29416 -0.706187 0
M  V30 14458 O 1353.93 -3.61152 -1.75875 0
M  V30 14459 N 1352.14 -2.82601 -0.677148 0
M  V30 14460 H 1351.69 -2.56972 0.179712 0
M  V30 14461 H 1351.65 -2.74056 -1.54081 0
M  V30 14462 N 1355.42 -1.03311 -1.19015 0
M  V30 14463 C 1356.83 -0.761079 -1.70483 0
M  V30 14464 C 1357.18 0.718851 -1.82557 0
M  V30 14465 O 1356.3 1.56006 -1.4997 0
M  V30 14466 C 1356.9 -1.37492 -3.09647 0
M  V30 14467 C 1355.46 -1.15138 -3.58358 0
M  V30 14468 C 1354.61 -1.47034 -2.35109 0
M  V30 14469 H 1357.56 -1.2005 -1.03797 0
M  V30 14470 H 1357.58 -0.774115 -3.72542 0
M  V30 14471 H 1357.09 -2.45203 -3.00828 0
M  V30 14472 H 1355.19 -0.0926822 -3.72485 0
M  V30 14473 H 1355.3 -1.84307 -4.4223 0
M  V30 14474 H 1353.67 -0.889794 -2.38652 0
M  V30 14475 H 1354.45 -2.55837 -2.28916 0
M  V30 14476 N 1356.9 1.35099 -0.81154 0
M  V30 14477 C 1358.13 2.02566 -0.406265 0
M  V30 14478 C 1358.53 1.61291 0.989032 0
M  V30 14479 O 1357.88 0.808496 1.64952 0
M  V30 14480 C 1357.94 3.57087 -0.415847 0
M  V30 14481 C 1357.6 4.21645 -1.76251 0
M  V30 14482 C 1358.6 4.42974 -2.72159 0
M  V30 14483 C 1356.28 4.58658 -2.04787 0
M  V30 14484 C 1358.28 5.00425 -3.94783 0
M  V30 14485 C 1355.97 5.15822 -3.27674 0
M  V30 14486 C 1356.96 5.36648 -4.2249 0
M  V30 14487 O 1356.65 5.92606 -5.43207 0
M  V30 14488 H 1356.38 0.65615 -0.162612 0
M  V30 14489 H 1358.94 1.73596 -1.09789 0
M  V30 14490 H 1357.17 3.85269 0.332409 0
M  V30 14491 H 1358.86 4.05887 -0.0322011 0
M  V30 14492 H 1359.62 4.14753 -2.51405 0
M  V30 14493 H 1355.5 4.41759 -1.31795 0
M  V30 14494 H 1359.05 5.16596 -4.68801 0
M  V30 14495 H 1354.94 5.4347 -3.48296 0
M  V30 14496 H 1355.71 6.11052 -5.44571 0
M  V30 14497 N 1358.37 0.56548 1.47106 0
M  V30 14498 C 1359.3 -0.16567 2.32912 0
M  V30 14499 C 1360.28 -0.900678 1.44298 0
M  V30 14500 O 1361.47 -0.879523 1.73142 0
M  V30 14501 C 1358.6 -1.19092 3.26243 0
M  V30 14502 C 1357.55 -0.571849 4.24163 0
M  V30 14503 C 1356.88 -1.70233 5.06878 0
M  V30 14504 C 1358.18 0.479785 5.20092 0
M  V30 14505 H 1359.87 0.550705 2.94292 0
M  V30 14506 H 1357.42 0.266284 1.41517 0
M  V30 14507 H 1359.37 -1.71064 3.85117 0
M  V30 14508 H 1358.1 -1.93734 2.62934 0
M  V30 14509 H 1356.76 -0.073353 3.66527 0
M  V30 14510 H 1356.4 -2.438 4.39967 0
M  V30 14511 H 1356.1 -1.29384 5.73178 0
M  V30 14512 H 1357.63 -2.22515 5.68612 0
M  V30 14513 H 1359.04 0.0458042 5.73282 0
M  V30 14514 H 1357.44 0.807615 5.94641 0
M  V30 14515 H 1358.51 1.37259 4.65068 0
M  V30 14516 N 1359.85 -1.54672 0.302354 0
M  V30 14517 C 1361.08 -2.04578 -0.309093 0
M  V30 14518 C 1361.5 -1.17957 -1.47416 0
M  V30 14519 O 1360.85 -0.2055 -1.81339 0
M  V30 14520 C 1360.9 -3.53334 -0.764023 0
M  V30 14521 O 1360.62 -4.36662 0.354674 0
M  V30 14522 C 1362.13 -4.19243 -1.44048 0
M  V30 14523 H 1359.35 -0.667651 -0.0669575 0
M  V30 14524 H 1361.89 -1.99658 0.442379 0
M  V30 14525 H 1360.04 -3.5861 -1.46552 0
M  V30 14526 H 1360.46 -5.245 0.000241188 0
M  V30 14527 H 1361.93 -5.24847 -1.70995 0
M  V30 14528 H 1362.41 -3.69061 -2.38098 0
M  V30 14529 H 1363.02 -4.18046 -0.782132 0
M  V30 14530 N 1361.33 -0.0301034 -1.57571 0
M  V30 14531 C 1362.58 0.647672 -1.91019 0
M  V30 14532 C 1362.89 1.73234 -0.908265 0
M  V30 14533 O 1364.1 2.46682 -1.13402 0
M  V30 14534 C 1362.55 1.20327 -3.3919 0
M  V30 14535 C 1362.16 0.151833 -4.47743 0
M  V30 14536 C 1363.91 1.8575 -3.81703 0
M  V30 14537 C 1361.81 0.719119 -5.87012 0
M  V30 14538 H 1360.74 0.245682 -0.712851 0
M  V30 14539 H 1363.39 -0.0955645 -1.83251 0
M  V30 14540 H 1361.78 1.99814 -3.41892 0
M  V30 14541 H 1362.95 -0.620659 -4.56601 0
M  V30 14542 H 1361.27 -0.403699 -4.14438 0
M  V30 14543 H 1363.86 2.29151 -4.83109 0
M  V30 14544 H 1364.21 2.70061 -3.16817 0
M  V30 14545 H 1364.74 1.1295 -3.81428 0
M  V30 14546 H 1361.48 -0.0858832 -6.55444 0
M  V30 14547 H 1361 1.46008 -5.81758 0
M  V30 14548 H 1362.68 1.20856 -6.35612 0
M  V30 14549 N 1362.81 1.55714 0.243056 0
M  V30 14550 C 1363.74 1.87093 1.32396 0
M  V30 14551 C 1364.75 0.757482 1.44104 0
M  V30 14552 O 1365.94 1.03563 1.45386 0
M  V30 14553 C 1363.04 2.04546 2.70212 0
M  V30 14554 C 1362.22 3.3543 2.80723 0
M  V30 14555 C 1361.27 3.42578 3.99408 0
M  V30 14556 O 1360.3 4.15762 3.88755 0
M  V30 14557 N 1361.5 2.7215 5.12752 0
M  V30 14558 H 1364.27 2.80399 1.05813 0
M  V30 14559 H 1361.83 1.55998 0.433151 0
M  V30 14560 H 1363.82 2.06665 3.47954 0
M  V30 14561 H 1362.39 1.17966 2.89487 0
M  V30 14562 H 1361.61 3.45594 1.89626 0
M  V30 14563 H 1362.9 4.21692 2.84698 0
M  V30 14564 H 1362.3 2.1243 5.24299 0
M  V30 14565 H 1360.85 2.79957 5.88615 0
M  V30 14566 N 1364.29 -0.50888 1.49158 0
M  V30 14567 C 1365.53 -1.26537 1.58481 0
M  V30 14568 C 1365.87 -1.92353 0.267168 0
M  V30 14569 O 1365.14 -1.80336 -0.728639 0
M  V30 14570 C 1365.42 -2.33846 2.73839 0
M  V30 14571 C 1365.28 -1.72582 4.15374 0
M  V30 14572 C 1366.6 -3.35467 2.84868 0
M  V30 14573 H 1363.71 -0.458697 0.576859 0
M  V30 14574 H 1366.36 -0.564728 1.81413 0
M  V30 14575 H 1364.51 -2.93605 2.54417 0
M  V30 14576 H 1366.18 -1.16711 4.46292 0
M  V30 14577 H 1364.42 -1.03025 4.21389 0
M  V30 14578 H 1365.09 -2.5038 4.91949 0
M  V30 14579 H 1367.57 -2.85689 3.02524 0
M  V30 14580 H 1366.44 -4.07922 3.67275 0
M  V30 14581 H 1366.71 -3.97313 1.93894 0
M  V30 14582 N 1365.76 -1.381 -0.759346 0
M  V30 14583 C 1367.18 -1.30379 -1.33635 0
M  V30 14584 C 1367.53 0.0430279 -1.96153 0
M  V30 14585 O 1366.65 0.945029 -1.94675 0
M  V30 14586 C 1367.25 -2.3611 -2.42976 0
M  V30 14587 C 1365.81 -2.31985 -2.96412 0
M  V30 14588 C 1364.95 -2.19281 -1.69739 0
M  V30 14589 H 1367.9 -1.48542 -0.558656 0
M  V30 14590 H 1367.92 -2.01493 -3.22771 0
M  V30 14591 H 1367.44 -3.34122 -1.97445 0
M  V30 14592 H 1365.54 -1.37536 -3.46287 0
M  V30 14593 H 1365.65 -3.25895 -3.51183 0
M  V30 14594 H 1364.01 -1.66035 -1.93144 0
M  V30 14595 H 1364.8 -3.19225 -1.26293 0
M  V30 14596 N 1367.24 0.986894 -1.22875 0
M  V30 14597 C 1368.49 1.72152 -1.05103 0
M  V30 14598 C 1368.8 1.91185 0.413248 0
M  V30 14599 O 1370.01 2.62031 0.710759 0
M  V30 14600 C 1368.47 3.09771 -1.8322 0
M  V30 14601 C 1368.07 2.98648 -3.33936 0
M  V30 14602 C 1369.82 3.87238 -1.73917 0
M  V30 14603 C 1367.73 4.31459 -4.04471 0
M  V30 14604 H 1366.66 0.645498 -0.389677 0
M  V30 14605 H 1369.31 1.10125 -1.46781 0
M  V30 14606 H 1367.69 3.72515 -1.34345 0
M  V30 14607 H 1368.86 2.45033 -3.9025 0
M  V30 14608 H 1367.18 2.34661 -3.43982 0
M  V30 14609 H 1369.77 4.85549 -2.23933 0
M  V30 14610 H 1370.12 4.1036 -0.700711 0
M  V30 14611 H 1370.65 3.31183 -2.20369 0
M  V30 14612 H 1367.39 4.13534 -5.08596 0
M  V30 14613 H 1366.91 4.84964 -3.52944 0
M  V30 14614 H 1368.59 5.00179 -4.10403 0
M  V30 14615 N 1368.72 1.0394 1.18466 0
M  V30 14616 C 1369.68 0.633804 2.20262 0
M  V30 14617 C 1370.68 -0.308136 1.5782 0
M  V30 14618 O 1371.87 -0.0937087 1.73948 0
M  V30 14619 C 1369.01 -0.0709693 3.40826 0
M  V30 14620 H 1370.2 1.53463 2.57661 0
M  V30 14621 H 1367.75 0.831806 1.32328 0
M  V30 14622 H 1368.49 -0.985659 3.08958 0
M  V30 14623 H 1368.27 0.606023 3.87388 0
M  V30 14624 H 1369.76 -0.341298 4.16203 0
M  V30 14625 N 1370.2 -1.34667 0.818693 0
M  V30 14626 C 1371.42 -2.03173 0.416585 0
M  V30 14627 C 1371.85 -1.61261 -0.968321 0
M  V30 14628 O 1371.21 -0.79517 -1.62932 0
M  V30 14629 C 1371.25 -3.56803 0.521884 0
M  V30 14630 O 1370.36 -4.09827 -0.459953 0
M  V30 14631 H 1369.7 -0.6413 0.172136 0
M  V30 14632 H 1372.23 -1.72006 1.10794 0
M  V30 14633 H 1372.24 -4.06073 0.3961 0
M  V30 14634 H 1370.91 -3.86656 1.53198 0
M  V30 14635 H 1369.49 -3.71744 -0.293405 0
M  V30 14636 N 1371.68 -0.573274 -1.46804 0
M  V30 14637 C 1372.59 0.168081 -2.33997 0
M  V30 14638 C 1373.6 0.895652 -1.49178 0
M  V30 14639 O 1374.78 0.860951 -1.8207 0
M  V30 14640 C 1371.84 1.17483 -3.26188 0
M  V30 14641 C 1370.9 0.452956 -4.26904 0
M  V30 14642 C 1370.14 1.41175 -5.1469 0
M  V30 14643 O 1370.36 2.64767 -5.05227 0
M  V30 14644 O 1369.29 0.927472 -5.94711 0
M  V30 14645 H 1373.12 -0.547576 -2.98723 0
M  V30 14646 H 1370.71 -0.333747 -1.45624 0
M  V30 14647 H 1372.59 1.75557 -3.8309 0
M  V30 14648 H 1371.26 1.87213 -2.6407 0
M  V30 14649 H 1370.17 -0.169383 -3.73716 0
M  V30 14650 H 1371.5 -0.203186 -4.9178 0
M  V30 14651 N 1373.15 1.5451 -0.310553 0
M  V30 14652 C 1374.06 2.27557 0.570518 0
M  V30 14653 C 1375.08 1.31426 1.14032 0
M  V30 14654 O 1376.26 1.64423 1.16306 0
M  V30 14655 C 1373.32 3.00933 1.72163 0
M  V30 14656 C 1372.38 4.12623 1.18495 0
M  V30 14657 C 1371.62 4.8249 2.28121 0
M  V30 14658 O 1371.84 4.5178 3.48211 0
M  V30 14659 O 1370.77 5.69686 1.94273 0
M  V30 14660 H 1374.6 3.03692 -0.0223195 0
M  V30 14661 H 1372.18 1.49203 -0.0766821 0
M  V30 14662 H 1374.07 3.46925 2.39208 0
M  V30 14663 H 1372.74 2.27685 2.3009 0
M  V30 14664 H 1371.65 3.71008 0.479956 0
M  V30 14665 H 1372.98 4.87876 0.650994 0
M  V30 14666 N 1374.63 0.0384594 1.57553 0
M  V30 14667 C 1375.86 -0.651613 1.96898 0
M  V30 14668 C 1376.28 -1.64328 0.915308 0
M  V30 14669 O 1375.64 -1.80883 -0.122824 0
M  V30 14670 C 1375.69 -1.32613 3.3533 0
M  V30 14671 O 1374.79 -2.44159 3.32355 0
M  V30 14672 H 1374.13 -0.170441 0.641752 0
M  V30 14673 H 1376.66 0.103086 2.0434 0
M  V30 14674 H 1376.67 -1.68076 3.71772 0
M  V30 14675 H 1375.35 -0.599275 4.1156 0
M  V30 14676 H 1373.93 -2.10738 3.07642 0
M  V30 14677 N 1376.11 -1.55841 -0.234795 0
M  V30 14678 C 1377.39 -1.69008 -0.984665 0
M  V30 14679 C 1377.77 -0.581882 -2.02922 0
M  V30 14680 O 1377.12 0.412998 -2.24737 0
M  V30 14681 C 1377.33 -3.09796 -1.60708 0
M  V30 14682 C 1378.67 -3.68784 -2.10436 0
M  V30 14683 O 1379.7 -3.12674 -1.70627 0
M  V30 14684 O 1378.56 -4.67175 -2.83567 0
M  V30 14685 H 1375.65 -0.68786 -0.459105 0
M  V30 14686 H 1378.2 -1.68166 -0.227623 0
M  V30 14687 H 1376.97 -3.81908 -0.852169 0
M  V30 14688 H 1376.59 -3.147 -2.43001 0
M  V30 14689 N 1377.59 0.500963 -1.49426 0
M  V30 14690 C 1378.52 1.61114 -1.69011 0
M  V30 14691 C 1379.5 1.61341 -0.538813 0
M  V30 14692 O 1380.69 1.78081 -0.77466 0
M  V30 14693 C 1377.82 2.99598 -1.75666 0
M  V30 14694 C 1376.77 3.14236 -2.90585 0
M  V30 14695 C 1376.1 4.54071 -2.82354 0
M  V30 14696 C 1377.4 2.94258 -4.3152 0
M  V30 14697 H 1379.09 1.44978 -2.61957 0
M  V30 14698 H 1376.64 0.69603 -1.26061 0
M  V30 14699 H 1378.59 3.77163 -1.87953 0
M  V30 14700 H 1377.31 3.16822 -0.793186 0
M  V30 14701 H 1375.97 2.39096 -2.779 0
M  V30 14702 H 1375.62 4.68172 -1.83914 0
M  V30 14703 H 1375.32 4.64806 -3.59485 0
M  V30 14704 H 1376.84 5.33696 -2.96649 0
M  V30 14705 H 1378.26 3.61592 -4.44886 0
M  V30 14706 H 1376.65 3.16464 -5.09873 0
M  V30 14707 H 1377.72 1.90383 -4.45962 0
M  V30 14708 N 1379.07 1.38501 0.752011 0
M  V30 14709 C 1379.98 1.38094 1.8965 0
M  V30 14710 C 1380.99 0.277851 1.71767 0
M  V30 14711 O 1382.17 0.516536 1.94663 0
M  V30 14712 C 1379.23 1.2063 3.25037 0
M  V30 14713 C 1378.3 2.40758 3.55435 0
M  V30 14714 C 1377.53 2.24118 4.84362 0
M  V30 14715 O 1377.75 1.23571 5.56854 0
M  V30 14716 O 1376.69 3.12741 5.14273 0
M  V30 14717 H 1380.51 2.34532 1.92947 0
M  V30 14718 H 1378.1 1.19437 0.897504 0
M  V30 14719 H 1379.98 1.12957 4.05979 0
M  V30 14720 H 1378.65 0.272785 3.22549 0
M  V30 14721 H 1377.56 2.54006 2.74648 0
M  V30 14722 H 1378.89 3.32745 3.62686 0
M  V30 14723 N 1380.55 -0.980364 1.23396 0
M  V30 14724 C 1381.48 -2.07099 0.958403 0
M  V30 14725 C 1382.46 -1.62272 -0.1033 0
M  V30 14726 O 1383.64 -1.88475 0.0309639 0
M  V30 14727 C 1380.77 -3.35779 0.443864 0
M  V30 14728 C 1379.81 -3.99545 1.49218 0
M  V30 14729 S 1380.65 -4.3879 3.06958 0
M  V30 14730 C 1381.8 -5.70624 2.57174 0
M  V30 14731 H 1382.04 -2.30154 1.88192 0
M  V30 14732 H 1379.57 -1.11656 1.06641 0
M  V30 14733 H 1381.53 -4.10213 0.153603 0
M  V30 14734 H 1380.19 -3.10732 -0.458738 0
M  V30 14735 H 1379.38 -4.92242 1.0823 0
M  V30 14736 H 1378.98 -3.31489 1.73179 0
M  V30 14737 H 1381.27 -6.47555 1.99197 0
M  V30 14738 H 1382.22 -6.16454 3.48411 0
M  V30 14739 H 1382.63 -5.28626 1.98028 0
M  V30 14740 N 1382.02 -1.04567 -1.17913 0
M  V30 14741 C 1383.43 -0.779118 -1.69666 0
M  V30 14742 C 1383.79 0.699448 -1.83309 0
M  V30 14743 O 1382.91 1.54407 -1.51616 0
M  V30 14744 C 1383.51 -1.40769 -3.08171 0
M  V30 14745 C 1382.06 -1.18933 -3.57116 0
M  V30 14746 C 1381.21 -1.49519 -2.33536 0
M  V30 14747 H 1384.16 -1.21144 -1.02518 0
M  V30 14748 H 1384.18 -0.813584 -3.717 0
M  V30 14749 H 1383.7 -2.4838 -2.9821 0
M  V30 14750 H 1381.8 -0.132184 -3.72365 0
M  V30 14751 H 1381.91 -1.88987 -4.40251 0
M  V30 14752 H 1380.27 -0.915056 -2.37695 0
M  V30 14753 H 1381.06 -2.5825 -2.26189 0
M  V30 14754 N 1383.5 1.34231 -0.825823 0
M  V30 14755 C 1384.73 2.02417 -0.428348 0
M  V30 14756 C 1385.14 1.62181 0.966573 0
M  V30 14757 O 1384.5 0.828691 1.62601 0
M  V30 14758 C 1384.55 3.57678 -0.524271 0
M  V30 14759 O 1384.27 3.96458 -1.86422 0
M  V30 14760 C 1385.77 4.43132 -0.122069 0
M  V30 14761 H 1382.99 0.648699 -0.171554 0
M  V30 14762 H 1385.54 1.71443 -1.11478 0
M  V30 14763 H 1383.69 3.87232 0.114112 0
M  V30 14764 H 1384.11 4.91147 -1.84051 0
M  V30 14765 H 1385.58 5.51477 -0.240264 0
M  V30 14766 H 1386.06 4.29139 0.934705 0
M  V30 14767 H 1386.66 4.18912 -0.734366 0
M  V30 14768 N 1384.98 0.581051 1.46498 0
M  V30 14769 C 1385.89 -0.155669 2.34083 0
M  V30 14770 C 1386.91 -0.887728 1.49651 0
M  V30 14771 O 1388.08 -0.851284 1.82524 0
M  V30 14772 C 1385.15 -1.15752 3.26806 0
M  V30 14773 C 1384.21 -0.43031 4.27138 0
M  V30 14774 C 1383.44 -1.38443 5.15431 0
M  V30 14775 O 1383.66 -2.62084 5.06624 0
M  V30 14776 O 1382.6 -0.89592 5.95195 0
M  V30 14777 H 1386.42 0.56341 2.98428 0
M  V30 14778 H 1384.01 0.341466 1.45445 0
M  V30 14779 H 1385.89 -1.73523 3.84015 0
M  V30 14780 H 1384.57 -1.85809 2.65059 0
M  V30 14781 H 1383.47 0.1892 3.73621 0
M  V30 14782 H 1384.81 0.229263 4.91666 0
M  V30 14783 N 1386.46 -1.54343 0.318742 0
M  V30 14784 C 1387.37 -2.27856 -0.558442 0
M  V30 14785 C 1388.38 -1.32029 -1.13333 0
M  V30 14786 O 1389.56 -1.65037 -1.15433 0
M  V30 14787 C 1386.62 -3.01842 -1.70565 0
M  V30 14788 C 1385.69 -4.13245 -1.16305 0
M  V30 14789 C 1384.92 -4.83693 -2.25559 0
M  V30 14790 O 1385.14 -4.53621 -3.4581 0
M  V30 14791 O 1384.08 -5.70708 -1.91249 0
M  V30 14792 H 1387.9 -3.03676 0.0384247 0
M  V30 14793 H 1385.49 -1.4916 0.0845936 0
M  V30 14794 H 1387.37 -3.48189 -2.37365 0
M  V30 14795 H 1386.04 -2.28902 -2.28879 0
M  V30 14796 H 1384.95 -3.71258 -0.460274 0
M  V30 14797 H 1386.28 -4.88214 -0.625111 0
M  V30 14798 N 1387.94 -0.0468143 -1.5753 0
M  V30 14799 C 1388.85 0.944362 -2.14753 0
M  V30 14800 C 1389.86 1.34473 -1.10422 0
M  V30 14801 O 1391.04 1.42254 -1.42569 0
M  V30 14802 C 1388.1 2.2023 -2.67768 0
M  V30 14803 C 1387.16 1.8607 -3.8688 0
M  V30 14804 C 1386.4 3.05867 -4.37357 0
M  V30 14805 O 1386.62 4.19099 -3.86927 0
M  V30 14806 O 1385.55 2.87134 -5.28997 0
M  V30 14807 H 1389.38 0.48772 -2.99758 0
M  V30 14808 H 1386.96 0.174831 -1.48374 0
M  V30 14809 H 1388.85 2.94044 -3.01855 0
M  V30 14810 H 1387.52 2.65041 -1.85836 0
M  V30 14811 H 1386.43 1.09586 -3.5769 0
M  V30 14812 H 1387.76 1.46062 -4.70028 0
M  V30 14813 N 1389.41 1.55964 0.226527 0
M  V30 14814 C 1390.64 1.82823 0.968673 0
M  V30 14815 C 1391.06 0.625281 1.78145 0
M  V30 14816 O 1390.41 -0.40617 1.77923 0
M  V30 14817 C 1390.47 3.08143 1.89024 0
M  V30 14818 O 1390.19 4.23797 1.11032 0
M  V30 14819 C 1391.69 3.47954 2.74669 0
M  V30 14820 H 1388.91 0.607876 0.284126 0
M  V30 14821 H 1391.45 2.03048 0.243258 0
M  V30 14822 H 1389.61 2.89908 2.56967 0
M  V30 14823 H 1390.02 4.94957 1.73546 0
M  V30 14824 H 1391.49 4.38691 3.35044 0
M  V30 14825 H 1391.97 2.69476 3.46813 0
M  V30 14826 H 1392.58 3.6861 2.12147 0
M  V30 14827 N 1390.89 -0.493031 1.4969 0
M  V30 14828 C 1392.17 -1.25436 1.50084 0
M  V30 14829 C 1392.55 -2.0981 0.233038 0
M  V30 14830 O 1391.9 -2.14617 -0.784342 0
M  V30 14831 C 1392.11 -2.10425 2.78428 0
M  V30 14832 C 1393.46 -2.69349 3.28232 0
M  V30 14833 O 1394.48 -2.20686 2.796 0
M  V30 14834 O 1393.34 -3.57956 4.12953 0
M  V30 14835 H 1390.43 -0.568044 0.601045 0
M  V30 14836 H 1392.98 -0.506648 1.6196 0
M  V30 14837 H 1391.75 -1.48108 3.62187 0
M  V30 14838 H 1391.37 -2.92374 2.6945 0
M  V30 14839 N 1392.37 -1.38898 -0.744656 0
M  V30 14840 C 1393.6 -1.38848 -1.53391 0
M  V30 14841 C 1394.01 0.0194949 -1.8879 0
M  V30 14842 O 1393.37 0.988399 -1.53417 0
M  V30 14843 C 1393.42 -2.25243 -2.8275 0
M  V30 14844 O 1393.14 -3.60557 -2.48858 0
M  V30 14845 C 1394.64 -2.33471 -3.76837 0
M  V30 14846 H 1391.86 -0.4746 -0.474338 0
M  V30 14847 H 1394.41 -1.82591 -0.920902 0
M  V30 14848 H 1392.56 -1.84938 -3.40407 0
M  V30 14849 H 1392.98 -4.06142 -3.31887 0
M  V30 14850 H 1394.45 -2.9819 -4.64528 0
M  V30 14851 H 1394.93 -1.351 -4.17905 0
M  V30 14852 H 1395.53 -2.74205 -3.25103 0
M  V30 14853 N 1393.85 0.973806 -1.23914 0
M  V30 14854 C 1395.1 1.71598 -1.07519 0
M  V30 14855 C 1395.42 1.90613 0.386926 0
M  V30 14856 O 1394.68 1.46056 1.30254 0
M  V30 14857 C 1394.98 3.11441 -1.75326 0
M  V30 14858 C 1394.64 3.12286 -3.25251 0
M  V30 14859 C 1393.31 3.12224 -3.66155 0
M  V30 14860 C 1395.66 3.0709 -4.21124 0
M  V30 14861 C 1392.99 3.0469 -5.01379 0
M  V30 14862 C 1395.34 3.01098 -5.56348 0
M  V30 14863 C 1394 2.99362 -5.96606 0
M  V30 14864 H 1393.27 0.627922 -0.39344 0
M  V30 14865 H 1395.92 1.13912 -1.53936 0
M  V30 14866 H 1394.22 3.72555 -1.21286 0
M  V30 14867 H 1395.92 3.67649 -1.60111 0
M  V30 14868 H 1392.51 3.13096 -2.92693 0
M  V30 14869 H 1396.69 3.06272 -3.90527 0
M  V30 14870 H 1391.95 3.01703 -5.31776 0
M  V30 14871 H 1396.12 2.96036 -6.30346 0
M  V30 14872 H 1393.75 2.93279 -7.0135 0
M  V30 14873 N 1395.33 1.05191 1.17357 0
M  V30 14874 C 1396.55 0.782343 1.92079 0
M  V30 14875 C 1396.98 -0.655957 1.76292 0
M  V30 14876 O 1396.33 -1.45573 1.08065 0
M  V30 14877 C 1396.38 1.16777 3.41168 0
M  V30 14878 O 1395.49 0.299908 4.11308 0
M  V30 14879 H 1394.83 0.286894 0.598822 0
M  V30 14880 H 1397.36 1.40476 1.48754 0
M  V30 14881 H 1397.37 1.13454 3.91909 0
M  V30 14882 H 1396.04 2.2155 3.51978 0
M  V30 14883 H 1394.62 0.393744 3.70815 0
M  V30 14884 N 1396.8 -1.33791 0.83293 0
M  V30 14885 C 1397.71 -2.33108 0.264169 0
M  V30 14886 C 1398.73 -1.6308 -0.606694 0
M  V30 14887 O 1399.91 -1.94777 -0.512225 0
M  V30 14888 C 1396.97 -3.42208 -0.556315 0
M  V30 14889 C 1396.03 -4.27966 0.338123 0
M  V30 14890 C 1395.27 -5.31856 -0.443297 0
M  V30 14891 O 1395.49 -5.45234 -1.6756 0
M  V30 14892 O 1394.42 -6.01632 0.179599 0
M  V30 14893 H 1398.25 -2.83602 1.08645 0
M  V30 14894 H 1395.83 -1.37027 0.595307 0
M  V30 14895 H 1397.72 -4.088 -1.02277 0
M  V30 14896 H 1396.39 -2.9394 -1.35575 0
M  V30 14897 H 1395.3 -3.64262 0.852293 0
M  V30 14898 H 1396.63 -4.79701 1.10217 0
M  V30 14899 N 1398.28 -0.588812 -1.46187 0
M  V30 14900 C 1399.69 -0.163897 -1.85979 0
M  V30 14901 C 1400.04 1.27458 -1.49161 0
M  V30 14902 O 1399.17 1.96365 -0.909372 0
M  V30 14903 C 1399.76 -0.29067 -3.37551 0
M  V30 14904 C 1398.32 0.0794165 -3.76316 0
M  V30 14905 C 1397.47 -0.623807 -2.70192 0
M  V30 14906 H 1400.42 -0.79666 -1.37255 0
M  V30 14907 H 1400.44 0.482316 -3.77431 0
M  V30 14908 H 1399.95 -1.33771 -3.64317 0
M  V30 14909 H 1398.06 1.12636 -3.55168 0
M  V30 14910 H 1398.17 -0.301153 -4.78153 0
M  V30 14911 H 1396.53 -0.0634124 -2.54621 0
M  V30 14912 H 1397.32 -1.67261 -2.99797 0
M  V30 14913 N 1399.76 1.54172 -0.326923 0
M  V30 14914 C 1400.67 2.28149 0.546351 0
M  V30 14915 C 1401.69 1.32628 1.12631 0
M  V30 14916 O 1402.86 1.65647 1.14556 0
M  V30 14917 C 1399.93 3.02742 1.68962 0
M  V30 14918 C 1398.99 4.13856 1.14112 0
M  V30 14919 C 1398.22 4.84882 2.2299 0
M  V30 14920 O 1398.44 4.55448 3.43399 0
M  V30 14921 O 1397.38 5.71714 1.8822 0
M  V30 14922 H 1401.2 3.03651 -0.0545288 0
M  V30 14923 H 1398.79 1.49113 -0.0925027 0
M  V30 14924 H 1400.67 3.49443 2.35515 0
M  V30 14925 H 1399.35 2.30113 2.27662 0
M  V30 14926 H 1398.25 3.71497 0.440579 0
M  V30 14927 H 1399.59 4.88539 0.599211 0
M  V30 14928 N 1401.24 0.0551678 1.57503 0
M  V30 14929 C 1402.52 -0.657808 1.84207 0
M  V30 14930 C 1402.9 -1.88798 0.944372 0
M  V30 14931 O 1402.24 -2.28499 0.00641728 0
M  V30 14932 C 1402.45 -1.0113 3.34026 0
M  V30 14933 C 1403.8 -1.39189 4.01138 0
M  V30 14934 O 1404.83 -1.10353 3.38675 0
M  V30 14935 O 1403.68 -1.93023 5.11277 0
M  V30 14936 H 1400.78 -0.325084 0.760427 0
M  V30 14937 H 1403.32 0.0848352 1.69488 0
M  V30 14938 H 1402.1 -0.13688 3.91061 0
M  V30 14939 H 1401.72 -1.81126 3.53948 0
M  V30 14940 N 1402.72 -1.56081 -0.218252 0
M  V30 14941 C 1403.94 -1.83681 -0.963119 0
M  V30 14942 C 1404.37 -0.635909 -1.77025 0
M  V30 14943 O 1403.72 0.415327 -1.76479 0
M  V30 14944 C 1403.77 -3.09302 -1.85376 0
M  V30 14945 O 1402.88 -2.88228 -2.94955 0
M  V30 14946 H 1402.22 -0.605495 -0.272529 0
M  V30 14947 H 1404.75 -2.03297 -0.230567 0
M  V30 14948 H 1404.76 -3.39493 -2.26294 0
M  V30 14949 H 1403.43 -3.96337 -1.26054 0
M  V30 14950 H 1402.01 -2.69279 -2.57959 0
M  V30 14951 N 1404.2 0.485086 -1.49949 0
M  V30 14952 C 1405.14 1.5848 -1.67788 0
M  V30 14953 C 1406.11 1.57776 -0.519216 0
M  V30 14954 O 1407.3 1.75521 -0.748141 0
M  V30 14955 C 1404.44 2.9654 -1.76516 0
M  V30 14956 C 1403.55 3.07139 -3.03792 0
M  V30 14957 C 1402.69 4.36029 -3.03401 0
M  V30 14958 C 1401.72 4.40318 -4.2519 0
M  V30 14959 N 1400.86 5.60659 -4.22618 0
M  V30 14960 H 1405.7 1.42575 -2.6168 0
M  V30 14961 H 1403.24 0.693426 -1.29731 0
M  V30 14962 H 1405.2 3.76583 -1.79557 0
M  V30 14963 H 1403.83 3.11112 -0.860764 0
M  V30 14964 H 1402.88 2.20057 -3.10289 0
M  V30 14965 H 1404.19 3.06167 -3.9378 0
M  V30 14966 H 1403.34 5.24407 -3.05094 0
M  V30 14967 H 1402.08 4.39588 -2.11219 0
M  V30 14968 H 1401.09 3.50339 -4.23725 0
M  V30 14969 H 1402.31 4.38461 -5.18583 0
M  V30 14970 H 1400.26 5.6503 -3.33282 0
M  V30 14971 H 1400.18 5.61371 -5.06359 0
M  V30 14972 H 1401.44 6.51201 -4.28436 0
M  V30 14973 N 1405.67 1.39291 0.737279 0
M  V30 14974 C 1406.62 1.37829 1.85127 0
M  V30 14975 C 1407.59 0.238321 1.64381 0
M  V30 14976 O 1408.78 0.433081 1.8582 0
M  V30 14977 C 1405.92 1.22531 3.22615 0
M  V30 14978 C 1405.03 2.46052 3.55081 0
M  V30 14979 C 1404.16 2.2336 4.81958 0
M  V30 14980 C 1403.2 3.42569 5.0726 0
M  V30 14981 N 1402.34 3.19209 6.2534 0
M  V30 14982 H 1407.18 2.33056 1.85712 0
M  V30 14983 H 1404.72 1.15772 0.907484 0
M  V30 14984 H 1406.67 1.11673 4.01976 0
M  V30 14985 H 1405.3 0.30934 3.21314 0
M  V30 14986 H 1404.36 2.67521 2.70438 0
M  V30 14987 H 1405.67 3.3485 3.69698 0
M  V30 14988 H 1404.82 2.09732 5.69295 0
M  V30 14989 H 1403.56 1.31953 4.6951 0
M  V30 14990 H 1402.57 3.56698 4.18386 0
M  V30 14991 H 1403.79 4.34874 5.21595 0
M  V30 14992 H 1401.74 2.30464 6.14184 0
M  V30 14993 H 1401.65 4.01562 6.40534 0
M  V30 14994 H 1402.92 3.09269 7.15523 0
M  V30 14995 N 1407.15 -0.967221 1.24429 0
M  V30 14996 C 1408.56 -1.52488 1.07723 0
M  V30 14997 C 1408.91 -1.93031 -0.351191 0
M  V30 14998 O 1408.04 -1.77376 -1.23963 0
M  V30 14999 C 1408.63 -2.77107 1.94929 0
M  V30 15000 C 1407.19 -3.29227 1.82446 0
M  V30 15001 C 1406.34 -2.02133 1.89835 0
M  V30 15002 H 1409.29 -0.785465 1.37899 0
M  V30 15003 H 1409.31 -3.50459 1.48186 0
M  V30 15004 H 1408.82 -2.47567 2.98885 0
M  V30 15005 H 1406.92 -3.63617 0.813246 0
M  V30 15006 H 1407.04 -3.98095 2.66566 0
M  V30 15007 H 1405.4 -2.16867 1.3357 0
M  V30 15008 H 1406.18 -1.74958 2.95372 0
M  V30 15009 N 1408.63 -1.05812 -1.16797 0
M  V30 15010 C 1410.04 -0.79707 -1.6883 0
M  V30 15011 C 1410.39 0.679967 -1.8404 0
M  V30 15012 O 1409.52 1.5279 -1.53245 0
M  V30 15013 C 1410.11 -1.44029 -3.06661 0
M  V30 15014 C 1408.67 -1.22714 -3.55835 0
M  V30 15015 C 1407.82 -1.51988 -2.31937 0
M  V30 15016 H 1410.77 -1.22224 -1.01227 0
M  V30 15017 H 1410.79 -0.852962 -3.70816 0
M  V30 15018 H 1410.3 -2.51529 -2.95559 0
M  V30 15019 H 1408.4 -0.171671 -3.72204 0
M  V30 15020 H 1408.52 -1.93646 -4.38221 0
M  V30 15021 H 1406.88 -0.940215 -2.36711 0
M  V30 15022 H 1407.66 -2.60635 -2.23438 0
M  V30 15023 N 1410.11 1.33347 -0.840014 0
M  V30 15024 C 1411.04 2.28029 -0.231432 0
M  V30 15025 C 1412.05 1.51792 0.588488 0
M  V30 15026 O 1413.24 1.736 0.415371 0
M  V30 15027 C 1410.34 3.31745 0.692721 0
M  V30 15028 C 1409.51 4.37311 -0.0881144 0
M  V30 15029 C 1408.57 5.20689 0.759557 0
M  V30 15030 O 1407.6 5.68854 0.198347 0
M  V30 15031 N 1408.8 5.42082 2.07672 0
M  V30 15032 H 1411.57 2.80893 -1.04495 0
M  V30 15033 H 1409.13 1.46053 -0.698586 0
M  V30 15034 H 1411.12 3.84428 1.2648 0
M  V30 15035 H 1409.69 2.79148 1.40695 0
M  V30 15036 H 1408.91 3.85112 -0.841579 0
M  V30 15037 H 1410.2 5.04947 -0.624986 0
M  V30 15038 H 1409.6 5.04654 2.55619 0
M  V30 15039 H 1408.15 5.97817 2.59726 0
M  V30 15040 N 1411.59 0.596556 1.45873 0
M  V30 15041 C 1413 0.173758 1.8589 0
M  V30 15042 C 1413.35 -1.26665 1.49835 0
M  V30 15043 O 1412.47 -1.9588 0.919773 0
M  V30 15044 C 1413.07 0.308567 3.37392 0
M  V30 15045 C 1411.63 -0.0594585 3.76353 0
M  V30 15046 C 1410.77 0.638127 2.69858 0
M  V30 15047 H 1413.72 0.803928 1.36831 0
M  V30 15048 H 1413.75 -0.462294 3.77681 0
M  V30 15049 H 1413.26 1.35701 3.63603 0
M  V30 15050 H 1411.36 -1.1075 3.5576 0
M  V30 15051 H 1411.47 0.326506 4.77986 0
M  V30 15052 H 1409.84 0.0769147 2.54584 0
M  V30 15053 H 1410.62 1.68849 2.98906 0
M  V30 15054 N 1413.06 -1.53996 0.335095 0
M  V30 15055 C 1413.99 -2.2768 -0.518087 0
M  V30 15056 C 1414.97 -1.28915 -1.10972 0
M  V30 15057 O 1416.16 -1.57745 -1.1327 0
M  V30 15058 C 1413.29 -3.04327 -1.67339 0
M  V30 15059 C 1412.24 -4.10525 -1.2105 0
M  V30 15060 C 1411.57 -4.75078 -2.45366 0
M  V30 15061 C 1412.87 -5.21337 -0.317055 0
M  V30 15062 H 1414.56 -2.99244 0.0965669 0
M  V30 15063 H 1412.11 -1.4392 0.0478842 0
M  V30 15064 H 1414.06 -3.54608 -2.27664 0
M  V30 15065 H 1412.79 -2.30399 -2.31481 0
M  V30 15066 H 1411.45 -3.61144 -0.630124 0
M  V30 15067 H 1411.09 -3.97754 -3.07897 0
M  V30 15068 H 1410.79 -5.46822 -2.1508 0
M  V30 15069 H 1412.32 -5.2814 -3.06432 0
M  V30 15070 H 1413.73 -5.67305 -0.826905 0
M  V30 15071 H 1412.13 -6.00006 -0.106458 0
M  V30 15072 H 1413.2 -4.80536 0.649068 0
M  V30 15073 N 1414.54 -0.0635198 -1.57472 0
M  V30 15074 C 1415.77 0.615841 -1.97208 0
M  V30 15075 C 1416.18 1.64181 -0.940281 0
M  V30 15076 O 1415.52 1.83515 0.0824321 0
M  V30 15077 C 1415.58 1.34908 -3.33227 0
M  V30 15078 C 1415.25 0.477535 -4.54498 0
M  V30 15079 C 1416.25 -0.261479 -5.19242 0
M  V30 15080 C 1413.93 0.404839 -5.00666 0
M  V30 15081 C 1415.92 -1.0615 -6.28499 0
M  V30 15082 C 1413.61 -0.398859 -6.09797 0
M  V30 15083 C 1414.61 -1.1307 -6.73576 0
M  V30 15084 O 1414.3 -1.92116 -7.80607 0
M  V30 15085 H 1414.03 0.172273 -0.65368 0
M  V30 15086 H 1416.58 -0.129963 -2.04988 0
M  V30 15087 H 1414.81 2.14078 -3.22036 0
M  V30 15088 H 1416.5 1.91988 -3.57625 0
M  V30 15089 H 1417.27 -0.214859 -4.84524 0
M  V30 15090 H 1413.15 0.964087 -4.50806 0
M  V30 15091 H 1416.69 -1.63324 -6.78212 0
M  V30 15092 H 1412.59 -0.447073 -6.4395 0
M  V30 15093 H 1413.36 -1.84459 -7.97444 0
M  V30 15094 N 1416.02 1.56195 0.209972 0
M  V30 15095 C 1417.3 1.70553 0.957653 0
M  V30 15096 C 1417.68 0.614091 2.01971 0
M  V30 15097 O 1417.02 -0.377192 2.25365 0
M  V30 15098 C 1417.23 3.12314 1.55759 0
M  V30 15099 C 1418.58 3.72085 2.04543 0
M  V30 15100 O 1419.61 3.15349 1.65631 0
M  V30 15101 O 1418.47 4.71627 2.76099 0
M  V30 15102 H 1415.56 0.695077 0.448104 0
M  V30 15103 H 1418.11 1.68507 0.20084 0
M  V30 15104 H 1416.88 3.83215 0.791302 0
M  V30 15105 H 1416.5 3.18526 2.37964 0
M  V30 15106 N 1417.5 -0.477127 1.50204 0
M  V30 15107 C 1418.75 -1.22722 1.60573 0
M  V30 15108 C 1419.07 -1.92595 0.305326 0
M  V30 15109 O 1418.34 -1.83836 -0.676842 0
M  V30 15110 H 1416.92 -0.455973 0.591691 0
M  V30 15111 H 1419.58 -0.550915 1.86952 0
M  V30 15112 H 1418.67 -1.97837 2.41385 0
M  V30 15113 N 1418.98 -1.3968 -0.729882 0
M  V30 15114 C 1419.92 -1.3896 -1.86528 0
M  V30 15115 C 1420.92 -0.272027 -1.67202 0
M  V30 15116 O 1422.12 -0.442328 -1.74481 0
M  V30 15117 H 1418.5 -0.434045 -0.614092 0
M  V30 15118 H 1420.47 -2.34721 -1.84252 0
M  V30 15119 C 1419.22 -1.255 -3.24261 0
M  V30 15120 H 1418.54 -2.10767 -3.39731 0
M  V30 15121 H 1419.98 -1.29054 -4.03882 0
M  V30 15122 C 1418.44 0.0361127 -3.36881 0
M  V30 15123 O 1418.97 1.0044 -3.8894 0
M  V30 15124 N 1417.18 0.100874 -2.90425 0
M  V30 15125 H 1416.72 -0.687797 -2.48248 0
M  V30 15126 H 1416.68 0.964251 -2.99248 0
M  V30 15127 N 1420.45 0.960609 -1.2494 0
M  V30 15128 C 1421.68 1.7446 -1.12153 0
M  V30 15129 C 1422.1 1.85335 0.321315 0
M  V30 15130 O 1421.46 1.32944 1.23271 0
M  V30 15131 C 1421.51 3.13945 -1.774 0
M  V30 15132 O 1420.61 3.9882 -1.04958 0
M  V30 15133 H 1419.96 0.536007 -0.391909 0
M  V30 15134 H 1422.49 1.2045 -1.65388 0
M  V30 15135 H 1422.5 3.64434 -1.83444 0
M  V30 15136 H 1421.17 3.05346 -2.82377 0
M  V30 15137 H 1419.75 3.57293 -1.06752 0
M  V30 15138 N 1421.93 1.0643 1.16234 0
M  V30 15139 C 1423.16 0.802671 1.91238 0
M  V30 15140 C 1423.58 -0.637222 1.76978 0
M  V30 15141 O 1422.94 -1.44419 1.09603 0
M  V30 15142 C 1422.99 1.20389 3.3991 0
M  V30 15143 O 1422.09 0.343516 4.10967 0
M  V30 15144 H 1421.43 0.29323 0.595745 0
M  V30 15145 H 1423.96 1.42046 1.47255 0
M  V30 15146 H 1423.97 1.17604 3.90683 0
M  V30 15147 H 1422.65 2.2527 3.49608 0
M  V30 15148 H 1421.23 0.433051 3.70377 0
M  V30 15149 N 1423.41 -1.329 0.847073 0
M  V30 15150 C 1424.66 -1.97803 0.447417 0
M  V30 15151 C 1424.99 -1.6691 -0.9927 0
M  V30 15152 O 1424.26 -0.953315 -1.69535 0
M  V30 15153 C 1424.55 -3.53657 0.678135 0
M  V30 15154 C 1424.4 -3.94207 2.16612 0
M  V30 15155 C 1425.72 -4.39909 0.129589 0
M  V30 15156 H 1422.84 -0.718514 0.164034 0
M  V30 15157 H 1425.48 -1.57407 1.0641 0
M  V30 15158 H 1423.63 -3.88198 0.153222 0
M  V30 15159 H 1425.3 -3.69883 2.75653 0
M  V30 15160 H 1423.55 -3.43641 2.64752 0
M  V30 15161 H 1424.22 -5.02791 2.27827 0
M  V30 15162 H 1426.69 -4.12061 0.578371 0
M  V30 15163 H 1425.57 -5.47963 0.320648 0
M  V30 15164 H 1425.83 -4.31391 -0.967167 0
M  V30 15165 N 1424.89 -0.604284 -1.45555 0
M  V30 15166 C 1426.13 -0.101149 -2.0415 0
M  V30 15167 C 1426.49 1.24348 -1.46292 0
M  V30 15168 O 1427.69 1.83714 -1.9622 0
M  V30 15169 C 1425.96 -0.0589898 -3.57351 0
M  V30 15170 S 1427.52 0.383434 -4.37122 0
M  V30 15171 H 1424.34 -0.0479603 -0.709381 0
M  V30 15172 H 1426.94 -0.801643 -1.78309 0
M  V30 15173 H 1425.65 -1.04119 -3.96973 0
M  V30 15174 H 1425.18 0.663601 -3.87763 0
M  V30 15175 H 1427.19 1.63367 -4.68536 0
M  V30 15176 N 1426.37 1.53816 -0.343257 0
M  V30 15177 C 1427.59 2.05796 0.257418 0
M  V30 15178 C 1428.02 1.2166 1.43459 0
M  V30 15179 O 1427.37 0.230278 1.79832 0
M  V30 15180 C 1427.42 3.54681 0.65068 0
M  V30 15181 O 1426.53 3.73394 1.75074 0
M  V30 15182 H 1425.87 0.662622 0.042757 0
M  V30 15183 H 1428.4 1.98462 -0.497386 0
M  V30 15184 H 1428.41 3.97308 0.927914 0
M  V30 15185 H 1427.08 4.15368 -0.210199 0
M  V30 15186 H 1425.66 3.42669 1.4708 0
M  V30 15187 N 1427.84 0.0718701 1.57436 0
M  V30 15188 C 1429.07 -0.606253 1.97819 0
M  V30 15189 C 1429.49 -1.63144 0.950233 0
M  V30 15190 O 1428.84 -1.82391 -0.0631051 0
M  V30 15191 C 1428.9 -1.27476 3.38278 0
M  V30 15192 O 1428.62 -0.290603 4.37135 0
M  V30 15193 C 1430.12 -2.0407 3.93536 0
M  V30 15194 H 1427.34 -0.164305 0.650573 0
M  V30 15195 H 1429.88 0.144295 2.0399 0
M  V30 15196 H 1428.04 -1.97639 3.33193 0
M  V30 15197 H 1428.45 -0.77022 5.18814 0
M  V30 15198 H 1429.92 -2.46237 4.94036 0
M  V30 15199 H 1430.4 -2.89728 3.30083 0
M  V30 15200 H 1431.01 -1.38773 4.02022 0
M  V30 15201 N 1429.32 -1.56304 -0.201686 0
M  V30 15202 C 1430.29 -1.93171 -1.2336 0
M  V30 15203 C 1431.29 -0.812164 -1.38782 0
M  V30 15204 O 1432.48 -1.07967 -1.36707 0
M  V30 15205 C 1429.61 -2.19997 -2.60411 0
M  V30 15206 H 1430.8 -2.85483 -0.918654 0
M  V30 15207 H 1428.35 -1.49893 -0.442935 0
M  V30 15208 H 1429.09 -1.30301 -2.96972 0
M  V30 15209 H 1428.87 -3.01574 -2.5059 0
M  V30 15210 H 1430.36 -2.49547 -3.34838 0
M  V30 15211 N 1430.8 0.469154 -1.50455 0
M  V30 15212 C 1432.08 1.23033 -1.5206 0
M  V30 15213 C 1432.46 2.09412 -0.266388 0
M  V30 15214 O 1431.81 2.15837 0.750099 0
M  V30 15215 C 1432.02 2.05969 -2.81741 0
M  V30 15216 C 1433.36 2.64093 -3.32476 0
M  V30 15217 O 1434.39 2.1621 -2.83075 0
M  V30 15218 O 1433.25 3.51341 -4.18595 0
M  V30 15219 H 1430.34 0.55841 -0.610006 0
M  V30 15220 H 1432.89 0.480818 -1.62746 0
M  V30 15221 H 1431.66 1.42327 -3.64498 0
M  V30 15222 H 1431.28 2.8805 -2.74067 0
M  V30 15223 N 1432.28 1.40065 0.722464 0
M  V30 15224 C 1433.51 1.41066 1.50944 0
M  V30 15225 C 1433.92 0.00678083 1.89199 0
M  V30 15226 O 1433.26 -0.977992 1.55502 0
M  V30 15227 C 1433.32 2.23127 2.81877 0
M  V30 15228 C 1432.99 3.7162 2.65984 0
M  V30 15229 C 1433.98 4.64415 2.33698 0
M  V30 15230 C 1431.67 4.15355 2.82463 0
M  V30 15231 C 1433.66 5.98928 2.18091 0
M  V30 15232 C 1431.35 5.49941 2.66474 0
M  V30 15233 C 1432.35 6.41542 2.34335 0
M  V30 15234 O 1432.03 7.73647 2.18461 0
M  V30 15235 H 1431.77 0.483321 0.472628 0
M  V30 15236 H 1434.32 1.84664 0.899356 0
M  V30 15237 H 1432.55 1.74298 3.45192 0
M  V30 15238 H 1434.24 2.16153 3.43559 0
M  V30 15239 H 1435.01 4.31924 2.20606 0
M  V30 15240 H 1430.88 3.44381 3.06468 0
M  V30 15241 H 1434.43 6.70391 1.92928 0
M  V30 15242 H 1430.33 5.82019 2.79149 0
M  V30 15243 H 1431.09 7.84507 2.33434 0
M  V30 15244 N 1433.76 -0.95397 1.25448 0
M  V30 15245 C 1434.7 -2.05075 1.0589 0
M  V30 15246 C 1435.67 -1.66069 -0.0321545 0
M  V30 15247 O 1436.86 -1.90389 0.125152 0
M  V30 15248 C 1434 -3.38246 0.684391 0
M  V30 15249 C 1433.11 -3.90366 1.85037 0
M  V30 15250 C 1432.25 -5.11864 1.42016 0
M  V30 15251 C 1431.29 -5.56214 2.55523 0
M  V30 15252 N 1430.42 -6.68924 2.13272 0
M  V30 15253 H 1435.26 -2.21137 1.99755 0
M  V30 15254 H 1432.8 -1.08366 0.994742 0
M  V30 15255 H 1434.76 -4.14785 0.448209 0
M  V30 15256 H 1433.39 -3.22068 -0.217273 0
M  V30 15257 H 1432.44 -3.1034 2.19984 0
M  V30 15258 H 1433.75 -4.19228 2.70276 0
M  V30 15259 H 1432.91 -5.95823 1.14366 0
M  V30 15260 H 1431.65 -4.84718 0.538492 0
M  V30 15261 H 1430.65 -4.7082 2.83916 0
M  V30 15262 H 1431.88 -5.85368 3.44268 0
M  V30 15263 H 1429.82 -6.43486 1.27523 0
M  V30 15264 H 1429.74 -6.97307 2.92059 0
M  V30 15265 H 1431.01 -7.5629 1.88801 0
M  V30 15266 N 1435.24 -1.07045 -1.15668 0
M  V30 15267 C 1436.65 -0.814932 -1.67975 0
M  V30 15268 C 1437 0.660408 -1.84751 0
M  V30 15269 O 1436.12 1.51156 -1.54857 0
M  V30 15270 C 1436.72 -1.47274 -3.05116 0
M  V30 15271 C 1435.28 -1.26481 -3.54513 0
M  V30 15272 C 1434.42 -1.54439 -2.30312 0
M  V30 15273 H 1437.37 -1.23291 -0.999251 0
M  V30 15274 H 1437.4 -0.892244 -3.69891 0
M  V30 15275 H 1436.91 -2.54649 -2.92874 0
M  V30 15276 H 1435.01 -0.211138 -3.72001 0
M  V30 15277 H 1435.12 -1.98283 -4.36143 0
M  V30 15278 H 1433.49 -0.965269 -2.357 0
M  V30 15279 H 1434.27 -2.6299 -2.20661 0
M  V30 15280 N 1436.71 1.32449 -0.85411 0
M  V30 15281 C 1438.12 1.79545 -0.511923 0
M  V30 15282 C 1438.48 1.70534 0.970188 0
M  V30 15283 O 1437.6 1.2636 1.75676 0
M  V30 15284 C 1438.2 3.26 -0.922456 0
M  V30 15285 C 1436.75 3.71053 -0.632176 0
M  V30 15286 C 1435.9 2.53565 -1.12249 0
M  V30 15287 H 1438.85 1.19755 -1.04137 0
M  V30 15288 H 1438.87 3.79751 -0.238618 0
M  V30 15289 H 1438.39 3.32526 -2.00119 0
M  V30 15290 H 1436.49 3.70042 0.435862 0
M  V30 15291 H 1436.6 4.63878 -1.19809 0
M  V30 15292 H 1434.96 2.48849 -0.542781 0
M  V30 15293 H 1435.75 2.62846 -2.20832 0
M  V30 15294 N 1438.19 0.611994 1.45232 0
M  V30 15295 C 1439.1 -0.105981 2.3436 0
M  V30 15296 C 1440.12 -0.855785 1.515 0
M  V30 15297 O 1441.29 -0.812376 1.84289 0
M  V30 15298 C 1438.36 -1.08794 3.29188 0
M  V30 15299 C 1437.42 -0.339611 4.27955 0
M  V30 15300 C 1436.65 -1.27479 5.18252 0
M  V30 15301 O 1436.88 -2.51279 5.12069 0
M  V30 15302 O 1435.81 -0.769469 5.96961 0
M  V30 15303 H 1439.64 0.626584 2.97166 0
M  V30 15304 H 1437.22 0.37224 1.44688 0
M  V30 15305 H 1439.1 -1.65338 3.8761 0
M  V30 15306 H 1437.78 -1.80145 2.68941 0
M  V30 15307 H 1436.68 0.268408 3.73136 0
M  V30 15308 H 1438.02 0.333501 4.91069 0
M  V30 15309 N 1439.67 -1.53632 0.351409 0
M  V30 15310 C 1440.58 -2.2899 -0.509985 0
M  V30 15311 C 1441.6 -1.34403 -1.10507 0
M  V30 15312 O 1442.77 -1.67448 -1.11906 0
M  V30 15313 C 1439.84 -3.05392 -1.64124 0
M  V30 15314 C 1438.9 -4.15619 -1.07514 0
M  V30 15315 C 1438.13 -4.88369 -2.15248 0
M  V30 15316 O 1438.35 -4.60854 -3.3611 0
M  V30 15317 O 1437.29 -5.74636 -1.79101 0
M  V30 15318 H 1441.11 -3.03526 0.10283 0
M  V30 15319 H 1438.7 -1.48947 0.116214 0
M  V30 15320 H 1440.58 -3.53146 -2.29926 0
M  V30 15321 H 1439.26 -2.33705 -2.23972 0
M  V30 15322 H 1438.16 -3.7215 -0.381421 0
M  V30 15323 H 1439.5 -4.8943 -0.521413 0
M  V30 15324 N 1441.15 -0.0802183 -1.57396 0
M  V30 15325 C 1442.42 0.628419 -1.8523 0
M  V30 15326 C 1442.8 1.87272 -0.974288 0
M  V30 15327 O 1442.15 2.2846 -0.0427687 0
M  V30 15328 C 1442.36 0.958033 -3.35593 0
M  V30 15329 C 1443.71 1.3279 -4.03301 0
M  V30 15330 O 1444.73 1.04951 -3.40388 0
M  V30 15331 O 1443.59 1.84865 -5.14283 0
M  V30 15332 H 1440.69 0.312945 -0.765503 0
M  V30 15333 H 1443.23 -0.111788 -1.69331 0
M  V30 15334 H 1442.01 0.074648 -3.91229 0
M  V30 15335 H 1441.63 1.75472 -3.56785 0
M  V30 15336 N 1442.63 1.56409 0.193394 0
M  V30 15337 C 1444.04 1.70624 0.757915 0
M  V30 15338 C 1444.39 0.687074 1.83776 0
M  V30 15339 O 1443.51 -0.15616 2.15836 0
M  V30 15340 C 1444.11 3.09352 1.38156 0
M  V30 15341 C 1442.67 3.25326 1.89315 0
M  V30 15342 C 1441.81 2.66576 0.763727 0
M  V30 15343 H 1444.76 1.58668 -0.0317034 0
M  V30 15344 H 1444.79 3.06776 2.25098 0
M  V30 15345 H 1444.3 3.83506 0.595398 0
M  V30 15346 H 1442.4 2.5609 2.70644 0
M  V30 15347 H 1442.51 4.32848 2.05376 0
M  V30 15348 H 1440.88 2.25797 1.17846 0
M  V30 15349 H 1441.66 3.43298 -0.0102243 0
M  V30 15350 N 1444.1 -0.461169 1.50702 0
M  V30 15351 C 1445.01 -1.58355 1.73092 0
M  V30 15352 C 1446.03 -1.62795 0.61431 0
M  V30 15353 O 1447.21 -1.8048 0.893806 0
M  V30 15354 C 1444.27 -2.94509 1.82936 0
M  V30 15355 C 1443.33 -3.00378 3.06711 0
M  V30 15356 C 1442.56 -4.30037 3.16076 0
M  V30 15357 O 1442.79 -5.21097 2.31978 0
M  V30 15358 O 1441.72 -4.41702 4.08881 0
M  V30 15359 H 1445.55 -1.42384 2.68255 0
M  V30 15360 H 1443.13 -0.641709 1.34916 0
M  V30 15361 H 1445.01 -3.75357 1.91534 0
M  V30 15362 H 1443.69 -3.10658 0.909581 0
M  V30 15363 H 1442.6 -2.18571 3.03608 0
M  V30 15364 H 1443.93 -2.89167 3.983 0
M  V30 15365 N 1445.58 -1.40446 -0.715026 0
M  V30 15366 C 1446.49 -1.43074 -1.85922 0
M  V30 15367 C 1447.51 -0.323294 -1.7097 0
M  V30 15368 O 1448.68 -0.567966 -1.93226 0
M  V30 15369 C 1445.75 -1.29206 -3.21725 0
M  V30 15370 C 1444.81 -2.50097 -3.48927 0
M  V30 15371 C 1444.04 -2.36881 -4.7825 0
M  V30 15372 O 1444.27 -1.38292 -5.53382 0
M  V30 15373 O 1443.2 -3.26266 -5.058 0
M  V30 15374 H 1447.03 -2.39565 -1.86661 0
M  V30 15375 H 1444.61 -1.21775 -0.865522 0
M  V30 15376 H 1446.49 -1.23681 -4.02841 0
M  V30 15377 H 1445.17 -0.358207 -3.21712 0
M  V30 15378 H 1444.07 -2.61199 -2.67817 0
M  V30 15379 H 1445.41 -3.42244 -3.53737 0
M  V30 15380 N 1447.06 0.947303 -1.25952 0
M  V30 15381 C 1447.99 2.0487 -1.02767 0
M  V30 15382 C 1449 1.62797 0.00985984 0
M  V30 15383 O 1450.19 1.77018 -0.229527 0
M  V30 15384 C 1447.29 3.34682 -0.533048 0
M  V30 15385 C 1446.47 4.05555 -1.63841 0
M  V30 15386 C 1445.53 5.13638 -1.1429 0
M  V30 15387 O 1444.55 5.38682 -1.83876 0
M  V30 15388 N 1445.75 5.80499 0.0119377 0
M  V30 15389 H 1448.52 2.25327 -1.97605 0
M  V30 15390 H 1446.08 1.11636 -1.17256 0
M  V30 15391 H 1448.07 4.04273 -0.185868 0
M  V30 15392 H 1446.64 3.10941 0.321585 0
M  V30 15393 H 1445.86 3.29962 -2.15683 0
M  V30 15394 H 1447.15 4.49661 -2.38081 0
M  V30 15395 H 1446.55 5.62581 0.593212 0
M  V30 15396 H 1445.1 6.51109 0.30009 0
M  V30 15397 N 1448.54 1.07657 1.15099 0
M  V30 15398 C 1449.5 0.703558 2.18135 0
M  V30 15399 C 1450.5 -0.257771 1.5872 0
M  V30 15400 O 1451.69 -0.0383211 1.74158 0
M  V30 15401 C 1448.82 0.0374978 3.40879 0
M  V30 15402 H 1450.02 1.61583 2.52648 0
M  V30 15403 H 1447.57 0.873484 1.29615 0
M  V30 15404 H 1448.3 -0.886868 3.11938 0
M  V30 15405 H 1448.09 0.728961 3.85264 0
M  V30 15406 H 1449.58 -0.208714 4.17078 0
M  V30 15407 N 1450.02 -1.31994 0.861122 0
M  V30 15408 C 1450.93 -2.32495 0.313555 0
M  V30 15409 C 1451.94 -1.64331 -0.571966 0
M  V30 15410 O 1453.12 -1.9582 -0.470794 0
M  V30 15411 C 1450.18 -3.43311 -0.483603 0
M  V30 15412 C 1449.24 -4.27153 0.428825 0
M  V30 15413 C 1448.48 -5.32676 -0.330383 0
M  V30 15414 O 1448.7 -5.48665 -1.55957 0
M  V30 15415 O 1447.63 -6.01116 0.307174 0
M  V30 15416 H 1451.46 -2.81234 1.14636 0
M  V30 15417 H 1449.05 -1.35734 0.624239 0
M  V30 15418 H 1450.93 -4.10877 -0.935831 0
M  V30 15419 H 1449.6 -2.9675 -1.2931 0
M  V30 15420 H 1448.51 -3.62372 0.929366 0
M  V30 15421 H 1449.84 -4.77255 1.20368 0
M  V30 15422 N 1451.49 -0.619688 -1.44906 0
M  V30 15423 C 1452.4 0.0935512 -2.34413 0
M  V30 15424 C 1453.42 0.847738 -1.51952 0
M  V30 15425 O 1454.6 0.802591 -1.84717 0
M  V30 15426 C 1451.66 1.07047 -3.2976 0
M  V30 15427 C 1450.72 0.31691 -4.28129 0
M  V30 15428 C 1449.96 1.24729 -5.1892 0
M  V30 15429 O 1450.18 2.4856 -5.13395 0
M  V30 15430 O 1449.11 0.737799 -5.97361 0
M  V30 15431 H 1452.94 -0.642335 -2.96829 0
M  V30 15432 H 1450.52 -0.379908 -1.44489 0
M  V30 15433 H 1452.41 1.63281 -3.88481 0
M  V30 15434 H 1451.08 1.78717 -2.69893 0
M  V30 15435 H 1449.99 -0.288192 -3.72988 0
M  V30 15436 H 1451.32 -0.359539 -4.90885 0
M  V30 15437 N 1452.97 1.53444 -0.359552 0
M  V30 15438 C 1453.92 2.27053 0.504949 0
M  V30 15439 C 1454.91 1.29801 1.08849 0
M  V30 15440 O 1456.12 1.47451 1.03239 0
M  V30 15441 H 1452.5 0.729756 0.181549 0
M  V30 15442 H 1454.47 2.98082 -0.137719 0
M  V30 15443 C 1453.22 3.06815 1.63585 0
M  V30 15444 H 1452.54 3.81488 1.19611 0
M  V30 15445 H 1453.98 3.61508 2.21558 0
M  V30 15446 C 1452.44 2.17286 2.57466 0
M  V30 15447 O 1452.97 1.77961 3.60129 0
M  V30 15448 N 1451.17 1.82041 2.26516 0
M  V30 15449 H 1450.72 2.14218 1.43068 0
M  V30 15450 H 1450.68 1.22423 2.89586 0
M  V30 15451 N 1454.45 0.0885642 1.57351 0
M  V30 15452 C 1455.86 -0.441569 1.81403 0
M  V30 15453 C 1456.21 -1.68582 1.00372 0
M  V30 15454 O 1455.34 -2.15162 0.231153 0
M  V30 15455 C 1455.93 -0.807886 3.29027 0
M  V30 15456 C 1454.49 -1.2828 3.53866 0
M  V30 15457 C 1453.64 -0.276217 2.75921 0
M  V30 15458 H 1456.59 0.314083 1.55561 0
M  V30 15459 H 1456.61 -1.66797 3.41993 0
M  V30 15460 H 1456.12 0.0978886 3.87977 0
M  V30 15461 H 1454.22 -2.2065 3.0024 0
M  V30 15462 H 1454.34 -1.24914 4.62529 0
M  V30 15463 H 1452.7 -0.757007 2.4319 0
M  V30 15464 H 1453.48 0.622123 3.37616 0
M  V30 15465 N 1455.93 -1.56509 -0.185096 0
M  V30 15466 C 1456.84 -1.98552 -1.24958 0
M  V30 15467 C 1457.85 -0.894713 -1.49234 0
M  V30 15468 O 1459.03 -1.20126 -1.61653 0
M  V30 15469 C 1456.1 -2.32513 -2.57175 0
M  V30 15470 C 1455.16 -3.55351 -2.40882 0
M  V30 15471 C 1454.39 -3.87683 -3.66794 0
M  V30 15472 O 1454.61 -3.21167 -4.7139 0
M  V30 15473 O 1453.55 -4.8108 -3.61726 0
M  V30 15474 H 1457.37 -2.89342 -0.922756 0
M  V30 15475 H 1454.96 -1.44196 -0.390887 0
M  V30 15476 H 1456.84 -2.55387 -3.35195 0
M  V30 15477 H 1455.51 -1.44888 -2.89464 0
M  V30 15478 H 1454.42 -3.37712 -1.60939 0
M  V30 15479 H 1455.75 -4.43474 -2.13522 0
M  V30 15480 N 1457.41 0.45317 -1.50944 0
M  V30 15481 C 1458.65 1.20151 -1.62506 0
M  V30 15482 C 1458.98 1.92085 -0.335927 0
M  V30 15483 O 1458.25 1.84889 0.64751 0
M  V30 15484 H 1456.83 0.446502 -0.59887 0
M  V30 15485 H 1459.49 0.521103 -1.87804 0
M  V30 15486 H 1458.58 1.93972 -2.44502 0
M  V30 15487 N 1458.88 1.40823 0.707568 0
M  V30 15488 C 1459.79 1.44058 1.85161 0
M  V30 15489 C 1460.81 0.332357 1.70796 0
M  V30 15490 O 1461.99 0.578205 1.92922 0
M  V30 15491 C 1459.05 1.3091 3.21035 0
M  V30 15492 C 1458.11 2.51944 3.47595 0
M  V30 15493 C 1457.35 2.39414 4.76987 0
M  V30 15494 O 1457.57 1.41224 5.52641 0
M  V30 15495 O 1456.5 3.28944 5.04063 0
M  V30 15496 H 1460.33 2.40551 1.85388 0
M  V30 15497 H 1457.91 1.22232 0.859052 0
M  V30 15498 H 1459.8 1.25816 4.02179 0
M  V30 15499 H 1458.47 0.375263 3.21517 0
M  V30 15500 H 1457.38 2.62615 2.66428 0
M  V30 15501 H 1458.71 3.44115 3.51917 0
M  V30 15502 N 1460.36 -0.94061 1.26453 0
M  V30 15503 C 1461.29 -2.04322 1.03852 0
M  V30 15504 C 1462.31 -1.628 -0.00122618 0
M  V30 15505 O 1463.5 -1.76894 0.238911 0
M  V30 15506 C 1460.6 -3.34394 0.550789 0
M  V30 15507 C 1459.77 -4.0468 1.6599 0
M  V30 15508 C 1458.83 -5.13025 1.17012 0
M  V30 15509 O 1457.85 -5.37699 1.8673 0
M  V30 15510 N 1459.06 -5.80497 0.0188478 0
M  V30 15511 H 1461.82 -2.24276 1.98797 0
M  V30 15512 H 1459.38 -1.11013 1.17846 0
M  V30 15513 H 1461.37 -4.04169 0.207305 0
M  V30 15514 H 1459.94 -3.11108 -0.30509 0
M  V30 15515 H 1459.16 -3.28813 2.17429 0
M  V30 15516 H 1460.45 -4.48392 2.40463 0
M  V30 15517 H 1459.85 -5.62888 -0.563368 0
M  V30 15518 H 1458.41 -6.51259 -0.265556 0
M  V30 15519 N 1461.84 -1.08266 -1.14527 0
M  V30 15520 C 1463.25 -0.832702 -1.67102 0
M  V30 15521 C 1463.6 0.640776 -1.85441 0
M  V30 15522 O 1462.73 1.49505 -1.56452 0
M  V30 15523 C 1463.32 -1.50502 -3.03537 0
M  V30 15524 C 1461.88 -1.30234 -3.53152 0
M  V30 15525 C 1461.03 -1.56873 -2.28661 0
M  V30 15526 H 1463.98 -1.24344 -0.986118 0
M  V30 15527 H 1464 -0.931426 -3.68924 0
M  V30 15528 H 1463.51 -2.57741 -2.90157 0
M  V30 15529 H 1461.61 -0.250582 -3.71756 0
M  V30 15530 H 1461.73 -2.02898 -4.34015 0
M  V30 15531 H 1460.09 -0.990214 -2.34663 0
M  V30 15532 H 1460.87 -2.65316 -2.17859 0
M  V30 15533 N 1463.32 1.31536 -0.86811 0
M  V30 15534 C 1464.23 2.32326 -0.32588 0
M  V30 15535 C 1465.25 1.64632 0.563243 0
M  V30 15536 O 1466.42 1.96067 0.460403 0
M  V30 15537 C 1463.49 3.43562 0.46539 0
M  V30 15538 C 1462.55 4.26919 -0.451472 0
M  V30 15539 C 1461.78 5.32844 0.302129 0
M  V30 15540 O 1462 5.49485 1.53045 0
M  V30 15541 O 1460.94 6.00944 -0.339048 0
M  V30 15542 H 1464.76 2.80622 -1.16126 0
M  V30 15543 H 1462.35 1.35401 -0.631428 0
M  V30 15544 H 1464.23 4.11368 0.914028 0
M  V30 15545 H 1462.91 2.97432 1.27734 0
M  V30 15546 H 1461.81 3.61874 -0.948571 0
M  V30 15547 H 1463.15 4.7661 -1.22897 0
M  V30 15548 N 1464.8 0.627364 1.44575 0
M  V30 15549 C 1465.71 -0.0811184 2.3446 0
M  V30 15550 C 1466.72 -0.839668 1.52399 0
M  V30 15551 O 1467.9 -0.792784 1.8514 0
M  V30 15552 C 1464.96 -1.05296 3.30323 0
M  V30 15553 C 1464.03 -0.294201 4.28291 0
M  V30 15554 C 1463.26 -1.21975 5.19575 0
M  V30 15555 O 1463.48 -2.45834 5.14706 0
M  V30 15556 O 1462.42 -0.70611 5.97744 0
M  V30 15557 H 1466.24 0.658067 2.96485 0
M  V30 15558 H 1463.83 0.387565 1.44285 0
M  V30 15559 H 1465.71 -1.61218 3.89341 0
M  V30 15560 H 1464.38 -1.77283 2.70837 0
M  V30 15561 H 1463.29 0.307969 3.7283 0
M  V30 15562 H 1464.62 0.385567 4.90687 0
M  V30 15563 N 1466.28 -1.53251 0.367684 0
M  V30 15564 C 1467.52 -2.03197 -0.221396 0
M  V30 15565 C 1467.88 -1.249 -1.45822 0
M  V30 15566 O 1469.08 -1.64863 -2.12306 0
M  V30 15567 C 1467.35 -3.53827 -0.504134 0
M  V30 15568 S 1468.91 -4.2564 -1.06658 0
M  V30 15569 H 1465.73 -0.708089 -0.0642774 0
M  V30 15570 H 1468.33 -1.88703 0.511037 0
M  V30 15571 H 1467.03 -4.08412 0.403477 0
M  V30 15572 H 1466.57 -3.72487 -1.26558 0
M  V30 15573 H 1468.58 -4.36987 -2.35068 0
M  V30 15574 N 1467.75 -0.0969077 -1.57302 0
M  V30 15575 C 1469 0.566373 -1.94418 0
M  V30 15576 C 1469.33 1.68078 -0.978769 0
M  V30 15577 O 1468.58 1.957 0.0013214 0
M  V30 15578 C 1468.88 1.15972 -3.38061 0
M  V30 15579 C 1468.55 0.16892 -4.50583 0
M  V30 15580 C 1467.21 -0.103587 -4.81088 0
M  V30 15581 C 1469.56 -0.507513 -5.18723 0
M  V30 15582 C 1466.89 -1.05919 -5.7706 0
M  V30 15583 C 1469.24 -1.4516 -6.1572 0
M  V30 15584 C 1467.91 -1.73232 -6.44629 0
M  V30 15585 H 1467.18 0.207251 -0.711427 0
M  V30 15586 H 1469.82 -0.173125 -1.90716 0
M  V30 15587 H 1468.13 1.97551 -3.3835 0
M  V30 15588 H 1469.83 1.68066 -3.64081 0
M  V30 15589 H 1466.42 0.391501 -4.26808 0
M  V30 15590 H 1470.6 -0.310127 -4.9533 0
M  V30 15591 H 1465.86 -1.28366 -5.97773 0
M  V30 15592 H 1470.03 -1.98155 -6.67613 0
M  V30 15593 H 1467.66 -2.47436 -7.18804 0
M  V30 15594 N 1469.23 1.56605 0.176793 0
M  V30 15595 C 1470.46 1.85812 0.910019 0
M  V30 15596 C 1470.87 0.68164 1.76066 0
M  V30 15597 O 1470.23 -0.34936 1.79125 0
M  V30 15598 C 1470.28 3.14001 1.79125 0
M  V30 15599 O 1470 4.27114 0.974931 0
M  V30 15600 C 1471.5 3.56516 2.6346 0
M  V30 15601 H 1468.72 0.616608 0.264643 0
M  V30 15602 H 1471.27 2.03719 0.178537 0
M  V30 15603 H 1469.42 2.97937 2.47613 0
M  V30 15604 H 1469.84 5.00227 1.57711 0
M  V30 15605 H 1471.31 4.49128 3.20918 0
M  V30 15606 H 1471.79 2.80373 3.38065 0
M  V30 15607 H 1472.39 3.75173 2.00313 0
M  V30 15608 N 1470.71 -0.445159 1.51182 0
M  V30 15609 C 1471.62 -1.5651 1.74762 0
M  V30 15610 C 1472.64 -1.62134 0.631542 0
M  V30 15611 O 1473.81 -1.79522 0.912898 0
M  V30 15612 C 1470.88 -2.92552 1.86049 0
M  V30 15613 C 1469.94 -2.97108 3.0988 0
M  V30 15614 C 1469.17 -4.2666 3.2062 0
M  V30 15615 O 1469.39 -5.18608 2.37491 0
M  V30 15616 O 1468.33 -4.3734 4.13542 0
M  V30 15617 H 1472.15 -1.3953 2.6975 0
M  V30 15618 H 1469.74 -0.627363 1.3559 0
M  V30 15619 H 1471.62 -3.73304 1.95504 0
M  V30 15620 H 1470.3 -3.09676 0.94248 0
M  V30 15621 H 1469.2 -2.15338 3.05909 0
M  V30 15622 H 1470.54 -2.84927 4.01345 0
M  V30 15623 N 1472.19 -1.41197 -0.700089 0
M  V30 15624 C 1473.15 -1.42419 -1.79582 0
M  V30 15625 C 1474.15 -0.31551 -1.57674 0
M  V30 15626 O 1475.34 -0.575173 -1.64431 0
M  V30 15627 C 1472.47 -1.23114 -3.17893 0
M  V30 15628 H 1473.67 -2.39956 -1.79892 0
M  V30 15629 H 1471.22 -1.27273 -0.907271 0
M  V30 15630 H 1471.95 -0.263992 -3.23224 0
M  V30 15631 H 1471.74 -2.03437 -3.35195 0
M  V30 15632 H 1473.23 -1.26793 -3.97886 0
M  V30 15633 N 1473.67 0.933891 -1.2695 0
M  V30 15634 C 1474.91 1.69554 -1.14153 0
M  V30 15635 C 1475.27 1.89503 0.308639 0
M  V30 15636 O 1476.47 2.62925 0.558894 0
M  V30 15637 C 1474.74 3.02894 -1.8971 0
M  V30 15638 S 1476.3 3.94051 -1.93053 0
M  V30 15639 H 1473.12 0.582546 -0.407629 0
M  V30 15640 H 1475.72 1.11233 -1.60772 0
M  V30 15641 H 1474.42 2.86061 -2.94274 0
M  V30 15642 H 1473.96 3.6627 -1.43561 0
M  V30 15643 H 1475.97 4.85551 -1.02249 0
M  V30 15644 N 1475.14 1.08871 1.13951 0
M  V30 15645 C 1476.39 0.822504 1.85372 0
M  V30 15646 C 1476.72 -0.650183 1.82993 0
M  V30 15647 O 1476 -1.4783 1.26398 0
M  V30 15648 C 1476.28 1.35107 3.33793 0
M  V30 15649 C 1476.13 2.88945 3.44719 0
M  V30 15650 C 1477.45 0.980203 4.29045 0
M  V30 15651 H 1474.57 0.300255 0.673065 0
M  V30 15652 H 1477.21 1.34914 1.33784 0
M  V30 15653 H 1475.36 0.903108 3.77857 0
M  V30 15654 H 1477.04 3.42148 3.09407 0
M  V30 15655 H 1475.28 3.26365 2.85777 0
M  V30 15656 H 1475.95 3.21004 4.49066 0
M  V30 15657 H 1478.43 1.36646 3.93023 0
M  V30 15658 H 1477.3 1.37717 5.31343 0
M  V30 15659 H 1477.56 -0.112253 4.41957 0
M  V30 15660 N 1476.62 -1.31073 0.875073 0
M  V30 15661 C 1477.55 -2.27335 0.291809 0
M  V30 15662 C 1478.57 -1.53298 -0.548036 0
M  V30 15663 O 1479.76 -1.7464 -0.369198 0
M  V30 15664 C 1476.86 -3.33465 -0.604521 0
M  V30 15665 C 1476.03 -4.36924 0.204029 0
M  V30 15666 C 1475.09 -5.2252 -0.621238 0
M  V30 15667 O 1474.11 -5.6918 -0.0474551 0
M  V30 15668 N 1475.32 -5.47397 -1.93227 0
M  V30 15669 H 1478.08 -2.78024 1.11906 0
M  V30 15670 H 1475.64 -1.44149 0.737064 0
M  V30 15671 H 1477.63 -3.87646 -1.16243 0
M  V30 15672 H 1476.2 -2.8278 -1.33244 0
M  V30 15673 H 1475.42 -3.82745 0.943389 0
M  V30 15674 H 1476.71 -5.03112 0.758644 0
M  V30 15675 H 1476.11 -5.11253 -2.4215 0
M  V30 15676 H 1474.67 -6.04493 -2.43785 0
M  V30 15677 N 1478.1 -0.635022 -1.4424 0
M  V30 15678 C 1479.52 -0.300978 -1.56736 0
M  V30 15679 C 1479.72 1.19571 -1.62188 0
M  V30 15680 O 1478.77 1.97991 -1.56703 0
M  V30 15681 C 1480.09 -0.996327 -2.83714 0
M  V30 15682 C 1481.63 -0.97484 -2.97432 0
M  V30 15683 C 1482.11 -1.65073 -4.27218 0
M  V30 15684 N 1483.6 -1.6175 -4.3404 0
M  V30 15685 C 1484.33 -2.10938 -5.33191 0
M  V30 15686 N 1483.83 -2.68333 -6.38725 0
M  V30 15687 N 1485.62 -2.01544 -5.24725 0
M  V30 15688 H 1477.77 -1.60649 -1.38945 0
M  V30 15689 H 1480.04 -0.674561 -0.666087 0
M  V30 15690 H 1479.74 -2.05128 -2.85684 0
M  V30 15691 H 1479.62 -0.536511 -3.73365 0
M  V30 15692 H 1482 0.071646 -2.95013 0
M  V30 15693 H 1482.09 -1.47318 -2.0912 0
M  V30 15694 H 1481.73 -2.69669 -4.30397 0
M  V30 15695 H 1481.66 -1.12719 -5.14395 0
M  V30 15696 H 1484.15 -1.1985 -3.58392 0
M  V30 15697 H 1484.46 -3.03588 -7.10672 0
M  V30 15698 H 1482.81 -2.72385 -6.39399 0
M  V30 15699 H 1486 -1.56423 -4.41191 0
M  V30 15700 H 1486.17 -2.40187 -6.01842 0
M  V30 15701 N 1479.58 1.53054 -0.375806 0
M  V30 15702 C 1480.82 2.02379 0.203516 0
M  V30 15703 C 1481.18 1.25788 1.45586 0
M  V30 15704 O 1480.47 0.345983 1.8845 0
M  V30 15705 C 1480.67 3.53321 0.538419 0
M  V30 15706 C 1480.5 4.4453 -0.679917 0
M  V30 15707 C 1479.27 4.90964 -1.1951 0
M  V30 15708 C 1481.46 4.90444 -1.54821 0
M  V30 15709 N 1479.45 5.66207 -2.37239 0
M  V30 15710 C 1480.82 5.64132 -2.57206 0
M  V30 15711 C 1482.87 4.72503 -1.56989 0
M  V30 15712 C 1481.57 6.21786 -3.61627 0
M  V30 15713 C 1483.6 5.3103 -2.6031 0
M  V30 15714 C 1482.96 6.04613 -3.61417 0
M  V30 15715 H 1479.06 0.781128 0.0369159 0
M  V30 15716 H 1481.65 1.87554 -0.522657 0
M  V30 15717 H 1479.82 3.68287 1.23366 0
M  V30 15718 H 1481.55 3.89359 1.10372 0
M  V30 15719 H 1478.3 4.67492 -0.758156 0
M  V30 15720 H 1478.73 6.08487 -2.96771 0
M  V30 15721 H 1483.37 4.15129 -0.801715 0
M  V30 15722 H 1481.09 6.7825 -4.39321 0
M  V30 15723 H 1484.67 5.19037 -2.62854 0
M  V30 15724 H 1483.55 6.49093 -4.40054 0
M  V30 15725 N 1481.06 0.105248 1.57248 0
M  V30 15726 C 1482.47 -0.422304 1.81861 0
M  V30 15727 C 1482.82 -1.67508 1.02154 0
M  V30 15728 O 1481.94 -2.14905 0.253961 0
M  V30 15729 C 1482.54 -0.772943 3.29865 0
M  V30 15730 C 1481.1 -1.24519 3.55207 0
M  V30 15731 C 1480.24 -0.246936 2.76198 0
M  V30 15732 H 1483.2 0.330565 1.55219 0
M  V30 15733 H 1483.22 -1.6316 3.43743 0
M  V30 15734 H 1482.73 0.139033 3.87851 0
M  V30 15735 H 1480.83 -2.17453 3.02564 0
M  V30 15736 H 1480.94 -1.20001 4.63828 0
M  V30 15737 H 1479.31 -0.731171 2.43979 0
M  V30 15738 H 1480.09 0.657896 3.36937 0
M  V30 15739 N 1482.53 -1.56697 -0.168486 0
M  V30 15740 C 1483.77 -1.83952 -0.891116 0
M  V30 15741 C 1484.14 -0.68657 -1.79305 0
M  V30 15742 O 1485.34 -0.839644 -2.5535 0
M  V30 15743 C 1483.61 -3.16331 -1.66342 0
M  V30 15744 S 1485.17 -3.65077 -2.43442 0
M  V30 15745 H 1481.99 -0.645349 -0.298405 0
M  V30 15746 H 1484.59 -1.94904 -0.152554 0
M  V30 15747 H 1483.29 -3.98233 -0.991915 0
M  V30 15748 H 1482.82 -3.08328 -2.4433 0
M  V30 15749 H 1484.84 -3.32629 -3.68201 0
M  V30 15750 N 1484.01 0.437135 -1.51416 0
M  V30 15751 C 1484.94 1.538 -1.75692 0
M  V30 15752 C 1485.92 1.5891 -0.606759 0
M  V30 15753 O 1487.11 1.74635 -0.849492 0
M  V30 15754 C 1484.24 2.91877 -1.88215 0
M  V30 15755 C 1483.19 3.01628 -3.03652 0
M  V30 15756 C 1482.52 4.41687 -3.01358 0
M  V30 15757 C 1483.82 2.75691 -4.43612 0
M  V30 15758 H 1485.51 1.33737 -2.67871 0
M  V30 15759 H 1483.06 0.641936 -1.289 0
M  V30 15760 H 1485.01 3.68851 -2.03781 0
M  V30 15761 H 1483.74 3.13173 -0.926847 0
M  V30 15762 H 1482.39 2.27094 -2.87791 0
M  V30 15763 H 1482.04 4.5995 -2.03605 0
M  V30 15764 H 1481.74 4.49141 -3.78875 0
M  V30 15765 H 1483.27 5.20634 -3.19018 0
M  V30 15766 H 1484.68 3.42398 -4.59822 0
M  V30 15767 H 1483.08 2.94554 -5.22836 0
M  V30 15768 H 1484.15 1.71297 -4.53636 0
M  V30 15769 N 1485.49 1.41566 0.692592 0
M  V30 15770 C 1486.72 1.44236 1.47917 0
M  V30 15771 C 1487.13 0.0469112 1.89142 0
M  V30 15772 O 1486.47 -0.944788 1.57542 0
M  V30 15773 C 1486.53 2.29056 2.7708 0
M  V30 15774 C 1486.2 3.77179 2.58041 0
M  V30 15775 C 1487.19 4.69267 2.23795 0
M  V30 15776 C 1484.88 4.21253 2.73589 0
M  V30 15777 C 1486.87 6.03419 2.05338 0
M  V30 15778 C 1484.56 5.55469 2.54749 0
M  V30 15779 C 1485.56 6.46368 2.20675 0
M  V30 15780 O 1485.25 7.78107 2.02002 0
M  V30 15781 H 1484.98 0.493237 0.462269 0
M  V30 15782 H 1487.53 1.8653 0.859984 0
M  V30 15783 H 1485.76 1.8158 3.41417 0
M  V30 15784 H 1487.45 2.23392 3.38897 0
M  V30 15785 H 1488.22 4.36506 2.11395 0
M  V30 15786 H 1484.1 3.50804 2.99094 0
M  V30 15787 H 1487.64 6.74333 1.78665 0
M  V30 15788 H 1483.54 5.87809 2.66741 0
M  V30 15789 H 1484.31 7.89282 2.16741 0
M  V30 15790 N 1486.97 -0.927146 1.27443 0
M  V30 15791 C 1488.21 -1.67738 1.13982 0
M  V30 15792 C 1488.55 -1.91653 -0.313511 0
M  V30 15793 O 1487.82 -1.50729 -1.22926 0
M  V30 15794 C 1488.11 -3.04357 1.92454 0
M  V30 15795 C 1487.96 -2.8768 3.45775 0
M  V30 15796 C 1489.28 -4.04696 1.72944 0
M  V30 15797 H 1486.4 -0.608749 0.415444 0
M  V30 15798 H 1489.04 -1.07587 1.56605 0
M  V30 15799 H 1487.19 -3.55702 1.56232 0
M  V30 15800 H 1488.86 -2.43449 3.9183 0
M  V30 15801 H 1487.1 -2.23011 3.72087 0
M  V30 15802 H 1487.77 -3.8464 3.95924 0
M  V30 15803 H 1490.25 -3.62364 2.04528 0
M  V30 15804 H 1489.13 -4.98276 2.30243 0
M  V30 15805 H 1489.39 -4.36878 0.677505 0
M  V30 15806 N 1488.45 -1.09474 -1.13372 0
M  V30 15807 C 1489.72 -0.743485 -1.80919 0
M  V30 15808 C 1490.1 0.771414 -1.965 0
M  V30 15809 O 1489.45 1.694 -1.53349 0
M  V30 15810 C 1489.66 -1.48309 -3.1592 0
M  V30 15811 C 1491.01 -1.64921 -3.91263 0
M  V30 15812 O 1492.03 -1.44564 -3.25545 0
M  V30 15813 O 1490.89 -1.98595 -5.09139 0
M  V30 15814 H 1487.99 -0.26713 -0.782669 0
M  V30 15815 H 1490.53 -1.19697 -1.20294 0
M  V30 15816 H 1489.3 -2.51456 -2.99809 0
M  V30 15817 H 1488.93 -1.02181 -3.84246 0
M  V30 15818 N 1489.92 1.30607 -0.882012 0
M  V30 15819 C 1491.17 1.95531 -0.495038 0
M  V30 15820 C 1491.49 1.70418 0.96005 0
M  V30 15821 O 1492.69 2.29301 1.45373 0
M  V30 15822 C 1491.15 3.50094 -0.834382 0
M  V30 15823 C 1490.76 3.84031 -2.30704 0
M  V30 15824 C 1492.5 4.21347 -0.516463 0
M  V30 15825 C 1490.41 5.31759 -2.58817 0
M  V30 15826 H 1489.34 0.731854 -0.181399 0
M  V30 15827 H 1491.99 1.486 -1.07658 0
M  V30 15828 H 1490.37 3.95582 -0.181961 0
M  V30 15829 H 1491.54 3.49463 -3.00353 0
M  V30 15830 H 1489.86 3.25874 -2.5922 0
M  V30 15831 H 1492.46 5.30051 -0.703576 0
M  V30 15832 H 1492.8 4.12731 0.543935 0
M  V30 15833 H 1493.33 3.81533 -1.12595 0
M  V30 15834 H 1490.07 5.45422 -3.63586 0
M  V30 15835 H 1489.59 5.67637 -1.93774 0
M  V30 15836 H 1491.27 5.9916 -2.44165 0
M  V30 15837 N 1491.4 0.642663 1.43901 0
M  V30 15838 C 1492.63 0.157518 2.06801 0
M  V30 15839 C 1493.05 -1.16361 1.47789 0
M  V30 15840 O 1492.41 -1.71645 0.583747 0
M  V30 15841 C 1492.46 0.0685904 3.60535 0
M  V30 15842 O 1491.56 -0.972183 4.00777 0
M  V30 15843 H 1490.9 0.0900406 0.657867 0
M  V30 15844 H 1493.43 0.882604 1.84584 0
M  V30 15845 H 1493.44 -0.118212 4.07829 0
M  V30 15846 H 1492.12 1.03307 4.02865 0
M  V30 15847 H 1490.7 -0.75902 3.65094 0
M  V30 15848 N 1492.88 -1.52852 0.383918 0
M  V30 15849 C 1493.81 -2.23927 -0.488816 0
M  V30 15850 C 1494.83 -1.2598 -1.03115 0
M  V30 15851 O 1496.02 -1.5209 -0.934398 0
M  V30 15852 C 1493.12 -2.9378 -1.68957 0
M  V30 15853 C 1492.29 -4.18388 -1.27555 0
M  V30 15854 C 1491.35 -4.71287 -2.3404 0
M  V30 15855 O 1490.37 -5.34511 -1.9567 0
M  V30 15856 N 1491.58 -4.50679 -3.65881 0
M  V30 15857 H 1494.34 -2.99459 0.120084 0
M  V30 15858 H 1491.9 -1.60532 0.210004 0
M  V30 15859 H 1493.89 -3.26071 -2.39707 0
M  V30 15860 H 1492.46 -2.21588 -2.20493 0
M  V30 15861 H 1491.68 -3.92194 -0.397157 0
M  V30 15862 H 1492.97 -4.99361 -0.975506 0
M  V30 15863 H 1492.37 -4.00201 -3.9982 0
M  V30 15864 H 1490.93 -4.87473 -4.32681 0
M  V30 15865 N 1494.36 -0.113586 -1.5719 0
M  V30 15866 C 1495.61 0.544642 -1.94623 0
M  V30 15867 C 1495.93 1.6756 -0.997428 0
M  V30 15868 O 1495.2 1.95829 -0.0527521 0
M  V30 15869 H 1493.78 0.204186 -0.718552 0
M  V30 15870 H 1496.44 -0.181258 -1.94055 0
M  V30 15871 H 1495.54 0.942765 -2.9752 0
M  V30 15872 N 1495.84 1.56784 0.160173 0
M  V30 15873 C 1497.25 1.51153 0.512352 0
M  V30 15874 C 1497.45 0.819774 1.84071 0
M  V30 15875 O 1496.51 0.384789 2.49551 0
M  V30 15876 C 1497.82 2.95906 0.534817 0
M  V30 15877 C 1499.37 3.06773 0.621248 0
M  V30 15878 C 1499.85 4.53006 0.674501 0
M  V30 15879 N 1501.34 4.57298 0.737087 0
M  V30 15880 C 1502.07 5.67805 0.799054 0
M  V30 15881 N 1501.57 6.87916 0.821171 0
M  V30 15882 N 1503.36 5.55804 0.838928 0
M  V30 15883 H 1495.51 2.00157 -0.710712 0
M  V30 15884 H 1497.77 0.91233 -0.257601 0
M  V30 15885 H 1497.48 3.49719 -0.372773 0
M  V30 15886 H 1497.35 3.51152 1.3774 0
M  V30 15887 H 1499.74 2.52987 1.51926 0
M  V30 15888 H 1499.82 2.54593 -0.248224 0
M  V30 15889 H 1499.47 5.07426 -0.219301 0
M  V30 15890 H 1499.4 5.02954 1.56028 0
M  V30 15891 H 1501.89 3.70825 0.727827 0
M  V30 15892 H 1502.2 7.67888 0.869938 0
M  V30 15893 H 1500.55 6.90504 0.789264 0
M  V30 15894 H 1503.74 4.60884 0.818728 0
M  V30 15895 H 1503.91 6.41945 0.883757 0
M  V30 15896 N 1497.32 -0.429099 1.51646 0
M  V30 15897 C 1498.56 -1.17551 1.64396 0
M  V30 15898 C 1498.88 -1.91526 0.366444 0
M  V30 15899 O 1498.15 -1.85896 -0.618013 0
M  V30 15900 H 1496.73 -0.436918 0.605898 0
M  V30 15901 H 1499.4 -0.491159 1.8861 0
M  V30 15902 H 1498.49 -1.90057 2.47557 0
M  V30 15903 N 1498.79 -1.41931 -0.685074 0
M  V30 15904 C 1499.74 -1.44604 -1.79884 0
M  V30 15905 C 1500.71 -0.299166 -1.63384 0
M  V30 15906 O 1501.9 -0.501749 -1.84085 0
M  V30 15907 C 1499.04 -1.3442 -3.17845 0
M  V30 15908 C 1498.15 -2.59061 -3.45704 0
M  V30 15909 C 1497.28 -2.41094 -4.73336 0
M  V30 15910 C 1496.32 -3.61159 -4.94197 0
M  V30 15911 N 1495.46 -3.42198 -6.13062 0
M  V30 15912 H 1500.3 -2.39788 -1.76934 0
M  V30 15913 H 1497.84 -1.1906 -0.863891 0
M  V30 15914 H 1499.79 -1.26515 -3.97555 0
M  V30 15915 H 1498.42 -0.42838 -3.19945 0
M  V30 15916 H 1497.48 -2.77374 -2.60322 0
M  V30 15917 H 1498.79 -3.48341 -3.57016 0
M  V30 15918 H 1497.94 -2.30717 -5.61119 0
M  V30 15919 H 1496.68 -1.49288 -4.64289 0
M  V30 15920 H 1495.69 -3.7198 -4.04859 0
M  V30 15921 H 1496.91 -4.53933 -5.05096 0
M  V30 15922 H 1494.86 -2.531 -6.05208 0
M  V30 15923 H 1494.77 -4.25059 -6.25189 0
M  V30 15924 H 1496.04 -3.35612 -7.03551 0
M  V30 15925 N 1500.27 0.920374 -1.27933 0
M  V30 15926 C 1501.22 2.02196 -1.1129 0
M  V30 15927 C 1502.19 1.66096 -0.0118871 0
M  V30 15928 O 1503.37 1.8999 -0.175586 0
M  V30 15929 C 1500.51 3.36312 -0.77383 0
M  V30 15930 C 1499.63 3.85322 -1.95322 0
M  V30 15931 C 1498.76 5.07919 -1.55537 0
M  V30 15932 C 1497.8 5.49244 -2.7018 0
M  V30 15933 N 1496.94 6.63034 -2.30933 0
M  V30 15934 H 1501.78 2.15764 -2.05548 0
M  V30 15935 H 1499.31 1.05691 -1.02312 0
M  V30 15936 H 1501.27 4.13451 -0.558024 0
M  V30 15937 H 1499.9 3.22531 0.131806 0
M  V30 15938 H 1498.95 3.04399 -2.28135 0
M  V30 15939 H 1500.27 4.11915 -2.81296 0
M  V30 15940 H 1499.42 5.92581 -1.30123 0
M  V30 15941 H 1498.16 4.8312 -0.666818 0
M  V30 15942 H 1497.16 4.63127 -2.96299 0
M  V30 15943 H 1498.39 5.76035 -3.59667 0
M  V30 15944 H 1496.34 6.39878 -1.44539 0
M  V30 15945 H 1496.25 6.89319 -3.10444 0
M  V30 15946 H 1497.52 7.51018 -2.08786 0
M  V30 15947 N 1501.75 1.10074 1.1279 0
M  V30 15948 C 1503 0.852005 1.84696 0
M  V30 15949 C 1503.35 -0.615785 1.8228 0
M  V30 15950 O 1502.64 -1.448 1.25473 0
M  V30 15951 C 1502.84 1.32969 3.31744 0
M  V30 15952 C 1502.67 2.84239 3.4848 0
M  V30 15953 C 1501.44 3.52197 3.62333 0
M  V30 15954 C 1503.63 3.82356 3.4396 0
M  V30 15955 N 1501.62 4.91825 3.67397 0
M  V30 15956 C 1502.99 5.07974 3.55474 0
M  V30 15957 C 1505.04 3.75116 3.27402 0
M  V30 15958 C 1503.75 6.27208 3.52139 0
M  V30 15959 C 1505.77 4.93845 3.25378 0
M  V30 15960 C 1505.13 6.1831 3.3745 0
M  V30 15961 H 1501.23 0.364722 0.691738 0
M  V30 15962 H 1503.82 1.40239 1.35059 0
M  V30 15963 H 1501.99 0.806668 3.79931 0
M  V30 15964 H 1503.72 1.02559 3.91489 0
M  V30 15965 H 1500.47 3.02636 3.64292 0
M  V30 15966 H 1500.9 5.64579 3.73604 0
M  V30 15967 H 1505.54 2.79808 3.16966 0
M  V30 15968 H 1503.26 7.2281 3.61347 0
M  V30 15969 H 1506.84 4.89949 3.13754 0
M  V30 15970 H 1505.72 7.08641 3.35854 0
M  V30 15971 N 1503.23 -1.30138 0.888926 0
M  V30 15972 C 1504.47 -1.96654 0.519499 0
M  V30 15973 C 1504.83 -1.68872 -0.92196 0
M  V30 15974 O 1504.12 -0.985192 -1.64331 0
M  V30 15975 C 1504.32 -3.4975 0.735488 0
M  V30 15976 C 1504.14 -3.92414 2.19639 0
M  V30 15977 C 1502.91 -4.1782 2.84174 0
M  V30 15978 C 1505.11 -4.04943 3.17058 0
M  V30 15979 N 1503.09 -4.46973 4.20819 0
M  V30 15980 C 1504.47 -4.38024 4.38788 0
M  V30 15981 C 1506.52 -3.87382 3.12793 0
M  V30 15982 C 1505.22 -4.55375 5.568 0
M  V30 15983 C 1507.25 -4.05937 4.3008 0
M  V30 15984 C 1506.61 -4.39367 5.50578 0
M  V30 15985 H 1502.71 -0.744421 0.239501 0
M  V30 15986 H 1505.29 -1.57292 1.14749 0
M  V30 15987 H 1503.47 -3.88158 0.136957 0
M  V30 15988 H 1505.2 -4.03331 0.332568 0
M  V30 15989 H 1501.95 -4.11171 2.35022 0
M  V30 15990 H 1502.38 -4.65677 4.914 0
M  V30 15991 H 1507.02 -3.60609 2.20729 0
M  V30 15992 H 1504.74 -4.80989 6.49365 0
M  V30 15993 H 1508.32 -3.93814 4.28255 0
M  V30 15994 H 1507.2 -4.53428 6.39822 0
M  V30 15995 N 1504.71 -0.650285 -1.43559 0
M  V30 15996 C 1505.93 -0.170139 -2.06199 0
M  V30 15997 C 1506.35 1.16304 -1.48724 0
M  V30 15998 O 1505.71 1.71739 -0.617418 0
M  V30 15999 C 1505.76 -0.0698577 -3.61432 0
M  V30 16000 O 1505.48 -1.35033 -4.16771 0
M  V30 16001 C 1506.98 0.436714 -4.41144 0
M  V30 16002 H 1504.2 -0.0885316 -0.665134 0
M  V30 16003 H 1506.74 -0.890104 -1.84112 0
M  V30 16004 H 1504.9 0.60065 -3.82715 0
M  V30 16005 H 1505.31 -1.20762 -5.10409 0
M  V30 16006 H 1506.79 0.455843 -5.50115 0
M  V30 16007 H 1507.26 1.46747 -4.13959 0
M  V30 16008 H 1507.87 -0.201201 -4.24824 0
M  V30 16009 N 1506.18 1.52647 -0.392018 0
M  V30 16010 C 1507.11 2.29446 0.433228 0
M  V30 16011 C 1508.09 1.32945 1.06111 0
M  V30 16012 O 1509.28 1.61841 1.07337 0
M  V30 16013 C 1506.41 3.10328 1.55929 0
M  V30 16014 C 1505.36 4.14735 1.05731 0
M  V30 16015 C 1504.69 4.83858 2.27565 0
M  V30 16016 C 1505.99 5.22154 0.123346 0
M  V30 16017 H 1507.68 2.9868 -0.207563 0
M  V30 16018 H 1505.23 1.43643 -0.101266 0
M  V30 16019 H 1507.18 3.62814 2.14346 0
M  V30 16020 H 1505.91 2.38832 2.22771 0
M  V30 16021 H 1504.57 3.63234 0.495653 0
M  V30 16022 H 1504.21 4.08907 2.92923 0
M  V30 16023 H 1503.91 5.54428 1.94637 0
M  V30 16024 H 1505.44 5.39149 2.86619 0
M  V30 16025 H 1506.85 5.69983 0.615784 0
M  V30 16026 H 1505.25 5.99987 -0.116304 0
M  V30 16027 H 1506.32 4.77796 -0.826969 0
M  V30 16028 N 1507.66 0.121921 1.57128 0
M  V30 16029 C 1509.08 -0.234655 1.57866 0
M  V30 16030 C 1509.28 -1.66506 1.13482 0
M  V30 16031 O 1508.33 -2.38692 0.823544 0
M  V30 16032 C 1509.65 0.00131784 3.007 0
M  V30 16033 C 1511.2 -0.0643537 3.12934 0
M  V30 16034 C 1511.67 0.143964 4.57774 0
M  V30 16035 N 1513.16 0.0900323 4.63112 0
M  V30 16036 C 1513.9 0.22608 5.72954 0
M  V30 16037 N 1513.39 0.418461 6.91535 0
M  V30 16038 N 1515.19 0.165449 5.61856 0
M  V30 16039 H 1507.34 1.05618 1.84279 0
M  V30 16040 H 1509.6 0.416132 0.851785 0
M  V30 16041 H 1509.31 0.99031 3.3747 0
M  V30 16042 H 1509.18 -0.729266 3.70083 0
M  V30 16043 H 1511.57 -1.04387 2.7602 0
M  V30 16044 H 1511.65 0.698157 2.46088 0
M  V30 16045 H 1511.29 1.12047 4.95387 0
M  V30 16046 H 1511.22 -0.638569 5.22714 0
M  V30 16047 H 1513.71 -0.0550269 3.7786 0
M  V30 16048 H 1514.03 0.513057 7.71095 0
M  V30 16049 H 1512.37 0.454471 6.93512 0
M  V30 16050 H 1515.56 0.0160945 4.68097 0
M  V30 16051 H 1515.73 0.274917 6.47417 0
M  V30 16052 N 1509.14 -1.56867 -0.151857 0
M  V30 16053 C 1510.56 -1.51422 -0.504328 0
M  V30 16054 C 1510.76 -0.829524 -1.83633 0
M  V30 16055 O 1509.81 -0.398018 -2.49343 0
M  V30 16056 C 1511.13 -2.96185 -0.519117 0
M  V30 16057 C 1512.67 -3.07098 -0.60497 0
M  V30 16058 C 1513.15 -4.53357 -0.650468 0
M  V30 16059 N 1514.64 -4.57682 -0.712825 0
M  V30 16060 C 1515.37 -5.68221 -0.768931 0
M  V30 16061 N 1514.87 -6.88342 -0.784678 0
M  V30 16062 N 1516.66 -5.56241 -0.809441 0
M  V30 16063 H 1508.81 -1.99777 0.721316 0
M  V30 16064 H 1511.08 -0.910951 0.262436 0
M  V30 16065 H 1510.78 -3.49516 0.391315 0
M  V30 16066 H 1510.66 -3.51877 -1.35876 0
M  V30 16067 H 1513.04 -2.53789 -1.50582 0
M  V30 16068 H 1513.13 -2.54458 0.261722 0
M  V30 16069 H 1512.77 -5.07303 0.246207 0
M  V30 16070 H 1512.7 -5.03775 -1.53358 0
M  V30 16071 H 1515.19 -3.71206 -0.708151 0
M  V30 16072 H 1515.5 -7.68339 -0.829202 0
M  V30 16073 H 1513.85 -6.90913 -0.752634 0
M  V30 16074 H 1517.04 -4.61312 -0.794274 0
M  V30 16075 H 1517.21 -6.42405 -0.849701 0
M  V30 16076 N 1510.62 0.421051 -1.51871 0
M  V30 16077 C 1511.58 1.49478 -1.73749 0
M  V30 16078 C 1512.58 1.48887 -0.607395 0
M  V30 16079 O 1513.77 1.50622 -0.875143 0
M  V30 16080 C 1510.9 2.88947 -1.80893 0
M  V30 16081 H 1512.1 1.31377 -2.69593 0
M  V30 16082 H 1509.65 0.650786 -1.42107 0
M  V30 16083 H 1510.38 3.12434 -0.86922 0
M  V30 16084 H 1510.17 2.90781 -2.63038 0
M  V30 16085 H 1511.66 3.66809 -1.99602 0
M  V30 16086 N 1512.1 1.42293 0.677538 0
M  V30 16087 C 1513.34 1.44099 1.44965 0
M  V30 16088 C 1513.7 0.0545275 1.91923 0
M  V30 16089 O 1514.9 -0.0526718 2.68748 0
M  V30 16090 C 1513.17 2.43462 2.61651 0
M  V30 16091 S 1514.73 2.63947 3.50538 0
M  V30 16092 H 1511.55 0.51024 0.495153 0
M  V30 16093 H 1514.15 1.78874 0.788939 0
M  V30 16094 H 1512.86 3.42971 2.25387 0
M  V30 16095 H 1512.39 2.10102 3.32597 0
M  V30 16096 H 1514.4 1.92042 4.57531 0
M  V30 16097 N 1513.57 -0.913576 1.28419 0
M  V30 16098 C 1514.82 -1.66273 1.15584 0
M  V30 16099 C 1515.15 -1.92242 -0.295541 0
M  V30 16100 O 1514.4 -1.52104 -1.23137 0
M  V30 16101 C 1514.7 -3.02722 1.89985 0
M  V30 16102 C 1514.37 -2.96413 3.3978 0
M  V30 16103 C 1513.03 -2.94399 3.80635 0
M  V30 16104 C 1515.38 -2.86648 4.35296 0
M  V30 16105 C 1512.71 -2.80422 5.15345 0
M  V30 16106 C 1515.06 -2.74211 5.7008 0
M  V30 16107 C 1513.73 -2.70556 6.1021 0
M  V30 16108 H 1513 -0.608435 0.422951 0
M  V30 16109 H 1515.64 -1.06438 1.59196 0
M  V30 16110 H 1513.95 -3.66344 1.38923 0
M  V30 16111 H 1515.65 -3.59591 1.7747 0
M  V30 16112 H 1512.24 -2.98775 3.07297 0
M  V30 16113 H 1516.42 -2.87291 4.04695 0
M  V30 16114 H 1511.68 -2.75987 5.45565 0
M  V30 16115 H 1515.85 -2.65624 6.43752 0
M  V30 16116 H 1513.48 -2.59483 7.14544 0
M  V30 16117 N 1515.05 -1.1067 -1.12204 0
M  V30 16118 C 1516 -0.757745 -2.18007 0
M  V30 16119 C 1516.97 0.26706 -1.63939 0
M  V30 16120 O 1518.15 0.145789 -1.90242 0
M  V30 16121 C 1515.29 -0.198379 -3.44529 0
M  V30 16122 C 1514.41 -1.27878 -4.12639 0
M  V30 16123 C 1513.54 -0.6808 -5.26819 0
M  V30 16124 C 1512.58 -1.74161 -5.868 0
M  V30 16125 N 1511.72 -1.16372 -6.92389 0
M  V30 16126 H 1516.56 -1.66418 -2.47202 0
M  V30 16127 H 1514.1 -0.831216 -1.21364 0
M  V30 16128 H 1516.05 0.143838 -4.16952 0
M  V30 16129 H 1514.68 0.671279 -3.15743 0
M  V30 16130 H 1513.74 -1.73808 -3.38371 0
M  V30 16131 H 1515.05 -2.08169 -4.53285 0
M  V30 16132 H 1514.2 -0.288172 -6.06015 0
M  V30 16133 H 1512.94 0.153521 -4.87458 0
M  V30 16134 H 1511.95 -2.14364 -5.06289 0
M  V30 16135 H 1513.17 -2.57882 -6.28231 0
M  V30 16136 H 1511.12 -0.350899 -6.55061 0
M  V30 16137 H 1511.03 -1.90344 -7.31646 0
M  V30 16138 H 1512.3 -0.797715 -7.75407 0
M  V30 16139 N 1516.53 1.29665 -0.895815 0
M  V30 16140 C 1517.78 1.94995 -0.515749 0
M  V30 16141 C 1518.09 1.71427 0.94192 0
M  V30 16142 O 1519.3 2.3083 1.42933 0
M  V30 16143 C 1517.75 3.4919 -0.871468 0
M  V30 16144 C 1517.36 3.81562 -2.34764 0
M  V30 16145 C 1519.11 4.20775 -0.561123 0
M  V30 16146 C 1517.01 5.28984 -2.64442 0
M  V30 16147 H 1515.94 0.729889 -0.189151 0
M  V30 16148 H 1518.59 1.4745 -1.09228 0
M  V30 16149 H 1516.98 3.95366 -0.223908 0
M  V30 16150 H 1518.15 3.46258 -3.04043 0
M  V30 16151 H 1516.47 3.23107 -2.62661 0
M  V30 16152 H 1519.06 5.29275 -0.759755 0
M  V30 16153 H 1519.41 4.13285 0.500129 0
M  V30 16154 H 1519.94 3.80317 -1.16635 0
M  V30 16155 H 1516.68 5.41535 -3.69351 0
M  V30 16156 H 1516.2 5.6555 -1.99784 0
M  V30 16157 H 1517.88 5.96536 -2.50506 0
M  V30 16158 N 1518.01 0.657889 1.43212 0
M  V30 16159 C 1519.25 0.173443 2.02057 0
M  V30 16160 C 1519.59 -1.21108 1.51811 0
M  V30 16161 O 1518.86 -1.80953 0.71317 0
M  V30 16162 C 1519.15 0.189429 3.59601 0
M  V30 16163 C 1519 1.6082 4.20068 0
M  V30 16164 C 1520.32 -0.471633 4.37566 0
M  V30 16165 H 1517.44 0.0644999 0.734172 0
M  V30 16166 H 1520.08 0.839462 1.7045 0
M  V30 16167 H 1518.23 -0.377689 3.8666 0
M  V30 16168 H 1519.9 2.22627 4.04024 0
M  V30 16169 H 1518.14 2.15407 3.7654 0
M  V30 16170 H 1518.81 1.5712 5.29167 0
M  V30 16171 H 1521.29 0.0109387 4.16099 0
M  V30 16172 H 1520.17 -0.429739 5.47215 0
M  V30 16173 H 1520.43 -1.54652 4.14168 0
M  V30 16174 N 1519.49 -1.52437 0.400108 0
M  V30 16175 C 1520.4 -2.30496 -0.436875 0
M  V30 16176 C 1521.41 -1.37851 -1.06175 0
M  V30 16177 O 1522.59 -1.70924 -1.06522 0
M  V30 16178 C 1519.65 -3.10459 -1.54325 0
M  V30 16179 C 1518.71 -4.18829 -0.942367 0
M  V30 16180 C 1517.95 -4.94969 -1.99602 0
M  V30 16181 O 1518.17 -4.71314 -3.21278 0
M  V30 16182 O 1517.1 -5.80043 -1.60728 0
M  V30 16183 H 1520.93 -3.03045 0.199343 0
M  V30 16184 H 1518.52 -1.48502 0.163541 0
M  V30 16185 H 1520.4 -3.60282 -2.18575 0
M  V30 16186 H 1519.07 -2.40713 -2.16423 0
M  V30 16187 H 1517.98 -3.73176 -0.262831 0
M  V30 16188 H 1519.31 -4.90841 -0.365441 0
M  V30 16189 N 1520.96 -0.130252 -1.57061 0
M  V30 16190 C 1521.91 0.827158 -2.12467 0
M  V30 16191 C 1522.9 1.22069 -1.04824 0
M  V30 16192 O 1524.09 1.1899 -1.31036 0
M  V30 16193 C 1521.22 2.07284 -2.73657 0
M  V30 16194 C 1520.31 1.70317 -3.88398 0
M  V30 16195 N 1520.7 1.04082 -4.94975 0
M  V30 16196 C 1518.99 1.99701 -3.98793 0
M  V30 16197 C 1519.7 0.865016 -5.75232 0
M  V30 16198 N 1518.67 1.39359 -5.25433 0
M  V30 16199 H 1522.47 0.311706 -2.92242 0
M  V30 16200 H 1519.99 0.0718523 -1.62241 0
M  V30 16201 H 1521.98 2.76854 -3.11701 0
M  V30 16202 H 1520.64 2.59363 -1.95349 0
M  V30 16203 H 1521.66 0.703501 -5.131 0
M  V30 16204 H 1518.33 2.53747 -3.3154 0
M  V30 16205 H 1519.72 0.344255 -6.71018 0
M  V30 16206 N 1522.44 1.56945 0.143535 0
M  V30 16207 C 1523.39 1.99479 1.19628 0
M  V30 16208 C 1524.39 0.887733 1.44276 0
M  V30 16209 O 1525.59 1.07292 1.44528 0
M  V30 16210 H 1521.97 0.635049 0.402761 0
M  V30 16211 H 1523.94 2.87171 0.810877 0
M  V30 16212 C 1522.69 2.39436 2.52123 0
M  V30 16213 H 1522.01 3.24176 2.33987 0
M  V30 16214 H 1523.45 2.73017 3.24404 0
M  V30 16215 C 1521.91 1.24836 3.12918 0
M  V30 16216 O 1522.44 0.550973 3.97903 0
M  V30 16217 N 1520.64 1.01172 2.7242 0
M  V30 16218 H 1520.19 1.5806 2.03408 0
M  V30 16219 H 1520.15 0.246846 3.13429 0
M  V30 16220 N 1523.92 -0.412991 1.52093 0
M  V30 16221 C 1525.17 -1.15878 1.67164 0
M  V30 16222 C 1525.52 -1.88306 0.394772 0
M  V30 16223 O 1524.82 -1.8161 -0.610614 0
M  V30 16224 C 1525.01 -2.18321 2.82968 0
M  V30 16225 C 1524.84 -1.55951 4.21793 0
M  V30 16226 C 1523.61 -1.33389 4.87376 0
M  V30 16227 C 1525.81 -1.02249 5.04033 0
M  V30 16228 N 1523.79 -0.668717 6.10247 0
M  V30 16229 C 1525.16 -0.484011 6.18108 0
M  V30 16230 C 1527.21 -0.916583 4.89391 0
M  V30 16231 C 1525.92 0.149993 7.19144 0
M  V30 16232 C 1527.94 -0.296438 5.90657 0
M  V30 16233 C 1527.31 0.231383 7.0402 0
M  V30 16234 H 1523.4 -0.410837 0.665385 0
M  V30 16235 H 1525.99 -0.451728 1.89387 0
M  V30 16236 H 1524.16 -2.86389 2.62366 0
M  V30 16237 H 1525.89 -2.85234 2.87095 0
M  V30 16238 H 1522.65 -1.60235 4.4567 0
M  V30 16239 H 1523.07 -0.352867 6.7608 0
M  V30 16240 H 1527.71 -1.31049 4.01978 0
M  V30 16241 H 1525.43 0.555971 8.06185 0
M  V30 16242 H 1529.02 -0.216065 5.81399 0
M  V30 16243 H 1527.9 0.703689 7.81036 0
M  V30 16244 N 1525.4 -1.4265 -0.669982 0
M  V30 16245 C 1526.65 -1.43376 -1.43002 0
M  V30 16246 C 1526.97 -0.0519386 -1.94431 0
M  V30 16247 O 1526.23 0.940456 -1.71621 0
M  V30 16248 C 1526.53 -2.40913 -2.63999 0
M  V30 16249 C 1526.19 -3.87183 -2.31085 0
M  V30 16250 C 1524.86 -4.27024 -2.21819 0
M  V30 16251 C 1527.21 -4.79428 -2.04447 0
M  V30 16252 C 1524.54 -5.57084 -1.84049 0
M  V30 16253 C 1526.89 -6.09835 -1.68179 0
M  V30 16254 C 1525.55 -6.4867 -1.57428 0
M  V30 16255 H 1524.82 -0.524651 -0.52328 0
M  V30 16256 H 1527.47 -1.75622 -0.763494 0
M  V30 16257 H 1525.77 -2.02012 -3.35706 0
M  V30 16258 H 1527.47 -2.38737 -3.22189 0
M  V30 16259 H 1524.06 -3.55642 -2.392 0
M  V30 16260 H 1528.25 -4.49431 -2.10535 0
M  V30 16261 H 1523.5 -5.86029 -1.74298 0
M  V30 16262 H 1527.68 -6.80796 -1.46594 0
M  V30 16263 H 1525.3 -7.49358 -1.2793 0
M  V30 16264 N 1526.88 0.906753 -1.28902 0
M  V30 16265 C 1527.79 2.04313 -1.15296 0
M  V30 16266 C 1528.8 1.73826 -0.0778619 0
M  V30 16267 O 1529.98 1.99322 -0.288543 0
M  V30 16268 C 1527.04 3.36782 -0.823317 0
M  V30 16269 C 1526.11 3.80834 -1.98152 0
M  V30 16270 C 1525.34 5.06981 -1.66751 0
M  V30 16271 O 1525.56 5.67391 -0.58513 0
M  V30 16272 O 1524.5 5.46915 -2.51332 0
M  V30 16273 H 1528.32 2.18713 -2.10709 0
M  V30 16274 H 1525.91 1.02928 -1.08287 0
M  V30 16275 H 1527.79 4.16298 -0.653735 0
M  V30 16276 H 1526.46 3.23542 0.101097 0
M  V30 16277 H 1525.37 3.02115 -2.2063 0
M  V30 16278 H 1526.7 3.98648 -2.88688 0
M  V30 16279 N 1528.36 1.11264 1.11616 0
M  V30 16280 C 1529.58 0.882802 1.87121 0
M  V30 16281 C 1530 -0.567279 1.80076 0
M  V30 16282 O 1529.36 -1.39158 1.18074 0
M  V30 16283 C 1529.41 1.33355 3.36004 0
M  V30 16284 O 1529.13 2.72678 3.42897 0
M  V30 16285 C 1530.63 1.13886 4.28421 0
M  V30 16286 H 1527.85 0.316275 0.591786 0
M  V30 16287 H 1530.39 1.4795 1.41177 0
M  V30 16288 H 1528.55 0.780347 3.79459 0
M  V30 16289 H 1528.96 2.92168 4.35589 0
M  V30 16290 H 1530.44 1.50329 5.31136 0
M  V30 16291 H 1530.91 0.078259 4.3913 0
M  V30 16292 H 1531.52 1.67896 3.90757 0
M  V30 16293 N 1529.83 -1.29188 0.902679 0
M  V30 16294 C 1531.08 -1.95438 0.530124 0
M  V30 16295 C 1531.41 -1.71142 -0.924149 0
M  V30 16296 O 1530.66 -1.01901 -1.67077 0
M  V30 16297 C 1530.96 -3.48951 0.772542 0
M  V30 16298 C 1530.63 -3.93328 2.20464 0
M  V30 16299 C 1529.29 -4.05155 2.59621 0
M  V30 16300 C 1531.64 -4.16216 3.13709 0
M  V30 16301 C 1528.97 -4.37242 3.91198 0
M  V30 16302 C 1531.32 -4.49779 4.44839 0
M  V30 16303 C 1529.99 -4.59817 4.83865 0
M  V30 16304 H 1529.26 -0.715158 0.193986 0
M  V30 16305 H 1531.9 -1.5373 1.1419 0
M  V30 16306 H 1530.21 -3.91723 0.0778683 0
M  V30 16307 H 1531.91 -3.98311 0.463623 0
M  V30 16308 H 1528.5 -3.84641 1.89075 0
M  V30 16309 H 1532.68 -4.06542 2.8467 0
M  V30 16310 H 1527.94 -4.43217 4.21152 0
M  V30 16311 H 1532.11 -4.66439 5.17115 0
M  V30 16312 H 1529.74 -4.84435 5.85856 0
M  V30 16313 N 1531.31 -0.665475 -1.42861 0
M  V30 16314 C 1532.56 -0.181149 -2.00885 0
M  V30 16315 C 1532.87 1.21629 -1.53186 0
M  V30 16316 O 1534.08 1.79648 -2.03565 0
M  V30 16317 C 1532.54 -0.273017 -3.58863 0
M  V30 16318 C 1532.14 -1.67392 -4.15553 0
M  V30 16319 C 1533.89 0.153075 -4.24224 0
M  V30 16320 C 1531.79 -1.71905 -5.65864 0
M  V30 16321 H 1530.72 -0.0639619 -0.751282 0
M  V30 16322 H 1533.38 -0.829299 -1.63691 0
M  V30 16323 H 1531.76 0.44286 -3.93516 0
M  V30 16324 H 1532.93 -2.41613 -3.92377 0
M  V30 16325 H 1531.25 -2.04704 -3.62609 0
M  V30 16326 H 1533.84 0.139369 -5.34518 0
M  V30 16327 H 1534.19 1.1867 -3.99028 0
M  V30 16328 H 1534.72 -0.511472 -3.94498 0
M  V30 16329 H 1531.46 -2.73218 -5.95846 0
M  V30 16330 H 1530.98 -1.02027 -5.91059 0
M  V30 16331 H 1532.66 -1.46829 -6.30119 0
M  V30 16332 N 1532.79 1.52222 -0.408187 0
M  V30 16333 C 1534.04 2.02102 0.168154 0
M  V30 16334 C 1534.37 1.2933 1.4487 0
M  V30 16335 O 1533.64 0.399336 1.90356 0
M  V30 16336 C 1533.93 3.57679 0.416821 0
M  V30 16337 C 1533.78 4.41101 -0.880335 0
M  V30 16338 C 1535.1 4.23442 1.19936 0
M  V30 16339 H 1532.22 0.734583 0.0596402 0
M  V30 16340 H 1534.86 1.82121 -0.541467 0
M  V30 16341 H 1533.01 3.74835 1.02131 0
M  V30 16342 H 1534.68 4.35658 -1.51656 0
M  V30 16343 H 1532.92 4.07353 -1.49152 0
M  V30 16344 H 1533.6 5.48031 -0.660748 0
M  V30 16345 H 1536.07 4.10379 0.687605 0
M  V30 16346 H 1534.95 5.32239 1.3421 0
M  V30 16347 H 1535.21 3.82335 2.21973 0
M  V30 16348 N 1534.27 0.138579 1.5699 0
M  V30 16349 C 1535.51 -0.514627 1.95852 0
M  V30 16350 C 1535.84 -1.65424 1.02299 0
M  V30 16351 O 1535.1 -1.95635 0.0505654 0
M  V30 16352 C 1535.4 -1.06969 3.41017 0
M  V30 16353 C 1535.06 -0.049396 4.50873 0
M  V30 16354 C 1533.72 0.231103 4.80645 0
M  V30 16355 C 1536.08 0.644865 5.17195 0
M  V30 16356 C 1533.4 1.21181 5.74049 0
M  V30 16357 C 1535.76 1.61434 6.11655 0
M  V30 16358 C 1534.42 1.90262 6.3981 0
M  V30 16359 H 1533.69 -0.188315 0.716672 0
M  V30 16360 H 1536.34 0.223629 1.9019 0
M  V30 16361 H 1534.64 -1.88511 3.43469 0
M  V30 16362 H 1536.34 -1.58354 3.68409 0
M  V30 16363 H 1532.93 -0.278202 4.27696 0
M  V30 16364 H 1537.11 0.441346 4.94334 0
M  V30 16365 H 1532.37 1.4417 5.94159 0
M  V30 16366 H 1536.54 2.15786 6.62125 0
M  V30 16367 H 1534.17 2.66407 7.11991 0
M  V30 16368 N 1535.75 -1.57019 -0.13521 0
M  V30 16369 C 1536.68 -1.94319 -1.19646 0
M  V30 16370 C 1537.66 -0.810603 -1.40954 0
M  V30 16371 O 1538.84 -1.0673 -1.55374 0
M  V30 16372 C 1535.97 -2.22542 -2.55328 0
M  V30 16373 C 1535.01 -3.45151 -2.50546 0
M  V30 16374 S 1535.85 -4.98307 -1.96089 0
M  V30 16375 C 1537 -5.29665 -3.33476 0
M  V30 16376 H 1537.24 -2.8403 -0.878294 0
M  V30 16377 H 1534.77 -1.5058 -0.341313 0
M  V30 16378 H 1536.73 -2.39482 -3.33405 0
M  V30 16379 H 1535.39 -1.33474 -2.8433 0
M  V30 16380 H 1534.58 -3.62213 -3.50454 0
M  V30 16381 H 1534.18 -3.27514 -1.80583 0
M  V30 16382 H 1536.47 -5.23854 -4.29631 0
M  V30 16383 H 1537.42 -6.31031 -3.21256 0
M  V30 16384 H 1537.83 -4.57161 -3.31156 0
M  V30 16385 N 1537.22 0.404919 -1.52309 0
M  V30 16386 C 1538.47 1.14859 -1.65802 0
M  V30 16387 C 1538.79 1.91546 -0.396174 0
M  V30 16388 O 1539.99 2.68372 -0.410969 0
M  V30 16389 C 1538.45 2.09068 -2.92948 0
M  V30 16390 C 1538.06 1.37878 -4.26255 0
M  V30 16391 C 1539.8 2.83669 -3.15804 0
M  V30 16392 C 1537.71 2.30761 -5.44521 0
M  V30 16393 H 1536.64 0.432463 -0.61765 0
M  V30 16394 H 1539.29 0.412695 -1.78799 0
M  V30 16395 H 1537.67 2.86228 -2.7366 0
M  V30 16396 H 1538.84 0.660543 -4.56041 0
M  V30 16397 H 1537.16 0.753026 -4.09534 0
M  V30 16398 H 1539.76 3.53313 -4.0134 0
M  V30 16399 H 1540.1 3.46855 -2.30212 0
M  V30 16400 H 1540.63 2.13607 -3.35584 0
M  V30 16401 H 1537.37 1.72214 -6.32473 0
M  V30 16402 H 1536.89 3.00546 -5.19069 0
M  V30 16403 H 1538.57 2.91195 -5.77767 0
M  V30 16404 N 1538.7 1.43003 0.662408 0
M  V30 16405 C 1539.63 1.50248 1.78739 0
M  V30 16406 C 1540.61 0.357934 1.66291 0
M  V30 16407 O 1541.8 0.573919 1.85526 0
M  V30 16408 C 1538.93 1.41618 3.17114 0
M  V30 16409 C 1537.88 2.54228 3.44314 0
M  V30 16410 C 1537.21 2.30653 4.82393 0
M  V30 16411 C 1538.51 3.96505 3.39972 0
M  V30 16412 H 1540.2 2.44406 1.72934 0
M  V30 16413 H 1537.75 1.17633 0.830569 0
M  V30 16414 H 1539.7 1.45293 3.9556 0
M  V30 16415 H 1538.43 0.439605 3.23628 0
M  V30 16416 H 1537.08 2.49891 2.68235 0
M  V30 16417 H 1536.73 1.3126 4.85572 0
M  V30 16418 H 1536.43 3.06134 5.01554 0
M  V30 16419 H 1537.96 2.36096 5.63108 0
M  V30 16420 H 1539.37 4.02378 4.08368 0
M  V30 16421 H 1537.77 4.71937 3.70668 0
M  V30 16422 H 1538.84 4.22295 2.38318 0
M  V30 16423 N 1540.18 -0.899904 1.29381 0
M  V30 16424 C 1541.11 -2.02045 1.17047 0
M  V30 16425 C 1542.09 -1.69977 0.0647354 0
M  V30 16426 O 1543.28 -1.92659 0.244173 0
M  V30 16427 C 1540.41 -3.36839 0.845991 0
M  V30 16428 C 1539.36 -3.83117 1.90802 0
M  V30 16429 C 1538.69 -5.15032 1.43686 0
M  V30 16430 C 1539.99 -4.03464 3.31684 0
M  V30 16431 H 1541.68 -2.12623 2.10789 0
M  V30 16432 H 1539.23 -1.02162 1.01484 0
M  V30 16433 H 1541.18 -4.14737 0.746413 0
M  V30 16434 H 1539.9 -3.26352 -0.127125 0
M  V30 16435 H 1538.56 -3.07435 1.99698 0
M  V30 16436 H 1538.21 -5.00961 0.452422 0
M  V30 16437 H 1537.91 -5.46967 2.14711 0
M  V30 16438 H 1539.43 -5.95472 1.35078 0
M  V30 16439 H 1540.85 -4.71845 3.25631 0
M  V30 16440 H 1539.25 -4.46752 4.00665 0
M  V30 16441 H 1540.32 -3.07807 3.74677 0
M  V30 16442 N 1541.66 -1.11854 -1.11024 0
M  V30 16443 C 1542.88 -0.892999 -1.8719 0
M  V30 16444 C 1543.31 0.552058 -1.79816 0
M  V30 16445 O 1542.67 1.39025 -1.16369 0
M  V30 16446 C 1542.71 -1.3647 -3.33779 0
M  V30 16447 O 1541.82 -0.539202 -4.0886 0
M  V30 16448 H 1541.16 -0.321319 -0.581076 0
M  V30 16449 H 1543.69 -1.4891 -1.4031 0
M  V30 16450 H 1543.7 -1.3611 -3.84627 0
M  V30 16451 H 1542.37 -2.41694 -3.38462 0
M  V30 16452 H 1540.95 -0.60927 -3.67889 0
M  V30 16453 N 1543.14 1.28707 -0.909517 0
M  V30 16454 C 1544.36 1.99821 -0.555557 0
M  V30 16455 C 1544.79 1.67549 0.854931 0
M  V30 16456 O 1544.14 0.905521 1.57067 0
M  V30 16457 C 1544.19 3.52361 -0.766438 0
M  V30 16458 O 1543.3 4.12022 0.17654 0
M  V30 16459 H 1542.64 0.627918 -0.215905 0
M  V30 16460 H 1545.17 1.63965 -1.2238 0
M  V30 16461 H 1545.18 4.02379 -0.674894 0
M  V30 16462 H 1543.85 3.75184 -1.7947 0
M  V30 16463 H 1542.43 3.72882 0.0366216 0
M  V30 16464 N 1544.61 0.673042 1.42506 0
M  V30 16465 C 1545.86 0.194192 2.01165 0
M  V30 16466 C 1546.18 -1.2029 1.53477 0
M  V30 16467 O 1545.45 -1.80737 0.755704 0
M  V30 16468 H 1544.03 0.0688022 0.743825 0
M  V30 16469 H 1546.7 0.869157 1.74447 0
M  V30 16470 H 1545.79 0.194111 3.11496 0
M  V30 16471 N 1546.09 -1.52004 0.416254 0
M  V30 16472 C 1547.06 -2.2579 -0.393882 0
M  V30 16473 C 1548.06 -1.28427 -0.967637 0
M  V30 16474 O 1549.25 -1.52311 -0.845396 0
M  V30 16475 C 1546.38 -3.03361 -1.55515 0
M  V30 16476 H 1547.57 -2.98835 0.252492 0
M  V30 16477 H 1545.12 -1.55384 0.168929 0
M  V30 16478 H 1545.86 -2.34682 -2.23818 0
M  V30 16479 H 1545.64 -3.74852 -1.15015 0
M  V30 16480 H 1547.13 -3.5931 -2.12805 0
M  V30 16481 N 1547.57 -0.146903 -1.56914 0
M  V30 16482 C 1548.5 0.788924 -2.19769 0
M  V30 16483 C 1549.48 1.25712 -1.14589 0
M  V30 16484 O 1550.67 1.3147 -1.42931 0
M  V30 16485 C 1547.8 2.02824 -2.81921 0
M  V30 16486 C 1546.75 1.69683 -3.92927 0
M  V30 16487 C 1546.08 3.00877 -4.42015 0
M  V30 16488 C 1547.38 0.943559 -5.13706 0
M  V30 16489 H 1549.07 0.265076 -2.98224 0
M  V30 16490 H 1546.62 0.126057 -1.43447 0
M  V30 16491 H 1548.57 2.68773 -3.2456 0
M  V30 16492 H 1547.29 2.57581 -2.00797 0
M  V30 16493 H 1545.95 1.06112 -3.50907 0
M  V30 16494 H 1545.6 3.53625 -3.57713 0
M  V30 16495 H 1545.3 2.79466 -5.16888 0
M  V30 16496 H 1546.82 3.67897 -4.87323 0
M  V30 16497 H 1548.24 1.50513 -5.5319 0
M  V30 16498 H 1546.64 0.829387 -5.94341 0
M  V30 16499 H 1547.71 -0.0647228 -4.84857 0
M  V30 16500 N 1549.05 1.57088 0.126881 0
M  V30 16501 C 1550.01 1.98836 1.14003 0
M  V30 16502 C 1551.01 0.877454 1.34749 0
M  V30 16503 O 1552.2 1.14366 1.314 0
M  V30 16504 C 1549.33 2.32171 2.49618 0
M  V30 16505 H 1550.53 2.89541 0.7814 0
M  V30 16506 H 1548.08 1.51835 0.370915 0
M  V30 16507 H 1548.81 1.44321 2.90417 0
M  V30 16508 H 1548.6 3.13187 2.35916 0
M  V30 16509 H 1550.09 2.65238 3.2255 0
M  V30 16510 N 1550.53 -0.396836 1.52522 0
M  V30 16511 C 1551.77 -1.14263 1.67183 0
M  V30 16512 C 1552.1 -1.90176 0.407845 0
M  V30 16513 O 1551.36 -1.85965 -0.609553 0
M  V30 16514 C 1551.66 -2.15308 2.85267 0
M  V30 16515 C 1551.32 -1.56111 4.23013 0
M  V30 16516 C 1549.98 -1.39692 4.60478 0
M  V30 16517 C 1552.34 -1.12998 5.08803 0
M  V30 16518 C 1549.66 -0.786963 5.81398 0
M  V30 16519 C 1552.02 -0.534159 6.30341 0
M  V30 16520 C 1550.68 -0.357204 6.66544 0
M  V30 16521 H 1549.95 -0.418118 0.611766 0
M  V30 16522 H 1552.6 -0.428255 1.8665 0
M  V30 16523 H 1550.9 -2.92935 2.60185 0
M  V30 16524 H 1552.6 -2.72908 2.93806 0
M  V30 16525 H 1549.19 -1.69876 3.93497 0
M  V30 16526 H 1553.37 -1.24488 4.80434 0
M  V30 16527 H 1548.63 -0.63799 6.08062 0
M  V30 16528 H 1552.8 -0.191759 6.96136 0
M  V30 16529 H 1550.43 0.117528 7.60109 0
M  V30 16530 N 1552.01 -1.43353 -0.654814 0
M  V30 16531 C 1552.92 -1.50831 -1.79687 0
M  V30 16532 C 1553.93 -0.395518 -1.69445 0
M  V30 16533 O 1555.11 -0.649408 -1.90643 0
M  V30 16534 C 1552.17 -1.42735 -3.15955 0
M  V30 16535 C 1551.23 -2.64671 -3.38005 0
M  V30 16536 C 1550.47 -2.56952 -4.67773 0
M  V30 16537 O 1550.69 -1.61638 -5.47019 0
M  V30 16538 O 1549.62 -3.47425 -4.91507 0
M  V30 16539 H 1553.45 -2.47266 -1.76333 0
M  V30 16540 H 1551.03 -1.25336 -0.813095 0
M  V30 16541 H 1552.92 -1.40656 -3.97233 0
M  V30 16542 H 1551.59 -0.494334 -3.19903 0
M  V30 16543 H 1550.5 -2.72323 -2.56498 0
M  V30 16544 H 1551.83 -3.5694 -3.38903 0
M  V30 16545 N 1553.48 0.89303 -1.29857 0
M  V30 16546 C 1554.76 1.62492 -1.08884 0
M  V30 16547 C 1555.14 2.07926 0.364695 0
M  V30 16548 O 1554.49 1.84009 1.35473 0
M  V30 16549 C 1554.7 2.80063 -2.08245 0
M  V30 16550 C 1556.05 3.50589 -2.39526 0
M  V30 16551 O 1557.07 2.90241 -2.06492 0
M  V30 16552 O 1555.93 4.59399 -2.95998 0
M  V30 16553 H 1553.02 0.713805 -0.417626 0
M  V30 16554 H 1555.57 0.940513 -1.41253 0
M  V30 16555 H 1554.34 2.43735 -3.06119 0
M  V30 16556 H 1553.96 3.56205 -1.76645 0
M  V30 16557 N 1554.96 1.12442 1.10429 0
M  V30 16558 C 1556.21 0.874466 1.81758 0
M  V30 16559 C 1556.52 -0.601487 1.86122 0
M  V30 16560 O 1557.73 -0.968037 2.53656 0
M  V30 16561 C 1556.19 1.51478 3.2647 0
M  V30 16562 C 1555.79 3.02552 3.30403 0
M  V30 16563 C 1557.54 1.34511 4.02625 0
M  V30 16564 C 1555.44 3.59518 4.69575 0
M  V30 16565 H 1554.37 0.323494 0.681078 0
M  V30 16566 H 1557.03 1.35091 1.24188 0
M  V30 16567 H 1555.41 0.966 3.84037 0
M  V30 16568 H 1556.58 3.63924 2.82659 0
M  V30 16569 H 1554.9 3.18917 2.67733 0
M  V30 16570 H 1557.49 1.74492 5.05427 0
M  V30 16571 H 1557.84 0.288788 4.15297 0
M  V30 16572 H 1558.37 1.86311 3.51473 0
M  V30 16573 H 1555.11 4.6491 4.62103 0
M  V30 16574 H 1554.63 3.02922 5.17686 0
M  V30 16575 H 1556.31 3.58581 5.38543 0
M  V30 16576 N 1556.44 -1.28223 0.91633 0
M  V30 16577 C 1557.67 -1.98697 0.56595 0
M  V30 16578 C 1558.08 -1.6864 -0.857734 0
M  V30 16579 O 1557.42 -0.937018 -1.58005 0
M  V30 16580 C 1557.48 -3.52653 0.698292 0
M  V30 16581 C 1557.15 -4.06306 2.092 0
M  V30 16582 C 1558.14 -4.19946 3.06499 0
M  V30 16583 C 1555.83 -4.40934 2.40587 0
M  V30 16584 C 1557.82 -4.67471 4.33301 0
M  V30 16585 C 1555.51 -4.88153 3.67628 0
M  V30 16586 C 1556.51 -5.01378 4.63798 0
M  V30 16587 O 1556.2 -5.47566 5.8858 0
M  V30 16588 H 1555.93 -0.641153 0.214239 0
M  V30 16589 H 1558.48 -1.64322 1.23237 0
M  V30 16590 H 1556.71 -3.86692 -0.0252036 0
M  V30 16591 H 1558.4 -4.04348 0.354638 0
M  V30 16592 H 1559.17 -3.93464 2.83569 0
M  V30 16593 H 1555.05 -4.29889 1.66482 0
M  V30 16594 H 1558.59 -4.77709 5.0837 0
M  V30 16595 H 1554.49 -5.14074 3.90382 0
M  V30 16596 H 1555.25 -5.65845 5.91406 0
M  V30 16597 N 1557.92 -0.68059 -1.42147 0
M  V30 16598 C 1559.17 -0.202445 -2.00681 0
M  V30 16599 C 1559.48 1.19997 -1.54467 0
M  V30 16600 O 1560.69 1.77479 -2.05459 0
M  V30 16601 C 1559.14 -0.311064 -3.58553 0
M  V30 16602 C 1558.75 -1.7179 -4.13754 0
M  V30 16603 C 1560.49 0.108072 -4.24362 0
M  V30 16604 C 1558.4 -1.77897 -5.64009 0
M  V30 16605 H 1557.33 -0.0719266 -0.750561 0
M  V30 16606 H 1559.98 -0.846614 -1.62803 0
M  V30 16607 H 1558.36 0.401098 -3.93963 0
M  V30 16608 H 1559.54 -2.45761 -3.89793 0
M  V30 16609 H 1557.85 -2.08539 -3.60417 0
M  V30 16610 H 1560.45 0.0826684 -5.34636 0
M  V30 16611 H 1560.79 1.14431 -4.00264 0
M  V30 16612 H 1561.33 -0.553285 -3.93933 0
M  V30 16613 H 1558.06 -2.79523 -5.92914 0
M  V30 16614 H 1557.58 -1.0829 -5.89944 0
M  V30 16615 H 1559.26 -1.53504 -6.28527 0
M  V30 16616 N 1559.4 1.51781 -0.424309 0
M  V30 16617 C 1560.31 2.31162 0.40015 0
M  V30 16618 C 1561.32 1.39523 1.03969 0
M  V30 16619 O 1562.5 1.72597 1.0379 0
M  V30 16620 C 1559.56 3.12875 1.49366 0
M  V30 16621 C 1558.62 4.20275 0.875616 0
M  V30 16622 C 1557.86 4.98082 1.91702 0
M  V30 16623 O 1558.08 4.76365 3.13739 0
M  V30 16624 O 1557.01 5.82527 1.5148 0
M  V30 16625 H 1560.84 3.0269 -0.247529 0
M  V30 16626 H 1558.42 1.48223 -0.187146 0
M  V30 16627 H 1560.31 3.63714 2.12815 0
M  V30 16628 H 1558.98 2.44125 2.12567 0
M  V30 16629 H 1557.89 3.73546 0.203429 0
M  V30 16630 H 1559.22 4.91361 0.287306 0
M  V30 16631 N 1560.87 0.155222 1.56834 0
M  V30 16632 C 1561.81 -0.812448 2.14317 0
M  V30 16633 C 1562.82 -1.20502 1.09467 0
M  V30 16634 O 1564.01 -1.14767 1.36714 0
M  V30 16635 C 1561.11 -2.10279 2.65774 0
M  V30 16636 C 1560.28 -1.8763 3.95112 0
M  V30 16637 C 1559.34 -3.0073 4.31796 0
M  V30 16638 O 1558.37 -2.72064 4.9997 0
M  V30 16639 N 1559.57 -4.28114 3.92044 0
M  V30 16640 H 1562.33 -0.321106 2.97975 0
M  V30 16641 H 1559.89 -0.0280861 1.61876 0
M  V30 16642 H 1561.89 -2.85005 2.87323 0
M  V30 16643 H 1560.46 -2.50652 1.86796 0
M  V30 16644 H 1559.68 -0.968958 3.82106 0
M  V30 16645 H 1560.96 -1.69845 4.79614 0
M  V30 16646 H 1560.36 -4.54269 3.37129 0
M  V30 16647 H 1558.92 -4.99594 4.18627 0
M  V30 16648 N 1562.35 -1.57153 -0.118549 0
M  V30 16649 C 1563.77 -1.52458 -0.472096 0
M  V30 16650 C 1563.97 -0.868289 -1.81832 0
M  V30 16651 O 1563.02 -0.450817 -2.48443 0
M  V30 16652 C 1564.34 -2.9722 -0.456175 0
M  V30 16653 C 1565.88 -3.08312 -0.539694 0
M  V30 16654 C 1566.36 -4.54635 -0.554158 0
M  V30 16655 N 1567.85 -4.59091 -0.615584 0
M  V30 16656 C 1568.59 -5.69724 -0.64823 0
M  V30 16657 N 1568.08 -6.89852 -0.638494 0
M  V30 16658 N 1569.87 -5.57833 -0.691272 0
M  V30 16659 H 1562.03 -1.98202 0.76353 0
M  V30 16660 H 1564.29 -0.905179 0.281699 0
M  V30 16661 H 1563.99 -3.48608 0.465364 0
M  V30 16662 H 1563.87 -3.5468 -1.28381 0
M  V30 16663 H 1566.26 -2.56926 -1.45165 0
M  V30 16664 H 1566.34 -2.53845 0.315638 0
M  V30 16665 H 1565.98 -5.06667 0.353759 0
M  V30 16666 H 1565.91 -5.06914 -1.42638 0
M  V30 16667 H 1568.4 -3.72624 -0.629253 0
M  V30 16668 H 1568.71 -7.69925 -0.66604 0
M  V30 16669 H 1567.06 -6.92354 -0.605912 0
M  V30 16670 H 1570.25 -4.62893 -0.696244 0
M  V30 16671 H 1570.42 -6.44063 -0.713246 0
M  V30 16672 N 1563.83 0.388742 -1.5273 0
M  V30 16673 C 1565.25 0.728828 -1.41987 0
M  V30 16674 C 1565.45 1.94116 -0.540493 0
M  V30 16675 O 1564.5 2.52496 -0.0140397 0
M  V30 16676 C 1565.81 0.963683 -2.8484 0
M  V30 16677 C 1567.36 1.06514 -2.94319 0
M  V30 16678 C 1567.84 1.33262 -4.38184 0
M  V30 16679 N 1569.33 1.40083 -4.4151 0
M  V30 16680 C 1570.06 1.62446 -5.49908 0
M  V30 16681 N 1569.56 1.82277 -6.68391 0
M  V30 16682 N 1571.35 1.64627 -5.37452 0
M  V30 16683 H 1563.5 -0.408984 -2.08425 0
M  V30 16684 H 1565.77 -0.120791 -0.940273 0
M  V30 16685 H 1565.47 0.144986 -3.51401 0
M  V30 16686 H 1565.35 1.87828 -3.27109 0
M  V30 16687 H 1567.73 1.8744 -2.27926 0
M  V30 16688 H 1567.81 0.12845 -2.55477 0
M  V30 16689 H 1567.46 0.528457 -5.05143 0
M  V30 16690 H 1567.39 2.28216 -4.74579 0
M  V30 16691 H 1569.88 1.26465 -3.56111 0
M  V30 16692 H 1570.19 1.98848 -7.46779 0
M  V30 16693 H 1568.54 1.79501 -6.7142 0
M  V30 16694 H 1571.73 1.48686 -4.43858 0
M  V30 16695 H 1571.9 1.81715 -6.22 0
M  V30 16696 N 1565.31 1.43698 0.647203 0
M  V30 16697 C 1566.55 1.45849 1.40911 0
M  V30 16698 C 1566.89 0.0846767 1.94015 0
M  V30 16699 O 1566.16 -0.89537 1.72665 0
M  V30 16700 C 1566.44 2.50579 2.58616 0
M  V30 16701 C 1566.3 3.97258 2.10965 0
M  V30 16702 C 1567.62 2.51981 3.60824 0
M  V30 16703 H 1564.74 0.531056 0.511027 0
M  V30 16704 H 1567.38 1.75283 0.733204 0
M  V30 16705 H 1565.53 2.25611 3.16278 0
M  V30 16706 H 1567.2 4.33304 1.58257 0
M  V30 16707 H 1565.44 4.09802 1.42284 0
M  V30 16708 H 1566.11 4.6616 2.95633 0
M  V30 16709 H 1568.59 2.7425 3.12932 0
M  V30 16710 H 1567.47 3.27191 4.40723 0
M  V30 16711 H 1567.73 1.55582 4.1382 0
M  V30 16712 N 1566.79 -0.886131 1.30328 0
M  V30 16713 C 1568.04 -1.63255 1.18451 0
M  V30 16714 C 1568.35 -1.93864 -0.260016 0
M  V30 16715 O 1569.55 -2.66851 -0.500288 0
M  V30 16716 C 1568.01 -2.94232 2.07257 0
M  V30 16717 C 1567.62 -2.71168 3.56612 0
M  V30 16718 C 1569.36 -3.72193 2.04139 0
M  V30 16719 C 1567.27 -3.97954 4.37478 0
M  V30 16720 H 1566.2 -0.612491 0.439739 0
M  V30 16721 H 1568.85 -0.981129 1.55068 0
M  V30 16722 H 1567.23 -3.60661 1.63522 0
M  V30 16723 H 1568.41 -2.13247 4.08488 0
M  V30 16724 H 1566.72 -2.06584 3.61541 0
M  V30 16725 H 1569.32 -4.66219 2.61809 0
M  V30 16726 H 1569.66 -4.03495 1.02459 0
M  V30 16727 H 1570.19 -3.12624 2.45989 0
M  V30 16728 H 1566.93 -3.71811 5.39849 0
M  V30 16729 H 1566.45 -4.55384 3.90366 0
M  V30 16730 H 1568.13 -4.65984 4.48852 0
M  V30 16731 N 1568.26 -1.13026 -1.09832 0
M  V30 16732 C 1569.68 -0.867598 -1.33959 0
M  V30 16733 C 1569.88 0.499047 -1.95222 0
M  V30 16734 O 1568.94 1.24644 -2.19591 0
M  V30 16735 C 1570.25 -1.98893 -2.25526 0
M  V30 16736 C 1571.8 -2.02054 -2.39047 0
M  V30 16737 C 1572.27 -3.13438 -3.33947 0
M  V30 16738 N 1573.76 -3.12921 -3.41518 0
M  V30 16739 C 1574.5 -3.95746 -4.14937 0
M  V30 16740 N 1573.99 -4.88574 -4.91189 0
M  V30 16741 N 1575.79 -3.8386 -4.10619 0
M  V30 16742 H 1567.94 -2.01072 -0.684382 0
M  V30 16743 H 1570.2 -0.875341 -0.363982 0
M  V30 16744 H 1569.91 -2.97405 -1.87731 0
M  V30 16745 H 1569.78 -1.89948 -3.25883 0
M  V30 16746 H 1572.17 -1.04158 -2.76107 0
M  V30 16747 H 1572.25 -2.15072 -1.38483 0
M  V30 16748 H 1571.89 -4.11571 -2.9761 0
M  V30 16749 H 1571.82 -2.97658 -4.34405 0
M  V30 16750 H 1574.31 -2.45677 -2.87144 0
M  V30 16751 H 1574.63 -5.48269 -5.44629 0
M  V30 16752 H 1572.97 -4.92583 -4.90292 0
M  V30 16753 H 1576.16 -3.10669 -3.50146 0
M  V30 16754 H 1576.34 -4.48637 -4.67577 0
M  V30 16755 N 1569.74 1.27735 -0.923117 0
M  V30 16756 C 1570.97 1.98682 -0.577317 0
M  V30 16757 C 1571.39 1.68904 0.843608 0
M  V30 16758 O 1570.74 0.947021 1.56006 0
M  V30 16759 C 1570.79 3.52804 -0.788144 0
M  V30 16760 O 1570.51 3.81537 -2.15316 0
M  V30 16761 C 1572.02 4.41006 -0.450437 0
M  V30 16762 H 1569.24 0.634186 -0.2192 0
M  V30 16763 H 1571.78 1.62702 -1.23888 0
M  V30 16764 H 1569.93 3.87012 -0.173441 0
M  V30 16765 H 1570.35 4.76142 -2.19976 0
M  V30 16766 H 1571.82 5.48175 -0.648674 0
M  V30 16767 H 1572.3 4.3489 0.613806 0
M  V30 16768 H 1572.91 4.1231 -1.04308 0
M  V30 16769 N 1571.22 0.688118 1.41784 0
M  V30 16770 C 1572.47 0.213085 2.00571 0
M  V30 16771 C 1572.78 -1.19176 1.55101 0
M  V30 16772 O 1573.99 -1.76387 2.06397 0
M  V30 16773 C 1572.44 0.330075 3.58383 0
M  V30 16774 C 1572.05 1.73981 4.12837 0
M  V30 16775 C 1573.8 -0.0855651 4.24414 0
M  V30 16776 C 1571.7 1.80886 5.63058 0
M  V30 16777 H 1570.63 0.075906 0.750169 0
M  V30 16778 H 1573.28 0.855236 1.62351 0
M  V30 16779 H 1571.67 -0.380199 3.94171 0
M  V30 16780 H 1572.84 2.47825 3.88484 0
M  V30 16781 H 1571.16 2.10447 3.59306 0
M  V30 16782 H 1573.75 -0.0543142 5.34672 0
M  V30 16783 H 1574.1 -1.12307 4.00865 0
M  V30 16784 H 1574.63 0.574169 3.93635 0
M  V30 16785 H 1571.37 2.82663 5.91424 0
M  V30 16786 H 1570.89 1.11417 5.89361 0
M  V30 16787 H 1572.57 1.56835 6.27704 0
M  V30 16788 N 1572.7 -1.51554 0.432352 0
M  V30 16789 C 1573.63 -2.30514 -0.372243 0
M  V30 16790 C 1574.61 -1.35712 -1.02549 0
M  V30 16791 O 1575.79 -1.6463 -1.03009 0
M  V30 16792 C 1572.92 -3.14353 -1.47646 0
M  V30 16793 C 1571.88 -4.17392 -0.946974 0
M  V30 16794 C 1571.2 -4.89721 -2.14656 0
M  V30 16795 C 1572.5 -5.22298 0.0151377 0
M  V30 16796 H 1574.2 -2.98024 0.28668 0
M  V30 16797 H 1571.74 -1.43325 0.139315 0
M  V30 16798 H 1573.7 -3.68369 -2.04651 0
M  V30 16799 H 1572.42 -2.44654 -2.1636 0
M  V30 16800 H 1571.08 -3.6442 -0.399174 0
M  V30 16801 H 1570.73 -4.1653 -2.81978 0
M  V30 16802 H 1570.43 -5.59393 -1.79869 0
M  V30 16803 H 1571.95 -5.46559 -2.72224 0
M  V30 16804 H 1573.37 -5.71416 -0.464447 0
M  V30 16805 H 1571.76 -5.99468 0.275339 0
M  V30 16806 H 1572.83 -4.75436 0.953357 0
M  V30 16807 N 1574.18 -0.163538 -1.56749 0
M  V30 16808 C 1575.09 0.782461 -2.21167 0
M  V30 16809 C 1576.1 1.25911 -1.20093 0
M  V30 16810 O 1577.28 1.31286 -1.52728 0
M  V30 16811 C 1574.34 1.99761 -2.83366 0
M  V30 16812 C 1573.4 1.56859 -3.99617 0
M  V30 16813 C 1572.64 2.72582 -4.58841 0
M  V30 16814 O 1572.86 3.89243 -4.16949 0
M  V30 16815 O 1571.79 2.47104 -5.48838 0
M  V30 16816 H 1575.62 0.264023 -3.0255 0
M  V30 16817 H 1573.21 0.06429 -1.49262 0
M  V30 16818 H 1575.09 2.70843 -3.22835 0
M  V30 16819 H 1573.76 2.50526 -2.04984 0
M  V30 16820 H 1572.67 0.827511 -3.64833 0
M  V30 16821 H 1574 1.10794 -4.79568 0
M  V30 16822 N 1575.65 1.57214 0.110213 0
M  V30 16823 C 1576.88 1.8923 0.829187 0
M  V30 16824 C 1577.29 0.753834 1.73534 0
M  V30 16825 O 1576.64 -0.283946 1.81492 0
M  V30 16826 C 1576.7 3.16351 1.7077 0
M  V30 16827 C 1576.36 4.46479 0.974949 0
M  V30 16828 C 1577.36 5.18965 0.311696 0
M  V30 16829 C 1575.04 4.93167 0.953516 0
M  V30 16830 C 1577.04 6.36364 -0.363191 0
M  V30 16831 C 1574.72 6.10482 0.274836 0
M  V30 16832 C 1575.72 6.81929 -0.382355 0
M  V30 16833 O 1575.41 7.97011 -1.05019 0
M  V30 16834 H 1575.14 0.630744 0.243184 0
M  V30 16835 H 1577.7 2.05173 0.09648 0
M  V30 16836 H 1575.93 2.96513 2.48227 0
M  V30 16837 H 1577.62 3.34317 2.30189 0
M  V30 16838 H 1578.38 4.83944 0.319815 0
M  V30 16839 H 1574.26 4.37454 1.45448 0
M  V30 16840 H 1577.8 6.92069 -0.876728 0
M  V30 16841 H 1573.7 6.44958 0.26451 0
M  V30 16842 H 1574.47 8.12903 -0.95555 0
M  V30 16843 N 1577.13 -0.380637 1.52934 0
M  V30 16844 C 1578.1 -1.44819 1.77652 0
M  V30 16845 C 1579.1 -1.47224 0.646657 0
M  V30 16846 O 1580.29 -1.48248 0.91477 0
M  V30 16847 C 1577.42 -2.8405 1.8849 0
M  V30 16848 H 1578.61 -1.24183 2.72981 0
M  V30 16849 H 1576.16 -0.61288 1.43783 0
M  V30 16850 H 1576.9 -3.1002 0.951751 0
M  V30 16851 H 1576.68 -2.83704 2.70655 0
M  V30 16852 H 1578.17 -3.61388 2.09257 0
M  V30 16853 N 1578.61 -1.44039 -0.639573 0
M  V30 16854 C 1579.89 -1.36853 -1.39752 0
M  V30 16855 C 1580.27 -0.0230515 -2.11087 0
M  V30 16856 O 1579.62 0.994061 -2.05744 0
M  V30 16857 C 1579.83 -2.56101 -2.37093 0
M  V30 16858 C 1581.17 -2.99793 -3.00681 0
M  V30 16859 O 1582.2 -2.56246 -2.4742 0
M  V30 16860 O 1581.06 -3.75274 -3.97281 0
M  V30 16861 H 1578.15 -0.541521 -0.625047 0
M  V30 16862 H 1580.7 -1.56113 -0.665336 0
M  V30 16863 H 1579.47 -3.45647 -1.83422 0
M  V30 16864 H 1579.09 -2.39011 -3.17741 0
M  V30 16865 N 1580.09 0.879207 -1.30796 0
M  V30 16866 C 1581.04 1.98553 -1.17667 0
M  V30 16867 C 1582.01 1.65974 -0.0647231 0
M  V30 16868 O 1583.19 1.89336 -0.235941 0
M  V30 16869 C 1580.33 3.3368 -0.880434 0
M  V30 16870 C 1579.44 3.78913 -2.07482 0
M  V30 16871 C 1578.58 5.02714 -1.71617 0
M  V30 16872 C 1577.62 5.40371 -2.87517 0
M  V30 16873 N 1576.75 6.55352 -2.5191 0
M  V30 16874 H 1581.59 2.09115 -2.12309 0
M  V30 16875 H 1579.13 1.02382 -1.05623 0
M  V30 16876 H 1581.09 4.11467 -0.689278 0
M  V30 16877 H 1579.72 3.22787 0.0291283 0
M  V30 16878 H 1578.77 2.96987 -2.37704 0
M  V30 16879 H 1580.08 4.02757 -2.94259 0
M  V30 16880 H 1579.24 5.88142 -1.4891 0
M  V30 16881 H 1577.98 4.80754 -0.820181 0
M  V30 16882 H 1576.98 4.53466 -3.10883 0
M  V30 16883 H 1578.21 5.64301 -3.77811 0
M  V30 16884 H 1576.15 6.34956 -1.64823 0
M  V30 16885 H 1576.07 6.79093 -3.32217 0
M  V30 16886 H 1577.34 7.43996 -2.32573 0
M  V30 16887 N 1581.57 1.13606 1.09231 0
M  V30 16888 C 1582.81 0.900386 1.81717 0
M  V30 16889 C 1583.15 -0.571984 1.85586 0
M  V30 16890 O 1582.42 -1.42336 1.32554 0
M  V30 16891 C 1582.7 1.49143 3.27763 0
M  V30 16892 C 1582.56 3.03306 3.32153 0
M  V30 16893 C 1583.88 1.16129 4.24502 0
M  V30 16894 H 1581 0.328531 0.659724 0
M  V30 16895 H 1583.64 1.40467 1.27941 0
M  V30 16896 H 1581.79 1.06256 3.73687 0
M  V30 16897 H 1583.46 3.54963 2.94617 0
M  V30 16898 H 1581.7 3.38192 2.71677 0
M  V30 16899 H 1582.37 3.39761 4.35047 0
M  V30 16900 H 1584.85 1.53193 3.86874 0
M  V30 16901 H 1583.73 1.60129 5.25024 0
M  V30 16902 H 1583.99 0.0752973 4.42036 0
M  V30 16903 N 1583.05 -1.27244 0.929878 0
M  V30 16904 C 1584.29 -1.94269 0.57146 0
M  V30 16905 C 1584.62 -1.73064 -0.887639 0
M  V30 16906 O 1583.88 -1.05422 -1.64878 0
M  V30 16907 C 1584.17 -3.47233 0.846386 0
M  V30 16908 C 1583.84 -3.88563 2.28757 0
M  V30 16909 C 1582.5 -3.99557 2.68156 0
M  V30 16910 C 1584.85 -4.09468 3.22467 0
M  V30 16911 C 1582.18 -4.28846 4.00385 0
M  V30 16912 C 1584.53 -4.40242 4.54279 0
M  V30 16913 C 1583.2 -4.4945 4.93509 0
M  V30 16914 H 1582.47 -0.710882 0.209112 0
M  V30 16915 H 1585.12 -1.51273 1.17425 0
M  V30 16916 H 1583.42 -3.91469 0.160941 0
M  V30 16917 H 1585.12 -3.97238 0.548006 0
M  V30 16918 H 1581.71 -3.80544 1.97192 0
M  V30 16919 H 1585.89 -4.00412 2.9323 0
M  V30 16920 H 1581.15 -4.34184 4.30458 0
M  V30 16921 H 1585.32 -4.55365 5.26892 0
M  V30 16922 H 1582.95 -4.71899 5.95999 0
M  V30 16923 N 1584.52 -0.695628 -1.41417 0
M  V30 16924 C 1585.75 -0.235654 -2.05554 0
M  V30 16925 C 1586.17 1.11513 -1.52349 0
M  V30 16926 O 1585.52 1.69688 -0.671743 0
M  V30 16927 C 1585.57 -0.184809 -3.61027 0
M  V30 16928 O 1585.3 -1.48224 -4.12264 0
M  V30 16929 C 1586.8 0.296147 -4.4231 0
M  V30 16930 H 1584.02 -0.109648 -0.661981 0
M  V30 16931 H 1586.56 -0.948227 -1.81187 0
M  V30 16932 H 1584.72 0.478588 -3.84432 0
M  V30 16933 H 1585.13 -1.36939 -5.06308 0
M  V30 16934 H 1586.6 0.280597 -5.51286 0
M  V30 16935 H 1587.08 1.33503 -4.18418 0
M  V30 16936 H 1587.69 -0.336253 -4.23969 0
M  V30 16937 N 1586 1.51322 -0.440383 0
M  V30 16938 C 1587.23 2.06231 0.12347 0
M  V30 16939 C 1587.64 1.30754 1.36748 0
M  V30 16940 O 1586.98 0.36135 1.80111 0
M  V30 16941 C 1587.04 3.55892 0.508059 0
M  V30 16942 C 1586.71 4.52643 -0.629572 0
M  V30 16943 C 1587.71 4.97712 -1.50261 0
M  V30 16944 C 1585.39 4.95707 -0.81117 0
M  V30 16945 C 1587.38 5.84522 -2.54191 0
M  V30 16946 C 1585.07 5.82305 -1.85374 0
M  V30 16947 C 1586.07 6.26611 -2.7175 0
M  V30 16948 O 1585.76 7.11489 -3.74217 0
M  V30 16949 H 1585.49 0.675926 0.0100034 0
M  V30 16950 H 1588.04 1.95846 -0.619156 0
M  V30 16951 H 1586.27 3.64071 1.30343 0
M  V30 16952 H 1587.96 3.93302 1.00342 0
M  V30 16953 H 1588.73 4.65135 -1.37386 0
M  V30 16954 H 1584.61 4.60761 -0.148423 0
M  V30 16955 H 1588.15 6.19025 -3.21643 0
M  V30 16956 H 1584.05 6.14296 -1.98268 0
M  V30 16957 H 1584.82 7.29674 -3.70834 0
M  V30 16958 N 1587.48 0.171848 1.5666 0
M  V30 16959 C 1588.73 -0.473061 1.96074 0
M  V30 16960 C 1589.04 -1.64353 1.06054 0
M  V30 16961 O 1590.25 -2.35471 1.35151 0
M  V30 16962 C 1588.7 -0.892995 3.48645 0
M  V30 16963 C 1588.31 0.251902 4.47291 0
M  V30 16964 C 1590.06 -1.50629 3.96877 0
M  V30 16965 C 1587.96 -0.187691 5.91102 0
M  V30 16966 H 1586.89 -0.180503 0.732075 0
M  V30 16967 H 1589.54 0.260164 1.81646 0
M  V30 16968 H 1587.93 -1.68221 3.58494 0
M  V30 16969 H 1589.1 1.02923 4.49159 0
M  V30 16970 H 1587.41 0.775193 4.09121 0
M  V30 16971 H 1590.01 -1.84724 5.01778 0
M  V30 16972 H 1590.35 -2.4044 3.39844 0
M  V30 16973 H 1590.89 -0.781502 3.90048 0
M  V30 16974 H 1587.63 0.675653 6.52009 0
M  V30 16975 H 1587.15 -0.93037 5.9254 0
M  V30 16976 H 1588.83 -0.631385 6.43912 0
M  V30 16977 N 1588.96 -1.5727 -0.101874 0
M  V30 16978 C 1590.2 -1.85742 -0.8066 0
M  V30 16979 C 1590.53 -0.759408 -1.79062 0
M  V30 16980 O 1589.79 0.247657 -1.94127 0
M  V30 16981 C 1590.09 -3.20773 -1.57605 0
M  V30 16982 C 1589.75 -4.44873 -0.734768 0
M  V30 16983 C 1588.41 -4.78566 -0.502829 0
M  V30 16984 C 1590.77 -5.20986 -0.14949 0
M  V30 16985 C 1588.09 -5.85803 0.324363 0
M  V30 16986 C 1590.45 -6.29095 0.664987 0
M  V30 16987 C 1589.11 -6.61308 0.907082 0
M  V30 16988 H 1588.38 -0.679679 -0.295156 0
M  V30 16989 H 1591.03 -1.91378 -0.0683238 0
M  V30 16990 H 1589.33 -3.10791 -2.38571 0
M  V30 16991 H 1591.03 -3.40029 -2.12559 0
M  V30 16992 H 1587.62 -4.18485 -0.92565 0
M  V30 16993 H 1591.8 -4.95294 -0.315859 0
M  V30 16994 H 1587.06 -6.09176 0.520978 0
M  V30 16995 H 1591.23 -6.87246 1.1254 0
M  V30 16996 H 1588.86 -7.44234 1.54986 0
M  V30 16997 N 1590.44 0.372521 -1.53134 0
M  V30 16998 C 1591.68 1.11316 -1.68201 0
M  V30 16999 C 1592 1.90662 -0.436714 0
M  V30 17000 O 1593.2 2.67439 -0.467802 0
M  V30 17001 C 1591.66 2.02808 -2.97317 0
M  V30 17002 C 1591.27 1.28806 -4.29084 0
M  V30 17003 C 1593.01 2.76906 -3.2175 0
M  V30 17004 C 1590.92 2.19159 -5.49294 0
M  V30 17005 H 1589.85 0.419264 -0.626685 0
M  V30 17006 H 1592.5 0.374677 -1.79634 0
M  V30 17007 H 1590.88 2.80359 -2.79669 0
M  V30 17008 H 1592.06 0.563661 -4.5734 0
M  V30 17009 H 1590.37 0.665989 -4.1104 0
M  V30 17010 H 1592.97 3.44721 -4.08744 0
M  V30 17011 H 1593.31 3.41894 -2.37517 0
M  V30 17012 H 1593.84 2.06441 -3.4004 0
M  V30 17013 H 1590.58 1.5876 -6.35984 0
M  V30 17014 H 1590.1 2.89468 -5.25327 0
M  V30 17015 H 1591.78 2.78874 -5.83814 0
M  V30 17016 N 1591.91 1.44376 0.631925 0
M  V30 17017 C 1592.85 1.45649 1.75675 0
M  V30 17018 C 1593.82 0.31542 1.59511 0
M  V30 17019 O 1595.01 0.512271 1.81406 0
M  V30 17020 C 1592.14 1.2884 3.13238 0
M  V30 17021 C 1591.18 2.46499 3.48053 0
M  V30 17022 S 1592.01 4.0903 3.45622 0
M  V30 17023 C 1593.17 3.94643 4.85807 0
M  V30 17024 H 1593.4 2.40825 1.74328 0
M  V30 17025 H 1590.94 1.31664 0.806467 0
M  V30 17026 H 1592.89 1.19829 3.92621 0
M  V30 17027 H 1591.56 0.351754 3.12124 0
M  V30 17028 H 1590.75 2.30599 4.48152 0
M  V30 17029 H 1590.35 2.52245 2.76131 0
M  V30 17030 H 1592.64 3.58283 5.75012 0
M  V30 17031 H 1593.59 4.94569 5.06761 0
M  V30 17032 H 1593.99 3.26717 4.60343 0
M  V30 17033 N 1593.39 -0.872258 1.31261 0
M  V30 17034 C 1594.3 -2.01185 1.20673 0
M  V30 17035 C 1595.32 -1.73558 0.123921 0
M  V30 17036 O 1596.49 -1.98487 0.341288 0
M  V30 17037 C 1593.56 -3.34481 0.91232 0
M  V30 17038 C 1592.62 -3.75446 2.08179 0
M  V30 17039 C 1591.85 -5.02382 1.80134 0
M  V30 17040 O 1592.08 -5.6564 0.735358 0
M  V30 17041 O 1591.01 -5.40059 2.65744 0
M  V30 17042 H 1594.84 -2.13049 2.16434 0
M  V30 17043 H 1592.42 -1.00021 1.10978 0
M  V30 17044 H 1594.3 -4.14419 0.763879 0
M  V30 17045 H 1592.98 -3.23696 -0.0152802 0
M  V30 17046 H 1591.88 -2.96159 2.28562 0
M  V30 17047 H 1593.22 -3.90853 2.99156 0
M  V30 17048 N 1594.87 -1.14184 -1.08627 0
M  V30 17049 C 1595.8 -0.770338 -2.14805 0
M  V30 17050 C 1596.78 0.247269 -1.60709 0
M  V30 17051 O 1597.96 0.136851 -1.88003 0
M  V30 17052 C 1595.09 -0.143349 -3.38397 0
M  V30 17053 C 1594.14 -1.13077 -4.11237 0
M  V30 17054 S 1594.97 -2.667 -4.64361 0
M  V30 17055 C 1596.13 -2.05384 -5.91243 0
M  V30 17056 H 1596.36 -1.66968 -2.45986 0
M  V30 17057 H 1593.89 -0.962834 -1.20702 0
M  V30 17058 H 1595.85 0.211987 -4.09952 0
M  V30 17059 H 1594.51 0.733388 -3.05418 0
M  V30 17060 H 1593.7 -0.64004 -4.99919 0
M  V30 17061 H 1593.31 -1.42998 -3.45583 0
M  V30 17062 H 1595.6 -1.40791 -6.6271 0
M  V30 17063 H 1596.54 -2.92181 -6.45008 0
M  V30 17064 H 1596.95 -1.50209 -5.44149 0
M  V30 17065 N 1596.35 1.26749 -0.936613 0
M  V30 17066 C 1597.28 2.2892 -0.460213 0
M  V30 17067 C 1598.26 1.63065 0.484135 0
M  V30 17068 O 1599.44 1.90305 0.386973 0
M  V30 17069 C 1596.57 3.46172 0.279648 0
M  V30 17070 C 1595.53 4.24083 -0.57771 0
M  V30 17071 C 1594.85 5.33903 0.291843 0
M  V30 17072 C 1596.15 4.88562 -1.84673 0
M  V30 17073 H 1597.85 2.69019 -1.31412 0
M  V30 17074 H 1595.39 1.29325 -0.633333 0
M  V30 17075 H 1597.35 4.16755 0.623931 0
M  V30 17076 H 1596.07 3.05014 1.16765 0
M  V30 17077 H 1594.73 3.55258 -0.904824 0
M  V30 17078 H 1594.38 4.88986 1.17906 0
M  V30 17079 H 1594.08 5.8694 -0.278372 0
M  V30 17080 H 1595.6 6.07326 0.631498 0
M  V30 17081 H 1597.02 5.51384 -1.56997 0
M  V30 17082 H 1595.41 5.51697 -2.36115 0
M  V30 17083 H 1596.48 4.11761 -2.56088 0
M  V30 17084 N 1597.83 0.703118 1.41046 0
M  V30 17085 C 1598.76 0.0570815 2.3343 0
M  V30 17086 C 1599.74 -0.759042 1.52225 0
M  V30 17087 O 1600.92 -0.710491 1.80736 0
M  V30 17088 C 1598.05 -0.874541 3.36109 0
M  V30 17089 C 1597.01 -0.16496 4.27682 0
M  V30 17090 C 1596.33 -1.21145 5.20795 0
M  V30 17091 C 1597.63 0.97332 5.13151 0
M  V30 17092 H 1599.33 0.828699 2.87703 0
M  V30 17093 H 1596.87 0.399956 1.38334 0
M  V30 17094 H 1598.83 -1.33579 3.99668 0
M  V30 17095 H 1597.55 -1.67791 2.80203 0
M  V30 17096 H 1596.21 0.276332 3.65557 0
M  V30 17097 H 1595.86 -2.00755 4.61201 0
M  V30 17098 H 1595.56 -0.741633 5.82901 0
M  V30 17099 H 1597.08 -1.67305 5.87232 0
M  V30 17100 H 1598.49 0.592013 5.70235 0
M  V30 17101 H 1596.89 1.37071 5.84236 0
M  V30 17102 H 1597.96 1.80961 4.49868 0
M  V30 17103 N 1599.3 -1.51086 0.448402 0
M  V30 17104 C 1600.25 -2.28015 -0.357438 0
M  V30 17105 C 1601.22 -1.32079 -1.00719 0
M  V30 17106 O 1602.41 -1.60995 -1.02398 0
M  V30 17107 C 1599.55 -3.13324 -1.44644 0
M  V30 17108 C 1598.66 -4.24267 -0.813729 0
M  V30 17109 C 1597.79 -4.96868 -1.87871 0
M  V30 17110 C 1596.83 -5.99716 -1.22502 0
M  V30 17111 N 1595.97 -6.65682 -2.23185 0
M  V30 17112 H 1600.81 -2.96436 0.30493 0
M  V30 17113 H 1598.35 -1.46203 0.162222 0
M  V30 17114 H 1600.31 -3.61119 -2.08924 0
M  V30 17115 H 1598.94 -2.46996 -2.07829 0
M  V30 17116 H 1597.99 -3.80354 -0.0589414 0
M  V30 17117 H 1599.3 -4.97917 -0.296587 0
M  V30 17118 H 1598.45 -5.48266 -2.59786 0
M  V30 17119 H 1597.19 -4.22873 -2.42961 0
M  V30 17120 H 1596.2 -5.476 -0.491388 0
M  V30 17121 H 1597.42 -6.75674 -0.681315 0
M  V30 17122 H 1595.37 -5.94493 -2.77334 0
M  V30 17123 H 1595.29 -7.35134 -1.76393 0
M  V30 17124 H 1596.55 -7.21707 -2.9455 0
M  V30 17125 N 1600.78 -0.180154 -1.56567 0
M  V30 17126 C 1602.03 0.456651 -1.98208 0
M  V30 17127 C 1602.38 1.60262 -1.06461 0
M  V30 17128 O 1601.68 1.91307 -0.106011 0
M  V30 17129 C 1601.87 0.978895 -3.43733 0
M  V30 17130 C 1601.7 -0.114936 -4.49553 0
M  V30 17131 C 1600.47 -0.567571 -5.02102 0
M  V30 17132 C 1602.67 -0.918528 -5.06031 0
M  V30 17133 N 1600.65 -1.64078 -5.91567 0
M  V30 17134 C 1602.02 -1.84147 -5.92022 0
M  V30 17135 C 1604.08 -0.96262 -4.88506 0
M  V30 17136 C 1602.78 -2.8048 -6.62362 0
M  V30 17137 C 1604.8 -1.91393 -5.59573 0
M  V30 17138 C 1604.17 -2.82434 -6.45299 0
M  V30 17139 H 1600.27 0.13495 -0.770268 0
M  V30 17140 H 1602.85 -0.282408 -1.92641 0
M  V30 17141 H 1601.02 1.68744 -3.49828 0
M  V30 17142 H 1602.75 1.58506 -3.72368 0
M  V30 17143 H 1599.51 -0.163649 -4.73317 0
M  V30 17144 H 1599.93 -2.17814 -6.41004 0
M  V30 17145 H 1604.57 -0.272775 -4.21919 0
M  V30 17146 H 1602.29 -3.50448 -7.28156 0
M  V30 17147 H 1605.88 -1.95427 -5.47996 0
M  V30 17148 H 1604.76 -3.54847 -6.99324 0
M  V30 17149 N 1602.26 1.57322 0.0935319 0
M  V30 17150 C 1603.51 1.86443 0.797919 0
M  V30 17151 C 1603.84 0.769491 1.78304 0
M  V30 17152 O 1603.11 -0.222383 1.93225 0
M  V30 17153 C 1603.4 3.26201 1.52528 0
M  V30 17154 C 1603.25 4.46325 0.558031 0
M  V30 17155 C 1604.57 3.63879 2.47548 0
M  V30 17156 H 1601.69 0.678136 0.288618 0
M  V30 17157 H 1604.33 1.899 0.0615161 0
M  V30 17158 H 1602.48 3.23385 2.15301 0
M  V30 17159 H 1604.15 4.61257 -0.0628154 0
M  V30 17160 H 1602.4 4.3361 -0.128462 0
M  V30 17161 H 1603.07 5.40845 1.10413 0
M  V30 17162 H 1605.54 3.6765 1.94866 0
M  V30 17163 H 1604.42 4.62598 2.95456 0
M  V30 17164 H 1604.68 2.92647 3.31376 0
M  V30 17165 N 1603.74 -0.364395 1.53329 0
M  V30 17166 C 1604.7 -1.42927 1.79178 0
M  V30 17167 C 1605.7 -1.4653 0.662235 0
M  V30 17168 O 1606.89 -1.4727 0.930442 0
M  V30 17169 C 1604.02 -2.82035 1.91492 0
M  V30 17170 H 1605.22 -1.21281 2.74283 0
M  V30 17171 H 1602.77 -0.597596 1.44425 0
M  V30 17172 H 1603.5 -3.08993 0.984579 0
M  V30 17173 H 1603.29 -2.80818 2.73649 0
M  V30 17174 H 1604.78 -3.59148 2.13078 0
M  V30 17175 N 1605.22 -1.44709 -0.62426 0
M  V30 17176 C 1606.45 -1.51129 -1.40867 0
M  V30 17177 C 1606.85 -0.1371 -1.88703 0
M  V30 17178 O 1606.2 0.868546 -1.6187 0
M  V30 17179 C 1606.26 -2.42015 -2.65836 0
M  V30 17180 C 1605.92 -3.89061 -2.39752 0
M  V30 17181 C 1606.92 -4.79411 -2.01151 0
M  V30 17182 C 1604.61 -4.33827 -2.53179 0
M  V30 17183 C 1606.6 -6.12529 -1.76314 0
M  V30 17184 C 1604.29 -5.66991 -2.27957 0
M  V30 17185 C 1605.28 -6.56161 -1.89584 0
M  V30 17186 O 1604.97 -7.86859 -1.64647 0
M  V30 17187 H 1604.7 -0.514731 -0.43821 0
M  V30 17188 H 1607.26 -1.90421 -0.770008 0
M  V30 17189 H 1605.49 -1.97663 -3.32365 0
M  V30 17190 H 1607.18 -2.39306 -3.27852 0
M  V30 17191 H 1607.94 -4.46095 -1.90328 0
M  V30 17192 H 1603.82 -3.64675 -2.82016 0
M  V30 17193 H 1607.37 -6.82089 -1.46288 0
M  V30 17194 H 1603.26 -5.99866 -2.38392 0
M  V30 17195 H 1604.03 -7.98724 -1.78837 0
M  V30 17196 N 1606.69 0.865285 -1.31722 0
M  V30 17197 C 1607.94 1.61549 -1.21435 0
M  V30 17198 C 1608.26 1.9368 0.226501 0
M  V30 17199 O 1607.53 1.58705 1.14846 0
M  V30 17200 H 1606.11 0.598905 -0.446454 0
M  V30 17201 H 1608.78 1.03563 -1.65108 0
M  V30 17202 H 1607.87 2.55708 -1.78941 0
M  V30 17203 N 1608.17 1.14759 1.0802 0
M  V30 17204 C 1609.42 0.918248 1.80484 0
M  V30 17205 C 1609.75 -0.554986 1.86414 0
M  V30 17206 O 1609 -1.42732 1.33888 0
M  V30 17207 C 1609.3 1.4692 3.25805 0
M  V30 17208 C 1608.97 2.96176 3.39987 0
M  V30 17209 C 1607.63 3.36923 3.43564 0
M  V30 17210 C 1609.98 3.92131 3.43341 0
M  V30 17211 C 1607.31 4.72281 3.48092 0
M  V30 17212 C 1609.66 5.27351 3.49404 0
M  V30 17213 C 1608.33 5.67605 3.51256 0
M  V30 17214 H 1607.6 0.336011 0.660437 0
M  V30 17215 H 1610.24 1.43191 1.27156 0
M  V30 17216 H 1608.55 0.876571 3.81868 0
M  V30 17217 H 1610.24 1.26765 3.80436 0
M  V30 17218 H 1606.83 2.63675 3.37896 0
M  V30 17219 H 1611.02 3.61728 3.39804 0
M  V30 17220 H 1606.27 5.02823 3.4782 0
M  V30 17221 H 1610.45 6.01507 3.50946 0
M  V30 17222 H 1608.08 6.72474 3.54517 0
M  V30 17223 N 1609.65 -1.26251 0.943322 0
M  V30 17224 C 1610.6 -2.26304 0.453315 0
M  V30 17225 C 1611.57 -1.58764 -0.488168 0
M  V30 17226 O 1612.75 -1.86476 -0.403906 0
M  V30 17227 C 1609.89 -3.44015 -0.273393 0
M  V30 17228 C 1609.01 -4.26225 0.70401 0
M  V30 17229 C 1608.14 -5.31182 -0.0441134 0
M  V30 17230 C 1607.18 -6.05071 0.924971 0
M  V30 17231 N 1606.32 -7.0179 0.208461 0
M  V30 17232 H 1611.16 -2.67591 1.31146 0
M  V30 17233 H 1608.69 -1.31567 0.657914 0
M  V30 17234 H 1610.65 -4.11094 -0.711192 0
M  V30 17235 H 1609.28 -3.03636 -1.09566 0
M  V30 17236 H 1608.33 -3.58915 1.26032 0
M  V30 17237 H 1609.65 -4.77442 1.44398 0
M  V30 17238 H 1608.8 -6.04282 -0.541091 0
M  V30 17239 H 1607.54 -4.80809 -0.816952 0
M  V30 17240 H 1606.54 -5.30795 1.43305 0
M  V30 17241 H 1607.77 -6.57533 1.69785 0
M  V30 17242 H 1605.71 -6.53725 -0.545846 0
M  V30 17243 H 1605.63 -7.5077 0.887725 0
M  V30 17244 H 1606.9 -7.79041 -0.267352 0
M  V30 17245 N 1611.13 -0.710588 -1.40671 0
M  V30 17246 C 1612.38 -0.248316 -2.01274 0
M  V30 17247 C 1612.71 1.1539 -1.56201 0
M  V30 17248 O 1611.98 1.78182 -0.779838 0
M  V30 17249 C 1612.27 -0.322762 -3.58651 0
M  V30 17250 C 1612.12 -1.763 -4.1381 0
M  V30 17251 C 1613.44 0.308908 -4.39015 0
M  V30 17252 H 1610.56 -0.0917037 -0.731272 0
M  V30 17253 H 1613.2 -0.902145 -1.67216 0
M  V30 17254 H 1611.35 0.233923 -3.87795 0
M  V30 17255 H 1613.02 -2.37468 -3.95483 0
M  V30 17256 H 1611.26 -2.29233 -3.68286 0
M  V30 17257 H 1611.94 -1.76652 -5.22971 0
M  V30 17258 H 1614.41 -0.165363 -4.15771 0
M  V30 17259 H 1613.29 0.226347 -5.48433 0
M  V30 17260 H 1613.55 1.39174 -4.19622 0
M  V30 17261 N 1612.61 1.50847 -0.456408 0
M  V30 17262 C 1613.84 2.0635 0.10159 0
M  V30 17263 C 1614.25 1.32198 1.35353 0
M  V30 17264 O 1613.59 0.380433 1.79718 0
M  V30 17265 C 1613.65 3.56411 0.470283 0
M  V30 17266 C 1613.31 4.51949 -0.677546 0
M  V30 17267 C 1614.31 4.96091 -1.55531 0
M  V30 17268 C 1612 4.94819 -0.863701 0
M  V30 17269 C 1613.99 5.81793 -2.60377 0
M  V30 17270 C 1611.68 5.80306 -1.9154 0
M  V30 17271 C 1612.68 6.23693 -2.78381 0
M  V30 17272 O 1612.36 7.0748 -3.81742 0
M  V30 17273 H 1612.1 0.675994 0.00283373 0
M  V30 17274 H 1614.65 1.95178 -0.639893 0
M  V30 17275 H 1612.88 3.65433 1.26475 0
M  V30 17276 H 1614.57 3.94344 0.961649 0
M  V30 17277 H 1615.33 4.63651 -1.42311 0
M  V30 17278 H 1611.21 4.60578 -0.197285 0
M  V30 17279 H 1614.76 6.15578 -3.2819 0
M  V30 17280 H 1610.65 6.12159 -2.04773 0
M  V30 17281 H 1611.42 7.257 -3.78553 0
M  V30 17282 N 1614.09 0.188454 1.56469 0
M  V30 17283 C 1615.33 -0.452058 1.9739 0
M  V30 17284 C 1615.66 -1.62086 1.0751 0
M  V30 17285 O 1614.92 -1.95375 0.11278 0
M  V30 17286 C 1615.21 -0.960652 3.44247 0
M  V30 17287 C 1614.88 0.0940708 4.50802 0
M  V30 17288 C 1613.54 0.383899 4.79666 0
M  V30 17289 C 1615.89 0.80908 5.14882 0
M  V30 17290 C 1613.22 1.39383 5.69903 0
M  V30 17291 C 1615.57 1.80811 6.0621 0
M  V30 17292 C 1614.24 2.10521 6.33433 0
M  V30 17293 H 1613.51 -0.16542 0.7223 0
M  V30 17294 H 1616.16 0.284024 1.89382 0
M  V30 17295 H 1614.46 -1.77488 3.49292 0
M  V30 17296 H 1616.16 -1.46553 3.7326 0
M  V30 17297 H 1612.75 -0.141993 4.28365 0
M  V30 17298 H 1616.93 0.598391 4.92679 0
M  V30 17299 H 1612.19 1.63 5.89272 0
M  V30 17300 H 1616.36 2.36742 6.54925 0
M  V30 17301 H 1613.99 2.88924 7.03155 0
M  V30 17302 N 1615.56 -1.5737 -0.0851874 0
M  V30 17303 C 1616.79 -1.90802 -0.800137 0
M  V30 17304 C 1617.21 -0.783132 -1.71792 0
M  V30 17305 O 1616.56 0.244331 -1.80857 0
M  V30 17306 C 1616.61 -3.2391 -1.60513 0
M  V30 17307 O 1616.34 -4.32072 -0.724253 0
M  V30 17308 C 1617.84 -3.7127 -2.42226 0
M  V30 17309 H 1615.06 -0.630988 -0.228242 0
M  V30 17310 H 1617.6 -2.04414 -0.0594587 0
M  V30 17311 H 1615.76 -3.11867 -2.29822 0
M  V30 17312 H 1616.17 -5.08571 -1.28279 0
M  V30 17313 H 1617.64 -4.67074 -2.94187 0
M  V30 17314 H 1618.12 -2.99606 -3.21143 0
M  V30 17315 H 1618.73 -3.86214 -1.78099 0
M  V30 17316 N 1617.04 0.356258 -1.53521 0
M  V30 17317 C 1617.99 1.45718 -1.81298 0
M  V30 17318 C 1618.98 1.55036 -0.682652 0
M  V30 17319 O 1620.19 1.57812 -0.865766 0
M  V30 17320 H 1616.56 0.485614 -0.57418 0
M  V30 17321 H 1618.54 1.19498 -2.73428 0
M  V30 17322 C 1617.28 2.82424 -2.0281 0
M  V30 17323 H 1616.61 2.76016 -2.89232 0
M  V30 17324 H 1618.05 3.5861 -2.26218 0
M  V30 17325 C 1616.51 3.2702 -0.809893 0
M  V30 17326 O 1617.04 4.017 -0.00310668 0
M  V30 17327 N 1615.24 2.83673 -0.630696 0
M  V30 17328 H 1614.79 2.23066 -1.28839 0
M  V30 17329 H 1614.75 3.13867 0.182961 0
M  V30 17330 N 1618.52 1.45038 0.616577 0
M  V30 17331 C 1619.48 1.52647 1.70973 0
M  V30 17332 C 1620.48 0.406902 1.55567 0
M  V30 17333 O 1621.67 0.670062 1.60797 0
M  V30 17334 C 1618.8 1.41438 3.10174 0
M  V30 17335 H 1620 2.50036 1.65596 0
M  V30 17336 H 1617.55 1.32346 0.831524 0
M  V30 17337 H 1618.29 0.451991 3.21135 0
M  V30 17338 H 1618.07 2.22634 3.22764 0
M  V30 17339 H 1619.56 1.49776 3.89817 0
M  V30 17340 N 1620 -0.858287 1.32179 0
M  V30 17341 C 1621.24 -1.61444 1.23723 0
M  V30 17342 C 1621.6 -1.91358 -0.199954 0
M  V30 17343 O 1620.89 -1.54239 -1.1367 0
M  V30 17344 C 1621.09 -2.94391 2.02654 0
M  V30 17345 C 1620.91 -2.7746 3.53901 0
M  V30 17346 C 1619.68 -2.76033 4.23242 0
M  V30 17347 C 1621.88 -2.51478 4.48624 0
M  V30 17348 N 1619.86 -2.50274 5.60568 0
M  V30 17349 C 1621.24 -2.35092 5.737 0
M  V30 17350 C 1623.29 -2.36917 4.37921 0
M  V30 17351 C 1621.99 -2.05624 6.89283 0
M  V30 17352 C 1624.02 -2.08839 5.533 0
M  V30 17353 C 1623.38 -1.9325 6.77373 0
M  V30 17354 H 1619.48 -0.594623 0.507885 0
M  V30 17355 H 1622.06 -1.00921 1.66502 0
M  V30 17356 H 1620.24 -3.52899 1.62225 0
M  V30 17357 H 1621.97 -3.59361 1.86123 0
M  V30 17358 H 1618.72 -2.8884 3.75325 0
M  V30 17359 H 1619.15 -2.40333 6.32905 0
M  V30 17360 H 1623.79 -2.47691 3.4265 0
M  V30 17361 H 1621.51 -1.93587 7.8457 0
M  V30 17362 H 1625.09 -1.98355 5.46943 0
M  V30 17363 H 1623.97 -1.71832 7.65143 0
M  V30 17364 N 1621.48 -1.1533 -1.07409 0
M  V30 17365 C 1622.72 -0.938329 -1.8159 0
M  V30 17366 C 1623.08 0.525171 -1.84678 0
M  V30 17367 O 1624.28 0.858449 -2.54724 0
M  V30 17368 C 1622.55 -1.53504 -3.22756 0
M  V30 17369 S 1624.11 -1.4631 -4.13689 0
M  V30 17370 H 1620.93 -0.337711 -0.625677 0
M  V30 17371 H 1623.53 -1.46868 -1.29035 0
M  V30 17372 H 1622.23 -2.59313 -3.18096 0
M  V30 17373 H 1621.77 -1.00353 -3.80385 0
M  V30 17374 H 1623.78 -0.455576 -4.94104 0
M  V30 17375 N 1622.95 1.25748 -0.950004 0
M  V30 17376 C 1624.2 1.93951 -0.612734 0
M  V30 17377 C 1624.55 1.73078 0.840339 0
M  V30 17378 O 1623.85 1.06247 1.59443 0
M  V30 17379 C 1624.04 3.45843 -0.901521 0
M  V30 17380 C 1623.87 3.81488 -2.38111 0
M  V30 17381 C 1622.64 4.03786 -3.03785 0
M  V30 17382 C 1624.84 3.89355 -3.36017 0
M  V30 17383 N 1622.82 4.26386 -4.41665 0
M  V30 17384 C 1624.19 4.1659 -4.59187 0
M  V30 17385 C 1626.25 3.72017 -3.30919 0
M  V30 17386 C 1624.95 4.28291 -5.77892 0
M  V30 17387 C 1626.98 3.84955 -4.48958 0
M  V30 17388 C 1626.34 4.12598 -5.70913 0
M  V30 17389 H 1622.44 0.732147 -0.274745 0
M  V30 17390 H 1625.02 1.51638 -1.22123 0
M  V30 17391 H 1623.19 3.87063 -0.321997 0
M  V30 17392 H 1624.92 4.01285 -0.524624 0
M  V30 17393 H 1621.68 3.9949 -2.54372 0
M  V30 17394 H 1622.1 4.41701 -5.13059 0
M  V30 17395 H 1626.74 3.49667 -2.37682 0
M  V30 17396 H 1624.46 4.49459 -6.71574 0
M  V30 17397 H 1628.05 3.72933 -4.46556 0
M  V30 17398 H 1626.93 4.22385 -6.60727 0
M  V30 17399 N 1624.43 0.718038 1.40292 0
M  V30 17400 C 1625.36 0.0818367 2.33357 0
M  V30 17401 C 1626.34 -0.742854 1.53022 0
M  V30 17402 O 1627.53 -0.691281 1.8148 0
M  V30 17403 C 1624.66 -0.838843 3.37017 0
M  V30 17404 C 1623.61 -0.119589 4.27833 0
M  V30 17405 C 1622.94 -1.15615 5.22051 0
M  V30 17406 C 1624.24 1.02769 5.1209 0
M  V30 17407 H 1625.93 0.859167 2.86808 0
M  V30 17408 H 1623.48 0.414606 1.37902 0
M  V30 17409 H 1625.43 -1.29332 4.01063 0
M  V30 17410 H 1624.15 -1.6481 2.81967 0
M  V30 17411 H 1622.81 0.315088 3.65243 0
M  V30 17412 H 1622.46 -1.95852 4.63304 0
M  V30 17413 H 1622.16 -0.679767 5.83655 0
M  V30 17414 H 1623.69 -1.61068 5.88973 0
M  V30 17415 H 1625.1 0.652461 5.69575 0
M  V30 17416 H 1623.5 1.4326 5.82749 0
M  V30 17417 H 1624.57 1.85723 4.47923 0
M  V30 17418 N 1625.91 -1.50602 0.464402 0
M  V30 17419 C 1627.19 -1.94992 -0.154146 0
M  V30 17420 C 1627.57 -1.40447 -1.57601 0
M  V30 17421 O 1626.92 -0.602668 -2.20409 0
M  V30 17422 C 1627.13 -3.48844 -0.104296 0
M  V30 17423 C 1628.47 -4.23563 -0.296506 0
M  V30 17424 O 1629.5 -3.55739 -0.181187 0
M  V30 17425 O 1628.36 -5.43937 -0.528668 0
M  V30 17426 H 1625.45 -0.818921 -0.115311 0
M  V30 17427 H 1628 -1.61397 0.524324 0
M  V30 17428 H 1626.77 -3.81075 0.88869 0
M  V30 17429 H 1626.39 -3.88957 -0.824514 0
M  V30 17430 N 1627.39 -0.19675 -1.56367 0
M  V30 17431 C 1628.64 0.441584 -1.97627 0
M  V30 17432 C 1628.96 1.61514 -1.08368 0
M  V30 17433 O 1628.22 1.95312 -0.123139 0
M  V30 17434 C 1628.52 0.942382 -3.44752 0
M  V30 17435 C 1628.18 -0.117977 -4.50746 0
M  V30 17436 C 1626.85 -0.409332 -4.79456 0
M  V30 17437 C 1629.2 -0.836374 -5.14446 0
M  V30 17438 C 1626.53 -1.42403 -5.69156 0
M  V30 17439 C 1628.88 -1.84024 -6.05242 0
M  V30 17440 C 1627.54 -2.13877 -6.32308 0
M  V30 17441 H 1626.81 0.161587 -0.723167 0
M  V30 17442 H 1629.46 -0.294063 -1.89229 0
M  V30 17443 H 1627.76 1.75633 -3.50229 0
M  V30 17444 H 1629.46 1.44571 -3.74032 0
M  V30 17445 H 1626.05 0.119274 -4.28434 0
M  V30 17446 H 1630.23 -0.62451 -4.92355 0
M  V30 17447 H 1625.49 -1.66122 -5.88399 0
M  V30 17448 H 1629.66 -2.40212 -6.5366 0
M  V30 17449 H 1627.29 -2.92649 -7.01613 0
M  V30 17450 N 1628.87 1.57413 0.0768405 0
M  V30 17451 C 1629.8 2.06378 1.09226 0
M  V30 17452 C 1630.78 0.956269 1.40675 0
M  V30 17453 O 1631.96 1.22868 1.5039 0
M  V30 17454 C 1629.09 2.50349 2.40712 0
M  V30 17455 C 1628.05 3.64931 2.23628 0
M  V30 17456 C 1627.37 3.9494 3.60453 0
M  V30 17457 C 1628.67 4.95162 1.66169 0
M  V30 17458 H 1630.37 2.91463 0.684827 0
M  V30 17459 H 1627.91 1.40215 0.327974 0
M  V30 17460 H 1629.87 2.83216 3.12036 0
M  V30 17461 H 1628.59 1.62287 2.83426 0
M  V30 17462 H 1627.25 3.32339 1.54747 0
M  V30 17463 H 1626.9 3.04016 4.00728 0
M  V30 17464 H 1626.6 4.72091 3.49863 0
M  V30 17465 H 1628.12 4.30299 4.33215 0
M  V30 17466 H 1629.53 5.26292 2.27353 0
M  V30 17467 H 1627.93 5.76601 1.66289 0
M  V30 17468 H 1629 4.80885 0.62271 0
M  V30 17469 N 1630.34 -0.348112 1.53707 0
M  V30 17470 C 1631.59 -1.08626 1.69951 0
M  V30 17471 C 1631.91 -1.89944 0.466992 0
M  V30 17472 O 1633.11 -2.66661 0.51029 0
M  V30 17473 C 1631.57 -1.98052 3.00505 0
M  V30 17474 C 1631.18 -1.21963 4.31079 0
M  V30 17475 C 1632.92 -2.71752 3.26115 0
M  V30 17476 C 1630.83 -2.10392 5.52711 0
M  V30 17477 H 1629.76 -0.409241 0.633275 0
M  V30 17478 H 1632.41 -0.346051 1.80207 0
M  V30 17479 H 1630.79 -2.75874 2.84094 0
M  V30 17480 H 1631.96 -0.490831 4.58178 0
M  V30 17481 H 1630.28 -0.600511 4.12047 0
M  V30 17482 H 1632.88 -3.38174 4.14177 0
M  V30 17483 H 1633.22 -3.38072 2.42926 0
M  V30 17484 H 1633.75 -2.01005 3.43281 0
M  V30 17485 H 1630.49 -1.48622 6.38429 0
M  V30 17486 H 1630.01 -2.81074 5.29866 0
M  V30 17487 H 1631.69 -2.69551 5.88176 0
M  V30 17488 N 1631.82 -1.45363 -0.608876 0
M  V30 17489 C 1633.07 -1.49534 -1.36995 0
M  V30 17490 C 1633.4 -0.136087 -1.93723 0
M  V30 17491 O 1632.68 0.849276 -1.74979 0
M  V30 17492 C 1632.96 -2.57348 -2.51881 0
M  V30 17493 C 1632.81 -4.02712 -2.00358 0
M  V30 17494 C 1634.13 -2.61459 -3.54016 0
M  V30 17495 H 1631.25 -0.544419 -0.496767 0
M  V30 17496 H 1633.89 -1.77165 -0.686473 0
M  V30 17497 H 1632.04 -2.33917 -3.10185 0
M  V30 17498 H 1633.71 -4.37348 -1.46713 0
M  V30 17499 H 1631.96 -4.1343 -1.31369 0
M  V30 17500 H 1632.63 -4.73834 -2.8317 0
M  V30 17501 H 1635.1 -2.8245 -3.0555 0
M  V30 17502 H 1633.98 -3.38761 -4.31894 0
M  V30 17503 H 1634.24 -1.66499 -4.09549 0
M  V30 17504 N 1633.3 0.851265 -1.32632 0
M  V30 17505 C 1634.58 1.58945 -1.13999 0
M  V30 17506 C 1634.96 2.08981 0.29836 0
M  V30 17507 O 1634.31 1.88226 1.2955 0
M  V30 17508 C 1634.52 2.73296 -2.17049 0
M  V30 17509 C 1635.86 3.42791 -2.50559 0
M  V30 17510 O 1636.89 2.83524 -2.15621 0
M  V30 17511 O 1635.75 4.49749 -3.10464 0
M  V30 17512 H 1632.84 0.700157 -0.440124 0
M  V30 17513 H 1635.39 0.895098 -1.44174 0
M  V30 17514 H 1634.16 2.33873 -3.13718 0
M  V30 17515 H 1633.78 3.50405 -1.87888 0
M  V30 17516 N 1634.78 1.15898 1.06796 0
M  V30 17517 C 1636.02 0.938728 1.79766 0
M  V30 17518 C 1636.36 -0.53249 1.86757 0
M  V30 17519 O 1635.63 -1.39492 1.35544 0
M  V30 17520 C 1635.92 1.56062 3.24525 0
M  V30 17521 C 1635.77 3.10283 3.25645 0
M  V30 17522 C 1637.09 1.25108 4.21943 0
M  V30 17523 H 1634.21 0.342451 0.652607 0
M  V30 17524 H 1636.85 1.4315 1.24933 0
M  V30 17525 H 1635 1.14158 3.71349 0
M  V30 17526 H 1636.67 3.61132 2.87021 0
M  V30 17527 H 1634.91 3.43879 2.64443 0
M  V30 17528 H 1635.58 3.48913 4.27743 0
M  V30 17529 H 1638.06 1.61364 3.83537 0
M  V30 17530 H 1636.94 1.7123 5.21509 0
M  V30 17531 H 1637.2 0.169043 4.41777 0
M  V30 17532 N 1636.26 -1.25243 0.956659 0
M  V30 17533 C 1637.48 -1.97621 0.629337 0
M  V30 17534 C 1637.91 -1.70606 -0.792158 0
M  V30 17535 O 1637.26 -0.963192 -1.53598 0
M  V30 17536 C 1637.31 -3.49273 0.896687 0
M  V30 17537 O 1636.42 -4.12393 -0.0234986 0
M  V30 17538 H 1635.76 -0.619472 0.239061 0
M  V30 17539 H 1638.29 -1.5931 1.28381 0
M  V30 17540 H 1638.3 -3.99597 0.82377 0
M  V30 17541 H 1636.97 -3.68265 1.93271 0
M  V30 17542 H 1635.55 -3.72761 0.101796 0
M  V30 17543 N 1637.73 -0.725468 -1.3991 0
M  V30 17544 C 1638.98 -0.266188 -1.99936 0
M  V30 17545 C 1639.3 1.15022 -1.58207 0
M  V30 17546 O 1640.5 1.70853 -2.11001 0
M  V30 17547 C 1638.96 -0.424978 -3.57382 0
M  V30 17548 C 1638.57 -1.84866 -4.08079 0
M  V30 17549 C 1640.31 -0.0269907 -4.24491 0
M  V30 17550 C 1638.22 -1.95751 -5.58064 0
M  V30 17551 H 1637.15 -0.0957688 -0.747893 0
M  V30 17552 H 1639.8 -0.89798 -1.60027 0
M  V30 17553 H 1638.18 0.275558 -3.9504 0
M  V30 17554 H 1639.35 -2.58037 -3.81776 0
M  V30 17555 H 1637.67 -2.199 -3.536 0
M  V30 17556 H 1640.27 -0.0874638 -5.34628 0
M  V30 17557 H 1640.61 1.01639 -4.03702 0
M  V30 17558 H 1641.14 -0.678332 -3.91974 0
M  V30 17559 H 1637.88 -2.98244 -5.83721 0
M  V30 17560 H 1637.4 -1.27004 -5.862 0
M  V30 17561 H 1639.08 -1.73422 -6.23325 0
M  V30 17562 N 1639.21 1.50354 -0.472382 0
M  V30 17563 C 1640.46 2.01526 0.0838536 0
M  V30 17564 C 1640.77 1.35913 1.40667 0
M  V30 17565 O 1641.98 1.78248 2.04792 0
M  V30 17566 C 1640.44 3.59344 0.199949 0
M  V30 17567 C 1640.04 4.33916 -1.11451 0
M  V30 17568 C 1641.79 4.18553 0.708075 0
M  V30 17569 C 1639.7 5.83521 -0.962138 0
M  V30 17570 H 1638.63 0.753182 0.0351127 0
M  V30 17571 H 1641.28 1.73153 -0.607474 0
M  V30 17572 H 1639.66 3.8431 0.955088 0
M  V30 17573 H 1640.83 4.20673 -1.8807 0
M  V30 17574 H 1639.15 3.86322 -1.55385 0
M  V30 17575 H 1641.74 5.28075 0.839126 0
M  V30 17576 H 1642.09 3.80019 1.69973 0
M  V30 17577 H 1642.62 3.97799 0.0102847 0
M  V30 17578 H 1639.36 6.26529 -1.9272 0
M  V30 17579 H 1638.88 5.99334 -0.236348 0
M  V30 17580 H 1640.56 6.43933 -0.629276 0
M  V30 17581 N 1640.69 0.205039 1.56261 0
M  V30 17582 C 1641.92 -0.439502 2.0269 0
M  V30 17583 C 1642.34 -1.53715 1.08413 0
M  V30 17584 O 1641.7 -1.81167 0.0693616 0
M  V30 17585 C 1641.75 -0.963672 3.47485 0
M  V30 17586 O 1640.85 -2.07602 3.56336 0
M  V30 17587 H 1640.19 -0.101543 0.65619 0
M  V30 17588 H 1642.72 0.318835 2.021 0
M  V30 17589 H 1642.73 -1.27773 3.87476 0
M  V30 17590 H 1641.41 -0.160203 4.15591 0
M  V30 17591 H 1639.98 -1.76985 3.28224 0
M  V30 17592 N 1642.17 -1.57451 -0.0684915 0
M  V30 17593 C 1643.1 -2.06954 -1.0813 0
M  V30 17594 C 1644.08 -0.963716 -1.40166 0
M  V30 17595 O 1645.27 -1.23664 -1.49736 0
M  V30 17596 C 1642.4 -2.51622 -2.39381 0
M  V30 17597 C 1641.35 -3.66111 -2.2169 0
M  V30 17598 C 1640.68 -3.96846 -3.58354 0
M  V30 17599 C 1641.98 -4.96036 -1.63541 0
M  V30 17600 H 1643.67 -2.91822 -0.66936 0
M  V30 17601 H 1641.22 -1.40387 -0.320533 0
M  V30 17602 H 1643.17 -2.84867 -3.1053 0
M  V30 17603 H 1641.89 -1.63788 -2.82562 0
M  V30 17604 H 1640.55 -3.33155 -1.52982 0
M  V30 17605 H 1640.2 -3.06137 -3.9911 0
M  V30 17606 H 1639.9 -4.73939 -3.47354 0
M  V30 17607 H 1641.42 -4.3259 -4.30927 0
M  V30 17608 H 1642.84 -5.27491 -2.24559 0
M  V30 17609 H 1641.23 -5.77474 -1.63228 0
M  V30 17610 H 1642.3 -4.81208 -0.597199 0
M  V30 17611 N 1643.65 0.339955 -1.5389 0
M  V30 17612 C 1644.89 1.08139 -1.71563 0
M  V30 17613 C 1645.23 1.88193 -0.479292 0
M  V30 17614 O 1644.5 1.87317 0.523702 0
M  V30 17615 C 1644.78 2.01963 -2.98132 0
M  V30 17616 C 1644.64 1.25349 -4.31981 0
M  V30 17617 C 1645.96 3.01729 -3.20387 0
M  V30 17618 H 1643.08 0.391744 -0.624264 0
M  V30 17619 H 1645.72 0.359609 -1.86566 0
M  V30 17620 H 1643.87 2.63511 -2.85472 0
M  V30 17621 H 1645.54 0.66388 -4.56498 0
M  V30 17622 H 1643.78 0.555541 -4.30228 0
M  V30 17623 H 1644.45 1.94154 -5.16728 0
M  V30 17624 H 1646.93 2.50297 -3.32401 0
M  V30 17625 H 1645.81 3.64577 -4.10335 0
M  V30 17626 H 1646.07 3.73303 -2.36849 0
M  V30 17627 N 1645.13 1.45684 0.601159 0
M  V30 17628 C 1646.09 1.54451 1.69344 0
M  V30 17629 C 1647.09 0.423379 1.55126 0
M  V30 17630 O 1648.28 0.687079 1.60078 0
M  V30 17631 C 1645.41 1.4472 3.08657 0
M  V30 17632 H 1646.6 2.51778 1.62935 0
M  V30 17633 H 1644.16 1.3322 0.81744 0
M  V30 17634 H 1644.89 0.486027 3.20637 0
M  V30 17635 H 1644.68 2.26045 3.20384 0
M  V30 17636 H 1646.17 1.53902 3.88206 0
M  V30 17637 N 1646.6 -0.84422 1.33082 0
M  V30 17638 C 1647.55 -1.97504 1.22862 0
M  V30 17639 C 1648.55 -1.68892 0.131141 0
M  V30 17640 O 1649.75 -1.7757 0.294753 0
M  V30 17641 H 1646.13 -0.648263 0.381129 0
M  V30 17642 H 1648.1 -2.03249 2.18478 0
M  V30 17643 C 1646.85 -3.33626 0.979228 0
M  V30 17644 H 1646.17 -3.56178 1.81596 0
M  V30 17645 H 1647.61 -4.13266 0.948007 0
M  V30 17646 C 1646.07 -3.35397 -0.317922 0
M  V30 17647 O 1646.6 -3.7917 -1.32638 0
M  V30 17648 N 1644.8 -2.88562 -0.343577 0
M  V30 17649 H 1644.35 -2.53133 0.477625 0
M  V30 17650 H 1644.31 -2.90129 -1.21131 0
M  V30 17651 N 1648.08 -1.16463 -1.0618 0
M  V30 17652 C 1649.33 -0.958238 -1.79414 0
M  V30 17653 C 1649.68 0.508463 -1.8556 0
M  V30 17654 O 1648.98 1.37239 -1.33702 0
M  V30 17655 C 1649.17 -1.52085 -3.23427 0
M  V30 17656 C 1649 -3.04073 -3.31315 0
M  V30 17657 C 1647.77 -3.72723 -3.41183 0
M  V30 17658 C 1649.97 -4.01759 -3.21082 0
M  V30 17659 N 1647.95 -5.12409 -3.38098 0
M  V30 17660 C 1649.32 -5.27836 -3.25253 0
M  V30 17661 C 1651.37 -3.93567 -3.04975 0
M  V30 17662 C 1650.08 -6.46672 -3.14972 0
M  V30 17663 C 1652.1 -5.11976 -2.96032 0
M  V30 17664 C 1651.47 -6.36932 -3.00827 0
M  V30 17665 H 1647.56 -0.404432 -0.669297 0
M  V30 17666 H 1650.15 -1.47875 -1.26653 0
M  V30 17667 H 1648.32 -1.02681 -3.74581 0
M  V30 17668 H 1650.05 -1.25209 -3.84844 0
M  V30 17669 H 1646.81 -3.2336 -3.46027 0
M  V30 17670 H 1647.23 -5.85401 -3.40052 0
M  V30 17671 H 1651.87 -2.97812 -3.00113 0
M  V30 17672 H 1649.59 -7.42648 -3.1859 0
M  V30 17673 H 1653.18 -5.07408 -2.84655 0
M  V30 17674 H 1652.06 -7.27017 -2.93966 0
M  V30 17675 N 1649.56 1.24734 -0.963288 0
M  V30 17676 C 1650.49 2.27892 -0.508667 0
M  V30 17677 C 1651.47 1.64055 0.449438 0
M  V30 17678 O 1652.66 1.91083 0.346519 0
M  V30 17679 C 1649.79 3.46688 0.206157 0
M  V30 17680 C 1648.74 4.22762 -0.667534 0
M  V30 17681 C 1648.07 5.34402 0.178529 0
M  V30 17682 C 1649.37 4.84535 -1.94995 0
M  V30 17683 H 1651.06 2.66171 -1.37088 0
M  V30 17684 H 1648.61 1.27952 -0.660622 0
M  V30 17685 H 1650.56 4.17985 0.535391 0
M  V30 17686 H 1649.28 3.07422 1.10269 0
M  V30 17687 H 1647.94 3.53259 -0.979976 0
M  V30 17688 H 1647.59 4.91377 1.07508 0
M  V30 17689 H 1647.29 5.86218 -0.402808 0
M  V30 17690 H 1648.81 6.08529 0.502533 0
M  V30 17691 H 1650.23 5.4793 -1.68658 0
M  V30 17692 H 1648.62 5.46564 -2.47765 0
M  V30 17693 H 1649.69 4.06236 -2.64765 0
M  V30 17694 N 1651.04 0.732878 1.39523 0
M  V30 17695 C 1652.29 0.279338 2.0016 0
M  V30 17696 C 1652.61 -1.13673 1.58441 0
M  V30 17697 O 1651.88 -1.77369 0.831681 0
M  V30 17698 H 1650.46 0.100288 0.740237 0
M  V30 17699 H 1653.12 0.942363 1.70603 0
M  V30 17700 H 1652.21 0.326053 3.10392 0
M  V30 17701 N 1652.52 -1.50101 0.480349 0
M  V30 17702 C 1653.75 -2.06486 -0.0687482 0
M  V30 17703 C 1654.15 -1.34334 -1.33233 0
M  V30 17704 O 1653.5 -0.408976 -1.7909 0
M  V30 17705 C 1653.56 -3.57114 -0.413522 0
M  V30 17706 C 1653.22 -4.50814 0.749361 0
M  V30 17707 C 1654.22 -4.93554 1.63404 0
M  V30 17708 C 1651.9 -4.93382 0.942313 0
M  V30 17709 C 1653.9 -5.77577 2.696 0
M  V30 17710 C 1651.59 -5.77186 2.00748 0
M  V30 17711 C 1652.58 -6.19185 2.88268 0
M  V30 17712 O 1652.27 -7.01317 3.92949 0
M  V30 17713 H 1652 -0.675954 0.00792111 0
M  V30 17714 H 1654.56 -1.94135 0.670863 0
M  V30 17715 H 1652.79 -3.67399 -1.20645 0
M  V30 17716 H 1654.48 -3.95824 -0.89879 0
M  V30 17717 H 1655.24 -4.61329 1.4967 0
M  V30 17718 H 1651.12 -4.60206 0.270534 0
M  V30 17719 H 1654.67 -6.10279 3.37942 0
M  V30 17720 H 1650.56 -6.08824 2.14486 0
M  V30 17721 H 1651.33 -7.19585 3.9005 0
M  V30 17722 N 1653.99 -0.213323 -1.5615 0
M  V30 17723 C 1655.22 0.428746 -2.0292 0
M  V30 17724 C 1655.64 1.53137 -1.09227 0
M  V30 17725 O 1655 1.81128 -0.0789684 0
M  V30 17726 C 1655.05 0.945231 -3.47991 0
M  V30 17727 O 1654.15 2.05709 -3.57432 0
M  V30 17728 H 1653.49 0.0980619 -0.656719 0
M  V30 17729 H 1656.02 -0.329548 -2.01929 0
M  V30 17730 H 1656.03 1.25717 -3.88149 0
M  V30 17731 H 1654.71 0.138161 -4.1567 0
M  V30 17732 H 1653.29 1.75242 -3.29158 0
M  V30 17733 N 1655.47 1.57485 0.0601405 0
M  V30 17734 C 1656.38 2.07853 1.08785 0
M  V30 17735 C 1657.4 1.01047 1.41653 0
M  V30 17736 O 1658.57 1.32592 1.51596 0
M  V30 17737 C 1655.64 2.52214 2.37885 0
M  V30 17738 C 1654.7 3.73369 2.11882 0
M  V30 17739 C 1653.93 4.15604 3.34827 0
M  V30 17740 O 1654.16 3.5761 4.44377 0
M  V30 17741 O 1653.09 5.08303 3.22353 0
M  V30 17742 H 1656.92 2.9576 0.689912 0
M  V30 17743 H 1654.5 1.46846 0.275065 0
M  V30 17744 H 1656.38 2.81216 3.1384 0
M  V30 17745 H 1655.06 1.67432 2.77035 0
M  V30 17746 H 1653.97 3.49433 1.33594 0
M  V30 17747 H 1655.3 4.59039 1.77606 0
M  V30 17748 N 1656.95 -0.331789 1.54068 0
M  V30 17749 C 1657.88 -1.41332 1.8587 0
M  V30 17750 C 1658.86 -1.54353 0.714787 0
M  V30 17751 O 1660.05 -1.68368 0.967777 0
M  V30 17752 C 1657.18 -2.78218 2.07875 0
M  V30 17753 C 1656.13 -2.79994 3.23709 0
M  V30 17754 C 1655.46 -4.19878 3.31069 0
M  V30 17755 C 1656.76 -2.44476 4.6155 0
M  V30 17756 H 1658.45 -1.14966 2.76447 0
M  V30 17757 H 1656 -0.551615 1.33016 0
M  V30 17758 H 1657.95 -3.53937 2.28706 0
M  V30 17759 H 1656.67 -3.06044 1.14038 0
M  V30 17760 H 1655.33 -2.0673 3.02751 0
M  V30 17761 H 1654.98 -4.44831 2.34807 0
M  V30 17762 H 1654.68 -4.21974 4.08915 0
M  V30 17763 H 1656.2 -4.97421 3.54125 0
M  V30 17764 H 1657.62 -3.09908 4.82317 0
M  V30 17765 H 1656.02 -2.57837 5.41886 0
M  V30 17766 H 1657.09 -1.3964 4.64358 0
M  V30 17767 N 1658.43 -1.46001 -0.593424 0
M  V30 17768 C 1659.68 -1.50457 -1.34933 0
M  V30 17769 C 1660 -0.153383 -1.94396 0
M  V30 17770 O 1659.27 0.818894 -1.77963 0
M  V30 17771 H 1657.85 -0.554119 -0.50096 0
M  V30 17772 H 1660.51 -1.82057 -0.695798 0
M  V30 17773 H 1659.61 -2.25131 -2.16154 0
M  V30 17774 N 1659.91 0.83715 -1.33527 0
M  V30 17775 C 1661.32 1.40878 -1.22516 0
M  V30 17776 C 1661.67 1.95585 0.155236 0
M  V30 17777 O 1660.79 1.88946 1.05491 0
M  V30 17778 C 1661.39 2.56093 -2.21815 0
M  V30 17779 C 1659.95 3.09205 -2.14638 0
M  V30 17780 C 1659.09 1.82012 -2.09205 0
M  V30 17781 H 1662.05 0.642766 -1.45101 0
M  V30 17782 H 1662.07 3.33775 -1.82687 0
M  V30 17783 H 1661.58 2.16246 -3.22272 0
M  V30 17784 H 1659.68 3.53592 -1.17489 0
M  V30 17785 H 1659.79 3.69261 -3.05259 0
M  V30 17786 H 1658.16 2.02331 -1.54707 0
M  V30 17787 H 1658.94 1.44359 -3.11473 0
M  V30 17788 N 1661.38 1.17024 1.05561 0
M  V30 17789 C 1662.63 0.950769 1.77886 0
M  V30 17790 C 1662.95 -0.522005 1.88506 0
M  V30 17791 O 1664.15 -0.859582 2.57533 0
M  V30 17792 C 1662.61 1.65189 3.19751 0
M  V30 17793 C 1662.22 3.16294 3.17273 0
M  V30 17794 C 1663.96 1.51466 3.96558 0
M  V30 17795 C 1661.87 3.79111 4.53904 0
M  V30 17796 H 1660.8 0.352089 0.666745 0
M  V30 17797 H 1663.45 1.40237 1.18346 0
M  V30 17798 H 1661.83 1.12801 3.79594 0
M  V30 17799 H 1663 3.75585 2.66969 0
M  V30 17800 H 1661.32 3.29986 2.53966 0
M  V30 17801 H 1663.92 1.95772 4.97571 0
M  V30 17802 H 1664.26 0.46467 4.13699 0
M  V30 17803 H 1664.79 2.0105 3.43254 0
M  V30 17804 H 1661.53 4.84091 4.41969 0
M  V30 17805 H 1661.05 3.24606 5.04372 0
M  V30 17806 H 1662.73 3.81099 5.2285 0
M  V30 17807 N 1662.86 -1.24221 0.969889 0
M  V30 17808 C 1663.81 -2.25292 0.501215 0
M  V30 17809 C 1664.78 -1.59764 -0.454382 0
M  V30 17810 O 1665.96 -1.87291 -0.364261 0
M  V30 17811 C 1663.1 -3.44518 -0.200361 0
M  V30 17812 C 1662.22 -4.24636 0.79426 0
M  V30 17813 C 1661.35 -5.31156 0.068568 0
M  V30 17814 C 1660.39 -6.02973 1.05311 0
M  V30 17815 N 1659.53 -7.0119 0.357274 0
M  V30 17816 H 1664.37 -2.64749 1.36792 0
M  V30 17817 H 1661.91 -1.30142 0.685673 0
M  V30 17818 H 1663.86 -4.1251 -0.623833 0
M  V30 17819 H 1662.49 -3.05892 -1.03101 0
M  V30 17820 H 1661.55 -3.56161 1.33616 0
M  V30 17821 H 1662.86 -4.74271 1.54493 0
M  V30 17822 H 1662.01 -6.05294 -0.412792 0
M  V30 17823 H 1660.75 -4.82434 -0.714781 0
M  V30 17824 H 1659.76 -5.27636 1.54532 0
M  V30 17825 H 1660.98 -6.53784 1.83694 0
M  V30 17826 H 1658.93 -6.54736 -0.407059 0
M  V30 17827 H 1658.84 -7.48718 1.04677 0
M  V30 17828 H 1660.11 -7.79433 -0.102045 0
M  V30 17829 N 1664.34 -0.740267 -1.39132 0
M  V30 17830 C 1665.57 -0.299605 -2.05225 0
M  V30 17831 C 1665.99 1.05904 -1.55454 0
M  V30 17832 O 1665.35 1.67216 -0.700603 0
M  V30 17833 C 1665.4 -0.316792 -3.59206 0
M  V30 17834 O 1664.5 0.693786 -4.06522 0
M  V30 17835 H 1663.84 -0.135146 -0.650101 0
M  V30 17836 H 1666.37 -1.00766 -1.78065 0
M  V30 17837 H 1666.38 -0.163013 -4.07674 0
M  V30 17838 H 1665.06 -1.30814 -3.94792 0
M  V30 17839 H 1663.63 0.505712 -3.69455 0
M  V30 17840 N 1665.82 1.49844 -0.488302 0
M  V30 17841 C 1666.75 2.31737 0.286432 0
M  V30 17842 C 1667.73 1.39424 0.974418 0
M  V30 17843 O 1668.91 1.68339 0.968274 0
M  V30 17844 C 1666.04 3.19616 1.35878 0
M  V30 17845 C 1665 4.20619 0.791409 0
M  V30 17846 C 1664.32 4.9735 1.96333 0
M  V30 17847 C 1665.62 5.21882 -0.208975 0
M  V30 17848 H 1667.32 2.96755 -0.397092 0
M  V30 17849 H 1664.86 1.42709 -0.192413 0
M  V30 17850 H 1666.82 3.75711 1.90838 0
M  V30 17851 H 1665.54 2.52516 2.07131 0
M  V30 17852 H 1664.2 3.65651 0.263647 0
M  V30 17853 H 1663.85 4.26708 2.66325 0
M  V30 17854 H 1663.55 5.65684 1.58983 0
M  V30 17855 H 1665.07 5.56286 2.51751 0
M  V30 17856 H 1666.49 5.72746 0.252049 0
M  V30 17857 H 1664.88 5.98033 -0.497638 0
M  V30 17858 H 1665.95 4.7157 -1.12916 0
M  V30 17859 N 1667.3 0.221601 1.56034 0
M  V30 17860 C 1668.71 -0.133783 1.59038 0
M  V30 17861 C 1668.91 -1.58952 1.23841 0
M  V30 17862 O 1667.97 -2.32972 0.973677 0
M  V30 17863 C 1669.28 0.192549 3.00083 0
M  V30 17864 C 1670.83 0.134791 3.1271 0
M  V30 17865 C 1671.3 0.434799 4.55931 0
M  V30 17866 N 1672.8 0.384372 4.61602 0
M  V30 17867 C 1673.53 0.59 5.70357 0
M  V30 17868 N 1673.03 0.857405 6.87474 0
M  V30 17869 N 1674.82 0.522433 5.59667 0
M  V30 17870 H 1666.97 1.17124 1.77189 0
M  V30 17871 H 1669.23 0.46946 0.823597 0
M  V30 17872 H 1668.94 1.20292 3.30488 0
M  V30 17873 H 1668.81 -0.49243 3.73972 0
M  V30 17874 H 1671.2 -0.866221 2.821 0
M  V30 17875 H 1671.28 0.853247 2.4115 0
M  V30 17876 H 1670.93 1.43325 4.87258 0
M  V30 17877 H 1670.86 -0.304849 5.25717 0
M  V30 17878 H 1673.35 0.185389 3.77445 0
M  V30 17879 H 1673.66 1.00241 7.66271 0
M  V30 17880 H 1672 0.894599 6.89218 0
M  V30 17881 H 1675.2 0.313754 4.67047 0
M  V30 17882 H 1675.37 0.686094 6.44358 0
M  V30 17883 N 1668.77 -1.57515 -0.0517878 0
M  V30 17884 C 1670 -1.92456 -0.759485 0
M  V30 17885 C 1670.42 -0.819396 -1.70092 0
M  V30 17886 O 1669.77 0.205913 -1.81335 0
M  V30 17887 C 1669.83 -3.27242 -1.53606 0
M  V30 17888 O 1669.55 -4.33511 -0.632441 0
M  V30 17889 C 1671.05 -3.76324 -2.34297 0
M  V30 17890 H 1668.27 -0.635688 -0.214807 0
M  V30 17891 H 1670.81 -2.04494 -0.0160862 0
M  V30 17892 H 1668.97 -3.16671 -2.23155 0
M  V30 17893 H 1669.38 -5.11178 -1.17462 0
M  V30 17894 H 1670.85 -4.73209 -2.84213 0
M  V30 17895 H 1671.33 -3.06351 -3.14716 0
M  V30 17896 H 1671.94 -3.89904 -1.69866 0
M  V30 17897 N 1670.25 0.323614 -1.54242 0
M  V30 17898 C 1671.18 1.40344 -1.86616 0
M  V30 17899 C 1672.16 1.53972 -0.722963 0
M  V30 17900 O 1673.35 1.67852 -0.976692 0
M  V30 17901 C 1670.48 2.77112 -2.09347 0
M  V30 17902 C 1669.43 2.78273 -3.25189 0
M  V30 17903 C 1668.76 4.18116 -3.33291 0
M  V30 17904 C 1670.06 2.42025 -4.6284 0
M  V30 17905 H 1671.75 1.13499 -2.77053 0
M  V30 17906 H 1669.3 0.544553 -1.33306 0
M  V30 17907 H 1671.25 3.52719 -2.3058 0
M  V30 17908 H 1669.98 3.05435 -1.1566 0
M  V30 17909 H 1668.64 2.05121 -3.03844 0
M  V30 17910 H 1668.28 4.4358 -2.37163 0
M  V30 17911 H 1667.98 4.19799 -4.11147 0
M  V30 17912 H 1669.51 4.95536 -3.56758 0
M  V30 17913 H 1670.92 3.07346 -4.83954 0
M  V30 17914 H 1669.32 2.5496 -5.43245 0
M  V30 17915 H 1670.39 1.37175 -4.65092 0
M  V30 17916 N 1671.73 1.46313 0.585673 0
M  V30 17917 C 1673.15 1.31203 0.908733 0
M  V30 17918 C 1673.35 0.281265 1.99527 0
M  V30 17919 O 1672.4 -0.317202 2.505 0
M  V30 17920 C 1673.72 2.69742 1.3289 0
M  V30 17921 C 1675.26 2.77809 1.44191 0
M  V30 17922 C 1675.74 4.16924 1.89574 0
M  V30 17923 N 1677.23 4.19327 1.96773 0
M  V30 17924 C 1677.97 5.23856 2.33157 0
M  V30 17925 N 1677.46 6.38716 2.68355 0
M  V30 17926 N 1679.25 5.11221 2.33686 0
M  V30 17927 H 1671.41 2.11989 -0.132126 0
M  V30 17928 H 1673.67 0.947993 0.00355835 0
M  V30 17929 H 1673.37 3.46465 0.604557 0
M  V30 17930 H 1673.25 2.99653 2.29102 0
M  V30 17931 H 1675.64 2.01377 2.15712 0
M  V30 17932 H 1675.72 2.51587 0.46237 0
M  V30 17933 H 1675.36 4.93851 1.18633 0
M  V30 17934 H 1675.29 4.40552 2.88481 0
M  V30 17935 H 1677.78 3.36451 1.72073 0
M  V30 17936 H 1678.09 7.14253 2.95063 0
M  V30 17937 H 1676.44 6.42082 2.66 0
M  V30 17938 H 1679.63 4.20527 2.05609 0
M  V30 17939 H 1679.8 5.92798 2.61714 0
M  V30 17940 N 1673.21 -0.830057 1.33969 0
M  V30 17941 C 1674.17 -1.92206 1.24858 0
M  V30 17942 C 1675.17 -1.59946 0.16549 0
M  V30 17943 O 1676.36 -1.6912 0.417629 0
M  V30 17944 C 1673.49 -3.28082 0.926029 0
M  V30 17945 H 1674.69 -2.01708 2.21932 0
M  V30 17946 H 1672.24 -1.02319 1.18154 0
M  V30 17947 H 1672.98 -3.24273 -0.0418364 0
M  V30 17948 H 1672.76 -3.52878 1.70938 0
M  V30 17949 H 1674.25 -4.08065 0.887263 0
M  V30 17950 N 1674.69 -1.17582 -1.04939 0
M  V30 17951 C 1675.62 -0.918221 -2.14688 0
M  V30 17952 C 1676.6 0.140757 -1.69517 0
M  V30 17953 O 1677.78 -0.0100118 -1.94197 0
M  V30 17954 C 1674.91 -0.433531 -3.44584 0
M  V30 17955 C 1673.87 -1.43199 -4.03334 0
M  V30 17956 C 1673.19 -0.805154 -5.28603 0
M  V30 17957 C 1674.49 -2.80598 -4.40525 0
M  V30 17958 H 1676.19 -1.83604 -2.36495 0
M  V30 17959 H 1673.73 -0.884202 -1.13657 0
M  V30 17960 H 1675.69 -0.240722 -4.20712 0
M  V30 17961 H 1674.41 0.519832 -3.22437 0
M  V30 17962 H 1673.07 -1.61158 -3.29277 0
M  V30 17963 H 1672.72 0.155124 -5.02761 0
M  V30 17964 H 1672.42 -1.4717 -5.68871 0
M  V30 17965 H 1673.94 -0.622677 -6.07417 0
M  V30 17966 H 1675.36 -2.66341 -5.07676 0
M  V30 17967 H 1673.75 -3.43854 -4.91817 0
M  V30 17968 H 1674.82 -3.34815 -3.50752 0
M  V30 17969 N 1676.17 1.23705 -0.976463 0
M  V30 17970 C 1677.58 1.44179 -0.684434 0
M  V30 17971 C 1677.78 1.86992 0.75075 0
M  V30 17972 O 1676.84 2.01349 1.52365 0
M  V30 17973 C 1678.15 2.49661 -1.676 0
M  V30 17974 C 1679.7 2.63479 -1.68961 0
M  V30 17975 C 1680.17 3.72167 -2.66938 0
M  V30 17976 N 1681.66 3.79605 -2.65433 0
M  V30 17977 C 1682.4 4.63251 -3.37914 0
M  V30 17978 N 1681.9 5.51018 -4.19941 0
M  V30 17979 N 1683.69 4.57412 -3.26697 0
M  V30 17980 H 1675.84 0.942155 -1.90361 0
M  V30 17981 H 1678.1 0.475629 -0.820049 0
M  V30 17982 H 1677.81 2.25111 -2.70218 0
M  V30 17983 H 1677.68 3.47978 -1.45571 0
M  V30 17984 H 1680.07 2.87382 -0.670497 0
M  V30 17985 H 1680.15 1.65491 -1.95055 0
M  V30 17986 H 1679.79 3.49013 -3.68988 0
M  V30 17987 H 1679.72 4.69688 -2.3812 0
M  V30 17988 H 1682.22 3.16882 -2.05899 0
M  V30 17989 H 1682.53 6.11825 -4.72113 0
M  V30 17990 H 1680.87 5.50655 -4.24033 0
M  V30 17991 H 1684.06 3.87863 -2.62069 0
M  V30 17992 H 1684.24 5.22373 -3.83446 0
M  V30 17993 N 1677.64 0.747635 1.38738 0
M  V30 17994 C 1679.05 0.369576 1.83006 0
M  V30 17995 C 1679.41 -1.10091 1.62402 0
M  V30 17996 O 1678.53 -1.85042 1.12198 0
M  V30 17997 C 1679.13 0.664018 3.32229 0
M  V30 17998 C 1677.68 0.339308 3.74868 0
M  V30 17999 C 1676.83 0.920231 2.61586 0
M  V30 18000 H 1679.78 0.944268 1.27551 0
M  V30 18001 H 1679.8 -0.0598575 3.80453 0
M  V30 18002 H 1679.32 1.73432 3.47193 0
M  V30 18003 H 1677.42 -0.724649 3.65485 0
M  V30 18004 H 1677.53 0.830699 4.71843 0
M  V30 18005 H 1675.89 0.346002 2.52339 0
M  V30 18006 H 1676.68 1.99544 2.79351 0
M  V30 18007 N 1679.12 -1.49583 0.496242 0
M  V30 18008 C 1680.05 -2.31885 -0.274139 0
M  V30 18009 C 1681.03 -1.39939 -0.96701 0
M  V30 18010 O 1682.22 -1.6885 -0.959333 0
M  V30 18011 C 1679.35 -3.20332 -1.34181 0
M  V30 18012 C 1678.3 -4.21033 -0.769091 0
M  V30 18013 C 1677.63 -4.98385 -1.93693 0
M  V30 18014 C 1678.93 -5.21764 0.236648 0
M  V30 18015 H 1680.62 -2.9654 0.412824 0
M  V30 18016 H 1678.17 -1.42605 0.199979 0
M  V30 18017 H 1680.12 -3.76718 -1.88843 0
M  V30 18018 H 1678.84 -2.53611 -2.05789 0
M  V30 18019 H 1677.5 -3.65785 -0.244252 0
M  V30 18020 H 1677.15 -4.28115 -2.64058 0
M  V30 18021 H 1676.85 -5.66519 -1.55981 0
M  V30 18022 H 1678.38 -5.57613 -2.48798 0
M  V30 18023 H 1679.79 -5.72871 -0.221672 0
M  V30 18024 H 1678.19 -5.97761 0.529346 0
M  V30 18025 H 1679.26 -4.70964 1.15415 0
M  V30 18026 N 1680.6 -0.229873 -1.55915 0
M  V30 18027 C 1682.02 0.125347 -1.59107 0
M  V30 18028 C 1682.22 1.58293 -1.24682 0
M  V30 18029 O 1681.27 2.32452 -0.986018 0
M  V30 18030 C 1682.58 -0.208461 -2.99977 0
M  V30 18031 C 1684.13 -0.151373 -3.12634 0
M  V30 18032 C 1684.61 -0.458972 -4.55694 0
M  V30 18033 N 1686.1 -0.408847 -4.61392 0
M  V30 18034 C 1686.83 -0.620239 -5.70036 0
M  V30 18035 N 1686.33 -0.893851 -6.8701 0
M  V30 18036 N 1688.12 -0.552107 -5.59382 0
M  V30 18037 H 1680.27 -1.18062 -1.76565 0
M  V30 18038 H 1682.54 -0.473821 -0.821095 0
M  V30 18039 H 1682.24 -1.22043 -3.29846 0
M  V30 18040 H 1682.12 0.472591 -3.74228 0
M  V30 18041 H 1684.5 0.851249 -2.82556 0
M  V30 18042 H 1684.58 -0.866024 -2.40694 0
M  V30 18043 H 1684.23 -1.45907 -4.86491 0
M  V30 18044 H 1684.16 0.276965 -5.25871 0
M  V30 18045 H 1686.65 -0.205404 -3.77341 0
M  V30 18046 H 1686.96 -1.04303 -7.65729 0
M  V30 18047 H 1685.31 -0.931138 -6.88734 0
M  V30 18048 H 1688.5 -0.338518 -4.66874 0
M  V30 18049 H 1688.67 -0.720256 -6.43985 0
M  V30 18050 N 1682.08 1.5754 0.0434337 0
M  V30 18051 C 1683.04 2.046 1.03303 0
M  V30 18052 C 1684.04 0.947648 1.29909 0
M  V30 18053 O 1685.23 1.21171 1.25153 0
M  V30 18054 C 1682.36 2.45077 2.36961 0
M  V30 18055 H 1683.56 2.93276 0.626822 0
M  V30 18056 H 1681.11 1.53588 0.289909 0
M  V30 18057 H 1681.84 1.59513 2.82358 0
M  V30 18058 H 1681.63 3.25252 2.18983 0
M  V30 18059 H 1683.12 2.81963 3.08037 0
M  V30 18060 N 1683.56 -0.31543 1.54411 0
M  V30 18061 C 1684.49 -1.39353 1.87358 0
M  V30 18062 C 1685.47 -1.53586 0.731118 0
M  V30 18063 O 1686.65 -1.67332 0.98558 0
M  V30 18064 C 1683.78 -2.75998 2.10814 0
M  V30 18065 C 1682.74 -2.76545 3.2666 0
M  V30 18066 C 1682.06 -4.16343 3.35504 0
M  V30 18067 C 1683.36 -2.39567 4.64117 0
M  V30 18068 H 1685.06 -1.12028 2.77651 0
M  V30 18069 H 1682.6 -0.537476 1.33593 0
M  V30 18070 H 1684.55 -3.51491 2.32447 0
M  V30 18071 H 1683.28 -3.04817 1.17278 0
M  V30 18072 H 1681.94 -2.03507 3.04927 0
M  V30 18073 H 1681.59 -4.42316 2.39512 0
M  V30 18074 H 1681.29 -4.17613 4.13368 0
M  V30 18075 H 1682.81 -4.93637 3.59381 0
M  V30 18076 H 1684.22 -3.04775 4.85577 0
M  V30 18077 H 1682.62 -2.52075 5.4459 0
M  V30 18078 H 1683.69 -1.34707 4.65813 0
M  V30 18079 N 1685.03 -1.46622 -0.577906 0
M  V30 18080 C 1686.26 -1.56 -1.36671 0
M  V30 18081 C 1686.68 -0.2034 -1.86997 0
M  V30 18082 O 1686.04 0.817288 -1.61834 0
M  V30 18083 C 1686.09 -2.57254 -2.52691 0
M  V30 18084 O 1685.19 -2.1109 -3.54281 0
M  V30 18085 H 1684.54 -0.524779 -0.406821 0
M  V30 18086 H 1687.07 -1.92234 -0.700512 0
M  V30 18087 H 1687.08 -2.77016 -2.99543 0
M  V30 18088 H 1685.75 -3.55766 -2.15415 0
M  V30 18089 H 1684.33 -2.01337 -3.13875 0
M  V30 18090 N 1686.51 0.822941 -1.34408 0
M  V30 18091 C 1687.93 1.11606 -1.14089 0
M  V30 18092 C 1688.13 2.01418 0.0576164 0
M  V30 18093 O 1687.18 2.41622 0.733146 0
M  V30 18094 C 1688.5 1.76279 -2.43611 0
M  V30 18095 C 1690.05 1.88773 -2.49667 0
M  V30 18096 C 1690.52 2.56862 -3.79191 0
M  V30 18097 N 1692.01 2.64362 -3.80351 0
M  V30 18098 C 1692.75 3.17775 -4.77291 0
M  V30 18099 N 1692.24 3.71751 -5.84613 0
M  V30 18100 N 1694.04 3.16175 -4.64747 0
M  V30 18101 H 1686.19 0.225555 -2.11199 0
M  V30 18102 H 1688.45 0.162621 -0.933948 0
M  V30 18103 H 1688.16 1.17749 -3.31403 0
M  V30 18104 H 1688.03 2.76147 -2.56949 0
M  V30 18105 H 1690.42 2.46451 -1.62314 0
M  V30 18106 H 1690.5 0.878079 -2.40257 0
M  V30 18107 H 1690.14 1.99839 -4.66933 0
M  V30 18108 H 1690.07 3.58332 -3.85883 0
M  V30 18109 H 1692.56 2.26102 -3.02797 0
M  V30 18110 H 1692.88 4.10759 -6.54597 0
M  V30 18111 H 1691.22 3.69995 -5.88327 0
M  V30 18112 H 1694.41 2.73274 -3.80051 0
M  V30 18113 H 1694.58 3.57498 -5.40462 0
M  V30 18114 N 1687.99 1.18137 1.04314 0
M  V30 18115 C 1689.24 0.975203 1.77471 0
M  V30 18116 C 1689.57 -0.495399 1.88085 0
M  V30 18117 O 1688.82 -1.38401 1.38361 0
M  V30 18118 C 1689.12 1.57211 3.20966 0
M  V30 18119 C 1688.79 3.06842 3.30392 0
M  V30 18120 C 1687.45 3.47683 3.32671 0
M  V30 18121 C 1689.8 4.02855 3.30692 0
M  V30 18122 C 1687.13 4.83116 3.3289 0
M  V30 18123 C 1689.48 5.382 3.3245 0
M  V30 18124 C 1688.14 5.78492 3.33021 0
M  V30 18125 H 1687.41 0.356852 0.649413 0
M  V30 18126 H 1690.06 1.47163 1.22536 0
M  V30 18127 H 1688.37 0.997616 3.78886 0
M  V30 18128 H 1690.06 1.38804 3.76211 0
M  V30 18129 H 1686.65 2.74291 3.29336 0
M  V30 18130 H 1690.84 3.72355 3.28124 0
M  V30 18131 H 1686.09 5.13634 3.31647 0
M  V30 18132 H 1690.27 6.12367 3.31631 0
M  V30 18133 H 1687.89 6.83412 3.32944 0
M  V30 18134 N 1689.47 -1.23186 0.98301 0
M  V30 18135 C 1690.38 -2.28448 0.533727 0
M  V30 18136 C 1691.39 -1.69034 -0.412732 0
M  V30 18137 O 1692.57 -1.99416 -0.282007 0
M  V30 18138 C 1689.64 -3.46357 -0.154179 0
M  V30 18139 C 1688.7 -4.21121 0.834009 0
M  V30 18140 C 1687.93 -5.334 0.178836 0
M  V30 18141 O 1688.15 -5.61032 -1.02952 0
M  V30 18142 O 1687.09 -5.95451 0.878722 0
M  V30 18143 H 1690.91 -2.69027 1.40919 0
M  V30 18144 H 1688.5 -1.29166 0.75077 0
M  V30 18145 H 1690.38 -4.17926 -0.539947 0
M  V30 18146 H 1689.05 -3.07724 -1.00437 0
M  V30 18147 H 1687.96 -3.51864 1.27053 0
M  V30 18148 H 1689.29 -4.6361 1.65309 0
M  V30 18149 N 1690.95 -0.754982 -1.38339 0
M  V30 18150 C 1692.19 -0.311146 -1.9969 0
M  V30 18151 C 1692.52 1.11138 -1.60229 0
M  V30 18152 O 1691.79 1.76024 -0.859794 0
M  V30 18153 H 1690.37 -0.112052 -0.738548 0
M  V30 18154 H 1693.03 -0.969386 -1.69083 0
M  V30 18155 H 1692.12 -0.375392 -3.09834 0
M  V30 18156 N 1692.42 1.49318 -0.504168 0
M  V30 18157 C 1693.36 2.25955 0.319279 0
M  V30 18158 C 1694.34 1.30675 0.967609 0
M  V30 18159 O 1695.52 1.5997 0.997086 0
M  V30 18160 C 1692.65 3.06096 1.44992 0
M  V30 18161 C 1691.69 4.16555 0.915644 0
M  V30 18162 S 1692.53 5.35141 -0.196097 0
M  V30 18163 C 1693.68 6.18837 0.937637 0
M  V30 18164 H 1693.91 2.9545 -0.33118 0
M  V30 18165 H 1691.45 1.51661 -0.289517 0
M  V30 18166 H 1693.41 3.52853 2.09774 0
M  V30 18167 H 1692.07 2.36065 2.07201 0
M  V30 18168 H 1691.26 4.72157 1.76306 0
M  V30 18169 H 1690.86 3.72406 0.344981 0
M  V30 18170 H 1693.15 6.51975 1.84216 0
M  V30 18171 H 1694.1 7.06852 0.420168 0
M  V30 18172 H 1694.5 5.51458 1.2064 0
M  V30 18173 N 1693.9 0.238138 1.5579 0
M  V30 18174 C 1695.32 -0.116908 1.59171 0
M  V30 18175 C 1695.52 -1.57629 1.2552 0
M  V30 18176 O 1694.57 -2.31926 0.998332 0
M  V30 18177 C 1695.89 0.224366 2.99862 0
M  V30 18178 C 1697.44 0.16795 3.12549 0
M  V30 18179 C 1697.91 0.483132 4.55445 0
M  V30 18180 N 1699.4 0.43331 4.61169 0
M  V30 18181 C 1700.14 0.650461 5.69699 0
M  V30 18182 N 1699.63 0.930272 6.86526 0
M  V30 18183 N 1701.43 0.581764 5.59081 0
M  V30 18184 H 1693.58 1.18996 1.75936 0
M  V30 18185 H 1695.84 0.478169 0.818571 0
M  V30 18186 H 1695.55 1.23791 3.29194 0
M  V30 18187 H 1695.42 -0.452738 3.74473 0
M  V30 18188 H 1697.81 -0.836252 2.83003 0
M  V30 18189 H 1697.89 0.878776 2.40231 0
M  V30 18190 H 1697.53 1.48485 4.8571 0
M  V30 18191 H 1697.46 -0.249073 5.26011 0
M  V30 18192 H 1699.95 0.225412 3.77227 0
M  V30 18193 H 1700.27 1.08362 7.65165 0
M  V30 18194 H 1698.61 0.96765 6.88231 0
M  V30 18195 H 1701.8 0.363273 4.66688 0
M  V30 18196 H 1701.97 0.754398 6.43594 0
M  V30 18197 N 1695.38 -1.57561 -0.0350783 0
M  V30 18198 C 1696.63 -1.89276 -0.728172 0
M  V30 18199 C 1696.96 -0.835137 -1.75326 0
M  V30 18200 O 1696.23 0.150516 -1.93917 0
M  V30 18201 C 1696.52 -3.31638 -1.40316 0
M  V30 18202 C 1696.37 -4.48089 -0.391996 0
M  V30 18203 C 1697.69 -3.72816 -2.33872 0
M  V30 18204 H 1694.81 -0.688381 -0.26325 0
M  V30 18205 H 1697.45 -1.89998 0.00900661 0
M  V30 18206 H 1695.6 -3.31153 -2.0315 0
M  V30 18207 H 1697.27 -4.60706 0.233965 0
M  V30 18208 H 1695.52 -4.32834 0.289305 0
M  V30 18209 H 1696.19 -5.4457 -0.902641 0
M  V30 18210 H 1698.66 -3.74629 -1.81086 0
M  V30 18211 H 1697.54 -4.73245 -2.78084 0
M  V30 18212 H 1697.8 -3.04744 -3.20287 0
M  V30 18213 N 1696.86 0.307236 -1.54576 0
M  V30 18214 C 1698.1 1.04476 -1.73818 0
M  V30 18215 C 1698.44 1.87134 -0.519102 0
M  V30 18216 O 1697.71 1.88386 0.483852 0
M  V30 18217 C 1698 1.95594 -3.02349 0
M  V30 18218 C 1697.85 1.16158 -4.34543 0
M  V30 18219 C 1699.17 2.94865 -3.26715 0
M  V30 18220 H 1696.29 0.378415 -0.632433 0
M  V30 18221 H 1698.93 0.319955 -1.87287 0
M  V30 18222 H 1697.08 2.57396 -2.90997 0
M  V30 18223 H 1698.75 0.5669 -4.57803 0
M  V30 18224 H 1696.99 0.464158 -4.3131 0
M  V30 18225 H 1697.66 1.8315 -5.2073 0
M  V30 18226 H 1700.14 2.4319 -3.37636 0
M  V30 18227 H 1699.02 3.55791 -4.17976 0
M  V30 18228 H 1699.28 3.68195 -2.44714 0
M  V30 18229 N 1698.34 1.46926 0.570122 0
M  V30 18230 C 1699.58 1.53113 1.32982 0
M  V30 18231 C 1699.92 0.187401 1.93294 0
M  V30 18232 O 1699.19 -0.802585 1.77169 0
M  V30 18233 C 1699.47 2.63936 2.44969 0
M  V30 18234 C 1699.33 4.07882 1.8961 0
M  V30 18235 C 1700.65 2.70753 3.46959 0
M  V30 18236 H 1697.76 0.557398 0.482158 0
M  V30 18237 H 1700.41 1.78923 0.639259 0
M  V30 18238 H 1698.56 2.42059 3.03874 0
M  V30 18239 H 1700.23 4.41084 1.35066 0
M  V30 18240 H 1698.47 4.16768 1.20361 0
M  V30 18241 H 1699.14 4.81175 2.70508 0
M  V30 18242 H 1701.62 2.90452 2.97954 0
M  V30 18243 H 1700.49 3.50093 4.2276 0
M  V30 18244 H 1700.76 1.77299 4.04991 0
M  V30 18245 N 1699.82 -0.815801 1.34842 0
M  V30 18246 C 1700.76 -1.94853 1.27024 0
M  V30 18247 C 1701.76 -1.68575 0.166936 0
M  V30 18248 O 1702.96 -1.76905 0.332352 0
M  V30 18249 H 1699.34 -0.640033 0.394794 0
M  V30 18250 H 1701.31 -1.98569 2.2274 0
M  V30 18251 C 1700.06 -3.31474 1.04977 0
M  V30 18252 H 1699.38 -3.52246 1.8911 0
M  V30 18253 H 1700.82 -4.11162 1.03545 0
M  V30 18254 C 1699.28 -3.35995 -0.246708 0
M  V30 18255 O 1699.81 -3.81898 -1.24566 0
M  V30 18256 N 1698.02 -2.89226 -0.282292 0
M  V30 18257 H 1697.56 -2.52063 0.531211 0
M  V30 18258 H 1697.52 -2.92633 -1.1495 0
M  V30 18259 N 1701.29 -1.18689 -1.03686 0
M  V30 18260 C 1702.26 -0.919415 -2.09951 0
M  V30 18261 C 1703.26 0.0968042 -1.60508 0
M  V30 18262 O 1704.45 -0.137062 -1.7366 0
M  V30 18263 C 1701.58 -0.380204 -3.38773 0
M  V30 18264 H 1702.77 -1.86178 -2.35112 0
M  V30 18265 H 1700.32 -0.999435 -1.20171 0
M  V30 18266 H 1701.06 0.568586 -3.19277 0
M  V30 18267 H 1700.84 -1.11281 -3.75977 0
M  V30 18268 H 1702.33 -0.211891 -4.17062 0
M  V30 18269 N 1702.77 1.22662 -0.989529 0
M  V30 18270 C 1703.7 2.26762 -0.556891 0
M  V30 18271 C 1704.68 1.64971 0.414538 0
M  V30 18272 O 1705.87 1.91775 0.305909 0
M  V30 18273 C 1703 3.47047 0.132573 0
M  V30 18274 C 1701.95 4.21251 -0.757058 0
M  V30 18275 C 1701.28 5.3466 0.065134 0
M  V30 18276 C 1702.58 4.8029 -2.05229 0
M  V30 18277 H 1704.27 2.63204 -1.42703 0
M  V30 18278 H 1701.82 1.26522 -0.687614 0
M  V30 18279 H 1703.77 4.19027 0.446609 0
M  V30 18280 H 1702.49 3.09692 1.03723 0
M  V30 18281 H 1701.15 3.51101 -1.05469 0
M  V30 18282 H 1700.8 4.93547 0.970607 0
M  V30 18283 H 1700.5 5.85231 -0.527063 0
M  V30 18284 H 1702.03 6.09458 0.373342 0
M  V30 18285 H 1703.44 5.44229 -1.80242 0
M  V30 18286 H 1701.84 5.41186 -2.59302 0
M  V30 18287 H 1702.91 4.00529 -2.73322 0
M  V30 18288 N 1704.25 0.762308 1.37937 0
M  V30 18289 C 1705.18 0.156036 2.32978 0
M  V30 18290 C 1706.16 -0.693795 1.55308 0
M  V30 18291 O 1707.35 -0.633195 1.83587 0
M  V30 18292 C 1704.48 -0.731199 3.39515 0
M  V30 18293 C 1703.43 0.0165834 4.27997 0
M  V30 18294 C 1702.76 -0.989476 5.25465 0
M  V30 18295 C 1704.06 1.19009 5.08561 0
M  V30 18296 H 1705.75 0.949978 2.83929 0
M  V30 18297 H 1703.3 0.458269 1.36513 0
M  V30 18298 H 1705.25 -1.16507 4.04974 0
M  V30 18299 H 1703.97 -1.55756 2.87067 0
M  V30 18300 H 1702.63 0.431128 3.64056 0
M  V30 18301 H 1702.28 -1.81013 4.69301 0
M  V30 18302 H 1701.98 -0.493738 5.85522 0
M  V30 18303 H 1703.5 -1.42248 5.93799 0
M  V30 18304 H 1704.92 0.833336 5.67211 0
M  V30 18305 H 1703.31 1.61727 5.77896 0
M  V30 18306 H 1704.38 1.99879 4.41788 0
M  V30 18307 N 1705.73 -1.49049 0.51208 0
M  V30 18308 C 1706.98 -2.0208 -0.0284326 0
M  V30 18309 C 1707.3 -1.39303 -1.36454 0
M  V30 18310 O 1706.57 -0.552155 -1.87958 0
M  V30 18311 H 1705.15 -0.746878 -0.0134968 0
M  V30 18312 H 1707.81 -1.82954 0.671842 0
M  V30 18313 H 1706.9 -3.11739 -0.149966 0
M  V30 18314 N 1707.21 -0.246397 -1.55662 0
M  V30 18315 C 1708.17 0.640041 -2.20082 0
M  V30 18316 C 1709.17 1.10313 -1.16994 0
M  V30 18317 O 1710.36 1.00792 -1.42079 0
M  V30 18318 C 1707.49 1.87964 -2.84398 0
M  V30 18319 H 1708.68 0.0780034 -2.99799 0
M  V30 18320 H 1706.24 0.00314588 -1.563 0
M  V30 18321 H 1706.97 2.48292 -2.08618 0
M  V30 18322 H 1706.76 1.5558 -3.59913 0
M  V30 18323 H 1708.25 2.51065 -3.33701 0
M  V30 18324 N 1708.68 1.57577 0.026722 0
M  V30 18325 C 1709.93 1.8856 0.716115 0
M  V30 18326 C 1710.25 0.845223 1.76395 0
M  V30 18327 O 1711.45 1.04435 2.5061 0
M  V30 18328 C 1709.91 3.34631 1.32476 0
M  V30 18329 C 1709.52 4.46904 0.313149 0
M  V30 18330 C 1711.26 3.74759 1.9939 0
M  V30 18331 C 1709.17 5.84038 0.930274 0
M  V30 18332 H 1708.1 0.703531 0.271221 0
M  V30 18333 H 1710.75 1.83476 -0.0294388 0
M  V30 18334 H 1709.13 3.34466 2.1201 0
M  V30 18335 H 1710.3 4.58542 -0.455647 0
M  V30 18336 H 1708.62 4.15624 -0.254028 0
M  V30 18337 H 1711.22 4.74534 2.46418 0
M  V30 18338 H 1711.56 3.06875 2.81307 0
M  V30 18339 H 1712.09 3.77108 1.26628 0
M  V30 18340 H 1708.83 6.55327 0.150466 0
M  V30 18341 H 1708.35 5.76116 1.66886 0
M  V30 18342 H 1710.03 6.30842 1.43692 0
M  V30 18343 N 1710.16 -0.299034 1.54737 0
M  V30 18344 C 1711.57 -0.871897 1.6509 0
M  V30 18345 C 1711.92 -1.88013 0.560843 0
M  V30 18346 O 1711.05 -2.1428 -0.302194 0
M  V30 18347 C 1711.64 -1.5882 2.99269 0
M  V30 18348 C 1710.2 -2.10944 3.11736 0
M  V30 18349 C 1709.35 -0.942776 2.60782 0
M  V30 18350 H 1712.3 -0.0759883 1.58518 0
M  V30 18351 H 1712.32 -2.45387 2.90802 0
M  V30 18352 H 1711.83 -0.854144 3.78584 0
M  V30 18353 H 1709.93 -2.87391 2.37144 0
M  V30 18354 H 1710.05 -2.34262 4.17921 0
M  V30 18355 H 1708.41 -1.3289 2.17284 0
M  V30 18356 H 1709.19 -0.222646 3.42577 0
M  V30 18357 N 1711.64 -1.47227 -0.562322 0
M  V30 18358 C 1712.86 -1.5744 -1.35008 0
M  V30 18359 C 1713.29 -0.223223 -1.86771 0
M  V30 18360 O 1712.65 0.800078 -1.62691 0
M  V30 18361 C 1712.7 -2.5992 -2.49948 0
M  V30 18362 O 1711.8 -2.14836 -3.52022 0
M  V30 18363 H 1711.14 -0.529064 -0.401232 0
M  V30 18364 H 1713.67 -1.92966 -0.680084 0
M  V30 18365 H 1713.68 -2.80177 -2.96588 0
M  V30 18366 H 1712.36 -3.58031 -2.11629 0
M  V30 18367 H 1710.93 -2.04655 -3.11722 0
M  V30 18368 N 1713.12 0.808639 -1.35273 0
M  V30 18369 C 1714.37 1.56071 -1.27768 0
M  V30 18370 C 1714.68 1.9505 0.146545 0
M  V30 18371 O 1715.89 2.69314 0.343855 0
M  V30 18372 C 1714.34 2.81648 -2.24059 0
M  V30 18373 C 1713.95 2.49915 -3.71815 0
M  V30 18374 C 1715.69 3.59658 -2.25492 0
M  V30 18375 C 1713.6 3.7177 -4.59936 0
M  V30 18376 H 1712.53 0.585811 -0.474701 0
M  V30 18377 H 1715.18 0.889051 -1.60525 0
M  V30 18378 H 1713.56 3.50514 -1.84271 0
M  V30 18379 H 1714.74 1.89068 -4.20226 0
M  V30 18380 H 1713.05 1.85154 -3.72971 0
M  V30 18381 H 1715.65 4.50162 -2.88545 0
M  V30 18382 H 1715.99 3.96835 -1.2581 0
M  V30 18383 H 1716.53 2.97751 -2.63798 0
M  V30 18384 H 1713.26 3.39704 -5.60608 0
M  V30 18385 H 1712.78 4.3185 -4.16252 0
M  V30 18386 H 1714.46 4.39022 -4.75256 0
M  V30 18387 N 1714.6 1.19237 1.03055 0
M  V30 18388 C 1715.53 0.871947 2.10885 0
M  V30 18389 C 1716.51 -0.170311 1.61706 0
M  V30 18390 O 1717.69 -0.0469972 1.88441 0
M  V30 18391 C 1714.82 0.304639 3.37327 0
M  V30 18392 C 1713.86 1.32569 4.05374 0
M  V30 18393 S 1714.7 2.88551 4.51108 0
M  V30 18394 C 1715.85 2.33359 5.8077 0
M  V30 18395 H 1716.09 1.78514 2.37739 0
M  V30 18396 H 1713.62 1.01933 1.1597 0
M  V30 18397 H 1715.58 -0.0161522 4.10497 0
M  V30 18398 H 1714.24 -0.586834 3.08569 0
M  V30 18399 H 1713.43 0.877829 4.96296 0
M  V30 18400 H 1713.03 1.59323 3.38367 0
M  V30 18401 H 1715.33 1.7225 6.55238 0
M  V30 18402 H 1716.27 3.22622 6.30334 0
M  V30 18403 H 1716.68 1.75999 5.36362 0
M  V30 18404 N 1716.07 -1.22136 0.99602 0
M  V30 18405 C 1717.02 -2.262 0.541868 0
M  V30 18406 C 1718.02 -1.64387 -0.409047 0
M  V30 18407 O 1719.22 -1.7779 -0.281224 0
M  V30 18408 H 1715.6 -0.73546 0.156851 0
M  V30 18409 H 1717.57 -2.61853 1.43092 0
M  V30 18410 C 1716.32 -3.47476 -0.124723 0
M  V30 18411 H 1715.64 -3.95303 0.597934 0
M  V30 18412 H 1717.08 -4.22053 -0.405902 0
M  V30 18413 C 1715.54 -3.08183 -1.36105 0
M  V30 18414 O 1716.07 -3.17862 -2.45615 0
M  V30 18415 N 1714.28 -2.62936 -1.23746 0
M  V30 18416 H 1713.82 -2.5526 -0.346394 0
M  V30 18417 H 1713.78 -2.37014 -2.06572 0
M  V30 18418 N 1717.55 -0.769612 -1.37531 0
M  V30 18419 C 1718.8 -0.33346 -2.0004 0
M  V30 18420 C 1719.13 1.08661 -1.60955 0
M  V30 18421 O 1718.41 1.74714 -0.854709 0
M  V30 18422 C 1718.69 -0.474588 -3.56959 0
M  V30 18423 C 1718.54 -1.93692 -4.0596 0
M  V30 18424 C 1719.86 0.122429 -4.3993 0
M  V30 18425 H 1716.98 -0.122637 -0.726725 0
M  V30 18426 H 1719.62 -0.972255 -1.6324 0
M  V30 18427 H 1717.77 0.0692352 -3.88438 0
M  V30 18428 H 1719.44 -2.54028 -3.85055 0
M  V30 18429 H 1717.69 -2.44647 -3.58232 0
M  V30 18430 H 1718.36 -1.98674 -5.15008 0
M  V30 18431 H 1720.83 -0.341557 -4.14696 0
M  V30 18432 H 1719.71 -0.00646545 -5.489 0
M  V30 18433 H 1719.97 1.21251 -4.25148 0
M  V30 18434 N 1719.03 1.48775 -0.519977 0
M  V30 18435 C 1719.96 2.32292 0.237213 0
M  V30 18436 C 1720.94 1.4146 0.944625 0
M  V30 18437 O 1722.13 1.70355 0.932349 0
M  V30 18438 C 1719.26 3.22426 1.29068 0
M  V30 18439 C 1718.21 4.22204 0.702011 0
M  V30 18440 C 1717.54 5.01403 1.85739 0
M  V30 18441 C 1718.84 5.21321 -0.319626 0
M  V30 18442 H 1720.53 2.95846 -0.459949 0
M  V30 18443 H 1718.08 1.42268 -0.222641 0
M  V30 18444 H 1720.03 3.79674 1.82826 0
M  V30 18445 H 1718.75 2.56853 2.01728 0
M  V30 18446 H 1717.41 3.66128 0.186027 0
M  V30 18447 H 1717.06 4.32262 2.57214 0
M  V30 18448 H 1716.76 5.68929 1.46949 0
M  V30 18449 H 1718.28 5.615 2.39895 0
M  V30 18450 H 1719.7 5.73151 0.130505 0
M  V30 18451 H 1718.1 5.96843 -0.624377 0
M  V30 18452 H 1719.17 4.69069 -1.22893 0
M  V30 18453 N 1720.51 0.254649 1.55529 0
M  V30 18454 C 1721.44 -0.635656 2.24681 0
M  V30 18455 C 1722.42 -1.17519 1.22977 0
M  V30 18456 O 1723.6 -1.21311 1.51649 0
M  V30 18457 C 1720.73 -1.82922 2.95224 0
M  V30 18458 C 1719.69 -1.42212 4.03683 0
M  V30 18459 C 1719.01 -2.69713 4.61691 0
M  V30 18460 C 1720.31 -0.587436 5.18986 0
M  V30 18461 H 1722.01 -0.0590063 2.99342 0
M  V30 18462 H 1719.55 -0.02694 1.43975 0
M  V30 18463 H 1721.51 -2.45777 3.42304 0
M  V30 18464 H 1720.23 -2.43137 2.18064 0
M  V30 18465 H 1718.89 -0.81687 3.57383 0
M  V30 18466 H 1718.54 -3.28143 3.81223 0
M  V30 18467 H 1718.24 -2.43194 5.34911 0
M  V30 18468 H 1719.76 -3.33453 5.11509 0
M  V30 18469 H 1721.18 -1.12048 5.62244 0
M  V30 18470 H 1719.57 -0.417988 5.98643 0
M  V30 18471 H 1720.64 0.398577 4.83259 0
M  V30 18472 N 1721.99 -1.57589 -0.0183649 0
M  V30 18473 C 1723.23 -1.90038 -0.708056 0
M  V30 18474 C 1723.57 -0.853686 -1.7443 0
M  V30 18475 O 1722.84 0.12994 -1.94065 0
M  V30 18476 C 1723.12 -3.33107 -1.3679 0
M  V30 18477 C 1722.98 -4.48479 -0.344448 0
M  V30 18478 C 1724.3 -3.75276 -2.29904 0
M  V30 18479 H 1721.41 -0.691134 -0.255934 0
M  V30 18480 H 1724.06 -1.89978 0.0291579 0
M  V30 18481 H 1722.21 -3.33289 -1.99626 0
M  V30 18482 H 1723.88 -4.60432 0.282816 0
M  V30 18483 H 1722.12 -4.32503 0.335196 0
M  V30 18484 H 1722.79 -5.45497 -0.844832 0
M  V30 18485 H 1725.27 -3.76529 -1.77103 0
M  V30 18486 H 1724.14 -4.76168 -2.73049 0
M  V30 18487 H 1724.41 -3.08124 -3.17036 0
M  V30 18488 N 1723.46 0.290824 -1.54893 0
M  V30 18489 C 1724.7 1.0326 -1.76399 0
M  V30 18490 C 1725.07 1.84136 -0.543874 0
M  V30 18491 O 1726.27 2.61147 -0.636854 0
M  V30 18492 C 1724.54 1.90632 -3.02315 0
M  V30 18493 S 1726.1 2.71317 -3.44866 0
M  V30 18494 H 1722.92 0.348084 -0.619966 0
M  V30 18495 H 1725.52 0.304897 -1.93108 0
M  V30 18496 H 1724.22 1.30109 -3.8923 0
M  V30 18497 H 1723.75 2.67753 -2.88222 0
M  V30 18498 H 1725.77 3.93148 -3.02737 0
M  V30 18499 N 1724.94 1.47523 0.554506 0
M  V30 18500 C 1725.87 1.63093 1.67102 0
M  V30 18501 C 1726.85 0.480298 1.63178 0
M  V30 18502 O 1728.04 0.709956 1.80757 0
M  V30 18503 C 1725.17 1.64751 3.05736 0
M  V30 18504 C 1724.12 2.79068 3.24507 0
M  V30 18505 C 1723.45 2.65801 4.63955 0
M  V30 18506 C 1724.75 4.20631 3.09623 0
M  V30 18507 H 1726.44 2.56561 1.54328 0
M  V30 18508 H 1723.99 1.2347 0.741023 0
M  V30 18509 H 1725.94 1.74234 3.83693 0
M  V30 18510 H 1724.67 0.678453 3.19475 0
M  V30 18511 H 1723.32 2.691 2.48959 0
M  V30 18512 H 1722.97 1.66917 4.74497 0
M  V30 18513 H 1722.67 3.42494 4.77464 0
M  V30 18514 H 1724.2 2.77216 5.44044 0
M  V30 18515 H 1725.61 4.31562 3.77396 0
M  V30 18516 H 1724.01 4.98133 3.3464 0
M  V30 18517 H 1725.08 4.38809 2.06336 0
M  V30 18518 N 1726.42 -0.801453 1.357 0
M  V30 18519 C 1727.67 -1.55392 1.28594 0
M  V30 18520 C 1727.98 -1.95125 -0.136199 0
M  V30 18521 O 1729.19 -2.69492 -0.329568 0
M  V30 18522 C 1727.64 -2.80456 2.2555 0
M  V30 18523 C 1727.25 -2.47939 3.73135 0
M  V30 18524 C 1729 -3.58457 2.27396 0
M  V30 18525 C 1726.9 -3.69326 4.61901 0
M  V30 18526 H 1725.83 -0.583286 0.477801 0
M  V30 18527 H 1728.48 -0.880525 1.60994 0
M  V30 18528 H 1726.87 -3.49532 1.86127 0
M  V30 18529 H 1728.04 -1.86837 4.21223 0
M  V30 18530 H 1726.36 -1.83173 3.73947 0
M  V30 18531 H 1728.95 -4.48625 2.90929 0
M  V30 18532 H 1729.3 -3.96162 1.27912 0
M  V30 18533 H 1729.83 -2.96348 2.65373 0
M  V30 18534 H 1726.57 -3.36726 5.62402 0
M  V30 18535 H 1726.09 -4.29636 4.18536 0
M  V30 18536 H 1727.77 -4.36496 4.77578 0
M  V30 18537 N 1727.9 -1.19782 -1.02421 0
M  V30 18538 C 1729.15 -1.00331 -1.75897 0
M  V30 18539 C 1729.47 0.465413 -1.8885 0
M  V30 18540 O 1728.73 1.36182 -1.40545 0
M  V30 18541 C 1729.03 -1.62297 -3.18425 0
M  V30 18542 C 1728.69 -3.12059 -3.25468 0
M  V30 18543 C 1727.36 -3.52931 -3.27098 0
M  V30 18544 C 1729.71 -4.08065 -3.24241 0
M  V30 18545 C 1727.04 -4.88351 -3.25162 0
M  V30 18546 C 1729.39 -5.43421 -3.23846 0
M  V30 18547 C 1728.05 -5.83717 -3.23775 0
M  V30 18548 H 1727.32 -0.367139 -0.643654 0
M  V30 18549 H 1729.97 -1.49094 -1.2018 0
M  V30 18550 H 1728.27 -1.05777 -3.77251 0
M  V30 18551 H 1729.97 -1.44772 -3.73955 0
M  V30 18552 H 1726.56 -2.79496 -3.24931 0
M  V30 18553 H 1730.74 -3.77528 -3.22159 0
M  V30 18554 H 1726 -5.18845 -3.23434 0
M  V30 18555 H 1730.17 -6.17566 -3.21847 0
M  V30 18556 H 1727.8 -6.88623 -3.22029 0
M  V30 18557 N 1729.38 1.21606 -1.00248 0
M  V30 18558 C 1730.62 1.91178 -0.694444 0
M  V30 18559 C 1730.98 1.76487 0.766175 0
M  V30 18560 O 1730.27 1.12914 1.54793 0
M  V30 18561 C 1730.47 3.41708 -1.04739 0
M  V30 18562 C 1730.29 3.71046 -2.54077 0
M  V30 18563 C 1729.06 3.90538 -3.20638 0
M  V30 18564 C 1731.26 3.74753 -3.52228 0
M  V30 18565 N 1729.24 4.0727 -4.59353 0
M  V30 18566 C 1730.62 3.9674 -4.76443 0
M  V30 18567 C 1732.67 3.57647 -3.464 0
M  V30 18568 C 1731.37 4.03395 -5.95537 0
M  V30 18569 C 1733.4 3.65567 -4.64882 0
M  V30 18570 C 1732.76 3.88012 -5.87899 0
M  V30 18571 H 1728.86 0.719835 -0.305551 0
M  V30 18572 H 1731.44 1.46322 -1.28444 0
M  V30 18573 H 1729.62 3.85349 -0.485874 0
M  V30 18574 H 1731.35 3.98699 -0.694351 0
M  V30 18575 H 1728.1 3.88341 -2.71087 0
M  V30 18576 H 1728.53 4.19543 -5.31331 0
M  V30 18577 H 1733.17 3.39271 -2.52299 0
M  V30 18578 H 1730.89 4.20571 -6.90033 0
M  V30 18579 H 1734.47 3.53657 -4.61972 0
M  V30 18580 H 1733.35 3.93982 -6.78047 0
M  V30 18581 N 1730.86 0.776895 1.37121 0
M  V30 18582 C 1731.79 0.180738 2.32799 0
M  V30 18583 C 1732.77 -0.677284 1.56035 0
M  V30 18584 O 1733.95 -0.613687 1.84249 0
M  V30 18585 C 1731.08 -0.695148 3.40272 0
M  V30 18586 C 1730.04 0.0619772 4.27955 0
M  V30 18587 C 1729.36 -0.933688 5.26485 0
M  V30 18588 C 1730.66 1.24396 5.0727 0
M  V30 18589 H 1732.36 0.980039 2.82906 0
M  V30 18590 H 1729.9 0.472722 1.3602 0
M  V30 18591 H 1731.85 -1.12205 4.06187 0
M  V30 18592 H 1730.58 -1.52702 2.88703 0
M  V30 18593 H 1729.24 0.469717 3.63578 0
M  V30 18594 H 1728.89 -1.76025 4.71194 0
M  V30 18595 H 1728.59 -0.431608 5.86013 0
M  V30 18596 H 1730.11 -1.35942 5.95275 0
M  V30 18597 H 1731.52 0.89345 5.66295 0
M  V30 18598 H 1729.92 1.67848 5.76149 0
M  V30 18599 H 1730.99 2.04553 4.39643 0
M  V30 18600 N 1732.33 -1.48497 0.527859 0
M  V30 18601 C 1733.58 -2.01698 -0.00900086 0
M  V30 18602 C 1733.9 -1.4104 -1.35525 0
M  V30 18603 O 1735.1 -1.85726 -1.98035 0
M  V30 18604 C 1733.56 -3.59839 -0.0664428 0
M  V30 18605 C 1733.17 -4.2948 1.27479 0
M  V30 18606 C 1734.91 -4.20893 -0.552244 0
M  V30 18607 C 1732.82 -5.79548 1.17805 0
M  V30 18608 H 1731.75 -0.753966 -0.00713463 0
M  V30 18609 H 1734.4 -1.70779 0.67132 0
M  V30 18610 H 1732.78 -3.8759 -0.811795 0
M  V30 18611 H 1733.95 -4.13403 2.03554 0
M  V30 18612 H 1732.27 -3.80289 1.69616 0
M  V30 18613 H 1734.87 -5.30825 -0.642556 0
M  V30 18614 H 1735.21 -3.86066 -1.55752 0
M  V30 18615 H 1735.74 -3.97563 0.137363 0
M  V30 18616 H 1732.48 -6.18945 2.15841 0
M  V30 18617 H 1732 -5.98044 0.458624 0
M  V30 18618 H 1733.68 -6.41153 0.867834 0
M  V30 18619 N 1733.81 -0.262893 -1.55392 0
M  V30 18620 C 1735.06 0.357366 -1.99322 0
M  V30 18621 C 1735.39 1.56772 -1.15121 0
M  V30 18622 O 1734.64 1.94614 -0.205867 0
M  V30 18623 C 1734.94 0.795313 -3.48439 0
M  V30 18624 C 1734.61 -0.309047 -4.4984 0
M  V30 18625 C 1733.27 -0.612317 -4.77288 0
M  V30 18626 C 1735.62 -1.05382 -5.10435 0
M  V30 18627 C 1732.95 -1.66415 -5.62604 0
M  V30 18628 C 1735.3 -2.09528 -5.96892 0
M  V30 18629 C 1733.96 -2.40503 -6.22667 0
M  V30 18630 H 1733.23 0.13077 -0.72937 0
M  V30 18631 H 1735.88 -0.374057 -1.87811 0
M  V30 18632 H 1734.19 1.60621 -3.57363 0
M  V30 18633 H 1735.88 1.28577 -3.79828 0
M  V30 18634 H 1732.47 -0.0625469 -4.28554 0
M  V30 18635 H 1736.66 -0.832773 -4.89263 0
M  V30 18636 H 1731.91 -1.90929 -5.80824 0
M  V30 18637 H 1736.09 -2.67719 -6.42884 0
M  V30 18638 H 1733.71 -3.22143 -6.88569 0
M  V30 18639 N 1735.29 1.57597 0.0100073 0
M  V30 18640 C 1736.51 1.94801 0.711852 0
M  V30 18641 C 1736.94 0.864343 1.67065 0
M  V30 18642 O 1736.3 -0.178388 1.8042 0
M  V30 18643 C 1736.35 3.31094 1.42862 0
M  V30 18644 O 1735.45 3.2469 2.54264 0
M  V30 18645 H 1734.79 0.636207 0.190095 0
M  V30 18646 H 1737.32 2.04561 -0.0402016 0
M  V30 18647 H 1737.33 3.66428 1.79429 0
M  V30 18648 H 1736.01 4.09522 0.725549 0
M  V30 18649 H 1734.58 3.01017 2.20099 0
M  V30 18650 N 1736.77 -0.282606 1.55045 0
M  V30 18651 C 1738.02 -1.0132 1.74405 0
M  V30 18652 C 1738.33 -1.87792 0.547133 0
M  V30 18653 O 1739.54 -2.64257 0.622931 0
M  V30 18654 C 1737.99 -1.85128 3.08635 0
M  V30 18655 C 1737.6 -1.0357 4.35864 0
M  V30 18656 C 1739.34 -2.57676 3.37347 0
M  V30 18657 C 1737.25 -1.86761 5.61137 0
M  V30 18658 H 1736.18 -0.382013 0.650063 0
M  V30 18659 H 1738.83 -0.269307 1.81513 0
M  V30 18660 H 1737.21 -2.63576 2.95539 0
M  V30 18661 H 1738.39 -0.296061 4.59848 0
M  V30 18662 H 1736.7 -0.425208 4.14223 0
M  V30 18663 H 1739.3 -3.20303 4.28147 0
M  V30 18664 H 1739.64 -3.27464 2.57046 0
M  V30 18665 H 1740.18 -1.86264 3.51497 0
M  V30 18666 H 1736.91 -1.2141 6.44158 0
M  V30 18667 H 1736.43 -2.58348 5.4131 0
M  V30 18668 H 1738.11 -2.44361 5.9908 0
M  V30 18669 N 1738.25 -1.47815 -0.546675 0
M  V30 18670 C 1739.18 -1.55643 -1.66884 0
M  V30 18671 C 1740.16 -0.407884 -1.57401 0
M  V30 18672 O 1741.34 -0.617164 -1.7811 0
M  V30 18673 C 1738.47 -1.46883 -3.05193 0
M  V30 18674 C 1737.51 -2.66372 -3.33089 0
M  V30 18675 S 1738.35 -4.28485 -3.21187 0
M  V30 18676 C 1739.5 -4.22295 -4.61971 0
M  V30 18677 H 1739.74 -2.5058 -1.59991 0
M  V30 18678 H 1737.27 -1.36142 -0.728331 0
M  V30 18679 H 1739.23 -1.42516 -3.84967 0
M  V30 18680 H 1737.89 -0.533133 -3.09542 0
M  V30 18681 H 1737.08 -2.56335 -4.33945 0
M  V30 18682 H 1736.68 -2.67915 -2.60955 0
M  V30 18683 H 1738.97 -3.91199 -5.53145 0
M  V30 18684 H 1739.92 -5.23274 -4.77064 0
M  V30 18685 H 1740.33 -3.53001 -4.40512 0
M  V30 18686 N 1739.72 0.794246 -1.36123 0
M  V30 18687 C 1740.97 1.54885 -1.29827 0
M  V30 18688 C 1741.29 1.94608 0.123517 0
M  V30 18689 O 1740.56 1.6457 1.06272 0
M  V30 18690 H 1739.14 0.574398 -0.477573 0
M  V30 18691 H 1741.8 0.946658 -1.70365 0
M  V30 18692 H 1740.9 2.45863 -1.92244 0
M  V30 18693 N 1741.2 1.20323 1.01785 0
M  V30 18694 C 1742.45 1.01413 1.75623 0
M  V30 18695 C 1742.78 -0.452801 1.88847 0
M  V30 18696 O 1742.06 -1.33618 1.41338 0
M  V30 18697 C 1742.34 1.69686 3.17614 0
M  V30 18698 C 1742.19 3.23815 3.12192 0
M  V30 18699 C 1743.51 1.42891 4.16257 0
M  V30 18700 H 1740.63 0.369822 0.637495 0
M  V30 18701 H 1743.27 1.4832 1.18749 0
M  V30 18702 H 1741.42 1.29806 3.66173 0
M  V30 18703 H 1743.09 3.72981 2.71446 0
M  V30 18704 H 1741.34 3.54785 2.4962 0
M  V30 18705 H 1742.01 3.66741 4.12559 0
M  V30 18706 H 1744.48 1.77486 3.76348 0
M  V30 18707 H 1743.36 1.93195 5.13777 0
M  V30 18708 H 1743.62 0.356263 4.40662 0
M  V30 18709 N 1742.68 -1.21073 1.00892 0
M  V30 18710 C 1743.63 -2.25613 0.565829 0
M  V30 18711 C 1744.62 -1.64812 -0.391588 0
M  V30 18712 O 1745.83 -1.78078 -0.262352 0
M  V30 18713 H 1742.2 -0.733755 0.164643 0
M  V30 18714 H 1744.17 -2.60321 1.45862 0
M  V30 18715 C 1742.92 -3.47589 -0.087861 0
M  V30 18716 H 1742.25 -3.94647 0.639828 0
M  V30 18717 H 1743.69 -4.22459 -0.361115 0
M  V30 18718 C 1742.14 -3.09609 -1.32829 0
M  V30 18719 O 1742.67 -3.20449 -2.4223 0
M  V30 18720 N 1740.88 -2.64234 -1.2095 0
M  V30 18721 H 1740.43 -2.55613 -0.319301 0
M  V30 18722 H 1740.39 -2.39191 -2.04046 0
M  V30 18723 N 1744.16 -0.784156 -1.36707 0
M  V30 18724 C 1745.09 -0.193081 -2.327 0
M  V30 18725 C 1746.07 0.668999 -1.56392 0
M  V30 18726 O 1747.25 0.603908 -1.84571 0
M  V30 18727 C 1744.38 0.677092 -3.40636 0
M  V30 18728 C 1743.34 -0.0846718 -4.27916 0
M  V30 18729 C 1742.66 0.905754 -5.26973 0
M  V30 18730 C 1743.96 -1.27085 -5.06603 0
M  V30 18731 H 1745.66 -0.995029 -2.82382 0
M  V30 18732 H 1743.2 -0.479929 -1.35767 0
M  V30 18733 H 1745.16 1.1005 -4.06776 0
M  V30 18734 H 1743.88 1.51169 -2.89509 0
M  V30 18735 H 1742.54 -0.488992 -3.63324 0
M  V30 18736 H 1742.19 1.73524 -4.72121 0
M  V30 18737 H 1741.89 0.400524 -5.86233 0
M  V30 18738 H 1743.41 1.32784 -5.95987 0
M  V30 18739 H 1744.83 -0.923469 -5.65814 0
M  V30 18740 H 1743.22 -1.70901 -5.7525 0
M  V30 18741 H 1744.29 -2.06882 -4.38552 0
M  V30 18742 N 1745.64 1.48215 -0.535727 0
M  V30 18743 C 1746.88 2.025 -0.00372753 0
M  V30 18744 C 1747.21 1.41227 1.33735 0
M  V30 18745 O 1746.47 0.549544 1.87826 0
M  V30 18746 C 1746.77 3.57036 0.161344 0
M  V30 18747 C 1746.43 4.37122 -1.10611 0
M  V30 18748 C 1745.09 4.58724 -1.45346 0
M  V30 18749 C 1747.45 4.83469 -1.94698 0
M  V30 18750 C 1744.77 5.2392 -2.64055 0
M  V30 18751 C 1747.13 5.49973 -3.1259 0
M  V30 18752 C 1745.79 5.69812 -3.47664 0
M  V30 18753 H 1745.06 0.740999 -0.001364 0
M  V30 18754 H 1747.71 1.78133 -0.70291 0
M  V30 18755 H 1746.01 3.80274 0.943337 0
M  V30 18756 H 1747.71 3.96666 0.587981 0
M  V30 18757 H 1744.3 4.20573 -0.825608 0
M  V30 18758 H 1748.48 4.66577 -1.69173 0
M  V30 18759 H 1743.74 5.37477 -2.91424 0
M  V30 18760 H 1747.91 5.84852 -3.78049 0
M  V30 18761 H 1745.54 6.20103 -4.39746 0
M  V30 18762 N 1747.11 0.27113 1.5525 0
M  V30 18763 C 1748.08 -0.604946 2.21072 0
M  V30 18764 C 1749.08 -1.08438 1.18735 0
M  V30 18765 O 1750.27 -0.985192 1.43665 0
M  V30 18766 C 1747.4 -1.83416 2.87353 0
M  V30 18767 H 1748.59 -0.0302981 2.99885 0
M  V30 18768 H 1746.15 0.0217204 1.56285 0
M  V30 18769 H 1746.88 -2.44942 2.12542 0
M  V30 18770 H 1746.67 -1.49834 3.62343 0
M  V30 18771 H 1748.16 -2.45724 3.37653 0
M  V30 18772 N 1748.59 -1.576 -0.00164943 0
M  V30 18773 C 1749.84 -1.9012 -0.685486 0
M  V30 18774 C 1750.16 -0.872245 -1.74404 0
M  V30 18775 O 1749.43 0.090572 -1.95691 0
M  V30 18776 H 1748.01 -0.701699 -0.256177 0
M  V30 18777 H 1750.67 -1.94861 0.0388866 0
M  V30 18778 H 1749.77 -2.89831 -1.15778 0
M  V30 18779 N 1750.07 0.274379 -1.55193 0
M  V30 18780 C 1751.02 1.33913 -1.87978 0
M  V30 18781 C 1751.99 1.49142 -0.731149 0
M  V30 18782 O 1753.17 1.63572 -0.98229 0
M  V30 18783 C 1750.31 2.69464 -2.156 0
M  V30 18784 C 1749.43 2.62468 -3.43125 0
M  V30 18785 C 1748.56 3.90188 -3.60453 0
M  V30 18786 C 1747.6 3.77697 -4.81675 0
M  V30 18787 N 1746.74 4.97249 -4.95669 0
M  V30 18788 H 1751.58 1.05254 -2.78793 0
M  V30 18789 H 1749.11 0.508532 -1.3803 0
M  V30 18790 H 1751.07 3.48329 -2.29614 0
M  V30 18791 H 1749.7 2.96328 -1.28021 0
M  V30 18792 H 1748.75 1.7532 -3.3759 0
M  V30 18793 H 1750.07 2.49137 -4.32125 0
M  V30 18794 H 1749.22 4.77495 -3.74277 0
M  V30 18795 H 1747.96 4.06384 -2.69635 0
M  V30 18796 H 1746.96 2.88774 -4.67857 0
M  V30 18797 H 1748.19 3.63022 -5.73927 0
M  V30 18798 H 1746.13 5.13858 -4.07781 0
M  V30 18799 H 1746.05 4.86444 -5.78712 0
M  V30 18800 H 1747.32 5.86132 -5.13877 0
M  V30 18801 N 1751.55 1.48103 0.538828 0
M  V30 18802 C 1752.8 1.55669 1.29512 0
M  V30 18803 C 1753.12 0.22678 1.93173 0
M  V30 18804 O 1752.38 -0.78212 1.79392 0
M  V30 18805 C 1752.68 2.63703 2.41237 0
M  V30 18806 C 1752.34 4.06416 1.95287 0
M  V30 18807 C 1751.01 4.45261 1.82472 0
M  V30 18808 C 1753.36 4.95888 1.60452 0
M  V30 18809 C 1750.69 5.71392 1.33145 0
M  V30 18810 C 1753.04 6.225 1.12591 0
M  V30 18811 C 1751.7 6.60209 0.983861 0
M  V30 18812 H 1750.97 0.569633 0.473919 0
M  V30 18813 H 1753.62 1.81783 0.602275 0
M  V30 18814 H 1751.92 2.31416 3.16155 0
M  V30 18815 H 1753.62 2.66775 2.99386 0
M  V30 18816 H 1750.21 3.75734 2.06209 0
M  V30 18817 H 1754.39 4.66561 1.69217 0
M  V30 18818 H 1749.65 5.99342 1.20828 0
M  V30 18819 H 1753.82 6.91229 0.847045 0
M  V30 18820 H 1751.45 7.57833 0.599433 0
M  V30 18821 N 1753.03 -0.787016 1.36542 0
M  V30 18822 C 1754.26 -1.5736 1.33871 0
M  V30 18823 C 1754.66 -1.89024 -0.0814846 0
M  V30 18824 O 1754.01 -1.50771 -1.04947 0
M  V30 18825 C 1754.07 -2.91978 2.09735 0
M  V30 18826 C 1753.73 -2.8303 3.58808 0
M  V30 18827 C 1754.73 -2.55108 4.53008 0
M  V30 18828 C 1752.42 -3.01531 4.01727 0
M  V30 18829 C 1754.41 -2.45793 5.88103 0
M  V30 18830 C 1752.1 -2.91838 5.36911 0
M  V30 18831 C 1753.09 -2.64007 6.29912 0
M  V30 18832 O 1752.78 -2.54312 7.62614 0
M  V30 18833 H 1752.51 -0.494659 0.460748 0
M  V30 18834 H 1755.07 -0.984519 1.80268 0
M  V30 18835 H 1753.3 -3.52946 1.58005 0
M  V30 18836 H 1754.99 -3.53268 1.99891 0
M  V30 18837 H 1755.75 -2.40514 4.21163 0
M  V30 18838 H 1751.63 -3.22199 3.2971 0
M  V30 18839 H 1755.18 -2.23991 6.60662 0
M  V30 18840 H 1751.07 -3.05995 5.68364 0
M  V30 18841 H 1751.84 -2.69776 7.72763 0
M  V30 18842 N 1754.5 -1.20861 -1.01145 0
M  V30 18843 C 1755.73 -1.04617 -1.78154 0
M  V30 18844 C 1756.14 0.407396 -1.84762 0
M  V30 18845 O 1755.49 1.29457 -1.30333 0
M  V30 18846 C 1755.55 -1.56038 -3.23871 0
M  V30 18847 C 1755.21 -3.0441 -3.40857 0
M  V30 18848 C 1756.21 -4.02021 -3.29659 0
M  V30 18849 C 1753.89 -3.43479 -3.66507 0
M  V30 18850 C 1755.89 -5.36689 -3.43866 0
M  V30 18851 C 1753.57 -4.78301 -3.80356 0
M  V30 18852 C 1754.57 -5.74715 -3.69041 0
M  V30 18853 O 1754.26 -7.07093 -3.82459 0
M  V30 18854 H 1753.99 -0.368185 -0.566935 0
M  V30 18855 H 1756.55 -1.60508 -1.28165 0
M  V30 18856 H 1754.78 -0.945373 -3.74966 0
M  V30 18857 H 1756.47 -1.35735 -3.82532 0
M  V30 18858 H 1757.23 -3.73182 -3.09775 0
M  V30 18859 H 1753.11 -2.68972 -3.74399 0
M  V30 18860 H 1756.65 -6.11927 -3.3495 0
M  V30 18861 H 1752.55 -5.06829 -3.99743 0
M  V30 18862 H 1753.32 -7.14413 -3.99445 0
M  V30 18863 N 1755.98 1.20536 -1.01532 0
M  V30 18864 C 1757.22 1.91582 -0.712451 0
M  V30 18865 C 1757.59 1.76995 0.744089 0
M  V30 18866 O 1758.79 2.4251 1.15942 0
M  V30 18867 C 1757.06 3.38914 -1.13454 0
M  V30 18868 S 1758.62 4.28316 -0.953443 0
M  V30 18869 H 1755.44 0.661843 -0.259779 0
M  V30 18870 H 1758.04 1.45808 -1.30232 0
M  V30 18871 H 1756.74 3.47051 -2.19052 0
M  V30 18872 H 1756.27 3.89712 -0.537396 0
M  V30 18873 H 1758.29 4.95992 0.143722 0
M  V30 18874 N 1757.46 0.791395 1.36289 0
M  V30 18875 C 1758.71 0.361277 1.98438 0
M  V30 18876 C 1759.02 -1.07343 1.63514 0
M  V30 18877 O 1760.23 -1.60591 2.18913 0
M  V30 18878 C 1758.68 0.595005 3.54947 0
M  V30 18879 C 1758.29 2.04125 3.98794 0
M  V30 18880 C 1760.04 0.22949 4.23879 0
M  V30 18881 C 1757.94 2.22154 5.48089 0
M  V30 18882 H 1756.87 0.131343 0.742472 0
M  V30 18883 H 1759.52 0.973308 1.5556 0
M  V30 18884 H 1757.91 -0.0867658 3.95905 0
M  V30 18885 H 1759.08 2.75959 3.6903 0
M  V30 18886 H 1757.4 2.3652 3.42706 0
M  V30 18887 H 1759.99 0.342442 5.33602 0
M  V30 18888 H 1760.34 -0.822622 4.08091 0
M  V30 18889 H 1760.87 0.864575 3.88291 0
M  V30 18890 H 1757.61 3.25755 5.68827 0
M  V30 18891 H 1757.13 1.54827 5.79473 0
M  V30 18892 H 1758.81 2.02964 6.14341 0
M  V30 18893 N 1758.94 -1.47929 0.54358 0
M  V30 18894 C 1759.89 -2.3151 -0.224935 0
M  V30 18895 C 1760.88 -1.4208 -0.922473 0
M  V30 18896 O 1762.09 -1.58917 -0.845309 0
M  V30 18897 H 1758.46 -0.746424 -0.0914091 0
M  V30 18898 H 1760.43 -2.94192 0.499381 0
M  V30 18899 C 1759.18 -3.24439 -1.25038 0
M  V30 18900 H 1758.51 -3.93207 -0.723059 0
M  V30 18901 H 1759.95 -3.8578 -1.75927 0
M  V30 18902 C 1758.4 -2.46998 -2.29115 0
M  V30 18903 O 1758.93 -2.20457 -3.358 0
M  V30 18904 N 1757.14 -2.08249 -2.02684 0
M  V30 18905 H 1756.69 -2.30034 -1.15941 0
M  V30 18906 H 1756.65 -1.56748 -2.72539 0
M  V30 18907 N 1760.42 -0.27936 -1.55104 0
M  V30 18908 C 1761.65 0.339429 -2.04097 0
M  V30 18909 C 1762.06 1.49151 -1.15756 0
M  V30 18910 O 1761.42 1.81624 -0.178558 0
M  V30 18911 C 1761.47 0.816392 -3.52161 0
M  V30 18912 O 1761.19 -0.289812 -4.3714 0
M  V30 18913 C 1762.69 1.50256 -4.17059 0
M  V30 18914 H 1759.91 0.0768615 -0.666583 0
M  V30 18915 H 1762.45 -0.412691 -2.00293 0
M  V30 18916 H 1760.61 1.51859 -3.56395 0
M  V30 18917 H 1761.02 0.0776213 -5.24443 0
M  V30 18918 H 1762.5 1.78767 -5.22251 0
M  V30 18919 H 1762.97 2.4355 -3.65486 0
M  V30 18920 H 1763.58 0.844106 -4.16839 0
M  V30 18921 N 1761.9 1.57599 -0.0067085 0
M  V30 18922 C 1763.12 1.95142 0.687533 0
M  V30 18923 C 1763.54 0.88196 1.66934 0
M  V30 18924 O 1762.9 -0.13847 1.81974 0
M  V30 18925 C 1762.95 3.32718 1.41355 0
M  V30 18926 O 1762.67 4.3556 0.471111 0
M  V30 18927 C 1764.17 3.84761 2.20168 0
M  V30 18928 H 1761.39 0.643222 0.191066 0
M  V30 18929 H 1763.93 2.04412 -0.0598214 0
M  V30 18930 H 1762.09 3.24735 2.11248 0
M  V30 18931 H 1762.5 5.15185 0.984091 0
M  V30 18932 H 1763.98 4.83432 2.66454 0
M  V30 18933 H 1764.45 3.1782 3.03129 0
M  V30 18934 H 1765.06 3.9594 1.55278 0
M  V30 18935 N 1763.37 -0.266145 1.55336 0
M  V30 18936 C 1764.6 -1.01489 1.80299 0
M  V30 18937 C 1765.02 -1.79679 0.579742 0
M  V30 18938 O 1764.37 -1.76831 -0.451319 0
M  V30 18939 C 1764.42 -1.96805 3.03233 0
M  V30 18940 O 1764.15 -1.21782 4.20834 0
M  V30 18941 C 1765.65 -2.83436 3.40851 0
M  V30 18942 H 1762.87 -0.299504 0.600449 0
M  V30 18943 H 1765.41 -0.294854 2.02363 0
M  V30 18944 H 1763.57 -2.64262 2.83275 0
M  V30 18945 H 1763.98 -1.86086 4.9038 0
M  V30 18946 H 1765.45 -3.461 4.30022 0
M  V30 18947 H 1765.93 -3.53559 2.60562 0
M  V30 18948 H 1766.54 -2.2146 3.63092 0
M  V30 18949 N 1764.85 -1.48386 -0.530967 0
M  V30 18950 C 1766.08 -1.60269 -1.31638 0
M  V30 18951 C 1766.5 -0.262789 -1.86255 0
M  V30 18952 O 1765.86 0.765389 -1.64352 0
M  V30 18953 C 1765.91 -2.65163 -2.44379 0
M  V30 18954 O 1765.01 -2.22254 -3.47386 0
M  V30 18955 H 1764.35 -0.537456 -0.38992 0
M  V30 18956 H 1766.88 -1.94366 -0.639 0
M  V30 18957 H 1766.89 -2.86405 -2.90579 0
M  V30 18958 H 1765.57 -3.62439 -2.03987 0
M  V30 18959 H 1764.14 -2.11221 -3.07311 0
M  V30 18960 N 1766.33 0.779763 -1.36958 0
M  V30 18961 C 1767.24 1.92394 -1.34245 0
M  V30 18962 C 1768.26 1.72292 -0.243187 0
M  V30 18963 O 1769.43 1.95665 -0.477211 0
M  V30 18964 C 1766.5 3.27402 -1.14057 0
M  V30 18965 C 1765.56 3.60213 -2.33548 0
M  V30 18966 C 1764.79 4.88779 -2.14314 0
M  V30 18967 O 1765.01 5.59231 -1.12327 0
M  V30 18968 O 1763.95 5.20469 -3.02316 0
M  V30 18969 H 1767.77 1.97633 -2.30596 0
M  V30 18970 H 1765.36 0.921386 -1.17605 0
M  V30 18971 H 1767.24 4.08172 -1.04755 0
M  V30 18972 H 1765.92 3.23033 -0.207744 0
M  V30 18973 H 1764.82 2.7971 -2.48421 0
M  V30 18974 H 1766.16 3.69317 -3.25371 0
M  V30 18975 N 1767.81 1.21396 1.00503 0
M  V30 18976 C 1769.22 0.971304 1.26641 0
M  V30 18977 C 1769.42 -0.342336 1.98571 0
M  V30 18978 O 1768.48 -1.068 2.28801 0
M  V30 18979 C 1769.79 2.16186 2.09008 0
M  V30 18980 C 1771.34 2.20411 2.22234 0
M  V30 18981 C 1771.82 3.38984 3.07983 0
M  V30 18982 N 1773.31 3.3907 3.15572 0
M  V30 18983 C 1774.04 4.27467 3.82177 0
M  V30 18984 N 1773.54 5.26062 4.50811 0
M  V30 18985 N 1775.33 4.15276 3.78817 0
M  V30 18986 H 1767.48 2.05875 0.522436 0
M  V30 18987 H 1769.74 0.901496 0.293272 0
M  V30 18988 H 1769.45 3.11383 1.63504 0
M  V30 18989 H 1769.32 2.15243 3.09758 0
M  V30 18990 H 1771.71 1.25769 2.66957 0
M  V30 18991 H 1771.79 2.25397 1.20954 0
M  V30 18992 H 1771.44 4.33919 2.63964 0
M  V30 18993 H 1771.37 3.31236 4.09378 0
M  V30 18994 H 1773.86 2.67718 2.66713 0
M  V30 18995 H 1774.17 5.89815 4.99338 0
M  V30 18996 H 1772.52 5.29987 4.49599 0
M  V30 18997 H 1775.71 3.37511 3.24351 0
M  V30 18998 H 1775.88 4.84375 4.30448 0
M  V30 18999 N 1769.29 -1.19996 1.0217 0
M  V30 19000 C 1770.53 -1.89495 0.713989 0
M  V30 19001 C 1770.86 -1.79172 -0.756819 0
M  V30 19002 O 1770.12 -1.17362 -1.56603 0
M  V30 19003 C 1770.41 -3.39999 1.10162 0
M  V30 19004 C 1770.08 -3.70524 2.5695 0
M  V30 19005 C 1768.74 -3.78565 2.97056 0
M  V30 19006 C 1771.09 -3.8442 3.51952 0
M  V30 19007 C 1768.42 -3.97965 4.31092 0
M  V30 19008 C 1770.77 -4.05332 4.85684 0
M  V30 19009 C 1769.44 -4.11604 5.25489 0
M  V30 19010 H 1768.71 -0.693412 0.261267 0
M  V30 19011 H 1771.36 -1.42146 1.28323 0
M  V30 19012 H 1769.66 -3.89197 0.45088 0
M  V30 19013 H 1771.36 -3.92078 0.841158 0
M  V30 19014 H 1767.95 -3.64868 2.24876 0
M  V30 19015 H 1772.13 -3.77558 3.22123 0
M  V30 19016 H 1767.39 -4.01058 4.61479 0
M  V30 19017 H 1771.56 -4.15027 5.59219 0
M  V30 19018 H 1769.19 -4.26389 6.29362 0
M  V30 19019 N 1770.76 -0.798611 -1.35867 0
M  V30 19020 C 1772.04 -0.298858 -1.93303 0
M  V30 19021 C 1772.42 1.21038 -1.72954 0
M  V30 19022 O 1771.77 2.00617 -1.09386 0
M  V30 19023 C 1771.98 -0.701532 -3.41876 0
M  V30 19024 C 1773.33 -0.686486 -4.19014 0
M  V30 19025 O 1774.35 -0.642577 -3.50356 0
M  V30 19026 O 1773.21 -0.737653 -5.41499 0
M  V30 19027 H 1770.3 -0.0762987 -0.823473 0
M  V30 19028 H 1772.85 -0.881773 -1.44993 0
M  V30 19029 H 1771.62 -1.74204 -3.50383 0
M  V30 19030 H 1771.24 -0.092994 -3.97491 0
M  V30 19031 N 1772.24 1.47639 -0.551417 0
M  V30 19032 C 1773.49 2.01687 -0.0230887 0
M  V30 19033 C 1773.8 1.43178 1.33265 0
M  V30 19034 O 1775.01 1.88853 1.95056 0
M  V30 19035 C 1773.47 3.59899 0.00918719 0
M  V30 19036 C 1773.07 4.27398 -1.34295 0
M  V30 19037 C 1774.82 4.21718 0.485213 0
M  V30 19038 C 1772.72 5.77601 -1.2701 0
M  V30 19039 H 1771.65 0.753984 -0.00486122 0
M  V30 19040 H 1774.31 1.6969 -0.698405 0
M  V30 19041 H 1772.69 3.88832 0.75003 0
M  V30 19042 H 1773.86 4.10113 -2.10105 0
M  V30 19043 H 1772.18 3.77542 -1.75644 0
M  V30 19044 H 1774.77 5.3178 0.558025 0
M  V30 19045 H 1775.12 3.88495 1.4959 0
M  V30 19046 H 1775.65 3.97294 -0.200594 0
M  V30 19047 H 1772.39 6.15433 -2.2566 0
M  V30 19048 H 1771.91 5.97239 -0.553709 0
M  V30 19049 H 1773.59 6.39692 -0.969726 0
M  V30 19050 N 1773.72 0.287581 1.54954 0
M  V30 19051 C 1774.95 -0.331442 2.04735 0
M  V30 19052 C 1775.37 -1.47752 1.16409 0
M  V30 19053 O 1774.73 -1.80545 0.165297 0
M  V30 19054 C 1774.78 -0.778123 3.52105 0
M  V30 19055 O 1773.88 -1.88422 3.66839 0
M  V30 19056 H 1773.22 -0.0666173 0.66065 0
M  V30 19057 H 1775.75 0.425516 2.00126 0
M  V30 19058 H 1775.76 -1.07054 3.93705 0
M  V30 19059 H 1774.44 0.0603184 4.15856 0
M  V30 19060 H 1773.01 -1.59338 3.37144 0
M  V30 19061 N 1775.2 -1.57593 0.0150662 0
M  V30 19062 C 1776.11 -2.12807 -0.987437 0
M  V30 19063 C 1777.12 -1.07691 -1.3667 0
M  V30 19064 O 1778.3 -1.39674 -1.45097 0
M  V30 19065 C 1775.37 -2.63276 -2.2558 0
M  V30 19066 C 1774.43 -3.83053 -1.93827 0
M  V30 19067 C 1773.66 -4.31106 -3.14616 0
M  V30 19068 O 1773.88 -3.78405 -4.26809 0
M  V30 19069 O 1772.82 -5.23104 -2.97734 0
M  V30 19070 H 1776.64 -2.98715 -0.548015 0
M  V30 19071 H 1774.23 -1.47991 -0.20469 0
M  V30 19072 H 1776.11 -2.95869 -3.00066 0
M  V30 19073 H 1774.78 -1.80459 -2.68731 0
M  V30 19074 H 1773.69 -3.55409 -1.1677 0
M  V30 19075 H 1775.02 -4.6699 -1.55502 0
M  V30 19076 N 1776.68 0.257904 -1.55475 0
M  V30 19077 C 1777.92 0.988933 -1.77054 0
M  V30 19078 C 1778.26 1.85387 -0.578375 0
M  V30 19079 O 1777.53 1.8983 0.423673 0
M  V30 19080 C 1777.81 1.85876 -3.08419 0
M  V30 19081 C 1777.67 1.02274 -4.38018 0
M  V30 19082 C 1778.99 2.84322 -3.3593 0
M  V30 19083 H 1776.1 0.358103 -0.644152 0
M  V30 19084 H 1778.75 0.260209 -1.8821 0
M  V30 19085 H 1776.9 2.48008 -2.99039 0
M  V30 19086 H 1778.57 0.420967 -4.59375 0
M  V30 19087 H 1776.81 0.326705 -4.32568 0
M  V30 19088 H 1777.48 1.6649 -5.26294 0
M  V30 19089 H 1779.96 2.32325 -3.45202 0
M  V30 19090 H 1778.83 3.42313 -4.29084 0
M  V30 19091 H 1779.1 3.60223 -2.56304 0
M  V30 19092 N 1778.15 1.48666 0.52309 0
M  V30 19093 C 1779.1 1.64155 1.6479 0
M  V30 19094 C 1780.1 0.507838 1.61609 0
M  V30 19095 O 1781.3 0.686784 1.66383 0
M  V30 19096 H 1777.68 0.517234 0.545869 0
M  V30 19097 H 1779.65 2.58611 1.48871 0
M  V30 19098 C 1778.4 1.70488 3.03033 0
M  V30 19099 H 1777.72 2.5709 3.06178 0
M  V30 19100 H 1779.16 1.85367 3.81333 0
M  V30 19101 C 1777.62 0.444984 3.33948 0
M  V30 19102 O 1778.15 -0.439107 3.99293 0
M  V30 19103 N 1776.36 0.314593 2.88892 0
M  V30 19104 H 1775.9 1.03501 2.35893 0
M  V30 19105 H 1775.86 -0.527357 3.09946 0
M  V30 19106 N 1779.63 -0.772489 1.37369 0
M  V30 19107 C 1780.58 -1.90713 1.33158 0
M  V30 19108 C 1781.57 -1.67959 0.220482 0
M  V30 19109 O 1782.78 -1.75758 0.388465 0
M  V30 19110 H 1779.16 -0.627149 0.414956 0
M  V30 19111 H 1781.13 -1.91382 2.28944 0
M  V30 19112 C 1779.88 -3.27966 1.1547 0
M  V30 19113 H 1779.2 -3.46052 2.00221 0
M  V30 19114 H 1780.64 -4.0766 1.16574 0
M  V30 19115 C 1779.1 -3.3661 -0.139688 0
M  V30 19116 O 1779.63 -3.85668 -1.12353 0
M  V30 19117 N 1777.83 -2.89977 -0.190134 0
M  V30 19118 H 1777.38 -2.50246 0.611134 0
M  V30 19119 H 1777.34 -2.96142 -1.05582 0
M  V30 19120 N 1781.11 -1.21927 -0.998575 0
M  V30 19121 C 1782.06 -0.984283 -2.08759 0
M  V30 19122 C 1783.03 0.0920029 -1.65845 0
M  V30 19123 O 1784.21 -0.0564334 -1.90717 0
M  V30 19124 C 1781.35 -0.562006 -3.40493 0
M  V30 19125 C 1780.47 -1.70844 -3.96783 0
M  V30 19126 C 1779.6 -1.2347 -5.16651 0
M  V30 19127 C 1778.64 -2.35305 -5.65065 0
M  V30 19128 N 1777.78 -1.89018 -6.76178 0
M  V30 19129 H 1782.62 -1.91653 -2.28195 0
M  V30 19130 H 1780.15 -0.955028 -1.11882 0
M  V30 19131 H 1782.11 -0.298383 -4.16132 0
M  V30 19132 H 1780.74 0.33324 -3.21075 0
M  V30 19133 H 1779.79 -2.08653 -3.18069 0
M  V30 19134 H 1781.11 -2.54987 -4.28699 0
M  V30 19135 H 1780.26 -0.928121 -5.99559 0
M  V30 19136 H 1779 -0.363397 -4.86344 0
M  V30 19137 H 1778 -2.66758 -4.8075 0
M  V30 19138 H 1779.23 -3.22941 -5.97399 0
M  V30 19139 H 1777.17 -1.04242 -6.47665 0
M  V30 19140 H 1777.09 -2.66731 -7.07383 0
M  V30 19141 H 1778.36 -1.61413 -7.62605 0
M  V30 19142 N 1782.59 1.19452 -1.02805 0
M  V30 19143 C 1783.81 1.93616 -0.743485 0
M  V30 19144 C 1784.24 1.74934 0.691342 0
M  V30 19145 O 1783.6 1.05111 1.47721 0
M  V30 19146 C 1783.64 3.43451 -1.0988 0
M  V30 19147 O 1782.75 4.11829 -0.216978 0
M  V30 19148 H 1782.09 0.60448 -0.274771 0
M  V30 19149 H 1784.62 1.51554 -1.37451 0
M  V30 19150 H 1784.63 3.94115 -1.05535 0
M  V30 19151 H 1783.3 3.5637 -2.14413 0
M  V30 19152 H 1781.88 3.71533 -0.318954 0
M  V30 19153 N 1784.07 0.805805 1.35442 0
M  V30 19154 C 1784.98 0.217149 2.33593 0
M  V30 19155 C 1785.99 -0.639428 1.61825 0
M  V30 19156 O 1787.17 -0.551363 1.93706 0
M  V30 19157 C 1784.23 -0.625149 3.41017 0
M  V30 19158 C 1783.29 0.25183 4.28561 0
M  V30 19159 C 1782.53 -0.550363 5.30855 0
M  V30 19160 O 1782.75 -1.78511 5.41747 0
M  V30 19161 O 1781.68 0.0583487 6.01872 0
M  V30 19162 H 1785.51 1.02909 2.85733 0
M  V30 19163 H 1783.1 0.567579 1.38199 0
M  V30 19164 H 1784.98 -1.10493 4.06656 0
M  V30 19165 H 1783.65 -1.4147 2.91149 0
M  V30 19166 H 1782.56 0.77873 3.65905 0
M  V30 19167 H 1783.89 1.0053 4.81824 0
M  V30 19168 N 1785.54 -1.47344 0.559239 0
M  V30 19169 C 1786.78 -2.04364 0.0383239 0
M  V30 19170 C 1787.15 -1.42399 -1.28788 0
M  V30 19171 O 1788.35 -1.90478 -1.89661 0
M  V30 19172 C 1786.62 -3.57364 -0.0509258 0
M  V30 19173 S 1788.18 -4.35736 -0.51767 0
M  V30 19174 H 1785 -0.71052 0.0261238 0
M  V30 19175 H 1787.6 -1.80689 0.746433 0
M  V30 19176 H 1786.3 -3.99987 0.918631 0
M  V30 19177 H 1785.83 -3.85539 -0.782527 0
M  V30 19178 H 1787.85 -4.63291 -1.77697 0
M  V30 19179 N 1787.02 -0.295795 -1.54799 0
M  V30 19180 C 1787.93 0.592206 -2.27002 0
M  V30 19181 C 1788.95 1.1528 -1.30332 0
M  V30 19182 O 1790.12 1.1787 -1.63305 0
M  V30 19183 C 1787.19 1.75027 -2.99277 0
M  V30 19184 C 1786.25 1.22427 -4.11473 0
M  V30 19185 C 1785.48 2.32714 -4.80291 0
M  V30 19186 O 1785.71 3.52506 -4.48437 0
M  V30 19187 O 1784.64 1.997 -5.67806 0
M  V30 19188 H 1788.47 0.00666048 -3.03699 0
M  V30 19189 H 1786.05 -0.0624413 -1.49269 0
M  V30 19190 H 1787.93 2.42508 -3.44627 0
M  V30 19191 H 1786.61 2.32252 -2.25479 0
M  V30 19192 H 1785.52 0.515337 -3.70534 0
M  V30 19193 H 1786.85 0.697518 -4.87233 0
M  V30 19194 N 1788.5 1.57583 -0.0234236 0
M  V30 19195 C 1789.73 1.96267 0.670371 0
M  V30 19196 C 1790.15 0.899586 1.65194 0
M  V30 19197 O 1789.51 -0.140079 1.80758 0
M  V30 19198 C 1789.56 3.34049 1.35806 0
M  V30 19199 O 1788.66 3.3001 2.4732 0
M  V30 19200 H 1788 0.640097 0.176557 0
M  V30 19201 H 1790.53 2.04429 -0.0835829 0
M  V30 19202 H 1790.54 3.70151 1.71616 0
M  V30 19203 H 1789.22 4.10969 0.63852 0
M  V30 19204 H 1787.79 3.05618 2.13664 0
M  V30 19205 N 1789.98 -0.249655 1.5561 0
M  V30 19206 C 1790.91 -1.31281 1.931 0
M  V30 19207 C 1791.89 -1.50347 0.795601 0
M  V30 19208 O 1793.08 -1.63001 1.05566 0
M  V30 19209 C 1790.21 -2.66808 2.2233 0
M  V30 19210 C 1789.16 -2.62441 3.38096 0
M  V30 19211 C 1788.49 -4.01738 3.52861 0
M  V30 19212 C 1789.79 -2.19667 4.7386 0
M  V30 19213 H 1791.48 -1.00151 2.82153 0
M  V30 19214 H 1789.03 -0.480331 1.35753 0
M  V30 19215 H 1790.98 -3.41316 2.47146 0
M  V30 19216 H 1789.7 -2.99569 1.30101 0
M  V30 19217 H 1788.36 -1.90391 3.13284 0
M  V30 19218 H 1788.01 -4.31759 2.58056 0
M  V30 19219 H 1787.71 -3.99705 4.30708 0
M  V30 19220 H 1789.23 -4.7795 3.79995 0
M  V30 19221 H 1790.65 -2.83906 4.98067 0
M  V30 19222 H 1789.04 -2.28751 5.54791 0
M  V30 19223 H 1790.11 -1.14829 4.71108 0
M  V30 19224 N 1791.46 -1.48941 -0.515198 0
M  V30 19225 C 1792.39 -1.59148 -1.63545 0
M  V30 19226 C 1793.37 -0.441179 -1.565 0
M  V30 19227 O 1794.55 -0.654805 -1.76761 0
M  V30 19228 C 1791.68 -1.53324 -3.02009 0
M  V30 19229 C 1790.73 -2.73377 -3.27364 0
M  V30 19230 S 1791.56 -4.35201 -3.12026 0
M  V30 19231 C 1792.71 -4.31999 -4.5291 0
M  V30 19232 H 1792.95 -2.53917 -1.5464 0
M  V30 19233 H 1790.48 -1.37656 -0.69929 0
M  V30 19234 H 1792.44 -1.5065 -3.81857 0
M  V30 19235 H 1791.1 -0.598671 -3.08342 0
M  V30 19236 H 1790.29 -2.65482 -4.2841 0
M  V30 19237 H 1789.89 -2.7339 -2.55213 0
M  V30 19238 H 1792.19 -4.02844 -5.44723 0
M  V30 19239 H 1793.13 -5.33275 -4.65858 0
M  V30 19240 H 1793.54 -3.62265 -4.32925 0
M  V30 19241 N 1792.94 0.765193 -1.37777 0
M  V30 19242 C 1793.89 1.86902 -1.30582 0
M  V30 19243 C 1794.87 1.59746 -0.192343 0
M  V30 19244 O 1796.06 1.71764 -0.427313 0
M  V30 19245 C 1793.19 3.2446 -1.12162 0
M  V30 19246 C 1792.28 3.57546 -2.28082 0
M  V30 19247 N 1792.67 3.61769 -3.53493 0
M  V30 19248 C 1790.97 3.87748 -2.2038 0
M  V30 19249 C 1791.67 3.9179 -4.29972 0
M  V30 19250 N 1790.64 4.08025 -3.59188 0
M  V30 19251 H 1794.44 1.88428 -2.25549 0
M  V30 19252 H 1791.96 0.96197 -1.30843 0
M  V30 19253 H 1793.96 4.03437 -1.05092 0
M  V30 19254 H 1792.62 3.24194 -0.181181 0
M  V30 19255 H 1793.63 3.43813 -3.87315 0
M  V30 19256 H 1790.3 3.95266 -1.3443 0
M  V30 19257 H 1791.69 4.01777 -5.3854 0
M  V30 19258 N 1794.41 1.22455 0.992094 0
M  V30 19259 C 1795.64 1.07594 1.76723 0
M  V30 19260 C 1796.06 -0.37345 1.8507 0
M  V30 19261 O 1795.41 -1.25876 1.32142 0
M  V30 19262 C 1795.46 1.68178 3.19998 0
M  V30 19263 O 1795.19 3.07447 3.12102 0
M  V30 19264 C 1796.69 1.58602 4.13957 0
M  V30 19265 H 1793.91 0.377148 0.554978 0
M  V30 19266 H 1796.45 1.62065 1.24721 0
M  V30 19267 H 1794.61 1.17768 3.69066 0
M  V30 19268 H 1795.02 3.36641 4.0221 0
M  V30 19269 H 1796.49 2.05714 5.12236 0
M  V30 19270 H 1796.97 0.542712 4.35834 0
M  V30 19271 H 1797.58 2.08321 3.70786 0
M  V30 19272 N 1795.89 -1.18905 1.03437 0
M  V30 19273 C 1797.14 -1.88354 0.732598 0
M  V30 19274 C 1797.46 -1.80353 -0.741474 0
M  V30 19275 O 1796.73 -1.21764 -1.53461 0
M  V30 19276 H 1795.31 -0.697272 0.267995 0
M  V30 19277 H 1797.97 -1.44329 1.30978 0
M  V30 19278 H 1797.07 -2.94551 1.03181 0
M  V30 19279 N 1797.37 -0.812977 -1.35013 0
M  V30 19280 C 1798.3 -0.185443 -2.28449 0
M  V30 19281 C 1799.31 0.618951 -1.50575 0
M  V30 19282 O 1800.5 0.450262 -1.72728 0
M  V30 19283 C 1797.6 0.759419 -3.30282 0
M  V30 19284 C 1796.78 1.09356e-05 -4.374 0
M  V30 19285 C 1795.84 0.864309 -5.19053 0
M  V30 19286 O 1794.86 0.312916 -5.68339 0
M  V30 19287 N 1796.06 2.18551 -5.37788 0
M  V30 19288 H 1798.83 -0.988144 -2.82941 0
M  V30 19289 H 1796.39 -0.669018 -1.47431 0
M  V30 19290 H 1798.38 1.342 -3.81802 0
M  V30 19291 H 1796.95 1.4629 -2.76257 0
M  V30 19292 H 1796.17 -0.763818 -3.86729 0
M  V30 19293 H 1797.46 -0.523125 -5.06104 0
M  V30 19294 H 1796.86 2.65735 -4.99401 0
M  V30 19295 H 1795.41 2.71718 -5.92463 0
M  V30 19296 N 1798.85 1.47045 -0.567045 0
M  V30 19297 C 1800.09 2.02746 -0.046749 0
M  V30 19298 C 1800.43 1.4394 1.30364 0
M  V30 19299 O 1799.7 0.598616 1.85059 0
M  V30 19300 C 1799.98 3.60082 0.0358156 0
M  V30 19301 C 1799.84 4.29302 -1.34237 0
M  V30 19302 C 1801.16 4.3376 0.744338 0
M  V30 19303 H 1798.28 0.736769 -0.0184627 0
M  V30 19304 H 1800.92 1.75365 -0.73123 0
M  V30 19305 H 1799.07 3.83541 0.618745 0
M  V30 19306 H 1800.74 4.17155 -1.96926 0
M  V30 19307 H 1798.98 3.89273 -1.91439 0
M  V30 19308 H 1799.65 5.37956 -1.23722 0
M  V30 19309 H 1802.13 4.15353 0.249287 0
M  V30 19310 H 1801.01 5.43457 0.771095 0
M  V30 19311 H 1801.27 4.03686 1.80249 0
M  V30 19312 N 1800.33 0.304 1.5464 0
M  V30 19313 C 1801.74 -0.0492924 1.59524 0
M  V30 19314 C 1801.94 -1.52164 1.32093 0
M  V30 19315 O 1801 -2.27483 1.0958 0
M  V30 19316 C 1802.31 0.351346 2.9864 0
M  V30 19317 C 1803.86 0.300362 3.11555 0
M  V30 19318 C 1804.33 0.675867 4.52986 0
M  V30 19319 N 1805.82 0.628517 4.58916 0
M  V30 19320 C 1806.56 0.891504 5.66427 0
M  V30 19321 N 1806.06 1.22061 6.81962 0
M  V30 19322 N 1807.85 0.818366 5.56111 0
M  V30 19323 H 1800 1.26351 1.70731 0
M  V30 19324 H 1802.26 0.512457 0.797554 0
M  V30 19325 H 1801.97 1.37642 3.23647 0
M  V30 19326 H 1801.84 -0.293504 3.76056 0
M  V30 19327 H 1804.23 -0.715468 2.86295 0
M  V30 19328 H 1804.31 0.979876 2.36288 0
M  V30 19329 H 1803.95 1.68952 4.78976 0
M  V30 19330 H 1803.88 -0.0257498 5.26594 0
M  V30 19331 H 1806.38 0.385204 3.75932 0
M  V30 19332 H 1806.69 1.40718 7.5988 0
M  V30 19333 H 1805.03 1.25868 6.83507 0
M  V30 19334 H 1808.22 0.560885 4.64728 0
M  V30 19335 H 1808.4 1.02669 6.39815 0
M  V30 19336 N 1801.8 -1.57568 0.0317802 0
M  V30 19337 C 1803.05 -1.93021 -0.641437 0
M  V30 19338 C 1803.4 -0.908815 -1.69583 0
M  V30 19339 O 1802.7 0.0747763 -1.91454 0
M  V30 19340 C 1802.89 -3.32976 -1.29852 0
M  V30 19341 C 1802.72 -4.48635 -0.3093 0
M  V30 19342 C 1801.49 -5.05217 0.0917902 0
M  V30 19343 C 1803.69 -5.12436 0.437482 0
M  V30 19344 N 1801.67 -6.04399 1.0759 0
M  V30 19345 C 1803.04 -6.06743 1.27526 0
M  V30 19346 C 1805.1 -4.95404 0.497895 0
M  V30 19347 C 1803.8 -6.8585 2.16801 0
M  V30 19348 C 1805.83 -5.75122 1.37799 0
M  V30 19349 C 1805.19 -6.69047 2.20354 0
M  V30 19350 H 1801.29 -0.754119 -0.206951 0
M  V30 19351 H 1803.87 -1.94445 0.0995777 0
M  V30 19352 H 1802.04 -3.32366 -2.00966 0
M  V30 19353 H 1803.77 -3.5577 -1.92898 0
M  V30 19354 H 1800.53 -4.72752 -0.283202 0
M  V30 19355 H 1800.95 -6.5868 1.56427 0
M  V30 19356 H 1805.59 -4.22612 -0.126117 0
M  V30 19357 H 1803.31 -7.57946 2.80256 0
M  V30 19358 H 1806.9 -5.63976 1.42906 0
M  V30 19359 H 1805.78 -7.29656 2.87352 0
M  V30 19360 N 1803.28 0.241399 -1.5574 0
M  V30 19361 C 1804.21 1.30255 -1.93793 0
M  V30 19362 C 1805.19 1.49923 -0.803563 0
M  V30 19363 O 1806.38 1.62439 -1.06429 0
M  V30 19364 C 1803.51 2.65625 -2.23742 0
M  V30 19365 C 1802.46 2.60645 -3.39483 0
M  V30 19366 C 1801.79 3.99861 -3.54986 0
M  V30 19367 C 1803.09 2.17151 -4.75019 0
M  V30 19368 H 1804.78 0.986532 -2.8268 0
M  V30 19369 H 1802.33 0.473125 -1.36006 0
M  V30 19370 H 1804.28 3.40001 -2.48953 0
M  V30 19371 H 1803.01 2.98874 -1.31688 0
M  V30 19372 H 1801.66 1.88727 -3.14289 0
M  V30 19373 H 1801.31 4.30385 -2.60342 0
M  V30 19374 H 1801.01 3.97415 -4.32822 0
M  V30 19375 H 1802.54 4.75928 -3.82524 0
M  V30 19376 H 1803.95 2.8126 -4.99565 0
M  V30 19377 H 1802.35 2.25805 -5.55996 0
M  V30 19378 H 1803.42 1.12329 -4.7171 0
M  V30 19379 N 1804.76 1.49212 0.507292 0
M  V30 19380 C 1805.71 1.65894 1.6304 0
M  V30 19381 C 1806.7 0.524951 1.61061 0
M  V30 19382 O 1807.91 0.704392 1.65645 0
M  V30 19383 H 1804.28 0.522994 0.540353 0
M  V30 19384 H 1806.25 2.60176 1.4612 0
M  V30 19385 C 1805 1.73692 3.01208 0
M  V30 19386 H 1804.33 2.60323 3.03434 0
M  V30 19387 H 1805.77 1.89402 3.79346 0
M  V30 19388 C 1804.23 0.480378 3.33458 0
M  V30 19389 O 1804.76 -0.396732 3.99736 0
M  V30 19390 N 1802.96 0.345216 2.88542 0
M  V30 19391 H 1802.51 1.05997 2.34782 0
M  V30 19392 H 1802.47 -0.494453 3.10488 0
M  V30 19393 N 1806.24 -0.757876 1.38181 0
M  V30 19394 C 1807.48 -1.51912 1.34352 0
M  V30 19395 C 1807.82 -1.94082 -0.0677003 0
M  V30 19396 O 1807.09 -1.65114 -1.02799 0
M  V30 19397 C 1807.38 -2.77466 2.29531 0
M  V30 19398 C 1807.23 -2.41462 3.79495 0
M  V30 19399 C 1808.55 -3.79469 2.22915 0
M  V30 19400 H 1805.67 -0.551091 0.489355 0
M  V30 19401 H 1808.31 -0.868376 1.68995 0
M  V30 19402 H 1806.46 -3.32994 2.00119 0
M  V30 19403 H 1808.13 -1.91742 4.19562 0
M  V30 19404 H 1806.37 -1.73976 3.97385 0
M  V30 19405 H 1807.04 -3.31272 4.41546 0
M  V30 19406 H 1809.52 -3.33471 2.48871 0
M  V30 19407 H 1808.4 -4.6502 2.91629 0
M  V30 19408 H 1808.66 -4.24744 1.22658 0
M  V30 19409 N 1807.72 -1.22979 -0.985586 0
M  V30 19410 C 1808.66 -1.00637 -2.07704 0
M  V30 19411 C 1809.63 0.0744076 -1.65933 0
M  V30 19412 O 1810.82 -0.0766583 -1.90646 0
M  V30 19413 C 1807.96 -0.598088 -3.39878 0
M  V30 19414 C 1807.07 -1.75043 -3.94948 0
M  V30 19415 C 1806.21 -1.28943 -5.15313 0
M  V30 19416 C 1805.25 -2.41285 -5.62537 0
M  V30 19417 N 1804.38 -1.9618 -6.74135 0
M  V30 19418 H 1809.22 -1.94063 -2.26149 0
M  V30 19419 H 1806.76 -0.966841 -1.10863 0
M  V30 19420 H 1808.72 -0.342503 -4.15792 0
M  V30 19421 H 1807.35 0.299167 -3.21411 0
M  V30 19422 H 1806.4 -2.12015 -3.15838 0
M  V30 19423 H 1807.71 -2.5952 -4.25971 0
M  V30 19424 H 1806.87 -0.99166 -5.98541 0
M  V30 19425 H 1805.6 -0.41496 -4.85931 0
M  V30 19426 H 1804.61 -2.71842 -4.77893 0
M  V30 19427 H 1805.83 -3.2926 -5.9394 0
M  V30 19428 H 1803.78 -1.11105 -6.46523 0
M  V30 19429 H 1803.7 -2.74219 -7.04514 0
M  V30 19430 H 1804.97 -1.69492 -7.6085 0
M  V30 19431 N 1809.19 1.18355 -1.04066 0
M  V30 19432 C 1810.44 1.88614 -0.745148 0
M  V30 19433 C 1810.77 1.80147 0.725294 0
M  V30 19434 O 1810.05 1.20177 1.5293 0
M  V30 19435 C 1810.33 3.39095 -1.2119 0
M  V30 19436 C 1810.18 3.56372 -2.74444 0
M  V30 19437 C 1811.5 4.32732 -0.801953 0
M  V30 19438 H 1808.62 0.684905 -0.272166 0
M  V30 19439 H 1811.26 1.39248 -1.29267 0
M  V30 19440 H 1809.41 3.81269 -0.746091 0
M  V30 19441 H 1811.09 3.2329 -3.29061 0
M  V30 19442 H 1809.33 2.99028 -3.14269 0
M  V30 19443 H 1810 4.61956 -3.0216 0
M  V30 19444 H 1812.48 3.98337 -1.20278 0
M  V30 19445 H 1811.35 5.36583 -1.15628 0
M  V30 19446 H 1811.61 4.41115 0.294907 0
M  V30 19447 N 1810.67 0.820125 1.3458 0
M  V30 19448 C 1811.62 0.22828 2.31477 0
M  V30 19449 C 1812.61 -0.629439 1.57272 0
M  V30 19450 O 1813.82 -0.521091 1.72292 0
M  V30 19451 H 1810.2 0.0550728 0.749981 0
M  V30 19452 H 1812.17 1.0604 2.78923 0
M  V30 19453 C 1810.92 -0.597495 3.42528 0
M  V30 19454 H 1810.24 0.0531749 3.99765 0
M  V30 19455 H 1811.68 -0.977765 4.12572 0
M  V30 19456 C 1810.14 -1.76868 2.86739 0
M  V30 19457 O 1810.67 -2.86674 2.81391 0
M  V30 19458 N 1808.87 -1.58453 2.436 0
M  V30 19459 H 1808.42 -0.691318 2.4815 0
M  V30 19460 H 1808.38 -2.36969 2.06624 0
M  V30 19461 N 1812.15 -1.46743 0.574835 0
M  V30 19462 C 1813.38 -2.06505 0.0627081 0
M  V30 19463 C 1813.79 -1.42535 -1.2442 0
M  V30 19464 O 1813.13 -0.522043 -1.76126 0
M  V30 19465 C 1813.19 -3.59021 -0.185574 0
M  V30 19466 C 1812.86 -4.45136 1.03455 0
M  V30 19467 C 1813.85 -4.82163 1.94461 0
M  V30 19468 C 1811.54 -4.8639 1.25418 0
M  V30 19469 C 1813.53 -5.59262 3.05786 0
M  V30 19470 C 1811.22 -5.63251 2.37049 0
M  V30 19471 C 1812.22 -5.99599 3.27062 0
M  V30 19472 O 1811.91 -6.74908 4.36755 0
M  V30 19473 H 1811.64 -0.674082 0.0508932 0
M  V30 19474 H 1814.19 -1.89476 0.792968 0
M  V30 19475 H 1812.42 -3.74327 -0.970354 0
M  V30 19476 H 1814.11 -4.00739 -0.645242 0
M  V30 19477 H 1814.88 -4.50876 1.78705 0
M  V30 19478 H 1810.76 -4.57553 0.56266 0
M  V30 19479 H 1814.3 -5.87552 3.7607 0
M  V30 19480 H 1810.2 -5.93951 2.5277 0
M  V30 19481 H 1810.97 -6.93323 4.35024 0
M  V30 19482 N 1813.63 -0.312197 -1.54477 0
M  V30 19483 C 1814.91 0.347462 -1.92489 0
M  V30 19484 C 1815.29 1.70797 -1.24063 0
M  V30 19485 O 1814.63 2.25313 -0.380296 0
M  V30 19486 C 1814.84 0.450992 -3.46074 0
M  V30 19487 C 1816.19 0.716618 -4.18509 0
M  V30 19488 O 1817.22 0.534364 -3.52169 0
M  V30 19489 O 1816.07 1.06744 -5.35974 0
M  V30 19490 H 1813.17 0.196248 -0.803378 0
M  V30 19491 H 1815.71 -0.361078 -1.65814 0
M  V30 19492 H 1814.49 -0.504982 -3.88028 0
M  V30 19493 H 1814.11 1.20756 -3.78819 0
M  V30 19494 N 1815.11 1.57549 -0.040136 0
M  V30 19495 C 1816.05 2.12048 0.955943 0
M  V30 19496 C 1817.05 1.04965 1.32962 0
M  V30 19497 O 1818.25 1.23387 1.31056 0
M  V30 19498 H 1814.63 0.677616 0.326099 0
M  V30 19499 H 1816.6 2.94658 0.471075 0
M  V30 19500 C 1815.35 2.67157 2.22537 0
M  V30 19501 H 1814.67 3.4921 1.9466 0
M  V30 19502 H 1816.11 3.08924 2.90417 0
M  V30 19503 C 1814.57 1.60413 2.96259 0
M  V30 19504 O 1815.1 1.01042 3.88785 0
M  V30 19505 N 1813.31 1.32196 2.58791 0
M  V30 19506 H 1812.85 1.80663 1.83626 0
M  V30 19507 H 1812.81 0.610023 3.08425 0
M  V30 19508 N 1816.58 -0.233136 1.55866 0
M  V30 19509 C 1817.83 -0.96064 1.78604 0
M  V30 19510 C 1818.16 -1.84444 0.607795 0
M  V30 19511 O 1817.44 -1.9048 -0.39342 0
M  V30 19512 C 1817.72 -1.80946 3.11337 0
M  V30 19513 C 1817.57 -0.952929 4.3959 0
M  V30 19514 C 1818.89 -2.78941 3.40411 0
M  V30 19515 H 1816.01 -0.347809 0.649767 0
M  V30 19516 H 1818.65 -0.230233 1.886 0
M  V30 19517 H 1816.8 -2.43219 3.02946 0
M  V30 19518 H 1818.48 -0.347831 4.59987 0
M  V30 19519 H 1816.72 -0.257846 4.33033 0
M  V30 19520 H 1817.39 -1.58096 5.28876 0
M  V30 19521 H 1819.87 -2.26804 3.48854 0
M  V30 19522 H 1818.74 -3.35443 4.34475 0
M  V30 19523 H 1819 -3.561 2.62003 0
M  V30 19524 N 1818.06 -1.49479 -0.499372 0
M  V30 19525 C 1819.31 -1.58734 -1.25092 0
M  V30 19526 C 1819.63 -0.276701 -1.93027 0
M  V30 19527 O 1818.9 0.704058 -1.82811 0
M  V30 19528 H 1817.48 -0.584857 -0.464706 0
M  V30 19529 H 1820.14 -1.86113 -0.578608 0
M  V30 19530 H 1819.24 -2.38422 -2.01399 0
M  V30 19531 N 1819.54 0.750537 -1.38581 0
M  V30 19532 C 1820.47 1.87785 -1.38777 0
M  V30 19533 C 1821.45 1.68204 -0.253244 0
M  V30 19534 O 1822.64 1.88752 -0.456779 0
M  V30 19535 C 1819.77 3.2535 -1.21511 0
M  V30 19536 C 1818.72 3.59538 -2.32199 0
M  V30 19537 C 1818.05 4.95873 -2.00036 0
M  V30 19538 C 1819.35 3.64102 -3.74469 0
M  V30 19539 H 1821.04 1.87879 -2.33113 0
M  V30 19540 H 1818.59 0.902504 -1.12209 0
M  V30 19541 H 1820.54 4.03872 -1.20272 0
M  V30 19542 H 1819.26 3.25744 -0.236366 0
M  V30 19543 H 1817.92 2.83336 -2.32629 0
M  V30 19544 H 1817.57 4.9283 -1.00638 0
M  V30 19545 H 1817.27 5.19716 -2.7417 0
M  V30 19546 H 1818.8 5.7677 -2.00421 0
M  V30 19547 H 1820.21 4.32731 -3.76054 0
M  V30 19548 H 1818.61 3.99455 -4.47834 0
M  V30 19549 H 1819.68 2.64259 -4.06565 0
M  V30 19550 N 1821.02 1.235 0.979051 0
M  V30 19551 C 1822.27 1.0658 1.71713 0
M  V30 19552 C 1822.59 -0.397927 1.90897 0
M  V30 19553 O 1821.86 -1.28511 1.47857 0
M  V30 19554 H 1820.44 0.391397 0.636253 0
M  V30 19555 H 1823.1 1.55239 1.17843 0
M  V30 19556 H 1822.2 1.5548 2.70615 0
M  V30 19557 N 1822.5 -1.17802 1.04693 0
M  V30 19558 C 1823.73 -1.91589 0.773124 0
M  V30 19559 C 1824.14 -1.76773 -0.67438 0
M  V30 19560 O 1823.48 -1.09903 -1.47197 0
M  V30 19561 C 1823.54 -3.43279 1.06771 0
M  V30 19562 C 1823.2 -3.81875 2.51038 0
M  V30 19563 C 1824.2 -3.85138 3.49235 0
M  V30 19564 C 1821.89 -4.12986 2.85915 0
M  V30 19565 C 1823.88 -4.18972 4.80356 0
M  V30 19566 C 1821.57 -4.4649 4.17241 0
M  V30 19567 C 1822.57 -4.4946 5.14271 0
M  V30 19568 O 1822.25 -4.82178 6.43242 0
M  V30 19569 H 1821.99 -0.614869 0.280912 0
M  V30 19570 H 1824.54 -1.50352 1.39941 0
M  V30 19571 H 1822.77 -3.84786 0.384316 0
M  V30 19572 H 1824.46 -3.98321 0.780714 0
M  V30 19573 H 1825.22 -3.61232 3.2363 0
M  V30 19574 H 1821.1 -4.09848 2.11058 0
M  V30 19575 H 1824.65 -4.21205 5.56087 0
M  V30 19576 H 1820.54 -4.69857 4.42611 0
M  V30 19577 H 1821.31 -5.00055 6.47987 0
M  V30 19578 N 1823.98 -0.827251 -1.34143 0
M  V30 19579 C 1824.91 -0.267015 -2.31968 0
M  V30 19580 C 1825.89 0.618906 -1.58441 0
M  V30 19581 O 1827.07 0.544882 -1.86399 0
M  V30 19582 C 1824.2 0.568379 -3.42617 0
M  V30 19583 C 1823.16 -0.220767 -4.2743 0
M  V30 19584 C 1822.48 0.737643 -5.29587 0
M  V30 19585 C 1823.78 -1.43137 -5.02304 0
M  V30 19586 H 1825.48 -1.08436 -2.79073 0
M  V30 19587 H 1823.02 -0.522879 -1.34171 0
M  V30 19588 H 1824.97 0.970525 -4.10072 0
M  V30 19589 H 1823.7 1.41882 -2.94172 0
M  V30 19590 H 1822.36 -0.604333 -3.61585 0
M  V30 19591 H 1822.01 1.58416 -4.77403 0
M  V30 19592 H 1821.71 0.213815 -5.87211 0
M  V30 19593 H 1823.23 1.13755 -5.9991 0
M  V30 19594 H 1824.64 -1.10301 -5.62589 0
M  V30 19595 H 1823.04 -1.89115 -5.69522 0
M  V30 19596 H 1824.11 -2.2073 -4.31748 0
M  V30 19597 N 1825.45 1.46436 -0.582609 0
M  V30 19598 C 1826.68 2.07275 -0.0718712 0
M  V30 19599 C 1827.1 1.42851 1.22373 0
M  V30 19600 O 1826.46 0.512272 1.73912 0
M  V30 19601 C 1826.51 3.6051 0.08055 0
M  V30 19602 O 1825.61 3.96414 1.13707 0
M  V30 19603 H 1824.95 0.661027 -0.0627607 0
M  V30 19604 H 1827.48 1.88076 -0.805524 0
M  V30 19605 H 1827.49 4.06991 0.286749 0
M  V30 19606 H 1826.17 4.06792 -0.865603 0
M  V30 19607 H 1824.75 3.61643 0.909338 0
M  V30 19608 N 1826.93 0.320385 1.54309 0
M  V30 19609 C 1827.86 -0.539789 2.27175 0
M  V30 19610 C 1828.84 -1.12198 1.2785 0
M  V30 19611 O 1830.03 -1.1477 1.56657 0
M  V30 19612 C 1827.16 -1.70236 3.02716 0
M  V30 19613 C 1826.11 -1.24962 4.09351 0
M  V30 19614 C 1825.44 -2.49888 4.72715 0
M  V30 19615 C 1826.74 -0.366788 5.21011 0
M  V30 19616 H 1828.43 0.0680079 2.99323 0
M  V30 19617 H 1825.98 0.0341488 1.4396 0
M  V30 19618 H 1827.93 -2.31037 3.5242 0
M  V30 19619 H 1826.65 -2.33669 2.2818 0
M  V30 19620 H 1825.31 -0.664556 3.60526 0
M  V30 19621 H 1824.96 -3.11679 3.94798 0
M  V30 19622 H 1824.66 -2.20288 5.44745 0
M  V30 19623 H 1826.19 -3.11458 5.25192 0
M  V30 19624 H 1827.6 -0.881001 5.6649 0
M  V30 19625 H 1826 -0.163707 5.99877 0
M  V30 19626 H 1827.07 0.603185 4.81134 0
M  V30 19627 N 1828.41 -1.57525 0.0484906 0
M  V30 19628 C 1829.34 -2.14405 -0.924811 0
M  V30 19629 C 1830.32 -1.06503 -1.32631 0
M  V30 19630 O 1831.51 -1.3443 -1.4015 0
M  V30 19631 C 1828.64 -2.68686 -2.20057 0
M  V30 19632 C 1827.59 -3.81547 -1.93922 0
M  V30 19633 C 1826.92 -4.22334 -3.27929 0
M  V30 19634 C 1828.22 -5.06801 -1.26295 0
M  V30 19635 H 1829.91 -2.95983 -0.45105 0
M  V30 19636 H 1827.46 -1.42378 -0.215514 0
M  V30 19637 H 1829.41 -3.07117 -2.88543 0
M  V30 19638 H 1828.13 -1.84296 -2.69634 0
M  V30 19639 H 1826.79 -3.43585 -1.27848 0
M  V30 19640 H 1826.44 -3.34899 -3.75302 0
M  V30 19641 H 1826.14 -4.984 -3.11242 0
M  V30 19642 H 1827.66 -4.63363 -3.97652 0
M  V30 19643 H 1829.08 -5.42695 -1.84812 0
M  V30 19644 H 1827.47 -5.87991 -1.19943 0
M  V30 19645 H 1828.54 -4.84313 -0.238605 0
M  V30 19646 N 1829.89 0.224867 -1.55988 0
M  V30 19647 C 1830.82 1.30204 -1.88626 0
M  V30 19648 C 1831.83 1.4321 -0.774248 0
M  V30 19649 O 1833.02 1.44167 -1.05253 0
M  V30 19650 C 1830.12 2.67806 -2.07685 0
M  V30 19651 C 1829.29 2.76789 -3.38684 0
M  V30 19652 C 1828.35 3.95383 -3.47216 0
M  V30 19653 O 1827.38 3.83876 -4.20271 0
M  V30 19654 N 1828.58 5.09541 -2.78116 0
M  V30 19655 H 1831.35 1.02533 -2.81615 0
M  V30 19656 H 1828.91 0.414916 -1.56493 0
M  V30 19657 H 1830.9 3.45518 -2.10712 0
M  V30 19658 H 1829.47 2.88091 -1.21336 0
M  V30 19659 H 1828.69 1.8558 -3.47784 0
M  V30 19660 H 1829.98 2.79758 -4.24986 0
M  V30 19661 H 1829.38 5.21785 -2.18535 0
M  V30 19662 H 1827.93 5.85307 -2.86808 0
M  V30 19663 N 1831.37 1.49742 0.491438 0
M  V30 19664 C 1832.61 1.59947 1.24679 0
M  V30 19665 C 1832.94 0.289598 1.92029 0
M  V30 19666 O 1832.22 -0.707544 1.81174 0
M  V30 19667 C 1832.5 2.7655 2.30634 0
M  V30 19668 C 1832.36 4.1736 1.67723 0
M  V30 19669 C 1833.67 2.88764 3.3212 0
M  V30 19670 H 1830.79 0.582173 0.451934 0
M  V30 19671 H 1833.44 1.8206 0.543517 0
M  V30 19672 H 1831.59 2.57826 2.90616 0
M  V30 19673 H 1833.26 4.47623 1.11495 0
M  V30 19674 H 1831.5 4.22562 0.981 0
M  V30 19675 H 1832.17 4.94838 2.44621 0
M  V30 19676 H 1834.65 3.05838 2.82139 0
M  V30 19677 H 1833.52 3.7201 4.03608 0
M  V30 19678 H 1833.78 1.98517 3.95023 0
M  V30 19679 N 1832.84 -0.743177 1.38977 0
M  V30 19680 C 1833.81 -1.83876 1.36829 0
M  V30 19681 C 1834.81 -1.5857 0.266875 0
M  V30 19682 O 1836 -1.66121 0.524337 0
M  V30 19683 C 1833.13 -3.21528 1.1328 0
M  V30 19684 H 1834.32 -1.87186 2.3431 0
M  V30 19685 H 1831.88 -0.945979 1.24422 0
M  V30 19686 H 1832.61 -3.23883 0.164474 0
M  V30 19687 H 1832.4 -3.41292 1.93034 0
M  V30 19688 H 1833.89 -4.01597 1.14498 0
M  V30 19689 N 1834.32 -1.24018 -0.972487 0
M  V30 19690 C 1835.55 -1.10392 -1.74989 0
M  V30 19691 C 1835.97 0.34396 -1.8564 0
M  V30 19692 O 1835.32 1.23757 -1.34128 0
M  V30 19693 C 1835.37 -1.73247 -3.17282 0
M  V30 19694 O 1835.09 -3.12374 -3.07171 0
M  V30 19695 C 1836.6 -1.65168 -4.11381 0
M  V30 19696 H 1833.82 -0.38593 -0.548907 0
M  V30 19697 H 1836.36 -1.64028 -1.22127 0
M  V30 19698 H 1834.51 -1.23625 -3.67145 0
M  V30 19699 H 1834.93 -3.42997 -3.96804 0
M  V30 19700 H 1836.4 -2.13837 -5.08898 0
M  V30 19701 H 1836.88 -0.61198 -4.34915 0
M  V30 19702 H 1837.49 -2.14194 -3.67425 0
M  V30 19703 N 1835.8 1.17245 -1.05316 0
M  V30 19704 C 1837.05 1.87536 -0.76398 0
M  V30 19705 C 1837.38 1.81115 0.709049 0
M  V30 19706 O 1836.63 1.21473 1.53437 0
M  V30 19707 C 1836.93 3.36958 -1.19138 0
M  V30 19708 C 1836.6 3.63581 -2.66683 0
M  V30 19709 C 1835.26 3.70556 -3.06988 0
M  V30 19710 C 1837.61 3.74954 -3.62021 0
M  V30 19711 C 1834.94 3.86396 -4.41492 0
M  V30 19712 C 1837.29 3.92313 -4.9626 0
M  V30 19713 C 1835.95 3.97527 -5.36217 0
M  V30 19714 H 1835.22 0.686241 -0.27956 0
M  V30 19715 H 1837.87 1.38694 -1.32047 0
M  V30 19716 H 1836.18 3.87865 -0.55391 0
M  V30 19717 H 1837.87 3.8971 -0.944815 0
M  V30 19718 H 1834.46 3.58778 -2.34471 0
M  V30 19719 H 1838.65 3.68885 -3.3202 0
M  V30 19720 H 1833.9 3.88681 -4.7195 0
M  V30 19721 H 1838.08 4.00055 -5.70026 0
M  V30 19722 H 1835.7 4.09553 -6.40445 0
M  V30 19723 N 1837.28 0.834353 1.33702 0
M  V30 19724 C 1838.23 0.26233 2.29304 0
M  V30 19725 C 1839.2 -0.619326 1.54122 0
M  V30 19726 O 1840.38 -0.558551 1.82441 0
M  V30 19727 C 1837.52 -0.560341 3.4052 0
M  V30 19728 C 1836.63 0.344832 4.30622 0
M  V30 19729 C 1835.77 -0.488505 5.28949 0
M  V30 19730 C 1834.81 0.415341 6.10689 0
M  V30 19731 N 1833.94 -0.3796 7.01073 0
M  V30 19732 H 1838.78 1.08291 2.77628 0
M  V30 19733 H 1836.32 0.545497 1.36612 0
M  V30 19734 H 1838.28 -1.05274 4.03699 0
M  V30 19735 H 1836.91 -1.34593 2.93402 0
M  V30 19736 H 1835.96 0.955519 3.68204 0
M  V30 19737 H 1837.27 1.03935 4.87851 0
M  V30 19738 H 1836.43 -1.04492 5.97634 0
M  V30 19739 H 1835.17 -1.21648 4.72285 0
M  V30 19740 H 1834.17 0.983803 5.40926 0
M  V30 19741 H 1835.4 1.1416 6.69436 0
M  V30 19742 H 1833.34 -1.09103 6.46864 0
M  V30 19743 H 1833.26 0.25629 7.55565 0
M  V30 19744 H 1834.53 -0.918394 7.74071 0
M  V30 19745 N 1838.76 -1.46125 0.590367 0
M  V30 19746 C 1840 -2.01947 0.0787256 0
M  V30 19747 C 1840.33 -1.4634 -1.28878 0
M  V30 19748 O 1839.6 -0.651011 -1.84767 0
M  V30 19749 H 1838.18 -0.746543 0.0261125 0
M  V30 19750 H 1840.84 -1.79136 0.767877 0
M  V30 19751 H 1839.93 -3.12096 0.0154914 0
M  V30 19752 N 1840.23 -0.328564 -1.54137 0
M  V30 19753 C 1841.48 0.265652 -2.01658 0
M  V30 19754 C 1841.84 1.49385 -1.21251 0
M  V30 19755 O 1841.13 1.89425 -0.28787 0
M  V30 19756 C 1841.32 0.646813 -3.51498 0
M  V30 19757 C 1841.15 -0.542899 -4.46411 0
M  V30 19758 C 1839.92 -1.04356 -4.94407 0
M  V30 19759 C 1842.12 -1.39666 -4.94972 0
M  V30 19760 N 1840.1 -2.19716 -5.73235 0
M  V30 19761 C 1841.47 -2.39737 -5.71775 0
M  V30 19762 C 1843.53 -1.42385 -4.77107 0
M  V30 19763 C 1842.23 -3.42336 -6.32613 0
M  V30 19764 C 1844.26 -2.43857 -5.38783 0
M  V30 19765 C 1843.62 -3.42654 -6.15441 0
M  V30 19766 H 1839.72 0.0609186 -0.779624 0
M  V30 19767 H 1842.3 -0.464736 -1.89072 0
M  V30 19768 H 1840.47 1.34633 -3.64319 0
M  V30 19769 H 1842.2 1.22293 -3.8578 0
M  V30 19770 H 1838.96 -0.614041 -4.69602 0
M  V30 19771 H 1839.38 -2.77919 -6.17325 0
M  V30 19772 H 1844.03 -0.673681 -4.17398 0
M  V30 19773 H 1841.74 -4.18256 -6.91439 0
M  V30 19774 H 1845.33 -2.46769 -5.26874 0
M  V30 19775 H 1844.21 -4.19886 -6.62318 0
M  V30 19776 N 1841.71 1.57497 -0.0568439 0
M  V30 19777 C 1842.65 2.07433 0.951141 0
M  V30 19778 C 1843.62 0.976083 1.30044 0
M  V30 19779 O 1844.81 1.24842 1.41233 0
M  V30 19780 C 1841.93 2.51956 2.26354 0
M  V30 19781 C 1840.98 3.73071 2.06689 0
M  V30 19782 S 1841.81 5.18463 1.34001 0
M  V30 19783 C 1842.97 5.66304 2.66552 0
M  V30 19784 H 1843.2 2.92607 0.526181 0
M  V30 19785 H 1840.74 1.53614 0.155562 0
M  V30 19786 H 1842.69 2.78269 3.01789 0
M  V30 19787 H 1841.35 1.67078 2.65977 0
M  V30 19788 H 1840.55 4.02163 3.03778 0
M  V30 19789 H 1840.15 3.47053 1.39392 0
M  V30 19790 H 1842.44 5.72236 3.62701 0
M  V30 19791 H 1843.38 6.65431 2.4209 0
M  V30 19792 H 1843.79 4.94057 2.73072 0
M  V30 19793 N 1843.19 -0.216591 1.56105 0
M  V30 19794 C 1844.47 -0.964874 1.70146 0
M  V30 19795 C 1844.85 -2.02229 0.605524 0
M  V30 19796 O 1844.2 -2.25203 -0.386742 0
M  V30 19797 C 1844.41 -1.57082 3.11651 0
M  V30 19798 C 1845.75 -2.06118 3.71215 0
M  V30 19799 O 1846.78 -1.66966 3.14644 0
M  V30 19800 O 1845.64 -2.78095 4.70452 0
M  V30 19801 H 1842.73 -0.451047 0.693171 0
M  V30 19802 H 1845.28 -0.207982 1.68421 0
M  V30 19803 H 1844.05 -0.80754 3.82877 0
M  V30 19804 H 1843.67 -2.39312 3.17515 0
M  V30 19805 N 1844.67 -1.5 -0.48349 0
M  V30 19806 C 1845.92 -1.59612 -1.23317 0
M  V30 19807 C 1846.23 -0.29614 -1.93345 0
M  V30 19808 O 1847.44 -0.271008 -2.70144 0
M  V30 19809 C 1845.89 -2.81692 -2.24003 0
M  V30 19810 C 1845.5 -4.18518 -1.59834 0
M  V30 19811 C 1847.24 -3.00643 -2.9969 0
M  V30 19812 C 1845.15 -5.31799 -2.58735 0
M  V30 19813 H 1844.08 -0.594352 -0.463963 0
M  V30 19814 H 1846.73 -1.76414 -0.505016 0
M  V30 19815 H 1845.11 -2.58422 -3.00057 0
M  V30 19816 H 1846.29 -4.51994 -0.896542 0
M  V30 19817 H 1844.6 -4.0507 -0.964743 0
M  V30 19818 H 1847.2 -3.82445 -3.73684 0
M  V30 19819 H 1847.54 -2.11883 -3.58345 0
M  V30 19820 H 1848.08 -3.24035 -2.30751 0
M  V30 19821 H 1844.82 -6.22674 -2.04836 0
M  V30 19822 H 1844.34 -5.02756 -3.27103 0
M  V30 19823 H 1846.01 -5.61861 -3.20814 0
M  V30 19824 N 1846.15 0.735796 -1.39369 0
M  V30 19825 C 1847.08 1.85854 -1.32414 0
M  V30 19826 C 1848.06 1.61391 -0.197947 0
M  V30 19827 O 1849.24 1.84666 -0.378263 0
M  V30 19828 C 1846.37 3.2182 -1.05592 0
M  V30 19829 C 1845.41 3.65144 -2.20391 0
M  V30 19830 S 1846.25 3.74604 -3.82664 0
M  V30 19831 C 1847.4 5.13361 -3.58066 0
M  V30 19832 H 1847.64 1.9147 -2.27435 0
M  V30 19833 H 1845.17 0.900577 -1.25415 0
M  V30 19834 H 1847.13 4.00332 -0.908013 0
M  V30 19835 H 1845.79 3.13861 -0.122598 0
M  V30 19836 H 1844.98 4.63813 -1.97214 0
M  V30 19837 H 1844.58 2.93835 -2.3138 0
M  V30 19838 H 1846.88 5.9967 -3.15282 0
M  V30 19839 H 1847.82 5.41566 -4.56193 0
M  V30 19840 H 1848.23 4.83 -2.92184 0
M  V30 19841 N 1847.63 1.24532 0.965897 0
M  V30 19842 C 1848.86 1.11157 1.74148 0
M  V30 19843 C 1849.26 -0.338542 1.86147 0
M  V30 19844 O 1848.61 -1.2453 1.35048 0
M  V30 19845 C 1848.67 1.67951 3.17856 0
M  V30 19846 C 1848.33 3.16851 3.29324 0
M  V30 19847 C 1849.33 4.13979 3.14512 0
M  V30 19848 C 1847.01 3.56845 3.53507 0
M  V30 19849 C 1849.01 5.49082 3.2371 0
M  V30 19850 C 1846.7 4.92089 3.62342 0
M  V30 19851 C 1847.69 5.88016 3.47456 0
M  V30 19852 O 1847.38 7.20801 3.55952 0
M  V30 19853 H 1847.11 0.388973 0.55288 0
M  V30 19854 H 1849.67 1.65155 1.22119 0
M  V30 19855 H 1847.9 1.08389 3.71199 0
M  V30 19856 H 1849.59 1.49839 3.77231 0
M  V30 19857 H 1850.35 3.84422 2.95711 0
M  V30 19858 H 1846.23 2.82683 3.64159 0
M  V30 19859 H 1849.78 6.23937 3.12008 0
M  V30 19860 H 1845.67 5.21316 3.80657 0
M  V30 19861 H 1846.44 7.28746 3.72655 0
M  V30 19862 N 1849.1 -1.16685 1.05936 0
M  V30 19863 C 1850.07 -2.19155 0.671098 0
M  V30 19864 C 1851.07 -1.5832 -0.281305 0
M  V30 19865 O 1852.26 -1.74082 -0.0641708 0
M  V30 19866 C 1849.39 -3.40897 -0.0131101 0
M  V30 19867 H 1850.58 -2.55019 1.57815 0
M  V30 19868 H 1848.13 -1.30897 0.854147 0
M  V30 19869 H 1848.87 -3.10587 -0.933077 0
M  V30 19870 H 1848.65 -3.86304 0.671687 0
M  V30 19871 H 1850.14 -4.16722 -0.270606 0
M  V30 19872 N 1850.58 -0.841432 -1.33258 0
M  V30 19873 C 1851.54 -0.281685 -2.27462 0
M  V30 19874 C 1852.54 0.551062 -1.51063 0
M  V30 19875 O 1853.73 0.364482 -1.70344 0
M  V30 19876 C 1850.87 0.602896 -3.35526 0
M  V30 19877 H 1852.06 -1.11298 -2.78483 0
M  V30 19878 H 1849.61 -0.614717 -1.43704 0
M  V30 19879 H 1850.35 1.45652 -2.89751 0
M  V30 19880 H 1850.13 0.00701634 -3.92099 0
M  V30 19881 H 1851.62 0.987735 -4.05751 0
M  V30 19882 N 1852.06 1.4581 -0.598108 0
M  V30 19883 C 1853.31 2.02601 -0.089744 0
M  V30 19884 C 1853.64 1.46673 1.27282 0
M  V30 19885 O 1852.91 0.637735 1.83748 0
M  V30 19886 C 1853.2 3.60077 -0.0405712 0
M  V30 19887 C 1853.05 4.26358 -1.43313 0
M  V30 19888 C 1854.37 4.35241 0.652164 0
M  V30 19889 H 1851.49 0.736211 -0.0340865 0
M  V30 19890 H 1854.13 1.73775 -0.768263 0
M  V30 19891 H 1852.28 3.84767 0.537251 0
M  V30 19892 H 1853.95 4.12884 -2.0573 0
M  V30 19893 H 1852.19 3.85125 -1.99653 0
M  V30 19894 H 1852.87 5.35211 -1.35105 0
M  V30 19895 H 1855.34 4.15788 0.161128 0
M  V30 19896 H 1854.22 5.4497 0.655646 0
M  V30 19897 H 1854.48 4.07419 1.71646 0
M  V30 19898 N 1853.54 0.336733 1.53961 0
M  V30 19899 C 1854.81 -0.316794 1.93018 0
M  V30 19900 C 1855.19 -1.68802 1.26764 0
M  V30 19901 O 1854.54 -2.2468 0.416094 0
M  V30 19902 C 1854.75 -0.395878 3.46747 0
M  V30 19903 C 1856.1 -0.649946 4.19596 0
M  V30 19904 O 1857.12 -0.47827 3.52975 0
M  V30 19905 O 1855.98 -0.982035 5.37604 0
M  V30 19906 H 1853.08 -0.183442 0.806398 0
M  V30 19907 H 1855.62 0.387412 1.65219 0
M  V30 19908 H 1854.4 0.56665 3.87175 0
M  V30 19909 H 1854.02 -1.14714 3.80692 0
M  V30 19910 N 1855.02 -1.57465 0.0651956 0
M  V30 19911 C 1856.24 -1.97975 -0.618099 0
M  V30 19912 C 1856.67 -0.943068 -1.62751 0
M  V30 19913 O 1856.02 0.0921045 -1.81066 0
M  V30 19914 C 1856.07 -3.37533 -1.26902 0
M  V30 19915 O 1855.18 -3.36451 -2.38483 0
M  V30 19916 H 1854.52 -0.644553 -0.159524 0
M  V30 19917 H 1857.05 -2.04136 0.137754 0
M  V30 19918 H 1857.06 -3.74571 -1.61742 0
M  V30 19919 H 1855.73 -4.12518 -0.529334 0
M  V30 19920 H 1854.31 -3.11175 -2.05486 0
M  V30 19921 N 1856.49 0.20831 -1.56217 0
M  V30 19922 C 1857.91 0.55859 -1.49506 0
M  V30 19923 C 1858.11 1.86504 -0.762784 0
M  V30 19924 O 1857.17 2.50616 -0.307868 0
M  V30 19925 C 1858.48 0.625557 -2.94121 0
M  V30 19926 C 1860.03 0.715289 -3.04717 0
M  V30 19927 C 1860.5 0.813485 -4.50718 0
M  V30 19928 N 1861.99 0.87736 -4.54815 0
M  V30 19929 C 1862.73 0.973279 -5.65079 0
M  V30 19930 N 1862.22 1.03232 -6.85066 0
M  V30 19931 N 1864.02 1.00944 -5.52962 0
M  V30 19932 H 1856.17 -0.648826 -2.02247 0
M  V30 19933 H 1858.43 -0.229425 -0.91982 0
M  V30 19934 H 1858.14 -0.265056 -3.507 0
M  V30 19935 H 1858.01 1.48473 -3.4675 0
M  V30 19936 H 1860.4 1.59634 -2.48196 0
M  V30 19937 H 1860.48 -0.169818 -2.55236 0
M  V30 19938 H 1860.12 -0.0631602 -5.07861 0
M  V30 19939 H 1860.05 1.7142 -4.97918 0
M  V30 19940 H 1862.54 0.841513 -3.68411 0
M  V30 19941 H 1862.86 1.10566 -7.6485 0
M  V30 19942 H 1861.2 1.00122 -6.8775 0
M  V30 19943 H 1864.39 0.960065 -4.58149 0
M  V30 19944 H 1864.57 1.08074 -6.38924 0
M  V30 19945 N 1857.97 1.50255 0.475528 0
M  V30 19946 C 1858.88 1.71573 1.6 0
M  V30 19947 C 1859.9 0.598748 1.63374 0
M  V30 19948 O 1861.07 0.876544 1.81325 0
M  V30 19949 C 1858.14 1.80117 2.96241 0
M  V30 19950 C 1857.2 3.03831 3.03291 0
M  V30 19951 C 1856.43 3.11958 4.33033 0
M  V30 19952 O 1856.66 2.26995 5.23287 0
M  V30 19953 O 1855.59 4.04647 4.45583 0
M  V30 19954 H 1859.42 2.66884 1.44937 0
M  V30 19955 H 1857 1.34298 0.654553 0
M  V30 19956 H 1858.88 1.87943 3.77167 0
M  V30 19957 H 1857.56 0.879896 3.11512 0
M  V30 19958 H 1856.46 3.01508 2.21458 0
M  V30 19959 H 1857.8 3.95523 2.92955 0
M  V30 19960 N 1859.45 -0.728395 1.39758 0
M  V30 19961 C 1860.4 -1.84245 1.39005 0
M  V30 19962 C 1861.37 -1.64226 0.248783 0
M  V30 19963 O 1862.55 -1.8554 0.444904 0
M  V30 19964 C 1859.69 -3.21828 1.24583 0
M  V30 19965 C 1858.8 -3.53507 2.48308 0
M  V30 19966 C 1857.94 -4.80526 2.26425 0
M  V30 19967 C 1856.98 -5.05069 3.45792 0
M  V30 19968 N 1856.12 -6.23295 3.23184 0
M  V30 19969 H 1860.96 -1.84224 2.34234 0
M  V30 19970 H 1858.49 -0.900094 1.16347 0
M  V30 19971 H 1860.45 -4.01257 1.14231 0
M  V30 19972 H 1859.08 -3.21111 0.329793 0
M  V30 19973 H 1858.13 -2.68729 2.69238 0
M  V30 19974 H 1859.44 -3.67558 3.37198 0
M  V30 19975 H 1858.6 -5.67949 2.13353 0
M  V30 19976 H 1857.34 -4.6866 1.3494 0
M  V30 19977 H 1856.34 -4.16106 3.59355 0
M  V30 19978 H 1857.57 -5.18815 4.38186 0
M  V30 19979 H 1855.51 -6.12704 2.3437 0
M  V30 19980 H 1855.43 -6.37964 4.05633 0
M  V30 19981 H 1856.7 -7.13539 3.13819 0
M  V30 19982 N 1860.93 -1.25042 -0.959279 0
M  V30 19983 C 1861.84 -1.06749 -2.08906 0
M  V30 19984 C 1862.85 -0.00591805 -1.73999 0
M  V30 19985 O 1864.03 -0.205876 -2.00345 0
M  V30 19986 C 1861.09 -0.683353 -3.39899 0
M  V30 19987 C 1860.16 -1.82235 -3.88702 0
M  V30 19988 C 1859.39 -1.45644 -5.13443 0
M  V30 19989 O 1859.61 -0.350012 -5.69325 0
M  V30 19990 O 1858.55 -2.28502 -5.5684 0
M  V30 19991 H 1862.37 -2.01485 -2.27238 0
M  V30 19992 H 1859.96 -1.03938 -1.07318 0
M  V30 19993 H 1861.84 -0.481036 -4.18645 0
M  V30 19994 H 1860.51 0.234796 -3.22847 0
M  V30 19995 H 1859.42 -2.07948 -3.10979 0
M  V30 19996 H 1860.75 -2.71957 -4.10244 0
M  V30 19997 N 1862.41 1.16121 -1.06553 0
M  V30 19998 C 1863.32 2.24229 -0.689833 0
M  V30 19999 C 1864.33 1.71476 0.295308 0
M  V30 20000 O 1865.51 2.00885 0.143964 0
M  V30 20001 C 1862.57 3.46596 -0.0847857 0
M  V30 20002 C 1861.63 4.14375 -1.12213 0
M  V30 20003 C 1860.87 5.30901 -0.54586 0
M  V30 20004 O 1861.09 5.66792 0.640588 0
M  V30 20005 O 1860.02 5.87983 -1.28683 0
M  V30 20006 H 1863.85 2.5868 -1.59117 0
M  V30 20007 H 1861.44 1.23687 -0.837966 0
M  V30 20008 H 1863.32 4.20653 0.250764 0
M  V30 20009 H 1861.99 3.13912 0.789998 0
M  V30 20010 H 1860.9 3.42276 -1.5099 0
M  V30 20011 H 1862.23 4.5112 -1.96853 0
M  V30 20012 N 1863.88 0.848487 1.3281 0
M  V30 20013 C 1864.82 0.245947 2.27877 0
M  V30 20014 C 1865.83 -0.578811 1.52163 0
M  V30 20015 O 1867.02 -0.404308 1.73861 0
M  V30 20016 C 1864.12 -0.671584 3.32179 0
M  V30 20017 C 1863.29 0.115958 4.37246 0
M  V30 20018 C 1862.35 -0.726387 5.21162 0
M  V30 20019 O 1861.38 -0.162121 5.68969 0
M  V30 20020 N 1862.58 -2.04216 5.43393 0
M  V30 20021 H 1865.34 1.06281 2.80222 0
M  V30 20022 H 1862.9 0.707872 1.45605 0
M  V30 20023 H 1864.9 -1.2403 3.85225 0
M  V30 20024 H 1863.47 -1.38914 2.80039 0
M  V30 20025 H 1862.69 0.866084 3.84568 0
M  V30 20026 H 1863.97 0.657126 5.04539 0
M  V30 20027 H 1863.37 -2.52401 5.06271 0
M  V30 20028 H 1861.93 -2.55914 5.99459 0
M  V30 20029 N 1865.36 -1.4549 0.605832 0
M  V30 20030 C 1866.77 -1.85775 0.18559 0
M  V30 20031 C 1867.12 -1.50638 -1.25708 0
M  V30 20032 O 1866.25 -0.932227 -1.95291 0
M  V30 20033 C 1866.84 -3.37189 0.330043 0
M  V30 20034 C 1865.4 -3.76383 -0.0354934 0
M  V30 20035 C 1864.55 -2.69446 0.655297 0
M  V30 20036 H 1867.5 -1.36316 0.812624 0
M  V30 20037 H 1867.52 -3.77968 -0.438236 0
M  V30 20038 H 1867.03 -3.62731 1.38014 0
M  V30 20039 H 1865.14 -3.56458 -1.08483 0
M  V30 20040 H 1865.25 -4.77769 0.356935 0
M  V30 20041 H 1863.61 -2.5453 0.0931235 0
M  V30 20042 H 1864.4 -2.97825 1.70749 0
M  V30 20043 N 1866.84 -0.344893 -1.5378 0
M  V30 20044 C 1867.77 0.545646 -2.2261 0
M  V30 20045 C 1868.79 1.06288 -1.23315 0
M  V30 20046 O 1869.97 0.972802 -1.49662 0
M  V30 20047 C 1867.07 1.76379 -2.89385 0
M  V30 20048 C 1866.25 1.38162 -4.15006 0
M  V30 20049 C 1865.31 2.45958 -4.65179 0
M  V30 20050 O 1864.33 2.0921 -5.29358 0
M  V30 20051 N 1865.53 3.77232 -4.41221 0
M  V30 20052 H 1868.3 -0.043834 -2.99668 0
M  V30 20053 H 1865.86 -0.169081 -1.61015 0
M  V30 20054 H 1867.85 2.47928 -3.19865 0
M  V30 20055 H 1866.42 2.26061 -2.15905 0
M  V30 20056 H 1865.64 0.496839 -3.91056 0
M  V30 20057 H 1866.93 1.10227 -4.96717 0
M  V30 20058 H 1866.33 4.09875 -3.89896 0
M  V30 20059 H 1864.89 4.44947 -4.76304 0
M  V30 20060 N 1868.32 1.57428 -0.0735454 0
M  V30 20061 C 1869.55 1.97596 0.603272 0
M  V30 20062 C 1869.96 0.950716 1.63579 0
M  V30 20063 O 1869.3 -0.0707453 1.83564 0
M  V30 20064 C 1869.36 3.34079 1.32784 0
M  V30 20065 C 1869.03 4.54793 0.448586 0
M  V30 20066 C 1870.02 5.19065 -0.294536 0
M  V30 20067 C 1867.71 5.00914 0.372952 0
M  V30 20068 C 1869.7 6.2781 -1.1015 0
M  V30 20069 C 1867.39 6.09531 -0.437679 0
M  V30 20070 C 1868.39 6.72842 -1.17357 0
M  V30 20071 O 1868.07 7.79367 -1.97083 0
M  V30 20072 H 1867.81 0.654764 0.168108 0
M  V30 20073 H 1870.36 2.04902 -0.143013 0
M  V30 20074 H 1868.59 3.23393 2.12023 0
M  V30 20075 H 1870.28 3.5884 1.89707 0
M  V30 20076 H 1871.05 4.84377 -0.245706 0
M  V30 20077 H 1866.92 4.51411 0.935363 0
M  V30 20078 H 1870.47 6.77158 -1.67639 0
M  V30 20079 H 1866.37 6.43652 -0.488066 0
M  V30 20080 H 1867.13 7.96253 -1.89533 0
M  V30 20081 N 1869.8 -0.200022 1.56326 0
M  V30 20082 C 1870.71 -1.26847 1.9735 0
M  V30 20083 C 1871.72 -1.50081 0.880432 0
M  V30 20084 O 1872.9 -1.62792 1.18578 0
M  V30 20085 C 1869.96 -2.59382 2.30048 0
M  V30 20086 C 1869.02 -2.44262 3.53036 0
M  V30 20087 C 1868.26 -3.70476 3.84165 0
M  V30 20088 O 1868.48 -4.74433 3.16654 0
M  V30 20089 O 1867.41 -3.663 4.77606 0
M  V30 20090 H 1871.24 -0.950324 2.88449 0
M  V30 20091 H 1868.83 -0.404628 1.43816 0
M  V30 20092 H 1870.71 -3.37616 2.52177 0
M  V30 20093 H 1869.38 -2.90833 1.42119 0
M  V30 20094 H 1868.29 -1.64154 3.36161 0
M  V30 20095 H 1869.62 -2.17744 4.41416 0
M  V30 20096 N 1871.27 -1.50505 -0.467553 0
M  V30 20097 C 1872.52 -1.6191 -1.22118 0
M  V30 20098 C 1872.85 -0.320112 -1.91544 0
M  V30 20099 O 1872.13 0.678631 -1.82277 0
M  V30 20100 C 1872.41 -2.80184 -2.26206 0
M  V30 20101 C 1872.26 -4.19975 -1.61062 0
M  V30 20102 C 1873.58 -2.94011 -3.27484 0
M  V30 20103 H 1870.7 -0.589289 -0.442615 0
M  V30 20104 H 1873.34 -1.82902 -0.514484 0
M  V30 20105 H 1871.49 -2.62417 -2.86478 0
M  V30 20106 H 1873.17 -4.4934 -1.04359 0
M  V30 20107 H 1871.41 -4.24069 -0.91365 0
M  V30 20108 H 1872.08 -4.98667 -2.36718 0
M  V30 20109 H 1874.56 -3.10288 -2.77238 0
M  V30 20110 H 1873.43 -3.78384 -3.97639 0
M  V30 20111 H 1873.69 -2.04777 -3.91815 0
M  V30 20112 N 1872.75 0.720973 -1.40142 0
M  V30 20113 C 1873.7 1.8564 -1.40145 0
M  V30 20114 C 1874.69 1.67025 -0.282667 0
M  V30 20115 O 1875.9 1.74195 -0.453429 0
M  V30 20116 H 1872.28 0.611316 -0.437947 0
M  V30 20117 H 1874.25 1.82753 -2.35889 0
M  V30 20118 C 1873 3.23455 -1.27563 0
M  V30 20119 H 1872.32 3.38382 -2.12926 0
M  V30 20120 H 1873.76 4.03052 -1.31623 0
M  V30 20121 C 1872.22 3.36897 0.0146614 0
M  V30 20122 O 1872.75 3.89572 0.979616 0
M  V30 20123 N 1870.95 2.90483 0.0823795 0
M  V30 20124 H 1870.5 2.47805 -0.70359 0
M  V30 20125 H 1870.46 2.99856 0.945177 0
M  V30 20126 N 1874.23 1.25549 0.952634 0
M  V30 20127 C 1875.16 1.08592 2.06712 0
M  V30 20128 C 1876.14 -0.00560571 1.70099 0
M  V30 20129 O 1877.33 0.164299 1.93504 0
M  V30 20130 C 1874.46 0.705984 3.40049 0
M  V30 20131 C 1873.41 1.74797 3.90679 0
M  V30 20132 C 1872.74 1.22266 5.20533 0
M  V30 20133 C 1874.04 3.14717 4.16834 0
M  V30 20134 H 1875.73 2.01816 2.21157 0
M  V30 20135 H 1873.28 0.971723 1.06271 0
M  V30 20136 H 1875.23 0.57428 4.17469 0
M  V30 20137 H 1873.95 -0.261964 3.25548 0
M  V30 20138 H 1872.61 1.86815 3.1543 0
M  V30 20139 H 1872.26 0.244887 5.02404 0
M  V30 20140 H 1871.96 1.9191 5.55377 0
M  V30 20141 H 1873.48 1.10339 6.00548 0
M  V30 20142 H 1874.9 3.05842 4.84906 0
M  V30 20143 H 1873.3 3.81849 4.62938 0
M  V30 20144 H 1874.37 3.61629 3.23037 0
M  V30 20145 N 1875.71 -1.15554 1.07168 0
M  V30 20146 C 1876.94 -1.89906 0.813588 0
M  V30 20147 C 1877.35 -1.78164 -0.636732 0
M  V30 20148 O 1876.69 -1.13 -1.44833 0
M  V30 20149 C 1876.75 -3.40937 1.14028 0
M  V30 20150 C 1876.42 -3.76465 2.59082 0
M  V30 20151 C 1877.41 -3.77643 3.57326 0
M  V30 20152 C 1875.1 -4.06829 2.94611 0
M  V30 20153 C 1877.09 -4.08688 4.89134 0
M  V30 20154 C 1874.78 -4.37539 4.26618 0
M  V30 20155 C 1875.78 -4.3845 5.23689 0
M  V30 20156 O 1875.46 -4.68425 6.53325 0
M  V30 20157 H 1875.2 -0.608773 0.293891 0
M  V30 20158 H 1877.75 -1.4735 1.43098 0
M  V30 20159 H 1875.98 -3.83884 0.465848 0
M  V30 20160 H 1877.67 -3.96575 0.865029 0
M  V30 20161 H 1878.44 -3.54286 3.31219 0
M  V30 20162 H 1874.31 -4.05279 2.19704 0
M  V30 20163 H 1877.86 -4.09315 5.64896 0
M  V30 20164 H 1873.76 -4.60363 4.52478 0
M  V30 20165 H 1874.52 -4.86198 6.58448 0
M  V30 20166 N 1877.19 -0.855519 -1.32358 0
M  V30 20167 C 1878.12 -0.245562 -2.26875 0
M  V30 20168 C 1879.1 0.616957 -1.50441 0
M  V30 20169 O 1880.28 0.573569 -1.79562 0
M  V30 20170 C 1877.41 0.653572 -3.32334 0
M  V30 20171 C 1876.46 -0.135677 -4.26284 0
M  V30 20172 S 1877.29 -1.50466 -5.13926 0
M  V30 20173 C 1878.44 -0.611261 -6.22908 0
M  V30 20174 H 1878.68 -1.0468 -2.78261 0
M  V30 20175 H 1876.21 -0.653201 -1.39902 0
M  V30 20176 H 1878.17 1.16668 -3.93572 0
M  V30 20177 H 1876.83 1.42863 -2.7973 0
M  V30 20178 H 1876.02 0.549189 -5.00999 0
M  V30 20179 H 1875.62 -0.580401 -3.69469 0
M  V30 20180 H 1877.92 0.184141 -6.7725 0
M  V30 20181 H 1878.86 -1.32908 -6.95515 0
M  V30 20182 H 1879.27 -0.185219 -5.64196 0
M  V30 20183 N 1878.67 1.45167 -0.61354 0
M  V30 20184 C 1879.9 2.06266 -0.117437 0
M  V30 20185 C 1880.3 1.45784 1.20597 0
M  V30 20186 O 1879.65 0.568556 1.7468 0
M  V30 20187 C 1879.71 3.59387 0.0903205 0
M  V30 20188 C 1879.37 4.42237 -1.1522 0
M  V30 20189 C 1880.37 4.76837 -2.07177 0
M  V30 20190 C 1878.05 4.82894 -1.3827 0
M  V30 20191 C 1880.05 5.50958 -3.20506 0
M  V30 20192 C 1877.74 5.56768 -2.51899 0
M  V30 20193 C 1878.73 5.90717 -3.42845 0
M  V30 20194 O 1878.42 6.63091 -4.54495 0
M  V30 20195 H 1878.15 0.672495 -0.0687474 0
M  V30 20196 H 1880.71 1.87307 -0.842926 0
M  V30 20197 H 1878.94 3.76769 0.870766 0
M  V30 20198 H 1880.63 4.02308 0.538766 0
M  V30 20199 H 1881.39 4.4598 -1.90597 0
M  V30 20200 H 1877.27 4.55901 -0.683774 0
M  V30 20201 H 1880.82 5.77375 -3.91515 0
M  V30 20202 H 1876.71 5.8704 -2.68429 0
M  V30 20203 H 1877.48 6.81545 -4.53253 0
M  V30 20204 N 1880.14 0.353044 1.53595 0
M  V30 20205 C 1881.07 -0.491481 2.28269 0
M  V30 20206 C 1882.05 -1.0946 1.30201 0
M  V30 20207 O 1883.24 -1.11421 1.59056 0
M  V30 20208 C 1880.37 -1.63776 3.06259 0
M  V30 20209 C 1879.32 -1.16251 4.1191 0
M  V30 20210 C 1878.65 -2.39805 4.7791 0
M  V30 20211 C 1879.95 -0.256191 5.21671 0
M  V30 20212 H 1881.64 0.131483 2.99111 0
M  V30 20213 H 1879.19 0.0646771 1.43855 0
M  V30 20214 H 1881.14 -2.2351 3.57241 0
M  V30 20215 H 1879.87 -2.28777 2.33085 0
M  V30 20216 H 1878.53 -0.587934 3.61855 0
M  V30 20217 H 1878.17 -3.03234 4.0132 0
M  V30 20218 H 1877.87 -2.08684 5.49295 0
M  V30 20219 H 1879.4 -3.00248 5.3168 0
M  V30 20220 H 1880.81 -0.760642 5.68232 0
M  V30 20221 H 1879.21 -0.0364273 6.00089 0
M  V30 20222 H 1880.28 0.705105 4.79746 0
M  V30 20223 N 1881.62 -1.57387 0.0818932 0
M  V30 20224 C 1882.85 -1.97913 -0.592784 0
M  V30 20225 C 1883.26 -0.959377 -1.63072 0
M  V30 20226 O 1882.6 0.0610095 -1.83599 0
M  V30 20227 C 1882.66 -3.34778 -1.3101 0
M  V30 20228 C 1882.33 -4.55025 -0.424461 0
M  V30 20229 C 1883.33 -5.18902 0.322059 0
M  V30 20230 C 1881.01 -5.01104 -0.346382 0
M  V30 20231 C 1883 -6.27217 1.13478 0
M  V30 20232 C 1880.69 -6.0929 0.469997 0
M  V30 20233 C 1881.69 -6.7221 1.20924 0
M  V30 20234 O 1881.38 -7.78311 2.01213 0
M  V30 20235 H 1881.11 -0.655646 -0.164633 0
M  V30 20236 H 1883.66 -2.04823 0.153877 0
M  V30 20237 H 1881.89 -3.24513 -2.10305 0
M  V30 20238 H 1883.58 -3.59841 -1.87801 0
M  V30 20239 H 1884.35 -4.8424 0.271391 0
M  V30 20240 H 1880.23 -4.51901 -0.91141 0
M  V30 20241 H 1883.77 -6.7626 1.71227 0
M  V30 20242 H 1879.67 -6.43384 0.522194 0
M  V30 20243 H 1880.44 -7.95237 1.93753 0
M  V30 20244 N 1883.1 0.191729 -1.56429 0
M  V30 20245 C 1884.35 0.911598 -1.80821 0
M  V30 20246 C 1884.67 1.83115 -0.655667 0
M  V30 20247 O 1883.93 1.92391 0.35837 0
M  V30 20248 C 1884.23 1.75708 -3.11226 0
M  V30 20249 C 1883.89 0.988211 -4.39938 0
M  V30 20250 C 1882.56 0.775937 -4.74903 0
M  V30 20251 C 1884.91 0.447459 -5.19276 0
M  V30 20252 C 1882.24 0.0114851 -5.86699 0
M  V30 20253 C 1884.59 -0.303799 -6.3187 0
M  V30 20254 C 1883.25 -0.527059 -6.65416 0
M  V30 20255 H 1882.52 0.333577 -0.66167 0
M  V30 20256 H 1885.17 0.177758 -1.90673 0
M  V30 20257 H 1883.47 2.5597 -2.96626 0
M  V30 20258 H 1885.17 2.31674 -3.27304 0
M  V30 20259 H 1881.76 1.16368 -4.125 0
M  V30 20260 H 1885.95 0.59885 -4.92674 0
M  V30 20261 H 1881.2 -0.171429 -6.1116 0
M  V30 20262 H 1885.38 -0.730171 -6.92562 0
M  V30 20263 H 1883 -1.12131 -7.51885 0
M  V30 20264 N 1884.58 1.50751 0.459565 0
M  V30 20265 C 1885.82 1.62556 1.21258 0
M  V30 20266 C 1886.16 0.330265 1.91371 0
M  V30 20267 O 1885.43 -0.668955 1.82634 0
M  V30 20268 C 1885.71 2.8138 2.24716 0
M  V30 20269 C 1885.57 4.20823 1.58832 0
M  V30 20270 C 1886.89 2.95744 3.2592 0
M  V30 20271 H 1884.01 0.591628 0.439483 0
M  V30 20272 H 1886.65 1.83172 0.504777 0
M  V30 20273 H 1884.8 2.63933 2.85082 0
M  V30 20274 H 1886.47 4.49888 1.01975 0
M  V30 20275 H 1884.71 4.24548 0.891148 0
M  V30 20276 H 1885.38 4.99915 2.3407 0
M  V30 20277 H 1887.86 3.11754 2.75588 0
M  V30 20278 H 1886.74 3.80488 3.95626 0
M  V30 20279 H 1887 2.06852 3.90723 0
M  V30 20280 N 1886.06 -0.713531 1.40522 0
M  V30 20281 C 1887.3 -1.46899 1.38216 0
M  V30 20282 C 1887.62 -1.95596 -0.011831 0
M  V30 20283 O 1888.82 -2.71043 -0.157513 0
M  V30 20284 C 1887.28 -2.65544 2.42929 0
M  V30 20285 C 1886.89 -2.23707 3.88148 0
M  V30 20286 C 1888.63 -3.4327 2.49732 0
M  V30 20287 C 1886.54 -3.39203 4.84453 0
M  V30 20288 H 1885.47 -0.551718 0.513929 0
M  V30 20289 H 1888.12 -0.776357 1.66268 0
M  V30 20290 H 1886.5 -3.36987 2.0798 0
M  V30 20291 H 1887.68 -1.5967 4.32252 0
M  V30 20292 H 1885.99 -1.59021 3.84839 0
M  V30 20293 H 1888.59 -4.29215 3.18871 0
M  V30 20294 H 1888.93 -3.87225 1.52848 0
M  V30 20295 H 1889.46 -2.78871 2.83683 0
M  V30 20296 H 1886.2 -3.00278 5.82678 0
M  V30 20297 H 1885.72 -4.02149 4.45012 0
M  V30 20298 H 1887.4 -4.0524 5.04371 0
M  V30 20299 N 1887.53 -1.26053 -0.945962 0
M  V30 20300 C 1888.78 -1.11315 -1.69161 0
M  V30 20301 C 1889.11 0.34437 -1.91427 0
M  V30 20302 O 1888.36 1.26968 -1.48921 0
M  V30 20303 C 1888.66 -1.8222 -3.07459 0
M  V30 20304 C 1888.33 -3.32126 -3.04964 0
M  V30 20305 C 1886.99 -3.73019 -3.03991 0
M  V30 20306 C 1889.34 -4.2786 -2.97633 0
M  V30 20307 C 1886.67 -5.08041 -2.93446 0
M  V30 20308 C 1889.02 -5.62917 -2.88631 0
M  V30 20309 C 1887.69 -6.03127 -2.85998 0
M  V30 20310 H 1886.96 -0.407329 -0.619002 0
M  V30 20311 H 1889.6 -1.56435 -1.10454 0
M  V30 20312 H 1887.91 -1.29554 -3.69761 0
M  V30 20313 H 1889.61 -1.68261 -3.63991 0
M  V30 20314 H 1886.2 -2.99594 -3.06498 0
M  V30 20315 H 1890.38 -3.97252 -2.97497 0
M  V30 20316 H 1885.64 -5.38364 -2.89782 0
M  V30 20317 H 1889.81 -6.36784 -2.81921 0
M  V30 20318 H 1887.44 -7.07709 -2.77583 0
M  V30 20319 N 1889.01 1.14984 -1.07779 0
M  V30 20320 C 1890.26 1.85219 -0.798561 0
M  V30 20321 C 1890.57 1.83476 0.677935 0
M  V30 20322 O 1891.78 2.49436 1.0721 0
M  V30 20323 C 1890.24 3.32454 -1.37849 0
M  V30 20324 C 1889.84 3.42631 -2.88631 0
M  V30 20325 C 1891.59 4.07843 -1.17747 0
M  V30 20326 C 1889.49 4.8404 -3.39794 0
M  V30 20327 H 1888.42 0.693872 -0.295054 0
M  V30 20328 H 1891.08 1.29668 -1.2984 0
M  V30 20329 H 1889.46 3.87703 -0.806374 0
M  V30 20330 H 1890.63 2.97466 -3.51925 0
M  V30 20331 H 1888.95 2.80691 -3.07573 0
M  V30 20332 H 1891.54 5.1221 -1.53444 0
M  V30 20333 H 1891.89 4.16136 -0.116815 0
M  V30 20334 H 1892.42 3.58876 -1.71618 0
M  V30 20335 H 1889.16 4.80932 -4.45404 0
M  V30 20336 H 1888.68 5.29769 -2.81256 0
M  V30 20337 H 1890.36 5.5291 -3.36005 0
M  V30 20338 N 1890.49 0.862526 1.31902 0
M  V30 20339 C 1891.74 0.465956 1.96244 0
M  V30 20340 C 1892.05 -0.985243 1.68974 0
M  V30 20341 O 1893.26 -1.48761 2.27118 0
M  V30 20342 C 1891.71 0.782319 3.51294 0
M  V30 20343 C 1891.32 2.24978 3.87413 0
M  V30 20344 C 1893.07 0.453857 4.22067 0
M  V30 20345 C 1890.97 2.50894 5.35543 0
M  V30 20346 H 1889.9 0.170515 0.734466 0
M  V30 20347 H 1892.55 1.0544 1.50182 0
M  V30 20348 H 1890.94 0.123217 3.95808 0
M  V30 20349 H 1892.11 2.95132 3.53884 0
M  V30 20350 H 1890.42 2.54354 3.29687 0
M  V30 20351 H 1893.02 0.624812 5.31037 0
M  V30 20352 H 1893.36 -0.605145 4.11878 0
M  V30 20353 H 1893.9 1.06918 3.83162 0
M  V30 20354 H 1890.64 3.55449 5.5076 0
M  V30 20355 H 1890.16 1.85326 5.70451 0
M  V30 20356 H 1891.84 2.35244 6.02718 0
M  V30 20357 N 1891.97 -1.4484 0.62123 0
M  V30 20358 C 1893.22 -2.02133 0.121784 0
M  V30 20359 C 1893.54 -1.48784 -1.25274 0
M  V30 20360 O 1892.8 -0.658116 -1.84302 0
M  V30 20361 C 1893.1 -3.57369 0.0470922 0
M  V30 20362 C 1892.76 -4.2993 1.35908 0
M  V30 20363 C 1891.43 -4.4947 1.71843 0
M  V30 20364 C 1893.78 -4.71295 2.22554 0
M  V30 20365 C 1891.11 -5.07634 2.94151 0
M  V30 20366 C 1893.46 -5.30812 3.44124 0
M  V30 20367 C 1892.12 -5.48573 3.80294 0
M  V30 20368 H 1891.39 -0.739659 0.044564 0
M  V30 20369 H 1894.04 -1.73732 0.805571 0
M  V30 20370 H 1892.34 -3.85127 -0.720022 0
M  V30 20371 H 1894.04 -3.99419 -0.355713 0
M  V30 20372 H 1890.63 -4.15044 1.06941 0
M  V30 20373 H 1894.81 -4.5592 1.96088 0
M  V30 20374 H 1890.07 -5.19572 3.22265 0
M  V30 20375 H 1894.24 -5.61816 4.11504 0
M  V30 20376 H 1891.87 -5.93409 4.75152 0
M  V30 20377 N 1893.45 -0.361184 -1.53405 0
M  V30 20378 C 1894.69 0.229427 -2.00794 0
M  V30 20379 C 1895.02 1.49642 -1.25029 0
M  V30 20380 O 1894.29 1.9252 -0.362333 0
M  V30 20381 H 1892.87 0.0877687 -0.741826 0
M  V30 20382 H 1895.53 -0.486406 -1.88733 0
M  V30 20383 H 1894.62 0.459504 -3.08699 0
M  V30 20384 N 1894.92 1.57341 -0.0902386 0
M  V30 20385 C 1896.15 1.98934 0.586524 0
M  V30 20386 C 1896.57 0.968841 1.6123 0
M  V30 20387 O 1895.93 -0.0632868 1.8119 0
M  V30 20388 C 1895.98 3.39509 1.21516 0
M  V30 20389 O 1895.08 3.40203 2.331 0
M  V30 20390 H 1894.43 0.647009 0.14925 0
M  V30 20391 H 1896.96 2.03891 -0.170213 0
M  V30 20392 H 1896.97 3.77097 1.55762 0
M  V30 20393 H 1895.64 4.13308 0.463639 0
M  V30 20394 H 1894.22 3.14405 2.0051 0
M  V30 20395 N 1896.4 -0.183431 1.56529 0
M  V30 20396 C 1897.65 -0.901995 1.81302 0
M  V30 20397 C 1897.98 -1.82765 0.665368 0
M  V30 20398 O 1897.23 -1.92578 -0.348162 0
M  V30 20399 C 1897.53 -1.74055 3.12153 0
M  V30 20400 C 1897.2 -0.964866 4.40456 0
M  V30 20401 C 1895.86 -0.750741 4.75308 0
M  V30 20402 C 1898.21 -0.419915 5.19506 0
M  V30 20403 C 1895.54 0.0196291 5.86697 0
M  V30 20404 C 1897.89 0.337305 6.317 0
M  V30 20405 C 1896.56 0.56234 6.65127 0
M  V30 20406 H 1895.83 -0.330064 0.66343 0
M  V30 20407 H 1898.47 -0.167643 1.90765 0
M  V30 20408 H 1896.78 -2.54393 2.97979 0
M  V30 20409 H 1898.47 -2.29935 3.28528 0
M  V30 20410 H 1895.06 -1.14178 4.13112 0
M  V30 20411 H 1899.25 -0.572714 4.92984 0
M  V30 20412 H 1894.5 0.203838 6.1106 0
M  V30 20413 H 1898.68 0.766889 6.92165 0
M  V30 20414 H 1896.31 1.16117 7.51279 0
M  V30 20415 N 1897.88 -1.50992 -0.451564 0
M  V30 20416 C 1899.13 -1.62955 -1.20216 0
M  V30 20417 C 1899.46 -0.33902 -1.91523 0
M  V30 20418 O 1898.71 0.676199 -1.83647 0
M  V30 20419 C 1899.01 -2.7732 -2.25452 0
M  V30 20420 C 1898.68 -4.1711 -1.71259 0
M  V30 20421 C 1897.34 -4.55142 -1.56202 0
M  V30 20422 C 1899.69 -5.04399 -1.31268 0
M  V30 20423 C 1897.02 -5.78183 -0.996051 0
M  V30 20424 C 1899.37 -6.28005 -0.761055 0
M  V30 20425 C 1898.03 -6.64823 -0.597267 0
M  V30 20426 H 1897.3 -0.596295 -0.439901 0
M  V30 20427 H 1899.95 -1.84985 -0.495266 0
M  V30 20428 H 1898.26 -2.49455 -3.02125 0
M  V30 20429 H 1899.95 -2.83777 -2.83323 0
M  V30 20430 H 1896.54 -3.87117 -1.83952 0
M  V30 20431 H 1900.73 -4.75633 -1.41727 0
M  V30 20432 H 1895.98 -6.05367 -0.856787 0
M  V30 20433 H 1900.16 -6.94992 -0.442598 0
M  V30 20434 H 1897.78 -7.60039 -0.156575 0
M  V30 20435 N 1899.36 0.706069 -1.40899 0
M  V30 20436 C 1900.59 1.49504 -1.43025 0
M  V30 20437 C 1901 1.88772 -0.0325752 0
M  V30 20438 O 1900.36 1.56085 0.945716 0
M  V30 20439 C 1900.41 2.76431 -2.32955 0
M  V30 20440 O 1900.13 2.38821 -3.67282 0
M  V30 20441 C 1901.63 3.70255 -2.43774 0
M  V30 20442 H 1898.85 0.461069 -0.4875 0
M  V30 20443 H 1901.4 0.870198 -1.85062 0
M  V30 20444 H 1899.55 3.35177 -1.94255 0
M  V30 20445 H 1899.96 3.2056 -4.1514 0
M  V30 20446 H 1901.44 4.56129 -3.10887 0
M  V30 20447 H 1901.92 4.14021 -1.46573 0
M  V30 20448 H 1902.52 3.17417 -2.83066 0
M  V30 20449 N 1900.84 1.26553 0.939264 0
M  V30 20450 C 1901.77 1.10778 2.05549 0
M  V30 20451 C 1902.75 0.0124359 1.70095 0
M  V30 20452 O 1903.93 0.184814 1.93319 0
M  V30 20453 C 1901.06 0.742011 3.39281 0
M  V30 20454 C 1900.02 1.78931 3.88803 0
M  V30 20455 C 1899.34 1.2778 5.19207 0
M  V30 20456 C 1900.64 3.1912 4.13473 0
M  V30 20457 H 1902.34 2.04151 2.19004 0
M  V30 20458 H 1899.88 0.98294 1.05234 0
M  V30 20459 H 1901.84 0.618526 4.16836 0
M  V30 20460 H 1900.56 -0.22742 3.25807 0
M  V30 20461 H 1899.22 1.9015 3.13431 0
M  V30 20462 H 1898.87 0.298159 5.02116 0
M  V30 20463 H 1898.57 1.9779 5.53311 0
M  V30 20464 H 1900.09 1.16703 5.99344 0
M  V30 20465 H 1901.5 3.10967 4.81635 0
M  V30 20466 H 1899.9 3.86738 4.58862 0
M  V30 20467 H 1900.97 3.65034 3.19183 0
M  V30 20468 N 1902.31 -1.14411 1.08387 0
M  V30 20469 C 1903.26 -2.21558 0.708165 0
M  V30 20470 C 1904.26 -1.66969 -0.285982 0
M  V30 20471 O 1905.46 -1.79386 -0.14857 0
M  V30 20472 H 1901.84 -0.721799 0.210974 0
M  V30 20473 H 1903.81 -2.50518 1.62122 0
M  V30 20474 C 1902.56 -3.47444 0.13337 0
M  V30 20475 H 1901.88 -3.89779 0.889513 0
M  V30 20476 H 1903.32 -4.23901 -0.0917154 0
M  V30 20477 C 1901.78 -3.1743 -1.1287 0
M  V30 20478 O 1902.31 -3.35205 -2.2136 0
M  V30 20479 N 1900.52 -2.71391 -1.03901 0
M  V30 20480 H 1900.06 -2.57127 -0.156094 0
M  V30 20481 H 1900.02 -2.51684 -1.88422 0
M  V30 20482 N 1903.79 -0.869509 -1.31443 0
M  V30 20483 C 1904.72 -0.340679 -2.31001 0
M  V30 20484 C 1905.7 0.568186 -1.6033 0
M  V30 20485 O 1906.89 0.485305 -1.88038 0
M  V30 20486 C 1904.02 0.45909 -3.44252 0
M  V30 20487 C 1902.97 -0.356639 -4.26512 0
M  V30 20488 C 1902.3 0.568786 -5.31666 0
M  V30 20489 C 1903.6 -1.59045 -4.97496 0
M  V30 20490 H 1905.29 -1.1726 -2.75482 0
M  V30 20491 H 1902.84 -0.5653 -1.3244 0
M  V30 20492 H 1904.79 0.839573 -4.12952 0
M  V30 20493 H 1903.52 1.32451 -2.98537 0
M  V30 20494 H 1902.17 -0.719063 -3.59479 0
M  V30 20495 H 1901.82 1.43148 -4.82201 0
M  V30 20496 H 1901.52 0.0268906 -5.87594 0
M  V30 20497 H 1903.05 0.946122 -6.03225 0
M  V30 20498 H 1904.46 -1.28144 -5.58795 0
M  V30 20499 H 1902.86 -2.07139 -5.63217 0
M  V30 20500 H 1903.93 -2.34354 -4.24507 0
M  V30 20501 N 1905.27 1.44508 -0.628902 0
M  V30 20502 C 1906.52 2.02066 -0.132502 0
M  V30 20503 C 1906.85 1.49446 1.24483 0
M  V30 20504 O 1906.1 0.667881 1.83951 0
M  V30 20505 C 1906.4 3.57339 -0.0660437 0
M  V30 20506 C 1906.07 4.29203 -1.38186 0
M  V30 20507 C 1904.73 4.48552 -1.74225 0
M  V30 20508 C 1907.08 4.70108 -2.25051 0
M  V30 20509 C 1904.41 5.06066 -2.96839 0
M  V30 20510 C 1906.76 5.2898 -3.46934 0
M  V30 20511 C 1905.42 5.46549 -3.83198 0
M  V30 20512 H 1904.69 0.739412 -0.048486 0
M  V30 20513 H 1907.34 1.73302 -0.814773 0
M  V30 20514 H 1905.65 3.85504 0.699588 0
M  V30 20515 H 1907.34 3.99602 0.334526 0
M  V30 20516 H 1903.93 4.14471 -1.09141 0
M  V30 20517 H 1908.12 4.54874 -1.98503 0
M  V30 20518 H 1903.37 5.17856 -3.25016 0
M  V30 20519 H 1907.55 5.59626 -4.14478 0
M  V30 20520 H 1905.17 5.90881 -4.78292 0
M  V30 20521 N 1906.75 0.369315 1.53212 0
M  V30 20522 C 1908 -0.220348 2.00493 0
M  V30 20523 C 1908.31 -1.49561 1.26059 0
M  V30 20524 O 1909.52 -2.1641 1.63947 0
M  V30 20525 C 1907.97 -0.443218 3.5716 0
M  V30 20526 C 1907.58 0.817634 4.40476 0
M  V30 20527 C 1909.33 -0.990333 4.12786 0
M  V30 20528 C 1907.23 0.564143 5.88703 0
M  V30 20529 H 1906.16 -0.0861173 0.749066 0
M  V30 20530 H 1908.81 0.488632 1.76875 0
M  V30 20531 H 1907.2 -1.21355 3.76947 0
M  V30 20532 H 1908.37 1.59105 4.32461 0
M  V30 20533 H 1906.68 1.28824 3.95971 0
M  V30 20534 H 1909.28 -1.19537 5.21167 0
M  V30 20535 H 1909.62 -1.95357 3.67616 0
M  V30 20536 H 1910.16 -0.280073 3.96813 0
M  V30 20537 H 1906.9 1.49782 6.38158 0
M  V30 20538 H 1906.42 -0.170702 5.99557 0
M  V30 20539 H 1908.1 0.191072 6.46718 0
M  V30 20540 N 1908.23 -1.57291 0.0985816 0
M  V30 20541 C 1909.48 -1.94094 -0.563189 0
M  V30 20542 C 1909.8 -0.981394 -1.68504 0
M  V30 20543 O 1909.07 -0.0340632 -1.9587 0
M  V30 20544 H 1907.65 -0.716571 -0.211033 0
M  V30 20545 H 1910.31 -1.94219 0.162732 0
M  V30 20546 H 1909.4 -2.96607 -0.971113 0
M  V30 20547 N 1909.71 0.175127 -1.56624 0
M  V30 20548 C 1910.95 0.89369 -1.82047 0
M  V30 20549 C 1911.28 1.82061 -0.675831 0
M  V30 20550 O 1910.56 1.91808 0.322453 0
M  V30 20551 C 1910.84 1.69266 -3.17838 0
M  V30 20552 C 1910.7 0.789122 -4.42824 0
M  V30 20553 C 1912.01 2.66115 -3.50529 0
M  V30 20554 H 1909.13 0.323454 -0.662228 0
M  V30 20555 H 1911.78 0.160077 -1.89324 0
M  V30 20556 H 1909.93 2.31808 -3.11765 0
M  V30 20557 H 1911.6 0.17687 -4.60961 0
M  V30 20558 H 1909.84 0.0969508 -4.33692 0
M  V30 20559 H 1910.51 1.38358 -5.34379 0
M  V30 20560 H 1912.99 2.137 -3.57031 0
M  V30 20561 H 1911.86 3.19087 -4.46626 0
M  V30 20562 H 1912.12 3.4613 -2.75038 0
M  V30 20563 N 1911.18 1.5123 0.44355 0
M  V30 20564 C 1912.43 1.62825 1.19041 0
M  V30 20565 C 1912.75 0.347298 1.92492 0
M  V30 20566 O 1913.95 0.342537 2.69331 0
M  V30 20567 C 1912.41 2.87532 2.16456 0
M  V30 20568 C 1912.02 4.22608 1.48682 0
M  V30 20569 C 1913.76 3.08483 2.91614 0
M  V30 20570 C 1911.67 5.38472 2.44544 0
M  V30 20571 H 1910.6 0.606444 0.448041 0
M  V30 20572 H 1913.25 1.77691 0.458065 0
M  V30 20573 H 1911.63 2.66287 2.931 0
M  V30 20574 H 1912.8 4.54212 0.776389 0
M  V30 20575 H 1911.12 4.07485 0.857007 0
M  V30 20576 H 1913.72 3.92219 3.63413 0
M  V30 20577 H 1914.06 2.2131 3.52601 0
M  V30 20578 H 1914.59 3.30039 2.22078 0
M  V30 20579 H 1911.33 6.27886 1.88255 0
M  V30 20580 H 1910.85 5.11252 3.13658 0
M  V30 20581 H 1912.53 5.70169 3.05804 0
M  V30 20582 N 1912.66 -0.698586 1.41271 0
M  V30 20583 C 1913.91 -1.45425 1.39766 0
M  V30 20584 C 1914.22 -1.95598 0.00891528 0
M  V30 20585 O 1915.43 -2.71195 -0.128757 0
M  V30 20586 C 1913.89 -2.62952 2.45732 0
M  V30 20587 C 1913.49 -2.19578 3.90499 0
M  V30 20588 C 1915.24 -3.40602 2.53359 0
M  V30 20589 C 1913.14 -3.34046 4.88024 0
M  V30 20590 H 1912.07 -0.546236 0.519752 0
M  V30 20591 H 1914.73 -0.758678 1.67082 0
M  V30 20592 H 1913.11 -3.34762 2.11542 0
M  V30 20593 H 1914.28 -1.55077 4.33921 0
M  V30 20594 H 1912.6 -1.5493 3.86504 0
M  V30 20595 H 1915.19 -4.25809 3.23405 0
M  V30 20596 H 1915.54 -3.85582 1.56946 0
M  V30 20597 H 1916.07 -2.75846 2.86625 0
M  V30 20598 H 1912.81 -2.94081 5.8583 0
M  V30 20599 H 1912.33 -3.97407 4.49253 0
M  V30 20600 H 1914.01 -3.99867 5.0864 0
M  V30 20601 N 1914.14 -1.27049 -0.93254 0
M  V30 20602 C 1915.42 -1.03836 -1.65763 0
M  V30 20603 C 1915.8 0.428461 -2.06706 0
M  V30 20604 O 1915.14 1.41067 -1.79756 0
M  V30 20605 C 1915.35 -1.99534 -2.86334 0
M  V30 20606 C 1916.7 -2.28632 -3.57788 0
M  V30 20607 O 1917.73 -1.97469 -2.96453 0
M  V30 20608 O 1916.59 -2.81732 -4.68284 0
M  V30 20609 H 1913.68 -0.395479 -0.72631 0
M  V30 20610 H 1916.23 -1.38294 -0.983504 0
M  V30 20611 H 1915 -2.98479 -2.53033 0
M  V30 20612 H 1914.62 -1.65608 -3.61469 0
M  V30 20613 N 1915.62 1.13835 -1.08993 0
M  V30 20614 C 1916.57 2.21179 -0.719905 0
M  V30 20615 C 1917.56 1.67118 0.277123 0
M  V30 20616 O 1918.77 1.79462 0.139054 0
M  V30 20617 H 1915.14 0.72067 -0.214799 0
M  V30 20618 H 1917.11 2.49654 -1.63448 0
M  V30 20619 C 1915.86 3.47368 -0.151794 0
M  V30 20620 H 1915.18 3.89302 -0.910172 0
M  V30 20621 H 1916.62 4.23943 0.0692336 0
M  V30 20622 C 1915.08 3.18024 1.11185 0
M  V30 20623 O 1915.61 3.36374 2.1958 0
M  V30 20624 N 1913.82 2.71938 1.0246 0
M  V30 20625 H 1913.37 2.57206 0.142456 0
M  V30 20626 H 1913.32 2.52679 1.87084 0
M  V30 20627 N 1917.1 0.876467 1.3098 0
M  V30 20628 C 1918.34 0.49064 1.96466 0
M  V30 20629 C 1918.67 -0.958443 1.69246 0
M  V30 20630 O 1917.93 -1.69096 0.985144 0
M  V30 20631 C 1918.22 0.70208 3.50436 0
M  V30 20632 C 1917.89 2.12494 3.9769 0
M  V30 20633 C 1916.55 2.51405 4.10303 0
M  V30 20634 C 1918.9 3.0526 4.22452 0
M  V30 20635 C 1916.23 3.82309 4.45035 0
M  V30 20636 C 1918.58 4.35686 4.5865 0
M  V30 20637 C 1917.25 4.74502 4.69472 0
M  V30 20638 H 1916.52 0.179538 0.718921 0
M  V30 20639 H 1919.17 1.1107 1.55999 0
M  V30 20640 H 1917.47 -0.00106996 3.918 0
M  V30 20641 H 1919.17 0.383279 3.99164 0
M  V30 20642 H 1915.76 1.81287 3.88372 0
M  V30 20643 H 1919.94 2.76422 4.12195 0
M  V30 20644 H 1915.2 4.12136 4.51612 0
M  V30 20645 H 1919.37 5.07612 4.76763 0
M  V30 20646 H 1917 5.75976 4.9614 0
M  V30 20647 N 1918.57 -1.44173 0.636557 0
M  V30 20648 C 1919.52 -2.32472 -0.077248 0
M  V30 20649 C 1920.52 -1.47659 -0.830248 0
M  V30 20650 O 1921.72 -1.63971 -0.742533 0
M  V30 20651 H 1918.1 -0.750726 -0.0437543 0
M  V30 20652 H 1920.07 -2.9042 0.685465 0
M  V30 20653 C 1918.82 -3.31734 -1.04152 0
M  V30 20654 H 1918.14 -3.9701 -0.471531 0
M  V30 20655 H 1919.58 -3.96187 -1.51036 0
M  V30 20656 C 1918.04 -2.61069 -2.12943 0
M  V30 20657 O 1918.57 -2.41366 -3.211 0
M  V30 20658 N 1916.77 -2.20717 -1.8903 0
M  V30 20659 H 1916.32 -2.36941 -1.01077 0
M  V30 20660 H 1916.28 -1.73763 -2.62018 0
M  V30 20661 N 1920.05 -0.377435 -1.53014 0
M  V30 20662 C 1920.98 0.498304 -2.23718 0
M  V30 20663 C 1922 1.03648 -1.25542 0
M  V30 20664 O 1923.19 0.940837 -1.51692 0
M  V30 20665 C 1920.29 1.70201 -2.93061 0
M  V30 20666 C 1919.46 1.29328 -4.17843 0
M  V30 20667 C 1918.52 2.36036 -4.70291 0
M  V30 20668 O 1917.54 1.97934 -5.33677 0
M  V30 20669 N 1918.75 3.67788 -4.49124 0
M  V30 20670 H 1921.51 -0.107388 -2.99508 0
M  V30 20671 H 1919.07 -0.203197 -1.6062 0
M  V30 20672 H 1921.06 2.41087 -3.25052 0
M  V30 20673 H 1919.63 2.21431 -2.20652 0
M  V30 20674 H 1918.85 0.413779 -3.92022 0
M  V30 20675 H 1920.14 0.996666 -4.98943 0
M  V30 20676 H 1919.54 4.01512 -3.98503 0
M  V30 20677 H 1918.1 4.34744 -4.85635 0
M  V30 20678 N 1921.53 1.57237 -0.106922 0
M  V30 20679 C 1922.46 2.11718 0.877968 0
M  V30 20680 C 1923.48 1.0571 1.23812 0
M  V30 20681 O 1924.66 1.3312 1.18917 0
M  V30 20682 C 1921.76 2.59182 2.18352 0
M  V30 20683 C 1920.94 3.89156 1.99691 0
M  V30 20684 C 1920 4.22344 3.13866 0
M  V30 20685 O 1919.02 4.91367 2.87309 0
M  V30 20686 N 1920.22 3.78694 4.39967 0
M  V30 20687 H 1922.99 2.96846 0.412584 0
M  V30 20688 H 1920.55 1.61713 0.0778505 0
M  V30 20689 H 1922.54 2.78423 2.93706 0
M  V30 20690 H 1921.11 1.78999 2.56277 0
M  V30 20691 H 1920.33 3.78945 1.086 0
M  V30 20692 H 1921.62 4.74165 1.84514 0
M  V30 20693 H 1921.02 3.23 4.64422 0
M  V30 20694 H 1919.58 4.03067 5.12231 0
M  V30 20695 N 1923.01 -0.166818 1.56715 0
M  V30 20696 C 1923.96 -1.20646 1.96757 0
M  V30 20697 C 1924.93 -1.43751 0.832153 0
M  V30 20698 O 1926.11 -1.56416 1.09264 0
M  V30 20699 C 1923.25 -2.53971 2.3365 0
M  V30 20700 C 1922.36 -2.38207 3.60391 0
M  V30 20701 C 1921.5 -3.6443 3.86476 0
M  V30 20702 C 1920.54 -3.43618 5.0655 0
M  V30 20703 N 1919.67 -4.61923 5.28746 0
M  V30 20704 H 1924.51 -0.857983 2.85382 0
M  V30 20705 H 1922.05 -0.412238 1.41206 0
M  V30 20706 H 1924.01 -3.31684 2.53064 0
M  V30 20707 H 1922.64 -2.86805 1.48131 0
M  V30 20708 H 1921.69 -1.51648 3.48866 0
M  V30 20709 H 1923 -2.18777 4.48261 0
M  V30 20710 H 1922.16 -4.50578 4.06282 0
M  V30 20711 H 1920.9 -3.86844 2.9699 0
M  V30 20712 H 1919.9 -2.55858 4.86638 0
M  V30 20713 H 1921.13 -3.22623 5.97571 0
M  V30 20714 H 1919.07 -4.84547 4.42211 0
M  V30 20715 H 1918.99 -4.45423 6.10848 0
M  V30 20716 H 1920.26 -5.4934 5.53033 0
M  V30 20717 N 1924.49 -1.51463 -0.435524 0
M  V30 20718 C 1925.43 -1.72908 -1.52877 0
M  V30 20719 C 1926.4 -0.570809 -1.55984 0
M  V30 20720 O 1927.59 -0.805443 -1.72966 0
M  V30 20721 C 1924.73 -1.8617 -2.90576 0
M  V30 20722 C 1923.84 -3.13726 -2.96985 0
M  V30 20723 C 1922.98 -3.17573 -4.25818 0
M  V30 20724 C 1922.02 -4.39437 -4.26101 0
M  V30 20725 N 1921.15 -4.40823 -5.46461 0
M  V30 20726 H 1925.99 -2.66226 -1.33894 0
M  V30 20727 H 1923.53 -1.3194 -0.650399 0
M  V30 20728 H 1925.49 -1.91841 -3.70476 0
M  V30 20729 H 1924.12 -0.962585 -3.08114 0
M  V30 20730 H 1923.17 -3.17356 -2.09737 0
M  V30 20731 H 1924.48 -4.03634 -2.93055 0
M  V30 20732 H 1923.64 -3.2217 -5.14093 0
M  V30 20733 H 1922.37 -2.25558 -4.32406 0
M  V30 20734 H 1921.38 -4.35014 -3.36219 0
M  V30 20735 H 1922.6 -5.32718 -4.21175 0
M  V30 20736 H 1920.55 -3.51679 -5.53767 0
M  V30 20737 H 1920.47 -5.24541 -5.44419 0
M  V30 20738 H 1921.74 -4.49615 -6.36763 0
M  V30 20739 N 1925.96 0.691085 -1.4164 0
M  V30 20740 C 1926.91 1.80495 -1.43841 0
M  V30 20741 C 1927.88 1.63509 -0.292237 0
M  V30 20742 O 1929.07 1.84296 -0.493941 0
M  V30 20743 C 1926.21 3.18412 -1.33072 0
M  V30 20744 C 1925.32 3.46799 -2.57594 0
M  V30 20745 C 1924.45 4.74354 -2.39085 0
M  V30 20746 C 1923.49 4.95723 -3.59061 0
M  V30 20747 N 1922.63 6.14507 -3.39596 0
M  V30 20748 H 1927.47 1.77949 -2.39036 0
M  V30 20749 H 1925.01 0.86893 -1.18693 0
M  V30 20750 H 1926.97 3.98087 -1.24829 0
M  V30 20751 H 1925.6 3.20124 -0.414814 0
M  V30 20752 H 1924.65 2.61496 -2.76268 0
M  V30 20753 H 1925.96 3.58489 -3.46824 0
M  V30 20754 H 1925.11 5.62092 -2.28336 0
M  V30 20755 H 1923.85 4.64918 -1.47319 0
M  V30 20756 H 1922.86 4.06432 -3.70261 0
M  V30 20757 H 1924.08 5.07015 -4.51788 0
M  V30 20758 H 1922.03 6.06275 -2.50532 0
M  V30 20759 H 1921.95 6.26985 -4.22405 0
M  V30 20760 H 1923.21 7.04968 -3.32627 0
M  V30 20761 N 1927.44 1.27542 0.925789 0
M  V30 20762 C 1928.37 1.12952 2.04363 0
M  V30 20763 C 1929.35 0.0304761 1.70073 0
M  V30 20764 O 1930.54 0.205307 1.93112 0
M  V30 20765 C 1927.67 0.777954 3.38475 0
M  V30 20766 C 1926.62 1.83044 3.86883 0
M  V30 20767 C 1925.95 1.3328 5.17823 0
M  V30 20768 C 1927.25 3.23488 4.10065 0
M  V30 20769 H 1928.94 2.06462 2.16827 0
M  V30 20770 H 1926.49 0.994046 1.04186 0
M  V30 20771 H 1928.44 0.662702 4.16156 0
M  V30 20772 H 1927.17 -0.192851 3.2603 0
M  V30 20773 H 1925.82 1.93463 3.11396 0
M  V30 20774 H 1925.47 0.351399 5.01771 0
M  V30 20775 H 1925.17 2.03648 5.51182 0
M  V30 20776 H 1926.7 1.23053 5.98072 0
M  V30 20777 H 1928.11 3.16058 4.7831 0
M  V30 20778 H 1926.51 3.91583 4.54734 0
M  V30 20779 H 1927.58 3.68399 3.15293 0
M  V30 20780 N 1928.92 -1.13255 1.09595 0
M  V30 20781 C 1930.17 -1.84206 0.831411 0
M  V30 20782 C 1930.49 -1.8403 -0.64483 0
M  V30 20783 O 1929.76 -1.29728 -1.46791 0
M  V30 20784 H 1928.34 -0.682085 0.304579 0
M  V30 20785 H 1931 -1.37183 1.38444 0
M  V30 20786 H 1930.1 -2.88667 1.18649 0
M  V30 20787 N 1930.4 -0.883401 -1.30514 0
M  V30 20788 C 1931.65 -0.500062 -1.95816 0
M  V30 20789 C 1931.97 0.953596 -1.70093 0
M  V30 20790 O 1931.24 1.67027 -1.02365 0
M  V30 20791 H 1929.82 -0.181936 -0.724506 0
M  V30 20792 H 1932.48 -1.12613 -1.59073 0
M  V30 20793 H 1931.58 -0.668998 -3.04846 0
M  V30 20794 N 1931.88 1.43833 -0.644194 0
M  V30 20795 C 1932.82 2.30739 0.0528797 0
M  V30 20796 C 1933.79 1.44234 0.823751 0
M  V30 20797 O 1934.98 1.73118 0.802171 0
M  V30 20798 C 1932.12 3.29695 1.01956 0
M  V30 20799 C 1931.23 4.31301 0.245734 0
M  V30 20800 C 1930.37 5.17343 1.2054 0
M  V30 20801 C 1929.41 6.10647 0.421486 0
M  V30 20802 N 1928.54 6.89344 1.33228 0
M  V30 20803 H 1933.38 2.89803 -0.694123 0
M  V30 20804 H 1930.92 1.42775 -0.354069 0
M  V30 20805 H 1932.88 3.85568 1.59353 0
M  V30 20806 H 1931.51 2.72302 1.73354 0
M  V30 20807 H 1930.56 3.77795 -0.44438 0
M  V30 20808 H 1931.87 4.97468 -0.364231 0
M  V30 20809 H 1931.03 5.77797 1.85029 0
M  V30 20810 H 1929.76 4.51279 1.84928 0
M  V30 20811 H 1928.77 5.4929 -0.236816 0
M  V30 20812 H 1929.99 6.7875 -0.217862 0
M  V30 20813 H 1927.94 6.25937 1.96312 0
M  V30 20814 H 1927.86 7.52 0.776653 0
M  V30 20815 H 1929.13 7.54311 1.9656 0
M  V30 20816 N 1933.35 0.385544 1.52811 0
M  V30 20817 C 1934.63 -0.255227 1.93928 0
M  V30 20818 C 1935.01 -1.64683 1.32071 0
M  V30 20819 O 1934.36 -2.23242 0.487363 0
M  V30 20820 C 1934.57 -0.285363 3.47831 0
M  V30 20821 C 1935.92 -0.516126 4.21451 0
M  V30 20822 O 1936.94 -0.365732 3.54317 0
M  V30 20823 O 1935.8 -0.810503 5.40456 0
M  V30 20824 H 1932.89 -0.157694 0.811826 0
M  V30 20825 H 1935.44 0.439779 1.63903 0
M  V30 20826 H 1934.21 0.68954 3.85177 0
M  V30 20827 H 1933.84 -1.02545 3.84149 0
M  V30 20828 N 1934.83 -1.57178 0.115259 0
M  V30 20829 C 1936.08 -1.94241 -0.54344 0
M  V30 20830 C 1936.39 -1.0006 -1.68069 0
M  V30 20831 O 1937.6 -1.26574 -2.4019 0
M  V30 20832 C 1936.06 -3.45199 -1.0181 0
M  V30 20833 C 1935.66 -4.47909 0.0904861 0
M  V30 20834 C 1937.41 -3.91188 -1.64839 0
M  V30 20835 C 1935.32 -5.90041 -0.400667 0
M  V30 20836 H 1934.25 -0.725092 -0.206778 0
M  V30 20837 H 1936.9 -1.82466 0.194509 0
M  V30 20838 H 1935.28 -3.52196 -1.81036 0
M  V30 20839 H 1936.45 -4.52577 0.866638 0
M  V30 20840 H 1934.77 -4.11649 0.627197 0
M  V30 20841 H 1937.36 -4.94792 -2.02694 0
M  V30 20842 H 1937.71 -3.30955 -2.52536 0
M  V30 20843 H 1938.24 -3.86977 -0.92161 0
M  V30 20844 H 1934.98 -6.54021 0.440159 0
M  V30 20845 H 1934.5 -5.88801 -1.14338 0
M  V30 20846 H 1936.18 -6.41217 -0.863111 0
M  V30 20847 N 1936.31 0.158505 -1.56801 0
M  V30 20848 C 1937.56 0.873038 -1.82714 0
M  V30 20849 C 1937.89 1.81683 -0.694361 0
M  V30 20850 O 1937.14 1.93108 0.31748 0
M  V30 20851 C 1937.44 1.69067 -3.14883 0
M  V30 20852 C 1937.11 0.894671 -4.41935 0
M  V30 20853 C 1935.77 0.675029 -4.76442 0
M  V30 20854 C 1938.12 0.337213 -5.20108 0
M  V30 20855 C 1935.45 -0.112965 -5.86591 0
M  V30 20856 C 1937.8 -0.43776 -6.31084 0
M  V30 20857 C 1936.46 -0.668085 -6.64148 0
M  V30 20858 H 1935.73 0.319467 -0.668597 0
M  V30 20859 H 1938.38 0.137273 -1.91007 0
M  V30 20860 H 1936.69 2.4962 -3.01988 0
M  V30 20861 H 1938.38 2.24679 -3.32145 0
M  V30 20862 H 1934.97 1.07592 -4.14876 0
M  V30 20863 H 1939.16 0.494212 -4.93833 0
M  V30 20864 H 1934.41 -0.301026 -6.10658 0
M  V30 20865 H 1938.59 -0.876909 -6.90857 0
M  V30 20866 H 1936.21 -1.28055 -7.49337 0
M  V30 20867 N 1937.79 1.51692 0.427485 0
M  V30 20868 C 1938.72 1.68413 1.53988 0
M  V30 20869 C 1939.7 0.531673 1.53662 0
M  V30 20870 O 1940.88 0.756748 1.72643 0
M  V30 20871 C 1938.01 1.70671 2.92556 0
M  V30 20872 C 1937.06 2.91998 3.10868 0
M  V30 20873 S 1937.89 4.52653 2.86122 0
M  V30 20874 C 1939.05 4.5767 4.26953 0
M  V30 20875 H 1939.28 2.62501 1.39573 0
M  V30 20876 H 1936.81 1.41499 0.617842 0
M  V30 20877 H 1938.77 1.72657 3.72424 0
M  V30 20878 H 1937.43 0.777425 3.04327 0
M  V30 20879 H 1936.62 2.90008 4.12203 0
M  V30 20880 H 1936.23 2.87805 2.38839 0
M  V30 20881 H 1938.52 4.33917 5.20309 0
M  V30 20882 H 1939.46 5.59529 4.33974 0
M  V30 20883 H 1939.87 3.8689 4.11067 0
M  V30 20884 N 1939.27 -0.683564 1.42004 0
M  V30 20885 C 1940.5 -1.4721 1.45386 0
M  V30 20886 C 1940.91 -1.88696 0.062603 0
M  V30 20887 O 1940.27 -1.5757 -0.920764 0
M  V30 20888 C 1940.32 -2.7269 2.37323 0
M  V30 20889 O 1940.04 -2.32947 3.71035 0
M  V30 20890 C 1941.54 -3.6633 2.49634 0
M  V30 20891 H 1938.76 -0.453255 0.494773 0
M  V30 20892 H 1941.3 -0.840646 1.86423 0
M  V30 20893 H 1939.46 -3.32044 1.99563 0
M  V30 20894 H 1939.87 -3.13915 4.20188 0
M  V30 20895 H 1941.35 -4.51125 3.18104 0
M  V30 20896 H 1941.82 -4.11636 1.53141 0
M  V30 20897 H 1942.43 -3.12874 2.8808 0
M  V30 20898 N 1940.75 -1.28031 -0.919012 0
M  V30 20899 C 1941.66 -1.13341 -2.05404 0
M  V30 20900 C 1942.67 -0.0612715 -1.73892 0
M  V30 20901 O 1943.85 -0.26951 -1.99589 0
M  V30 20902 C 1940.91 -0.791143 -3.37553 0
M  V30 20903 C 1939.97 -1.94509 -3.82707 0
M  V30 20904 C 1939.21 -1.61905 -5.08549 0
M  V30 20905 O 1939.43 -0.530962 -5.67923 0
M  V30 20906 O 1938.36 -2.46102 -5.49288 0
M  V30 20907 H 1942.19 -2.08613 -2.20713 0
M  V30 20908 H 1939.77 -1.073 -1.03957 0
M  V30 20909 H 1941.66 -0.613981 -4.16903 0
M  V30 20910 H 1940.33 0.131966 -3.23431 0
M  V30 20911 H 1939.24 -2.17737 -3.04206 0
M  V30 20912 H 1940.57 -2.84871 -4.01384 0
M  V30 20913 N 1942.22 1.12672 -1.10194 0
M  V30 20914 C 1943.13 2.2192 -0.76082 0
M  V30 20915 C 1944.15 1.72328 0.240604 0
M  V30 20916 O 1945.33 2.01241 0.0799808 0
M  V30 20917 C 1942.39 3.46151 -0.19501 0
M  V30 20918 C 1941.45 4.10595 -1.25339 0
M  V30 20919 C 1940.68 5.28896 -0.714485 0
M  V30 20920 O 1940.91 5.68543 0.459943 0
M  V30 20921 O 1939.84 5.83592 -1.47324 0
M  V30 20922 H 1943.67 2.53487 -1.67266 0
M  V30 20923 H 1941.25 1.20959 -0.876892 0
M  V30 20924 H 1943.13 4.21238 0.116809 0
M  V30 20925 H 1941.81 3.16266 0.689729 0
M  V30 20926 H 1940.72 3.37299 -1.61803 0
M  V30 20927 H 1942.05 4.44629 -2.11106 0
M  V30 20928 N 1943.7 0.89031 1.30043 0
M  V30 20929 C 1944.63 0.31832 2.26979 0
M  V30 20930 C 1945.65 -0.530108 1.53928 0
M  V30 20931 O 1946.84 -0.348791 1.75059 0
M  V30 20932 C 1943.94 -0.565563 3.34148 0
M  V30 20933 C 1943.11 0.255006 4.36656 0
M  V30 20934 C 1942.17 -0.560216 5.23209 0
M  V30 20935 O 1941.19 0.0189739 5.69197 0
M  V30 20936 N 1942.4 -1.86825 5.49615 0
M  V30 20937 H 1945.16 1.15143 2.76699 0
M  V30 20938 H 1942.72 0.753836 1.43279 0
M  V30 20939 H 1944.71 -1.11711 3.88976 0
M  V30 20940 H 1943.28 -1.29935 2.84316 0
M  V30 20941 H 1942.5 0.987993 3.81618 0
M  V30 20942 H 1943.79 0.817308 5.02193 0
M  V30 20943 H 1943.19 -2.36167 5.14045 0
M  V30 20944 H 1941.75 -2.36713 6.07297 0
M  V30 20945 N 1945.18 -1.43489 0.651812 0
M  V30 20946 C 1946.13 -2.30764 -0.0406423 0
M  V30 20947 C 1947.1 -1.44669 -0.816091 0
M  V30 20948 O 1948.28 -1.73541 -0.792978 0
M  V30 20949 C 1945.42 -3.30232 -1.00206 0
M  V30 20950 C 1944.53 -4.31425 -0.222857 0
M  V30 20951 C 1943.67 -5.17975 -1.17794 0
M  V30 20952 C 1942.71 -6.10862 -0.389096 0
M  V30 20953 N 1941.85 -6.90041 -1.2957 0
M  V30 20954 H 1946.69 -2.89431 0.709482 0
M  V30 20955 H 1944.22 -1.42585 0.361636 0
M  V30 20956 H 1946.18 -3.86408 -1.57306 0
M  V30 20957 H 1944.81 -2.73217 -1.71907 0
M  V30 20958 H 1943.86 -3.77554 0.464409 0
M  V30 20959 H 1945.17 -4.97268 0.390608 0
M  V30 20960 H 1944.33 -5.7877 -1.81962 0
M  V30 20961 H 1943.07 -4.52254 -1.82532 0
M  V30 20962 H 1942.07 -5.49156 0.265943 0
M  V30 20963 H 1943.3 -6.78625 0.253855 0
M  V30 20964 H 1941.24 -6.2697 -1.9299 0
M  V30 20965 H 1941.16 -7.52401 -0.736762 0
M  V30 20966 H 1942.43 -7.55342 -1.92557 0
M  V30 20967 N 1946.66 -0.393643 -1.52605 0
M  V30 20968 C 1947.6 0.439408 -2.26579 0
M  V30 20969 C 1948.57 1.05415 -1.28362 0
M  V30 20970 O 1949.76 1.08136 -1.57198 0
M  V30 20971 C 1946.9 1.55846 -3.07906 0
M  V30 20972 C 1946.01 0.966152 -4.21058 0
M  V30 20973 C 1945.15 2.05662 -4.89772 0
M  V30 20974 C 1944.19 1.44043 -5.9491 0
M  V30 20975 N 1943.32 2.47039 -6.57203 0
M  V30 20976 H 1948.16 -0.197864 -2.97342 0
M  V30 20977 H 1945.7 -0.109409 -1.46693 0
M  V30 20978 H 1947.66 2.21807 -3.53352 0
M  V30 20979 H 1946.29 2.16598 -2.39343 0
M  V30 20980 H 1945.34 0.196024 -3.79895 0
M  V30 20981 H 1946.65 0.475898 -4.96525 0
M  V30 20982 H 1945.81 2.79383 -5.38544 0
M  V30 20983 H 1944.55 2.58048 -4.13839 0
M  V30 20984 H 1943.55 0.688483 -5.45472 0
M  V30 20985 H 1944.78 0.924458 -6.72778 0
M  V30 20986 H 1942.72 2.98586 -5.84108 0
M  V30 20987 H 1942.64 2.02781 -7.28297 0
M  V30 20988 H 1943.91 3.20377 -7.10619 0
M  V30 20989 N 1948.14 1.57115 -0.123593 0
M  V30 20990 C 1949.37 1.99415 0.540103 0
M  V30 20991 C 1949.77 1.00228 1.60471 0
M  V30 20992 O 1949.12 -0.0123101 1.83696 0
M  V30 20993 C 1949.18 3.38134 1.22088 0
M  V30 20994 C 1948.84 4.5599 0.30367 0
M  V30 20995 C 1949.84 5.17865 -0.459524 0
M  V30 20996 C 1947.52 5.01846 0.213401 0
M  V30 20997 C 1949.52 6.23988 -1.30067 0
M  V30 20998 C 1947.21 6.0783 -0.631375 0
M  V30 20999 C 1948.2 6.68768 -1.38704 0
M  V30 21000 O 1947.89 7.72703 -2.21778 0
M  V30 21001 H 1947.62 0.659781 0.147192 0
M  V30 21002 H 1950.18 2.04343 -0.208128 0
M  V30 21003 H 1948.41 3.29975 2.01628 0
M  V30 21004 H 1950.1 3.64694 1.78195 0
M  V30 21005 H 1950.86 4.8335 -0.399683 0
M  V30 21006 H 1946.74 4.54158 0.791276 0
M  V30 21007 H 1950.29 6.71482 -1.89097 0
M  V30 21008 H 1946.18 6.41774 -0.692592 0
M  V30 21009 H 1946.95 7.8982 -2.1477 0
M  V30 21010 N 1949.61 -0.150187 1.56883 0
M  V30 21011 C 1950.84 -0.877076 1.87059 0
M  V30 21012 C 1951.25 -1.75396 0.709427 0
M  V30 21013 O 1950.59 -1.80711 -0.330043 0
M  V30 21014 C 1950.66 -1.78766 3.11902 0
M  V30 21015 C 1950.32 -1.08826 4.43853 0
M  V30 21016 C 1951.32 -0.443669 5.18003 0
M  V30 21017 C 1949 -1.07872 4.9058 0
M  V30 21018 C 1951 0.201122 6.37083 0
M  V30 21019 C 1948.68 -0.430111 6.09584 0
M  V30 21020 C 1949.68 0.208684 6.82681 0
M  V30 21021 O 1949.37 0.847012 7.99425 0
M  V30 21022 H 1949.1 -0.259157 0.62435 0
M  V30 21023 H 1951.66 -0.148664 2.04861 0
M  V30 21024 H 1949.89 -2.55693 2.901 0
M  V30 21025 H 1951.57 -2.38622 3.28351 0
M  V30 21026 H 1952.34 -0.442872 4.82974 0
M  V30 21027 H 1948.22 -1.56534 4.33611 0
M  V30 21028 H 1951.76 0.700316 6.94076 0
M  V30 21029 H 1947.66 -0.428563 6.44076 0
M  V30 21030 H 1948.43 0.748362 8.15072 0
M  V30 21031 N 1951.09 -1.51916 -0.419434 0
M  V30 21032 C 1952.04 -1.75117 -1.5309 0
M  V30 21033 C 1953.03 -0.617961 -1.57726 0
M  V30 21034 O 1954.24 -0.79977 -1.61257 0
M  V30 21035 H 1950.62 -0.553609 -0.508941 0
M  V30 21036 H 1952.59 -2.68253 -1.30702 0
M  V30 21037 C 1951.34 -1.90958 -2.90569 0
M  V30 21038 H 1950.66 -2.77571 -2.8774 0
M  V30 21039 H 1952.1 -2.11196 -3.67658 0
M  V30 21040 C 1950.56 -0.673977 -3.3009 0
M  V30 21041 O 1951.09 0.163 -4.01369 0
M  V30 21042 N 1949.29 -0.512857 -2.86039 0
M  V30 21043 H 1948.84 -1.19505 -2.28202 0
M  V30 21044 H 1948.8 0.312589 -3.12842 0
M  V30 21045 N 1952.57 0.676023 -1.42365 0
M  V30 21046 C 1953.53 1.77138 -1.45446 0
M  V30 21047 C 1954.53 1.57116 -0.342226 0
M  V30 21048 O 1955.72 1.63431 -0.602999 0
M  V30 21049 C 1952.86 3.15757 -1.28492 0
M  V30 21050 H 1954.05 1.75794 -2.42974 0
M  V30 21051 H 1951.6 0.885538 -1.28794 0
M  V30 21052 H 1952.34 3.22729 -0.318815 0
M  V30 21053 H 1952.12 3.31694 -2.09097 0
M  V30 21054 H 1953.61 3.95677 -1.33528 0
M  V30 21055 N 1954.05 1.28517 0.912209 0
M  V30 21056 C 1954.98 1.06898 2.01614 0
M  V30 21057 C 1955.96 -0.0154076 1.62593 0
M  V30 21058 O 1957.14 0.132828 1.88031 0
M  V30 21059 C 1954.27 0.624772 3.32888 0
M  V30 21060 C 1953.32 1.70603 3.90892 0
M  V30 21061 S 1954.15 3.30235 4.21551 0
M  V30 21062 C 1955.31 2.87652 5.55884 0
M  V30 21063 H 1955.54 2.00361 2.19642 0
M  V30 21064 H 1953.07 1.12522 1.05727 0
M  V30 21065 H 1955.03 0.375182 4.08782 0
M  V30 21066 H 1953.69 -0.290053 3.12758 0
M  V30 21067 H 1952.88 1.34687 4.8567 0
M  V30 21068 H 1952.49 1.90849 3.2164 0
M  V30 21069 H 1954.78 2.33919 6.35837 0
M  V30 21070 H 1955.72 3.81233 5.96713 0
M  V30 21071 H 1956.13 2.26321 5.17145 0
M  V30 21072 N 1955.53 -1.12086 1.1079 0
M  V30 21073 C 1956.47 -2.17926 0.760064 0
M  V30 21074 C 1957.44 -1.63967 -0.265316 0
M  V30 21075 O 1958.63 -1.90258 -0.143764 0
M  V30 21076 C 1955.77 -3.44508 0.202045 0
M  V30 21077 C 1954.88 -4.12503 1.28317 0
M  V30 21078 C 1954.02 -5.26747 0.686406 0
M  V30 21079 C 1953.06 -5.86614 1.74785 0
M  V30 21080 N 1952.19 -6.92264 1.17108 0
M  V30 21081 H 1957.03 -2.47025 1.66681 0
M  V30 21082 H 1954.57 -1.21275 0.832507 0
M  V30 21083 H 1956.53 -4.16967 -0.139401 0
M  V30 21084 H 1955.16 -3.15814 -0.667918 0
M  V30 21085 H 1954.21 -3.38186 1.74168 0
M  V30 21086 H 1955.52 -4.53063 2.08651 0
M  V30 21087 H 1954.68 -6.05984 0.294621 0
M  V30 21088 H 1953.41 -4.87474 -0.148334 0
M  V30 21089 H 1952.42 -5.0606 2.14902 0
M  V30 21090 H 1953.64 -6.27956 2.5855 0
M  V30 21091 H 1951.59 -6.55023 0.35787 0
M  V30 21092 H 1951.51 -7.31443 1.91122 0
M  V30 21093 H 1952.78 -7.75322 0.805966 0
M  V30 21094 N 1957 -0.897194 -1.29569 0
M  V30 21095 C 1957.95 -0.371435 -2.27792 0
M  V30 21096 C 1958.92 0.545087 -1.56901 0
M  V30 21097 O 1960.11 0.47087 -1.84899 0
M  V30 21098 C 1957.25 0.397236 -3.42806 0
M  V30 21099 C 1956.36 -0.549895 -4.28486 0
M  V30 21100 C 1955.49 0.23558 -5.30677 0
M  V30 21101 C 1954.53 -0.706236 -6.08012 0
M  V30 21102 N 1953.67 0.0446763 -7.02086 0
M  V30 21103 H 1958.51 -1.21414 -2.72145 0
M  V30 21104 H 1956.05 -0.610055 -1.33853 0
M  V30 21105 H 1958.01 0.858933 -4.08262 0
M  V30 21106 H 1956.64 1.20441 -2.99489 0
M  V30 21107 H 1955.69 -1.13011 -3.63226 0
M  V30 21108 H 1957 -1.27092 -4.82337 0
M  V30 21109 H 1956.15 0.758588 -6.01939 0
M  V30 21110 H 1954.89 0.989757 -4.77551 0
M  V30 21111 H 1953.9 -1.24077 -5.35617 0
M  V30 21112 H 1955.12 -1.4597 -6.63227 0
M  V30 21113 H 1953.07 0.781165 -6.51332 0
M  V30 21114 H 1952.99 -0.616488 -7.53482 0
M  V30 21115 H 1954.25 0.548029 -7.77571 0
M  V30 21116 N 1958.48 1.43142 -0.659413 0
M  V30 21117 C 1959.41 2.33495 0.0147266 0
M  V30 21118 C 1960.39 1.49819 0.805493 0
M  V30 21119 O 1961.58 1.78466 0.765732 0
M  V30 21120 C 1958.71 3.33261 0.977483 0
M  V30 21121 C 1957.66 4.26972 0.296396 0
M  V30 21122 C 1956.99 5.16824 1.37103 0
M  V30 21123 C 1958.29 5.15901 -0.815063 0
M  V30 21124 H 1959.98 2.90115 -0.739837 0
M  V30 21125 H 1957.53 1.39499 -0.357229 0
M  V30 21126 H 1959.48 3.95372 1.45805 0
M  V30 21127 H 1958.21 2.74911 1.76328 0
M  V30 21128 H 1956.86 3.66234 -0.16379 0
M  V30 21129 H 1956.51 4.5481 2.14842 0
M  V30 21130 H 1956.21 5.80345 0.920528 0
M  V30 21131 H 1957.74 5.81809 1.85284 0
M  V30 21132 H 1959.15 5.71786 -0.416382 0
M  V30 21133 H 1957.55 5.88175 -1.19041 0
M  V30 21134 H 1958.62 4.5522 -1.67042 0
M  V30 21135 N 1959.96 0.40173 1.52394 0
M  V30 21136 C 1961.21 -0.17611 2.01331 0
M  V30 21137 C 1961.53 -1.46274 1.28953 0
M  V30 21138 O 1960.8 -1.91492 0.413249 0
M  V30 21139 H 1959.38 -0.0680697 0.743892 0
M  V30 21140 H 1962.04 0.536274 1.87377 0
M  V30 21141 H 1961.14 -0.377497 3.09809 0
M  V30 21142 N 1961.44 -1.57047 0.131923 0
M  V30 21143 C 1962.66 -2.00419 -0.533574 0
M  V30 21144 C 1963.09 -1.01125 -1.58605 0
M  V30 21145 O 1962.45 0.0152254 -1.81294 0
M  V30 21146 C 1962.49 -3.42611 -1.12472 0
M  V30 21147 O 1961.6 -3.46263 -2.23999 0
M  V30 21148 H 1960.94 -0.650739 -0.132043 0
M  V30 21149 H 1963.47 -2.03368 0.224211 0
M  V30 21150 H 1963.48 -3.81094 -1.45709 0
M  V30 21151 H 1962.15 -4.14392 -0.353895 0
M  V30 21152 H 1960.73 -3.1961 -1.92103 0
M  V30 21153 N 1962.92 0.141865 -1.5696 0
M  V30 21154 C 1963.86 1.175 -1.98651 0
M  V30 21155 C 1964.83 1.42409 -0.854918 0
M  V30 21156 O 1966.02 1.54658 -1.11738 0
M  V30 21157 C 1963.16 2.50222 -2.37661 0
M  V30 21158 C 1962.27 2.32443 -3.64135 0
M  V30 21159 C 1961.41 3.58236 -3.92225 0
M  V30 21160 C 1960.45 3.35516 -5.11952 0
M  V30 21161 N 1959.58 4.53452 -5.36027 0
M  V30 21162 H 1964.42 0.812473 -2.8671 0
M  V30 21163 H 1961.96 0.389721 -1.41844 0
M  V30 21164 H 1963.92 3.27616 -2.58309 0
M  V30 21165 H 1962.55 2.84412 -1.52675 0
M  V30 21166 H 1961.6 1.46078 -3.51234 0
M  V30 21167 H 1962.91 2.11618 -4.51685 0
M  V30 21168 H 1962.07 4.44057 -4.13399 0
M  V30 21169 H 1960.8 3.8207 -3.03106 0
M  V30 21170 H 1959.81 2.48084 -4.90647 0
M  V30 21171 H 1961.03 3.13075 -6.02628 0
M  V30 21172 H 1958.98 4.7745 -4.49864 0
M  V30 21173 H 1958.9 4.35648 -6.17856 0
M  V30 21174 H 1960.17 5.40472 -5.61703 0
M  V30 21175 N 1964.39 1.52136 0.411372 0
M  V30 21176 C 1965.34 1.75318 1.50107 0
M  V30 21177 C 1966.31 0.595552 1.55056 0
M  V30 21178 O 1967.5 0.832859 1.71663 0
M  V30 21179 C 1964.64 1.9077 2.87578 0
M  V30 21180 C 1963.75 3.18411 2.91956 0
M  V30 21181 C 1962.88 3.24307 4.20712 0
M  V30 21182 C 1961.92 4.4616 4.19056 0
M  V30 21183 N 1961.06 4.49461 5.39379 0
M  V30 21184 H 1965.9 2.68323 1.29642 0
M  V30 21185 H 1963.44 1.32958 0.629326 0
M  V30 21186 H 1965.4 1.97711 3.67377 0
M  V30 21187 H 1964.03 1.01148 3.06543 0
M  V30 21188 H 1963.08 3.20652 2.04661 0
M  V30 21189 H 1964.39 4.08245 2.86597 0
M  V30 21190 H 1963.54 3.30308 5.08902 0
M  V30 21191 H 1962.28 2.32408 4.28763 0
M  V30 21192 H 1961.29 4.40308 3.29255 0
M  V30 21193 H 1962.51 5.39351 4.12646 0
M  V30 21194 H 1960.46 3.60444 5.48102 0
M  V30 21195 H 1960.38 5.33136 5.36005 0
M  V30 21196 H 1961.64 4.59688 6.29529 0
M  V30 21197 N 1965.87 -0.668464 1.42721 0
M  V30 21198 C 1967.28 -1.24925 1.38747 0
M  V30 21199 C 1967.64 -1.96021 0.0838911 0
M  V30 21200 O 1966.76 -2.00378 -0.817178 0
M  V30 21201 C 1967.36 -2.27201 2.51327 0
M  V30 21202 C 1965.91 -2.80792 2.50665 0
M  V30 21203 C 1965.06 -1.55205 2.29797 0
M  V30 21204 H 1968.01 -0.461443 1.51843 0
M  V30 21205 H 1968.03 -3.09067 2.21941 0
M  V30 21206 H 1967.55 -1.75428 3.46189 0
M  V30 21207 H 1965.65 -3.36669 1.59639 0
M  V30 21208 H 1965.76 -3.29376 3.4792 0
M  V30 21209 H 1964.12 -1.82004 1.78176 0
M  V30 21210 H 1964.91 -1.05389 3.26723 0
M  V30 21211 N 1967.35 -1.28999 -0.905381 0
M  V30 21212 C 1968.28 -1.09447 -2.0138 0
M  V30 21213 C 1969.3 -0.0436697 -1.62741 0
M  V30 21214 O 1970.49 -0.287603 -1.76168 0
M  V30 21215 C 1967.59 -0.642796 -3.32748 0
M  V30 21216 C 1966.76 -1.77086 -3.99949 0
M  V30 21217 C 1965.82 -1.31115 -5.09603 0
M  V30 21218 O 1964.84 -2.01488 -5.32345 0
M  V30 21219 N 1966.05 -0.178924 -5.80224 0
M  V30 21220 H 1968.81 -2.04906 -2.18709 0
M  V30 21221 H 1966.37 -1.20863 -1.07721 0
M  V30 21222 H 1968.36 -0.318684 -4.03443 0
M  V30 21223 H 1966.93 0.21918 -3.11831 0
M  V30 21224 H 1966.15 -2.26414 -3.22692 0
M  V30 21225 H 1967.44 -2.52736 -4.4159 0
M  V30 21226 H 1966.84 0.407926 -5.64227 0
M  V30 21227 H 1965.4 0.085857 -6.51743 0
M  V30 21228 N 1968.83 1.11497 -1.11383 0
M  V30 21229 C 1969.78 2.1752 -0.771611 0
M  V30 21230 C 1970.75 1.64106 0.256616 0
M  V30 21231 O 1971.93 1.90331 0.133672 0
M  V30 21232 C 1969.07 3.44396 -0.220313 0
M  V30 21233 C 1968.18 4.11817 -1.30503 0
M  V30 21234 C 1967.32 5.26375 -0.714331 0
M  V30 21235 C 1966.36 5.85679 -1.77894 0
M  V30 21236 N 1965.5 6.91634 -1.20778 0
M  V30 21237 H 1970.34 2.46138 -1.67989 0
M  V30 21238 H 1967.87 1.20832 -0.838927 0
M  V30 21239 H 1969.83 4.17035 0.117286 0
M  V30 21240 H 1968.46 3.16164 0.651161 0
M  V30 21241 H 1967.51 3.37258 -1.75959 0
M  V30 21242 H 1968.82 4.5195 -2.11051 0
M  V30 21243 H 1967.98 6.05819 -0.326754 0
M  V30 21244 H 1966.72 4.87546 0.12248 0
M  V30 21245 H 1965.72 5.04914 -2.17583 0
M  V30 21246 H 1966.95 6.26576 -2.61877 0
M  V30 21247 H 1964.89 6.54824 -0.392602 0
M  V30 21248 H 1964.81 7.30419 -1.94998 0
M  V30 21249 H 1966.08 7.74884 -0.847072 0
M  V30 21250 N 1970.31 0.904053 1.29092 0
M  V30 21251 C 1971.72 0.580096 1.77459 0
M  V30 21252 C 1972.07 -0.904375 1.74113 0
M  V30 21253 O 1971.19 -1.70724 1.32975 0
M  V30 21254 C 1971.79 1.04624 3.22241 0
M  V30 21255 C 1970.35 0.773375 3.68369 0
M  V30 21256 C 1969.5 1.21848 2.49095 0
M  V30 21257 H 1972.45 1.08633 1.15692 0
M  V30 21258 H 1972.47 0.383425 3.78563 0
M  V30 21259 H 1971.98 2.12669 3.24644 0
M  V30 21260 H 1970.08 -0.294271 3.71436 0
M  V30 21261 H 1970.19 1.37431 4.58966 0
M  V30 21262 H 1968.56 0.63739 2.46596 0
M  V30 21263 H 1969.34 2.30706 2.54223 0
M  V30 21264 N 1971.79 -1.4279 0.666995 0
M  V30 21265 C 1973.03 -2.00866 0.183286 0
M  V30 21266 C 1973.35 -1.53315 -1.21465 0
M  V30 21267 O 1974.55 -2.03756 -1.79432 0
M  V30 21268 C 1973.01 -3.58834 0.276836 0
M  V30 21269 C 1972.62 -4.15374 1.67834 0
M  V30 21270 C 1974.36 -4.2424 -0.14856 0
M  V30 21271 C 1972.27 -5.65681 1.72507 0
M  V30 21272 H 1971.2 -0.751214 0.0647613 0
M  V30 21273 H 1973.85 -1.63603 0.83104 0
M  V30 21274 H 1972.23 -3.93563 -0.438672 0
M  V30 21275 H 1973.41 -3.9212 2.4203 0
M  V30 21276 H 1971.72 -3.62391 2.0509 0
M  V30 21277 H 1974.32 -5.34533 -0.133681 0
M  V30 21278 H 1974.66 -3.99154 -1.18245 0
M  V30 21279 H 1975.19 -3.94444 0.51567 0
M  V30 21280 H 1971.93 -5.95555 2.73852 0
M  V30 21281 H 1971.45 -5.9095 1.02655 0
M  V30 21282 H 1973.13 -6.29963 1.47499 0
M  V30 21283 N 1973.26 -0.409806 -1.52179 0
M  V30 21284 C 1974.67 0.0596356 -1.86605 0
M  V30 21285 C 1975.03 1.44377 -1.32852 0
M  V30 21286 O 1974.15 2.05829 -0.668074 0
M  V30 21287 C 1974.75 0.114992 -3.38605 0
M  V30 21288 C 1973.3 0.528771 -3.72667 0
M  V30 21289 C 1972.45 -0.29629 -2.75713 0
M  V30 21290 H 1975.4 -0.626843 -1.45796 0
M  V30 21291 H 1975.42 0.930114 -3.68957 0
M  V30 21292 H 1974.94 -0.892535 -3.77698 0
M  V30 21293 H 1973.04 1.54291 -3.39153 0
M  V30 21294 H 1973.15 0.272687 -4.78323 0
M  V30 21295 H 1971.51 0.241468 -2.53553 0
M  V30 21296 H 1972.3 -1.30218 -3.17645 0
M  V30 21297 N 1974.74 1.56975 -0.14025 0
M  V30 21298 C 1976.16 1.58129 0.216215 0
M  V30 21299 C 1976.36 1.15417 1.6517 0
M  V30 21300 O 1975.41 0.851345 2.37715 0
M  V30 21301 C 1976.73 3.00678 -0.0364108 0
M  V30 21302 C 1978.27 3.12988 0.0278286 0
M  V30 21303 C 1978.75 4.57574 -0.197378 0
M  V30 21304 N 1980.24 4.62976 -0.144073 0
M  V30 21305 C 1980.98 5.72651 -0.292931 0
M  V30 21306 N 1980.47 6.91 -0.499138 0
M  V30 21307 N 1982.26 5.61625 -0.231008 0
M  V30 21308 H 1974.42 1.83033 -1.07762 0
M  V30 21309 H 1976.68 0.846871 -0.426044 0
M  V30 21310 H 1976.38 3.36291 -1.02963 0
M  V30 21311 H 1976.26 3.70909 0.686026 0
M  V30 21312 H 1978.65 2.7722 1.01159 0
M  V30 21313 H 1978.73 2.45257 -0.726829 0
M  V30 21314 H 1978.37 4.94045 -1.17821 0
M  V30 21315 H 1978.3 5.23424 0.577522 0
M  V30 21316 H 1980.79 3.77898 0.0109252 0
M  V30 21317 H 1981.1 7.70444 -0.603012 0
M  V30 21318 H 1979.45 6.92935 -0.535376 0
M  V30 21319 H 1982.64 4.68047 -0.0707224 0
M  V30 21320 H 1982.81 6.47052 -0.350455 0
M  V30 21321 N 1976.22 -0.133539 1.57033 0
M  V30 21322 C 1977.63 -0.692222 1.73393 0
M  V30 21323 C 1977.98 -1.81019 0.756735 0
M  V30 21324 O 1977.11 -2.16275 -0.0736448 0
M  V30 21325 C 1977.7 -1.26245 3.144 0
M  V30 21326 C 1976.26 -1.76756 3.32316 0
M  V30 21327 C 1975.41 -0.661397 2.69297 0
M  V30 21328 H 1978.36 0.0922563 1.58432 0
M  V30 21329 H 1978.38 -2.13221 3.15146 0
M  V30 21330 H 1977.89 -0.44855 3.85499 0
M  V30 21331 H 1975.99 -2.6067 2.66236 0
M  V30 21332 H 1976.11 -1.88702 4.40373 0
M  V30 21333 H 1974.47 -1.0914 2.30132 0
M  V30 21334 H 1975.25 0.141281 3.43009 0
M  V30 21335 N 1977.7 -1.52352 -0.403298 0
M  V30 21336 C 1978.63 -1.72347 -1.51093 0
M  V30 21337 C 1979.64 -0.603886 -1.51186 0
M  V30 21338 O 1980.83 -0.879203 -1.55346 0
M  V30 21339 C 1977.93 -1.75407 -2.89975 0
M  V30 21340 C 1977.1 -3.04495 -3.14009 0
M  V30 21341 C 1976.16 -2.9929 -4.32795 0
M  V30 21342 O 1975.19 -3.73185 -4.29792 0
M  V30 21343 N 1976.39 -2.17484 -5.3822 0
M  V30 21344 H 1979.16 -2.67908 -1.34333 0
M  V30 21345 H 1976.72 -1.50662 -0.592661 0
M  V30 21346 H 1978.71 -1.6945 -3.67517 0
M  V30 21347 H 1977.28 -0.87295 -3.00164 0
M  V30 21348 H 1976.5 -3.24056 -2.24458 0
M  V30 21349 H 1977.79 -3.89879 -3.26913 0
M  V30 21350 H 1977.19 -1.56888 -5.4351 0
M  V30 21351 H 1975.74 -2.17378 -6.14484 0
M  V30 21352 N 1979.18 0.660885 -1.43074 0
M  V30 21353 C 1980.12 1.79529 -1.47892 0
M  V30 21354 C 1981.12 1.65676 -0.353254 0
M  V30 21355 O 1982.32 1.72115 -0.526903 0
M  V30 21356 H 1978.7 0.592191 -0.46348 0
M  V30 21357 H 1980.67 1.72584 -2.43428 0
M  V30 21358 C 1979.42 3.17753 -1.41167 0
M  V30 21359 H 1978.74 3.29047 -2.27087 0
M  V30 21360 H 1980.18 3.97107 -1.486 0
M  V30 21361 C 1978.64 3.36656 -0.128241 0
M  V30 21362 O 1979.17 3.93376 0.813504 0
M  V30 21363 N 1977.38 2.90571 -0.0408985 0
M  V30 21364 H 1976.92 2.44598 -0.808059 0
M  V30 21365 H 1976.88 3.03595 0.817147 0
M  V30 21366 N 1980.65 1.29477 0.898527 0
M  V30 21367 C 1981.6 1.14706 2.00278 0
M  V30 21368 C 1982.57 0.040077 1.66052 0
M  V30 21369 O 1983.76 0.207808 1.89665 0
M  V30 21370 C 1980.9 0.830802 3.3495 0
M  V30 21371 C 1980.01 2.01834 3.81952 0
M  V30 21372 C 1979.14 1.64135 5.05206 0
M  V30 21373 C 1978.18 2.79464 5.44579 0
M  V30 21374 N 1977.32 2.42153 6.59019 0
M  V30 21375 H 1982.16 2.09181 2.12244 0
M  V30 21376 H 1979.7 1.04092 1.03939 0
M  V30 21377 H 1981.66 0.628119 4.12445 0
M  V30 21378 H 1980.29 -0.0770431 3.22708 0
M  V30 21379 H 1979.34 2.33269 3.00483 0
M  V30 21380 H 1980.65 2.88247 4.07081 0
M  V30 21381 H 1979.8 1.40163 5.90288 0
M  V30 21382 H 1978.54 0.748722 4.81918 0
M  V30 21383 H 1977.55 3.04117 4.58031 0
M  V30 21384 H 1978.77 3.69393 5.69847 0
M  V30 21385 H 1976.72 1.55379 6.37333 0
M  V30 21386 H 1976.64 3.221 6.8395 0
M  V30 21387 H 1977.9 2.21503 7.47366 0
M  V30 21388 N 1982.13 -1.10905 1.11972 0
M  V30 21389 C 1983.38 -1.82127 0.866753 0
M  V30 21390 C 1983.69 -1.85866 -0.609372 0
M  V30 21391 O 1984.9 -2.53243 -0.978781 0
M  V30 21392 C 1983.36 -3.27109 1.50093 0
M  V30 21393 C 1982.96 -3.31682 3.01149 0
M  V30 21394 C 1984.71 -4.03192 1.32803 0
M  V30 21395 C 1982.62 -4.71095 3.57524 0
M  V30 21396 H 1981.55 -0.682444 0.320604 0
M  V30 21397 H 1984.2 -1.24759 1.34564 0
M  V30 21398 H 1982.58 -3.84443 0.949712 0
M  V30 21399 H 1983.75 -2.84199 3.62722 0
M  V30 21400 H 1982.07 -2.69082 3.17779 0
M  V30 21401 H 1984.66 -5.06162 1.72348 0
M  V30 21402 H 1985.01 -4.15416 0.271181 0
M  V30 21403 H 1985.54 -3.52259 1.84819 0
M  V30 21404 H 1982.28 -4.6407 4.62947 0
M  V30 21405 H 1981.8 -5.18965 3.00725 0
M  V30 21406 H 1983.48 -5.40059 3.56294 0
M  V30 21407 N 1983.61 -0.910886 -1.2861 0
M  V30 21408 C 1984.54 -0.35439 -2.26444 0
M  V30 21409 C 1985.56 0.505552 -1.54751 0
M  V30 21410 O 1986.74 0.320897 -1.75592 0
M  V30 21411 C 1983.84 0.512332 -3.35005 0
M  V30 21412 C 1983.02 -0.324442 -4.36195 0
M  V30 21413 C 1982.08 0.476907 -5.24034 0
M  V30 21414 O 1981.1 -0.109526 -5.69095 0
M  V30 21415 N 1982.3 1.78057 -5.52518 0
M  V30 21416 H 1985.07 -1.1953 -2.74832 0
M  V30 21417 H 1982.63 -0.776536 -1.42062 0
M  V30 21418 H 1984.62 1.05509 -3.90704 0
M  V30 21419 H 1983.19 1.25395 -2.86347 0
M  V30 21420 H 1982.41 -1.04858 -3.79998 0
M  V30 21421 H 1983.7 -0.897099 -5.00829 0
M  V30 21422 H 1983.1 2.27959 -5.17737 0
M  V30 21423 H 1981.66 2.27022 -6.10986 0
M  V30 21424 N 1985.09 1.42434 -0.674558 0
M  V30 21425 C 1986.34 2.01144 -0.196332 0
M  V30 21426 C 1986.66 1.53605 1.20127 0
M  V30 21427 O 1985.93 0.757627 1.80657 0
M  V30 21428 H 1984.51 0.743751 -0.0695937 0
M  V30 21429 H 1987.17 1.74354 -0.871013 0
M  V30 21430 H 1986.27 3.11475 -0.197426 0
M  V30 21431 N 1986.57 0.417871 1.51959 0
M  V30 21432 C 1987.5 -0.448093 2.23757 0
M  V30 21433 C 1988.48 -1.04082 1.24923 0
M  V30 21434 O 1989.66 -1.08702 1.54 0
M  V30 21435 C 1986.79 -1.62276 2.97295 0
M  V30 21436 C 1985.83 -1.15258 4.10631 0
M  V30 21437 S 1986.67 -0.110541 5.35386 0
M  V30 21438 C 1987.82 -1.29033 6.12455 0
M  V30 21439 H 1988.06 0.161521 2.96861 0
M  V30 21440 H 1985.59 0.202231 1.5307 0
M  V30 21441 H 1987.55 -2.29628 3.40267 0
M  V30 21442 H 1986.21 -2.20373 2.23818 0
M  V30 21443 H 1985.4 -2.03044 4.61291 0
M  V30 21444 H 1985 -0.557582 3.6982 0
M  V30 21445 H 1987.3 -2.21233 6.40361 0
M  V30 21446 H 1988.24 -0.824085 7.03288 0
M  V30 21447 H 1988.65 -1.52008 5.43649 0
M  V30 21448 N 1988.04 -1.56898 0.148573 0
M  V30 21449 C 1989.29 -1.96466 -0.50289 0
M  V30 21450 C 1989.62 -1.03355 -1.64412 0
M  V30 21451 O 1988.9 -0.0762411 -1.94351 0
M  V30 21452 C 1989.18 -3.45717 -1.00757 0
M  V30 21453 C 1989.03 -4.49605 0.132277 0
M  V30 21454 C 1990.35 -3.97506 -1.88883 0
M  V30 21455 H 1987.47 -0.714345 -0.181328 0
M  V30 21456 H 1990.11 -1.88601 0.230117 0
M  V30 21457 H 1988.26 -3.5255 -1.6322 0
M  V30 21458 H 1989.94 -4.54851 0.76867 0
M  V30 21459 H 1988.18 -4.26524 0.791189 0
M  V30 21460 H 1988.85 -5.51375 -0.262585 0
M  V30 21461 H 1991.33 -3.93162 -1.36246 0
M  V30 21462 H 1990.2 -5.02399 -2.21104 0
M  V30 21463 H 1990.46 -3.39956 -2.82635 0
M  V30 21464 N 1989.52 0.125209 -1.57102 0
M  V30 21465 C 1990.75 0.847206 -1.8843 0
M  V30 21466 C 1991.16 1.74245 -0.737241 0
M  V30 21467 O 1990.5 1.81213 0.301252 0
M  V30 21468 C 1990.57 1.73781 -3.14707 0
M  V30 21469 C 1990.23 1.01751 -4.45529 0
M  V30 21470 C 1991.23 0.361203 -5.18644 0
M  V30 21471 C 1988.91 1.00053 -4.92234 0
M  V30 21472 C 1990.91 -0.302451 -6.36682 0
M  V30 21473 C 1988.59 0.333077 -6.10192 0
M  V30 21474 C 1989.59 -0.317266 -6.82263 0
M  V30 21475 O 1989.28 -0.974086 -7.97977 0
M  V30 21476 H 1989.01 0.249192 -0.628394 0
M  V30 21477 H 1991.56 0.116054 -2.05072 0
M  V30 21478 H 1989.79 2.51045 -2.94131 0
M  V30 21479 H 1991.48 2.33368 -3.32105 0
M  V30 21480 H 1992.25 0.365979 -4.83617 0
M  V30 21481 H 1988.13 1.49616 -4.36046 0
M  V30 21482 H 1991.67 -0.810649 -6.92874 0
M  V30 21483 H 1987.57 0.326042 -6.44676 0
M  V30 21484 H 1988.34 -0.877938 -8.13778 0
M  V30 21485 N 1991 1.52564 0.395213 0
M  V30 21486 C 1992.28 1.5788 1.1547 0
M  V30 21487 C 1992.66 0.36821 2.07864 0
M  V30 21488 O 1992.01 -0.643933 2.19239 0
M  V30 21489 C 1992.22 2.91451 1.91982 0
M  V30 21490 C 1993.56 3.44961 2.47562 0
M  V30 21491 O 1994.59 2.93284 2.02146 0
M  V30 21492 O 1993.45 4.35233 3.30506 0
M  V30 21493 H 1990.54 0.636516 0.527993 0
M  V30 21494 H 1993.09 1.64897 0.400867 0
M  V30 21495 H 1991.86 3.71006 1.2438 0
M  V30 21496 H 1991.48 2.8779 2.7434 0
M  V30 21497 N 1992.48 -0.653289 1.43422 0
M  V30 21498 C 1993.41 -1.77779 1.51383 0
M  V30 21499 C 1994.39 -1.6606 0.368515 0
M  V30 21500 O 1995.57 -1.85157 0.585721 0
M  V30 21501 C 1992.7 -3.16206 1.43635 0
M  V30 21502 C 1991.66 -3.42688 2.56415 0
M  V30 21503 C 1990.98 -4.80915 2.3372 0
M  V30 21504 C 1992.28 -3.3744 3.98662 0
M  V30 21505 H 1993.98 -1.71374 2.45502 0
M  V30 21506 H 1991.52 -0.823062 1.1816 0
M  V30 21507 H 1993.48 -3.94627 1.47808 0
M  V30 21508 H 1992.2 -3.23341 0.460202 0
M  V30 21509 H 1990.86 -2.66638 2.51594 0
M  V30 21510 H 1990.51 -4.84726 1.34349 0
M  V30 21511 H 1990.21 -4.99594 3.09321 0
M  V30 21512 H 1991.73 -5.61594 2.39677 0
M  V30 21513 H 1993.15 -4.05798 4.0497 0
M  V30 21514 H 1991.54 -3.67656 4.74288 0
M  V30 21515 H 1992.61 -2.35624 4.23803 0
M  V30 21516 N 1993.96 -1.29952 -0.891648 0
M  V30 21517 C 1995.2 -1.18565 -1.6453 0
M  V30 21518 C 1995.54 0.260539 -1.92444 0
M  V30 21519 O 1994.81 1.18723 -1.54062 0
M  V30 21520 C 1995.09 -2.00774 -2.98934 0
M  V30 21521 C 1994.95 -3.53577 -2.78035 0
M  V30 21522 C 1996.27 -1.84038 -3.99772 0
M  V30 21523 H 1993.38 -0.432073 -0.597061 0
M  V30 21524 H 1996.03 -1.59512 -1.03227 0
M  V30 21525 H 1994.18 -1.65981 -3.51258 0
M  V30 21526 H 1995.85 -3.98394 -2.3255 0
M  V30 21527 H 1994.09 -3.78095 -2.12665 0
M  V30 21528 H 1994.76 -4.06381 -3.73575 0
M  V30 21529 H 1997.24 -2.14444 -3.56585 0
M  V30 21530 H 1996.11 -2.43896 -4.91737 0
M  V30 21531 H 1996.38 -0.797726 -4.34843 0
M  V30 21532 N 1995.44 1.1031 -1.12559 0
M  V30 21533 C 1996.66 1.86078 -0.90458 0
M  V30 21534 C 1997.08 1.80726 0.546224 0
M  V30 21535 O 1996.44 1.1969 1.3777 0
M  V30 21536 C 1996.49 3.34425 -1.37268 0
M  V30 21537 O 1996.21 3.39691 -2.76661 0
M  V30 21538 C 1997.71 4.27063 -1.18879 0
M  V30 21539 H 1994.93 0.588055 -0.32316 0
M  V30 21540 H 1997.47 1.39441 -1.49588 0
M  V30 21541 H 1995.63 3.78523 -0.824578 0
M  V30 21542 H 1996.04 4.3215 -2.97232 0
M  V30 21543 H 1997.52 5.29345 -1.56518 0
M  V30 21544 H 1997.99 4.39009 -0.129502 0
M  V30 21545 H 1998.6 3.88771 -1.72445 0
M  V30 21546 N 1996.91 0.917694 1.28125 0
M  V30 21547 C 1997.86 0.407628 2.27172 0
M  V30 21548 C 1998.83 -0.520056 1.57749 0
M  V30 21549 O 2000.02 -0.441394 1.85624 0
M  V30 21550 C 1997.16 -0.342648 3.43395 0
M  V30 21551 C 1996.27 0.617993 4.27557 0
M  V30 21552 C 1995.4 -0.151124 5.30985 0
M  V30 21553 C 1994.44 0.802876 6.06812 0
M  V30 21554 N 1993.58 0.0670251 7.02068 0
M  V30 21555 H 1998.42 1.25728 2.70179 0
M  V30 21556 H 1995.96 0.631273 1.32866 0
M  V30 21557 H 1997.91 -0.793873 4.09577 0
M  V30 21558 H 1996.54 -1.15661 3.01367 0
M  V30 21559 H 1995.6 1.18775 3.61382 0
M  V30 21560 H 1996.91 1.3475 4.80254 0
M  V30 21561 H 1996.06 -0.662729 6.03069 0
M  V30 21562 H 1994.8 -0.913657 4.79065 0
M  V30 21563 H 1993.81 1.32582 5.33575 0
M  V30 21564 H 1995.03 1.56503 6.6082 0
M  V30 21565 H 1992.98 -0.677445 6.52493 0
M  V30 21566 H 1992.89 0.736283 7.52406 0
M  V30 21567 H 1994.16 -0.424255 7.78345 0
M  V30 21568 N 1998.39 -1.42074 0.682102 0
M  V30 21569 C 1999.32 -2.29179 -0.0307054 0
M  V30 21570 C 2000.34 -1.44071 -0.758119 0
M  V30 21571 O 2001.53 -1.67715 -0.611062 0
M  V30 21572 C 1998.63 -3.21654 -1.06734 0
M  V30 21573 C 1997.8 -4.35453 -0.41228 0
M  V30 21574 C 1996.86 -5.08596 -1.34969 0
M  V30 21575 O 1995.88 -5.6286 -0.847209 0
M  V30 21576 N 1997.09 -5.14794 -2.68267 0
M  V30 21577 H 1999.85 -2.90995 0.71706 0
M  V30 21578 H 1997.41 -1.5308 0.52708 0
M  V30 21579 H 1999.4 -3.67453 -1.69589 0
M  V30 21580 H 1997.97 -2.61239 -1.71677 0
M  V30 21581 H 1997.19 -3.92207 0.395908 0
M  V30 21582 H 1998.48 -5.08781 0.0437707 0
M  V30 21583 H 1997.88 -4.72131 -3.11623 0
M  V30 21584 H 1996.44 -5.64215 -3.26351 0
M  V30 21585 N 1999.87 -0.425924 -1.51735 0
M  V30 21586 C 2000.83 0.379497 -2.26036 0
M  V30 21587 C 2001.83 0.95944 -1.2904 0
M  V30 21588 O 2003.02 0.83568 -1.52846 0
M  V30 21589 C 2000.15 1.5358 -3.04345 0
M  V30 21590 H 2001.35 -0.271515 -2.98668 0
M  V30 21591 H 1998.9 -0.17882 -1.55274 0
M  V30 21592 H 1999.64 2.2232 -2.36103 0
M  V30 21593 H 1999.42 1.12626 -3.75577 0
M  V30 21594 H 2000.91 2.10513 -3.60658 0
M  V30 21595 N 2001.35 1.56817 -0.156891 0
M  V30 21596 C 2002.59 1.96439 0.491735 0
M  V30 21597 C 2002.92 1.04222 1.64219 0
M  V30 21598 O 2002.18 0.0733934 1.95562 0
M  V30 21599 C 2002.48 3.42242 1.02981 0
M  V30 21600 C 2002.14 4.509 -0.00322619 0
M  V30 21601 C 2000.8 4.80342 -0.28718 0
M  V30 21602 C 2003.16 5.16407 -0.70518 0
M  V30 21603 C 2000.48 5.72595 -1.27872 0
M  V30 21604 C 2002.84 6.09729 -1.68561 0
M  V30 21605 C 2001.5 6.37546 -1.97716 0
M  V30 21606 H 2000.77 0.718821 0.179939 0
M  V30 21607 H 2003.42 1.89916 -0.24581 0
M  V30 21608 H 2001.72 3.45646 1.8449 0
M  V30 21609 H 2003.42 3.70232 1.54043 0
M  V30 21610 H 2000.01 4.27992 0.228269 0
M  V30 21611 H 2004.19 4.93785 -0.499006 0
M  V30 21612 H 1999.45 5.92436 -1.51094 0
M  V30 21613 H 2003.62 6.59562 -2.23498 0
M  V30 21614 H 2001.25 7.08833 -2.74698 0
M  V30 21615 N 2002.83 -0.116876 1.57166 0
M  V30 21616 C 2004.1 -0.854715 1.75937 0
M  V30 21617 C 2004.48 -1.97969 0.732908 0
M  V30 21618 O 2003.83 -2.27207 -0.242738 0
M  V30 21619 C 2004.04 -1.36944 3.2101 0
M  V30 21620 C 2005.39 -1.82093 3.83572 0
M  V30 21621 O 2006.41 -1.46618 3.24625 0
M  V30 21622 O 2005.27 -2.47614 4.87186 0
M  V30 21623 H 2002.37 -0.40605 0.720453 0
M  V30 21624 H 2004.91 -0.100451 1.69402 0
M  V30 21625 H 2003.68 -0.56241 3.87237 0
M  V30 21626 H 2003.31 -2.18635 3.32091 0
M  V30 21627 N 2004.3 -1.52772 -0.387116 0
M  V30 21628 C 2005.55 -1.67131 -1.12916 0
M  V30 21629 C 2005.87 -0.418501 -1.9107 0
M  V30 21630 O 2007.07 -0.442261 -2.67874 0
M  V30 21631 C 2005.53 -2.95368 -2.05635 0
M  V30 21632 C 2005.14 -4.27835 -1.32895 0
M  V30 21633 C 2006.88 -3.19093 -2.79964 0
M  V30 21634 C 2004.79 -5.47177 -2.2439 0
M  V30 21635 H 2003.72 -0.622655 -0.425225 0
M  V30 21636 H 2006.37 -1.79268 -0.391801 0
M  V30 21637 H 2004.75 -2.76981 -2.83015 0
M  V30 21638 H 2005.92 -4.56781 -0.607276 0
M  V30 21639 H 2004.24 -4.10385 -0.705181 0
M  V30 21640 H 2006.84 -4.05436 -3.48605 0
M  V30 21641 H 2007.18 -2.34244 -3.44145 0
M  V30 21642 H 2007.71 -3.38054 -2.09676 0
M  V30 21643 H 2004.45 -6.3444 -1.64822 0
M  V30 21644 H 2003.97 -5.22541 -2.94468 0
M  V30 21645 H 2005.65 -5.81126 -2.84432 0
M  V30 21646 N 2005.78 0.645673 -1.43767 0
M  V30 21647 C 2007.01 1.43303 -1.49237 0
M  V30 21648 C 2007.42 1.88464 -0.11261 0
M  V30 21649 O 2006.78 1.59955 0.878664 0
M  V30 21650 C 2006.83 2.66302 -2.4447 0
M  V30 21651 O 2006.55 2.23028 -3.77081 0
M  V30 21652 C 2008.05 3.59583 -2.59259 0
M  V30 21653 H 2005.27 0.439978 -0.506617 0
M  V30 21654 H 2007.82 0.790924 -1.88586 0
M  V30 21655 H 2005.97 3.26636 -2.08296 0
M  V30 21656 H 2006.39 3.02664 -4.28363 0
M  V30 21657 H 2007.86 4.42532 -3.29953 0
M  V30 21658 H 2008.34 4.07431 -1.64001 0
M  V30 21659 H 2008.94 3.05126 -2.96274 0
M  V30 21660 N 2007.26 1.30423 0.884744 0
M  V30 21661 C 2008.51 1.18625 1.63129 0
M  V30 21662 C 2008.82 -0.257953 1.93892 0
M  V30 21663 O 2010.03 -0.497448 2.66904 0
M  V30 21664 C 2008.48 2.0757 2.94011 0
M  V30 21665 C 2008.09 3.569 2.70788 0
M  V30 21666 C 2009.84 2.04535 3.71975 0
M  V30 21667 C 2007.74 4.37901 3.97488 0
M  V30 21668 H 2006.67 0.440391 0.612023 0
M  V30 21669 H 2009.32 1.55172 0.979478 0
M  V30 21670 H 2007.71 1.63905 3.60487 0
M  V30 21671 H 2008.88 4.08715 2.12812 0
M  V30 21672 H 2007.19 3.61761 2.06199 0
M  V30 21673 H 2009.79 2.62305 4.6594 0
M  V30 21674 H 2010.13 1.02888 4.03385 0
M  V30 21675 H 2010.67 2.46322 3.12362 0
M  V30 21676 H 2007.41 5.40244 3.71236 0
M  V30 21677 H 2006.93 3.9085 4.54968 0
M  V30 21678 H 2008.61 4.49347 4.65506 0
M  V30 21679 N 2008.74 -1.09711 1.13142 0
M  V30 21680 C 2009.67 -2.1553 0.749806 0
M  V30 21681 C 2010.65 -1.60466 -0.262593 0
M  V30 21682 O 2011.83 -1.87863 -0.154785 0
M  V30 21683 C 2008.96 -3.38518 0.111052 0
M  V30 21684 C 2008.01 -4.12297 1.09147 0
M  V30 21685 S 2008.84 -4.66885 2.62257 0
M  V30 21686 C 2009.99 -5.93176 1.99733 0
M  V30 21687 H 2010.23 -2.47568 1.64613 0
M  V30 21688 H 2007.76 -1.21615 0.951273 0
M  V30 21689 H 2009.72 -4.09731 -0.251096 0
M  V30 21690 H 2008.38 -3.04704 -0.762499 0
M  V30 21691 H 2007.57 -5.00507 0.592307 0
M  V30 21692 H 2007.17 -3.46932 1.39694 0
M  V30 21693 H 2009.47 -6.64023 1.34461 0
M  V30 21694 H 2010.41 -6.47767 2.86013 0
M  V30 21695 H 2010.82 -5.45557 1.45009 0
M  V30 21696 N 2010.22 -0.924476 -1.27637 0
M  V30 21697 C 2011.47 -0.559056 -1.93797 0
M  V30 21698 C 2011.78 0.903501 -1.73483 0
M  V30 21699 O 2012.98 1.37756 -2.33956 0
M  V30 21700 C 2011.44 -0.949035 -3.47162 0
M  V30 21701 C 2011.05 -2.43205 -3.76238 0
M  V30 21702 C 2012.79 -0.654714 -4.19421 0
M  V30 21703 C 2010.7 -2.7616 -5.22962 0
M  V30 21704 H 2009.63 -0.205363 -0.725494 0
M  V30 21705 H 2012.28 -1.12485 -1.4498 0
M  V30 21706 H 2010.66 -0.311922 -3.9477 0
M  V30 21707 H 2011.84 -3.1168 -3.39399 0
M  V30 21708 H 2010.15 -2.69794 -3.17176 0
M  V30 21709 H 2012.75 -0.877465 -5.27451 0
M  V30 21710 H 2013.09 0.407944 -4.14296 0
M  V30 21711 H 2013.62 -1.25078 -3.77625 0
M  V30 21712 H 2010.36 -3.81322 -5.33173 0
M  V30 21713 H 2009.88 -2.12332 -5.60959 0
M  V30 21714 H 2011.56 -2.63732 -5.90808 0
M  V30 21715 N 2011.69 1.41711 -0.689627 0
M  V30 21716 C 2012.62 2.33474 -0.0348045 0
M  V30 21717 C 2013.61 1.51494 0.773533 0
M  V30 21718 O 2014.79 1.8005 0.727705 0
M  V30 21719 C 2011.92 3.35259 0.906573 0
M  V30 21720 C 2010.87 4.27505 0.205762 0
M  V30 21721 C 2010.2 5.19616 1.26109 0
M  V30 21722 C 2011.5 5.14056 -0.92431 0
M  V30 21723 H 2013.19 2.88481 -0.801208 0
M  V30 21724 H 2010.74 1.3871 -0.386738 0
M  V30 21725 H 2012.69 3.98375 1.37386 0
M  V30 21726 H 2011.42 2.78589 1.70457 0
M  V30 21727 H 2010.08 3.65804 -0.241437 0
M  V30 21728 H 2009.72 4.59264 2.05147 0
M  V30 21729 H 2009.42 5.82167 0.797221 0
M  V30 21730 H 2010.95 5.85609 1.72901 0
M  V30 21731 H 2012.36 5.70774 -0.537573 0
M  V30 21732 H 2010.76 5.85517 -1.3149 0
M  V30 21733 H 2011.83 4.51574 -1.7666 0
M  V30 21734 N 2013.17 0.433965 1.51507 0
M  V30 21735 C 2014.42 -0.135114 2.01247 0
M  V30 21736 C 2014.73 -1.4408 1.32289 0
M  V30 21737 O 2015.94 -2.09262 1.72979 0
M  V30 21738 C 2014.4 -0.291335 3.58719 0
M  V30 21739 C 2014 1.00372 4.36611 0
M  V30 21740 C 2015.75 -0.814365 4.16615 0
M  V30 21741 C 2013.66 0.813324 5.85781 0
M  V30 21742 H 2012.59 -0.0542694 0.752044 0
M  V30 21743 H 2015.24 0.563211 1.74643 0
M  V30 21744 H 2013.62 -1.05258 3.81755 0
M  V30 21745 H 2014.79 1.77304 4.25323 0
M  V30 21746 H 2013.11 1.45503 3.90151 0
M  V30 21747 H 2015.7 -0.973246 5.25768 0
M  V30 21748 H 2016.05 -1.79589 3.75571 0
M  V30 21749 H 2016.58 -0.111519 3.97644 0
M  V30 21750 H 2013.32 1.76713 6.31231 0
M  V30 21751 H 2012.84 0.083744 5.99742 0
M  V30 21752 H 2014.52 0.465195 6.45325 0
M  V30 21753 N 2014.65 -1.56732 0.165206 0
M  V30 21754 C 2015.89 -1.98591 -0.483841 0
M  V30 21755 C 2016.25 -1.04869 -1.6083 0
M  V30 21756 O 2017.46 -1.35844 -2.31948 0
M  V30 21757 C 2015.73 -3.44262 -0.960121 0
M  V30 21758 S 2017.29 -4.08149 -1.61121 0
M  V30 21759 H 2014.1 -0.693711 -0.155842 0
M  V30 21760 H 2016.71 -1.93747 0.261223 0
M  V30 21761 H 2015.41 -4.1019 -0.131229 0
M  V30 21762 H 2014.94 -3.52859 -1.73937 0
M  V30 21763 H 2016.96 -4.02695 -2.89915 0
M  V30 21764 N 2016.13 0.10854 -1.57226 0
M  V30 21765 C 2017.06 1.13362 -2.04135 0
M  V30 21766 C 2018.04 1.42573 -0.927733 0
M  V30 21767 O 2019.22 1.52835 -1.19813 0
M  V30 21768 C 2016.35 2.45708 -2.45449 0
M  V30 21769 C 2015.31 2.30935 -3.60351 0
M  V30 21770 C 2014.63 3.68337 -3.87597 0
M  V30 21771 C 2015.93 1.76112 -4.91713 0
M  V30 21772 H 2017.63 0.74341 -2.90024 0
M  V30 21773 H 2015.17 0.356157 -1.39526 0
M  V30 21774 H 2017.13 3.17679 -2.76872 0
M  V30 21775 H 2015.85 2.86639 -1.56544 0
M  V30 21776 H 2014.51 1.61411 -3.29153 0
M  V30 21777 H 2014.16 4.06772 -2.95881 0
M  V30 21778 H 2013.86 3.59303 -4.64946 0
M  V30 21779 H 2015.38 4.41797 -4.21483 0
M  V30 21780 H 2016.8 2.3791 -5.21605 0
M  V30 21781 H 2015.19 1.77872 -5.73133 0
M  V30 21782 H 2016.26 0.71947 -4.79533 0
M  V30 21783 N 2017.61 1.52975 0.379009 0
M  V30 21784 C 2018.55 1.79115 1.48393 0
M  V30 21785 C 2019.55 0.659562 1.56032 0
M  V30 21786 O 2020.75 0.842243 1.59079 0
M  V30 21787 H 2017.13 0.566908 0.494084 0
M  V30 21788 H 2019.1 2.71624 1.23544 0
M  V30 21789 C 2017.85 1.98595 2.85404 0
M  V30 21790 H 2017.17 2.85102 2.8028 0
M  V30 21791 H 2018.61 2.2087 3.61929 0
M  V30 21792 C 2017.07 0.761257 3.28187 0
M  V30 21793 O 2017.6 -0.0565264 4.0166 0
M  V30 21794 N 2015.81 0.588515 2.84578 0
M  V30 21795 H 2015.35 1.25513 2.24954 0
M  V30 21796 H 2015.31 -0.229535 3.13561 0
M  V30 21797 N 2019.08 -0.63804 1.44107 0
M  V30 21798 C 2020.02 -1.76291 1.44903 0
M  V30 21799 C 2021 -1.59644 0.308656 0
M  V30 21800 O 2022.18 -1.81621 0.504576 0
M  V30 21801 C 2019.31 -3.13781 1.27511 0
M  V30 21802 C 2018.35 -3.49094 2.45021 0
M  V30 21803 S 2019.19 -3.47353 4.07561 0
M  V30 21804 C 2020.34 -4.87475 3.9258 0
M  V30 21805 H 2020.57 -1.75348 2.40084 0
M  V30 21806 H 2018.11 -0.812041 1.31321 0
M  V30 21807 H 2020.07 -3.93125 1.18164 0
M  V30 21808 H 2018.73 -3.1227 0.338519 0
M  V30 21809 H 2017.92 -4.49126 2.28697 0
M  V30 21810 H 2017.52 -2.77198 2.51073 0
M  V30 21811 H 2019.81 -5.76526 3.55843 0
M  V30 21812 H 2020.76 -5.08853 4.92417 0
M  V30 21813 H 2021.16 -4.61724 3.24763 0
M  V30 21814 N 2020.56 -1.3089 -0.877815 0
M  V30 21815 C 2021.81 -1.20303 -1.63264 0
M  V30 21816 C 2022.14 0.240114 -1.9271 0
M  V30 21817 O 2021.42 1.17082 -1.55313 0
M  V30 21818 C 2021.7 -2.03934 -2.96788 0
M  V30 21819 C 2021.55 -3.56506 -2.74269 0
M  V30 21820 C 2022.87 -1.88268 -3.97798 0
M  V30 21821 H 2019.99 -0.438382 -0.592445 0
M  V30 21822 H 2022.63 -1.60598 -1.01529 0
M  V30 21823 H 2020.78 -1.69698 -3.49478 0
M  V30 21824 H 2022.45 -4.00838 -2.28312 0
M  V30 21825 H 2020.7 -3.8033 -2.08643 0
M  V30 21826 H 2021.37 -4.1032 -3.69244 0
M  V30 21827 H 2023.84 -2.18214 -3.54291 0
M  V30 21828 H 2022.72 -2.49098 -4.89123 0
M  V30 21829 H 2022.98 -0.843802 -4.33973 0
M  V30 21830 N 2022.04 1.0911 -1.13723 0
M  V30 21831 C 2023.27 1.85108 -0.924265 0
M  V30 21832 C 2023.68 1.81295 0.527025 0
M  V30 21833 O 2023.04 1.21144 1.36493 0
M  V30 21834 C 2023.09 3.3295 -1.40807 0
M  V30 21835 O 2022.81 3.36738 -2.80249 0
M  V30 21836 C 2024.31 4.25778 -1.23401 0
M  V30 21837 H 2021.53 0.584594 -0.329379 0
M  V30 21838 H 2024.08 1.37847 -1.51058 0
M  V30 21839 H 2022.23 3.77627 -0.864679 0
M  V30 21840 H 2022.65 4.28973 -3.01799 0
M  V30 21841 H 2024.12 5.27655 -1.62123 0
M  V30 21842 H 2024.6 4.38847 -0.176058 0
M  V30 21843 H 2025.2 3.8692 -1.76559 0
M  V30 21844 N 2023.52 0.931232 1.27145 0
M  V30 21845 C 2024.45 0.377419 2.25057 0
M  V30 21846 C 2025.43 -0.528197 1.53782 0
M  V30 21847 O 2026.61 -0.467903 1.826 0
M  V30 21848 C 2023.74 -0.4587 3.3558 0
M  V30 21849 C 2022.79 0.383982 4.24768 0
M  V30 21850 S 2023.62 1.80173 5.0428 0
M  V30 21851 C 2024.78 0.973395 6.18285 0
M  V30 21852 H 2025.01 1.20726 2.71685 0
M  V30 21853 H 2022.54 0.733657 1.35856 0
M  V30 21854 H 2024.5 -0.935236 3.99704 0
M  V30 21855 H 2023.16 -1.2631 2.87584 0
M  V30 21856 H 2022.35 -0.256158 5.03349 0
M  V30 21857 H 2021.96 0.794824 3.65457 0
M  V30 21858 H 2024.25 0.211028 6.77171 0
M  V30 21859 H 2025.19 1.73233 6.86583 0
M  V30 21860 H 2025.6 0.513847 5.62156 0
M  V30 21861 N 2025 -1.41343 0.697132 0
M  V30 21862 C 2025.93 -2.28193 -0.017778 0
M  V30 21863 C 2026.91 -1.4232 -0.786373 0
M  V30 21864 O 2028.09 -1.71747 -0.776865 0
M  V30 21865 C 2025.22 -3.22577 -1.03256 0
M  V30 21866 C 2024.27 -4.25004 -0.356949 0
M  V30 21867 S 2025.1 -5.27852 0.901798 0
M  V30 21868 C 2026.25 -6.25801 -0.111346 0
M  V30 21869 H 2026.49 -2.88479 0.718839 0
M  V30 21870 H 2024.02 -1.46503 0.487463 0
M  V30 21871 H 2025.98 -3.77487 -1.61288 0
M  V30 21872 H 2024.64 -2.61384 -1.74176 0
M  V30 21873 H 2023.83 -4.9132 -1.12343 0
M  V30 21874 H 2023.43 -3.73698 0.150343 0
M  V30 21875 H 2025.73 -6.70605 -0.964122 0
M  V30 21876 H 2026.67 -7.06203 0.517933 0
M  V30 21877 H 2027.08 -5.62566 -0.466819 0
M  V30 21878 N 2026.48 -0.441993 -1.51275 0
M  V30 21879 C 2027.72 0.123093 -2.02426 0
M  V30 21880 C 2028.05 1.41953 -1.32525 0
M  V30 21881 O 2027.33 1.8942 -0.44164 0
M  V30 21882 C 2027.61 0.337043 -3.58519 0
M  V30 21883 C 2027.47 -0.978373 -4.39031 0
M  V30 21884 C 2028.78 1.10474 -4.26009 0
M  V30 21885 H 2025.9 0.0432623 -0.735729 0
M  V30 21886 H 2028.55 -0.581901 -1.8087 0
M  V30 21887 H 2026.7 0.93756 -3.77017 0
M  V30 21888 H 2028.37 -1.61323 -4.32172 0
M  V30 21889 H 2026.61 -1.58189 -4.03929 0
M  V30 21890 H 2027.28 -0.78266 -5.46423 0
M  V30 21891 H 2029.76 0.596021 -4.11809 0
M  V30 21892 H 2028.63 1.22321 -5.35097 0
M  V30 21893 H 2028.89 2.13401 -3.87185 0
M  V30 21894 N 2027.95 1.56642 -0.173515 0
M  V30 21895 C 2028.86 2.2166 0.768363 0
M  V30 21896 C 2029.88 1.20892 1.25144 0
M  V30 21897 O 2031.06 1.53561 1.30311 0
M  V30 21898 C 2028.12 2.84632 1.97953 0
M  V30 21899 C 2027.18 4.00608 1.54312 0
M  V30 21900 C 2026.41 4.60567 2.69655 0
M  V30 21901 O 2026.64 4.19419 3.8658 0
M  V30 21902 O 2025.57 5.50401 2.43604 0
M  V30 21903 H 2029.4 3.02712 0.244753 0
M  V30 21904 H 2026.98 1.493 0.0547846 0
M  V30 21905 H 2028.86 3.24553 2.68782 0
M  V30 21906 H 2027.54 2.06575 2.49215 0
M  V30 21907 H 2026.45 3.65352 0.804264 0
M  V30 21908 H 2027.78 4.80264 1.07738 0
M  V30 21909 N 2029.43 -0.1002 1.57281 0
M  V30 21910 C 2030.66 -0.818307 1.9003 0
M  V30 21911 C 2031.07 -1.72531 0.766704 0
M  V30 21912 O 2030.43 -1.80616 -0.261577 0
M  V30 21913 C 2030.48 -1.63596 3.22364 0
M  V30 21914 O 2030.2 -0.765449 4.31361 0
M  V30 21915 C 2031.7 -2.45758 3.68942 0
M  V30 21916 H 2028.92 -0.234253 0.628782 0
M  V30 21917 H 2031.47 -0.0789616 2.04347 0
M  V30 21918 H 2029.62 -2.32787 3.09659 0
M  V30 21919 H 2030.04 -1.33126 5.07324 0
M  V30 21920 H 2031.51 -2.9863 4.64246 0
M  V30 21921 H 2031.99 -3.23987 2.96528 0
M  V30 21922 H 2032.59 -1.81776 3.84497 0
M  V30 21923 N 2030.91 -1.53174 -0.370891 0
M  V30 21924 C 2032.19 -1.59697 -1.12943 0
M  V30 21925 C 2032.57 -0.401233 -2.07252 0
M  V30 21926 O 2031.91 0.608973 -2.20236 0
M  V30 21927 C 2032.12 -2.94469 -1.87321 0
M  V30 21928 C 2033.47 -3.48856 -2.42043 0
M  V30 21929 O 2034.5 -2.96463 -1.97455 0
M  V30 21930 O 2033.36 -4.40436 -3.2354 0
M  V30 21931 H 2030.45 -0.644835 -0.5178 0
M  V30 21932 H 2033 -1.65514 -0.374583 0
M  V30 21933 H 2031.77 -3.72938 -1.18462 0
M  V30 21934 H 2031.39 -2.92119 -2.69727 0
M  V30 21935 N 2032.39 0.630389 -1.44443 0
M  V30 21936 C 2033.34 1.76351 -1.51667 0
M  V30 21937 C 2034.33 1.64889 -0.388317 0
M  V30 21938 O 2035.54 1.70959 -0.563293 0
M  V30 21939 H 2031.91 0.582226 -0.475937 0
M  V30 21940 H 2033.88 1.67382 -2.47034 0
M  V30 21941 C 2032.63 3.14688 -1.47875 0
M  V30 21942 H 2031.95 3.24156 -2.34015 0
M  V30 21943 H 2033.39 3.93866 -1.5699 0
M  V30 21944 C 2031.85 3.36308 -0.199622 0
M  V30 21945 O 2032.38 3.95013 0.72988 0
M  V30 21946 N 2030.59 2.90419 -0.102524 0
M  V30 21947 H 2030.14 2.42829 -0.859761 0
M  V30 21948 H 2030.09 3.0526 0.752566 0
M  V30 21949 N 2033.87 1.31354 0.870861 0
M  V30 21950 C 2034.8 1.14748 1.98408 0
M  V30 21951 C 2035.81 0.0868023 1.62568 0
M  V30 21952 O 2037 0.334209 1.75343 0
M  V30 21953 C 2034.1 0.730792 3.30927 0
M  V30 21954 C 2033.27 1.87628 3.95113 0
M  V30 21955 C 2032.33 1.44581 5.05948 0
M  V30 21956 O 2031.36 2.15531 5.26816 0
M  V30 21957 N 2032.56 0.332698 5.79546 0
M  V30 21958 H 2035.32 2.10633 2.13199 0
M  V30 21959 H 2032.89 1.23676 1.04479 0
M  V30 21960 H 2034.88 0.425538 4.02457 0
M  V30 21961 H 2033.45 -0.136426 3.12302 0
M  V30 21962 H 2032.67 2.3489 3.16576 0
M  V30 21963 H 2033.96 2.64356 4.34734 0
M  V30 21964 H 2033.35 -0.258188 5.65111 0
M  V30 21965 H 2031.91 0.0869715 6.51742 0
M  V30 21966 N 2035.34 -1.08505 1.143 0
M  V30 21967 C 2036.57 -1.85155 0.934475 0
M  V30 21968 C 2036.99 -1.81002 -0.511866 0
M  V30 21969 O 2036.35 -1.19437 -1.36398 0
M  V30 21970 C 2036.4 -3.30656 1.43871 0
M  V30 21971 O 2035.5 -4.07557 0.630143 0
M  V30 21972 H 2034.84 -0.573775 0.334183 0
M  V30 21973 H 2037.37 -1.36959 1.51998 0
M  V30 21974 H 2037.38 -3.815 1.44644 0
M  V30 21975 H 2036.06 -3.32995 2.49173 0
M  V30 21976 H 2034.64 -3.66441 0.691067 0
M  V30 21977 N 2036.82 -0.937962 -1.26649 0
M  V30 21978 C 2037.75 -0.402342 -2.25641 0
M  V30 21979 C 2038.77 0.472614 -1.55789 0
M  V30 21980 O 2039.96 0.283579 -1.76233 0
M  V30 21981 C 2037.06 0.441157 -3.36016 0
M  V30 21982 C 2036.23 -0.416892 -4.35409 0
M  V30 21983 C 2035.29 0.365644 -5.24928 0
M  V30 21984 O 2034.31 -0.230215 -5.68734 0
M  V30 21985 N 2035.52 1.66298 -5.5617 0
M  V30 21986 H 2038.28 -1.25333 -2.72235 0
M  V30 21987 H 2035.84 -0.806494 -1.40383 0
M  V30 21988 H 2037.83 0.971979 -3.92855 0
M  V30 21989 H 2036.4 1.19293 -2.88943 0
M  V30 21990 H 2035.62 -1.12895 -3.77688 0
M  V30 21991 H 2036.91 -1.00313 -4.98813 0
M  V30 21992 H 2036.31 2.16925 -5.22456 0
M  V30 21993 H 2034.87 2.14011 -6.15664 0
M  V30 21994 N 2038.3 1.40971 -0.704618 0
M  V30 21995 C 2039.23 2.33424 -0.0595656 0
M  V30 21996 C 2040.21 1.52306 0.757422 0
M  V30 21997 O 2041.4 1.80812 0.708567 0
M  V30 21998 C 2038.53 3.36202 0.870964 0
M  V30 21999 C 2037.48 4.27699 0.160408 0
M  V30 22000 C 2036.81 5.20924 1.20591 0
M  V30 22001 C 2038.11 5.13047 -0.97878 0
M  V30 22002 H 2039.8 2.87615 -0.83176 0
M  V30 22003 H 2037.35 1.38292 -0.401428 0
M  V30 22004 H 2039.3 3.9981 1.33153 0
M  V30 22005 H 2038.02 2.80381 1.67493 0
M  V30 22006 H 2036.68 3.65527 -0.280222 0
M  V30 22007 H 2036.33 4.61414 2.00264 0
M  V30 22008 H 2036.03 5.8298 0.73543 0
M  V30 22009 H 2037.55 5.8741 1.6668 0
M  V30 22010 H 2038.97 5.70172 -0.598081 0
M  V30 22011 H 2037.36 5.8409 -1.37693 0
M  V30 22012 H 2038.43 4.49675 -1.8144 0
M  V30 22013 N 2039.78 0.45001 1.51039 0
M  V30 22014 C 2040.73 -0.355012 2.28053 0
M  V30 22015 C 2041.7 -1.00578 1.32186 0
M  V30 22016 O 2042.88 -1.02227 1.61103 0
M  V30 22017 C 2040.02 -1.44311 3.13478 0
M  V30 22018 C 2039.13 -0.809213 4.24353 0
M  V30 22019 C 2038.27 -1.87342 4.97068 0
M  V30 22020 C 2037.31 -1.21864 5.99846 0
M  V30 22021 N 2036.44 -2.22477 6.65919 0
M  V30 22022 H 2041.28 0.308084 2.96403 0
M  V30 22023 H 2038.82 0.163778 1.46185 0
M  V30 22024 H 2040.78 -2.08539 3.61341 0
M  V30 22025 H 2039.41 -2.07566 2.47217 0
M  V30 22026 H 2038.46 -0.0548937 3.8036 0
M  V30 22027 H 2039.77 -0.291288 4.97949 0
M  V30 22028 H 2038.93 -2.59203 5.48542 0
M  V30 22029 H 2037.67 -2.42511 4.23131 0
M  V30 22030 H 2036.67 -0.48556 5.47652 0
M  V30 22031 H 2037.9 -0.674124 6.75746 0
M  V30 22032 H 2035.84 -2.76702 5.94788 0
M  V30 22033 H 2035.76 -1.75611 7.35321 0
M  V30 22034 H 2037.03 -2.93782 7.2202 0
M  V30 22035 N 2041.26 -1.56548 0.18182 0
M  V30 22036 C 2042.5 -1.97488 -0.461104 0
M  V30 22037 C 2042.84 -1.06819 -1.62183 0
M  V30 22038 O 2042.11 -0.117449 -1.94145 0
M  V30 22039 C 2042.39 -3.47776 -0.934008 0
M  V30 22040 C 2042.25 -4.49224 0.227615 0
M  V30 22041 C 2043.57 -4.01423 -1.80409 0
M  V30 22042 H 2040.68 -0.718031 -0.166135 0
M  V30 22043 H 2043.33 -1.88071 0.27007 0
M  V30 22044 H 2041.48 -3.55933 -1.55705 0
M  V30 22045 H 2043.15 -4.53118 0.864978 0
M  V30 22046 H 2041.39 -4.2475 0.881483 0
M  V30 22047 H 2042.06 -5.51808 -0.145571 0
M  V30 22048 H 2044.54 -3.95963 -1.27876 0
M  V30 22049 H 2043.41 -5.06975 -2.10398 0
M  V30 22050 H 2043.68 -3.45875 -2.7536 0
M  V30 22051 N 2042.73 0.0918577 -1.57332 0
M  V30 22052 C 2044.01 0.826617 -1.77275 0
M  V30 22053 C 2044.39 1.96778 -0.764311 0
M  V30 22054 O 2043.74 2.27564 0.20656 0
M  V30 22055 C 2043.95 1.3182 -3.23148 0
M  V30 22056 C 2045.3 1.75968 -3.8642 0
M  V30 22057 O 2046.32 1.41435 -3.26917 0
M  V30 22058 O 2045.18 2.39831 -4.91063 0
M  V30 22059 H 2042.27 0.394537 -0.726821 0
M  V30 22060 H 2044.82 0.0734883 -1.69541 0
M  V30 22061 H 2043.59 0.500733 -3.88083 0
M  V30 22062 H 2043.22 2.13324 -3.35527 0
M  V30 22063 N 2044.21 1.53368 0.362763 0
M  V30 22064 C 2045.46 1.68906 1.10243 0
M  V30 22065 C 2045.77 0.448846 1.90381 0
M  V30 22066 O 2046.98 0.484821 2.67136 0
M  V30 22067 C 2045.44 2.98602 2.0091 0
M  V30 22068 C 2045.04 4.29895 1.26071 0
M  V30 22069 C 2046.79 3.23507 2.74852 0
M  V30 22070 C 2044.7 5.50678 2.15657 0
M  V30 22071 H 2043.63 0.629342 0.415265 0
M  V30 22072 H 2046.28 1.79869 0.363231 0
M  V30 22073 H 2044.66 2.81449 2.78572 0
M  V30 22074 H 2045.83 4.57689 0.534529 0
M  V30 22075 H 2044.15 4.11455 0.639803 0
M  V30 22076 H 2046.74 4.10931 3.42111 0
M  V30 22077 H 2047.09 2.39689 3.40374 0
M  V30 22078 H 2047.62 3.41347 2.04271 0
M  V30 22079 H 2044.36 6.36982 1.54707 0
M  V30 22080 H 2043.88 5.27159 2.86117 0
M  V30 22081 H 2045.56 5.85578 2.75151 0
M  V30 22082 N 2045.69 -0.62272 1.44776 0
M  V30 22083 C 2046.62 -1.74528 1.5512 0
M  V30 22084 C 2047.6 -1.65241 0.403656 0
M  V30 22085 O 2048.79 -1.83873 0.624863 0
M  V30 22086 C 2045.92 -3.13088 1.5031 0
M  V30 22087 C 2044.87 -3.37172 2.63626 0
M  V30 22088 C 2044.2 -4.75849 2.43868 0
M  V30 22089 C 2045.5 -3.28908 4.0573 0
M  V30 22090 H 2047.19 -1.66128 2.49082 0
M  V30 22091 H 2044.74 -0.797813 1.19879 0
M  V30 22092 H 2046.69 -3.91403 1.56146 0
M  V30 22093 H 2045.41 -3.22293 0.528684 0
M  V30 22094 H 2044.07 -2.61241 2.57194 0
M  V30 22095 H 2043.72 -4.81767 1.446 0
M  V30 22096 H 2043.42 -4.92921 3.19849 0
M  V30 22097 H 2044.94 -5.56383 2.51535 0
M  V30 22098 H 2046.36 -3.97117 4.13487 0
M  V30 22099 H 2044.76 -3.57513 4.8198 0
M  V30 22100 H 2045.83 -2.26581 4.28706 0
M  V30 22101 N 2047.17 -1.31814 -0.863883 0
M  V30 22102 C 2048.4 -1.24644 -1.64765 0
M  V30 22103 C 2048.81 0.189549 -1.88248 0
M  V30 22104 O 2048.15 1.13405 -1.44517 0
M  V30 22105 C 2048.21 -1.92678 -3.03505 0
M  V30 22106 C 2047.88 -3.42019 -3.03104 0
M  V30 22107 C 2048.87 -4.37662 -2.8062 0
M  V30 22108 C 2046.56 -3.83808 -3.24032 0
M  V30 22109 C 2048.55 -5.73069 -2.79053 0
M  V30 22110 C 2046.24 -5.19326 -3.22093 0
M  V30 22111 C 2047.24 -6.13767 -2.99631 0
M  V30 22112 O 2046.92 -7.46807 -2.97548 0
M  V30 22113 H 2046.66 -0.431678 -0.520222 0
M  V30 22114 H 2049.21 -1.74337 -1.08609 0
M  V30 22115 H 2047.44 -1.37543 -3.61412 0
M  V30 22116 H 2049.13 -1.79342 -3.64131 0
M  V30 22117 H 2049.9 -4.06705 -2.64228 0
M  V30 22118 H 2045.77 -3.10727 -3.40544 0
M  V30 22119 H 2049.32 -6.46757 -2.6144 0
M  V30 22120 H 2045.22 -5.49916 -3.38027 0
M  V30 22121 H 2045.98 -7.56054 -3.13567 0
M  V30 22122 N 2048.65 1.07897 -1.14873 0
M  V30 22123 C 2049.59 2.17052 -0.836135 0
M  V30 22124 C 2050.59 1.68352 0.188148 0
M  V30 22125 O 2051.79 1.79947 0.0437298 0
M  V30 22126 H 2048.17 0.708271 -0.252698 0
M  V30 22127 H 2050.14 2.40639 -1.76452 0
M  V30 22128 C 2048.89 3.46076 -0.335713 0
M  V30 22129 H 2048.21 3.8393 -1.11525 0
M  V30 22130 H 2049.65 4.23714 -0.155587 0
M  V30 22131 C 2048.11 3.23471 0.941711 0
M  V30 22132 O 2048.64 3.47541 2.0144 0
M  V30 22133 N 2046.85 2.76987 0.879016 0
M  V30 22134 H 2046.39 2.57599 0.00591639 0
M  V30 22135 H 2046.35 2.62241 1.73427 0
M  V30 22136 N 2050.12 0.944665 1.2615 0
M  V30 22137 C 2051.37 0.589817 1.92884 0
M  V30 22138 C 2051.69 -0.875787 1.74898 0
M  V30 22139 O 2052.89 -1.34016 2.36118 0
M  V30 22140 C 2051.35 1.00415 3.45608 0
M  V30 22141 C 2050.96 2.4916 3.72321 0
M  V30 22142 C 2052.7 0.721357 4.18326 0
M  V30 22143 C 2050.61 2.84445 5.18503 0
M  V30 22144 H 2049.54 0.216879 0.722135 0
M  V30 22145 H 2052.19 1.14777 1.43173 0
M  V30 22146 H 2050.57 0.374687 3.94223 0
M  V30 22147 H 2051.74 3.1704 3.34398 0
M  V30 22148 H 2050.06 2.74805 3.12843 0
M  V30 22149 H 2052.66 0.961267 5.25988 0
M  V30 22150 H 2053 -0.341981 4.14893 0
M  V30 22151 H 2053.53 1.3107 3.75587 0
M  V30 22152 H 2050.27 3.89756 5.2704 0
M  V30 22153 H 2049.79 2.2123 5.5751 0
M  V30 22154 H 2051.47 2.73098 5.86538 0
M  V30 22155 N 2051.6 -1.40596 0.712085 0
M  V30 22156 C 2052.55 -2.32554 0.0460888 0
M  V30 22157 C 2053.54 -1.51853 -0.750809 0
M  V30 22158 O 2054.75 -1.67676 -0.654572 0
M  V30 22159 H 2051.13 -0.75199 -0.00389841 0
M  V30 22160 H 2053.1 -2.86378 0.838447 0
M  V30 22161 C 2051.85 -3.36789 -0.864212 0
M  V30 22162 H 2051.17 -3.98951 -0.260421 0
M  V30 22163 H 2052.61 -4.03636 -1.29823 0
M  V30 22164 C 2051.07 -2.71989 -1.98805 0
M  V30 22165 O 2051.6 -2.58048 -3.07854 0
M  V30 22166 N 2049.8 -2.30427 -1.77064 0
M  V30 22167 H 2049.35 -2.41966 -0.88375 0
M  V30 22168 H 2049.31 -1.87408 -2.52439 0
M  V30 22169 N 2053.08 -0.458013 -1.50798 0
M  V30 22170 C 2054.01 0.38861 -2.24867 0
M  V30 22171 C 2054.99 1.00734 -1.27638 0
M  V30 22172 O 2056.18 1.04581 -1.56828 0
M  V30 22173 C 2053.3 1.54336 -3.01493 0
M  V30 22174 C 2052.35 1.0433 -4.13543 0
M  V30 22175 S 2053.18 -0.0314457 -5.35491 0
M  V30 22176 C 2054.34 1.12749 -6.15661 0
M  V30 22177 H 2054.57 -0.240171 -2.96328 0
M  V30 22178 H 2052.1 -0.242743 -1.5248 0
M  V30 22179 H 2054.06 2.20525 -3.46235 0
M  V30 22180 H 2052.72 2.14362 -2.29582 0
M  V30 22181 H 2051.92 1.90742 -4.66512 0
M  V30 22182 H 2051.52 0.459335 -3.71169 0
M  V30 22183 H 2053.81 2.04177 -6.46001 0
M  V30 22184 H 2054.75 0.637331 -7.05226 0
M  V30 22185 H 2055.16 1.37541 -5.47488 0
M  V30 22186 N 2054.56 1.56449 -0.190119 0
M  V30 22187 C 2055.81 1.96613 0.450146 0
M  V30 22188 C 2056.12 1.07965 1.63104 0
M  V30 22189 O 2057.33 1.3789 2.33877 0
M  V30 22190 C 2055.78 3.49664 0.852245 0
M  V30 22191 C 2055.39 4.46967 -0.304086 0
M  V30 22192 C 2057.14 3.98608 1.45987 0
M  V30 22193 C 2055.04 5.91281 0.118694 0
M  V30 22194 H 2053.97 0.734132 0.171947 0
M  V30 22195 H 2056.62 1.8133 -0.281345 0
M  V30 22196 H 2055.01 3.60432 1.64026 0
M  V30 22197 H 2056.18 4.47927 -1.08158 0
M  V30 22198 H 2054.49 4.08188 -0.822886 0
M  V30 22199 H 2057.09 5.039 1.78856 0
M  V30 22200 H 2057.43 3.42627 2.36458 0
M  V30 22201 H 2057.97 3.90933 0.735928 0
M  V30 22202 H 2054.71 6.51176 -0.751699 0
M  V30 22203 H 2054.23 5.93586 0.861154 0
M  V30 22204 H 2055.91 6.44605 0.556195 0
M  V30 22205 N 2056.04 -0.0835127 1.57379 0
M  V30 22206 C 2057.28 -0.784868 1.86671 0
M  V30 22207 C 2057.61 -1.78164 0.780253 0
M  V30 22208 O 2056.87 -1.94402 -0.224985 0
M  V30 22209 C 2057.17 -1.53851 3.22591 0
M  V30 22210 C 2056.83 -0.682799 4.457 0
M  V30 22211 C 2055.49 -0.446944 4.7912 0
M  V30 22212 C 2057.85 -0.0886784 5.21125 0
M  V30 22213 C 2055.17 0.392707 5.85384 0
M  V30 22214 C 2057.53 0.73836 6.28276 0
M  V30 22215 C 2056.19 0.984198 6.60204 0
M  V30 22216 H 2055.46 -0.287204 0.683078 0
M  V30 22217 H 2058.11 -0.0459845 1.91445 0
M  V30 22218 H 2056.41 -2.34928 3.13554 0
M  V30 22219 H 2058.11 -2.08576 3.42486 0
M  V30 22220 H 2054.7 -0.876748 4.19537 0
M  V30 22221 H 2058.88 -0.258035 4.95629 0
M  V30 22222 H 2054.14 0.592037 6.08527 0
M  V30 22223 H 2058.31 1.20553 6.85886 0
M  V30 22224 H 2055.94 1.63661 7.42374 0
M  V30 22225 N 2057.52 -1.53558 -0.354624 0
M  V30 22226 C 2058.76 -1.69489 -1.09346 0
M  V30 22227 C 2059.08 -0.458936 -1.9014 0
M  V30 22228 O 2060.28 -0.498981 -2.66875 0
M  V30 22229 C 2058.74 -2.99663 -1.99324 0
M  V30 22230 C 2058.35 -4.30558 -1.2379 0
M  V30 22231 C 2060.09 -3.2496 -2.73132 0
M  V30 22232 C 2058 -5.51814 -2.12733 0
M  V30 22233 H 2056.93 -0.631535 -0.411922 0
M  V30 22234 H 2059.58 -1.80059 -0.353687 0
M  V30 22235 H 2057.96 -2.82922 -2.77076 0
M  V30 22236 H 2059.14 -4.57966 -0.51025 0
M  V30 22237 H 2057.45 -4.11789 -0.617973 0
M  V30 22238 H 2060.05 -4.12739 -3.39927 0
M  V30 22239 H 2060.39 -2.41491 -3.39099 0
M  V30 22240 H 2060.92 -3.42426 -2.02458 0
M  V30 22241 H 2057.66 -6.37793 -1.51327 0
M  V30 22242 H 2057.18 -5.28669 -2.83317 0
M  V30 22243 H 2058.86 -5.87028 -2.72041 0
M  V30 22244 N 2058.99 0.615033 -1.45104 0
M  V30 22245 C 2060.24 1.37029 -1.48007 0
M  V30 22246 C 2060.56 1.95213 -0.122939 0
M  V30 22247 O 2061.76 2.71484 -0.0295763 0
M  V30 22248 C 2060.22 2.48178 -2.60645 0
M  V30 22249 C 2059.83 1.96437 -4.02637 0
M  V30 22250 C 2061.57 3.25251 -2.72786 0
M  V30 22251 C 2059.48 3.05024 -5.0667 0
M  V30 22252 H 2058.41 0.515004 -0.550715 0
M  V30 22253 H 2061.06 0.659974 -1.71221 0
M  V30 22254 H 2059.44 3.2186 -2.307 0
M  V30 22255 H 2060.61 1.29514 -4.42225 0
M  V30 22256 H 2058.93 1.32132 -3.9488 0
M  V30 22257 H 2061.53 4.06229 -3.47681 0
M  V30 22258 H 2061.87 3.75776 -1.7916 0
M  V30 22259 H 2062.4 2.58666 -3.0222 0
M  V30 22260 H 2059.14 2.59425 -6.01979 0
M  V30 22261 H 2058.66 3.70538 -4.71658 0
M  V30 22262 H 2060.34 3.69532 -5.31089 0
M  V30 22263 N 2060.47 1.3227 0.85688 0
M  V30 22264 C 2061.72 1.22058 1.60576 0
M  V30 22265 C 2062.03 -0.216767 1.94395 0
M  V30 22266 O 2063.24 -0.440721 2.67899 0
M  V30 22267 C 2061.7 2.1376 2.89542 0
M  V30 22268 C 2061.3 3.62564 2.63157 0
M  V30 22269 C 2063.05 2.12379 3.67553 0
M  V30 22270 C 2060.95 4.46234 3.8811 0
M  V30 22271 H 2059.88 0.453274 0.602544 0
M  V30 22272 H 2062.54 1.57215 0.946344 0
M  V30 22273 H 2060.92 1.71515 3.56929 0
M  V30 22274 H 2062.09 4.13137 2.04095 0
M  V30 22275 H 2060.41 3.66053 1.98479 0
M  V30 22276 H 2063 2.72129 4.60272 0
M  V30 22277 H 2063.35 1.11421 4.01112 0
M  V30 22278 H 2063.88 2.52892 3.07067 0
M  V30 22279 H 2060.62 5.47997 3.59693 0
M  V30 22280 H 2060.14 4.00413 4.46575 0
M  V30 22281 H 2061.82 4.5912 4.5587 0
M  V30 22282 N 2061.95 -1.07287 1.15444 0
M  V30 22283 C 2063.2 -1.79896 0.929722 0
M  V30 22284 C 2063.52 -1.86764 -0.543105 0
M  V30 22285 O 2062.78 -1.34794 -1.41877 0
M  V30 22286 C 2063.08 -3.24863 1.48992 0
M  V30 22287 C 2062.74 -3.38094 2.98334 0
M  V30 22288 C 2061.41 -3.41412 3.39104 0
M  V30 22289 C 2063.76 -3.40837 3.94309 0
M  V30 22290 C 2061.09 -3.45077 4.74488 0
M  V30 22291 C 2063.44 -3.46039 5.29565 0
M  V30 22292 C 2062.1 -3.47635 5.6983 0
M  V30 22293 H 2061.37 -0.658285 0.340209 0
M  V30 22294 H 2064.02 -1.26242 1.43997 0
M  V30 22295 H 2062.32 -3.81302 0.900869 0
M  V30 22296 H 2064.02 -3.79621 1.29185 0
M  V30 22297 H 2060.61 -3.3621 2.65821 0
M  V30 22298 H 2064.8 -3.37494 3.63884 0
M  V30 22299 H 2060.05 -3.44611 5.05028 0
M  V30 22300 H 2064.23 -3.47108 6.03729 0
M  V30 22301 H 2061.85 -3.50228 6.74718 0
M  V30 22302 N 2063.43 -0.951342 -1.25647 0
M  V30 22303 C 2064.66 -0.621431 -1.97347 0
M  V30 22304 C 2065.07 0.805774 -1.70742 0
M  V30 22305 O 2064.43 1.53857 -0.981537 0
M  V30 22306 C 2064.48 -0.866537 -3.50961 0
M  V30 22307 O 2064.2 -2.23762 -3.76646 0
M  V30 22308 C 2065.7 -0.548561 -4.39893 0
M  V30 22309 H 2062.92 -0.233273 -0.629146 0
M  V30 22310 H 2065.46 -1.27482 -1.59902 0
M  V30 22311 H 2063.62 -0.259607 -3.86529 0
M  V30 22312 H 2064.03 -2.30528 -4.71123 0
M  V30 22313 H 2065.51 -0.770622 -5.46594 0
M  V30 22314 H 2065.98 0.51678 -4.36149 0
M  V30 22315 H 2066.59 -1.13467 -4.09885 0
M  V30 22316 N 2064.91 1.40216 -0.719531 0
M  V30 22317 C 2066.15 2.00418 -0.260225 0
M  V30 22318 C 2066.47 1.57349 1.15179 0
M  V30 22319 O 2065.74 0.814718 1.78155 0
M  V30 22320 H 2064.32 0.741161 -0.0932204 0
M  V30 22321 H 2066.99 1.71495 -0.926041 0
M  V30 22322 H 2066.08 3.10689 -0.29642 0
M  V30 22323 N 2066.38 0.466004 1.50553 0
M  V30 22324 C 2067.29 -0.33625 2.32178 0
M  V30 22325 C 2068.31 -1.00081 1.42337 0
M  V30 22326 O 2069.49 -0.989904 1.75393 0
M  V30 22327 C 2066.55 -1.40682 3.16875 0
M  V30 22328 C 2065.61 -0.759384 4.2253 0
M  V30 22329 C 2064.84 -1.77894 5.03179 0
M  V30 22330 O 2065.07 -3.00483 4.84836 0
M  V30 22331 O 2064 -1.35358 5.86483 0
M  V30 22332 H 2067.83 0.330908 3.01892 0
M  V30 22333 H 2065.41 0.22795 1.47651 0
M  V30 22334 H 2067.29 -2.02704 3.69444 0
M  V30 22335 H 2065.97 -2.05753 2.49894 0
M  V30 22336 H 2064.88 -0.100338 3.73965 0
M  V30 22337 H 2066.21 -0.151694 4.91966 0
M  V30 22338 N 2067.86 -1.56346 0.198413 0
M  V30 22339 C 2069.1 -1.99572 -0.441608 0
M  V30 22340 C 2069.47 -1.08257 -1.5857 0
M  V30 22341 O 2070.67 -1.40734 -2.29014 0
M  V30 22342 C 2068.94 -3.46221 -0.886882 0
M  V30 22343 S 2070.5 -4.11475 -1.52427 0
M  V30 22344 H 2067.31 -0.69686 -0.141092 0
M  V30 22345 H 2069.92 -1.93149 0.302261 0
M  V30 22346 H 2068.62 -4.10376 -0.0441917 0
M  V30 22347 H 2068.15 -3.56469 -1.66413 0
M  V30 22348 H 2070.17 -4.08754 -2.81308 0
M  V30 22349 N 2069.34 0.0751653 -1.57421 0
M  V30 22350 C 2070.59 0.776106 -1.87362 0
M  V30 22351 C 2070.92 1.77394 -0.790247 0
M  V30 22352 O 2070.19 1.93471 0.199817 0
M  V30 22353 C 2070.48 1.4871 -3.27959 0
M  V30 22354 C 2070.33 0.505905 -4.46946 0
M  V30 22355 C 2071.65 2.43284 -3.66744 0
M  V30 22356 H 2068.77 0.280684 -0.681458 0
M  V30 22357 H 2071.41 0.0393497 -1.89959 0
M  V30 22358 H 2069.56 2.11512 -3.25876 0
M  V30 22359 H 2071.23 -0.116642 -4.61153 0
M  V30 22360 H 2069.48 -0.179057 -4.3343 0
M  V30 22361 H 2070.15 1.04094 -5.42096 0
M  V30 22362 H 2072.62 1.90562 -3.69899 0
M  V30 22363 H 2071.5 2.90037 -4.66015 0
M  V30 22364 H 2071.76 3.27938 -2.96494 0
M  V30 22365 N 2070.82 1.53744 0.346476 0
M  V30 22366 C 2071.75 1.84512 1.43099 0
M  V30 22367 C 2072.73 0.700026 1.55028 0
M  V30 22368 O 2073.91 0.951666 1.69284 0
M  V30 22369 C 2071.04 2.0521 2.80189 0
M  V30 22370 C 2070 3.21022 2.8307 0
M  V30 22371 C 2069.32 3.27048 4.23018 0
M  V30 22372 C 2070.62 4.59196 2.4887 0
M  V30 22373 H 2072.32 2.75338 1.17599 0
M  V30 22374 H 2069.86 1.32483 0.564283 0
M  V30 22375 H 2071.82 2.25318 3.56103 0
M  V30 22376 H 2070.54 1.11113 3.07118 0
M  V30 22377 H 2069.2 3.00765 2.09609 0
M  V30 22378 H 2068.85 2.30551 4.47052 0
M  V30 22379 H 2068.55 4.0487 4.25857 0
M  V30 22380 H 2070.07 3.49363 5.00777 0
M  V30 22381 H 2071.49 4.79338 3.14496 0
M  V30 22382 H 2069.88 5.39401 2.62996 0
M  V30 22383 H 2070.95 4.63005 1.44064 0
M  V30 22384 N 2072.3 -0.607329 1.45428 0
M  V30 22385 C 2073.24 -1.71802 1.54119 0
M  V30 22386 C 2074.21 -1.61527 0.387071 0
M  V30 22387 O 2075.4 -1.81102 0.60055 0
M  V30 22388 C 2072.54 -3.10112 1.5141 0
M  V30 22389 C 2071.65 -3.31191 2.77375 0
M  V30 22390 C 2070.79 -4.59608 2.66335 0
M  V30 22391 C 2069.83 -4.73946 3.87353 0
M  V30 22392 N 2068.96 -5.93662 3.74846 0
M  V30 22393 H 2073.8 -1.6371 2.49004 0
M  V30 22394 H 2071.34 -0.798251 1.23557 0
M  V30 22395 H 2073.3 -3.90132 1.47826 0
M  V30 22396 H 2071.93 -3.17161 0.600749 0
M  V30 22397 H 2070.98 -2.44944 2.91044 0
M  V30 22398 H 2072.29 -3.37658 3.67135 0
M  V30 22399 H 2071.45 -5.47823 2.60719 0
M  V30 22400 H 2070.18 -4.55538 1.74174 0
M  V30 22401 H 2069.19 -3.84153 3.93327 0
M  V30 22402 H 2070.41 -4.79812 4.8058 0
M  V30 22403 H 2068.36 -5.90637 2.85454 0
M  V30 22404 H 2068.28 -6.01291 4.58241 0
M  V30 22405 H 2069.55 -6.84375 3.73163 0
M  V30 22406 N 2073.77 -1.32722 -0.849853 0
M  V30 22407 C 2074.71 -1.16395 -1.96284 0
M  V30 22408 C 2075.69 -0.062185 -1.62481 0
M  V30 22409 O 2076.87 -0.222389 -1.87184 0
M  V30 22410 C 2074 -0.782885 -3.29528 0
M  V30 22411 C 2073.04 -1.89059 -3.82308 0
M  V30 22412 S 2073.88 -3.49971 -4.05315 0
M  V30 22413 C 2075.03 -3.13846 -5.41527 0
M  V30 22414 H 2075.26 -2.10613 -2.09832 0
M  V30 22415 H 2072.8 -1.17438 -1.00238 0
M  V30 22416 H 2074.76 -0.56979 -4.06526 0
M  V30 22417 H 2073.42 0.140502 -3.13786 0
M  V30 22418 H 2072.61 -1.57706 -4.78691 0
M  V30 22419 H 2072.21 -2.05978 -3.12169 0
M  V30 22420 H 2074.5 -2.63989 -6.23952 0
M  V30 22421 H 2075.45 -4.09269 -5.77845 0
M  V30 22422 H 2075.85 -2.50737 -5.05758 0
M  V30 22423 N 2075.25 1.06673 -1.16011 0
M  V30 22424 C 2076.18 2.16027 -0.886249 0
M  V30 22425 C 2077.16 1.69289 0.165907 0
M  V30 22426 O 2078.35 1.94191 0.0188181 0
M  V30 22427 C 2075.48 3.45189 -0.382329 0
M  V30 22428 C 2074.43 4.05415 -1.37195 0
M  V30 22429 C 2073.76 5.2974 -0.726594 0
M  V30 22430 C 2075.06 4.44642 -2.74027 0
M  V30 22431 H 2076.75 2.39195 -1.80073 0
M  V30 22432 H 2074.3 1.14957 -0.867232 0
M  V30 22433 H 2076.25 4.21023 -0.17824 0
M  V30 22434 H 2074.98 3.21629 0.567641 0
M  V30 22435 H 2073.63 3.31634 -1.56252 0
M  V30 22436 H 2073.28 5.02475 0.229742 0
M  V30 22437 H 2072.98 5.70993 -1.38709 0
M  V30 22438 H 2074.51 6.08274 -0.532437 0
M  V30 22439 H 2075.92 5.11574 -2.58775 0
M  V30 22440 H 2074.32 4.96868 -3.36515 0
M  V30 22441 H 2075.39 3.55684 -3.29571 0
M  V30 22442 N 2076.73 0.957992 1.25141 0
M  V30 22443 C 2077.69 0.485333 2.24003 0
M  V30 22444 C 2078.69 -0.412817 1.55411 0
M  V30 22445 O 2079.88 -0.209635 1.72934 0
M  V30 22446 C 2077.02 -0.298362 3.39592 0
M  V30 22447 H 2078.21 1.35918 2.67332 0
M  V30 22448 H 2075.76 0.741602 1.37586 0
M  V30 22449 H 2076.5 -1.18973 3.01688 0
M  V30 22450 H 2076.28 0.346033 3.9057 0
M  V30 22451 H 2077.77 -0.618412 4.12996 0
M  V30 22452 N 2078.21 -1.39832 0.726957 0
M  V30 22453 C 2079.14 -2.333 0.0966938 0
M  V30 22454 C 2080.12 -1.53492 -0.733095 0
M  V30 22455 O 2081.3 -1.81916 -0.679712 0
M  V30 22456 C 2078.43 -3.37545 -0.817367 0
M  V30 22457 C 2077.39 -4.279 -0.0923447 0
M  V30 22458 C 2076.71 -5.22777 -1.12288 0
M  V30 22459 C 2078.01 -5.11425 1.06028 0
M  V30 22460 H 2079.71 -2.86255 0.877412 0
M  V30 22461 H 2077.25 -1.37635 0.423378 0
M  V30 22462 H 2079.21 -4.01878 -1.26776 0
M  V30 22463 H 2077.93 -2.83011 -1.63011 0
M  V30 22464 H 2076.59 -3.65035 0.338339 0
M  V30 22465 H 2076.24 -4.64542 -1.92898 0
M  V30 22466 H 2075.94 -5.84076 -0.64259 0
M  V30 22467 H 2077.46 -5.89987 -1.57314 0
M  V30 22468 H 2078.88 -5.69148 0.688715 0
M  V30 22469 H 2077.27 -5.81825 1.46968 0
M  V30 22470 H 2078.34 -4.46731 1.88571 0
M  V30 22471 N 2079.69 -0.473982 -1.50304 0
M  V30 22472 C 2081.1 -0.128306 -1.59083 0
M  V30 22473 C 2081.3 1.3654 -1.48186 0
M  V30 22474 O 2080.36 2.13895 -1.34183 0
M  V30 22475 C 2081.67 -0.681074 -2.92885 0
M  V30 22476 C 2083.22 -0.644759 -3.06287 0
M  V30 22477 C 2083.69 -1.17512 -4.42668 0
M  V30 22478 N 2085.19 -1.13466 -4.49088 0
M  V30 22479 C 2085.92 -1.5155 -5.5301 0
M  V30 22480 N 2085.42 -1.97098 -6.64172 0
M  V30 22481 N 2087.21 -1.43135 -5.4357 0
M  V30 22482 H 2079.36 -1.44543 -1.55631 0
M  V30 22483 H 2081.62 -0.597921 -0.735659 0
M  V30 22484 H 2081.33 -1.72759 -3.06345 0
M  V30 22485 H 2081.2 -0.126258 -3.76989 0
M  V30 22486 H 2083.59 0.392851 -2.92473 0
M  V30 22487 H 2083.67 -1.23641 -2.23934 0
M  V30 22488 H 2083.32 -2.21138 -4.57231 0
M  V30 22489 H 2083.25 -0.559658 -5.23618 0
M  V30 22490 H 2085.74 -0.800623 -3.69322 0
M  V30 22491 H 2086.05 -2.24298 -7.39534 0
M  V30 22492 H 2084.39 -2.01052 -6.65284 0
M  V30 22493 H 2087.59 -1.0739 -4.55615 0
M  V30 22494 H 2087.76 -1.73141 -6.24441 0
M  V30 22495 N 2081.16 1.56239 -0.206702 0
M  V30 22496 C 2082.1 2.16873 0.741546 0
M  V30 22497 C 2083.11 1.1337 1.16838 0
M  V30 22498 O 2084.3 1.40413 1.1021 0
M  V30 22499 C 2081.4 2.72544 2.01427 0
M  V30 22500 C 2080.57 4.01068 1.74538 0
M  V30 22501 C 2079.63 4.4145 2.86371 0
M  V30 22502 O 2078.66 5.08645 2.55479 0
M  V30 22503 N 2079.86 4.05908 4.14993 0
M  V30 22504 H 2082.62 2.98869 0.222965 0
M  V30 22505 H 2080.18 1.6188 -0.0251503 0
M  V30 22506 H 2082.18 2.96538 2.75404 0
M  V30 22507 H 2080.75 1.94935 2.44375 0
M  V30 22508 H 2079.97 3.85085 0.842806 0
M  V30 22509 H 2081.25 4.84939 1.53985 0
M  V30 22510 H 2080.65 3.51882 4.4294 0
M  V30 22511 H 2079.21 4.34827 4.85561 0
M  V30 22512 N 2082.64 -0.0668159 1.57458 0
M  V30 22513 C 2083.87 -0.776687 1.91445 0
M  V30 22514 C 2084.28 -1.71389 0.801403 0
M  V30 22515 O 2083.62 -1.82206 -0.233788 0
M  V30 22516 C 2083.69 -1.61981 3.2094 0
M  V30 22517 C 2083.35 -0.851453 4.48998 0
M  V30 22518 C 2084.35 -0.168463 5.19627 0
M  V30 22519 C 2082.03 -0.817153 4.95609 0
M  V30 22520 C 2084.03 0.538543 6.35121 0
M  V30 22521 C 2081.71 -0.106378 6.11007 0
M  V30 22522 C 2082.71 0.570265 6.80615 0
M  V30 22523 O 2082.4 1.26958 7.93812 0
M  V30 22524 H 2082.13 -0.225698 0.63721 0
M  V30 22525 H 2084.68 -0.0398627 2.05361 0
M  V30 22526 H 2082.91 -2.39956 3.03246 0
M  V30 22527 H 2084.6 -2.20882 3.40538 0
M  V30 22528 H 2085.37 -0.186236 4.84642 0
M  V30 22529 H 2081.25 -1.33329 4.41299 0
M  V30 22530 H 2084.79 1.06725 6.89388 0
M  V30 22531 H 2080.69 -0.0865497 6.45442 0
M  V30 22532 H 2081.46 1.17936 8.09959 0
M  V30 22533 N 2084.12 -1.53926 -0.338317 0
M  V30 22534 C 2085.35 -1.75114 -1.0963 0
M  V30 22535 C 2085.76 -0.492691 -1.82672 0
M  V30 22536 O 2085.1 0.545601 -1.75411 0
M  V30 22537 C 2085.16 -2.88063 -2.15081 0
M  V30 22538 C 2084.83 -4.27487 -1.61568 0
M  V30 22539 C 2085.83 -5.0887 -1.06523 0
M  V30 22540 C 2083.51 -4.73988 -1.66256 0
M  V30 22541 C 2085.5 -6.34857 -0.568774 0
M  V30 22542 C 2083.19 -5.99946 -1.16223 0
M  V30 22543 C 2084.19 -6.80214 -0.616267 0
M  V30 22544 O 2083.88 -8.03805 -0.123412 0
M  V30 22545 H 2083.61 -0.588533 -0.332572 0
M  V30 22546 H 2086.16 -2.01572 -0.394676 0
M  V30 22547 H 2084.39 -2.57141 -2.88817 0
M  V30 22548 H 2086.08 -2.97172 -2.76485 0
M  V30 22549 H 2086.85 -4.74106 -1.02219 0
M  V30 22550 H 2082.73 -4.11564 -2.07692 0
M  V30 22551 H 2086.27 -6.97456 -0.141967 0
M  V30 22552 H 2082.17 -6.34204 -1.2023 0
M  V30 22553 H 2082.94 -8.18147 -0.240214 0
M  V30 22554 N 2085.6 0.599608 -1.45748 0
M  V30 22555 C 2086.85 1.35838 -1.50181 0
M  V30 22556 C 2087.17 1.93946 -0.146709 0
M  V30 22557 O 2086.43 1.76004 0.85563 0
M  V30 22558 C 2086.73 2.51935 -2.53503 0
M  V30 22559 C 2086.39 2.11925 -3.97993 0
M  V30 22560 C 2085.06 2.00728 -4.37335 0
M  V30 22561 C 2087.41 1.8082 -4.88829 0
M  V30 22562 C 2084.74 1.56659 -5.65398 0
M  V30 22563 C 2087.09 1.38235 -6.17312 0
M  V30 22564 C 2085.75 1.25602 -6.55576 0
M  V30 22565 H 2085.02 0.497068 -0.54955 0
M  V30 22566 H 2087.67 0.676927 -1.79137 0
M  V30 22567 H 2085.97 3.25453 -2.18145 0
M  V30 22568 H 2087.67 3.10161 -2.54168 0
M  V30 22569 H 2084.26 2.21569 -3.66886 0
M  V30 22570 H 2088.45 1.88364 -4.59165 0
M  V30 22571 H 2083.7 1.45507 -5.93833 0
M  V30 22572 H 2087.88 1.13215 -6.87136 0
M  V30 22573 H 2085.5 0.912286 -7.54706 0
M  V30 22574 N 2087.08 1.33171 0.842803 0
M  V30 22575 C 2088.31 1.27434 1.62997 0
M  V30 22576 C 2088.72 -0.155477 1.88159 0
M  V30 22577 O 2088.08 -1.09638 1.45897 0
M  V30 22578 C 2088.13 2.04284 2.98245 0
M  V30 22579 O 2087.85 3.41688 2.74191 0
M  V30 22580 C 2089.35 2.05711 3.9268 0
M  V30 22581 H 2086.57 0.439188 0.507302 0
M  V30 22582 H 2089.11 1.75481 1.05007 0
M  V30 22583 H 2087.27 1.5993 3.52847 0
M  V30 22584 H 2087.68 3.81172 3.60288 0
M  V30 22585 H 2089.16 2.63943 4.84807 0
M  V30 22586 H 2089.63 1.04636 4.26553 0
M  V30 22587 H 2090.24 2.50067 3.44015 0
M  V30 22588 N 2088.56 -1.06056 1.16576 0
M  V30 22589 C 2089.8 -1.79164 0.950155 0
M  V30 22590 C 2090.13 -1.87092 -0.520588 0
M  V30 22591 O 2089.41 -1.36429 -1.38627 0
M  V30 22592 C 2089.69 -3.23525 1.58125 0
M  V30 22593 C 2089.55 -3.23663 3.1235 0
M  V30 22594 C 2090.86 -4.21138 1.27792 0
M  V30 22595 H 2087.98 -0.650413 0.3466 0
M  V30 22596 H 2090.63 -1.24019 1.43942 0
M  V30 22597 H 2088.78 -3.70615 1.16521 0
M  V30 22598 H 2090.45 -2.84716 3.62953 0
M  V30 22599 H 2088.69 -2.62248 3.45555 0
M  V30 22600 H 2089.36 -4.25512 3.51629 0
M  V30 22601 H 2091.84 -3.82502 1.63803 0
M  V30 22602 H 2090.71 -5.20408 1.74547 0
M  V30 22603 H 2090.97 -4.4166 0.197169 0
M  V30 22604 N 2090.03 -0.964615 -1.24631 0
M  V30 22605 C 2091.28 -0.623582 -1.92239 0
M  V30 22606 C 2091.6 0.843493 -1.75813 0
M  V30 22607 O 2090.87 1.60179 -1.12781 0
M  V30 22608 H 2089.45 -0.227644 -0.711468 0
M  V30 22609 H 2092.11 -1.22502 -1.51589 0
M  V30 22610 H 2091.21 -0.861514 -2.99974 0
M  V30 22611 N 2091.51 1.39445 -0.734362 0
M  V30 22612 C 2092.76 2.01303 -0.291333 0
M  V30 22613 C 2093.11 1.57228 1.10893 0
M  V30 22614 O 2092.41 0.790918 1.74514 0
M  V30 22615 C 2092.6 3.55865 -0.330927 0
M  V30 22616 C 2092.43 4.14946 -1.73349 0
M  V30 22617 C 2091.2 4.47561 -2.34558 0
M  V30 22618 C 2093.4 4.38527 -2.68698 0
M  V30 22619 N 2091.38 4.9214 -3.66976 0
M  V30 22620 C 2092.75 4.85304 -3.85849 0
M  V30 22621 C 2094.8 4.20594 -2.66468 0
M  V30 22622 C 2093.51 5.1603 -5.01105 0
M  V30 22623 C 2095.53 4.52432 -3.80866 0
M  V30 22624 C 2094.9 4.99415 -4.96753 0
M  V30 22625 H 2090.99 0.766917 -0.152849 0
M  V30 22626 H 2093.58 1.69376 -0.960195 0
M  V30 22627 H 2091.75 3.8718 0.307579 0
M  V30 22628 H 2093.48 4.04489 0.130591 0
M  V30 22629 H 2090.24 4.35338 -1.86488 0
M  V30 22630 H 2090.66 5.18789 -4.34957 0
M  V30 22631 H 2095.3 3.83474 -1.78067 0
M  V30 22632 H 2093.02 5.52055 -5.90136 0
M  V30 22633 H 2096.61 4.4018 -3.80438 0
M  V30 22634 H 2095.49 5.23584 -5.83806 0
M  V30 22635 N 2092.99 0.481946 1.5005 0
M  V30 22636 C 2093.94 -0.320472 2.30382 0
M  V30 22637 C 2094.93 -0.980434 1.38144 0
M  V30 22638 O 2096.14 -0.910298 1.55285 0
M  V30 22639 H 2092.51 -0.122196 0.742006 0
M  V30 22640 H 2094.48 0.377305 2.96005 0
M  V30 22641 C 2093.23 -1.38347 3.18991 0
M  V30 22642 H 2092.56 -0.885033 3.89881 0
M  V30 22643 H 2094 -1.91728 3.78175 0
M  V30 22644 C 2092.45 -2.39133 2.37313 0
M  V30 22645 O 2092.98 -3.44629 2.06383 0
M  V30 22646 N 2091.19 -2.11122 1.9969 0
M  V30 22647 H 2090.74 -1.25354 2.25043 0
M  V30 22648 H 2090.7 -2.78787 1.45345 0
M  V30 22649 N 2094.47 -1.56127 0.214985 0
M  V30 22650 C 2095.72 -1.97304 -0.41881 0
M  V30 22651 C 2096.03 -1.10547 -1.61366 0
M  V30 22652 O 2097.24 -1.41593 -2.31654 0
M  V30 22653 C 2095.69 -3.50975 -0.796509 0
M  V30 22654 C 2095.3 -4.46426 0.375156 0
M  V30 22655 C 2097.04 -4.0088 -1.39627 0
M  V30 22656 C 2094.95 -5.91395 -0.0246118 0
M  V30 22657 H 2093.88 -0.736775 -0.160246 0
M  V30 22658 H 2096.53 -1.8086 0.310157 0
M  V30 22659 H 2094.91 -3.62996 -1.58271 0
M  V30 22660 H 2096.09 -4.46149 1.15271 0
M  V30 22661 H 2094.4 -4.06827 0.887721 0
M  V30 22662 H 2097 -5.06681 -1.70816 0
M  V30 22663 H 2097.34 -3.46346 -2.30977 0
M  V30 22664 H 2097.88 -3.92055 -0.673641 0
M  V30 22665 H 2094.61 -6.49897 0.855201 0
M  V30 22666 H 2094.13 -5.94881 -0.766611 0
M  V30 22667 H 2095.81 -6.45408 -0.453573 0
M  V30 22668 N 2095.95 0.0584645 -1.57492 0
M  V30 22669 C 2097.19 0.755071 -1.87896 0
M  V30 22670 C 2097.52 1.769 -0.808499 0
M  V30 22671 O 2096.78 1.94736 0.194028 0
M  V30 22672 C 2097.07 1.48699 -3.24998 0
M  V30 22673 C 2096.74 0.611806 -4.4673 0
M  V30 22674 C 2095.4 0.370663 -4.7977 0
M  V30 22675 C 2097.75 0.00576081 -5.212 0
M  V30 22676 C 2095.08 -0.485786 -5.84685 0
M  V30 22677 C 2097.43 -0.838219 -6.27022 0
M  V30 22678 C 2096.1 -1.08911 -6.58555 0
M  V30 22679 H 2095.37 0.2763 -0.68756 0
M  V30 22680 H 2098.02 0.0155215 -1.91494 0
M  V30 22681 H 2096.32 2.2991 -3.17252 0
M  V30 22682 H 2098.02 2.03101 -3.45761 0
M  V30 22683 H 2094.61 0.809892 -4.20878 0
M  V30 22684 H 2098.79 0.179152 -4.95977 0
M  V30 22685 H 2094.05 -0.688773 -6.07508 0
M  V30 22686 H 2098.22 -1.31449 -6.83882 0
M  V30 22687 H 2095.85 -1.7545 -7.39676 0
M  V30 22688 N 2097.42 1.54103 0.330149 0
M  V30 22689 C 2098.7 1.62635 1.0867 0
M  V30 22690 C 2099.08 0.456041 2.06115 0
M  V30 22691 O 2098.43 -0.550367 2.21773 0
M  V30 22692 C 2098.64 2.99332 1.79448 0
M  V30 22693 C 2099.99 3.55151 2.32708 0
M  V30 22694 O 2101.01 3.01594 1.89525 0
M  V30 22695 O 2099.87 4.4886 3.11749 0
M  V30 22696 H 2096.96 0.658337 0.500521 0
M  V30 22697 H 2099.51 1.66449 0.330568 0
M  V30 22698 H 2098.28 3.75947 1.08532 0
M  V30 22699 H 2097.9 2.99167 2.61887 0
M  V30 22700 N 2098.9 -0.59187 1.46064 0
M  V30 22701 C 2100.15 -1.3504 1.50899 0
M  V30 22702 C 2100.48 -1.93865 0.156992 0
M  V30 22703 O 2099.73 -1.76455 -0.846284 0
M  V30 22704 C 2100.03 -2.50587 2.54835 0
M  V30 22705 C 2099.7 -2.09811 3.99111 0
M  V30 22706 C 2098.36 -1.98406 4.38393 0
M  V30 22707 C 2100.71 -1.78225 4.89781 0
M  V30 22708 C 2098.04 -1.53658 5.66221 0
M  V30 22709 C 2100.39 -1.34959 6.18036 0
M  V30 22710 C 2099.06 -1.22123 6.56233 0
M  V30 22711 H 2098.33 -0.494146 0.552178 0
M  V30 22712 H 2100.97 -0.667418 1.79493 0
M  V30 22713 H 2099.28 -3.24292 2.19868 0
M  V30 22714 H 2100.97 -3.08809 2.55809 0
M  V30 22715 H 2097.56 -2.1962 3.68056 0
M  V30 22716 H 2101.75 -1.85927 4.60158 0
M  V30 22717 H 2097 -1.42356 5.94596 0
M  V30 22718 H 2101.18 -1.09569 6.87726 0
M  V30 22719 H 2098.81 -0.872249 7.55179 0
M  V30 22720 N 2100.38 -1.33616 -0.835729 0
M  V30 22721 C 2101.63 -1.25436 -1.59354 0
M  V30 22722 C 2101.96 0.178683 -1.93376 0
M  V30 22723 O 2101.23 1.12082 -1.58959 0
M  V30 22724 C 2101.52 -2.13273 -2.9015 0
M  V30 22725 C 2101.37 -3.65051 -2.62789 0
M  V30 22726 C 2102.69 -2.00828 -3.91607 0
M  V30 22727 H 2099.81 -0.457008 -0.578198 0
M  V30 22728 H 2102.45 -1.63747 -0.963686 0
M  V30 22729 H 2100.6 -1.8073 -3.43902 0
M  V30 22730 H 2102.27 -4.07899 -2.15444 0
M  V30 22731 H 2100.52 -3.86775 -1.96437 0
M  V30 22732 H 2101.19 -4.2186 -3.56003 0
M  V30 22733 H 2103.66 -2.29375 -3.47169 0
M  V30 22734 H 2102.54 -2.64533 -4.8095 0
M  V30 22735 H 2102.8 -0.98144 -4.31069 0
M  V30 22736 N 2101.86 1.05436 -1.17136 0
M  V30 22737 C 2103.1 1.78658 -0.959644 0
M  V30 22738 C 2103.44 1.87366 0.510659 0
M  V30 22739 O 2102.71 1.37162 1.37901 0
M  V30 22740 C 2103 3.22682 -1.59839 0
M  V30 22741 C 2102.85 3.22002 -3.14062 0
M  V30 22742 C 2104.17 4.20454 -1.30023 0
M  V30 22743 H 2101.29 0.648566 -0.350044 0
M  V30 22744 H 2103.93 1.23254 -1.44598 0
M  V30 22745 H 2102.08 3.69992 -1.18484 0
M  V30 22746 H 2103.75 2.82787 -3.64457 0
M  V30 22747 H 2101.99 2.60411 -3.46941 0
M  V30 22748 H 2102.66 4.23642 -3.53881 0
M  V30 22749 H 2105.14 3.81628 -1.65829 0
M  V30 22750 H 2104.02 5.19475 -1.77304 0
M  V30 22751 H 2104.28 4.41549 -0.220588 0
M  V30 22752 N 2103.34 0.971211 1.24118 0
M  V30 22753 C 2104.58 0.635963 1.9257 0
M  V30 22754 C 2104.92 -0.827222 1.75701 0
M  V30 22755 O 2104.19 -1.59559 1.11226 0
M  V30 22756 C 2104.47 1.01581 3.45476 0
M  V30 22757 C 2104.33 2.53595 3.71497 0
M  V30 22758 C 2105.65 0.552941 4.36613 0
M  V30 22759 H 2102.76 0.232516 0.699361 0
M  V30 22760 H 2105.41 1.21085 1.46419 0
M  V30 22761 H 2103.56 0.526628 3.84914 0
M  V30 22762 H 2105.23 3.10016 3.41596 0
M  V30 22763 H 2103.47 2.96637 3.16526 0
M  V30 22764 H 2104.14 2.75222 4.78494 0
M  V30 22765 H 2106.62 0.972795 4.04569 0
M  V30 22766 H 2105.49 0.847244 5.42322 0
M  V30 22767 H 2105.76 -0.54692 4.38704 0
M  V30 22768 N 2104.81 -1.39054 0.741747 0
M  V30 22769 C 2106.06 -1.99612 0.289503 0
M  V30 22770 C 2106.38 -1.59538 -1.13168 0
M  V30 22771 O 2107.58 -2.12981 -1.68379 0
M  V30 22772 C 2106.04 -3.56862 0.466657 0
M  V30 22773 C 2105.65 -4.05894 1.89616 0
M  V30 22774 C 2107.39 -4.24431 0.0765289 0
M  V30 22775 C 2105.3 -5.55742 2.0225 0
M  V30 22776 H 2104.23 -0.746725 0.10449 0
M  V30 22777 H 2106.88 -1.58968 0.916594 0
M  V30 22778 H 2105.26 -3.95335 -0.229437 0
M  V30 22779 H 2106.43 -3.78739 2.62475 0
M  V30 22780 H 2104.75 -3.5101 2.24011 0
M  V30 22781 H 2107.35 -5.3449 0.149851 0
M  V30 22782 H 2107.69 -4.04861 -0.969208 0
M  V30 22783 H 2108.22 -3.91156 0.724031 0
M  V30 22784 H 2104.96 -5.80201 3.05036 0
M  V30 22785 H 2104.48 -5.84678 1.33836 0
M  V30 22786 H 2106.16 -6.21258 1.80685 0
M  V30 22787 N 2106.29 -0.489897 -1.49792 0
M  V30 22788 C 2107.22 0.283966 -2.31767 0
M  V30 22789 C 2108.2 0.972934 -1.39528 0
M  V30 22790 O 2109.39 0.966482 -1.68442 0
M  V30 22791 C 2106.52 1.35538 -3.19761 0
M  V30 22792 C 2105.47 0.786932 -4.20703 0
M  V30 22793 C 2104.8 1.95803 -4.97559 0
M  V30 22794 C 2106.1 -0.214528 -5.21859 0
M  V30 22795 H 2107.79 -0.40025 -2.96713 0
M  V30 22796 H 2105.34 -0.193932 -1.42688 0
M  V30 22797 H 2107.29 1.90438 -3.75914 0
M  V30 22798 H 2106.02 2.06862 -2.52736 0
M  V30 22799 H 2104.67 0.259755 -3.65679 0
M  V30 22800 H 2104.32 2.65871 -4.26992 0
M  V30 22801 H 2104.02 1.58381 -5.65853 0
M  V30 22802 H 2105.55 2.51159 -5.56553 0
M  V30 22803 H 2106.96 0.245954 -5.72772 0
M  V30 22804 H 2105.36 -0.504002 -5.9798 0
M  V30 22805 H 2106.43 -1.13417 -4.71449 0
M  V30 22806 N 2107.77 1.56011 -0.223262 0
M  V30 22807 C 2109 2.03189 0.415817 0
M  V30 22808 C 2109.42 1.102 1.52439 0
M  V30 22809 O 2108.78 0.0904999 1.81074 0
M  V30 22810 C 2108.83 3.48586 0.923053 0
M  V30 22811 O 2107.93 3.58734 2.03429 0
M  V30 22812 H 2107.27 0.65733 0.0938783 0
M  V30 22813 H 2109.8 2.01715 -0.342399 0
M  V30 22814 H 2109.81 3.88941 1.23243 0
M  V30 22815 H 2108.49 4.1575 0.11169 0
M  V30 22816 H 2107.06 3.30267 1.73142 0
M  V30 22817 N 2109.25 -0.0501116 1.5752 0
M  V30 22818 C 2110.5 -0.744028 1.87476 0
M  V30 22819 C 2110.81 -1.77631 0.818943 0
M  V30 22820 O 2112.02 -2.52133 1.00703 0
M  V30 22821 C 2110.47 -1.37429 3.32628 0
M  V30 22822 C 2110.08 -0.379458 4.4639 0
M  V30 22823 C 2111.82 -2.04931 3.71757 0
M  V30 22824 C 2109.73 -1.01687 5.82592 0
M  V30 22825 H 2108.66 -0.281635 0.699427 0
M  V30 22826 H 2111.31 0.00219827 1.835 0
M  V30 22827 H 2109.69 -2.16952 3.31282 0
M  V30 22828 H 2110.87 0.387526 4.59168 0
M  V30 22829 H 2109.18 0.1923 4.15956 0
M  V30 22830 H 2111.78 -2.53436 4.70823 0
M  V30 22831 H 2112.12 -2.85832 3.02665 0
M  V30 22832 H 2112.66 -1.32212 3.75186 0
M  V30 22833 H 2109.4 -0.247733 6.55032 0
M  V30 22834 H 2108.92 -1.7542 5.73575 0
M  V30 22835 H 2110.59 -1.53041 6.28639 0
M  V30 22836 N 2110.73 -1.54276 -0.321972 0
M  V30 22837 C 2111.97 -1.72813 -1.0613 0
M  V30 22838 C 2112.31 -0.501222 -1.8762 0
M  V30 22839 O 2111.58 0.501806 -1.87915 0
M  V30 22840 C 2111.86 -3.00469 -1.9847 0
M  V30 22841 C 2111.72 -4.33415 -1.20299 0
M  V30 22842 C 2113.04 -3.23886 -2.97969 0
M  V30 22843 H 2110.15 -0.628793 -0.384432 0
M  V30 22844 H 2112.8 -1.86973 -0.337811 0
M  V30 22845 H 2110.95 -2.88528 -2.60161 0
M  V30 22846 H 2112.62 -4.57242 -0.610559 0
M  V30 22847 H 2110.86 -4.30847 -0.505293 0
M  V30 22848 H 2111.53 -5.18959 -1.8811 0
M  V30 22849 H 2114.01 -3.353 -2.46401 0
M  V30 22850 H 2112.88 -4.14562 -3.59763 0
M  V30 22851 H 2113.15 -2.4119 -3.70513 0
M  V30 22852 N 2112.2 0.584116 -1.46376 0
M  V30 22853 C 2113.45 1.33973 -1.51313 0
M  V30 22854 C 2113.77 1.94294 -0.165758 0
M  V30 22855 O 2113.04 1.78481 0.807546 0
M  V30 22856 H 2111.62 0.497422 -0.557298 0
M  V30 22857 H 2114.29 0.684191 -1.82496 0
M  V30 22858 H 2113.38 2.14716 -2.26503 0
M  V30 22859 N 2113.68 1.34058 0.828631 0
M  V30 22860 C 2114.61 1.278 1.95421 0
M  V30 22861 C 2115.59 0.156548 1.69378 0
M  V30 22862 O 2116.78 0.347987 1.91057 0
M  V30 22863 C 2113.91 1.02688 3.31772 0
M  V30 22864 C 2112.86 2.11238 3.7224 0
M  V30 22865 C 2112.19 1.71324 5.0651 0
M  V30 22866 C 2113.49 3.53014 3.84939 0
M  V30 22867 H 2115.18 2.21977 2.00914 0
M  V30 22868 H 2112.73 1.06859 0.965253 0
M  V30 22869 H 2114.68 0.969571 4.10094 0
M  V30 22870 H 2113.41 0.0495214 3.26562 0
M  V30 22871 H 2112.07 2.16029 2.96188 0
M  V30 22872 H 2111.71 0.722632 4.97782 0
M  V30 22873 H 2111.41 2.43972 5.34557 0
M  V30 22874 H 2112.94 1.67077 5.87297 0
M  V30 22875 H 2114.35 3.50667 4.53547 0
M  V30 22876 H 2112.75 4.24235 4.24434 0
M  V30 22877 H 2113.82 3.90772 2.87098 0
M  V30 22878 N 2115.16 -1.04814 1.17694 0
M  V30 22879 C 2116.12 -2.10819 0.899339 0
M  V30 22880 C 2117.12 -1.60409 -0.112116 0
M  V30 22881 O 2118.31 -1.73783 0.120484 0
M  V30 22882 C 2115.45 -3.39121 0.34786 0
M  V30 22883 H 2116.64 -2.36878 1.83926 0
M  V30 22884 H 2114.19 -1.21119 0.987923 0
M  V30 22885 H 2114.93 -3.1872 -0.599026 0
M  V30 22886 H 2114.71 -3.77022 1.07688 0
M  V30 22887 H 2116.2 -4.17245 0.172084 0
M  V30 22888 N 2116.64 -0.977779 -1.23601 0
M  V30 22889 C 2117.57 -0.535228 -2.27283 0
M  V30 22890 C 2118.55 0.430261 -1.64568 0
M  V30 22891 O 2119.74 0.324195 -1.91475 0
M  V30 22892 C 2116.87 0.165683 -3.46905 0
M  V30 22893 C 2115.82 -0.716827 -4.21954 0
M  V30 22894 C 2115.15 0.116149 -5.34574 0
M  V30 22895 C 2116.45 -2.00636 -4.82227 0
M  V30 22896 H 2118.14 -1.40185 -2.64553 0
M  V30 22897 H 2115.69 -0.67551 -1.27173 0
M  V30 22898 H 2117.64 0.486573 -4.18581 0
M  V30 22899 H 2116.36 1.06674 -3.08688 0
M  V30 22900 H 2115.02 -1.02114 -3.52091 0
M  V30 22901 H 2114.67 1.01766 -4.92598 0
M  V30 22902 H 2114.37 -0.471195 -5.85708 0
M  V30 22903 H 2115.89 0.431481 -6.09074 0
M  V30 22904 H 2117.31 -1.75041 -5.45925 0
M  V30 22905 H 2115.7 -2.54126 -5.43636 0
M  V30 22906 H 2116.77 -2.69488 -4.03118 0
M  V30 22907 N 2118.12 1.38658 -0.749111 0
M  V30 22908 C 2119.34 2.0503 -0.312666 0
M  V30 22909 C 2119.77 1.56125 1.04912 0
M  V30 22910 O 2119.13 0.711236 1.66767 0
M  V30 22911 C 2119.17 3.58997 -0.339658 0
M  V30 22912 O 2118.28 4.06956 0.667887 0
M  V30 22913 H 2117.62 0.649228 -0.139282 0
M  V30 22914 H 2120.15 1.7742 -1.01898 0
M  V30 22915 H 2120.16 4.07562 -0.188968 0
M  V30 22916 H 2118.83 3.93951 -1.33325 0
M  V30 22917 H 2117.41 3.69769 0.482177 0
M  V30 22918 N 2119.6 0.497834 1.49531 0
M  V30 22919 C 2120.87 -0.110673 1.95287 0
M  V30 22920 C 2121.25 -1.54433 1.43923 0
M  V30 22921 O 2120.6 -2.19012 0.651616 0
M  V30 22922 C 2120.81 -0.0265636 3.4899 0
M  V30 22923 C 2122.16 -0.202082 4.24119 0
M  V30 22924 O 2123.18 -0.1019 3.56054 0
M  V30 22925 O 2122.04 -0.407373 5.4498 0
M  V30 22926 H 2119.14 -0.0970406 0.821287 0
M  V30 22927 H 2121.68 0.560146 1.60189 0
M  V30 22928 H 2120.45 0.973355 3.79001 0
M  V30 22929 H 2120.08 -0.737668 3.90697 0
M  V30 22930 N 2121.07 -1.5589 0.231532 0
M  V30 22931 C 2122 -2.23713 -0.66894 0
M  V30 22932 C 2122.98 -1.21219 -1.19332 0
M  V30 22933 O 2124.17 -1.49831 -1.23549 0
M  V30 22934 C 2121.3 -2.92476 -1.87284 0
M  V30 22935 C 2120.25 -4.01527 -1.48189 0
M  V30 22936 C 2119.58 -4.57637 -2.76537 0
M  V30 22937 C 2120.88 -5.18057 -0.664415 0
M  V30 22938 H 2122.57 -2.99221 -0.103437 0
M  V30 22939 H 2120.12 -1.43919 -0.0483103 0
M  V30 22940 H 2122.07 -3.38617 -2.50831 0
M  V30 22941 H 2120.8 -2.14431 -2.46347 0
M  V30 22942 H 2119.46 -3.56131 -0.869833 0
M  V30 22943 H 2119.1 -3.7631 -3.33766 0
M  V30 22944 H 2118.8 -5.31242 -2.51108 0
M  V30 22945 H 2120.33 -5.06503 -3.41009 0
M  V30 22946 H 2121.74 -5.60519 -1.20382 0
M  V30 22947 H 2120.14 -5.97956 -0.506811 0
M  V30 22948 H 2121.21 -4.83798 0.326792 0
M  V30 22949 N 2122.55 0.0417572 -1.57545 0
M  V30 22950 C 2123.8 0.734075 -1.87868 0
M  V30 22951 C 2124.11 1.77194 -0.828352 0
M  V30 22952 O 2125.32 2.51595 -1.02039 0
M  V30 22953 C 2123.78 1.35664 -3.33352 0
M  V30 22954 C 2123.38 0.355779 -4.46585 0
M  V30 22955 C 2125.13 2.02957 -3.72839 0
M  V30 22956 C 2123.03 0.985962 -5.83123 0
M  V30 22957 H 2121.96 0.277922 -0.70091 0
M  V30 22958 H 2124.62 -0.0119297 -1.83496 0
M  V30 22959 H 2123 2.15192 -3.32428 0
M  V30 22960 H 2124.17 -0.411871 -4.58956 0
M  V30 22961 H 2122.49 -0.214356 -4.15848 0
M  V30 22962 H 2125.08 2.50935 -4.72161 0
M  V30 22963 H 2125.43 2.84222 -3.04176 0
M  V30 22964 H 2125.96 1.3022 -3.75882 0
M  V30 22965 H 2122.7 0.212992 -6.55154 0
M  V30 22966 H 2122.22 1.72375 -5.74497 0
M  V30 22967 H 2123.9 1.49705 -6.29442 0
M  V30 22968 N 2124.03 1.54445 0.313786 0
M  V30 22969 C 2124.96 1.80863 1.40787 0
M  V30 22970 C 2125.97 0.691004 1.47408 0
M  V30 22971 O 2127.16 0.968278 1.49955 0
M  V30 22972 C 2124.26 1.92015 2.79255 0
M  V30 22973 C 2123.44 3.22285 2.95722 0
M  V30 22974 C 2122.5 3.24014 4.1461 0
M  V30 22975 O 2121.52 3.97608 4.07304 0
M  V30 22976 N 2122.72 2.48493 5.24625 0
M  V30 22977 H 2125.49 2.75284 1.18485 0
M  V30 22978 H 2123.05 1.53861 0.503813 0
M  V30 22979 H 2125.04 1.90589 3.57013 0
M  V30 22980 H 2123.61 1.04647 2.94564 0
M  V30 22981 H 2122.83 3.36591 2.05183 0
M  V30 22982 H 2124.12 4.08276 3.03625 0
M  V30 22983 H 2123.52 1.88309 5.33438 0
M  V30 22984 H 2122.07 2.52834 6.00765 0
M  V30 22985 N 2125.51 -0.576345 1.46683 0
M  V30 22986 C 2126.45 -1.68494 1.57729 0
M  V30 22987 C 2127.42 -1.6067 0.421246 0
M  V30 22988 O 2128.61 -1.79788 0.638829 0
M  V30 22989 C 2125.75 -3.0683 1.57953 0
M  V30 22990 C 2124.86 -3.25233 2.84337 0
M  V30 22991 C 2124 -4.53855 2.76024 0
M  V30 22992 C 2123.04 -4.65623 3.97319 0
M  V30 22993 N 2122.17 -5.85578 3.87354 0
M  V30 22994 H 2127.01 -1.58391 2.52421 0
M  V30 22995 H 2124.55 -0.771863 1.25223 0
M  V30 22996 H 2126.51 -3.86909 1.56068 0
M  V30 22997 H 2125.14 -3.15815 0.667889 0
M  V30 22998 H 2124.19 -2.38715 2.96174 0
M  V30 22999 H 2125.5 -3.29795 3.74215 0
M  V30 23000 H 2124.66 -5.4217 2.72281 0
M  V30 23001 H 2123.4 -4.51741 1.83797 0
M  V30 23002 H 2122.4 -3.75724 4.01387 0
M  V30 23003 H 2123.63 -4.69511 4.90649 0
M  V30 23004 H 2121.57 -5.84449 2.97918 0
M  V30 23005 H 2121.49 -5.91436 4.70892 0
M  V30 23006 H 2122.76 -6.76306 3.87596 0
M  V30 23007 N 2126.99 -1.34495 -0.82151 0
M  V30 23008 C 2128.22 -1.29823 -1.60716 0
M  V30 23009 C 2128.62 0.129564 -1.88756 0
M  V30 23010 O 2127.97 1.0875 -1.48051 0
M  V30 23011 C 2128.03 -2.02237 -2.97221 0
M  V30 23012 C 2127.69 -3.51489 -2.92069 0
M  V30 23013 C 2128.69 -4.46369 -2.66554 0
M  V30 23014 C 2126.37 -3.93923 -3.11657 0
M  V30 23015 C 2128.37 -5.81657 -2.6068 0
M  V30 23016 C 2126.06 -5.2931 -3.05408 0
M  V30 23017 C 2127.05 -6.22989 -2.79953 0
M  V30 23018 O 2126.74 -7.55895 -2.73638 0
M  V30 23019 H 2126.47 -0.44801 -0.506225 0
M  V30 23020 H 2129.03 -1.77704 -1.03008 0
M  V30 23021 H 2127.26 -1.48972 -3.56853 0
M  V30 23022 H 2128.95 -1.90836 -3.58241 0
M  V30 23023 H 2129.71 -4.14905 -2.51155 0
M  V30 23024 H 2125.59 -3.21403 -3.30486 0
M  V30 23025 H 2129.14 -6.54747 -2.40732 0
M  V30 23026 H 2125.03 -5.60392 -3.20361 0
M  V30 23027 H 2125.8 -7.65647 -2.89355 0
M  V30 23028 N 2128.46 1.04188 -1.18248 0
M  V30 23029 C 2129.71 1.77367 -0.977091 0
M  V30 23030 C 2130.04 1.88138 0.493397 0
M  V30 23031 O 2129.29 1.38508 1.38253 0
M  V30 23032 C 2129.59 3.20799 -1.57553 0
M  V30 23033 C 2129.26 3.30065 -3.07193 0
M  V30 23034 C 2127.92 3.32301 -3.48037 0
M  V30 23035 C 2130.27 3.30263 -4.03207 0
M  V30 23036 C 2127.6 3.32376 -4.8347 0
M  V30 23037 C 2129.95 3.31877 -5.38554 0
M  V30 23038 C 2128.62 3.32405 -5.78846 0
M  V30 23039 H 2127.89 0.649033 -0.357543 0
M  V30 23040 H 2130.53 1.2238 -1.47294 0
M  V30 23041 H 2128.84 3.7878 -1.00165 0
M  V30 23042 H 2130.54 3.76063 -1.39204 0
M  V30 23043 H 2127.13 3.29044 -2.74641 0
M  V30 23044 H 2131.31 3.27728 -3.72704 0
M  V30 23045 H 2126.57 3.311 -5.13987 0
M  V30 23046 H 2130.74 3.3098 -6.1272 0
M  V30 23047 H 2128.37 3.32216 -6.83766 0
M  V30 23048 N 2129.94 0.98432 1.23081 0
M  V30 23049 C 2131.19 0.656352 1.91885 0
M  V30 23050 C 2131.52 -0.808541 1.76568 0
M  V30 23051 O 2130.8 -1.5837 1.12912 0
M  V30 23052 C 2131.08 1.05239 3.44379 0
M  V30 23053 C 2130.93 2.57521 3.68786 0
M  V30 23054 C 2132.25 0.599218 4.36002 0
M  V30 23055 H 2129.37 0.23992 0.696855 0
M  V30 23056 H 2132.01 1.22631 1.45127 0
M  V30 23057 H 2130.16 0.567423 3.84334 0
M  V30 23058 H 2131.83 3.13622 3.38288 0
M  V30 23059 H 2130.08 2.99978 3.13362 0
M  V30 23060 H 2130.75 2.80282 4.75548 0
M  V30 23061 H 2133.22 1.01565 4.03514 0
M  V30 23062 H 2132.1 0.904717 5.41393 0
M  V30 23063 H 2132.36 -0.500359 4.39259 0
M  V30 23064 N 2131.42 -1.38259 0.756453 0
M  V30 23065 C 2132.65 -2.04861 0.323535 0
M  V30 23066 C 2133.07 -1.56679 -1.04083 0
M  V30 23067 O 2132.43 -0.72007 -1.66387 0
M  V30 23068 C 2132.48 -3.58812 0.358692 0
M  V30 23069 O 2131.58 -4.07304 -0.646296 0
M  V30 23070 H 2130.92 -0.64848 0.142723 0
M  V30 23071 H 2133.45 -1.76877 1.02838 0
M  V30 23072 H 2133.46 -4.07456 0.210579 0
M  V30 23073 H 2132.14 -3.93238 1.35413 0
M  V30 23074 H 2130.71 -3.7002 -0.462561 0
M  V30 23075 N 2132.9 -0.505757 -1.49264 0
M  V30 23076 C 2134.31 -0.0591588 -1.86606 0
M  V30 23077 C 2134.66 1.35636 -1.41765 0
M  V30 23078 O 2133.79 2.01164 -0.797622 0
M  V30 23079 C 2134.38 -0.100581 -3.38651 0
M  V30 23080 C 2132.94 0.290698 -3.75276 0
M  V30 23081 C 2132.09 -0.471033 -2.7327 0
M  V30 23082 H 2135.04 -0.718294 -1.41514 0
M  V30 23083 H 2135.06 0.693588 -3.74125 0
M  V30 23084 H 2134.57 -1.13093 -3.71257 0
M  V30 23085 H 2132.67 1.3241 -3.48279 0
M  V30 23086 H 2132.78 -0.0320604 -4.79089 0
M  V30 23087 H 2131.15 0.0797288 -2.54575 0
M  V30 23088 H 2131.93 -1.50155 -3.0872 0
M  V30 23089 N 2134.38 1.55765 -0.239796 0
M  V30 23090 C 2135.6 2.03167 0.391261 0
M  V30 23091 C 2136.02 1.11923 1.52049 0
M  V30 23092 O 2135.38 0.132278 1.8202 0
M  V30 23093 C 2135.43 3.49969 0.90575 0
M  V30 23094 O 2135.15 4.37736 -0.178468 0
M  V30 23095 C 2136.65 4.131 1.60821 0
M  V30 23096 H 2133.87 0.664411 0.0938007 0
M  V30 23097 H 2136.41 2.01278 -0.361584 0
M  V30 23098 H 2134.57 3.52415 1.6088 0
M  V30 23099 H 2134.98 5.24075 0.211064 0
M  V30 23100 H 2136.46 5.17533 1.92 0
M  V30 23101 H 2136.93 3.59169 2.52773 0
M  V30 23102 H 2137.54 4.14556 0.949915 0
M  V30 23103 N 2135.85 -0.0334016 1.57565 0
M  V30 23104 C 2136.78 -1.03494 2.09312 0
M  V30 23105 C 2137.77 -1.37985 0.9947 0
M  V30 23106 O 2138.95 -1.46944 1.26969 0
M  V30 23107 C 2136.08 -2.33717 2.56892 0
M  V30 23108 C 2135.03 -2.1348 3.70959 0
M  V30 23109 C 2134.36 -3.49425 4.0473 0
M  V30 23110 C 2135.66 -1.52451 4.99556 0
M  V30 23111 H 2137.35 -0.60419 2.9324 0
M  V30 23112 H 2134.9 -0.289182 1.41066 0
M  V30 23113 H 2136.85 -3.04107 2.91714 0
M  V30 23114 H 2135.58 -2.78843 1.70041 0
M  V30 23115 H 2134.24 -1.45523 3.3648 0
M  V30 23116 H 2133.88 -3.92192 3.14952 0
M  V30 23117 H 2133.58 -3.36711 4.81559 0
M  V30 23118 H 2135.11 -4.21184 4.42082 0
M  V30 23119 H 2136.52 -2.12753 5.32362 0
M  V30 23120 H 2134.92 -1.50324 5.80967 0
M  V30 23121 H 2135.99 -0.48986 4.82419 0
M  V30 23122 N 2137.33 -1.54609 -0.305591 0
M  V30 23123 C 2138.58 -1.73672 -1.04137 0
M  V30 23124 C 2138.91 -0.520024 -1.87419 0
M  V30 23125 O 2138.16 0.49808 -1.89256 0
M  V30 23126 C 2138.46 -2.97546 -1.97993 0
M  V30 23127 C 2138.13 -4.31535 -1.30723 0
M  V30 23128 C 2136.79 -4.67958 -1.12109 0
M  V30 23129 C 2139.14 -5.14614 -0.825937 0
M  V30 23130 C 2136.47 -5.85045 -0.440427 0
M  V30 23131 C 2138.82 -6.324 -0.159014 0
M  V30 23132 C 2137.49 -6.67489 0.0391208 0
M  V30 23133 H 2136.76 -0.635509 -0.381063 0
M  V30 23134 H 2139.4 -1.88863 -0.316695 0
M  V30 23135 H 2137.71 -2.77116 -2.76973 0
M  V30 23136 H 2139.4 -3.09489 -2.54985 0
M  V30 23137 H 2135.99 -4.02888 -1.46217 0
M  V30 23138 H 2140.18 -4.86977 -0.957472 0
M  V30 23139 H 2135.43 -6.10777 -0.275887 0
M  V30 23140 H 2139.61 -6.96047 0.221841 0
M  V30 23141 H 2137.24 -7.58071 0.568561 0
M  V30 23142 N 2138.81 0.568558 -1.46987 0
M  V30 23143 C 2140.23 0.893359 -1.32254 0
M  V30 23144 C 2140.43 1.99185 -0.304531 0
M  V30 23145 O 2139.48 2.50853 0.287946 0
M  V30 23146 C 2140.8 1.29733 -2.71275 0
M  V30 23147 C 2142.34 1.40939 -2.79473 0
M  V30 23148 C 2142.82 1.84696 -4.19108 0
M  V30 23149 N 2144.31 1.91866 -4.21594 0
M  V30 23150 C 2145.04 2.27028 -5.26542 0
M  V30 23151 N 2144.54 2.60882 -6.41804 0
M  V30 23152 N 2146.33 2.27704 -5.13914 0
M  V30 23153 H 2138.48 -0.156857 -2.1182 0
M  V30 23154 H 2140.75 -0.00750539 -0.94797 0
M  V30 23155 H 2140.45 0.564082 -3.47147 0
M  V30 23156 H 2140.33 2.2559 -3.02306 0
M  V30 23157 H 2142.71 2.13347 -2.0388 0
M  V30 23158 H 2142.8 0.432977 -2.52109 0
M  V30 23159 H 2142.44 1.12862 -4.95202 0
M  V30 23160 H 2142.37 2.8332 -4.43889 0
M  V30 23161 H 2144.86 1.68135 -3.38436 0
M  V30 23162 H 2145.17 2.86707 -7.17648 0
M  V30 23163 H 2143.52 2.58488 -6.45142 0
M  V30 23164 H 2146.71 2.00687 -4.22898 0
M  V30 23165 H 2146.88 2.54778 -5.95812 0
M  V30 23166 N 2140.29 1.34929 0.814366 0
M  V30 23167 C 2141.53 1.27956 1.57338 0
M  V30 23168 C 2141.87 -0.147896 1.93636 0
M  V30 23169 O 2141.14 -1.09539 1.60722 0
M  V30 23170 C 2141.43 2.17862 2.8672 0
M  V30 23171 C 2141.28 3.69185 2.56948 0
M  V30 23172 C 2142.6 2.07033 3.88362 0
M  V30 23173 H 2139.72 0.466149 0.570854 0
M  V30 23174 H 2142.36 1.65259 0.937513 0
M  V30 23175 H 2140.51 1.86178 3.40984 0
M  V30 23176 H 2142.18 4.11275 2.08927 0
M  V30 23177 H 2140.42 3.89851 1.90259 0
M  V30 23178 H 2141.09 4.2747 3.49247 0
M  V30 23179 H 2143.57 2.34869 3.43476 0
M  V30 23180 H 2142.45 2.72151 4.76681 0
M  V30 23181 H 2142.71 1.04989 4.29453 0
M  V30 23182 N 2141.77 -1.0356 1.18799 0
M  V30 23183 C 2143.02 -1.76246 0.980824 0
M  V30 23184 C 2143.33 -1.89365 -0.489935 0
M  V30 23185 O 2144.53 -2.58955 -0.815746 0
M  V30 23186 C 2142.99 -3.16901 1.70592 0
M  V30 23187 C 2142.6 -3.11859 3.21633 0
M  V30 23188 C 2144.34 -3.9393 1.58175 0
M  V30 23189 C 2142.25 -4.47404 3.8676 0
M  V30 23190 H 2141.18 -0.660673 0.363355 0
M  V30 23191 H 2143.83 -1.15949 1.42225 0
M  V30 23192 H 2142.21 -3.77625 1.19228 0
M  V30 23193 H 2143.39 -2.60556 3.80062 0
M  V30 23194 H 2141.7 -2.48328 3.34249 0
M  V30 23195 H 2144.3 -4.94177 2.0419 0
M  V30 23196 H 2144.64 -4.1285 0.534821 0
M  V30 23197 H 2145.17 -3.39792 2.06848 0
M  V30 23198 H 2141.91 -4.33688 4.91523 0
M  V30 23199 H 2141.43 -4.9879 3.3312 0
M  V30 23200 H 2143.11 -5.16306 3.89919 0
M  V30 23201 N 2143.25 -0.990834 -1.22557 0
M  V30 23202 C 2144.66 -0.701213 -1.43371 0
M  V30 23203 C 2144.86 0.728876 -1.87855 0
M  V30 23204 O 2143.92 1.50004 -2.03113 0
M  V30 23205 C 2145.23 -1.70503 -2.47688 0
M  V30 23206 C 2146.78 -1.72024 -2.61489 0
M  V30 23207 C 2147.25 -2.71263 -3.69026 0
M  V30 23208 N 2148.74 -2.69845 -3.76481 0
M  V30 23209 C 2149.48 -3.43297 -4.59276 0
M  V30 23210 N 2148.98 -4.26343 -5.4608 0
M  V30 23211 N 2150.77 -3.32013 -4.53568 0
M  V30 23212 H 2142.92 -1.91447 -0.919875 0
M  V30 23213 H 2145.18 -0.825544 -0.466027 0
M  V30 23214 H 2144.89 -2.72827 -2.21942 0
M  V30 23215 H 2144.76 -1.49623 -3.46256 0
M  V30 23216 H 2147.15 -0.70399 -2.8658 0
M  V30 23217 H 2147.23 -1.96973 -1.63203 0
M  V30 23218 H 2146.87 -3.73036 -3.44683 0
M  V30 23219 H 2146.8 -2.43585 -4.66877 0
M  V30 23220 H 2149.3 -2.09583 -3.14457 0
M  V30 23221 H 2149.61 -4.79221 -6.06273 0
M  V30 23222 H 2147.95 -4.30431 -5.45669 0
M  V30 23223 H 2151.14 -2.66577 -3.84778 0
M  V30 23224 H 2151.32 -3.89516 -5.17862 0
M  V30 23225 N 2144.72 1.37856 -0.763775 0
M  V30 23226 C 2145.65 2.32961 -0.158515 0
M  V30 23227 C 2146.63 1.55381 0.692142 0
M  V30 23228 O 2147.82 1.83655 0.631241 0
M  V30 23229 C 2144.95 3.39593 0.727585 0
M  V30 23230 C 2143.9 4.27995 -0.0211379 0
M  V30 23231 C 2143.23 5.2557 0.983884 0
M  V30 23232 C 2144.53 5.08434 -1.1955 0
M  V30 23233 H 2146.22 2.83828 -0.952999 0
M  V30 23234 H 2143.77 1.36465 -0.459721 0
M  V30 23235 H 2145.72 4.05098 1.16076 0
M  V30 23236 H 2144.45 2.87233 1.5545 0
M  V30 23237 H 2143.11 3.6401 -0.435002 0
M  V30 23238 H 2142.75 4.69493 1.80514 0
M  V30 23239 H 2142.45 5.85574 0.487507 0
M  V30 23240 H 2143.98 5.9395 1.41616 0
M  V30 23241 H 2145.39 5.67122 -0.839372 0
M  V30 23242 H 2143.79 5.77724 -1.62342 0
M  V30 23243 H 2144.86 4.41575 -2.00349 0
M  V30 23244 N 2146.2 0.513665 1.48994 0
M  V30 23245 C 2147.16 -0.247066 2.27864 0
M  V30 23246 C 2148.16 -0.882574 1.34415 0
M  V30 23247 O 2149.35 -0.745145 1.57459 0
M  V30 23248 C 2146.49 -1.35575 3.12782 0
M  V30 23249 H 2147.68 0.445185 2.96577 0
M  V30 23250 H 2145.23 0.269045 1.53967 0
M  V30 23251 H 2145.97 -2.08176 2.48663 0
M  V30 23252 H 2145.75 -0.905368 3.81504 0
M  V30 23253 H 2147.24 -1.89127 3.72318 0
M  V30 23254 N 2147.68 -1.55636 0.248053 0
M  V30 23255 C 2149.1 -1.59242 -0.10677 0
M  V30 23256 C 2149.3 -1.26521 -1.56827 0
M  V30 23257 O 2148.35 -1.01308 -2.31285 0
M  V30 23258 C 2149.66 -2.99713 0.243455 0
M  V30 23259 C 2151.21 -3.12436 0.187848 0
M  V30 23260 C 2151.69 -4.55128 0.512122 0
M  V30 23261 N 2153.18 -4.60884 0.462665 0
M  V30 23262 C 2153.91 -5.69273 0.686723 0
M  V30 23263 N 2153.41 -6.8592 0.973967 0
M  V30 23264 N 2155.2 -5.587 0.617351 0
M  V30 23265 H 2147.35 -1.75175 1.20114 0
M  V30 23266 H 2149.62 -0.81551 0.483371 0
M  V30 23267 H 2149.32 -3.28399 1.25884 0
M  V30 23268 H 2149.2 -3.74754 -0.428884 0
M  V30 23269 H 2151.58 -2.8353 -0.818215 0
M  V30 23270 H 2151.66 -2.39667 0.894055 0
M  V30 23271 H 2151.31 -4.84755 1.51575 0
M  V30 23272 H 2151.24 -5.26159 -0.215575 0
M  V30 23273 H 2153.73 -3.77076 0.249427 0
M  V30 23274 H 2154.04 -7.64459 1.13232 0
M  V30 23275 H 2152.39 -6.87601 1.01145 0
M  V30 23276 H 2155.58 -4.66447 0.392982 0
M  V30 23277 H 2155.75 -6.431 0.795363 0
M  V30 23278 N 2149.16 0.0250451 -1.5758 0
M  V30 23279 C 2150.41 0.714108 -1.88636 0
M  V30 23280 C 2150.72 1.76305 -0.847099 0
M  V30 23281 O 2151.93 2.50499 -1.04702 0
M  V30 23282 C 2150.38 1.3212 -3.34772 0
M  V30 23283 C 2149.99 0.308393 -4.46937 0
M  V30 23284 C 2151.73 1.98991 -3.74971 0
M  V30 23285 C 2149.64 0.924059 -5.84136 0
M  V30 23286 H 2148.57 0.270472 -0.703819 0
M  V30 23287 H 2151.22 -0.0313912 -1.83473 0
M  V30 23288 H 2149.6 2.11654 -3.34692 0
M  V30 23289 H 2150.78 -0.460527 -4.58493 0
M  V30 23290 H 2149.09 -0.258451 -4.15597 0
M  V30 23291 H 2151.69 2.45913 -4.74796 0
M  V30 23292 H 2152.03 2.8098 -3.07174 0
M  V30 23293 H 2152.57 1.26226 -3.77242 0
M  V30 23294 H 2149.3 0.143492 -6.55343 0
M  V30 23295 H 2148.82 1.66272 -5.76293 0
M  V30 23296 H 2150.5 1.4302 -6.30995 0
M  V30 23297 N 2150.64 1.54769 0.297388 0
M  V30 23298 C 2151.88 1.73877 1.0301 0
M  V30 23299 C 2152.2 0.529442 1.87675 0
M  V30 23300 O 2151.47 -0.456215 1.90514 0
M  V30 23301 H 2150.05 0.641155 0.383313 0
M  V30 23302 H 2152.72 1.92129 0.3275 0
M  V30 23303 H 2151.81 2.62953 1.68113 0
M  V30 23304 N 2152.11 -0.560755 1.47286 0
M  V30 23305 C 2153.53 -0.886333 1.32726 0
M  V30 23306 C 2153.73 -1.99021 0.31509 0
M  V30 23307 O 2152.79 -2.51002 -0.274638 0
M  V30 23308 C 2154.1 -1.28292 2.71959 0
M  V30 23309 C 2155.65 -1.39455 2.80217 0
M  V30 23310 C 2156.12 -1.8247 4.20082 0
M  V30 23311 N 2157.61 -1.89627 4.22606 0
M  V30 23312 C 2158.35 -2.24232 5.27738 0
M  V30 23313 N 2157.84 -2.57475 6.43178 0
M  V30 23314 N 2159.64 -2.24975 5.15114 0
M  V30 23315 H 2151.79 0.168088 2.11734 0
M  V30 23316 H 2154.05 0.0125326 0.947917 0
M  V30 23317 H 2153.76 -0.545664 3.47441 0
M  V30 23318 H 2153.63 -2.23983 3.03499 0
M  V30 23319 H 2156.02 -2.12262 2.05009 0
M  V30 23320 H 2156.1 -0.419601 2.52335 0
M  V30 23321 H 2155.74 -1.10234 4.95793 0
M  V30 23322 H 2155.67 -2.80962 4.45385 0
M  V30 23323 H 2158.16 -1.66337 3.39323 0
M  V30 23324 H 2158.48 -2.82897 7.19159 0
M  V30 23325 H 2156.82 -2.55063 6.46504 0
M  V30 23326 H 2160.01 -1.98441 4.23956 0
M  V30 23327 H 2160.19 -2.51614 5.97155 0
M  V30 23328 N 2153.59 -1.35359 -0.807199 0
M  V30 23329 C 2154.84 -1.28788 -1.56657 0
M  V30 23330 C 2155.17 0.137625 -1.93712 0
M  V30 23331 O 2154.45 1.08685 -1.61301 0
M  V30 23332 C 2154.73 -2.19379 -2.85561 0
M  V30 23333 C 2154.58 -3.70543 -2.54986 0
M  V30 23334 C 2155.9 -2.0909 -3.87259 0
M  V30 23335 H 2153.02 -0.469169 -0.568374 0
M  V30 23336 H 2155.66 -1.65754 -0.928736 0
M  V30 23337 H 2153.81 -1.87984 -3.39992 0
M  V30 23338 H 2155.48 -4.12377 -2.06743 0
M  V30 23339 H 2153.73 -3.90855 -1.88189 0
M  V30 23340 H 2154.4 -4.29316 -3.46975 0
M  V30 23341 H 2156.87 -2.36687 -3.42226 0
M  V30 23342 H 2155.75 -2.74675 -4.75231 0
M  V30 23343 H 2156.01 -1.07265 -4.2889 0
M  V30 23344 N 2155.07 1.02928 -1.19346 0
M  V30 23345 C 2156 2.13099 -0.954528 0
M  V30 23346 C 2156.98 1.69731 0.111965 0
M  V30 23347 O 2158.17 1.94152 -0.0429718 0
M  V30 23348 C 2155.3 3.43798 -0.491955 0
M  V30 23349 C 2154.25 4.00845 -1.50024 0
M  V30 23350 C 2153.58 5.2716 -0.894759 0
M  V30 23351 C 2154.88 4.35699 -2.88035 0
M  V30 23352 H 2156.57 2.33345 -1.87592 0
M  V30 23353 H 2154.12 1.1214 -0.903366 0
M  V30 23354 H 2156.07 4.20243 -0.312095 0
M  V30 23355 H 2154.79 3.23272 0.46503 0
M  V30 23356 H 2153.45 3.26495 -1.66724 0
M  V30 23357 H 2153.1 5.02952 0.0697668 0
M  V30 23358 H 2152.8 5.66291 -1.56805 0
M  V30 23359 H 2154.32 6.06272 -0.725685 0
M  V30 23360 H 2155.74 5.03083 -2.7492 0
M  V30 23361 H 2154.13 4.8591 -3.52152 0
M  V30 23362 H 2155.2 3.45019 -3.4072 0
M  V30 23363 N 2156.55 0.997319 1.2203 0
M  V30 23364 C 2157.96 0.708807 1.42997 0
M  V30 23365 C 2158.16 -0.718903 1.88239 0
M  V30 23366 O 2157.22 -1.48925 2.03906 0
M  V30 23367 C 2158.53 1.71814 2.4678 0
M  V30 23368 C 2160.08 1.73408 2.60573 0
M  V30 23369 C 2160.56 2.73216 3.67582 0
M  V30 23370 N 2162.05 2.71837 3.75045 0
M  V30 23371 C 2162.78 3.45728 4.57449 0
M  V30 23372 N 2162.28 4.29233 5.43811 0
M  V30 23373 N 2164.07 3.34413 4.51801 0
M  V30 23374 H 2156.22 1.91932 0.909709 0
M  V30 23375 H 2158.48 0.828004 0.461642 0
M  V30 23376 H 2158.19 2.74 2.20492 0
M  V30 23377 H 2158.06 1.51457 3.45457 0
M  V30 23378 H 2160.45 0.719178 2.86202 0
M  V30 23379 H 2160.53 1.97835 1.62157 0
M  V30 23380 H 2160.18 3.74859 3.427 0
M  V30 23381 H 2160.11 2.46058 4.65578 0
M  V30 23382 H 2162.6 2.11248 3.13341 0
M  V30 23383 H 2162.91 4.82429 6.03723 0
M  V30 23384 H 2161.26 4.33319 5.43378 0
M  V30 23385 H 2164.45 2.68614 3.83359 0
M  V30 23386 H 2164.62 3.92257 5.15789 0
M  V30 23387 N 2158.03 -1.37449 0.771075 0
M  V30 23388 C 2158.96 -2.32874 0.170867 0
M  V30 23389 C 2159.94 -1.55746 -0.683892 0
M  V30 23390 O 2161.12 -1.83987 -0.621492 0
M  V30 23391 C 2158.25 -3.39974 -0.709566 0
M  V30 23392 C 2157.21 -4.27978 0.0438353 0
M  V30 23393 C 2156.53 -5.26084 -0.955998 0
M  V30 23394 C 2157.83 -5.07793 1.22245 0
M  V30 23395 H 2159.53 -2.83319 0.968038 0
M  V30 23396 H 2157.07 -1.36219 0.466952 0
M  V30 23397 H 2159.03 -4.05708 -1.13926 0
M  V30 23398 H 2157.75 -2.88053 -1.53925 0
M  V30 23399 H 2156.41 -3.63774 0.454301 0
M  V30 23400 H 2156.06 -4.70444 -1.78021 0
M  V30 23401 H 2155.76 -5.85824 -0.456445 0
M  V30 23402 H 2157.28 -5.94693 -1.38465 0
M  V30 23403 H 2158.69 -5.66669 0.869436 0
M  V30 23404 H 2157.09 -5.76855 1.65404 0
M  V30 23405 H 2158.16 -4.40506 2.02688 0
M  V30 23406 N 2159.5 -0.52156 -1.4872 0
M  V30 23407 C 2160.75 0.0175509 -2.01692 0
M  V30 23408 C 2161.07 1.36122 -1.40464 0
M  V30 23409 O 2162.27 1.98821 -1.84885 0
M  V30 23410 C 2160.73 0.0816961 -3.59807 0
M  V30 23411 C 2160.34 -1.25657 -4.30017 0
M  V30 23412 C 2162.08 0.570081 -4.20655 0
M  V30 23413 C 2159.99 -1.15347 -5.80042 0
M  V30 23414 H 2158.92 0.0103307 -0.753929 0
M  V30 23415 H 2161.57 -0.664075 -1.71062 0
M  V30 23416 H 2159.95 0.828218 -3.87242 0
M  V30 23417 H 2161.12 -2.018 -4.14263 0
M  V30 23418 H 2159.44 -1.68002 -3.81004 0
M  V30 23419 H 2162.04 0.665053 -5.30548 0
M  V30 23420 H 2162.38 1.57387 -3.85402 0
M  V30 23421 H 2162.91 -0.120509 -3.97617 0
M  V30 23422 H 2159.65 -2.13215 -6.19854 0
M  V30 23423 H 2159.17 -0.433268 -5.98233 0
M  V30 23424 H 2160.85 -0.840647 -6.41515 0
M  V30 23425 N 2160.98 1.55502 -0.256304 0
M  V30 23426 C 2162.4 1.59297 0.0983236 0
M  V30 23427 C 2162.6 1.27351 1.56154 0
M  V30 23428 O 2161.65 1.02533 2.30745 0
M  V30 23429 C 2162.97 2.9958 -0.259346 0
M  V30 23430 C 2164.52 3.12332 -0.204415 0
M  V30 23431 C 2164.99 4.5485 -0.536252 0
M  V30 23432 N 2166.48 4.60632 -0.487101 0
M  V30 23433 C 2167.22 5.68901 -0.716903 0
M  V30 23434 N 2166.71 6.85393 -1.01033 0
M  V30 23435 N 2168.51 5.58364 -0.646972 0
M  V30 23436 H 2160.66 1.74536 -1.21042 0
M  V30 23437 H 2162.92 0.812935 -0.487689 0
M  V30 23438 H 2162.63 3.27727 -1.27624 0
M  V30 23439 H 2162.5 3.74976 0.409004 0
M  V30 23440 H 2164.89 2.8396 0.803168 0
M  V30 23441 H 2164.97 2.3919 -0.906752 0
M  V30 23442 H 2164.61 4.83944 -1.54143 0
M  V30 23443 H 2164.54 5.26265 0.187668 0
M  V30 23444 H 2167.03 3.76938 -0.269421 0
M  V30 23445 H 2167.35 7.63848 -1.17285 0
M  V30 23446 H 2165.69 6.87055 -1.0479 0
M  V30 23447 H 2168.88 4.66233 -0.417713 0
M  V30 23448 H 2169.05 6.42669 -0.829457 0
M  V30 23449 N 2162.46 -0.0166879 1.57591 0
M  V30 23450 C 2163.71 -0.703596 1.89457 0
M  V30 23451 C 2164.03 -1.75229 0.855563 0
M  V30 23452 O 2163.3 -1.95595 -0.109241 0
M  V30 23453 H 2161.88 -0.262861 0.699223 0
M  V30 23454 H 2164.54 0.0202908 1.94889 0
M  V30 23455 H 2163.64 -1.18538 2.88713 0
M  V30 23456 N 2163.94 -1.54924 -0.289176 0
M  V30 23457 C 2164.9 -1.85935 -1.34017 0
M  V30 23458 C 2165.9 -0.732916 -1.43126 0
M  V30 23459 O 2167.09 -1.00116 -1.42556 0
M  V30 23460 C 2164.22 -2.0502 -2.72359 0
M  V30 23461 H 2165.42 -2.79872 -1.07758 0
M  V30 23462 H 2162.97 -1.47168 -0.526442 0
M  V30 23463 H 2163.7 -1.13412 -3.03823 0
M  V30 23464 H 2163.49 -2.8702 -2.67136 0
M  V30 23465 H 2164.98 -2.30342 -3.48328 0
M  V30 23466 N 2165.42 0.552936 -1.47582 0
M  V30 23467 C 2166.36 1.65963 -1.60389 0
M  V30 23468 C 2167.33 1.59979 -0.446754 0
M  V30 23469 O 2168.52 1.78749 -0.667351 0
M  V30 23470 C 2165.66 3.04278 -1.62815 0
M  V30 23471 C 2164.77 3.20668 -2.89476 0
M  V30 23472 C 2163.91 4.49406 -2.8321 0
M  V30 23473 C 2162.95 4.59243 -4.04676 0
M  V30 23474 N 2162.08 5.79341 -3.96621 0
M  V30 23475 H 2166.92 1.54355 -2.54909 0
M  V30 23476 H 2164.46 0.751844 -1.26435 0
M  V30 23477 H 2166.42 3.84377 -1.62204 0
M  V30 23478 H 2165.05 3.14712 -0.718048 0
M  V30 23479 H 2164.1 2.33973 -2.99935 0
M  V30 23480 H 2165.41 3.238 -3.79414 0
M  V30 23481 H 2164.57 5.3777 -2.80872 0
M  V30 23482 H 2163.3 4.4876 -1.90961 0
M  V30 23483 H 2162.31 3.69291 -4.07314 0
M  V30 23484 H 2163.53 4.61645 -4.98057 0
M  V30 23485 H 2161.48 5.79636 -3.07178 0
M  V30 23486 H 2161.4 5.8387 -4.80242 0
M  V30 23487 H 2162.67 6.70054 -3.98306 0
M  V30 23488 N 2166.89 1.35785 0.800009 0
M  V30 23489 C 2168.14 1.2917 1.55434 0
M  V30 23490 C 2168.46 -0.131766 1.94554 0
M  V30 23491 O 2167.73 -1.06968 1.64118 0
M  V30 23492 H 2166.31 0.475134 0.576417 0
M  V30 23493 H 2168.98 1.69963 0.953872 0
M  V30 23494 H 2168.07 1.912 2.46676 0
M  V30 23495 N 2168.37 -1.02294 1.19891 0
M  V30 23496 C 2169.62 -1.75196 0.999463 0
M  V30 23497 C 2169.93 -1.89874 -0.469823 0
M  V30 23498 O 2171.14 -2.59806 -0.788235 0
M  V30 23499 C 2169.6 -3.15074 1.73944 0
M  V30 23500 C 2169.2 -3.0843 3.24923 0
M  V30 23501 C 2170.95 -3.9223 1.62345 0
M  V30 23502 C 2168.86 -4.43277 3.91484 0
M  V30 23503 H 2167.79 -0.656782 0.370342 0
M  V30 23504 H 2170.44 -1.14434 1.43447 0
M  V30 23505 H 2168.82 -3.76339 1.23227 0
M  V30 23506 H 2169.99 -2.5651 3.82804 0
M  V30 23507 H 2168.31 -2.44769 3.36864 0
M  V30 23508 H 2170.9 -4.91983 2.09419 0
M  V30 23509 H 2171.25 -4.1226 0.578579 0
M  V30 23510 H 2171.78 -3.37579 2.1044 0
M  V30 23511 H 2168.52 -4.28451 4.96095 0
M  V30 23512 H 2168.04 -4.95228 3.38392 0
M  V30 23513 H 2169.72 -5.12142 3.95373 0
M  V30 23514 N 2169.85 -1.00378 -1.21499 0
M  V30 23515 C 2171.27 -0.71638 -1.42619 0
M  V30 23516 C 2171.47 0.70891 -1.88618 0
M  V30 23517 O 2170.52 1.47842 -2.04693 0
M  V30 23518 C 2171.84 -1.7312 -2.45866 0
M  V30 23519 C 2173.38 -1.74788 -2.5965 0
M  V30 23520 C 2173.86 -2.75162 -3.66128 0
M  V30 23521 N 2175.35 -2.73823 -3.73598 0
M  V30 23522 C 2176.08 -3.48149 -4.55609 0
M  V30 23523 N 2175.58 -4.32111 -5.41527 0
M  V30 23524 N 2177.37 -3.36805 -4.50021 0
M  V30 23525 H 2169.52 -1.92412 -0.899518 0
M  V30 23526 H 2171.79 -0.830441 -0.457244 0
M  V30 23527 H 2171.49 -2.75165 -2.19036 0
M  V30 23528 H 2171.37 -1.53287 -3.44649 0
M  V30 23529 H 2173.75 -0.734346 -2.85817 0
M  V30 23530 H 2173.84 -1.98693 -1.61105 0
M  V30 23531 H 2173.48 -3.76671 -3.40707 0
M  V30 23532 H 2173.41 -2.48523 -4.64267 0
M  V30 23533 H 2175.9 -2.12907 -3.12216 0
M  V30 23534 H 2176.21 -4.85624 -6.01156 0
M  V30 23535 H 2174.56 -4.36194 -5.41073 0
M  V30 23536 H 2177.75 -2.70643 -3.81929 0
M  V30 23537 H 2177.92 -3.94986 -5.13702 0
M  V30 23538 N 2171.33 1.37038 -0.778354 0
M  V30 23539 C 2172.56 2.03792 -0.357266 0
M  V30 23540 C 2172.97 1.587 1.02272 0
M  V30 23541 O 2172.33 0.771294 1.654 0
M  V30 23542 C 2172.38 3.59293 -0.398808 0
M  V30 23543 O 2172.1 4.02737 -1.72437 0
M  V30 23544 C 2173.6 4.43288 0.0330462 0
M  V30 23545 H 2170.82 0.654304 -0.148753 0
M  V30 23546 H 2173.37 1.75239 -1.05412 0
M  V30 23547 H 2171.52 3.86596 0.249525 0
M  V30 23548 H 2171.93 4.97286 -1.66754 0
M  V30 23549 H 2173.41 5.5198 -0.0471696 0
M  V30 23550 H 2173.89 4.25606 1.08428 0
M  V30 23551 H 2174.49 4.21225 -0.58735 0
M  V30 23552 N 2172.81 0.529439 1.48441 0
M  V30 23553 C 2173.74 -0.222417 2.32438 0
M  V30 23554 C 2174.72 -0.935598 1.42058 0
M  V30 23555 O 2175.9 -0.921483 1.70945 0
M  V30 23556 C 2173.03 -1.27012 3.23242 0
M  V30 23557 C 2171.99 -0.675114 4.22642 0
M  V30 23558 C 2171.31 -1.82543 5.02576 0
M  V30 23559 C 2172.61 0.352815 5.21107 0
M  V30 23560 H 2174.31 0.478777 2.95547 0
M  V30 23561 H 2171.85 0.231695 1.42124 0
M  V30 23562 H 2173.81 -1.80405 3.80831 0
M  V30 23563 H 2172.53 -2.00089 2.58132 0
M  V30 23564 H 2171.19 -0.162711 3.66239 0
M  V30 23565 H 2170.84 -2.54456 4.33891 0
M  V30 23566 H 2170.54 -1.43323 5.69853 0
M  V30 23567 H 2172.06 -2.36315 5.63017 0
M  V30 23568 H 2173.48 -0.0940075 5.73223 0
M  V30 23569 H 2171.87 0.662368 5.96433 0
M  V30 23570 H 2172.94 1.25877 4.68277 0
M  V30 23571 N 2174.29 -1.55364 0.264547 0
M  V30 23572 C 2175.22 -2.25081 -0.621337 0
M  V30 23573 C 2176.2 -1.23722 -1.16734 0
M  V30 23574 O 2177.38 -1.52418 -1.20343 0
M  V30 23575 C 2174.51 -2.96382 -1.81038 0
M  V30 23576 C 2173.47 -4.0458 -1.39638 0
M  V30 23577 C 2172.79 -4.63399 -2.66768 0
M  V30 23578 C 2174.09 -5.1935 -0.554378 0
M  V30 23579 H 2175.79 -2.99373 -0.0399448 0
M  V30 23580 H 2173.33 -1.43989 -0.0177721 0
M  V30 23581 H 2175.28 -3.43862 -2.43592 0
M  V30 23582 H 2174.01 -2.19608 -2.41744 0
M  V30 23583 H 2172.67 -3.57896 -0.794097 0
M  V30 23584 H 2172.32 -3.83305 -3.25709 0
M  V30 23585 H 2172.02 -5.36449 -2.39784 0
M  V30 23586 H 2173.54 -5.13622 -3.30189 0
M  V30 23587 H 2174.95 -5.62946 -1.08465 0
M  V30 23588 H 2173.35 -5.98897 -0.379861 0
M  V30 23589 H 2174.42 -4.82996 0.42934 0
M  V30 23590 N 2175.76 0.00833021 -1.57598 0
M  V30 23591 C 2177.01 0.694911 -1.90203 0
M  V30 23592 C 2177.34 1.74238 -0.864369 0
M  V30 23593 O 2176.59 1.95254 0.131976 0
M  V30 23594 C 2176.89 1.38284 -3.29564 0
M  V30 23595 C 2176.56 0.469372 -4.4845 0
M  V30 23596 C 2175.22 0.21784 -4.80707 0
M  V30 23597 C 2177.57 -0.160058 -5.20954 0
M  V30 23598 C 2174.9 -0.671554 -5.82844 0
M  V30 23599 C 2177.25 -1.03728 -6.24038 0
M  V30 23600 C 2175.92 -1.29807 -6.54757 0
M  V30 23601 H 2175.19 0.254286 -0.696003 0
M  V30 23602 H 2177.83 -0.0454086 -1.91446 0
M  V30 23603 H 2176.14 2.197 -3.24406 0
M  V30 23604 H 2177.84 1.91998 -3.52048 0
M  V30 23605 H 2174.43 0.675583 -4.23242 0
M  V30 23606 H 2178.61 0.0212698 -4.96295 0
M  V30 23607 H 2173.87 -0.881698 -6.05009 0
M  V30 23608 H 2178.04 -1.5314 -6.79353 0
M  V30 23609 H 2175.67 -1.98894 -7.3372 0
M  V30 23610 N 2177.24 1.55075 0.280956 0
M  V30 23611 C 2178.2 1.86644 1.33029 0
M  V30 23612 C 2179.2 0.740496 1.42735 0
M  V30 23613 O 2180.39 1.00871 1.42023 0
M  V30 23614 C 2177.53 2.06462 2.71268 0
M  V30 23615 H 2178.72 2.80439 1.06273 0
M  V30 23616 H 2176.27 1.47445 0.51863 0
M  V30 23617 H 2177.01 1.15021 3.03217 0
M  V30 23618 H 2176.79 2.88433 2.65611 0
M  V30 23619 H 2178.28 2.32186 3.47101 0
M  V30 23620 N 2178.72 -0.545102 1.47873 0
M  V30 23621 C 2179.65 -1.6606 1.64153 0
M  V30 23622 C 2180.63 -1.62869 0.490679 0
M  V30 23623 O 2181.82 -1.80302 0.721451 0
M  V30 23624 C 2178.95 -3.04681 1.66694 0
M  V30 23625 C 2177.9 -3.22724 2.81128 0
M  V30 23626 C 2177.23 -4.62253 2.68749 0
M  V30 23627 C 2178.53 -3.06939 4.22594 0
M  V30 23628 H 2180.22 -1.52691 2.57538 0
M  V30 23629 H 2177.77 -0.733146 1.23939 0
M  V30 23630 H 2179.72 -3.82576 1.76674 0
M  V30 23631 H 2178.44 -3.19037 0.698781 0
M  V30 23632 H 2177.1 -2.47241 2.7068 0
M  V30 23633 H 2176.75 -4.73425 1.69935 0
M  V30 23634 H 2176.45 -4.75273 3.45527 0
M  V30 23635 H 2177.97 -5.42268 2.80674 0
M  V30 23636 H 2179.39 -3.7464 4.33956 0
M  V30 23637 H 2177.78 -3.31461 5.00253 0
M  V30 23638 H 2178.85 -2.03538 4.40114 0
M  V30 23639 N 2180.2 -1.36208 -0.792797 0
M  V30 23640 C 2181.13 -1.24616 -1.9117 0
M  V30 23641 C 2182.11 -0.131043 -1.62071 0
M  V30 23642 O 2183.29 -0.301579 -1.86072 0
M  V30 23643 C 2180.42 -0.921945 -3.25911 0
M  V30 23644 C 2179.47 -2.05103 -3.73945 0
M  V30 23645 S 2180.3 -3.66847 -3.90107 0
M  V30 23646 C 2181.45 -3.36532 -5.27728 0
M  V30 23647 H 2181.69 -2.19323 -2.00711 0
M  V30 23648 H 2179.22 -1.21584 -0.951666 0
M  V30 23649 H 2181.18 -0.741699 -4.03744 0
M  V30 23650 H 2179.84 0.00728832 -3.14099 0
M  V30 23651 H 2179.03 -1.77867 -4.71571 0
M  V30 23652 H 2178.63 -2.19032 -3.03151 0
M  V30 23653 H 2180.93 -2.90215 -6.12194 0
M  V30 23654 H 2181.87 -4.33409 -5.59966 0
M  V30 23655 H 2182.28 -2.71962 -4.94668 0
M  V30 23656 N 2181.68 1.01656 -1.20431 0
M  V30 23657 C 2182.61 2.09853 -0.896499 0
M  V30 23658 C 2183.59 1.61893 0.151428 0
M  V30 23659 O 2184.77 1.88483 0.025002 0
M  V30 23660 C 2181.9 3.36949 -0.343986 0
M  V30 23661 C 2180.94 4.03799 -1.3729 0
M  V30 23662 S 2181.78 4.4771 -2.93796 0
M  V30 23663 C 2182.93 5.78008 -2.40121 0
M  V30 23664 H 2183.17 2.3564 -1.81277 0
M  V30 23665 H 2180.7 1.14773 -1.03279 0
M  V30 23666 H 2182.66 4.10488 -0.0317557 0
M  V30 23667 H 2181.32 3.09233 0.550783 0
M  V30 23668 H 2180.51 4.95238 -0.935689 0
M  V30 23669 H 2180.11 3.36484 -1.63261 0
M  V30 23670 H 2182.4 6.53183 -1.79885 0
M  V30 23671 H 2183.35 6.26525 -3.29957 0
M  V30 23672 H 2183.76 5.34272 -1.82247 0
M  V30 23673 N 2183.15 1.01021 1.20965 0
M  V30 23674 C 2184.38 0.714661 1.94698 0
M  V30 23675 C 2184.8 -0.717235 1.73889 0
M  V30 23676 O 2184.16 -1.49265 1.02906 0
M  V30 23677 C 2184.21 1.04769 3.45045 0
M  V30 23678 O 2183.31 0.155818 4.12106 0
M  V30 23679 H 2182.65 0.265768 0.608493 0
M  V30 23680 H 2185.18 1.35186 1.53577 0
M  V30 23681 H 2185.19 0.996722 3.95638 0
M  V30 23682 H 2183.87 2.09099 3.59514 0
M  V30 23683 H 2182.45 0.263764 3.71966 0
M  V30 23684 N 2184.63 -1.36623 0.78561 0
M  V30 23685 C 2185.56 -2.3268 0.195557 0
M  V30 23686 C 2186.54 -1.56463 -0.667335 0
M  V30 23687 O 2187.73 -1.84636 -0.601943 0
M  V30 23688 C 2184.86 -3.40708 -0.673467 0
M  V30 23689 C 2183.81 -4.27907 0.0892255 0
M  V30 23690 C 2183.14 -5.27069 -0.900146 0
M  V30 23691 C 2184.44 -5.06468 1.27624 0
M  V30 23692 H 2186.13 -2.82276 0.998033 0
M  V30 23693 H 2183.68 -1.35716 0.481373 0
M  V30 23694 H 2185.63 -4.06893 -1.09617 0
M  V30 23695 H 2184.35 -2.8967 -1.50861 0
M  V30 23696 H 2183.01 -3.63272 0.492858 0
M  V30 23697 H 2182.66 -4.72306 -1.73022 0
M  V30 23698 H 2182.36 -5.86276 -0.394285 0
M  V30 23699 H 2183.89 -5.96128 -1.32149 0
M  V30 23700 H 2185.3 -5.65715 0.92949 0
M  V30 23701 H 2183.7 -5.75068 1.71513 0
M  V30 23702 H 2184.77 -4.38332 2.07349 0
M  V30 23703 N 2186.11 -0.537304 -1.48158 0
M  V30 23704 C 2187.52 -0.0987274 -1.86439 0
M  V30 23705 C 2187.87 1.32599 -1.4461 0
M  V30 23706 O 2187 1.99427 -0.840112 0
M  V30 23707 C 2187.59 -0.172391 -3.38361 0
M  V30 23708 C 2186.15 0.211031 -3.75808 0
M  V30 23709 C 2185.3 -0.528892 -2.7221 0
M  V30 23710 H 2188.25 -0.74815 -1.39959 0
M  V30 23711 H 2188.27 0.614074 -3.75512 0
M  V30 23712 H 2187.78 -1.20942 -3.68774 0
M  V30 23713 H 2185.88 1.24993 -3.51009 0
M  V30 23714 H 2186 -0.133675 -4.78913 0
M  V30 23715 H 2184.36 0.0257117 -2.54687 0
M  V30 23716 H 2185.14 -1.5667 -3.05466 0
M  V30 23717 N 2187.59 1.55221 -0.272782 0
M  V30 23718 C 2188.55 2.21137 0.602593 0
M  V30 23719 C 2189.55 1.1885 1.08311 0
M  V30 23720 O 2190.74 1.4377 0.983663 0
M  V30 23721 C 2187.87 2.87548 1.8311 0
M  V30 23722 H 2189.07 2.99888 0.0271068 0
M  V30 23723 H 2186.62 1.56283 -0.0233836 0
M  V30 23724 H 2187.35 2.12802 2.44716 0
M  V30 23725 H 2187.14 3.62502 1.49449 0
M  V30 23726 H 2188.63 3.37914 2.45365 0
M  V30 23727 N 2189.07 2.77022e-05 1.576 0
M  V30 23728 C 2190 -0.990304 2.1146 0
M  V30 23729 C 2190.98 -1.35844 1.02374 0
M  V30 23730 O 2192.16 -1.44218 1.30057 0
M  V30 23731 C 2189.29 -2.28215 2.61792 0
M  V30 23732 C 2188.25 -2.05563 3.75404 0
M  V30 23733 C 2187.57 -3.40761 4.12051 0
M  V30 23734 C 2188.87 -1.4182 5.02677 0
M  V30 23735 H 2190.57 -0.541853 2.94456 0
M  V30 23736 H 2188.11 -0.259194 1.41648 0
M  V30 23737 H 2190.07 -2.97851 2.98099 0
M  V30 23738 H 2188.79 -2.75174 1.75918 0
M  V30 23739 H 2187.45 -1.38353 3.39491 0
M  V30 23740 H 2187.1 -3.85423 3.232 0
M  V30 23741 H 2186.8 -3.26421 4.88593 0
M  V30 23742 H 2188.32 -4.11712 4.50916 0
M  V30 23743 H 2189.73 -2.01413 5.36755 0
M  V30 23744 H 2188.13 -1.37967 5.84025 0
M  V30 23745 H 2189.2 -0.387421 4.8335 0
M  V30 23746 N 2190.54 -1.55222 -0.272728 0
M  V30 23747 C 2191.79 -1.75841 -1.00429 0
M  V30 23748 C 2192.12 -0.559662 -1.86274 0
M  V30 23749 O 2191.37 0.457824 -1.90269 0
M  V30 23750 C 2191.67 -3.01679 -1.91637 0
M  V30 23751 C 2191.34 -4.34211 -1.2154 0
M  V30 23752 C 2190 -4.70231 -1.02158 0
M  V30 23753 C 2192.35 -5.1625 -0.716594 0
M  V30 23754 C 2189.68 -5.85847 -0.316231 0
M  V30 23755 C 2192.03 -6.32595 -0.0248364 0
M  V30 23756 C 2190.7 -6.67255 0.180696 0
M  V30 23757 H 2189.97 -0.643449 -0.367497 0
M  V30 23758 H 2192.61 -1.89492 -0.276563 0
M  V30 23759 H 2190.92 -2.82929 -2.71032 0
M  V30 23760 H 2192.62 -3.14828 -2.48363 0
M  V30 23761 H 2189.21 -4.05899 -1.37638 0
M  V30 23762 H 2193.39 -4.88898 -0.853961 0
M  V30 23763 H 2188.65 -6.11225 -0.14627 0
M  V30 23764 H 2192.82 -6.95419 0.369433 0
M  V30 23765 H 2190.45 -7.56694 0.729231 0
M  V30 23766 N 2192.02 0.537252 -1.4816 0
M  V30 23767 C 2192.97 1.66349 -1.62575 0
M  V30 23768 C 2193.96 1.62086 -0.492394 0
M  V30 23769 O 2195.17 1.67031 -0.670876 0
M  V30 23770 H 2191.55 0.55078 -0.512001 0
M  V30 23771 H 2193.52 1.51332 -2.57179 0
M  V30 23772 C 2192.27 3.04646 -1.67589 0
M  V30 23773 H 2191.59 3.08617 -2.54156 0
M  V30 23774 H 2193.03 3.83085 -1.8172 0
M  V30 23775 C 2191.49 3.34358 -0.413097 0
M  V30 23776 O 2192.02 3.98856 0.477189 0
M  V30 23777 N 2190.22 2.89179 -0.287012 0
M  V30 23778 H 2189.77 2.3687 -1.01245 0
M  V30 23779 H 2189.73 3.09428 0.556909 0
M  V30 23780 N 2193.5 1.36626 0.785562 0
M  V30 23781 C 2194.75 1.30398 1.5388 0
M  V30 23782 C 2195.06 -0.113418 1.95271 0
M  V30 23783 O 2196.27 -0.298094 2.69859 0
M  V30 23784 C 2194.72 2.28807 2.77804 0
M  V30 23785 C 2194.33 3.76004 2.43568 0
M  V30 23786 C 2196.08 2.31564 3.55779 0
M  V30 23787 C 2193.98 4.66179 3.6391 0
M  V30 23788 H 2192.91 0.484576 0.57767 0
M  V30 23789 H 2195.56 1.6201 0.861677 0
M  V30 23790 H 2193.95 1.90194 3.47336 0
M  V30 23791 H 2195.12 4.23375 1.81908 0
M  V30 23792 H 2193.44 3.76059 1.78797 0
M  V30 23793 H 2196.03 2.96144 4.452 0
M  V30 23794 H 2196.38 1.32527 3.94642 0
M  V30 23795 H 2196.91 2.68814 2.9323 0
M  V30 23796 H 2193.65 5.66293 3.3014 0
M  V30 23797 H 2193.17 4.23522 4.24722 0
M  V30 23798 H 2194.85 4.82639 4.30892 0
M  V30 23799 N 2194.98 -1.01016 1.20969 0
M  V30 23800 C 2196.23 -1.74369 1.02175 0
M  V30 23801 C 2196.55 -1.89822 -0.44638 0
M  V30 23802 O 2195.82 -1.44539 -1.32232 0
M  V30 23803 H 2194.4 -0.646008 0.375078 0
M  V30 23804 H 2197.06 -1.21756 1.52189 0
M  V30 23805 H 2196.16 -2.74484 1.48543 0
M  V30 23806 N 2196.46 -1.01661 -1.20428 0
M  V30 23807 C 2197.39 -0.607265 -2.25465 0
M  V30 23808 C 2198.37 0.377687 -1.65854 0
M  V30 23809 O 2199.55 0.263115 -1.92409 0
M  V30 23810 C 2196.68 0.0552339 -3.47256 0
M  V30 23811 C 2195.64 -0.850705 -4.1946 0
M  V30 23812 C 2194.96 -0.0539799 -5.34673 0
M  V30 23813 C 2196.26 -2.15876 -4.75599 0
M  V30 23814 H 2197.96 -1.48531 -2.5996 0
M  V30 23815 H 2195.5 -0.715627 -1.24959 0
M  V30 23816 H 2197.46 0.353159 -4.19918 0
M  V30 23817 H 2196.18 0.967991 -3.11925 0
M  V30 23818 H 2194.84 -1.13263 -3.48665 0
M  V30 23819 H 2194.49 0.860427 -4.95586 0
M  V30 23820 H 2194.19 -0.657295 -5.83912 0
M  V30 23821 H 2195.71 0.237491 -6.10138 0
M  V30 23822 H 2197.12 -1.9232 -5.40079 0
M  V30 23823 H 2195.52 -2.71293 -5.35276 0
M  V30 23824 H 2196.59 -2.82176 -3.94341 0
M  V30 23825 N 2197.93 1.36205 -0.792844 0
M  V30 23826 C 2198.86 2.32573 -0.207894 0
M  V30 23827 C 2199.85 1.56815 0.659028 0
M  V30 23828 O 2201.03 1.84952 0.592143 0
M  V30 23829 C 2198.16 3.4106 0.655389 0
M  V30 23830 C 2197.11 4.27854 -0.111917 0
M  V30 23831 C 2196.44 5.27539 0.872181 0
M  V30 23832 C 2197.74 5.05784 -1.30308 0
M  V30 23833 H 2199.43 2.81743 -1.01299 0
M  V30 23834 H 2196.98 1.35459 -0.488564 0
M  V30 23835 H 2198.93 4.07469 1.07457 0
M  V30 23836 H 2197.66 2.90466 1.49323 0
M  V30 23837 H 2196.32 3.63005 -0.512116 0
M  V30 23838 H 2195.96 4.73217 1.70514 0
M  V30 23839 H 2195.66 5.86477 0.363188 0
M  V30 23840 H 2197.19 5.96821 1.28986 0
M  V30 23841 H 2198.6 5.65214 -0.959478 0
M  V30 23842 H 2197 5.7415 -1.7456 0
M  V30 23843 H 2198.07 4.37226 -2.0967 0
M  V30 23844 N 2199.41 0.545154 1.47871 0
M  V30 23845 C 2200.34 -0.197752 2.32661 0
M  V30 23846 C 2201.32 -0.920479 1.43043 0
M  V30 23847 O 2202.51 -0.9033 1.71913 0
M  V30 23848 C 2199.64 -1.23576 3.24571 0
M  V30 23849 C 2198.59 -0.630249 4.23334 0
M  V30 23850 C 2197.92 -1.77202 5.04483 0
M  V30 23851 C 2199.22 0.408065 5.20703 0
M  V30 23852 H 2200.91 0.510097 2.95023 0
M  V30 23853 H 2198.46 0.246756 1.4187 0
M  V30 23854 H 2200.41 -1.76355 3.82723 0
M  V30 23855 H 2199.14 -1.9734 2.6024 0
M  V30 23856 H 2197.79 -0.123857 3.66391 0
M  V30 23857 H 2197.44 -2.4984 4.36565 0
M  V30 23858 H 2197.14 -1.37271 5.71341 0
M  V30 23859 H 2198.67 -2.3033 5.65491 0
M  V30 23860 H 2200.08 -0.0332043 5.7329 0
M  V30 23861 H 2198.48 0.725591 5.95697 0
M  V30 23862 H 2199.55 1.30837 4.66915 0
M  V30 23863 N 2200.89 -1.55074 0.28101 0
M  V30 23864 C 2202.14 -1.99725 -0.33408 0
M  V30 23865 C 2202.47 -1.16943 -1.55418 0
M  V30 23866 O 2201.72 -0.228565 -1.94361 0
M  V30 23867 C 2202.02 -3.49343 -0.754595 0
M  V30 23868 C 2201.69 -4.49448 0.361524 0
M  V30 23869 C 2200.35 -4.76541 0.667977 0
M  V30 23870 C 2202.7 -5.09171 1.11331 0
M  V30 23871 C 2200.03 -5.60623 1.72969 0
M  V30 23872 C 2202.38 -5.94407 2.1648 0
M  V30 23873 C 2201.04 -6.19818 2.47753 0
M  V30 23874 H 2200.31 -0.730846 -0.122249 0
M  V30 23875 H 2202.96 -1.87362 0.39595 0
M  V30 23876 H 2201.27 -3.59213 -1.56439 0
M  V30 23877 H 2202.96 -3.81302 -1.24136 0
M  V30 23878 H 2199.55 -4.28452 0.112557 0
M  V30 23879 H 2203.74 -4.88258 0.889815 0
M  V30 23880 H 2198.99 -5.78556 1.97694 0
M  V30 23881 H 2203.17 -6.39715 2.75204 0
M  V30 23882 H 2200.79 -6.84763 3.30157 0
M  V30 23883 N 2202.37 -0.00838561 -1.57598 0
M  V30 23884 C 2203.3 0.979076 -2.11982 0
M  V30 23885 C 2204.28 1.35299 -1.03093 0
M  V30 23886 O 2205.47 1.43526 -1.3082 0
M  V30 23887 C 2202.6 2.26824 -2.62999 0
M  V30 23888 C 2201.55 2.03569 -3.76488 0
M  V30 23889 C 2200.88 3.38571 -4.13852 0
M  V30 23890 C 2202.18 1.39152 -5.03422 0
M  V30 23891 H 2203.87 0.52623 -2.94739 0
M  V30 23892 H 2201.42 0.251679 -1.41784 0
M  V30 23893 H 2203.37 2.96266 -2.99674 0
M  V30 23894 H 2202.09 2.74237 -1.77374 0
M  V30 23895 H 2200.75 1.36551 -3.4022 0
M  V30 23896 H 2200.4 3.83704 -3.25239 0
M  V30 23897 H 2200.1 3.23825 -4.90317 0
M  V30 23898 H 2201.62 4.09315 -4.53093 0
M  V30 23899 H 2203.04 1.98563 -5.37815 0
M  V30 23900 H 2201.43 1.34868 -5.84748 0
M  V30 23901 H 2202.5 0.361783 -4.83548 0
M  V30 23902 N 2203.85 1.55365 0.264492 0
M  V30 23903 C 2205.09 1.76633 0.996429 0
M  V30 23904 C 2205.43 0.570511 1.85631 0
M  V30 23905 O 2204.7 -0.431717 1.89648 0
M  V30 23906 C 2204.98 3.07628 1.87182 0
M  V30 23907 C 2204.84 4.37581 1.0413 0
M  V30 23908 C 2206.16 3.34722 2.85743 0
M  V30 23909 H 2203.28 0.642628 0.36083 0
M  V30 23910 H 2205.92 1.88098 0.268185 0
M  V30 23911 H 2204.07 2.97985 2.49274 0
M  V30 23912 H 2205.74 4.59193 0.440436 0
M  V30 23913 H 2203.98 4.32426 0.345039 0
M  V30 23914 H 2204.65 5.25583 1.6872 0
M  V30 23915 H 2207.13 3.44214 2.33787 0
M  V30 23916 H 2206.01 4.27629 3.44129 0
M  V30 23917 H 2206.27 2.54775 3.61306 0
M  V30 23918 N 2205.33 -0.529387 1.48443 0
M  V30 23919 C 2206.26 -1.65057 1.5758 0
M  V30 23920 C 2207.24 -1.56914 0.426225 0
M  V30 23921 O 2208.42 -1.77378 0.637908 0
M  V30 23922 C 2205.55 -3.03458 1.50435 0
M  V30 23923 C 2204.59 -3.29958 2.70241 0
M  V30 23924 S 2205.43 -3.16164 4.32204 0
M  V30 23925 C 2206.58 -4.57012 4.27658 0
M  V30 23926 H 2206.82 -1.57056 2.5243 0
M  V30 23927 H 2204.35 -0.712393 1.36983 0
M  V30 23928 H 2206.31 -3.83277 1.46999 0
M  V30 23929 H 2204.97 -3.08899 0.569221 0
M  V30 23930 H 2204.16 -4.30924 2.61382 0
M  V30 23931 H 2203.76 -2.5781 2.70943 0
M  V30 23932 H 2206.05 -5.48542 3.97628 0
M  V30 23933 H 2207 -4.70925 5.28806 0
M  V30 23934 H 2207.41 -4.36362 3.58118 0
M  V30 23935 N 2206.8 -1.37041 -0.778305 0
M  V30 23936 C 2208.05 -1.31887 -1.53662 0
M  V30 23937 C 2208.38 0.0985962 -1.9425 0
M  V30 23938 O 2207.63 1.07038 -1.63834 0
M  V30 23939 C 2207.93 -2.19773 -2.81842 0
M  V30 23940 C 2207.6 -3.6815 -2.60338 0
M  V30 23941 C 2206.26 -4.08589 -2.54182 0
M  V30 23942 C 2208.61 -4.62179 -2.40915 0
M  V30 23943 C 2205.94 -5.41181 -2.26584 0
M  V30 23944 C 2208.29 -5.95001 -2.14842 0
M  V30 23945 C 2206.96 -6.34551 -2.07126 0
M  V30 23946 H 2206.23 -0.482608 -0.562291 0
M  V30 23947 H 2208.87 -1.69191 -0.897039 0
M  V30 23948 H 2207.18 -1.75442 -3.50325 0
M  V30 23949 H 2208.88 -2.13103 -3.39688 0
M  V30 23950 H 2205.47 -3.36076 -2.6599 0
M  V30 23951 H 2209.65 -4.31802 -2.44665 0
M  V30 23952 H 2204.91 -5.70793 -2.19101 0
M  V30 23953 H 2209.08 -6.67418 -1.9881 0
M  V30 23954 H 2206.71 -7.37219 -1.85505 0
M  V30 23955 N 2208.28 1.00373 -1.21503 0
M  V30 23956 C 2209.53 1.73584 -1.02721 0
M  V30 23957 C 2209.84 1.90597 0.439556 0
M  V30 23958 O 2211.05 2.61027 0.746802 0
M  V30 23959 C 2209.51 3.12267 -1.78934 0
M  V30 23960 C 2209.11 3.03222 -3.29789 0
M  V30 23961 C 2210.86 3.89598 -1.68564 0
M  V30 23962 C 2208.76 4.36992 -3.98487 0
M  V30 23963 H 2207.69 0.650807 -0.380744 0
M  V30 23964 H 2210.35 1.12137 -1.4525 0
M  V30 23965 H 2208.73 3.74331 -1.29198 0
M  V30 23966 H 2209.9 2.50388 -3.86837 0
M  V30 23967 H 2208.22 2.39379 -3.40715 0
M  V30 23968 H 2210.81 4.88589 -2.1722 0
M  V30 23969 H 2211.16 4.11287 -0.644093 0
M  V30 23970 H 2211.69 3.34189 -2.15784 0
M  V30 23971 H 2208.43 4.20504 -5.02848 0
M  V30 23972 H 2207.95 4.89782 -3.46227 0
M  V30 23973 H 2209.63 5.05787 -4.03471 0
M  V30 23974 N 2209.76 1.02298 1.19887 0
M  V30 23975 C 2210.99 0.734366 1.93108 0
M  V30 23976 C 2211.4 -0.709859 1.75379 0
M  V30 23977 O 2210.74 -1.49382 1.06915 0
M  V30 23978 C 2210.8 0.99833 3.4536 0
M  V30 23979 C 2210.47 2.43293 3.86856 0
M  V30 23980 C 2211.46 3.41404 3.92096 0
M  V30 23981 C 2209.15 2.77537 4.18663 0
M  V30 23982 C 2211.14 4.71817 4.28565 0
M  V30 23983 C 2208.83 4.08161 4.54806 0
M  V30 23984 C 2209.83 5.05111 4.5973 0
M  V30 23985 O 2209.52 6.33397 4.95039 0
M  V30 23986 H 2209.25 0.268467 0.620404 0
M  V30 23987 H 2211.8 1.36883 1.53141 0
M  V30 23988 H 2210.03 0.306713 3.85482 0
M  V30 23989 H 2211.72 0.700304 3.99813 0
M  V30 23990 H 2212.49 3.16286 3.67679 0
M  V30 23991 H 2208.37 2.02757 4.14018 0
M  V30 23992 H 2211.91 5.47487 4.32323 0
M  V30 23993 H 2207.81 4.33055 4.78679 0
M  V30 23994 H 2208.57 6.37781 5.13009 0
M  V30 23995 N 2211.24 -1.35782 0.800057 0
M  V30 23996 C 2212.46 -2.03728 0.388546 0
M  V30 23997 C 2212.89 -1.59911 -0.990453 0
M  V30 23998 O 2212.25 -0.772641 -1.64012 0
M  V30 23999 C 2212.29 -3.57489 0.472663 0
M  V30 24000 O 2211.4 -4.09154 -0.516388 0
M  V30 24001 H 2210.74 -0.643611 0.163282 0
M  V30 24002 H 2213.27 -1.73516 1.08413 0
M  V30 24003 H 2213.28 -4.0658 0.340102 0
M  V30 24004 H 2211.95 -3.88731 1.47855 0
M  V30 24005 H 2210.53 -3.71304 -0.344607 0
M  V30 24006 N 2212.72 -0.552988 -1.4758 0
M  V30 24007 C 2213.96 -0.025235 -2.01684 0
M  V30 24008 C 2214.28 1.33112 -1.4332 0
M  V30 24009 O 2215.48 1.94855 -1.89061 0
M  V30 24010 C 2213.94 0.00535725 -3.599 0
M  V30 24011 C 2213.55 -1.3475 -4.27255 0
M  V30 24012 C 2215.29 0.480725 -4.21769 0
M  V30 24013 C 2213.2 -1.27624 -5.77465 0
M  V30 24014 H 2212.13 -0.00566359 -0.753979 0
M  V30 24015 H 2214.78 -0.70021 -1.69615 0
M  V30 24016 H 2213.16 0.745892 -3.88912 0
M  V30 24017 H 2214.34 -2.10541 -4.09889 0
M  V30 24018 H 2212.65 -1.76046 -3.77355 0
M  V30 24019 H 2215.25 0.552366 -5.31839 0
M  V30 24020 H 2215.59 1.49177 -3.88654 0
M  V30 24021 H 2216.12 -0.204822 -3.97272 0
M  V30 24022 H 2212.86 -2.26315 -6.15192 0
M  V30 24023 H 2212.38 -0.560065 -5.97179 0
M  V30 24024 H 2214.06 -0.976533 -6.39588 0
M  V30 24025 N 2214.19 1.54923 -0.28923 0
M  V30 24026 C 2215.44 1.999 0.323483 0
M  V30 24027 C 2215.77 1.17765 1.54795 0
M  V30 24028 O 2215.02 0.238869 1.94237 0
M  V30 24029 C 2215.32 3.49738 0.736058 0
M  V30 24030 C 2214.99 4.4925 -0.385354 0
M  V30 24031 C 2213.65 4.7618 -0.69324 0
M  V30 24032 C 2216 5.08573 -1.1403 0
M  V30 24033 C 2213.33 5.59698 -1.7594 0
M  V30 24034 C 2215.68 5.9325 -2.19629 0
M  V30 24035 C 2214.35 6.18496 -2.51037 0
M  V30 24036 H 2213.62 0.731484 0.118371 0
M  V30 24037 H 2216.26 1.87149 -0.40588 0
M  V30 24038 H 2214.57 3.60038 1.54532 0
M  V30 24039 H 2216.27 3.81955 1.22112 0
M  V30 24040 H 2212.86 4.28386 -0.135277 0
M  V30 24041 H 2217.04 4.87779 -0.915696 0
M  V30 24042 H 2212.3 5.77499 -2.0076 0
M  V30 24043 H 2216.47 6.38247 -2.78593 0
M  V30 24044 H 2214.1 6.83002 -3.33784 0
M  V30 24045 N 2215.67 0.0167433 1.57591 0
M  V30 24046 C 2216.92 -0.663251 1.90907 0
M  V30 24047 C 2217.24 -1.73375 0.892539 0
M  V30 24048 O 2216.51 -1.95783 -0.0677279 0
M  V30 24049 H 2215.09 -0.247971 0.704641 0
M  V30 24050 H 2217.75 0.0616251 1.94803 0
M  V30 24051 H 2216.85 -1.12387 2.91162 0
M  V30 24052 N 2217.15 -1.55503 -0.256249 0
M  V30 24053 C 2218.08 -1.84483 -1.34317 0
M  V30 24054 C 2219.06 -0.699156 -1.46801 0
M  V30 24055 O 2220.25 -0.943933 -1.63163 0
M  V30 24056 C 2217.37 -2.02128 -2.71776 0
M  V30 24057 C 2216.42 -3.24739 -2.7649 0
M  V30 24058 S 2217.25 -4.81648 -2.34042 0
M  V30 24059 C 2218.41 -5.02286 -3.73443 0
M  V30 24060 H 2218.64 -2.76387 -1.09534 0
M  V30 24061 H 2216.17 -1.47489 -0.456755 0
M  V30 24062 H 2218.13 -2.12978 -3.50928 0
M  V30 24063 H 2216.79 -1.11083 -2.93801 0
M  V30 24064 H 2215.99 -3.34023 -3.77419 0
M  V30 24065 H 2215.59 -3.12566 -2.05374 0
M  V30 24066 H 2217.88 -4.89056 -4.68861 0
M  V30 24067 H 2218.82 -6.04294 -3.691 0
M  V30 24068 H 2219.23 -4.30179 -3.65522 0
M  V30 24069 N 2218.63 0.521507 -1.48721 0
M  V30 24070 C 2219.85 1.30615 -1.61104 0
M  V30 24071 C 2220.28 1.86084 -0.274643 0
M  V30 24072 O 2219.64 1.64836 0.754908 0
M  V30 24073 C 2219.68 2.42685 -2.66714 0
M  V30 24074 O 2218.79 3.45963 -2.24462 0
M  V30 24075 H 2218.13 0.38649 -0.539927 0
M  V30 24076 H 2220.66 0.626611 -1.94768 0
M  V30 24077 H 2220.67 2.88749 -2.8825 0
M  V30 24078 H 2219.34 2.01675 -3.63731 0
M  V30 24079 H 2217.92 3.0596 -2.13174 0
M  V30 24080 N 2220.11 1.37452 0.771027 0
M  V30 24081 C 2221.05 1.33361 1.90572 0
M  V30 24082 C 2222.05 0.22227 1.67935 0
M  V30 24083 O 2223.25 0.390335 1.75717 0
M  V30 24084 H 2219.63 0.415623 0.626707 0
M  V30 24085 H 2221.6 2.29148 1.91138 0
M  V30 24086 C 2220.35 1.15819 3.27843 0
M  V30 24087 H 2219.67 2.00589 3.45838 0
M  V30 24088 H 2221.11 1.17007 4.07536 0
M  V30 24089 C 2219.57 -0.136106 3.36625 0
M  V30 24090 O 2220.1 -1.11942 3.85787 0
M  V30 24091 N 2218.31 -0.187048 2.89997 0
M  V30 24092 H 2217.85 0.613797 2.50181 0
M  V30 24093 H 2217.81 -1.05266 2.96254 0
M  V30 24094 N 2221.58 -0.997276 1.22033 0
M  V30 24095 C 2222.83 -1.73619 1.04225 0
M  V30 24096 C 2223.16 -1.89839 -0.423231 0
M  V30 24097 O 2222.41 -1.43544 -1.33017 0
M  V30 24098 C 2222.71 -3.1473 1.6935 0
M  V30 24099 C 2222.38 -3.18436 3.19232 0
M  V30 24100 C 2221.04 -3.19155 3.6013 0
M  V30 24101 C 2223.39 -3.15071 4.15187 0
M  V30 24102 C 2220.72 -3.14203 4.95473 0
M  V30 24103 C 2223.07 -3.1166 5.505 0
M  V30 24104 C 2221.74 -3.10692 5.90785 0
M  V30 24105 H 2221.01 -0.635316 0.381385 0
M  V30 24106 H 2223.65 -1.16829 1.51734 0
M  V30 24107 H 2221.96 -3.74801 1.14154 0
M  V30 24108 H 2223.66 -3.70637 1.53066 0
M  V30 24109 H 2220.25 -3.18624 2.86664 0
M  V30 24110 H 2224.43 -3.13669 3.84611 0
M  V30 24111 H 2219.69 -3.11796 5.25921 0
M  V30 24112 H 2223.86 -3.08011 6.24582 0
M  V30 24113 H 2221.49 -3.0661 6.95625 0
M  V30 24114 N 2223.06 -1.02932 -1.19343 0
M  V30 24115 C 2224.03 -0.615107 -2.20792 0
M  V30 24116 C 2225.03 0.321505 -1.57553 0
M  V30 24117 O 2226.22 0.108453 -1.73862 0
M  V30 24118 C 2223.35 0.0998623 -3.40754 0
M  V30 24119 H 2224.54 -1.51273 -2.58952 0
M  V30 24120 H 2222.09 -0.820558 -1.33028 0
M  V30 24121 H 2222.83 1.01182 -3.08112 0
M  V30 24122 H 2222.61 -0.573158 -3.87888 0
M  V30 24123 H 2224.1 0.376572 -4.15899 0
M  V30 24124 N 2224.54 1.35356 -0.807246 0
M  V30 24125 C 2225.77 2.02694 -0.399832 0
M  V30 24126 C 2226.18 1.60976 0.994148 0
M  V30 24127 O 2225.52 0.803255 1.65207 0
M  V30 24128 C 2225.58 3.57217 -0.404508 0
M  V30 24129 C 2225.25 4.22203 -1.74911 0
M  V30 24130 C 2226.24 4.43836 -2.70751 0
M  V30 24131 C 2223.93 4.59306 -2.0333 0
M  V30 24132 C 2225.92 5.01676 -3.93192 0
M  V30 24133 C 2223.61 5.1686 -3.26035 0
M  V30 24134 C 2224.61 5.37987 -4.20784 0
M  V30 24135 O 2224.3 5.94327 -5.41323 0
M  V30 24136 H 2224.03 0.656663 -0.160528 0
M  V30 24137 H 2226.58 1.73943 -1.09238 0
M  V30 24138 H 2224.81 3.85161 0.344639 0
M  V30 24139 H 2226.5 4.05895 -0.0193143 0
M  V30 24140 H 2227.27 4.1555 -2.50087 0
M  V30 24141 H 2223.15 4.42175 -1.30391 0
M  V30 24142 H 2226.69 5.18082 -4.67159 0
M  V30 24143 H 2222.59 5.44573 -3.46569 0
M  V30 24144 H 2223.36 6.12778 -5.42628 0
M  V30 24145 N 2226.02 0.560807 1.47284 0
M  V30 24146 C 2227.26 0.038154 2.02764 0
M  V30 24147 C 2227.6 -1.30973 1.43386 0
M  V30 24148 O 2226.87 -1.85311 0.590766 0
M  V30 24149 C 2227.16 -0.0510795 3.60064 0
M  V30 24150 C 2227.01 1.32416 4.29868 0
M  V30 24151 C 2228.33 -0.762719 4.3344 0
M  V30 24152 H 2225.45 0.0153393 0.73684 0
M  V30 24153 H 2228.09 0.723789 1.75674 0
M  V30 24154 H 2226.24 -0.634998 3.83275 0
M  V30 24155 H 2227.91 1.95155 4.17986 0
M  V30 24156 H 2226.15 1.89787 3.90081 0
M  V30 24157 H 2226.82 1.2144 5.38476 0
M  V30 24158 H 2229.3 -0.266892 4.15243 0
M  V30 24159 H 2228.18 -0.794125 5.43125 0
M  V30 24160 H 2228.44 -1.81959 4.02919 0
M  V30 24161 N 2227.5 -1.54768 0.297442 0
M  V30 24162 C 2228.44 -2.23387 -0.580237 0
M  V30 24163 C 2229.41 -1.21519 -1.13236 0
M  V30 24164 O 2230.6 -1.50129 -1.17754 0
M  V30 24165 C 2227.74 -2.97558 -1.74796 0
M  V30 24166 C 2226.85 -4.14192 -1.22757 0
M  V30 24167 C 2225.99 -4.75953 -2.35887 0
M  V30 24168 C 2225.03 -5.84738 -1.80963 0
M  V30 24169 N 2224.16 -6.40469 -2.87653 0
M  V30 24170 H 2229 -2.97998 0.0115357 0
M  V30 24171 H 2226.54 -1.4709 0.0174619 0
M  V30 24172 H 2228.5 -3.3879 -2.43469 0
M  V30 24173 H 2227.13 -2.2533 -2.31141 0
M  V30 24174 H 2226.18 -3.77925 -0.433205 0
M  V30 24175 H 2227.49 -4.92577 -0.785464 0
M  V30 24176 H 2226.65 -5.20019 -3.12514 0
M  V30 24177 H 2225.38 -3.96892 -2.83422 0
M  V30 24178 H 2224.39 -5.40099 -1.02824 0
M  V30 24179 H 2225.61 -6.6568 -1.34337 0
M  V30 24180 H 2223.56 -5.64293 -3.34528 0
M  V30 24181 H 2223.48 -7.1419 -2.47927 0
M  V30 24182 H 2224.75 -6.89193 -3.64188 0
M  V30 24183 N 2228.97 -0.0251005 -1.5758 0
M  V30 24184 C 2229.92 0.958093 -2.09974 0
M  V30 24185 C 2230.89 1.32558 -1.00088 0
M  V30 24186 O 2232.08 1.4196 -1.27484 0
M  V30 24187 C 2229.22 2.23656 -2.62816 0
M  V30 24188 C 2228.33 1.92587 -3.86696 0
M  V30 24189 C 2227.46 3.14699 -4.27946 0
M  V30 24190 C 2226.5 2.79432 -5.44595 0
M  V30 24191 N 2225.64 3.94157 -5.81021 0
M  V30 24192 H 2230.48 0.504377 -2.93701 0
M  V30 24193 H 2228.02 0.237366 -1.45172 0
M  V30 24194 H 2229.98 2.98429 -2.91541 0
M  V30 24195 H 2228.61 2.66651 -1.81926 0
M  V30 24196 H 2227.66 1.08073 -3.64725 0
M  V30 24197 H 2228.97 1.6261 -4.7155 0
M  V30 24198 H 2228.12 3.97796 -4.58086 0
M  V30 24199 H 2226.86 3.47834 -3.41852 0
M  V30 24200 H 2225.87 1.94746 -5.14154 0
M  V30 24201 H 2227.09 2.47517 -6.32386 0
M  V30 24202 H 2225.04 4.27141 -4.97882 0
M  V30 24203 H 2224.96 3.6779 -6.60505 0
M  V30 24204 H 2226.22 4.77969 -6.15764 0
M  V30 24205 N 2230.45 1.55637 0.247999 0
M  V30 24206 C 2231.36 1.93356 1.32855 0
M  V30 24207 C 2232.38 0.833865 1.52718 0
M  V30 24208 O 2233.55 1.13516 1.66361 0
M  V30 24209 C 2230.62 2.21963 2.66333 0
M  V30 24210 C 2229.68 3.45358 2.55002 0
M  V30 24211 C 2228.91 3.72591 3.82115 0
M  V30 24212 O 2229.14 3.01915 4.83946 0
M  V30 24213 O 2228.07 4.66117 3.80813 0
M  V30 24214 H 2231.9 2.8539 1.03857 0
M  V30 24215 H 2229.48 1.42504 0.448661 0
M  V30 24216 H 2231.36 2.41676 3.45211 0
M  V30 24217 H 2230.04 1.33108 2.95066 0
M  V30 24218 H 2228.95 3.30954 1.74414 0
M  V30 24219 H 2230.28 4.34512 2.31215 0
M  V30 24220 N 2231.93 -0.513613 1.48996 0
M  V30 24221 C 2233.16 -1.29759 1.61794 0
M  V30 24222 C 2233.58 -1.85936 0.284508 0
M  V30 24223 O 2232.94 -1.65234 -0.746156 0
M  V30 24224 C 2232.99 -2.41268 2.67997 0
M  V30 24225 O 2232.09 -3.44768 2.26294 0
M  V30 24226 H 2231.43 -0.383621 0.54197 0
M  V30 24227 H 2233.96 -0.616273 1.95098 0
M  V30 24228 H 2233.97 -2.87216 2.89777 0
M  V30 24229 H 2232.65 -1.99743 3.64795 0
M  V30 24230 H 2231.22 -3.04825 2.14793 0
M  V30 24231 N 2233.41 -1.37859 -0.763727 0
M  V30 24232 C 2234.66 -1.33245 -1.51954 0
M  V30 24233 C 2234.98 0.0801367 -1.94835 0
M  V30 24234 O 2234.25 1.02579 -1.66896 0
M  V30 24235 H 2232.83 -0.49025 -0.563617 0
M  V30 24236 H 2235.49 -1.72432 -0.908474 0
M  V30 24237 H 2234.59 -1.97673 -2.4152 0
M  V30 24238 N 2234.89 0.990791 -1.22561 0
M  V30 24239 C 2236.14 1.72485 -1.04556 0
M  V30 24240 C 2236.45 1.91053 0.419316 0
M  V30 24241 O 2237.66 2.61804 0.719075 0
M  V30 24242 C 2236.11 3.10351 -1.82236 0
M  V30 24243 C 2235.72 2.99707 -3.32986 0
M  V30 24244 C 2237.46 3.87788 -1.72687 0
M  V30 24245 C 2235.37 4.32741 -4.03099 0
M  V30 24246 H 2234.3 0.646732 -0.387626 0
M  V30 24247 H 2236.95 1.10591 -1.46431 0
M  V30 24248 H 2235.33 3.7294 -1.33161 0
M  V30 24249 H 2236.51 2.46271 -3.89471 0
M  V30 24250 H 2234.82 2.35752 -3.43235 0
M  V30 24251 H 2237.42 4.86258 -2.2239 0
M  V30 24252 H 2237.76 4.10581 -0.687679 0
M  V30 24253 H 2238.3 3.31881 -2.19316 0
M  V30 24254 H 2235.03 4.15147 -5.0728 0
M  V30 24255 H 2234.55 4.86082 -3.51403 0
M  V30 24256 H 2236.23 5.01479 -4.08813 0
M  V30 24257 N 2236.37 1.03564 1.18795 0
M  V30 24258 C 2237.64 0.650466 1.84468 0
M  V30 24259 C 2238.02 -0.870399 1.92321 0
M  V30 24260 O 2237.37 -1.76983 1.44531 0
M  V30 24261 C 2237.58 1.32042 3.23057 0
M  V30 24262 C 2238.93 1.44799 3.99147 0
M  V30 24263 O 2239.95 1.27812 3.32479 0
M  V30 24264 O 2238.81 1.72432 5.18584 0
M  V30 24265 H 2235.91 0.22696 0.795247 0
M  V30 24266 H 2238.45 1.13421 1.26229 0
M  V30 24267 H 2237.22 2.35876 3.12215 0
M  V30 24268 H 2236.85 0.824968 3.88947 0
M  V30 24269 N 2237.84 -1.34926 0.814413 0
M  V30 24270 C 2239.12 -1.92941 0.321397 0
M  V30 24271 C 2239.5 -1.74355 -1.19011 0
M  V30 24272 O 2238.85 -1.1172 -1.99326 0
M  V30 24273 C 2239.06 -3.41034 0.741383 0
M  V30 24274 C 2240.41 -4.18184 0.73534 0
M  V30 24275 O 2241.43 -3.49582 0.683422 0
M  V30 24276 O 2240.29 -5.40601 0.800798 0
M  V30 24277 H 2237.38 -0.822526 0.0859038 0
M  V30 24278 H 2239.93 -1.43954 0.898634 0
M  V30 24279 H 2238.7 -3.48326 1.78282 0
M  V30 24280 H 2238.32 -3.97356 0.139377 0
M  V30 24281 N 2239.32 -0.56861 -1.46985 0
M  V30 24282 C 2240.25 0.220739 -2.2713 0
M  V30 24283 C 2241.23 0.909881 -1.34759 0
M  V30 24284 O 2242.42 0.926594 -1.64154 0
M  V30 24285 C 2239.54 1.31547 -3.12111 0
M  V30 24286 C 2238.59 0.733674 -4.20142 0
M  V30 24287 S 2239.42 -0.428573 -5.33782 0
M  V30 24288 C 2240.58 0.667701 -6.22328 0
M  V30 24289 H 2240.81 -0.459319 -2.9373 0
M  V30 24290 H 2238.34 -0.355181 -1.50259 0
M  V30 24291 H 2240.3 1.94235 -3.61639 0
M  V30 24292 H 2238.96 1.96741 -2.4485 0
M  V30 24293 H 2238.16 1.55612 -4.79376 0
M  V30 24294 H 2237.76 0.182746 -3.73553 0
M  V30 24295 H 2240.05 1.55696 -6.59367 0
M  V30 24296 H 2240.99 0.112456 -7.08011 0
M  V30 24297 H 2241.4 0.965503 -5.56182 0
M  V30 24298 N 2240.8 1.54608 -0.305646 0
M  V30 24299 C 2242.05 2.00231 0.302263 0
M  V30 24300 C 2242.37 1.194 1.53538 0
M  V30 24301 O 2241.63 0.259457 1.93972 0
M  V30 24302 C 2241.93 3.50499 0.698922 0
M  V30 24303 C 2241.59 4.48816 -0.432982 0
M  V30 24304 C 2240.26 4.75418 -0.743706 0
M  V30 24305 C 2242.61 5.07335 -1.19418 0
M  V30 24306 C 2239.94 5.57801 -1.81867 0
M  V30 24307 C 2242.29 5.90887 -2.25909 0
M  V30 24308 C 2240.95 6.15798 -2.57583 0
M  V30 24309 H 2240.22 0.732699 0.110606 0
M  V30 24310 H 2242.87 1.86708 -0.425707 0
M  V30 24311 H 2241.17 3.61656 1.50705 0
M  V30 24312 H 2242.87 3.83229 1.18054 0
M  V30 24313 H 2239.46 4.28219 -0.180706 0
M  V30 24314 H 2243.65 4.86781 -0.96738 0
M  V30 24315 H 2238.9 5.75337 -2.06874 0
M  V30 24316 H 2243.08 6.35256 -2.85346 0
M  V30 24317 H 2240.7 6.79424 -3.41009 0
M  V30 24318 N 2242.28 0.033457 1.57564 0
M  V30 24319 C 2243.23 -0.964923 2.11641 0
M  V30 24320 C 2244.22 -1.33405 1.044 0
M  V30 24321 O 2245.43 -1.31578 1.2283 0
M  V30 24322 H 2241.8 -0.328968 0.676228 0
M  V30 24323 H 2243.77 -0.483562 2.94456 0
M  V30 24324 C 2242.52 -2.23667 2.66211 0
M  V30 24325 H 2241.84 -1.96139 3.48381 0
M  V30 24326 H 2243.28 -2.91724 3.0769 0
M  V30 24327 C 2241.74 -2.96936 1.59156 0
M  V30 24328 O 2242.27 -3.89209 0.993927 0
M  V30 24329 N 2240.48 -2.59349 1.31097 0
M  V30 24330 H 2240.03 -1.8439 1.79883 0
M  V30 24331 H 2239.98 -3.08681 0.596943 0
M  V30 24332 N 2243.76 -1.55766 -0.239741 0
M  V30 24333 C 2245 -1.77932 -0.96677 0
M  V30 24334 C 2245.33 -0.599047 -1.85045 0
M  V30 24335 O 2244.59 0.417362 -1.91198 0
M  V30 24336 C 2244.88 -3.05676 -1.85195 0
M  V30 24337 C 2244.55 -4.36691 -1.12303 0
M  V30 24338 C 2243.21 -4.72292 -0.921606 0
M  V30 24339 C 2245.56 -5.17654 -0.606928 0
M  V30 24340 C 2242.89 -5.86386 -0.191893 0
M  V30 24341 C 2245.24 -6.32505 0.109352 0
M  V30 24342 C 2243.91 -6.66722 0.32219 0
M  V30 24343 H 2243.18 -0.651099 -0.353766 0
M  V30 24344 H 2245.83 -1.90036 -0.236307 0
M  V30 24345 H 2244.13 -2.88614 -2.6497 0
M  V30 24346 H 2245.83 -3.20026 -2.41629 0
M  V30 24347 H 2242.42 -4.08727 -1.28997 0
M  V30 24348 H 2246.6 -4.90599 -0.750067 0
M  V30 24349 H 2241.86 -6.11398 -0.0165874 0
M  V30 24350 H 2246.03 -6.94479 0.516859 0
M  V30 24351 H 2243.66 -7.54977 0.889573 0
M  V30 24352 N 2245.23 0.505704 -1.49266 0
M  V30 24353 C 2246.14 1.63424 -1.68315 0
M  V30 24354 C 2247.16 1.64547 -0.56571 0
M  V30 24355 O 2248.34 1.83054 -0.839833 0
M  V30 24356 C 2245.4 2.9981 -1.74112 0
M  V30 24357 C 2244.46 3.0935 -2.97659 0
M  V30 24358 C 2243.69 4.3923 -3.03171 0
M  V30 24359 O 2243.92 5.27755 -2.16405 0
M  V30 24360 O 2242.85 4.53645 -3.95588 0
M  V30 24361 H 2246.68 1.50284 -2.6391 0
M  V30 24362 H 2244.26 0.681478 -1.32952 0
M  V30 24363 H 2246.14 3.80877 -1.80306 0
M  V30 24364 H 2244.82 3.13221 -0.816956 0
M  V30 24365 H 2243.73 2.27488 -2.96985 0
M  V30 24366 H 2245.06 3.00864 -3.8954 0
M  V30 24367 N 2246.71 1.38262 0.756405 0
M  V30 24368 C 2247.94 1.37542 1.54563 0
M  V30 24369 C 2248.36 -0.0354999 1.88767 0
M  V30 24370 O 2247.71 -1.00137 1.52574 0
M  V30 24371 C 2247.76 2.22838 2.8465 0
M  V30 24372 O 2247.48 3.58434 2.51906 0
M  V30 24373 C 2248.99 2.30268 3.78803 0
M  V30 24374 H 2246.21 0.470561 0.478344 0
M  V30 24375 H 2248.75 1.81804 0.936349 0
M  V30 24376 H 2246.9 1.82046 3.41962 0
M  V30 24377 H 2247.32 4.03314 3.35318 0
M  V30 24378 H 2248.79 2.94241 4.6704 0
M  V30 24379 H 2249.27 1.31552 4.19035 0
M  V30 24380 H 2249.88 2.71439 3.27416 0
M  V30 24381 N 2248.19 -0.984277 1.23084 0
M  V30 24382 C 2249.44 -1.72504 1.0606 0
M  V30 24383 C 2249.77 -1.90278 -0.403072 0
M  V30 24384 O 2249.02 -1.44947 -1.31487 0
M  V30 24385 C 2249.32 -3.12917 1.72679 0
M  V30 24386 C 2248.99 -3.15033 3.22591 0
M  V30 24387 C 2247.65 -3.15317 3.63495 0
M  V30 24388 C 2250 -3.10649 4.18505 0
M  V30 24389 C 2247.33 -3.0893 4.98777 0
M  V30 24390 C 2249.68 -3.05804 5.53775 0
M  V30 24391 C 2248.34 -3.04409 5.94047 0
M  V30 24392 H 2247.61 -0.631235 0.388102 0
M  V30 24393 H 2250.26 -1.15213 1.52965 0
M  V30 24394 H 2248.57 -3.7357 1.18123 0
M  V30 24395 H 2250.26 -3.68993 1.56988 0
M  V30 24396 H 2246.85 -3.15566 2.90028 0
M  V30 24397 H 2251.04 -3.09572 3.87916 0
M  V30 24398 H 2246.29 -3.062 5.29199 0
M  V30 24399 H 2250.47 -3.01369 6.27813 0
M  V30 24400 H 2248.09 -2.99214 6.98838 0
M  V30 24401 N 2249.67 -1.04192 -1.18244 0
M  V30 24402 C 2250.92 -0.744576 -1.87884 0
M  V30 24403 C 2251.24 0.729975 -1.80821 0
M  V30 24404 O 2250.51 1.52682 -1.22739 0
M  V30 24405 H 2249.09 -0.27243 -0.695551 0
M  V30 24406 H 2251.75 -1.31894 -1.43492 0
M  V30 24407 H 2250.85 -1.05054 -2.93888 0
M  V30 24408 N 2251.15 1.34492 -0.821557 0
M  V30 24409 C 2252.09 2.31453 -0.230743 0
M  V30 24410 C 2253.09 1.57339 0.627765 0
M  V30 24411 O 2254.29 1.72348 0.519257 0
M  V30 24412 H 2250.67 0.749922 -0.0558709 0
M  V30 24413 H 2252.64 2.7881 -1.06337 0
M  V30 24414 C 2251.39 3.42591 0.593849 0
M  V30 24415 H 2250.71 3.99759 -0.057429 0
M  V30 24416 H 2252.15 4.12676 0.973374 0
M  V30 24417 C 2250.61 2.86927 1.76563 0
M  V30 24418 O 2251.14 2.81696 2.86375 0
M  V30 24419 N 2249.35 2.43769 1.58193 0
M  V30 24420 H 2248.89 2.48224 0.688677 0
M  V30 24421 H 2248.85 2.06876 2.36749 0
M  V30 24422 N 2252.62 0.576397 1.46681 0
M  V30 24423 C 2253.85 0.063084 2.07304 0
M  V30 24424 C 2254.27 -1.22977 1.42331 0
M  V30 24425 O 2253.63 -1.74128 0.504895 0
M  V30 24426 C 2253.68 -0.0958316 3.60473 0
M  V30 24427 O 2252.78 -1.15387 3.95929 0
M  V30 24428 H 2252.13 0.0599579 0.661287 0
M  V30 24429 H 2254.66 0.797544 1.88415 0
M  V30 24430 H 2254.67 -0.303999 4.06866 0
M  V30 24431 H 2253.34 0.848351 4.07156 0
M  V30 24432 H 2251.92 -0.92466 3.61254 0
M  V30 24433 N 2254.1 -1.54444 0.313841 0
M  V30 24434 C 2255.35 -1.99568 -0.292484 0
M  V30 24435 C 2255.66 -1.20585 -1.54009 0
M  V30 24436 O 2256.87 -1.56039 -2.2218 0
M  V30 24437 C 2255.33 -3.5533 -0.571689 0
M  V30 24438 C 2254.93 -4.43137 0.658307 0
M  V30 24439 C 2256.68 -4.08948 -1.1385 0
M  V30 24440 C 2254.59 -5.90354 0.351543 0
M  V30 24441 H 2253.52 -0.745474 -0.113066 0
M  V30 24442 H 2256.17 -1.78521 0.42455 0
M  V30 24443 H 2254.55 -3.72327 -1.34865 0
M  V30 24444 H 2255.72 -4.37916 1.43411 0
M  V30 24445 H 2254.04 -4.00358 1.14465 0
M  V30 24446 H 2256.63 -5.16519 -1.38247 0
M  V30 24447 H 2256.98 -3.60334 -2.08483 0
M  V30 24448 H 2257.51 -3.95545 -0.422945 0
M  V30 24449 H 2254.25 -6.43143 1.26678 0
M  V30 24450 H 2253.77 -5.98552 -0.386737 0
M  V30 24451 H 2255.45 -6.46986 -0.0421997 0
M  V30 24452 N 2255.58 -0.0418125 -1.57545 0
M  V30 24453 C 2256.83 0.633458 -1.91495 0
M  V30 24454 C 2257.14 1.72554 -0.921114 0
M  V30 24455 O 2258.35 2.45833 -1.15232 0
M  V30 24456 C 2256.8 1.17803 -3.40074 0
M  V30 24457 C 2256.41 0.118554 -4.47843 0
M  V30 24458 C 2258.16 1.82908 -3.83073 0
M  V30 24459 C 2256.06 0.675475 -5.8753 0
M  V30 24460 H 2254.99 0.240377 -0.714657 0
M  V30 24461 H 2257.64 -0.10918 -1.83175 0
M  V30 24462 H 2256.03 1.97268 -3.43368 0
M  V30 24463 H 2257.2 -0.654575 -4.56127 0
M  V30 24464 H 2255.52 -0.434487 -4.14127 0
M  V30 24465 H 2258.11 2.25554 -4.84798 0
M  V30 24466 H 2258.46 2.67699 -3.18815 0
M  V30 24467 H 2258.99 1.10112 -3.82257 0
M  V30 24468 H 2255.73 -0.13459 -6.55362 0
M  V30 24469 H 2255.25 1.4168 -5.82827 0
M  V30 24470 H 2256.93 1.16129 -6.36493 0
M  V30 24471 N 2257.06 1.55891 0.231477 0
M  V30 24472 C 2258.3 1.80213 0.964501 0
M  V30 24473 C 2258.66 0.613776 1.81925 0
M  V30 24474 O 2259.86 0.73609 2.58525 0
M  V30 24475 C 2258.13 3.09372 1.78951 0
M  V30 24476 S 2259.69 3.54973 2.57953 0
M  V30 24477 H 2256.51 0.632803 0.324162 0
M  V30 24478 H 2259.11 1.94131 0.230951 0
M  V30 24479 H 2257.82 3.93913 1.15155 0
M  V30 24480 H 2257.35 2.98234 2.56554 0
M  V30 24481 H 2259.36 3.17525 3.81303 0
M  V30 24482 N 2258.54 -0.497781 1.49532 0
M  V30 24483 C 2259.47 -1.60754 1.69353 0
M  V30 24484 C 2260.45 -1.61226 0.542246 0
M  V30 24485 O 2261.63 -1.77915 0.778448 0
M  V30 24486 C 2258.76 -2.99223 1.76303 0
M  V30 24487 C 2257.72 -3.13617 2.91253 0
M  V30 24488 C 2257.04 -4.53469 2.8332 0
M  V30 24489 C 2258.34 -2.93339 4.32145 0
M  V30 24490 H 2260.04 -1.4442 2.62265 0
M  V30 24491 H 2257.58 -0.693345 1.26209 0
M  V30 24492 H 2259.54 -3.76762 1.88756 0
M  V30 24493 H 2258.26 -3.16652 0.799927 0
M  V30 24494 H 2256.92 -2.38504 2.78409 0
M  V30 24495 H 2256.57 -4.67779 1.8491 0
M  V30 24496 H 2256.27 -4.6404 3.60473 0
M  V30 24497 H 2257.79 -5.33064 2.97784 0
M  V30 24498 H 2259.2 -3.60645 4.45655 0
M  V30 24499 H 2257.6 -3.15378 5.10545 0
M  V30 24500 H 2258.67 -1.89433 4.46367 0
M  V30 24501 N 2260.01 -1.38661 -0.749062 0
M  V30 24502 C 2261.26 -1.35116 -1.5083 0
M  V30 24503 C 2261.59 0.0573707 -1.94415 0
M  V30 24504 O 2260.84 1.03538 -1.66067 0
M  V30 24505 C 2261.14 -2.25702 -2.77116 0
M  V30 24506 C 2260.81 -3.7359 -2.52471 0
M  V30 24507 C 2259.47 -4.13888 -2.45458 0
M  V30 24508 C 2261.82 -4.67185 -2.31057 0
M  V30 24509 C 2259.15 -5.45865 -2.15054 0
M  V30 24510 C 2261.5 -5.99424 -2.02173 0
M  V30 24511 C 2260.17 -6.38802 -1.9362 0
M  V30 24512 H 2259.44 -0.494426 -0.551927 0
M  V30 24513 H 2262.08 -1.71055 -0.860949 0
M  V30 24514 H 2260.39 -1.82833 -3.46524 0
M  V30 24515 H 2262.09 -2.2026 -3.35092 0
M  V30 24516 H 2258.68 -3.41643 -2.58801 0
M  V30 24517 H 2262.86 -4.36894 -2.35451 0
M  V30 24518 H 2258.12 -5.75312 -2.06944 0
M  V30 24519 H 2262.29 -6.71485 -1.84609 0
M  V30 24520 H 2259.92 -7.40988 -1.69826 0
M  V30 24521 N 2261.49 0.977736 -1.23605 0
M  V30 24522 C 2262.4 2.10468 -1.03636 0
M  V30 24523 C 2263.42 1.73989 0.0199129 0
M  V30 24524 O 2264.6 2.00629 -0.176112 0
M  V30 24525 C 2261.66 3.40876 -0.63282 0
M  V30 24526 C 2260.72 3.91364 -1.76444 0
M  V30 24527 C 2259.95 5.15548 -1.38006 0
M  V30 24528 O 2260.18 5.69782 -0.265457 0
M  V30 24529 O 2259.11 5.6017 -2.2021 0
M  V30 24530 H 2262.94 2.30204 -1.9809 0
M  V30 24531 H 2260.52 1.08849 -1.02334 0
M  V30 24532 H 2262.4 4.19313 -0.418834 0
M  V30 24533 H 2261.08 3.22463 0.282697 0
M  V30 24534 H 2259.99 3.14032 -2.03309 0
M  V30 24535 H 2261.32 4.14236 -2.65837 0
M  V30 24536 N 2262.97 1.04818 1.1769 0
M  V30 24537 C 2264.22 0.751165 1.87191 0
M  V30 24538 C 2264.53 -0.724409 1.81691 0
M  V30 24539 O 2265.74 -1.13523 2.46627 0
M  V30 24540 C 2264.2 1.29344 3.35854 0
M  V30 24541 C 2263.8 2.79818 3.49865 0
M  V30 24542 C 2265.55 1.07329 4.10707 0
M  V30 24543 C 2263.45 3.27365 4.9253 0
M  V30 24544 H 2262.38 0.2773 0.701157 0
M  V30 24545 H 2265.04 1.26498 1.3293 0
M  V30 24546 H 2263.42 0.707445 3.8963 0
M  V30 24547 H 2264.59 3.4424 3.06326 0
M  V30 24548 H 2262.91 3.0033 2.88428 0
M  V30 24549 H 2265.5 1.40359 5.15949 0
M  V30 24550 H 2265.85 0.0108732 4.16299 0
M  V30 24551 H 2266.38 1.62429 3.63127 0
M  V30 24552 H 2263.12 4.3302 4.92111 0
M  V30 24553 H 2262.64 2.67683 5.36755 0
M  V30 24554 H 2264.32 3.21825 5.61282 0
M  V30 24555 N 2264.45 -1.34055 0.828678 0
M  V30 24556 C 2265.68 -2.02326 0.432656 0
M  V30 24557 C 2266.09 -1.62387 -0.963119 0
M  V30 24558 O 2265.45 -0.83215 -1.62424 0
M  V30 24559 C 2265.5 -3.57566 0.531883 0
M  V30 24560 O 2265.22 -3.9606 1.87265 0
M  V30 24561 C 2266.72 -4.43105 0.1315 0
M  V30 24562 H 2263.94 -0.648332 0.172934 0
M  V30 24563 H 2266.49 -1.71206 1.11843 0
M  V30 24564 H 2264.64 -3.87255 -0.10587 0
M  V30 24565 H 2265.06 -4.90754 1.85096 0
M  V30 24566 H 2266.53 -5.51424 0.252001 0
M  V30 24567 H 2267.01 -4.29337 -0.92557 0
M  V30 24568 H 2267.61 -4.18755 0.74328 0
M  V30 24569 N 2265.93 -0.584167 -1.46374 0
M  V30 24570 C 2267.16 -0.075966 -2.0676 0
M  V30 24571 C 2267.57 1.22962 -1.43268 0
M  V30 24572 O 2266.93 1.74375 -0.538489 0
M  V30 24573 C 2266.98 0.0949749 -3.61375 0
M  V30 24574 O 2266.7 -1.15894 -4.22493 0
M  V30 24575 C 2268.2 0.637357 -4.38694 0
M  V30 24576 H 2265.42 -0.0581192 -0.668478 0
M  V30 24577 H 2267.96 -0.805251 -1.87979 0
M  V30 24578 H 2266.12 0.774487 -3.79579 0
M  V30 24579 H 2266.53 -0.973689 -5.15383 0
M  V30 24580 H 2268.01 0.70614 -5.47465 0
M  V30 24581 H 2268.48 1.65465 -4.06839 0
M  V30 24582 H 2269.09 -0.00733443 -4.25299 0
M  V30 24583 N 2267.41 1.54275 -0.322027 0
M  V30 24584 C 2268.63 2.05422 0.285755 0
M  V30 24585 C 2269.06 1.19671 1.45122 0
M  V30 24586 O 2268.41 0.205473 1.80132 0
M  V30 24587 C 2268.46 3.5375 0.699497 0
M  V30 24588 O 2267.57 3.70945 1.80203 0
M  V30 24589 H 2266.91 0.66197 0.0518846 0
M  V30 24590 H 2269.44 1.99129 -0.469989 0
M  V30 24591 H 2269.45 3.95992 0.982579 0
M  V30 24592 H 2268.12 4.15619 -0.152937 0
M  V30 24593 H 2266.7 3.40609 1.51788 0
M  V30 24594 N 2268.88 0.0501669 1.5752 0
M  V30 24595 C 2269.85 -0.909749 2.10372 0
M  V30 24596 C 2270.85 -1.24054 1.0231 0
M  V30 24597 O 2272.04 -1.17739 1.28387 0
M  V30 24598 C 2269.17 -2.21994 2.58712 0
M  V30 24599 H 2270.36 -0.451613 2.9648 0
M  V30 24600 H 2267.91 -0.19822 1.55038 0
M  V30 24601 H 2268.65 -2.72391 1.75994 0
M  V30 24602 H 2268.43 -1.99289 3.37678 0
M  V30 24603 H 2269.92 -2.90755 2.99752 0
M  V30 24604 N 2270.36 -1.56011 -0.223207 0
M  V30 24605 C 2271.61 -1.78594 -0.945971 0
M  V30 24606 C 2271.93 -0.618381 -1.84935 0
M  V30 24607 O 2271.2 0.364799 -1.92473 0
M  V30 24608 H 2269.78 -0.658713 -0.352287 0
M  V30 24609 H 2272.44 -1.93472 -0.23546 0
M  V30 24610 H 2271.54 -2.70675 -1.55376 0
M  V30 24611 N 2271.84 0.489844 -1.49794 0
M  V30 24612 C 2273.09 1.24233 -1.61052 0
M  V30 24613 C 2273.44 1.90071 -0.298446 0
M  V30 24614 O 2272.73 1.78267 0.702231 0
M  V30 24615 C 2272.93 2.32436 -2.71492 0
M  V30 24616 C 2272.76 1.77211 -4.13311 0
M  V30 24617 C 2271.53 1.58015 -4.79958 0
M  V30 24618 C 2273.72 1.27763 -4.98178 0
M  V30 24619 N 2271.71 0.978358 -6.06054 0
M  V30 24620 C 2273.08 0.797892 -6.14844 0
M  V30 24621 C 2275.13 1.16441 -4.84093 0
M  V30 24622 C 2273.84 0.216118 -7.18975 0
M  V30 24623 C 2275.86 0.596594 -5.88383 0
M  V30 24624 C 2275.22 0.127138 -7.04285 0
M  V30 24625 H 2271.32 0.444161 -0.643619 0
M  V30 24626 H 2273.91 0.547507 -1.86843 0
M  V30 24627 H 2272.08 2.99367 -2.47454 0
M  V30 24628 H 2273.81 2.99473 -2.7221 0
M  V30 24629 H 2270.56 1.82704 -4.3694 0
M  V30 24630 H 2270.99 0.696415 -6.73409 0
M  V30 24631 H 2275.63 1.51333 -3.94789 0
M  V30 24632 H 2273.35 -0.145045 -8.0797 0
M  V30 24633 H 2276.93 0.511614 -5.79546 0
M  V30 24634 H 2275.81 -0.305367 -7.83605 0
M  V30 24635 N 2273.32 1.39056 0.741698 0
M  V30 24636 C 2274.59 1.26428 1.49249 0
M  V30 24637 C 2274.97 -0.129107 2.10705 0
M  V30 24638 O 2274.32 -1.13973 1.98047 0
M  V30 24639 C 2274.53 2.38352 2.5493 0
M  V30 24640 C 2275.88 2.77349 3.21501 0
M  V30 24641 O 2276.9 2.37752 2.6524 0
M  V30 24642 O 2275.76 3.45672 4.23288 0
M  V30 24643 H 2272.86 0.495075 0.662442 0
M  V30 24644 H 2275.4 1.50913 0.776094 0
M  V30 24645 H 2274.18 3.31532 2.07851 0
M  V30 24646 H 2273.8 2.15495 3.34137 0
M  V30 24647 N 2274.8 -0.971167 1.24121 0
M  V30 24648 C 2276.04 -1.7103 1.07671 0
M  V30 24649 C 2276.36 -1.91146 -0.385764 0
M  V30 24650 O 2275.63 -1.48673 -1.27567 0
M  V30 24651 H 2274.21 -0.633748 0.39544 0
M  V30 24652 H 2276.88 -1.16852 1.55986 0
M  V30 24653 H 2275.97 -2.69619 1.572 0
M  V30 24654 N 2276.27 -1.05441 -1.17133 0
M  V30 24655 C 2277.2 -0.678688 -2.23419 0
M  V30 24656 C 2278.19 0.324731 -1.66972 0
M  V30 24657 O 2279.37 0.201768 -1.93149 0
M  V30 24658 C 2276.5 -0.055271 -3.47256 0
M  V30 24659 C 2275.45 -0.983723 -4.16542 0
M  V30 24660 C 2274.78 -0.224055 -5.3423 0
M  V30 24661 C 2276.08 -2.30898 -4.68491 0
M  V30 24662 H 2277.77 -1.56726 -2.55103 0
M  V30 24663 H 2275.32 -0.755019 -1.22619 0
M  V30 24664 H 2277.27 0.219386 -4.20829 0
M  V30 24665 H 2276 0.868264 -3.14847 0
M  V30 24666 H 2274.66 -1.24299 -3.44885 0
M  V30 24667 H 2274.3 0.702325 -4.98073 0
M  V30 24668 H 2274 -0.842729 -5.81525 0
M  V30 24669 H 2275.53 0.0432598 -6.10585 0
M  V30 24670 H 2276.94 -2.09405 -5.33688 0
M  V30 24671 H 2275.34 -2.88185 -5.26374 0
M  V30 24672 H 2276.41 -2.94579 -3.85164 0
M  V30 24673 N 2277.75 1.33613 -0.835776 0
M  V30 24674 C 2278.68 2.31794 -0.28178 0
M  V30 24675 C 2279.66 1.58832 0.608805 0
M  V30 24676 O 2280.85 1.86742 0.533002 0
M  V30 24677 C 2277.98 3.42972 0.546552 0
M  V30 24678 C 2276.93 4.27281 -0.247979 0
M  V30 24679 C 2276.26 5.30046 0.703907 0
M  V30 24680 C 2277.56 5.01382 -1.46333 0
M  V30 24681 H 2279.25 2.78377 -1.10211 0
M  V30 24682 H 2276.8 1.33836 -0.531412 0
M  V30 24683 H 2278.75 4.10681 0.944395 0
M  V30 24684 H 2277.48 2.95069 1.40006 0
M  V30 24685 H 2276.13 3.61192 -0.627345 0
M  V30 24686 H 2275.78 4.78402 1.55373 0
M  V30 24687 H 2275.48 5.87335 0.176421 0
M  V30 24688 H 2277.01 6.00622 1.09933 0
M  V30 24689 H 2278.42 5.61875 -1.13881 0
M  V30 24690 H 2276.82 5.68306 -1.92738 0
M  V30 24691 H 2277.89 4.30334 -2.23474 0
M  V30 24692 N 2279.23 0.591922 1.46062 0
M  V30 24693 C 2280.18 -0.148698 2.32124 0
M  V30 24694 C 2281.17 -0.875261 1.45036 0
M  V30 24695 O 2282.38 -0.792604 1.6161 0
M  V30 24696 H 2278.75 -0.0668189 0.749026 0
M  V30 24697 H 2280.72 0.595835 2.92391 0
M  V30 24698 C 2279.47 -1.14304 3.28375 0
M  V30 24699 H 2278.8 -0.59339 3.95372 0
M  V30 24700 H 2280.24 -1.63148 3.91355 0
M  V30 24701 C 2278.7 -2.2087 2.54397 0
M  V30 24702 O 2279.23 -3.2837 2.31378 0
M  V30 24703 N 2277.43 -1.95727 2.148 0
M  V30 24704 H 2276.98 -1.08315 2.33721 0
M  V30 24705 H 2276.94 -2.67238 1.65624 0
M  V30 24706 N 2280.71 -1.54102 0.330204 0
M  V30 24707 C 2282.12 -1.86043 -0.156487 0
M  V30 24708 C 2282.47 -1.25173 -1.51083 0
M  V30 24709 O 2281.6 -0.560254 -2.09022 0
M  V30 24710 C 2282.19 -3.3755 -0.290725 0
M  V30 24711 C 2280.75 -3.69418 -0.72164 0
M  V30 24712 C 2279.9 -2.76879 0.152671 0
M  V30 24713 H 2282.85 -1.48855 0.550263 0
M  V30 24714 H 2282.87 -3.63627 -1.12051 0
M  V30 24715 H 2282.38 -3.81824 0.695135 0
M  V30 24716 H 2280.48 -3.30681 -1.71701 0
M  V30 24717 H 2280.59 -4.76261 -0.520785 0
M  V30 24718 H 2278.96 -2.51956 -0.37285 0
M  V30 24719 H 2279.74 -3.2398 1.13542 0
M  V30 24720 N 2282.19 -0.0585199 -1.57491 0
M  V30 24721 C 2283.44 0.613112 -1.92156 0
M  V30 24722 C 2283.75 1.71567 -0.939364 0
M  V30 24723 O 2284.95 2.44597 -1.17833 0
M  V30 24724 C 2283.41 1.14189 -3.41305 0
M  V30 24725 C 2283.02 0.0710478 -4.47944 0
M  V30 24726 C 2284.76 1.78835 -3.84991 0
M  V30 24727 C 2282.67 0.613122 -5.88213 0
M  V30 24728 H 2281.6 0.232784 -0.717166 0
M  V30 24729 H 2284.25 -0.128602 -1.83049 0
M  V30 24730 H 2282.63 1.93615 -3.45441 0
M  V30 24731 H 2283.81 -0.702916 -4.55407 0
M  V30 24732 H 2282.12 -0.478386 -4.13643 0
M  V30 24733 H 2284.72 2.204 -4.87163 0
M  V30 24734 H 2285.06 2.64303 -3.21636 0
M  V30 24735 H 2285.59 1.06052 -3.83403 0
M  V30 24736 H 2282.33 -0.204093 -6.55182 0
M  V30 24737 H 2281.85 1.35491 -5.84296 0
M  V30 24738 H 2283.53 1.09371 -6.37689 0
M  V30 24739 N 2283.66 1.56128 0.21493 0
M  V30 24740 C 2284.59 1.95976 1.26947 0
M  V30 24741 C 2285.58 0.828894 1.48537 0
M  V30 24742 O 2286.76 1.09171 1.60609 0
M  V30 24743 C 2283.89 2.28218 2.6179 0
M  V30 24744 C 2282.84 3.43858 2.54845 0
M  V30 24745 C 2282.17 3.61722 3.93778 0
M  V30 24746 C 2283.47 4.78636 2.09057 0
M  V30 24747 H 2285.16 2.84314 0.93841 0
M  V30 24748 H 2282.71 1.36789 0.449972 0
M  V30 24749 H 2284.66 2.54688 3.35726 0
M  V30 24750 H 2283.39 1.36741 2.96596 0
M  V30 24751 H 2282.05 3.17447 1.83365 0
M  V30 24752 H 2281.69 2.6761 4.25904 0
M  V30 24753 H 2281.39 4.39505 3.90012 0
M  V30 24754 H 2282.92 3.90547 4.69367 0
M  V30 24755 H 2284.33 5.04267 2.72741 0
M  V30 24756 H 2282.73 5.59749 2.16336 0
M  V30 24757 H 2283.8 4.73549 1.04306 0
M  V30 24758 N 2285.14 -0.481893 1.50052 0
M  V30 24759 C 2286.09 -1.602 1.68637 0
M  V30 24760 C 2287.08 -1.60147 0.552212 0
M  V30 24761 O 2288.29 -1.64426 0.732406 0
M  V30 24762 H 2284.67 -0.531398 0.53209 0
M  V30 24763 H 2286.64 -1.41683 2.62619 0
M  V30 24764 C 2285.39 -2.98216 1.7878 0
M  V30 24765 H 2284.71 -2.98972 2.65435 0
M  V30 24766 H 2286.15 -3.76076 1.95813 0
M  V30 24767 C 2284.61 -3.32594 0.536907 0
M  V30 24768 O 2285.14 -4.00352 -0.328827 0
M  V30 24769 N 2283.34 -2.87915 0.394141 0
M  V30 24770 H 2282.89 -2.32949 1.09967 0
M  V30 24771 H 2282.85 -3.11282 -0.441683 0
M  V30 24772 N 2286.62 -1.39448 -0.734313 0
M  V30 24773 C 2287.85 -1.4017 -1.52864 0
M  V30 24774 C 2288.27 0.00168206 -1.881 0
M  V30 24775 O 2287.63 0.988853 -1.51959 0
M  V30 24776 C 2287.68 -2.28171 -2.79231 0
M  V30 24777 O 2286.78 -1.71207 -3.75182 0
M  V30 24778 H 2286.12 -0.477298 -0.461609 0
M  V30 24779 H 2288.65 -1.83451 -0.905916 0
M  V30 24780 H 2288.66 -2.42708 -3.27959 0
M  V30 24781 H 2287.34 -3.3016 -2.52917 0
M  V30 24782 H 2285.91 -1.65918 -3.33955 0
M  V30 24783 N 2288.1 0.964571 -1.24635 0
M  V30 24784 C 2289.35 1.70457 -1.08576 0
M  V30 24785 C 2289.67 1.91348 0.375621 0
M  V30 24786 O 2288.94 1.49347 1.26776 0
M  V30 24787 H 2287.52 0.631642 -0.398795 0
M  V30 24788 H 2290.18 1.16023 -1.56603 0
M  V30 24789 H 2289.28 2.68782 -1.58628 0
M  V30 24790 N 2289.58 1.0606 1.16572 0
M  V30 24791 C 2290.99 0.800661 1.6866 0
M  V30 24792 C 2291.34 -0.676048 1.84185 0
M  V30 24793 O 2290.46 -1.52464 1.5357 0
M  V30 24794 C 2291.06 1.44682 3.06354 0
M  V30 24795 C 2289.62 1.23471 3.55573 0
M  V30 24796 C 2288.76 1.52481 2.31613 0
M  V30 24797 H 2291.72 1.22439 1.00967 0
M  V30 24798 H 2291.74 0.860853 3.70634 0
M  V30 24799 H 2291.25 2.52157 2.95023 0
M  V30 24800 H 2289.35 0.179592 3.72167 0
M  V30 24801 H 2289.46 1.94578 4.37808 0
M  V30 24802 H 2287.83 0.945251 2.3651 0
M  V30 24803 H 2288.61 2.6111 2.22882 0
M  V30 24804 N 2291.06 -1.33168 0.84285 0
M  V30 24805 C 2292.47 -1.79972 0.496682 0
M  V30 24806 C 2292.82 -1.69705 -0.984611 0
M  V30 24807 O 2291.94 -1.24866 -1.76741 0
M  V30 24808 C 2292.54 -3.26771 0.894784 0
M  V30 24809 C 2291.1 -3.71576 0.600695 0
M  V30 24810 C 2290.24 -2.54508 1.10095 0
M  V30 24811 H 2293.19 -1.20633 1.03118 0
M  V30 24812 H 2293.22 -3.7994 0.206414 0
M  V30 24813 H 2292.73 -3.34211 1.97293 0
M  V30 24814 H 2290.83 -3.69659 -0.467219 0
M  V30 24815 H 2290.94 -4.64877 1.15872 0
M  V30 24816 H 2289.31 -2.49301 0.521664 0
M  V30 24817 H 2290.09 -2.64709 2.18596 0
M  V30 24818 N 2292.53 -0.599659 -1.45746 0
M  V30 24819 C 2293.81 -0.024119 -1.95585 0
M  V30 24820 C 2294.19 1.44152 -1.54219 0
M  V30 24821 O 2293.54 2.14003 -0.800941 0
M  V30 24822 C 2293.75 -0.213911 -3.48344 0
M  V30 24823 C 2295.1 -0.0905648 -4.24503 0
M  V30 24824 O 2296.12 -0.14362 -3.5591 0
M  V30 24825 O 2294.98 0.0309806 -5.46491 0
M  V30 24826 H 2292.07 0.0402333 -0.826021 0
M  V30 24827 H 2294.62 -0.669166 -1.5595 0
M  V30 24828 H 2293.39 -1.23213 -3.71395 0
M  V30 24829 H 2293.01 0.466773 -3.94851 0
M  V30 24830 N 2294.01 1.53925 -0.338371 0
M  V30 24831 C 2295.25 2.02738 0.260133 0
M  V30 24832 C 2295.62 1.22094 1.48179 0
M  V30 24833 O 2296.82 1.60781 2.15413 0
M  V30 24834 C 2295.09 3.528 0.571565 0
M  V30 24835 S 2296.65 4.23527 1.14762 0
M  V30 24836 H 2293.46 0.706733 0.0777786 0
M  V30 24837 H 2296.07 1.89643 -0.474932 0
M  V30 24838 H 2294.77 4.09107 -0.325464 0
M  V30 24839 H 2294.3 3.70004 1.33643 0
M  V30 24840 H 2296.32 4.32421 2.43364 0
M  V30 24841 N 2295.49 0.0668712 1.57458 0
M  V30 24842 C 2296.77 -0.6441 1.84691 0
M  V30 24843 C 2297.15 -1.88091 0.958376 0
M  V30 24844 O 2296.49 -2.28488 0.0233981 0
M  V30 24845 C 2296.7 -0.986451 3.34769 0
M  V30 24846 C 2298.05 -1.36205 4.02161 0
M  V30 24847 O 2299.08 -1.07833 3.39486 0
M  V30 24848 O 2297.94 -1.89218 5.12698 0
M  V30 24849 H 2295.03 -0.319424 0.762822 0
M  V30 24850 H 2297.58 0.0974284 1.6942 0
M  V30 24851 H 2296.35 -0.107814 3.91151 0
M  V30 24852 H 2295.97 -1.78491 3.55284 0
M  V30 24853 N 2296.97 -1.56239 -0.206647 0
M  V30 24854 C 2298.38 -1.69975 -0.772353 0
M  V30 24855 C 2298.73 -0.671469 -1.84352 0
M  V30 24856 O 2297.85 0.174453 -2.15696 0
M  V30 24857 C 2298.45 -3.08169 -1.40774 0
M  V30 24858 C 2297.01 -3.23709 -1.92066 0
M  V30 24859 C 2296.16 -2.65918 -0.7863 0
M  V30 24860 H 2299.11 -1.5869 0.0182502 0
M  V30 24861 H 2299.13 -3.04856 -2.2769 0
M  V30 24862 H 2298.64 -3.82987 -0.62789 0
M  V30 24863 H 2296.74 -2.53787 -2.72806 0
M  V30 24864 H 2296.85 -4.31091 -2.09039 0
M  V30 24865 H 2295.22 -2.2479 -1.19756 0
M  V30 24866 H 2296 -3.43295 -0.0188812 0
M  V30 24867 N 2298.45 0.473929 -1.50305 0
M  V30 24868 C 2299.39 1.59304 -1.69485 0
M  V30 24869 C 2300.39 1.59852 -0.560697 0
M  V30 24870 O 2301.59 1.64035 -0.741116 0
M  V30 24871 H 2297.97 0.528569 -0.534901 0
M  V30 24872 H 2299.94 1.40288 -2.63366 0
M  V30 24873 C 2298.69 2.97264 -1.80359 0
M  V30 24874 H 2298.01 2.9756 -2.67017 0
M  V30 24875 H 2299.45 3.75032 -1.97805 0
M  V30 24876 C 2297.91 3.32305 -0.554538 0
M  V30 24877 O 2298.44 4.00521 0.307591 0
M  V30 24878 N 2296.65 2.87702 -0.409404 0
M  V30 24879 H 2296.19 2.32362 -1.112 0
M  V30 24880 H 2296.15 3.11512 0.425168 0
M  V30 24881 N 2299.92 1.39835 0.726907 0
M  V30 24882 C 2300.85 1.41944 1.85403 0
M  V30 24883 C 2301.83 0.281757 1.6775 0
M  V30 24884 O 2303.02 0.48875 1.87949 0
M  V30 24885 C 2300.15 1.27015 3.2324 0
M  V30 24886 C 2299.1 2.38268 3.55545 0
M  V30 24887 C 2298.43 2.08423 4.92406 0
M  V30 24888 C 2299.73 3.80595 3.57693 0
M  V30 24889 H 2301.42 2.36269 1.83895 0
M  V30 24890 H 2298.97 1.13725 0.883329 0
M  V30 24891 H 2300.92 1.2711 4.01772 0
M  V30 24892 H 2299.65 0.291621 3.25295 0
M  V30 24893 H 2298.31 2.37404 2.79347 0
M  V30 24894 H 2297.95 1.08988 4.9105 0
M  V30 24895 H 2297.65 2.82952 5.14987 0
M  V30 24896 H 2299.18 2.10181 5.73285 0
M  V30 24897 H 2300.59 3.83344 4.26286 0
M  V30 24898 H 2298.99 4.5455 3.91796 0
M  V30 24899 H 2300.06 4.10992 2.5732 0
M  V30 24900 N 2301.4 -0.957948 1.25144 0
M  V30 24901 C 2302.31 -2.08792 1.06971 0
M  V30 24902 C 2303.33 -1.73998 0.00776969 0
M  V30 24903 O 2304.5 -2.00323 0.208008 0
M  V30 24904 C 2301.57 -3.39826 0.68697 0
M  V30 24905 C 2300.63 -3.88508 1.82648 0
M  V30 24906 C 2299.86 -5.13287 1.4619 0
M  V30 24907 O 2300.09 -5.69288 0.356071 0
M  V30 24908 O 2299.02 -5.56596 2.29094 0
M  V30 24909 H 2302.85 -2.27024 2.01727 0
M  V30 24910 H 2300.43 -1.07207 1.04053 0
M  V30 24911 H 2302.31 -4.18594 0.485491 0
M  V30 24912 H 2300.99 -3.22872 -0.23136 0
M  V30 24913 H 2299.89 -3.10758 2.08279 0
M  V30 24914 H 2301.23 -4.09954 2.72394 0
M  V30 24915 N 2302.88 -1.06677 -1.16008 0
M  V30 24916 C 2303.83 -0.675196 -2.22584 0
M  V30 24917 C 2304.82 0.310737 -1.66526 0
M  V30 24918 O 2306.03 0.175183 -1.79145 0
M  V30 24919 H 2302.4 -0.200235 -0.724852 0
M  V30 24920 H 2304.37 -1.58385 -2.52897 0
M  V30 24921 C 2303.12 -0.0817773 -3.47604 0
M  V30 24922 H 2302.45 -0.831552 -3.91057 0
M  V30 24923 H 2303.89 0.154634 -4.23718 0
M  V30 24924 C 2302.34 1.1757 -3.1572 0
M  V30 24925 O 2302.87 2.26312 -3.31882 0
M  V30 24926 N 2301.08 1.07919 -2.69818 0
M  V30 24927 H 2300.63 0.194248 -2.56867 0
M  V30 24928 H 2300.59 1.92137 -2.48859 0
M  V30 24929 N 2304.36 1.32719 -0.8499 0
M  V30 24930 C 2305.77 1.79706 -0.50622 0
M  V30 24931 C 2306.12 1.70225 0.975597 0
M  V30 24932 O 2305.24 1.25802 1.76076 0
M  V30 24933 C 2305.84 3.26292 -0.912101 0
M  V30 24934 C 2304.4 3.71252 -0.620392 0
M  V30 24935 C 2303.55 2.5392 -1.11444 0
M  V30 24936 H 2306.5 1.20085 -1.03756 0
M  V30 24937 H 2306.52 3.79825 -0.22656 0
M  V30 24938 H 2306.03 3.3316 -1.99063 0
M  V30 24939 H 2304.13 3.69902 0.447609 0
M  V30 24940 H 2304.24 4.64256 -1.18335 0
M  V30 24941 H 2302.61 2.4902 -0.534878 0
M  V30 24942 H 2303.39 2.63546 -2.19997 0
M  V30 24943 N 2305.84 0.60738 1.45426 0
M  V30 24944 C 2307.08 0.102288 2.01841 0
M  V30 24945 C 2307.41 -1.27162 1.47834 0
M  V30 24946 O 2306.68 -1.83994 0.672529 0
M  V30 24947 H 2305.26 0.0348232 0.746188 0
M  V30 24948 H 2307.92 0.788731 1.78228 0
M  V30 24949 H 2307.01 0.0519134 3.12057 0
M  V30 24950 N 2307.31 -1.53743 0.34653 0
M  V30 24951 C 2308.54 -2.0538 -0.250374 0
M  V30 24952 C 2308.96 -1.22131 -1.43977 0
M  V30 24953 O 2308.31 -0.257353 -1.80676 0
M  V30 24954 C 2308.37 -3.55377 -0.662512 0
M  V30 24955 O 2308.09 -4.35467 0.479592 0
M  V30 24956 C 2309.59 -4.23197 -1.31982 0
M  V30 24957 H 2306.81 -0.669295 -0.047808 0
M  V30 24958 H 2309.35 -1.98309 0.499381 0
M  V30 24959 H 2307.51 -3.62661 -1.36221 0
M  V30 24960 H 2307.92 -5.24284 0.150462 0
M  V30 24961 H 2309.39 -5.2953 -1.55892 0
M  V30 24962 H 2309.87 -3.75729 -2.2743 0
M  V30 24963 H 2310.48 -4.20115 -0.66208 0
M  V30 24964 N 2308.79 -0.0752207 -1.5742 0
M  V30 24965 C 2310.02 0.60548 -1.98365 0
M  V30 24966 C 2310.44 1.62147 -0.953412 0
M  V30 24967 O 2309.8 1.81121 0.0805734 0
M  V30 24968 C 2309.85 1.2475 -3.38334 0
M  V30 24969 O 2308.95 2.36336 -3.37963 0
M  V30 24970 H 2308.29 0.155417 -0.645555 0
M  V30 24971 H 2310.82 -0.15075 -2.04044 0
M  V30 24972 H 2310.83 1.59353 -3.75594 0
M  V30 24973 H 2309.51 0.503056 -4.12846 0
M  V30 24974 H 2308.09 2.03501 -3.12477 0
M  V30 24975 N 2310.27 1.56347 0.198358 0
M  V30 24976 C 2311.52 1.807 0.920616 0
M  V30 24977 C 2311.85 0.64873 1.83044 0
M  V30 24978 O 2311.12 -0.350892 1.91309 0
M  V30 24979 C 2311.41 3.1529 1.73966 0
M  V30 24980 C 2311.26 4.41604 0.854773 0
M  V30 24981 C 2312.58 3.4654 2.71289 0
M  V30 24982 H 2309.7 0.657354 0.333249 0
M  V30 24983 H 2312.34 1.89066 0.188165 0
M  V30 24984 H 2310.49 3.08289 2.36411 0
M  V30 24985 H 2312.16 4.60647 0.245281 0
M  V30 24986 H 2310.41 4.335 0.161322 0
M  V30 24987 H 2311.08 5.32266 1.46276 0
M  V30 24988 H 2313.55 3.5382 2.18977 0
M  V30 24989 H 2312.43 4.4184 3.25682 0
M  V30 24990 H 2312.69 2.6987 3.50175 0
M  V30 24991 N 2311.75 -0.465951 1.50554 0
M  V30 24992 C 2312.7 -1.5633 1.69793 0
M  V30 24993 C 2313.67 -1.57102 0.539266 0
M  V30 24994 O 2314.85 -1.74554 0.770432 0
M  V30 24995 C 2311.99 -2.94268 1.80278 0
M  V30 24996 C 2311.1 -3.03245 3.07679 0
M  V30 24997 C 2310.24 -4.3213 3.08929 0
M  V30 24998 C 2309.28 -4.34868 4.30763 0
M  V30 24999 N 2308.41 -5.55232 4.29723 0
M  V30 25000 H 2313.25 -1.39231 2.63475 0
M  V30 25001 H 2310.79 -0.67685 1.30603 0
M  V30 25002 H 2312.75 -3.74266 1.84338 0
M  V30 25003 H 2311.38 -3.09991 0.900312 0
M  V30 25004 H 2310.43 -2.16088 3.13066 0
M  V30 25005 H 2311.74 -3.01128 3.97647 0
M  V30 25006 H 2310.9 -5.20479 3.11747 0
M  V30 25007 H 2309.64 -4.36863 2.168 0
M  V30 25008 H 2308.64 -3.44915 4.28152 0
M  V30 25009 H 2309.87 -4.31822 5.24125 0
M  V30 25010 H 2307.81 -5.6074 3.4045 0
M  V30 25011 H 2307.73 -5.54877 5.13466 0
M  V30 25012 H 2309 -6.45692 4.36694 0
M  V30 25013 N 2313.23 -1.40218 -0.719481 0
M  V30 25014 C 2314.47 -1.38012 -1.47638 0
M  V30 25015 C 2314.8 0.0181108 -1.94992 0
M  V30 25016 O 2314.07 0.972177 -1.70075 0
M  V30 25017 H 2312.65 -0.507932 -0.547735 0
M  V30 25018 H 2315.31 -1.75235 -0.853156 0
M  V30 25019 H 2314.4 -2.05257 -2.35109 0
M  V30 25020 N 2314.7 0.951297 -1.25651 0
M  V30 25021 C 2315.98 1.67286 -1.01364 0
M  V30 25022 C 2316.36 2.06047 0.459099 0
M  V30 25023 O 2315.71 1.77642 1.4372 0
M  V30 25024 C 2315.92 2.89264 -1.95262 0
M  V30 25025 C 2317.27 3.61143 -2.23296 0
M  V30 25026 O 2318.29 2.99352 -1.93046 0
M  V30 25027 O 2317.15 4.72414 -2.74749 0
M  V30 25028 H 2314.24 0.7321 -0.384653 0
M  V30 25029 H 2316.79 1.00393 -1.36819 0
M  V30 25030 H 2315.56 2.57437 -2.9469 0
M  V30 25031 H 2315.19 3.63887 -1.60224 0
M  V30 25032 N 2316.18 1.07291 1.1544 0
M  V30 25033 C 2317.42 0.805045 1.87879 0
M  V30 25034 C 2317.79 -0.656876 1.80414 0
M  V30 25035 O 2318.99 -1.03976 2.47876 0
M  V30 25036 C 2317.26 1.29849 3.32977 0
M  V30 25037 S 2318.82 1.16122 4.23156 0
M  V30 25038 H 2315.64 0.29175 0.648385 0
M  V30 25039 H 2318.24 1.37189 1.39282 0
M  V30 25040 H 2316.94 2.35718 3.35954 0
M  V30 25041 H 2316.47 0.726835 3.86627 0
M  V30 25042 H 2318.49 0.098365 4.96102 0
M  V30 25043 N 2317.66 -1.32267 0.856927 0
M  V30 25044 C 2318.91 -1.96783 0.460509 0
M  V30 25045 C 2319.23 -1.68137 -0.987672 0
M  V30 25046 O 2318.5 -0.989795 -1.69056 0
M  V30 25047 H 2317.08 -0.728024 0.167302 0
M  V30 25048 H 2319.74 -1.6131 1.09385 0
M  V30 25049 H 2318.84 -3.06132 0.607443 0
M  V30 25050 N 2319.14 -0.615084 -1.45102 0
M  V30 25051 C 2320.09 0.11175 -2.32331 0
M  V30 25052 C 2321.08 0.852076 -1.4641 0
M  V30 25053 O 2322.29 0.766793 -1.62851 0
M  V30 25054 H 2318.66 0.0548941 -0.749994 0
M  V30 25055 H 2320.63 -0.642276 -2.91406 0
M  V30 25056 C 2319.38 1.09065 -3.30152 0
M  V30 25057 H 2318.7 0.530415 -3.96266 0
M  V30 25058 H 2320.14 1.56901 -3.93901 0
M  V30 25059 C 2318.6 2.16795 -2.57879 0
M  V30 25060 O 2319.13 3.24648 -2.36573 0
M  V30 25061 N 2317.34 1.92285 -2.17887 0
M  V30 25062 H 2316.89 1.04583 -2.35415 0
M  V30 25063 H 2316.84 2.64569 -1.69855 0
M  V30 25064 N 2320.62 1.53557 -0.354678 0
M  V30 25065 C 2322.03 1.86268 0.126869 0
M  V30 25066 C 2322.38 1.27561 1.49073 0
M  V30 25067 O 2321.5 0.593437 2.08104 0
M  V30 25068 C 2322.1 3.3797 0.236987 0
M  V30 25069 C 2320.66 3.70519 0.662777 0
M  V30 25070 C 2319.81 2.76601 -0.196701 0
M  V30 25071 H 2322.76 1.47961 -0.573875 0
M  V30 25072 H 2322.78 3.65364 1.06252 0
M  V30 25073 H 2322.29 3.8067 -0.755792 0
M  V30 25074 H 2320.39 3.3337 1.66418 0
M  V30 25075 H 2320.5 4.77029 0.44495 0
M  V30 25076 H 2318.87 2.52517 0.332719 0
M  V30 25077 H 2319.65 3.22133 -1.18682 0
M  V30 25078 N 2322.1 0.083568 1.57378 0
M  V30 25079 C 2323.32 -0.594952 1.98683 0
M  V30 25080 C 2323.75 -1.61639 0.961997 0
M  V30 25081 O 2323.1 -1.81161 -0.070967 0
M  V30 25082 C 2323.15 -1.22954 3.38991 0
M  V30 25083 O 2322.26 -2.3454 3.39212 0
M  V30 25084 H 2321.6 -0.151991 0.64637 0
M  V30 25085 H 2324.13 0.161568 2.03961 0
M  V30 25086 H 2324.14 -1.57359 3.76433 0
M  V30 25087 H 2322.81 -0.481155 4.13107 0
M  V30 25088 H 2321.39 -2.01841 3.13552 0
M  V30 25089 N 2323.57 -1.5645 -0.190064 0
M  V30 25090 C 2324.82 -1.80112 -0.907881 0
M  V30 25091 C 2325.14 -0.657651 -1.84213 0
M  V30 25092 O 2326.34 -0.778709 -2.60093 0
M  V30 25093 C 2324.8 -3.19081 -1.66479 0
M  V30 25094 C 2324.41 -4.41244 -0.775122 0
M  V30 25095 C 2326.15 -3.52049 -2.37195 0
M  V30 25096 C 2324.06 -5.71234 -1.53119 0
M  V30 25097 H 2322.99 -0.671595 -0.342748 0
M  V30 25098 H 2325.64 -1.82792 -0.161077 0
M  V30 25099 H 2324.02 -3.10665 -2.45567 0
M  V30 25100 H 2325.19 -4.60794 -0.0225488 0
M  V30 25101 H 2323.51 -4.16017 -0.178553 0
M  V30 25102 H 2326.11 -4.46407 -2.94321 0
M  V30 25103 H 2326.45 -2.76033 -3.11627 0
M  V30 25104 H 2326.98 -3.61935 -1.65069 0
M  V30 25105 H 2323.72 -6.5023 -0.829556 0
M  V30 25106 H 2323.24 -5.55692 -2.25757 0
M  V30 25107 H 2324.92 -6.1253 -2.08366 0
M  V30 25108 N 2325.05 0.45796 -1.50799 0
M  V30 25109 C 2326.3 1.20667 -1.62123 0
M  V30 25110 C 2326.62 1.9219 -0.329827 0
M  V30 25111 O 2325.89 1.84683 0.653376 0
M  V30 25112 H 2324.47 0.448401 -0.597449 0
M  V30 25113 H 2327.13 0.527063 -1.87638 0
M  V30 25114 H 2326.23 1.94747 -2.43885 0
M  V30 25115 N 2326.53 1.40598 0.712035 0
M  V30 25116 C 2327.78 1.38372 1.46752 0
M  V30 25117 C 2328.09 -0.00974952 1.95598 0
M  V30 25118 O 2329.3 -0.154629 2.71059 0
M  V30 25119 C 2327.75 2.43211 2.65285 0
M  V30 25120 C 2327.36 3.88386 2.23294 0
M  V30 25121 C 2329.11 2.50097 3.43004 0
M  V30 25122 C 2327.01 4.84814 3.38688 0
M  V30 25123 H 2325.94 0.514516 0.551171 0
M  V30 25124 H 2328.59 1.6635 0.774587 0
M  V30 25125 H 2326.98 2.08338 3.36766 0
M  V30 25126 H 2328.15 4.32422 1.5921 0
M  V30 25127 H 2326.46 3.85008 1.58611 0
M  V30 25128 H 2329.06 3.19327 4.28876 0
M  V30 25129 H 2329.4 1.5326 3.87062 0
M  V30 25130 H 2329.94 2.83979 2.78569 0
M  V30 25131 H 2326.68 5.82997 2.99658 0
M  V30 25132 H 2326.2 4.4544 4.01675 0
M  V30 25133 H 2327.88 5.04802 4.04703 0
M  V30 25134 N 2328.01 -0.94462 1.26153 0
M  V30 25135 C 2329.25 -1.70515 1.12711 0
M  V30 25136 C 2329.61 -1.89235 -0.324694 0
M  V30 25137 O 2330.81 -2.62442 -0.581165 0
M  V30 25138 C 2329.08 -3.04492 1.87135 0
M  V30 25139 S 2330.64 -3.95673 1.89705 0
M  V30 25140 H 2327.46 -0.585981 0.402676 0
M  V30 25141 H 2330.06 -1.12592 1.59823 0
M  V30 25142 H 2328.77 -2.88545 2.91838 0
M  V30 25143 H 2328.3 -3.67474 1.4045 0
M  V30 25144 H 2330.31 -4.864 0.981283 0
M  V30 25145 N 2329.49 -1.07901 -1.1487 0
M  V30 25146 C 2330.73 -0.805565 -1.85787 0
M  V30 25147 C 2331.06 0.668529 -1.8265 0
M  V30 25148 O 2330.32 1.50693 -1.24861 0
M  V30 25149 C 2330.61 -1.26614 -3.34221 0
M  V30 25150 C 2330.28 -2.74716 -3.5755 0
M  V30 25151 C 2328.94 -3.15166 -3.63626 0
M  V30 25152 C 2331.29 -3.70283 -3.66797 0
M  V30 25153 C 2328.62 -4.4999 -3.76465 0
M  V30 25154 C 2330.97 -5.04875 -3.81161 0
M  V30 25155 C 2329.64 -5.44939 -3.85484 0
M  V30 25156 H 2328.91 -0.294777 -0.679844 0
M  V30 25157 H 2331.56 -1.35103 -1.35718 0
M  V30 25158 H 2329.86 -0.640171 -3.86535 0
M  V30 25159 H 2331.56 -1.03139 -3.87509 0
M  V30 25160 H 2328.15 -2.42405 -3.53466 0
M  V30 25161 H 2332.33 -3.40155 -3.61398 0
M  V30 25162 H 2327.59 -4.80491 -3.78072 0
M  V30 25163 H 2331.76 -5.78796 -3.87258 0
M  V30 25164 H 2329.39 -6.49409 -3.95185 0
M  V30 25165 N 2330.96 1.31811 -0.863929 0
M  V30 25166 C 2332.21 1.96925 -0.47187 0
M  V30 25167 C 2332.54 1.68323 0.974549 0
M  V30 25168 O 2331.79 0.968963 1.70028 0
M  V30 25169 C 2332.09 3.5109 -0.668609 0
M  V30 25170 C 2331.76 3.99699 -2.0869 0
M  V30 25171 C 2330.42 4.12684 -2.47478 0
M  V30 25172 C 2332.77 4.25346 -3.01215 0
M  V30 25173 C 2330.1 4.48663 -3.78045 0
M  V30 25174 C 2332.45 4.62787 -4.3129 0
M  V30 25175 C 2331.12 4.73978 -4.70001 0
M  V30 25176 H 2330.39 0.720601 -0.17267 0
M  V30 25177 H 2333.03 1.57052 -1.09576 0
M  V30 25178 H 2331.34 3.91781 0.0384563 0
M  V30 25179 H 2333.04 3.99512 -0.345172 0
M  V30 25180 H 2329.63 3.90084 -1.77573 0
M  V30 25181 H 2333.81 4.14814 -2.72476 0
M  V30 25182 H 2329.07 4.55524 -4.07808 0
M  V30 25183 H 2333.24 4.81585 -5.0304 0
M  V30 25184 H 2330.87 5.01614 -5.71216 0
M  V30 25185 N 2332.44 0.62277 1.44773 0
M  V30 25186 C 2333.68 0.127138 2.04004 0
M  V30 25187 C 2334.05 -1.22475 1.47864 0
M  V30 25188 O 2335.25 -1.81201 1.98544 0
M  V30 25189 C 2333.52 0.104492 3.57247 0
M  V30 25190 S 2335.08 -0.327738 4.37574 0
M  V30 25191 H 2331.89 0.0569901 0.708712 0
M  V30 25192 H 2334.5 0.824284 1.77273 0
M  V30 25193 H 2333.2 1.09166 3.95615 0
M  V30 25194 H 2332.73 -0.614168 3.88576 0
M  V30 25195 H 2334.75 -1.57387 4.70578 0
M  V30 25196 N 2333.92 -1.53367 0.362817 0
M  V30 25197 C 2335.14 -2.06107 -0.23119 0
M  V30 25198 C 2335.57 -1.23477 -1.41898 0
M  V30 25199 O 2334.93 -0.25316 -1.79524 0
M  V30 25200 C 2334.98 -3.55481 -0.605461 0
M  V30 25201 O 2334.08 -3.75593 -1.70305 0
M  V30 25202 H 2333.42 -0.663113 -0.0343154 0
M  V30 25203 H 2335.95 -1.97813 0.522619 0
M  V30 25204 H 2335.96 -3.98458 -0.877244 0
M  V30 25205 H 2334.64 -4.15067 0.263077 0
M  V30 25206 H 2333.21 -3.44514 -1.42704 0
M  V30 25207 N 2335.4 -0.091913 -1.57332 0
M  V30 25208 C 2336.63 0.58017 -1.98287 0
M  V30 25209 C 2337.04 1.62458 -0.969741 0
M  V30 25210 O 2336.38 1.83634 0.0493178 0
M  V30 25211 C 2336.44 1.28876 -3.35606 0
M  V30 25212 C 2336.11 0.395479 -4.55286 0
M  V30 25213 C 2337.1 -0.355093 -5.18686 0
M  V30 25214 C 2334.79 0.314467 -5.01315 0
M  V30 25215 C 2336.78 -1.17469 -6.26482 0
M  V30 25216 C 2334.47 -0.508784 -6.08978 0
M  V30 25217 C 2335.47 -1.25201 -6.71427 0
M  V30 25218 O 2335.15 -2.06165 -7.77014 0
M  V30 25219 H 2334.89 0.160455 -0.656681 0
M  V30 25220 H 2337.44 -0.166916 -2.04721 0
M  V30 25221 H 2335.67 2.08235 -3.25845 0
M  V30 25222 H 2337.36 1.85506 -3.6103 0
M  V30 25223 H 2338.13 -0.302219 -4.84057 0
M  V30 25224 H 2334 0.882617 -4.52472 0
M  V30 25225 H 2337.55 -1.7553 -6.75156 0
M  V30 25226 H 2333.45 -0.56315 -6.43039 0
M  V30 25227 H 2334.21 -1.98813 -7.93987 0
M  V30 25228 N 2336.88 1.56548 0.181765 0
M  V30 25229 C 2338.13 1.80591 0.898316 0
M  V30 25230 C 2338.44 0.667411 1.83861 0
M  V30 25231 O 2339.64 0.792491 2.59676 0
M  V30 25232 C 2338.1 3.19959 1.64785 0
M  V30 25233 C 2337.71 4.41648 0.751711 0
M  V30 25234 C 2339.45 3.53302 2.35325 0
M  V30 25235 C 2337.36 5.72038 1.50088 0
M  V30 25236 H 2336.29 0.673403 0.339182 0
M  V30 25237 H 2338.94 1.82875 0.151381 0
M  V30 25238 H 2337.32 3.11963 2.43916 0
M  V30 25239 H 2338.5 4.608 -0.0018886 0
M  V30 25240 H 2336.81 4.16106 0.156489 0
M  V30 25241 H 2339.41 4.47961 2.9195 0
M  V30 25242 H 2339.75 2.77682 3.10159 0
M  V30 25243 H 2340.28 3.62805 1.63147 0
M  V30 25244 H 2337.02 6.5066 0.795061 0
M  V30 25245 H 2336.54 5.56882 2.22807 0
M  V30 25246 H 2338.22 6.13626 2.05115 0
M  V30 25247 N 2338.35 -0.449957 1.5104 0
M  V30 25248 C 2339.6 -1.19731 1.62319 0
M  V30 25249 C 2339.92 -1.92638 0.339135 0
M  V30 25250 O 2341.12 -2.69473 0.331116 0
M  V30 25251 C 2339.58 -2.17673 2.86612 0
M  V30 25252 C 2339.19 -1.50472 4.21974 0
M  V30 25253 C 2340.93 -2.92919 3.07244 0
M  V30 25254 C 2338.84 -2.46824 5.37431 0
M  V30 25255 H 2337.77 -0.450608 0.60454 0
M  V30 25256 H 2340.42 -0.465593 1.77495 0
M  V30 25257 H 2338.8 -2.94226 2.65042 0
M  V30 25258 H 2339.97 -0.795636 4.53879 0
M  V30 25259 H 2338.29 -0.874273 4.07118 0
M  V30 25260 H 2340.89 -3.65072 3.90675 0
M  V30 25261 H 2341.23 -3.53536 2.19813 0
M  V30 25262 H 2341.76 -2.23475 3.29095 0
M  V30 25263 H 2338.5 -1.90915 6.27082 0
M  V30 25264 H 2338.02 -3.15823 5.09918 0
M  V30 25265 H 2339.7 -3.08218 5.68868 0
M  V30 25266 N 2339.83 -1.40974 -0.704569 0
M  V30 25267 C 2341.08 -1.39148 -1.46016 0
M  V30 25268 C 2341.39 -0.000623636 -1.956 0
M  V30 25269 O 2342.6 0.140252 -2.71138 0
M  V30 25270 C 2341.06 -2.44615 -2.63992 0
M  V30 25271 C 2340.66 -3.89565 -2.21231 0
M  V30 25272 C 2342.41 -2.51913 -3.41673 0
M  V30 25273 C 2340.32 -4.86603 -3.36112 0
M  V30 25274 H 2339.25 -0.517431 -0.548435 0
M  V30 25275 H 2341.9 -1.66759 -0.765754 0
M  V30 25276 H 2340.28 -2.10121 -3.35656 0
M  V30 25277 H 2341.45 -4.3326 -1.56915 0
M  V30 25278 H 2339.77 -3.85844 -1.56567 0
M  V30 25279 H 2342.36 -3.21597 -4.27176 0
M  V30 25280 H 2342.71 -1.5531 -3.86244 0
M  V30 25281 H 2343.24 -2.85453 -2.77059 0
M  V30 25282 H 2339.98 -5.84578 -2.96562 0
M  V30 25283 H 2339.5 -4.47564 -3.99307 0
M  V30 25284 H 2341.18 -5.06941 -4.0202 0
M  V30 25285 N 2341.31 0.937917 -1.26653 0
M  V30 25286 C 2342.54 1.72409 -1.15282 0
M  V30 25287 C 2342.96 1.85885 0.287833 0
M  V30 25288 O 2342.32 1.35145 1.20853 0
M  V30 25289 C 2342.37 3.10694 -1.83034 0
M  V30 25290 O 2341.47 3.96862 -1.12135 0
M  V30 25291 H 2340.81 0.528851 -0.401513 0
M  V30 25292 H 2343.34 1.17447 -1.67533 0
M  V30 25293 H 2343.35 3.61066 -1.89987 0
M  V30 25294 H 2342.03 3.00203 -2.87839 0
M  V30 25295 H 2340.6 3.5531 -1.13179 0
M  V30 25296 N 2342.79 1.08509 1.14296 0
M  V30 25297 C 2344.04 0.815406 1.85357 0
M  V30 25298 C 2344.36 -0.658833 1.83002 0
M  V30 25299 O 2343.62 -1.50029 1.25658 0
M  V30 25300 C 2343.92 1.28385 3.33545 0
M  V30 25301 C 2343.58 2.76608 3.56088 0
M  V30 25302 C 2342.25 3.1709 3.61949 0
M  V30 25303 C 2344.6 3.72223 3.64828 0
M  V30 25304 C 2341.93 4.5198 3.74074 0
M  V30 25305 C 2344.28 5.0689 3.78478 0
M  V30 25306 C 2342.94 5.46976 3.82589 0
M  V30 25307 H 2342.21 0.298378 0.678271 0
M  V30 25308 H 2344.86 1.35821 1.35 0
M  V30 25309 H 2343.16 0.660661 3.8619 0
M  V30 25310 H 2344.86 1.05193 3.86957 0
M  V30 25311 H 2341.45 2.44276 3.52175 0
M  V30 25312 H 2345.63 3.42067 3.59589 0
M  V30 25313 H 2340.89 4.82489 3.75519 0
M  V30 25314 H 2345.06 5.80841 3.84183 0
M  V30 25315 H 2342.69 6.51496 3.91736 0
M  V30 25316 N 2344.27 -1.31351 0.870907 0
M  V30 25317 C 2345.2 -2.30965 0.343137 0
M  V30 25318 C 2346.18 -1.6039 -0.566479 0
M  V30 25319 O 2347.36 -1.8809 -0.483303 0
M  V30 25320 C 2344.49 -3.44301 -0.455426 0
M  V30 25321 C 2343.45 -4.26473 0.361178 0
M  V30 25322 C 2342.77 -5.31726 -0.563127 0
M  V30 25323 C 2344.07 -4.97326 1.59575 0
M  V30 25324 H 2345.77 -2.75357 1.17553 0
M  V30 25325 H 2343.31 -1.3238 0.566709 0
M  V30 25326 H 2345.27 -4.13041 -0.835178 0
M  V30 25327 H 2343.99 -2.98678 -1.32134 0
M  V30 25328 H 2342.65 -3.59402 0.722888 0
M  V30 25329 H 2342.3 -4.82353 -1.42634 0
M  V30 25330 H 2342 -5.87596 -0.0206376 0
M  V30 25331 H 2343.52 -6.03326 -0.939702 0
M  V30 25332 H 2344.93 -5.58659 1.28738 0
M  V30 25333 H 2343.33 -5.62996 2.07738 0
M  V30 25334 H 2344.4 -4.24258 2.34805 0
M  V30 25335 N 2345.74 -0.630439 -1.44441 0
M  V30 25336 C 2346.99 -0.132108 -2.01267 0
M  V30 25337 C 2347.31 1.25328 -1.50174 0
M  V30 25338 O 2348.51 1.84559 -1.99124 0
M  V30 25339 C 2346.97 -0.185425 -3.59422 0
M  V30 25340 C 2346.58 -1.57208 -4.19511 0
M  V30 25341 C 2348.32 0.256479 -4.23724 0
M  V30 25342 C 2346.23 -1.58055 -5.69888 0
M  V30 25343 H 2345.16 -0.0456224 -0.752618 0
M  V30 25344 H 2347.81 -0.789135 -1.65665 0
M  V30 25345 H 2346.19 0.53869 -3.92319 0
M  V30 25346 H 2347.36 -2.31973 -3.98152 0
M  V30 25347 H 2345.68 -1.95801 -3.67493 0
M  V30 25348 H 2348.28 0.269673 -5.3402 0
M  V30 25349 H 2348.62 1.28365 -3.96015 0
M  V30 25350 H 2349.15 -0.415119 -3.95628 0
M  V30 25351 H 2345.89 -2.58607 -6.02331 0
M  V30 25352 H 2345.41 -0.875829 -5.93371 0
M  V30 25353 H 2347.09 -1.31419 -6.33512 0
M  V30 25354 N 2347.22 1.53172 -0.370945 0
M  V30 25355 C 2348.47 2.01632 0.217388 0
M  V30 25356 C 2348.8 1.25759 1.47981 0
M  V30 25357 O 2348.08 0.352798 1.91274 0
M  V30 25358 C 2348.36 3.56557 0.503919 0
M  V30 25359 C 2348.21 4.43117 -0.772508 0
M  V30 25360 C 2349.53 4.20392 1.30226 0
M  V30 25361 H 2346.65 0.73291 0.0775357 0
M  V30 25362 H 2349.29 1.83387 -0.496895 0
M  V30 25363 H 2347.44 3.72233 1.11241 0
M  V30 25364 H 2349.11 4.39227 -1.40987 0
M  V30 25365 H 2347.36 4.10869 -1.39174 0
M  V30 25366 H 2348.03 5.49479 -0.526911 0
M  V30 25367 H 2350.5 4.08581 0.787474 0
M  V30 25368 H 2349.38 5.28808 1.47149 0
M  V30 25369 H 2349.64 3.76809 2.31231 0
M  V30 25370 N 2348.7 0.100255 1.57281 0
M  V30 25371 C 2349.95 -0.563067 1.94827 0
M  V30 25372 C 2350.28 -1.67513 0.982505 0
M  V30 25373 O 2349.55 -1.94493 0.0164411 0
M  V30 25374 C 2349.84 -1.1134 3.42455 0
M  V30 25375 C 2349.69 -0.00604174 4.498 0
M  V30 25376 C 2351.01 -2.01018 3.9151 0
M  V30 25377 H 2348.13 -0.203209 0.708431 0
M  V30 25378 H 2350.77 0.172012 1.8922 0
M  V30 25379 H 2348.92 -1.73984 3.47364 0
M  V30 25380 H 2350.59 0.628437 4.56999 0
M  V30 25381 H 2348.84 0.659656 4.28755 0
M  V30 25382 H 2349.51 -0.432012 5.50307 0
M  V30 25383 H 2351.98 -1.48271 3.88786 0
M  V30 25384 H 2350.86 -2.36448 4.95362 0
M  V30 25385 H 2351.12 -2.92955 3.31104 0
M  V30 25386 N 2350.18 -1.56643 -0.17346 0
M  V30 25387 C 2351.13 -1.9716 -1.23413 0
M  V30 25388 C 2352.12 -0.860039 -1.45944 0
M  V30 25389 O 2353.33 -1.04514 -1.46549 0
M  V30 25390 H 2349.7 -0.627247 -0.414807 0
M  V30 25391 H 2351.67 -2.85572 -0.865531 0
M  V30 25392 C 2350.42 -2.34581 -2.56646 0
M  V30 25393 H 2349.75 -3.19651 -2.40131 0
M  V30 25394 H 2351.19 -2.66776 -3.29555 0
M  V30 25395 C 2349.64 -1.18842 -3.15243 0
M  V30 25396 O 2350.17 -0.474939 -3.98882 0
M  V30 25397 N 2348.38 -0.959545 -2.74301 0
M  V30 25398 H 2347.93 -1.54149 -2.06387 0
M  V30 25399 H 2347.89 -0.186987 -3.13843 0
M  V30 25400 N 2351.66 0.44194 -1.51277 0
M  V30 25401 C 2352.59 1.55588 -1.66936 0
M  V30 25402 C 2353.57 1.54162 -0.516986 0
M  V30 25403 O 2354.75 1.73357 -0.74024 0
M  V30 25404 C 2351.88 2.94171 -1.67872 0
M  V30 25405 C 2350.93 3.13641 -2.89019 0
M  V30 25406 S 2351.76 2.90428 -4.49902 0
M  V30 25407 C 2352.91 4.31301 -4.53575 0
M  V30 25408 H 2353.15 1.42071 -2.61157 0
M  V30 25409 H 2350.68 0.631317 -1.40903 0
M  V30 25410 H 2352.64 3.74055 -1.69095 0
M  V30 25411 H 2351.3 3.05055 -0.74835 0
M  V30 25412 H 2350.49 4.14952 -2.86061 0
M  V30 25413 H 2350.09 2.41575 -2.85513 0
M  V30 25414 H 2352.39 5.24426 -4.28933 0
M  V30 25415 H 2353.33 4.39293 -5.55362 0
M  V30 25416 H 2353.74 4.14741 -3.8295 0
M  V30 25417 N 2353.14 1.41345 0.697083 0
M  V30 25418 C 2354.37 1.43765 1.48375 0
M  V30 25419 C 2354.77 0.0409058 1.89156 0
M  V30 25420 O 2354.12 -0.949785 1.57241 0
M  V30 25421 C 2354.18 2.28175 2.77806 0
M  V30 25422 C 2353.84 3.76357 2.59238 0
M  V30 25423 C 2354.84 4.68555 2.25283 0
M  V30 25424 C 2352.52 4.20382 2.74925 0
M  V30 25425 C 2354.52 6.02764 2.07253 0
M  V30 25426 C 2352.21 5.54658 2.56512 0
M  V30 25427 C 2353.2 6.45664 2.22726 0
M  V30 25428 O 2352.89 7.77462 2.04471 0
M  V30 25429 H 2352.62 0.491767 0.463833 0
M  V30 25430 H 2355.18 1.86256 0.865901 0
M  V30 25431 H 2353.41 1.80496 3.41992 0
M  V30 25432 H 2355.1 2.22315 3.39604 0
M  V30 25433 H 2355.86 4.35832 2.12779 0
M  V30 25434 H 2351.74 3.49853 3.00207 0
M  V30 25435 H 2355.29 6.73762 1.80805 0
M  V30 25436 H 2351.18 5.86959 2.68605 0
M  V30 25437 H 2351.95 7.8859 2.19246 0
M  V30 25438 N 2354.61 -0.931187 1.27148 0
M  V30 25439 C 2355.86 -1.673 1.12667 0
M  V30 25440 C 2356.18 -1.92836 -0.327685 0
M  V30 25441 O 2357.38 -2.64937 -0.593345 0
M  V30 25442 C 2355.84 -3.01303 1.96836 0
M  V30 25443 C 2355.45 -2.83478 3.46906 0
M  V30 25444 C 2357.19 -3.79107 1.90992 0
M  V30 25445 C 2355.1 -4.13016 4.23287 0
M  V30 25446 H 2354.03 -0.627501 0.418041 0
M  V30 25447 H 2356.68 -1.03478 1.5154 0
M  V30 25448 H 2355.06 -3.66162 1.50803 0
M  V30 25449 H 2356.23 -2.27408 4.00777 0
M  V30 25450 H 2354.55 -2.19107 3.54092 0
M  V30 25451 H 2357.15 -4.75094 2.45337 0
M  V30 25452 H 2357.49 -4.06832 0.88279 0
M  V30 25453 H 2358.02 -3.2104 2.34901 0
M  V30 25454 H 2354.76 -3.90471 5.2651 0
M  V30 25455 H 2354.28 -4.68763 3.74194 0
M  V30 25456 H 2355.96 -4.81403 4.32273 0
M  V30 25457 N 2356.09 -1.09114 -1.13719 0
M  V30 25458 C 2357.05 -0.73128 -2.17221 0
M  V30 25459 C 2358.05 0.237538 -1.59036 0
M  V30 25460 O 2359.24 0.0161398 -1.74193 0
M  V30 25461 C 2356.38 -0.0809042 -3.40804 0
M  V30 25462 H 2357.57 -1.64787 -2.5057 0
M  V30 25463 H 2355.12 -0.889919 -1.28492 0
M  V30 25464 H 2355.86 0.847072 -3.13042 0
M  V30 25465 H 2355.64 -0.777963 -3.84305 0
M  V30 25466 H 2357.13 0.155584 -4.1731 0
M  V30 25467 N 2357.57 1.30887 -0.877861 0
M  V30 25468 C 2358.82 1.95687 -0.488827 0
M  V30 25469 C 2359.13 1.70113 0.965455 0
M  V30 25470 O 2360.34 2.28838 1.461 0
M  V30 25471 C 2358.79 3.50358 -0.823263 0
M  V30 25472 C 2358.4 3.84761 -2.29484 0
M  V30 25473 C 2360.15 4.21508 -0.503083 0
M  V30 25474 C 2358.05 5.32578 -2.57127 0
M  V30 25475 H 2356.98 0.732426 -0.179075 0
M  V30 25476 H 2359.63 1.48941 -1.07185 0
M  V30 25477 H 2358.02 3.95638 -0.169401 0
M  V30 25478 H 2359.19 3.50415 -2.99242 0
M  V30 25479 H 2357.5 3.26696 -2.58184 0
M  V30 25480 H 2360.1 5.30272 -0.686744 0
M  V30 25481 H 2360.44 4.12556 0.557036 0
M  V30 25482 H 2360.98 3.81888 -1.11383 0
M  V30 25483 H 2357.72 5.46574 -3.61853 0
M  V30 25484 H 2357.24 5.68249 -1.91971 0
M  V30 25485 H 2358.92 5.99932 -2.42262 0
M  V30 25486 N 2359.05 0.638091 1.44105 0
M  V30 25487 C 2360.3 0.14278 2.01194 0
M  V30 25488 C 2360.61 -1.2453 1.50837 0
M  V30 25489 O 2361.82 -1.835 2.001 0
M  V30 25490 C 2360.27 0.204484 3.59319 0
M  V30 25491 C 2359.88 1.59431 4.18671 0
M  V30 25492 C 2361.62 -0.234004 4.23855 0
M  V30 25493 C 2359.53 1.61075 5.69042 0
M  V30 25494 H 2358.46 0.0496131 0.752366 0
M  V30 25495 H 2361.11 0.79791 1.65244 0
M  V30 25496 H 2359.49 -0.517877 3.92599 0
M  V30 25497 H 2360.67 2.34081 3.96917 0
M  V30 25498 H 2358.98 1.97747 3.66449 0
M  V30 25499 H 2361.58 -0.241349 5.34155 0
M  V30 25500 H 2361.92 -1.26263 3.9669 0
M  V30 25501 H 2362.46 0.436095 3.95402 0
M  V30 25502 H 2359.19 2.61798 6.00951 0
M  V30 25503 H 2358.71 0.907285 5.92898 0
M  V30 25504 H 2360.39 1.34777 6.32807 0
M  V30 25505 N 2360.53 -1.52973 0.379063 0
M  V30 25506 C 2361.46 -2.2907 -0.452665 0
M  V30 25507 C 2362.44 -1.32041 -1.07235 0
M  V30 25508 O 2363.62 -1.60925 -1.08705 0
M  V30 25509 C 2360.75 -3.08995 -1.58554 0
M  V30 25510 C 2359.71 -4.13824 -1.09243 0
M  V30 25511 C 2359.03 -4.81911 -2.31659 0
M  V30 25512 C 2360.33 -5.22031 -0.16761 0
M  V30 25513 H 2362.03 -2.98845 0.182233 0
M  V30 25514 H 2359.57 -1.43724 0.0890845 0
M  V30 25515 H 2361.52 -3.60983 -2.17414 0
M  V30 25516 H 2360.25 -2.36935 -2.24788 0
M  V30 25517 H 2358.91 -3.62801 -0.526431 0
M  V30 25518 H 2358.56 -4.06409 -2.96379 0
M  V30 25519 H 2358.26 -5.52758 -1.9933 0
M  V30 25520 H 2359.78 -5.367 -2.9118 0
M  V30 25521 H 2361.19 -5.69441 -0.664086 0
M  V30 25522 H 2359.59 -6.00064 0.065432 0
M  V30 25523 H 2360.66 -4.7848 0.786431 0
M  V30 25524 N 2362 -0.108595 -1.57225 0
M  V30 25525 C 2362.91 0.859363 -2.18294 0
M  V30 25526 C 2363.93 1.30036 -1.15614 0
M  V30 25527 O 2365.11 1.36549 -1.48041 0
M  V30 25528 C 2362.17 2.09553 -2.76204 0
M  V30 25529 C 2361.23 1.70745 -3.93884 0
M  V30 25530 C 2360.46 2.88469 -4.49023 0
M  V30 25531 O 2360.69 4.03592 -4.03075 0
M  V30 25532 O 2359.62 2.66155 -5.39857 0
M  V30 25533 H 2363.45 0.369716 -3.01441 0
M  V30 25534 H 2361.03 0.116473 -1.48945 0
M  V30 25535 H 2362.91 2.81972 -3.13161 0
M  V30 25536 H 2361.59 2.57544 -1.96094 0
M  V30 25537 H 2360.5 0.95465 -3.61714 0
M  V30 25538 H 2361.83 1.27505 -4.75398 0
M  V30 25539 N 2363.48 1.56732 0.16515 0
M  V30 25540 C 2364.43 1.97811 1.22366 0
M  V30 25541 C 2365.42 0.867766 1.45486 0
M  V30 25542 O 2366.63 1.0529 1.45993 0
M  V30 25543 H 2363 0.629438 0.411474 0
M  V30 25544 H 2364.98 2.86027 0.850375 0
M  V30 25545 C 2363.72 2.35938 2.55398 0
M  V30 25546 H 2363.05 3.2092 2.38433 0
M  V30 25547 H 2364.49 2.6852 3.28136 0
M  V30 25548 C 2362.95 1.20512 3.14608 0
M  V30 25549 O 2363.48 0.496086 3.98625 0
M  V30 25550 N 2361.68 0.974078 2.73788 0
M  V30 25551 H 2361.23 1.55242 2.05567 0
M  V30 25552 H 2361.19 0.203629 3.1374 0
M  V30 25553 N 2364.96 -0.433911 1.51509 0
M  V30 25554 C 2366.21 -1.18306 1.64347 0
M  V30 25555 C 2366.53 -1.91114 0.361349 0
M  V30 25556 O 2365.79 -1.84423 -0.65472 0
M  V30 25557 C 2366.09 -2.222 2.79932 0
M  V30 25558 C 2365.76 -1.6638 4.19081 0
M  V30 25559 C 2364.42 -1.50879 4.56934 0
M  V30 25560 C 2366.77 -1.25372 5.05897 0
M  V30 25561 C 2364.1 -0.928506 5.79306 0
M  V30 25562 C 2366.45 -0.687712 6.28851 0
M  V30 25563 C 2365.11 -0.519638 6.65474 0
M  V30 25564 H 2364.38 -0.432912 0.601388 0
M  V30 25565 H 2367.03 -0.473644 1.8555 0
M  V30 25566 H 2365.34 -2.99193 2.52964 0
M  V30 25567 H 2367.03 -2.79992 2.87064 0
M  V30 25568 H 2363.62 -1.79421 3.89238 0
M  V30 25569 H 2367.81 -1.36166 4.77255 0
M  V30 25570 H 2363.06 -0.786079 6.06326 0
M  V30 25571 H 2367.24 -0.361459 6.95461 0
M  V30 25572 H 2364.86 -0.0678643 7.6017 0
M  V30 25573 N 2366.44 -1.41713 -0.689577 0
M  V30 25574 C 2367.39 -1.44245 -1.82472 0
M  V30 25575 C 2368.38 -0.319803 -1.66354 0
M  V30 25576 O 2369.59 -0.492119 -1.73142 0
M  V30 25577 H 2365.96 -0.451455 -0.601409 0
M  V30 25578 H 2367.93 -2.39902 -1.77453 0
M  V30 25579 C 2366.68 -1.34736 -3.20533 0
M  V30 25580 H 2366 -2.20411 -3.33555 0
M  V30 25581 H 2367.44 -1.40569 -4.0002 0
M  V30 25582 C 2365.9 -0.0603873 -3.36846 0
M  V30 25583 O 2366.43 0.892594 -3.91658 0
M  V30 25584 N 2364.64 0.0176528 -2.90595 0
M  V30 25585 H 2364.19 -0.758615 -2.46176 0
M  V30 25586 H 2364.14 0.878148 -3.01887 0
M  V30 25587 N 2367.92 0.924431 -1.2764 0
M  V30 25588 C 2369.16 1.67495 -1.14339 0
M  V30 25589 C 2369.5 1.91719 0.309431 0
M  V30 25590 O 2368.77 1.50991 1.22605 0
M  V30 25591 C 2369.05 3.03947 -1.93102 0
M  V30 25592 C 2368.91 2.86943 -3.46386 0
M  V30 25593 C 2370.23 4.04327 -1.73805 0
M  V30 25594 H 2367.34 0.607864 -0.416738 0
M  V30 25595 H 2369.99 1.07253 -1.56834 0
M  V30 25596 H 2368.14 3.55369 -1.56988 0
M  V30 25597 H 2369.81 2.42614 -3.92347 0
M  V30 25598 H 2368.05 2.22219 -3.72561 0
M  V30 25599 H 2368.72 3.83797 -3.96742 0
M  V30 25600 H 2371.2 3.61927 -2.05299 0
M  V30 25601 H 2370.07 4.97785 -2.31303 0
M  V30 25602 H 2370.34 4.36733 -0.686802 0
M  V30 25603 N 2369.39 1.09715 1.13139 0
M  V30 25604 C 2370.36 0.742789 2.1683 0
M  V30 25605 C 2371.36 -0.229101 1.5916 0
M  V30 25606 O 2372.55 -0.00690175 1.74199 0
M  V30 25607 C 2369.68 0.0989767 3.40756 0
M  V30 25608 H 2370.87 1.66114 2.49692 0
M  V30 25609 H 2368.43 0.896721 1.28018 0
M  V30 25610 H 2369.16 -0.830459 3.13487 0
M  V30 25611 H 2368.95 0.798333 3.83887 0
M  V30 25612 H 2370.44 -0.13345 4.17387 0
M  V30 25613 N 2370.87 -1.30419 0.88479 0
M  V30 25614 C 2372.1 -2.00309 0.51808 0
M  V30 25615 C 2372.52 -1.66326 -0.893378 0
M  V30 25616 O 2371.87 -0.90029 -1.58748 0
M  V30 25617 C 2371.92 -3.54988 0.68306 0
M  V30 25618 O 2371.64 -3.87761 2.03895 0
M  V30 25619 C 2373.15 -4.42148 0.319317 0
M  V30 25620 H 2370.37 -0.640414 0.200277 0
M  V30 25621 H 2372.91 -1.66308 1.19004 0
M  V30 25622 H 2371.06 -3.87356 0.0584733 0
M  V30 25623 H 2371.48 -4.82462 2.05744 0
M  V30 25624 H 2372.95 -5.49859 0.485652 0
M  V30 25625 H 2373.43 -4.32876 -0.74264 0
M  V30 25626 H 2374.04 -4.15225 0.92022 0
M  V30 25627 N 2372.35 -0.645724 -1.43764 0
M  V30 25628 C 2373.26 0.0512544 -2.34544 0
M  V30 25629 C 2374.28 0.820193 -1.53456 0
M  V30 25630 O 2375.45 0.769143 -1.86135 0
M  V30 25631 C 2372.52 1.01081 -3.31638 0
M  V30 25632 C 2371.58 0.239637 -4.28631 0
M  V30 25633 C 2370.81 1.15349 -5.21086 0
M  V30 25634 O 2371.03 2.39259 -5.17794 0
M  V30 25635 O 2369.97 0.629932 -5.98595 0
M  V30 25636 H 2373.79 -0.69577 -2.95623 0
M  V30 25637 H 2371.38 -0.405908 -1.4378 0
M  V30 25638 H 2373.26 1.56247 -3.91363 0
M  V30 25639 H 2371.94 1.73819 -2.73072 0
M  V30 25640 H 2370.84 -0.355422 -3.72408 0
M  V30 25641 H 2372.18 -0.448023 -4.90157 0
M  V30 25642 N 2373.83 1.5277 -0.38717 0
M  V30 25643 C 2374.74 2.30118 0.456401 0
M  V30 25644 C 2375.75 1.36946 1.0734 0
M  V30 25645 O 2376.93 1.70015 1.07968 0
M  V30 25646 C 2374 3.09139 1.56952 0
M  V30 25647 C 2373.06 4.18015 0.977842 0
M  V30 25648 C 2372.29 4.93259 2.03791 0
M  V30 25649 O 2372.51 4.68573 3.25263 0
M  V30 25650 O 2371.45 5.7866 1.6564 0
M  V30 25651 H 2375.27 3.03203 -0.173643 0
M  V30 25652 H 2372.86 1.48636 -0.150945 0
M  V30 25653 H 2374.74 3.58416 2.21621 0
M  V30 25654 H 2373.41 2.38869 2.18456 0
M  V30 25655 H 2372.32 3.72939 0.29446 0
M  V30 25656 H 2373.65 4.90514 0.407042 0
M  V30 25657 N 2375.31 0.116931 1.57166 0
M  V30 25658 C 2376.53 -0.552675 1.99901 0
M  V30 25659 C 2376.96 -1.59562 0.996067 0
M  V30 25660 O 2376.31 -1.81271 -0.0325241 0
M  V30 25661 C 2376.36 -1.15736 3.41522 0
M  V30 25662 O 2375.47 -2.27292 3.4411 0
M  V30 25663 H 2374.81 -0.138246 0.649449 0
M  V30 25664 H 2377.34 0.204795 2.03572 0
M  V30 25665 H 2377.35 -1.49339 3.79686 0
M  V30 25666 H 2376.02 -0.393421 4.14035 0
M  V30 25667 H 2374.6 -1.95144 3.17763 0
M  V30 25668 N 2376.78 -1.56818 -0.156836 0
M  V30 25669 C 2378.01 -1.87319 -0.890298 0
M  V30 25670 C 2378.43 -0.704885 -1.74393 0
M  V30 25671 O 2377.79 0.345755 -1.77973 0
M  V30 25672 C 2377.84 -3.16339 -1.73096 0
M  V30 25673 O 2376.94 -2.99581 -2.83417 0
M  V30 25674 H 2376.29 -0.615723 -0.248559 0
M  V30 25675 H 2378.82 -2.04045 -0.150614 0
M  V30 25676 H 2378.83 -3.48111 -2.12797 0
M  V30 25677 H 2377.5 -4.00978 -1.10405 0
M  V30 25678 H 2376.08 -2.79194 -2.47194 0
M  V30 25679 N 2378.26 0.425871 -1.51737 0
M  V30 25680 C 2379.17 1.54272 -1.76741 0
M  V30 25681 C 2380.19 1.61317 -0.652138 0
M  V30 25682 O 2381.36 1.78345 -0.935686 0
M  V30 25683 C 2378.43 2.90159 -1.8976 0
M  V30 25684 C 2377.49 2.93137 -3.13638 0
M  V30 25685 C 2376.72 4.22542 -3.26027 0
M  V30 25686 O 2376.95 5.15541 -2.44076 0
M  V30 25687 O 2375.88 4.32038 -4.19078 0
M  V30 25688 H 2379.71 1.36084 -2.71505 0
M  V30 25689 H 2377.29 0.610045 -1.36377 0
M  V30 25690 H 2379.17 3.70784 -2.00242 0
M  V30 25691 H 2377.85 3.0845 -0.981839 0
M  V30 25692 H 2376.76 2.11425 -3.08626 0
M  V30 25693 H 2378.09 2.79792 -4.04941 0
M  V30 25694 N 2379.74 1.42077 0.682052 0
M  V30 25695 C 2381.15 1.37548 1.26243 0
M  V30 25696 C 2381.5 0.0651826 1.96092 0
M  V30 25697 O 2380.63 -0.836262 1.99589 0
M  V30 25698 C 2381.22 2.49147 2.29589 0
M  V30 25699 C 2379.78 2.47974 2.83171 0
M  V30 25700 C 2378.93 2.28305 1.57391 0
M  V30 25701 H 2381.88 1.51396 0.475911 0
M  V30 25702 H 2381.9 2.18982 3.11171 0
M  V30 25703 H 2381.41 3.44499 1.78723 0
M  V30 25704 H 2379.51 1.56419 3.38177 0
M  V30 25705 H 2379.63 3.44761 3.32681 0
M  V30 25706 H 2377.99 1.76431 1.83696 0
M  V30 25707 H 2378.77 3.25703 1.08501 0
M  V30 25708 N 2381.22 -0.917649 1.28129 0
M  V30 25709 C 2382.15 -2.03639 1.14251 0
M  V30 25710 C 2383.13 -1.7005 0.0413047 0
M  V30 25711 O 2384.32 -1.92977 0.217599 0
M  V30 25712 C 2381.45 -3.37973 0.799491 0
M  V30 25713 C 2380.4 -3.8571 1.85504 0
M  V30 25714 C 2379.73 -5.16964 1.36575 0
M  V30 25715 C 2381.03 -4.07997 3.26092 0
M  V30 25716 H 2382.72 -2.15508 2.07839 0
M  V30 25717 H 2380.27 -1.03551 1.00066 0
M  V30 25718 H 2382.22 -4.15726 0.689187 0
M  V30 25719 H 2380.94 -3.26146 -0.172088 0
M  V30 25720 H 2379.6 -3.10158 1.95442 0
M  V30 25721 H 2379.25 -5.01537 0.383341 0
M  V30 25722 H 2378.95 -5.49874 2.07153 0
M  V30 25723 H 2380.47 -5.97277 1.26859 0
M  V30 25724 H 2381.89 -4.76287 3.19098 0
M  V30 25725 H 2380.28 -4.52231 3.9447 0
M  V30 25726 H 2381.35 -3.12941 3.70399 0
M  V30 25727 N 2382.7 -1.10314 -1.12555 0
M  V30 25728 C 2383.95 -0.843123 -1.83673 0
M  V30 25729 C 2384.27 0.633099 -1.84437 0
M  V30 25730 O 2383.54 1.45962 -1.3066 0
M  V30 25731 H 2382.12 -0.308916 -0.680132 0
M  V30 25732 H 2384.78 -1.39315 -1.36299 0
M  V30 25733 H 2383.87 -1.20485 -2.87906 0
M  V30 25734 N 2384.18 1.29948 -0.891694 0
M  V30 25735 C 2385.09 2.317 -0.367732 0
M  V30 25736 C 2386.1 1.65621 0.533457 0
M  V30 25737 O 2387.28 1.96866 0.424963 0
M  V30 25738 C 2384.34 3.44346 0.403345 0
M  V30 25739 C 2383.4 4.26036 -0.528403 0
M  V30 25740 C 2382.64 5.33302 0.20597 0
M  V30 25741 O 2382.86 5.52156 1.43109 0
M  V30 25742 O 2381.79 6.00235 -0.447386 0
M  V30 25743 H 2385.62 2.78481 -1.21168 0
M  V30 25744 H 2383.2 1.3424 -0.655748 0
M  V30 25745 H 2385.09 4.1295 0.83968 0
M  V30 25746 H 2383.76 2.99687 1.22349 0
M  V30 25747 H 2382.67 3.60104 -1.01369 0
M  V30 25748 H 2384 4.74316 -1.31474 0
M  V30 25749 N 2385.65 0.653339 1.4342 0
M  V30 25750 C 2386.93 0.0966925 1.95361 0
M  V30 25751 C 2387.31 -1.38328 1.59463 0
M  V30 25752 O 2386.66 -2.10883 0.879815 0
M  V30 25753 C 2386.87 0.343049 3.4731 0
M  V30 25754 C 2388.22 0.248054 4.23875 0
M  V30 25755 O 2389.24 0.275615 3.55132 0
M  V30 25756 O 2388.1 0.171867 5.4623 0
M  V30 25757 H 2385.19 -0.00954838 0.826945 0
M  V30 25758 H 2387.74 0.726585 1.53359 0
M  V30 25759 H 2386.51 1.36912 3.66566 0
M  V30 25760 H 2386.13 -0.319905 3.96311 0
M  V30 25761 N 2387.13 -1.52563 0.395266 0
M  V30 25762 C 2388.41 -1.94086 -0.242873 0
M  V30 25763 C 2388.79 -1.33116 -1.63839 0
M  V30 25764 O 2388.14 -0.501568 -2.22927 0
M  V30 25765 C 2388.35 -3.48006 -0.263209 0
M  V30 25766 C 2389.69 -4.21772 -0.48928 0
M  V30 25767 O 2390.72 -3.54543 -0.343163 0
M  V30 25768 O 2389.58 -5.40961 -0.776074 0
M  V30 25769 H 2386.67 -0.812814 -0.152522 0
M  V30 25770 H 2389.22 -1.63619 0.450206 0
M  V30 25771 H 2387.99 -3.8473 0.714052 0
M  V30 25772 H 2387.61 -3.84794 -1.00096 0
M  V30 25773 N 2388.61 -0.125265 -1.57101 0
M  V30 25774 C 2389.86 0.531213 -1.95408 0
M  V30 25775 C 2390.18 1.66286 -1.00893 0
M  V30 25776 O 2389.44 1.95671 -0.0339775 0
M  V30 25777 C 2389.74 1.09856 -3.40098 0
M  V30 25778 C 2389.4 0.0876197 -4.50815 0
M  V30 25779 C 2388.07 -0.190345 -4.80823 0
M  V30 25780 C 2390.42 -0.600993 -5.17723 0
M  V30 25781 C 2387.75 -1.1631 -5.75056 0
M  V30 25782 C 2390.1 -1.56242 -6.13002 0
M  V30 25783 C 2388.76 -1.84831 -6.414 0
M  V30 25784 H 2388.03 0.194385 -0.715049 0
M  V30 25785 H 2390.68 -0.207497 -1.90373 0
M  V30 25786 H 2388.98 1.91416 -3.41858 0
M  V30 25787 H 2390.68 1.61471 -3.67053 0
M  V30 25788 H 2387.27 0.314453 -4.27445 0
M  V30 25789 H 2391.46 -0.39942 -4.9469 0
M  V30 25790 H 2386.71 -1.39127 -5.9536 0
M  V30 25791 H 2390.89 -2.10165 -6.63931 0
M  V30 25792 H 2388.51 -2.60361 -7.14224 0
M  V30 25793 N 2390.09 1.56899 0.148518 0
M  V30 25794 C 2391 2.01414 1.2029 0
M  V30 25795 C 2392.01 0.929299 1.47105 0
M  V30 25796 O 2393.19 1.23866 1.58805 0
M  V30 25797 C 2390.25 2.38452 2.51678 0
M  V30 25798 C 2389.32 3.60876 2.32523 0
M  V30 25799 C 2388.55 3.96138 3.57646 0
M  V30 25800 O 2388.77 3.32081 4.63765 0
M  V30 25801 O 2387.71 4.89391 3.50399 0
M  V30 25802 H 2391.53 2.91417 0.854974 0
M  V30 25803 H 2389.12 1.45069 0.357126 0
M  V30 25804 H 2391 2.63141 3.29143 0
M  V30 25805 H 2389.67 1.51604 2.86003 0
M  V30 25806 H 2388.58 3.41376 1.53013 0
M  V30 25807 H 2389.91 4.48337 2.03113 0
M  V30 25808 N 2391.57 -0.417818 1.51961 0
M  V30 25809 C 2392.5 -1.52913 1.6939 0
M  V30 25810 C 2393.48 -1.5332 0.541446 0
M  V30 25811 O 2394.66 -1.72158 0.767726 0
M  V30 25812 C 2391.79 -2.91464 1.7253 0
M  V30 25813 C 2390.83 -3.09003 2.93972 0
M  V30 25814 S 2391.67 -2.83234 4.54466 0
M  V30 25815 C 2392.82 -4.2403 4.6038 0
M  V30 25816 H 2393.06 -1.37899 2.63384 0
M  V30 25817 H 2390.59 -0.60882 1.4189 0
M  V30 25818 H 2392.55 -3.71317 1.75025 0
M  V30 25819 H 2391.21 -3.03826 0.796787 0
M  V30 25820 H 2390.4 -4.10348 2.92627 0
M  V30 25821 H 2390 -2.37002 2.8932 0
M  V30 25822 H 2392.29 -5.17536 4.37222 0
M  V30 25823 H 2393.24 -4.30402 5.62281 0
M  V30 25824 H 2393.65 -4.08596 3.89499 0
M  V30 25825 N 2393.04 -1.42436 -0.674508 0
M  V30 25826 C 2394.29 -1.42922 -1.43456 0
M  V30 25827 C 2394.62 -0.0457653 -1.94446 0
M  V30 25828 O 2393.87 0.9459 -1.71322 0
M  V30 25829 C 2394.17 -2.40074 -2.64763 0
M  V30 25830 C 2393.84 -3.86447 -2.32313 0
M  V30 25831 C 2392.5 -4.26318 -2.23174 0
M  V30 25832 C 2394.85 -4.78776 -2.05968 0
M  V30 25833 C 2392.18 -5.56497 -1.85817 0
M  V30 25834 C 2394.53 -6.09298 -1.70114 0
M  V30 25835 C 2393.2 -6.48167 -1.59486 0
M  V30 25836 H 2392.47 -0.522987 -0.524943 0
M  V30 25837 H 2395.11 -1.75379 -0.769066 0
M  V30 25838 H 2393.42 -2.00945 -3.36346 0
M  V30 25839 H 2395.12 -2.37713 -3.22945 0
M  V30 25840 H 2391.71 -3.54881 -2.40328 0
M  V30 25841 H 2395.89 -4.48761 -2.11961 0
M  V30 25842 H 2391.15 -5.85473 -1.76157 0
M  V30 25843 H 2395.32 -6.80327 -1.48755 0
M  V30 25844 H 2392.95 -7.48948 -1.30309 0
M  V30 25845 N 2394.52 0.910841 -1.28614 0
M  V30 25846 C 2395.75 1.69151 -1.18623 0
M  V30 25847 C 2396.16 1.87442 0.257291 0
M  V30 25848 O 2395.5 1.40334 1.18541 0
M  V30 25849 C 2395.56 3.10254 -1.81611 0
M  V30 25850 C 2395.23 3.15237 -3.30869 0
M  V30 25851 C 2396.23 2.96216 -4.27261 0
M  V30 25852 C 2393.91 3.37658 -3.71877 0
M  V30 25853 C 2395.9 2.99531 -5.62636 0
M  V30 25854 C 2393.59 3.40605 -5.07377 0
M  V30 25855 C 2394.59 3.21563 -6.02566 0
M  V30 25856 O 2394.28 3.24277 -7.35595 0
M  V30 25857 H 2394.01 0.535446 -0.412643 0
M  V30 25858 H 2396.56 1.14824 -1.70308 0
M  V30 25859 H 2394.79 3.66136 -1.24425 0
M  V30 25860 H 2396.48 3.70359 -1.66098 0
M  V30 25861 H 2397.25 2.78718 -3.96915 0
M  V30 25862 H 2393.13 3.51524 -2.98248 0
M  V30 25863 H 2396.67 2.84586 -6.36912 0
M  V30 25864 H 2392.57 3.57632 -5.37373 0
M  V30 25865 H 2393.34 3.40619 -7.44258 0
M  V30 25866 N 2396 1.10909 1.11969 0
M  V30 25867 C 2396.91 0.774935 2.21432 0
M  V30 25868 C 2397.93 -0.229627 1.72478 0
M  V30 25869 O 2399.1 -0.0671654 2.01288 0
M  V30 25870 C 2396.17 0.217047 3.4602 0
M  V30 25871 C 2395.23 1.27951 4.09789 0
M  V30 25872 C 2394.46 0.748148 5.2843 0
M  V30 25873 O 2394.68 -0.423733 5.68824 0
M  V30 25874 O 2393.62 1.51037 5.82642 0
M  V30 25875 H 2397.44 1.68877 2.52417 0
M  V30 25876 H 2395.03 0.884576 1.20398 0
M  V30 25877 H 2396.91 -0.089985 4.21304 0
M  V30 25878 H 2395.59 -0.669577 3.16699 0
M  V30 25879 H 2394.49 1.63947 3.36262 0
M  V30 25880 H 2395.83 2.13932 4.43276 0
M  V30 25881 N 2397.48 -1.29474 0.898573 0
M  V30 25882 C 2398.71 -1.99748 0.539296 0
M  V30 25883 C 2399.12 -1.67264 -0.875687 0
M  V30 25884 O 2398.48 -0.917077 -1.57784 0
M  V30 25885 C 2398.53 -3.54244 0.720673 0
M  V30 25886 O 2398.25 -3.85577 2.07996 0
M  V30 25887 C 2399.75 -4.41785 0.366195 0
M  V30 25888 H 2396.97 -0.638254 0.207058 0
M  V30 25889 H 2399.52 -1.65036 1.20761 0
M  V30 25890 H 2397.67 -3.87272 0.0995543 0
M  V30 25891 H 2398.08 -4.80253 2.10849 0
M  V30 25892 H 2399.56 -5.49313 0.543945 0
M  V30 25893 H 2400.04 -4.33639 -0.696686 0
M  V30 25894 H 2400.64 -4.14226 0.964208 0
M  V30 25895 N 2398.96 -0.660936 -1.43071 0
M  V30 25896 C 2400.2 -0.186372 -2.02544 0
M  V30 25897 C 2400.56 1.1891 -1.51255 0
M  V30 25898 O 2399.85 1.78387 -0.699199 0
M  V30 25899 C 2400.04 -0.145626 -3.57103 0
M  V30 25900 C 2399.87 -1.51561 -4.2339 0
M  V30 25901 C 2398.64 -2.10993 -4.59141 0
M  V30 25902 C 2400.84 -2.45556 -4.51893 0
M  V30 25903 N 2398.82 -3.40916 -5.10539 0
M  V30 25904 C 2400.19 -3.60119 -5.04692 0
M  V30 25905 C 2402.25 -2.44261 -4.33868 0
M  V30 25906 C 2400.95 -4.73623 -5.41363 0
M  V30 25907 C 2402.98 -3.5685 -4.71605 0
M  V30 25908 C 2402.34 -4.7014 -5.24545 0
M  V30 25909 H 2398.44 -0.112805 -0.773821 0
M  V30 25910 H 2401.02 -0.870916 -1.74135 0
M  V30 25911 H 2399.19 0.508285 -3.8506 0
M  V30 25912 H 2400.93 0.340527 -4.03265 0
M  V30 25913 H 2397.68 -1.63622 -4.44437 0
M  V30 25914 H 2398.11 -4.07421 -5.40682 0
M  V30 25915 H 2402.75 -1.57907 -3.92206 0
M  V30 25916 H 2400.47 -5.60663 -5.81965 0
M  V30 25917 H 2404.05 -3.57059 -4.59347 0
M  V30 25918 H 2402.93 -5.5582 -5.53203 0
M  V30 25919 N 2400.43 1.52351 -0.403352 0
M  V30 25920 C 2401.34 2.30589 0.431969 0
M  V30 25921 C 2402.36 1.38077 1.05881 0
M  V30 25922 O 2403.54 1.7115 1.06158 0
M  V30 25923 C 2400.6 3.10787 1.53664 0
M  V30 25924 C 2399.66 4.19029 0.933451 0
M  V30 25925 C 2398.9 4.95393 1.98548 0
M  V30 25926 O 2399.12 4.71996 3.20274 0
M  V30 25927 O 2398.05 5.80384 1.59493 0
M  V30 25928 H 2401.88 3.03002 -0.205792 0
M  V30 25929 H 2399.46 1.48467 -0.166702 0
M  V30 25930 H 2401.35 3.60746 2.17808 0
M  V30 25931 H 2400.02 2.41173 2.15911 0
M  V30 25932 H 2398.93 3.73231 0.254888 0
M  V30 25933 H 2400.26 4.90918 0.354993 0
M  V30 25934 N 2401.91 0.133594 1.57033 0
M  V30 25935 C 2402.86 -0.81117 2.16076 0
M  V30 25936 C 2403.83 -1.25348 1.08982 0
M  V30 25937 O 2405.01 -1.3284 1.3696 0
M  V30 25938 C 2402.15 -2.05019 2.77599 0
M  V30 25939 C 2401.27 -1.65491 3.99045 0
M  V30 25940 C 2400.4 -2.84471 4.48608 0
M  V30 25941 C 2399.44 -2.41252 5.62551 0
M  V30 25942 N 2398.58 -3.53195 6.06793 0
M  V30 25943 H 2403.42 -0.300854 2.96477 0
M  V30 25944 H 2400.96 -0.136796 1.46463 0
M  V30 25945 H 2402.91 -2.77636 3.11406 0
M  V30 25946 H 2401.54 -2.53485 1.99863 0
M  V30 25947 H 2400.6 -0.826916 3.71303 0
M  V30 25948 H 2401.91 -1.2974 4.81632 0
M  V30 25949 H 2401.06 -3.65295 4.84401 0
M  V30 25950 H 2399.8 -3.23459 3.65001 0
M  V30 25951 H 2398.81 -1.58865 5.26348 0
M  V30 25952 H 2400.03 -2.03366 6.47935 0
M  V30 25953 H 2397.98 -3.91829 5.26124 0
M  V30 25954 H 2397.89 -3.21415 6.84272 0
M  V30 25955 H 2399.16 -4.34415 6.47228 0
M  V30 25956 N 2403.39 -1.56975 -0.140195 0
M  V30 25957 C 2404.64 -1.8372 -0.851655 0
M  V30 25958 C 2404.97 -0.715516 -1.80861 0
M  V30 25959 O 2404.22 0.294922 -1.93465 0
M  V30 25960 C 2404.52 -3.16835 -1.6538 0
M  V30 25961 C 2404.19 -4.42949 -0.843034 0
M  V30 25962 C 2402.85 -4.77197 -0.61938 0
M  V30 25963 C 2405.2 -5.20466 -0.276491 0
M  V30 25964 C 2402.53 -5.86419 0.181415 0
M  V30 25965 C 2404.88 -6.3053 0.51138 0
M  V30 25966 C 2403.54 -6.63323 0.745548 0
M  V30 25967 H 2402.81 -0.67228 -0.311643 0
M  V30 25968 H 2405.46 -1.91155 -0.114972 0
M  V30 25969 H 2403.77 -3.04881 -2.46079 0
M  V30 25970 H 2405.46 -3.34744 -2.20788 0
M  V30 25971 H 2402.05 -4.16103 -1.02742 0
M  V30 25972 H 2406.24 -4.94376 -0.436545 0
M  V30 25973 H 2401.49 -6.10266 0.372272 0
M  V30 25974 H 2405.67 -6.89786 0.957475 0
M  V30 25975 H 2403.29 -7.47792 1.36791 0
M  V30 25976 N 2404.87 0.409753 -1.5218 0
M  V30 25977 C 2406.15 1.16971 -1.56771 0
M  V30 25978 C 2406.53 2.08206 -0.348358 0
M  V30 25979 O 2405.87 2.18615 0.664824 0
M  V30 25980 C 2406.08 1.94755 -2.89606 0
M  V30 25981 C 2407.43 2.50843 -3.42583 0
M  V30 25982 O 2408.46 2.04935 -2.91342 0
M  V30 25983 O 2407.31 3.34644 -4.3206 0
M  V30 25984 H 2404.41 0.534043 -0.631448 0
M  V30 25985 H 2406.95 0.416584 -1.64507 0
M  V30 25986 H 2405.73 1.27914 -3.69802 0
M  V30 25987 H 2405.35 2.77074 -2.8516 0
M  V30 25988 N 2406.35 1.42792 0.666944 0
M  V30 25989 C 2407.76 1.3888 1.24777 0
M  V30 25990 C 2408.11 0.0859771 1.96012 0
M  V30 25991 O 2407.23 -0.815046 2.00464 0
M  V30 25992 C 2407.83 2.51568 2.26934 0
M  V30 25993 C 2406.39 2.50963 2.80525 0
M  V30 25994 C 2405.53 2.29962 1.54961 0
M  V30 25995 H 2408.49 1.51892 0.459826 0
M  V30 25996 H 2408.51 2.2227 3.08831 0
M  V30 25997 H 2408.02 3.46375 1.75059 0
M  V30 25998 H 2406.12 1.59997 3.36499 0
M  V30 25999 H 2406.23 3.4827 3.29005 0
M  V30 26000 H 2404.6 1.7837 1.81814 0
M  V30 26001 H 2405.38 3.26835 1.05041 0
M  V30 26002 N 2407.82 -0.904008 1.29095 0
M  V30 26003 C 2409.1 -1.63409 1.07503 0
M  V30 26004 C 2409.48 -2.07609 -0.38231 0
M  V30 26005 O 2408.83 -1.82854 -1.37028 0
M  V30 26006 C 2409.04 -2.81818 2.05863 0
M  V30 26007 C 2410.39 -3.52607 2.36545 0
M  V30 26008 O 2411.41 -2.91981 2.04024 0
M  V30 26009 O 2410.27 -4.61892 2.92093 0
M  V30 26010 H 2407.36 -0.71732 0.41156 0
M  V30 26011 H 2409.91 -0.952455 1.40451 0
M  V30 26012 H 2408.68 -2.46322 3.04041 0
M  V30 26013 H 2408.31 -3.5769 1.73619 0
M  V30 26014 N 2409.3 -1.11501 -1.11379 0
M  V30 26015 C 2410.27 -0.777191 -2.15621 0
M  V30 26016 C 2411.27 0.203751 -1.59504 0
M  V30 26017 O 2412.46 -0.0208126 -1.74188 0
M  V30 26018 C 2409.59 -0.153176 -3.40556 0
M  V30 26019 H 2410.78 -1.70065 -2.47018 0
M  V30 26020 H 2408.33 -0.916974 -1.26575 0
M  V30 26021 H 2409.07 0.780481 -3.14768 0
M  V30 26022 H 2408.85 -0.859305 -3.82568 0
M  V30 26023 H 2410.34 0.067031 -4.17546 0
M  V30 26024 N 2410.78 1.28995 -0.905426 0
M  V30 26025 C 2412.01 1.99459 -0.549881 0
M  V30 26026 C 2412.42 1.67726 0.866804 0
M  V30 26027 O 2411.78 0.925432 1.57296 0
M  V30 26028 C 2411.83 3.53856 -0.739449 0
M  V30 26029 O 2411.55 3.84468 -2.10038 0
M  V30 26030 C 2413.05 4.41584 -0.389619 0
M  V30 26031 H 2410.27 0.637147 -0.21044 0
M  V30 26032 H 2412.82 1.64394 -1.21635 0
M  V30 26033 H 2410.97 3.87214 -0.120091 0
M  V30 26034 H 2411.39 4.79128 -2.13393 0
M  V30 26035 H 2412.86 5.49017 -0.573068 0
M  V30 26036 H 2413.34 4.34003 0.67368 0
M  V30 26037 H 2413.94 4.13709 -0.986162 0
M  V30 26038 N 2412.26 0.668514 1.42719 0
M  V30 26039 C 2413.19 -0.0525728 2.2914 0
M  V30 26040 C 2414.2 -0.771832 1.43341 0
M  V30 26041 O 2415.39 -0.627038 1.67124 0
M  V30 26042 C 2412.49 -1.09799 3.2062 0
M  V30 26043 C 2411.67 -0.453813 4.35039 0
M  V30 26044 C 2410.73 -1.39816 5.07285 0
M  V30 26045 O 2409.75 -0.90088 5.62026 0
M  V30 26046 N 2410.95 -2.73167 5.12211 0
M  V30 26047 H 2413.72 0.68926 2.91666 0
M  V30 26048 H 2411.28 0.512449 1.53576 0
M  V30 26049 H 2413.27 -1.73088 3.65818 0
M  V30 26050 H 2411.84 -1.74162 2.59589 0
M  V30 26051 H 2411.06 0.358465 3.92567 0
M  V30 26052 H 2412.35 -0.00478028 5.088 0
M  V30 26053 H 2411.75 -3.16114 4.69136 0
M  V30 26054 H 2410.3 -3.3172 5.61075 0
M  V30 26055 N 2413.74 -1.52135 0.411426 0
M  V30 26056 C 2414.98 -2.01838 -0.16361 0
M  V30 26057 C 2415.31 -1.29694 -1.44948 0
M  V30 26058 O 2414.57 -0.392465 -1.91724 0
M  V30 26059 C 2414.87 -3.54482 -0.45581 0
M  V30 26060 C 2414.53 -4.44767 0.741133 0
M  V30 26061 C 2413.19 -4.69166 1.06944 0
M  V30 26062 C 2415.55 -4.97903 1.54083 0
M  V30 26063 C 2412.87 -5.43947 2.1986 0
M  V30 26064 C 2415.23 -5.73921 2.66077 0
M  V30 26065 C 2413.89 -5.96591 2.99392 0
M  V30 26066 H 2413.16 -0.738577 -0.0598691 0
M  V30 26067 H 2415.81 -1.83332 0.553315 0
M  V30 26068 H 2414.11 -3.71179 -1.25433 0
M  V30 26069 H 2415.81 -3.90451 -0.913734 0
M  V30 26070 H 2412.4 -4.25957 0.475267 0
M  V30 26071 H 2416.58 -4.7896 1.30042 0
M  V30 26072 H 2411.84 -5.5972 2.46016 0
M  V30 26073 H 2416.01 -6.1409 3.2843 0
M  V30 26074 H 2413.64 -6.54318 3.87003 0
M  V30 26075 N 2415.22 -0.14192 -1.5696 0
M  V30 26076 C 2416.46 0.510393 -1.95136 0
M  V30 26077 C 2416.78 1.66347 -1.02899 0
M  V30 26078 O 2417.98 2.38007 -1.30633 0
M  V30 26079 C 2416.44 0.959366 -3.46878 0
M  V30 26080 C 2416.05 -0.166497 -4.47691 0
M  V30 26081 C 2417.79 1.58176 -3.9393 0
M  V30 26082 C 2415.7 0.300461 -5.90636 0
M  V30 26083 H 2414.63 0.194441 -0.728498 0
M  V30 26084 H 2417.28 -0.225452 -1.8211 0
M  V30 26085 H 2415.66 1.75032 -3.55218 0
M  V30 26086 H 2416.84 -0.943329 -4.51041 0
M  V30 26087 H 2415.15 -0.696977 -4.10526 0
M  V30 26088 H 2417.75 1.94266 -4.98161 0
M  V30 26089 H 2418.09 2.46882 -3.35194 0
M  V30 26090 H 2418.62 0.855795 -3.88486 0
M  V30 26091 H 2415.36 -0.551104 -6.53179 0
M  V30 26092 H 2414.88 1.04328 -5.90657 0
M  V30 26093 H 2416.56 0.754152 -6.4259 0
M  V30 26094 N 2416.69 1.57047 0.131868 0
M  V30 26095 C 2417.66 1.98473 1.14634 0
M  V30 26096 C 2418.66 0.873171 1.35027 0
M  V30 26097 O 2419.85 1.13949 1.31762 0
M  V30 26098 C 2416.98 2.31378 2.50354 0
M  V30 26099 H 2418.17 2.89292 0.790589 0
M  V30 26100 H 2415.72 1.51717 0.375734 0
M  V30 26101 H 2416.46 1.43398 2.90873 0
M  V30 26102 H 2416.24 3.12436 2.3691 0
M  V30 26103 H 2417.73 2.64213 3.23391 0
M  V30 26104 N 2418.17 -0.401677 1.52395 0
M  V30 26105 C 2419.4 -1.16777 1.70431 0
M  V30 26106 C 2419.81 -1.84553 0.416734 0
M  V30 26107 O 2419.15 -1.73005 -0.617666 0
M  V30 26108 C 2419.21 -2.26809 2.78923 0
M  V30 26109 C 2418.88 -1.79106 4.2044 0
M  V30 26110 C 2419.88 -1.27474 5.0403 0
M  V30 26111 C 2417.56 -1.85713 4.66707 0
M  V30 26112 C 2419.55 -0.830802 6.31962 0
M  V30 26113 C 2417.24 -1.40932 5.94627 0
M  V30 26114 C 2418.24 -0.897009 6.77084 0
M  V30 26115 O 2417.93 -0.455681 8.02607 0
M  V30 26116 H 2417.66 -0.356624 0.574278 0
M  V30 26117 H 2420.21 -0.477689 1.99768 0
M  V30 26118 H 2418.44 -2.99203 2.44979 0
M  V30 26119 H 2420.13 -2.88536 2.85485 0
M  V30 26120 H 2420.9 -1.21735 4.69474 0
M  V30 26121 H 2416.78 -2.24532 4.02624 0
M  V30 26122 H 2420.32 -0.430245 6.96272 0
M  V30 26123 H 2416.22 -1.46351 6.2869 0
M  V30 26124 H 2416.99 -0.578314 8.16454 0
M  V30 26125 N 2419.65 -1.43144 -0.659362 0
M  V30 26126 C 2420.87 -1.48075 -1.45219 0
M  V30 26127 C 2421.3 -0.098028 -1.87844 0
M  V30 26128 O 2420.66 0.906913 -1.56987 0
M  V30 26129 C 2420.71 -2.42652 -2.66744 0
M  V30 26130 O 2419.81 -1.90854 -3.6558 0
M  V30 26131 H 2419.15 -0.501095 -0.43566 0
M  V30 26132 H 2421.68 -1.87995 -0.807399 0
M  V30 26133 H 2421.69 -2.59751 -3.14632 0
M  V30 26134 H 2420.37 -3.43103 -2.35061 0
M  V30 26135 H 2418.94 -1.83387 -3.2469 0
M  V30 26136 N 2421.13 0.897149 -1.29572 0
M  V30 26137 C 2422.54 1.17839 -1.07639 0
M  V30 26138 C 2422.74 2.00776 0.170678 0
M  V30 26139 O 2421.8 2.37122 0.867727 0
M  V30 26140 C 2423.11 1.89686 -2.33323 0
M  V30 26141 C 2424.66 2.02501 -2.38668 0
M  V30 26142 C 2425.14 2.77759 -3.64162 0
M  V30 26143 N 2426.63 2.85312 -3.64899 0
M  V30 26144 C 2427.36 3.44086 -4.58685 0
M  V30 26145 N 2426.86 4.04007 -5.62806 0
M  V30 26146 N 2428.65 3.41785 -4.46251 0
M  V30 26147 H 2420.8 0.343846 -2.09598 0
M  V30 26148 H 2423.06 0.214832 -0.923337 0
M  V30 26149 H 2422.77 1.36181 -3.24265 0
M  V30 26150 H 2422.64 2.90145 -2.4103 0
M  V30 26151 H 2425.03 2.5518 -1.48213 0
M  V30 26152 H 2425.11 1.01166 -2.34945 0
M  V30 26153 H 2424.76 2.25755 -4.54969 0
M  V30 26154 H 2424.69 3.79444 -3.65144 0
M  V30 26155 H 2427.18 2.42756 -2.89617 0
M  V30 26156 H 2427.49 4.46884 -6.30488 0
M  V30 26157 H 2425.84 4.02462 -5.66612 0
M  V30 26158 H 2429.03 2.94193 -3.64099 0
M  V30 26159 H 2429.2 3.87295 -5.19525 0
M  V30 26160 N 2422.61 1.1209 1.10786 0
M  V30 26161 C 2423.54 0.807793 2.19082 0
M  V30 26162 C 2424.52 -0.226829 1.68581 0
M  V30 26163 O 2425.7 -0.0888134 1.93997 0
M  V30 26164 C 2422.83 0.257637 3.46343 0
M  V30 26165 C 2421.79 1.22491 4.10098 0
M  V30 26166 C 2421.11 0.535145 5.32015 0
M  V30 26167 C 2422.41 2.57819 4.54232 0
M  V30 26168 H 2424.11 1.71333 2.45531 0
M  V30 26169 H 2421.65 0.825225 1.18009 0
M  V30 26170 H 2423.6 0.0263419 4.21392 0
M  V30 26171 H 2422.33 -0.683222 3.19374 0
M  V30 26172 H 2420.99 1.44195 3.37051 0
M  V30 26173 H 2420.64 -0.410739 5.0132 0
M  V30 26174 H 2420.34 1.18034 5.75623 0
M  V30 26175 H 2421.86 0.312802 6.09798 0
M  V30 26176 H 2423.27 2.40164 5.20571 0
M  V30 26177 H 2421.67 3.18384 5.08676 0
M  V30 26178 H 2422.74 3.16534 3.67334 0
M  V30 26179 N 2424.08 -1.28513 0.912254 0
M  V30 26180 C 2425.31 -1.99702 0.559809 0
M  V30 26181 C 2425.73 -1.6773 -0.851364 0
M  V30 26182 O 2425.09 -0.908862 -1.56874 0
M  V30 26183 C 2425.14 -3.52197 0.773936 0
M  V30 26184 O 2424.24 -4.12059 -0.16777 0
M  V30 26185 H 2423.58 -0.627457 0.217241 0
M  V30 26186 H 2426.11 -1.63704 1.22728 0
M  V30 26187 H 2426.12 -4.02235 0.683457 0
M  V30 26188 H 2424.8 -3.74802 1.80268 0
M  V30 26189 H 2423.38 -3.72889 -0.0286853 0
M  V30 26190 N 2425.56 -0.676073 -1.42362 0
M  V30 26191 C 2426.84 -0.12776 -1.95182 0
M  V30 26192 C 2427.22 1.35774 -1.61643 0
M  V30 26193 O 2426.57 2.09456 -0.913253 0
M  V30 26194 C 2426.78 -0.39826 -3.4672 0
M  V30 26195 C 2428.13 -0.315458 -4.23427 0
M  V30 26196 O 2429.15 -0.332079 -3.54649 0
M  V30 26197 O 2428.01 -0.258746 -5.45887 0
M  V30 26198 H 2425.1 -0.00360881 -0.826992 0
M  V30 26199 H 2427.65 -0.750891 -1.52183 0
M  V30 26200 H 2426.42 -1.42726 -3.64342 0
M  V30 26201 H 2426.04 0.256815 -3.9677 0
M  V30 26202 N 2427.04 1.51915 -0.419488 0
M  V30 26203 C 2428.29 2.01922 0.152904 0
M  V30 26204 C 2428.62 1.3046 1.44258 0
M  V30 26205 O 2427.87 0.402627 1.91513 0
M  V30 26206 C 2428.17 3.54718 0.437004 0
M  V30 26207 C 2427.84 4.44368 -0.76471 0
M  V30 26208 C 2426.5 4.68592 -1.09431 0
M  V30 26209 C 2428.85 4.97079 -1.56722 0
M  V30 26210 C 2426.18 5.42773 -2.22742 0
M  V30 26211 C 2428.53 5.72502 -2.69117 0
M  V30 26212 C 2427.19 5.94995 -3.02552 0
M  V30 26213 H 2426.46 0.738885 0.0559514 0
M  V30 26214 H 2429.11 1.83036 -0.56303 0
M  V30 26215 H 2427.42 3.71839 1.23463 0
M  V30 26216 H 2429.11 3.9093 0.893014 0
M  V30 26217 H 2425.7 4.25699 -0.49785 0
M  V30 26218 H 2429.89 4.78264 -1.3258 0
M  V30 26219 H 2425.14 5.58407 -2.48981 0
M  V30 26220 H 2429.32 6.1234 -3.31682 0
M  V30 26221 H 2426.94 6.52257 -3.90468 0
M  V30 26222 N 2428.52 0.150242 1.56882 0
M  V30 26223 C 2429.76 -0.500799 1.96519 0
M  V30 26224 C 2430.1 -1.64302 1.0353 0
M  V30 26225 O 2429.37 -1.94342 0.0783093 0
M  V30 26226 C 2429.66 -1.00389 3.45824 0
M  V30 26227 C 2429.51 0.137062 4.49591 0
M  V30 26228 C 2430.83 -1.8846 3.97707 0
M  V30 26229 H 2427.95 -0.180568 0.714538 0
M  V30 26230 H 2430.59 0.232124 1.88577 0
M  V30 26231 H 2428.74 -1.62845 3.52723 0
M  V30 26232 H 2430.41 0.77351 4.54769 0
M  V30 26233 H 2428.65 0.795727 4.26439 0
M  V30 26234 H 2429.32 -0.256718 5.51403 0
M  V30 26235 H 2431.8 -1.35827 3.93307 0
M  V30 26236 H 2430.68 -2.20569 5.02634 0
M  V30 26237 H 2430.94 -2.82273 3.40257 0
M  V30 26238 N 2430 -1.57115 -0.123538 0
M  V30 26239 C 2431.27 -1.75574 -0.862165 0
M  V30 26240 C 2431.65 -0.72451 -1.98278 0
M  V30 26241 O 2431 0.252367 -2.27102 0
M  V30 26242 C 2431.21 -3.20426 -1.38304 0
M  V30 26243 C 2432.56 -3.82796 -1.83717 0
M  V30 26244 O 2433.58 -3.24001 -1.47993 0
M  V30 26245 O 2432.44 -4.86132 -2.49677 0
M  V30 26246 H 2429.54 -0.718725 -0.409101 0
M  V30 26247 H 2432.08 -1.69358 -0.107632 0
M  V30 26248 H 2430.85 -3.86995 -0.578821 0
M  V30 26249 H 2430.48 -3.31161 -2.20041 0
M  V30 26250 N 2431.47 0.393589 -1.52606 0
M  V30 26251 C 2432.7 1.1604 -1.71296 0
M  V30 26252 C 2433.12 1.83855 -0.429292 0
M  V30 26253 O 2432.47 1.72498 0.595891 0
M  V30 26254 C 2432.53 2.21188 -2.85934 0
M  V30 26255 O 2432.25 1.56138 -4.09332 0
M  V30 26256 C 2433.75 3.10631 -3.16265 0
M  V30 26257 H 2430.97 0.348094 -0.573647 0
M  V30 26258 H 2433.51 0.461057 -1.99235 0
M  V30 26259 H 2431.67 2.86765 -2.6047 0
M  V30 26260 H 2432.08 2.2597 -4.73326 0
M  V30 26261 H 2433.55 3.80449 -3.99953 0
M  V30 26262 H 2434.03 3.7388 -2.30457 0
M  V30 26263 H 2434.64 2.50704 -3.43551 0
M  V30 26264 N 2432.95 1.43492 0.651762 0
M  V30 26265 C 2433.88 1.51572 1.77618 0
M  V30 26266 C 2434.86 0.370282 1.66021 0
M  V30 26267 O 2436.05 0.587691 1.85094 0
M  V30 26268 C 2433.18 1.43971 3.16053 0
M  V30 26269 C 2432.13 2.5678 3.42415 0
M  V30 26270 C 2431.46 2.34232 4.80666 0
M  V30 26271 C 2432.76 3.99021 3.37016 0
M  V30 26272 H 2434.45 2.45684 1.71113 0
M  V30 26273 H 2432 1.18247 0.821804 0
M  V30 26274 H 2433.95 1.48228 3.9447 0
M  V30 26275 H 2432.68 0.463643 3.23292 0
M  V30 26276 H 2431.33 2.51878 2.6637 0
M  V30 26277 H 2430.98 1.34865 4.84583 0
M  V30 26278 H 2430.68 3.09852 4.99265 0
M  V30 26279 H 2432.21 2.40275 5.61338 0
M  V30 26280 H 2433.62 4.05402 4.05367 0
M  V30 26281 H 2432.02 4.74679 3.67151 0
M  V30 26282 H 2433.09 4.24054 2.35173 0
M  V30 26283 N 2434.43 -0.890264 1.30046 0
M  V30 26284 C 2435.36 -2.00089 1.1179 0
M  V30 26285 C 2436.38 -1.62679 0.0626593 0
M  V30 26286 O 2437.56 -1.7582 0.308143 0
M  V30 26287 C 2434.66 -3.31975 0.681585 0
M  V30 26288 C 2433.84 -3.97855 1.81742 0
M  V30 26289 C 2432.9 -5.08038 1.37054 0
M  V30 26290 O 2431.92 -5.29957 2.07687 0
M  V30 26291 N 2433.12 -5.79976 0.246627 0
M  V30 26292 H 2435.89 -2.16302 2.07445 0
M  V30 26293 H 2433.45 -1.06303 1.22112 0
M  V30 26294 H 2435.44 -4.03044 0.365746 0
M  V30 26295 H 2434.01 -3.12065 -0.182773 0
M  V30 26296 H 2433.23 -3.20028 2.30165 0
M  V30 26297 H 2434.52 -4.3861 2.57873 0
M  V30 26298 H 2433.92 -5.64665 -0.342051 0
M  V30 26299 H 2432.48 -6.51799 -0.00978981 0
M  V30 26300 N 2435.91 -1.12676 -1.1019 0
M  V30 26301 C 2436.82 -0.810065 -2.20171 0
M  V30 26302 C 2437.83 0.202158 -1.72822 0
M  V30 26303 O 2439.01 0.0351337 -2.01369 0
M  V30 26304 C 2436.08 -0.272068 -3.45631 0
M  V30 26305 C 2435.14 -1.34454 -4.07702 0
M  V30 26306 C 2434.37 -0.832122 -5.27173 0
M  V30 26307 O 2434.59 0.333184 -5.69426 0
M  V30 26308 O 2433.53 -1.60287 -5.80165 0
M  V30 26309 H 2437.35 -1.72871 -2.49698 0
M  V30 26310 H 2434.94 -0.903618 -1.18975 0
M  V30 26311 H 2436.82 0.0229478 -4.21394 0
M  V30 26312 H 2435.49 0.619108 -3.17724 0
M  V30 26313 H 2434.4 -1.69276 -3.33611 0
M  V30 26314 H 2435.73 -2.20958 -4.39817 0
M  V30 26315 N 2437.39 1.28028 -0.919057 0
M  V30 26316 C 2438.8 1.7677 -0.600766 0
M  V30 26317 C 2439.15 1.75157 0.883993 0
M  V30 26318 O 2438.27 1.34958 1.6916 0
M  V30 26319 C 2438.87 3.20998 -1.08378 0
M  V30 26320 C 2437.43 3.67442 -0.816312 0
M  V30 26321 C 2436.57 2.47656 -1.24747 0
M  V30 26322 H 2439.53 1.14416 -1.09976 0
M  V30 26323 H 2439.55 3.7809 -0.427579 0
M  V30 26324 H 2439.06 3.2214 -2.16443 0
M  V30 26325 H 2437.16 3.71754 0.250903 0
M  V30 26326 H 2437.27 4.57331 -1.42778 0
M  V30 26327 H 2435.64 2.45835 -0.666126 0
M  V30 26328 H 2436.42 2.51514 -2.33657 0
M  V30 26329 N 2438.86 0.683613 1.42002 0
M  V30 26330 C 2439.79 0.024907 2.33487 0
M  V30 26331 C 2440.78 -0.779948 1.51165 0
M  V30 26332 O 2441.96 -0.735331 1.7974 0
M  V30 26333 C 2439.09 -0.920777 3.34872 0
M  V30 26334 C 2438.04 -0.223883 4.27414 0
M  V30 26335 C 2437.37 -1.28311 5.19076 0
M  V30 26336 C 2438.67 0.90251 5.14443 0
M  V30 26337 H 2440.36 0.788972 2.88818 0
M  V30 26338 H 2437.91 0.380854 1.38872 0
M  V30 26339 H 2439.86 -1.39074 3.97789 0
M  V30 26340 H 2438.59 -1.71637 2.77864 0
M  V30 26341 H 2437.25 0.225928 3.65903 0
M  V30 26342 H 2436.89 -2.07092 4.58391 0
M  V30 26343 H 2436.59 -0.821893 5.81824 0
M  V30 26344 H 2438.12 -1.75382 5.8487 0
M  V30 26345 H 2439.53 0.513372 5.70997 0
M  V30 26346 H 2437.93 1.29007 5.86069 0
M  V30 26347 H 2439 1.74745 4.52319 0
M  V30 26348 N 2440.34 -1.5169 0.427538 0
M  V30 26349 C 2441.76 -1.59403 0.0793258 0
M  V30 26350 C 2441.96 -1.43917 -1.41033 0
M  V30 26351 O 2441.02 -1.27543 -2.1792 0
M  V30 26352 C 2442.33 -2.94841 0.590688 0
M  V30 26353 C 2443.88 -3.08125 0.550269 0
M  V30 26354 C 2444.35 -4.46072 1.03844 0
M  V30 26355 N 2445.84 -4.52364 0.996023 0
M  V30 26356 C 2446.58 -5.57409 1.34473 0
M  V30 26357 N 2446.07 -6.69919 1.76581 0
M  V30 26358 N 2447.87 -5.47715 1.26352 0
M  V30 26359 H 2440.02 -1.60002 1.39689 0
M  V30 26360 H 2442.28 -0.753698 0.575016 0
M  V30 26361 H 2441.99 -3.11513 1.63257 0
M  V30 26362 H 2441.86 -3.77199 0.0102724 0
M  V30 26363 H 2444.25 -2.91127 -0.482603 0
M  V30 26364 H 2444.33 -2.2763 1.16697 0
M  V30 26365 H 2443.97 -4.63815 2.06973 0
M  V30 26366 H 2443.9 -5.25091 0.398378 0
M  V30 26367 H 2446.39 -3.71609 0.686675 0
M  V30 26368 H 2446.71 -7.46081 2.01451 0
M  V30 26369 H 2445.05 -6.71152 1.80499 0
M  V30 26370 H 2448.24 -4.58702 0.933289 0
M  V30 26371 H 2448.42 -6.2947 1.53857 0
M  V30 26372 N 2441.82 -0.15856 -1.568 0
M  V30 26373 C 2443.07 0.489667 -1.95666 0
M  V30 26374 C 2443.38 1.65246 -1.04657 0
M  V30 26375 O 2444.59 2.36608 -1.3315 0
M  V30 26376 C 2443.05 0.922521 -3.47876 0
M  V30 26377 C 2442.65 -0.213971 -4.47489 0
M  V30 26378 C 2444.4 1.53989 -3.95585 0
M  V30 26379 C 2442.3 0.237799 -5.90922 0
M  V30 26380 H 2441.23 0.186704 -0.730519 0
M  V30 26381 H 2443.89 -0.244754 -1.8186 0
M  V30 26382 H 2442.27 1.71255 -3.57054 0
M  V30 26383 H 2443.44 -0.991115 -4.50015 0
M  V30 26384 H 2441.76 -0.740479 -4.09763 0
M  V30 26385 H 2444.35 1.88972 -5.00194 0
M  V30 26386 H 2444.7 2.43313 -3.37794 0
M  V30 26387 H 2445.23 0.814542 -3.89371 0
M  V30 26388 H 2441.97 -0.620351 -6.52558 0
M  V30 26389 H 2441.49 0.980572 -5.9173 0
M  V30 26390 H 2443.17 0.685954 -6.43353 0
M  V30 26391 N 2443.3 1.57178 0.115204 0
M  V30 26392 C 2444.26 1.99678 1.12523 0
M  V30 26393 C 2445.26 0.887444 1.34094 0
M  V30 26394 O 2446.45 1.1534 1.30546 0
M  V30 26395 C 2443.58 2.3402 2.47886 0
M  V30 26396 H 2444.78 2.90114 0.759861 0
M  V30 26397 H 2442.33 1.52107 0.359621 0
M  V30 26398 H 2443.07 1.46475 2.89336 0
M  V30 26399 H 2442.85 3.14931 2.33583 0
M  V30 26400 H 2444.34 2.67628 3.2057 0
M  V30 26401 N 2444.78 -0.38549 1.52813 0
M  V30 26402 C 2445.72 -1.4711 1.77841 0
M  V30 26403 C 2446.69 -1.54023 0.621784 0
M  V30 26404 O 2447.88 -1.70224 0.861876 0
M  V30 26405 C 2445.02 -2.84298 1.95623 0
M  V30 26406 C 2444.13 -2.86509 3.23321 0
M  V30 26407 C 2443.27 -4.15146 3.31401 0
M  V30 26408 C 2442.31 -4.11423 4.53208 0
M  V30 26409 N 2441.44 -5.31672 4.58551 0
M  V30 26410 H 2446.28 -1.25069 2.70484 0
M  V30 26411 H 2443.82 -0.606668 1.34007 0
M  V30 26412 H 2445.78 -3.63969 2.03918 0
M  V30 26413 H 2444.41 -3.04782 1.06337 0
M  V30 26414 H 2443.46 -1.99189 3.2408 0
M  V30 26415 H 2444.77 -2.79626 4.1305 0
M  V30 26416 H 2443.93 -5.03222 3.38898 0
M  V30 26417 H 2442.67 -4.24756 2.39652 0
M  V30 26418 H 2441.67 -3.21734 4.45833 0
M  V30 26419 H 2442.9 -4.03432 5.46278 0
M  V30 26420 H 2440.84 -5.41905 3.69695 0
M  V30 26421 H 2440.76 -5.26879 5.42157 0
M  V30 26422 H 2442.03 -6.21636 4.70307 0
M  V30 26423 N 2446.26 -1.43835 -0.644143 0
M  V30 26424 C 2447.67 -1.40847 -1.22552 0
M  V30 26425 C 2448.02 -0.11715 -1.9585 0
M  V30 26426 O 2447.14 0.78305 -2.01736 0
M  V30 26427 C 2447.74 -2.55147 -2.22903 0
M  V30 26428 C 2446.3 -2.55395 -2.76497 0
M  V30 26429 C 2445.44 -2.32398 -1.51282 0
M  V30 26430 H 2448.39 -1.52605 -0.435604 0
M  V30 26431 H 2448.42 -2.27155 -3.05255 0
M  V30 26432 H 2447.93 -3.49116 -1.69527 0
M  V30 26433 H 2446.03 -1.6533 -3.33911 0
M  V30 26434 H 2446.14 -3.5346 -3.23423 0
M  V30 26435 H 2444.51 -1.8124 -1.78953 0
M  V30 26436 H 2445.29 -3.28465 -0.998279 0
M  V30 26437 N 2447.73 0.883355 -1.30517 0
M  V30 26438 C 2448.68 2.01064 -1.16945 0
M  V30 26439 C 2449.68 1.69207 -0.0809446 0
M  V30 26440 O 2450.88 1.78367 -0.241908 0
M  V30 26441 H 2447.26 0.659292 -0.361716 0
M  V30 26442 H 2449.23 2.09645 -2.12347 0
M  V30 26443 C 2447.98 3.36386 -0.879753 0
M  V30 26444 H 2447.3 3.61412 -1.70942 0
M  V30 26445 H 2448.74 4.15898 -0.824903 0
M  V30 26446 C 2447.2 3.34305 0.417351 0
M  V30 26447 O 2447.73 3.75065 1.43836 0
M  V30 26448 N 2445.93 2.87415 0.429091 0
M  V30 26449 H 2445.48 2.5444 -0.402267 0
M  V30 26450 H 2445.44 2.86405 1.29691 0
M  V30 26451 N 2449.21 1.13259 1.09591 0
M  V30 26452 C 2450.16 0.808419 2.16179 0
M  V30 26453 C 2451.13 -0.228725 1.64518 0
M  V30 26454 O 2452.31 -0.101348 1.90531 0
M  V30 26455 C 2449.45 0.278736 3.43972 0
M  V30 26456 C 2448.57 1.37474 4.09542 0
M  V30 26457 C 2447.7 0.803571 5.25087 0
M  V30 26458 C 2446.74 1.87809 5.82576 0
M  V30 26459 N 2445.88 1.325 6.89484 0
M  V30 26460 H 2450.72 1.72142 2.43251 0
M  V30 26461 H 2448.25 0.859315 1.19391 0
M  V30 26462 H 2450.21 -0.046485 4.17174 0
M  V30 26463 H 2448.84 -0.597404 3.17224 0
M  V30 26464 H 2447.89 1.81658 3.34222 0
M  V30 26465 H 2449.21 2.18692 4.48303 0
M  V30 26466 H 2448.36 0.429534 6.05178 0
M  V30 26467 H 2447.1 -0.0397099 4.87684 0
M  V30 26468 H 2446.1 2.26122 5.01148 0
M  V30 26469 H 2447.33 2.72474 6.22041 0
M  V30 26470 H 2445.28 0.50369 6.54063 0
M  V30 26471 H 2445.19 2.07368 7.27004 0
M  V30 26472 H 2446.46 0.978472 7.73334 0
M  V30 26473 N 2450.69 -1.27539 0.925834 0
M  V30 26474 C 2451.94 -1.93738 0.561118 0
M  V30 26475 C 2452.25 -1.73579 -0.901654 0
M  V30 26476 O 2453.46 -2.34103 -1.37507 0
M  V30 26477 C 2451.91 -3.47061 0.952729 0
M  V30 26478 C 2451.52 -3.75979 2.43606 0
M  V30 26479 C 2453.27 -4.19351 0.659176 0
M  V30 26480 C 2451.17 -5.22668 2.76716 0
M  V30 26481 H 2450.1 -0.725275 0.206135 0
M  V30 26482 H 2452.75 -1.44861 1.12639 0
M  V30 26483 H 2451.14 -3.94736 0.316123 0
M  V30 26484 H 2452.31 -3.39068 3.12041 0
M  V30 26485 H 2450.62 -3.16888 2.70131 0
M  V30 26486 H 2453.22 -5.27357 0.883077 0
M  V30 26487 H 2453.56 -4.1434 -0.403535 0
M  V30 26488 H 2454.1 -3.77491 1.2548 0
M  V30 26489 H 2450.84 -5.32767 3.81889 0
M  V30 26490 H 2450.36 -5.60733 2.12929 0
M  V30 26491 H 2452.04 -5.90527 2.64361 0
M  V30 26492 N 2452.17 -0.691135 -1.41637 0
M  V30 26493 C 2453.11 -0.023011 -2.30789 0
M  V30 26494 C 2454.08 0.775885 -1.46865 0
M  V30 26495 O 2455.27 0.744819 -1.75662 0
M  V30 26496 C 2452.41 0.910607 -3.32869 0
M  V30 26497 C 2451.52 0.103798 -4.31875 0
M  V30 26498 C 2450.66 1.03465 -5.21026 0
M  V30 26499 C 2449.7 0.22049 -6.11703 0
M  V30 26500 N 2448.83 1.10491 -6.93351 0
M  V30 26501 H 2453.67 -0.789029 -2.87364 0
M  V30 26502 H 2451.21 -0.400819 -1.41534 0
M  V30 26503 H 2453.17 1.4659 -3.90599 0
M  V30 26504 H 2451.8 1.64307 -2.77854 0
M  V30 26505 H 2450.85 -0.568351 -3.7613 0
M  V30 26506 H 2452.16 -0.527591 -4.96002 0
M  V30 26507 H 2451.32 1.65932 -5.83568 0
M  V30 26508 H 2450.06 1.69991 -4.57115 0
M  V30 26509 H 2449.06 -0.417283 -5.48214 0
M  V30 26510 H 2450.29 -0.440903 -6.77667 0
M  V30 26511 H 2448.23 1.75627 -6.32053 0
M  V30 26512 H 2448.15 0.528992 -7.54147 0
M  V30 26513 H 2449.42 1.71654 -7.60365 0
M  V30 26514 N 2453.65 1.51461 -0.435577 0
M  V30 26515 C 2454.58 2.30592 0.367336 0
M  V30 26516 C 2455.56 1.3593 1.0226 0
M  V30 26517 O 2456.74 1.64848 1.02658 0
M  V30 26518 C 2453.87 3.14667 1.46977 0
M  V30 26519 C 2452.83 4.17593 0.938088 0
M  V30 26520 C 2452.15 4.90177 2.13614 0
M  V30 26521 C 2453.45 5.22293 -0.0262539 0
M  V30 26522 H 2455.15 2.97963 -0.293022 0
M  V30 26523 H 2452.69 1.43295 -0.142365 0
M  V30 26524 H 2454.64 3.68804 2.03867 0
M  V30 26525 H 2453.37 2.45114 2.15839 0
M  V30 26526 H 2452.03 3.64504 0.391417 0
M  V30 26527 H 2451.68 4.17129 2.81091 0
M  V30 26528 H 2451.38 5.59775 1.78678 0
M  V30 26529 H 2452.9 5.47137 2.7106 0
M  V30 26530 H 2454.31 5.71513 0.452284 0
M  V30 26531 H 2452.71 5.99408 -0.288097 0
M  V30 26532 H 2453.78 4.75232 -0.963474 0
M  V30 26533 N 2455.12 0.166873 1.56714 0
M  V30 26534 C 2456.37 -0.479284 1.95923 0
M  V30 26535 C 2456.69 -1.64689 1.05532 0
M  V30 26536 O 2457.89 -2.35898 1.34403 0
M  V30 26537 C 2456.35 -0.904059 3.4836 0
M  V30 26538 C 2455.96 0.2377 4.47369 0
M  V30 26539 C 2457.7 -1.51889 3.96396 0
M  V30 26540 C 2455.61 -0.206458 5.9104 0
M  V30 26541 H 2454.54 -0.182827 0.731499 0
M  V30 26542 H 2457.19 0.254395 1.81728 0
M  V30 26543 H 2455.57 -1.69359 3.57958 0
M  V30 26544 H 2456.74 1.01497 4.49483 0
M  V30 26545 H 2455.06 0.7622 4.09365 0
M  V30 26546 H 2457.66 -1.86316 5.01189 0
M  V30 26547 H 2458 -2.41518 3.39079 0
M  V30 26548 H 2458.53 -0.793882 3.89798 0
M  V30 26549 H 2455.27 0.654949 6.5222 0
M  V30 26550 H 2454.79 -0.949178 5.92242 0
M  V30 26551 H 2456.47 -0.651826 6.43708 0
M  V30 26552 N 2456.6 -1.57237 -0.106866 0
M  V30 26553 C 2457.83 -1.89681 -0.826356 0
M  V30 26554 C 2458.25 -0.759383 -1.72855 0
M  V30 26555 O 2457.6 0.269231 -1.80503 0
M  V30 26556 C 2457.65 -3.21667 -1.64961 0
M  V30 26557 O 2457.37 -4.31033 -0.783728 0
M  V30 26558 C 2458.88 -3.67896 -2.4732 0
M  V30 26559 H 2456.1 -0.627783 -0.236916 0
M  V30 26560 H 2458.64 -2.04312 -0.0876234 0
M  V30 26561 H 2456.79 -3.0867 -2.34098 0
M  V30 26562 H 2457.21 -5.06755 -1.35275 0
M  V30 26563 H 2458.68 -4.62976 -3.00595 0
M  V30 26564 H 2459.16 -2.95152 -3.25241 0
M  V30 26565 H 2459.77 -3.83723 -1.83404 0
M  V30 26566 N 2458.08 0.377381 -1.53015 0
M  V30 26567 C 2459.01 1.46788 -1.81592 0
M  V30 26568 C 2459.99 1.56407 -0.66865 0
M  V30 26569 O 2461.18 1.71167 -0.917367 0
M  V30 26570 C 2458.31 2.84267 -1.99524 0
M  V30 26571 C 2457.26 2.8948 -3.15254 0
M  V30 26572 C 2456.59 4.29521 -3.18459 0
M  V30 26573 C 2457.89 2.58071 -4.54089 0
M  V30 26574 H 2459.58 1.23123 -2.72912 0
M  V30 26575 H 2457.13 0.59086 -1.3132 0
M  V30 26576 H 2459.08 3.60571 -2.18098 0
M  V30 26577 H 2457.8 3.09294 -1.04903 0
M  V30 26578 H 2456.46 2.15626 -2.96481 0
M  V30 26579 H 2456.11 4.51606 -2.21498 0
M  V30 26580 H 2455.81 4.33927 -3.96208 0
M  V30 26581 H 2457.33 5.07715 -3.39202 0
M  V30 26582 H 2458.75 3.2409 -4.72904 0
M  V30 26583 H 2457.15 2.73811 -5.33992 0
M  V30 26584 H 2458.22 1.53364 -4.60008 0
M  V30 26585 N 2459.56 1.44175 0.636506 0
M  V30 26586 C 2460.84 1.3715 1.3946 0
M  V30 26587 C 2461.22 0.0275441 2.11082 0
M  V30 26588 O 2460.56 -0.98968 2.05955 0
M  V30 26589 C 2460.77 2.56605 2.36548 0
M  V30 26590 C 2462.12 3.00433 3.00042 0
M  V30 26591 O 2463.15 2.56772 2.46874 0
M  V30 26592 O 2462 3.76118 3.96481 0
M  V30 26593 H 2459.1 0.54285 0.623893 0
M  V30 26594 H 2461.64 1.56255 0.662012 0
M  V30 26595 H 2460.42 3.46037 1.82686 0
M  V30 26596 H 2460.04 2.39687 3.17232 0
M  V30 26597 N 2461.04 -0.876421 1.30983 0
M  V30 26598 C 2461.97 -1.99901 1.20672 0
M  V30 26599 C 2462.95 -1.69832 0.0953838 0
M  V30 26600 O 2464.13 -1.92187 0.278884 0
M  V30 26601 C 2461.26 -3.35258 0.906609 0
M  V30 26602 C 2460.22 -3.79613 1.97681 0
M  V30 26603 C 2459.54 -5.12357 1.52952 0
M  V30 26604 C 2460.84 -3.97416 3.38907 0
M  V30 26605 H 2462.54 -2.08786 2.1459 0
M  V30 26606 H 2460.08 -1.00315 1.0331 0
M  V30 26607 H 2462.04 -4.13323 0.821098 0
M  V30 26608 H 2460.76 -3.26529 -0.0682395 0
M  V30 26609 H 2459.42 -3.03783 2.05211 0
M  V30 26610 H 2459.07 -5.00064 0.542707 0
M  V30 26611 H 2458.77 -5.43005 2.24542 0
M  V30 26612 H 2460.29 -5.92938 1.45796 0
M  V30 26613 H 2461.7 -4.65894 3.34089 0
M  V30 26614 H 2460.1 -4.39453 4.08658 0
M  V30 26615 H 2461.17 -3.00999 3.80168 0
M  V30 26616 N 2462.51 -1.13839 -1.08989 0
M  V30 26617 C 2463.93 -0.914946 -1.62744 0
M  V30 26618 C 2464.28 0.547561 -1.88404 0
M  V30 26619 O 2463.4 1.41522 -1.63708 0
M  V30 26620 C 2464 -1.65442 -2.95659 0
M  V30 26621 C 2462.56 -1.47672 -3.46222 0
M  V30 26622 C 2461.7 -1.68074 -2.20559 0
M  V30 26623 H 2464.65 -1.29104 -0.922923 0
M  V30 26624 H 2464.67 -1.11413 -3.63823 0
M  V30 26625 H 2464.19 -2.71882 -2.76951 0
M  V30 26626 H 2462.29 -0.435543 -3.70046 0
M  V30 26627 H 2462.4 -2.24276 -4.23364 0
M  V30 26628 H 2460.76 -1.10593 -2.29437 0
M  V30 26629 H 2461.55 -2.75843 -2.04366 0
M  V30 26630 N 2463.99 1.27046 -0.932584 0
M  V30 26631 C 2464.93 2.25017 -0.379814 0
M  V30 26632 C 2465.9 1.53838 0.52656 0
M  V30 26633 O 2467.09 1.8265 0.46596 0
M  V30 26634 C 2464.21 3.35628 0.455128 0
M  V30 26635 C 2463.26 4.24727 -0.388502 0
M  V30 26636 S 2464.09 5.04088 -1.8071 0
M  V30 26637 C 2465.25 6.18181 -0.979974 0
M  V30 26638 H 2465.48 2.71556 -1.21015 0
M  V30 26639 H 2463.02 1.35778 -0.735102 0
M  V30 26640 H 2464.97 3.99804 0.930982 0
M  V30 26641 H 2463.63 2.87718 1.26004 0
M  V30 26642 H 2462.83 5.03376 0.250802 0
M  V30 26643 H 2462.43 3.65372 -0.798713 0
M  V30 26644 H 2464.72 6.77148 -0.218234 0
M  V30 26645 H 2465.66 6.86398 -1.73963 0
M  V30 26646 H 2466.07 5.62101 -0.519829 0
M  V30 26647 N 2465.47 0.698636 1.41269 0
M  V30 26648 C 2466.72 0.231243 2.01477 0
M  V30 26649 C 2467.05 -1.1671 1.55217 0
M  V30 26650 O 2466.32 -1.78837 0.764703 0
M  V30 26651 C 2466.61 0.292344 3.58911 0
M  V30 26652 C 2466.46 1.72785 4.15289 0
M  V30 26653 C 2467.78 -0.346117 4.38737 0
M  V30 26654 H 2464.9 0.0855006 0.732024 0
M  V30 26655 H 2467.54 0.887936 1.67975 0
M  V30 26656 H 2465.69 -0.266792 3.87583 0
M  V30 26657 H 2467.36 2.34107 3.97482 0
M  V30 26658 H 2465.61 2.26103 3.70216 0
M  V30 26659 H 2466.28 1.72211 5.24449 0
M  V30 26660 H 2468.75 0.130108 4.15897 0
M  V30 26661 H 2467.63 -0.272836 5.48222 0
M  V30 26662 H 2467.89 -1.42727 4.18427 0
M  V30 26663 N 2466.95 -1.51228 0.443603 0
M  V30 26664 C 2468.36 -1.86691 -0.0180538 0
M  V30 26665 C 2468.71 -1.36035 -1.41382 0
M  V30 26666 O 2467.84 -0.713758 -2.0429 0
M  V30 26667 C 2468.43 -3.38777 -0.0395375 0
M  V30 26668 C 2466.99 -3.73753 -0.445627 0
M  V30 26669 C 2466.14 -2.74984 0.357633 0
M  V30 26670 H 2469.09 -1.44363 0.659164 0
M  V30 26671 H 2469.11 -3.70937 -0.847696 0
M  V30 26672 H 2468.62 -3.75616 0.976448 0
M  V30 26673 H 2466.72 -3.42506 -1.46698 0
M  V30 26674 H 2466.83 -4.78812 -0.166071 0
M  V30 26675 H 2465.2 -2.54028 -0.184928 0
M  V30 26676 H 2465.98 -3.14665 1.37261 0
M  V30 26677 N 2468.43 -0.175182 -1.56623 0
M  V30 26678 C 2469.67 0.467851 -1.9661 0
M  V30 26679 C 2470 1.63517 -1.06241 0
M  V30 26680 O 2469.27 1.95471 -0.129557 0
M  V30 26681 H 2467.85 0.175832 -0.726011 0
M  V30 26682 H 2470.51 -0.257268 -1.93195 0
M  V30 26683 H 2469.6 0.825289 -3.00991 0
M  V30 26684 N 2469.91 1.57292 0.0985263 0
M  V30 26685 C 2471.18 1.76923 0.834124 0
M  V30 26686 C 2471.56 0.755962 1.971 0
M  V30 26687 O 2470.91 -0.216205 2.27475 0
M  V30 26688 C 2471.12 3.22586 1.33188 0
M  V30 26689 C 2472.47 3.85671 1.77604 0
M  V30 26690 O 2473.49 3.26314 1.4282 0
M  V30 26691 O 2472.35 4.90042 2.41911 0
M  V30 26692 H 2469.45 0.725142 0.397615 0
M  V30 26693 H 2471.99 1.69508 0.0806746 0
M  V30 26694 H 2470.76 3.87867 0.51718 0
M  V30 26695 H 2470.39 3.3462 2.14744 0
M  V30 26696 N 2471.38 -0.369261 1.53213 0
M  V30 26697 C 2472.33 -1.45215 1.79391 0
M  V30 26698 C 2473.3 -1.53355 0.638086 0
M  V30 26699 O 2474.49 -1.69301 0.879882 0
M  V30 26700 C 2471.63 -2.82208 1.98628 0
M  V30 26701 C 2470.74 -2.83064 3.26342 0
M  V30 26702 C 2469.87 -4.11608 3.35786 0
M  V30 26703 C 2468.91 -4.06593 4.57547 0
M  V30 26704 N 2468.05 -5.26779 4.64164 0
M  V30 26705 H 2472.89 -1.22193 2.71796 0
M  V30 26706 H 2470.43 -0.592421 1.34643 0
M  V30 26707 H 2472.38 -3.61785 2.07767 0
M  V30 26708 H 2471.01 -3.03638 1.09563 0
M  V30 26709 H 2470.07 -1.95741 3.26174 0
M  V30 26710 H 2471.38 -2.7523 4.15993 0
M  V30 26711 H 2470.53 -4.996 3.44217 0
M  V30 26712 H 2469.27 -4.22191 2.44144 0
M  V30 26713 H 2468.28 -3.16988 4.4922 0
M  V30 26714 H 2469.5 -3.97615 5.50526 0
M  V30 26715 H 2467.45 -5.37954 3.75422 0
M  V30 26716 H 2467.36 -5.21099 5.47715 0
M  V30 26717 H 2468.63 -6.16613 4.76874 0
M  V30 26718 N 2472.86 -1.4451 -0.628851 0
M  V30 26719 C 2474.11 -1.46693 -1.38435 0
M  V30 26720 C 2474.42 -0.104306 -1.95322 0
M  V30 26721 O 2475.63 -0.00366935 -2.715 0
M  V30 26722 C 2474.09 -2.58265 -2.50654 0
M  V30 26723 C 2473.69 -4.00744 -2.0027 0
M  V30 26724 C 2475.44 -2.6967 -3.27839 0
M  V30 26725 C 2473.34 -5.03736 -3.09845 0
M  V30 26726 H 2472.27 -0.545775 -0.520236 0
M  V30 26727 H 2474.93 -1.70583 -0.676283 0
M  V30 26728 H 2473.31 -2.27618 -3.24046 0
M  V30 26729 H 2474.48 -4.40969 -1.33728 0
M  V30 26730 H 2472.8 -3.93601 -1.35894 0
M  V30 26731 H 2475.39 -3.43789 -4.09528 0
M  V30 26732 H 2475.74 -1.75566 -3.77468 0
M  V30 26733 H 2476.27 -2.99738 -2.61538 0
M  V30 26734 H 2473.01 -5.99476 -2.65157 0
M  V30 26735 H 2472.53 -4.68101 -3.75022 0
M  V30 26736 H 2474.21 -5.27538 -3.74583 0
M  V30 26737 N 2474.34 0.869463 -1.31446 0
M  V30 26738 C 2475.29 1.96442 -1.15735 0
M  V30 26739 C 2476.27 1.60755 -0.0682138 0
M  V30 26740 O 2477.47 1.74555 -0.293184 0
M  V30 26741 C 2474.59 3.32163 -0.867313 0
M  V30 26742 C 2473.68 3.74116 -1.99745 0
M  V30 26743 N 2474.07 3.88025 -3.24454 0
M  V30 26744 C 2472.37 4.03632 -1.8973 0
M  V30 26745 C 2473.07 4.23872 -3.98381 0
M  V30 26746 N 2472.05 4.34584 -3.26554 0
M  V30 26747 H 2475.85 2.05308 -2.10299 0
M  V30 26748 H 2473.36 1.06029 -1.23011 0
M  V30 26749 H 2475.36 4.10357 -0.73574 0
M  V30 26750 H 2474.02 3.24624 0.0701043 0
M  V30 26751 H 2475.03 3.72739 -3.59563 0
M  V30 26752 H 2471.71 4.04479 -1.03456 0
M  V30 26753 H 2473.1 4.42226 -5.05852 0
M  V30 26754 N 2475.82 1.14415 1.08383 0
M  V30 26755 C 2477.06 0.9229 1.82379 0
M  V30 26756 C 2477.42 -0.54081 1.84226 0
M  V30 26757 O 2478.62 -0.880014 2.53987 0
M  V30 26758 C 2476.89 1.50763 3.24045 0
M  V30 26759 S 2478.45 1.42798 4.14915 0
M  V30 26760 H 2475.27 0.332395 0.628518 0
M  V30 26761 H 2477.87 1.45769 1.30276 0
M  V30 26762 H 2476.58 2.56607 3.20283 0
M  V30 26763 H 2476.11 0.971245 3.81222 0
M  V30 26764 H 2478.12 0.413669 4.94473 0
M  V30 26765 N 2477.3 -1.26549 0.939309 0
M  V30 26766 C 2478.23 -2.28821 0.465084 0
M  V30 26767 C 2479.21 -1.63168 -0.480663 0
M  V30 26768 O 2480.39 -1.90387 -0.382921 0
M  V30 26769 C 2477.52 -3.46231 -0.27228 0
M  V30 26770 C 2476.48 -4.23959 0.586734 0
M  V30 26771 C 2475.8 -5.33964 -0.280479 0
M  V30 26772 C 2477.1 -4.88168 1.85713 0
M  V30 26773 H 2478.8 -2.68739 1.31984 0
M  V30 26774 H 2476.34 -1.2919 0.636084 0
M  V30 26775 H 2478.29 -4.16887 -0.61506 0
M  V30 26776 H 2477.02 -3.05262 -1.16116 0
M  V30 26777 H 2475.68 -3.55065 0.912383 0
M  V30 26778 H 2475.33 -4.89236 -1.16865 0
M  V30 26779 H 2475.03 -5.8688 0.290863 0
M  V30 26780 H 2476.55 -6.07459 -0.618571 0
M  V30 26781 H 2477.96 -5.51049 1.5817 0
M  V30 26782 H 2476.36 -5.51193 2.37289 0
M  V30 26783 H 2477.43 -4.11215 2.56964 0
M  V30 26784 N 2478.77 -0.706118 -1.40896 0
M  V30 26785 C 2480.05 -0.169133 -1.94867 0
M  V30 26786 C 2480.43 1.32315 -1.64487 0
M  V30 26787 O 2479.78 2.07472 -0.957476 0
M  V30 26788 C 2479.99 -0.471715 -3.45797 0
M  V30 26789 C 2481.34 -0.405202 -4.22662 0
M  V30 26790 O 2482.36 -0.40723 -3.53864 0
M  V30 26791 O 2481.22 -0.374479 -5.45215 0
M  V30 26792 H 2478.31 -0.0211497 -0.82673 0
M  V30 26793 H 2480.86 -0.783002 -1.50556 0
M  V30 26794 H 2479.63 -1.50423 -3.61232 0
M  V30 26795 H 2479.25 0.172596 -3.97225 0
M  V30 26796 N 2480.25 1.50991 -0.451617 0
M  V30 26797 C 2481.5 2.01391 0.111618 0
M  V30 26798 C 2481.81 1.33961 1.42526 0
M  V30 26799 O 2483.02 1.75409 2.07229 0
M  V30 26800 C 2481.48 3.59034 0.249451 0
M  V30 26801 C 2481.08 4.3541 -1.05461 0
M  V30 26802 C 2482.83 4.17537 0.765688 0
M  V30 26803 C 2480.73 5.84792 -0.881632 0
M  V30 26804 H 2479.66 0.752627 0.045489 0
M  V30 26805 H 2482.32 1.73974 -0.583554 0
M  V30 26806 H 2480.7 3.82957 1.00796 0
M  V30 26807 H 2481.87 4.23225 -1.82255 0
M  V30 26808 H 2480.19 3.88427 -1.50046 0
M  V30 26809 H 2482.78 5.26868 0.91182 0
M  V30 26810 H 2483.13 3.77641 1.75194 0
M  V30 26811 H 2483.66 3.97747 0.0651044 0
M  V30 26812 H 2480.4 6.29126 -1.84068 0
M  V30 26813 H 2479.92 5.99603 -0.153731 0
M  V30 26814 H 2481.6 6.44739 -0.540476 0
M  V30 26815 N 2481.73 0.183486 1.56528 0
M  V30 26816 C 2482.66 -0.737417 2.2155 0
M  V30 26817 C 2483.64 -1.23003 1.17492 0
M  V30 26818 O 2484.83 -1.28098 1.45961 0
M  V30 26819 C 2481.96 -1.96189 2.86578 0
M  V30 26820 C 2480.91 -1.60466 3.9678 0
M  V30 26821 C 2480.24 -2.90479 4.48917 0
M  V30 26822 C 2481.54 -0.823406 5.15769 0
M  V30 26823 H 2483.23 -0.195401 2.98762 0
M  V30 26824 H 2480.78 -0.0925433 1.43702 0
M  V30 26825 H 2482.73 -2.61125 3.30744 0
M  V30 26826 H 2481.45 -2.52825 2.06754 0
M  V30 26827 H 2480.11 -0.978935 3.53288 0
M  V30 26828 H 2479.76 -3.4518 3.65869 0
M  V30 26829 H 2479.46 -2.67326 5.23269 0
M  V30 26830 H 2480.98 -3.56423 4.95777 0
M  V30 26831 H 2482.4 -1.37561 5.56552 0
M  V30 26832 H 2480.79 -0.690446 5.96115 0
M  V30 26833 H 2481.86 0.177867 4.84574 0
M  V30 26834 N 2483.21 -1.57342 -0.0901833 0
M  V30 26835 C 2484.45 -1.86337 -0.792775 0
M  V30 26836 C 2484.78 -0.772694 -1.78493 0
M  V30 26837 O 2484.04 0.233223 -1.94305 0
M  V30 26838 C 2484.34 -3.21936 -1.55217 0
M  V30 26839 C 2484 -4.45407 -0.701687 0
M  V30 26840 C 2482.66 -4.78926 -0.46725 0
M  V30 26841 C 2485.02 -5.21082 -0.110769 0
M  V30 26842 C 2482.34 -5.85545 0.367888 0
M  V30 26843 C 2484.7 -6.28584 0.71172 0
M  V30 26844 C 2483.36 -6.60616 0.956202 0
M  V30 26845 H 2482.63 -0.681854 -0.290097 0
M  V30 26846 H 2485.28 -1.91424 -0.0540996 0
M  V30 26847 H 2483.58 -3.12556 -2.36255 0
M  V30 26848 H 2485.28 -3.41599 -2.10026 0
M  V30 26849 H 2481.87 -4.19161 -0.894525 0
M  V30 26850 H 2486.05 -4.95515 -0.279042 0
M  V30 26851 H 2481.31 -6.08772 0.566235 0
M  V30 26852 H 2485.48 -6.86391 1.17644 0
M  V30 26853 H 2483.11 -7.43061 1.60512 0
M  V30 26854 N 2484.69 0.36113 -1.53407 0
M  V30 26855 C 2485.65 1.42545 -1.79481 0
M  V30 26856 C 2486.65 1.46389 -0.665353 0
M  V30 26857 O 2487.84 1.47071 -0.933575 0
M  V30 26858 C 2484.97 2.81626 -1.92092 0
M  V30 26859 H 2486.16 1.20696 -2.7454 0
M  V30 26860 H 2483.72 0.594521 -1.44552 0
M  V30 26861 H 2484.45 3.08783 -0.991153 0
M  V30 26862 H 2484.24 2.80235 -2.74246 0
M  V30 26863 H 2485.73 3.58694 -2.13842 0
M  V30 26864 N 2486.16 1.44842 0.621179 0
M  V30 26865 C 2487.09 1.55306 1.74363 0
M  V30 26866 C 2488.08 0.405414 1.65198 0
M  V30 26867 O 2489.26 0.62682 1.83806 0
M  V30 26868 C 2486.39 1.50643 3.12928 0
M  V30 26869 C 2485.34 2.63985 3.36892 0
M  V30 26870 C 2484.67 2.44375 4.75589 0
M  V30 26871 C 2485.97 4.0608 3.28476 0
M  V30 26872 H 2487.66 2.49259 1.65863 0
M  V30 26873 H 2485.21 1.19964 0.796537 0
M  V30 26874 H 2487.16 1.56562 3.91237 0
M  V30 26875 H 2485.89 0.532114 3.22236 0
M  V30 26876 H 2484.55 2.57471 2.60967 0
M  V30 26877 H 2484.19 1.45113 4.81613 0
M  V30 26878 H 2483.89 3.20373 4.9258 0
M  V30 26879 H 2485.42 2.52127 5.56115 0
M  V30 26880 H 2486.83 4.13909 3.96676 0
M  V30 26881 H 2485.23 4.8236 3.57 0
M  V30 26882 H 2486.3 4.28947 2.26125 0
M  V30 26883 N 2487.64 -0.862479 1.31905 0
M  V30 26884 C 2488.87 -1.64871 1.25001 0
M  V30 26885 C 2489.29 -1.87907 -0.183392 0
M  V30 26886 O 2488.64 -1.44253 -1.11791 0
M  V30 26887 C 2488.69 -3.01245 1.99834 0
M  V30 26888 O 2488.41 -2.79233 3.3758 0
M  V30 26889 C 2489.92 -3.95691 1.99859 0
M  V30 26890 H 2487.14 -0.513766 0.431608 0
M  V30 26891 H 2489.68 -1.07601 1.73903 0
M  V30 26892 H 2487.83 -3.55183 1.54674 0
M  V30 26893 H 2488.25 -3.65907 3.75782 0
M  V30 26894 H 2489.72 -4.88672 2.56717 0
M  V30 26895 H 2490.2 -4.2806 0.982927 0
M  V30 26896 H 2490.81 -3.4769 2.44933 0
M  V30 26897 N 2489.12 -1.14988 -1.07775 0
M  V30 26898 C 2490.07 -0.842709 -2.14865 0
M  V30 26899 C 2491.04 0.202523 -1.64861 0
M  V30 26900 O 2492.22 0.0710233 -1.90668 0
M  V30 26901 C 2489.36 -0.333423 -3.43486 0
M  V30 26902 C 2488.48 -1.43972 -4.07304 0
M  V30 26903 C 2487.61 -0.887006 -5.23742 0
M  V30 26904 C 2486.65 -1.97053 -5.79514 0
M  V30 26905 N 2485.79 -1.43452 -6.87289 0
M  V30 26906 H 2490.63 -1.7599 -2.40482 0
M  V30 26907 H 2488.16 -0.8782 -1.18009 0
M  V30 26908 H 2490.12 -0.0198897 -4.17195 0
M  V30 26909 H 2488.75 0.546861 -3.18134 0
M  V30 26910 H 2487.8 -1.86952 -3.3129 0
M  V30 26911 H 2489.12 -2.25796 -4.44767 0
M  V30 26912 H 2488.27 -0.525758 -6.04418 0
M  V30 26913 H 2487.01 -0.0378814 -4.87685 0
M  V30 26914 H 2486.01 -2.34066 -4.97487 0
M  V30 26915 H 2487.24 -2.82336 -6.17627 0
M  V30 26916 H 2485.18 -0.607682 -6.53179 0
M  V30 26917 H 2485.1 -2.18908 -7.23613 0
M  V30 26918 H 2486.37 -1.10138 -7.7168 0
M  V30 26919 N 2490.6 1.26049 -0.946007 0
M  V30 26920 C 2491.51 2.29932 -0.465673 0
M  V30 26921 C 2492.52 1.67734 0.462731 0
M  V30 26922 O 2493.7 1.98491 0.341083 0
M  V30 26923 C 2490.77 3.45747 0.256933 0
M  V30 26924 C 2489.83 4.23411 -0.708623 0
M  V30 26925 C 2489.06 5.33696 -0.0204074 0
M  V30 26926 O 2489.28 5.57729 1.19562 0
M  V30 26927 O 2488.22 5.97797 -0.701564 0
M  V30 26928 H 2492.04 2.73092 -1.32871 0
M  V30 26929 H 2489.63 1.31338 -0.712094 0
M  V30 26930 H 2491.51 4.16139 0.663779 0
M  V30 26931 H 2490.18 3.04607 1.09528 0
M  V30 26932 H 2489.09 3.55481 -1.16551 0
M  V30 26933 H 2490.42 4.68313 -1.51473 0
M  V30 26934 N 2492.08 0.71358 1.4052 0
M  V30 26935 C 2493.32 0.252599 2.01221 0
M  V30 26936 C 2493.66 -1.15057 1.56446 0
M  V30 26937 O 2492.93 -1.78015 0.783628 0
M  V30 26938 C 2493.21 0.330395 3.58581 0
M  V30 26939 C 2493.07 1.7718 4.13434 0
M  V30 26940 C 2494.39 -0.299564 4.39079 0
M  V30 26941 H 2491.5 0.0932599 0.731076 0
M  V30 26942 H 2494.15 0.905702 1.67024 0
M  V30 26943 H 2492.3 -0.225669 3.87844 0
M  V30 26944 H 2493.97 2.38309 3.94976 0
M  V30 26945 H 2492.21 2.30017 3.67797 0
M  V30 26946 H 2492.88 1.77764 5.22593 0
M  V30 26947 H 2495.36 0.174212 4.15735 0
M  V30 26948 H 2494.23 -0.214674 5.4848 0
M  V30 26949 H 2494.5 -1.38281 4.19918 0
M  V30 26950 N 2493.55 -1.50749 0.459618 0
M  V30 26951 C 2494.48 -2.31148 -0.330604 0
M  V30 26952 C 2495.47 -1.37539 -1.00085 0
M  V30 26953 O 2496.65 -1.66461 -1.00022 0
M  V30 26954 C 2493.78 -3.16965 -1.41952 0
M  V30 26955 C 2492.73 -4.19033 -0.871534 0
M  V30 26956 C 2492.06 -4.93513 -2.05788 0
M  V30 26957 C 2493.36 -5.22186 0.109343 0
M  V30 26958 H 2495.05 -2.97459 0.340388 0
M  V30 26959 H 2492.6 -1.4305 0.165144 0
M  V30 26960 H 2494.55 -3.72001 -1.97973 0
M  V30 26961 H 2493.28 -2.48517 -2.11912 0
M  V30 26962 H 2491.94 -3.65081 -0.333378 0
M  V30 26963 H 2491.58 -4.21548 -2.74419 0
M  V30 26964 H 2491.28 -5.62547 -1.6975 0
M  V30 26965 H 2492.81 -5.5138 -2.62321 0
M  V30 26966 H 2494.22 -5.7216 -0.361304 0
M  V30 26967 H 2492.62 -5.98874 0.383421 0
M  V30 26968 H 2493.69 -4.73639 1.03896 0
M  V30 26969 N 2495.03 -0.191784 -1.56429 0
M  V30 26970 C 2496.28 0.446971 -1.97095 0
M  V30 26971 C 2496.6 1.62381 -1.0797 0
M  V30 26972 O 2495.87 1.95323 -0.150282 0
M  V30 26973 H 2494.45 0.168122 -0.727835 0
M  V30 26974 H 2497.11 -0.277744 -1.92911 0
M  V30 26975 H 2496.21 0.793318 -3.01849 0
M  V30 26976 N 2496.51 1.57387 0.0818378 0
M  V30 26977 C 2497.79 1.77798 0.815312 0
M  V30 26978 C 2498.17 0.776825 1.96287 0
M  V30 26979 O 2497.52 -0.192066 2.27691 0
M  V30 26980 C 2497.73 3.23981 1.29759 0
M  V30 26981 C 2499.07 3.87533 1.73504 0
M  V30 26982 O 2500.1 3.27811 1.39351 0
M  V30 26983 O 2498.96 4.9258 2.367 0
M  V30 26984 H 2496.05 0.729319 0.389901 0
M  V30 26985 H 2498.6 1.69584 0.0626915 0
M  V30 26986 H 2497.37 3.88394 0.476012 0
M  V30 26987 H 2496.99 3.36879 2.11183 0
M  V30 26988 N 2497.99 -0.35299 1.53596 0
M  V30 26989 C 2499.21 -1.11901 1.74622 0
M  V30 26990 C 2499.64 -1.81879 0.479753 0
M  V30 26991 O 2499 -1.72205 -0.567035 0
M  V30 26992 C 2499.04 -2.1154 2.92033 0
M  V30 26993 O 2498.15 -3.18874 2.61521 0
M  V30 26994 H 2497.49 -0.324089 0.579537 0
M  V30 26995 H 2500.02 -0.406266 2.00526 0
M  V30 26996 H 2500.03 -2.54925 3.18555 0
M  V30 26997 H 2498.7 -1.60001 3.83891 0
M  V30 26998 H 2497.28 -2.80373 2.45857 0
M  V30 26999 N 2499.47 -1.45169 -0.613489 0
M  V30 27000 C 2500.72 -1.48583 -1.36994 0
M  V30 27001 C 2501.04 -0.126579 -1.94589 0
M  V30 27002 O 2500.31 0.843341 -1.76818 0
M  V30 27003 H 2498.89 -0.547163 -0.508549 0
M  V30 27004 H 2501.55 -1.81081 -0.720821 0
M  V30 27005 H 2500.64 -2.22131 -2.19236 0
M  V30 27006 N 2500.95 0.855472 -1.32361 0
M  V30 27007 C 2501.86 1.99632 -1.23225 0
M  V30 27008 C 2502.87 1.73386 -0.146013 0
M  V30 27009 O 2504.05 1.98037 -0.366537 0
M  V30 27010 C 2501.11 3.33292 -0.95484 0
M  V30 27011 C 2500.17 3.72765 -2.12943 0
M  V30 27012 C 2499.41 5.00047 -1.86517 0
M  V30 27013 O 2499.63 5.64658 -0.80733 0
M  V30 27014 O 2498.56 5.36631 -2.726 0
M  V30 27015 H 2502.39 2.10276 -2.1913 0
M  V30 27016 H 2499.97 0.985999 -1.12243 0
M  V30 27017 H 2501.86 4.13412 -0.816592 0
M  V30 27018 H 2500.53 3.2369 -0.0259423 0
M  V30 27019 H 2499.44 2.93224 -2.32315 0
M  V30 27020 H 2500.77 3.87012 -3.04109 0
M  V30 27021 N 2502.42 1.15558 1.07164 0
M  V30 27022 C 2503.36 0.79763 2.13806 0
M  V30 27023 C 2504.33 -0.226783 1.61011 0
M  V30 27024 O 2505.52 -0.112899 1.88162 0
M  V30 27025 C 2502.65 0.18643 3.38187 0
M  V30 27026 C 2501.69 1.18304 4.09764 0
M  V30 27027 S 2502.52 2.72592 4.60927 0
M  V30 27028 C 2503.68 2.12897 5.8858 0
M  V30 27029 H 2503.91 1.70087 2.4384 0
M  V30 27030 H 2501.45 0.978127 1.19466 0
M  V30 27031 H 2503.4 -0.159764 4.10189 0
M  V30 27032 H 2502.07 -0.694435 3.06327 0
M  V30 27033 H 2501.26 0.70365 4.99064 0
M  V30 27034 H 2500.86 1.47387 3.43734 0
M  V30 27035 H 2503.15 1.49219 6.60863 0
M  V30 27036 H 2504.1 3.00371 6.41235 0
M  V30 27037 H 2504.5 1.57126 5.42192 0
M  V30 27038 N 2503.9 -1.25546 0.952678 0
M  V30 27039 C 2505.18 -1.88455 0.523851 0
M  V30 27040 C 2505.56 -1.85974 -0.998838 0
M  V30 27041 O 2504.91 -1.32194 -1.86379 0
M  V30 27042 C 2505.12 -3.31269 1.09826 0
M  V30 27043 C 2506.46 -4.08049 1.17392 0
M  V30 27044 O 2507.49 -3.40383 1.04967 0
M  V30 27045 O 2506.35 -5.29085 1.36861 0
M  V30 27046 H 2503.44 -0.80881 0.172499 0
M  V30 27047 H 2505.99 -1.33631 1.04598 0
M  V30 27048 H 2504.76 -3.27495 2.14156 0
M  V30 27049 H 2504.38 -3.93647 0.55926 0
M  V30 27050 N 2505.38 -0.721022 -1.40139 0
M  V30 27051 C 2506.34 -0.0806236 -2.29058 0
M  V30 27052 C 2507.34 0.681733 -1.45633 0
M  V30 27053 O 2508.53 0.512827 -1.6648 0
M  V30 27054 C 2505.66 0.895535 -3.28927 0
M  V30 27055 H 2506.86 -0.863843 -2.87189 0
M  V30 27056 H 2504.41 -0.486001 -1.48552 0
M  V30 27057 H 2505.15 1.70561 -2.75825 0
M  V30 27058 H 2504.93 0.351698 -3.9052 0
M  V30 27059 H 2506.42 1.34062 -3.95496 0
M  V30 27060 N 2506.86 1.50503 -0.467606 0
M  V30 27061 C 2507.79 2.3132 0.318341 0
M  V30 27062 C 2508.77 1.38068 0.99354 0
M  V30 27063 O 2509.95 1.66989 0.991381 0
M  V30 27064 C 2507.08 3.17713 1.40269 0
M  V30 27065 C 2506.04 4.19489 0.849299 0
M  V30 27066 C 2505.36 4.94598 2.03168 0
M  V30 27067 C 2506.66 5.2212 -0.137034 0
M  V30 27068 H 2508.36 2.97274 -0.356158 0
M  V30 27069 H 2505.9 1.4296 -0.172728 0
M  V30 27070 H 2507.86 3.73045 1.95998 0
M  V30 27071 H 2506.58 2.49637 2.10591 0
M  V30 27072 H 2505.24 3.65253 0.314012 0
M  V30 27073 H 2504.89 4.22998 2.7218 0
M  V30 27074 H 2504.59 5.63439 1.66764 0
M  V30 27075 H 2506.11 5.52763 2.59394 0
M  V30 27076 H 2507.53 5.72344 0.330956 0
M  V30 27077 H 2505.92 5.98662 -0.415175 0
M  V30 27078 H 2506.99 4.73081 -1.06406 0
M  V30 27079 N 2508.34 0.200077 1.56325 0
M  V30 27080 C 2509.28 -0.718795 2.19322 0
M  V30 27081 C 2510.25 -1.20613 1.142 0
M  V30 27082 O 2511.44 -1.26912 1.42471 0
M  V30 27083 C 2508.58 -1.93061 2.86044 0
M  V30 27084 C 2507.69 -1.48418 4.05705 0
M  V30 27085 C 2506.83 -2.65188 4.6027 0
M  V30 27086 C 2505.86 -2.17175 5.72277 0
M  V30 27087 N 2505 -3.27141 6.21227 0
M  V30 27088 H 2509.84 -0.174837 2.97487 0
M  V30 27089 H 2507.38 -0.0745536 1.46911 0
M  V30 27090 H 2509.34 -2.64179 3.22902 0
M  V30 27091 H 2507.97 -2.4478 2.10435 0
M  V30 27092 H 2507.02 -0.668689 3.74477 0
M  V30 27093 H 2508.33 -1.09196 4.86701 0
M  V30 27094 H 2507.48 -3.44421 4.99459 0
M  V30 27095 H 2506.22 -3.07687 3.78392 0
M  V30 27096 H 2505.23 -1.36398 5.32612 0
M  V30 27097 H 2506.45 -1.75701 6.55977 0
M  V30 27098 H 2504.4 -3.69161 5.42269 0
M  V30 27099 H 2504.32 -2.92104 6.97289 0
M  V30 27100 H 2505.58 -4.06573 6.6507 0
M  V30 27101 N 2509.81 -1.57429 -0.0734901 0
M  V30 27102 C 2510.75 -2.00296 -1.11419 0
M  V30 27103 C 2511.76 -0.90866 -1.35082 0
M  V30 27104 O 2512.95 -1.18656 -1.33353 0
M  V30 27105 C 2510.05 -2.32528 -2.46544 0
M  V30 27106 C 2509.22 -3.63782 -2.42861 0
M  V30 27107 C 2508.28 -3.83704 -3.6008 0
M  V30 27108 O 2507.31 -4.5531 -3.41587 0
M  V30 27109 N 2508.51 -3.25927 -4.80366 0
M  V30 27110 H 2511.27 -2.90186 -0.749155 0
M  V30 27111 H 2508.83 -1.59763 -0.262167 0
M  V30 27112 H 2510.83 -2.4303 -3.23603 0
M  V30 27113 H 2509.4 -1.48536 -2.75056 0
M  V30 27114 H 2508.62 -3.6405 -1.51199 0
M  V30 27115 H 2509.9 -4.49969 -2.37498 0
M  V30 27116 H 2509.3 -2.67803 -4.98295 0
M  V30 27117 H 2507.86 -3.41881 -5.54942 0
M  V30 27118 N 2511.29 0.344839 -1.53781 0
M  V30 27119 C 2512.52 1.10531 -1.74901 0
M  V30 27120 C 2512.93 1.82396 -0.487566 0
M  V30 27121 O 2512.29 1.74306 0.54071 0
M  V30 27122 C 2512.34 2.11979 -2.92826 0
M  V30 27123 O 2512.06 1.43037 -4.14092 0
M  V30 27124 C 2513.56 3.00412 -3.25987 0
M  V30 27125 H 2510.78 0.329668 -0.584431 0
M  V30 27126 H 2513.33 0.397439 -2.00601 0
M  V30 27127 H 2511.48 2.78333 -2.69462 0
M  V30 27128 H 2511.9 2.10797 -4.80276 0
M  V30 27129 H 2513.37 3.67532 -4.11854 0
M  V30 27130 H 2513.85 3.66359 -2.42235 0
M  V30 27131 H 2514.45 2.39648 -3.51353 0
M  V30 27132 N 2512.77 1.45492 0.605781 0
M  V30 27133 C 2513.7 1.48794 1.73019 0
M  V30 27134 C 2514.68 0.34414 1.58916 0
M  V30 27135 O 2515.86 0.544908 1.80452 0
M  V30 27136 C 2512.99 1.34469 3.10863 0
M  V30 27137 C 2512.04 2.52737 3.4355 0
M  V30 27138 S 2512.87 4.15197 3.38189 0
M  V30 27139 C 2514.03 4.03341 4.78609 0
M  V30 27140 H 2514.26 2.43931 1.69956 0
M  V30 27141 H 2511.79 1.33097 0.782587 0
M  V30 27142 H 2513.75 1.26891 3.90396 0
M  V30 27143 H 2512.41 0.407995 3.11439 0
M  V30 27144 H 2511.6 2.38644 4.4392 0
M  V30 27145 H 2511.21 2.57185 2.71536 0
M  V30 27146 H 2513.5 3.68597 5.68456 0
M  V30 27147 H 2514.44 5.03629 4.97758 0
M  V30 27148 H 2514.85 3.34967 4.54375 0
M  V30 27149 N 2514.25 -0.848441 1.32813 0
M  V30 27150 C 2515.16 -1.98975 1.24282 0
M  V30 27151 C 2516.17 -1.73306 0.155206 0
M  V30 27152 O 2517.35 -1.97839 0.377034 0
M  V30 27153 C 2514.42 -3.32781 0.972502 0
M  V30 27154 C 2513.48 -3.7163 2.14917 0
M  V30 27155 C 2512.71 -4.99051 1.89166 0
M  V30 27156 O 2512.93 -5.64222 0.837264 0
M  V30 27157 O 2511.87 -5.35178 2.75442 0
M  V30 27158 H 2515.69 -2.09111 2.20242 0
M  V30 27159 H 2513.28 -0.980032 1.12764 0
M  V30 27160 H 2515.16 -4.12973 0.838504 0
M  V30 27161 H 2513.83 -3.23671 0.0431079 0
M  V30 27162 H 2512.74 -2.91988 2.33867 0
M  V30 27163 H 2514.07 -3.85394 3.06157 0
M  V30 27164 N 2515.73 -1.16125 -1.06549 0
M  V30 27165 C 2516.64 -0.8797 -2.17482 0
M  V30 27166 C 2517.65 0.147074 -1.73377 0
M  V30 27167 O 2518.83 -0.0289482 -2.01379 0
M  V30 27168 C 2515.89 -0.38189 -3.4459 0
M  V30 27169 C 2514.95 -1.47357 -4.03218 0
M  V30 27170 C 2514.19 -0.999417 -5.24259 0
M  V30 27171 O 2514.41 0.151857 -5.70198 0
M  V30 27172 O 2513.34 -1.78663 -5.74772 0
M  V30 27173 H 2517.17 -1.80728 -2.44072 0
M  V30 27174 H 2514.76 -0.941012 -1.1604 0
M  V30 27175 H 2516.64 -0.111127 -4.21253 0
M  V30 27176 H 2515.31 0.517714 -3.19533 0
M  V30 27177 H 2514.22 -1.79804 -3.28057 0
M  V30 27178 H 2515.55 -2.34838 -4.32564 0
M  V30 27179 N 2517.2 1.25039 -0.959323 0
M  V30 27180 C 2518.15 2.25709 -0.482097 0
M  V30 27181 C 2519.12 1.59373 0.467911 0
M  V30 27182 O 2520.31 1.86975 0.380126 0
M  V30 27183 C 2517.45 3.44336 0.229562 0
M  V30 27184 C 2516.56 4.25294 -0.758231 0
M  V30 27185 C 2515.69 5.31195 -0.0235337 0
M  V30 27186 C 2514.73 6.03844 -1.00195 0
M  V30 27187 N 2513.87 7.01468 -0.297814 0
M  V30 27188 H 2518.71 2.65899 -1.34543 0
M  V30 27189 H 2516.25 1.30719 -0.674615 0
M  V30 27190 H 2518.21 4.11966 0.658784 0
M  V30 27191 H 2516.84 3.05007 1.05691 0
M  V30 27192 H 2515.89 3.57281 -1.30592 0
M  V30 27193 H 2517.2 4.75564 -1.50467 0
M  V30 27194 H 2516.35 6.04922 0.464095 0
M  V30 27195 H 2515.09 4.8181 0.755657 0
M  V30 27196 H 2514.1 5.28927 -1.50053 0
M  V30 27197 H 2515.32 6.55318 -1.78145 0
M  V30 27198 H 2513.27 6.54367 0.462553 0
M  V30 27199 H 2513.19 7.49579 -0.98326 0
M  V30 27200 H 2514.45 7.79319 0.168123 0
M  V30 27201 N 2518.68 0.728444 1.39755 0
M  V30 27202 C 2519.93 0.273522 2.00644 0
M  V30 27203 C 2520.26 -1.13725 1.57788 0
M  V30 27204 O 2519.51 -1.78828 0.794918 0
M  V30 27205 C 2519.81 0.315839 3.56002 0
M  V30 27206 C 2519.48 1.6787 4.18486 0
M  V30 27207 C 2518.14 2.05174 4.35267 0
M  V30 27208 C 2520.49 2.57383 4.53214 0
M  V30 27209 C 2517.82 3.31511 4.84063 0
M  V30 27210 C 2520.17 3.83086 5.03416 0
M  V30 27211 C 2518.84 4.2049 5.18405 0
M  V30 27212 H 2518.11 0.100089 0.734209 0
M  V30 27213 H 2520.75 0.934001 1.67179 0
M  V30 27214 H 2519.06 -0.428216 3.89453 0
M  V30 27215 H 2520.75 -0.054187 4.00963 0
M  V30 27216 H 2517.34 1.37865 4.05822 0
M  V30 27217 H 2521.53 2.29835 4.39874 0
M  V30 27218 H 2516.78 3.60443 4.93853 0
M  V30 27219 H 2520.96 4.52608 5.29262 0
M  V30 27220 H 2518.59 5.18452 5.55978 0
M  V30 27221 N 2520.16 -1.50253 0.475581 0
M  V30 27222 C 2521.09 -2.25305 -0.362341 0
M  V30 27223 C 2522.07 -1.28805 -0.992371 0
M  V30 27224 O 2523.26 -1.58038 -1.02743 0
M  V30 27225 C 2520.38 -3.03274 -1.50807 0
M  V30 27226 C 2519.43 -4.14732 -0.994971 0
M  V30 27227 S 2520.26 -5.35418 0.0939377 0
M  V30 27228 C 2521.42 -6.16935 -1.05556 0
M  V30 27229 H 2521.65 -2.96028 0.274738 0
M  V30 27230 H 2519.18 -1.52186 0.260522 0
M  V30 27231 H 2521.14 -3.48785 -2.1647 0
M  V30 27232 H 2519.8 -2.32068 -2.11668 0
M  V30 27233 H 2519 -4.68706 -1.85284 0
M  V30 27234 H 2518.6 -3.71679 -0.415987 0
M  V30 27235 H 2520.89 -6.4834 -1.96624 0
M  V30 27236 H 2521.83 -7.05922 -0.554985 0
M  V30 27237 H 2522.24 -5.49056 -1.31142 0
M  V30 27238 N 2521.64 -0.208365 -1.56217 0
M  V30 27239 C 2522.6 0.693518 -2.18456 0
M  V30 27240 C 2523.6 1.13133 -1.1427 0
M  V30 27241 O 2524.79 1.04227 -1.39579 0
M  V30 27242 C 2521.92 1.94843 -2.7973 0
M  V30 27243 H 2523.12 0.151088 -2.99519 0
M  V30 27244 H 2520.67 0.0412595 -1.56246 0
M  V30 27245 H 2521.4 2.53306 -2.02501 0
M  V30 27246 H 2521.19 1.6431 -3.56012 0
M  V30 27247 H 2522.68 2.59128 -3.27479 0
M  V30 27248 N 2523.12 1.57465 0.0651402 0
M  V30 27249 C 2524.08 2.03157 1.06113 0
M  V30 27250 C 2525.08 0.929655 1.31202 0
M  V30 27251 O 2526.27 1.19435 1.26811 0
M  V30 27252 C 2523.4 2.41788 2.40315 0
M  V30 27253 H 2524.59 2.92385 0.667179 0
M  V30 27254 H 2522.15 1.53174 0.311048 0
M  V30 27255 H 2522.88 1.55606 2.8453 0
M  V30 27256 H 2522.67 3.22203 2.23445 0
M  V30 27257 H 2524.16 2.77691 3.11893 0
M  V30 27258 N 2524.59 -0.336679 1.53962 0
M  V30 27259 C 2525.54 -1.43398 1.83139 0
M  V30 27260 C 2526.54 -1.54154 0.70234 0
M  V30 27261 O 2527.74 -1.56696 0.885792 0
M  V30 27262 H 2524.12 -0.478263 0.580318 0
M  V30 27263 H 2526.09 -1.16007 2.74927 0
M  V30 27264 C 2524.84 -2.79819 2.0639 0
M  V30 27265 H 2524.16 -2.72311 2.92723 0
M  V30 27266 H 2525.6 -3.557 2.30767 0
M  V30 27267 C 2524.06 -3.25963 0.851472 0
M  V30 27268 O 2524.59 -4.01663 0.054261 0
M  V30 27269 N 2522.8 -2.82847 0.66677 0
M  V30 27270 H 2522.34 -2.21407 1.31669 0
M  V30 27271 H 2522.3 -3.14075 -0.142977 0
M  V30 27272 N 2526.07 -1.45812 -0.598057 0
M  V30 27273 C 2527.48 -1.44675 -1.18009 0
M  V30 27274 C 2527.83 -0.179399 -1.95378 0
M  V30 27275 O 2526.96 0.718473 -2.04125 0
M  V30 27276 C 2527.55 -2.62109 -2.14673 0
M  V30 27277 C 2526.11 -2.64062 -2.68232 0
M  V30 27278 C 2525.26 -2.37093 -1.43812 0
M  V30 27279 H 2528.21 -1.53913 -0.386833 0
M  V30 27280 H 2528.23 -2.36752 -2.97874 0
M  V30 27281 H 2527.74 -3.54333 -1.58334 0
M  V30 27282 H 2525.85 -1.75869 -3.28482 0
M  V30 27283 H 2525.96 -3.63571 -3.12014 0
M  V30 27284 H 2524.32 -1.86841 -1.73097 0
M  V30 27285 H 2525.11 -3.31475 -0.893275 0
M  V30 27286 N 2527.55 0.841385 -1.33261 0
M  V30 27287 C 2528.78 1.63383 -1.27753 0
M  V30 27288 C 2529.2 1.87508 0.149155 0
M  V30 27289 O 2528.56 1.43738 1.10495 0
M  V30 27290 C 2528.61 2.96261 -2.05576 0
M  V30 27291 O 2527.71 3.87451 -1.41264 0
M  V30 27292 H 2527.05 0.49761 -0.439636 0
M  V30 27293 H 2529.58 1.04696 -1.75784 0
M  V30 27294 H 2529.59 3.45979 -2.16247 0
M  V30 27295 H 2528.27 2.78025 -3.09314 0
M  V30 27296 H 2526.84 3.45935 -1.39223 0
M  V30 27297 N 2529.03 1.16688 1.05932 0
M  V30 27298 C 2529.98 0.876786 2.13497 0
M  V30 27299 C 2530.95 -0.17627 1.65162 0
M  V30 27300 O 2532.13 -0.0406807 1.90757 0
M  V30 27301 C 2529.27 0.388027 3.42912 0
M  V30 27302 C 2528.38 1.50433 4.04961 0
M  V30 27303 C 2527.52 0.970217 5.22265 0
M  V30 27304 C 2526.56 2.06248 5.76306 0
M  V30 27305 N 2525.7 1.54368 6.8492 0
M  V30 27306 H 2530.54 1.79794 2.37651 0
M  V30 27307 H 2528.07 0.896863 1.16597 0
M  V30 27308 H 2530.03 0.0862593 4.17111 0
M  V30 27309 H 2528.66 -0.496179 3.18964 0
M  V30 27310 H 2527.71 1.92199 3.28274 0
M  V30 27311 H 2529.02 2.32844 4.41118 0
M  V30 27312 H 2528.18 0.621849 6.03505 0
M  V30 27313 H 2526.92 0.115463 4.87563 0
M  V30 27314 H 2525.92 2.41951 4.937 0
M  V30 27315 H 2527.15 2.92126 6.13057 0
M  V30 27316 H 2525.09 0.71152 6.5213 0
M  V30 27317 H 2525.01 2.30392 7.20039 0
M  V30 27318 H 2526.28 1.22401 7.6983 0
M  V30 27319 N 2530.51 -1.24529 0.96594 0
M  V30 27320 C 2531.75 -1.92838 0.627794 0
M  V30 27321 C 2532.09 -1.75348 -0.834663 0
M  V30 27322 O 2531.36 -1.10549 -1.60029 0
M  V30 27323 C 2531.64 -3.45903 1.00115 0
M  V30 27324 C 2531.5 -3.72568 2.52018 0
M  V30 27325 C 2532.82 -4.36843 0.534427 0
M  V30 27326 H 2529.94 -0.70034 0.229549 0
M  V30 27327 H 2532.58 -1.46931 1.20463 0
M  V30 27328 H 2530.73 -3.85134 0.510306 0
M  V30 27329 H 2532.4 -3.42907 3.08565 0
M  V30 27330 H 2530.64 -3.17781 2.95293 0
M  V30 27331 H 2531.31 -4.79657 2.73191 0
M  V30 27332 H 2533.79 -4.04978 0.955636 0
M  V30 27333 H 2532.67 -5.42676 0.824247 0
M  V30 27334 H 2532.93 -4.38468 -0.565512 0
M  V30 27335 N 2531.99 -0.735845 -1.39367 0
M  V30 27336 C 2533.21 -0.293088 -2.05319 0
M  V30 27337 C 2533.64 1.06397 -1.55117 0
M  V30 27338 O 2532.99 1.67438 -0.695291 0
M  V30 27339 C 2533.04 -0.305386 -3.59305 0
M  V30 27340 O 2532.15 0.706689 -4.063 0
M  V30 27341 H 2531.49 -0.133081 -0.650527 0
M  V30 27342 H 2534.02 -1.00201 -1.78384 0
M  V30 27343 H 2534.03 -0.150069 -4.07724 0
M  V30 27344 H 2532.7 -1.2956 -3.95205 0
M  V30 27345 H 2531.28 0.517439 -3.69293 0
M  V30 27346 N 2533.46 1.49999 -0.483543 0
M  V30 27347 C 2534.69 2.065 0.0643533 0
M  V30 27348 C 2535.1 1.34617 1.32947 0
M  V30 27349 O 2534.44 0.412787 1.79002 0
M  V30 27350 C 2534.51 3.57201 0.40592 0
M  V30 27351 C 2534.17 4.50654 -0.758954 0
M  V30 27352 C 2535.17 4.93205 -1.64454 0
M  V30 27353 C 2532.85 4.9318 -0.952812 0
M  V30 27354 C 2534.85 5.77002 -2.70828 0
M  V30 27355 C 2532.53 5.76757 -2.01976 0
M  V30 27356 C 2533.53 6.18571 -2.89585 0
M  V30 27357 O 2533.22 7.00479 -3.94441 0
M  V30 27358 H 2532.95 0.675935 -0.00935974 0
M  V30 27359 H 2535.51 1.93992 -0.674994 0
M  V30 27360 H 2533.74 3.67655 1.19863 0
M  V30 27361 H 2535.42 3.96014 0.890364 0
M  V30 27362 H 2536.19 4.61009 -1.50651 0
M  V30 27363 H 2532.07 4.60147 -0.280328 0
M  V30 27364 H 2535.61 6.09559 -3.3924 0
M  V30 27365 H 2531.51 6.08366 -2.15781 0
M  V30 27366 H 2532.28 7.18754 -3.91581 0
M  V30 27367 N 2534.94 0.216646 1.56104 0
M  V30 27368 C 2535.85 -0.706943 2.23695 0
M  V30 27369 C 2536.87 -1.21763 1.24297 0
M  V30 27370 O 2538.04 -1.26027 1.57096 0
M  V30 27371 C 2535.11 -1.90028 2.89983 0
M  V30 27372 C 2534.17 -1.43205 4.04711 0
M  V30 27373 C 2533.4 -2.56851 4.67828 0
M  V30 27374 O 2533.63 -3.74867 4.2992 0
M  V30 27375 O 2532.56 -2.28333 5.56909 0
M  V30 27376 H 2536.39 -0.161181 3.03272 0
M  V30 27377 H 2533.97 -0.0135914 1.49394 0
M  V30 27378 H 2535.85 -2.59729 3.31841 0
M  V30 27379 H 2534.53 -2.43424 2.1337 0
M  V30 27380 H 2533.43 -0.703205 3.67431 0
M  V30 27381 H 2534.77 -0.94453 4.83052 0
M  V30 27382 N 2536.42 -1.57498 -0.0567885 0
M  V30 27383 C 2537.83 -1.76563 -0.606827 0
M  V30 27384 C 2538.18 -0.844125 -1.77113 0
M  V30 27385 O 2537.31 -0.0319291 -2.16376 0
M  V30 27386 C 2537.9 -3.20184 -1.1076 0
M  V30 27387 C 2536.46 -3.40542 -1.60338 0
M  V30 27388 C 2535.61 -2.72202 -0.529263 0
M  V30 27389 H 2538.56 -1.57793 0.16942 0
M  V30 27390 H 2538.58 -3.2517 -1.97597 0
M  V30 27391 H 2538.09 -3.87228 -0.259992 0
M  V30 27392 H 2536.19 -2.78633 -2.47374 0
M  V30 27393 H 2536.31 -4.49053 -1.66998 0
M  V30 27394 H 2534.67 -2.35181 -0.977852 0
M  V30 27395 H 2535.45 -3.41912 0.308412 0
M  V30 27396 N 2537.9 0.328509 -1.54138 0
M  V30 27397 C 2539.15 1.06453 -1.7132 0
M  V30 27398 C 2539.46 1.89333 -0.491142 0
M  V30 27399 O 2540.67 2.6599 -0.544207 0
M  V30 27400 C 2539.12 1.94209 -3.03003 0
M  V30 27401 C 2538.73 1.16464 -4.32597 0
M  V30 27402 C 2540.47 2.67577 -3.29549 0
M  V30 27403 C 2538.38 2.03337 -5.55345 0
M  V30 27404 H 2537.31 0.401143 -0.638436 0
M  V30 27405 H 2539.96 0.323074 -1.80634 0
M  V30 27406 H 2538.34 2.72234 -2.87584 0
M  V30 27407 H 2539.52 0.432445 -4.58766 0
M  V30 27408 H 2537.83 0.54799 -4.12778 0
M  V30 27409 H 2540.43 3.32872 -4.1845 0
M  V30 27410 H 2540.77 3.34951 -2.47212 0
M  V30 27411 H 2541.31 1.96617 -3.45813 0
M  V30 27412 H 2538.04 1.4048 -6.4027 0
M  V30 27413 H 2537.56 2.74303 -5.33402 0
M  V30 27414 H 2539.24 2.62039 -5.91561 0
M  V30 27415 N 2539.38 1.46127 0.590316 0
M  V30 27416 C 2540.6 1.546 1.37501 0
M  V30 27417 C 2541.02 0.18448 1.87897 0
M  V30 27418 O 2540.38 -0.816956 1.63193 0
M  V30 27419 C 2540.43 2.54458 2.56775 0
M  V30 27420 O 2540.15 3.85321 2.08469 0
M  V30 27421 C 2541.65 2.72798 3.49423 0
M  V30 27422 H 2538.87 0.523045 0.420316 0
M  V30 27423 H 2541.41 1.91468 0.71835 0
M  V30 27424 H 2539.57 2.20615 3.18446 0
M  V30 27425 H 2539.98 4.39605 2.8609 0
M  V30 27426 H 2541.46 3.46608 4.29613 0
M  V30 27427 H 2541.93 1.79436 4.00873 0
M  V30 27428 H 2542.54 3.07707 2.93592 0
M  V30 27429 N 2540.85 -0.834306 1.33705 0
M  V30 27430 C 2542.08 -1.62182 1.2847 0
M  V30 27431 C 2542.5 -1.88254 -0.143493 0
M  V30 27432 O 2541.85 -1.46592 -1.08706 0
M  V30 27433 C 2541.9 -2.96938 2.06179 0
M  V30 27434 O 2541.63 -2.7201 3.43427 0
M  V30 27435 C 2543.13 -3.91362 2.08208 0
M  V30 27436 H 2540.35 -0.504495 0.442409 0
M  V30 27437 H 2542.89 -1.03888 1.76146 0
M  V30 27438 H 2541.05 -3.51822 1.62173 0
M  V30 27439 H 2541.46 -3.57854 3.83459 0
M  V30 27440 H 2542.93 -4.83117 2.67025 0
M  V30 27441 H 2543.41 -4.25879 1.0735 0
M  V30 27442 H 2544.02 -3.42416 2.52252 0
M  V30 27443 N 2542.33 -1.17248 -1.05312 0
M  V30 27444 C 2543.56 -0.984625 -1.81969 0
M  V30 27445 C 2543.97 0.467134 -1.8293 0
M  V30 27446 O 2543.33 1.32436 -1.25566 0
M  V30 27447 C 2543.38 -1.51677 -3.28141 0
M  V30 27448 O 2543.1 -2.91169 -3.27342 0
M  V30 27449 C 2544.6 -1.37333 -4.21491 0
M  V30 27450 H 2541.82 -0.348421 -0.573449 0
M  V30 27451 H 2544.37 -1.55509 -1.32806 0
M  V30 27452 H 2542.52 -0.988367 -3.7458 0
M  V30 27453 H 2542.94 -3.15739 -4.18818 0
M  V30 27454 H 2544.41 -1.79384 -5.2204 0
M  V30 27455 H 2544.89 -0.320246 -4.38031 0
M  V30 27456 H 2545.49 -1.89185 -3.80906 0
M  V30 27457 N 2543.81 1.24015 -0.972531 0
M  V30 27458 C 2544.74 2.27508 -0.525588 0
M  V30 27459 C 2545.72 1.64385 0.437233 0
M  V30 27460 O 2546.91 1.91336 0.332309 0
M  V30 27461 C 2544.04 3.46831 0.180387 0
M  V30 27462 C 2542.99 4.22255 -0.698933 0
M  V30 27463 C 2542.32 5.3452 0.138809 0
M  V30 27464 C 2543.62 4.83073 -1.9859 0
M  V30 27465 H 2545.31 2.65145 -1.39063 0
M  V30 27466 H 2542.86 1.27458 -0.670113 0
M  V30 27467 H 2544.81 4.18371 0.504313 0
M  V30 27468 H 2543.53 3.08233 1.07981 0
M  V30 27469 H 2542.19 3.52521 -1.0062 0
M  V30 27470 H 2541.84 4.92162 1.03853 0
M  V30 27471 H 2541.54 5.85902 -0.446362 0
M  V30 27472 H 2543.06 6.08885 0.457297 0
M  V30 27473 H 2544.48 5.46662 -1.72725 0
M  V30 27474 H 2542.88 5.44708 -2.5182 0
M  V30 27475 H 2543.95 4.04257 -2.67776 0
M  V30 27476 N 2545.29 0.743226 1.38974 0
M  V30 27477 C 2546.24 0.108651 2.30544 0
M  V30 27478 C 2547.21 -0.720842 1.49643 0
M  V30 27479 O 2548.39 -0.679111 1.78305 0
M  V30 27480 C 2545.53 -0.786437 3.3602 0
M  V30 27481 C 2544.64 0.0565608 4.31963 0
M  V30 27482 C 2543.78 -0.840565 5.24507 0
M  V30 27483 C 2542.82 0.00669122 6.121 0
M  V30 27484 N 2541.95 -0.84682 6.96974 0
M  V30 27485 H 2546.79 0.895138 2.84238 0
M  V30 27486 H 2544.33 0.453072 1.39949 0
M  V30 27487 H 2546.29 -1.31992 3.9577 0
M  V30 27488 H 2544.92 -1.53882 2.83761 0
M  V30 27489 H 2543.97 0.707558 3.73762 0
M  V30 27490 H 2545.28 0.711315 4.93702 0
M  V30 27491 H 2544.44 -1.44159 5.89324 0
M  V30 27492 H 2543.18 -1.52908 4.6311 0
M  V30 27493 H 2542.18 0.620462 5.46288 0
M  V30 27494 H 2543.41 0.692111 6.75564 0
M  V30 27495 H 2541.35 -1.52048 6.38136 0
M  V30 27496 H 2541.27 -0.248731 7.55591 0
M  V30 27497 H 2542.54 -1.43315 7.66212 0
M  V30 27498 N 2546.77 -1.4974 0.491491 0
M  V30 27499 C 2548.18 -1.58923 0.146863 0
M  V30 27500 C 2548.38 -1.49769 -1.34802 0
M  V30 27501 O 2547.44 -1.3667 -2.12314 0
M  V30 27502 C 2548.75 -2.92071 0.715208 0
M  V30 27503 C 2550.3 -3.05514 0.680461 0
M  V30 27504 C 2550.77 -4.41266 1.2267 0
M  V30 27505 N 2552.27 -4.47733 1.18699 0
M  V30 27506 C 2553 -5.51204 1.57994 0
M  V30 27507 N 2552.5 -6.61827 2.04835 0
M  V30 27508 N 2554.29 -5.41863 1.49469 0
M  V30 27509 H 2546.44 -1.53933 1.4635 0
M  V30 27510 H 2548.7 -0.728631 0.606466 0
M  V30 27511 H 2548.41 -3.04308 1.76322 0
M  V30 27512 H 2548.28 -3.76816 0.170246 0
M  V30 27513 H 2550.67 -2.92912 -0.358692 0
M  V30 27514 H 2550.75 -2.22476 1.26246 0
M  V30 27515 H 2550.4 -4.54619 2.26459 0
M  V30 27516 H 2550.33 -5.22929 0.620729 0
M  V30 27517 H 2552.82 -3.68362 0.84367 0
M  V30 27518 H 2553.13 -7.36866 2.32914 0
M  V30 27519 H 2551.47 -6.62892 2.08803 0
M  V30 27520 H 2554.67 -4.54331 1.127 0
M  V30 27521 H 2554.84 -6.22378 1.80417 0
M  V30 27522 N 2548.24 -0.224922 -1.55987 0
M  V30 27523 C 2549.19 0.683812 -2.20437 0
M  V30 27524 C 2550.16 1.18781 -1.16104 0
M  V30 27525 O 2551.35 1.24629 -1.44472 0
M  V30 27526 C 2548.49 1.88486 -2.8908 0
M  V30 27527 C 2547.6 1.41944 -4.08014 0
M  V30 27528 C 2546.73 2.57832 -4.64431 0
M  V30 27529 C 2545.77 2.08043 -5.7566 0
M  V30 27530 N 2544.91 3.17216 -6.26353 0
M  V30 27531 H 2549.75 0.127488 -2.97727 0
M  V30 27532 H 2547.29 0.0511719 -1.47011 0
M  V30 27533 H 2549.25 2.59008 -3.27064 0
M  V30 27534 H 2547.88 2.41401 -2.14302 0
M  V30 27535 H 2546.93 0.609029 -3.75493 0
M  V30 27536 H 2548.24 1.01439 -4.88377 0
M  V30 27537 H 2547.39 3.36431 -5.04875 0
M  V30 27538 H 2546.13 3.01628 -3.83239 0
M  V30 27539 H 2545.14 1.27907 -5.34715 0
M  V30 27540 H 2546.36 1.65243 -6.58689 0
M  V30 27541 H 2544.31 3.60488 -5.48074 0
M  V30 27542 H 2544.23 2.80973 -7.01848 0
M  V30 27543 H 2545.49 3.95941 -6.71454 0
M  V30 27544 N 2549.72 1.57526 0.0484352 0
M  V30 27545 C 2550.67 2.01734 1.06243 0
M  V30 27546 C 2551.66 0.903268 1.33154 0
M  V30 27547 O 2552.85 1.16719 1.33063 0
M  V30 27548 C 2549.98 2.48425 2.36939 0
M  V30 27549 C 2549.06 3.66614 2.13202 0
M  V30 27550 N 2549.45 4.80006 1.59462 0
M  V30 27551 C 2547.75 3.73614 2.43574 0
M  V30 27552 C 2548.45 5.61738 1.51082 0
M  V30 27553 N 2547.43 5.06273 1.97961 0
M  V30 27554 H 2551.23 2.86833 0.640625 0
M  V30 27555 H 2548.75 1.60384 0.255105 0
M  V30 27556 H 2550.74 2.78347 3.10369 0
M  V30 27557 H 2549.4 1.64723 2.79815 0
M  V30 27558 H 2550.41 5.01833 1.27999 0
M  V30 27559 H 2547.09 3.00674 2.89657 0
M  V30 27560 H 2548.48 6.62803 1.10187 0
M  V30 27561 N 2551.2 -0.32033 1.5431 0
M  V30 27562 C 2552.11 -1.4173 1.86948 0
M  V30 27563 C 2553.13 -1.56441 0.761717 0
M  V30 27564 O 2554.3 -1.71475 1.05632 0
M  V30 27565 C 2551.37 -2.76397 2.09297 0
M  V30 27566 C 2550.43 -2.70835 3.33087 0
M  V30 27567 C 2549.66 -3.99079 3.5436 0
M  V30 27568 O 2549.88 -4.97503 2.79011 0
M  V30 27569 O 2548.82 -4.02142 4.47845 0
M  V30 27570 H 2552.64 -1.17057 2.80234 0
M  V30 27571 H 2550.23 -0.514649 1.40256 0
M  V30 27572 H 2552.11 -3.56109 2.25309 0
M  V30 27573 H 2550.79 -3.00954 1.19199 0
M  V30 27574 H 2549.69 -1.89663 3.22458 0
M  V30 27575 H 2551.03 -2.51232 4.23253 0
M  V30 27576 N 2552.68 -1.46438 -0.582558 0
M  V30 27577 C 2553.59 -1.59598 -1.71946 0
M  V30 27578 C 2554.6 -0.479473 -1.67263 0
M  V30 27579 O 2555.78 -0.743612 -1.87169 0
M  V30 27580 C 2552.85 -1.58304 -3.08449 0
M  V30 27581 C 2551.91 -2.81188 -3.24395 0
M  V30 27582 C 2551.14 -2.79945 -4.54386 0
M  V30 27583 O 2551.36 -1.88699 -5.38283 0
M  V30 27584 O 2550.3 -3.71489 -4.73582 0
M  V30 27585 H 2554.12 -2.55747 -1.6379 0
M  V30 27586 H 2551.71 -1.29233 -0.74962 0
M  V30 27587 H 2553.59 -1.60278 -3.89729 0
M  V30 27588 H 2552.26 -0.65315 -3.17042 0
M  V30 27589 H 2551.17 -2.84767 -2.42608 0
M  V30 27590 H 2552.5 -3.73386 -3.20693 0
M  V30 27591 N 2554.16 0.827204 -1.34146 0
M  V30 27592 C 2555.4 1.58552 -1.26448 0
M  V30 27593 C 2555.74 1.93486 0.166366 0
M  V30 27594 O 2555.01 1.59669 1.11067 0
M  V30 27595 C 2555.29 2.88786 -2.15116 0
M  V30 27596 C 2555.15 2.60459 -3.66717 0
M  V30 27597 C 2556.47 3.9032 -2.03318 0
M  V30 27598 H 2553.58 0.575276 -0.46068 0
M  V30 27599 H 2556.23 0.95324 -1.64357 0
M  V30 27600 H 2554.38 3.42745 -1.82916 0
M  V30 27601 H 2556.05 2.12842 -4.09263 0
M  V30 27602 H 2554.29 1.93971 -3.88018 0
M  V30 27603 H 2554.96 3.5331 -4.24118 0
M  V30 27604 H 2557.44 3.45702 -2.3158 0
M  V30 27605 H 2556.31 4.79256 -2.6759 0
M  V30 27606 H 2556.58 4.30435 -1.00887 0
M  V30 27607 N 2555.63 1.17805 1.04688 0
M  V30 27608 C 2556.87 0.980455 1.7935 0
M  V30 27609 C 2557.24 -0.481926 1.85853 0
M  V30 27610 O 2558.44 -0.798764 2.56658 0
M  V30 27611 C 2556.71 1.60995 3.19085 0
M  V30 27612 S 2558.27 1.55926 4.10162 0
M  V30 27613 H 2555.09 0.352222 0.617625 0
M  V30 27614 H 2557.69 1.49839 1.25572 0
M  V30 27615 H 2556.39 2.66666 3.11957 0
M  V30 27616 H 2555.92 1.09204 3.77939 0
M  V30 27617 H 2557.94 0.570772 4.92906 0
M  V30 27618 N 2557.11 -1.23497 0.979094 0
M  V30 27619 C 2558.08 -2.23147 0.523283 0
M  V30 27620 C 2559.08 -1.56089 -0.386379 0
M  V30 27621 O 2560.27 -1.73265 -0.180252 0
M  V30 27622 C 2557.4 -3.40049 -0.240679 0
M  V30 27623 H 2558.59 -2.64986 1.40436 0
M  V30 27624 H 2556.14 -1.36308 0.764848 0
M  V30 27625 H 2556.88 -3.03664 -1.13836 0
M  V30 27626 H 2556.66 -3.89927 0.412275 0
M  V30 27627 H 2558.15 -4.13986 -0.548225 0
M  V30 27628 N 2558.59 -0.750586 -1.38578 0
M  V30 27629 C 2559.84 -0.302207 -1.99423 0
M  V30 27630 C 2560.15 1.1215 -1.60255 0
M  V30 27631 O 2561.36 1.67019 -2.14049 0
M  V30 27632 C 2559.82 -0.48937 -3.56557 0
M  V30 27633 C 2559.42 -1.92196 -4.04678 0
M  V30 27634 C 2561.17 -0.103553 -4.24374 0
M  V30 27635 C 2559.07 -2.05785 -5.54443 0
M  V30 27636 H 2558 -0.109243 -0.746044 0
M  V30 27637 H 2560.66 -0.926698 -1.58381 0
M  V30 27638 H 2559.04 0.204259 -3.95473 0
M  V30 27639 H 2560.21 -2.64882 -3.7706 0
M  V30 27640 H 2558.53 -2.26242 -3.49576 0
M  V30 27641 H 2561.12 -0.183881 -5.34384 0
M  V30 27642 H 2561.47 0.943409 -4.05469 0
M  V30 27643 H 2562 -0.748923 -3.90687 0
M  V30 27644 H 2558.74 -3.08725 -5.78247 0
M  V30 27645 H 2558.26 -1.37556 -5.83814 0
M  V30 27646 H 2559.94 -1.84637 -6.20095 0
M  V30 27647 N 2560.07 1.49477 -0.499425 0
M  V30 27648 C 2561.02 2.29097 0.279841 0
M  V30 27649 C 2561.99 1.35422 0.961781 0
M  V30 27650 O 2563.17 1.64377 0.968748 0
M  V30 27651 C 2560.31 3.18053 1.33926 0
M  V30 27652 C 2559.42 4.26784 0.669258 0
M  V30 27653 C 2558.56 5.02958 1.70899 0
M  V30 27654 C 2557.6 6.03529 1.02077 0
M  V30 27655 N 2556.74 6.72874 2.00462 0
M  V30 27656 H 2561.58 2.9523 -0.405369 0
M  V30 27657 H 2559.11 1.45568 -0.211752 0
M  V30 27658 H 2561.07 3.68002 1.96547 0
M  V30 27659 H 2559.7 2.53908 1.99326 0
M  V30 27660 H 2558.75 3.80335 -0.0701903 0
M  V30 27661 H 2560.06 4.98637 0.127416 0
M  V30 27662 H 2559.22 5.56768 2.41028 0
M  V30 27663 H 2557.96 4.30875 2.28468 0
M  V30 27664 H 2556.96 5.48952 0.305242 0
M  V30 27665 H 2558.19 6.77597 0.451589 0
M  V30 27666 H 2556.13 6.03563 2.56997 0
M  V30 27667 H 2556.05 7.40697 1.5134 0
M  V30 27668 H 2557.32 7.31288 2.69885 0
M  V30 27669 N 2561.55 0.233191 1.55865 0
M  V30 27670 C 2562.8 -0.395755 1.97779 0
M  V30 27671 C 2563.11 -1.60064 1.12422 0
M  V30 27672 O 2564.32 -2.29986 1.44287 0
M  V30 27673 C 2562.77 -0.755494 3.51881 0
M  V30 27674 C 2562.38 0.42723 4.45958 0
M  V30 27675 C 2564.12 -1.34939 4.02482 0
M  V30 27676 C 2562.03 0.0444083 5.91383 0
M  V30 27677 H 2560.96 -0.151637 0.738595 0
M  V30 27678 H 2563.61 0.331243 1.80486 0
M  V30 27679 H 2561.99 -1.54024 3.64819 0
M  V30 27680 H 2563.17 1.20469 4.44774 0
M  V30 27681 H 2561.48 0.935139 4.05764 0
M  V30 27682 H 2564.08 -1.64891 5.0864 0
M  V30 27683 H 2564.42 -2.26919 3.49018 0
M  V30 27684 H 2564.96 -0.627841 3.92814 0
M  V30 27685 H 2561.69 0.930988 6.48855 0
M  V30 27686 H 2561.21 -0.697133 5.95735 0
M  V30 27687 H 2562.89 -0.378221 6.45894 0
M  V30 27688 N 2563.03 -1.57549 -0.0400806 0
M  V30 27689 C 2563.96 -2.02614 -1.07146 0
M  V30 27690 C 2564.97 -0.937109 -1.33124 0
M  V30 27691 O 2566.16 -1.21458 -1.30806 0
M  V30 27692 C 2563.26 -2.37705 -2.41557 0
M  V30 27693 C 2562.43 -3.68852 -2.3509 0
M  V30 27694 C 2561.49 -3.91255 -3.5186 0
M  V30 27695 O 2560.52 -4.62453 -3.31852 0
M  V30 27696 N 2561.72 -3.36043 -4.73345 0
M  V30 27697 H 2564.48 -2.91709 -0.687434 0
M  V30 27698 H 2562.05 -1.60283 -0.22822 0
M  V30 27699 H 2564.04 -2.49839 -3.18375 0
M  V30 27700 H 2562.61 -1.54337 -2.71844 0
M  V30 27701 H 2561.83 -3.67175 -1.43443 0
M  V30 27702 H 2563.12 -4.54905 -2.279 0
M  V30 27703 H 2562.51 -2.78313 -4.92502 0
M  V30 27704 H 2561.07 -3.53575 -5.47566 0
M  V30 27705 N 2564.5 0.312142 -1.54478 0
M  V30 27706 C 2565.92 0.65716 -1.45443 0
M  V30 27707 C 2566.12 1.91181 -0.636563 0
M  V30 27708 O 2565.18 2.52112 -0.139859 0
M  V30 27709 C 2566.49 0.82053 -2.89288 0
M  V30 27710 C 2568.04 0.917136 -2.99262 0
M  V30 27711 C 2568.51 1.11259 -4.44281 0
M  V30 27712 N 2570 1.17906 -4.47942 0
M  V30 27713 C 2570.74 1.34838 -5.57321 0
M  V30 27714 N 2570.23 1.4874 -6.76645 0
M  V30 27715 N 2572.03 1.37637 -5.44988 0
M  V30 27716 H 2564.18 -0.512349 -2.06128 0
M  V30 27717 H 2566.44 -0.167501 -0.933085 0
M  V30 27718 H 2566.15 -0.0303223 -3.51687 0
M  V30 27719 H 2566.02 1.71292 -3.36064 0
M  V30 27720 H 2568.41 1.75848 -2.36984 0
M  V30 27721 H 2568.49 0.000967605 -2.558 0
M  V30 27722 H 2568.13 0.276051 -5.07149 0
M  V30 27723 H 2568.06 2.04281 -4.85363 0
M  V30 27724 H 2570.55 1.0856 -3.61971 0
M  V30 27725 H 2570.87 1.61384 -7.55761 0
M  V30 27726 H 2569.21 1.45816 -6.79531 0
M  V30 27727 H 2572.4 1.2638 -4.50717 0
M  V30 27728 H 2572.58 1.5049 -6.30283 0
M  V30 27729 N 2565.98 1.46745 0.574784 0
M  V30 27730 C 2566.94 1.57481 1.66531 0
M  V30 27731 C 2567.94 0.45129 1.54337 0
M  V30 27732 O 2569.13 0.715841 1.58812 0
M  V30 27733 C 2566.27 1.50264 3.05996 0
M  V30 27734 H 2567.46 2.54676 1.58367 0
M  V30 27735 H 2565.01 1.34673 0.793278 0
M  V30 27736 H 2565.75 0.543781 3.19708 0
M  V30 27737 H 2565.53 2.31787 3.16255 0
M  V30 27738 H 2567.02 1.60879 3.85367 0
M  V30 27739 N 2567.46 -0.820078 1.34583 0
M  V30 27740 C 2568.69 -1.60578 1.29994 0
M  V30 27741 C 2569.1 -1.8877 -0.127555 0
M  V30 27742 O 2568.44 -1.48167 -1.08592 0
M  V30 27743 C 2568.5 -2.97006 2.02553 0
M  V30 27744 C 2568.17 -2.91695 3.51799 0
M  V30 27745 C 2569.16 -2.66079 4.46652 0
M  V30 27746 C 2566.85 -3.11238 3.94254 0
M  V30 27747 C 2568.84 -2.60061 5.81934 0
M  V30 27748 C 2566.53 -3.04844 5.29635 0
M  V30 27749 C 2567.53 -2.79289 6.23287 0
M  V30 27750 O 2567.22 -2.72834 7.56186 0
M  V30 27751 H 2566.95 -0.505748 0.448548 0
M  V30 27752 H 2569.5 -1.02819 1.77813 0
M  V30 27753 H 2567.73 -3.56695 1.49351 0
M  V30 27754 H 2569.42 -3.58037 1.91217 0
M  V30 27755 H 2570.19 -2.50713 4.15172 0
M  V30 27756 H 2566.07 -3.30144 3.21755 0
M  V30 27757 H 2569.61 -2.40035 6.55003 0
M  V30 27758 H 2565.51 -3.19764 5.60733 0
M  V30 27759 H 2566.27 -2.8854 7.65955 0
M  V30 27760 N 2568.94 -1.18359 -1.04062 0
M  V30 27761 C 2570.35 -0.933281 -1.29468 0
M  V30 27762 C 2570.55 0.401134 -1.97467 0
M  V30 27763 O 2569.61 1.13546 -2.2553 0
M  V30 27764 C 2570.92 -2.09886 -2.15333 0
M  V30 27765 C 2572.47 -2.13716 -2.2868 0
M  V30 27766 C 2572.95 -3.29692 -3.17911 0
M  V30 27767 N 2574.44 -3.29553 -3.25499 0
M  V30 27768 C 2575.17 -4.15933 -3.94699 0
M  V30 27769 N 2574.67 -5.12447 -4.6623 0
M  V30 27770 N 2576.46 -4.03847 -3.90978 0
M  V30 27771 H 2568.61 -2.04233 -0.583323 0
M  V30 27772 H 2570.87 -0.892393 -0.319905 0
M  V30 27773 H 2570.58 -3.06392 -1.72676 0
M  V30 27774 H 2570.45 -2.05953 -3.16012 0
M  V30 27775 H 2572.84 -1.17788 -2.70573 0
M  V30 27776 H 2572.92 -2.21707 -1.27592 0
M  V30 27777 H 2572.57 -4.25891 -2.76729 0
M  V30 27778 H 2572.5 -3.18937 -4.19031 0
M  V30 27779 H 2574.99 -2.59682 -2.74543 0
M  V30 27780 H 2575.3 -5.74731 -5.16628 0
M  V30 27781 H 2573.65 -5.16406 -4.65134 0
M  V30 27782 H 2576.84 -3.27733 -3.34228 0
M  V30 27783 H 2577.01 -4.71383 -4.44637 0
M  V30 27784 N 2570.42 1.22976 -0.98563 0
M  V30 27785 C 2571.83 1.43667 -0.695129 0
M  V30 27786 C 2572.03 1.87545 0.736833 0
M  V30 27787 O 2571.09 2.02475 1.50864 0
M  V30 27788 C 2572.4 2.48409 -1.69451 0
M  V30 27789 C 2573.95 2.62216 -1.70914 0
M  V30 27790 C 2574.42 3.70173 -2.69696 0
M  V30 27791 N 2575.91 3.77622 -2.68246 0
M  V30 27792 C 2576.65 4.60727 -3.41347 0
M  V30 27793 N 2576.15 5.47882 -4.24024 0
M  V30 27794 N 2577.94 4.54971 -3.30087 0
M  V30 27795 H 2570.09 0.927982 -1.91056 0
M  V30 27796 H 2572.35 0.469522 -0.823561 0
M  V30 27797 H 2572.06 2.23097 -2.71883 0
M  V30 27798 H 2571.93 3.46887 -1.48153 0
M  V30 27799 H 2574.32 2.86876 -0.691835 0
M  V30 27800 H 2574.4 1.64037 -1.96279 0
M  V30 27801 H 2574.04 3.46261 -3.71572 0
M  V30 27802 H 2573.97 4.67905 -2.41604 0
M  V30 27803 H 2576.47 3.15343 -2.08249 0
M  V30 27804 H 2576.78 6.08299 -4.76646 0
M  V30 27805 H 2575.12 5.47488 -4.28114 0
M  V30 27806 H 2578.31 3.85905 -2.64944 0
M  V30 27807 H 2578.49 5.19509 -3.87317 0
M  V30 27808 N 2571.89 0.757924 1.38178 0
M  V30 27809 C 2572.84 0.108714 2.27741 0
M  V30 27810 C 2573.83 -0.688683 1.45417 0
M  V30 27811 O 2575.02 -0.553926 1.68109 0
M  V30 27812 C 2572.15 -0.780308 3.34314 0
M  V30 27813 C 2571.23 0.0241723 4.24093 0
M  V30 27814 N 2571.63 1.0628 4.94508 0
M  V30 27815 C 2569.92 -0.20197 4.45542 0
M  V30 27816 C 2570.62 1.54989 5.60672 0
M  V30 27817 N 2569.6 0.864442 5.36683 0
M  V30 27818 H 2573.4 0.90412 2.79648 0
M  V30 27819 H 2570.92 0.594373 1.51132 0
M  V30 27820 H 2572.91 -1.26107 3.9737 0
M  V30 27821 H 2571.57 -1.57462 2.83965 0
M  V30 27822 H 2572.58 1.44468 4.97342 0
M  V30 27823 H 2569.26 -0.969278 4.06093 0
M  V30 27824 H 2570.65 2.41528 6.26988 0
M  V30 27825 N 2573.37 -1.4921 0.507345 0
M  V30 27826 C 2574.3 -2.32082 -0.256899 0
M  V30 27827 C 2575.28 -1.40654 -0.956584 0
M  V30 27828 O 2576.47 -1.69559 -0.946759 0
M  V30 27829 C 2573.6 -3.21321 -1.31797 0
M  V30 27830 C 2572.55 -4.21593 -0.737781 0
M  V30 27831 C 2571.88 -4.9981 -1.89983 0
M  V30 27832 C 2573.18 -5.21573 0.275417 0
M  V30 27833 H 2574.87 -2.96225 0.43485 0
M  V30 27834 H 2572.42 -1.42452 0.210571 0
M  V30 27835 H 2574.37 -3.78111 -1.86038 0
M  V30 27836 H 2573.1 -2.55133 -2.03899 0
M  V30 27837 H 2571.75 -3.65957 -0.217061 0
M  V30 27838 H 2571.4 -4.30065 -2.60869 0
M  V30 27839 H 2571.1 -5.67662 -1.51767 0
M  V30 27840 H 2572.63 -5.59446 -2.44647 0
M  V30 27841 H 2574.04 -5.7302 -0.179093 0
M  V30 27842 H 2572.44 -5.97351 0.573754 0
M  V30 27843 H 2573.51 -4.70094 1.18912 0
M  V30 27844 N 2574.85 -0.241454 -1.55739 0
M  V30 27845 C 2575.78 0.654682 -2.24134 0
M  V30 27846 C 2576.76 1.18558 -1.21976 0
M  V30 27847 O 2577.95 1.22592 -1.50615 0
M  V30 27848 C 2575.08 1.85418 -2.93662 0
M  V30 27849 C 2574.03 1.45629 -4.02463 0
M  V30 27850 C 2573.36 2.73618 -4.59388 0
M  V30 27851 C 2574.66 0.631415 -5.18469 0
M  V30 27852 H 2576.35 0.0843827 -2.99281 0
M  V30 27853 H 2573.9 0.0391454 -1.43947 0
M  V30 27854 H 2575.85 2.4867 -3.40208 0
M  V30 27855 H 2574.57 2.44977 -2.15995 0
M  V30 27856 H 2573.23 0.84714 -3.56678 0
M  V30 27857 H 2572.88 3.31363 -3.78428 0
M  V30 27858 H 2572.58 2.47721 -5.3283 0
M  V30 27859 H 2574.1 3.37777 -5.08664 0
M  V30 27860 H 2575.52 1.1681 -5.61274 0
M  V30 27861 H 2573.92 0.468726 -5.98267 0
M  V30 27862 H 2574.99 -0.357591 -4.8358 0
M  V30 27863 N 2576.33 1.57568 0.0317248 0
M  V30 27864 C 2577.26 2.03179 1.0607 0
M  V30 27865 C 2578.27 0.944156 1.32626 0
M  V30 27866 O 2579.46 1.2215 1.3016 0
M  V30 27867 C 2576.56 2.38983 2.40293 0
M  V30 27868 C 2575.74 3.70093 2.3313 0
M  V30 27869 C 2574.79 3.93116 3.49781 0
M  V30 27870 O 2573.82 4.64206 3.29395 0
M  V30 27871 N 2575.02 3.38549 4.71556 0
M  V30 27872 H 2577.79 2.9207 0.671954 0
M  V30 27873 H 2575.35 1.60402 0.219717 0
M  V30 27874 H 2577.34 2.51524 3.17045 0
M  V30 27875 H 2575.91 1.55776 2.71021 0
M  V30 27876 H 2575.13 3.67931 1.41494 0
M  V30 27877 H 2576.42 4.56108 2.25485 0
M  V30 27878 H 2575.82 2.80921 4.91019 0
M  V30 27879 H 2574.37 3.56474 5.45683 0
M  V30 27880 N 2577.81 -0.303946 1.54641 0
M  V30 27881 C 2579.22 -0.649437 1.45789 0
M  V30 27882 C 2579.42 -1.90841 0.646693 0
M  V30 27883 O 2578.48 -2.52035 0.153227 0
M  V30 27884 C 2579.79 -0.805176 2.8972 0
M  V30 27885 C 2581.34 -0.901252 2.99744 0
M  V30 27886 C 2581.81 -1.08901 4.44865 0
M  V30 27887 N 2583.31 -1.15529 4.48561 0
M  V30 27888 C 2584.04 -1.31881 5.58028 0
M  V30 27889 N 2583.54 -1.45149 6.77424 0
M  V30 27890 N 2585.33 -1.34745 5.45711 0
M  V30 27891 H 2577.48 0.523273 2.05853 0
M  V30 27892 H 2579.74 0.172447 0.932183 0
M  V30 27893 H 2579.45 0.0489726 3.51666 0
M  V30 27894 H 2579.32 -1.69507 3.36967 0
M  V30 27895 H 2581.71 -1.74589 2.37913 0
M  V30 27896 H 2581.79 0.0125981 2.55797 0
M  V30 27897 H 2581.44 -0.249152 5.07289 0
M  V30 27898 H 2581.37 -2.01704 4.86439 0
M  V30 27899 H 2583.86 -1.06639 3.62542 0
M  V30 27900 H 2584.17 -1.57373 7.56607 0
M  V30 27901 H 2582.51 -1.42211 6.80295 0
M  V30 27902 H 2585.71 -1.23988 4.51381 0
M  V30 27903 H 2585.88 -1.47146 6.31072 0
M  V30 27904 N 2579.28 -1.47047 -0.566994 0
M  V30 27905 C 2580.51 -1.57011 -1.35508 0
M  V30 27906 C 2580.93 -0.217292 -1.86841 0
M  V30 27907 O 2580.29 0.805239 -1.62436 0
M  V30 27908 C 2580.34 -2.59125 -2.50772 0
M  V30 27909 O 2579.44 -2.13717 -3.52702 0
M  V30 27910 H 2578.79 -0.527787 -0.40291 0
M  V30 27911 H 2581.32 -1.92749 -0.686207 0
M  V30 27912 H 2581.33 -2.79234 -2.97476 0
M  V30 27913 H 2580 -3.57357 -2.12765 0
M  V30 27914 H 2578.58 -2.03664 -3.1237 0
M  V30 27915 N 2580.76 0.812929 -1.35016 0
M  V30 27916 C 2581.7 1.92999 -1.21764 0
M  V30 27917 C 2582.67 1.62248 -0.106969 0
M  V30 27918 O 2583.86 1.86499 -0.273924 0
M  V30 27919 C 2580.98 3.27244 -0.873461 0
M  V30 27920 C 2580.03 3.76949 -1.9953 0
M  V30 27921 S 2580.86 3.9551 -3.61016 0
M  V30 27922 C 2582.02 5.32666 -3.28661 0
M  V30 27923 H 2582.25 2.03945 -2.16319 0
M  V30 27924 H 2579.79 0.96961 -1.20158 0
M  V30 27925 H 2581.74 4.048 -0.681681 0
M  V30 27926 H 2580.4 3.14054 0.0539158 0
M  V30 27927 H 2579.6 4.7416 -1.70847 0
M  V30 27928 H 2579.2 3.0637 -2.14508 0
M  V30 27929 H 2581.49 6.16435 -2.81095 0
M  V30 27930 H 2582.43 5.66339 -4.25049 0
M  V30 27931 H 2582.84 4.98651 -2.64589 0
M  V30 27932 N 2582.24 1.18909 1.03433 0
M  V30 27933 C 2583.19 0.921874 2.11589 0
M  V30 27934 C 2584.16 -0.141197 1.65499 0
M  V30 27935 O 2585.34 -0.000209291 1.908 0
M  V30 27936 C 2582.48 0.460676 3.42011 0
M  V30 27937 C 2581.6 1.58989 4.01679 0
M  V30 27938 C 2580.73 1.08078 5.20089 0
M  V30 27939 C 2579.77 2.18426 5.71801 0
M  V30 27940 N 2578.91 1.68861 6.81491 0
M  V30 27941 H 2583.75 1.84795 2.33784 0
M  V30 27942 H 2581.28 0.921393 1.14668 0
M  V30 27943 H 2583.24 0.174715 4.16834 0
M  V30 27944 H 2581.87 -0.42841 3.19945 0
M  V30 27945 H 2580.92 1.99119 3.24123 0
M  V30 27946 H 2582.24 2.42148 4.3608 0
M  V30 27947 H 2581.39 0.749721 6.0205 0
M  V30 27948 H 2580.13 0.218857 4.87209 0
M  V30 27949 H 2579.13 2.52368 4.88457 0
M  V30 27950 H 2580.36 3.05064 6.06723 0
M  V30 27951 H 2578.3 0.849686 6.50474 0
M  V30 27952 H 2578.22 2.45613 7.1499 0
M  V30 27953 H 2579.49 1.38702 7.67061 0
M  V30 27954 N 2583.72 -1.22452 0.992137 0
M  V30 27955 C 2584.65 -2.23678 0.500063 0
M  V30 27956 C 2585.66 -1.57696 -0.404435 0
M  V30 27957 O 2586.85 -1.77299 -0.206691 0
M  V30 27958 C 2583.95 -3.37617 -0.294651 0
M  V30 27959 C 2583.13 -4.33185 0.605799 0
M  V30 27960 C 2582.18 -5.26021 -0.137077 0
M  V30 27961 O 2581.21 -5.67196 0.477263 0
M  V30 27962 N 2582.41 -5.62874 -1.4196 0
M  V30 27963 H 2585.18 -2.66528 1.3705 0
M  V30 27964 H 2582.74 -1.36744 0.866765 0
M  V30 27965 H 2584.73 -3.96709 -0.80026 0
M  V30 27966 H 2583.3 -2.93856 -1.06618 0
M  V30 27967 H 2582.52 -3.72423 1.29209 0
M  V30 27968 H 2583.81 -4.9398 1.21905 0
M  V30 27969 H 2583.21 -5.31393 -1.94006 0
M  V30 27970 H 2581.76 -6.24387 -1.87041 0
M  V30 27971 N 2585.2 -0.765242 -1.37774 0
M  V30 27972 C 2586.16 -0.153456 -2.28686 0
M  V30 27973 C 2587.16 0.635055 -1.47728 0
M  V30 27974 O 2588.35 0.459602 -1.68028 0
M  V30 27975 C 2585.48 0.790436 -3.3161 0
M  V30 27976 H 2586.67 -0.954773 -2.84296 0
M  V30 27977 H 2584.23 -0.533016 -1.46931 0
M  V30 27978 H 2584.96 1.617 -2.81111 0
M  V30 27979 H 2584.75 0.227279 -3.91441 0
M  V30 27980 H 2586.24 1.21412 -3.99561 0
M  V30 27981 N 2586.67 1.48939 -0.515251 0
M  V30 27982 C 2587.9 2.07388 0.0226906 0
M  V30 27983 C 2588.32 1.37124 1.28758 0
M  V30 27984 O 2587.68 0.432461 1.76067 0
M  V30 27985 C 2587.73 3.59768 0.244806 0
M  V30 27986 O 2586.83 3.90819 1.3166 0
M  V30 27987 H 2586.18 0.663201 -0.0325623 0
M  V30 27988 H 2588.71 1.91552 -0.718951 0
M  V30 27989 H 2588.72 4.05261 0.471979 0
M  V30 27990 H 2587.39 4.10315 -0.679266 0
M  V30 27991 H 2585.97 3.57122 1.07325 0
M  V30 27992 N 2588.15 0.249709 1.55609 0
M  V30 27993 C 2589.38 -0.377768 2.03117 0
M  V30 27994 C 2589.79 -1.51879 1.12824 0
M  V30 27995 O 2589.13 -1.83198 0.135653 0
M  V30 27996 C 2589.2 -0.944632 3.46867 0
M  V30 27997 C 2588.86 0.0645062 4.56954 0
M  V30 27998 C 2589.86 0.875047 5.12483 0
M  V30 27999 C 2587.54 0.191408 5.01935 0
M  V30 28000 C 2589.54 1.79892 6.11488 0
M  V30 28001 C 2587.22 1.11878 6.00772 0
M  V30 28002 C 2588.22 1.92106 6.55427 0
M  V30 28003 O 2587.91 2.8328 7.52335 0
M  V30 28004 H 2587.64 -0.0935843 0.669491 0
M  V30 28005 H 2590.2 0.372001 2.02003 0
M  V30 28006 H 2588.43 -1.74401 3.45139 0
M  V30 28007 H 2590.11 -1.48249 3.77859 0
M  V30 28008 H 2590.88 0.787607 4.78562 0
M  V30 28009 H 2586.76 -0.422991 4.59055 0
M  V30 28010 H 2590.3 2.42555 6.54074 0
M  V30 28011 H 2586.2 1.20714 6.34112 0
M  V30 28012 H 2586.97 2.77673 7.69961 0
M  V30 28013 N 2589.63 -1.57583 -0.0233682 0
M  V30 28014 C 2590.56 -2.02325 -1.05546 0
M  V30 28015 C 2591.54 -0.908649 -1.34842 0
M  V30 28016 O 2592.73 -1.17494 -1.47402 0
M  V30 28017 C 2589.85 -2.40112 -2.38881 0
M  V30 28018 C 2588.9 -3.62071 -2.25404 0
M  V30 28019 S 2589.73 -5.10973 -1.60208 0
M  V30 28020 C 2590.89 -5.52008 -2.95022 0
M  V30 28021 H 2591.12 -2.8955 -0.674384 0
M  V30 28022 H 2588.65 -1.52624 -0.233523 0
M  V30 28023 H 2590.61 -2.62553 -3.15557 0
M  V30 28024 H 2589.27 -1.53328 -2.74134 0
M  V30 28025 H 2588.47 -3.86185 -3.23848 0
M  V30 28026 H 2588.07 -3.39511 -1.5687 0
M  V30 28027 H 2590.36 -5.5304 -3.91347 0
M  V30 28028 H 2591.3 -6.52251 -2.75635 0
M  V30 28029 H 2591.71 -4.79522 -2.97857 0
M  V30 28030 N 2591.11 0.29574 -1.548 0
M  V30 28031 C 2592.34 1.04759 -1.78071 0
M  V30 28032 C 2592.75 1.81244 -0.542879 0
M  V30 28033 O 2592.09 1.76849 0.49702 0
M  V30 28034 C 2592.15 2.07056 -2.93885 0
M  V30 28035 C 2591.82 1.49717 -4.3178 0
M  V30 28036 C 2592.81 0.924491 -5.11614 0
M  V30 28037 C 2590.5 1.53122 -4.78392 0
M  V30 28038 C 2592.49 0.393483 -6.36184 0
M  V30 28039 C 2590.18 0.996341 -6.02923 0
M  V30 28040 C 2591.18 0.428449 -6.81655 0
M  V30 28041 O 2590.87 -0.0983006 -8.0384 0
M  V30 28042 H 2590.6 0.316216 -0.597481 0
M  V30 28043 H 2593.15 0.338938 -2.02584 0
M  V30 28044 H 2591.38 2.81616 -2.65008 0
M  V30 28045 H 2593.07 2.68184 -3.04683 0
M  V30 28046 H 2593.84 0.891052 -4.76744 0
M  V30 28047 H 2589.72 1.96263 -4.17135 0
M  V30 28048 H 2593.26 -0.050424 -6.97582 0
M  V30 28049 H 2589.16 1.02694 -6.37279 0
M  V30 28050 H 2589.92 0.0145016 -8.18499 0
M  V30 28051 N 2592.59 1.47346 0.559187 0
M  V30 28052 C 2594 1.32821 0.88492 0
M  V30 28053 C 2594.2 0.317208 1.98988 0
M  V30 28054 O 2593.26 -0.271967 2.51031 0
M  V30 28055 C 2594.57 2.72095 1.28003 0
M  V30 28056 C 2596.12 2.80365 1.39156 0
M  V30 28057 C 2596.6 4.20276 1.82023 0
M  V30 28058 N 2598.09 4.22808 1.89177 0
M  V30 28059 C 2598.82 5.27976 2.2367 0
M  V30 28060 N 2598.32 6.43452 2.56791 0
M  V30 28061 N 2600.11 5.15353 2.24427 0
M  V30 28062 H 2592.26 2.11716 -0.170341 0
M  V30 28063 H 2594.52 0.947903 -0.0135413 0
M  V30 28064 H 2594.23 3.47499 0.541966 0
M  V30 28065 H 2594.1 3.03737 2.2366 0
M  V30 28066 H 2596.49 2.05235 2.12044 0
M  V30 28067 H 2596.57 2.5238 0.416916 0
M  V30 28068 H 2596.22 4.9591 1.09706 0
M  V30 28069 H 2596.15 4.45684 2.80488 0
M  V30 28070 H 2598.64 3.395 1.65976 0
M  V30 28071 H 2598.95 7.19459 2.82131 0
M  V30 28072 H 2597.3 6.46775 2.54375 0
M  V30 28073 H 2600.49 4.24167 1.9799 0
M  V30 28074 H 2600.66 5.97422 2.50979 0
M  V30 28075 N 2594.07 -0.805758 1.35445 0
M  V30 28076 C 2595.02 -1.90696 1.24976 0
M  V30 28077 C 2596 -1.60247 0.144835 0
M  V30 28078 O 2597.19 -1.72957 0.376133 0
M  V30 28079 C 2594.32 -3.27647 1.02481 0
M  V30 28080 C 2593.41 -3.6416 2.17367 0
M  V30 28081 N 2593.8 -3.72103 3.42597 0
M  V30 28082 C 2592.1 -3.9412 2.08772 0
M  V30 28083 C 2592.8 -4.04382 4.18151 0
M  V30 28084 N 2591.77 -4.18509 3.46917 0
M  V30 28085 H 2595.57 -1.9504 2.19855 0
M  V30 28086 H 2593.09 -1.00039 1.2793 0
M  V30 28087 H 2595.09 -4.06379 0.930688 0
M  V30 28088 H 2593.75 -3.24589 0.084858 0
M  V30 28089 H 2594.76 -3.5516 3.76938 0
M  V30 28090 H 2591.43 -3.99082 1.22637 0
M  V30 28091 H 2592.82 -4.17587 5.26375 0
M  V30 28092 N 2595.54 -1.19456 -1.02801 0
M  V30 28093 C 2596.77 -1.02367 -1.80377 0
M  V30 28094 C 2597.19 0.422975 -1.83283 0
M  V30 28095 O 2596.55 1.30411 -1.25947 0
M  V30 28096 C 2596.6 -1.59827 -3.23246 0
M  V30 28097 O 2595.7 -0.828176 -4.03999 0
M  V30 28098 H 2595.04 -0.361771 -0.556792 0
M  V30 28099 H 2597.57 -1.58498 -1.29382 0
M  V30 28100 H 2597.58 -1.63079 -3.73991 0
M  V30 28101 H 2596.26 -2.65118 -3.20445 0
M  V30 28102 H 2594.84 -0.868973 -3.62634 0
M  V30 28103 N 2597.02 1.21924 -0.998617 0
M  V30 28104 C 2597.97 2.21878 -0.524782 0
M  V30 28105 C 2598.96 1.55585 0.410143 0
M  V30 28106 O 2600.15 1.75419 0.236032 0
M  V30 28107 C 2597.28 3.42956 0.153576 0
M  V30 28108 C 2596.36 4.16448 -0.801991 0
M  V30 28109 N 2596.75 4.66608 -1.95219 0
M  V30 28110 C 2595.05 4.41683 -0.619049 0
M  V30 28111 C 2595.75 5.2271 -2.55243 0
M  V30 28112 N 2594.73 5.11706 -1.8346 0
M  V30 28113 H 2598.53 2.58308 -1.40193 0
M  V30 28114 H 2596.04 1.37659 -0.861614 0
M  V30 28115 H 2598.04 4.13763 0.510461 0
M  V30 28116 H 2596.7 3.08038 1.02679 0
M  V30 28117 H 2597.71 4.62387 -2.33279 0
M  V30 28118 H 2594.39 4.16983 0.207621 0
M  V30 28119 H 2595.78 5.7202 -3.52481 0
M  V30 28120 N 2598.5 0.772537 1.37367 0
M  V30 28121 C 2599.78 0.261914 1.93839 0
M  V30 28122 C 2600.16 -1.24316 1.70613 0
M  V30 28123 O 2599.5 -2.02668 1.05537 0
M  V30 28124 C 2599.71 0.636162 3.43153 0
M  V30 28125 C 2601.06 0.606398 4.20248 0
M  V30 28126 O 2602.09 0.5756 3.51519 0
M  V30 28127 O 2600.95 0.634182 5.42808 0
M  V30 28128 H 2598.04 0.06057 0.824779 0
M  V30 28129 H 2600.59 0.853943 1.46649 0
M  V30 28130 H 2599.36 1.67486 3.53644 0
M  V30 28131 H 2598.98 0.0171215 3.97596 0
M  V30 28132 N 2599.98 -1.48664 0.523142 0
M  V30 28133 C 2601.23 -2.02096 -0.0134142 0
M  V30 28134 C 2601.55 -1.40313 -1.35415 0
M  V30 28135 O 2600.82 -0.566107 -1.87542 0
M  V30 28136 H 2599.4 -0.746958 -0.00794602 0
M  V30 28137 H 2602.06 -1.8245 0.68542 0
M  V30 28138 H 2601.15 -3.11842 -0.126795 0
M  V30 28139 N 2601.46 -0.257958 -1.55475 0
M  V30 28140 C 2602.68 0.370453 -2.04065 0
M  V30 28141 C 2603.11 1.49946 -1.13568 0
M  V30 28142 O 2602.46 1.80827 -0.130812 0
M  V30 28143 C 2602.51 0.845176 -3.50555 0
M  V30 28144 O 2601.62 1.95388 -3.63177 0
M  V30 28145 H 2600.96 0.0792128 -0.659258 0
M  V30 28146 H 2603.49 -0.387247 -2.00902 0
M  V30 28147 H 2603.5 1.14548 -3.9159 0
M  V30 28148 H 2602.17 0.0190528 -4.15896 0
M  V30 28149 H 2600.75 1.65742 -3.34042 0
M  V30 28150 N 2602.93 1.57593 0.0150108 0
M  V30 28151 C 2604.18 1.89532 0.70158 0
M  V30 28152 C 2604.5 0.857427 1.75138 0
M  V30 28153 O 2603.77 -0.10716 1.95607 0
M  V30 28154 H 2602.35 0.699502 0.262117 0
M  V30 28155 H 2605.02 1.94887 -0.0223647 0
M  V30 28156 H 2604.11 2.88839 1.18231 0
M  V30 28157 N 2604.41 -0.287527 1.54955 0
M  V30 28158 C 2605.69 -1.04143 1.6557 0
M  V30 28159 C 2606.07 -2.04779 0.512708 0
M  V30 28160 O 2605.42 -2.23206 -0.488999 0
M  V30 28161 C 2605.63 -1.71125 3.04166 0
M  V30 28162 C 2606.98 -2.22826 3.61433 0
M  V30 28163 O 2608 -1.81136 3.06705 0
M  V30 28164 O 2606.86 -2.99252 4.57286 0
M  V30 28165 H 2603.95 -0.482176 0.671889 0
M  V30 28166 H 2606.5 -0.284541 1.67298 0
M  V30 28167 H 2605.27 -0.981236 3.78797 0
M  V30 28168 H 2604.89 -2.53537 3.06275 0
M  V30 28169 N 2605.89 -1.47641 -0.551365 0
M  V30 28170 C 2607.17 -1.45048 -1.31227 0
M  V30 28171 C 2607.55 -0.150564 -2.10562 0
M  V30 28172 O 2606.9 0.867919 -2.11375 0
M  V30 28173 C 2607.11 -2.6996 -2.21184 0
M  V30 28174 C 2608.45 -3.17415 -2.82016 0
M  V30 28175 O 2609.48 -2.70728 -2.31483 0
M  V30 28176 O 2608.34 -3.98595 -3.73878 0
M  V30 28177 H 2605.43 -0.578301 -0.591182 0
M  V30 28178 H 2607.98 -1.59848 -0.569785 0
M  V30 28179 H 2606.75 -3.56099 -1.62201 0
M  V30 28180 H 2606.37 -2.57775 -3.02718 0
M  V30 28181 N 2607.37 0.798563 -1.3587 0
M  V30 28182 C 2608.33 1.89239 -1.2931 0
M  V30 28183 C 2609.33 1.59516 -0.202775 0
M  V30 28184 O 2610.52 1.68099 -0.456986 0
M  V30 28185 C 2607.65 3.25831 -1.00235 0
M  V30 28186 H 2608.85 1.96474 -2.26579 0
M  V30 28187 H 2606.4 0.995336 -1.2051 0
M  V30 28188 H 2607.13 3.24282 -0.033858 0
M  V30 28189 H 2606.92 3.48792 -1.79127 0
M  V30 28190 H 2608.41 4.05883 -0.982261 0
M  V30 28191 N 2608.85 1.19999 1.02166 0
M  V30 28192 C 2610.26 1.00827 1.57133 0
M  V30 28193 C 2610.61 -0.436784 1.91276 0
M  V30 28194 O 2609.73 -1.31737 1.71681 0
M  V30 28195 C 2610.33 1.82398 2.85511 0
M  V30 28196 C 2608.89 1.67607 3.37024 0
M  V30 28197 C 2608.03 1.80648 2.10385 0
M  V30 28198 H 2610.99 1.34265 0.846082 0
M  V30 28199 H 2611.01 1.32435 3.56709 0
M  V30 28200 H 2610.52 2.87566 2.60629 0
M  V30 28201 H 2608.62 0.65055 3.66877 0
M  V30 28202 H 2608.73 2.48578 4.09568 0
M  V30 28203 H 2607.1 1.23782 2.22599 0
M  V30 28204 H 2607.88 2.87289 1.87935 0
M  V30 28205 N 2610.32 -1.21392 1.00507 0
M  V30 28206 C 2611.23 -2.27448 0.574846 0
M  V30 28207 C 2612.25 -1.69751 -0.382176 0
M  V30 28208 O 2613.43 -1.99892 -0.245992 0
M  V30 28209 C 2610.49 -3.46579 -0.0916805 0
M  V30 28210 C 2609.55 -4.19548 0.909831 0
M  V30 28211 C 2608.79 -5.32991 0.275017 0
M  V30 28212 O 2609.01 -5.62798 -0.928155 0
M  V30 28213 O 2607.94 -5.93769 0.985982 0
M  V30 28214 H 2611.77 -2.66441 1.45749 0
M  V30 28215 H 2609.35 -1.27791 0.773946 0
M  V30 28216 H 2611.24 -4.18832 -0.464477 0
M  V30 28217 H 2609.91 -3.09486 -0.9487 0
M  V30 28218 H 2608.82 -3.49515 1.33379 0
M  V30 28219 H 2610.15 -4.60552 1.73644 0
M  V30 28220 N 2611.8 -0.779811 -1.36955 0
M  V30 28221 C 2612.75 -0.169737 -2.30175 0
M  V30 28222 C 2613.72 0.680914 -1.51502 0
M  V30 28223 O 2614.9 0.631597 -1.80043 0
M  V30 28224 C 2612.04 0.697071 -3.37987 0
M  V30 28225 C 2611.16 -0.171068 -4.31661 0
M  V30 28226 C 2610.29 0.701206 -5.26552 0
M  V30 28227 C 2609.33 -0.168976 -6.11867 0
M  V30 28228 N 2608.47 0.661732 -6.98975 0
M  V30 28229 H 2613.31 -0.970184 -2.81765 0
M  V30 28230 H 2610.85 -0.490018 -1.38698 0
M  V30 28231 H 2612.8 1.21453 -3.9913 0
M  V30 28232 H 2611.43 1.46304 -2.87741 0
M  V30 28233 H 2610.49 -0.806405 -3.71754 0
M  V30 28234 H 2611.8 -0.841962 -4.91643 0
M  V30 28235 H 2610.95 1.28484 -5.92939 0
M  V30 28236 H 2609.69 1.40576 -4.67001 0
M  V30 28237 H 2608.7 -0.765082 -5.44451 0
M  V30 28238 H 2609.92 -0.870981 -6.73491 0
M  V30 28239 H 2607.87 1.35075 -6.41943 0
M  V30 28240 H 2607.78 0.0483119 -7.55985 0
M  V30 28241 H 2609.05 1.2295 -7.69743 0
M  V30 28242 N 2613.28 1.48384 -0.531019 0
M  V30 28243 C 2614.19 2.3342 0.234989 0
M  V30 28244 C 2615.21 1.46553 0.937984 0
M  V30 28245 O 2616.38 1.79531 0.912713 0
M  V30 28246 C 2613.45 3.22691 1.26772 0
M  V30 28247 C 2612.51 4.25432 0.574964 0
M  V30 28248 C 2611.74 5.10438 1.55849 0
M  V30 28249 O 2611.96 4.97442 2.7912 0
M  V30 28250 O 2610.9 5.91813 1.09732 0
M  V30 28251 H 2614.72 3.00168 -0.461847 0
M  V30 28252 H 2612.31 1.4652 -0.291928 0
M  V30 28253 H 2614.19 3.77908 1.8645 0
M  V30 28254 H 2612.87 2.58604 1.94694 0
M  V30 28255 H 2611.77 3.74048 -0.062344 0
M  V30 28256 H 2613.11 4.92161 -0.0623395 0
M  V30 28257 N 2614.76 0.2662 1.55336 0
M  V30 28258 C 2616.01 -0.352425 1.99003 0
M  V30 28259 C 2616.33 -1.57045 1.15594 0
M  V30 28260 O 2615.6 -1.94383 0.243302 0
M  V30 28261 H 2614.18 -0.133204 0.735028 0
M  V30 28262 H 2616.84 0.369468 1.91366 0
M  V30 28263 H 2615.94 -0.648399 3.0529 0
M  V30 28264 N 2616.24 -1.57599 -0.0066531 0
M  V30 28265 C 2617.17 -2.11038 -0.999259 0
M  V30 28266 C 2618.15 -1.01798 -1.36276 0
M  V30 28267 O 2619.33 -1.29445 -1.44768 0
M  V30 28268 C 2616.46 -2.60822 -2.29323 0
M  V30 28269 C 2615.42 -3.74529 -2.07153 0
M  V30 28270 C 2614.74 -4.10602 -3.42505 0
M  V30 28271 C 2616.04 -5.02071 -1.4395 0
M  V30 28272 H 2617.74 -2.94224 -0.55433 0
M  V30 28273 H 2615.28 -1.41537 -0.265197 0
M  V30 28274 H 2617.24 -2.96833 -2.99112 0
M  V30 28275 H 2615.96 -1.7475 -2.75917 0
M  V30 28276 H 2614.62 -3.38901 -1.39791 0
M  V30 28277 H 2614.27 -3.21563 -3.8679 0
M  V30 28278 H 2613.97 -4.87205 -3.28489 0
M  V30 28279 H 2615.49 -4.49167 -4.1362 0
M  V30 28280 H 2616.9 -5.35896 -2.03686 0
M  V30 28281 H 2615.3 -5.83435 -1.40442 0
M  V30 28282 H 2616.37 -4.83181 -0.407908 0
M  V30 28283 N 2617.72 0.279305 -1.55105 0
M  V30 28284 C 2618.65 1.34942 -1.90559 0
M  V30 28285 C 2619.63 1.51838 -0.766765 0
M  V30 28286 O 2620.81 1.64986 -1.02437 0
M  V30 28287 C 2617.94 2.71002 -2.17198 0
M  V30 28288 C 2616.9 2.68845 -3.33026 0
M  V30 28289 C 2616.22 4.08399 -3.4513 0
M  V30 28290 C 2617.52 2.2867 -4.69582 0
M  V30 28291 H 2619.22 1.05517 -2.8019 0
M  V30 28292 H 2616.76 0.50615 -1.34811 0
M  V30 28293 H 2618.71 3.45971 -2.40587 0
M  V30 28294 H 2617.44 3.01997 -1.2436 0
M  V30 28295 H 2616.1 1.96335 -3.09594 0
M  V30 28296 H 2615.75 4.36605 -2.4977 0
M  V30 28297 H 2615.45 4.07852 -4.23002 0
M  V30 28298 H 2616.97 4.85115 -3.70805 0
M  V30 28299 H 2618.38 2.93359 -4.92558 0
M  V30 28300 H 2616.78 2.39296 -5.50325 0
M  V30 28301 H 2617.85 1.23798 -4.6883 0
M  V30 28302 N 2619.19 1.47931 0.543528 0
M  V30 28303 C 2620.16 1.60978 1.63153 0
M  V30 28304 C 2621.16 0.483926 1.53345 0
M  V30 28305 O 2622.35 0.749366 1.57258 0
M  V30 28306 C 2619.48 1.56721 3.0274 0
M  V30 28307 H 2620.67 2.57978 1.52929 0
M  V30 28308 H 2618.22 1.36325 0.764533 0
M  V30 28309 H 2618.96 0.611474 3.18483 0
M  V30 28310 H 2618.74 2.38443 3.11267 0
M  V30 28311 H 2620.23 1.69017 3.81868 0
M  V30 28312 N 2620.67 -0.791347 1.36292 0
M  V30 28313 C 2621.62 -1.9253 1.30518 0
M  V30 28314 C 2622.61 -1.68247 0.197315 0
M  V30 28315 O 2623.82 -1.76277 0.364207 0
M  V30 28316 H 2620.19 -0.632808 0.406274 0
M  V30 28317 H 2622.17 -1.94519 2.26285 0
M  V30 28318 C 2620.91 -3.29527 1.10939 0
M  V30 28319 H 2620.24 -3.48778 1.95433 0
M  V30 28320 H 2621.68 -4.09228 1.10945 0
M  V30 28321 C 2620.14 -3.36386 -0.186063 0
M  V30 28322 O 2620.67 -3.84083 -1.17657 0
M  V30 28323 N 2618.87 -2.89688 -0.230078 0
M  V30 28324 H 2618.42 -2.51064 0.57659 0
M  V30 28325 H 2618.38 -2.94659 -1.09653 0
M  V30 28326 N 2622.15 -1.2054 -1.01528 0
M  V30 28327 C 2623.38 -1.04202 -1.78744 0
M  V30 28328 C 2623.79 0.4087 -1.84323 0
M  V30 28329 O 2623.15 1.28374 -1.29716 0
M  V30 28330 C 2623.2 -1.6204 -3.23149 0
M  V30 28331 O 2622.92 -3.01435 -3.17913 0
M  V30 28332 C 2624.42 -1.50673 -4.16908 0
M  V30 28333 H 2621.64 -0.366488 -0.562074 0
M  V30 28334 H 2624.19 -1.59655 -1.27791 0
M  V30 28335 H 2622.34 -1.10704 -3.71246 0
M  V30 28336 H 2622.76 -3.28904 -4.08561 0
M  V30 28337 H 2624.23 -1.95901 -5.16069 0
M  V30 28338 H 2624.71 -0.45944 -4.3679 0
M  V30 28339 H 2625.31 -2.01207 -3.74694 0
M  V30 28340 N 2623.63 1.20858 -1.01149 0
M  V30 28341 C 2624.56 2.22146 -0.522147 0
M  V30 28342 C 2625.54 1.56875 0.427659 0
M  V30 28343 O 2626.72 1.85244 0.348858 0
M  V30 28344 C 2623.85 3.37843 0.24076 0
M  V30 28345 C 2622.9 4.21396 -0.657826 0
M  V30 28346 S 2623.73 4.91575 -2.12402 0
M  V30 28347 C 2624.88 6.10697 -1.37113 0
M  V30 28348 H 2625.12 2.6331 -1.3804 0
M  V30 28349 H 2622.65 1.30828 -0.819964 0
M  V30 28350 H 2624.61 4.04915 0.674837 0
M  V30 28351 H 2623.27 2.95149 1.07451 0
M  V30 28352 H 2622.46 5.03952 -0.0698342 0
M  V30 28353 H 2622.06 3.59553 -1.02946 0
M  V30 28354 H 2624.36 6.7439 -0.648433 0
M  V30 28355 H 2625.3 6.73945 -2.17264 0
M  V30 28356 H 2625.71 5.57658 -0.876252 0
M  V30 28357 N 2625.11 0.787064 1.3654 0
M  V30 28358 C 2626.33 0.369089 2.04089 0
M  V30 28359 C 2626.76 -1.00567 1.58959 0
M  V30 28360 O 2626.11 -1.64742 0.756955 0
M  V30 28361 C 2626.16 0.438529 3.57924 0
M  V30 28362 O 2625.27 -0.555407 4.08643 0
M  V30 28363 H 2624.61 0.157133 0.64514 0
M  V30 28364 H 2627.14 1.06752 1.74543 0
M  V30 28365 H 2627.15 0.30129 4.06886 0
M  V30 28366 H 2625.82 1.44139 3.90124 0
M  V30 28367 H 2624.4 -0.380022 3.70959 0
M  V30 28368 N 2626.58 -1.48101 0.53888 0
M  V30 28369 C 2627.53 -2.29759 -0.219001 0
M  V30 28370 C 2628.5 -1.37924 -0.925538 0
M  V30 28371 O 2629.69 -1.66888 -0.924826 0
M  V30 28372 C 2626.83 -3.21492 -1.25447 0
M  V30 28373 C 2625.94 -4.28409 -0.555868 0
M  V30 28374 C 2625.07 -5.07313 -1.57503 0
M  V30 28375 C 2624.11 -6.06023 -0.860391 0
M  V30 28376 N 2623.25 -6.77952 -1.82552 0
M  V30 28377 H 2628.09 -2.94051 0.483501 0
M  V30 28378 H 2625.63 -1.44955 0.250272 0
M  V30 28379 H 2627.58 -3.73083 -1.86721 0
M  V30 28380 H 2626.21 -2.59103 -1.92524 0
M  V30 28381 H 2625.27 -3.80015 0.171005 0
M  V30 28382 H 2626.58 -4.988 0.00483384 0
M  V30 28383 H 2625.73 -5.62963 -2.26181 0
M  V30 28384 H 2624.47 -4.36781 -2.16964 0
M  V30 28385 H 2623.48 -5.49568 -0.15959 0
M  V30 28386 H 2624.7 -6.78556 -0.271777 0
M  V30 28387 H 2622.65 -6.10165 -2.40904 0
M  V30 28388 H 2622.56 -7.44449 -1.31649 0
M  V30 28389 H 2623.83 -7.38187 -2.50401 0
M  V30 28390 N 2628.06 -0.274434 -1.55192 0
M  V30 28391 C 2628.99 0.654674 -2.18608 0
M  V30 28392 C 2629.97 1.15271 -1.14679 0
M  V30 28393 O 2631.16 1.22581 -1.432 0
M  V30 28394 C 2628.28 1.89276 -2.80878 0
M  V30 28395 C 2627.33 1.53025 -3.98102 0
M  V30 28396 S 2628.16 0.609013 -5.32026 0
M  V30 28397 C 2629.32 1.85549 -5.97765 0
M  V30 28398 H 2629.55 0.115842 -2.97074 0
M  V30 28399 H 2627.08 -0.0586971 -1.54288 0
M  V30 28400 H 2629.04 2.60339 -3.17386 0
M  V30 28401 H 2627.7 2.40273 -2.02306 0
M  V30 28402 H 2626.9 2.4515 -4.40361 0
M  V30 28403 H 2626.5 0.89981 -3.63014 0
M  V30 28404 H 2628.79 2.79949 -6.16956 0
M  V30 28405 H 2629.73 1.47593 -6.92547 0
M  V30 28406 H 2630.14 2.02012 -5.27116 0
M  V30 28407 N 2629.54 1.576 -0.00170483 0
M  V30 28408 C 2630.77 1.94641 0.692719 0
M  V30 28409 C 2631.18 0.875159 1.67743 0
M  V30 28410 O 2630.52 -0.15435 1.8305 0
M  V30 28411 C 2630.58 3.27679 1.47875 0
M  V30 28412 C 2630.25 4.52275 0.655438 0
M  V30 28413 C 2631.24 5.19868 -0.0576128 0
M  V30 28414 C 2628.93 4.98693 0.600907 0
M  V30 28415 C 2630.92 6.32179 -0.814163 0
M  V30 28416 C 2628.61 6.10892 -0.159367 0
M  V30 28417 C 2629.61 6.77492 -0.865634 0
M  V30 28418 O 2629.3 7.87541 -1.6135 0
M  V30 28419 H 2629.03 0.64642 0.19778 0
M  V30 28420 H 2631.58 2.0534 -0.0494591 0
M  V30 28421 H 2629.81 3.13392 2.26545 0
M  V30 28422 H 2631.5 3.49819 2.05867 0
M  V30 28423 H 2632.27 4.84994 -0.0246464 0
M  V30 28424 H 2628.15 4.46678 1.14017 0
M  V30 28425 H 2631.69 6.84096 -1.36596 0
M  V30 28426 H 2627.59 6.45208 -0.194148 0
M  V30 28427 H 2628.35 8.04066 -1.53039 0
M  V30 28428 N 2631.02 -0.271076 1.55251 0
M  V30 28429 C 2632.27 -1.00044 1.75601 0
M  V30 28430 C 2632.59 -1.86749 0.56122 0
M  V30 28431 O 2631.86 -1.91261 -0.423813 0
M  V30 28432 H 2630.44 -0.372376 0.647569 0
M  V30 28433 H 2633.1 -0.294843 1.92657 0
M  V30 28434 H 2632.19 -1.63626 2.65769 0
M  V30 28435 N 2632.5 -1.48217 -0.535675 0
M  V30 28436 C 2633.45 -1.58717 -1.63685 0
M  V30 28437 C 2634.43 -0.444642 -1.54634 0
M  V30 28438 O 2635.62 -0.695771 -1.62751 0
M  V30 28439 C 2632.75 -1.62471 -3.0242 0
M  V30 28440 C 2631.84 -2.82184 -3.16596 0
M  V30 28441 N 2632.23 -4.06663 -3.00764 0
M  V30 28442 C 2630.53 -2.79397 -3.4764 0
M  V30 28443 C 2631.23 -4.86951 -3.18204 0
M  V30 28444 N 2630.2 -4.19662 -3.45521 0
M  V30 28445 H 2634.01 -2.52712 -1.50046 0
M  V30 28446 H 2631.52 -1.4451 -0.740992 0
M  V30 28447 H 2633.52 -1.68086 -3.81514 0
M  V30 28448 H 2632.18 -0.695882 -3.17155 0
M  V30 28449 H 2633.19 -4.37189 -2.77644 0
M  V30 28450 H 2629.86 -1.95746 -3.68768 0
M  V30 28451 H 2631.25 -5.95722 -3.10749 0
M  V30 28452 N 2633.97 0.784108 -1.3671 0
M  V30 28453 C 2634.88 1.92819 -1.33634 0
M  V30 28454 C 2635.9 1.72369 -0.237716 0
M  V30 28455 O 2637.08 1.95815 -0.470996 0
M  V30 28456 C 2634.14 3.27762 -1.13017 0
M  V30 28457 C 2633.2 3.60953 -2.32403 0
M  V30 28458 C 2632.44 4.89457 -2.12761 0
M  V30 28459 O 2632.66 5.59584 -1.10551 0
M  V30 28460 O 2631.59 5.21427 -3.00662 0
M  V30 28461 H 2635.42 1.98364 -2.29968 0
M  V30 28462 H 2633 0.925115 -1.17311 0
M  V30 28463 H 2634.89 4.08503 -1.03458 0
M  V30 28464 H 2633.56 3.23097 -0.197487 0
M  V30 28465 H 2632.47 2.80498 -2.47532 0
M  V30 28466 H 2633.8 3.70348 -3.24196 0
M  V30 28467 N 2635.45 1.21076 1.00888 0
M  V30 28468 C 2636.4 0.963513 2.11705 0
M  V30 28469 C 2637.39 -0.0878734 1.69172 0
M  V30 28470 O 2638.6 0.0631731 1.79889 0
M  V30 28471 H 2634.98 0.294299 0.69202 0
M  V30 28472 H 2636.95 1.90426 2.2974 0
M  V30 28473 C 2635.7 0.54057 3.43472 0
M  V30 28474 H 2635.02 1.34121 3.76632 0
M  V30 28475 H 2636.46 0.406851 4.22044 0
M  V30 28476 C 2634.92 -0.748021 3.28491 0
M  V30 28477 O 2635.45 -1.80453 3.58886 0
M  V30 28478 N 2633.65 -0.713032 2.81717 0
M  V30 28479 H 2633.2 0.147018 2.5718 0
M  V30 28480 H 2633.16 -1.57553 2.72074 0
M  V30 28481 N 2636.93 -1.2032 1.01789 0
M  V30 28482 C 2638.18 -1.89346 0.706571 0
M  V30 28483 C 2638.5 -1.79314 -0.766258 0
M  V30 28484 O 2637.77 -1.19638 -1.55124 0
M  V30 28485 H 2636.35 -0.700899 0.258361 0
M  V30 28486 H 2639.01 -1.4612 1.28976 0
M  V30 28487 H 2638.11 -2.95945 0.991118 0
M  V30 28488 N 2638.41 -0.794293 -1.3612 0
M  V30 28489 C 2639.36 -0.184064 -2.31871 0
M  V30 28490 C 2640.35 0.659338 -1.56042 0
M  V30 28491 O 2641.56 0.553876 -1.71267 0
M  V30 28492 H 2637.93 -0.0407505 -0.750895 0
M  V30 28493 H 2639.9 -1.00698 -2.80896 0
M  V30 28494 C 2638.65 0.662753 -3.41325 0
M  V30 28495 H 2637.97 0.0231242 -3.99793 0
M  V30 28496 H 2639.41 1.05632 -4.10631 0
M  V30 28497 C 2637.87 1.82308 -2.83312 0
M  V30 28498 O 2638.4 2.91992 -2.75869 0
M  V30 28499 N 2636.61 1.63072 -2.40532 0
M  V30 28500 H 2636.16 0.738548 -2.46786 0
M  V30 28501 H 2636.11 2.40868 -2.02064 0
M  V30 28502 N 2639.89 1.47813 -0.546727 0
M  V30 28503 C 2641.11 2.07389 -0.0213045 0
M  V30 28504 C 2641.54 1.39825 1.2582 0
M  V30 28505 O 2640.89 0.469711 1.7511 0
M  V30 28506 C 2640.94 3.60206 0.168439 0
M  V30 28507 O 2640.05 3.93524 1.2334 0
M  V30 28508 H 2639.39 0.662361 -0.0466225 0
M  V30 28509 H 2641.92 1.89984 -0.759421 0
M  V30 28510 H 2641.93 4.06171 0.385911 0
M  V30 28511 H 2640.6 4.08782 -0.766147 0
M  V30 28512 H 2639.18 3.59318 0.997256 0
M  V30 28513 N 2641.36 0.28266 1.55044 0
M  V30 28514 C 2642.59 -0.337941 2.04628 0
M  V30 28515 C 2643.01 -1.48121 1.15939 0
M  V30 28516 O 2642.37 -1.80596 0.159564 0
M  V30 28517 C 2642.42 -0.789298 3.51856 0
M  V30 28518 O 2641.52 -1.89585 3.66239 0
M  V30 28519 H 2640.87 -0.0687145 0.660435 0
M  V30 28520 H 2643.4 0.41916 2.0026 0
M  V30 28521 H 2643.41 -1.08304 3.93363 0
M  V30 28522 H 2642.08 0.047115 4.15873 0
M  V30 28523 H 2640.66 -1.60407 3.36636 0
M  V30 28524 N 2642.84 -1.57597 0.0100627 0
M  V30 28525 C 2644.07 -1.95692 -0.686987 0
M  V30 28526 C 2644.49 -0.885548 -1.65951 0
M  V30 28527 O 2643.85 0.155398 -1.80633 0
M  V30 28528 C 2643.9 -3.32886 -1.38634 0
M  V30 28529 O 2643 -3.27901 -2.50109 0
M  V30 28530 H 2642.34 -0.638577 -0.181978 0
M  V30 28531 H 2644.87 -2.04493 0.0662482 0
M  V30 28532 H 2644.88 -3.68683 -1.74748 0
M  V30 28533 H 2643.56 -4.10413 -0.673339 0
M  V30 28534 H 2642.14 -3.03795 -2.16247 0
M  V30 28535 N 2644.32 0.262839 -1.55393 0
M  V30 28536 C 2645.73 0.833129 -1.6708 0
M  V30 28537 C 2646.08 1.86653 -0.604571 0
M  V30 28538 O 2645.21 2.14927 0.2521 0
M  V30 28539 C 2645.8 1.51792 -3.02894 0
M  V30 28540 C 2644.36 2.03611 -3.16575 0
M  V30 28541 C 2643.51 0.881655 -2.62911 0
M  V30 28542 H 2646.46 0.0389707 -1.58652 0
M  V30 28543 H 2646.48 2.38533 -2.9645 0
M  V30 28544 H 2645.99 0.765553 -3.80475 0
M  V30 28545 H 2644.09 2.81778 -2.43787 0
M  V30 28546 H 2644.21 2.24444 -4.23275 0
M  V30 28547 H 2642.57 1.27782 -2.20327 0
M  V30 28548 H 2643.35 0.14263 -3.43004 0
M  V30 28549 N 2645.8 1.48499 0.527807 0
M  V30 28550 C 2647.02 1.60549 1.31297 0
M  V30 28551 C 2647.45 0.266753 1.86199 0
M  V30 28552 O 2646.81 -0.761889 1.64514 0
M  V30 28553 C 2646.85 2.65682 2.43814 0
M  V30 28554 O 2645.96 2.22993 3.46912 0
M  V30 28555 H 2645.3 0.538284 0.388775 0
M  V30 28556 H 2647.83 1.94501 0.634862 0
M  V30 28557 H 2647.84 2.87023 2.89968 0
M  V30 28558 H 2646.51 3.62872 2.03215 0
M  V30 28559 H 2645.09 2.11875 3.06861 0
M  V30 28560 N 2647.28 -0.776847 1.37123 0
M  V30 28561 C 2648.69 -1.35282 1.28669 0
M  V30 28562 C 2649.04 -1.96082 -0.0679691 0
M  V30 28563 O 2648.16 -1.93457 -0.969709 0
M  V30 28564 C 2648.76 -2.45959 2.33001 0
M  V30 28565 C 2647.32 -2.99338 2.28197 0
M  V30 28566 C 2646.47 -1.72514 2.17105 0
M  V30 28567 H 2649.42 -0.577501 1.4782 0
M  V30 28568 H 2649.44 -3.25307 1.97372 0
M  V30 28569 H 2648.95 -2.01678 3.31584 0
M  V30 28570 H 2647.05 -3.48008 1.33121 0
M  V30 28571 H 2647.16 -3.55299 3.21403 0
M  V30 28572 H 2645.53 -1.95239 1.63565 0
M  V30 28573 H 2646.31 -1.30343 3.17594 0
M  V30 28574 N 2648.76 -1.2161 -1.00244 0
M  V30 28575 C 2649.67 -0.993746 -2.12513 0
M  V30 28576 C 2650.68 0.0549633 -1.73913 0
M  V30 28577 O 2651.86 -0.135654 -2.00943 0
M  V30 28578 C 2648.92 -0.564013 -3.42082 0
M  V30 28579 C 2647.98 -1.68523 -3.9484 0
M  V30 28580 C 2647.22 -1.27591 -5.18224 0
M  V30 28581 O 2647.44 -0.150606 -5.70201 0
M  V30 28582 O 2646.37 -2.0888 -5.64493 0
M  V30 28583 H 2650.2 -1.93412 -2.34149 0
M  V30 28584 H 2647.78 -1.0012 -1.10889 0
M  V30 28585 H 2649.67 -0.334268 -4.20072 0
M  V30 28586 H 2648.34 0.347608 -3.21828 0
M  V30 28587 H 2647.25 -1.96941 -3.18065 0
M  V30 28588 H 2648.58 -2.57437 -4.19508 0
M  V30 28589 N 2650.23 1.19778 -1.02425 0
M  V30 28590 C 2651.14 2.26505 -0.610958 0
M  V30 28591 C 2652.16 1.70338 0.355122 0
M  V30 28592 O 2653.34 2.00258 0.21416 0
M  V30 28593 C 2650.4 3.46681 0.0365312 0
M  V30 28594 C 2649.46 4.18047 -0.976463 0
M  V30 28595 C 2648.69 5.32486 -0.359777 0
M  V30 28596 O 2648.92 5.64203 0.838501 0
M  V30 28597 O 2647.85 5.92126 -1.08032 0
M  V30 28598 H 2651.68 2.64089 -1.49969 0
M  V30 28599 H 2649.26 1.26543 -0.794178 0
M  V30 28600 H 2651.14 4.19518 0.397786 0
M  V30 28601 H 2649.82 3.10956 0.899344 0
M  V30 28602 H 2648.73 3.47349 -1.38922 0
M  V30 28603 H 2650.06 4.57732 -1.80949 0
M  V30 28604 N 2651.71 0.801501 1.35697 0
M  V30 28605 C 2652.66 0.206335 2.29876 0
M  V30 28606 C 2653.63 -0.656725 1.52566 0
M  V30 28607 O 2654.81 -0.602874 1.81025 0
M  V30 28608 C 2651.95 -0.643212 3.39053 0
M  V30 28609 C 2651.07 0.23972 4.31334 0
M  V30 28610 C 2650.2 -0.617347 5.276 0
M  V30 28611 C 2649.24 0.266298 6.1152 0
M  V30 28612 N 2648.38 -0.550448 6.99939 0
M  V30 28613 H 2653.22 1.01489 2.80186 0
M  V30 28614 H 2650.75 0.512022 1.37901 0
M  V30 28615 H 2652.71 -1.15087 4.01012 0
M  V30 28616 H 2651.34 -1.41708 2.90032 0
M  V30 28617 H 2650.39 0.865446 3.70424 0
M  V30 28618 H 2651.71 0.920071 4.90241 0
M  V30 28619 H 2650.86 -1.19034 5.94908 0
M  V30 28620 H 2649.6 -1.33128 4.69178 0
M  V30 28621 H 2648.6 0.851603 5.43165 0
M  V30 28622 H 2649.83 0.978018 6.72021 0
M  V30 28623 H 2647.78 -1.24845 6.44011 0
M  V30 28624 H 2647.69 0.0719648 7.55966 0
M  V30 28625 H 2648.96 -1.10688 7.71601 0
M  V30 28626 N 2653.19 -1.47521 0.554558 0
M  V30 28627 C 2654.44 -2.02079 0.0294563 0
M  V30 28628 C 2654.76 -1.43154 -1.32409 0
M  V30 28629 O 2654.03 -0.605761 -1.86299 0
M  V30 28630 H 2652.61 -0.746958 0.00789985 0
M  V30 28631 H 2655.27 -1.80955 0.723966 0
M  V30 28632 H 2654.37 -3.12041 -0.0606196 0
M  V30 28633 N 2654.67 -0.290879 -1.54892 0
M  V30 28634 C 2655.58 0.59941 -2.26813 0
M  V30 28635 C 2656.59 1.15694 -1.29965 0
M  V30 28636 O 2657.77 1.18388 -1.6293 0
M  V30 28637 C 2654.83 1.75976 -2.98719 0
M  V30 28638 C 2653.9 1.23733 -4.11082 0
M  V30 28639 C 2653.13 2.34238 -4.7955 0
M  V30 28640 O 2653.35 3.53928 -4.47316 0
M  V30 28641 O 2652.29 2.01502 -5.67169 0
M  V30 28642 H 2656.11 0.0163027 -3.03696 0
M  V30 28643 H 2653.7 -0.0577018 -1.49289 0
M  V30 28644 H 2655.58 2.43601 -3.43855 0
M  V30 28645 H 2654.25 2.32966 -2.24741 0
M  V30 28646 H 2653.16 0.527098 -3.70368 0
M  V30 28647 H 2654.49 0.712984 -4.87009 0
M  V30 28648 N 2656.15 1.57589 -0.0184203 0
M  V30 28649 C 2657.11 2.08496 0.951949 0
M  V30 28650 C 2658.11 0.997896 1.2609 0
M  V30 28651 O 2659.3 1.25989 1.20302 0
M  V30 28652 C 2656.43 2.54186 2.27161 0
M  V30 28653 H 2657.62 2.9551 0.511255 0
M  V30 28654 H 2655.18 1.54607 0.229416 0
M  V30 28655 H 2655.91 1.7047 2.75881 0
M  V30 28656 H 2655.7 3.33594 2.06052 0
M  V30 28657 H 2657.19 2.93833 2.96735 0
M  V30 28658 N 2657.62 -0.254594 1.5553 0
M  V30 28659 C 2658.87 -0.981762 1.76652 0
M  V30 28660 C 2659.19 -1.86144 0.580996 0
M  V30 28661 O 2658.46 -1.91699 -0.403503 0
M  V30 28662 H 2657.04 -0.365487 0.651482 0
M  V30 28663 H 2659.7 -0.274392 1.92959 0
M  V30 28664 H 2658.8 -1.60798 2.67489 0
M  V30 28665 N 2659.1 -1.48777 -0.519925 0
M  V30 28666 C 2660.38 -1.47799 -1.2812 0
M  V30 28667 C 2660.76 -0.195194 -2.10196 0
M  V30 28668 O 2660.11 0.822887 -2.13169 0
M  V30 28669 C 2660.32 -2.74591 -2.15408 0
M  V30 28670 C 2661.66 -3.23325 -2.7522 0
M  V30 28671 O 2662.69 -2.75578 -2.25689 0
M  V30 28672 O 2661.55 -4.06435 -3.65339 0
M  V30 28673 H 2658.64 -0.590711 -0.578783 0
M  V30 28674 H 2661.19 -1.61021 -0.535751 0
M  V30 28675 H 2659.96 -3.5946 -1.54611 0
M  V30 28676 H 2659.58 -2.64138 -2.97182 0
M  V30 28677 N 2660.58 0.769564 -1.37534 0
M  V30 28678 C 2661.54 1.86454 -1.33295 0
M  V30 28679 C 2662.54 1.5905 -0.236565 0
M  V30 28680 O 2663.73 1.67092 -0.49254 0
M  V30 28681 C 2660.86 3.23631 -1.07124 0
M  V30 28682 H 2662.06 1.91623 -2.30696 0
M  V30 28683 H 2659.61 0.96955 -1.22594 0
M  V30 28684 H 2660.35 3.24138 -0.102635 0
M  V30 28685 H 2660.13 3.44914 -1.86485 0
M  V30 28686 H 2661.62 4.03709 -1.06813 0
M  V30 28687 N 2662.06 1.22139 0.995977 0
M  V30 28688 C 2663.31 1.04203 1.73165 0
M  V30 28689 C 2663.63 -0.424197 1.9033 0
M  V30 28690 O 2662.9 -1.30536 1.46072 0
M  V30 28691 H 2661.48 0.382591 0.641586 0
M  V30 28692 H 2664.14 1.536 1.19971 0
M  V30 28693 H 2663.24 1.51736 2.72732 0
M  V30 28694 N 2663.54 -1.19233 1.03059 0
M  V30 28695 C 2664.95 -1.70643 0.757479 0
M  V30 28696 C 2665.3 -1.82405 -0.722703 0
M  V30 28697 O 2664.42 -1.4964 -1.56322 0
M  V30 28698 C 2665.02 -3.09937 1.36838 0
M  V30 28699 C 2663.58 -3.586 1.14382 0
M  V30 28700 C 2662.72 -2.35419 1.46537 0
M  V30 28701 H 2665.68 -1.0405 1.1983 0
M  V30 28702 H 2665.7 -3.72705 0.76625 0
M  V30 28703 H 2665.21 -3.01344 2.44567 0
M  V30 28704 H 2663.31 -3.72503 0.0848197 0
M  V30 28705 H 2663.42 -4.42618 1.83373 0
M  V30 28706 H 2661.79 -2.38839 0.884754 0
M  V30 28707 H 2662.57 -2.29455 2.55353 0
M  V30 28708 N 2665.01 -0.808686 -1.3527 0
M  V30 28709 C 2666.24 -0.402572 -2.02946 0
M  V30 28710 C 2666.66 0.987119 -1.60939 0
M  V30 28711 O 2666.01 1.63641 -0.807946 0
M  V30 28712 C 2666.07 -0.478743 -3.58316 0
M  V30 28713 O 2665.79 -1.81365 -3.98796 0
M  V30 28714 C 2667.29 -0.065706 -4.43251 0
M  V30 28715 H 2664.51 -0.163291 -0.650828 0
M  V30 28716 H 2667.05 -1.09289 -1.72847 0
M  V30 28717 H 2665.21 0.163347 -3.87055 0
M  V30 28718 H 2665.62 -1.7779 -4.93448 0
M  V30 28719 H 2667.09 -0.170114 -5.51738 0
M  V30 28720 H 2667.57 0.989203 -4.27915 0
M  V30 28721 H 2668.18 -0.681034 -4.19812 0
M  V30 28722 N 2666.49 1.47225 -0.562374 0
M  V30 28723 C 2667.43 2.27034 0.230365 0
M  V30 28724 C 2668.4 1.34372 0.915586 0
M  V30 28725 O 2669.59 1.6376 0.933544 0
M  V30 28726 C 2666.71 3.1155 1.32869 0
M  V30 28727 C 2665.76 4.19827 0.751478 0
M  V30 28728 S 2666.59 5.33959 -0.405942 0
M  V30 28729 C 2667.75 6.2204 0.694077 0
M  V30 28730 H 2667.98 2.93922 -0.446863 0
M  V30 28731 H 2665.52 1.50408 -0.348808 0
M  V30 28732 H 2667.47 3.60813 1.95766 0
M  V30 28733 H 2666.13 2.44014 1.97778 0
M  V30 28734 H 2665.33 4.78712 1.57642 0
M  V30 28735 H 2664.93 3.73472 0.19858 0
M  V30 28736 H 2667.22 6.58701 1.5849 0
M  V30 28737 H 2668.16 7.07957 0.142468 0
M  V30 28738 H 2668.57 5.55768 0.989072 0
M  V30 28739 N 2667.97 0.299089 1.54736 0
M  V30 28740 C 2669.22 -0.310135 1.99706 0
M  V30 28741 C 2669.54 -1.54557 1.18899 0
M  V30 28742 O 2668.81 -1.93823 0.284479 0
M  V30 28743 H 2667.39 -0.117583 0.737688 0
M  V30 28744 H 2670.05 0.409976 1.90539 0
M  V30 28745 H 2669.15 -0.583496 3.06597 0
M  V30 28746 N 2669.45 -1.57577 0.0267774 0
M  V30 28747 C 2670.38 -2.1311 -0.95427 0
M  V30 28748 C 2671.36 -1.04665 -1.34086 0
M  V30 28749 O 2672.54 -1.32486 -1.4199 0
M  V30 28750 C 2669.67 -2.65628 -2.23739 0
M  V30 28751 C 2668.63 -3.78839 -1.99162 0
M  V30 28752 C 2667.95 -4.17775 -3.33719 0
M  V30 28753 C 2669.25 -5.05012 -1.33268 0
M  V30 28754 H 2670.95 -2.95333 -0.491796 0
M  V30 28755 H 2668.49 -1.42068 -0.235115 0
M  V30 28756 H 2670.45 -3.03111 -2.92748 0
M  V30 28757 H 2669.17 -1.80563 -2.72148 0
M  V30 28758 H 2667.83 -3.4179 -1.32571 0
M  V30 28759 H 2667.48 -3.29695 -3.79882 0
M  V30 28760 H 2667.18 -4.94063 -3.18081 0
M  V30 28761 H 2668.7 -4.57839 -4.03999 0
M  V30 28762 H 2670.12 -5.40096 -1.92273 0
M  V30 28763 H 2668.51 -5.86282 -1.28035 0
M  V30 28764 H 2669.58 -4.83938 -0.305326 0
M  V30 28765 N 2670.93 0.246342 -1.55663 0
M  V30 28766 C 2671.86 1.3314 -1.85335 0
M  V30 28767 C 2672.84 1.46353 -0.70849 0
M  V30 28768 O 2674.02 1.62559 -0.954303 0
M  V30 28769 C 2671.15 2.70483 -2.03854 0
M  V30 28770 C 2670.19 2.74417 -3.26493 0
M  V30 28771 S 2671.03 2.3097 -4.83128 0
M  V30 28772 C 2672.18 3.70237 -5.04654 0
M  V30 28773 H 2672.42 1.07772 -2.77078 0
M  V30 28774 H 2669.95 0.447354 -1.47777 0
M  V30 28775 H 2671.91 3.49565 -2.15208 0
M  V30 28776 H 2670.57 2.93088 -1.12952 0
M  V30 28777 H 2669.76 3.75284 -3.36419 0
M  V30 28778 H 2669.36 2.03379 -3.13868 0
M  V30 28779 H 2671.66 4.65738 -4.92031 0
M  V30 28780 H 2672.6 3.65245 -6.06632 0
M  V30 28781 H 2673.01 3.62776 -4.32497 0
M  V30 28782 N 2672.4 1.4905 0.512027 0
M  V30 28783 C 2673.82 1.51309 1.09373 0
M  V30 28784 C 2674.17 0.293005 1.94 0
M  V30 28785 O 2673.29 -0.59824 2.07966 0
M  V30 28786 C 2673.89 2.74179 1.99026 0
M  V30 28787 C 2672.45 2.79251 2.5238 0
M  V30 28788 C 2671.59 2.45075 1.29744 0
M  V30 28789 H 2674.54 1.55907 0.296439 0
M  V30 28790 H 2674.56 2.53716 2.83564 0
M  V30 28791 H 2674.08 3.62962 1.37406 0
M  V30 28792 H 2672.18 1.94722 3.1767 0
M  V30 28793 H 2672.29 3.81144 2.90286 0
M  V30 28794 H 2670.65 1.96615 1.61909 0
M  V30 28795 H 2671.44 3.36119 0.698496 0
M  V30 28796 N 2673.88 -0.762259 1.3794 0
M  V30 28797 C 2675.13 -1.51645 1.32991 0
M  V30 28798 C 2675.44 -1.95435 -0.0802578 0
M  V30 28799 O 2676.65 -2.70326 -0.252248 0
M  V30 28800 C 2675.11 -2.73881 2.3349 0
M  V30 28801 C 2674.71 -2.37151 3.80084 0
M  V30 28802 C 2676.46 -3.51797 2.37569 0
M  V30 28803 C 2674.37 -3.55945 4.72289 0
M  V30 28804 H 2673.3 -0.569362 0.494311 0
M  V30 28805 H 2675.95 -0.834054 1.6345 0
M  V30 28806 H 2674.33 -3.44058 1.96062 0
M  V30 28807 H 2675.5 -1.74696 4.26401 0
M  V30 28808 H 2673.82 -1.72388 3.7904 0
M  V30 28809 H 2676.41 -4.40109 3.03658 0
M  V30 28810 H 2676.76 -3.92336 1.39206 0
M  V30 28811 H 2677.29 -2.88625 2.73752 0
M  V30 28812 H 2674.03 -3.2048 5.71815 0
M  V30 28813 H 2673.55 -4.17473 4.3067 0
M  V30 28814 H 2675.23 -4.22638 4.89884 0
M  V30 28815 N 2675.36 -1.22666 -0.989486 0
M  V30 28816 C 2676.59 -1.08054 -1.77029 0
M  V30 28817 C 2677.01 0.364451 -1.84536 0
M  V30 28818 O 2676.37 1.26338 -1.30033 0
M  V30 28819 C 2676.42 -1.7003 -3.17997 0
M  V30 28820 O 2675.52 -0.956286 -4.01159 0
M  V30 28821 H 2674.86 -0.379302 -0.545001 0
M  V30 28822 H 2677.39 -1.62534 -1.24274 0
M  V30 28823 H 2677.4 -1.74895 -3.68613 0
M  V30 28824 H 2676.08 -2.75179 -3.11848 0
M  V30 28825 H 2674.65 -0.983903 -3.59686 0
M  V30 28826 N 2676.84 1.18685 -1.0369 0
M  V30 28827 C 2678.25 1.70239 -0.766518 0
M  V30 28828 C 2678.6 1.82785 0.713019 0
M  V30 28829 O 2677.73 1.50467 1.55527 0
M  V30 28830 C 2678.32 3.09207 -1.3848 0
M  V30 28831 C 2676.88 3.57988 -1.16282 0
M  V30 28832 C 2676.03 2.34639 -1.47784 0
M  V30 28833 H 2678.98 1.03413 -1.2038 0
M  V30 28834 H 2679 3.72293 -0.786004 0
M  V30 28835 H 2678.51 3.00043 -2.46162 0
M  V30 28836 H 2676.61 3.72453 -0.104573 0
M  V30 28837 H 2676.73 4.4164 -1.85718 0
M  V30 28838 H 2675.09 2.38367 -0.897408 0
M  V30 28839 H 2675.87 2.28098 -2.56566 0
M  V30 28840 N 2678.32 0.815849 1.34839 0
M  V30 28841 C 2679.54 0.412296 2.03261 0
M  V30 28842 C 2679.97 -0.971723 1.61056 0
M  V30 28843 O 2679.33 -1.63099 0.791729 0
M  V30 28844 C 2679.37 0.514351 3.56913 0
M  V30 28845 O 2678.48 -0.468603 4.09729 0
M  V30 28846 H 2677.82 0.170782 0.641661 0
M  V30 28847 H 2680.35 1.1043 1.72239 0
M  V30 28848 H 2680.36 0.387528 4.06155 0
M  V30 28849 H 2679.03 1.52381 3.86979 0
M  V30 28850 H 2677.61 -0.301251 3.71681 0
M  V30 28851 N 2679.8 -1.46924 0.570174 0
M  V30 28852 C 2681.07 -1.95594 -0.0152915 0
M  V30 28853 C 2681.45 -1.51284 -1.47229 0
M  V30 28854 O 2680.8 -0.757662 -2.15573 0
M  V30 28855 C 2681.01 -3.48704 0.143685 0
M  V30 28856 C 2682.36 -4.246 0.00501947 0
M  V30 28857 O 2683.38 -3.56127 0.071884 0
M  V30 28858 O 2682.24 -5.46318 -0.141079 0
M  V30 28859 H 2679.34 -0.825042 -0.0568674 0
M  V30 28860 H 2681.88 -1.57266 0.63761 0
M  V30 28861 H 2680.65 -3.73802 1.15705 0
M  V30 28862 H 2680.28 -3.9383 -0.546231 0
M  V30 28863 N 2681.27 -0.307291 -1.54575 0
M  V30 28864 C 2682.5 0.302561 -2.04676 0
M  V30 28865 C 2682.92 1.47039 -1.18427 0
M  V30 28866 O 2682.27 1.81273 -0.211289 0
M  V30 28867 C 2682.32 0.752739 -3.53576 0
M  V30 28868 O 2682.05 -0.368613 -4.36547 0
M  V30 28869 C 2683.55 1.42709 -4.19701 0
M  V30 28870 H 2680.77 0.0648257 -0.667861 0
M  V30 28871 H 2683.31 -0.448751 -1.99516 0
M  V30 28872 H 2681.47 1.45406 -3.59076 0
M  V30 28873 H 2681.88 -0.0169859 -5.24497 0
M  V30 28874 H 2683.35 1.69318 -5.25391 0
M  V30 28875 H 2683.83 2.36918 -3.69819 0
M  V30 28876 H 2684.44 0.768782 -4.18294 0
M  V30 28877 N 2682.75 1.57561 -0.0351337 0
M  V30 28878 C 2683.71 2.09494 0.929782 0
M  V30 28879 C 2684.71 1.01121 1.25024 0
M  V30 28880 O 2685.9 1.27258 1.18959 0
M  V30 28881 C 2683.04 2.56581 2.24452 0
M  V30 28882 H 2684.23 2.96036 0.479883 0
M  V30 28883 H 2681.78 1.54842 0.213005 0
M  V30 28884 H 2682.52 1.73386 2.74058 0
M  V30 28885 H 2682.3 3.35761 2.02502 0
M  V30 28886 H 2683.79 2.96964 2.93602 0
M  V30 28887 N 2684.23 -0.238084 1.55791 0
M  V30 28888 C 2685.48 -0.962003 1.79212 0
M  V30 28889 C 2685.83 -1.82624 0.605495 0
M  V30 28890 O 2685.12 -1.87357 -0.401007 0
M  V30 28891 C 2685.32 -1.8487 3.05873 0
M  V30 28892 C 2685.15 -1.07178 4.36741 0
M  V30 28893 C 2683.92 -0.773336 4.99347 0
M  V30 28894 C 2686.11 -0.445078 5.12371 0
M  V30 28895 N 2684.1 0.0267116 6.13894 0
M  V30 28896 C 2685.47 0.219131 6.19613 0
M  V30 28897 C 2687.52 -0.356435 4.96623 0
M  V30 28898 C 2686.23 0.963483 7.12818 0
M  V30 28899 C 2688.25 0.374408 5.90214 0
M  V30 28900 C 2687.61 1.02722 6.9687 0
M  V30 28901 H 2683.71 -0.332836 0.707633 0
M  V30 28902 H 2686.3 -0.234334 1.93285 0
M  V30 28903 H 2684.47 -2.54832 2.93113 0
M  V30 28904 H 2686.2 -2.50884 3.17552 0
M  V30 28905 H 2682.95 -1.0873 4.6095 0
M  V30 28906 H 2683.38 0.415087 6.75726 0
M  V30 28907 H 2688.02 -0.846805 4.14233 0
M  V30 28908 H 2685.74 1.46543 7.94702 0
M  V30 28909 H 2689.32 0.44378 5.80105 0
M  V30 28910 H 2688.2 1.58371 7.68042 0
M  V30 28911 N 2685.71 -1.4932 -0.504115 0
M  V30 28912 C 2687.12 -1.51887 -1.08569 0
M  V30 28913 C 2687.47 -0.303289 -1.93842 0
M  V30 28914 O 2686.59 0.587203 -2.08281 0
M  V30 28915 C 2687.19 -2.75231 -1.97569 0
M  V30 28916 C 2685.75 -2.80586 -2.50895 0
M  V30 28917 C 2684.9 -2.45759 -1.28443 0
M  V30 28918 H 2687.85 -1.56062 -0.288167 0
M  V30 28919 H 2687.87 -2.55216 -2.82215 0
M  V30 28920 H 2687.38 -3.63685 -1.35479 0
M  V30 28921 H 2685.48 -1.96404 -3.16633 0
M  V30 28922 H 2685.59 -3.82678 -2.88261 0
M  V30 28923 H 2683.96 -1.97471 -1.60864 0
M  V30 28924 H 2684.74 -3.36485 -0.680661 0
M  V30 28925 N 2687.19 0.754933 -1.38342 0
M  V30 28926 C 2688.6 1.33218 -1.30805 0
M  V30 28927 C 2688.95 1.96166 0.0367655 0
M  V30 28928 O 2688.07 1.94975 0.938809 0
M  V30 28929 C 2688.67 2.42221 -2.36885 0
M  V30 28930 C 2687.23 2.9567 -2.3293 0
M  V30 28931 C 2686.37 1.69038 -2.19822 0
M  V30 28932 H 2689.32 0.553911 -1.4872 0
M  V30 28933 H 2689.35 3.22126 -2.02522 0
M  V30 28934 H 2688.86 1.96377 -3.3475 0
M  V30 28935 H 2686.96 3.45846 -1.38641 0
M  V30 28936 H 2687.07 3.5014 -3.27015 0
M  V30 28937 H 2685.44 1.92612 -1.66651 0
M  V30 28938 H 2686.22 1.25274 -3.19627 0
M  V30 28939 N 2688.66 1.23189 0.982967 0
M  V30 28940 C 2689.63 1.01201 2.05648 0
M  V30 28941 C 2690.63 -0.0252181 1.6078 0
M  V30 28942 O 2691.82 0.214273 1.72877 0
M  V30 28943 C 2688.95 0.530715 3.36744 0
M  V30 28944 H 2690.14 1.96465 2.26587 0
M  V30 28945 H 2687.69 1.05197 1.156 0
M  V30 28946 H 2688.43 -0.425817 3.21492 0
M  V30 28947 H 2688.21 1.27916 3.70648 0
M  V30 28948 H 2689.7 0.397439 4.15704 0
M  V30 28949 N 2690.14 -1.18133 1.04318 0
M  V30 28950 C 2691.55 -1.6983 0.775535 0
M  V30 28951 C 2691.9 -1.83161 -0.703316 0
M  V30 28952 O 2691.03 -1.5129 -1.54726 0
M  V30 28953 C 2691.62 -3.08468 1.40118 0
M  V30 28954 C 2690.18 -3.57366 1.18179 0
M  V30 28955 C 2689.33 -2.33851 1.49026 0
M  V30 28956 H 2692.28 -1.02773 1.20927 0
M  V30 28957 H 2692.3 -3.71871 0.805737 0
M  V30 28958 H 2691.81 -2.98734 2.4775 0
M  V30 28959 H 2689.91 -3.72393 0.124324 0
M  V30 28960 H 2690.03 -4.40649 1.88058 0
M  V30 28961 H 2688.39 -2.37887 0.910037 0
M  V30 28962 H 2689.17 -2.26734 2.57772 0
M  V30 28963 N 2691.62 -0.822988 -1.34405 0
M  V30 28964 C 2693.03 -0.469911 -1.8069 0
M  V30 28965 C 2693.38 1.0097 -1.68225 0
M  V30 28966 O 2692.51 1.78575 -1.22229 0
M  V30 28967 C 2693.1 -0.846176 -3.28063 0
M  V30 28968 C 2691.66 -0.545468 -3.72427 0
M  V30 28969 C 2690.81 -1.06305 -2.56114 0
M  V30 28970 H 2693.76 -1.01315 -1.22151 0
M  V30 28971 H 2693.78 -0.149989 -3.80204 0
M  V30 28972 H 2693.29 -1.9231 -3.37103 0
M  V30 28973 H 2691.39 0.522044 -3.68925 0
M  V30 28974 H 2691.51 -1.08958 -4.66546 0
M  V30 28975 H 2689.87 -0.484598 -2.50047 0
M  V30 28976 H 2690.65 -2.14642 -2.67925 0
M  V30 28977 N 2693.1 1.4662 -0.577957 0
M  V30 28978 C 2694.51 1.86096 -0.150104 0
M  V30 28979 C 2694.86 1.48212 1.2856 0
M  V30 28980 O 2693.99 0.894788 1.97034 0
M  V30 28981 C 2694.58 3.37757 -0.265636 0
M  V30 28982 C 2693.14 3.76247 0.107314 0
M  V30 28983 C 2692.29 2.70647 -0.603758 0
M  V30 28984 H 2695.24 1.37842 -0.786462 0
M  V30 28985 H 2695.26 3.77063 0.510286 0
M  V30 28986 H 2694.77 3.65299 -1.31066 0
M  V30 28987 H 2692.87 3.54323 1.15266 0
M  V30 28988 H 2692.98 4.78363 -0.265694 0
M  V30 28989 H 2691.35 2.54661 -0.0445331 0
M  V30 28990 H 2692.13 3.01029 -1.65034 0
M  V30 28991 N 2694.58 0.315484 1.5441 0
M  V30 28992 C 2695.82 -0.288936 2.00024 0
M  V30 28993 C 2696.15 -1.53288 1.20532 0
M  V30 28994 O 2695.42 -1.93511 0.30502 0
M  V30 28995 H 2694 -0.109753 0.738893 0
M  V30 28996 H 2696.66 0.430163 1.90094 0
M  V30 28997 H 2695.75 -0.550945 3.07199 0
M  V30 28998 N 2696.05 -1.5754 0.0434891 0
M  V30 28999 C 2696.99 -2.08009 -0.96255 0
M  V30 29000 C 2698 -1.00636 -1.2797 0
M  V30 29001 O 2699.19 -1.28221 -1.24183 0
M  V30 29002 C 2696.29 -2.50175 -2.28617 0
M  V30 29003 C 2695.46 -3.80795 -2.15207 0
M  V30 29004 C 2694.52 -4.09357 -3.30626 0
M  V30 29005 O 2693.55 -4.79394 -3.06872 0
M  V30 29006 N 2694.75 -3.60662 -4.54866 0
M  V30 29007 H 2697.51 -2.94943 -0.531839 0
M  V30 29008 H 2695.07 -1.61268 -0.142936 0
M  V30 29009 H 2697.07 -2.66364 -3.04684 0
M  V30 29010 H 2695.64 -1.6853 -2.6328 0
M  V30 29011 H 2694.86 -3.74263 -1.23778 0
M  V30 29012 H 2696.14 -4.66346 -2.03466 0
M  V30 29013 H 2695.54 -3.04028 -4.77057 0
M  V30 29014 H 2694.1 -3.82103 -5.28053 0
M  V30 29015 N 2697.53 0.229818 -1.55915 0
M  V30 29016 C 2698.76 0.97253 -1.82618 0
M  V30 29017 C 2699.18 1.78277 -0.62152 0
M  V30 29018 O 2698.53 1.77837 0.409925 0
M  V30 29019 C 2698.58 1.89674 -3.07744 0
M  V30 29020 O 2698.3 1.11926 -4.23561 0
M  V30 29021 C 2699.81 2.75403 -3.47373 0
M  V30 29022 H 2697.03 0.285408 -0.607275 0
M  V30 29023 H 2699.57 0.247543 -2.02996 0
M  V30 29024 H 2697.72 2.57578 -2.89365 0
M  V30 29025 H 2698.14 1.7459 -4.94589 0
M  V30 29026 H 2699.61 3.35969 -4.37982 0
M  V30 29027 H 2700.09 3.47381 -2.68743 0
M  V30 29028 H 2700.7 2.12925 -3.68162 0
M  V30 29029 N 2699.01 1.49585 0.49619 0
M  V30 29030 C 2700.26 1.59551 1.25186 0
M  V30 29031 C 2700.59 0.2835 1.9212 0
M  V30 29032 O 2699.86 -0.713292 1.80949 0
M  V30 29033 C 2700.15 2.75816 2.31511 0
M  V30 29034 C 2700 4.16825 1.69047 0
M  V30 29035 C 2701.32 2.87708 3.33035 0
M  V30 29036 H 2698.44 0.580735 0.45378 0
M  V30 29037 H 2701.08 1.81887 0.549295 0
M  V30 29038 H 2699.23 2.56902 2.91433 0
M  V30 29039 H 2700.9 4.47267 1.12915 0
M  V30 29040 H 2699.15 4.22249 0.994411 0
M  V30 29041 H 2699.82 4.94059 2.46191 0
M  V30 29042 H 2702.29 3.04941 2.83109 0
M  V30 29043 H 2701.17 3.70727 4.04787 0
M  V30 29044 H 2701.43 1.97262 3.95652 0
M  V30 29045 N 2700.49 -0.747586 1.3874 0
M  V30 29046 C 2701.9 -1.05146 1.20069 0
M  V30 29047 C 2702.1 -2.01429 0.0535189 0
M  V30 29048 O 2701.16 -2.45297 -0.598817 0
M  V30 29049 C 2702.47 -1.62579 2.52959 0
M  V30 29050 C 2704.02 -1.74721 2.59695 0
M  V30 29051 C 2704.5 -2.35566 3.92776 0
M  V30 29052 N 2705.99 -2.4299 3.94348 0
M  V30 29053 C 2706.72 -2.90977 4.94085 0
M  V30 29054 N 2706.22 -3.38954 6.0422 0
M  V30 29055 N 2708.01 -2.90072 4.81472 0
M  V30 29056 H 2700.16 -0.108771 2.12121 0
M  V30 29057 H 2702.43 -0.110882 0.941493 0
M  V30 29058 H 2702.13 -0.992991 3.37391 0
M  V30 29059 H 2702.01 -2.6156 2.71783 0
M  V30 29060 H 2704.39 -2.37127 1.75655 0
M  V30 29061 H 2704.47 -0.744283 2.44733 0
M  V30 29062 H 2704.12 -1.73792 4.77241 0
M  V30 29063 H 2704.05 -3.36512 4.05052 0
M  V30 29064 H 2706.54 -2.09064 3.14802 0
M  V30 29065 H 2706.85 -3.74044 6.76248 0
M  V30 29066 H 2705.2 -3.36996 6.07831 0
M  V30 29067 H 2708.39 -2.51905 3.9454 0
M  V30 29068 H 2708.56 -3.27157 5.5935 0
M  V30 29069 N 2701.97 -1.23709 -0.97642 0
M  V30 29070 C 2703.38 -1.0659 -1.53282 0
M  V30 29071 C 2703.73 0.365492 -1.92766 0
M  V30 29072 O 2702.85 1.25274 -1.76452 0
M  V30 29073 C 2703.45 -1.92869 -2.78544 0
M  V30 29074 C 2702.01 -1.8 -3.30571 0
M  V30 29075 C 2701.15 -1.88331 -2.03535 0
M  V30 29076 H 2704.11 -1.37313 -0.795668 0
M  V30 29077 H 2704.13 -1.45583 -3.51548 0
M  V30 29078 H 2703.64 -2.97041 -2.49776 0
M  V30 29079 H 2701.74 -0.786266 -3.6421 0
M  V30 29080 H 2701.85 -2.63607 -4.0006 0
M  V30 29081 H 2700.22 -1.31958 -2.17851 0
M  V30 29082 H 2701 -2.94067 -1.77143 0
M  V30 29083 N 2703.44 1.17579 -1.04943 0
M  V30 29084 C 2704.69 1.87406 -0.756525 0
M  V30 29085 C 2705.01 1.81283 0.718446 0
M  V30 29086 O 2704.28 1.23709 1.51898 0
M  V30 29087 H 2702.86 0.693802 -0.276853 0
M  V30 29088 H 2705.53 1.42649 -1.32805 0
M  V30 29089 H 2704.62 2.93213 -1.06923 0
M  V30 29090 N 2704.92 0.830104 1.33967 0
M  V30 29091 C 2706.17 0.422226 1.98356 0
M  V30 29092 C 2706.5 -1.01385 1.65635 0
M  V30 29093 O 2705.78 -1.70734 0.931678 0
M  V30 29094 C 2706.06 0.633105 3.54491 0
M  V30 29095 C 2705.91 2.11581 3.9693 0
M  V30 29096 C 2707.23 0.0736357 4.40038 0
M  V30 29097 H 2704.35 0.154883 0.720542 0
M  V30 29098 H 2706.99 1.044 1.58747 0
M  V30 29099 H 2705.14 0.103843 3.88361 0
M  V30 29100 H 2706.81 2.70927 3.73358 0
M  V30 29101 H 2705.06 2.6036 3.4698 0
M  V30 29102 H 2705.73 2.21415 5.05648 0
M  V30 29103 H 2708.2 0.525923 4.12763 0
M  V30 29104 H 2707.08 0.250938 5.48326 0
M  V30 29105 H 2707.34 -1.02195 4.30126 0
M  V30 29106 N 2706.4 -1.46311 0.585725 0
M  V30 29107 C 2707.35 -2.30339 -0.145795 0
M  V30 29108 C 2708.32 -1.40799 -0.88119 0
M  V30 29109 O 2709.5 -1.69746 -0.871263 0
M  V30 29110 C 2706.64 -3.2532 -1.15155 0
M  V30 29111 C 2705.76 -4.2996 -0.419292 0
M  V30 29112 C 2704.89 -5.12067 -1.41284 0
M  V30 29113 C 2703.93 -6.08453 -0.667154 0
M  V30 29114 N 2703.07 -6.83417 -1.60891 0
M  V30 29115 H 2707.91 -2.92364 0.576807 0
M  V30 29116 H 2705.44 -1.44086 0.296262 0
M  V30 29117 H 2707.4 -3.78835 -1.74757 0
M  V30 29118 H 2706.03 -2.65097 -1.84183 0
M  V30 29119 H 2705.08 -3.79279 0.291817 0
M  V30 29120 H 2706.4 -4.98532 0.163521 0
M  V30 29121 H 2705.55 -5.69873 -2.08157 0
M  V30 29122 H 2704.29 -4.43463 -2.02958 0
M  V30 29123 H 2703.29 -5.49798 0.0153323 0
M  V30 29124 H 2704.52 -6.79077 -0.0557623 0
M  V30 29125 H 2702.47 -6.1752 -2.2137 0
M  V30 29126 H 2702.38 -7.48261 -1.07898 0
M  V30 29127 H 2703.65 -7.45779 -2.26789 0
M  V30 29128 N 2707.88 -0.323668 -1.54241 0
M  V30 29129 C 2708.79 0.551165 -2.28034 0
M  V30 29130 C 2709.81 1.12911 -1.3239 0
M  V30 29131 O 2710.98 1.14905 -1.65405 0
M  V30 29132 C 2708.05 1.696 -3.02385 0
M  V30 29133 C 2707.11 1.14986 -4.13614 0
M  V30 29134 C 2706.34 2.24013 -4.84411 0
M  V30 29135 O 2706.56 3.4436 -4.54722 0
M  V30 29136 O 2705.5 1.89426 -5.71315 0
M  V30 29137 H 2709.32 -0.0481193 -3.03662 0
M  V30 29138 H 2706.91 -0.0893551 -1.49133 0
M  V30 29139 H 2708.79 2.36252 -3.48945 0
M  V30 29140 H 2707.47 2.28147 -2.29632 0
M  V30 29141 H 2706.37 0.448419 -3.71403 0
M  V30 29142 H 2707.71 0.609522 -4.88411 0
M  V30 29143 N 2709.36 1.57515 -0.0518432 0
M  V30 29144 C 2710.58 1.97444 0.634861 0
M  V30 29145 C 2711.01 0.929236 1.63545 0
M  V30 29146 O 2710.37 -0.107452 1.80981 0
M  V30 29147 C 2710.41 3.36445 1.29759 0
M  V30 29148 O 2709.52 3.34417 2.41327 0
M  V30 29149 H 2708.86 0.643177 0.164983 0
M  V30 29150 H 2711.39 2.04245 -0.120442 0
M  V30 29151 H 2711.4 3.73187 1.64912 0
M  V30 29152 H 2710.07 4.12054 0.564288 0
M  V30 29153 H 2708.65 3.09422 2.08117 0
M  V30 29154 N 2710.84 -0.221546 1.56035 0
M  V30 29155 C 2711.77 -1.27776 1.95436 0
M  V30 29156 C 2712.75 -1.48887 0.82259 0
M  V30 29157 O 2713.93 -1.61071 1.08489 0
M  V30 29158 C 2711.06 -2.62755 2.27106 0
M  V30 29159 C 2710.02 -2.563 3.42774 0
M  V30 29160 C 2709.34 -3.95308 3.60049 0
M  V30 29161 C 2710.64 -2.11084 4.77745 0
M  V30 29162 H 2712.34 -0.950454 2.83913 0
M  V30 29163 H 2709.88 -0.455767 1.36597 0
M  V30 29164 H 2711.83 -3.36803 2.53262 0
M  V30 29165 H 2710.56 -2.97173 1.35483 0
M  V30 29166 H 2709.22 -1.84709 3.16667 0
M  V30 29167 H 2708.87 -4.27034 2.65802 0
M  V30 29168 H 2708.57 -3.91871 4.37848 0
M  V30 29169 H 2710.09 -4.71018 3.88554 0
M  V30 29170 H 2711.5 -2.74876 5.03106 0
M  V30 29171 H 2709.9 -2.18707 5.58827 0
M  V30 29172 H 2710.97 -1.06313 4.73102 0
M  V30 29173 N 2712.31 -1.49846 -0.48825 0
M  V30 29174 C 2713.56 -1.60212 -1.24338 0
M  V30 29175 C 2713.89 -0.293685 -1.91966 0
M  V30 29176 O 2713.17 0.703686 -1.81324 0
M  V30 29177 C 2713.45 -2.7704 -2.30045 0
M  V30 29178 C 2713.3 -4.17716 -1.66834 0
M  V30 29179 C 2714.62 -2.8947 -3.31504 0
M  V30 29180 H 2711.74 -0.583133 -0.450694 0
M  V30 29181 H 2714.38 -1.82175 -0.539641 0
M  V30 29182 H 2712.53 -2.58444 -2.90067 0
M  V30 29183 H 2714.21 -4.4786 -1.10542 0
M  V30 29184 H 2712.45 -4.2277 -0.972004 0
M  V30 29185 H 2713.12 -4.95357 -2.43567 0
M  V30 29186 H 2715.6 -3.06438 -2.81487 0
M  V30 29187 H 2714.47 -3.72869 -4.02815 0
M  V30 29188 H 2714.73 -1.99357 -3.946 0
M  V30 29189 O 2713.83 0.633652 -1.4855 0
M  V30 29190 H 2714.52 1.28766 -1.44703 0
M  V30 END ATOM
M  V30 BEGIN BOND
M  V30 END BOND
M  V30 END CTAB
M  END
$$$$
