drugbank_target|P22570 NADPH:adrenodoxin oxidoreductase, mitochondrial (DB03147; DB03461)
 OpenBabel12092120543D

  0  0  0     0  0            999 V3000
M  V30 BEGIN CTAB
M  V30 COUNTS 7609 7707 0 0 0
M  V30 BEGIN ATOM
M  V30 1 H -0.908 1.98254 -0.117106 0
M  V30 2 N 0 1.576 0 0
M  V30 3 C 0.933 2.03868 1.02534 0
M  V30 4 C 1.911 0.928543 1.3348 0
M  V30 5 O 3.095 1.19667 1.45644 0
M  V30 6 C 0.222 2.43627 2.35294 0
M  V30 7 C -0.732 3.65373 2.2001 0
M  V30 8 S 0.101 5.13292 1.52614 0
M  V30 9 C 1.257 5.56322 2.86805 0
M  V30 10 H 1.49 2.90518 0.631377 0
M  V30 11 H -0.977 1.52953 0.210867 0
M  V30 12 H 0.981 2.67203 3.11629 0
M  V30 13 H -0.358 1.57376 2.7183 0
M  V30 14 H -1.165 3.90944 3.18086 0
M  V30 15 H -1.563 3.418 1.51819 0
M  V30 16 H 0.729 5.58782 3.83104 0
M  V30 17 H 1.672 6.56266 2.65933 0
M  V30 18 H 2.08 4.83886 2.90714 0
M  V30 19 N 1.4781 -0.272755 1.55222 0
M  V30 20 C 2.4411 -1.32041 1.87344 0
M  V30 21 C 3.4411 -1.42342 0.74803 0
M  V30 22 O 4.6311 -1.41488 1.0162 0
M  V30 23 C 1.7631 -2.70173 2.07893 0
M  V30 24 H 2.9561 -1.04789 2.80997 0
M  V30 25 H 0.5091 -0.51083 1.47717 0
M  V30 26 H 1.2441 -3.02605 1.16622 0
M  V30 27 H 1.0291 -2.64082 2.89833 0
M  V30 28 H 2.5191 -3.45869 2.34017 0
M  V30 29 N 2.9562 -1.48159 -0.537278 0
M  V30 30 C 4.1812 -1.59707 -1.32319 0
M  V30 31 C 4.6062 -0.254859 -1.86365 0
M  V30 32 O 3.9642 0.772378 -1.64024 0
M  V30 33 C 4.0122 -2.6412 -2.45505 0
M  V30 34 O 3.1162 -2.20774 -3.48328 0
M  V30 35 H 2.4572 -0.535791 -0.392204 0
M  V30 36 H 4.9872 -1.94092 -0.647268 0
M  V30 37 H 4.9972 -2.85166 -2.91795 0
M  V30 38 H 3.6722 -3.61567 -2.05528 0
M  V30 39 H 2.2492 -2.09911 -3.08207 0
M  V30 40 N 4.4343 0.785586 -1.36625 0
M  V30 41 C 5.8503 1.08419 -1.17122 0
M  V30 42 C 6.0503 2.015 0.00208491 0
M  V30 43 O 5.1063 2.43551 0.666278 0
M  V30 44 C 6.4193 1.69498 -2.48377 0
M  V30 45 C 7.9673 1.81821 -2.54775 0
M  V30 46 C 8.4423 2.46315 -3.86126 0
M  V30 47 N 9.9333 2.53779 -3.87492 0
M  V30 48 C 10.6683 3.045 -4.85868 0
M  V30 49 N 10.1643 3.55499 -5.94637 0
M  V30 50 N 11.9573 3.03247 -4.73284 0
M  V30 51 H 4.1083 0.167264 -2.1174 0
M  V30 52 H 6.3713 0.13682 -0.938075 0
M  V30 53 H 6.0773 1.08571 -3.34522 0
M  V30 54 H 5.9513 2.6896 -2.64462 0
M  V30 55 H 8.3383 2.41884 -1.69045 0
M  V30 56 H 8.4193 0.811532 -2.42586 0
M  V30 57 H 8.0633 1.86895 -4.72263 0
M  V30 58 H 7.9933 3.47561 -3.95612 0
M  V30 59 H 10.4843 2.17672 -3.08913 0
M  V30 60 H 10.7973 3.92562 -6.65669 0
M  V30 61 H 9.1423 3.5364 -5.98301 0
M  V30 62 H 12.3333 2.62696 -3.87438 0
M  V30 63 H 12.5063 3.42467 -5.50109 0
M  V30 64 N 5.9124 1.20967 1.01018 0
M  V30 65 C 7.1524 1.03511 1.76252 0
M  V30 66 C 7.5164 -0.42458 1.87247 0
M  V30 67 O 8.7174 -0.719508 2.58991 0
M  V30 68 C 6.9884 1.70726 3.13986 0
M  V30 69 S 8.5474 1.68458 4.05176 0
M  V30 70 H 5.3654 0.371037 0.606508 0
M  V30 71 H 7.9674 1.53628 1.20908 0
M  V30 72 H 6.6714 2.76128 3.03614 0
M  V30 73 H 6.2024 1.20767 3.74405 0
M  V30 74 H 8.2174 0.721987 4.90919 0
M  V30 75 N 7.3905 -1.2043 1.01659 0
M  V30 76 C 8.6365 -1.90356 0.716674 0
M  V30 77 C 8.9915 -1.77367 -0.745557 0
M  V30 78 O 8.2845 -1.1471 -1.53467 0
M  V30 79 C 8.4785 -3.40464 1.08714 0
M  V30 80 C 8.3075 -3.6806 2.58384 0
M  V30 81 C 7.0775 -3.86775 3.25167 0
M  V30 82 C 9.2755 -3.70623 3.56572 0
M  V30 83 N 7.2575 -4.01889 4.64067 0
M  V30 84 C 8.6285 -3.91161 4.81034 0
M  V30 85 C 10.6835 -3.53586 3.50544 0
M  V30 86 C 9.3865 -3.96428 6.00198 0
M  V30 87 C 11.4125 -3.60125 4.6911 0
M  V30 88 C 10.7745 -3.81135 5.92381 0
M  V30 89 H 6.8735 -0.716226 0.313918 0
M  V30 90 H 9.4575 -1.44815 1.30141 0
M  V30 91 H 7.6285 -3.84757 0.530745 0
M  V30 92 H 9.3605 -3.97863 0.740763 0
M  V30 93 H 6.1155 -3.85156 2.75594 0
M  V30 94 H 6.5395 -4.13323 5.36184 0
M  V30 95 H 11.1815 -3.36308 2.56235 0
M  V30 96 H 8.8995 -4.12502 6.94887 0
M  V30 97 H 12.4855 -3.4825 4.66062 0
M  V30 98 H 11.3655 -3.86054 6.82592 0
M  V30 99 N 8.8686 -0.792821 -1.36206 0
M  V30 100 C 10.2846 -0.474903 -1.52371 0
M  V30 101 C 10.4846 1.00622 -1.74578 0
M  V30 102 O 9.5406 1.79162 -1.77924 0
M  V30 103 C 10.8536 -1.3083 -2.70747 0
M  V30 104 C 12.4016 -1.30234 -2.84619 0
M  V30 105 C 12.8766 -2.11956 -4.06004 0
M  V30 106 N 14.3676 -2.09419 -4.13156 0
M  V30 107 C 15.1026 -2.69419 -5.06163 0
M  V30 108 N 14.5986 -3.3829 -6.04592 0
M  V30 109 N 16.3916 -2.59134 -4.98804 0
M  V30 110 H 8.5426 -1.75222 -1.20046 0
M  V30 111 H 10.8056 -0.745024 -0.586211 0
M  V30 112 H 10.5116 -2.35881 -2.6087 0
M  V30 113 H 10.3856 -0.95196 -3.6499 0
M  V30 114 H 12.7726 -0.259748 -2.93955 0
M  V30 115 H 12.8536 -1.69847 -1.91274 0
M  V30 116 H 12.4976 -3.16248 -3.97429 0
M  V30 117 H 12.4276 -1.69711 -4.98503 0
M  V30 118 H 14.9186 -1.59297 -3.42685 0
M  V30 119 H 15.2316 -3.81394 -6.7213 0
M  V30 120 H 13.5766 -3.42393 -6.04807 0
M  V30 121 H 16.7676 -2.04927 -4.20859 0
M  V30 122 H 16.9406 -3.06185 -5.711 0
M  V30 123 N 10.3467 1.47872 -0.545128 0
M  V30 124 C 11.5927 2.03385 -0.0247951 0
M  V30 125 C 11.9477 1.41325 1.30556 0
M  V30 126 O 11.2407 0.5552 1.8338 0
M  V30 127 C 11.4347 3.57131 0.13867 0
M  V30 128 C 11.2637 4.34097 -1.17429 0
M  V30 129 C 10.0337 4.74458 -1.73831 0
M  V30 130 C 12.2317 4.6998 -2.08861 0
M  V30 131 N 10.2137 5.3602 -2.99258 0
M  V30 132 C 11.5847 5.31719 -3.18866 0
M  V30 133 C 13.6397 4.5191 -2.09003 0
M  V30 134 C 12.3427 5.77295 -4.29096 0
M  V30 135 C 14.3687 4.98477 -3.18237 0
M  V30 136 C 13.7307 5.60253 -4.26961 0
M  V30 137 H 9.8297 0.780339 -0.050943 0
M  V30 138 H 12.4137 1.80507 -0.729753 0
M  V30 139 H 10.5847 3.79802 0.812733 0
M  V30 140 H 12.3167 3.99282 0.659976 0
M  V30 141 H 9.0717 4.56037 -1.2778 0
M  V30 142 H 9.4957 5.71355 -3.63157 0
M  V30 143 H 14.1377 4.03516 -1.26234 0
M  V30 144 H 11.8557 6.24687 -5.12633 0
M  V30 145 H 15.4417 4.86274 -3.1942 0
M  V30 146 H 14.3217 5.95631 -5.10091 0
M  V30 147 N 11.8248 0.280983 1.55075 0
M  V30 148 C 13.0708 -0.327573 2.00745 0
M  V30 149 C 13.4258 -1.53045 1.16598 0
M  V30 150 O 12.7188 -1.90221 0.229451 0
M  V30 151 C 12.9128 -0.754656 3.49342 0
M  V30 152 C 12.7418 0.40529 4.4787 0
M  V30 153 C 11.5118 0.890947 4.97383 0
M  V30 154 C 13.7098 1.24371 4.99035 0
M  V30 155 N 11.6918 2.01975 5.79724 0
M  V30 156 C 13.0628 2.22031 5.7888 0
M  V30 157 C 15.1178 1.27638 4.81262 0
M  V30 158 C 13.8208 3.22709 6.42846 0
M  V30 159 C 15.8468 2.27164 5.46031 0
M  V30 160 C 15.2088 3.23556 6.25692 0
M  V30 161 H 11.3078 -0.0848774 0.77738 0
M  V30 162 H 13.8918 0.406342 1.90413 0
M  V30 163 H 12.0628 -1.45778 3.60005 0
M  V30 164 H 13.7948 -1.34105 3.81835 0
M  V30 165 H 10.5498 0.469262 4.71269 0
M  V30 166 H 10.9738 2.58794 6.25584 0
M  V30 167 H 15.6158 0.544936 4.19274 0
M  V30 168 H 13.3338 3.96784 7.0398 0
M  V30 169 H 16.9198 2.30441 5.34217 0
M  V30 170 H 15.7998 3.99309 6.74924 0
M  V30 171 N 13.3029 -1.57598 0.00835791 0
M  V30 172 C 14.5509 -1.90551 -0.6734 0
M  V30 173 C 14.8719 -0.883301 -1.73847 0
M  V30 174 O 14.1419 0.0781442 -1.95744 0
M  V30 175 H 12.7219 -0.703312 -0.251717 0
M  V30 176 H 15.3839 -1.94833 0.0512592 0
M  V30 177 H 14.4799 -2.9056 -1.13935 0
M  V30 178 N 14.781 0.264519 -1.55364 0
M  V30 179 C 16.027 0.992314 -1.77552 0
M  V30 180 C 16.382 1.83626 -0.574379 0
M  V30 181 O 15.675 1.86648 0.432782 0
M  V30 182 C 15.869 1.9004 -3.02687 0
M  V30 183 C 15.698 1.14583 -4.34857 0
M  V30 184 C 14.468 0.858068 -4.97961 0
M  V30 185 C 16.666 0.532069 -5.1154 0
M  V30 186 N 14.648 0.0775974 -6.13851 0
M  V30 187 C 16.019 -0.113823 -6.19896 0
M  V30 188 C 18.074 0.440763 -4.95945 0
M  V30 189 C 16.777 -0.842231 -7.14352 0
M  V30 190 C 18.803 -0.274072 -5.90765 0
M  V30 191 C 18.165 -0.90867 -6.98515 0
M  V30 192 H 14.264 0.344811 -0.701875 0
M  V30 193 H 16.848 0.267141 -1.92859 0
M  V30 194 H 15.019 2.59775 -2.88741 0
M  V30 195 H 16.751 2.56243 -3.13243 0
M  V30 196 H 13.506 1.16547 -4.59036 0
M  V30 197 H 13.93 -0.300216 -6.76334 0
M  V30 198 H 18.572 0.917064 -4.12735 0
M  V30 199 H 16.29 -1.33019 -7.97077 0
M  V30 200 H 19.876 -0.345151 -5.80775 0
M  V30 201 H 18.756 -1.45299 -7.70622 0
M  V30 202 N 16.2591 1.48442 0.529413 0
M  V30 203 C 17.4841 1.60406 1.31471 0
M  V30 204 C 17.9091 0.264738 1.86228 0
M  V30 205 O 17.2671 -0.763668 1.64432 0
M  V30 206 C 17.3151 2.65419 2.44101 0
M  V30 207 O 16.4191 2.22618 3.47153 0
M  V30 208 H 15.7601 0.537863 0.389357 0
M  V30 209 H 18.2901 1.94432 0.636965 0
M  V30 210 H 18.3001 2.86709 2.90279 0
M  V30 211 H 16.9751 3.62652 2.03608 0
M  V30 212 H 15.5521 2.11543 3.0709 0
M  V30 213 N 17.7372 -0.778329 1.37039 0
M  V30 214 C 18.7002 -1.87301 1.32102 0
M  V30 215 C 19.7002 -1.59198 0.226405 0
M  V30 216 O 20.8902 -1.67403 0.481861 0
M  V30 217 C 18.0222 -3.24309 1.05055 0
M  V30 218 H 19.2152 -1.93093 2.29467 0
M  V30 219 H 16.7682 -0.977358 1.21973 0
M  V30 220 H 17.5032 -3.24196 0.0819373 0
M  V30 221 H 17.2882 -3.46098 1.84279 0
M  V30 222 H 18.7782 -4.04382 1.04234 0
M  V30 223 N 19.2153 -1.21501 -1.00376 0
M  V30 224 C 20.4613 -1.04457 -1.74529 0
M  V30 225 C 20.8163 0.417386 -1.87818 0
M  V30 226 O 20.1093 1.30556 -1.40234 0
M  V30 227 C 20.3033 -1.67673 -3.15627 0
M  V30 228 C 20.1323 -3.19865 -3.16096 0
M  V30 229 C 18.9023 -3.88915 -3.22604 0
M  V30 230 C 21.1003 -4.16936 -3.01112 0
M  V30 231 N 19.0823 -5.28284 -3.12712 0
M  V30 232 C 20.4533 -5.43066 -2.99131 0
M  V30 233 C 22.5083 -4.07968 -2.85423 0
M  V30 234 C 21.2113 -6.6126 -2.83068 0
M  V30 235 C 23.2373 -5.258 -2.70718 0
M  V30 236 C 22.5993 -6.50842 -2.69414 0
M  V30 237 H 18.6983 -0.436584 -0.648782 0
M  V30 238 H 21.2823 -1.53875 -1.19293 0
M  V30 239 H 19.4533 -1.20822 -3.6913 0
M  V30 240 H 21.1853 -1.43824 -3.78281 0
M  V30 241 H 17.9403 -3.39847 -3.2985 0
M  V30 242 H 18.3643 -6.01284 -3.11105 0
M  V30 243 H 23.0063 -3.1209 -2.85236 0
M  V30 244 H 20.7243 -7.57298 -2.82002 0
M  V30 245 H 24.3103 -5.20683 -2.59577 0
M  V30 246 H 23.1903 -7.40485 -2.5817 0
M  V30 247 N 20.6934 1.19889 -1.02296 0
M  V30 248 C 22.1044 1.71124 -0.746568 0
M  V30 249 C 22.4554 1.81939 0.734335 0
M  V30 250 O 21.5804 1.48639 1.57275 0
M  V30 251 C 22.1754 3.10804 -1.34857 0
M  V30 252 C 20.7344 3.59323 -1.1209 0
M  V30 253 C 19.8814 2.3635 -1.45031 0
M  V30 254 H 22.8324 1.04813 -1.19163 0
M  V30 255 H 22.8534 3.73186 -0.742437 0
M  V30 256 H 22.3654 3.029 -2.42638 0
M  V30 257 H 20.4664 3.7255 -0.0610337 0
M  V30 258 H 20.5794 4.4378 -1.80544 0
M  V30 259 H 18.9434 2.39399 -0.869487 0
M  V30 260 H 19.7264 2.31081 -2.53883 0
M  V30 261 N 22.1715 0.800033 1.35784 0
M  V30 262 C 23.5875 0.482977 1.52117 0
M  V30 263 C 23.7875 -0.996948 1.75109 0
M  V30 264 O 22.8435 -1.78216 1.78872 0
M  V30 265 C 24.1565 1.32264 2.70049 0
M  V30 266 C 25.7045 1.31742 2.83924 0
M  V30 267 C 26.1795 2.14106 4.04874 0
M  V30 268 N 27.6705 2.11607 4.12039 0
M  V30 269 C 28.4055 2.72099 5.04727 0
M  V30 270 N 27.9015 3.41492 6.02789 0
M  V30 271 N 29.6945 2.61776 4.97423 0
M  V30 272 H 21.8455 1.75856 1.19115 0
M  V30 273 H 24.1085 0.748122 0.582252 0
M  V30 274 H 23.8145 2.37261 2.59616 0
M  V30 275 H 23.6885 0.971303 3.6448 0
M  V30 276 H 26.0755 0.275333 2.93813 0
M  V30 277 H 26.1565 1.70859 1.9037 0
M  V30 278 H 25.8005 3.18351 3.95746 0
M  V30 279 H 25.7305 1.72353 4.97596 0
M  V30 280 H 28.2215 1.61112 3.41835 0
M  V30 281 H 28.5345 3.84953 6.70098 0
M  V30 282 H 26.8795 3.45596 6.02983 0
M  V30 283 H 30.0705 2.07157 4.19766 0
M  V30 284 H 30.2435 3.0921 5.69468 0
M  V30 285 N 23.6496 -1.47581 0.552962 0
M  V30 286 C 24.8776 -2.06875 0.0320556 0
M  V30 287 C 25.2926 -1.40625 -1.25976 0
M  V30 288 O 24.6496 -0.501349 -1.75479 0
M  V30 289 C 24.7006 -3.61092 -0.17167 0
M  V30 290 O 24.4216 -4.24858 1.06899 0
M  V30 291 C 25.9226 -4.37242 -0.730344 0
M  V30 292 H 23.1426 -0.669561 0.043915 0
M  V30 293 H 25.6866 -1.89646 0.765163 0
M  V30 294 H 23.8416 -3.7785 -0.854894 0
M  V30 295 H 24.2556 -5.17334 0.864059 0
M  V30 296 H 25.7296 -5.45842 -0.822203 0
M  V30 297 H 26.2066 -4.03235 -1.74064 0
M  V30 298 H 26.8126 -4.25219 -0.0829543 0
M  V30 299 N 25.1277 -0.289203 -1.54924 0
M  V30 300 C 26.5437 0.0645403 -1.59469 0
M  V30 301 C 26.7437 1.53419 -1.30632 0
M  V30 302 O 25.7997 2.2852 -1.074 0
M  V30 303 C 27.1127 -0.32278 -2.98963 0
M  V30 304 C 28.6607 -0.270564 -3.11828 0
M  V30 305 C 29.1357 -0.632532 -4.53611 0
M  V30 306 N 30.6267 -0.584617 -4.59496 0
M  V30 307 C 31.3617 -0.837314 -5.67254 0
M  V30 308 N 30.8577 -1.15536 -6.83098 0
M  V30 309 N 32.6507 -0.765166 -5.56868 0
M  V30 310 H 24.8017 -1.24714 -1.71931 0
M  V30 311 H 27.0647 -0.504809 -0.802416 0
M  V30 312 H 26.7707 -1.34541 -3.24948 0
M  V30 313 H 26.6447 0.32944 -3.75759 0
M  V30 314 H 29.0317 0.742805 -2.85598 0
M  V30 315 H 29.1127 -0.957242 -2.37214 0
M  V30 316 H 28.7567 -1.64365 -4.80569 0
M  V30 317 H 28.6867 0.07609 -5.26545 0
M  V30 318 H 31.1777 -0.349248 -3.76283 0
M  V30 319 H 31.4907 -1.33447 -7.61191 0
M  V30 320 H 29.8357 -1.19328 -6.84679 0
M  V30 321 H 33.0267 -0.516432 -4.65243 0
M  V30 322 H 33.1997 -0.965477 -6.40767 0
M  V30 323 N 26.6058 1.57591 -0.0167156 0
M  V30 324 C 27.5358 2.12496 0.967858 0
M  V30 325 C 28.5168 1.03807 1.34752 0
M  V30 326 O 29.7018 1.31577 1.42833 0
M  V30 327 C 26.8318 2.64194 2.25431 0
M  V30 328 C 25.7858 3.77559 2.01576 0
M  V30 329 C 25.1118 4.15636 3.36379 0
M  V30 330 C 26.4118 5.04151 1.36489 0
M  V30 331 H 28.1058 2.95013 0.510643 0
M  V30 332 H 25.6518 1.41915 0.244181 0
M  V30 333 H 27.6048 3.01236 2.94678 0
M  V30 334 H 26.3288 1.78821 2.73296 0
M  V30 335 H 24.9878 3.40937 1.34751 0
M  V30 336 H 24.6358 3.27263 3.81979 0
M  V30 337 H 24.3358 4.92022 3.21229 0
M  V30 338 H 25.8598 4.5525 4.06915 0
M  V30 339 H 27.2738 5.38857 1.95718 0
M  V30 340 H 25.6708 5.85453 1.31776 0
M  V30 341 H 26.7408 4.83733 0.336219 0
M  V30 342 N 28.0839 -0.256276 1.55502 0
M  V30 343 C 29.4949 -0.826068 1.67431 0
M  V30 344 C 29.8459 -1.86396 0.612446 0
M  V30 345 O 28.9709 -2.15031 -0.243025 0
M  V30 346 C 29.5659 -1.50512 3.03532 0
M  V30 347 C 28.1249 -2.02273 3.17431 0
M  V30 348 C 27.2719 -0.870548 2.63281 0
M  V30 349 H 30.2229 -0.0322728 1.58667 0
M  V30 350 H 30.2439 -2.37279 2.97454 0
M  V30 351 H 29.7559 -0.749484 3.80794 0
M  V30 352 H 27.8569 -2.80746 2.44974 0
M  V30 353 H 27.9699 -2.22655 4.24219 0
M  V30 354 H 26.3339 -1.26851 2.20864 0
M  V30 355 H 27.1169 -0.128149 3.43061 0
M  V30 356 N 29.562 -1.4872 -0.521534 0
M  V30 357 C 30.973 -1.50607 -1.10337 0
M  V30 358 C 31.324 -0.280612 -1.94183 0
M  V30 359 O 30.449 0.611507 -2.0758 0
M  V30 360 C 31.044 -2.72903 -2.00772 0
M  V30 361 C 29.603 -2.77634 -2.54158 0
M  V30 362 C 28.75 -2.44241 -1.31307 0
M  V30 363 H 31.701 -1.55714 -0.306388 0
M  V30 364 H 31.722 -2.519 -2.85178 0
M  V30 365 H 31.234 -3.62077 -1.39721 0
M  V30 366 H 29.335 -1.92689 -3.18907 0
M  V30 367 H 29.448 -3.79283 -2.92714 0
M  V30 368 H 27.812 -1.95577 -1.63161 0
M  V30 369 H 28.595 -3.35666 -0.719943 0
M  V30 370 N 31.0401 0.771051 -1.3745 0
M  V30 371 C 32.0031 1.86598 -1.33093 0
M  V30 372 C 33.0031 1.59076 -0.234845 0
M  V30 373 O 34.1931 1.67145 -0.490732 0
M  V30 374 C 31.3251 3.23747 -1.06773 0
M  V30 375 H 32.5181 1.91873 -2.30488 0
M  V30 376 H 30.0711 0.970876 -1.2249 0
M  V30 377 H 30.8061 3.24148 -0.099129 0
M  V30 378 H 30.5911 3.45115 -1.86112 0
M  V30 379 H 32.0811 4.03824 -1.06377 0
M  V30 380 N 32.5182 1.22032 0.997298 0
M  V30 381 C 33.7662 1.04016 1.73278 0
M  V30 382 C 34.0872 -0.426255 1.90284 0
M  V30 383 O 33.3572 -1.30694 1.45931 0
M  V30 384 H 31.9372 0.381897 0.642 0
M  V30 385 H 34.5992 1.5347 1.20137 0
M  V30 386 H 33.6952 1.51441 2.72896 0
M  V30 387 N 33.9963 -1.19345 1.0293 0
M  V30 388 C 35.2213 -1.93538 0.745511 0
M  V30 389 C 35.6463 -1.75007 -0.689511 0
M  V30 390 O 35.0043 -1.05265 -1.47611 0
M  V30 391 C 35.0523 -3.43336 1.10239 0
M  V30 392 O 34.1563 -4.11806 0.221289 0
M  V30 393 H 33.4973 -0.604193 0.275404 0
M  V30 394 H 36.0273 -1.5141 1.37609 0
M  V30 395 H 36.0373 -3.94004 1.05947 0
M  V30 396 H 34.7123 -3.56146 2.14786 0
M  V30 397 H 33.2893 -3.715 0.322842 0
M  V30 398 N 35.4744 -0.807222 -1.35358 0
M  V30 399 C 36.7024 -0.400377 -2.02989 0
M  V30 400 C 37.1174 0.988859 -1.60832 0
M  V30 401 O 36.4744 1.63729 -0.806175 0
M  V30 402 C 36.5254 -0.474867 -3.58368 0
M  V30 403 O 36.2464 -1.80933 -3.98992 0
M  V30 404 C 37.7474 -0.0609112 -4.43258 0
M  V30 405 H 34.9674 -0.162587 -0.651004 0
M  V30 406 H 37.5114 -1.09102 -1.72965 0
M  V30 407 H 35.6664 0.167534 -3.87038 0
M  V30 408 H 36.0804 -1.77256 -4.9364 0
M  V30 409 H 37.5544 -0.164145 -5.51756 0
M  V30 410 H 38.0314 0.993831 -4.27808 0
M  V30 411 H 38.6374 -0.676492 -4.19885 0
M  V30 412 N 36.9525 1.47285 -0.560781 0
M  V30 413 C 38.3635 1.86258 -0.128343 0
M  V30 414 C 38.7145 1.46699 1.30284 0
M  V30 415 O 37.8395 0.871698 1.98067 0
M  V30 416 C 38.4345 3.38044 -0.22614 0
M  V30 417 C 36.9935 3.76096 0.151283 0
M  V30 418 C 36.1405 2.71335 -0.572084 0
M  V30 419 H 39.0915 1.38752 -0.770297 0
M  V30 420 H 39.1125 3.76441 0.554322 0
M  V30 421 H 38.6245 3.66806 -1.26788 0
M  V30 422 H 36.7255 3.52951 1.19399 0
M  V30 423 H 36.8385 4.78641 -0.209765 0
M  V30 424 H 35.2025 2.54696 -0.0147653 0
M  V30 425 H 35.9855 3.02938 -1.61504 0
M  V30 426 N 38.4306 0.297415 1.54768 0
M  V30 427 C 39.6556 -0.318435 2.04941 0
M  V30 428 C 40.0806 -1.4701 1.17345 0
M  V30 429 O 39.4386 -1.80436 0.176758 0
M  V30 430 C 39.4866 -0.755749 3.52592 0
M  V30 431 O 38.5906 -1.86088 3.68028 0
M  V30 432 H 37.9316 -0.062421 0.661059 0
M  V30 433 H 40.4616 0.438215 1.99852 0
M  V30 434 H 40.4716 -1.04552 3.94376 0
M  V30 435 H 39.1466 0.0867233 4.1581 0
M  V30 436 H 37.7236 -1.57193 3.38149 0
M  V30 437 N 39.9087 -1.5758 0.0250728 0
M  V30 438 C 41.1557 -1.91633 -0.654444 0
M  V30 439 C 41.4837 -0.901103 -1.72367 0
M  V30 440 O 40.7387 0.0905647 -1.9549 0
M  V30 441 C 41.0377 -3.32421 -1.31268 0
M  V30 442 C 40.7037 -4.49344 -0.374223 0
M  V30 443 C 39.3657 -4.8106 -0.115911 0
M  V30 444 C 41.7177 -5.20498 0.270432 0
M  V30 445 C 39.0457 -5.8129 0.79493 0
M  V30 446 C 41.3977 -6.21699 1.1693 0
M  V30 447 C 40.0617 -6.51859 1.43655 0
M  V30 448 H 39.3317 -0.701236 -0.239478 0
M  V30 449 H 41.9787 -1.91307 0.0859734 0
M  V30 450 H 40.2837 -3.28989 -2.12775 0
M  V30 451 H 41.9807 -3.56038 -1.84494 0
M  V30 452 H 38.5707 -4.24579 -0.58573 0
M  V30 453 H 42.7547 -4.96229 0.0839194 0
M  V30 454 H 38.0107 -6.03005 1.00973 0
M  V30 455 H 42.1847 -6.75955 1.67504 0
M  V30 456 H 39.8117 -7.2934 2.144 0
M  V30 457 N 41.3868 0.248026 -1.55636 0
M  V30 458 C 42.6268 0.983592 -1.79178 0
M  V30 459 C 42.9908 1.82567 -0.594414 0
M  V30 460 O 44.1918 2.59292 -0.708583 0
M  V30 461 C 42.4628 1.82228 -3.07454 0
M  V30 462 S 44.0218 2.61709 -3.52213 0
M  V30 463 H 40.8398 0.330866 -0.629324 0
M  V30 464 H 43.4418 0.251562 -1.93875 0
M  V30 465 H 42.1458 1.19333 -3.92668 0
M  V30 466 H 41.6768 2.59708 -2.95492 0
M  V30 467 H 43.6918 3.84655 -3.13457 0
M  V30 468 N 42.8649 1.48995 0.513639 0
M  V30 469 C 43.8149 1.61127 1.61314 0
M  V30 470 C 44.7989 0.467521 1.53958 0
M  V30 471 O 45.9909 0.719826 1.61702 0
M  V30 472 C 43.1199 1.66937 2.99978 0
M  V30 473 C 42.2059 2.86847 3.12377 0
M  V30 474 N 42.5969 4.11078 2.94701 0
M  V30 475 C 40.8949 2.84521 3.43459 0
M  V30 476 C 41.5959 4.91615 3.10949 0
M  V30 477 N 40.5719 4.24739 3.3926 0
M  V30 478 H 44.3739 2.54909 1.46282 0
M  V30 479 H 41.8879 1.45593 0.719483 0
M  V30 480 H 43.8849 1.73725 3.78979 0
M  V30 481 H 42.5449 0.742831 3.16089 0
M  V30 482 H 43.5559 4.41258 2.71131 0
M  V30 483 H 40.2329 2.01192 3.65825 0
M  V30 484 H 41.6229 6.00264 3.01882 0
M  V30 485 N 44.343 -0.763751 1.37857 0
M  V30 486 C 45.293 -1.86765 1.30777 0
M  V30 487 C 46.277 -1.59726 0.194015 0
M  V30 488 O 47.469 -1.7172 0.42911 0
M  V30 489 C 44.598 -3.24343 1.12502 0
M  V30 490 C 43.684 -3.57307 2.28456 0
M  V30 491 N 44.075 -3.61398 3.53871 0
M  V30 492 C 42.373 -3.87517 2.20786 0
M  V30 493 C 43.074 -3.91339 4.30382 0
M  V30 494 N 42.05 -4.07649 3.59615 0
M  V30 495 H 45.852 -1.88191 2.25746 0
M  V30 496 H 43.366 -0.9606 1.30944 0
M  V30 497 H 45.363 -4.03327 1.05514 0
M  V30 498 H 44.023 -3.24175 0.184574 0
M  V30 499 H 45.034 -3.43407 3.87675 0
M  V30 500 H 41.711 -3.95125 1.34844 0
M  V30 501 H 43.101 -4.01213 5.3896 0
M  V30 502 N 45.8211 -1.22559 -0.990812 0
M  V30 503 C 47.0681 -1.05141 -1.73065 0
M  V30 504 C 47.3961 0.413191 -1.9006 0
M  V30 505 O 46.6511 1.32257 -1.44245 0
M  V30 506 C 46.9501 -1.71011 -3.13831 0
M  V30 507 C 46.6161 -3.20911 -3.16745 0
M  V30 508 C 45.2781 -3.61812 -3.17247 0
M  V30 509 C 47.6301 -4.16846 -3.12872 0
M  V30 510 C 44.9581 -4.97127 -3.1158 0
M  V30 511 C 47.3101 -5.5214 -3.08746 0
M  V30 512 C 45.9741 -5.92419 -3.07565 0
M  V30 513 H 45.2441 -0.384738 -0.633291 0
M  V30 514 H 47.8911 -1.5235 -1.16025 0
M  V30 515 H 46.1961 -1.16133 -3.74193 0
M  V30 516 H 47.8931 -1.55023 -3.69823 0
M  V30 517 H 44.4831 -2.88344 -3.17105 0
M  V30 518 H 48.6671 -3.86263 -3.11632 0
M  V30 519 H 43.9231 -5.27562 -3.09012 0
M  V30 520 H 48.0971 -6.26201 -3.04705 0
M  V30 521 H 45.7241 -6.97236 -3.02929 0
M  V30 522 N 47.2992 1.18797 -1.03562 0
M  V30 523 C 48.5242 1.9314 -0.755764 0
M  V30 524 C 48.9492 1.7537 0.68022 0
M  V30 525 O 48.3072 1.06046 1.47051 0
M  V30 526 C 48.3552 3.42747 -1.12058 0
M  V30 527 O 47.4592 4.11683 -0.243124 0
M  V30 528 H 46.8002 0.602724 -0.278604 0
M  V30 529 H 49.3302 1.50678 -1.3841 0
M  V30 530 H 49.3402 3.93437 -1.08035 0
M  V30 531 H 48.0152 3.55002 -2.16672 0
M  V30 532 H 46.5922 3.71323 -0.342539 0
M  V30 533 N 48.7773 0.814389 1.34928 0
M  V30 534 C 50.0053 0.411136 2.02774 0
M  V30 535 C 50.4203 -0.980316 1.61354 0
M  V30 536 O 49.7773 -1.63299 0.814847 0
M  V30 537 C 49.8283 0.493865 3.58111 0
M  V30 538 O 49.5493 1.83047 3.98027 0
M  V30 539 C 51.0503 0.0844174 4.4322 0
M  V30 540 H 48.2703 0.166037 0.650133 0
M  V30 541 H 50.8143 1.10018 1.72384 0
M  V30 542 H 48.9693 -0.147006 3.87121 0
M  V30 543 H 49.3833 1.79872 4.92693 0
M  V30 544 H 50.8573 0.193404 5.51661 0
M  V30 545 H 51.3343 -0.97113 4.28329 0
M  V30 546 H 51.9403 0.69875 4.19521 0
M  V30 547 N 50.2554 -1.46986 0.568584 0
M  V30 548 C 51.1874 -2.28233 -0.210337 0
M  V30 549 C 52.2004 -1.37682 -0.868767 0
M  V30 550 O 53.3894 -1.62406 -0.740705 0
M  V30 551 C 50.4894 -3.12293 -1.3163 0
M  V30 552 C 49.6624 -4.30878 -0.7525 0
M  V30 553 C 48.7214 -4.96445 -1.74439 0
M  V30 554 O 47.7474 -5.54482 -1.286 0
M  V30 555 N 48.9494 -4.92171 -3.07812 0
M  V30 556 H 51.7144 -2.95723 0.486648 0
M  V30 557 H 49.2754 -1.56742 0.405409 0
M  V30 558 H 51.2674 -3.53022 -1.97883 0
M  V30 559 H 49.8374 -2.46971 -1.91636 0
M  V30 560 H 49.0574 -3.94104 0.0871128 0
M  V30 561 H 50.3454 -5.07558 -0.35536 0
M  V30 562 H 49.7434 -4.46239 -3.47688 0
M  V30 563 H 48.3004 -5.36884 -3.69592 0
M  V30 564 N 51.7335 -0.305618 -1.54608 0
M  V30 565 C 52.6435 0.57778 -2.27374 0
M  V30 566 C 53.6595 1.14451 -1.31061 0
M  V30 567 O 54.8355 1.16831 -1.6405 0
M  V30 568 C 51.9005 1.73123 -3.00382 0
M  V30 569 C 50.9615 1.19812 -4.12242 0
M  V30 570 C 50.1945 2.2966 -4.81759 0
M  V30 571 O 50.4175 3.49651 -4.50666 0
M  V30 572 O 49.3515 1.96091 -5.69062 0
M  V30 573 H 53.1775 -0.012624 -3.03697 0
M  V30 574 H 50.7625 -0.0719184 -1.49227 0
M  V30 575 H 52.6445 2.40315 -3.4616 0
M  V30 576 H 51.3195 2.30815 -2.26949 0
M  V30 577 H 50.2265 0.491798 -3.70853 0
M  V30 578 H 51.5595 0.666566 -4.87666 0
M  V30 579 N 53.2116 1.57565 -0.0334293 0
M  V30 580 C 54.1586 2.10478 0.946981 0
M  V30 581 C 55.1286 1.00787 1.32027 0
M  V30 582 O 56.3136 1.28232 1.41284 0
M  V30 583 C 53.4536 2.63994 2.22263 0
M  V30 584 C 52.5666 3.87709 1.90541 0
M  V30 585 C 51.7016 4.29604 3.12433 0
M  V30 586 C 50.7406 5.46065 2.76549 0
M  V30 587 N 49.8776 5.83096 3.9108 0
M  V30 588 H 54.7176 2.93963 0.488846 0
M  V30 589 H 52.2546 1.45296 0.22969 0
M  V30 590 H 54.2126 2.93114 2.96884 0
M  V30 591 H 52.8426 1.83333 2.65685 0
M  V30 592 H 51.8946 3.65291 1.06144 0
M  V30 593 H 53.2066 4.72403 1.60116 0
M  V30 594 H 52.3606 4.60182 3.9537 0
M  V30 595 H 51.0996 3.43685 3.46023 0
M  V30 596 H 50.1046 5.15176 1.92026 0
M  V30 597 H 51.3296 6.33685 2.44171 0
M  V30 598 H 49.2756 5.00132 4.24504 0
M  V30 599 H 49.1926 6.6244 3.64293 0
M  V30 600 H 50.4606 6.18282 4.74708 0
M  V30 601 N 54.6897 -0.239769 1.55765 0
M  V30 602 C 55.9177 -0.98417 1.81994 0
M  V30 603 C 56.3327 -1.7867 0.610124 0
M  V30 604 O 55.6897 -1.77571 -0.421271 0
M  V30 605 C 55.7407 -1.91635 3.06526 0
M  V30 606 O 55.4617 -1.14629 4.22838 0
M  V30 607 C 56.9627 -2.77616 3.45607 0
M  V30 608 H 54.1827 -0.28928 0.605441 0
M  V30 609 H 56.7267 -0.260499 2.02834 0
M  V30 610 H 54.8817 -2.5942 2.87715 0
M  V30 611 H 55.2957 -1.77745 4.93464 0
M  V30 612 H 56.7697 -3.38759 4.35828 0
M  V30 613 H 57.2467 -3.4909 2.6652 0
M  V30 614 H 57.8527 -2.15271 3.66795 0
M  V30 615 N 56.1678 -1.49265 -0.50573 0
M  V30 616 C 57.5788 -1.51769 -1.08734 0
M  V30 617 C 57.9298 -0.301192 -1.93874 0
M  V30 618 O 57.0548 0.589456 -2.08217 0
M  V30 619 C 57.6498 -2.75017 -1.97867 0
M  V30 620 C 56.2088 -2.80314 -2.51199 0
M  V30 621 C 55.3558 -2.4562 -1.28709 0
M  V30 622 H 58.3068 -1.56031 -0.289855 0
M  V30 623 H 58.3278 -2.5491 -2.82491 0
M  V30 624 H 57.8398 -3.63539 -1.35873 0
M  V30 625 H 55.9408 -1.96061 -3.16845 0
M  V30 626 H 56.0538 -3.82366 -2.88675 0
M  V30 627 H 54.4178 -1.97297 -1.61078 0
M  V30 628 H 55.2008 -3.36411 -0.6843 0
M  V30 629 N 57.6459 0.756429 -1.3826 0
M  V30 630 C 58.5779 1.87971 -1.31147 0
M  V30 631 C 59.5909 1.61248 -0.224239 0
M  V30 632 O 60.7799 1.71881 -0.481581 0
M  V30 633 C 57.8799 3.23545 -1.00857 0
M  V30 634 C 57.0529 3.77794 -2.20432 0
M  V30 635 C 56.1119 4.91877 -1.86931 0
M  V30 636 O 55.1379 5.06659 -2.59395 0
M  V30 637 N 56.3399 5.74643 -0.822568 0
M  V30 638 H 59.1049 1.94585 -2.2794 0
M  V30 639 H 56.6659 0.936234 -1.32084 0
M  V30 640 H 58.6579 3.97403 -0.765021 0
M  V30 641 H 57.2279 3.12335 -0.128687 0
M  V30 642 H 56.4479 2.95534 -2.6087 0
M  V30 643 H 57.7359 4.10771 -3.00241 0
M  V30 644 H 57.1339 5.65266 -0.221575 0
M  V30 645 H 55.6909 6.48661 -0.638899 0
M  V30 646 N 59.124 1.23083 0.984299 0
M  V30 647 C 60.373 1.05466 1.71929 0
M  V30 648 C 60.686 -0.409211 1.91272 0
M  V30 649 O 61.892 -0.705226 2.62181 0
M  V30 650 C 60.348 1.83874 3.09384 0
M  V30 651 C 59.956 3.34566 2.97943 0
M  V30 652 C 61.7 1.74734 3.8687 0
M  V30 653 C 59.607 4.05381 4.30605 0
M  V30 654 H 58.537 0.391039 0.644674 0
M  V30 655 H 61.188 1.47013 1.09815 0
M  V30 656 H 59.57 1.35131 3.72231 0
M  V30 657 H 60.744 3.90767 2.44209 0
M  V30 658 H 59.059 3.44476 2.33934 0
M  V30 659 H 61.656 2.24957 4.85076 0
M  V30 660 H 61.999 0.709372 4.10212 0
M  V30 661 H 62.532 2.21067 3.30717 0
M  V30 662 H 59.271 5.09467 4.1246 0
M  V30 663 H 58.791 3.53967 4.84218 0
M  V30 664 H 60.47 4.11458 4.99311 0
M  V30 665 N 60.6021 -1.18246 1.0419 0
M  V30 666 C 61.8421 -1.89948 0.754916 0
M  V30 667 C 62.2061 -1.78608 -0.70451 0
M  V30 668 O 63.4071 -2.4503 -1.10516 0
M  V30 669 C 61.6781 -3.36305 1.20969 0
M  V30 670 S 63.2371 -4.26088 1.04854 0
M  V30 671 H 60.0551 -0.655897 0.274446 0
M  V30 672 H 62.6571 -1.42873 1.33445 0
M  V30 673 H 61.3611 -3.42089 2.26722 0
M  V30 674 H 60.8921 -3.8842 0.624004 0
M  V30 675 H 62.9071 -4.96189 -0.0332896 0
M  V30 676 N 62.0802 -0.821533 -1.34494 0
M  V30 677 C 63.3262 -0.409552 -1.98622 0
M  V30 678 C 63.6592 1.0244 -1.64984 0
M  V30 679 O 62.9342 1.71325 -0.920758 0
M  V30 680 C 63.2172 -0.610458 -3.54888 0
M  V30 681 C 63.0702 -2.09043 -3.98273 0
M  V30 682 C 64.3892 -0.0455379 -4.40076 0
M  V30 683 H 61.5082 -0.15028 -0.721516 0
M  V30 684 H 64.1502 -1.03384 -1.59411 0
M  V30 685 H 62.3002 -0.079044 -3.8842 0
M  V30 686 H 63.9722 -2.68537 -3.75081 0
M  V30 687 H 62.2152 -2.58139 -3.48635 0
M  V30 688 H 62.8862 -2.18182 -5.07051 0
M  V30 689 H 65.3622 -0.499557 -4.1309 0
M  V30 690 H 64.2382 -0.215922 -5.48475 0
M  V30 691 H 64.4992 1.04939 -4.29465 0
M  V30 692 N 63.5583 1.46682 -0.576371 0
M  V30 693 C 64.8043 2.02712 -0.0596221 0
M  V30 694 C 65.1373 1.44765 1.29448 0
M  V30 695 O 64.4123 0.610355 1.84675 0
M  V30 696 C 64.6953 3.60098 0.0129503 0
M  V30 697 C 64.5483 4.28441 -1.3696 0
M  V30 698 C 65.8673 4.34224 0.71678 0
M  V30 699 H 62.9863 0.736637 -0.0231407 0
M  V30 700 H 65.6283 1.74898 -0.742351 0
M  V30 701 H 63.7783 3.83926 0.594378 0
M  V30 702 H 65.4503 4.15896 -1.9957 0
M  V30 703 H 63.6933 3.8805 -1.93907 0
M  V30 704 H 64.3643 5.3716 -1.27135 0
M  V30 705 H 66.8403 4.15503 0.222908 0
M  V30 706 H 65.7163 5.43936 0.73657 0
M  V30 707 H 65.9773 4.04823 1.77682 0
M  V30 708 N 65.0364 0.313813 1.54444 0
M  V30 709 C 66.2844 -0.291099 1.99993 0
M  V30 710 C 66.6054 -1.53418 1.20366 0
M  V30 711 O 65.8754 -1.93544 0.302927 0
M  V30 712 H 64.4554 -0.110552 0.738774 0
M  V30 713 H 67.1174 0.428106 1.9014 0
M  V30 714 H 66.2134 -0.554268 3.07139 0
M  V30 715 N 66.5145 -1.57545 0.0417849 0
M  V30 716 C 67.7395 -1.97035 -0.647455 0
M  V30 717 C 68.1645 -0.918775 -1.64135 0
M  V30 718 O 67.5225 0.119006 -1.80909 0
M  V30 719 C 67.5705 -3.35609 -1.31905 0
M  V30 720 O 66.6745 -3.3287 -2.43457 0
M  V30 721 H 66.0155 -0.64211 -0.169086 0
M  V30 722 H 68.5455 -2.04318 0.107399 0
M  V30 723 H 68.5555 -3.72126 -1.67291 0
M  V30 724 H 67.2305 -4.11685 -0.590586 0
M  V30 725 H 65.8075 -3.08087 -2.10088 0
M  V30 726 N 67.9926 0.231505 -1.5589 0
M  V30 727 C 69.2406 0.955461 -1.78088 0
M  V30 728 C 69.5616 1.85262 -0.608533 0
M  V30 729 O 68.8316 1.92277 0.375035 0
M  V30 730 H 67.4116 0.355787 -0.656829 0
M  V30 731 H 70.0736 0.245751 -1.93344 0
M  V30 732 H 69.1696 1.56814 -2.69844 0
M  V30 733 N 69.4707 1.49531 0.497807 0
M  V30 734 C 70.8817 1.52344 1.07927 0
M  V30 735 C 71.2327 0.311469 1.93712 0
M  V30 736 O 70.3577 -0.578405 2.08527 0
M  V30 737 C 70.9527 2.76062 1.96405 0
M  V30 738 C 69.5117 2.81643 2.49709 0
M  V30 739 C 68.6587 2.46299 1.27404 0
M  V30 740 H 71.6097 1.56182 0.281576 0
M  V30 741 H 71.6307 2.56405 2.81135 0
M  V30 742 H 71.1427 3.64254 1.33943 0
M  V30 743 H 69.2437 1.97739 3.15801 0
M  V30 744 H 69.3567 3.83891 2.86643 0
M  V30 745 H 67.7207 1.98148 1.60029 0
M  V30 746 H 68.5037 3.36769 0.66645 0
M  V30 747 N 70.9488 -0.749086 1.3866 0
M  V30 748 C 71.9118 -1.84457 1.36045 0
M  V30 749 C 72.9118 -1.58682 0.260122 0
M  V30 750 O 74.1018 -1.66343 0.517261 0
M  V30 751 C 71.2338 -3.22008 1.11911 0
M  V30 752 H 72.4268 -1.88182 2.33512 0
M  V30 753 H 69.9798 -0.951266 1.24019 0
M  V30 754 H 70.7148 -3.2395 0.150686 0
M  V30 755 H 70.4998 -3.42111 1.91579 0
M  V30 756 H 71.9898 -4.0208 1.12788 0
M  V30 757 N 72.4269 -1.23603 -0.977757 0
M  V30 758 C 73.6749 -1.06759 -1.71601 0
M  V30 759 C 73.9959 0.395929 -1.90938 0
M  V30 760 O 73.2659 1.28356 -1.47992 0
M  V30 761 H 71.8459 -0.392062 -0.635843 0
M  V30 762 H 74.5079 -1.55362 -1.1768 0
M  V30 763 H 73.6039 -1.55763 -2.70452 0
M  V30 764 N 73.905 1.17692 -1.04816 0
M  V30 765 C 75.152 1.87859 -0.75599 0
M  V30 766 C 75.48 1.80812 0.716752 0
M  V30 767 O 74.735 1.20819 1.53952 0
M  V30 768 C 75.034 3.37462 -1.17703 0
M  V30 769 C 74.7 3.64713 -2.65133 0
M  V30 770 C 73.362 3.71859 -3.05408 0
M  V30 771 C 75.714 3.76492 -3.60421 0
M  V30 772 C 73.042 3.88271 -4.39843 0
M  V30 773 C 75.394 3.94421 -4.94585 0
M  V30 774 C 74.058 3.99806 -5.3452 0
M  V30 775 H 73.328 0.687425 -0.276636 0
M  V30 776 H 75.975 1.39255 -1.31455 0
M  V30 777 H 74.28 3.88097 -0.537395 0
M  V30 778 H 75.977 3.90109 -0.928218 0
M  V30 779 H 72.567 3.59772 -2.32942 0
M  V30 780 H 76.751 3.70295 -3.30447 0
M  V30 781 H 72.007 3.90687 -4.70291 0
M  V30 782 H 76.181 4.02477 -5.68318 0
M  V30 783 H 73.808 4.12276 -6.38696 0
M  V30 784 N 75.3831 0.828654 1.34056 0
M  V30 785 C 76.6131 0.431993 2.02033 0
M  V30 786 C 77.0211 -0.96844 1.62536 0
M  V30 787 O 76.3641 -1.6391 0.829408 0
M  V30 788 C 76.4261 0.461224 3.56529 0
M  V30 789 C 76.0901 1.81599 4.1937 0
M  V30 790 C 77.0871 2.7777 4.39477 0
M  V30 791 C 74.7721 2.10604 4.56017 0
M  V30 792 C 76.7661 4.01115 4.95364 0
M  V30 793 C 74.4531 3.34207 5.11614 0
M  V30 794 C 75.4511 4.2928 5.31232 0
M  V30 795 O 75.1391 5.50699 5.8565 0
M  V30 796 H 74.8711 0.170943 0.654029 0
M  V30 797 H 77.4251 1.11988 1.72185 0
M  V30 798 H 75.6551 -0.283388 3.8566 0
M  V30 799 H 77.3441 0.0838149 4.05813 0
M  V30 800 H 78.1101 2.56659 4.11523 0
M  V30 801 H 73.9891 1.37402 4.40047 0
M  V30 802 H 77.5331 4.75333 5.10592 0
M  V30 803 H 73.4301 3.55179 5.38997 0
M  V30 804 H 74.1981 5.52298 6.04077 0
M  V30 805 N 76.8612 -1.46375 0.584142 0
M  V30 806 C 78.0892 -2.06761 0.0759296 0
M  V30 807 C 78.5042 -1.43266 -1.22965 0
M  V30 808 O 77.8612 -0.538458 -1.74376 0
M  V30 809 C 77.9122 -3.61375 -0.0950384 0
M  V30 810 O 77.6332 -4.22495 1.15887 0
M  V30 811 C 79.1342 -4.38693 -0.637434 0
M  V30 812 H 76.3542 -0.668479 0.0581075 0
M  V30 813 H 78.8982 -1.8798 0.805218 0
M  V30 814 H 77.0532 -3.79578 -0.774554 0
M  V30 815 H 77.4672 -5.15385 0.973598 0
M  V30 816 H 78.9412 -5.47464 -0.706237 0
M  V30 817 H 79.4182 -4.06836 -1.65472 0
M  V30 818 H 80.0242 -4.25299 0.00725967 0
M  V30 819 N 78.3393 -0.321999 -1.54275 0
M  V30 820 C 79.3023 0.531975 -2.22941 0
M  V30 821 C 80.3023 1.04478 -1.22234 0
M  V30 822 O 81.4923 0.937452 -1.46825 0
M  V30 823 C 78.6243 1.73874 -2.93224 0
M  V30 824 H 79.8173 -0.0682612 -2.99822 0
M  V30 825 H 77.3703 -0.0730644 -1.56129 0
M  V30 826 H 78.1053 2.37825 -2.20476 0
M  V30 827 H 77.8903 1.37847 -3.6707 0
M  V30 828 H 79.3803 2.34496 -3.45545 0
M  V30 829 N 79.8174 1.5752 -0.0501392 0
M  V30 830 C 80.7494 2.08413 0.95376 0
M  V30 831 C 81.7624 1.01175 1.27544 0
M  V30 832 O 82.9514 1.28744 1.23641 0
M  V30 833 C 80.0514 2.51138 2.27559 0
M  V30 834 C 79.2244 3.817 2.13598 0
M  V30 835 C 78.2834 4.10749 3.28895 0
M  V30 836 O 77.3094 4.80685 3.04845 0
M  V30 837 N 78.5114 3.62579 4.5334 0
M  V30 838 H 81.2764 2.95165 0.519383 0
M  V30 839 H 78.8374 1.61327 0.136127 0
M  V30 840 H 80.8294 2.67648 3.03557 0
M  V30 841 H 79.3994 1.6964 2.62567 0
M  V30 842 H 78.6194 3.74782 1.22197 0
M  V30 843 H 79.9074 4.67201 2.01496 0
M  V30 844 H 79.3054 3.06039 4.75769 0
M  V30 845 H 77.8624 3.84329 5.26436 0
M  V30 846 N 81.2955 -0.223234 1.56011 0
M  V30 847 C 82.2455 -1.28008 1.88674 0
M  V30 848 C 83.2295 -1.42369 0.749663 0
M  V30 849 O 84.4215 -1.45212 1.01205 0
M  V30 850 C 81.5505 -2.63084 2.20548 0
M  V30 851 C 80.6365 -2.52632 3.40643 0
M  V30 852 N 81.0275 -2.11829 4.59306 0
M  V30 853 C 79.3255 -2.83594 3.44224 0
M  V30 854 C 80.0265 -2.12587 5.41463 0
M  V30 855 N 79.0025 -2.5301 4.81131 0
M  V30 856 H 82.8045 -0.955487 2.77935 0
M  V30 857 H 80.3185 -0.431801 1.56554 0
M  V30 858 H 82.3155 -3.39385 2.42122 0
M  V30 859 H 80.9755 -2.96391 1.32599 0
M  V30 860 H 81.9865 -1.82988 4.84496 0
M  V30 861 H 78.6635 -3.21284 2.66614 0
M  V30 862 H 80.0535 -1.83179 6.46448 0
M  V30 863 N 82.7736 -1.49793 -0.48987 0
M  V30 864 C 83.7036 -1.70201 -1.59856 0
M  V30 865 C 84.6846 -0.55076 -1.60937 0
M  V30 866 O 85.8696 -0.787841 -1.77501 0
M  V30 867 C 82.9996 -1.77882 -2.98287 0
M  V30 868 C 81.9536 -2.92907 -3.12073 0
M  V30 869 C 81.2796 -2.85712 -4.51965 0
M  V30 870 C 82.5796 -4.3369 -2.91051 0
M  V30 871 H 84.2736 -2.63025 -1.43032 0
M  V30 872 H 81.8196 -1.26574 -0.686664 0
M  V30 873 H 83.7726 -1.90744 -3.75759 0
M  V30 874 H 82.4966 -0.816653 -3.16225 0
M  V30 875 H 81.1556 -2.79665 -2.37029 0
M  V30 876 H 80.8036 -1.8738 -4.66795 0
M  V30 877 H 80.5036 -3.62921 -4.62128 0
M  V30 878 H 82.0276 -3.00598 -5.31482 0
M  V30 879 H 83.4416 -4.47555 -3.58284 0
M  V30 880 H 81.8386 -5.12205 -3.12675 0
M  V30 881 H 82.9086 -4.47362 -1.87071 0
M  V30 882 N 84.2517 0.741722 -1.39055 0
M  V30 883 C 85.1817 1.869 -1.39966 0
M  V30 884 C 86.1627 1.6804 -0.26392 0
M  V30 885 O 87.3477 1.88458 -0.468755 0
M  V30 886 C 84.4777 3.24572 -1.23574 0
M  V30 887 C 83.4317 3.58056 -2.34477 0
M  V30 888 C 82.7577 4.94593 -2.0318 0
M  V30 889 C 84.0577 3.61716 -3.76774 0
M  V30 890 H 85.7517 1.86395 -2.34302 0
M  V30 891 H 83.2977 0.895361 -1.1278 0
M  V30 892 H 85.2507 4.031 -1.22834 0
M  V30 893 H 83.9747 3.25587 -0.257045 0
M  V30 894 H 82.6337 2.81854 -2.34423 0
M  V30 895 H 82.2817 4.92181 -1.03765 0
M  V30 896 H 81.9817 5.17964 -2.77465 0
M  V30 897 H 83.5057 5.75486 -2.04079 0
M  V30 898 H 84.9197 4.30335 -3.78794 0
M  V30 899 H 83.3167 3.96603 -4.50362 0
M  V30 900 H 84.3867 2.61672 -4.08235 0
M  V30 901 N 85.7298 1.2412 0.971189 0
M  V30 902 C 86.6768 1.0305 2.06517 0
M  V30 903 C 87.6468 -0.0550666 1.66009 0
M  V30 904 O 88.8318 0.0988688 1.90544 0
M  V30 905 C 85.9718 0.637653 3.39158 0
M  V30 906 C 85.0848 1.79633 3.92882 0
M  V30 907 C 84.2198 1.34939 5.13775 0
M  V30 908 C 83.2588 2.47823 5.59687 0
M  V30 909 N 82.3958 2.04022 6.71803 0
M  V30 910 H 87.2358 1.96685 2.23873 0
M  V30 911 H 84.7728 0.979694 1.09729 0
M  V30 912 H 86.7308 0.390931 4.15364 0
M  V30 913 H 85.3608 -0.261693 3.21737 0
M  V30 914 H 84.4128 2.15681 3.13346 0
M  V30 915 H 85.7248 2.64466 4.22918 0
M  V30 916 H 84.8788 1.06134 5.97345 0
M  V30 917 H 83.6178 0.471557 4.85415 0
M  V30 918 H 82.6228 2.77392 4.74693 0
M  V30 919 H 83.8478 3.36158 5.90063 0
M  V30 920 H 81.7938 1.18632 6.45184 0
M  V30 921 H 81.7108 2.82409 7.01271 0
M  V30 922 H 82.9788 1.78347 7.58823 0
M  V30 923 N 87.2079 -1.17134 1.05439 0
M  V30 924 C 88.1579 -2.1919 0.627675 0
M  V30 925 C 89.1419 -1.57328 -0.337147 0
M  V30 926 O 90.3339 -1.76329 -0.153976 0
M  V30 927 C 87.4629 -3.43299 0.00651435 0
M  V30 928 C 86.5489 -4.12255 0.995312 0
M  V30 929 N 86.9399 -4.56997 2.16765 0
M  V30 930 C 85.2379 -4.38316 0.824336 0
M  V30 931 C 85.9389 -5.10239 2.7934 0
M  V30 932 N 84.9149 -5.02595 2.07122 0
M  V30 933 H 88.7169 -2.5149 1.52086 0
M  V30 934 H 86.2309 -1.33491 0.924868 0
M  V30 935 H 88.2279 -4.15693 -0.316965 0
M  V30 936 H 86.8879 -3.1249 -0.882033 0
M  V30 937 H 87.8989 -4.51006 2.54587 0
M  V30 938 H 84.5759 -4.17498 -0.0129526 0
M  V30 939 H 85.9659 -5.54961 3.78772 0
M  V30 940 N 88.686 -0.835752 -1.33615 0
M  V30 941 C 90.097 -0.487099 -1.80234 0
M  V30 942 C 90.448 0.993627 -1.69179 0
M  V30 943 O 89.573 1.77403 -1.23924 0
M  V30 944 C 90.168 -0.877385 -3.27242 0
M  V30 945 C 88.727 -0.580915 -3.7189 0
M  V30 946 C 87.874 -1.0874 -2.5509 0
M  V30 947 H 90.825 -1.02474 -1.2118 0
M  V30 948 H 90.846 -0.186195 -3.80044 0
M  V30 949 H 90.358 -1.95512 -3.35256 0
M  V30 950 H 88.459 0.486881 -3.69405 0
M  V30 951 H 88.572 -1.13396 -4.65487 0
M  V30 952 H 86.936 -0.508392 -2.49575 0
M  V30 953 H 87.719 -2.17184 -2.65868 0
M  V30 954 N 90.1641 1.46063 -0.591896 0
M  V30 955 C 91.0961 2.28539 0.174001 0
M  V30 956 C 92.1091 1.39047 0.846753 0
M  V30 957 O 93.2981 1.63564 0.714774 0
M  V30 958 C 90.3981 3.14347 1.26645 0
M  V30 959 C 89.5711 4.32021 0.683856 0
M  V30 960 C 88.6301 4.99157 1.66518 0
M  V30 961 O 87.6561 5.56458 1.19763 0
M  V30 962 N 88.8581 4.97005 2.99943 0
M  V30 963 H 91.6231 2.94911 -0.533633 0
M  V30 964 H 89.1841 1.56077 -0.430294 0
M  V30 965 H 91.1761 3.56125 1.92242 0
M  V30 966 H 89.7461 2.49988 1.87682 0
M  V30 967 H 88.9661 3.93915 -0.1498 0
M  V30 968 H 90.2541 5.08059 0.274567 0
M  V30 969 H 89.6521 4.51714 3.40545 0
M  V30 970 H 88.2091 5.42696 3.61004 0
M  V30 971 N 91.6422 0.330177 1.54103 0
M  V30 972 C 92.6052 -0.520144 2.2322 0
M  V30 973 C 93.6052 -1.03828 1.22786 0
M  V30 974 O 94.7952 -0.929652 1.4732 0
M  V30 975 C 91.9272 -1.72317 2.94142 0
M  V30 976 H 93.1202 0.0841605 2.99782 0
M  V30 977 H 90.6732 0.0813433 1.56088 0
M  V30 978 H 91.4082 -2.36653 2.21734 0
M  V30 979 H 91.1932 -1.35898 3.67796 0
M  V30 980 H 92.6832 -2.3266 3.46784 0
M  V30 981 N 93.1203 -1.57491 0.0584922 0
M  V30 982 C 94.0703 -2.08474 -0.923188 0
M  V30 983 C 95.0543 -0.991479 -1.26722 0
M  V30 984 O 96.2463 -1.25473 -1.24842 0
M  V30 985 C 93.3753 -2.6392 -2.19548 0
M  V30 986 C 92.4613 -3.80227 -1.87852 0
M  V30 987 N 92.8523 -4.89714 -1.26546 0
M  V30 988 C 91.1503 -3.89271 -2.17679 0
M  V30 989 C 91.8513 -5.70689 -1.12644 0
M  V30 990 N 90.8273 -5.18531 -1.63176 0
M  V30 991 H 94.6293 -2.90517 -0.444653 0
M  V30 992 H 92.1433 -1.61745 -0.145764 0
M  V30 993 H 94.1403 -2.98752 -2.9078 0
M  V30 994 H 92.8003 -1.83318 -2.68001 0
M  V30 995 H 93.8113 -5.09358 -0.936757 0
M  V30 996 H 90.4883 -3.19623 -2.68602 0
M  V30 997 H 91.8783 -6.6875 -0.6499 0
M  V30 998 N 94.5984 0.214957 -1.56127 0
M  V30 999 C 95.8444 0.939762 -1.79712 0
M  V30 1000 C 96.1774 1.83723 -0.629247 0
M  V30 1001 O 95.4524 1.90925 0.371197 0
M  V30 1002 C 95.7354 1.77306 -3.13424 0
M  V30 1003 C 95.5884 0.90164 -4.40671 0
M  V30 1004 C 96.9074 2.74956 -3.43638 0
M  V30 1005 H 94.0264 0.340214 -0.653776 0
M  V30 1006 H 96.6684 0.20824 -1.88855 0
M  V30 1007 H 94.8184 2.39673 -3.0576 0
M  V30 1008 H 96.4904 0.294206 -4.60361 0
M  V30 1009 H 94.7334 0.207368 -4.33304 0
M  V30 1010 H 95.4044 1.51923 -5.30682 0
M  V30 1011 H 97.8804 2.22724 -3.51473 0
M  V30 1012 H 96.7564 3.30358 -4.38355 0
M  V30 1013 H 97.0174 3.53023 -2.66134 0
M  V30 1014 N 96.0765 1.50051 0.48192 0
M  V30 1015 C 97.3535 1.51009 1.2432 0
M  V30 1016 C 97.7335 0.248587 2.09631 0
M  V30 1017 O 97.0815 -0.768409 2.15192 0
M  V30 1018 C 97.2915 2.79981 2.08355 0
M  V30 1019 C 98.6395 3.3022 2.66908 0
M  V30 1020 O 99.6635 2.81228 2.18607 0
M  V30 1021 O 98.5225 4.15595 3.54884 0
M  V30 1022 H 95.6165 0.605239 0.563573 0
M  V30 1023 H 98.1625 1.62332 0.494627 0
M  V30 1024 H 96.9345 3.63275 1.45419 0
M  V30 1025 H 96.5575 2.7161 2.90368 0
M  V30 1026 N 97.5546 -0.734337 1.39446 0
M  V30 1027 C 98.8036 -1.48937 1.36017 0
M  V30 1028 C 99.1166 -1.95557 -0.0409005 0
M  V30 1029 O 100.323 -2.70779 -0.19778 0
M  V30 1030 C 98.7786 -2.69125 2.38955 0
M  V30 1031 C 98.3866 -2.29452 3.8478 0
M  V30 1032 C 100.131 -3.46944 2.44603 0
M  V30 1033 C 98.0376 -3.46366 4.79358 0
M  V30 1034 H 96.9676 -0.559296 0.505672 0
M  V30 1035 H 99.6186 -0.800983 1.65095 0
M  V30 1036 H 98.0006 -3.40041 2.02948 0
M  V30 1037 H 99.1746 -1.66077 4.29831 0
M  V30 1038 H 97.4896 -1.64723 3.82433 0
M  V30 1039 H 100.087 -4.33907 3.12456 0
M  V30 1040 H 100.43 -3.89454 1.47076 0
M  V30 1041 H 100.963 -2.83056 2.79507 0
M  V30 1042 H 97.7016 -3.08905 5.78151 0
M  V30 1043 H 97.2216 -4.08719 4.38986 0
M  V30 1044 H 98.9006 -4.12691 4.98292 0
M  V30 1045 N 99.0327 -1.24633 -0.964593 0
M  V30 1046 C 100.263 -1.11339 -1.74032 0
M  V30 1047 C 100.671 0.336593 -1.86182 0
M  V30 1048 O 100.014 1.24389 -1.35178 0
M  V30 1049 C 100.076 -1.68284 -3.1768 0
M  V30 1050 C 99.7397 -3.17196 -3.28992 0
M  V30 1051 C 100.737 -4.14308 -3.14078 0
M  V30 1052 C 98.4217 -3.57215 -3.53133 0
M  V30 1053 C 100.416 -5.4942 -3.23135 0
M  V30 1054 C 98.1027 -4.92468 -3.61827 0
M  V30 1055 C 99.1007 -5.8838 -3.46841 0
M  V30 1056 O 98.7887 -7.21173 -3.55197 0
M  V30 1057 H 98.5207 -0.389551 -0.552472 0
M  V30 1058 H 101.075 -1.65282 -1.21946 0
M  V30 1059 H 99.3047 -1.08777 -3.71085 0
M  V30 1060 H 100.994 -1.50234 -3.77074 0
M  V30 1061 H 101.76 -3.84731 -2.95308 0
M  V30 1062 H 97.6387 -2.83063 -3.63863 0
M  V30 1063 H 101.183 -6.24263 -3.11355 0
M  V30 1064 H 97.0797 -5.21714 -3.80111 0
M  V30 1065 H 97.8477 -7.29135 -3.71892 0
M  V30 1066 N 100.511 1.16574 -1.06058 0
M  V30 1067 C 101.421 2.2452 -0.680282 0
M  V30 1068 C 102.437 1.71348 0.302604 0
M  V30 1069 O 103.613 2.00822 0.152513 0
M  V30 1070 C 100.678 3.46629 -0.0700315 0
M  V30 1071 C 99.7388 4.14849 -1.10448 0
M  V30 1072 C 98.9718 5.31129 -0.523256 0
M  V30 1073 O 99.1948 5.66514 0.664709 0
M  V30 1074 O 98.1288 5.88526 -1.26179 0
M  V30 1075 H 101.955 2.59355 -1.58015 0
M  V30 1076 H 99.5398 1.24043 -0.832694 0
M  V30 1077 H 101.422 4.20543 0.268667 0
M  V30 1078 H 100.097 3.13573 0.803353 0
M  V30 1079 H 99.0038 3.42916 -1.49532 0
M  V30 1080 H 100.337 4.51954 -1.94931 0
M  V30 1081 N 101.989 0.842826 1.3317 0
M  V30 1082 C 102.936 0.276885 2.29133 0
M  V30 1083 C 103.906 -0.609527 1.54512 0
M  V30 1084 O 105.091 -0.546955 1.82792 0
M  V30 1085 C 102.231 -0.538707 3.40869 0
M  V30 1086 C 101.344 0.372169 4.30394 0
M  V30 1087 C 100.479 -0.454908 5.29249 0
M  V30 1088 C 99.5179 0.45411 6.10413 0
M  V30 1089 N 98.6549 -0.335075 7.013 0
M  V30 1090 H 103.495 1.10052 2.76934 0
M  V30 1091 H 101.032 0.554161 1.36262 0
M  V30 1092 H 102.99 -1.02709 4.0436 0
M  V30 1093 H 101.62 -1.32727 2.9425 0
M  V30 1094 H 100.672 0.97888 3.6759 0
M  V30 1095 H 101.984 1.0703 4.87182 0
M  V30 1096 H 101.138 -1.00695 5.98285 0
M  V30 1097 H 99.8769 -1.18646 4.73048 0
M  V30 1098 H 98.8819 1.01813 5.40291 0
M  V30 1099 H 100.107 1.18409 6.68697 0
M  V30 1100 H 98.0529 -1.04994 6.47543 0
M  V30 1101 H 97.9699 0.304262 7.55387 0
M  V30 1102 H 99.2379 -0.869224 7.74638 0
M  V30 1103 N 103.467 -1.45747 0.599634 0
M  V30 1104 C 104.399 -2.28628 -0.161879 0
M  V30 1105 C 105.412 -1.39494 -0.839367 0
M  V30 1106 O 106.601 -1.63941 -0.706089 0
M  V30 1107 C 103.701 -3.15014 -1.24976 0
M  V30 1108 C 102.874 -4.32378 -0.660935 0
M  V30 1109 C 101.933 -5.00033 -1.63869 0
M  V30 1110 O 100.959 -5.57085 -1.1681 0
M  V30 1111 N 102.161 -4.98589 -2.97303 0
M  V30 1112 H 104.926 -2.94624 0.549265 0
M  V30 1113 H 102.487 -1.55847 0.438565 0
M  V30 1114 H 104.479 -3.5714 -1.9035 0
M  V30 1115 H 103.049 -2.5098 -1.86354 0
M  V30 1116 H 102.269 -3.9383 0.170688 0
M  V30 1117 H 103.557 -5.08197 -0.247619 0
M  V30 1118 H 102.955 -4.53514 -3.38145 0
M  V30 1119 H 101.512 -5.44603 -3.58121 0
M  V30 1120 N 104.945 -0.338344 -1.53925 0
M  V30 1121 C 106.356 0.146651 -1.86123 0
M  V30 1122 C 106.707 1.5042 -1.2597 0
M  V30 1123 O 105.832 2.08723 -0.571294 0
M  V30 1124 C 106.427 0.272879 -3.37699 0
M  V30 1125 C 104.986 0.702103 -3.69794 0
M  V30 1126 C 104.133 -0.167304 -2.76795 0
M  V30 1127 H 107.084 -0.558123 -1.48562 0
M  V30 1128 H 107.105 1.10128 -3.64214 0
M  V30 1129 H 106.617 -0.715307 -3.81451 0
M  V30 1130 H 104.718 1.6995 -3.31584 0
M  V30 1131 H 104.831 0.495604 -4.7653 0
M  V30 1132 H 103.195 0.359527 -2.5215 0
M  V30 1133 H 103.978 -1.15253 -3.23375 0
M  V30 1134 N 106.423 1.57458 -0.0668435 0
M  V30 1135 C 107.669 1.93587 0.6043 0
M  V30 1136 C 108.002 0.946722 1.69561 0
M  V30 1137 O 107.277 -0.0248516 1.94484 0
M  V30 1138 C 107.56 3.40014 1.18585 0
M  V30 1139 C 107.413 4.49685 0.101529 0
M  V30 1140 C 108.732 3.87154 2.09284 0
M  V30 1141 H 105.851 0.703958 0.218202 0
M  V30 1142 H 108.493 1.89542 -0.131804 0
M  V30 1143 H 106.643 3.43592 1.81319 0
M  V30 1144 H 108.315 4.5823 -0.531279 0
M  V30 1145 H 106.558 4.30059 -0.568487 0
M  V30 1146 H 107.229 5.49266 0.54874 0
M  V30 1147 H 109.705 3.85551 1.56491 0
M  V30 1148 H 108.581 4.90231 2.46911 0
M  V30 1149 H 108.842 3.2481 2.99918 0
M  V30 1150 N 107.901 -0.206675 1.56239 0
M  V30 1151 C 109.312 -0.772383 1.69974 0
M  V30 1152 C 109.663 -1.84353 0.671436 0
M  V30 1153 O 108.788 -2.15695 -0.174491 0
M  V30 1154 C 109.383 -1.40779 3.08167 0
M  V30 1155 C 107.942 -1.92072 3.23706 0
M  V30 1156 C 107.089 -0.786347 2.65917 0
M  V30 1157 H 110.04 0.0182223 1.5869 0
M  V30 1158 H 110.061 -2.27696 3.04852 0
M  V30 1159 H 109.573 -0.627958 3.82986 0
M  V30 1160 H 107.674 -2.7281 2.53782 0
M  V30 1161 H 107.787 -2.09046 4.31087 0
M  V30 1162 H 106.151 -1.1976 2.24788 0
M  V30 1163 H 106.934 -0.0189416 3.43295 0
M  V30 1164 N 109.379 -1.50304 -0.473955 0
M  V30 1165 C 110.626 -1.6115 -1.22625 0
M  V30 1166 C 110.954 -0.310517 -1.92005 0
M  V30 1167 O 110.209 0.703419 -1.82621 0
M  V30 1168 C 110.508 -2.73938 -2.29549 0
M  V30 1169 C 110.174 -4.14519 -1.7744 0
M  V30 1170 C 108.836 -4.5277 -1.62949 0
M  V30 1171 C 111.188 -5.02392 -1.3875 0
M  V30 1172 C 108.516 -5.76639 -1.08187 0
M  V30 1173 C 110.868 -6.26805 -0.854309 0
M  V30 1174 C 109.532 -6.63861 -0.696011 0
M  V30 1175 H 108.802 -0.589691 -0.448715 0
M  V30 1176 H 111.449 -1.84228 -0.522705 0
M  V30 1177 H 109.754 -2.44937 -3.05799 0
M  V30 1178 H 111.451 -2.79534 -2.87509 0
M  V30 1179 H 108.041 -3.8434 -1.89685 0
M  V30 1180 H 112.225 -4.73474 -1.4878 0
M  V30 1181 H 107.481 -6.04027 -0.946666 0
M  V30 1182 H 111.655 -6.94258 -0.545843 0
M  V30 1183 H 109.282 -7.59722 -0.26952 0
M  V30 1184 N 110.857 0.726932 -1.39834 0
M  V30 1185 C 112.105 1.4837 -1.37225 0
M  V30 1186 C 112.426 1.94979 0.0284857 0
M  V30 1187 O 111.696 1.69555 0.981213 0
M  V30 1188 H 110.276 0.55043 -0.505011 0
M  V30 1189 H 112.938 0.862468 -1.74778 0
M  V30 1190 H 112.034 2.36198 -2.04003 0
M  V30 1191 N 112.336 1.25143 0.95797 0
M  V30 1192 C 113.266 1.07711 2.07173 0
M  V30 1193 C 114.247 -0.0128462 1.70095 0
M  V30 1194 O 115.432 0.156061 1.93572 0
M  V30 1195 C 112.562 0.691503 3.40346 0
M  V30 1196 C 111.516 1.73132 3.9142 0
M  V30 1197 C 110.842 1.20049 5.21049 0
M  V30 1198 C 112.142 3.1294 4.1817 0
M  V30 1199 H 113.836 2.00873 2.22014 0
M  V30 1200 H 111.382 0.967191 1.06684 0
M  V30 1201 H 113.335 0.556505 4.17709 0
M  V30 1202 H 112.059 -0.275819 3.25433 0
M  V30 1203 H 110.718 1.8547 3.16222 0
M  V30 1204 H 110.366 0.223499 5.02503 0
M  V30 1205 H 110.066 1.89545 5.56189 0
M  V30 1206 H 111.59 1.07782 6.01012 0
M  V30 1207 H 113.004 3.03775 4.86203 0
M  V30 1208 H 111.401 3.79875 4.64559 0
M  V30 1209 H 112.471 3.6025 3.24573 0
M  V30 1210 N 113.814 -1.1601 1.06675 0
M  V30 1211 C 115.06 -1.86909 0.786945 0
M  V30 1212 C 115.393 -1.81717 -0.685018 0
M  V30 1213 O 114.668 -1.23551 -1.50218 0
M  V30 1214 C 114.951 -3.36313 1.28707 0
M  V30 1215 C 114.804 -3.50175 2.82308 0
M  V30 1216 C 116.123 -4.3084 0.898071 0
M  V30 1217 H 113.242 -0.678677 0.287343 0
M  V30 1218 H 115.884 -1.36336 1.32334 0
M  V30 1219 H 114.034 -3.79513 0.830768 0
M  V30 1220 H 115.706 -3.15886 3.36175 0
M  V30 1221 H 113.949 -2.91959 3.20847 0
M  V30 1222 H 114.62 -4.55116 3.12368 0
M  V30 1223 H 117.096 -3.95561 1.29114 0
M  V30 1224 H 115.972 -5.33876 1.27543 0
M  V30 1225 H 116.233 -4.41662 -0.196651 0
M  V30 1226 N 115.292 -0.849877 -1.32721 0
M  V30 1227 C 116.708 -0.539102 -1.50219 0
M  V30 1228 C 116.908 0.931271 -1.78689 0
M  V30 1229 O 115.964 1.71455 -1.85363 0
M  V30 1230 C 117.277 -1.42196 -2.64954 0
M  V30 1231 C 118.825 -1.42189 -2.78839 0
M  V30 1232 C 119.3 -2.28985 -3.96648 0
M  V30 1233 N 120.791 -2.26754 -4.03902 0
M  V30 1234 C 121.526 -2.90644 -4.94281 0
M  V30 1235 N 121.022 -3.63629 -5.897 0
M  V30 1236 N 122.815 -2.80057 -4.87365 0
M  V30 1237 H 114.966 -1.80156 -1.12506 0
M  V30 1238 H 117.229 -0.769217 -0.554085 0
M  V30 1239 H 116.935 -2.46733 -2.50631 0
M  V30 1240 H 116.809 -1.10591 -3.60624 0
M  V30 1241 H 119.196 -0.38419 -2.92588 0
M  V30 1242 H 119.277 -1.77807 -1.83898 0
M  V30 1243 H 118.921 -3.32819 -3.83658 0
M  V30 1244 H 118.851 -1.90702 -4.90857 0
M  V30 1245 H 121.342 -1.73688 -3.3562 0
M  V30 1246 H 121.655 -4.09558 -6.55349 0
M  V30 1247 H 120 -3.67737 -5.89741 0
M  V30 1248 H 123.191 -2.22593 -4.11789 0
M  V30 1249 H 123.364 -3.30132 -5.57599 0
M  V30 1250 N 116.77 1.45427 -0.607355 0
M  V30 1251 C 118.017 2.02241 -0.102455 0
M  V30 1252 C 118.345 1.4758 1.26691 0
M  V30 1253 O 117.6 0.640468 1.84923 0
M  V30 1254 C 117.899 3.57398 -0.0129263 0
M  V30 1255 C 117.565 4.3121 -1.31792 0
M  V30 1256 C 116.227 4.51092 -1.67539 0
M  V30 1257 C 118.579 4.73401 -2.18039 0
M  V30 1258 C 115.907 5.10422 -2.89285 0
M  V30 1259 C 118.259 5.34078 -3.39034 0
M  V30 1260 C 116.923 5.52184 -3.75033 0
M  V30 1261 H 116.193 0.740051 -0.037491 0
M  V30 1262 H 118.84 1.74494 -0.788926 0
M  V30 1263 H 117.145 3.84421 0.756806 0
M  V30 1264 H 118.842 3.99061 0.393881 0
M  V30 1265 H 115.432 4.16047 -1.02968 0
M  V30 1266 H 119.616 4.57774 -1.91721 0
M  V30 1267 H 114.872 5.22629 -3.17283 0
M  V30 1268 H 119.046 5.65724 -4.06115 0
M  V30 1269 H 116.673 5.97925 -4.69457 0
M  V30 1270 N 118.248 0.346503 1.53744 0
M  V30 1271 C 119.496 -0.248612 2.00565 0
M  V30 1272 C 119.817 -1.5083 1.23593 0
M  V30 1273 O 119.087 -1.92858 0.343912 0
M  V30 1274 H 117.667 -0.0948564 0.740953 0
M  V30 1275 H 120.329 0.468341 1.89189 0
M  V30 1276 H 119.425 -0.488994 3.08245 0
M  V30 1277 N 119.726 -1.57421 0.075193 0
M  V30 1278 C 120.972 -1.93905 -0.594025 0
M  V30 1279 C 121.305 -0.955701 -1.69056 0
M  V30 1280 O 120.58 0.0145373 -1.94495 0
M  V30 1281 C 120.863 -3.40638 -1.1678 0
M  V30 1282 C 120.716 -4.49733 -0.0776792 0
M  V30 1283 C 122.035 -3.88259 -2.07228 0
M  V30 1284 H 119.154 -0.705105 -0.214466 0
M  V30 1285 H 121.796 -1.8947 0.141854 0
M  V30 1286 H 119.946 -3.44549 -1.79494 0
M  V30 1287 H 121.618 -4.57942 0.555573 0
M  V30 1288 H 119.861 -4.29751 0.591286 0
M  V30 1289 H 120.532 -5.49549 -0.519603 0
M  V30 1290 H 123.008 -3.86376 -1.54445 0
M  V30 1291 H 121.884 -4.91533 -2.44308 0
M  V30 1292 H 122.145 -3.26396 -2.98191 0
M  V30 1293 N 121.204 0.198386 -1.56346 0
M  V30 1294 C 122.167 1.22952 -1.93431 0
M  V30 1295 C 123.167 1.38611 -0.815092 0
M  V30 1296 O 124.357 1.36479 -1.08255 0
M  V30 1297 C 121.489 2.59946 -2.20546 0
M  V30 1298 H 122.682 0.912626 -2.85677 0
M  V30 1299 H 120.235 0.43977 -1.49986 0
M  V30 1300 H 120.97 2.96696 -1.30927 0
M  V30 1301 H 120.755 2.49953 -3.02102 0
M  V30 1302 H 122.245 3.3431 -2.50253 0
M  V30 1303 N 122.682 1.50554 0.465978 0
M  V30 1304 C 124.093 1.54599 1.04671 0
M  V30 1305 C 124.444 0.352488 1.93008 0
M  V30 1306 O 123.569 -0.534044 2.09707 0
M  V30 1307 C 124.164 2.80166 1.90505 0
M  V30 1308 C 122.723 2.86876 2.43678 0
M  V30 1309 C 121.87 2.48947 1.22151 0
M  V30 1310 H 124.821 1.56744 0.248384 0
M  V30 1311 H 124.842 2.62311 2.75633 0
M  V30 1312 H 124.354 3.67013 1.26186 0
M  V30 1313 H 122.455 2.04393 3.11536 0
M  V30 1314 H 122.568 3.89885 2.78436 0
M  V30 1315 H 120.932 2.01498 1.5579 0
M  V30 1316 H 121.715 3.38107 0.594866 0
M  V30 1317 N 124.16 -0.719506 1.40217 0
M  V30 1318 C 125.437 -1.47221 1.28784 0
M  V30 1319 C 125.817 -2.10883 -0.0956067 0
M  V30 1320 O 125.165 -1.99833 -1.10811 0
M  V30 1321 C 125.375 -2.5111 2.42373 0
M  V30 1322 C 126.723 -3.17053 2.82423 0
M  V30 1323 O 127.747 -2.61429 2.41937 0
M  V30 1324 O 126.606 -4.17742 3.52355 0
M  V30 1325 H 123.7 -0.654491 0.50554 0
M  V30 1326 H 126.246 -0.752014 1.52128 0
M  V30 1327 H 125.018 -2.02556 3.34793 0
M  V30 1328 H 124.641 -3.3067 2.20778 0
M  V30 1329 N 125.638 -1.25649 -0.95132 0
M  V30 1330 C 126.588 -1.03004 -2.03406 0
M  V30 1331 C 127.572 0.034187 -1.60864 0
M  V30 1332 O 128.764 -0.181549 -1.76066 0
M  V30 1333 C 125.893 -0.654255 -3.37008 0
M  V30 1334 C 124.979 -1.75542 -3.86065 0
M  V30 1335 N 125.37 -2.99113 -4.07879 0
M  V30 1336 C 123.668 -1.63669 -4.14884 0
M  V30 1337 C 124.369 -3.70611 -4.48356 0
M  V30 1338 N 123.345 -2.98247 -4.54477 0
M  V30 1339 H 127.147 -1.96813 -2.1827 0
M  V30 1340 H 124.661 -1.16017 -1.13639 0
M  V30 1341 H 126.658 -0.473206 -4.14206 0
M  V30 1342 H 125.318 0.276468 -3.23521 0
M  V30 1343 H 126.329 -3.35124 -3.94857 0
M  V30 1344 H 123.006 -0.775161 -4.10241 0
M  V30 1345 H 124.396 -4.76695 -4.73509 0
M  V30 1346 N 127.117 1.15442 -1.07289 0
M  V30 1347 C 128.528 1.67803 -0.818475 0
M  V30 1348 C 128.879 1.8489 0.656507 0
M  V30 1349 O 128.004 1.55176 1.50829 0
M  V30 1350 C 128.599 3.04805 -1.47917 0
M  V30 1351 C 127.158 3.54245 -1.27229 0
M  V30 1352 C 126.305 2.29986 -1.54925 0
M  V30 1353 H 129.256 0.996646 -1.23502 0
M  V30 1354 H 129.277 3.69702 -0.90005 0
M  V30 1355 H 128.789 2.92336 -2.55267 0
M  V30 1356 H 126.89 3.71956 -0.21899 0
M  V30 1357 H 127.003 4.35723 -1.99203 0
M  V30 1358 H 125.367 2.35496 -0.970242 0
M  V30 1359 H 126.15 2.20105 -2.63455 0
M  V30 1360 N 128.595 0.856903 1.32268 0
M  V30 1361 C 129.505 0.306131 2.32594 0
M  V30 1362 C 130.521 -0.577209 1.64147 0
M  V30 1363 O 131.697 -0.477043 1.95669 0
M  V30 1364 C 128.762 -0.494561 3.43154 0
M  V30 1365 C 127.823 0.415186 4.27288 0
M  V30 1366 C 127.056 -0.347387 5.32568 0
M  V30 1367 O 127.279 -1.57708 5.48165 0
M  V30 1368 O 126.213 0.287982 6.01211 0
M  V30 1369 H 130.039 1.13737 2.81598 0
M  V30 1370 H 127.624 0.619902 1.35932 0
M  V30 1371 H 129.506 -0.948944 4.10576 0
M  V30 1372 H 128.181 -1.30257 2.96336 0
M  V30 1373 H 127.088 0.917793 3.62667 0
M  V30 1374 H 128.421 1.18844 4.77637 0
M  V30 1375 N 130.073 -1.45103 0.615059 0
M  V30 1376 C 131.319 -2.02483 0.113347 0
M  V30 1377 C 131.652 -1.48146 -1.25564 0
M  V30 1378 O 130.927 -0.659104 -1.82992 0
M  V30 1379 C 131.21 -3.60005 0.0825278 0
M  V30 1380 C 131.063 -4.2466 1.48271 0
M  V30 1381 C 132.382 -4.35972 -0.601401 0
M  V30 1382 H 129.501 -0.735764 0.0426632 0
M  V30 1383 H 132.143 -1.72868 0.788461 0
M  V30 1384 H 130.293 -3.85367 -0.492378 0
M  V30 1385 H 131.965 -4.10458 2.10527 0
M  V30 1386 H 130.208 -3.82772 2.04127 0
M  V30 1387 H 130.879 -5.336 1.41332 0
M  V30 1388 H 133.355 -4.15947 -0.112666 0
M  V30 1389 H 132.231 -5.45697 -0.592097 0
M  V30 1390 H 132.492 -4.09391 -1.66887 0
M  V30 1391 N 131.551 -0.354651 -1.53558 0
M  V30 1392 C 132.498 0.496968 -2.25386 0
M  V30 1393 C 133.468 1.0865 -1.25636 0
M  V30 1394 O 134.653 1.12104 -1.54394 0
M  V30 1395 C 131.793 1.63637 -3.03837 0
M  V30 1396 C 130.906 1.07307 -4.18461 0
M  V30 1397 C 130.041 2.18068 -4.84376 0
M  V30 1398 C 129.08 1.59147 -5.91049 0
M  V30 1399 N 128.217 2.63695 -6.50699 0
M  V30 1400 H 133.057 -0.122075 -2.9775 0
M  V30 1401 H 130.594 -0.0720154 -1.46924 0
M  V30 1402 H 132.552 2.30734 -3.47589 0
M  V30 1403 H 131.182 2.22623 -2.33749 0
M  V30 1404 H 130.234 0.292708 -3.79272 0
M  V30 1405 H 131.546 0.602193 -4.95152 0
M  V30 1406 H 130.7 2.93007 -5.31255 0
M  V30 1407 H 129.439 2.68504 -4.07133 0
M  V30 1408 H 128.444 0.827175 -5.43542 0
M  V30 1409 H 129.669 1.09549 -6.70206 0
M  V30 1410 H 127.615 3.13365 -5.76315 0
M  V30 1411 H 127.532 2.21263 -7.22896 0
M  V30 1412 H 128.8 3.3837 -7.02229 0
M  V30 1413 N 133.029 1.57378 -0.0835403 0
M  V30 1414 C 133.977 2.14602 0.89714 0
M  V30 1415 C 134.971 1.08589 1.30018 0
M  V30 1416 O 136.177 1.26952 1.27606 0
M  V30 1417 H 132.552 0.686346 0.3073 0
M  V30 1418 H 134.523 2.95845 0.38969 0
M  V30 1419 C 133.272 2.73188 2.15089 0
M  V30 1420 H 132.595 3.54442 1.84962 0
M  V30 1421 H 134.035 3.1681 2.81793 0
M  V30 1422 C 132.494 1.68517 2.91725 0
M  V30 1423 O 133.024 1.11718 3.85852 0
M  V30 1424 N 131.23 1.39277 2.55049 0
M  V30 1425 H 130.777 1.85655 1.78577 0
M  V30 1426 H 130.735 0.694791 3.06627 0
M  V30 1427 N 134.507 -0.190092 1.56449 0
M  V30 1428 C 135.753 -0.911052 1.81184 0
M  V30 1429 C 136.086 -1.82699 0.658396 0
M  V30 1430 O 135.361 -1.91491 -0.340775 0
M  V30 1431 C 135.644 -1.72297 3.16205 0
M  V30 1432 C 135.497 -0.831419 4.42049 0
M  V30 1433 C 136.816 -2.69454 3.47969 0
M  V30 1434 H 133.935 -0.32977 0.659106 0
M  V30 1435 H 136.577 -0.178169 1.89163 0
M  V30 1436 H 134.727 -2.34778 3.09534 0
M  V30 1437 H 136.399 -0.220929 4.60771 0
M  V30 1438 H 134.642 -0.138406 4.33579 0
M  V30 1439 H 135.313 -1.43461 5.33032 0
M  V30 1440 H 137.789 -2.17104 3.54972 0
M  V30 1441 H 136.665 -3.23342 4.43555 0
M  V30 1442 H 136.926 -3.48744 2.71717 0
M  V30 1443 N 135.985 -1.50799 -0.457987 0
M  V30 1444 C 137.234 -1.6168 -1.20593 0
M  V30 1445 C 137.547 -0.32888 -1.92815 0
M  V30 1446 O 138.753 -0.316773 -2.69646 0
M  V30 1447 C 137.209 -2.8545 -2.19195 0
M  V30 1448 C 136.817 -4.21168 -1.52715 0
M  V30 1449 C 138.561 -3.05681 -2.94549 0
M  V30 1450 C 136.468 -5.3611 -2.4968 0
M  V30 1451 H 135.398 -0.602134 -0.453818 0
M  V30 1452 H 138.049 -1.77245 -0.475031 0
M  V30 1453 H 136.431 -2.63472 -2.95632 0
M  V30 1454 H 137.605 -4.53449 -0.819775 0
M  V30 1455 H 135.92 -4.06648 -0.895922 0
M  V30 1456 H 138.517 -3.88727 -3.67145 0
M  V30 1457 H 138.86 -2.17929 -3.54701 0
M  V30 1458 H 139.393 -3.27901 -2.25223 0
M  V30 1459 H 136.132 -6.26057 -1.94249 0
M  V30 1460 H 135.652 -5.0823 -3.18532 0
M  V30 1461 H 137.331 -5.6722 -3.11241 0
M  V30 1462 N 137.463 0.71206 -1.40597 0
M  V30 1463 C 138.411 1.84746 -1.41321 0
M  V30 1464 C 139.405 1.66842 -0.293268 0
M  V30 1465 O 140.611 1.73904 -0.464481 0
M  V30 1466 H 136.986 0.608522 -0.441819 0
M  V30 1467 H 138.957 1.81252 -2.37045 0
M  V30 1468 C 137.706 3.22638 -1.29614 0
M  V30 1469 H 137.029 3.37023 -2.15071 0
M  V30 1470 H 138.469 4.02209 -1.3418 0
M  V30 1471 C 136.928 3.36899 -0.00673121 0
M  V30 1472 O 137.458 3.90186 0.954859 0
M  V30 1473 N 135.664 2.9053 0.0639327 0
M  V30 1474 H 135.211 2.47353 -0.719311 0
M  V30 1475 H 135.169 3.0045 0.926118 0
M  V30 1476 N 138.941 1.26152 0.944643 0
M  V30 1477 C 140.169 1.14259 1.72489 0
M  V30 1478 C 140.584 -0.302555 1.8636 0
M  V30 1479 O 139.941 -1.20741 1.36849 0
M  V30 1480 C 139.992 1.80266 3.13347 0
M  V30 1481 O 139.713 3.19133 3.00143 0
M  V30 1482 C 141.214 1.74283 4.07603 0
M  V30 1483 H 138.434 0.398051 0.540181 0
M  V30 1484 H 140.978 1.66706 1.18446 0
M  V30 1485 H 139.133 1.31766 3.64303 0
M  V30 1486 H 139.547 3.51744 3.89071 0
M  V30 1487 H 141.021 2.25111 5.04013 0
M  V30 1488 H 141.498 0.708631 4.33446 0
M  V30 1489 H 142.104 2.22319 3.62567 0
M  V30 1490 N 140.419 -1.14872 1.07899 0
M  V30 1491 C 141.666 -1.85789 0.805532 0
M  V30 1492 C 141.994 -1.82649 -0.668561 0
M  V30 1493 O 141.249 -1.24858 -1.50695 0
M  V30 1494 C 141.548 -3.34223 1.26609 0
M  V30 1495 C 141.214 -3.57555 2.74709 0
M  V30 1496 C 139.876 -3.63631 3.1516 0
M  V30 1497 C 142.228 -3.66803 3.70277 0
M  V30 1498 C 139.556 -3.76473 4.49983 0
M  V30 1499 C 141.908 -3.8117 5.04869 0
M  V30 1500 C 140.572 -3.85494 5.44932 0
M  V30 1501 H 139.842 -0.679849 0.294765 0
M  V30 1502 H 142.489 -1.3572 1.35101 0
M  V30 1503 H 140.794 -3.86536 0.640103 0
M  V30 1504 H 142.491 -3.87511 1.03132 0
M  V30 1505 H 139.081 -3.5347 2.42398 0
M  V30 1506 H 143.265 -3.61404 3.40149 0
M  V30 1507 H 138.521 -3.7808 4.80484 0
M  V30 1508 H 142.695 -3.87268 5.78789 0
M  V30 1509 H 140.322 -3.95197 6.49403 0
M  V30 1510 N 141.898 -0.863906 -1.31812 0
M  V30 1511 C 143.126 -0.486111 -2.01108 0
M  V30 1512 C 143.541 0.919755 -1.64882 0
M  V30 1513 O 142.898 1.60162 -0.874893 0
M  V30 1514 C 142.949 -0.626435 -3.56031 0
M  V30 1515 O 142.67 -1.97693 -3.90959 0
M  V30 1516 C 144.171 -0.248857 -4.42601 0
M  V30 1517 H 141.391 -0.190052 -0.643523 0
M  V30 1518 H 143.935 -1.1634 -1.68182 0
M  V30 1519 H 142.09 0.00322717 -3.874 0
M  V30 1520 H 142.504 -1.98034 -4.85678 0
M  V30 1521 H 143.978 -0.398016 -5.50563 0
M  V30 1522 H 144.455 0.811489 -4.31638 0
M  V30 1523 H 145.061 -0.853971 -4.16638 0
M  V30 1524 N 143.376 1.44774 -0.622745 0
M  V30 1525 C 144.308 2.28856 0.125485 0
M  V30 1526 C 145.321 1.40811 0.817069 0
M  V30 1527 O 146.51 1.65044 0.679918 0
M  V30 1528 C 143.61 3.16963 1.19949 0
M  V30 1529 C 142.783 4.33374 0.592064 0
M  V30 1530 C 141.842 5.02577 1.55893 0
M  V30 1531 O 140.868 5.58873 1.07933 0
M  V30 1532 N 142.07 5.03256 2.89334 0
M  V30 1533 H 144.835 2.93713 -0.596068 0
M  V30 1534 H 142.396 1.55129 -0.463303 0
M  V30 1535 H 144.388 3.60123 1.84644 0
M  V30 1536 H 142.958 2.53913 1.82337 0
M  V30 1537 H 142.178 3.93509 -0.233322 0
M  V30 1538 H 143.466 5.08527 0.166738 0
M  V30 1539 H 142.864 4.58836 3.30887 0
M  V30 1540 H 141.421 5.50232 3.49412 0
M  V30 1541 N 144.854 0.36279 1.53368 0
M  V30 1542 C 146.082 -0.228613 2.05633 0
M  V30 1543 C 146.497 -1.42676 1.23649 0
M  V30 1544 O 145.854 -1.80394 0.27647 0
M  V30 1545 C 145.905 -0.624845 3.56059 0
M  V30 1546 O 145.626 0.525675 4.34935 0
M  V30 1547 C 147.127 -1.27493 4.24571 0
M  V30 1548 H 144.347 -0.0407183 0.669763 0
M  V30 1549 H 146.891 0.520352 1.97769 0
M  V30 1550 H 145.046 -1.32373 3.64083 0
M  V30 1551 H 145.46 0.205969 5.24095 0
M  V30 1552 H 146.934 -1.50277 5.31151 0
M  V30 1553 H 147.411 -2.23439 3.78116 0
M  V30 1554 H 148.017 -0.617558 4.20792 0
M  V30 1555 N 146.332 -1.57332 0.0918853 0
M  V30 1556 C 147.295 -2.12708 -0.85369 0
M  V30 1557 C 148.295 -1.05561 -1.213 0
M  V30 1558 O 149.485 -1.31461 -1.14296 0
M  V30 1559 C 146.617 -2.64503 -2.15061 0
M  V30 1560 H 147.81 -2.97573 -0.3729 0
M  V30 1561 H 145.363 -1.55509 -0.157072 0
M  V30 1562 H 146.098 -1.83149 -2.67632 0
M  V30 1563 H 145.883 -3.4284 -1.90272 0
M  V30 1564 H 147.373 -3.07351 -2.82711 0
M  V30 1565 N 147.81 0.181792 -1.56548 0
M  V30 1566 C 148.76 1.22961 -1.92002 0
M  V30 1567 C 149.744 1.40331 -0.787146 0
M  V30 1568 O 150.936 1.42478 -1.05019 0
M  V30 1569 C 148.065 2.57144 -2.27446 0
M  V30 1570 C 147.151 2.43512 -3.47222 0
M  V30 1571 N 147.542 1.99577 -4.64761 0
M  V30 1572 C 145.84 2.74368 -3.51622 0
M  V30 1573 C 146.541 1.98156 -5.46909 0
M  V30 1574 N 145.517 2.40164 -4.8767 0
M  V30 1575 H 149.319 0.881462 -2.8037 0
M  V30 1576 H 146.833 0.390141 -1.57644 0
M  V30 1577 H 148.83 3.32847 -2.51035 0
M  V30 1578 H 147.49 2.92771 -1.40411 0
M  V30 1579 H 148.501 1.70078 -4.89177 0
M  V30 1580 H 145.178 3.14102 -2.75038 0
M  V30 1581 H 146.568 1.65975 -6.51077 0
M  V30 1582 N 149.288 1.51039 0.449983 0
M  V30 1583 C 150.513 1.6715 1.22783 0
M  V30 1584 C 150.938 0.363081 1.84563 0
M  V30 1585 O 150.296 -0.675433 1.68249 0
M  V30 1586 C 150.344 2.77985 2.29689 0
M  V30 1587 O 149.448 2.40707 3.34864 0
M  V30 1588 H 148.789 0.557746 0.360299 0
M  V30 1589 H 151.319 1.97535 0.533005 0
M  V30 1590 H 151.329 3.01693 2.74673 0
M  V30 1591 H 150.004 3.72935 1.84098 0
M  V30 1592 H 148.581 2.27523 2.95445 0
M  V30 1593 N 150.766 -0.704594 1.40972 0
M  V30 1594 C 152.014 -1.46169 1.39568 0
M  V30 1595 C 152.335 -1.95 0.00253745 0
M  V30 1596 O 151.605 -1.71095 -0.954114 0
M  V30 1597 H 150.185 -0.542326 0.513704 0
M  V30 1598 H 152.847 -0.834553 1.76128 0
M  V30 1599 H 151.943 -2.32922 2.07735 0
M  V30 1600 N 152.244 -1.26651 -0.937939 0
M  V30 1601 C 153.66 -1.03834 -1.21205 0
M  V30 1602 C 153.86 0.234502 -2.00131 0
M  V30 1603 O 152.916 0.942767 -2.3424 0
M  V30 1604 C 154.229 -2.27167 -1.97017 0
M  V30 1605 C 155.777 -2.32101 -2.09996 0
M  V30 1606 C 156.252 -3.55136 -2.8921 0
M  V30 1607 N 157.743 -3.55632 -2.96783 0
M  V30 1608 C 158.478 -4.475 -3.58512 0
M  V30 1609 N 157.974 -5.4966 -4.21717 0
M  V30 1610 N 159.767 -4.35145 -3.55816 0
M  V30 1611 H 151.918 -2.08398 -0.410391 0
M  V30 1612 H 154.181 -0.916031 -0.244114 0
M  V30 1613 H 153.887 -3.19765 -1.46434 0
M  V30 1614 H 153.761 -2.31672 -2.97671 0
M  V30 1615 H 156.148 -1.40015 -2.59769 0
M  V30 1616 H 156.229 -2.31605 -1.08594 0
M  V30 1617 H 155.873 -4.47553 -2.40123 0
M  V30 1618 H 155.803 -3.5288 -3.90875 0
M  V30 1619 H 158.294 -2.81743 -2.51852 0
M  V30 1620 H 158.607 -6.15943 -4.66727 0
M  V30 1621 H 156.952 -5.53514 -4.20294 0
M  V30 1622 H 160.143 -3.5455 -3.05634 0
M  V30 1623 H 160.316 -5.06934 -4.03636 0
M  V30 1624 N 153.722 1.14298 -1.08507 0
M  V30 1625 C 154.962 1.87016 -0.824894 0
M  V30 1626 C 155.326 1.81099 0.637735 0
M  V30 1627 O 156.527 2.48963 1.01345 0
M  V30 1628 C 154.798 3.31584 -1.33368 0
M  V30 1629 S 156.357 4.21903 -1.20596 0
M  V30 1630 H 153.175 0.645259 -0.2986 0
M  V30 1631 H 155.777 1.37822 -1.38656 0
M  V30 1632 H 154.481 3.33439 -2.39262 0
M  V30 1633 H 154.012 3.85836 -0.767734 0
M  V30 1634 H 156.027 4.95971 -0.150891 0
M  V30 1635 N 155.201 0.870884 1.31352 0
M  V30 1636 C 156.164 0.332243 2.26779 0
M  V30 1637 C 157.164 -0.517302 1.52252 0
M  V30 1638 O 158.354 -0.326477 1.71113 0
M  V30 1639 C 155.486 -0.528066 3.36785 0
M  V30 1640 H 156.679 1.17469 2.75937 0
M  V30 1641 H 154.232 0.64655 1.423 0
M  V30 1642 H 154.967 -1.39167 2.92922 0
M  V30 1643 H 154.752 0.0802582 3.92018 0
M  V30 1644 H 156.242 -0.897179 4.07849 0
M  V30 1645 N 156.679 -1.44442 0.630414 0
M  V30 1646 C 157.926 -2.02052 0.134617 0
M  V30 1647 C 158.254 -1.49576 -1.24327 0
M  V30 1648 O 157.509 -0.669806 -1.83881 0
M  V30 1649 C 157.808 -3.57332 0.0697835 0
M  V30 1650 C 157.474 -4.29058 1.38635 0
M  V30 1651 C 156.136 -4.4837 1.74694 0
M  V30 1652 C 158.488 -4.69872 2.25543 0
M  V30 1653 C 155.816 -5.05756 2.97369 0
M  V30 1654 C 158.168 -5.28616 3.47487 0
M  V30 1655 C 156.832 -5.46147 3.8377 0
M  V30 1656 H 156.102 -0.739361 0.0492598 0
M  V30 1657 H 158.749 -1.73217 0.816586 0
M  V30 1658 H 157.054 -3.85577 -0.695553 0
M  V30 1659 H 158.751 -3.99637 -0.330344 0
M  V30 1660 H 155.341 -4.14357 1.09574 0
M  V30 1661 H 159.525 -4.54666 1.98979 0
M  V30 1662 H 154.781 -5.17515 3.25558 0
M  V30 1663 H 158.955 -5.59192 4.15063 0
M  V30 1664 H 156.582 -5.9038 4.7891 0
M  V30 1665 N 158.157 -0.370918 -1.53173 0
M  V30 1666 C 159.403 0.209976 -2.02313 0
M  V30 1667 C 159.758 1.45987 -1.25322 0
M  V30 1668 O 159.051 1.8856 -0.339965 0
M  V30 1669 C 159.245 0.549696 -3.53147 0
M  V30 1670 C 159.074 -0.665721 -4.44745 0
M  V30 1671 C 157.844 -1.17942 -4.91343 0
M  V30 1672 C 160.042 -1.53255 -4.90935 0
M  V30 1673 N 158.024 -2.35431 -5.66962 0
M  V30 1674 C 159.395 -2.55403 -5.64951 0
M  V30 1675 C 161.45 -1.5548 -4.73002 0
M  V30 1676 C 160.153 -3.5964 -6.22938 0
M  V30 1677 C 162.179 -2.58613 -5.31858 0
M  V30 1678 C 161.541 -3.59485 -6.05764 0
M  V30 1679 H 157.64 0.0394095 -0.781006 0
M  V30 1680 H 160.224 -0.516666 -1.8772 0
M  V30 1681 H 158.395 1.24541 -3.67891 0
M  V30 1682 H 160.127 1.11614 -3.89004 0
M  V30 1683 H 156.882 -0.743228 -4.67732 0
M  V30 1684 H 157.306 -2.94827 -6.09431 0
M  V30 1685 H 161.948 -0.788457 -4.15383 0
M  V30 1686 H 159.666 -4.37153 -6.79649 0
M  V30 1687 H 163.252 -2.61195 -5.19873 0
M  V30 1688 H 162.132 -4.3798 -6.50495 0
M  V30 1689 N 159.635 1.57281 -0.100228 0
M  V30 1690 C 160.883 1.94153 0.561157 0
M  V30 1691 C 161.204 0.983157 1.68401 0
M  V30 1692 O 160.474 0.0361132 1.95867 0
M  V30 1693 H 159.054 0.716791 0.210283 0
M  V30 1694 H 161.716 1.94202 -0.164765 0
M  V30 1695 H 160.812 2.96709 0.968008 0
M  V30 1696 N 161.113 -0.173488 1.56642 0
M  V30 1697 C 162.061 -1.23417 1.97157 0
M  V30 1698 C 163.055 -1.45946 0.860013 0
M  V30 1699 O 164.261 -1.46551 1.04512 0
M  V30 1700 H 160.636 -0.414818 0.62724 0
M  V30 1701 H 162.607 -0.865582 2.8557 0
M  V30 1702 C 161.356 -2.5665 2.34576 0
M  V30 1703 H 160.679 -2.40137 3.19647 0
M  V30 1704 H 162.119 -3.2956 2.6677 0
M  V30 1705 C 160.578 -3.15245 1.18836 0
M  V30 1706 O 161.108 -3.98883 0.474869 0
M  V30 1707 N 159.314 -2.74303 0.959497 0
M  V30 1708 H 158.861 -2.0639 1.54146 0
M  V30 1709 H 158.819 -3.13844 0.186932 0
M  V30 1710 N 162.591 -1.51276 -0.441967 0
M  V30 1711 C 163.837 -1.63958 -1.19355 0
M  V30 1712 C 164.17 -0.352543 -1.90973 0
M  V30 1713 O 163.445 0.647627 -1.83401 0
M  V30 1714 C 163.728 -2.83979 -2.21422 0
M  V30 1715 C 163.581 -4.22646 -1.53918 0
M  V30 1716 C 164.9 -2.99521 -3.22451 0
M  V30 1717 H 162.019 -0.596709 -0.432559 0
M  V30 1718 H 164.661 -1.83748 -0.483398 0
M  V30 1719 H 162.811 -2.67237 -2.81987 0
M  V30 1720 H 164.483 -4.51045 -0.967256 0
M  V30 1721 H 162.726 -4.25558 -0.841615 0
M  V30 1722 H 163.397 -5.02609 -2.28229 0
M  V30 1723 H 165.873 -3.14944 -2.71937 0
M  V30 1724 H 164.749 -3.85072 -3.91166 0
M  V30 1725 H 165.01 -2.11391 -3.88287 0
M  V30 1726 N 164.069 0.697108 -1.41344 0
M  V30 1727 C 164.979 1.84088 -1.45427 0
M  V30 1728 C 165.995 1.70545 -0.34501 0
M  V30 1729 O 167.171 1.92488 -0.592492 0
M  V30 1730 C 164.236 3.20056 -1.33286 0
M  V30 1731 C 163.297 3.45718 -2.54514 0
M  V30 1732 C 162.53 4.75199 -2.42944 0
M  V30 1733 O 162.753 5.51579 -1.45318 0
M  V30 1734 O 161.687 5.0161 -3.32672 0
M  V30 1735 H 165.513 1.836 -2.41919 0
M  V30 1736 H 163.098 0.849966 -1.22866 0
M  V30 1737 H 164.98 4.01236 -1.28794 0
M  V30 1738 H 163.655 3.2123 -0.39909 0
M  V30 1739 H 162.562 2.64474 -2.64583 0
M  V30 1740 H 163.895 3.49356 -3.46715 0
M  V30 1741 N 165.547 1.27147 0.931209 0
M  V30 1742 C 166.793 1.13446 1.68101 0
M  V30 1743 C 167.126 -0.319628 1.91552 0
M  V30 1744 O 166.401 -1.23407 1.50336 0
M  V30 1745 C 166.684 1.91482 3.0497 0
M  V30 1746 C 166.537 3.44855 2.88782 0
M  V30 1747 C 167.856 1.71651 4.05246 0
M  V30 1748 H 164.975 0.413498 0.610072 0
M  V30 1749 H 167.617 1.56261 1.08086 0
M  V30 1750 H 165.767 1.55095 3.56199 0
M  V30 1751 H 167.439 3.9105 2.44698 0
M  V30 1752 H 165.682 3.71373 2.24198 0
M  V30 1753 H 166.353 3.94694 3.85902 0
M  V30 1754 H 168.829 2.0337 3.63015 0
M  V30 1755 H 167.705 2.28651 4.99009 0
M  V30 1756 H 167.966 0.663555 4.37092 0
M  V30 1757 N 167.025 -1.13721 1.09112 0
M  V30 1758 C 168.273 -1.84559 0.823562 0
M  V30 1759 C 168.594 -1.83754 -0.652658 0
M  V30 1760 O 167.864 -1.29102 -1.47342 0
M  V30 1761 H 166.444 -0.683376 0.301673 0
M  V30 1762 H 169.106 -1.37771 1.37859 0
M  V30 1763 H 168.202 -2.8917 1.17419 0
M  V30 1764 N 168.503 -0.877838 -1.30888 0
M  V30 1765 C 169.919 -0.570844 -1.49042 0
M  V30 1766 C 170.119 0.893159 -1.80624 0
M  V30 1767 O 169.175 1.67485 -1.88958 0
M  V30 1768 C 170.488 -1.47784 -2.61878 0
M  V30 1769 C 172.036 -1.48071 -2.75761 0
M  V30 1770 C 172.511 -2.37347 -3.91702 0
M  V30 1771 N 174.002 -2.35271 -3.99001 0
M  V30 1772 C 174.737 -3.01063 -4.88004 0
M  V30 1773 N 174.233 -3.76055 -5.81854 0
M  V30 1774 N 176.026 -2.90332 -4.81315 0
M  V30 1775 H 168.177 -1.82502 -1.0866 0
M  V30 1776 H 170.44 -0.780797 -0.537644 0
M  V30 1777 H 170.146 -2.51993 -2.45341 0
M  V30 1778 H 170.02 -1.18215 -3.58197 0
M  V30 1779 H 172.407 -0.446166 -2.91708 0
M  V30 1780 H 172.488 -1.81668 -1.80085 0
M  V30 1781 H 172.132 -3.40883 -3.76512 0
M  V30 1782 H 172.062 -2.01071 -4.86701 0
M  V30 1783 H 174.553 -1.80768 -3.3186 0
M  V30 1784 H 174.866 -4.23366 -6.46514 0
M  V30 1785 H 173.211 -3.80163 -5.81808 0
M  V30 1786 H 176.402 -2.31278 -4.06974 0
M  V30 1787 H 176.575 -3.41885 -5.50471 0
M  V30 1788 N 169.982 1.44106 -0.638065 0
M  V30 1789 C 171.259 1.95453 -0.0759321 0
M  V30 1790 C 171.639 1.57984 1.40015 0
M  V30 1791 O 170.987 0.857361 2.11806 0
M  V30 1792 C 171.197 3.47655 -0.306132 0
M  V30 1793 C 172.545 4.24114 -0.203008 0
M  V30 1794 O 173.569 3.55405 -0.237871 0
M  V30 1795 O 172.428 5.46381 -0.113827 0
M  V30 1796 H 169.522 0.826797 0.0183332 0
M  V30 1797 H 172.068 1.54122 -0.710251 0
M  V30 1798 H 170.84 3.68 -1.3301 0
M  V30 1799 H 170.463 3.95949 0.361991 0
M  V30 1800 N 171.46 0.379036 1.52974 0
M  V30 1801 C 172.706 -0.206727 2.01744 0
M  V30 1802 C 173.039 -1.47314 1.26539 0
M  V30 1803 O 172.314 -1.91084 0.362903 0
M  V30 1804 C 172.597 -0.485066 3.56818 0
M  V30 1805 C 172.45 0.795919 4.42702 0
M  V30 1806 C 173.769 -1.28003 4.21074 0
M  V30 1807 H 170.888 -0.0736607 0.73331 0
M  V30 1808 H 173.53 0.506581 1.83122 0
M  V30 1809 H 171.68 -1.09272 3.72816 0
M  V30 1810 H 173.352 1.43307 4.38476 0
M  V30 1811 H 171.595 1.41344 4.10127 0
M  V30 1812 H 172.266 0.555947 5.49193 0
M  V30 1813 H 174.742 -0.765867 4.08991 0
M  V30 1814 H 173.618 -1.44352 5.29579 0
M  V30 1815 H 173.879 -2.29236 3.78026 0
M  V30 1816 N 172.938 -1.57226 0.108567 0
M  V30 1817 C 174.166 -1.99179 -0.559954 0
M  V30 1818 C 174.581 -0.988022 -1.60884 0
M  V30 1819 O 173.938 0.0205512 -1.82488 0
M  V30 1820 C 173.989 -3.41159 -1.19552 0
M  V30 1821 O 173.71 -4.37694 -0.188577 0
M  V30 1822 C 175.211 -3.98188 -1.94837 0
M  V30 1823 H 172.431 -0.654228 -0.149088 0
M  V30 1824 H 174.975 -2.03598 0.19183 0
M  V30 1825 H 173.13 -3.37711 -1.89815 0
M  V30 1826 H 173.544 -5.20469 -0.649014 0
M  V30 1827 H 175.018 -4.99644 -2.34648 0
M  V30 1828 H 175.495 -3.3675 -2.81951 0
M  V30 1829 H 176.101 -4.0515 -1.2936 0
M  V30 1830 N 174.416 0.165178 -1.56732 0
M  V30 1831 C 175.662 0.882112 -1.82611 0
M  V30 1832 C 175.995 1.81628 -0.687378 0
M  V30 1833 O 175.27 1.92009 0.310267 0
M  V30 1834 C 175.553 1.67245 -3.18906 0
M  V30 1835 C 175.406 0.760987 -4.43316 0
M  V30 1836 C 176.725 2.63884 -3.52212 0
M  V30 1837 H 173.844 0.319242 -0.664269 0
M  V30 1838 H 176.486 0.148052 -1.89422 0
M  V30 1839 H 174.636 2.29824 -3.1323 0
M  V30 1840 H 176.308 0.147596 -4.61064 0
M  V30 1841 H 174.551 0.0694102 -4.33744 0
M  V30 1842 H 175.222 1.34962 -5.35247 0
M  V30 1843 H 177.698 2.11429 -3.58381 0
M  V30 1844 H 176.574 3.16245 -4.48643 0
M  V30 1845 H 176.835 3.44377 -2.77231 0
M  V30 1846 N 175.894 1.51508 0.433938 0
M  V30 1847 C 177.305 1.56784 1.01369 0
M  V30 1848 C 177.656 0.393349 1.92217 0
M  V30 1849 O 176.781 -0.489441 2.10792 0
M  V30 1850 C 177.376 2.84144 1.8452 0
M  V30 1851 C 175.935 2.9198 2.37539 0
M  V30 1852 C 175.082 2.51482 1.16843 0
M  V30 1853 H 178.033 1.57236 0.215081 0
M  V30 1854 H 178.054 2.68098 2.70007 0
M  V30 1855 H 177.566 3.69607 1.18373 0
M  V30 1856 H 175.667 2.10955 3.0713 0
M  V30 1857 H 175.78 3.95704 2.70103 0
M  V30 1858 H 174.144 2.04758 1.51481 0
M  V30 1859 H 174.927 3.39293 0.523015 0
M  V30 1860 N 177.372 -0.689602 1.41712 0
M  V30 1861 C 178.282 -1.83314 1.46401 0
M  V30 1862 C 179.298 -1.7036 0.35405 0
M  V30 1863 O 180.474 -1.92171 0.602692 0
M  V30 1864 C 177.539 -3.19344 1.34982 0
M  V30 1865 C 176.6 -3.44363 2.56344 0
M  V30 1866 C 175.833 -4.73904 2.45461 0
M  V30 1867 O 176.056 -5.508 1.48241 0
M  V30 1868 O 174.99 -4.99839 3.35328 0
M  V30 1869 H 178.816 -1.82314 2.42889 0
M  V30 1870 H 176.401 -0.843438 1.23315 0
M  V30 1871 H 178.283 -4.00547 1.3092 0
M  V30 1872 H 176.958 -3.21014 0.41612 0
M  V30 1873 H 175.865 -2.63067 2.65982 0
M  V30 1874 H 177.198 -3.47512 3.48563 0
M  V30 1875 N 178.85 -1.27639 -0.924453 0
M  V30 1876 C 179.78 -1.13166 -2.04244 0
M  V30 1877 C 180.761 -0.032256 -1.70069 0
M  V30 1878 O 181.946 -0.207328 -1.9309 0
M  V30 1879 C 179.076 -0.781496 -3.38393 0
M  V30 1880 C 178.03 -1.83449 -3.86692 0
M  V30 1881 C 177.356 -1.33822 -5.17683 0
M  V30 1882 C 178.656 -3.23917 -4.09726 0
M  V30 1883 H 180.35 -2.06689 -2.1661 0
M  V30 1884 H 177.896 -0.995136 -1.04082 0
M  V30 1885 H 179.849 -0.667057 -4.16087 0
M  V30 1886 H 178.573 0.189439 -3.2605 0
M  V30 1887 H 177.232 -1.93789 -3.11193 0
M  V30 1888 H 176.88 -0.35665 -5.01734 0
M  V30 1889 H 176.58 -2.04224 -5.50968 0
M  V30 1890 H 178.104 -1.23679 -5.97943 0
M  V30 1891 H 179.518 -3.16559 -4.77978 0
M  V30 1892 H 177.915 -3.92059 -4.54324 0
M  V30 1893 H 178.985 -3.68729 -3.14908 0
M  V30 1894 N 180.328 1.1314 -1.09713 0
M  V30 1895 C 181.744 1.36477 -0.827423 0
M  V30 1896 C 181.944 1.93654 0.556817 0
M  V30 1897 O 181 2.15791 1.31112 0
M  V30 1898 C 182.313 2.31334 -1.92106 0
M  V30 1899 C 183.861 2.44943 -1.94864 0
M  V30 1900 C 184.336 3.4311 -3.0338 0
M  V30 1901 N 185.827 3.50662 -3.02639 0
M  V30 1902 C 186.562 4.2651 -3.83246 0
M  V30 1903 N 186.058 5.05485 -4.73768 0
M  V30 1904 N 187.851 4.2184 -3.71493 0
M  V30 1905 H 180.002 0.743807 -1.9895 0
M  V30 1906 H 182.265 0.389823 -0.864143 0
M  V30 1907 H 181.971 1.96483 -2.91698 0
M  V30 1908 H 181.845 3.31381 -1.80184 0
M  V30 1909 H 184.232 2.79079 -0.959099 0
M  V30 1910 H 184.313 1.4481 -2.10864 0
M  V30 1911 H 183.957 3.09704 -4.02549 0
M  V30 1912 H 183.887 4.43055 -2.84622 0
M  V30 1913 H 186.378 2.94315 -2.37039 0
M  V30 1914 H 186.691 5.60675 -5.3185 0
M  V30 1915 H 185.036 5.04708 -4.77802 0
M  V30 1916 H 188.227 3.5922 -3.00131 0
M  V30 1917 H 188.4 4.80697 -4.3455 0
M  V30 1918 N 181.806 0.884767 1.30421 0
M  V30 1919 C 182.716 0.355398 2.31892 0
M  V30 1920 C 183.732 -0.542261 1.65335 0
M  V30 1921 O 184.908 -0.435432 1.96637 0
M  V30 1922 C 181.973 -0.421661 3.44126 0
M  V30 1923 C 181.034 0.505727 4.26311 0
M  V30 1924 C 180.267 -0.234343 5.33185 0
M  V30 1925 O 180.49 -1.46045 5.51386 0
M  V30 1926 O 179.424 0.415443 6.00465 0
M  V30 1927 H 183.25 1.19685 2.79122 0
M  V30 1928 H 180.835 0.648596 1.34587 0
M  V30 1929 H 182.717 -0.861641 4.12497 0
M  V30 1930 H 181.392 -1.23942 2.99032 0
M  V30 1931 H 180.299 0.994513 3.60639 0
M  V30 1932 H 181.632 1.28948 4.75009 0
M  V30 1933 N 183.284 -1.43765 0.645699 0
M  V30 1934 C 184.247 -2.29163 -0.0409488 0
M  V30 1935 C 185.247 -1.41813 -0.757996 0
M  V30 1936 O 186.437 -1.63527 -0.600382 0
M  V30 1937 C 183.569 -3.23716 -1.06869 0
M  V30 1938 H 184.762 -2.91366 0.710345 0
M  V30 1939 H 182.315 -1.5092 0.406547 0
M  V30 1940 H 183.05 -2.66393 -1.84947 0
M  V30 1941 H 182.835 -3.88105 -0.558277 0
M  V30 1942 H 184.325 -3.87831 -1.54845 0
M  V30 1943 N 184.763 -0.387143 -1.52771 0
M  V30 1944 C 185.993 0.195585 -2.05672 0
M  V30 1945 C 186.401 1.41241 -1.25887 0
M  V30 1946 O 185.744 1.81265 -0.298081 0
M  V30 1947 C 185.806 0.632327 -3.53895 0
M  V30 1948 C 185.47 -0.470739 -4.54569 0
M  V30 1949 C 186.467 -1.32746 -5.02667 0
M  V30 1950 C 184.152 -0.637151 -4.98243 0
M  V30 1951 C 186.146 -2.33574 -5.93061 0
M  V30 1952 C 183.833 -1.64877 -5.88438 0
M  V30 1953 C 184.831 -2.49649 -6.35739 0
M  V30 1954 O 184.519 -3.49082 -7.24153 0
M  V30 1955 H 184.251 0.033658 -0.675162 0
M  V30 1956 H 186.805 -0.550221 -1.97893 0
M  V30 1957 H 185.035 1.43008 -3.59285 0
M  V30 1958 H 186.724 1.14048 -3.89548 0
M  V30 1959 H 187.49 -1.21019 -4.69659 0
M  V30 1960 H 183.369 0.0129567 -4.60998 0
M  V30 1961 H 186.913 -2.99777 -6.29904 0
M  V30 1962 H 182.81 -1.76643 -6.2086 0
M  V30 1963 H 183.578 -3.45065 -7.42208 0
M  V30 1964 N 186.241 1.57166 -0.116904 0
M  V30 1965 C 187.191 2.11756 0.845178 0
M  V30 1966 C 188.175 1.03783 1.22955 0
M  V30 1967 O 189.367 1.3002 1.20099 0
M  V30 1968 C 186.496 2.71886 2.09602 0
M  V30 1969 C 185.582 3.86937 1.7361 0
M  V30 1970 N 185.973 4.94073 1.08284 0
M  V30 1971 C 184.271 3.97082 2.03082 0
M  V30 1972 C 184.972 5.74477 0.913855 0
M  V30 1973 N 183.948 5.2423 1.43818 0
M  V30 1974 H 187.75 2.91967 0.336523 0
M  V30 1975 H 185.264 1.62174 0.0856332 0
M  V30 1976 H 187.261 3.09338 2.79492 0
M  V30 1977 H 185.921 1.93138 2.61013 0
M  V30 1978 H 186.932 5.12483 0.747067 0
M  V30 1979 H 183.609 3.29372 2.56554 0
M  V30 1980 H 184.999 6.70701 0.40125 0
M  V30 1981 N 187.719 -0.156864 1.56817 0
M  V30 1982 C 188.682 -1.17781 1.96622 0
M  V30 1983 C 189.682 -1.36401 0.851555 0
M  V30 1984 O 190.872 -1.33561 1.11836 0
M  V30 1985 C 188.004 -2.54008 2.27361 0
M  V30 1986 H 189.197 -0.836564 2.87996 0
M  V30 1987 H 186.75 -0.39985 1.51099 0
M  V30 1988 H 187.485 -2.9312 1.38748 0
M  V30 1989 H 187.27 -2.41856 3.08623 0
M  V30 1990 H 188.76 -3.27558 2.59029 0
M  V30 1991 N 189.197 -1.51736 -0.425897 0
M  V30 1992 C 190.443 -1.65214 -1.1761 0
M  V30 1993 C 190.776 -0.372778 -1.90589 0
M  V30 1994 O 190.051 0.628139 -1.84078 0
M  V30 1995 C 190.334 -2.86312 -2.18398 0
M  V30 1996 C 190.187 -4.24254 -1.49426 0
M  V30 1997 C 191.506 -3.02925 -3.19256 0
M  V30 1998 H 188.625 -0.601263 -0.426206 0
M  V30 1999 H 191.267 -1.8425 -0.463882 0
M  V30 2000 H 189.417 -2.70213 -2.79137 0
M  V30 2001 H 191.089 -4.52046 -0.919362 0
M  V30 2002 H 189.332 -4.26426 -0.796432 0
M  V30 2003 H 190.003 -5.05001 -2.22885 0
M  V30 2004 H 192.479 -3.1781 -2.68581 0
M  V30 2005 H 191.355 -3.89199 -3.8706 0
M  V30 2006 H 191.616 -2.15497 -3.86023 0
M  V30 2007 N 190.675 0.682077 -1.42076 0
M  V30 2008 C 191.921 1.44428 -1.42367 0
M  V30 2009 C 192.254 1.94164 -0.0373056 0
M  V30 2010 O 191.529 1.70429 0.937239 0
M  V30 2011 C 191.812 2.64654 -2.44194 0
M  V30 2012 C 191.665 2.20596 -3.91991 0
M  V30 2013 C 192.984 3.66865 -2.431 0
M  V30 2014 H 190.103 0.523834 -0.518428 0
M  V30 2015 H 192.745 0.77576 -1.73442 0
M  V30 2016 H 190.895 3.2169 -2.17826 0
M  V30 2017 H 192.567 1.68783 -4.29313 0
M  V30 2018 H 190.81 1.52242 -4.06208 0
M  V30 2019 H 191.481 3.06921 -4.58807 0
M  V30 2020 H 193.957 3.19531 -2.66532 0
M  V30 2021 H 192.833 4.48577 -3.16339 0
M  V30 2022 H 193.094 4.17493 -1.45437 0
M  V30 2023 N 192.153 1.28127 0.917671 0
M  V30 2024 C 193.083 1.14248 2.03641 0
M  V30 2025 C 194.064 0.0412748 1.7005 0
M  V30 2026 O 195.249 0.217566 1.92977 0
M  V30 2027 C 192.379 0.799431 3.37974 0
M  V30 2028 C 191.333 1.85497 3.85713 0
M  V30 2029 C 190.659 1.36565 5.16966 0
M  V30 2030 C 191.959 3.26085 4.08002 0
M  V30 2031 H 193.653 2.07835 2.15511 0
M  V30 2032 H 191.199 1.00064 1.03553 0
M  V30 2033 H 193.152 0.689114 4.15727 0
M  V30 2034 H 191.876 -0.172145 3.26146 0
M  V30 2035 H 190.535 1.95437 3.10161 0
M  V30 2036 H 190.183 0.383253 5.01538 0
M  V30 2037 H 189.883 2.07143 5.49878 0
M  V30 2038 H 191.407 1.26848 5.97279 0
M  V30 2039 H 192.821 3.19089 4.76293 0
M  V30 2040 H 191.218 3.94462 4.52238 0
M  V30 2041 H 192.288 3.70394 3.12948 0
M  V30 2042 N 193.631 -1.12557 1.10312 0
M  V30 2043 C 194.856 -1.88405 0.867085 0
M  V30 2044 C 195.281 -1.79038 -0.576817 0
M  V30 2045 O 194.639 -1.14439 -1.40618 0
M  V30 2046 C 194.687 -3.3563 1.31851 0
M  V30 2047 O 193.791 -4.09565 0.482734 0
M  V30 2048 H 193.132 -0.585455 0.313271 0
M  V30 2049 H 195.662 -1.42352 1.4696 0
M  V30 2050 H 195.672 -3.86469 1.3079 0
M  V30 2051 H 194.347 -3.41765 2.37001 0
M  V30 2052 H 192.924 -3.68695 0.558448 0
M  V30 2053 N 195.109 -0.891671 -1.2995 0
M  V30 2054 C 196.339 -0.527893 -1.99742 0
M  V30 2055 C 196.747 0.88979 -1.66971 0
M  V30 2056 O 196.09 1.59766 -0.906667 0
M  V30 2057 C 196.152 -0.630804 -3.53922 0
M  V30 2058 C 195.816 -2.01401 -4.10228 0
M  V30 2059 C 196.813 -2.98422 -4.25724 0
M  V30 2060 C 194.498 -2.32121 -4.45449 0
M  V30 2061 C 196.492 -4.24293 -4.75662 0
M  V30 2062 C 194.179 -3.58237 -4.95086 0
M  V30 2063 C 195.177 -4.54137 -5.10146 0
M  V30 2064 O 194.865 -5.78014 -5.58708 0
M  V30 2065 H 194.597 -0.201953 -0.645129 0
M  V30 2066 H 197.151 -1.20076 -1.66646 0
M  V30 2067 H 195.381 0.0990616 -3.86573 0
M  V30 2068 H 197.07 -0.277338 -4.04951 0
M  V30 2069 H 197.836 -2.76001 -3.98809 0
M  V30 2070 H 193.715 -1.5824 -4.32991 0
M  V30 2071 H 197.259 -4.99153 -4.87332 0
M  V30 2072 H 193.156 -3.80491 -5.21437 0
M  V30 2073 H 193.924 -5.8049 -5.77039 0
M  V30 2074 N 196.587 1.43421 -0.653314 0
M  V30 2075 C 197.835 2.01414 -0.166415 0
M  V30 2076 C 198.156 1.51803 1.22397 0
M  V30 2077 O 197.426 0.730693 1.81763 0
M  V30 2078 H 196.006 0.744703 -0.0585319 0
M  V30 2079 H 198.668 1.75629 -0.845003 0
M  V30 2080 H 197.764 3.11734 -0.151111 0
M  V30 2081 N 198.065 0.39524 1.52563 0
M  V30 2082 C 199.028 -0.425001 2.25225 0
M  V30 2083 C 200.028 -0.985266 1.27079 0
M  V30 2084 O 201.218 -0.866332 1.5113 0
M  V30 2085 C 198.35 -1.59686 3.01186 0
M  V30 2086 H 199.543 0.211233 2.99155 0
M  V30 2087 H 197.096 0.147472 1.55603 0
M  V30 2088 H 197.831 -2.27035 2.31572 0
M  V30 2089 H 197.616 -1.20176 3.73229 0
M  V30 2090 H 199.106 -2.17743 3.5634 0
M  V30 2091 N 199.544 -1.57102 0.125237 0
M  V30 2092 C 200.454 -2.19191 -0.8362 0
M  V30 2093 C 201.47 -1.16985 -1.28805 0
M  V30 2094 O 202.646 -1.49479 -1.34974 0
M  V30 2095 C 199.711 -2.78407 -2.06617 0
M  V30 2096 C 198.772 -3.9567 -1.66565 0
M  V30 2097 C 198.005 -4.52052 -2.83698 0
M  V30 2098 O 198.228 -4.07326 -3.99302 0
M  V30 2099 O 197.162 -5.42645 -2.60423 0
M  V30 2100 H 200.988 -3.01816 -0.337776 0
M  V30 2101 H 198.573 -1.4906 -0.100695 0
M  V30 2102 H 200.455 -3.16129 -2.7864 0
M  V30 2103 H 199.13 -1.9881 -2.55453 0
M  V30 2104 H 198.037 -3.62705 -0.916296 0
M  V30 2105 H 199.37 -4.76722 -1.22464 0
M  V30 2106 N 201.022 0.148545 -1.56898 0
M  V30 2107 C 202.299 0.890019 -1.74178 0
M  V30 2108 C 202.679 1.99407 -0.692839 0
M  V30 2109 O 202.027 2.26671 0.288505 0
M  V30 2110 C 202.237 1.43389 -3.18183 0
M  V30 2111 C 203.585 1.89791 -3.79822 0
M  V30 2112 O 204.609 1.53134 -3.21603 0
M  V30 2113 O 203.468 2.57387 -4.82093 0
M  V30 2114 H 200.562 0.420496 -0.712118 0
M  V30 2115 H 203.108 0.134591 -1.69165 0
M  V30 2116 H 201.88 0.640383 -3.86024 0
M  V30 2117 H 201.503 2.25287 -3.27615 0
M  V30 2118 N 202.5 1.5196 0.417844 0
M  V30 2119 C 203.45 1.7106 1.5074 0
M  V30 2120 C 204.434 0.564487 1.50673 0
M  V30 2121 O 205.626 0.821206 1.56797 0
M  V30 2122 C 202.755 1.85677 2.88754 0
M  V30 2123 C 201.841 3.06133 2.93502 0
M  V30 2124 N 202.232 4.28987 2.67962 0
M  V30 2125 C 200.53 3.05787 3.24669 0
M  V30 2126 C 201.231 5.10395 2.79055 0
M  V30 2127 N 200.207 4.45455 3.11561 0
M  V30 2128 H 204.009 2.63696 1.29775 0
M  V30 2129 H 201.523 1.49873 0.625436 0
M  V30 2130 H 203.52 1.97475 3.67164 0
M  V30 2131 H 202.18 0.942348 3.10725 0
M  V30 2132 H 203.191 4.57607 2.4252 0
M  V30 2133 H 199.868 2.2405 3.52289 0
M  V30 2134 H 201.258 6.18247 2.63097 0
M  V30 2135 N 203.978 -0.674533 1.42435 0
M  V30 2136 C 205.394 -0.98769 1.25367 0
M  V30 2137 C 205.594 -2.00879 0.158044 0
M  V30 2138 O 204.65 -2.48075 -0.470633 0
M  V30 2139 C 205.963 -1.49224 2.6106 0
M  V30 2140 C 207.511 -1.61 2.68417 0
M  V30 2141 C 207.986 -2.14852 4.04478 0
M  V30 2142 N 209.477 -2.22185 4.06434 0
M  V30 2143 C 210.212 -2.64928 5.08528 0
M  V30 2144 N 209.708 -3.07121 6.21006 0
M  V30 2145 N 211.501 -2.64679 4.95885 0
M  V30 2146 H 203.652 0.00152503 2.124 0
M  V30 2147 H 205.915 -0.0618434 0.945981 0
M  V30 2148 H 205.621 -0.816453 3.42092 0
M  V30 2149 H 205.495 -2.47094 2.84999 0
M  V30 2150 H 207.882 -2.27686 1.87732 0
M  V30 2151 H 207.963 -0.616195 2.48267 0
M  V30 2152 H 207.607 -1.48775 4.85622 0
M  V30 2153 H 207.537 -3.15024 4.2198 0
M  V30 2154 H 210.028 -1.92435 3.25234 0
M  V30 2155 H 210.341 -3.38423 6.94759 0
M  V30 2156 H 208.686 -3.04978 6.24511 0
M  V30 2157 H 211.877 -2.31078 4.07088 0
M  V30 2158 H 212.05 -2.9767 5.75584 0
M  V30 2159 N 205.456 -1.28612 -0.910864 0
M  V30 2160 C 206.419 -1.12803 -1.9952 0
M  V30 2161 C 207.419 -0.0668264 -1.60661 0
M  V30 2162 O 208.609 -0.312847 -1.71368 0
M  V30 2163 C 205.741 -0.72254 -3.33155 0
M  V30 2164 H 206.934 -2.09109 -2.14973 0
M  V30 2165 H 204.487 -1.11639 -1.09391 0
M  V30 2166 H 205.222 0.241152 -3.23402 0
M  V30 2167 H 205.007 -1.48916 -3.62721 0
M  V30 2168 H 206.497 -0.634666 -4.12749 0
M  V30 2169 N 206.934 1.1197 -1.10907 0
M  V30 2170 C 207.864 2.19928 -0.784473 0
M  V30 2171 C 208.845 1.6833 0.244726 0
M  V30 2172 O 210.03 1.93892 0.109418 0
M  V30 2173 C 207.16 3.46597 -0.220827 0
M  V30 2174 C 206.114 4.11376 -1.18127 0
M  V30 2175 C 205.44 5.32554 -0.478594 0
M  V30 2176 C 206.74 4.56945 -2.52979 0
M  V30 2177 H 208.434 2.47337 -1.68715 0
M  V30 2178 H 205.98 1.18879 -0.812642 0
M  V30 2179 H 207.933 4.21396 0.0184278 0
M  V30 2180 H 206.657 3.1863 0.717113 0
M  V30 2181 H 205.316 3.38564 -1.40606 0
M  V30 2182 H 204.964 5.00856 0.463976 0
M  V30 2183 H 204.664 5.76844 -1.11912 0
M  V30 2184 H 206.188 6.10096 -0.248 0
M  V30 2185 H 207.602 5.23093 -2.3462 0
M  V30 2186 H 205.999 5.1203 -3.12962 0
M  V30 2187 H 207.069 3.70676 -3.12614 0
M  V30 2188 N 208.412 0.89855 1.29475 0
M  V30 2189 C 209.322 0.379974 2.31502 0
M  V30 2190 C 210.338 -0.524695 1.659 0
M  V30 2191 O 211.514 -0.414551 1.97087 0
M  V30 2192 C 208.579 -0.385138 3.44554 0
M  V30 2193 C 207.64 0.550914 4.2575 0
M  V30 2194 C 206.873 -0.177778 5.33404 0
M  V30 2195 O 207.096 -1.40189 5.52904 0
M  V30 2196 O 206.03 0.479106 5.9999 0
M  V30 2197 H 209.856 1.22639 2.77837 0
M  V30 2198 H 207.441 0.662834 1.33891 0
M  V30 2199 H 209.323 -0.817841 4.13388 0
M  V30 2200 H 207.998 -1.20763 3.0033 0
M  V30 2201 H 206.905 1.03271 3.59564 0
M  V30 2202 H 208.238 1.33979 4.73614 0
M  V30 2203 N 209.89 -1.43072 0.660911 0
M  V30 2204 C 211.139 -2.00942 0.174735 0
M  V30 2205 C 211.452 -1.52797 -1.22117 0
M  V30 2206 O 212.658 -2.02991 -1.80297 0
M  V30 2207 C 211.114 -3.58948 0.261559 0
M  V30 2208 C 210.722 -4.16085 1.66064 0
M  V30 2209 C 212.466 -4.24173 -0.166617 0
M  V30 2210 C 210.373 -5.6641 1.70098 0
M  V30 2211 H 209.303 -0.751483 0.0615631 0
M  V30 2212 H 211.954 -1.63955 0.824069 0
M  V30 2213 H 210.336 -3.93372 -0.455421 0
M  V30 2214 H 211.51 -3.93147 2.40359 0
M  V30 2215 H 209.825 -3.6326 2.03546 0
M  V30 2216 H 212.422 -5.34471 -0.156433 0
M  V30 2217 H 212.765 -3.98647 -1.19943 0
M  V30 2218 H 213.298 -3.94659 0.498875 0
M  V30 2219 H 210.037 -5.96715 2.71315 0
M  V30 2220 H 209.557 -5.91382 1.00139 0
M  V30 2221 H 211.236 -6.30585 1.44816 0
M  V30 2222 N 211.368 -0.403325 -1.52352 0
M  V30 2223 C 212.779 0.0675782 -1.86578 0
M  V30 2224 C 213.13 1.44941 -1.32236 0
M  V30 2225 O 212.255 2.06112 -0.659307 0
M  V30 2226 C 212.85 0.129404 -3.38553 0
M  V30 2227 C 211.409 0.544629 -3.72439 0
M  V30 2228 C 210.556 -0.284551 -2.75836 0
M  V30 2229 H 213.507 -0.620631 -1.46061 0
M  V30 2230 H 213.528 0.94581 -3.68558 0
M  V30 2231 H 213.04 -0.87645 -3.78074 0
M  V30 2232 H 211.141 1.55734 -3.38493 0
M  V30 2233 H 211.254 0.293046 -4.78203 0
M  V30 2234 H 209.618 0.252258 -2.53448 0
M  V30 2235 H 210.401 -1.28865 -3.18196 0
M  V30 2236 N 212.846 1.57033 -0.133567 0
M  V30 2237 C 214.094 1.953 0.519848 0
M  V30 2238 C 214.415 1.01866 1.66278 0
M  V30 2239 O 213.685 0.0776513 1.95746 0
M  V30 2240 H 212.265 0.721091 0.195032 0
M  V30 2241 H 214.927 1.93809 -0.205921 0
M  V30 2242 H 214.023 2.98695 0.904854 0
M  V30 2243 N 214.325 -0.140222 1.56975 0
M  V30 2244 C 215.235 -1.19223 2.02047 0
M  V30 2245 C 216.251 -1.46612 0.937062 0
M  V30 2246 O 217.427 -1.58148 1.24704 0
M  V30 2247 C 214.492 -2.50414 2.39778 0
M  V30 2248 C 213.553 -2.30612 3.621 0
M  V30 2249 C 212.786 -3.55547 3.98023 0
M  V30 2250 O 213.009 -4.62004 3.34528 0
M  V30 2251 O 211.943 -3.47808 4.91237 0
M  V30 2252 H 215.769 -0.839559 2.91865 0
M  V30 2253 H 213.354 -0.349453 1.45256 0
M  V30 2254 H 215.236 -3.27747 2.64877 0
M  V30 2255 H 213.911 -2.85198 1.53114 0
M  V30 2256 H 212.818 -1.51207 3.4218 0
M  V30 2257 H 214.151 -2.00741 4.49404 0
M  V30 2258 N 215.803 -1.52179 -0.40978 0
M  V30 2259 C 216.713 -1.78364 -1.52392 0
M  V30 2260 C 217.729 -0.669183 -1.60617 0
M  V30 2261 O 218.905 -0.954518 -1.77344 0
M  V30 2262 C 215.97 -1.92822 -2.88133 0
M  V30 2263 C 215.031 -3.16725 -2.898 0
M  V30 2264 C 214.264 -3.30483 -4.19067 0
M  V30 2265 O 214.487 -2.49522 -5.12928 0
M  V30 2266 O 213.421 -4.2363 -4.27576 0
M  V30 2267 H 217.247 -2.72931 -1.33201 0
M  V30 2268 H 214.832 -1.37016 -0.59557 0
M  V30 2269 H 216.714 -2.04157 -3.68643 0
M  V30 2270 H 215.389 -1.01444 -3.07393 0
M  V30 2271 H 214.296 -3.10848 -2.08146 0
M  V30 2272 H 215.629 -4.07881 -2.75489 0
M  V30 2273 N 217.281 0.66697 -1.42791 0
M  V30 2274 C 218.211 1.79218 -1.49677 0
M  V30 2275 C 219.192 1.66405 -0.352623 0
M  V30 2276 O 220.377 1.85708 -0.567993 0
M  V30 2277 C 217.507 3.17565 -1.40605 0
M  V30 2278 C 216.461 3.45124 -2.53127 0
M  V30 2279 C 215.787 4.83127 -2.29112 0
M  V30 2280 C 217.087 3.41236 -3.95418 0
M  V30 2281 H 218.781 1.73713 -2.43853 0
M  V30 2282 H 216.327 0.83432 -1.17367 0
M  V30 2283 H 218.28 3.96022 -1.44029 0
M  V30 2284 H 217.004 3.23767 -0.429271 0
M  V30 2285 H 215.663 2.69031 -2.49034 0
M  V30 2286 H 215.311 4.85988 -1.29709 0
M  V30 2287 H 215.011 5.02528 -3.04531 0
M  V30 2288 H 216.535 5.63859 -2.34297 0
M  V30 2289 H 217.949 4.09651 -4.01073 0
M  V30 2290 H 216.346 3.72173 -4.70752 0
M  V30 2291 H 217.416 2.39665 -4.21532 0
M  V30 2292 N 218.759 1.29093 0.90403 0
M  V30 2293 C 220.17 1.15186 1.46932 0
M  V30 2294 C 220.521 -0.254587 1.94541 0
M  V30 2295 O 219.646 -1.14972 1.83332 0
M  V30 2296 C 220.241 2.08492 2.67051 0
M  V30 2297 C 218.8 1.98621 3.19729 0
M  V30 2298 C 217.947 1.9967 1.92425 0
M  V30 2299 H 220.898 1.41641 0.715789 0
M  V30 2300 H 220.919 1.65461 3.42641 0
M  V30 2301 H 220.431 3.10847 2.3237 0
M  V30 2302 H 218.532 0.993389 3.59114 0
M  V30 2303 H 218.645 2.86068 3.8432 0
M  V30 2304 H 217.009 1.44208 2.09943 0
M  V30 2305 H 217.792 3.03721 1.60026 0
M  V30 2306 N 220.237 -1.11381 1.11499 0
M  V30 2307 C 221.485 -1.8277 0.862524 0
M  V30 2308 C 221.806 -1.85097 -0.613534 0
M  V30 2309 O 221.076 -1.32198 -1.4457 0
M  V30 2310 H 219.656 -0.676823 0.316101 0
M  V30 2311 H 222.318 -1.34816 1.4075 0
M  V30 2312 H 221.414 -2.86614 1.23527 0
M  V30 2313 N 221.715 -0.905404 -1.28997 0
M  V30 2314 C 222.961 -0.535039 -1.95615 0
M  V30 2315 C 223.294 0.917404 -1.71165 0
M  V30 2316 O 222.569 1.65123 -1.02785 0
M  V30 2317 C 222.852 -0.834918 -3.50287 0
M  V30 2318 C 222.705 -2.33948 -3.84172 0
M  V30 2319 C 224.024 -0.325318 -4.38896 0
M  V30 2320 H 221.143 -0.195861 -0.710498 0
M  V30 2321 H 223.785 -1.13313 -1.52513 0
M  V30 2322 H 221.935 -0.325904 -3.87131 0
M  V30 2323 H 223.607 -2.91847 -3.57243 0
M  V30 2324 H 221.85 -2.79789 -3.31513 0
M  V30 2325 H 222.521 -2.49987 -4.92149 0
M  V30 2326 H 224.997 -0.761256 -4.09077 0
M  V30 2327 H 223.873 -0.564295 -5.45992 0
M  V30 2328 H 224.134 0.774144 -4.35269 0
M  V30 2329 N 223.193 1.4272 -0.668489 0
M  V30 2330 C 224.433 2.03497 -0.19194 0
M  V30 2331 C 224.797 1.51684 1.17712 0
M  V30 2332 O 225.998 2.04205 1.74796 0
M  V30 2333 C 224.269 3.56734 -0.218032 0
M  V30 2334 S 225.828 4.38395 0.188438 0
M  V30 2335 H 222.646 0.706542 -0.0794959 0
M  V30 2336 H 225.248 1.74563 -0.880235 0
M  V30 2337 H 223.952 3.91943 -1.2169 0
M  V30 2338 H 223.483 3.90333 0.490303 0
M  V30 2339 H 225.498 4.75345 1.42345 0
M  V30 2340 N 224.671 0.411399 1.52136 0
M  V30 2341 C 225.896 -0.165538 2.06738 0
M  V30 2342 C 226.321 -1.379 1.27926 0
M  V30 2343 O 225.679 -1.78628 0.310114 0
M  V30 2344 C 225.727 -0.492124 3.57226 0
M  V30 2345 O 224.831 -1.58276 3.80818 0
M  V30 2346 H 224.172 -0.0132132 0.663869 0
M  V30 2347 H 226.702 0.585253 1.96051 0
M  V30 2348 H 226.712 -0.750104 4.01045 0
M  V30 2349 H 225.387 0.394922 4.14021 0
M  V30 2350 H 223.964 -1.31677 3.48877 0
M  V30 2351 N 226.149 -1.5696 0.141893 0
M  V30 2352 C 227.112 -2.15316 -0.785587 0
M  V30 2353 C 228.112 -1.09366 -1.1788 0
M  V30 2354 O 229.302 -1.35031 -1.10056 0
M  V30 2355 C 226.434 -2.71211 -2.06537 0
M  V30 2356 H 227.627 -2.98608 -0.278041 0
M  V30 2357 H 225.18 -1.5593 -0.107519 0
M  V30 2358 H 225.915 -1.91571 -2.6167 0
M  V30 2359 H 225.7 -3.4872 -1.79268 0
M  V30 2360 H 227.19 -3.16189 -2.72789 0
M  V30 2361 N 227.627 0.131896 -1.57047 0
M  V30 2362 C 229.043 0.485031 -1.52051 0
M  V30 2363 C 229.243 1.82563 -0.85281 0
M  V30 2364 O 228.299 2.48817 -0.429694 0
M  V30 2365 C 229.612 0.481409 -2.96821 0
M  V30 2366 C 231.16 0.565868 -3.07842 0
M  V30 2367 C 231.635 0.592762 -4.54148 0
M  V30 2368 N 233.126 0.654564 -4.58552 0
M  V30 2369 C 233.861 0.696608 -5.69153 0
M  V30 2370 N 233.357 0.697078 -6.89284 0
M  V30 2371 N 235.15 0.738639 -5.57226 0
M  V30 2372 H 227.301 -0.746664 -1.98843 0
M  V30 2373 H 229.564 -0.273999 -0.90754 0
M  V30 2374 H 229.27 -0.435731 -3.4899 0
M  V30 2375 H 229.144 1.3139 -3.53577 0
M  V30 2376 H 231.531 1.47343 -2.55684 0
M  V30 2377 H 231.612 -0.29406 -2.54104 0
M  V30 2378 H 231.256 -0.310701 -5.06949 0
M  V30 2379 H 231.186 1.46939 -5.05684 0
M  V30 2380 H 233.677 0.660887 -3.72076 0
M  V30 2381 H 233.99 0.731426 -7.69331 0
M  V30 2382 H 232.335 0.66471 -6.91814 0
M  V30 2383 H 235.526 0.735545 -4.62285 0
M  V30 2384 H 235.699 0.767938 -6.43434 0
M  V30 2385 N 229.106 1.52395 0.401703 0
M  V30 2386 C 230.069 1.75636 1.47257 0
M  V30 2387 C 231.069 0.62628 1.48103 0
M  V30 2388 O 232.259 0.894227 1.49497 0
M  V30 2389 C 229.391 1.84553 2.86624 0
M  V30 2390 H 230.584 2.71241 1.27938 0
M  V30 2391 H 228.137 1.42923 0.632662 0
M  V30 2392 H 228.872 0.908882 3.11303 0
M  V30 2393 H 228.657 2.66715 2.87412 0
M  V30 2394 H 230.147 2.04251 3.64241 0
M  V30 2395 N 230.584 -0.659388 1.43143 0
M  V30 2396 C 231.831 -1.41935 1.44433 0
M  V30 2397 C 232.159 -1.94387 0.0663522 0
M  V30 2398 O 231.414 -1.72314 -0.927706 0
M  V30 2399 C 231.713 -2.62206 2.42864 0
M  V30 2400 C 231.379 -2.28208 3.88886 0
M  V30 2401 C 230.041 -2.18647 4.28657 0
M  V30 2402 C 232.393 -2.00887 4.8093 0
M  V30 2403 C 229.721 -1.79914 5.58433 0
M  V30 2404 C 232.073 -1.63653 6.11065 0
M  V30 2405 C 230.737 -1.52614 6.49819 0
M  V30 2406 H 230.007 -0.519376 0.528517 0
M  V30 2407 H 232.654 -0.750453 1.76183 0
M  V30 2408 H 230.959 -3.34199 2.04495 0
M  V30 2409 H 232.656 -3.2041 2.41119 0
M  V30 2410 H 229.246 -2.36557 3.57406 0
M  V30 2411 H 233.43 -2.07198 4.5098 0
M  V30 2412 H 228.686 -1.69948 5.87305 0
M  V30 2413 H 232.86 -1.41543 6.81864 0
M  V30 2414 H 230.487 -1.22371 7.50286 0
M  V30 2415 N 232.062 -1.29571 -0.897171 0
M  V30 2416 C 233.308 -1.17863 -1.65034 0
M  V30 2417 C 233.641 0.268729 -1.92332 0
M  V30 2418 O 232.916 1.19378 -1.53555 0
M  V30 2419 C 233.199 -1.995 -2.99786 0
M  V30 2420 C 233.052 -3.5239 -2.79538 0
M  V30 2421 C 234.371 -1.82335 -4.00552 0
M  V30 2422 H 231.49 -0.429528 -0.598895 0
M  V30 2423 H 234.132 -1.59072 -1.03905 0
M  V30 2424 H 232.282 -1.64485 -3.51962 0
M  V30 2425 H 233.954 -3.97401 -2.34244 0
M  V30 2426 H 232.197 -3.77187 -2.14273 0
M  V30 2427 H 232.868 -4.04787 -3.75302 0
M  V30 2428 H 235.344 -2.12924 -3.57495 0
M  V30 2429 H 234.22 -2.41801 -4.92771 0
M  V30 2430 H 234.481 -0.779209 -4.35179 0
M  V30 2431 N 233.54 1.10788 -1.12088 0
M  V30 2432 C 234.788 1.8231 -0.872205 0
M  V30 2433 C 235.109 1.85419 0.603709 0
M  V30 2434 O 234.379 1.32963 1.43867 0
M  V30 2435 H 232.959 0.675137 -0.319686 0
M  V30 2436 H 235.621 1.34068 -1.41463 0
M  V30 2437 H 234.717 2.85955 -1.25045 0
M  V30 2438 N 235.018 0.912232 1.28515 0
M  V30 2439 C 236.264 0.554851 1.95686 0
M  V30 2440 C 236.619 -0.89138 1.70506 0
M  V30 2441 O 235.912 -1.62529 1.01464 0
M  V30 2442 C 236.106 0.798392 3.48368 0
M  V30 2443 C 235.935 2.26674 3.88393 0
M  V30 2444 C 234.705 2.91657 4.12631 0
M  V30 2445 C 236.903 3.24303 3.99164 0
M  V30 2446 N 234.885 4.28805 4.39317 0
M  V30 2447 C 236.256 4.4661 4.30046 0
M  V30 2448 C 238.311 3.19723 3.81683 0
M  V30 2449 C 237.014 5.64915 4.45268 0
M  V30 2450 C 239.04 4.37325 3.98121 0
M  V30 2451 C 238.402 5.58406 4.29375 0
M  V30 2452 H 234.501 0.252876 0.739985 0
M  V30 2453 H 237.085 1.17565 1.55199 0
M  V30 2454 H 235.256 0.20688 3.87849 0
M  V30 2455 H 236.988 0.405193 4.02666 0
M  V30 2456 H 233.743 2.42393 4.06869 0
M  V30 2457 H 234.167 4.99712 4.56746 0
M  V30 2458 H 238.809 2.27191 3.56573 0
M  V30 2459 H 236.527 6.57927 4.6921 0
M  V30 2460 H 240.113 4.35282 3.86033 0
M  V30 2461 H 238.993 6.47889 4.41825 0
M  V30 2462 N 236.496 -1.42363 0.676048 0
M  V30 2463 C 237.726 -2.05561 0.206967 0
M  V30 2464 C 238.134 -1.50887 -1.14148 0
M  V30 2465 O 237.477 -0.643933 -1.72044 0
M  V30 2466 C 237.539 -3.5944 0.0659508 0
M  V30 2467 C 237.203 -4.36812 1.34331 0
M  V30 2468 C 238.2 -4.67383 2.27704 0
M  V30 2469 C 235.885 -4.76429 1.59125 0
M  V30 2470 C 237.879 -5.36509 3.44147 0
M  V30 2471 C 235.566 -5.45294 2.75857 0
M  V30 2472 C 236.564 -5.75259 3.68193 0
M  V30 2473 O 236.252 -6.42712 4.82883 0
M  V30 2474 H 235.984 -0.668872 0.0979084 0
M  V30 2475 H 238.538 -1.83467 0.923531 0
M  V30 2476 H 236.768 -3.80197 -0.706204 0
M  V30 2477 H 238.457 -4.0427 -0.363418 0
M  V30 2478 H 239.223 -4.37275 2.09799 0
M  V30 2479 H 235.102 -4.52498 0.881258 0
M  V30 2480 H 238.646 -5.59814 4.16238 0
M  V30 2481 H 234.543 -5.7482 2.93688 0
M  V30 2482 H 235.311 -6.61204 4.82444 0
M  V30 2483 N 237.974 -0.419461 -1.51915 0
M  V30 2484 C 238.922 0.415502 -2.28859 0
M  V30 2485 C 239.916 1.03674 -1.3397 0
M  V30 2486 O 241.122 0.973757 -1.51387 0
M  V30 2487 H 237.497 0.152786 -0.736315 0
M  V30 2488 H 239.468 -0.254531 -2.97312 0
M  V30 2489 C 238.217 1.51425 -3.12995 0
M  V30 2490 H 237.54 1.04556 -3.85886 0
M  V30 2491 H 238.98 2.07208 -3.6992 0
M  V30 2492 C 237.439 2.48745 -2.27217 0
M  V30 2493 O 237.969 3.52871 -1.9195 0
M  V30 2494 N 236.175 2.19202 -1.90785 0
M  V30 2495 H 235.722 1.34556 -2.19664 0
M  V30 2496 H 235.68 2.84561 -1.33687 0
M  V30 2497 N 239.452 1.56882 -0.150215 0
M  V30 2498 C 240.7 1.9584 0.499105 0
M  V30 2499 C 241.021 1.03623 1.65188 0
M  V30 2500 O 240.291 0.0984084 1.95653 0
M  V30 2501 H 238.871 0.723119 0.187373 0
M  V30 2502 H 241.533 1.9358 -0.226466 0
M  V30 2503 H 240.629 2.99638 0.873122 0
M  V30 2504 N 240.93 -0.123565 1.57115 0
M  V30 2505 C 241.86 -1.15309 2.03042 0
M  V30 2506 C 242.841 -1.43454 0.914061 0
M  V30 2507 O 244.026 -1.53973 1.18347 0
M  V30 2508 C 241.156 -2.48043 2.43089 0
M  V30 2509 C 240.11 -2.3437 3.58127 0
M  V30 2510 C 239.436 -3.72026 3.84059 0
M  V30 2511 C 240.736 -1.80804 4.90007 0
M  V30 2512 H 242.43 -0.771102 2.893 0
M  V30 2513 H 239.976 -0.369479 1.39179 0
M  V30 2514 H 241.929 -3.20311 2.73823 0
M  V30 2515 H 240.653 -2.88122 1.53796 0
M  V30 2516 H 239.312 -1.64551 3.27595 0
M  V30 2517 H 238.96 -4.09582 2.91979 0
M  V30 2518 H 238.66 -3.63732 4.6149 0
M  V30 2519 H 240.184 -4.45806 4.1724 0
M  V30 2520 H 241.598 -2.42886 5.19307 0
M  V30 2521 H 239.995 -1.83343 5.71407 0
M  V30 2522 H 241.065 -0.76528 4.78823 0
M  V30 2523 N 242.408 -1.52605 -0.393616 0
M  V30 2524 C 243.819 -1.59417 -0.971761 0
M  V30 2525 C 244.17 -0.444173 -1.91106 0
M  V30 2526 O 243.295 0.433382 -2.12016 0
M  V30 2527 C 243.89 -2.88936 -1.76921 0
M  V30 2528 C 242.449 -2.98175 -2.29714 0
M  V30 2529 C 241.596 -2.54491 -1.10135 0
M  V30 2530 H 244.547 -1.57751 -0.173317 0
M  V30 2531 H 244.568 -2.75163 -2.62804 0
M  V30 2532 H 244.08 -3.72616 -1.08532 0
M  V30 2533 H 242.181 -2.19024 -3.01429 0
M  V30 2534 H 242.294 -4.02726 -2.59517 0
M  V30 2535 H 240.658 -2.08702 -1.45999 0
M  V30 2536 H 241.441 -3.4056 -0.432874 0
M  V30 2537 N 243.887 0.651787 -1.4349 0
M  V30 2538 C 244.797 1.79368 -1.5121 0
M  V30 2539 C 245.813 1.69361 -0.399093 0
M  V30 2540 O 246.989 1.90505 -0.653431 0
M  V30 2541 C 244.054 3.15653 -1.43401 0
M  V30 2542 C 243.115 3.37446 -2.65384 0
M  V30 2543 C 242.348 4.67229 -2.57939 0
M  V30 2544 O 242.571 5.46676 -1.62792 0
M  V30 2545 O 241.505 4.90773 -3.48462 0
M  V30 2546 H 245.331 1.7581 -2.47638 0
M  V30 2547 H 242.916 0.810447 -1.25507 0
M  V30 2548 H 244.798 3.96935 -1.41494 0
M  V30 2549 H 243.473 3.19798 -0.501085 0
M  V30 2550 H 242.38 2.55923 -2.72863 0
M  V30 2551 H 243.713 3.38148 -3.57654 0
M  V30 2552 N 245.365 1.30045 0.890287 0
M  V30 2553 C 246.313 1.15873 2.01683 0
M  V30 2554 C 247.307 0.0719403 1.69247 0
M  V30 2555 O 248.513 0.232414 1.78493 0
M  V30 2556 H 244.888 0.358203 0.661207 0
M  V30 2557 H 246.859 2.11229 2.10772 0
M  V30 2558 C 245.608 0.861842 3.36849 0
M  V30 2559 H 244.931 1.69016 3.62317 0
M  V30 2560 H 246.371 0.802762 4.16331 0
M  V30 2561 C 244.83 -0.435132 3.34078 0
M  V30 2562 O 245.36 -1.4583 3.74295 0
M  V30 2563 N 243.566 -0.444377 2.87182 0
M  V30 2564 H 243.113 0.388723 2.5465 0
M  V30 2565 H 243.071 -1.31213 2.85711 0
M  V30 2566 N 246.843 -1.10192 1.12674 0
M  V30 2567 C 247.775 -2.16418 0.754701 0
M  V30 2568 C 248.788 -1.61309 -0.21986 0
M  V30 2569 O 249.977 -1.785 -0.000826841 0
M  V30 2570 C 247.077 -3.38762 0.096698 0
M  V30 2571 C 246.25 -4.23307 1.10136 0
M  V30 2572 C 245.309 -5.24092 0.470513 0
M  V30 2573 O 244.335 -5.57906 1.12824 0
M  V30 2574 N 245.537 -5.75491 -0.760948 0
M  V30 2575 H 248.302 -2.48943 1.66875 0
M  V30 2576 H 245.863 -1.25834 1.01869 0
M  V30 2577 H 247.855 -4.03291 -0.337384 0
M  V30 2578 H 246.425 -3.04192 -0.720153 0
M  V30 2579 H 245.645 -3.55036 1.71299 0
M  V30 2580 H 246.933 -4.76624 1.78064 0
M  V30 2581 H 246.331 -5.50222 -1.31424 0
M  V30 2582 H 244.888 -6.41792 -1.13781 0
M  V30 2583 N 248.321 -0.919034 -1.28029 0
M  V30 2584 C 249.231 -0.416756 -2.30869 0
M  V30 2585 C 250.247 0.498235 -1.66714 0
M  V30 2586 O 251.423 0.383144 -1.97722 0
M  V30 2587 C 248.488 0.330274 -3.45123 0
M  V30 2588 C 247.549 -0.618578 -4.2482 0
M  V30 2589 C 246.782 0.0928959 -5.33619 0
M  V30 2590 O 247.005 1.31375 -5.55065 0
M  V30 2591 O 245.939 -0.574499 -5.99152 0
M  V30 2592 H 249.765 -1.27043 -2.75851 0
M  V30 2593 H 247.35 -0.684052 -1.3282 0
M  V30 2594 H 249.232 0.751972 -4.14636 0
M  V30 2595 H 247.907 1.1597 -3.02213 0
M  V30 2596 H 246.814 -1.08978 -3.57875 0
M  V30 2597 H 248.147 -1.41497 -4.71423 0
M  V30 2598 N 249.799 1.42003 -0.683588 0
M  V30 2599 C 250.729 2.33487 -0.024866 0
M  V30 2600 C 251.71 1.51163 0.779975 0
M  V30 2601 O 252.895 1.79739 0.735362 0
M  V30 2602 C 250.025 3.3487 0.920836 0
M  V30 2603 C 248.979 4.27414 0.223958 0
M  V30 2604 C 248.305 5.19074 1.2832 0
M  V30 2605 C 249.605 5.14445 -0.90242 0
M  V30 2606 H 251.299 2.88819 -0.788921 0
M  V30 2607 H 248.845 1.38873 -0.38083 0
M  V30 2608 H 250.798 3.97787 1.39081 0
M  V30 2609 H 249.522 2.77861 1.71642 0
M  V30 2610 H 248.181 3.65904 -0.225864 0
M  V30 2611 H 247.829 4.58387 2.071 0
M  V30 2612 H 247.529 5.81822 0.821995 0
M  V30 2613 H 249.053 5.84867 1.75392 0
M  V30 2614 H 250.467 5.70998 -0.513272 0
M  V30 2615 H 248.864 5.86072 -1.28997 0
M  V30 2616 H 249.934 4.52322 -1.74737 0
M  V30 2617 N 251.277 0.427512 1.51691 0
M  V30 2618 C 252.187 -0.39527 2.31246 0
M  V30 2619 C 253.203 -1.03674 1.39742 0
M  V30 2620 O 254.379 -1.03425 1.72816 0
M  V30 2621 C 251.444 -1.48706 3.13189 0
M  V30 2622 C 250.505 -0.866743 4.20459 0
M  V30 2623 C 249.738 -1.90651 4.98486 0
M  V30 2624 O 249.961 -3.12733 4.77026 0
M  V30 2625 O 248.895 -1.5025 5.82845 0
M  V30 2626 H 252.721 0.253918 3.02637 0
M  V30 2627 H 250.306 0.190274 1.48183 0
M  V30 2628 H 252.188 -2.12047 3.64162 0
M  V30 2629 H 250.863 -2.12051 2.44573 0
M  V30 2630 H 249.77 -0.195544 3.73589 0
M  V30 2631 H 251.103 -0.276934 4.9142 0
M  V30 2632 N 252.755 -1.56801 0.158532 0
M  V30 2633 C 254.166 -1.83189 -0.360366 0
M  V30 2634 C 254.517 -1.07778 -1.63946 0
M  V30 2635 O 253.642 -0.326718 -2.13919 0
M  V30 2636 C 254.237 -3.32297 -0.660595 0
M  V30 2637 C 252.796 -3.59227 -1.12398 0
M  V30 2638 C 251.943 -2.76877 -0.153097 0
M  V30 2639 H 254.894 -1.54008 0.383031 0
M  V30 2640 H 254.915 -3.4908 -1.51405 0
M  V30 2641 H 254.427 -3.87156 0.270527 0
M  V30 2642 H 252.528 -3.09766 -2.07064 0
M  V30 2643 H 252.641 -4.67632 -1.04197 0
M  V30 2644 H 251.005 -2.46319 -0.647983 0
M  V30 2645 H 251.788 -3.34511 0.77182 0
M  V30 2646 N 254.233 0.115231 -1.57178 0
M  V30 2647 C 255.51 0.852873 -1.76027 0
M  V30 2648 C 255.89 1.97892 -0.73498 0
M  V30 2649 O 255.238 2.27232 0.24036 0
M  V30 2650 C 255.448 1.36608 -3.21153 0
M  V30 2651 C 256.796 1.81692 -3.83762 0
M  V30 2652 O 257.82 1.46278 -3.24779 0
M  V30 2653 O 256.679 2.47104 -4.87444 0
M  V30 2654 H 253.773 0.405296 -0.720877 0
M  V30 2655 H 256.319 0.0986785 -1.69413 0
M  V30 2656 H 255.091 0.558357 -3.87296 0
M  V30 2657 H 254.714 2.18287 -3.3232 0
M  V30 2658 N 255.711 1.52812 0.385517 0
M  V30 2659 C 256.641 1.80808 1.47752 0
M  V30 2660 C 257.622 0.660318 1.5676 0
M  V30 2661 O 258.807 0.908246 1.71652 0
M  V30 2662 C 255.937 1.98008 2.85324 0
M  V30 2663 C 254.891 3.13709 2.91154 0
M  V30 2664 C 254.217 3.16169 4.31209 0
M  V30 2665 C 255.517 4.52709 2.60483 0
M  V30 2666 H 257.211 2.72253 1.24573 0
M  V30 2667 H 254.757 1.31003 0.597839 0
M  V30 2668 H 256.71 2.16176 3.61726 0
M  V30 2669 H 255.434 1.03255 3.09848 0
M  V30 2670 H 254.093 2.95329 2.17201 0
M  V30 2671 H 253.741 2.19092 4.52778 0
M  V30 2672 H 253.441 3.93894 4.36029 0
M  V30 2673 H 254.965 3.36496 5.09512 0
M  V30 2674 H 256.379 4.71173 3.26602 0
M  V30 2675 H 254.776 5.32528 2.76648 0
M  V30 2676 H 255.846 4.59186 1.55809 0
M  V30 2677 N 257.189 -0.644168 1.43834 0
M  V30 2678 C 258.414 -1.43642 1.49605 0
M  V30 2679 C 258.839 -1.8773 0.117913 0
M  V30 2680 O 258.197 -1.57938 -0.890239 0
M  V30 2681 C 258.245 -2.6416 2.45463 0
M  V30 2682 O 257.349 -3.63538 1.94714 0
M  V30 2683 H 256.69 -0.430329 0.50568 0
M  V30 2684 H 259.22 -0.787448 1.8884 0
M  V30 2685 H 259.23 -3.11864 2.63068 0
M  V30 2686 H 257.905 -2.31414 3.45572 0
M  V30 2687 H 256.482 -3.2273 1.86814 0
M  V30 2688 N 258.668 -1.30515 -0.883378 0
M  V30 2689 C 259.908 -1.20716 -1.64946 0
M  V30 2690 C 260.272 0.234072 -1.90568 0
M  V30 2691 O 261.473 0.455335 -2.64915 0
M  V30 2692 C 259.744 -2.01444 -2.9522 0
M  V30 2693 S 261.303 -2.0836 -3.86175 0
M  V30 2694 H 258.121 -0.430165 -0.566109 0
M  V30 2695 H 260.723 -1.65011 -1.04841 0
M  V30 2696 H 259.427 -3.05268 -2.74298 0
M  V30 2697 H 258.958 -1.57817 -3.60357 0
M  V30 2698 H 260.973 -1.21215 -4.81167 0
M  V30 2699 N 260.146 1.09593 -1.13257 0
M  V30 2700 C 261.423 1.78293 -0.804432 0
M  V30 2701 C 261.803 1.99004 0.70431 0
M  V30 2702 O 261.151 1.59007 1.641 0
M  V30 2703 C 261.361 3.10707 -1.5894 0
M  V30 2704 C 262.709 3.85443 -1.78099 0
M  V30 2705 O 263.733 3.20454 -1.55525 0
M  V30 2706 O 262.592 5.02108 -2.15753 0
M  V30 2707 H 259.686 0.773156 -0.293528 0
M  V30 2708 H 262.232 1.16164 -1.23709 0
M  V30 2709 H 261.004 2.91106 -2.61482 0
M  V30 2710 H 260.627 3.80558 -1.15157 0
M  V30 2711 N 261.624 0.925811 1.2754 0
M  V30 2712 C 262.852 0.581509 1.9856 0
M  V30 2713 C 263.267 -0.840041 1.69082 0
M  V30 2714 O 262.624 -1.55805 0.950312 0
M  V30 2715 C 262.675 0.795589 3.52637 0
M  V30 2716 O 262.396 2.16121 3.81082 0
M  V30 2717 C 263.897 0.459744 4.4091 0
M  V30 2718 H 261.117 0.220538 0.633722 0
M  V30 2719 H 263.661 1.24232 1.6244 0
M  V30 2720 H 261.816 0.18161 3.86974 0
M  V30 2721 H 262.23 2.2098 4.75676 0
M  V30 2722 H 263.704 0.660244 5.48037 0
M  V30 2723 H 264.181 -0.604625 4.35018 0
M  V30 2724 H 264.787 1.05178 4.12089 0
M  V30 2725 N 263.102 -1.41638 0.69111 0
M  V30 2726 C 264.065 -2.29178 0.0319786 0
M  V30 2727 C 265.065 -1.44153 -0.712496 0
M  V30 2728 O 266.255 -1.65354 -0.548053 0
M  V30 2729 C 263.387 -3.26952 -0.965161 0
M  V30 2730 H 264.58 -2.88959 0.802681 0
M  V30 2731 H 262.133 -1.4955 0.454356 0
M  V30 2732 H 262.868 -2.72142 -1.76378 0
M  V30 2733 H 262.653 -3.89685 -0.434522 0
M  V30 2734 H 264.143 -3.92561 -1.42428 0
M  V30 2735 N 264.58 -0.43555 -1.51462 0
M  V30 2736 C 265.826 0.131709 -2.02372 0
M  V30 2737 C 266.159 1.42516 -1.3192 0
M  V30 2738 O 265.434 1.89606 -0.433573 0
M  V30 2739 C 265.717 0.352301 -3.58373 0
M  V30 2740 C 265.57 -0.959676 -4.39443 0
M  V30 2741 C 266.889 1.12286 -4.25535 0
M  V30 2742 H 264.008 0.0463936 -0.735538 0
M  V30 2743 H 266.65 -0.574197 -1.81116 0
M  V30 2744 H 264.8 0.9536 -3.76615 0
M  V30 2745 H 266.472 -1.59482 -4.32855 0
M  V30 2746 H 264.715 -1.56468 -4.04599 0
M  V30 2747 H 265.386 -0.759394 -5.46752 0
M  V30 2748 H 267.862 0.613545 -4.11552 0
M  V30 2749 H 266.738 1.24598 -5.34571 0
M  V30 2750 H 266.999 2.15048 -3.86273 0
M  V30 2751 N 266.058 1.56714 -0.166846 0
M  V30 2752 C 267.307 1.95922 0.479318 0
M  V30 2753 C 267.62 1.05529 1.6469 0
M  V30 2754 O 268.826 1.34399 2.35901 0
M  V30 2755 C 267.282 3.48359 0.90412 0
M  V30 2756 C 266.89 4.47369 -0.237621 0
M  V30 2757 C 268.634 3.96394 1.51896 0
M  V30 2758 C 266.541 5.91039 0.206561 0
M  V30 2759 H 265.471 0.731495 0.18284 0
M  V30 2760 H 268.122 1.81728 -0.254363 0
M  V30 2761 H 266.504 3.57955 1.69365 0
M  V30 2762 H 267.678 4.49485 -1.01489 0
M  V30 2763 H 265.993 4.09366 -0.762128 0
M  V30 2764 H 268.59 5.01186 1.86325 0
M  V30 2765 H 268.933 3.39075 2.41524 0
M  V30 2766 H 269.466 3.89796 0.79395 0
M  V30 2767 H 266.205 6.52221 -0.654834 0
M  V30 2768 H 265.725 5.9224 0.949282 0
M  V30 2769 H 267.404 6.43707 0.651939 0
M  V30 2770 N 267.536 -0.106894 1.57237 0
M  V30 2771 C 268.466 -1.13148 2.04254 0
M  V30 2772 C 269.447 -1.42476 0.929224 0
M  V30 2773 O 270.632 -1.52709 1.19973 0
M  V30 2774 C 267.762 -2.4545 2.45706 0
M  V30 2775 C 266.716 -2.30558 3.60592 0
M  V30 2776 C 266.042 -3.67931 3.87983 0
M  V30 2777 C 267.342 -1.75597 4.91897 0
M  V30 2778 H 269.036 -0.740374 2.90101 0
M  V30 2779 H 266.582 -0.354696 1.39563 0
M  V30 2780 H 268.535 -3.17389 2.77205 0
M  V30 2781 H 267.259 -2.86475 1.56843 0
M  V30 2782 H 265.918 -1.61067 3.29322 0
M  V30 2783 H 265.566 -4.06462 2.96306 0
M  V30 2784 H 265.266 -3.58817 4.65322 0
M  V30 2785 H 266.79 -4.41356 4.21945 0
M  V30 2786 H 268.204 -2.37364 5.21854 0
M  V30 2787 H 266.601 -1.77272 5.73319 0
M  V30 2788 H 267.671 -0.714451 4.79608 0
M  V30 2789 N 269.014 -1.53014 -0.377408 0
M  V30 2790 C 270.262 -1.6829 -1.11906 0
M  V30 2791 C 270.583 -0.431206 -1.90173 0
M  V30 2792 O 269.853 0.554595 -1.87886 0
M  V30 2793 H 268.433 -0.620371 -0.416112 0
M  V30 2794 H 271.095 -1.90167 -0.426893 0
M  V30 2795 H 270.191 -2.53862 -1.8155 0
M  V30 2796 N 270.492 0.636531 -1.44174 0
M  V30 2797 C 271.424 1.7618 -1.46606 0
M  V30 2798 C 272.437 1.58768 -0.360091 0
M  V30 2799 O 273.626 1.67181 -0.625518 0
M  V30 2800 C 270.726 3.13833 -1.27915 0
M  V30 2801 C 269.899 3.57753 -2.51658 0
M  V30 2802 C 268.958 4.74265 -2.27945 0
M  V30 2803 O 267.984 4.82852 -3.01401 0
M  V30 2804 N 269.186 5.65604 -1.30662 0
M  V30 2805 H 271.951 1.74567 -2.43612 0
M  V30 2806 H 269.512 0.820924 -1.39544 0
M  V30 2807 H 271.504 3.8949 -1.09907 0
M  V30 2808 H 270.074 3.10121 -0.39293 0
M  V30 2809 H 269.294 2.72362 -2.84978 0
M  V30 2810 H 270.582 3.83847 -3.33974 0
M  V30 2811 H 269.98 5.61354 -0.699844 0
M  V30 2812 H 268.537 6.40913 -1.18634 0
M  V30 2813 N 271.97 1.30982 0.876444 0
M  V30 2814 C 273.218 1.20058 1.62575 0
M  V30 2815 C 273.539 -0.242947 1.93481 0
M  V30 2816 O 272.809 -1.1619 1.57724 0
M  V30 2817 H 271.389 0.44135 0.602677 0
M  V30 2818 H 274.051 1.64222 1.04962 0
M  V30 2819 H 273.147 1.76762 2.57219 0
M  V30 2820 N 273.449 -1.08991 1.13837 0
M  V30 2821 C 274.397 -2.17841 0.815347 0
M  V30 2822 C 275.391 -1.68164 -0.204233 0
M  V30 2823 O 276.597 -1.79897 -0.0609304 0
M  V30 2824 H 272.972 -0.710654 0.245915 0
M  V30 2825 H 274.943 -2.42315 1.74143 0
M  V30 2826 C 273.692 -3.46381 0.302614 0
M  V30 2827 H 273.015 -3.84979 1.0785 0
M  V30 2828 H 274.455 -4.23844 0.115074 0
M  V30 2829 C 272.914 -3.22556 -0.972591 0
M  V30 2830 O 273.444 -3.45599 -2.04754 0
M  V30 2831 N 271.65 -2.76134 -0.905455 0
M  V30 2832 H 271.197 -2.57582 -0.0305421 0
M  V30 2833 H 271.155 -2.60571 -1.75926 0
M  V30 2834 N 274.927 -0.932562 -1.27047 0
M  V30 2835 C 276.173 -0.576412 -1.94436 0
M  V30 2836 C 276.506 0.880891 -1.73072 0
M  V30 2837 O 275.781 1.62905 -1.06264 0
M  V30 2838 C 276.064 -0.909031 -3.48437 0
M  V30 2839 C 275.917 -2.42044 -3.79123 0
M  V30 2840 C 277.236 -0.418341 -4.38107 0
M  V30 2841 H 274.355 -0.210888 -0.706184 0
M  V30 2842 H 276.997 -1.16522 -1.50075 0
M  V30 2843 H 275.147 -0.407947 -3.86352 0
M  V30 2844 H 276.819 -2.99359 -3.50973 0
M  V30 2845 H 275.062 -2.86758 -3.25503 0
M  V30 2846 H 275.733 -2.6037 -4.86736 0
M  V30 2847 H 278.209 -0.847856 -4.0737 0
M  V30 2848 H 277.085 -0.679981 -5.44672 0
M  V30 2849 H 277.346 0.681642 -4.36814 0
M  V30 2850 N 276.405 1.4127 -0.698611 0
M  V30 2851 C 277.368 2.29158 -0.044132 0
M  V30 2852 C 278.368 1.44529 0.704841 0
M  V30 2853 O 279.558 1.65643 0.539276 0
M  V30 2854 C 276.69 3.27459 0.947809 0
M  V30 2855 H 277.883 2.88529 -0.817994 0
M  V30 2856 H 275.436 1.49307 -0.46228 0
M  V30 2857 H 276.171 2.73073 1.74933 0
M  V30 2858 H 275.956 3.8991 0.41385 0
M  V30 2859 H 277.446 3.93311 1.40344 0
M  V30 2860 N 277.883 0.443576 1.51229 0
M  V30 2861 C 278.813 -0.355142 2.30783 0
M  V30 2862 C 279.794 -1.0154 1.36468 0
M  V30 2863 O 280.979 -1.01785 1.65389 0
M  V30 2864 C 278.109 -1.45312 3.15439 0
M  V30 2865 C 277.063 -0.916002 4.18083 0
M  V30 2866 C 276.389 -2.1102 4.91299 0
M  V30 2867 C 277.689 0.0538602 5.22272 0
M  V30 2868 H 279.383 0.308767 2.97804 0
M  V30 2869 H 276.929 0.149937 1.43217 0
M  V30 2870 H 278.882 -2.01914 3.69876 0
M  V30 2871 H 277.606 -2.14541 2.46252 0
M  V30 2872 H 276.265 -0.372145 3.64706 0
M  V30 2873 H 275.913 -2.78882 4.18609 0
M  V30 2874 H 275.613 -1.75717 5.60712 0
M  V30 2875 H 277.137 -2.68164 5.48562 0
M  V30 2876 H 278.551 -0.422069 5.71744 0
M  V30 2877 H 276.948 0.319776 5.99247 0
M  V30 2878 H 278.018 0.98858 4.74716 0
M  V30 2879 N 279.361 -1.56624 0.175154 0
M  V30 2880 C 280.638 -1.88688 -0.515373 0
M  V30 2881 C 281.018 -1.08564 -1.81044 0
M  V30 2882 O 280.366 -0.180703 -2.27784 0
M  V30 2883 C 280.576 -3.40768 -0.753552 0
M  V30 2884 C 281.924 -4.10587 -1.08184 0
M  V30 2885 O 282.948 -3.46106 -0.841961 0
M  V30 2886 O 281.807 -5.24512 -1.53459 0
M  V30 2887 H 278.901 -0.78301 -0.26613 0
M  V30 2888 H 281.447 -1.68347 0.213877 0
M  V30 2889 H 280.219 -3.90965 0.161829 0
M  V30 2890 H 279.842 -3.66733 -1.53598 0
M  V30 2891 N 280.839 0.0985539 -1.57292 0
M  V30 2892 C 282.085 0.803867 -1.86188 0
M  V30 2893 C 282.418 1.78549 -0.763794 0
M  V30 2894 O 281.693 1.93153 0.22855 0
M  V30 2895 C 281.976 1.53568 -3.25713 0
M  V30 2896 C 281.829 0.572277 -4.46145 0
M  V30 2897 C 283.148 2.48708 -3.63087 0
M  V30 2898 H 280.267 0.290781 -0.677211 0
M  V30 2899 H 282.909 0.0675783 -1.8988 0
M  V30 2900 H 281.059 2.16332 -3.22696 0
M  V30 2901 H 282.731 -0.0480894 -4.61275 0
M  V30 2902 H 280.974 -0.114618 -4.33649 0
M  V30 2903 H 281.645 1.12139 -5.40489 0
M  V30 2904 H 284.121 1.96039 -3.67026 0
M  V30 2905 H 282.997 2.96932 -4.61652 0
M  V30 2906 H 283.258 3.32309 -2.91588 0
M  V30 2907 N 282.317 1.53212 0.369288 0
M  V30 2908 C 283.28 1.7872 1.43498 0
M  V30 2909 C 284.28 0.657554 1.46741 0
M  V30 2910 O 285.47 0.925736 1.47566 0
M  V30 2911 C 282.602 1.90591 2.82645 0
M  V30 2912 H 283.795 2.73894 1.22156 0
M  V30 2913 H 281.348 1.44233 0.602203 0
M  V30 2914 H 282.083 0.974709 3.09306 0
M  V30 2915 H 281.868 2.72751 2.8169 0
M  V30 2916 H 283.358 2.11931 3.59826 0
M  V30 2917 N 283.795 -0.628877 1.44509 0
M  V30 2918 C 285.211 -0.947305 1.28446 0
M  V30 2919 C 285.411 -2.00275 0.221872 0
M  V30 2920 O 284.467 -2.49447 -0.391471 0
M  V30 2921 C 285.78 -1.40843 2.65676 0
M  V30 2922 C 287.328 -1.52379 2.73404 0
M  V30 2923 C 287.803 -2.01875 4.11109 0
M  V30 2924 N 289.294 -2.09142 4.13296 0
M  V30 2925 C 290.029 -2.48615 5.16699 0
M  V30 2926 N 289.525 -2.87209 6.30462 0
M  V30 2927 N 291.318 -2.48768 5.04054 0
M  V30 2928 H 283.469 0.0690977 2.12288 0
M  V30 2929 H 285.732 -0.0317164 0.947469 0
M  V30 2930 H 285.438 -0.707206 3.44516 0
M  V30 2931 H 285.312 -2.37902 2.92716 0
M  V30 2932 H 287.699 -2.21598 1.9488 0
M  V30 2933 H 287.78 -0.536898 2.50102 0
M  V30 2934 H 287.424 -1.3325 4.90109 0
M  V30 2935 H 287.354 -3.0144 4.31789 0
M  V30 2936 H 289.845 -1.81991 3.31191 0
M  V30 2937 H 290.158 -3.16149 7.05174 0
M  V30 2938 H 288.503 -2.84955 6.33897 0
M  V30 2939 H 291.694 -2.18009 4.14234 0
M  V30 2940 H 291.867 -2.79207 5.84763 0
M  V30 2941 N 285.273 -1.31445 -0.869486 0
M  V30 2942 C 286.522 -1.20517 -1.61736 0
M  V30 2943 C 286.835 0.235341 -1.94179 0
M  V30 2944 O 288.041 0.466312 -2.67465 0
M  V30 2945 C 286.497 -2.10982 -2.91573 0
M  V30 2946 C 286.105 -3.60032 -2.66611 0
M  V30 2947 C 287.849 -2.08856 -3.69567 0
M  V30 2948 C 285.756 -4.42503 -3.92358 0
M  V30 2949 H 284.686 -0.447493 -0.606849 0
M  V30 2950 H 287.337 -1.56303 -0.96133 0
M  V30 2951 H 285.719 -1.68095 -3.58553 0
M  V30 2952 H 286.893 -4.11167 -2.08035 0
M  V30 2953 H 285.208 -3.64139 -2.0197 0
M  V30 2954 H 287.805 -2.67716 -4.62852 0
M  V30 2955 H 288.148 -1.07582 -4.02159 0
M  V30 2956 H 288.681 -2.49945 -3.09471 0
M  V30 2957 H 285.42 -5.44533 -3.64916 0
M  V30 2958 H 284.94 -3.96125 -4.50383 0
M  V30 2959 H 286.619 -4.54741 -4.60238 0
M  V30 2960 N 286.751 1.08385 -1.14413 0
M  V30 2961 C 287.681 2.17321 -0.854044 0
M  V30 2962 C 288.662 1.69024 0.191049 0
M  V30 2963 O 289.847 1.94141 0.0476779 0
M  V30 2964 C 286.977 3.45719 -0.330983 0
M  V30 2965 C 285.931 4.07409 -1.31155 0
M  V30 2966 C 285.257 5.30762 -0.64778 0
M  V30 2967 C 286.557 4.48665 -2.67388 0
M  V30 2968 H 288.251 2.41845 -1.76498 0
M  V30 2969 H 285.797 1.16233 -0.850051 0
M  V30 2970 H 287.75 4.21241 -0.115645 0
M  V30 2971 H 286.474 3.2075 0.615381 0
M  V30 2972 H 285.133 3.33919 -1.51306 0
M  V30 2973 H 284.781 5.02078 0.304398 0
M  V30 2974 H 284.481 5.72992 -1.30207 0
M  V30 2975 H 286.005 6.08998 -0.441972 0
M  V30 2976 H 287.419 5.15364 -2.51143 0
M  V30 2977 H 285.816 5.01814 -3.29093 0
M  V30 2978 H 286.886 3.60543 -3.24248 0
M  V30 2979 N 288.23 0.939286 1.26551 0
M  V30 2980 C 289.16 0.465044 2.28822 0
M  V30 2981 C 290.141 -0.480692 1.63167 0
M  V30 2982 O 291.326 -0.382955 1.90387 0
M  V30 2983 C 288.456 -0.27234 3.46231 0
M  V30 2984 C 287.41 0.58666 4.2396 0
M  V30 2985 C 286.736 -0.280573 5.33963 0
M  V30 2986 C 288.036 1.85704 4.88171 0
M  V30 2987 H 289.73 1.31979 2.68741 0
M  V30 2988 H 287.276 0.636061 1.29191 0
M  V30 2989 H 289.229 -0.615133 4.16886 0
M  V30 2990 H 287.953 -1.16121 3.0526 0
M  V30 2991 H 286.612 0.91232 3.55067 0
M  V30 2992 H 286.26 -1.16874 4.89234 0
M  V30 2993 H 285.96 0.29076 5.8688 0
M  V30 2994 H 287.484 -0.618678 6.07458 0
M  V30 2995 H 288.898 1.58161 5.51052 0
M  V30 2996 H 287.295 2.37279 5.51197 0
M  V30 2997 H 288.365 2.56957 4.11219 0
M  V30 2998 N 289.708 -1.40897 0.706093 0
M  V30 2999 C 290.936 -2.05373 0.250887 0
M  V30 3000 C 291.351 -1.53172 -1.10381 0
M  V30 3001 O 290.708 -0.684305 -1.69185 0
M  V30 3002 C 290.759 -3.6088 0.211571 0
M  V30 3003 O 290.48 -4.11153 1.51276 0
M  V30 3004 C 291.981 -4.42517 -0.263346 0
M  V30 3005 H 289.201 -0.66115 0.114552 0
M  V30 3006 H 291.745 -1.80479 0.961635 0
M  V30 3007 H 289.9 -3.84777 -0.450073 0
M  V30 3008 H 290.314 -5.05279 1.40689 0
M  V30 3009 H 291.788 -5.51479 -0.239718 0
M  V30 3010 H 292.265 -4.19396 -1.30397 0
M  V30 3011 H 292.871 -4.23708 0.367677 0
M  V30 3012 N 291.186 -0.45159 -1.50991 0
M  V30 3013 C 292.597 0.00818571 -1.86698 0
M  V30 3014 C 292.948 1.40661 -1.3678 0
M  V30 3015 O 292.073 2.0391 -0.724546 0
M  V30 3016 C 292.668 0.0216303 -3.38793 0
M  V30 3017 C 291.227 0.425865 -3.73983 0
M  V30 3018 C 290.374 -0.372163 -2.74791 0
M  V30 3019 H 293.325 -0.666785 -1.44013 0
M  V30 3020 H 293.346 0.828078 -3.7138 0
M  V30 3021 H 292.858 -0.996288 -3.75094 0
M  V30 3022 H 290.959 1.44886 -3.43277 0
M  V30 3023 H 291.072 0.140761 -4.78893 0
M  V30 3024 H 289.436 0.171498 -2.54122 0
M  V30 3025 H 290.219 -1.38922 -3.13935 0
M  V30 3026 N 292.664 1.56529 -0.183458 0
M  V30 3027 C 294.075 1.83739 0.331177 0
M  V30 3028 C 294.426 1.10373 1.62211 0
M  V30 3029 O 293.551 0.36071 2.13373 0
M  V30 3030 C 294.146 3.33306 0.607646 0
M  V30 3031 C 292.705 3.60969 1.06668 0
M  V30 3032 C 291.852 2.77086 0.109029 0
M  V30 3033 H 294.803 1.53379 -0.407484 0
M  V30 3034 H 294.824 3.51444 1.45832 0
M  V30 3035 H 294.336 3.86677 -0.332086 0
M  V30 3036 H 292.437 3.13021 2.0211 0
M  V30 3037 H 292.55 4.69231 0.967447 0
M  V30 3038 H 290.914 2.47319 0.608714 0
M  V30 3039 H 291.697 3.33241 -0.82494 0
M  V30 3040 N 294.142 -0.090211 1.57342 0
M  V30 3041 C 295.052 -1.12735 2.05738 0
M  V30 3042 C 296.068 -1.43557 0.983231 0
M  V30 3043 O 297.244 -1.54101 1.29672 0
M  V30 3044 C 294.309 -2.42659 2.47624 0
M  V30 3045 C 293.37 -2.18975 3.69254 0
M  V30 3046 C 292.603 -3.42704 4.09133 0
M  V30 3047 O 292.826 -4.51127 3.49057 0
M  V30 3048 O 291.76 -3.32003 5.02053 0
M  V30 3049 H 295.586 -0.746279 2.94388 0
M  V30 3050 H 293.171 -0.303064 1.46294 0
M  V30 3051 H 295.053 -3.19155 2.7517 0
M  V30 3052 H 293.728 -2.80182 1.62109 0
M  V30 3053 H 292.635 -1.40244 3.46818 0
M  V30 3054 H 293.968 -1.86342 4.55563 0
M  V30 3055 N 295.62 -1.53406 -0.361157 0
M  V30 3056 C 296.57 -1.76536 -1.44287 0
M  V30 3057 C 297.554 -0.620019 -1.48474 0
M  V30 3058 O 298.746 -0.878834 -1.53641 0
M  V30 3059 C 295.875 -1.96266 -2.81664 0
M  V30 3060 C 294.961 -3.16815 -2.81938 0
M  V30 3061 N 295.352 -4.38637 -2.51855 0
M  V30 3062 C 293.65 -3.17627 -3.13096 0
M  V30 3063 C 294.351 -5.20401 -2.59919 0
M  V30 3064 N 293.327 -4.56712 -2.94814 0
M  V30 3065 H 297.129 -2.68331 -1.19899 0
M  V30 3066 H 294.643 -1.52091 -0.56938 0
M  V30 3067 H 296.64 -2.10966 -3.59582 0
M  V30 3068 H 295.3 -1.05702 -3.07013 0
M  V30 3069 H 296.311 -4.66293 -2.25369 0
M  V30 3070 H 292.988 -2.36971 -3.43731 0
M  V30 3071 H 294.378 -6.27586 -2.39969 0
M  V30 3072 N 297.098 0.621204 -1.44841 0
M  V30 3073 C 298.028 1.74366 -1.55303 0
M  V30 3074 C 299.009 1.65199 -0.405385 0
M  V30 3075 O 300.194 1.83807 -0.626787 0
M  V30 3076 C 297.324 3.12931 -1.50637 0
M  V30 3077 C 296.278 3.36896 -2.63979 0
M  V30 3078 C 295.604 4.75594 -2.44366 0
M  V30 3079 C 296.904 3.28483 -4.06074 0
M  V30 3080 H 298.598 1.65867 -2.49256 0
M  V30 3081 H 296.144 0.796558 -1.19962 0
M  V30 3082 H 298.097 3.9124 -1.56555 0
M  V30 3083 H 296.821 3.22237 -0.532057 0
M  V30 3084 H 295.48 2.60972 -2.57467 0
M  V30 3085 H 295.128 4.81616 -1.45105 0
M  V30 3086 H 294.828 4.92586 -3.20364 0
M  V30 3087 H 296.352 5.5612 -2.52117 0
M  V30 3088 H 297.766 3.96684 -4.13902 0
M  V30 3089 H 296.163 3.57008 -4.82354 0
M  V30 3090 H 297.233 2.26133 -4.28943 0
M  V30 3091 N 298.576 1.31904 0.862503 0
M  V30 3092 C 299.486 1.22161 2.00285 0
M  V30 3093 C 300.502 0.136785 1.73462 0
M  V30 3094 O 301.678 0.355994 1.98229 0
M  V30 3095 C 298.743 0.937093 3.33796 0
M  V30 3096 C 297.804 2.10957 3.73893 0
M  V30 3097 C 297.037 1.83853 5.01033 0
M  V30 3098 O 297.26 0.777274 5.65079 0
M  V30 3099 O 296.194 2.69741 5.38074 0
M  V30 3100 H 300.02 2.18008 2.11439 0
M  V30 3101 H 297.605 1.11716 0.991957 0
M  V30 3102 H 299.487 0.794583 4.13841 0
M  V30 3103 H 298.162 0.00871894 3.23699 0
M  V30 3104 H 297.069 2.30752 2.94456 0
M  V30 3105 H 298.402 3.02046 3.88625 0
M  V30 3106 N 300.054 -1.07777 1.14986 0
M  V30 3107 C 301.47 -1.32373 0.891596 0
M  V30 3108 C 301.67 -1.9609 -0.463788 0
M  V30 3109 O 300.726 -2.21801 -1.20667 0
M  V30 3110 C 302.039 -2.21905 2.02925 0
M  V30 3111 C 303.587 -2.35367 2.06329 0
M  V30 3112 C 304.062 -3.28245 3.19405 0
M  V30 3113 N 305.553 -3.35824 3.19024 0
M  V30 3114 C 306.288 -4.07739 4.03158 0
M  V30 3115 N 305.784 -4.82306 4.97346 0
M  V30 3116 N 307.577 -4.03635 3.91197 0
M  V30 3117 H 299.728 -0.648039 2.02273 0
M  V30 3118 H 301.991 -0.348149 0.881757 0
M  V30 3119 H 301.697 -1.82342 3.0074 0
M  V30 3120 H 301.571 -3.22407 1.95789 0
M  V30 3121 H 303.958 -2.74186 1.09116 0
M  V30 3122 H 304.039 -1.34585 2.17533 0
M  V30 3123 H 303.683 -2.90146 4.16867 0
M  V30 3124 H 303.613 -4.28971 3.05437 0
M  V30 3125 H 306.104 -2.8267 2.50811 0
M  V30 3126 H 306.417 -5.34661 5.57994 0
M  V30 3127 H 304.762 -4.81337 5.01338 0
M  V30 3128 H 307.953 -3.44491 3.16928 0
M  V30 3129 H 308.126 -4.59417 4.5699 0
M  V30 3130 N 301.532 -0.945985 -1.26051 0
M  V30 3131 C 302.76 -0.613025 -1.9761 0
M  V30 3132 C 303.175 0.813035 -1.70397 0
M  V30 3133 O 302.532 1.54274 -0.974979 0
M  V30 3134 C 302.583 -0.85159 -3.51326 0
M  V30 3135 O 302.304 -2.22157 -3.77595 0
M  V30 3136 C 303.805 -0.529831 -4.40122 0
M  V30 3137 H 301.025 -0.230593 -0.630133 0
M  V30 3138 H 303.569 -1.268 -1.60443 0
M  V30 3139 H 301.724 -0.243151 -3.86636 0
M  V30 3140 H 302.138 -2.2852 -4.721 0
M  V30 3141 H 303.612 -0.747348 -5.46917 0
M  V30 3142 H 304.089 0.535341 -4.35925 0
M  V30 3143 H 304.695 -1.11721 -4.10364 0
M  V30 3144 N 303.011 1.40521 -0.713556 0
M  V30 3145 C 304.288 1.94775 -0.17943 0
M  V30 3146 C 304.668 1.65184 1.31444 0
M  V30 3147 O 304.016 0.968429 2.06963 0
M  V30 3148 C 304.226 3.45543 -0.489986 0
M  V30 3149 C 305.574 4.22442 -0.427536 0
M  V30 3150 O 306.598 3.53644 -0.425929 0
M  V30 3151 O 305.457 5.4501 -0.403292 0
M  V30 3152 H 302.551 0.826606 -0.0255192 0
M  V30 3153 H 305.097 1.5014 -0.790949 0
M  V30 3154 H 303.869 3.60432 -1.5233 0
M  V30 3155 H 303.492 3.97311 0.151598 0
M  V30 3156 N 304.489 0.459591 1.5075 0
M  V30 3157 C 305.738 -0.100971 2.01447 0
M  V30 3158 C 306.051 -1.41816 1.34713 0
M  V30 3159 O 307.257 -2.06299 1.76502 0
M  V30 3160 C 305.713 -0.23047 3.59161 0
M  V30 3161 C 305.321 1.0776 4.34847 0
M  V30 3162 C 307.065 -0.743608 4.17936 0
M  V30 3163 C 304.972 0.91253 5.84317 0
M  V30 3164 H 303.902 -0.0415102 0.752856 0
M  V30 3165 H 306.553 0.592742 1.73663 0
M  V30 3166 H 304.935 -0.987703 3.83485 0
M  V30 3167 H 306.109 1.8449 4.22256 0
M  V30 3168 H 304.424 1.52097 3.87628 0
M  V30 3169 H 307.021 -0.883959 5.27343 0
M  V30 3170 H 307.364 -1.73196 3.78562 0
M  V30 3171 H 307.897 -0.04408 3.97776 0
M  V30 3172 H 304.636 1.87391 6.28144 0
M  V30 3173 H 304.156 0.185422 5.99513 0
M  V30 3174 H 305.835 0.574547 6.44444 0
M  V30 3175 N 305.967 -1.56429 0.191757 0
M  V30 3176 C 307.195 -2.01867 -0.453586 0
M  V30 3177 C 307.61 -1.07191 -1.5542 0
M  V30 3178 O 306.967 -0.0762108 -1.82341 0
M  V30 3179 C 307.018 -3.47017 -1.013 0
M  V30 3180 O 306.739 -4.38078 0.0437005 0
M  V30 3181 C 308.24 -4.07956 -1.73456 0
M  V30 3182 H 305.46 -0.661211 -0.114199 0
M  V30 3183 H 308.004 -2.02295 0.299483 0
M  V30 3184 H 306.159 -3.47298 -1.71647 0
M  V30 3185 H 306.573 -5.23178 -0.372212 0
M  V30 3186 H 308.047 -5.1138 -2.07833 0
M  V30 3187 H 308.524 -3.51222 -2.63704 0
M  V30 3188 H 309.13 -4.11437 -1.07702 0
M  V30 3189 N 307.445 0.0818655 -1.57387 0
M  V30 3190 C 308.392 1.09834 -2.0299 0
M  V30 3191 C 309.362 1.39043 -0.908639 0
M  V30 3192 O 310.547 1.50282 -1.17559 0
M  V30 3193 C 307.687 2.40971 -2.47037 0
M  V30 3194 C 306.8 2.18379 -3.7274 0
M  V30 3195 C 305.935 3.43008 -4.0561 0
M  V30 3196 C 304.974 3.15736 -5.24383 0
M  V30 3197 N 304.111 4.32667 -5.52941 0
M  V30 3198 H 308.951 0.702472 -2.89602 0
M  V30 3199 H 306.488 0.33531 -1.43227 0
M  V30 3200 H 308.446 3.1752 -2.70623 0
M  V30 3201 H 307.076 2.78379 -1.63417 0
M  V30 3202 H 306.128 1.32569 -3.56552 0
M  V30 3203 H 307.44 1.94227 -4.59431 0
M  V30 3204 H 306.594 4.27958 -4.30043 0
M  V30 3205 H 305.333 3.70225 -3.17466 0
M  V30 3206 H 304.338 2.2918 -4.99757 0
M  V30 3207 H 305.563 2.8985 -6.14136 0
M  V30 3208 H 303.509 4.59935 -4.67756 0
M  V30 3209 H 303.426 4.11753 -6.34031 0
M  V30 3210 H 304.694 5.18644 -5.81918 0
M  V30 3211 N 308.923 1.53595 0.353017 0
M  V30 3212 C 309.886 1.80232 1.41594 0
M  V30 3213 C 310.886 0.673081 1.46035 0
M  V30 3214 O 312.076 0.941335 1.46576 0
M  V30 3215 C 309.208 1.93578 2.80607 0
M  V30 3216 H 310.401 2.75174 1.19244 0
M  V30 3217 H 307.954 1.44864 0.586872 0
M  V30 3218 H 308.689 1.00746 3.08254 0
M  V30 3219 H 308.474 2.75724 2.78781 0
M  V30 3220 H 309.964 2.15735 3.57558 0
M  V30 3221 N 310.401 -0.613514 1.45168 0
M  V30 3222 C 311.364 -1.7065 1.53007 0
M  V30 3223 C 312.364 -1.5548 0.410184 0
M  V30 3224 O 313.554 -1.60656 0.673455 0
M  V30 3225 C 310.686 -3.09875 1.42093 0
M  V30 3226 H 311.879 -1.65068 2.50385 0
M  V30 3227 H 309.432 -0.828728 1.32521 0
M  V30 3228 H 310.167 -3.21039 0.458769 0
M  V30 3229 H 309.952 -3.22293 2.23315 0
M  V30 3230 H 311.442 -3.895 1.50598 0
M  V30 3231 N 311.879 -1.3236 -0.855495 0
M  V30 3232 C 312.809 -1.23833 -1.97958 0
M  V30 3233 C 313.79 -0.122361 -1.69659 0
M  V30 3234 O 314.975 -0.30939 -1.9172 0
M  V30 3235 C 312.105 -0.959772 -3.33775 0
M  V30 3236 C 311.059 -2.03689 -3.76424 0
M  V30 3237 C 310.385 -1.61075 -5.09862 0
M  V30 3238 C 311.685 -3.4518 -3.9198 0
M  V30 3239 H 313.379 -2.1788 -2.0535 0
M  V30 3240 H 310.925 -1.04891 -0.986605 0
M  V30 3241 H 312.878 -0.886678 -4.11966 0
M  V30 3242 H 311.602 0.0163404 -3.26596 0
M  V30 3243 H 310.261 -2.10012 -3.00484 0
M  V30 3244 H 309.909 -0.622107 -4.99138 0
M  V30 3245 H 309.609 -2.33143 -5.39368 0
M  V30 3246 H 311.133 -1.55201 -5.90546 0
M  V30 3247 H 312.547 -3.4145 -4.60526 0
M  V30 3248 H 310.944 -4.1559 -4.32903 0
M  V30 3249 H 312.014 -3.84903 -2.94919 0
M  V30 3250 N 313.357 1.07166 -1.15556 0
M  V30 3251 C 314.605 1.79443 -0.929764 0
M  V30 3252 C 314.926 1.87246 0.544414 0
M  V30 3253 O 314.196 1.37473 1.39564 0
M  V30 3254 H 312.776 0.664625 -0.341003 0
M  V30 3255 H 315.438 1.29499 -1.45657 0
M  V30 3256 H 314.534 2.81832 -1.34079 0
M  V30 3257 N 314.835 0.952656 1.25548 0
M  V30 3258 C 316.081 0.607272 1.93494 0
M  V30 3259 C 316.414 -0.853245 1.74452 0
M  V30 3260 O 315.689 -1.61194 1.08843 0
M  V30 3261 C 315.972 0.96435 3.46947 0
M  V30 3262 C 315.825 2.48045 3.75225 0
M  V30 3263 C 317.144 0.487987 4.37386 0
M  V30 3264 H 314.263 0.222096 0.702739 0
M  V30 3265 H 316.905 1.18895 1.48203 0
M  V30 3266 H 315.055 0.469361 3.85654 0
M  V30 3267 H 316.727 3.04905 3.46166 0
M  V30 3268 H 314.97 2.919 3.209 0
M  V30 3269 H 315.641 2.6808 4.82532 0
M  V30 3270 H 318.117 0.912558 4.0597 0
M  V30 3271 H 316.993 0.766547 5.43521 0
M  V30 3272 H 317.254 -0.612063 4.37843 0
M  V30 3273 N 316.313 -1.40141 0.720998 0
M  V30 3274 C 317.243 -2.33339 0.0867621 0
M  V30 3275 C 318.224 -1.53178 -0.739622 0
M  V30 3276 O 319.409 -1.81625 -0.687449 0
M  V30 3277 C 316.539 -3.37194 -0.831728 0
M  V30 3278 C 315.493 -4.27857 -0.110558 0
M  V30 3279 C 314.819 -5.22294 -1.14513 0
M  V30 3280 C 316.119 -5.11872 1.0385 0
M  V30 3281 H 317.813 -2.86626 0.865219 0
M  V30 3282 H 315.359 -1.37814 0.417516 0
M  V30 3283 H 317.312 -4.01335 -1.28485 0
M  V30 3284 H 316.036 -2.82314 -1.64214 0
M  V30 3285 H 314.695 -3.65176 0.322797 0
M  V30 3286 H 314.343 -4.63717 -1.94874 0
M  V30 3287 H 314.043 -5.83797 -0.667446 0
M  V30 3288 H 315.567 -5.89312 -1.59824 0
M  V30 3289 H 316.981 -5.69436 0.664482 0
M  V30 3290 H 315.378 -5.82445 1.4449 0
M  V30 3291 H 316.448 -4.4753 1.86668 0
M  V30 3292 N 317.792 -0.46758 -1.50504 0
M  V30 3293 C 319.208 -0.121533 -1.59137 0
M  V30 3294 C 319.408 1.3717 -1.47603 0
M  V30 3295 O 318.464 2.14464 -1.33272 0
M  V30 3296 C 319.777 -0.6686 -2.93173 0
M  V30 3297 C 321.325 -0.631716 -3.06559 0
M  V30 3298 C 321.8 -1.15627 -4.43164 0
M  V30 3299 N 323.291 -1.11553 -4.49567 0
M  V30 3300 C 324.026 -1.49195 -5.5365 0
M  V30 3301 N 323.522 -1.94269 -6.65005 0
M  V30 3302 N 325.315 -1.4082 -5.44175 0
M  V30 3303 H 317.466 -1.4388 -1.56245 0
M  V30 3304 H 319.729 -0.594784 -0.738198 0
M  V30 3305 H 319.435 -1.71453 -3.07078 0
M  V30 3306 H 319.309 -0.11021 -3.77039 0
M  V30 3307 H 321.696 0.405297 -2.92304 0
M  V30 3308 H 321.777 -1.22687 -2.24458 0
M  V30 3309 H 321.421 -2.1919 -4.58168 0
M  V30 3310 H 321.351 -0.537365 -5.23851 0
M  V30 3311 H 323.842 -0.784895 -3.69659 0
M  V30 3312 H 324.155 -2.21148 -7.40482 0
M  V30 3313 H 322.5 -1.98219 -6.66134 0
M  V30 3314 H 325.691 -1.0545 -4.56068 0
M  V30 3315 H 325.864 -1.70481 -6.25172 0
M  V30 3316 N 319.27 1.56325 -0.20005 0
M  V30 3317 C 320.202 2.16555 0.750771 0
M  V30 3318 C 321.215 1.12871 1.1732 0
M  V30 3319 O 322.404 1.39943 1.10807 0
M  V30 3320 C 319.504 2.71684 2.02586 0
M  V30 3321 C 318.677 4.00321 1.76244 0
M  V30 3322 C 317.736 4.40227 2.88248 0
M  V30 3323 O 316.762 5.07552 2.57642 0
M  V30 3324 N 317.964 4.04138 4.16717 0
M  V30 3325 H 320.729 2.98772 0.235685 0
M  V30 3326 H 318.29 1.6189 -0.0182594 0
M  V30 3327 H 320.282 2.95363 2.76664 0
M  V30 3328 H 318.852 1.93893 2.45202 0
M  V30 3329 H 318.072 3.84723 0.85919 0
M  V30 3330 H 319.36 4.84279 1.56048 0
M  V30 3331 H 318.758 3.49993 4.44434 0
M  V30 3332 H 317.315 4.32756 4.87407 0
M  V30 3333 N 320.748 -0.0735177 1.57428 0
M  V30 3334 C 321.973 -0.789787 1.91774 0
M  V30 3335 C 322.398 -1.70413 0.796306 0
M  V30 3336 O 321.756 -1.79555 -0.250961 0
M  V30 3337 C 321.804 -1.5609 3.25067 0
M  V30 3338 O 320.908 -2.67144 3.14178 0
M  V30 3339 H 320.249 -0.215582 0.628029 0
M  V30 3340 H 322.779 -0.0422781 2.04556 0
M  V30 3341 H 322.789 -1.94052 3.58898 0
M  V30 3342 H 321.464 -0.890015 4.06265 0
M  V30 3343 H 320.041 -2.32052 2.91901 0
M  V30 3344 N 322.226 -1.5378 -0.344866 0
M  V30 3345 C 323.642 -1.44015 -0.687888 0
M  V30 3346 C 323.842 -0.595834 -1.92489 0
M  V30 3347 O 322.898 -0.0863064 -2.52352 0
M  V30 3348 C 324.211 -2.87481 -0.881758 0
M  V30 3349 C 325.759 -2.97247 -0.980459 0
M  V30 3350 C 326.234 -4.41819 -1.20665 0
M  V30 3351 N 327.725 -4.45339 -1.27389 0
M  V30 3352 C 328.46 -5.54333 -1.46639 0
M  V30 3353 N 327.956 -6.73335 -1.63071 0
M  V30 3354 N 329.749 -5.41944 -1.49176 0
M  V30 3355 H 321.9 -2.07169 0.468475 0
M  V30 3356 H 324.163 -0.93643 0.147655 0
M  V30 3357 H 323.869 -3.51672 -0.0443444 0
M  V30 3358 H 323.743 -3.32352 -1.78388 0
M  V30 3359 H 326.13 -2.33197 -1.8084 0
M  V30 3360 H 326.211 -2.5574 -0.0552713 0
M  V30 3361 H 325.855 -5.06449 -0.383652 0
M  V30 3362 H 325.785 -4.80917 -2.14539 0
M  V30 3363 H 328.276 -3.59585 -1.1622 0
M  V30 3364 H 328.589 -7.52165 -1.77391 0
M  V30 3365 H 326.934 -6.76282 -1.60209 0
M  V30 3366 H 330.125 -4.47932 -1.3592 0
M  V30 3367 H 330.298 -6.26946 -1.63837 0
M  V30 3368 N 323.704 0.605807 -1.45491 0
M  V30 3369 C 324.95 1.36679 -1.49823 0
M  V30 3370 C 325.283 1.93693 -0.140175 0
M  V30 3371 O 324.558 1.75158 0.845581 0
M  V30 3372 C 324.841 2.51337 -2.57879 0
M  V30 3373 C 324.694 1.99508 -4.03134 0
M  V30 3374 C 326.013 3.53463 -2.62205 0
M  V30 3375 H 323.132 0.495617 -0.545466 0
M  V30 3376 H 325.774 0.682732 -1.7731 0
M  V30 3377 H 323.924 3.09691 -2.34571 0
M  V30 3378 H 325.596 1.45789 -4.37656 0
M  V30 3379 H 323.839 1.30496 -4.13707 0
M  V30 3380 H 324.51 2.82169 -4.74431 0
M  V30 3381 H 326.986 3.04953 -2.83095 0
M  V30 3382 H 325.862 4.31178 -3.39672 0
M  V30 3383 H 326.123 4.09197 -1.67363 0
M  V30 3384 N 325.182 1.32811 0.848464 0
M  V30 3385 C 326.129 1.22265 1.95755 0
M  V30 3386 C 327.099 0.103413 1.65778 0
M  V30 3387 O 328.284 0.280033 1.88734 0
M  V30 3388 C 325.424 0.958014 3.31536 0
M  V30 3389 C 324.537 2.16262 3.73971 0
M  V30 3390 C 323.672 1.83295 4.98575 0
M  V30 3391 C 322.711 3.00041 5.33518 0
M  V30 3392 N 321.848 2.67125 6.49299 0
M  V30 3393 H 326.688 2.17128 2.04107 0
M  V30 3394 H 324.225 1.07982 0.998913 0
M  V30 3395 H 326.183 0.785052 4.09747 0
M  V30 3396 H 324.813 0.046159 3.22767 0
M  V30 3397 H 323.865 2.44565 2.91362 0
M  V30 3398 H 325.177 3.03572 3.95785 0
M  V30 3399 H 324.331 1.62586 5.84509 0
M  V30 3400 H 323.07 0.932078 4.7871 0
M  V30 3401 H 322.075 3.21374 4.46093 0
M  V30 3402 H 323.3 3.90869 5.55336 0
M  V30 3403 H 321.246 1.79586 6.3094 0
M  V30 3404 H 321.163 3.47965 6.71161 0
M  V30 3405 H 322.431 2.49861 7.3837 0
M  V30 3406 N 326.66 -1.06551 1.16123 0
M  V30 3407 C 327.888 -1.83005 0.965237 0
M  V30 3408 C 328.303 -1.82423 -0.486542 0
M  V30 3409 O 327.66 -1.24152 -1.33763 0
M  V30 3410 C 327.711 -3.29733 1.48183 0
M  V30 3411 O 327.432 -3.30416 2.87674 0
M  V30 3412 C 328.933 -4.22926 1.32848 0
M  V30 3413 H 326.153 -0.577118 0.342309 0
M  V30 3414 H 328.697 -1.3445 1.54089 0
M  V30 3415 H 326.852 -3.75609 0.948517 0
M  V30 3416 H 327.266 -4.22149 3.11272 0
M  V30 3417 H 328.74 -5.23916 1.73827 0
M  V30 3418 H 329.217 -4.38346 0.273692 0
M  V30 3419 H 329.823 -3.82894 1.85127 0
M  V30 3420 N 328.138 -0.959301 -1.25041 0
M  V30 3421 C 329.384 -0.617525 -1.9317 0
M  V30 3422 C 329.717 0.843981 -1.74902 0
M  V30 3423 O 328.992 1.60615 -1.09696 0
M  V30 3424 C 329.275 -0.982736 -3.46431 0
M  V30 3425 C 329.128 -2.50032 -3.73904 0
M  V30 3426 C 330.447 -0.511176 -4.37121 0
M  V30 3427 H 327.566 -0.22582 -0.701552 0
M  V30 3428 H 330.208 -1.19679 -1.4757 0
M  V30 3429 H 328.358 -0.489806 -3.854 0
M  V30 3430 H 330.03 -3.06737 -3.44544 0
M  V30 3431 H 328.273 -2.93598 -3.19348 0
M  V30 3432 H 328.944 -2.70635 -4.81103 0
M  V30 3433 H 331.42 -0.934075 -4.0548 0
M  V30 3434 H 330.296 -0.795361 -5.43107 0
M  V30 3435 H 330.557 0.588834 -4.38161 0
M  V30 3436 N 329.616 1.39756 -0.72842 0
M  V30 3437 C 330.862 2.01425 -0.282761 0
M  V30 3438 C 331.217 1.56754 1.11561 0
M  V30 3439 O 330.51 0.783482 1.74849 0
M  V30 3440 C 330.704 3.56002 -0.315776 0
M  V30 3441 C 330.533 4.1568 -1.71582 0
M  V30 3442 C 329.303 4.48555 -2.32651 0
M  V30 3443 C 331.501 4.39667 -2.66829 0
M  V30 3444 N 329.483 4.93698 -3.64877 0
M  V30 3445 C 330.854 4.86942 -3.8378 0
M  V30 3446 C 332.909 4.21724 -2.64675 0
M  V30 3447 C 331.612 5.18158 -4.98904 0
M  V30 3448 C 333.638 4.54049 -3.78937 0
M  V30 3449 C 333 5.01525 -4.94623 0
M  V30 3450 H 329.099 0.76756 -0.149583 0
M  V30 3451 H 331.683 1.69784 -0.952976 0
M  V30 3452 H 329.854 3.87046 0.324057 0
M  V30 3453 H 331.586 4.0443 0.147808 0
M  V30 3454 H 328.341 4.36128 -1.84633 0
M  V30 3455 H 328.765 5.20635 -4.32744 0
M  V30 3456 H 333.407 3.84228 -1.76433 0
M  V30 3457 H 331.125 5.54562 -5.87781 0
M  V30 3458 H 334.711 4.41795 -3.78561 0
M  V30 3459 H 333.591 5.26065 -5.81572 0
M  V30 3460 N 331.094 0.475555 1.50254 0
M  V30 3461 C 332.024 -0.30611 2.31485 0
M  V30 3462 C 333.005 -0.986228 1.38591 0
M  V30 3463 O 334.19 -0.982541 1.67511 0
M  V30 3464 C 331.32 -1.38588 3.1845 0
M  V30 3465 C 330.274 -0.827115 4.19932 0
M  V30 3466 C 329.6 -2.00551 4.95665 0
M  V30 3467 C 330.9 0.16463 5.2204 0
M  V30 3468 H 332.594 0.371866 2.97082 0
M  V30 3469 H 330.14 0.180282 1.42867 0
M  V30 3470 H 332.093 -1.94023 3.74076 0
M  V30 3471 H 330.817 -2.09269 2.50747 0
M  V30 3472 H 329.476 -0.294702 3.65414 0
M  V30 3473 H 329.124 -2.6994 4.2443 0
M  V30 3474 H 328.824 -1.63784 5.64313 0
M  V30 3475 H 330.348 -2.56468 5.54127 0
M  V30 3476 H 331.762 -0.300699 5.72511 0
M  V30 3477 H 330.159 0.446813 5.98434 0
M  V30 3478 H 331.229 1.08905 4.72512 0
M  V30 3479 N 332.573 -1.56217 0.208337 0
M  V30 3480 C 333.819 -1.98242 -0.427552 0
M  V30 3481 C 334.152 -1.09554 -1.60348 0
M  V30 3482 O 333.427 -0.15035 -1.93918 0
M  V30 3483 C 333.71 -3.4931 -0.874907 0
M  V30 3484 C 333.563 -4.48773 0.303751 0
M  V30 3485 C 334.882 -4.04424 -1.73577 0
M  V30 3486 H 332.001 -0.720744 -0.153936 0
M  V30 3487 H 334.643 -1.87586 0.30192 0
M  V30 3488 H 332.793 -3.58522 -1.49648 0
M  V30 3489 H 334.465 -4.51586 0.941682 0
M  V30 3490 H 332.708 -4.23194 0.953375 0
M  V30 3491 H 333.379 -5.51976 -0.0519883 0
M  V30 3492 H 335.855 -3.98075 -1.21143 0
M  V30 3493 H 334.731 -5.1047 -2.01771 0
M  V30 3494 H 334.992 -3.50494 -2.69456 0
M  V30 3495 N 334.051 0.0651679 -1.57465 0
M  V30 3496 C 335.299 0.761555 -1.87202 0
M  V30 3497 C 335.62 1.77778 -0.801243 0
M  V30 3498 O 334.89 1.95166 0.16937 0
M  V30 3499 H 333.47 0.284251 -0.690804 0
M  V30 3500 H 336.132 0.0396827 -1.9486 0
M  V30 3501 H 335.228 1.27365 -2.84929 0
M  V30 3502 N 335.529 1.53961 0.336706 0
M  V30 3503 C 336.945 1.44378 0.680241 0
M  V30 3504 C 337.145 0.606034 1.9217 0
M  V30 3505 O 336.201 0.099688 2.52303 0
M  V30 3506 C 337.514 2.87945 0.8665 0
M  V30 3507 C 339.062 2.97763 0.964682 0
M  V30 3508 C 339.537 4.42453 1.18321 0
M  V30 3509 N 341.028 4.46008 1.25025 0
M  V30 3510 C 341.763 5.55102 1.43697 0
M  V30 3511 N 341.259 6.7419 1.59498 0
M  V30 3512 N 343.052 5.42727 1.463 0
M  V30 3513 H 335.203 2.06918 -0.479455 0
M  V30 3514 H 337.466 0.935634 -0.152619 0
M  V30 3515 H 337.172 3.51691 0.0256937 0
M  V30 3516 H 337.046 3.33293 1.76623 0
M  V30 3517 H 339.433 2.34153 1.796 0
M  V30 3518 H 339.514 2.55766 0.041708 0
M  V30 3519 H 339.158 5.06645 0.356788 0
M  V30 3520 H 339.088 4.82048 2.11985 0
M  V30 3521 H 341.579 3.60196 1.14312 0
M  V30 3522 H 341.892 7.53095 1.734 0
M  V30 3523 H 340.237 6.77123 1.56621 0
M  V30 3524 H 343.428 4.48647 1.33543 0
M  V30 3525 H 343.601 6.27806 1.6051 0
M  V30 3526 N 337.007 -0.598083 1.45811 0
M  V30 3527 C 338.423 -0.919847 1.30426 0
M  V30 3528 C 338.623 -1.99759 0.264303 0
M  V30 3529 O 337.679 -2.50221 -0.338472 0
M  V30 3530 C 338.992 -1.35176 2.68603 0
M  V30 3531 C 340.54 -1.46546 2.76574 0
M  V30 3532 C 341.015 -1.9311 4.15298 0
M  V30 3533 N 342.506 -2.00328 4.1764 0
M  V30 3534 C 343.241 -2.37599 5.21856 0
M  V30 3535 N 342.737 -2.73771 6.36413 0
M  V30 3536 N 344.53 -2.38021 5.09218 0
M  V30 3537 H 336.681 0.114111 2.12093 0
M  V30 3538 H 338.944 -0.0116121 0.947929 0
M  V30 3539 H 338.65 -0.633969 3.45939 0
M  V30 3540 H 338.524 -2.3164 2.97696 0
M  V30 3541 H 340.911 -2.17415 1.99537 0
M  V30 3542 H 340.992 -0.483727 2.51185 0
M  V30 3543 H 340.636 -1.22824 4.92825 0
M  V30 3544 H 340.566 -2.92213 4.38086 0
M  V30 3545 H 343.057 -1.74925 3.34977 0
M  V30 3546 H 343.37 -3.0112 7.11721 0
M  V30 3547 H 341.715 -2.71445 6.39799 0
M  V30 3548 H 344.906 -2.09174 4.18765 0
M  V30 3549 H 345.079 -2.66741 5.90554 0
M  V30 3550 N 338.485 -1.33259 -0.841409 0
M  V30 3551 C 339.733 -1.24326 -1.59334 0
M  V30 3552 C 340.054 0.191564 -1.94057 0
M  V30 3553 O 339.324 1.11967 -1.60749 0
M  V30 3554 H 337.904 -0.457174 -0.590763 0
M  V30 3555 H 340.566 -1.66947 -1.00571 0
M  V30 3556 H 339.662 -1.8352 -2.52442 0
M  V30 3557 N 339.963 1.05934 -1.16686 0
M  V30 3558 C 341.374 1.60263 -0.957745 0
M  V30 3559 C 341.725 1.89789 0.49745 0
M  V30 3560 O 340.85 1.67401 1.37135 0
M  V30 3561 C 341.445 2.91172 -1.73218 0
M  V30 3562 C 340.004 3.42188 -1.56794 0
M  V30 3563 C 339.151 2.16028 -1.73859 0
M  V30 3564 H 342.102 0.888392 -1.31504 0
M  V30 3565 H 342.123 3.60744 -1.21014 0
M  V30 3566 H 341.635 2.6965 -2.79124 0
M  V30 3567 H 339.736 3.68762 -0.533437 0
M  V30 3568 H 339.849 4.17273 -2.35414 0
M  V30 3569 H 338.213 2.26426 -1.16633 0
M  V30 3570 H 338.996 1.96985 -2.81161 0
M  V30 3571 N 341.441 0.965919 1.2453 0
M  V30 3572 C 342.371 0.513476 2.27784 0
M  V30 3573 C 343.352 -0.445974 1.6415 0
M  V30 3574 O 344.537 -0.342485 1.91156 0
M  V30 3575 C 341.667 -0.198839 3.4673 0
M  V30 3576 C 340.621 0.676456 4.2262 0
M  V30 3577 C 339.947 -0.167248 5.34438 0
M  V30 3578 C 341.247 1.96017 4.84123 0
M  V30 3579 H 342.941 1.3765 2.65881 0
M  V30 3580 H 340.487 0.663321 1.27813 0
M  V30 3581 H 342.44 -0.526567 4.18097 0
M  V30 3582 H 341.164 -1.0962 3.07654 0
M  V30 3583 H 339.823 0.98743 3.53052 0
M  V30 3584 H 339.471 -1.0647 4.91603 0
M  V30 3585 H 339.171 0.415181 5.86131 0
M  V30 3586 H 340.695 -0.489688 6.08633 0
M  V30 3587 H 342.109 1.69814 5.47573 0
M  V30 3588 H 340.506 2.48918 5.4604 0
M  V30 3589 H 341.576 2.65622 4.05676 0
M  V30 3590 N 342.919 -1.39368 0.735821 0
M  V30 3591 C 343.851 -2.2913 0.0567723 0
M  V30 3592 C 344.864 -1.46859 -0.702589 0
M  V30 3593 O 346.053 -1.69925 -0.546616 0
M  V30 3594 C 343.153 -3.25492 -0.943823 0
M  V30 3595 C 342.326 -4.36709 -0.24581 0
M  V30 3596 C 341.385 -5.13376 -1.15463 0
M  V30 3597 O 340.411 -5.65683 -0.631803 0
M  V30 3598 N 341.613 -5.24656 -2.48427 0
M  V30 3599 H 344.378 -2.88047 0.827582 0
M  V30 3600 H 341.939 -1.50957 0.585112 0
M  V30 3601 H 343.931 -3.73657 -1.55443 0
M  V30 3602 H 342.501 -2.676 -1.61583 0
M  V30 3603 H 341.721 -3.9041 0.545286 0
M  V30 3604 H 343.009 -5.08244 0.237891 0
M  V30 3605 H 342.407 -4.83679 -2.93379 0
M  V30 3606 H 340.964 -5.76258 -3.04582 0
M  V30 3607 N 344.397 -0.483516 -1.5 0
M  V30 3608 C 345.643 0.0672592 -2.02688 0
M  V30 3609 C 345.976 1.38247 -1.36387 0
M  V30 3610 O 345.251 1.88131 -0.493675 0
M  V30 3611 C 345.534 0.238109 -3.59312 0
M  V30 3612 C 345.387 -1.099 -4.36168 0
M  V30 3613 C 346.706 0.986916 -4.28892 0
M  V30 3614 H 343.825 0.0229696 -0.736642 0
M  V30 3615 H 346.467 -0.631527 -1.79197 0
M  V30 3616 H 344.617 0.8333 -3.79458 0
M  V30 3617 H 346.289 -1.73172 -4.27562 0
M  V30 3618 H 344.532 -1.69261 -3.99416 0
M  V30 3619 H 345.203 -0.932954 -5.44059 0
M  V30 3620 H 347.679 0.482302 -4.13295 0
M  V30 3621 H 346.555 1.07527 -5.38265 0
M  V30 3622 H 346.816 2.0265 -3.92919 0
M  V30 3623 N 345.875 1.56104 -0.216619 0
M  V30 3624 C 346.838 2.18819 0.681962 0
M  V30 3625 C 347.838 1.14866 1.12528 0
M  V30 3626 O 349.028 1.40128 1.03488 0
M  V30 3627 C 346.16 2.80756 1.93362 0
M  V30 3628 H 347.353 2.99595 0.135254 0
M  V30 3629 H 344.906 1.56265 0.0330003 0
M  V30 3630 H 345.641 2.03837 2.52232 0
M  V30 3631 H 345.426 3.56876 1.62426 0
M  V30 3632 H 346.916 3.28844 2.57393 0
M  V30 3633 N 347.353 -0.0568162 1.57498 0
M  V30 3634 C 348.6 -0.753104 1.87975 0
M  V30 3635 C 348.928 -1.76815 0.81035 0
M  V30 3636 O 348.183 -1.94756 -0.19199 0
M  V30 3637 C 348.482 -1.48359 3.25153 0
M  V30 3638 C 348.148 -0.60713 4.46794 0
M  V30 3639 C 346.81 -0.365642 4.79809 0
M  V30 3640 C 349.162 -0.000305978 5.212 0
M  V30 3641 C 346.49 0.491905 5.84634 0
M  V30 3642 C 348.842 0.844781 6.26934 0
M  V30 3643 C 347.506 1.096 6.58441 0
M  V30 3644 H 346.776 -0.27558 0.687849 0
M  V30 3645 H 349.423 -0.0135173 1.91495 0
M  V30 3646 H 347.728 -2.29577 3.17492 0
M  V30 3647 H 349.425 -2.02739 3.45974 0
M  V30 3648 H 346.015 -0.805487 4.20963 0
M  V30 3649 H 350.199 -0.173961 4.95995 0
M  V30 3650 H 345.455 0.695131 6.07436 0
M  V30 3651 H 349.629 1.32165 6.83744 0
M  V30 3652 H 347.256 1.76224 7.39492 0
M  V30 3653 N 348.832 -1.54138 -0.328536 0
M  V30 3654 C 350.06 -1.76062 -1.08673 0
M  V30 3655 C 350.475 -0.506852 -1.81869 0
M  V30 3656 O 349.832 0.522223 -1.74869 0
M  V30 3657 C 349.883 -2.95054 -2.08866 0
M  V30 3658 O 349.604 -4.15583 -1.38644 0
M  V30 3659 C 351.105 -3.2915 -2.96943 0
M  V30 3660 H 348.325 -0.587889 -0.323461 0
M  V30 3661 H 350.869 -2.0101 -0.376175 0
M  V30 3662 H 349.024 -2.72394 -2.75464 0
M  V30 3663 H 349.438 -4.82481 -2.05699 0
M  V30 3664 H 350.912 -4.15723 -3.63151 0
M  V30 3665 H 351.389 -2.461 -3.63774 0
M  V30 3666 H 351.995 -3.53871 -2.35914 0
M  V30 3667 N 350.31 0.590341 -1.46126 0
M  V30 3668 C 351.559 1.34499 -1.50309 0
M  V30 3669 C 351.872 1.94977 -0.156021 0
M  V30 3670 O 353.078 2.71395 -0.0756037 0
M  V30 3671 C 351.534 2.43723 -2.64815 0
M  V30 3672 C 351.142 1.89582 -4.0591 0
M  V30 3673 C 352.886 3.20579 -2.78262 0
M  V30 3674 C 350.793 2.9639 -5.11769 0
M  V30 3675 H 349.723 0.505593 -0.559368 0
M  V30 3676 H 352.374 0.630848 -1.72315 0
M  V30 3677 H 350.756 3.17902 -2.36124 0
M  V30 3678 H 351.93 1.21997 -4.44357 0
M  V30 3679 H 350.245 1.25418 -3.97063 0
M  V30 3680 H 352.842 4.00276 -3.54519 0
M  V30 3681 H 353.185 3.72684 -1.85505 0
M  V30 3682 H 353.718 2.53505 -3.06562 0
M  V30 3683 H 350.457 2.49181 -6.06291 0
M  V30 3684 H 349.977 3.62487 -4.77873 0
M  V30 3685 H 351.656 3.60474 -5.37278 0
M  V30 3686 N 351.788 1.33704 0.83433 0
M  V30 3687 C 352.735 1.24335 1.94447 0
M  V30 3688 C 353.705 0.120991 1.65659 0
M  V30 3689 O 354.89 0.300035 1.88426 0
M  V30 3690 C 352.03 0.993124 3.30501 0
M  V30 3691 C 351.143 2.20217 3.71657 0
M  V30 3692 C 350.278 1.88572 4.96602 0
M  V30 3693 C 349.317 3.05683 5.30306 0
M  V30 3694 N 348.454 2.73997 6.46429 0
M  V30 3695 H 353.294 2.1928 2.01792 0
M  V30 3696 H 350.831 1.09035 0.987404 0
M  V30 3697 H 352.789 0.828467 4.08892 0
M  V30 3698 H 351.419 0.0803902 3.227 0
M  V30 3699 H 350.471 2.47642 2.88752 0
M  V30 3700 H 351.783 3.07752 3.92543 0
M  V30 3701 H 350.937 1.68776 5.82752 0
M  V30 3702 H 349.676 0.982799 4.77695 0
M  V30 3703 H 348.681 3.26088 4.42659 0
M  V30 3704 H 349.906 3.96737 5.51159 0
M  V30 3705 H 347.852 1.86268 6.28999 0
M  V30 3706 H 347.769 3.55064 6.67432 0
M  V30 3707 H 349.037 2.57679 7.35678 0
M  V30 3708 N 353.266 -1.05314 1.17247 0
M  V30 3709 C 354.176 -2.16538 0.90268 0
M  V30 3710 C 355.192 -1.73523 -0.128707 0
M  V30 3711 O 356.368 -2.01337 0.0502701 0
M  V30 3712 C 353.433 -3.44167 0.418356 0
M  V30 3713 C 352.494 -4.01635 1.51618 0
M  V30 3714 C 351.727 -5.23171 1.05487 0
M  V30 3715 O 351.95 -5.70327 -0.0914715 0
M  V30 3716 O 350.884 -5.72848 1.8474 0
M  V30 3717 H 354.71 -2.42145 1.83302 0
M  V30 3718 H 352.295 -1.15037 0.953246 0
M  V30 3719 H 354.177 -4.21112 0.155726 0
M  V30 3720 H 352.852 -3.20063 -0.48385 0
M  V30 3721 H 351.759 -3.26135 1.83268 0
M  V30 3722 H 353.092 -4.30053 2.39405 0
M  V30 3723 N 354.744 -0.972509 -1.24016 0
M  V30 3724 C 355.674 -0.525548 -2.27509 0
M  V30 3725 C 356.655 0.437262 -1.64384 0
M  V30 3726 O 357.84 0.332343 -1.91335 0
M  V30 3727 C 354.97 0.180448 -3.46831 0
M  V30 3728 C 353.924 -0.698859 -4.22256 0
M  V30 3729 C 353.25 0.138903 -5.3452 0
M  V30 3730 C 354.55 -1.98582 -4.83076 0
M  V30 3731 H 356.244 -1.39058 -2.65148 0
M  V30 3732 H 353.79 -0.67009 -1.27459 0
M  V30 3733 H 355.743 0.504387 -4.18371 0
M  V30 3734 H 354.467 1.07987 -3.08231 0
M  V30 3735 H 353.126 -1.00614 -3.52523 0
M  V30 3736 H 352.774 1.03862 -4.9216 0
M  V30 3737 H 352.474 -0.446259 -5.85903 0
M  V30 3738 H 353.998 0.457404 -6.08884 0
M  V30 3739 H 355.412 -1.72715 -5.46665 0
M  V30 3740 H 353.809 -2.5181 -5.44713 0
M  V30 3741 H 354.879 -2.67769 -4.04262 0
M  V30 3742 N 356.222 1.38976 -0.743202 0
M  V30 3743 C 357.638 1.53984 -0.419664 0
M  V30 3744 C 357.838 1.70837 1.0685 0
M  V30 3745 O 356.894 1.7135 1.8546 0
M  V30 3746 C 358.207 2.75287 -1.20985 0
M  V30 3747 C 359.755 2.89129 -1.19889 0
M  V30 3748 C 360.23 4.13381 -1.97181 0
M  V30 3749 N 361.721 4.20437 -1.94389 0
M  V30 3750 C 362.456 5.15547 -2.50996 0
M  V30 3751 N 361.952 6.16395 -3.16274 0
M  V30 3752 N 363.745 5.07822 -2.40984 0
M  V30 3753 H 355.896 1.26285 -1.7078 0
M  V30 3754 H 358.159 0.612689 -0.723406 0
M  V30 3755 H 357.865 2.69204 -2.26323 0
M  V30 3756 H 357.739 3.68184 -0.819759 0
M  V30 3757 H 360.126 2.947 -0.153606 0
M  V30 3758 H 360.207 1.97272 -1.62841 0
M  V30 3759 H 359.851 4.08572 -3.01714 0
M  V30 3760 H 359.781 5.04298 -1.51629 0
M  V30 3761 H 362.272 3.48205 -1.46839 0
M  V30 3762 H 362.585 6.85443 -3.56915 0
M  V30 3763 H 360.93 6.16758 -3.20367 0
M  V30 3764 H 364.121 4.27973 -1.89622 0
M  V30 3765 H 364.294 5.81767 -2.85397 0
M  V30 3766 N 357.7 0.491464 1.49741 0
M  V30 3767 C 358.61 -0.296835 2.32715 0
M  V30 3768 C 359.626 -0.976536 1.44013 0
M  V30 3769 O 360.802 -0.960023 1.77047 0
M  V30 3770 C 357.867 -1.35288 3.19215 0
M  V30 3771 C 356.928 -0.687632 4.23757 0
M  V30 3772 C 356.161 -1.69336 5.06123 0
M  V30 3773 O 356.384 -2.92219 4.89861 0
M  V30 3774 O 355.318 -1.25394 5.88693 0
M  V30 3775 H 359.144 0.382048 3.01287 0
M  V30 3776 H 356.729 0.252953 1.47243 0
M  V30 3777 H 358.611 -1.96411 3.72828 0
M  V30 3778 H 357.286 -2.01487 2.53347 0
M  V30 3779 H 356.193 -0.0369159 3.74082 0
M  V30 3780 H 357.526 -0.0682566 4.92153 0
M  V30 3781 N 359.178 -1.55987 0.224894 0
M  V30 3782 C 360.111 -2.16413 -0.723929 0
M  V30 3783 C 361.089 -1.10952 -1.18863 0
M  V30 3784 O 362.273 -1.39225 -1.27077 0
M  V30 3785 C 359.4 -2.74711 -1.98121 0
M  V30 3786 C 358.446 -3.9303 -1.6562 0
M  V30 3787 S 359.279 -5.29817 -0.778058 0
M  V30 3788 C 360.435 -5.91555 -2.04483 0
M  V30 3789 H 360.668 -2.96555 -0.210347 0
M  V30 3790 H 358.201 -1.54397 0.00955457 0
M  V30 3791 H 360.159 -3.08938 -2.70311 0
M  V30 3792 H 358.82 -1.94555 -2.46591 0
M  V30 3793 H 358.013 -4.32334 -2.59043 0
M  V30 3794 H 357.615 -3.59966 -1.01491 0
M  V30 3795 H 359.907 -6.07732 -2.99446 0
M  V30 3796 H 360.85 -6.87498 -1.69563 0
M  V30 3797 H 361.258 -5.20419 -2.18688 0
M  V30 3798 N 360.656 0.0484629 -1.57525 0
M  V30 3799 C 361.905 0.742065 -1.87553 0
M  V30 3800 C 362.218 1.77545 -0.820802 0
M  V30 3801 O 363.424 2.52027 -1.00967 0
M  V30 3802 C 361.88 1.37081 -3.32771 0
M  V30 3803 C 361.488 0.374786 -4.4643 0
M  V30 3804 C 363.232 2.04542 -3.71972 0
M  V30 3805 C 361.139 1.01077 -5.82698 0
M  V30 3806 H 360.069 0.280903 -0.699721 0
M  V30 3807 H 362.72 -0.00411877 -1.835 0
M  V30 3808 H 361.102 2.16605 -3.31509 0
M  V30 3809 H 362.276 -0.392331 -4.59127 0
M  V30 3810 H 360.591 -0.196653 -4.15935 0
M  V30 3811 H 363.188 2.52943 -4.71088 0
M  V30 3812 H 363.531 2.85515 -3.02964 0
M  V30 3813 H 364.064 1.31819 -3.75325 0
M  V30 3814 H 360.803 0.240878 -6.55057 0
M  V30 3815 H 360.323 1.74819 -5.73758 0
M  V30 3816 H 362.002 1.52383 -6.28799 0
M  V30 3817 N 362.134 1.5431 0.320358 0
M  V30 3818 C 363.066 1.80262 1.41556 0
M  V30 3819 C 364.079 0.684723 1.477 0
M  V30 3820 O 365.268 0.961886 1.50366 0
M  V30 3821 C 362.368 1.90825 2.8007 0
M  V30 3822 C 361.541 3.21023 2.97091 0
M  V30 3823 C 360.6 3.22247 4.15985 0
M  V30 3824 O 359.626 3.95871 4.08992 0
M  V30 3825 N 360.828 2.46258 5.25678 0
M  V30 3826 H 363.593 2.74778 1.19655 0
M  V30 3827 H 361.154 1.53646 0.510358 0
M  V30 3828 H 363.146 1.89067 3.57821 0
M  V30 3829 H 361.716 1.03392 2.95006 0
M  V30 3830 H 360.936 3.35715 2.06614 0
M  V30 3831 H 362.224 4.0698 3.05361 0
M  V30 3832 H 361.622 1.86037 5.34235 0
M  V30 3833 H 360.179 2.50275 6.01835 0
M  V30 3834 N 363.613 -0.582584 1.46437 0
M  V30 3835 C 364.543 -1.70187 1.59871 0
M  V30 3836 C 365.524 -1.64066 0.449042 0
M  V30 3837 O 366.709 -1.82081 0.6753 0
M  V30 3838 C 363.839 -3.08827 1.58881 0
M  V30 3839 C 362.793 -3.29779 2.72819 0
M  V30 3840 C 362.119 -4.68947 2.5689 0
M  V30 3841 C 363.419 -3.17601 4.1464 0
M  V30 3842 H 365.113 -1.592 2.53566 0
M  V30 3843 H 362.659 -0.764472 1.22032 0
M  V30 3844 H 364.612 -3.86951 1.66873 0
M  V30 3845 H 363.336 -3.20713 0.617306 0
M  V30 3846 H 361.995 -2.54054 2.64296 0
M  V30 3847 H 361.643 -4.77599 1.57823 0
M  V30 3848 H 361.343 -4.83919 3.33312 0
M  V30 3849 H 362.867 -5.4924 2.66773 0
M  V30 3850 H 364.281 -3.8557 4.24274 0
M  V30 3851 H 362.678 -3.44094 4.9165 0
M  V30 3852 H 363.748 -2.14681 4.34788 0
M  V30 3853 N 365.091 -1.34144 -0.827227 0
M  V30 3854 C 366.502 -1.23557 -1.39966 0
M  V30 3855 C 366.853 0.140731 -1.95695 0
M  V30 3856 O 365.978 1.04087 -1.89723 0
M  V30 3857 C 366.573 -2.23708 -2.54441 0
M  V30 3858 C 365.132 -2.16924 -3.07605 0
M  V30 3859 C 364.279 -2.10549 -1.80456 0
M  V30 3860 H 367.23 -1.45573 -0.631991 0
M  V30 3861 H 367.251 -1.85157 -3.32411 0
M  V30 3862 H 366.763 -3.23866 -2.13851 0
M  V30 3863 H 364.864 -1.20107 -3.52711 0
M  V30 3864 H 364.977 -3.07988 -3.66988 0
M  V30 3865 H 363.341 -1.56203 -2.01178 0
M  V30 3866 H 364.124 -3.12535 -1.42046 0
M  V30 3867 N 366.569 1.04691 -1.17803 0
M  V30 3868 C 367.817 1.7743 -0.967617 0
M  V30 3869 C 368.138 1.88359 0.504574 0
M  V30 3870 O 367.408 1.40402 1.36617 0
M  V30 3871 H 365.988 0.657242 -0.355024 0
M  V30 3872 H 368.65 1.2638 -1.48371 0
M  V30 3873 H 367.746 2.78924 -1.40027 0
M  V30 3874 N 368.047 0.979072 1.23499 0
M  V30 3875 C 369.01 0.523244 2.23147 0
M  V30 3876 C 370.01 -0.386406 1.56088 0
M  V30 3877 O 371.2 -0.180283 1.73265 0
M  V30 3878 C 368.332 -0.240739 3.40049 0
M  V30 3879 H 369.525 1.40432 2.64989 0
M  V30 3880 H 367.078 0.764824 1.36309 0
M  V30 3881 H 367.813 -1.13841 3.03662 0
M  V30 3882 H 367.598 0.412207 3.89927 0
M  V30 3883 H 369.088 -0.548297 4.13985 0
M  V30 3884 N 369.525 -1.3858 0.750561 0
M  V30 3885 C 370.941 -1.53759 0.427824 0
M  V30 3886 C 371.141 -1.71401 -1.05943 0
M  V30 3887 O 370.197 -1.72331 -1.84549 0
M  V30 3888 C 371.51 -2.74642 1.22443 0
M  V30 3889 C 373.058 -2.88489 1.2142 0
M  V30 3890 C 373.533 -4.12329 1.9937 0
M  V30 3891 N 375.024 -4.194 1.96616 0
M  V30 3892 C 375.759 -5.14209 2.53727 0
M  V30 3893 N 375.255 -6.14709 3.19539 0
M  V30 3894 N 377.048 -5.06537 2.43673 0
M  V30 3895 H 369.199 -1.25377 1.71447 0
M  V30 3896 H 371.462 -0.608844 0.726645 0
M  V30 3897 H 371.168 -2.68 2.27747 0
M  V30 3898 H 371.042 -3.67745 0.839273 0
M  V30 3899 H 373.429 -2.94614 0.169232 0
M  V30 3900 H 373.51 -1.96406 1.63885 0
M  V30 3901 H 373.154 -4.06966 3.03877 0
M  V30 3902 H 373.084 -5.03486 1.54302 0
M  V30 3903 H 375.575 -3.47421 1.48684 0
M  V30 3904 H 375.888 -6.8354 3.60545 0
M  V30 3905 H 374.233 -6.1505 3.23633 0
M  V30 3906 H 377.424 -4.26962 1.91889 0
M  V30 3907 H 377.597 -5.80245 2.88479 0
M  V30 3908 N 371.003 -0.499398 -1.49478 0
M  V30 3909 C 372.414 -0.051215 -1.8663 0
M  V30 3910 C 372.765 1.36238 -1.41186 0
M  V30 3911 O 371.89 2.01502 -0.789051 0
M  V30 3912 C 372.485 -0.0861651 -3.3869 0
M  V30 3913 C 371.044 0.30667 -3.75149 0
M  V30 3914 C 370.191 -0.459397 -2.73468 0
M  V30 3915 H 373.142 -0.712264 -1.41818 0
M  V30 3916 H 373.163 0.709507 -3.73826 0
M  V30 3917 H 372.675 -1.11512 -3.71735 0
M  V30 3918 H 370.776 1.33892 -3.47712 0
M  V30 3919 H 370.889 -0.0116669 -4.79099 0
M  V30 3920 H 369.253 0.0905645 -2.54539 0
M  V30 3921 H 370.036 -1.4884 -3.09357 0
M  V30 3922 N 372.481 1.55866 -0.233164 0
M  V30 3923 C 373.73 1.97779 0.39579 0
M  V30 3924 C 374.043 1.12419 1.60066 0
M  V30 3925 O 375.249 1.44283 2.29988 0
M  V30 3926 C 373.705 3.5188 0.755556 0
M  V30 3927 C 373.313 4.45959 -0.427152 0
M  V30 3928 C 375.057 4.02479 1.34946 0
M  V30 3929 C 372.964 5.91383 -0.0443043 0
M  V30 3930 H 371.894 0.738592 0.15165 0
M  V30 3931 H 374.545 1.80486 -0.331212 0
M  V30 3932 H 372.927 3.64816 1.5403 0
M  V30 3933 H 374.101 4.44776 -1.20462 0
M  V30 3934 H 372.416 4.05765 -0.935068 0
M  V30 3935 H 375.013 5.08637 1.649 0
M  V30 3936 H 375.356 3.49014 2.26925 0
M  V30 3937 H 375.889 3.92813 0.62791 0
M  V30 3938 H 372.628 6.48857 -0.930874 0
M  V30 3939 H 372.148 5.95734 0.697238 0
M  V30 3940 H 373.827 6.45893 0.378334 0
M  V30 3941 N 373.959 -0.0401083 1.57549 0
M  V30 3942 C 374.889 -1.04384 2.08869 0
M  V30 3943 C 375.87 -1.38407 0.988817 0
M  V30 3944 O 377.055 -1.47483 1.26342 0
M  V30 3945 C 374.185 -2.34808 2.55895 0
M  V30 3946 C 373.139 -2.15057 3.70047 0
M  V30 3947 C 372.465 -3.51145 4.03239 0
M  V30 3948 C 373.765 -1.54576 4.98902 0
M  V30 3949 H 375.459 -0.616666 2.92981 0
M  V30 3950 H 373.005 -0.295184 1.40942 0
M  V30 3951 H 374.958 -3.05346 2.90417 0
M  V30 3952 H 373.682 -2.79565 1.68853 0
M  V30 3953 H 372.341 -1.46954 3.35857 0
M  V30 3954 H 371.989 -3.93529 3.13279 0
M  V30 3955 H 371.689 -3.38758 4.80122 0
M  V30 3956 H 373.213 -4.23062 4.40285 0
M  V30 3957 H 374.627 -2.15017 5.31451 0
M  V30 3958 H 373.024 -1.52796 5.80322 0
M  V30 3959 H 374.094 -0.51039 4.82206 0
M  V30 3960 N 375.437 -1.54477 -0.31217 0
M  V30 3961 C 376.714 -1.63891 -1.06767 0
M  V30 3962 C 377.094 -0.480028 -2.0557 0
M  V30 3963 O 376.442 0.524487 -2.22399 0
M  V30 3964 C 376.652 -3.01402 -1.75948 0
M  V30 3965 C 378 -3.57838 -2.28554 0
M  V30 3966 O 379.024 -3.03782 -1.85998 0
M  V30 3967 O 377.883 -4.52462 -3.06497 0
M  V30 3968 H 374.977 -0.664125 -0.492816 0
M  V30 3969 H 377.523 -1.66823 -0.311149 0
M  V30 3970 H 376.295 -3.77187 -1.04144 0
M  V30 3971 H 375.918 -3.02199 -2.58383 0
M  V30 3972 N 376.915 0.57481 -1.46744 0
M  V30 3973 C 378.326 1.15695 -1.46532 0
M  V30 3974 C 378.677 1.95068 -0.210425 0
M  V30 3975 O 377.802 2.05241 0.685944 0
M  V30 3976 C 378.397 2.1048 -2.65487 0
M  V30 3977 C 376.956 2.64002 -2.68291 0
M  V30 3978 C 376.103 1.40026 -2.39349 0
M  V30 3979 H 379.054 0.362325 -1.54509 0
M  V30 3980 H 379.075 2.94074 -2.41455 0
M  V30 3981 H 378.587 1.52683 -3.56805 0
M  V30 3982 H 376.688 3.25646 -1.81067 0
M  V30 3983 H 376.801 3.06197 -3.68483 0
M  V30 3984 H 375.165 1.70106 -1.89568 0
M  V30 3985 H 375.948 0.840485 -3.32852 0
M  V30 3986 N 378.394 1.34581 0.820102 0
M  V30 3987 C 379.64 1.27285 1.57881 0
M  V30 3988 C 379.973 -0.156137 1.93571 0
M  V30 3989 O 379.248 -1.10222 1.60254 0
M  V30 3990 C 379.531 2.16639 2.87645 0
M  V30 3991 C 379.384 3.68088 2.58517 0
M  V30 3992 C 380.703 2.05378 3.8924 0
M  V30 3993 H 377.822 0.463714 0.572833 0
M  V30 3994 H 380.464 1.64859 0.944539 0
M  V30 3995 H 378.614 1.84725 3.41773 0
M  V30 3996 H 380.286 4.10382 2.10676 0
M  V30 3997 H 378.529 3.89038 1.91917 0
M  V30 3998 H 379.2 4.2598 3.51063 0
M  V30 3999 H 381.676 2.33404 3.44473 0
M  V30 4000 H 380.552 2.7012 4.77835 0
M  V30 4001 H 380.813 1.0316 4.29896 0
M  V30 4002 N 379.872 -1.04064 1.18357 0
M  V30 4003 C 381.149 -1.74252 0.888581 0
M  V30 4004 C 381.529 -2.02138 -0.60856 0
M  V30 4005 O 380.877 -1.66656 -1.56327 0
M  V30 4006 C 381.087 -3.0277 1.73584 0
M  V30 4007 C 382.435 -3.76506 1.96286 0
M  V30 4008 O 383.459 -3.12668 1.70637 0
M  V30 4009 O 382.318 -4.91243 2.39464 0
M  V30 4010 H 379.412 -0.758271 0.330082 0
M  V30 4011 H 381.958 -1.1013 1.2911 0
M  V30 4012 H 380.73 -2.78299 2.75073 0
M  V30 4013 H 380.353 -3.74631 1.33183 0
M  V30 4014 N 381.35 -0.985608 -1.22978 0
M  V30 4015 C 382.597 -0.657386 -1.91532 0
M  V30 4016 C 382.925 0.809707 -1.76845 0
M  V30 4017 O 382.18 1.60021 -1.12658 0
M  V30 4018 C 382.479 -1.00014 -3.43121 0
M  V30 4019 C 382.145 -2.4583 -3.77993 0
M  V30 4020 C 380.807 -2.85679 -3.87222 0
M  V30 4021 C 383.159 -3.40378 -3.94705 0
M  V30 4022 C 380.487 -4.19081 -4.10595 0
M  V30 4023 C 382.839 -4.73429 -4.1958 0
M  V30 4024 C 381.503 -5.1303 -4.27032 0
M  V30 4025 H 380.773 -0.240555 -0.700867 0
M  V30 4026 H 383.42 -1.24044 -1.45895 0
M  V30 4027 H 381.725 -0.335072 -3.90365 0
M  V30 4028 H 383.422 -0.724322 -3.94404 0
M  V30 4029 H 380.012 -2.13939 -3.71387 0
M  V30 4030 H 384.196 -3.10766 -3.8696 0
M  V30 4031 H 379.452 -4.49362 -4.14589 0
M  V30 4032 H 383.626 -5.46644 -4.31455 0
M  V30 4033 H 381.253 -6.16418 -4.44896 0
M  V30 4034 N 382.828 1.3818 -0.7579 0
M  V30 4035 C 383.758 2.33027 -0.148597 0
M  V30 4036 C 384.739 1.55085 0.69875 0
M  V30 4037 O 385.924 1.83384 0.639053 0
M  V30 4038 C 383.054 3.3928 0.742034 0
M  V30 4039 C 382.008 4.28 -0.00291946 0
M  V30 4040 C 381.334 5.25146 1.00625 0
M  V30 4041 C 382.634 5.08938 -1.17385 0
M  V30 4042 H 384.328 2.84231 -0.940909 0
M  V30 4043 H 381.874 1.36659 -0.453908 0
M  V30 4044 H 383.827 4.046 1.17799 0
M  V30 4045 H 382.551 2.86569 1.56671 0
M  V30 4046 H 381.21 3.64192 -0.419504 0
M  V30 4047 H 380.858 4.68721 1.8251 0
M  V30 4048 H 380.558 5.85361 0.512428 0
M  V30 4049 H 382.082 5.93342 1.44143 0
M  V30 4050 H 383.496 5.67474 -0.815224 0
M  V30 4051 H 381.893 5.7841 -1.59882 0
M  V30 4052 H 382.963 4.42424 -1.98468 0
M  V30 4053 N 384.306 0.507319 1.49211 0
M  V30 4054 C 385.554 -0.0348839 2.0207 0
M  V30 4055 C 385.875 -1.36898 1.38866 0
M  V30 4056 O 385.145 -1.88133 0.546151 0
M  V30 4057 H 383.725 -0.0158812 0.746831 0
M  V30 4058 H 386.387 0.665998 1.83168 0
M  V30 4059 H 385.483 -0.159917 3.1169 0
M  V30 4060 N 385.784 -1.5574 0.241426 0
M  V30 4061 C 386.714 -2.24133 -0.654722 0
M  V30 4062 C 387.695 -1.21974 -1.1856 0
M  V30 4063 O 388.88 -1.50612 -1.22595 0
M  V30 4064 C 386.01 -2.93659 -1.85423 0
M  V30 4065 C 384.964 -4.0246 -1.45636 0
M  V30 4066 C 384.29 -4.59383 -2.73626 0
M  V30 4067 C 385.59 -5.18468 -0.631506 0
M  V30 4068 H 387.284 -2.99281 -0.0844353 0
M  V30 4069 H 384.83 -1.43947 -0.0391707 0
M  V30 4070 H 386.783 -3.40203 -2.48676 0
M  V30 4071 H 385.507 -2.15991 -2.44981 0
M  V30 4072 H 384.166 -3.56676 -0.847202 0
M  V30 4073 H 383.814 -3.78422 -3.3137 0
M  V30 4074 H 383.514 -5.32826 -2.4773 0
M  V30 4075 H 385.038 -5.08658 -3.37786 0
M  V30 4076 H 386.452 -5.61272 -1.1682 0
M  V30 4077 H 384.849 -5.98266 -0.468831 0
M  V30 4078 H 385.919 -4.8358 0.357506 0
M  V30 4079 N 387.262 0.0317525 -1.57568 0
M  V30 4080 C 388.194 1.06073 -2.03178 0
M  V30 4081 C 389.207 1.32627 -0.944132 0
M  V30 4082 O 390.396 1.30162 -1.22148 0
M  V30 4083 C 387.496 2.40297 -2.38978 0
M  V30 4084 C 386.669 2.33137 -3.70089 0
M  V30 4085 C 385.728 3.49787 -3.9311 0
M  V30 4086 O 384.754 3.29403 -4.64201 0
M  V30 4087 N 385.956 4.71562 -3.38541 0
M  V30 4088 H 388.721 0.672006 -2.92069 0
M  V30 4089 H 386.282 0.219745 -1.60402 0
M  V30 4090 H 388.274 3.1705 -2.51518 0
M  V30 4091 H 386.844 2.71024 -1.55771 0
M  V30 4092 H 386.064 1.415 -3.67928 0
M  V30 4093 H 387.352 2.25493 -4.56104 0
M  V30 4094 H 386.75 4.91024 -2.80912 0
M  V30 4095 H 385.307 5.45689 -3.56464 0
M  V30 4096 N 388.74 1.54641 0.303973 0
M  V30 4097 C 390.017 1.64455 1.05896 0
M  V30 4098 C 390.397 0.490923 2.05312 0
M  V30 4099 O 389.745 -0.512685 2.22674 0
M  V30 4100 C 389.955 3.02331 1.74347 0
M  V30 4101 C 391.303 3.59045 2.26653 0
M  V30 4102 O 392.327 3.04764 1.84384 0
M  V30 4103 O 391.186 4.54081 3.04093 0
M  V30 4104 H 388.28 0.666729 0.489287 0
M  V30 4105 H 390.826 1.66986 0.302298 0
M  V30 4106 H 389.598 3.77734 1.02142 0
M  V30 4107 H 389.221 3.03565 2.56777 0
M  V30 4108 N 390.218 -0.567019 1.47046 0
M  V30 4109 C 391.165 -1.67489 1.58796 0
M  V30 4110 C 392.135 -1.60399 0.43144 0
M  V30 4111 O 393.32 -1.79378 0.650233 0
M  V30 4112 C 390.46 -3.05821 1.59899 0
M  V30 4113 C 389.573 -3.2342 2.86397 0
M  V30 4114 C 388.708 -4.52093 2.789 0
M  V30 4115 C 387.747 -4.6309 4.00267 0
M  V30 4116 N 386.884 -5.83106 3.91064 0
M  V30 4117 H 391.724 -1.56785 2.53422 0
M  V30 4118 H 389.261 -0.763896 1.2571 0
M  V30 4119 H 391.219 -3.8591 1.58522 0
M  V30 4120 H 389.849 -3.15384 0.687929 0
M  V30 4121 H 388.901 -2.3683 2.97684 0
M  V30 4122 H 390.213 -3.27412 3.76301 0
M  V30 4123 H 389.367 -5.4043 2.75718 0
M  V30 4124 H 388.106 -4.50565 1.86662 0
M  V30 4125 H 387.111 -3.73168 4.03765 0
M  V30 4126 H 388.336 -4.66386 4.93621 0
M  V30 4127 H 386.282 -5.82546 3.01623 0
M  V30 4128 H 386.199 -5.88434 4.74638 0
M  V30 4129 H 387.467 -6.73831 3.91882 0
M  V30 4130 N 391.696 -1.35014 -0.812953 0
M  V30 4131 C 392.945 -1.27269 -1.56479 0
M  V30 4132 C 393.258 0.152771 -1.95002 0
M  V30 4133 O 394.464 0.352451 -2.69203 0
M  V30 4134 C 392.92 -2.23159 -2.82362 0
M  V30 4135 C 392.528 -3.71016 -2.511 0
M  V30 4136 C 394.272 -2.24342 -3.60376 0
M  V30 4137 C 392.179 -4.58746 -3.73237 0
M  V30 4138 H 391.109 -0.472829 -0.587324 0
M  V30 4139 H 393.76 -1.6024 -0.894171 0
M  V30 4140 H 392.142 -1.83151 -3.51101 0
M  V30 4141 H 393.316 -4.1962 -1.90409 0
M  V30 4142 H 391.631 -3.72378 -1.86343 0
M  V30 4143 H 394.228 -2.87107 -4.51081 0
M  V30 4144 H 394.571 -1.24542 -3.97234 0
M  V30 4145 H 395.104 -2.62846 -2.98591 0
M  V30 4146 H 391.843 -5.59521 -3.41492 0
M  V30 4147 H 391.363 -4.14871 -4.33176 0
M  V30 4148 H 393.042 -4.73852 -4.40537 0
M  V30 4149 N 393.175 1.03435 -1.18907 0
M  V30 4150 C 394.122 2.11591 -0.921837 0
M  V30 4151 C 395.092 1.65499 0.141226 0
M  V30 4152 O 396.277 1.908 0.000242829 0
M  V30 4153 C 393.417 3.42012 -0.460616 0
M  V30 4154 C 392.53 4.01682 -1.58982 0
M  V30 4155 C 391.665 5.20091 -1.08069 0
M  V30 4156 C 390.704 5.71805 -2.18416 0
M  V30 4157 N 389.841 6.81494 -1.68849 0
M  V30 4158 H 394.681 2.33787 -1.8479 0
M  V30 4159 H 392.218 1.1467 -0.921373 0
M  V30 4160 H 394.176 4.16834 -0.174642 0
M  V30 4161 H 392.806 3.19944 0.428467 0
M  V30 4162 H 391.858 3.24127 -1.99113 0
M  V30 4163 H 393.17 4.36084 -2.4214 0
M  V30 4164 H 392.324 6.02051 -0.749615 0
M  V30 4165 H 391.063 4.87209 -0.218771 0
M  V30 4166 H 390.068 4.88461 -2.5236 0
M  V30 4167 H 391.293 6.06728 -3.05054 0
M  V30 4168 H 389.239 6.50475 -0.849572 0
M  V30 4169 H 389.156 7.14994 -2.45601 0
M  V30 4170 H 390.424 7.67063 -1.38689 0
M  V30 4171 N 394.653 0.992116 1.22453 0
M  V30 4172 C 395.563 0.55065 2.28046 0
M  V30 4173 C 396.579 -0.400189 1.69335 0
M  V30 4174 O 397.755 -0.267215 1.99619 0
M  V30 4175 C 394.82 -0.128496 3.46462 0
M  V30 4176 C 393.881 0.865208 4.20491 0
M  V30 4177 C 393.114 0.218377 5.33253 0
M  V30 4178 O 393.337 -0.987894 5.6178 0
M  V30 4179 O 392.271 0.922845 5.94783 0
M  V30 4180 H 396.097 1.4291 2.67975 0
M  V30 4181 H 393.682 0.760326 1.28606 0
M  V30 4182 H 395.564 -0.508947 4.18315 0
M  V30 4183 H 394.239 -0.981526 3.0846 0
M  V30 4184 H 393.146 1.29658 3.50913 0
M  V30 4185 H 394.479 1.68741 4.62371 0
M  V30 4186 N 396.131 -1.37776 0.765217 0
M  V30 4187 C 397.377 -2.00145 0.327072 0
M  V30 4188 C 397.71 -1.60607 -1.09175 0
M  V30 4189 O 396.985 -0.849127 -1.74986 0
M  V30 4190 C 397.268 -3.57109 0.46319 0
M  V30 4191 C 397.121 -4.06576 1.92395 0
M  V30 4192 C 398.44 -4.39888 -0.136473 0
M  V30 4193 H 395.559 -0.727113 0.120316 0
M  V30 4194 H 398.201 -1.63549 0.967039 0
M  V30 4195 H 396.351 -3.88414 -0.0816358 0
M  V30 4196 H 398.023 -3.85864 2.52798 0
M  V30 4197 H 396.266 -3.59011 2.43503 0
M  V30 4198 H 396.937 -5.15639 1.97028 0
M  V30 4199 H 399.413 -4.14803 0.328317 0
M  V30 4200 H 398.289 -5.48899 -0.0110582 0
M  V30 4201 H 398.55 -4.24758 -1.22608 0
M  V30 4202 N 397.609 -0.515225 -1.4894 0
M  V30 4203 C 399.02 -0.0710067 -1.86565 0
M  V30 4204 C 399.371 1.34733 -1.42623 0
M  V30 4205 O 398.496 2.00653 -0.810379 0
M  V30 4206 C 399.091 -0.122083 -3.3858 0
M  V30 4207 C 397.65 0.266863 -3.75453 0
M  V30 4208 C 396.797 -0.488376 -2.72966 0
M  V30 4209 H 399.748 -0.727266 -1.41055 0
M  V30 4210 H 399.769 0.669818 -3.74558 0
M  V30 4211 H 399.281 -1.15448 -3.70531 0
M  V30 4212 H 397.382 1.30196 -3.49113 0
M  V30 4213 H 397.495 -0.0624811 -4.79059 0
M  V30 4214 H 395.859 0.0635622 -2.54621 0
M  V30 4215 H 396.642 -1.52113 -3.07761 0
M  V30 4216 N 399.087 1.5561 -0.249682 0
M  V30 4217 C 400.503 1.59254 0.105103 0
M  V30 4218 C 400.703 1.26685 1.56694 0
M  V30 4219 O 399.759 1.0155 2.31179 0
M  V30 4220 C 401.072 2.99687 -0.246592 0
M  V30 4221 C 402.62 3.12416 -0.191118 0
M  V30 4222 C 403.095 4.55074 -0.516885 0
M  V30 4223 N 404.586 4.60835 -0.467489 0
M  V30 4224 C 405.321 5.69201 -0.69268 0
M  V30 4225 N 404.817 6.85817 -0.981146 0
M  V30 4226 N 406.61 5.58635 -0.623198 0
M  V30 4227 H 398.761 1.75049 -1.20298 0
M  V30 4228 H 401.024 0.815003 -0.484225 0
M  V30 4229 H 400.73 3.28267 -1.26228 0
M  V30 4230 H 400.604 3.74798 0.424962 0
M  V30 4231 H 402.991 2.83615 0.815247 0
M  V30 4232 H 403.072 2.39573 -0.896563 0
M  V30 4233 H 402.716 4.84596 -1.52082 0
M  V30 4234 H 402.646 5.26181 0.210068 0
M  V30 4235 H 405.137 3.7705 -0.253373 0
M  V30 4236 H 405.45 7.64341 -1.14032 0
M  V30 4237 H 403.795 6.87494 -1.01865 0
M  V30 4238 H 406.986 4.66406 -0.397863 0
M  V30 4239 H 407.159 6.43017 -0.802093 0
M  V30 4240 N 400.565 -0.0233959 1.57583 0
M  V30 4241 C 401.976 -0.56927 1.77809 0
M  V30 4242 C 402.327 -1.75284 0.881472 0
M  V30 4243 O 401.452 -2.1626 0.0777805 0
M  V30 4244 C 402.047 -1.03949 3.22459 0
M  V30 4245 C 400.606 -1.53084 3.43864 0
M  V30 4246 C 399.753 -0.471454 2.73263 0
M  V30 4247 H 402.704 0.202825 1.57399 0
M  V30 4248 H 402.725 -1.90661 3.29285 0
M  V30 4249 H 402.237 -0.177865 3.87692 0
M  V30 4250 H 400.338 -2.41414 2.83814 0
M  V30 4251 H 400.451 -1.57443 4.52491 0
M  V30 4252 H 398.815 -0.927788 2.37201 0
M  V30 4253 H 399.598 0.380808 3.41181 0
M  V30 4254 N 402.043 -1.548 -0.295768 0
M  V30 4255 C 403.459 -1.4613 -0.641722 0
M  V30 4256 C 403.659 -0.656771 -1.90496 0
M  V30 4257 O 402.715 -0.166547 -2.5195 0
M  V30 4258 C 404.028 -2.90141 -0.789852 0
M  V30 4259 C 405.576 -3.00216 -0.885396 0
M  V30 4260 C 406.051 -4.45434 -1.06548 0
M  V30 4261 N 407.542 -4.49166 -1.13156 0
M  V30 4262 C 408.277 -5.58717 -1.28929 0
M  V30 4263 N 407.773 -6.78182 -1.41567 0
M  V30 4264 N 409.566 -5.46415 -1.31859 0
M  V30 4265 H 401.717 -2.05574 0.534147 0
M  V30 4266 H 403.98 -0.931259 0.177372 0
M  V30 4267 H 403.686 -3.51635 0.0675598 0
M  V30 4268 H 403.56 -3.37859 -1.67724 0
M  V30 4269 H 405.947 -2.38833 -1.73329 0
M  V30 4270 H 406.028 -2.55787 0.0261185 0
M  V30 4271 H 405.672 -5.07413 -0.222335 0
M  V30 4272 H 405.602 -4.87499 -1.9913 0
M  V30 4273 H 408.093 -3.631 -1.04721 0
M  V30 4274 H 408.406 -7.57428 -1.53372 0
M  V30 4275 H 406.751 -6.81037 -1.38613 0
M  V30 4276 H 409.942 -4.5203 -1.21601 0
M  V30 4277 H 410.115 -6.31841 -1.43808 0
M  V30 4278 N 403.521 0.559213 -1.47345 0
M  V30 4279 C 404.468 1.66645 -1.59682 0
M  V30 4280 C 405.438 1.60168 -0.43994 0
M  V30 4281 O 406.623 1.79031 -0.659736 0
M  V30 4282 C 403.763 3.04969 -1.61518 0
M  V30 4283 C 402.876 3.21897 -2.88108 0
M  V30 4284 C 402.011 4.50608 -2.81294 0
M  V30 4285 C 401.05 4.60961 -4.02717 0
M  V30 4286 N 400.187 5.81024 -3.94151 0
M  V30 4287 H 405.027 1.55439 -2.54249 0
M  V30 4288 H 402.564 0.757219 -1.26113 0
M  V30 4289 H 404.522 3.85064 -1.60566 0
M  V30 4290 H 403.152 3.15015 -0.704645 0
M  V30 4291 H 402.204 2.35248 -2.98936 0
M  V30 4292 H 403.516 3.25412 -3.78032 0
M  V30 4293 H 402.67 5.3896 -2.7858 0
M  V30 4294 H 401.409 4.49568 -1.89049 0
M  V30 4295 H 400.414 3.71021 -4.05738 0
M  V30 4296 H 401.639 4.63761 -4.96087 0
M  V30 4297 H 399.585 5.80938 -3.04708 0
M  V30 4298 H 399.502 5.85909 -4.77752 0
M  V30 4299 H 400.77 6.71744 -3.9545 0
M  V30 4300 N 404.999 1.35443 0.805782 0
M  V30 4301 C 406.415 1.15499 1.10146 0
M  V30 4302 C 406.615 -0.0319975 2.01475 0
M  V30 4303 O 405.671 -0.70236 2.42535 0
M  V30 4304 C 406.984 2.45833 1.73166 0
M  V30 4305 C 408.532 2.52047 1.85583 0
M  V30 4306 C 409.007 3.82427 2.52019 0
M  V30 4307 N 410.498 3.83682 2.59504 0
M  V30 4308 C 411.233 4.81294 3.11679 0
M  V30 4309 N 410.729 5.89294 3.64287 0
M  V30 4310 N 412.522 4.6873 3.1024 0
M  V30 4311 H 404.673 2.11469 0.198678 0
M  V30 4312 H 406.936 0.93594 0.150731 0
M  V30 4313 H 406.642 3.32874 1.13526 0
M  V30 4314 H 406.516 2.6044 2.72857 0
M  V30 4315 H 408.903 1.65435 2.44367 0
M  V30 4316 H 408.984 2.41354 0.847455 0
M  V30 4317 H 408.628 4.69437 1.93885 0
M  V30 4318 H 408.558 3.90409 3.53395 0
M  V30 4319 H 411.049 3.05648 2.22234 0
M  V30 4320 H 411.362 6.59768 4.02401 0
M  V30 4321 H 409.707 5.92985 3.62483 0
M  V30 4322 H 412.898 3.83496 2.68419 0
M  V30 4323 H 413.071 5.44965 3.50596 0
M  V30 4324 N 406.477 -1.02803 1.19454 0
M  V30 4325 C 407.407 -2.12999 0.956758 0
M  V30 4326 C 408.388 -1.69743 -0.110188 0
M  V30 4327 O 409.573 -1.94148 0.0450038 0
M  V30 4328 C 406.703 -3.43746 0.495553 0
M  V30 4329 C 405.657 -4.00688 1.50443 0
M  V30 4330 C 404.983 -5.27067 0.900275 0
M  V30 4331 C 406.283 -4.35397 2.8849 0
M  V30 4332 H 407.977 -2.33148 1.87836 0
M  V30 4333 H 405.523 -1.12045 0.904539 0
M  V30 4334 H 407.476 -4.2021 0.316493 0
M  V30 4335 H 406.2 -3.23321 -0.461646 0
M  V30 4336 H 404.859 -3.2632 1.67065 0
M  V30 4337 H 404.507 -5.02959 -0.064503 0
M  V30 4338 H 404.207 -5.66127 1.57397 0
M  V30 4339 H 405.731 -6.06196 0.73203 0
M  V30 4340 H 407.145 -5.02795 2.75446 0
M  V30 4341 H 405.542 -4.85541 3.52661 0
M  V30 4342 H 406.612 -3.44662 3.41081 0
M  V30 4343 N 407.956 -0.998596 -1.21925 0
M  V30 4344 C 409.184 -0.696286 -1.94832 0
M  V30 4345 C 409.599 0.740032 -1.73692 0
M  V30 4346 O 408.956 1.5 -1.03953 0
M  V30 4347 C 409.007 -0.999833 -3.47398 0
M  V30 4348 O 408.728 -2.37972 -3.67833 0
M  V30 4349 C 410.229 -0.716025 -4.37479 0
M  V30 4350 H 407.449 -0.257111 -0.619786 0
M  V30 4351 H 409.993 -1.33491 -1.54921 0
M  V30 4352 H 408.148 -0.406918 -3.85257 0
M  V30 4353 H 408.562 -2.48338 -4.61983 0
M  V30 4354 H 410.036 -0.978642 -5.43256 0
M  V30 4355 H 410.513 0.349968 -4.37803 0
M  V30 4356 H 411.119 -1.29025 -4.05256 0
M  V30 4357 N 409.434 1.37368 -0.772513 0
M  V30 4358 C 410.344 2.34053 -0.160081 0
M  V30 4359 C 411.36 1.60216 0.678728 0
M  V30 4360 O 412.536 1.92303 0.59847 0
M  V30 4361 C 409.601 3.3939 0.708182 0
M  V30 4362 C 408.662 4.29048 -0.147172 0
M  V30 4363 C 407.895 5.29354 0.679744 0
M  V30 4364 O 408.118 5.3723 1.91678 0
M  V30 4365 O 407.052 6.01835 0.0885444 0
M  V30 4366 H 410.878 2.88159 -0.959053 0
M  V30 4367 H 408.463 1.39543 -0.533685 0
M  V30 4368 H 410.345 4.03839 1.20384 0
M  V30 4369 H 409.02 2.8761 1.48533 0
M  V30 4370 H 407.927 3.67697 -0.689205 0
M  V30 4371 H 409.26 4.84134 -0.887423 0
M  V30 4372 N 410.912 0.523116 1.48665 0
M  V30 4373 C 411.842 -0.23231 2.32342 0
M  V30 4374 C 412.823 -0.941637 1.41659 0
M  V30 4375 O 414.008 -0.928751 1.70552 0
M  V30 4376 C 411.138 -1.28387 3.22698 0
M  V30 4377 C 410.092 -0.693098 4.22351 0
M  V30 4378 C 409.418 -1.8468 5.01794 0
M  V30 4379 C 410.718 0.33063 5.21252 0
M  V30 4380 H 412.412 0.466192 2.95748 0
M  V30 4381 H 409.958 0.225643 1.42221 0
M  V30 4382 H 411.911 -1.82024 3.80059 0
M  V30 4383 H 410.635 -2.01186 2.57278 0
M  V30 4384 H 409.294 -0.178299 3.66166 0
M  V30 4385 H 408.942 -2.56301 4.32804 0
M  V30 4386 H 408.642 -1.45747 5.69238 0
M  V30 4387 H 410.166 -2.38709 5.62006 0
M  V30 4388 H 411.58 -0.118407 5.73178 0
M  V30 4389 H 409.977 0.636974 5.9671 0
M  V30 4390 H 411.047 1.23883 4.68808 0
M  V30 4391 N 412.39 -1.55475 0.257931 0
M  V30 4392 C 413.32 -2.24815 -0.630912 0
M  V30 4393 C 414.301 -1.23224 -1.17259 0
M  V30 4394 O 415.486 -1.51904 -1.20991 0
M  V30 4395 C 412.616 -2.95609 -1.82298 0
M  V30 4396 C 411.57 -4.03982 -1.41359 0
M  V30 4397 C 410.896 -4.6226 -2.68738 0
M  V30 4398 C 412.196 -5.19109 -0.57648 0
M  V30 4399 H 413.89 -2.99354 -0.0526878 0
M  V30 4400 H 411.436 -1.4398 -0.023901 0
M  V30 4401 H 413.389 -3.42822 -2.45054 0
M  V30 4402 H 412.113 -2.18577 -2.42676 0
M  V30 4403 H 410.772 -3.57555 -0.809324 0
M  V30 4404 H 410.42 -3.81915 -3.27338 0
M  V30 4405 H 410.12 -5.35424 -2.42065 0
M  V30 4406 H 411.644 -5.12212 -3.32372 0
M  V30 4407 H 413.058 -5.62479 -1.10861 0
M  V30 4408 H 411.455 -5.98729 -0.405351 0
M  V30 4409 H 412.525 -4.83174 0.408776 0
M  V30 4410 N 413.868 0.0150385 -1.57593 0
M  V30 4411 C 414.798 1.01047 -2.10503 0
M  V30 4412 C 415.779 1.36816 -1.01071 0
M  V30 4413 O 416.964 1.45455 -1.28672 0
M  V30 4414 C 414.094 2.30708 -2.59598 0
M  V30 4415 C 413.048 2.09142 -3.73421 0
M  V30 4416 C 412.374 3.44685 -4.08774 0
M  V30 4417 C 413.674 1.46619 -5.01298 0
M  V30 4418 H 415.368 0.569978 -2.93925 0
M  V30 4419 H 412.914 0.272724 -1.41394 0
M  V30 4420 H 414.867 3.00687 -2.95238 0
M  V30 4421 H 413.591 2.76843 -1.73279 0
M  V30 4422 H 412.25 1.41592 -3.38153 0
M  V30 4423 H 411.898 3.88495 -3.195 0
M  V30 4424 H 411.598 3.31077 -4.8545 0
M  V30 4425 H 413.122 4.16004 -4.4696 0
M  V30 4426 H 414.536 2.06535 -5.34805 0
M  V30 4427 H 412.933 1.43544 -5.82679 0
M  V30 4428 H 414.003 0.433611 -4.82957 0
M  V30 4429 N 415.346 1.54954 0.287554 0
M  V30 4430 C 416.762 1.46469 0.633964 0
M  V30 4431 C 416.962 0.666865 1.90145 0
M  V30 4432 O 416.018 0.179906 2.51858 0
M  V30 4433 C 417.331 2.90556 0.774454 0
M  V30 4434 C 418.879 3.00681 0.869462 0
M  V30 4435 C 419.354 4.45993 1.04184 0
M  V30 4436 N 420.845 4.4976 1.10772 0
M  V30 4437 C 421.58 5.59393 1.25964 0
M  V30 4438 N 421.076 6.78923 1.37968 0
M  V30 4439 N 422.869 5.47107 1.28959 0
M  V30 4440 H 415.02 2.05288 -0.545041 0
M  V30 4441 H 417.283 0.930305 -0.182308 0
M  V30 4442 H 416.989 3.51594 -0.086207 0
M  V30 4443 H 416.863 3.38743 1.6593 0
M  V30 4444 H 419.25 2.39749 1.7206 0
M  V30 4445 H 419.331 2.55769 -0.0396831 0
M  V30 4446 H 418.975 5.07524 0.195422 0
M  V30 4447 H 418.905 4.88548 1.96542 0
M  V30 4448 H 421.396 3.63651 1.02794 0
M  V30 4449 H 421.709 7.58231 1.49353 0
M  V30 4450 H 420.054 6.81763 1.34999 0
M  V30 4451 H 423.245 4.52668 1.19202 0
M  V30 4452 H 423.418 6.32595 1.40455 0
M  V30 4453 N 416.824 -0.551391 1.4764 0
M  V30 4454 C 418.052 -1.33357 1.58189 0
M  V30 4455 C 418.467 -1.87342 0.234199 0
M  V30 4456 O 417.824 -1.65301 -0.77343 0
M  V30 4457 C 417.875 -2.49942 2.61173 0
M  V30 4458 O 417.596 -1.98187 3.90709 0
M  V30 4459 C 419.097 -3.42072 2.8196 0
M  V30 4460 H 416.317 -0.40631 0.533998 0
M  V30 4461 H 418.861 -0.667367 1.93304 0
M  V30 4462 H 417.016 -3.12489 2.28975 0
M  V30 4463 H 417.43 -2.74342 4.47031 0
M  V30 4464 H 418.904 -4.20278 3.57869 0
M  V30 4465 H 419.381 -3.95978 1.89995 0
M  V30 4466 H 419.987 -2.85336 3.15378 0
M  V30 4467 N 418.302 -1.35869 -0.798587 0
M  V30 4468 C 419.265 -1.29307 -1.89242 0
M  V30 4469 C 420.265 -0.202747 -1.59517 0
M  V30 4470 O 421.455 -0.456957 -1.681 0
M  V30 4471 C 418.587 -1.00229 -3.25833 0
M  V30 4472 H 419.78 -2.26576 -1.96478 0
M  V30 4473 H 417.333 -1.20509 -0.995358 0
M  V30 4474 H 418.068 -0.033801 -3.24282 0
M  V30 4475 H 417.853 -1.79121 -3.48795 0
M  V30 4476 H 419.343 -0.98219 -4.05885 0
M  V30 4477 N 419.78 1.02168 -1.19998 0
M  V30 4478 C 421.008 1.79296 -1.03249 0
M  V30 4479 C 421.423 1.84103 0.418502 0
M  V30 4480 O 420.78 1.29031 1.29063 0
M  V30 4481 C 420.831 3.24007 -1.60319 0
M  V30 4482 O 420.552 3.19512 -2.99739 0
M  V30 4483 C 422.053 4.17704 -1.48453 0
M  V30 4484 H 419.273 0.564016 -0.363493 0
M  V30 4485 H 421.817 1.28639 -1.58973 0
M  V30 4486 H 419.972 3.7183 -1.08727 0
M  V30 4487 H 420.386 4.10306 -3.26725 0
M  V30 4488 H 421.86 5.17104 -1.93153 0
M  V30 4489 H 422.337 4.37029 -0.436193 0
M  V30 4490 H 422.943 3.7576 -1.99211 0
M  V30 4491 N 421.258 1.00505 1.21394 0
M  V30 4492 C 422.168 0.574806 2.27449 0
M  V30 4493 C 423.184 -0.382206 1.6975 0
M  V30 4494 O 424.36 -0.246027 1.99892 0
M  V30 4495 C 421.425 -0.0917414 3.46579 0
M  V30 4496 C 420.486 0.909758 4.1955 0
M  V30 4497 C 419.719 0.274924 5.32991 0
M  V30 4498 O 419.942 -0.928254 5.62796 0
M  V30 4499 O 418.876 0.985877 5.93771 0
M  V30 4500 H 422.702 1.45744 2.66444 0
M  V30 4501 H 420.287 0.773923 1.27792 0
M  V30 4502 H 422.169 -0.464551 4.18832 0
M  V30 4503 H 420.844 -0.948755 3.09484 0
M  V30 4504 H 419.751 1.33372 3.49518 0
M  V30 4505 H 421.084 1.73636 4.60555 0
M  V30 4506 N 422.737 -1.36956 0.779787 0
M  V30 4507 C 423.684 -2.30175 0.169697 0
M  V30 4508 C 424.654 -1.51501 -0.68094 0
M  V30 4509 O 425.839 -1.80042 -0.631629 0
M  V30 4510 C 422.979 -3.37985 -0.697131 0
M  V30 4511 C 422.092 -4.31661 0.170992 0
M  V30 4512 C 421.227 -5.2655 -0.701298 0
M  V30 4513 C 420.266 -6.11867 0.168869 0
M  V30 4514 N 419.403 -6.98973 -0.661855 0
M  V30 4515 H 424.243 -2.81767 0.970135 0
M  V30 4516 H 421.78 -1.38699 0.489994 0
M  V30 4517 H 423.738 -3.99128 -1.2146 0
M  V30 4518 H 422.368 -2.87739 -1.46309 0
M  V30 4519 H 421.42 -3.71756 0.80634 0
M  V30 4520 H 422.732 -4.91644 0.841875 0
M  V30 4521 H 421.886 -5.92937 -1.28494 0
M  V30 4522 H 420.625 -4.66998 -1.40584 0
M  V30 4523 H 419.63 -5.44452 0.764986 0
M  V30 4524 H 420.855 -6.73493 0.870863 0
M  V30 4525 H 418.801 -6.41941 -1.35086 0
M  V30 4526 H 418.718 -7.55984 -0.0484447 0
M  V30 4527 H 419.986 -7.6974 -1.22963 0
M  V30 4528 N 424.215 -0.530993 -1.48385 0
M  V30 4529 C 425.626 -0.0907905 -1.86479 0
M  V30 4530 C 425.977 1.33213 -1.44044 0
M  V30 4531 O 425.102 1.99783 -0.831615 0
M  V30 4532 C 425.697 -0.157987 -3.38431 0
M  V30 4533 C 424.256 0.227026 -3.75715 0
M  V30 4534 C 423.403 -0.5173 -2.72432 0
M  V30 4535 H 426.354 -0.742186 -1.40276 0
M  V30 4536 H 426.375 0.630053 -3.75247 0
M  V30 4537 H 425.887 -1.19372 -3.69286 0
M  V30 4538 H 423.988 1.26486 -3.50474 0
M  V30 4539 H 424.101 -0.113288 -4.78966 0
M  V30 4540 H 422.465 0.0365527 -2.54674 0
M  V30 4541 H 423.248 -1.55368 -3.0613 0
M  V30 4542 N 425.693 1.55336 -0.266172 0
M  V30 4543 C 426.941 1.99003 0.35246 0
M  V30 4544 C 427.262 1.15591 1.57047 0
M  V30 4545 O 426.532 0.243268 1.94384 0
M  V30 4546 H 425.112 0.735025 0.133217 0
M  V30 4547 H 427.774 1.91367 -0.369434 0
M  V30 4548 H 426.87 3.05289 0.648453 0
M  V30 4549 N 427.171 -0.0066808 1.57599 0
M  V30 4550 C 428.582 -0.550379 1.78403 0
M  V30 4551 C 428.933 -1.74339 0.900014 0
M  V30 4552 O 428.058 -2.16166 0.100713 0
M  V30 4553 C 428.653 -1.00523 3.23544 0
M  V30 4554 C 427.212 -1.49428 3.45468 0
M  V30 4555 C 426.359 -0.442444 2.73748 0
M  V30 4556 H 429.31 0.219508 1.57175 0
M  V30 4557 H 429.331 -1.87157 3.31289 0
M  V30 4558 H 428.843 -0.136735 3.87859 0
M  V30 4559 H 426.944 -2.3839 2.86358 0
M  V30 4560 H 427.057 -1.52635 4.54136 0
M  V30 4561 H 425.421 -0.902578 2.38171 0
M  V30 4562 H 426.204 0.416973 3.40758 0
M  V30 4563 N 428.649 -1.55105 -0.279332 0
M  V30 4564 C 429.612 -1.86783 -1.32834 0
M  V30 4565 C 430.612 -0.74199 -1.42657 0
M  V30 4566 O 431.802 -1.0102 -1.41918 0
M  V30 4567 C 428.934 -2.06746 -2.71052 0
M  V30 4568 H 430.127 -2.8055 -1.05979 0
M  V30 4569 H 427.68 -1.47499 -0.517087 0
M  V30 4570 H 428.415 -1.15339 -3.03097 0
M  V30 4571 H 428.2 -2.88711 -2.65309 0
M  V30 4572 H 429.69 -2.32549 -3.46858 0
M  V30 4573 N 430.127 0.543554 -1.4793 0
M  V30 4574 C 431.037 1.67657 -1.64098 0
M  V30 4575 C 432.053 1.65934 -0.523622 0
M  V30 4576 O 433.229 1.85133 -0.792943 0
M  V30 4577 C 430.294 3.04146 -1.66421 0
M  V30 4578 C 429.355 3.16831 -2.89684 0
M  V30 4579 C 428.588 4.46809 -2.91886 0
M  V30 4580 O 428.811 5.33095 -2.02895 0
M  V30 4581 O 427.745 4.63573 -3.83906 0
M  V30 4582 H 431.571 1.56957 -2.59997 0
M  V30 4583 H 429.156 0.715116 -1.31173 0
M  V30 4584 H 431.038 3.85346 -1.70548 0
M  V30 4585 H 429.713 3.152 -0.736923 0
M  V30 4586 H 428.62 2.34977 -2.91095 0
M  V30 4587 H 429.953 3.10687 -3.81752 0
M  V30 4588 N 431.605 1.3629 0.791371 0
M  V30 4589 C 432.568 1.30309 1.88553 0
M  V30 4590 C 433.568 0.211204 1.59407 0
M  V30 4591 O 434.758 0.465865 1.67855 0
M  V30 4592 C 431.89 1.01956 3.25297 0
M  V30 4593 H 433.083 2.27614 1.95273 0
M  V30 4594 H 430.636 1.21035 0.988953 0
M  V30 4595 H 431.371 0.050998 3.2426 0
M  V30 4596 H 431.156 1.80968 3.4784 0
M  V30 4597 H 432.646 1.0037 4.05359 0
M  V30 4598 N 433.083 -1.0153 1.20538 0
M  V30 4599 C 434.046 -2.0826 0.957098 0
M  V30 4600 C 435.046 -1.60657 -0.0678655 0
M  V30 4601 O 436.236 -1.73385 0.168332 0
M  V30 4602 C 433.368 -3.38033 0.441188 0
M  V30 4603 H 434.561 -2.31719 1.90384 0
M  V30 4604 H 432.114 -1.1835 1.02093 0
M  V30 4605 H 432.849 -3.20249 -0.510961 0
M  V30 4606 H 432.634 -3.73911 1.18038 0
M  V30 4607 H 434.124 -4.16613 0.287009 0
M  V30 4608 N 434.561 -1.01147 -1.20859 0
M  V30 4609 C 435.977 -0.725422 -1.42161 0
M  V30 4610 C 436.177 0.696919 -1.89064 0
M  V30 4611 O 435.233 1.46539 -2.05627 0
M  V30 4612 C 436.546 -1.74678 -2.44761 0
M  V30 4613 C 438.094 -1.76433 -2.58535 0
M  V30 4614 C 438.569 -2.77481 -3.64374 0
M  V30 4615 N 440.06 -2.76189 -3.71852 0
M  V30 4616 C 440.795 -3.51035 -4.53389 0
M  V30 4617 N 440.291 -4.35541 -5.38773 0
M  V30 4618 N 442.084 -3.39655 -4.47873 0
M  V30 4619 H 434.235 -1.92979 -0.887282 0
M  V30 4620 H 436.498 -0.833327 -0.451962 0
M  V30 4621 H 436.204 -2.76551 -2.17285 0
M  V30 4622 H 436.078 -1.55472 -3.43669 0
M  V30 4623 H 438.465 -0.75248 -2.85345 0
M  V30 4624 H 438.546 -1.99712 -1.5984 0
M  V30 4625 H 438.19 -3.78827 -3.38308 0
M  V30 4626 H 438.12 -2.51466 -4.6268 0
M  V30 4627 H 440.611 -2.14885 -3.10858 0
M  V30 4628 H 440.924 -4.89432 -5.98061 0
M  V30 4629 H 439.269 -4.39621 -5.38292 0
M  V30 4630 H 442.46 -2.73063 -3.80203 0
M  V30 4631 H 442.633 -3.9824 -5.11184 0
M  V30 4632 N 436.039 1.36541 -0.78704 0
M  V30 4633 C 436.971 2.28761 -0.141773 0
M  V30 4634 C 437.984 1.49365 0.647599 0
M  V30 4635 O 439.173 1.71836 0.483173 0
M  V30 4636 C 436.273 3.28771 0.822368 0
M  V30 4637 C 435.446 4.3732 0.0835594 0
M  V30 4638 C 434.505 5.17307 0.963296 0
M  V30 4639 O 433.531 5.67638 0.421419 0
M  V30 4640 N 434.733 5.33515 2.28784 0
M  V30 4641 H 437.498 2.84777 -0.933919 0
M  V30 4642 H 435.059 1.48682 -0.640735 0
M  V30 4643 H 437.051 3.79169 1.41468 0
M  V30 4644 H 435.621 2.73412 1.5154 0
M  V30 4645 H 434.841 3.88118 -0.689809 0
M  V30 4646 H 436.129 5.0701 -0.426358 0
M  V30 4647 H 435.527 4.94234 2.75226 0
M  V30 4648 H 434.084 5.87165 2.82985 0
M  V30 4649 N 437.518 0.538854 1.48102 0
M  V30 4650 C 438.481 -0.208395 2.28251 0
M  V30 4651 C 439.481 -0.859656 1.35892 0
M  V30 4652 O 440.671 -0.71834 1.58699 0
M  V30 4653 C 437.803 -1.30252 3.15035 0
M  V30 4654 H 438.996 0.495407 2.9578 0
M  V30 4655 H 436.549 0.295112 1.53489 0
M  V30 4656 H 437.284 -2.0393 2.52157 0
M  V30 4657 H 437.069 -0.840551 3.82985 0
M  V30 4658 H 438.559 -1.82787 3.75471 0
M  V30 4659 N 438.996 -1.55193 0.274407 0
M  V30 4660 C 440.221 -2.04446 -0.348824 0
M  V30 4661 C 440.646 -1.15149 -1.48735 0
M  V30 4662 O 440.004 -0.149952 -1.80679 0
M  V30 4663 C 440.052 -3.51431 -0.808009 0
M  V30 4664 O 439.156 -3.65225 -1.91531 0
M  V30 4665 H 438.497 -0.66006 -0.0722276 0
M  V30 4666 H 441.027 -2.00481 0.408498 0
M  V30 4667 H 441.037 -3.92781 -1.10395 0
M  V30 4668 H 439.712 -4.15892 0.0249865 0
M  V30 4669 H 438.289 -3.35778 -1.62196 0
M  V30 4670 N 440.474 -0.00167713 -1.576 0
M  V30 4671 C 441.437 0.974046 -2.07473 0
M  V30 4672 C 442.437 1.27143 -0.984444 0
M  V30 4673 O 443.627 1.21633 -1.24703 0
M  V30 4674 C 440.759 2.29849 -2.51759 0
M  V30 4675 H 441.952 0.54262 -2.9495 0
M  V30 4676 H 439.505 0.245829 -1.54355 0
M  V30 4677 H 440.24 2.77677 -1.67529 0
M  V30 4678 H 440.025 2.09584 -3.31386 0
M  V30 4679 H 441.515 2.9984 -2.90664 0
M  V30 4680 N 441.952 1.55251 0.271103 0
M  V30 4681 C 443.177 1.80306 1.02491 0
M  V30 4682 C 443.602 0.575457 1.79081 0
M  V30 4683 O 442.96 -0.474987 1.74967 0
M  V30 4684 C 443.008 3.02832 1.95768 0
M  V30 4685 O 442.112 2.78051 3.04568 0
M  V30 4686 H 441.453 0.595896 0.292923 0
M  V30 4687 H 443.983 2.02397 0.299436 0
M  V30 4688 H 443.993 3.31616 2.37686 0
M  V30 4689 H 442.668 3.9183 1.39434 0
M  V30 4690 H 441.245 2.60369 2.66951 0
M  V30 4691 N 443.43 -0.535701 1.48216 0
M  V30 4692 C 444.846 -0.863701 1.3421 0
M  V30 4693 C 445.046 -1.98458 0.34879 0
M  V30 4694 O 444.102 -2.51432 -0.23204 0
M  V30 4695 C 445.415 -1.23662 2.74095 0
M  V30 4696 C 446.963 -1.34683 2.82541 0
M  V30 4697 C 447.438 -1.75322 4.23115 0
M  V30 4698 N 448.929 -1.82434 4.2576 0
M  V30 4699 C 449.664 -2.15252 5.31464 0
M  V30 4700 N 449.16 -2.46533 6.47452 0
M  V30 4701 N 450.953 -2.16209 5.18855 0
M  V30 4702 H 443.104 0.203965 2.11418 0
M  V30 4703 H 445.367 0.0286033 0.947568 0
M  V30 4704 H 445.073 -0.486674 3.48316 0
M  V30 4705 H 444.947 -2.18805 3.07253 0
M  V30 4706 H 447.334 -2.08756 2.08579 0
M  V30 4707 H 447.415 -0.376756 2.5301 0
M  V30 4708 H 447.059 -1.01812 4.97591 0
M  V30 4709 H 446.989 -2.7337 4.50085 0
M  V30 4710 H 449.48 -1.6056 3.42095 0
M  V30 4711 H 449.793 -2.70662 7.23852 0
M  V30 4712 H 448.138 -2.44065 6.50736 0
M  V30 4713 H 451.329 -1.91224 4.2726 0
M  V30 4714 H 451.502 -2.41453 6.01335 0
M  V30 4715 N 444.908 -1.36708 -0.784132 0
M  V30 4716 C 445.871 -1.31307 -1.87859 0
M  V30 4717 C 446.871 -0.219654 -1.59293 0
M  V30 4718 O 448.061 -0.47476 -1.67606 0
M  V30 4719 C 445.193 -1.03679 -3.24751 0
M  V30 4720 H 446.386 -2.28647 -1.94064 0
M  V30 4721 H 443.939 -1.21558 -0.98252 0
M  V30 4722 H 444.674 -0.0681936 -3.24228 0
M  V30 4723 H 444.459 -1.82811 -3.46876 0
M  V30 4724 H 445.949 -1.02518 -4.04821 0
M  V30 4725 N 446.386 1.0089 -1.21074 0
M  V30 4726 C 447.632 1.7497 -1.03717 0
M  V30 4727 C 447.987 1.8764 0.425344 0
M  V30 4728 O 447.28 1.39679 1.3115 0
M  V30 4729 C 447.474 3.16335 -1.66334 0
M  V30 4730 C 447.303 3.17449 -3.18522 0
M  V30 4731 C 446.073 3.2425 -3.87543 0
M  V30 4732 C 448.271 3.02877 -4.15656 0
M  V30 4733 N 446.253 3.14949 -5.26954 0
M  V30 4734 C 447.624 3.0143 -5.41793 0
M  V30 4735 C 449.679 2.8715 -4.06755 0
M  V30 4736 C 448.382 2.85869 -6.60054 0
M  V30 4737 C 450.408 2.72944 -5.24648 0
M  V30 4738 C 449.77 2.72171 -6.49694 0
M  V30 4739 H 445.869 0.650627 -0.43383 0
M  V30 4740 H 448.453 1.19944 -1.53367 0
M  V30 4741 H 446.624 3.69638 -1.19256 0
M  V30 4742 H 448.356 3.78888 -1.42219 0
M  V30 4743 H 445.111 3.31288 -3.38446 0
M  V30 4744 H 445.535 3.13651 -5.9996 0
M  V30 4745 H 450.177 2.86557 -3.10878 0
M  V30 4746 H 447.895 2.8521 -7.56096 0
M  V30 4747 H 451.481 2.61782 -5.19578 0
M  V30 4748 H 450.361 2.61307 -7.39384 0
M  V30 4749 N 447.864 1.01787 1.20321 0
M  V30 4750 C 449.112 0.706538 1.89347 0
M  V30 4751 C 449.433 -0.766289 1.79313 0
M  V30 4752 O 448.703 -1.55126 1.19635 0
M  V30 4753 H 447.283 0.258348 0.700903 0
M  V30 4754 H 449.945 1.28974 1.46122 0
M  V30 4755 H 449.041 0.991066 2.95946 0
M  V30 4756 N 449.342 -1.36122 0.79427 0
M  V30 4757 C 450.272 -2.32551 0.210328 0
M  V30 4758 C 451.253 -1.56884 -0.657386 0
M  V30 4759 O 452.438 -1.85014 -0.590207 0
M  V30 4760 C 449.568 -3.41128 -0.651819 0
M  V30 4761 C 448.522 -4.27842 0.116395 0
M  V30 4762 C 447.848 -5.2763 -0.86666 0
M  V30 4763 C 449.148 -5.05647 1.30837 0
M  V30 4764 H 450.842 -2.81636 1.01594 0
M  V30 4765 H 448.388 -1.35407 0.489981 0
M  V30 4766 H 450.341 -4.07581 -1.07031 0
M  V30 4767 H 449.065 -2.90622 -1.49019 0
M  V30 4768 H 447.724 -3.62952 0.515915 0
M  V30 4769 H 447.372 -4.73395 -1.70019 0
M  V30 4770 H 447.072 -5.86514 -0.35705 0
M  V30 4771 H 448.596 -5.96955 -1.28361 0
M  V30 4772 H 450.01 -5.65113 0.965393 0
M  V30 4773 H 448.407 -5.73967 1.75161 0
M  V30 4774 H 449.477 -4.37006 2.10128 0
M  V30 4775 N 450.82 -0.546701 -1.47814 0
M  V30 4776 C 452.236 -0.205717 -1.58269 0
M  V30 4777 C 452.436 1.29153 -1.54667 0
M  V30 4778 O 451.492 2.07098 -1.44453 0
M  V30 4779 C 452.805 -0.823065 -2.89216 0
M  V30 4780 C 454.353 -0.793328 -3.02779 0
M  V30 4781 C 454.828 -1.38955 -4.36412 0
M  V30 4782 N 456.319 -1.35227 -4.43021 0
M  V30 4783 C 457.054 -1.78333 -5.44963 0
M  V30 4784 N 456.55 -2.29246 -6.53772 0
M  V30 4785 N 458.343 -1.69467 -5.35945 0
M  V30 4786 H 450.494 -1.5196 -1.48398 0
M  V30 4787 H 452.757 -0.633078 -0.705632 0
M  V30 4788 H 452.463 -1.8749 -2.97558 0
M  V30 4789 H 452.337 -0.309915 -3.75925 0
M  V30 4790 H 454.724 0.249784 -2.94041 0
M  V30 4791 H 454.805 -1.34412 -2.17639 0
M  V30 4792 H 454.449 -2.43168 -4.45906 0
M  V30 4793 H 454.379 -0.814291 -5.20266 0
M  V30 4794 H 456.87 -0.979739 -3.64979 0
M  V30 4795 H 457.183 -2.60089 -7.27718 0
M  V30 4796 H 455.528 -2.3325 -6.5469 0
M  V30 4797 H 458.719 -1.29477 -4.49837 0
M  V30 4798 H 458.892 -2.03381 -6.15256 0
M  V30 4799 N 452.299 1.55045 -0.282633 0
M  V30 4800 C 453.546 1.9976 0.33199 0
M  V30 4801 C 453.874 1.17105 1.55295 0
M  V30 4802 O 453.129 0.230599 1.94337 0
M  V30 4803 C 453.428 3.49422 0.750938 0
M  V30 4804 C 453.094 4.4941 -0.366228 0
M  V30 4805 C 451.756 4.76471 -0.672964 0
M  V30 4806 C 454.108 5.09054 -1.11864 0
M  V30 4807 C 451.436 5.60442 -1.73556 0
M  V30 4808 C 453.788 5.9418 -2.17102 0
M  V30 4809 C 452.452 6.19558 -2.48402 0
M  V30 4810 H 451.722 0.730974 0.121484 0
M  V30 4811 H 454.369 1.8732 -0.39791 0
M  V30 4812 H 452.674 3.59377 1.56063 0
M  V30 4813 H 454.371 3.81432 1.23736 0
M  V30 4814 H 450.961 4.2844 -0.117041 0
M  V30 4815 H 455.145 4.88165 -0.894925 0
M  V30 4816 H 450.401 5.78349 -1.983 0
M  V30 4817 H 454.575 6.39427 -2.75873 0
M  V30 4818 H 452.202 6.84417 -3.30874 0
M  V30 4819 N 453.777 0.010035 1.57597 0
M  V30 4820 C 455.024 -0.6727 1.91 0
M  V30 4821 C 455.352 -1.73219 0.884614 0
M  V30 4822 O 454.607 -1.95395 -0.109215 0
M  V30 4823 C 454.906 -1.34434 3.31153 0
M  V30 4824 C 454.572 -0.417083 4.48967 0
M  V30 4825 C 453.234 -0.161809 4.80928 0
M  V30 4826 C 455.586 0.220753 5.20732 0
M  V30 4827 C 452.914 0.739426 5.82022 0
M  V30 4828 C 455.266 1.10993 6.22787 0
M  V30 4829 C 453.93 1.37428 6.532 0
M  V30 4830 H 453.2 -0.246158 0.698918 0
M  V30 4831 H 455.847 0.0677145 1.9138 0
M  V30 4832 H 454.152 -2.15905 3.26944 0
M  V30 4833 H 455.849 -1.87883 3.54261 0
M  V30 4834 H 452.439 -0.626217 4.24001 0
M  V30 4835 H 456.623 0.0365643 4.96287 0
M  V30 4836 H 451.879 0.952139 6.03941 0
M  V30 4837 H 456.053 1.61046 6.77523 0
M  V30 4838 H 453.68 2.0743 7.31353 0
M  V30 4839 N 455.255 -1.55392 -0.262866 0
M  V30 4840 C 456.671 -1.47459 -0.610582 0
M  V30 4841 C 456.871 -0.697031 -1.8906 0
M  V30 4842 O 455.927 -0.219952 -2.5154 0
M  V30 4843 C 457.24 -2.91751 -0.728131 0
M  V30 4844 C 458.788 -3.02027 -0.821517 0
M  V30 4845 C 459.263 -4.47594 -0.97076 0
M  V30 4846 N 460.754 -4.51465 -1.03603 0
M  V30 4847 C 461.489 -5.61326 -1.17049 0
M  V30 4848 N 460.985 -6.81032 -1.2715 0
M  V30 4849 N 462.778 -5.49089 -1.20239 0
M  V30 4850 H 454.929 -2.04395 0.577632 0
M  V30 4851 H 457.192 -0.927287 0.197086 0
M  V30 4852 H 456.898 -3.51413 0.142132 0
M  V30 4853 H 456.772 -3.4134 -1.6052 0
M  V30 4854 H 459.159 -2.42456 -1.68224 0
M  V30 4855 H 459.24 -2.55674 0.0803688 0
M  V30 4856 H 458.884 -5.07771 -0.114655 0
M  V30 4857 H 458.814 -4.91613 -1.88745 0
M  V30 4858 H 461.305 -3.6524 -0.96996 0
M  V30 4859 H 461.618 -7.60511 -1.37271 0
M  V30 4860 H 459.963 -6.83824 -1.24136 0
M  V30 4861 H 463.154 -4.54507 -1.11985 0
M  V30 4862 H 463.327 -6.34749 -1.30373 0
M  V30 4863 N 456.733 0.527833 -1.48498 0
M  V30 4864 C 457.958 1.313 -1.60546 0
M  V30 4865 C 458.383 1.86199 -0.26672 0
M  V30 4866 O 457.741 1.64513 0.761918 0
M  V30 4867 C 457.789 2.43818 -2.65678 0
M  V30 4868 O 456.893 3.46916 -2.22987 0
M  V30 4869 H 456.234 0.388784 -0.538277 0
M  V30 4870 H 458.764 0.634896 -1.945 0
M  V30 4871 H 458.774 2.89973 -2.87018 0
M  V30 4872 H 457.449 2.03222 -3.62869 0
M  V30 4873 H 456.026 3.06864 -2.11869 0
M  V30 4874 N 458.211 1.37122 0.776871 0
M  V30 4875 C 459.622 1.28667 1.35284 0
M  V30 4876 C 459.973 -0.0680035 1.96082 0
M  V30 4877 O 459.098 -0.969743 1.93455 0
M  V30 4878 C 459.693 2.32997 2.45963 0
M  V30 4879 C 458.252 2.28191 2.99342 0
M  V30 4880 C 457.399 2.17101 1.72517 0
M  V30 4881 H 460.35 1.47819 0.577527 0
M  V30 4882 H 460.371 1.97366 3.2531 0
M  V30 4883 H 459.883 3.3158 2.01684 0
M  V30 4884 H 457.984 1.33115 3.4801 0
M  V30 4885 H 458.097 3.21397 3.55304 0
M  V30 4886 H 456.461 1.63562 1.95242 0
M  V30 4887 H 457.244 3.17591 1.30348 0
M  V30 4888 N 459.689 -1.00246 1.21608 0
M  V30 4889 C 460.621 -2.09244 0.935401 0
M  V30 4890 C 461.634 -1.62592 -0.0823594 0
M  V30 4891 O 462.823 -1.77865 0.150456 0
M  V30 4892 C 459.923 -3.36724 0.383453 0
M  V30 4893 C 459.096 -4.1245 1.45615 0
M  V30 4894 C 458.155 -5.18219 0.912991 0
M  V30 4895 O 457.181 -5.46337 1.59701 0
M  V30 4896 N 458.383 -5.7987 -0.270478 0
M  V30 4897 H 461.148 -2.33905 1.87373 0
M  V30 4898 H 458.709 -1.16748 1.12167 0
M  V30 4899 H 460.701 -4.047 0.00562157 0
M  V30 4900 H 459.271 -3.09201 -0.459758 0
M  V30 4901 H 458.491 -3.39241 2.00772 0
M  V30 4902 H 459.779 -4.59819 2.17817 0
M  V30 4903 H 459.177 -5.59381 -0.843195 0
M  V30 4904 H 457.734 -6.49126 -0.589794 0
M  V30 4905 N 461.167 -1.02423 -1.1978 0
M  V30 4906 C 462.099 -0.559152 -2.22275 0
M  V30 4907 C 463.112 0.36251 -1.58713 0
M  V30 4908 O 464.301 0.159641 -1.77785 0
M  V30 4909 C 461.401 0.205094 -3.38279 0
M  V30 4910 C 460.574 -0.720361 -4.31427 0
M  V30 4911 C 459.633 -0.00234368 -5.262 0
M  V30 4912 O 458.659 -0.627378 -5.65732 0
M  V30 4913 N 459.861 1.26996 -5.66438 0
M  V30 4914 H 462.626 -1.44064 -2.62804 0
M  V30 4915 H 460.187 -0.902692 -1.34399 0
M  V30 4916 H 462.179 0.694868 -3.9869 0
M  V30 4917 H 460.749 0.987947 -2.96578 0
M  V30 4918 H 459.969 -1.39031 -3.68869 0
M  V30 4919 H 461.257 -1.3495 -4.90577 0
M  V30 4920 H 460.655 1.79858 -5.36347 0
M  V30 4921 H 459.212 1.70432 -6.29123 0
M  V30 4922 N 462.645 1.35699 -0.801477 0
M  V30 4923 C 463.891 1.99208 -0.380022 0
M  V30 4924 C 464.224 1.63445 1.04878 0
M  V30 4925 O 463.499 0.895223 1.72673 0
M  V30 4926 C 463.782 3.55755 -0.557708 0
M  V30 4927 C 463.635 4.01332 -2.03107 0
M  V30 4928 C 464.954 4.40096 0.0197968 0
M  V30 4929 H 462.073 0.723667 -0.139552 0
M  V30 4930 H 464.715 1.60928 -1.01006 0
M  V30 4931 H 462.865 3.88494 -0.0213741 0
M  V30 4932 H 464.537 3.79026 -2.62939 0
M  V30 4933 H 462.78 3.52429 -2.52936 0
M  V30 4934 H 463.451 5.10234 -2.1063 0
M  V30 4935 H 465.927 4.13786 -0.438179 0
M  V30 4936 H 464.803 5.48735 -0.134477 0
M  V30 4937 H 465.064 4.2786 1.11303 0
M  V30 4938 N 464.123 0.554532 1.47522 0
M  V30 4939 C 465.053 -0.182974 2.32782 0
M  V30 4940 C 466.034 -0.911377 1.43624 0
M  V30 4941 O 467.219 -0.892366 1.72483 0
M  V30 4942 C 464.349 -1.21513 3.25349 0
M  V30 4943 C 463.303 -0.603355 4.23726 0
M  V30 4944 C 462.629 -1.73995 5.05598 0
M  V30 4945 C 463.929 0.441121 5.20434 0
M  V30 4946 H 465.623 0.52882 2.94693 0
M  V30 4947 H 463.169 0.255759 1.41711 0
M  V30 4948 H 465.122 -1.73922 3.83835 0
M  V30 4949 H 463.846 -1.95683 2.61487 0
M  V30 4950 H 462.505 -0.10059 3.66462 0
M  V30 4951 H 462.153 -2.47063 4.38143 0
M  V30 4952 H 461.853 -1.3364 5.72201 0
M  V30 4953 H 463.377 -2.26735 5.66942 0
M  V30 4954 H 464.791 0.00319931 5.733 0
M  V30 4955 H 463.188 0.763402 5.95224 0
M  V30 4956 H 464.258 1.33799 4.66075 0
M  V30 4957 N 465.601 -1.54893 0.290851 0
M  V30 4958 C 467.012 -1.85584 -0.203816 0
M  V30 4959 C 467.363 -1.21285 -1.54222 0
M  V30 4960 O 466.488 -0.506841 -2.10381 0
M  V30 4961 C 467.083 -3.367 -0.376595 0
M  V30 4962 C 465.642 -3.6746 -0.815485 0
M  V30 4963 C 464.789 -2.77178 0.0821087 0
M  V30 4964 H 467.74 -1.50208 0.512175 0
M  V30 4965 H 467.761 -3.60656 -1.21275 0
M  V30 4966 H 467.273 -3.8347 0.59767 0
M  V30 4967 H 465.374 -3.26201 -1.80066 0
M  V30 4968 H 465.487 -4.7478 -0.641905 0
M  V30 4969 H 463.851 -2.50925 -0.436895 0
M  V30 4970 H 464.634 -3.26767 1.05254 0
M  V30 4971 N 467.08 -0.0183926 -1.57589 0
M  V30 4972 C 468.305 0.676634 -1.96052 0
M  V30 4973 C 468.73 1.6548 -0.894307 0
M  V30 4974 O 468.088 1.80712 0.145849 0
M  V30 4975 C 468.136 1.36872 -3.33614 0
M  V30 4976 O 467.24 2.48372 -3.29219 0
M  V30 4977 H 466.581 0.1786 -0.63953 0
M  V30 4978 H 469.111 -0.077056 -2.04455 0
M  V30 4979 H 469.121 1.72797 -3.69601 0
M  V30 4980 H 467.796 0.651636 -4.10763 0
M  V30 4981 H 466.373 2.14639 -3.04934 0
M  V30 4982 N 468.558 1.5553 0.254621 0
M  V30 4983 C 469.969 1.67518 0.824286 0
M  V30 4984 C 470.32 0.614429 1.86331 0
M  V30 4985 O 469.445 -0.240736 2.15057 0
M  V30 4986 C 470.04 3.03692 1.50189 0
M  V30 4987 C 468.599 3.17646 2.01935 0
M  V30 4988 C 467.746 2.63373 0.867746 0
M  V30 4989 H 470.697 1.58671 0.0305843 0
M  V30 4990 H 470.718 2.97706 2.36962 0
M  V30 4991 H 470.23 3.80874 0.745431 0
M  V30 4992 H 468.331 2.45273 2.80485 0
M  V30 4993 H 468.444 4.24455 2.22204 0
M  V30 4994 H 466.808 2.20999 1.26616 0
M  V30 4995 H 467.591 3.43074 0.124498 0
M  V30 4996 N 470.036 -0.519951 1.48776 0
M  V30 4997 C 471.313 -1.28123 1.47797 0
M  V30 4998 C 471.693 -2.10196 0.195157 0
M  V30 4999 O 471.041 -2.13167 -0.822925 0
M  V30 5000 C 471.251 -2.15413 2.74587 0
M  V30 5001 C 472.599 -2.75225 3.23321 0
M  V30 5002 O 473.623 -2.25694 2.75574 0
M  V30 5003 O 472.482 -3.65346 4.06429 0
M  V30 5004 H 469.576 -0.578793 0.590701 0
M  V30 5005 H 472.122 -0.535779 1.6102 0
M  V30 5006 H 470.894 -1.54617 3.59457 0
M  V30 5007 H 470.517 -2.97186 2.64132 0
M  V30 5008 N 471.514 -1.37532 -0.769588 0
M  V30 5009 C 472.762 -1.32597 -1.5252 0
M  V30 5010 C 473.083 0.0884294 -1.94799 0
M  V30 5011 O 472.353 1.03289 -1.66458 0
M  V30 5012 H 470.933 -0.487846 -0.565699 0
M  V30 5013 H 473.595 -1.72044 -0.915806 0
M  V30 5014 H 472.691 -1.96643 -2.42359 0
M  V30 5015 N 472.992 0.995999 -1.22138 0
M  V30 5016 C 474.408 1.25917 -0.980667 0
M  V30 5017 C 474.608 1.98819 0.327604 0
M  V30 5018 O 473.664 2.29587 1.05101 0
M  V30 5019 C 474.977 2.07399 -2.17729 0
M  V30 5020 C 476.525 2.20594 -2.22052 0
M  V30 5021 C 477 3.05462 -3.41258 0
M  V30 5022 N 478.491 3.13049 -3.41401 0
M  V30 5023 C 479.226 3.78997 -4.30289 0
M  V30 5024 N 478.722 4.46899 -5.2939 0
M  V30 5025 N 480.515 3.75728 -4.18073 0
M  V30 5026 H 472.666 0.507158 -2.06256 0
M  V30 5027 H 474.929 0.28658 -0.903646 0
M  V30 5028 H 474.635 1.61191 -3.12586 0
M  V30 5029 H 474.509 3.08154 -2.17534 0
M  V30 5030 H 476.896 2.66017 -1.27745 0
M  V30 5031 H 476.977 1.1928 -2.26287 0
M  V30 5032 H 476.621 2.60739 -4.35864 0
M  V30 5033 H 476.551 4.06911 -3.34262 0
M  V30 5034 H 479.042 2.64721 -2.69688 0
M  V30 5035 H 479.355 4.94952 -5.935 0
M  V30 5036 H 477.7 4.45657 -5.33306 0
M  V30 5037 H 480.891 3.2184 -3.39907 0
M  V30 5038 H 481.064 4.26845 -4.87553 0
M  V30 5039 N 474.47 1.03057 1.19235 0
M  V30 5040 C 475.886 0.747947 1.40989 0
M  V30 5041 C 476.086 -0.666752 1.90149 0
M  V30 5042 O 475.142 -1.43249 2.07933 0
M  V30 5043 C 476.455 1.7855 2.41951 0
M  V30 5044 C 478.003 1.80524 2.55695 0
M  V30 5045 C 478.478 2.83243 3.59913 0
M  V30 5046 N 479.969 2.8207 3.67411 0
M  V30 5047 C 480.704 3.58204 4.47747 0
M  V30 5048 N 480.2 4.44057 5.31775 0
M  V30 5049 N 481.993 3.46738 4.42413 0
M  V30 5050 H 474.144 1.94367 0.856468 0
M  V30 5051 H 476.407 0.840412 0.438647 0
M  V30 5052 H 476.113 2.79973 2.12857 0
M  V30 5053 H 475.987 1.6092 3.41152 0
M  V30 5054 H 478.374 0.79778 2.84112 0
M  V30 5055 H 478.455 2.02229 1.56643 0
M  V30 5056 H 478.099 3.84161 3.32239 0
M  V30 5057 H 478.029 2.58795 4.5862 0
M  V30 5058 H 480.52 2.19803 3.074 0
M  V30 5059 H 480.833 4.98884 5.90199 0
M  V30 5060 H 479.178 4.48129 5.3123 0
M  V30 5061 H 482.369 2.79077 3.75811 0
M  V30 5062 H 482.542 4.06322 5.04783 0
M  V30 5063 N 475.948 -1.35272 0.808662 0
M  V30 5064 C 476.911 -2.28082 0.226093 0
M  V30 5065 C 477.911 -1.49673 -0.587762 0
M  V30 5066 O 479.101 -1.69404 -0.405943 0
M  V30 5067 C 476.233 -3.33955 -0.684596 0
M  V30 5068 H 477.426 -2.81116 1.04469 0
M  V30 5069 H 474.979 -1.45162 0.579466 0
M  V30 5070 H 475.714 -2.86111 -1.5268 0
M  V30 5071 H 475.499 -3.91965 -0.102699 0
M  V30 5072 H 476.989 -4.03219 -1.08646 0
M  V30 5073 N 477.426 -0.562348 -1.47226 0
M  V30 5074 C 478.389 0.172056 -2.28553 0
M  V30 5075 C 479.389 0.837928 -1.37242 0
M  V30 5076 O 480.579 0.693001 -1.59822 0
M  V30 5077 C 477.711 1.25223 -3.17068 0
M  V30 5078 H 478.904 -0.542401 -2.94954 0
M  V30 5079 H 476.457 -0.319493 -1.53 0
M  V30 5080 H 477.192 1.99892 -2.55369 0
M  V30 5081 H 476.977 0.779515 -3.84273 0
M  V30 5082 H 478.467 1.76791 -3.78332 0
M  V30 5083 N 478.904 1.54736 -0.299062 0
M  V30 5084 C 480.152 1.99706 0.31017 0
M  V30 5085 C 480.473 1.18896 1.54559 0
M  V30 5086 O 479.743 0.284445 1.93824 0
M  V30 5087 H 478.323 0.737686 0.117596 0
M  V30 5088 H 480.985 1.9054 -0.409943 0
M  V30 5089 H 480.081 3.06596 0.58355 0
M  V30 5090 N 480.382 0.0267497 1.57577 0
M  V30 5091 C 481.628 -0.653371 1.91987 0
M  V30 5092 C 481.961 -1.71915 0.903263 0
M  V30 5093 O 481.236 -1.94358 -0.0743387 0
M  V30 5094 C 481.519 -1.272 3.36886 0
M  V30 5095 C 481.372 -0.215938 4.49281 0
M  V30 5096 C 482.691 -2.19069 3.81703 0
M  V30 5097 H 479.81 -0.236047 0.698177 0
M  V30 5098 H 482.452 0.0835236 1.89816 0
M  V30 5099 H 480.602 -1.90005 3.38866 0
M  V30 5100 H 482.274 0.41449 4.59434 0
M  V30 5101 H 480.517 0.458855 4.31366 0
M  V30 5102 H 481.188 -0.688347 5.47691 0
M  V30 5103 H 483.664 -1.66253 3.81444 0
M  V30 5104 H 482.54 -2.59307 4.83788 0
M  V30 5105 H 482.801 -3.08087 3.17072 0
M  V30 5106 N 481.861 -1.55662 -0.24637 0
M  V30 5107 C 483.277 -1.48098 -0.594907 0
M  V30 5108 C 483.477 -0.717044 -1.8831 0
M  V30 5109 O 482.533 -0.246618 -2.51293 0
M  V30 5110 C 483.846 -2.92507 -0.697146 0
M  V30 5111 C 485.394 -3.02881 -0.789436 0
M  V30 5112 C 485.869 -4.48598 -0.923232 0
M  V30 5113 N 487.36 -4.52538 -0.988088 0
M  V30 5114 C 488.095 -5.62536 -1.11089 0
M  V30 5115 N 487.591 -6.82342 -1.19919 0
M  V30 5116 N 489.384 -5.50334 -1.14408 0
M  V30 5117 H 481.535 -2.0377 0.599278 0
M  V30 5118 H 483.798 -0.925145 0.20691 0
M  V30 5119 H 483.504 -3.51242 0.179396 0
M  V30 5120 H 483.378 -3.43024 -1.5689 0
M  V30 5121 H 485.765 -2.44226 -1.65643 0
M  V30 5122 H 485.846 -2.55574 0.107482 0
M  V30 5123 H 485.49 -5.07864 -0.0607927 0
M  V30 5124 H 485.42 -4.93587 -1.8352 0
M  V30 5125 H 487.911 -3.66248 -0.931167 0
M  V30 5126 H 488.224 -7.61924 -1.29197 0
M  V30 5127 H 486.569 -6.85102 -1.16876 0
M  V30 5128 H 489.76 -4.5567 -1.07158 0
M  V30 5129 H 489.933 -6.36096 -1.23634 0
M  V30 5130 N 483.339 0.512053 -1.4905 0
M  V30 5131 C 484.269 1.62365 -1.67809 0
M  V30 5132 C 485.25 1.61737 -0.526809 0
M  V30 5133 O 486.435 1.78651 -0.761404 0
M  V30 5134 C 483.565 3.00895 -1.73435 0
M  V30 5135 C 482.519 3.16387 -2.88242 0
M  V30 5136 C 481.845 4.56157 -2.78971 0
M  V30 5137 C 483.145 2.97457 -4.29321 0
M  V30 5138 H 484.839 1.46921 -2.60873 0
M  V30 5139 H 482.385 0.705379 -1.2554 0
M  V30 5140 H 484.338 3.78549 -1.85145 0
M  V30 5141 H 483.062 3.17403 -0.769619 0
M  V30 5142 H 481.721 2.41155 -2.76116 0
M  V30 5143 H 481.369 4.69525 -1.8043 0
M  V30 5144 H 481.069 4.67465 -3.5602 0
M  V30 5145 H 482.593 5.35886 -2.92675 0
M  V30 5146 H 484.007 3.64888 -4.42187 0
M  V30 5147 H 482.404 3.20245 -5.07507 0
M  V30 5148 H 483.474 1.93692 -4.44535 0
M  V30 5149 N 484.817 1.37938 0.762283 0
M  V30 5150 C 485.78 1.34279 1.85747 0
M  V30 5151 C 486.78 0.244969 1.58923 0
M  V30 5152 O 487.97 0.501365 1.66829 0
M  V30 5153 C 485.102 1.08833 3.23061 0
M  V30 5154 H 486.295 2.31705 1.90401 0
M  V30 5155 H 483.848 1.23105 0.963057 0
M  V30 5156 H 484.583 0.119767 3.24079 0
M  V30 5157 H 484.368 1.88306 3.43923 0
M  V30 5158 H 485.858 1.08946 4.03138 0
M  V30 5159 N 486.295 -0.989507 1.22664 0
M  V30 5160 C 487.541 -1.7321 1.05481 0
M  V30 5161 C 487.874 -1.89852 -0.408635 0
M  V30 5162 O 487.149 -1.44416 -1.30285 0
M  V30 5163 C 487.432 -3.1357 1.77047 0
M  V30 5164 C 487.285 -3.04555 3.31008 0
M  V30 5165 C 488.604 -4.12812 1.5256 0
M  V30 5166 H 485.723 -0.628697 0.384589 0
M  V30 5167 H 488.365 -1.15258 1.51049 0
M  V30 5168 H 486.515 -3.63046 1.3831 0
M  V30 5169 H 488.187 -2.62674 3.7921 0
M  V30 5170 H 486.43 -2.41278 3.6051 0
M  V30 5171 H 487.101 -4.03894 3.76263 0
M  V30 5172 H 489.577 -3.72106 1.86215 0
M  V30 5173 H 488.453 -5.09132 2.05124 0
M  V30 5174 H 488.714 -4.39711 0.458936 0
M  V30 5175 N 487.773 -1.03688 -1.18687 0
M  V30 5176 C 489.001 -0.757918 -1.92518 0
M  V30 5177 C 489.416 0.684398 -1.75959 0
M  V30 5178 O 488.773 1.46617 -1.08673 0
M  V30 5179 C 488.824 -1.10985 -3.44042 0
M  V30 5180 O 488.545 -2.49554 -3.60076 0
M  V30 5181 C 490.046 -0.854844 -4.3498 0
M  V30 5182 H 487.266 -0.276699 -0.611293 0
M  V30 5183 H 489.81 -1.38352 -1.50595 0
M  V30 5184 H 487.965 -0.529279 -3.83767 0
M  V30 5185 H 488.379 -2.6291 -4.53849 0
M  V30 5186 H 489.853 -1.15098 -5.39867 0
M  V30 5187 H 490.33 0.210507 -4.38695 0
M  V30 5188 H 490.936 -1.41853 -4.00946 0
M  V30 5189 N 489.251 1.34841 -0.815825 0
M  V30 5190 C 490.667 1.51543 -0.500697 0
M  V30 5191 C 490.867 1.76261 0.976444 0
M  V30 5192 O 489.923 1.8094 1.76117 0
M  V30 5193 C 491.236 2.68487 -1.35407 0
M  V30 5194 C 492.784 2.82368 -1.35046 0
M  V30 5195 C 493.259 4.02347 -2.18816 0
M  V30 5196 N 494.75 4.09542 -2.16402 0
M  V30 5197 C 495.485 5.01517 -2.77971 0
M  V30 5198 N 494.981 5.98763 -3.48503 0
M  V30 5199 N 496.774 4.94334 -2.67563 0
M  V30 5200 H 488.925 1.17055 -1.77234 0
M  V30 5201 H 491.188 0.573481 -0.754866 0
M  V30 5202 H 490.894 2.56829 -2.40274 0
M  V30 5203 H 490.768 3.63321 -1.01377 0
M  V30 5204 H 493.155 2.93471 -0.309604 0
M  V30 5205 H 493.236 1.88363 -1.73069 0
M  V30 5206 H 492.88 3.92004 -3.22948 0
M  V30 5207 H 492.81 4.95551 -1.78148 0
M  V30 5208 H 495.301 3.39932 -1.65091 0
M  V30 5209 H 495.614 6.6556 -3.92747 0
M  V30 5210 H 493.959 5.98909 -3.52609 0
M  V30 5211 H 497.15 4.1732 -2.12041 0
M  V30 5212 H 497.323 5.6582 -3.15834 0
M  V30 5213 N 490.729 0.570148 1.46925 0
M  V30 5214 C 491.659 -0.158274 2.32963 0
M  V30 5215 C 492.64 -0.896093 1.44583 0
M  V30 5216 O 493.825 -0.874022 1.7342 0
M  V30 5217 C 490.955 -1.18055 3.26619 0
M  V30 5218 C 489.909 -0.558379 4.24342 0
M  V30 5219 C 489.235 -1.68623 5.07415 0
M  V30 5220 C 490.535 0.496295 5.19937 0
M  V30 5221 H 492.229 0.560046 2.94115 0
M  V30 5222 H 489.775 0.270775 1.41431 0
M  V30 5223 H 491.728 -1.69841 3.85658 0
M  V30 5224 H 490.452 -1.92899 2.63548 0
M  V30 5225 H 489.111 -0.0617157 3.66548 0
M  V30 5226 H 488.759 -2.42402 4.40738 0
M  V30 5227 H 488.459 -1.27564 5.73586 0
M  V30 5228 H 489.983 -2.20709 5.69315 0
M  V30 5229 H 491.397 0.0640052 5.73264 0
M  V30 5230 H 489.794 0.82649 5.94381 0
M  V30 5231 H 490.864 1.38735 4.6463 0
M  V30 5232 N 492.207 -1.54576 0.307264 0
M  V30 5233 C 493.117 -2.27435 -0.57536 0
M  V30 5234 C 494.133 -1.31183 -1.14311 0
M  V30 5235 O 495.309 -1.64175 -1.16656 0
M  V30 5236 C 492.374 -3.00566 -1.72803 0
M  V30 5237 C 491.435 -4.12369 -1.19373 0
M  V30 5238 C 490.668 -4.82003 -2.29147 0
M  V30 5239 O 490.891 -4.51038 -3.49171 0
M  V30 5240 O 489.825 -5.69271 -1.95485 0
M  V30 5241 H 493.651 -3.03696 0.0158558 0
M  V30 5242 H 491.236 -1.49219 0.0735064 0
M  V30 5243 H 493.118 -3.46416 -2.39946 0
M  V30 5244 H 491.793 -2.27195 -2.30574 0
M  V30 5245 H 490.7 -3.70905 -0.487851 0
M  V30 5246 H 492.033 -4.87736 -0.661376 0
M  V30 5247 N 493.685 -0.035106 -1.57561 0
M  V30 5248 C 494.933 0.64096 -1.91667 0
M  V30 5249 C 495.254 1.72323 -0.912681 0
M  V30 5250 O 494.524 1.95849 0.0449089 0
M  V30 5251 H 493.104 0.239743 -0.707483 0
M  V30 5252 H 495.766 -0.084321 -1.94718 0
M  V30 5253 H 494.862 1.08987 -2.92452 0
M  V30 5254 N 495.163 1.55791 0.238111 0
M  V30 5255 C 496.409 1.78297 0.966337 0
M  V30 5256 C 496.742 0.601903 1.84637 0
M  V30 5257 O 496.017 -0.399499 1.90353 0
M  V30 5258 C 496.3 3.10758 1.81939 0
M  V30 5259 C 496.153 4.39283 0.966958 0
M  V30 5260 C 497.472 3.39519 2.80027 0
M  V30 5261 H 494.591 0.648654 0.349882 0
M  V30 5262 H 497.233 1.88525 0.236253 0
M  V30 5263 H 495.383 3.02168 2.44185 0
M  V30 5264 H 497.055 4.59873 0.362514 0
M  V30 5265 H 495.298 4.32948 0.271669 0
M  V30 5266 H 495.969 5.28368 1.59784 0
M  V30 5267 H 498.445 3.48128 2.27917 0
M  V30 5268 H 497.321 4.33402 3.36829 0
M  V30 5269 H 497.582 2.60864 3.56934 0
M  V30 5270 N 496.642 -0.504142 1.49319 0
M  V30 5271 C 497.919 -1.26548 1.49147 0
M  V30 5272 C 498.299 -2.09977 0.21744 0
M  V30 5273 O 497.647 -2.14028 -0.800269 0
M  V30 5274 C 497.857 -2.12489 2.76857 0
M  V30 5275 C 499.205 -2.7178 3.26222 0
M  V30 5276 O 500.229 -2.22758 2.77952 0
M  V30 5277 O 499.088 -3.61015 4.10281 0
M  V30 5278 H 496.182 -0.572495 0.596806 0
M  V30 5279 H 498.728 -0.51867 1.61579 0
M  V30 5280 H 497.5 -1.50796 3.61077 0
M  V30 5281 H 497.123 -2.94368 2.6727 0
M  V30 5282 N 498.12 -1.38341 -0.754957 0
M  V30 5283 C 499.03 -1.3769 -1.89944 0
M  V30 5284 C 500.046 -0.274194 -1.71826 0
M  V30 5285 O 501.222 -0.512391 -1.94773 0
M  V30 5286 C 498.287 -1.19938 -3.25293 0
M  V30 5287 C 497.348 -2.40001 -3.55946 0
M  V30 5288 C 496.581 -2.23087 -4.84838 0
M  V30 5289 O 496.804 -1.22386 -5.57116 0
M  V30 5290 O 495.738 -3.11646 -5.14937 0
M  V30 5291 H 499.564 -2.3412 -1.93446 0
M  V30 5292 H 497.149 -1.19246 -0.900044 0
M  V30 5293 H 499.031 -1.12093 -4.06218 0
M  V30 5294 H 497.706 -0.265919 -3.22606 0
M  V30 5295 H 496.613 -2.53421 -2.75188 0
M  V30 5296 H 497.946 -3.31973 -3.63394 0
M  V30 5297 N 499.598 0.982988 -1.23187 0
M  V30 5298 C 500.561 2.05649 -1.01198 0
M  V30 5299 C 501.561 1.6078 0.0252464 0
M  V30 5300 O 502.751 1.72878 -0.214243 0
M  V30 5301 C 499.883 3.36744 -0.530656 0
M  V30 5302 H 501.076 2.2659 -1.96461 0
M  V30 5303 H 498.629 1.15602 -1.05195 0
M  V30 5304 H 499.364 3.21492 0.425873 0
M  V30 5305 H 499.149 3.7065 -1.2791 0
M  V30 5306 H 500.639 4.15705 -0.397366 0
M  V30 5307 N 501.076 1.04316 1.18135 0
M  V30 5308 C 502.304 0.768117 1.92113 0
M  V30 5309 C 502.719 -0.675057 1.76319 0
M  V30 5310 O 502.076 -1.46038 1.09449 0
M  V30 5311 C 502.127 1.12808 3.43448 0
M  V30 5312 O 501.848 2.5146 3.58747 0
M  V30 5313 C 503.349 0.8779 4.3452 0
M  V30 5314 H 500.569 0.279937 0.609817 0
M  V30 5315 H 503.113 1.39149 1.49859 0
M  V30 5316 H 501.268 0.549623 3.83481 0
M  V30 5317 H 501.682 2.65313 4.52448 0
M  V30 5318 H 503.156 1.17959 5.39249 0
M  V30 5319 H 503.633 -0.187239 4.38801 0
M  V30 5320 H 504.239 1.43977 4.00188 0
M  V30 5321 N 502.554 -1.34406 0.822964 0
M  V30 5322 C 503.97 -1.51275 0.508727 0
M  V30 5323 C 504.17 -1.76776 -0.967083 0
M  V30 5324 O 503.226 -1.81871 -1.75155 0
M  V30 5325 C 504.539 -2.67765 1.36829 0
M  V30 5326 C 506.087 -2.81647 1.36542 0
M  V30 5327 C 506.562 -4.01181 2.20947 0
M  V30 5328 N 508.053 -4.08388 2.18571 0
M  V30 5329 C 508.788 -5.00036 2.80627 0
M  V30 5330 N 508.284 -5.96906 3.51674 0
M  V30 5331 N 510.077 -4.92908 2.70181 0
M  V30 5332 H 502.228 -1.16113 1.77852 0
M  V30 5333 H 504.491 -0.56947 0.757897 0
M  V30 5334 H 504.197 -2.55551 2.41633 0
M  V30 5335 H 504.071 -3.62779 1.03303 0
M  V30 5336 H 506.458 -2.93303 0.325163 0
M  V30 5337 H 506.539 -1.87443 1.74066 0
M  V30 5338 H 506.183 -3.90286 3.25022 0
M  V30 5339 H 506.113 -4.94599 1.80774 0
M  V30 5340 H 508.604 -3.39051 1.66891 0
M  V30 5341 H 508.917 -6.63468 3.96271 0
M  V30 5342 H 507.262 -5.9703 3.5578 0
M  V30 5343 H 510.453 -4.1619 2.14251 0
M  V30 5344 H 510.626 -5.64137 3.18831 0
M  V30 5345 N 504.032 -0.577932 -1.46621 0
M  V30 5346 C 504.995 0.147805 -2.28723 0
M  V30 5347 C 505.995 0.823325 -1.38123 0
M  V30 5348 O 507.185 0.676011 -1.60548 0
M  V30 5349 C 504.317 1.21853 -3.18378 0
M  V30 5350 H 505.51 -0.573654 -2.94362 0
M  V30 5351 H 503.063 -0.335703 -1.52652 0
M  V30 5352 H 503.798 1.97173 -2.57475 0
M  V30 5353 H 503.583 0.738714 -3.85078 0
M  V30 5354 H 505.073 1.72768 -3.80186 0
M  V30 5355 N 505.51 1.54411 -0.315457 0
M  V30 5356 C 506.756 2.00716 0.289972 0
M  V30 5357 C 507.089 1.2034 1.5242 0
M  V30 5358 O 506.364 0.283579 1.92422 0
M  V30 5359 C 506.647 3.54507 0.632196 0
M  V30 5360 C 506.5 4.45615 -0.61218 0
M  V30 5361 C 507.819 4.15421 1.45305 0
M  V30 5362 H 504.938 0.729637 0.10392 0
M  V30 5363 H 507.58 1.8506 -0.430427 0
M  V30 5364 H 505.73 3.67979 1.24595 0
M  V30 5365 H 507.402 4.44026 -1.25053 0
M  V30 5366 H 505.645 4.15621 -1.24264 0
M  V30 5367 H 506.316 5.51022 -0.328379 0
M  V30 5368 H 508.792 4.05474 0.934331 0
M  V30 5369 H 507.668 5.23157 1.66127 0
M  V30 5370 H 507.929 3.68223 2.44671 0
M  V30 5371 N 506.988 0.0434614 1.5754 0
M  V30 5372 C 508.399 -0.493343 1.80064 0
M  V30 5373 C 508.75 -1.71388 0.955023 0
M  V30 5374 O 507.875 -2.15736 0.169434 0
M  V30 5375 C 508.47 -0.90179 3.26578 0
M  V30 5376 C 507.029 -1.38362 3.50047 0
M  V30 5377 C 506.176 -0.355129 2.75017 0
M  V30 5378 H 509.127 0.2694 1.56397 0
M  V30 5379 H 509.148 -1.76523 3.37075 0
M  V30 5380 H 508.66 -0.013271 3.88098 0
M  V30 5381 H 506.761 -2.29159 2.93798 0
M  V30 5382 H 506.874 -1.3811 4.58762 0
M  V30 5383 H 505.238 -0.826348 2.40922 0
M  V30 5384 H 506.021 0.525172 3.39259 0
M  V30 5385 N 508.466 -1.55915 -0.229846 0
M  V30 5386 C 509.694 -1.82617 -0.972562 0
M  V30 5387 C 510.109 -0.621488 -1.78278 0
M  V30 5388 O 509.466 0.409956 -1.77836 0
M  V30 5389 C 509.517 -3.0774 -1.89679 0
M  V30 5390 O 509.238 -4.23559 -1.11934 0
M  V30 5391 C 510.739 -3.47368 -2.75409 0
M  V30 5392 H 507.959 -0.60727 -0.285419 0
M  V30 5393 H 510.503 -2.02996 -0.247579 0
M  V30 5394 H 508.658 -2.89361 -2.57583 0
M  V30 5395 H 509.072 -4.94586 -1.74599 0
M  V30 5396 H 510.546 -4.37977 -3.35977 0
M  V30 5397 H 511.023 -2.68737 -3.47386 0
M  V30 5398 H 511.629 -3.68158 -2.12931 0
M  V30 5399 N 509.944 0.496216 -1.49584 0
M  V30 5400 C 511.192 1.24756 -1.58998 0
M  V30 5401 C 511.513 1.92968 -0.280775 0
M  V30 5402 O 510.783 1.82959 0.700198 0
M  V30 5403 H 509.363 0.463471 -0.585836 0
M  V30 5404 H 512.025 0.574678 -1.86235 0
M  V30 5405 H 511.121 2.00895 -2.38847 0
M  V30 5406 N 511.423 1.38739 0.74761 0
M  V30 5407 C 512.7 1.25791 1.49786 0
M  V30 5408 C 513.08 -0.138075 2.10648 0
M  V30 5409 O 512.428 -1.14815 1.9756 0
M  V30 5410 C 512.638 2.37265 2.55942 0
M  V30 5411 C 513.986 2.75978 3.22679 0
M  V30 5412 O 515.01 2.36621 2.6625 0
M  V30 5413 O 513.869 3.43867 4.24756 0
M  V30 5414 H 510.963 0.492251 0.664543 0
M  V30 5415 H 513.509 1.50582 0.782511 0
M  V30 5416 H 512.281 3.30644 2.0926 0
M  V30 5417 H 511.904 2.14071 3.35051 0
M  V30 5418 N 512.901 -0.976442 1.23707 0
M  V30 5419 C 513.834 -2.06793 0.964973 0
M  V30 5420 C 514.812 -1.62304 -0.0981472 0
M  V30 5421 O 515.996 -1.88464 0.0369477 0
M  V30 5422 C 513.123 -3.35636 0.454522 0
M  V30 5423 C 512.169 -3.99069 1.50485 0
M  V30 5424 S 513.002 -4.37814 3.0835 0
M  V30 5425 C 514.158 -5.69805 2.58985 0
M  V30 5426 H 514.391 -2.29556 1.88922 0
M  V30 5427 H 511.924 -1.11317 1.06995 0
M  V30 5428 H 513.882 -4.10162 0.166626 0
M  V30 5429 H 512.543 -3.10876 -0.448871 0
M  V30 5430 H 511.736 -4.91896 1.09792 0
M  V30 5431 H 511.338 -3.30938 1.7423 0
M  V30 5432 H 513.63 -6.46919 2.01252 0
M  V30 5433 H 514.573 -6.15345 3.50366 0
M  V30 5434 H 514.981 -5.27994 1.99705 0
M  V30 5435 N 514.379 -1.04941 -1.1758 0
M  V30 5436 C 515.289 -0.658826 -2.25159 0
M  V30 5437 C 516.305 0.318941 -1.71052 0
M  V30 5438 O 517.481 0.171669 -2.00667 0
M  V30 5439 C 514.546 -0.0369522 -3.4668 0
M  V30 5440 C 513.607 -1.06484 -4.15884 0
M  V30 5441 C 512.84 -0.472551 -5.31604 0
M  V30 5442 O 513.063 0.718736 -5.65854 0
M  V30 5443 O 511.997 -1.20557 -5.89703 0
M  V30 5444 H 515.823 -1.55533 -2.60851 0
M  V30 5445 H 513.408 -0.820819 -1.24832 0
M  V30 5446 H 515.29 0.308784 -4.20267 0
M  V30 5447 H 513.965 0.833238 -3.12792 0
M  V30 5448 H 512.872 -1.46253 -3.44327 0
M  V30 5449 H 514.205 -1.9061 -4.53794 0
M  V30 5450 N 515.857 1.33968 -0.830081 0
M  V30 5451 C 517.134 1.92554 -0.343858 0
M  V30 5452 C 517.514 1.7573 1.16971 0
M  V30 5453 O 516.862 1.14035 1.98011 0
M  V30 5454 C 517.072 3.40147 -0.781073 0
M  V30 5455 C 518.42 4.17299 -0.78402 0
M  V30 5456 O 519.444 3.48762 -0.724112 0
M  V30 5457 O 518.303 5.39631 -0.863739 0
M  V30 5458 H 515.397 0.821469 -0.0954827 0
M  V30 5459 H 517.943 1.42897 -0.915348 0
M  V30 5460 H 516.715 3.46225 -1.82329 0
M  V30 5461 H 516.338 3.97166 -0.18567 0
M  V30 5462 N 517.335 0.585699 1.46312 0
M  V30 5463 C 518.265 -0.133556 2.33118 0
M  V30 5464 C 519.246 -0.880707 1.45525 0
M  V30 5465 O 520.431 -0.855579 1.74337 0
M  V30 5466 C 517.561 -1.14585 3.27853 0
M  V30 5467 C 516.515 -0.513341 4.2491 0
M  V30 5468 C 515.841 -1.63231 5.09175 0
M  V30 5469 C 517.141 0.551413 5.19381 0
M  V30 5470 H 518.835 0.59121 2.93505 0
M  V30 5471 H 516.381 0.285761 1.41136 0
M  V30 5472 H 518.334 -1.65741 3.87438 0
M  V30 5473 H 517.058 -1.90093 2.65579 0
M  V30 5474 H 515.717 -0.0228349 3.66593 0
M  V30 5475 H 515.365 -2.37713 4.43285 0
M  V30 5476 H 515.065 -1.21473 5.74907 0
M  V30 5477 H 516.589 -2.14658 5.71624 0
M  V30 5478 H 518.003 0.124804 5.73164 0
M  V30 5479 H 516.4 0.889486 5.93471 0
M  V30 5480 H 517.47 1.43655 4.63132 0
M  V30 5481 N 518.813 -1.54241 0.323641 0
M  V30 5482 C 520.224 -1.85975 -0.164405 0
M  V30 5483 C 520.575 -1.24529 -1.51615 0
M  V30 5484 O 519.7 -0.551351 -2.09258 0
M  V30 5485 C 520.295 -3.37424 -0.305091 0
M  V30 5486 C 518.854 -3.69107 -0.737358 0
M  V30 5487 C 518.001 -2.76942 0.140884 0
M  V30 5488 H 520.952 -1.49088 0.543922 0
M  V30 5489 H 520.973 -3.63147 -1.13598 0
M  V30 5490 H 520.485 -3.82116 0.678876 0
M  V30 5491 H 518.586 -3.29947 -1.73107 0
M  V30 5492 H 518.699 -4.76035 -0.541053 0
M  V30 5493 H 517.063 -2.51795 -0.383572 0
M  V30 5494 H 517.846 -3.24461 1.12162 0
M  V30 5495 N 520.291 -0.0518155 -1.57515 0
M  V30 5496 C 521.531 0.625712 -1.94587 0
M  V30 5497 C 521.895 1.6797 -0.930053 0
M  V30 5498 O 523.096 2.41135 -1.18774 0
M  V30 5499 C 521.367 1.20574 -3.36447 0
M  V30 5500 S 522.926 1.90118 -3.95475 0
M  V30 5501 H 519.744 0.205434 -0.680675 0
M  V30 5502 H 522.346 -0.120906 -1.95126 0
M  V30 5503 H 521.05 0.426521 -4.08178 0
M  V30 5504 H 520.581 1.98916 -3.39405 0
M  V30 5505 H 522.596 3.18184 -3.80753 0
M  V30 5506 N 521.769 1.56035 0.221574 0
M  V30 5507 C 523.017 1.78693 0.944102 0
M  V30 5508 C 523.338 0.620317 1.8487 0
M  V30 5509 O 522.608 -0.362784 1.92512 0
M  V30 5510 H 521.188 0.659082 0.351597 0
M  V30 5511 H 523.85 1.93497 0.233435 0
M  V30 5512 H 522.946 2.70837 1.55093 0
M  V30 5513 N 523.247 -0.488276 1.49845 0
M  V30 5514 C 524.177 -1.59675 1.70371 0
M  V30 5515 C 525.158 -1.60878 0.552473 0
M  V30 5516 O 526.343 -1.77417 0.78973 0
M  V30 5517 C 523.473 -2.98098 1.782 0
M  V30 5518 C 522.427 -3.11761 2.93239 0
M  V30 5519 C 521.753 -4.51661 2.86193 0
M  V30 5520 C 523.053 -2.90589 4.33999 0
M  V30 5521 H 524.747 -1.42752 2.63177 0
M  V30 5522 H 522.293 -0.685317 1.26647 0
M  V30 5523 H 524.246 -3.75555 1.91144 0
M  V30 5524 H 522.97 -3.16138 0.820018 0
M  V30 5525 H 521.629 -2.36732 2.79917 0
M  V30 5526 H 521.277 -4.66595 1.87877 0
M  V30 5527 H 520.977 -4.61742 3.63412 0
M  V30 5528 H 522.501 -5.31162 3.01163 0
M  V30 5529 H 523.915 -3.57807 4.47936 0
M  V30 5530 H 522.312 -3.1213 5.12538 0
M  V30 5531 H 523.382 -1.86595 4.4756 0
M  V30 5532 N 524.725 -1.39134 -0.740242 0
M  V30 5533 C 525.971 -1.36273 -1.50192 0
M  V30 5534 C 526.304 0.0430136 -1.94152 0
M  V30 5535 O 525.579 1.00691 -1.66408 0
M  V30 5536 C 525.862 -2.33041 -2.74525 0
M  V30 5537 C 525.715 -3.82535 -2.36617 0
M  V30 5538 C 527.034 -2.27723 -3.76604 0
M  V30 5539 H 524.153 -0.496323 -0.544823 0
M  V30 5540 H 526.795 -1.70085 -0.846815 0
M  V30 5541 H 524.945 -2.04337 -3.30422 0
M  V30 5542 H 526.617 -4.21967 -1.86391 0
M  V30 5543 H 524.86 -3.99565 -1.68909 0
M  V30 5544 H 525.531 -4.45723 -3.2563 0
M  V30 5545 H 528.007 -2.53091 -3.30279 0
M  V30 5546 H 526.883 -2.97519 -4.61274 0
M  V30 5547 H 527.144 -1.28049 -4.2315 0
M  V30 5548 N 526.204 0.969867 -1.24223 0
M  V30 5549 C 527.134 2.08191 -1.05729 0
M  V30 5550 C 528.115 1.70075 0.0290765 0
M  V30 5551 O 529.3 1.93712 -0.137583 0
M  V30 5552 C 526.43 3.40991 -0.658995 0
M  V30 5553 C 525.384 3.93054 -1.69389 0
M  V30 5554 C 524.71 5.22171 -1.15072 0
M  V30 5555 C 526.01 4.21137 -3.08935 0
M  V30 5556 H 527.704 2.23921 -1.98746 0
M  V30 5557 H 525.25 1.07602 -0.956967 0
M  V30 5558 H 527.203 4.18221 -0.51662 0
M  V30 5559 H 525.927 3.25155 0.30686 0
M  V30 5560 H 524.586 3.17977 -1.82444 0
M  V30 5561 H 524.234 5.02694 -0.175539 0
M  V30 5562 H 523.934 5.57973 -1.84229 0
M  V30 5563 H 525.458 6.02013 -1.02042 0
M  V30 5564 H 526.872 4.8908 -2.99121 0
M  V30 5565 H 525.269 4.68163 -3.75425 0
M  V30 5566 H 526.339 3.27996 -3.57137 0
M  V30 5567 N 527.682 1.05563 1.17022 0
M  V30 5568 C 528.907 0.788437 1.91829 0
M  V30 5569 C 529.332 -0.650356 1.76499 0
M  V30 5570 O 528.69 -1.45229 1.08527 0
M  V30 5571 C 528.738 1.1786 3.40795 0
M  V30 5572 O 527.842 0.312965 4.11211 0
M  V30 5573 H 527.183 0.288794 0.597908 0
M  V30 5574 H 529.713 1.40948 1.48307 0
M  V30 5575 H 529.723 1.14697 3.91546 0
M  V30 5576 H 528.398 2.22666 3.51273 0
M  V30 5577 H 526.975 0.405515 3.70689 0
M  V30 5578 N 529.16 -1.33526 0.837174 0
M  V30 5579 C 530.385 -2.0258 0.444545 0
M  V30 5580 C 530.81 -1.6258 -0.946006 0
M  V30 5581 O 530.168 -0.817548 -1.6182 0
M  V30 5582 C 530.216 -3.5605 0.571006 0
M  V30 5583 O 529.32 -4.10422 -0.403431 0
M  V30 5584 H 528.661 -0.638866 0.180958 0
M  V30 5585 H 531.191 -1.70462 1.13154 0
M  V30 5586 H 531.201 -4.05488 0.452024 0
M  V30 5587 H 529.876 -3.84509 1.58512 0
M  V30 5588 H 528.453 -3.72113 -0.242147 0
M  V30 5589 N 530.638 -0.59345 -1.46 0
M  V30 5590 C 531.887 -0.0808084 -2.01538 0
M  V30 5591 C 532.2 1.29112 -1.46934 0
M  V30 5592 O 533.406 1.8957 -1.94359 0
M  V30 5593 C 531.862 -0.0938311 -3.59778 0
M  V30 5594 C 531.47 -1.46474 -4.23379 0
M  V30 5595 C 533.214 0.364306 -4.22934 0
M  V30 5596 C 531.121 -1.4349 -5.73729 0
M  V30 5597 H 530.051 -0.0264407 -0.753536 0
M  V30 5598 H 532.702 -0.746689 -1.67621 0
M  V30 5599 H 531.084 0.638427 -3.9082 0
M  V30 5600 H 532.258 -2.21758 -4.03931 0
M  V30 5601 H 530.573 -1.86379 -3.7236 0
M  V30 5602 H 533.17 0.405584 -5.3316 0
M  V30 5603 H 533.513 1.38409 -3.92618 0
M  V30 5604 H 534.046 -0.31423 -3.96557 0
M  V30 5605 H 530.785 -2.43184 -6.08722 0
M  V30 5606 H 530.305 -0.724431 -5.95409 0
M  V30 5607 H 531.984 -1.15243 -6.36654 0
M  V30 5608 N 532.116 1.54067 -0.331816 0
M  V30 5609 C 533.364 2.00319 0.267739 0
M  V30 5610 C 533.685 1.22148 1.52003 0
M  V30 5611 O 532.955 0.325494 1.93177 0
M  V30 5612 H 531.535 0.740014 0.101922 0
M  V30 5613 H 534.197 1.89628 -0.450267 0
M  V30 5614 H 533.293 3.07765 0.518385 0
M  V30 5615 N 533.594 0.0601682 1.57485 0
M  V30 5616 C 534.824 -0.620037 1.97076 0
M  V30 5617 C 535.232 -1.64381 0.936784 0
M  V30 5618 O 534.575 -1.83497 -0.0863377 0
M  V30 5619 C 534.637 -1.35617 3.32939 0
M  V30 5620 C 534.301 -0.487208 4.54396 0
M  V30 5621 C 535.298 0.250428 5.19297 0
M  V30 5622 C 532.983 -0.415494 5.00579 0
M  V30 5623 C 534.977 1.04812 6.28723 0
M  V30 5624 C 532.664 0.385879 6.0988 0
M  V30 5625 C 533.662 1.11637 6.73815 0
M  V30 5626 O 533.35 1.90454 7.81014 0
M  V30 5627 H 533.082 -0.173664 0.653312 0
M  V30 5628 H 535.636 0.1256 2.05016 0
M  V30 5629 H 533.866 -2.14763 3.2158 0
M  V30 5630 H 535.555 -1.92749 3.57215 0
M  V30 5631 H 536.321 0.204546 4.84568 0
M  V30 5632 H 532.2 -0.973679 4.506 0
M  V30 5633 H 535.744 1.6188 6.78558 0
M  V30 5634 H 531.641 0.433366 6.44044 0
M  V30 5635 H 532.409 1.82762 7.97835 0
M  V30 5636 N 535.072 -1.5615 -0.213296 0
M  V30 5637 C 536.019 -1.93086 -1.26437 0
M  V30 5638 C 536.989 -0.789086 -1.4616 0
M  V30 5639 O 538.174 -1.04569 -1.59593 0
M  V30 5640 C 535.314 -2.26003 -2.608 0
M  V30 5641 C 534.427 -3.53156 -2.48807 0
M  V30 5642 C 533.562 -3.7548 -3.7575 0
M  V30 5643 C 532.601 -4.96119 -3.58514 0
M  V30 5644 N 531.738 -5.14791 -4.77425 0
M  V30 5645 H 536.578 -2.82707 -0.942376 0
M  V30 5646 H 534.115 -1.39919 -0.454001 0
M  V30 5647 H 536.073 -2.431 -3.39055 0
M  V30 5648 H 534.703 -1.39546 -2.91079 0
M  V30 5649 H 533.755 -3.44207 -1.61944 0
M  V30 5650 H 535.067 -4.41565 -2.31996 0
M  V30 5651 H 534.221 -3.92718 -4.62447 0
M  V30 5652 H 532.96 -2.85368 -3.95495 0
M  V30 5653 H 531.965 -4.78823 -2.70201 0
M  V30 5654 H 533.19 -5.87724 -3.40231 0
M  V30 5655 H 531.136 -4.27623 -4.97468 0
M  V30 5656 H 531.053 -5.97347 -4.63371 0
M  V30 5657 H 532.321 -5.36471 -5.65525 0
M  V30 5658 N 536.55 0.480323 -1.50102 0
M  V30 5659 C 537.775 1.26126 -1.64642 0
M  V30 5660 C 538.2 1.85257 -0.325823 0
M  V30 5661 O 537.558 1.66854 0.709194 0
M  V30 5662 C 537.606 2.35243 -2.73301 0
M  V30 5663 O 536.71 3.39646 -2.33911 0
M  V30 5664 H 536.051 0.371463 -0.550374 0
M  V30 5665 H 538.581 0.572696 -1.96421 0
M  V30 5666 H 538.591 2.80695 -2.96098 0
M  V30 5667 H 537.266 1.91574 -3.6915 0
M  V30 5668 H 535.843 2.99969 -2.21525 0
M  V30 5669 N 538.028 1.39524 0.732853 0
M  V30 5670 C 539.444 1.21176 1.03868 0
M  V30 5671 C 539.644 0.0748448 2.01361 0
M  V30 5672 O 538.7 -0.57281 2.45917 0
M  V30 5673 C 540.013 2.54667 1.59892 0
M  V30 5674 C 541.561 2.6153 1.71962 0
M  V30 5675 C 542.036 3.95248 2.31394 0
M  V30 5676 N 543.527 3.96899 2.38801 0
M  V30 5677 C 544.262 4.97138 2.85729 0
M  V30 5678 N 543.758 6.07775 3.32537 0
M  V30 5679 N 545.551 4.84516 2.84957 0
M  V30 5680 H 537.702 2.12225 0.086304 0
M  V30 5681 H 539.965 0.942614 0.100907 0
M  V30 5682 H 539.671 3.38423 0.95721 0
M  V30 5683 H 539.545 2.74538 2.58668 0
M  V30 5684 H 541.932 1.78156 2.35254 0
M  V30 5685 H 542.013 2.45507 0.718327 0
M  V30 5686 H 541.657 4.79054 1.68729 0
M  V30 5687 H 541.587 4.08593 3.32204 0
M  V30 5688 H 544.078 3.16998 2.05719 0
M  V30 5689 H 544.391 6.8017 3.66862 0
M  V30 5690 H 542.736 6.11366 3.30541 0
M  V30 5691 H 545.927 3.97185 2.47713 0
M  V30 5692 H 546.1 5.62783 3.21215 0
M  V30 5693 N 539.506 -0.963266 1.24736 0
M  V30 5694 C 540.917 -1.52145 1.08207 0
M  V30 5695 C 541.268 -1.93142 -0.345061 0
M  V30 5696 O 540.393 -1.77769 -1.23399 0
M  V30 5697 C 540.988 -2.76486 1.95808 0
M  V30 5698 C 539.547 -3.28646 1.8349 0
M  V30 5699 C 538.694 -2.01529 1.90476 0
M  V30 5700 H 541.645 -0.781083 1.38148 0
M  V30 5701 H 541.666 -3.49986 1.49297 0
M  V30 5702 H 541.178 -2.46617 2.99669 0
M  V30 5703 H 539.279 -3.63357 0.824787 0
M  V30 5704 H 539.392 -3.97246 2.67829 0
M  V30 5705 H 537.756 -2.16442 1.34258 0
M  V30 5706 H 538.539 -1.7402 2.95926 0
M  V30 5707 N 540.985 -1.06182 -1.16461 0
M  V30 5708 C 542.231 -0.779015 -1.87241 0
M  V30 5709 C 542.564 0.692715 -1.81425 0
M  V30 5710 O 541.839 1.5074 -1.22913 0
M  V30 5711 C 542.122 -1.2728 -3.36856 0
M  V30 5712 C 541.975 -2.80821 -3.51368 0
M  V30 5713 C 543.294 -0.879799 -4.31216 0
M  V30 5714 H 540.413 -0.284464 -0.679889 0
M  V30 5715 H 543.055 -1.31755 -1.36896 0
M  V30 5716 H 541.205 -0.814673 -3.79862 0
M  V30 5717 H 542.877 -3.34833 -3.17308 0
M  V30 5718 H 541.12 -3.19606 -2.93316 0
M  V30 5719 H 541.791 -3.10435 -4.56436 0
M  V30 5720 H 544.267 -1.27436 -3.96105 0
M  V30 5721 H 543.143 -1.25278 -5.34412 0
M  V30 5722 H 543.404 0.215372 -4.41575 0
M  V30 5723 N 542.463 1.3308 -0.844243 0
M  V30 5724 C 543.74 1.92178 -0.364261 0
M  V30 5725 C 544.12 1.76961 1.15101 0
M  V30 5726 O 543.468 1.16128 1.9679 0
M  V30 5727 C 543.678 3.393 -0.817106 0
M  V30 5728 C 545.026 4.16444 -0.828236 0
M  V30 5729 O 546.05 3.47975 -0.761062 0
M  V30 5730 O 544.909 5.38685 -0.920926 0
M  V30 5731 H 542.003 0.820411 -0.10419 0
M  V30 5732 H 544.549 1.41918 -0.930453 0
M  V30 5733 H 543.321 3.44272 -1.85991 0
M  V30 5734 H 542.944 3.96947 -0.227785 0
M  V30 5735 N 543.941 0.601185 1.45683 0
M  V30 5736 C 545.352 0.179659 1.85834 0
M  V30 5737 C 545.703 -1.26189 1.50236 0
M  V30 5738 O 544.828 -1.95587 0.925987 0
M  V30 5739 C 545.423 0.319277 3.37292 0
M  V30 5740 C 543.982 -0.0475092 3.7637 0
M  V30 5741 C 543.129 0.646692 2.69654 0
M  V30 5742 H 546.08 0.808268 1.36575 0
M  V30 5743 H 546.101 -0.4503 3.77826 0
M  V30 5744 H 545.613 1.36855 3.6317 0
M  V30 5745 H 543.714 -1.0962 3.5611 0
M  V30 5746 H 543.827 0.34168 4.7788 0
M  V30 5747 H 542.191 0.0849971 2.54558 0
M  V30 5748 H 542.974 1.69797 2.98369 0
M  V30 5749 N 545.419 -1.53889 0.339982 0
M  V30 5750 C 546.644 -2.05741 -0.261798 0
M  V30 5751 C 547.069 -1.21354 -1.43718 0
M  V30 5752 O 546.427 -0.22645 -1.7988 0
M  V30 5753 C 546.475 -3.54542 -0.658228 0
M  V30 5754 O 545.579 -3.7302 -1.75869 0
M  V30 5755 H 544.92 -0.662529 -0.0441672 0
M  V30 5756 H 547.45 -1.98568 0.493161 0
M  V30 5757 H 547.46 -3.9711 -0.936368 0
M  V30 5758 H 546.135 -4.15412 0.201358 0
M  V30 5759 H 544.712 -3.42355 -1.47809 0
M  V30 5760 N 546.897 -0.0685191 -1.57451 0
M  V30 5761 C 548.143 0.602239 -1.93652 0
M  V30 5762 C 548.476 1.6946 -0.948526 0
M  V30 5763 O 547.751 1.94487 0.022782 0
M  V30 5764 C 548.034 1.18223 -3.4014 0
M  V30 5765 C 547.887 0.0967431 -4.49696 0
M  V30 5766 C 549.206 2.08872 -3.87377 0
M  V30 5767 H 546.325 0.217453 -0.70419 0
M  V30 5768 H 548.967 -0.133821 -1.89528 0
M  V30 5769 H 547.117 1.80953 -3.43785 0
M  V30 5770 H 548.789 -0.536155 -4.58174 0
M  V30 5771 H 547.032 -0.573063 -4.29998 0
M  V30 5772 H 547.703 0.542894 -5.49324 0
M  V30 5773 H 550.179 1.56081 -3.85717 0
M  V30 5774 H 549.055 2.46389 -4.90493 0
M  V30 5775 H 549.316 2.99572 -3.25129 0
M  V30 5776 N 548.375 1.56261 0.205012 0
M  V30 5777 C 549.786 1.70056 0.770574 0
M  V30 5778 C 550.137 0.673398 1.84282 0
M  V30 5779 O 549.262 -0.172196 2.15714 0
M  V30 5780 C 549.857 3.08316 1.40451 0
M  V30 5781 C 548.416 3.2391 1.91727 0
M  V30 5782 C 547.563 2.66001 0.783516 0
M  V30 5783 H 550.514 1.58688 -0.019911 0
M  V30 5784 H 550.535 3.05094 2.27371 0
M  V30 5785 H 550.047 3.83053 0.623882 0
M  V30 5786 H 548.148 2.54072 2.7254 0
M  V30 5787 H 548.261 4.3131 2.08588 0
M  V30 5788 H 546.625 2.24915 1.19521 0
M  V30 5789 H 547.408 3.43297 0.0152883 0
M  V30 5790 N 549.853 -0.472356 1.50355 0
M  V30 5791 C 551.1 -1.22453 1.61281 0
M  V30 5792 C 551.428 -1.91972 0.31256 0
M  V30 5793 O 550.683 -1.82696 -0.701475 0
M  V30 5794 C 550.982 -2.29257 2.74182 0
M  V30 5795 C 550.648 -1.76999 4.14708 0
M  V30 5796 C 549.31 -1.62467 4.52944 0
M  V30 5797 C 551.662 -1.38215 5.0254 0
M  V30 5798 C 548.99 -1.07574 5.76754 0
M  V30 5799 C 551.342 -0.847638 6.26895 0
M  V30 5800 C 550.006 -0.688946 6.63935 0
M  V30 5801 H 549.276 -0.448087 0.590168 0
M  V30 5802 H 551.923 -0.520744 1.84284 0
M  V30 5803 H 550.228 -3.05538 2.45263 0
M  V30 5804 H 551.925 -2.87212 2.7984 0
M  V30 5805 H 548.515 -1.89276 3.84542 0
M  V30 5806 H 552.699 -1.48276 4.73633 0
M  V30 5807 H 547.955 -0.940237 6.04127 0
M  V30 5808 H 552.129 -0.538455 6.94315 0
M  V30 5809 H 549.756 -0.261435 7.5975 0
M  V30 5810 N 551.331 -1.39911 -0.725443 0
M  V30 5811 C 552.608 -1.28158 -1.47766 0
M  V30 5812 C 552.988 0.104545 -2.10841 0
M  V30 5813 O 552.336 1.11657 -1.99361 0
M  V30 5814 C 552.546 -2.41306 -2.52135 0
M  V30 5815 C 553.894 -2.81076 -3.18247 0
M  V30 5816 O 554.918 -2.40827 -2.62452 0
M  V30 5817 O 553.777 -3.50581 -4.19231 0
M  V30 5818 H 550.871 -0.502761 -0.656628 0
M  V30 5819 H 553.417 -1.51808 -0.758456 0
M  V30 5820 H 552.189 -3.33932 -2.03974 0
M  V30 5821 H 551.812 -2.19374 -3.31603 0
M  V30 5822 N 552.809 0.956637 -1.25245 0
M  V30 5823 C 554.034 1.74104 -1.12706 0
M  V30 5824 C 554.459 1.85436 0.315429 0
M  V30 5825 O 553.817 1.33334 1.22848 0
M  V30 5826 C 553.865 3.1338 -1.78396 0
M  V30 5827 O 552.969 3.98485 -1.06224 0
M  V30 5828 H 552.31 0.53476 -0.393609 0
M  V30 5829 H 554.84 1.19924 -1.65769 0
M  V30 5830 H 554.85 3.6385 -1.846 0
M  V30 5831 H 553.525 3.04448 -2.83345 0
M  V30 5832 H 552.102 3.56952 -1.07886 0
M  V30 5833 N 554.287 1.06798 1.15896 0
M  V30 5834 C 555.234 0.683314 2.20453 0
M  V30 5835 C 556.204 -0.32255 1.62938 0
M  V30 5836 O 557.389 -0.210276 1.89638 0
M  V30 5837 C 554.529 0.0813266 3.45004 0
M  V30 5838 C 553.642 1.13799 4.16742 0
M  V30 5839 C 552.777 0.501598 5.28826 0
M  V30 5840 C 551.816 1.54144 5.92373 0
M  V30 5841 N 550.953 0.928038 6.9594 0
M  V30 5842 H 555.793 1.57932 2.52708 0
M  V30 5843 H 553.33 0.789544 1.24115 0
M  V30 5844 H 555.288 -0.285274 4.16224 0
M  V30 5845 H 553.918 -0.77806 3.13283 0
M  V30 5846 H 552.97 1.62223 3.44075 0
M  V30 5847 H 554.282 1.92664 4.60089 0
M  V30 5848 H 553.436 0.0823162 6.06644 0
M  V30 5849 H 552.175 -0.318883 4.86656 0
M  V30 5850 H 551.18 1.97056 5.13273 0
M  V30 5851 H 552.405 2.3641 6.36621 0
M  V30 5852 H 550.351 0.12836 6.55874 0
M  V30 5853 H 550.268 1.65401 7.37685 0
M  V30 5854 H 551.536 0.534071 7.77668 0
M  V30 5855 N 555.766 -1.3263 0.851289 0
M  V30 5856 C 556.696 -2.31449 0.308771 0
M  V30 5857 C 557.677 -1.59531 -0.590255 0
M  V30 5858 O 558.862 -1.87351 -0.511205 0
M  V30 5859 C 555.992 -3.43586 -0.506548 0
M  V30 5860 C 554.946 -4.26963 0.297753 0
M  V30 5861 C 554.272 -5.30831 -0.642094 0
M  V30 5862 C 555.572 -4.99643 1.52166 0
M  V30 5863 H 557.266 -2.77074 1.13447 0
M  V30 5864 H 554.812 -1.33207 0.546971 0
M  V30 5865 H 556.765 -4.11754 -0.896474 0
M  V30 5866 H 555.489 -2.96681 -1.36558 0
M  V30 5867 H 554.148 -3.60437 0.669391 0
M  V30 5868 H 553.796 -4.8018 -1.49788 0
M  V30 5869 H 553.496 -5.87501 -0.107968 0
M  V30 5870 H 555.02 -6.01862 -1.02927 0
M  V30 5871 H 556.434 -5.6051 1.20421 0
M  V30 5872 H 554.831 -5.66022 1.99347 0
M  V30 5873 H 555.901 -4.27701 2.28474 0
M  V30 5874 N 557.244 -0.608902 -1.45362 0
M  V30 5875 C 558.492 -0.104401 -2.0183 0
M  V30 5876 C 558.813 1.27007 -1.47967 0
M  V30 5877 O 558.083 1.83924 -0.674455 0
M  V30 5878 H 556.663 -0.0356042 -0.746151 0
M  V30 5879 H 559.325 -0.790596 -1.78145 0
M  V30 5880 H 558.421 -0.0551793 -3.12051 0
M  V30 5881 N 558.722 1.53707 -0.348139 0
M  V30 5882 C 559.968 2.01286 0.247332 0
M  V30 5883 C 560.301 1.23546 1.49834 0
M  V30 5884 O 559.576 0.324331 1.91777 0
M  V30 5885 C 559.859 3.55768 0.556858 0
M  V30 5886 C 559.712 4.44216 -0.706564 0
M  V30 5887 C 561.031 4.1841 1.3646 0
M  V30 5888 H 558.15 0.731677 0.0884201 0
M  V30 5889 H 560.792 1.84106 -0.469584 0
M  V30 5890 H 558.942 3.70539 1.16761 0
M  V30 5891 H 560.614 4.41274 -1.34444 0
M  V30 5892 H 558.857 4.12892 -1.33052 0
M  V30 5893 H 559.528 5.50202 -0.445186 0
M  V30 5894 H 562.004 4.07365 0.848113 0
M  V30 5895 H 560.88 5.26563 1.54992 0
M  V30 5896 H 561.141 3.7333 2.36805 0
M  V30 5897 N 560.2 0.0768682 1.57412 0
M  V30 5898 C 561.449 -0.590679 1.92857 0
M  V30 5899 C 561.762 -1.70461 0.959293 0
M  V30 5900 O 562.968 -2.43207 1.20675 0
M  V30 5901 C 561.424 -1.10204 3.42612 0
M  V30 5902 C 561.032 -0.0188447 4.47996 0
M  V30 5903 C 562.776 -1.74336 3.87049 0
M  V30 5904 C 560.683 -0.544536 5.88888 0
M  V30 5905 H 559.613 -0.224411 0.71983 0
M  V30 5906 H 562.264 0.149924 1.82887 0
M  V30 5907 H 560.646 -1.89577 3.47673 0
M  V30 5908 H 561.82 0.755936 4.54557 0
M  V30 5909 H 560.135 0.526555 4.13057 0
M  V30 5910 H 562.732 -2.14708 4.89699 0
M  V30 5911 H 563.075 -2.60537 3.24694 0
M  V30 5912 H 563.608 -1.01577 3.84613 0
M  V30 5913 H 560.347 0.280426 6.549 0
M  V30 5914 H 559.867 -1.28673 5.85836 0
M  V30 5915 H 561.546 -1.01933 6.3892 0
M  V30 5916 N 561.678 -1.56367 -0.196722 0
M  V30 5917 C 563.089 -1.70462 -0.761545 0
M  V30 5918 C 563.44 -0.683161 -1.83922 0
M  V30 5919 O 562.565 0.160753 -2.15802 0
M  V30 5920 C 563.16 -3.09057 -1.38814 0
M  V30 5921 C 561.719 -3.24922 -1.90007 0
M  V30 5922 C 560.866 -2.66412 -0.769399 0
M  V30 5923 H 563.817 -1.58675 0.0283263 0
M  V30 5924 H 563.838 -3.06296 -2.2575 0
M  V30 5925 H 563.35 -3.83378 -0.603559 0
M  V30 5926 H 561.451 -2.55514 -2.71189 0
M  V30 5927 H 561.564 -4.3241 -2.06297 0
M  V30 5928 H 559.928 -2.25546 -1.18326 0
M  V30 5929 H 560.711 -3.433 0.00291773 0
M  V30 5930 N 563.156 0.464375 -1.50603 0
M  V30 5931 C 564.104 1.58224 -1.70493 0
M  V30 5932 C 565.098 1.59492 -0.570836 0
M  V30 5933 O 566.304 1.63561 -0.751517 0
M  V30 5934 H 562.679 0.525161 -0.538247 0
M  V30 5935 H 564.65 1.38613 -2.64252 0
M  V30 5936 C 563.399 2.96113 -1.82243 0
M  V30 5937 H 562.722 2.95858 -2.68901 0
M  V30 5938 H 564.162 3.73769 -2.00182 0
M  V30 5939 C 562.621 3.31946 -0.575628 0
M  V30 5940 O 563.151 4.00708 0.282152 0
M  V30 5941 N 561.357 2.87436 -0.427665 0
M  V30 5942 H 560.904 2.31652 -1.12674 0
M  V30 5943 H 560.862 3.11776 0.405379 0
M  V30 5944 N 564.634 1.40294 0.718013 0
M  V30 5945 C 565.88 1.38645 1.48005 0
M  V30 5946 C 566.213 -0.0121202 1.94196 0
M  V30 5947 O 565.488 -0.980309 1.67989 0
M  V30 5948 C 565.771 2.37379 2.70782 0
M  V30 5949 C 565.624 3.8625 2.30501 0
M  V30 5950 C 566.943 2.33685 3.72933 0
M  V30 5951 H 564.062 0.504928 0.536858 0
M  V30 5952 H 566.704 1.71411 0.819649 0
M  V30 5953 H 564.854 2.09568 3.27129 0
M  V30 5954 H 566.526 4.24879 1.79655 0
M  V30 5955 H 564.769 4.02202 1.6253 0
M  V30 5956 H 565.44 4.50847 3.18498 0
M  V30 5957 H 567.916 2.58314 3.2621 0
M  V30 5958 H 566.792 3.0482 4.56482 0
M  V30 5959 H 567.053 1.34765 4.21059 0
M  V30 5960 N 566.112 -0.949982 1.2575 0
M  V30 5961 C 567.022 -2.08109 1.08295 0
M  V30 5962 C 568.038 -1.7399 0.0188181 0
M  V30 5963 O 569.214 -2.00187 0.220724 0
M  V30 5964 C 566.279 -3.39383 0.708534 0
M  V30 5965 C 565.34 -3.8734 1.85111 0
M  V30 5966 C 564.573 -5.12349 1.49447 0
M  V30 5967 O 564.796 -5.6905 0.392212 0
M  V30 5968 O 563.73 -5.5513 2.32624 0
M  V30 5969 H 567.556 -2.25738 2.03165 0
M  V30 5970 H 565.141 -1.06545 1.04731 0
M  V30 5971 H 567.023 -4.18277 0.512061 0
M  V30 5972 H 565.698 -3.23013 -0.210854 0
M  V30 5973 H 564.605 -3.09429 2.10248 0
M  V30 5974 H 565.938 -4.08216 2.74991 0
M  V30 5975 N 567.59 -1.07411 -1.15328 0
M  V30 5976 C 568.838 -0.796073 -1.85761 0
M  V30 5977 C 569.159 0.679864 -1.82764 0
M  V30 5978 O 568.429 1.49242 -1.269 0
M  V30 5979 H 567.009 -0.291495 -0.687779 0
M  V30 5980 H 569.671 -1.35799 -1.39802 0
M  V30 5981 H 568.767 -1.13114 -2.90881 0
M  V30 5982 N 569.068 1.32177 -0.85831 0
M  V30 5983 C 570.484 1.49873 -0.548656 0
M  V30 5984 C 570.684 1.79278 0.919874 0
M  V30 5985 O 569.74 1.86451 1.70271 0
M  V30 5986 C 571.053 2.64043 -1.4388 0
M  V30 5987 C 572.601 2.77928 -1.43961 0
M  V30 5988 C 573.076 3.95182 -2.31506 0
M  V30 5989 N 574.567 4.0245 -2.29321 0
M  V30 5990 C 575.302 4.9242 -2.93786 0
M  V30 5991 N 574.798 5.87373 -3.67376 0
M  V30 5992 N 576.591 4.85572 -2.83155 0
M  V30 5993 H 568.742 1.11357 -1.80868 0
M  V30 5994 H 571.005 0.549175 -0.772729 0
M  V30 5995 H 570.711 2.49055 -2.48324 0
M  V30 5996 H 570.585 3.59912 -1.12885 0
M  V30 5997 H 572.972 2.92338 -0.402813 0
M  V30 5998 H 573.053 1.82762 -1.78974 0
M  V30 5999 H 572.697 3.81531 -3.35256 0
M  V30 6000 H 572.627 4.89633 -1.93823 0
M  V30 6001 H 575.118 3.34507 -1.75822 0
M  V30 6002 H 575.431 6.52728 -4.13722 0
M  V30 6003 H 573.776 5.87388 -3.71484 0
M  V30 6004 H 576.967 4.10363 -2.25211 0
M  V30 6005 H 577.14 5.55486 -3.33676 0
M  V30 6006 N 570.547 0.616602 1.45037 0
M  V30 6007 C 571.793 0.115501 2.02471 0
M  V30 6008 C 572.126 -1.25406 1.4828 0
M  V30 6009 O 571.401 -1.82922 0.661051 0
M  V30 6010 C 571.684 0.0863588 3.59996 0
M  V30 6011 C 571.537 1.48723 4.24501 0
M  V30 6012 C 572.856 -0.596762 4.36035 0
M  V30 6013 H 569.975 0.0434461 0.735718 0
M  V30 6014 H 572.617 0.7903 1.72784 0
M  V30 6015 H 570.767 -0.488277 3.85419 0
M  V30 6016 H 572.439 2.10964 4.10234 0
M  V30 6017 H 570.682 2.04534 3.82555 0
M  V30 6018 H 571.353 1.419 5.3345 0
M  V30 6019 H 573.829 -0.10824 4.15959 0
M  V30 6020 H 572.705 -0.586289 5.4576 0
M  V30 6021 H 572.966 -1.66451 4.09569 0
M  V30 6022 N 572.025 -1.5352 0.356285 0
M  V30 6023 C 572.958 -2.2177 -0.537913 0
M  V30 6024 C 573.936 -1.20626 -1.09033 0
M  V30 6025 O 575.12 -1.49494 -1.1482 0
M  V30 6026 C 572.247 -2.90513 -1.74126 0
M  V30 6027 C 571.293 -4.05652 -1.31715 0
M  V30 6028 S 572.126 -5.34505 -0.326236 0
M  V30 6029 C 573.282 -6.06757 -1.53612 0
M  V30 6030 H 573.515 -2.97271 0.0417411 0
M  V30 6031 H 571.048 -1.53761 0.140372 0
M  V30 6032 H 573.006 -3.30735 -2.43155 0
M  V30 6033 H 571.667 -2.14754 -2.29215 0
M  V30 6034 H 570.86 -4.52733 -2.21471 0
M  V30 6035 H 570.462 -3.67272 -0.706183 0
M  V30 6036 H 572.754 -6.30924 -2.46863 0
M  V30 6037 H 573.697 -6.99395 -1.10687 0
M  V30 6038 H 574.105 -5.3708 -1.73796 0
M  V30 6039 N 573.503 -0.0852151 -1.57369 0
M  V30 6040 C 574.78 0.622534 -1.85429 0
M  V30 6041 C 575.16 1.86962 -0.980229 0
M  V30 6042 O 574.508 2.28445 -0.0500219 0
M  V30 6043 C 574.718 0.947374 -3.35896 0
M  V30 6044 C 576.066 1.31509 -4.03721 0
M  V30 6045 O 577.09 1.03869 -3.40719 0
M  V30 6046 O 575.949 1.83231 -5.14868 0
M  V30 6047 H 573.043 0.310513 -0.766492 0
M  V30 6048 H 575.589 -0.117164 -1.69295 0
M  V30 6049 H 574.361 0.0622264 -3.91251 0
M  V30 6050 H 573.984 1.74338 -3.5734 0
M  V30 6051 N 574.981 1.5647 0.188427 0
M  V30 6052 C 576.227 1.81281 0.909124 0
M  V30 6053 C 576.56 0.66034 1.82628 0
M  V30 6054 O 575.835 -0.338737 1.91528 0
M  V30 6055 C 576.118 3.16388 1.7196 0
M  V30 6056 C 575.971 4.42137 0.826714 0
M  V30 6057 C 577.29 3.48256 2.69083 0
M  V30 6058 H 574.409 0.659457 0.329068 0
M  V30 6059 H 577.051 1.89182 0.176156 0
M  V30 6060 H 575.201 3.09784 2.34448 0
M  V30 6061 H 576.873 4.60794 0.216025 0
M  V30 6062 H 575.116 4.33594 0.133792 0
M  V30 6063 H 575.787 5.33184 1.42893 0
M  V30 6064 H 578.263 3.55203 2.16726 0
M  V30 6065 H 577.139 4.43899 3.2287 0
M  V30 6066 H 577.4 2.72088 3.48455 0
M  V30 6067 N 576.459 -0.456382 1.50847 0
M  V30 6068 C 577.87 -1.03685 1.55262 0
M  V30 6069 C 578.221 -1.92779 0.364771 0
M  V30 6070 O 577.346 -2.10043 -0.52068 0
M  V30 6071 C 577.941 -1.88718 2.81374 0
M  V30 6072 C 576.5 -2.41847 2.88422 0
M  V30 6073 C 575.647 -1.20564 2.49719 0
M  V30 6074 H 578.598 -0.238399 1.56899 0
M  V30 6075 H 578.619 -2.73957 2.6406 0
M  V30 6076 H 578.131 -1.23847 3.67809 0
M  V30 6077 H 576.232 -3.10228 2.06372 0
M  V30 6078 H 576.345 -2.75947 3.9165 0
M  V30 6079 H 574.709 -1.54504 2.02486 0
M  V30 6080 H 575.492 -0.573326 3.38479 0
M  V30 6081 N 577.937 -1.40673 -0.710563 0
M  V30 6082 C 579.185 -1.38947 -1.46759 0
M  V30 6083 C 579.506 0.00572879 -1.94999 0
M  V30 6084 O 578.776 0.961358 -1.70689 0
M  V30 6085 H 577.356 -0.5114 -0.544499 0
M  V30 6086 H 580.018 -1.75773 -0.842012 0
M  V30 6087 H 579.114 -2.06745 -2.33801 0
M  V30 6088 N 579.415 0.9433 -1.26252 0
M  V30 6089 C 580.345 2.05902 -1.10122 0
M  V30 6090 C 581.326 1.70099 -0.00700552 0
M  V30 6091 O 582.511 1.93377 -0.178641 0
M  V30 6092 C 579.641 3.39516 -0.731175 0
M  V30 6093 C 578.595 3.89372 -1.77688 0
M  V30 6094 C 577.921 5.19613 -1.26122 0
M  V30 6095 C 579.221 4.14489 -3.17799 0
M  V30 6096 H 580.915 2.19655 -2.03451 0
M  V30 6097 H 578.461 1.05548 -0.979576 0
M  V30 6098 H 580.414 4.17031 -0.605215 0
M  V30 6099 H 579.138 3.25733 0.23782 0
M  V30 6100 H 577.797 3.14036 -1.89148 0
M  V30 6101 H 577.445 5.02208 -0.282128 0
M  V30 6102 H 577.145 5.53939 -1.96023 0
M  V30 6103 H 578.669 5.99713 -1.14789 0
M  V30 6104 H 580.083 4.82625 -3.09428 0
M  V30 6105 H 578.48 4.60094 -3.85271 0
M  V30 6106 H 579.55 3.20347 -3.64014 0
M  V30 6107 N 580.893 1.08022 1.14757 0
M  V30 6108 C 582.123 0.827646 1.89298 0
M  V30 6109 C 582.531 -0.623506 1.78631 0
M  V30 6110 O 581.874 -1.43991 1.14071 0
M  V30 6111 C 581.936 1.16553 3.40082 0
M  V30 6112 C 581.6 2.61866 3.74533 0
M  V30 6113 C 582.597 3.60116 3.74984 0
M  V30 6114 C 580.282 2.97619 4.04633 0
M  V30 6115 C 582.276 4.92151 4.05051 0
M  V30 6116 C 579.963 4.2985 4.34364 0
M  V30 6117 C 580.961 5.26926 4.34555 0
M  V30 6118 O 580.649 6.5678 4.63568 0
M  V30 6119 H 580.381 0.298396 0.606577 0
M  V30 6120 H 582.935 1.44187 1.46285 0
M  V30 6121 H 581.165 0.494296 3.83528 0
M  V30 6122 H 582.854 0.894407 3.95923 0
M  V30 6123 H 583.62 3.33837 3.51821 0
M  V30 6124 H 579.499 2.22702 4.03639 0
M  V30 6125 H 583.043 5.67915 4.05115 0
M  V30 6126 H 578.94 4.55879 4.56995 0
M  V30 6127 H 579.708 6.62035 4.81303 0
M  V30 6128 N 582.371 -1.3172 0.865308 0
M  V30 6129 C 583.611 -1.98675 0.480365 0
M  V30 6130 C 583.975 -1.66929 -0.948621 0
M  V30 6131 O 585.176 -2.27059 -1.43867 0
M  V30 6132 C 583.447 -3.49972 0.724858 0
M  V30 6133 S 585.006 -4.36598 0.439078 0
M  V30 6134 H 581.824 -0.687967 0.179506 0
M  V30 6135 H 584.426 -1.60215 1.12033 0
M  V30 6136 H 583.13 -3.70567 1.76375 0
M  V30 6137 H 582.661 -3.93335 0.0717173 0
M  V30 6138 H 584.676 -4.90792 -0.730564 0
M  V30 6139 N 583.85 -0.624285 -1.44708 0
M  V30 6140 C 585.075 -0.131171 -2.06985 0
M  V30 6141 C 585.5 1.18234 -1.46295 0
M  V30 6142 O 584.858 1.72375 -0.561842 0
M  V30 6143 C 584.906 -0.0226724 -3.60593 0
M  V30 6144 O 584.01 1.02314 -3.99507 0
M  V30 6145 H 583.351 -0.0816556 -0.65896 0
M  V30 6146 H 585.88 -0.859027 -1.85693 0
M  V30 6147 H 585.891 0.170138 -4.07645 0
M  V30 6148 H 584.566 -0.981685 -4.04148 0
M  V30 6149 H 583.143 0.805452 -3.64097 0
M  V30 6150 N 585.328 1.53329 -0.364422 0
M  V30 6151 C 586.576 2.00842 0.225189 0
M  V30 6152 C 586.897 1.25345 1.49378 0
M  V30 6153 O 586.167 0.366396 1.92443 0
M  V30 6154 H 584.747 0.742009 0.0862027 0
M  V30 6155 H 587.409 1.8863 -0.490389 0
M  V30 6156 H 586.505 3.08795 0.452987 0
M  V30 6157 N 586.806 0.0935595 1.57322 0
M  V30 6158 C 588.052 -0.565234 1.95388 0
M  V30 6159 C 588.407 -1.65888 0.974632 0
M  V30 6160 O 587.7 -1.916 0.000376385 0
M  V30 6161 C 587.894 -1.16692 3.37813 0
M  V30 6162 C 587.723 -0.133091 4.49503 0
M  V30 6163 C 586.493 0.289884 5.04468 0
M  V30 6164 C 588.691 0.638141 5.10326 0
M  V30 6165 N 586.673 1.31214 5.99713 0
M  V30 6166 C 588.044 1.51227 6.01274 0
M  V30 6167 C 590.099 0.691827 4.9307 0
M  V30 6168 C 588.802 2.43536 6.76818 0
M  V30 6169 C 590.828 1.60251 5.69274 0
M  V30 6170 C 590.19 2.46427 6.59889 0
M  V30 6171 H 586.289 -0.177212 0.761656 0
M  V30 6172 H 588.873 0.175769 1.93905 0
M  V30 6173 H 587.044 -1.87775 3.39993 0
M  V30 6174 H 588.776 -1.78795 3.63063 0
M  V30 6175 H 585.531 -0.0975541 4.735 0
M  V30 6176 H 585.955 1.82143 6.52038 0
M  V30 6177 H 590.597 0.0397431 4.22781 0
M  V30 6178 H 588.315 3.0977 7.4637 0
M  V30 6179 H 591.901 1.64917 5.57937 0
M  V30 6180 H 590.781 3.15751 7.17824 0
M  V30 6181 N 588.284 -1.56567 -0.180126 0
M  V30 6182 C 589.53 -1.81761 -0.899497 0
M  V30 6183 C 589.863 -0.670015 -1.82276 0
M  V30 6184 O 589.138 0.328575 -1.91705 0
M  V30 6185 C 589.421 -3.17296 -1.7028 0
M  V30 6186 C 589.274 -4.4257 -0.803255 0
M  V30 6187 C 590.593 -3.49678 -2.67233 0
M  V30 6188 H 587.712 -0.661192 -0.325567 0
M  V30 6189 H 590.354 -1.89272 -0.16612 0
M  V30 6190 H 588.504 -3.11023 -2.32802 0
M  V30 6191 H 590.176 -4.60902 -0.191585 0
M  V30 6192 H 588.419 -4.33658 -0.110796 0
M  V30 6193 H 589.09 -5.33935 -1.40064 0
M  V30 6194 H 591.566 -3.56347 -2.14839 0
M  V30 6195 H 590.442 -4.45605 -3.20511 0
M  V30 6196 H 590.703 -2.73932 -3.47007 0
M  V30 6197 N 589.762 0.448376 -1.51087 0
M  V30 6198 C 590.709 1.54341 -1.71603 0
M  V30 6199 C 591.679 1.56463 -0.557536 0
M  V30 6200 O 592.864 1.73644 -0.79072 0
M  V30 6201 C 590.004 2.92148 -1.83695 0
M  V30 6202 C 589.117 2.99639 -3.11192 0
M  V30 6203 C 588.252 4.285 -3.13944 0
M  V30 6204 C 587.291 4.29819 -4.35801 0
M  V30 6205 N 586.428 5.50186 -4.36164 0
M  V30 6206 H 591.268 1.36151 -2.65079 0
M  V30 6207 H 588.805 0.661585 -1.31383 0
M  V30 6208 H 590.763 3.72093 -1.88687 0
M  V30 6209 H 589.393 3.0892 -0.936374 0
M  V30 6210 H 588.445 2.12425 -3.15562 0
M  V30 6211 H 589.757 2.96474 -4.01129 0
M  V30 6212 H 588.911 5.16811 -3.17791 0
M  V30 6213 H 587.65 4.34307 -2.21876 0
M  V30 6214 H 586.655 3.39902 -4.32142 0
M  V30 6215 H 587.88 4.25685 -5.29121 0
M  V30 6216 H 585.826 5.56735 -3.46961 0
M  V30 6217 H 585.743 5.48856 -5.19897 0
M  V30 6218 H 587.011 6.40559 -4.44189 0
M  V30 6219 N 591.24 1.41047 0.703093 0
M  V30 6220 C 592.656 1.23351 1.01275 0
M  V30 6221 C 592.856 0.11754 2.01157 0
M  V30 6222 O 591.912 -0.520518 2.47077 0
M  V30 6223 C 593.225 2.58001 1.54454 0
M  V30 6224 C 594.773 2.65119 1.66376 0
M  V30 6225 C 595.248 4.00067 2.22958 0
M  V30 6226 N 596.739 4.01875 2.30328 0
M  V30 6227 C 597.474 5.03087 2.75119 0
M  V30 6228 N 596.97 6.14692 3.19571 0
M  V30 6229 N 598.763 4.90451 2.74616 0
M  V30 6230 H 590.914 2.1236 0.0412686 0
M  V30 6231 H 593.177 0.944543 0.08089 0
M  V30 6232 H 592.883 3.40378 0.88521 0
M  V30 6233 H 592.757 2.79962 2.52786 0
M  V30 6234 H 595.144 1.83106 2.31422 0
M  V30 6235 H 595.225 2.46975 0.666089 0
M  V30 6236 H 594.869 4.82526 1.58529 0
M  V30 6237 H 594.799 4.15547 3.23462 0
M  V30 6238 H 597.29 3.21291 1.98949 0
M  V30 6239 H 597.603 6.87799 3.52352 0
M  V30 6240 H 595.948 6.18239 3.17498 0
M  V30 6241 H 599.139 4.0235 2.39233 0
M  V30 6242 H 599.312 5.6947 3.09206 0
M  V30 6243 N 592.718 -0.936591 1.26751 0
M  V30 6244 C 593.966 -1.67998 1.12343 0
M  V30 6245 C 594.287 -1.92137 -0.332938 0
M  V30 6246 O 593.557 -1.52132 -1.23421 0
M  V30 6247 H 592.137 -0.622609 0.412756 0
M  V30 6248 H 594.799 -1.12509 1.59147 0
M  V30 6249 H 593.895 -2.65185 1.64571 0
M  V30 6250 N 594.196 -1.08629 -1.14182 0
M  V30 6251 C 595.607 -0.838003 -1.66836 0
M  V30 6252 C 595.958 0.634885 -1.85644 0
M  V30 6253 O 595.083 1.49008 -1.56926 0
M  V30 6254 C 595.678 -1.51465 -3.03058 0
M  V30 6255 C 594.237 -1.31355 -3.52736 0
M  V30 6256 C 593.384 -1.57599 -2.28162 0
M  V30 6257 H 596.335 -1.24656 -0.982165 0
M  V30 6258 H 596.356 -0.943134 -3.68626 0
M  V30 6259 H 595.868 -2.58661 -2.89337 0
M  V30 6260 H 593.969 -0.262384 -3.71675 0
M  V30 6261 H 594.082 -2.04275 -4.33369 0
M  V30 6262 H 592.446 -0.997659 -2.34348 0
M  V30 6263 H 593.229 -2.66006 -2.17015 0
M  V30 6264 N 595.674 1.31259 -0.872281 0
M  V30 6265 C 596.902 2.00795 -0.498907 0
M  V30 6266 C 597.317 1.65464 0.909238 0
M  V30 6267 O 596.674 0.885073 1.59602 0
M  V30 6268 C 596.725 3.55625 -0.649092 0
M  V30 6269 O 596.446 3.89692 -2.00179 0
M  V30 6270 C 597.947 4.42434 -0.277034 0
M  V30 6271 H 595.167 0.642299 -0.194145 0
M  V30 6272 H 597.711 1.67438 -1.17408 0
M  V30 6273 H 595.866 3.87394 -0.0214402 0
M  V30 6274 H 596.28 4.84407 -2.01122 0
M  V30 6275 H 597.754 5.50299 -0.433064 0
M  V30 6276 H 598.231 4.32146 0.783989 0
M  V30 6277 H 598.837 4.16086 -0.880483 0
M  V30 6278 N 597.152 0.631951 1.44375 0
M  V30 6279 C 598.4 0.136497 2.01639 0
M  V30 6280 C 598.721 -1.24637 1.49969 0
M  V30 6281 O 597.991 -1.82827 0.70363 0
M  V30 6282 H 596.571 0.0474703 0.74549 0
M  V30 6283 H 599.233 0.818837 1.76865 0
M  V30 6284 H 598.329 0.104817 3.11924 0
M  V30 6285 N 598.631 -1.53133 0.372548 0
M  V30 6286 C 599.877 -2.01654 -0.215277 0
M  V30 6287 C 600.21 -1.25914 -1.47849 0
M  V30 6288 O 599.485 -0.3548 -1.91237 0
M  V30 6289 C 599.768 -3.56609 -0.500187 0
M  V30 6290 C 599.621 -4.43036 0.777145 0
M  V30 6291 C 600.94 -4.20528 -1.29786 0
M  V30 6292 H 598.059 -0.732991 -0.0767686 0
M  V30 6293 H 600.701 -1.83335 0.498814 0
M  V30 6294 H 598.851 -3.7235 -1.10852 0
M  V30 6295 H 600.523 -4.39079 1.41447 0
M  V30 6296 H 598.766 -4.10723 1.39604 0
M  V30 6297 H 599.437 -5.49424 0.532662 0
M  V30 6298 H 601.913 -4.08663 -0.783198 0
M  V30 6299 H 600.789 -5.28962 -1.46596 0
M  V30 6300 H 601.05 -3.77051 -2.30836 0
M  V30 6301 N 600.109 -0.101901 -1.5727 0
M  V30 6302 C 601.358 0.559922 -1.93772 0
M  V30 6303 C 601.671 1.68913 -0.98629 0
M  V30 6304 O 602.877 2.41256 -1.24529 0
M  V30 6305 C 601.333 1.04739 -3.44322 0
M  V30 6306 C 600.941 -0.05243 -4.47969 0
M  V30 6307 C 602.685 1.68157 -3.89774 0
M  V30 6308 C 600.592 0.450781 -5.8968 0
M  V30 6309 H 599.522 0.212931 -0.723309 0
M  V30 6310 H 602.173 -0.179001 -1.82625 0
M  V30 6311 H 600.555 1.84021 -3.50645 0
M  V30 6312 H 601.729 -0.828157 -4.53297 0
M  V30 6313 H 600.044 -0.592202 -4.12167 0
M  V30 6314 H 602.641 2.0689 -4.93052 0
M  V30 6315 H 602.984 2.55338 -3.28798 0
M  V30 6316 H 603.517 0.954453 -3.8618 0
M  V30 6317 H 600.256 -0.38458 -6.54371 0
M  V30 6318 H 599.776 1.19336 -5.87809 0
M  V30 6319 H 601.455 0.917555 -6.40461 0
M  V30 6320 N 601.587 1.56661 0.17182 0
M  V30 6321 C 602.55 1.9549 1.19651 0
M  V30 6322 C 603.55 0.838501 1.37207 0
M  V30 6323 O 604.74 1.10556 1.34622 0
M  V30 6324 C 601.872 2.24927 2.56166 0
M  V30 6325 H 603.065 2.87184 0.864007 0
M  V30 6326 H 600.618 1.50711 0.41425 0
M  V30 6327 H 601.353 1.35944 2.94431 0
M  V30 6328 H 601.138 3.06301 2.4479 0
M  V30 6329 H 602.628 2.55891 3.30014 0
M  V30 6330 N 603.065 -0.440357 1.51323 0
M  V30 6331 C 604.293 -1.21255 1.67645 0
M  V30 6332 C 604.708 -1.85088 0.37252 0
M  V30 6333 O 604.065 -1.70582 -0.648683 0
M  V30 6334 C 604.116 -2.29881 2.78993 0
M  V30 6335 O 603.837 -1.68659 4.04334 0
M  V30 6336 C 605.338 -3.20214 3.06558 0
M  V30 6337 H 602.558 -0.36558 0.562666 0
M  V30 6338 H 605.102 -0.52214 1.97722 0
M  V30 6339 H 603.257 -2.94643 2.51524 0
M  V30 6340 H 603.671 -2.40426 4.6615 0
M  V30 6341 H 605.145 -3.92575 3.88058 0
M  V30 6342 H 605.622 -3.80794 2.18844 0
M  V30 6343 H 606.228 -2.61156 3.35675 0
M  V30 6344 N 604.543 -1.41418 -0.695603 0
M  V30 6345 C 605.771 -1.4413 -1.48439 0
M  V30 6346 C 606.186 -0.0465698 -1.88743 0
M  V30 6347 O 605.543 0.934117 -1.56782 0
M  V30 6348 C 605.594 -2.34998 -2.74696 0
M  V30 6349 O 605.315 -3.69043 -2.36091 0
M  V30 6350 C 606.816 -2.46513 -3.68438 0
M  V30 6351 H 604.036 -0.490905 -0.457442 0
M  V30 6352 H 606.58 -1.85702 -0.856454 0
M  V30 6353 H 604.735 -1.96735 -3.33728 0
M  V30 6354 H 605.149 -4.17505 -3.17474 0
M  V30 6355 H 606.623 -3.1426 -4.53811 0
M  V30 6356 H 607.1 -1.49638 -4.12922 0
M  V30 6357 H 607.706 -2.85412 -3.1531 0
M  V30 6358 N 606.021 0.929856 -1.27246 0
M  V30 6359 C 606.954 2.03069 -1.04106 0
M  V30 6360 C 607.932 1.62556 0.0378417 0
M  V30 6361 O 609.116 1.88197 -0.106869 0
M  V30 6362 C 606.243 3.33718 -0.578778 0
M  V30 6363 C 605.289 3.93209 -1.65193 0
M  V30 6364 S 606.122 4.26068 -3.24386 0
M  V30 6365 C 607.278 5.598 -2.79954 0
M  V30 6366 H 607.511 2.22386 -1.97311 0
M  V30 6367 H 605.044 1.07269 -1.11053 0
M  V30 6368 H 607.002 4.09261 -0.31874 0
M  V30 6369 H 605.663 3.12328 0.333182 0
M  V30 6370 H 604.856 4.87482 -1.27973 0
M  V30 6371 H 604.458 3.24243 -1.86393 0
M  V30 6372 H 606.75 6.39004 -2.25123 0
M  V30 6373 H 607.693 6.01917 -3.72963 0
M  V30 6374 H 608.101 5.20219 -2.19164 0
M  V30 6375 N 607.499 1.09233 1.13605 0
M  V30 6376 C 608.727 0.848908 1.88683 0
M  V30 6377 C 609.142 -0.599667 1.79024 0
M  V30 6378 O 608.499 -1.41265 1.15544 0
M  V30 6379 C 608.55 1.27273 3.38355 0
M  V30 6380 O 608.271 2.66449 3.47759 0
M  V30 6381 C 609.772 1.0614 4.30406 0
M  V30 6382 H 606.992 0.305549 0.597395 0
M  V30 6383 H 609.536 1.4538 1.43823 0
M  V30 6384 H 607.691 0.711776 3.80805 0
M  V30 6385 H 608.105 2.84264 4.40788 0
M  V30 6386 H 609.579 1.40725 5.33761 0
M  V30 6387 H 610.056 -0.000960332 4.392 0
M  V30 6388 H 610.662 1.60821 3.93722 0
M  V30 6389 N 608.977 -1.30795 0.87923 0
M  V30 6390 C 610.254 -1.91145 0.415086 0
M  V30 6391 C 610.634 -1.7995 -1.10368 0
M  V30 6392 O 609.982 -1.21305 -1.93642 0
M  V30 6393 C 610.192 -3.37014 0.906778 0
M  V30 6394 C 611.54 -4.14101 0.938358 0
M  V30 6395 O 612.564 -3.45834 0.853053 0
M  V30 6396 O 611.423 -5.36054 1.06342 0
M  V30 6397 H 608.517 -0.81736 0.125905 0
M  V30 6398 H 611.063 -1.39401 0.967753 0
M  V30 6399 H 609.835 -3.3922 1.95053 0
M  V30 6400 H 609.458 -3.96204 0.332948 0
M  V30 6401 N 610.455 -0.639598 -1.44038 0
M  V30 6402 C 611.68 -0.153117 -2.06834 0
M  V30 6403 C 612.105 1.16676 -1.47541 0
M  V30 6404 O 611.463 1.71769 -0.580093 0
M  V30 6405 C 611.511 -0.0609169 -3.60549 0
M  V30 6406 O 610.615 0.98071 -4.00569 0
M  V30 6407 H 609.956 -0.0886402 -0.658057 0
M  V30 6408 H 612.486 -0.878674 -1.84771 0
M  V30 6409 H 612.496 0.126892 -4.07803 0
M  V30 6410 H 611.171 -1.0245 -4.03084 0
M  V30 6411 H 609.748 0.766789 -3.64931 0
M  V30 6412 N 611.933 1.52934 -0.380664 0
M  V30 6413 C 613.18 2.01467 0.204278 0
M  V30 6414 C 613.508 1.26744 1.47533 0
M  V30 6415 O 612.763 0.353723 1.92477 0
M  V30 6416 C 613.062 3.5349 0.527199 0
M  V30 6417 C 612.728 4.46171 -0.651295 0
M  V30 6418 C 611.39 4.71227 -0.974619 0
M  V30 6419 C 613.742 5.00909 -1.44012 0
M  V30 6420 C 611.07 5.4827 -2.08847 0
M  V30 6421 C 613.422 5.7917 -2.5445 0
M  V30 6422 C 612.086 6.02507 -2.87301 0
M  V30 6423 H 611.356 0.73722 0.0747504 0
M  V30 6424 H 614.003 1.84411 -0.516234 0
M  V30 6425 H 612.308 3.68574 1.32892 0
M  V30 6426 H 614.005 3.88529 0.992283 0
M  V30 6427 H 610.595 4.26829 -0.389276 0
M  V30 6428 H 614.779 4.81485 -1.20357 0
M  V30 6429 H 610.035 5.64567 -2.34679 0
M  V30 6430 H 614.209 6.20588 -3.1598 0
M  V30 6431 H 611.836 6.61989 -3.7373 0
M  V30 6432 N 613.412 0.11024 1.57214 0
M  V30 6433 C 614.342 -0.840002 2.17867 0
M  V30 6434 C 615.323 -1.28352 1.11624 0
M  V30 6435 O 616.508 -1.3477 1.39824 0
M  V30 6436 C 613.638 -2.09349 2.77111 0
M  V30 6437 C 612.592 -1.78807 3.8886 0
M  V30 6438 C 611.918 -3.11112 4.34872 0
M  V30 6439 C 613.218 -1.0632 5.11364 0
M  V30 6440 H 614.912 -0.334608 2.97524 0
M  V30 6441 H 612.458 -0.159502 1.43114 0
M  V30 6442 H 614.411 -2.76275 3.18198 0
M  V30 6443 H 613.135 -2.62198 1.9473 0
M  V30 6444 H 611.794 -1.14273 3.48335 0
M  V30 6445 H 611.442 -3.61877 3.49362 0
M  V30 6446 H 611.142 -2.91453 5.10224 0
M  V30 6447 H 612.666 -3.79171 4.78604 0
M  V30 6448 H 614.08 -1.63383 5.49526 0
M  V30 6449 H 612.477 -0.967876 5.92243 0
M  V30 6450 H 613.547 -0.0484569 4.84876 0
M  V30 6451 N 614.89 -1.56749 -0.16351 0
M  V30 6452 C 616.118 -1.86577 -0.894233 0
M  V30 6453 C 616.533 -0.696543 -1.75481 0
M  V30 6454 O 615.89 0.334161 -1.79415 0
M  V30 6455 C 615.941 -3.15508 -1.76456 0
M  V30 6456 O 615.662 -4.27926 -0.938685 0
M  V30 6457 C 617.163 -3.58737 -2.60428 0
M  V30 6458 H 614.383 -0.618829 -0.259405 0
M  V30 6459 H 616.927 -2.03863 -0.161259 0
M  V30 6460 H 615.082 -3.00025 -2.45079 0
M  V30 6461 H 615.496 -5.01546 -1.53465 0
M  V30 6462 H 616.97 -4.51832 -3.17099 0
M  V30 6463 H 617.447 -2.83229 -3.35675 0
M  V30 6464 H 618.053 -3.76858 -1.97125 0
M  V30 6465 N 616.368 0.432326 -1.51554 0
M  V30 6466 C 617.616 1.17901 -1.64146 0
M  V30 6467 C 617.937 1.91604 -0.362367 0
M  V30 6468 O 617.207 1.85764 0.621968 0
M  V30 6469 H 615.787 0.438206 -0.604966 0
M  V30 6470 H 618.449 0.495172 -1.88505 0
M  V30 6471 H 617.545 1.90584 -2.47152 0
M  V30 6472 N 617.846 1.41785 0.688094 0
M  V30 6473 C 618.778 1.40159 1.81351 0
M  V30 6474 C 619.791 0.30262 1.59963 0
M  V30 6475 O 620.98 0.564841 1.69327 0
M  V30 6476 C 618.08 1.16517 3.1824 0
M  V30 6477 C 617.253 2.38597 3.66593 0
M  V30 6478 C 616.312 2.10699 4.82174 0
M  V30 6479 O 615.338 2.83798 4.93404 0
M  V30 6480 N 616.54 1.10187 5.69947 0
M  V30 6481 H 619.305 2.3716 1.83236 0
M  V30 6482 H 616.866 1.36494 0.870697 0
M  V30 6483 H 618.858 0.957941 3.93199 0
M  V30 6484 H 617.428 0.280873 3.11336 0
M  V30 6485 H 616.648 2.74974 2.82459 0
M  V30 6486 H 617.936 3.19919 3.95638 0
M  V30 6487 H 617.334 0.497016 5.63512 0
M  V30 6488 H 615.891 0.954518 6.44773 0
M  V30 6489 N 619.324 -0.923095 1.27737 0
M  V30 6490 C 620.257 -2.02515 1.05181 0
M  V30 6491 C 621.235 -1.62574 -0.0292204 0
M  V30 6492 O 622.419 -1.88137 0.116848 0
M  V30 6493 C 619.546 -3.33407 0.596468 0
M  V30 6494 C 618.592 -3.92328 1.67276 0
M  V30 6495 S 619.425 -4.24342 3.26641 0
M  V30 6496 C 620.581 -5.58308 2.82919 0
M  V30 6497 H 620.814 -2.21336 1.98488 0
M  V30 6498 H 618.347 -1.06679 1.1162 0
M  V30 6499 H 620.305 -4.09086 0.34044 0
M  V30 6500 H 618.966 -3.125 -0.316614 0
M  V30 6501 H 618.159 -4.86797 1.30556 0
M  V30 6502 H 617.761 -3.2325 1.8811 0
M  V30 6503 H 620.053 -6.37801 2.28509 0
M  V30 6504 H 620.996 -5.99931 3.7615 0
M  V30 6505 H 621.404 -5.19049 2.21919 0
M  V30 6506 N 620.802 -1.09834 -1.13024 0
M  V30 6507 C 621.732 -0.763451 -2.20666 0
M  V30 6508 C 622.713 0.260778 -1.68089 0
M  V30 6509 O 623.898 0.127915 -1.93778 0
M  V30 6510 C 621.028 -0.187744 -3.46792 0
M  V30 6511 C 619.982 -1.14196 -4.12484 0
M  V30 6512 C 619.308 -0.427755 -5.32986 0
M  V30 6513 C 620.608 -2.48607 -4.59338 0
M  V30 6514 H 622.302 -1.66347 -2.48936 0
M  V30 6515 H 619.848 -0.801261 -1.19649 0
M  V30 6516 H 621.801 0.0586375 -4.21359 0
M  V30 6517 H 620.525 0.747485 -3.17931 0
M  V30 6518 H 619.184 -1.37369 -3.3989 0
M  V30 6519 H 618.832 0.511747 -5.0039 0
M  V30 6520 H 618.532 -1.06403 -5.77886 0
M  V30 6521 H 620.056 -0.189772 -6.10305 0
M  V30 6522 H 621.47 -2.29618 -5.25308 0
M  V30 6523 H 619.867 -3.08062 -5.14993 0
M  V30 6524 H 620.937 -3.09062 -3.73642 0
M  V30 6525 N 622.28 1.30327 -0.886154 0
M  V30 6526 C 623.21 2.30549 -0.370028 0
M  V30 6527 C 624.191 1.61039 0.547751 0
M  V30 6528 O 625.376 1.8864 0.461353 0
M  V30 6529 C 622.506 3.44808 0.415275 0
M  V30 6530 C 621.46 4.26024 -0.41085 0
M  V30 6531 C 620.786 5.32347 0.501128 0
M  V30 6532 C 622.086 4.95433 -1.65359 0
M  V30 6533 H 623.78 2.73969 -1.20754 0
M  V30 6534 H 621.326 1.3171 -0.582097 0
M  V30 6535 H 623.279 4.13986 0.78699 0
M  V30 6536 H 622.003 3.00197 1.28644 0
M  V30 6537 H 620.662 3.58535 -0.764719 0
M  V30 6538 H 620.31 4.83982 1.37004 0
M  V30 6539 H 620.01 5.87581 -0.0478356 0
M  V30 6540 H 621.534 6.0438 0.869333 0
M  V30 6541 H 622.948 5.5712 -1.35239 0
M  V30 6542 H 621.345 5.60537 -2.14284 0
M  V30 6543 H 622.415 4.21493 -2.39733 0
M  V30 6544 N 623.758 0.647228 1.43697 0
M  V30 6545 C 624.69 -0.0866232 2.29036 0
M  V30 6546 C 625.703 -0.793051 1.42178 0
M  V30 6547 O 626.892 -0.651807 1.66174 0
M  V30 6548 C 623.992 -1.14552 3.18953 0
M  V30 6549 C 623.165 -0.518422 4.34317 0
M  V30 6550 C 622.224 -1.4734 5.05151 0
M  V30 6551 O 621.25 -0.984312 5.60625 0
M  V30 6552 N 622.452 -2.8075 5.08094 0
M  V30 6553 H 625.217 0.645834 2.92659 0
M  V30 6554 H 622.778 0.489567 1.54321 0
M  V30 6555 H 624.77 -1.78505 3.63205 0
M  V30 6556 H 623.34 -1.78001 2.56971 0
M  V30 6557 H 622.56 0.300079 3.93056 0
M  V30 6558 H 623.848 -0.080401 5.08736 0
M  V30 6559 H 623.246 -3.23052 4.64386 0
M  V30 6560 H 621.803 -3.40022 5.56083 0
M  V30 6561 N 625.236 -1.5273 0.388769 0
M  V30 6562 C 626.513 -1.93981 -0.251133 0
M  V30 6563 C 626.893 -1.32418 -1.64404 0
M  V30 6564 O 626.241 -0.492074 -2.23139 0
M  V30 6565 C 626.451 -3.47891 -0.27802 0
M  V30 6566 C 627.799 -4.21559 -0.507229 0
M  V30 6567 O 628.823 -3.54394 -0.358252 0
M  V30 6568 O 627.682 -5.40626 -0.799094 0
M  V30 6569 H 624.776 -0.812157 -0.15598 0
M  V30 6570 H 627.322 -1.63809 0.443237 0
M  V30 6571 H 626.094 -3.8503 0.697669 0
M  V30 6572 H 625.717 -3.84364 -1.01733 0
M  V30 6573 N 626.714 -0.118576 -1.57153 0
M  V30 6574 C 627.644 0.828436 -2.1831 0
M  V30 6575 C 628.625 1.27758 -1.12303 0
M  V30 6576 O 629.81 1.34026 -1.40537 0
M  V30 6577 C 626.94 2.07876 -2.78217 0
M  V30 6578 C 625.894 1.76742 -3.89803 0
M  V30 6579 C 625.22 3.08801 -4.36516 0
M  V30 6580 C 626.52 1.03606 -5.11921 0
M  V30 6581 H 628.214 0.318824 -2.97698 0
M  V30 6582 H 625.76 0.151911 -1.43196 0
M  V30 6583 H 627.713 2.74584 -3.19659 0
M  V30 6584 H 626.437 2.61161 -1.96118 0
M  V30 6585 H 625.096 1.12424 -3.48936 0
M  V30 6586 H 624.744 3.6002 -3.51276 0
M  V30 6587 H 624.444 2.88743 -5.11763 0
M  V30 6588 H 625.968 3.76627 -4.80608 0
M  V30 6589 H 627.382 1.60467 -5.50385 0
M  V30 6590 H 625.779 0.936454 -5.92748 0
M  V30 6591 H 626.849 0.0227421 -4.84895 0
M  V30 6592 N 628.193 1.56834 0.155195 0
M  V30 6593 C 629.14 1.97646 1.19184 0
M  V30 6594 C 630.11 0.842788 1.4313 0
M  V30 6595 O 631.295 1.1042 1.55602 0
M  V30 6596 C 628.435 2.35527 2.52232 0
M  V30 6597 C 627.548 3.62147 2.35529 0
M  V30 6598 C 626.683 3.89167 3.61555 0
M  V30 6599 C 625.722 5.09084 3.39853 0
M  V30 6600 N 624.859 5.32156 4.5799 0
M  V30 6601 H 629.699 2.8601 0.836802 0
M  V30 6602 H 627.236 1.41507 0.401758 0
M  V30 6603 H 629.194 2.55516 3.29799 0
M  V30 6604 H 627.824 1.50253 2.85699 0
M  V30 6605 H 626.876 3.4998 1.49057 0
M  V30 6606 H 628.188 4.49871 2.15448 0
M  V30 6607 H 627.342 4.09611 4.47553 0
M  V30 6608 H 626.081 2.9985 3.84632 0
M  V30 6609 H 625.086 4.88522 2.52243 0
M  V30 6610 H 626.311 5.99947 3.18183 0
M  V30 6611 H 624.257 4.45791 4.81255 0
M  V30 6612 H 624.174 6.14133 4.40882 0
M  V30 6613 H 625.442 5.57091 5.45225 0
M  V30 6614 N 629.671 -0.424282 1.51781 0
M  V30 6615 C 630.634 -1.49848 1.73431 0
M  V30 6616 C 631.634 -1.49016 0.604225 0
M  V30 6617 O 632.824 -1.50808 0.871935 0
M  V30 6618 C 629.956 -2.89332 1.80277 0
M  V30 6619 H 631.149 -1.3195 2.69312 0
M  V30 6620 H 628.702 -0.653809 1.41968 0
M  V30 6621 H 629.437 -3.12618 0.862568 0
M  V30 6622 H 629.222 -2.9134 2.62419 0
M  V30 6623 H 630.712 -3.67233 1.98821 0
M  V30 6624 N 631.149 -1.42148 -0.680565 0
M  V30 6625 C 632.397 -1.42029 -1.43779 0
M  V30 6626 C 632.718 -0.0356347 -1.94967 0
M  V30 6627 O 631.988 0.924936 -1.7269 0
M  V30 6628 H 630.568 -0.522835 -0.533529 0
M  V30 6629 H 633.23 -1.7752 -0.804538 0
M  V30 6630 H 632.326 -2.11658 -2.29363 0
M  V30 6631 N 632.627 0.916307 -1.28225 0
M  V30 6632 C 633.557 2.0352 -1.14464 0
M  V30 6633 C 634.538 1.70045 -0.0430844 0
M  V30 6634 O 635.723 1.92954 -0.219619 0
M  V30 6635 C 632.853 3.37889 -0.803027 0
M  V30 6636 C 631.807 3.85516 -1.85908 0
M  V30 6637 C 631.133 5.1682 -1.37116 0
M  V30 6638 C 632.433 4.07655 -3.26519 0
M  V30 6639 H 634.127 2.1529 -2.08064 0
M  V30 6640 H 631.673 1.03446 -1.00174 0
M  V30 6641 H 633.626 4.15654 -0.693537 0
M  V30 6642 H 632.35 3.26164 0.168674 0
M  V30 6643 H 631.009 3.09953 -1.95767 0
M  V30 6644 H 630.657 5.01497 -0.38859 0
M  V30 6645 H 630.357 5.49657 -2.07728 0
M  V30 6646 H 631.881 5.97143 -1.27484 0
M  V30 6647 H 633.295 4.75953 -3.19596 0
M  V30 6648 H 631.692 4.51818 -3.94943 0
M  V30 6649 H 632.762 3.12553 -3.70727 0
M  V30 6650 N 634.105 1.10431 1.1244 0
M  V30 6651 C 635.035 0.775143 2.20258 0
M  V30 6652 C 636.016 -0.25186 1.68225 0
M  V30 6653 O 637.201 -0.117637 1.93843 0
M  V30 6654 C 634.331 0.206133 3.46688 0
M  V30 6655 C 633.285 1.16382 4.11873 0
M  V30 6656 C 632.611 0.456014 5.32752 0
M  V30 6657 C 633.911 2.5104 4.58013 0
M  V30 6658 H 635.605 1.67665 2.4805 0
M  V30 6659 H 633.151 0.807595 1.19222 0
M  V30 6660 H 635.104 -0.036291 4.21384 0
M  V30 6661 H 633.828 -0.730614 3.18323 0
M  V30 6662 H 632.487 1.39169 3.39157 0
M  V30 6663 H 632.135 -0.485203 5.00654 0
M  V30 6664 H 631.835 1.09466 5.77314 0
M  V30 6665 H 633.359 0.222135 6.10196 0
M  V30 6666 H 634.773 2.32401 5.24083 0
M  V30 6667 H 633.17 3.10789 5.13352 0
M  V30 6668 H 634.24 3.11039 3.71998 0
M  V30 6669 N 635.583 -1.29855 0.893053 0
M  V30 6670 C 636.994 -1.77946 0.564998 0
M  V30 6671 C 637.345 -1.73339 -0.919134 0
M  V30 6672 O 636.47 -1.3152 -1.71847 0
M  V30 6673 C 637.065 -3.23118 1.01883 0
M  V30 6674 C 635.624 -3.69013 0.742051 0
M  V30 6675 C 634.771 -2.50121 1.19727 0
M  V30 6676 H 637.722 -1.16611 1.07646 0
M  V30 6677 H 637.743 -3.78875 0.351249 0
M  V30 6678 H 637.255 -3.26439 2.09903 0
M  V30 6679 H 635.356 -3.71173 -0.325816 0
M  V30 6680 H 635.469 -4.60117 1.33527 0
M  V30 6681 H 633.833 -2.47128 0.616418 0
M  V30 6682 H 634.616 -2.56174 2.28538 0
M  V30 6683 N 637.061 -0.65484 -1.43351 0
M  V30 6684 C 638.286 -0.175046 -2.0666 0
M  V30 6685 C 638.711 1.15104 -1.4877 0
M  V30 6686 O 638.069 1.71144 -0.598279 0
M  V30 6687 C 638.117 -0.0991544 -3.60464 0
M  V30 6688 O 637.221 0.938169 -4.01587 0
M  V30 6689 H 636.562 -0.0956148 -0.65708 0
M  V30 6690 H 639.092 -0.898222 -1.83829 0
M  V30 6691 H 639.102 0.083632 -4.07914 0
M  V30 6692 H 637.777 -1.06719 -4.01975 0
M  V30 6693 H 636.354 0.72804 -3.65724 0
M  V30 6694 N 638.539 1.52521 -0.396863 0
M  V30 6695 C 639.787 2.01274 0.182536 0
M  V30 6696 C 640.108 1.28485 1.46685 0
M  V30 6697 O 639.378 0.407134 1.91623 0
M  V30 6698 H 637.958 0.743671 0.0704442 0
M  V30 6699 H 640.62 1.87547 -0.530289 0
M  V30 6700 H 639.716 3.09687 0.387385 0
M  V30 6701 N 640.017 0.126909 1.57088 0
M  V30 6702 C 641.428 -0.397201 1.82426 0
M  V30 6703 C 641.779 -1.66084 1.04453 0
M  V30 6704 O 640.904 -2.14534 0.283552 0
M  V30 6705 C 641.499 -0.727411 3.30899 0
M  V30 6706 C 640.058 -1.19612 3.56889 0
M  V30 6707 C 639.205 -0.20885 2.76512 0
M  V30 6708 H 642.156 0.351924 1.54749 0
M  V30 6709 H 642.177 -1.58407 3.45959 0
M  V30 6710 H 641.689 0.19247 3.87622 0
M  V30 6711 H 639.79 -2.13263 3.05532 0
M  V30 6712 H 639.903 -1.13598 4.65438 0
M  V30 6713 H 638.267 -0.697479 2.44964 0
M  V30 6714 H 639.05 0.704267 3.35998 0
M  V30 6715 N 641.495 -1.56914 -0.146875 0
M  V30 6716 C 642.911 -1.51582 -0.499518 0
M  V30 6717 C 643.111 -0.83535 -1.83369 0
M  V30 6718 O 642.167 -0.405932 -2.49216 0
M  V30 6719 C 643.48 -2.96349 -0.509711 0
M  V30 6720 C 645.028 -3.07288 -0.595217 0
M  V30 6721 C 645.503 -4.53562 -0.636071 0
M  V30 6722 N 646.994 -4.57906 -0.69829 0
M  V30 6723 C 647.729 -5.68462 -0.750886 0
M  V30 6724 N 647.225 -6.88588 -0.76282 0
M  V30 6725 N 649.018 -5.56496 -0.791777 0
M  V30 6726 H 641.169 -1.99547 0.727656 0
M  V30 6727 H 643.432 -0.910113 0.265327 0
M  V30 6728 H 643.138 -3.4939 0.402409 0
M  V30 6729 H 643.012 -3.52307 -1.34758 0
M  V30 6730 H 645.399 -2.54266 -1.49776 0
M  V30 6731 H 645.48 -2.54373 0.2698 0
M  V30 6732 H 645.124 -5.07222 0.262313 0
M  V30 6733 H 645.054 -5.04259 -1.51758 0
M  V30 6734 H 647.545 -3.71429 -0.696362 0
M  V30 6735 H 647.858 -7.68598 -0.804804 0
M  V30 6736 H 646.203 -6.91148 -0.730694 0
M  V30 6737 H 649.394 -4.61562 -0.779624 0
M  V30 6738 H 649.567 -6.42671 -0.829301 0
M  V30 6739 N 642.974 0.416227 -1.52004 0
M  V30 6740 C 644.385 0.995319 -1.57957 0
M  V30 6741 C 644.736 1.91744 -0.415754 0
M  V30 6742 O 643.861 2.11349 0.464808 0
M  V30 6743 C 644.456 1.81191 -2.86278 0
M  V30 6744 C 643.015 2.34115 -2.94732 0
M  V30 6745 C 642.162 1.139 -2.52828 0
M  V30 6746 H 645.113 0.196716 -1.57476 0
M  V30 6747 H 645.134 2.66859 -2.71231 0
M  V30 6748 H 644.646 1.14051 -3.70963 0
M  V30 6749 H 642.747 3.04647 -2.14525 0
M  V30 6750 H 642.86 2.65466 -3.98829 0
M  V30 6751 H 641.224 1.49081 -2.06511 0
M  V30 6752 H 642.007 0.483383 -3.3988 0
M  V30 6753 N 644.452 1.42507 0.673017 0
M  V30 6754 C 645.7 1.42789 1.43023 0
M  V30 6755 C 646.021 0.0459738 1.94946 0
M  V30 6756 O 645.291 -0.915765 1.73178 0
M  V30 6757 H 643.871 0.525657 0.530748 0
M  V30 6758 H 646.533 1.77944 0.795113 0
M  V30 6759 H 645.629 2.12872 2.28237 0
M  V30 6760 N 645.93 -0.909495 1.28709 0
M  V30 6761 C 647.16 -1.69027 1.188 0
M  V30 6762 C 647.568 -1.87469 -0.255329 0
M  V30 6763 O 646.911 -1.40458 -1.18394 0
M  V30 6764 C 646.973 -3.10064 1.81936 0
M  V30 6765 C 646.637 -3.14891 3.31199 0
M  V30 6766 C 647.634 -2.95768 4.27571 0
M  V30 6767 C 645.319 -3.37269 3.7223 0
M  V30 6768 C 647.313 -2.98942 5.6295 0
M  V30 6769 C 645 -3.40074 5.07733 0
M  V30 6770 C 645.998 -3.20932 6.02903 0
M  V30 6771 O 645.686 -3.23507 7.35934 0
M  V30 6772 H 645.418 -0.535014 0.413203 0
M  V30 6773 H 647.972 -1.14645 1.70428 0
M  V30 6774 H 646.202 -3.66005 1.24808 0
M  V30 6775 H 647.891 -3.70185 1.66486 0
M  V30 6776 H 648.657 -2.78302 3.97206 0
M  V30 6777 H 644.536 -3.51212 2.98615 0
M  V30 6778 H 648.08 -2.83919 6.37209 0
M  V30 6779 H 643.977 -3.5707 5.37747 0
M  V30 6780 H 644.745 -3.3984 7.44615 0
M  V30 6781 N 647.408 -1.11026 -1.11852 0
M  V30 6782 C 648.371 -0.768006 -2.1595 0
M  V30 6783 C 649.371 0.210538 -1.59416 0
M  V30 6784 O 650.561 -0.0133978 -1.74195 0
M  V30 6785 C 647.693 -0.138678 -3.40618 0
M  V30 6786 H 648.886 -1.69012 -2.4774 0
M  V30 6787 H 646.439 -0.911578 -1.26964 0
M  V30 6788 H 647.174 0.793872 -3.14433 0
M  V30 6789 H 646.959 -0.843012 -3.8293 0
M  V30 6790 H 648.449 0.0848039 -4.17514 0
M  V30 6791 N 648.886 1.2938 -0.899927 0
M  V30 6792 C 649.849 2.25983 -0.382677 0
M  V30 6793 C 650.849 1.53366 0.483259 0
M  V30 6794 O 652.039 1.71798 0.28828 0
M  V30 6795 C 649.171 3.37878 0.452915 0
M  V30 6796 H 650.364 2.73252 -1.23586 0
M  V30 6797 H 647.917 1.40825 -0.678088 0
M  V30 6798 H 648.652 2.95949 1.32608 0
M  V30 6799 H 648.437 3.91742 -0.167562 0
M  V30 6800 H 649.927 4.09746 0.806107 0
M  V30 6801 N 650.364 0.662433 1.43002 0
M  V30 6802 C 651.613 0.176873 2.00923 0
M  V30 6803 C 651.926 -1.21954 1.52927 0
M  V30 6804 O 653.132 -1.80081 2.03182 0
M  V30 6805 C 651.588 0.265379 3.5892 0
M  V30 6806 C 651.196 1.66507 4.15908 0
M  V30 6807 C 652.94 -0.162103 4.2419 0
M  V30 6808 C 650.847 1.707 5.66229 0
M  V30 6809 H 649.777 0.0623627 0.751417 0
M  V30 6810 H 652.428 0.825813 1.63868 0
M  V30 6811 H 650.81 -0.451235 3.93421 0
M  V30 6812 H 651.984 2.40777 3.92891 0
M  V30 6813 H 650.299 2.03932 3.63044 0
M  V30 6814 H 652.896 -0.150745 5.34487 0
M  V30 6815 H 653.239 -1.19519 3.98774 0
M  V30 6816 H 653.772 0.503075 3.94606 0
M  V30 6817 H 650.511 2.7195 5.96426 0
M  V30 6818 H 650.031 1.00768 5.91275 0
M  V30 6819 H 651.71 1.45487 6.3043 0
M  V30 6820 N 651.842 -1.52309 0.404946 0
M  V30 6821 C 652.774 -2.24579 -0.45791 0
M  V30 6822 C 653.787 -1.2739 -1.01369 0
M  V30 6823 O 654.976 -1.53363 -0.91335 0
M  V30 6824 C 652.076 -2.9608 -1.64893 0
M  V30 6825 C 651.249 -4.20106 -1.21777 0
M  V30 6826 C 650.308 -4.74468 -2.27523 0
M  V30 6827 O 649.334 -5.37157 -1.88285 0
M  V30 6828 N 650.536 -4.55678 -3.59635 0
M  V30 6829 H 653.301 -2.99265 0.161341 0
M  V30 6830 H 650.862 -1.60228 0.232107 0
M  V30 6831 H 652.854 -3.29344 -2.35191 0
M  V30 6832 H 651.424 -2.24606 -2.17419 0
M  V30 6833 H 650.644 -3.92704 -0.343071 0
M  V30 6834 H 651.932 -5.00658 -0.906596 0
M  V30 6835 H 651.33 -4.05673 -3.94266 0
M  V30 6836 H 649.887 -4.9339 -4.25922 0
M  V30 6837 N 653.32 -0.135238 -1.57019 0
M  V30 6838 C 654.283 0.794707 -2.14981 0
M  V30 6839 C 655.283 1.18342 -1.08866 0
M  V30 6840 O 656.473 1.10627 -1.34563 0
M  V30 6841 C 653.605 2.07685 -2.70333 0
M  V30 6842 H 654.798 0.290696 -2.98488 0
M  V30 6843 H 652.351 0.114128 -1.55883 0
M  V30 6844 H 653.086 2.6248 -1.9046 0
M  V30 6845 H 652.871 1.80745 -3.47957 0
M  V30 6846 H 654.361 2.74127 -3.1503 0
M  V30 6847 N 654.798 1.5699 0.138552 0
M  V30 6848 C 655.728 2.01933 1.17241 0
M  V30 6849 C 656.709 0.90033 1.44319 0
M  V30 6850 O 657.894 1.16872 1.55095 0
M  V30 6851 C 655.024 2.40711 2.50351 0
M  V30 6852 C 653.978 3.55874 2.37776 0
M  V30 6853 C 653.304 3.80491 3.75674 0
M  V30 6854 C 654.604 4.8826 1.85472 0
M  V30 6855 H 656.298 2.88551 0.798672 0
M  V30 6856 H 653.844 1.3882 0.382743 0
M  V30 6857 H 655.797 2.70754 3.22909 0
M  V30 6858 H 654.521 1.5104 2.89576 0
M  V30 6859 H 653.18 3.2601 1.67669 0
M  V30 6860 H 652.828 2.88057 4.12349 0
M  V30 6861 H 652.528 4.57998 3.68119 0
M  V30 6862 H 654.052 4.12967 4.49767 0
M  V30 6863 H 655.466 5.16965 2.4783 0
M  V30 6864 H 653.863 5.69631 1.88787 0
M  V30 6865 H 654.933 4.78071 0.810935 0
M  V30 6866 N 656.276 -0.40816 1.52223 0
M  V30 6867 C 657.206 -1.5042 1.78595 0
M  V30 6868 C 658.187 -1.57723 0.636974 0
M  V30 6869 O 659.372 -1.72982 0.882664 0
M  V30 6870 C 656.502 -2.88232 1.93751 0
M  V30 6871 C 655.456 -2.95779 3.09352 0
M  V30 6872 C 654.782 -4.35855 3.09732 0
M  V30 6873 C 656.082 -2.67175 4.48793 0
M  V30 6874 H 657.776 -1.28601 2.70374 0
M  V30 6875 H 655.322 -0.617221 1.30101 0
M  V30 6876 H 657.275 -3.64895 2.10783 0
M  V30 6877 H 655.999 -3.11347 0.986443 0
M  V30 6878 H 654.658 -2.21561 2.92072 0
M  V30 6879 H 654.306 -4.55981 2.12346 0
M  V30 6880 H 654.006 -4.41829 3.87377 0
M  V30 6881 H 655.53 -5.14451 3.28895 0
M  V30 6882 H 656.944 -3.3356 4.66273 0
M  V30 6883 H 655.341 -2.84523 5.28362 0
M  V30 6884 H 656.411 -1.62609 4.56822 0
M  V30 6885 N 657.755 -1.42862 -0.66545 0
M  V30 6886 C 658.98 -1.47456 -1.45848 0
M  V30 6887 C 659.405 -0.0900312 -1.87884 0
M  V30 6888 O 658.763 0.913587 -1.56599 0
M  V30 6889 C 658.811 -2.41514 -2.67774 0
M  V30 6890 O 657.915 -1.89296 -3.66389 0
M  V30 6891 H 657.256 -0.499236 -0.437789 0
M  V30 6892 H 659.786 -1.8765 -0.815394 0
M  V30 6893 H 659.796 -2.58409 -3.15735 0
M  V30 6894 H 658.471 -3.42099 -2.36519 0
M  V30 6895 H 657.048 -1.82003 -3.25468 0
M  V30 6896 N 659.233 0.902656 -1.29189 0
M  V30 6897 C 660.458 1.69167 -1.19989 0
M  V30 6898 C 660.883 1.86607 0.236495 0
M  V30 6899 O 660.241 1.38425 1.17082 0
M  V30 6900 C 660.289 3.05532 -1.91527 0
M  V30 6901 O 659.393 3.93621 -1.2303 0
M  V30 6902 H 658.734 0.517584 -0.415936 0
M  V30 6903 H 661.264 1.12785 -1.70706 0
M  V30 6904 H 661.274 3.55693 -1.99866 0
M  V30 6905 H 659.949 2.92156 -2.96003 0
M  V30 6906 H 658.526 3.52055 -1.22928 0
M  V30 6907 N 660.711 1.11618 1.11262 0
M  V30 6908 C 662.127 0.850468 1.35053 0
M  V30 6909 C 662.327 -0.523868 1.94571 0
M  V30 6910 O 661.383 -1.2743 2.17986 0
M  V30 6911 C 662.696 1.96005 2.28041 0
M  V30 6912 C 664.244 1.98993 2.416 0
M  V30 6913 C 664.719 3.0916 3.37911 0
M  V30 6914 N 666.21 3.08547 3.45475 0
M  V30 6915 C 666.945 3.9043 4.19943 0
M  V30 6916 N 666.441 4.8228 4.97371 0
M  V30 6917 N 668.234 3.786 4.15474 0
M  V30 6918 H 660.385 2.00184 0.709932 0
M  V30 6919 H 662.648 0.870635 0.375099 0
M  V30 6920 H 662.354 2.9499 1.91503 0
M  V30 6921 H 662.228 1.85782 3.28275 0
M  V30 6922 H 664.615 1.00633 2.77411 0
M  V30 6923 H 664.696 2.13292 1.4121 0
M  V30 6924 H 664.34 4.07748 3.02827 0
M  V30 6925 H 664.27 2.92102 4.3816 0
M  V30 6926 H 666.761 2.42 2.90249 0
M  V30 6927 H 667.074 5.41289 5.51567 0
M  V30 6928 H 665.419 4.863 4.96525 0
M  V30 6929 H 668.61 3.06185 3.54074 0
M  V30 6930 H 668.783 4.42647 4.73253 0
M  V30 6931 N 662.189 -1.289 0.906776 0
M  V30 6932 C 663.437 -1.94883 0.535266 0
M  V30 6933 C 663.758 -1.71784 -0.922791 0
M  V30 6934 O 663.028 -1.05359 -1.65156 0
M  V30 6935 H 661.608 -0.721109 0.194962 0
M  V30 6936 H 664.27 -1.57018 1.15461 0
M  V30 6937 H 663.366 -3.03591 0.723821 0
M  V30 6938 N 663.667 -0.670007 -1.42649 0
M  V30 6939 C 664.913 -0.190568 -2.01903 0
M  V30 6940 C 665.246 1.19817 -1.52832 0
M  V30 6941 O 664.521 1.80342 -0.728485 0
M  V30 6942 C 664.804 -0.21991 -3.59428 0
M  V30 6943 C 664.657 -1.64376 -4.18689 0
M  V30 6944 C 665.976 0.434519 -4.3795 0
M  V30 6945 H 663.095 -0.0707219 -0.733599 0
M  V30 6946 H 665.737 -0.853883 -1.69732 0
M  V30 6947 H 663.887 0.344894 -3.86966 0
M  V30 6948 H 665.559 -2.26044 -4.02122 0
M  V30 6949 H 663.802 -2.18591 -3.747 0
M  V30 6950 H 664.473 -1.61601 -5.27815 0
M  V30 6951 H 666.949 -0.0462156 -4.16074 0
M  V30 6952 H 665.825 0.38333 -5.4756 0
M  V30 6953 H 666.086 1.51135 -4.15464 0
M  V30 6954 N 665.145 1.52092 -0.413018 0
M  V30 6955 C 666.561 1.59471 -0.0640836 0
M  V30 6956 C 666.761 1.42562 1.42402 0
M  V30 6957 O 665.817 1.25453 2.19129 0
M  V30 6958 C 667.13 2.95392 -0.562474 0
M  V30 6959 C 668.678 3.08637 -0.520788 0
M  V30 6960 C 669.153 4.47044 -0.995752 0
M  V30 6961 N 670.644 4.53296 -0.952732 0
M  V30 6962 C 671.379 5.58669 -1.29138 0
M  V30 6963 N 670.875 6.71576 -1.70168 0
M  V30 6964 N 672.668 5.48898 -1.2111 0
M  V30 6965 H 664.819 1.6133 -1.38153 0
M  V30 6966 H 667.082 0.75916 -0.567785 0
M  V30 6967 H 666.788 3.13059 -1.60271 0
M  V30 6968 H 666.662 3.77191 0.0257875 0
M  V30 6969 H 669.049 2.90652 0.510412 0
M  V30 6970 H 669.13 2.28735 -1.14515 0
M  V30 6971 H 668.774 4.65773 -2.0253 0
M  V30 6972 H 668.704 5.25448 -0.348162 0
M  V30 6973 H 671.195 3.72248 -0.651119 0
M  V30 6974 H 671.508 7.47973 -1.9431 0
M  V30 6975 H 669.853 6.72847 -1.74075 0
M  V30 6976 H 673.044 4.59573 -0.889396 0
M  V30 6977 H 673.217 6.30912 -1.47833 0
M  V30 6978 N 666.623 0.143563 1.56945 0
M  V30 6979 C 668.034 -0.37783 1.82837 0
M  V30 6980 C 668.385 -1.64967 1.06209 0
M  V30 6981 O 667.51 -2.14221 0.306291 0
M  V30 6982 C 668.105 -0.692274 3.31652 0
M  V30 6983 C 666.664 -1.1582 3.58138 0
M  V30 6984 C 665.811 -0.17951 2.76718 0
M  V30 6985 H 668.762 0.368317 1.54367 0
M  V30 6986 H 668.783 -1.54729 3.47619 0
M  V30 6987 H 668.295 0.233572 3.87397 0
M  V30 6988 H 666.396 -2.10011 3.07776 0
M  V30 6989 H 666.509 -1.08655 4.66616 0
M  V30 6990 H 664.873 -0.671458 2.4569 0
M  V30 6991 H 665.656 0.739865 3.35233 0
M  V30 6992 N 668.101 -1.57061 -0.130224 0
M  V30 6993 C 669.347 -1.8453 -0.841216 0
M  V30 6994 C 669.68 -0.727666 -1.80052 0
M  V30 6995 O 668.955 0.267419 -1.92653 0
M  V30 6996 C 669.238 -3.22553 -1.60099 0
M  V30 6997 C 669.091 -4.44901 -0.662048 0
M  V30 6998 C 670.41 -3.58003 -2.55973 0
M  V30 6999 H 667.529 -0.671215 -0.304366 0
M  V30 7000 H 670.171 -1.89705 -0.105821 0
M  V30 7001 H 668.321 -3.18272 -2.22789 0
M  V30 7002 H 669.993 -4.61278 -0.0448559 0
M  V30 7003 H 668.236 -4.33791 0.0272253 0
M  V30 7004 H 668.907 -5.3812 -1.23006 0
M  V30 7005 H 671.383 -3.63002 -2.03393 0
M  V30 7006 H 670.259 -4.55576 -3.06172 0
M  V30 7007 H 670.52 -2.84833 -3.38116 0
M  V30 7008 N 669.579 0.400081 -1.52437 0
M  V30 7009 C 670.804 1.17221 -1.71096 0
M  V30 7010 C 671.229 1.83269 -0.423565 0
M  V30 7011 O 670.587 1.70378 0.619751 0
M  V30 7012 C 670.635 2.20425 -2.85386 0
M  V30 7013 O 669.739 3.26769 -2.51586 0
M  V30 7014 H 669.08 0.341766 -0.569291 0
M  V30 7015 H 671.61 0.467772 -1.99181 0
M  V30 7016 H 671.62 2.64605 -3.10561 0
M  V30 7017 H 670.295 1.71737 -3.78786 0
M  V30 7018 H 668.872 2.87804 -2.37114 0
M  V30 7019 N 671.057 1.43213 0.657864 0
M  V30 7020 C 672.304 1.44584 1.41781 0
M  V30 7021 C 672.632 0.0684208 1.9438 0
M  V30 7022 O 671.887 -0.925872 1.72413 0
M  V30 7023 C 672.186 2.43143 2.61947 0
M  V30 7024 C 671.852 3.89128 2.27794 0
M  V30 7025 C 670.514 4.28889 2.18191 0
M  V30 7026 C 672.866 4.81144 2.00375 0
M  V30 7027 C 670.194 5.58625 1.79319 0
M  V30 7028 C 672.546 6.11239 1.63003 0
M  V30 7029 C 671.21 6.49981 1.51922 0
M  V30 7030 H 670.48 0.529069 0.518813 0
M  V30 7031 H 673.127 1.76263 0.748577 0
M  V30 7032 H 671.432 2.04851 3.33981 0
M  V30 7033 H 673.129 2.4146 3.20153 0
M  V30 7034 H 669.719 3.57657 2.36176 0
M  V30 7035 H 673.903 4.512 2.06718 0
M  V30 7036 H 669.159 5.87486 1.69323 0
M  V30 7037 H 673.333 6.82014 1.40817 0
M  V30 7038 H 670.96 7.50416 1.21572 0
M  V30 7039 N 672.536 -0.895792 1.29666 0
M  V30 7040 C 673.761 -1.68528 1.20885 0
M  V30 7041 C 674.186 -1.8673 -0.226595 0
M  V30 7042 O 673.544 -1.39044 -1.16347 0
M  V30 7043 C 673.592 -3.04512 1.93144 0
M  V30 7044 O 672.696 -3.92963 1.25115 0
M  V30 7045 H 672.037 -0.515371 0.418675 0
M  V30 7046 H 674.567 -1.11878 1.71302 0
M  V30 7047 H 674.577 -3.54628 2.0175 0
M  V30 7048 H 673.252 -2.90582 2.97548 0
M  V30 7049 H 671.829 -3.51399 1.24794 0
M  V30 7050 N 674.014 -1.12206 -1.10668 0
M  V30 7051 C 675.291 -0.787382 -1.79052 0
M  V30 7052 C 675.671 0.723267 -1.98323 0
M  V30 7053 O 675.019 1.6561 -1.57434 0
M  V30 7054 C 675.229 -1.55968 -3.1221 0
M  V30 7055 C 676.577 -1.74413 -3.87125 0
M  V30 7056 O 677.601 -1.5246 -3.21923 0
M  V30 7057 O 676.46 -2.10952 -5.04144 0
M  V30 7058 H 673.554 -0.286137 -0.775922 0
M  V30 7059 H 676.1 -1.22595 -1.1734 0
M  V30 7060 H 674.872 -2.58692 -2.93588 0
M  V30 7061 H 674.495 -1.1152 -3.8164 0
M  V30 7062 N 675.492 1.28418 -0.913599 0
M  V30 7063 C 676.738 1.95627 -0.556933 0
M  V30 7064 C 677.093 1.706 0.889565 0
M  V30 7065 O 676.386 1.01637 1.6242 0
M  V30 7066 C 676.58 3.48283 -0.802099 0
M  V30 7067 C 676.409 3.88151 -2.27088 0
M  V30 7068 C 675.179 4.1232 -2.92096 0
M  V30 7069 C 677.377 3.98819 -3.24728 0
M  V30 7070 N 675.359 4.3886 -4.29272 0
M  V30 7071 C 676.73 4.29571 -4.47067 0
M  V30 7072 C 678.785 3.81342 -3.20129 0
M  V30 7073 C 677.488 4.44667 -5.65388 0
M  V30 7074 C 679.514 3.97656 -4.37749 0
M  V30 7075 C 678.876 4.2878 -5.58862 0
M  V30 7076 H 674.975 0.739715 -0.253664 0
M  V30 7077 H 677.559 1.55074 -1.1773 0
M  V30 7078 H 675.73 3.87826 -0.211007 0
M  V30 7079 H 677.462 4.02623 -0.409478 0
M  V30 7080 H 674.217 4.06611 -2.42826 0
M  V30 7081 H 674.641 4.56214 -5.00198 0
M  V30 7082 H 679.283 3.56331 -2.2757 0
M  V30 7083 H 677.001 4.68509 -6.58426 0
M  V30 7084 H 680.587 3.85569 -4.35692 0
M  V30 7085 H 679.467 4.41136 -6.48359 0
M  V30 7086 N 676.97 0.677563 1.42291 0
M  V30 7087 C 677.88 0.000962654 2.346 0
M  V30 7088 C 678.896 -0.785833 1.55244 0
M  V30 7089 O 680.072 -0.727523 1.87801 0
M  V30 7090 C 677.137 -0.936746 3.33805 0
M  V30 7091 C 676.198 -0.144173 4.29058 0
M  V30 7092 C 675.431 -1.03722 5.23524 0
M  V30 7093 O 675.654 -2.27675 5.22992 0
M  V30 7094 O 674.588 -0.496542 5.99848 0
M  V30 7095 H 678.414 0.761397 2.94001 0
M  V30 7096 H 675.999 0.43781 1.42841 0
M  V30 7097 H 677.881 -1.47497 3.94744 0
M  V30 7098 H 676.556 -1.67698 2.76874 0
M  V30 7099 H 675.463 0.438224 3.71524 0
M  V30 7100 H 676.796 0.55701 4.89038 0
M  V30 7101 N 678.448 -1.51871 0.421078 0
M  V30 7102 C 679.395 -2.27334 -0.398508 0
M  V30 7103 C 680.365 -1.30241 -1.03085 0
M  V30 7104 O 681.55 -1.59121 -1.05285 0
M  V30 7105 C 678.69 -3.10664 -1.50272 0
M  V30 7106 C 677.803 -4.2273 -0.890122 0
M  V30 7107 C 676.938 -4.93399 -1.96803 0
M  V30 7108 C 675.977 -5.97409 -1.333 0
M  V30 7109 N 675.114 -6.61548 -2.35156 0
M  V30 7110 H 679.954 -2.96938 0.251411 0
M  V30 7111 H 677.491 -1.46472 0.135825 0
M  V30 7112 H 679.449 -3.57292 -2.15403 0
M  V30 7113 H 678.079 -2.43207 -2.1225 0
M  V30 7114 H 677.131 -3.80186 -0.127537 0
M  V30 7115 H 678.443 -4.97302 -0.386349 0
M  V30 7116 H 677.597 -5.43491 -2.69633 0
M  V30 7117 H 676.336 -4.18421 -2.50549 0
M  V30 7118 H 675.341 -5.46624 -0.59008 0
M  V30 7119 H 676.566 -6.74335 -0.803076 0
M  V30 7120 H 674.512 -5.89394 -2.88012 0
M  V30 7121 H 674.429 -7.31832 -1.89624 0
M  V30 7122 H 675.697 -7.16276 -3.0752 0
M  V30 7123 N 679.926 -0.151884 -1.56866 0
M  V30 7124 C 680.856 0.781943 -2.20018 0
M  V30 7125 C 681.837 1.25347 -1.14987 0
M  V30 7126 O 683.022 1.31015 -1.43348 0
M  V30 7127 C 680.152 2.01928 -2.82564 0
M  V30 7128 C 679.106 1.68434 -3.93464 0
M  V30 7129 C 678.432 2.99472 -4.42968 0
M  V30 7130 C 679.732 0.927244 -5.14003 0
M  V30 7131 H 681.426 0.255607 -2.98307 0
M  V30 7132 H 678.972 0.121502 -1.43486 0
M  V30 7133 H 680.925 2.67741 -3.25411 0
M  V30 7134 H 679.649 2.56943 -2.01614 0
M  V30 7135 H 678.308 1.04998 -3.51242 0
M  V30 7136 H 677.956 3.52488 -3.58834 0
M  V30 7137 H 677.656 2.77823 -5.17772 0
M  V30 7138 H 679.18 3.66348 -4.88489 0
M  V30 7139 H 680.594 1.48756 -5.53665 0
M  V30 7140 H 678.991 0.810513 -5.94601 0
M  V30 7141 H 680.061 -0.0801163 -4.84834 0
M  V30 7142 N 681.404 1.57128 0.121893 0
M  V30 7143 C 682.681 1.75664 0.860327 0
M  V30 7144 C 683.061 0.726585 1.98202 0
M  V30 7145 O 682.409 -0.24999 2.27128 0
M  V30 7146 C 682.619 3.20571 1.37968 0
M  V30 7147 C 683.967 3.82988 1.83317 0
M  V30 7148 O 684.991 3.24156 1.47654 0
M  V30 7149 O 683.85 4.86393 2.49168 0
M  V30 7150 H 680.944 0.719153 0.408348 0
M  V30 7151 H 683.49 1.6937 0.105859 0
M  V30 7152 H 682.262 3.87056 0.57477 0
M  V30 7153 H 681.885 3.31392 2.19694 0
M  V30 7154 N 682.882 -0.391992 1.52647 0
M  V30 7155 C 683.845 -1.46135 1.7657 0
M  V30 7156 C 684.845 -1.47701 0.635698 0
M  V30 7157 O 686.035 -1.48924 0.903728 0
M  V30 7158 C 683.167 -2.85443 1.86374 0
M  V30 7159 H 684.36 -1.26208 2.72051 0
M  V30 7160 H 681.913 -0.623549 1.43323 0
M  V30 7161 H 682.648 -3.10718 0.928685 0
M  V30 7162 H 682.433 -2.85708 2.68539 0
M  V30 7163 H 683.923 -3.62933 2.06566 0
M  V30 7164 N 684.36 -1.4356 -0.65026 0
M  V30 7165 C 685.27 -1.514 -1.79207 0
M  V30 7166 C 686.286 -0.400895 -1.69319 0
M  V30 7167 O 687.462 -0.655458 -1.90436 0
M  V30 7168 C 684.527 -1.43737 -3.155 0
M  V30 7169 C 683.588 -2.65743 -3.37163 0
M  V30 7170 C 682.821 -2.58436 -4.66954 0
M  V30 7171 O 683.044 -1.63374 -5.46503 0
M  V30 7172 O 681.978 -3.48984 -4.90402 0
M  V30 7173 H 685.804 -2.47825 -1.75547 0
M  V30 7174 H 683.389 -1.25594 -0.809111 0
M  V30 7175 H 685.271 -1.41916 -3.96784 0
M  V30 7176 H 683.946 -0.504488 -3.19745 0
M  V30 7177 H 682.853 -2.73136 -2.55632 0
M  V30 7178 H 684.186 -3.58014 -3.37768 0
M  V30 7179 N 685.838 0.888903 -1.30139 0
M  V30 7180 C 686.748 2.02705 -1.18101 0
M  V30 7181 C 687.764 1.73702 -0.101809 0
M  V30 7182 O 688.94 1.98906 -0.315984 0
M  V30 7183 C 686.005 3.35616 -0.869651 0
M  V30 7184 C 685.066 3.78067 -2.03381 0
M  V30 7185 C 684.299 5.04635 -1.73721 0
M  V30 7186 O 684.522 5.66531 -0.663267 0
M  V30 7187 O 683.456 5.43399 -2.58845 0
M  V30 7188 H 687.282 2.15788 -2.13704 0
M  V30 7189 H 684.867 1.01426 -1.09695 0
M  V30 7190 H 686.749 4.15358 -0.711043 0
M  V30 7191 H 685.424 3.23651 0.0565002 0
M  V30 7192 H 684.331 2.99046 -2.24772 0
M  V30 7193 H 685.664 3.94631 -2.94155 0
M  V30 7194 N 687.317 1.12792 1.10072 0
M  V30 7195 C 688.563 0.886857 1.82381 0
M  V30 7196 C 688.896 -0.58576 1.85155 0
M  V30 7197 O 688.171 -1.43317 1.31493 0
M  V30 7198 C 688.454 1.46703 3.28862 0
M  V30 7199 C 688.307 3.00829 3.34398 0
M  V30 7200 C 689.626 1.12971 4.25353 0
M  V30 7201 H 686.745 0.32362 0.662148 0
M  V30 7202 H 689.387 1.39513 1.28982 0
M  V30 7203 H 687.537 1.03476 3.74466 0
M  V30 7204 H 689.209 3.52764 2.97247 0
M  V30 7205 H 687.452 3.36164 2.74183 0
M  V30 7206 H 688.123 3.36519 4.3756 0
M  V30 7207 H 690.599 1.50313 3.88001 0
M  V30 7208 H 689.475 1.56223 5.26199 0
M  V30 7209 H 689.736 0.0424452 4.4208 0
M  V30 7210 N 688.795 -1.27931 0.920396 0
M  V30 7211 C 689.758 -2.25345 0.41858 0
M  V30 7212 C 690.758 -1.54116 -0.458798 0
M  V30 7213 O 691.948 -1.72235 -0.260912 0
M  V30 7214 C 689.08 -3.38556 -0.399104 0
M  V30 7215 H 690.273 -2.71251 1.27918 0
M  V30 7216 H 687.826 -1.39728 0.700406 0
M  V30 7217 H 688.561 -2.98021 -1.27882 0
M  V30 7218 H 688.346 -3.91426 0.229863 0
M  V30 7219 H 689.836 -4.10976 -0.740817 0
M  V30 7220 N 690.273 -0.685099 -1.4193 0
M  V30 7221 C 691.689 -0.355632 -1.55587 0
M  V30 7222 C 691.889 1.13823 -1.66273 0
M  V30 7223 O 690.945 1.92387 -1.63534 0
M  V30 7224 C 692.258 -1.09498 -2.80055 0
M  V30 7225 C 693.806 -1.07831 -2.93839 0
M  V30 7226 C 694.281 -1.79919 -4.21181 0
M  V30 7227 N 695.772 -1.76837 -4.28115 0
M  V30 7228 C 696.507 -2.29463 -5.25485 0
M  V30 7229 N 696.003 -2.90516 -6.28945 0
M  V30 7230 N 697.796 -2.19779 -5.17353 0
M  V30 7231 H 689.947 -1.65412 -1.33239 0
M  V30 7232 H 692.21 -0.697453 -0.642078 0
M  V30 7233 H 691.916 -2.14997 -2.78333 0
M  V30 7234 H 691.79 -0.666813 -3.71259 0
M  V30 7235 H 694.177 -0.0316152 -2.95083 0
M  V30 7236 H 694.258 -1.54545 -2.03837 0
M  V30 7237 H 693.902 -2.84562 -4.20698 0
M  V30 7238 H 693.832 -1.30647 -5.10136 0
M  V30 7239 H 696.323 -1.32315 -3.53979 0
M  V30 7240 H 696.636 -3.28266 -6.99615 0
M  V30 7241 H 694.981 -2.94589 -6.29478 0
M  V30 7242 H 698.172 -1.71763 -4.35448 0
M  V30 7243 H 698.345 -2.61097 -5.9307 0
M  V30 7244 N 691.751 1.51645 -0.429126 0
M  V30 7245 C 692.999 2.01616 0.139802 0
M  V30 7246 C 693.32 1.31568 1.43927 0
M  V30 7247 O 692.59 0.447688 1.90716 0
M  V30 7248 H 691.17 0.744998 0.054654 0
M  V30 7249 H 693.832 1.8638 -0.569952 0
M  V30 7250 H 692.928 3.10439 0.321609 0
M  V30 7251 N 693.229 0.160201 1.56784 0
M  V30 7252 C 694.161 -0.80564 2.14574 0
M  V30 7253 C 695.174 -1.20154 1.09849 0
M  V30 7254 O 696.363 -1.14333 1.37078 0
M  V30 7255 C 693.463 -2.09434 2.6644 0
M  V30 7256 C 692.636 -1.86375 3.95706 0
M  V30 7257 C 691.695 -2.99358 4.32749 0
M  V30 7258 O 690.721 -2.70475 5.00831 0
M  V30 7259 N 691.923 -4.26867 3.93402 0
M  V30 7260 H 694.688 -0.311644 2.98075 0
M  V30 7261 H 692.249 -0.0229465 1.61884 0
M  V30 7262 H 694.241 -2.84091 2.88226 0
M  V30 7263 H 692.811 -2.50057 1.8759 0
M  V30 7264 H 692.031 -0.956821 3.82412 0
M  V30 7265 H 693.319 -1.68322 4.80151 0
M  V30 7266 H 692.717 -4.53197 3.38569 0
M  V30 7267 H 691.274 -4.98263 4.20211 0
M  V30 7268 N 694.707 -1.5719 -0.113559 0
M  V30 7269 C 695.955 -1.84772 -0.818761 0
M  V30 7270 C 696.276 -0.746196 -1.80158 0
M  V30 7271 O 695.546 0.229305 -1.94553 0
M  V30 7272 H 694.126 -0.681737 -0.305359 0
M  V30 7273 H 696.788 -1.94645 -0.0995845 0
M  V30 7274 H 695.884 -2.80878 -1.36067 0
M  V30 7275 N 696.185 0.383891 -1.52853 0
M  V30 7276 C 697.413 1.1495 -1.7203 0
M  V30 7277 C 697.828 1.83578 -0.440957 0
M  V30 7278 O 697.185 1.72872 0.584925 0
M  V30 7279 C 697.236 2.19368 -2.87333 0
M  V30 7280 O 696.957 1.53536 -4.10315 0
M  V30 7281 C 698.458 3.08616 -3.18231 0
M  V30 7282 H 695.678 0.344445 -0.575846 0
M  V30 7283 H 698.222 0.448397 -1.99524 0
M  V30 7284 H 696.377 2.85105 -2.62286 0
M  V30 7285 H 696.791 2.2296 -4.74752 0
M  V30 7286 H 698.265 3.77902 -4.02361 0
M  V30 7287 H 698.742 3.72409 -2.32826 0
M  V30 7288 H 699.348 2.48518 -3.45136 0
M  V30 7289 N 697.663 1.43903 0.642637 0
M  V30 7290 C 698.911 1.45791 1.39962 0
M  V30 7291 C 699.232 0.0873144 1.94804 0
M  V30 7292 O 698.502 -0.878825 1.75081 0
M  V30 7293 H 697.082 0.536797 0.519479 0
M  V30 7294 H 699.744 1.7959 0.757189 0
M  V30 7295 H 698.84 2.17665 2.2367 0
M  V30 7296 N 699.141 -0.881989 1.30609 0
M  V30 7297 C 700.088 -1.98803 1.17244 0
M  V30 7298 C 701.058 -1.65987 0.0611905 0
M  V30 7299 O 702.243 -1.89385 0.231911 0
M  V30 7300 C 699.383 -3.33867 0.87333 0
M  V30 7301 C 698.496 -3.79354 2.06675 0
M  V30 7302 C 697.631 -5.03078 1.70547 0
M  V30 7303 C 696.67 -5.40981 2.86366 0
M  V30 7304 N 695.807 -6.55886 2.50514 0
M  V30 7305 H 700.647 -2.09566 2.11863 0
M  V30 7306 H 698.184 -1.02607 1.05405 0
M  V30 7307 H 700.142 -4.11612 0.680519 0
M  V30 7308 H 698.772 -3.2278 -0.0359983 0
M  V30 7309 H 697.824 -2.97492 2.37071 0
M  V30 7310 H 699.136 -4.03382 2.93401 0
M  V30 7311 H 698.29 -5.88457 1.47658 0
M  V30 7312 H 697.029 -4.80927 0.809947 0
M  V30 7313 H 696.034 -4.54127 3.09917 0
M  V30 7314 H 697.259 -5.65104 3.76609 0
M  V30 7315 H 695.205 -6.35306 1.63471 0
M  V30 7316 H 695.122 -6.79799 3.30771 0
M  V30 7317 H 696.39 -7.44489 2.30989 0
M  V30 7318 N 700.619 -1.13374 -1.09472 0
M  V30 7319 C 702.03 -0.90801 -1.63132 0
M  V30 7320 C 702.381 0.555576 -1.8817 0
M  V30 7321 O 701.506 1.42218 -1.63104 0
M  V30 7322 C 702.101 -1.64182 -2.96361 0
M  V30 7323 C 700.66 -1.46197 -3.46848 0
M  V30 7324 C 699.807 -1.67134 -2.21273 0
M  V30 7325 H 702.758 -1.2871 -0.928411 0
M  V30 7326 H 702.779 -1.09863 -3.64294 0
M  V30 7327 H 702.291 -2.707 -2.78106 0
M  V30 7328 H 700.392 -0.419788 -3.70228 0
M  V30 7329 H 700.505 -2.22472 -4.24315 0
M  V30 7330 H 698.869 -1.09616 -2.29905 0
M  V30 7331 H 699.652 -2.74971 -2.05538 0
M  V30 7332 N 702.098 1.27442 -0.927168 0
M  V30 7333 C 703.514 1.46754 -0.627329 0
M  V30 7334 C 703.714 1.83902 0.823549 0
M  V30 7335 O 702.77 1.95215 1.60148 0
M  V30 7336 C 704.083 2.56045 -1.57674 0
M  V30 7337 C 705.631 2.69906 -1.58491 0
M  V30 7338 C 706.106 3.82355 -2.52128 0
M  V30 7339 N 707.597 3.89728 -2.50332 0
M  V30 7340 C 708.332 4.76155 -3.19475 0
M  V30 7341 N 707.828 5.67073 -3.97995 0
M  V30 7342 N 709.621 4.6988 -3.08496 0
M  V30 7343 H 701.772 1.01613 -1.86517 0
M  V30 7344 H 704.035 0.507443 -0.800753 0
M  V30 7345 H 703.741 2.35542 -2.61176 0
M  V30 7346 H 703.615 3.53423 -1.31804 0
M  V30 7347 H 706.002 2.89792 -0.557208 0
M  V30 7348 H 706.083 1.73018 -1.8841 0
M  V30 7349 H 705.727 3.63224 -3.55008 0
M  V30 7350 H 705.657 4.7867 -2.19505 0
M  V30 7351 H 708.148 3.24717 -1.93306 0
M  V30 7352 H 708.461 6.2988 -4.4774 0
M  V30 7353 H 706.806 5.6687 -4.02098 0
M  V30 7354 H 709.997 3.97848 -2.46646 0
M  V30 7355 H 710.17 5.37017 -3.62652 0
M  V30 7356 N 703.576 0.692616 1.41565 0
M  V30 7357 C 704.486 0.0258451 2.34586 0
M  V30 7358 C 705.502 -0.769324 1.56069 0
M  V30 7359 O 706.678 -0.707563 1.88562 0
M  V30 7360 C 703.743 -0.901289 3.3478 0
M  V30 7361 C 702.804 -0.0986579 4.29187 0
M  V30 7362 C 702.037 -0.981634 5.24595 0
M  V30 7363 O 702.26 -2.22115 5.25377 0
M  V30 7364 O 701.194 -0.432892 6.00341 0
M  V30 7365 H 705.02 0.792537 2.93177 0
M  V30 7366 H 702.605 0.452935 1.42369 0
M  V30 7367 H 704.487 -1.43302 3.96286 0
M  V30 7368 H 703.162 -1.64752 2.78637 0
M  V30 7369 H 702.069 0.477604 3.71039 0
M  V30 7370 H 703.402 0.608848 4.8842 0
M  V30 7371 N 705.054 -1.51416 0.437162 0
M  V30 7372 C 706.001 -2.27743 -0.374374 0
M  V30 7373 C 706.971 -1.31327 -1.01698 0
M  V30 7374 O 708.156 -1.60229 -1.03592 0
M  V30 7375 C 705.296 -3.12241 -1.46969 0
M  V30 7376 C 704.409 -4.23651 -0.845236 0
M  V30 7377 C 703.544 -4.95458 -1.91559 0
M  V30 7378 C 702.583 -5.98789 -1.26956 0
M  V30 7379 N 701.72 -6.64005 -2.28126 0
M  V30 7380 H 706.56 -2.96654 0.282892 0
M  V30 7381 H 704.097 -1.46319 0.151352 0
M  V30 7382 H 706.055 -3.59556 -2.11602 0
M  V30 7383 H 704.685 -2.45445 -2.09659 0
M  V30 7384 H 703.737 -3.803 -0.0872059 0
M  V30 7385 H 705.049 -4.97683 -0.333582 0
M  V30 7386 H 704.203 -5.46321 -2.63854 0
M  V30 7387 H 702.942 -4.21055 -2.46097 0
M  V30 7388 H 701.947 -5.47219 -0.53207 0
M  V30 7389 H 703.172 -6.75149 -0.731509 0
M  V30 7390 H 701.118 -5.92415 -2.81745 0
M  V30 7391 H 701.035 -7.33802 -1.81852 0
M  V30 7392 H 702.303 -7.19498 -2.99905 0
M  V30 7393 N 706.532 -0.168513 -1.56696 0
M  V30 7394 C 707.462 0.758563 -2.20835 0
M  V30 7395 C 708.443 1.24121 -1.1631 0
M  V30 7396 O 709.628 1.29487 -1.4473 0
M  V30 7397 C 706.758 1.9892 -2.8469 0
M  V30 7398 C 705.712 1.64252 -3.95228 0
M  V30 7399 C 705.038 2.94757 -4.46119 0
M  V30 7400 C 706.338 0.872675 -5.14958 0
M  V30 7401 H 708.032 0.223953 -2.98561 0
M  V30 7402 H 705.578 0.106277 -1.43607 0
M  V30 7403 H 707.531 2.64275 -3.28233 0
M  V30 7404 H 706.255 2.5479 -2.04327 0
M  V30 7405 H 704.914 1.01266 -3.52336 0
M  V30 7406 H 704.562 3.48662 -3.62552 0
M  V30 7407 H 704.262 2.72316 -5.2069 0
M  V30 7408 H 705.786 3.61147 -4.92347 0
M  V30 7409 H 707.2 1.42875 -5.55211 0
M  V30 7410 H 705.597 0.747402 -5.95428 0
M  V30 7411 H 706.667 -0.131535 -4.84722 0
M  V30 7412 N 708.01 1.57248 0.105221 0
M  V30 7413 C 709.256 1.85845 0.811753 0
M  V30 7414 C 709.589 0.756219 1.78871 0
M  V30 7415 O 708.864 -0.236736 1.93054 0
M  V30 7416 C 709.147 3.25059 1.54947 0
M  V30 7417 C 709 4.45898 0.591185 0
M  V30 7418 C 710.319 3.6203 2.50245 0
M  V30 7419 H 707.438 0.675973 0.293649 0
M  V30 7420 H 710.08 1.89849 0.0756269 0
M  V30 7421 H 708.23 3.21776 2.17698 0
M  V30 7422 H 709.902 4.61291 -0.0285352 0
M  V30 7423 H 708.145 4.33693 -0.0962343 0
M  V30 7424 H 708.816 5.40009 1.1443 0
M  V30 7425 H 711.292 3.66192 1.97593 0
M  V30 7426 H 710.168 4.60389 2.98886 0
M  V30 7427 H 710.429 2.90176 3.33542 0
M  V30 7428 N 709.488 -0.375779 1.53054 0
M  V30 7429 C 710.765 -1.13453 1.59336 0
M  V30 7430 C 711.145 -2.07379 0.394614 0
M  V30 7431 O 710.493 -2.2004 -0.616 0
M  V30 7432 C 710.703 -1.8826 2.93869 0
M  V30 7433 C 712.051 -2.43155 3.48081 0
M  V30 7434 O 713.075 -1.984 2.95831 0
M  V30 7435 O 711.934 -3.24944 4.39401 0
M  V30 7436 H 709.028 -0.519856 0.643179 0
M  V30 7437 H 711.574 -0.379865 1.65394 0
M  V30 7438 H 710.346 -1.19652 3.72558 0
M  V30 7439 H 709.969 -2.70658 2.91256 0
M  V30 7440 N 710.966 -1.44241 -0.634997 0
M  V30 7441 C 712.377 -1.41622 -1.21655 0
M  V30 7442 C 712.728 -0.129584 -1.95772 0
M  V30 7443 O 711.853 0.770225 -2.02229 0
M  V30 7444 C 712.448 -2.56557 -2.21278 0
M  V30 7445 C 711.007 -2.57145 -2.7487 0
M  V30 7446 C 710.154 -2.33354 -1.49804 0
M  V30 7447 H 713.105 -1.52878 -0.425905 0
M  V30 7448 H 713.126 -2.29089 -3.03807 0
M  V30 7449 H 712.638 -3.50186 -1.67306 0
M  V30 7450 H 710.739 -1.67447 -3.32855 0
M  V30 7451 H 710.852 -3.55507 -3.21172 0
M  V30 7452 H 709.216 -1.82372 -1.77799 0
M  V30 7453 H 709.999 -3.29092 -0.977402 0
M  V30 7454 N 712.444 0.87505 -1.31075 0
M  V30 7455 C 713.376 1.98773 -1.14114 0
M  V30 7456 C 714.389 1.62595 -0.0816119 0
M  V30 7457 O 715.578 1.75449 -0.32861 0
M  V30 7458 C 712.678 3.31159 -0.720224 0
M  V30 7459 C 711.851 3.9571 -1.86366 0
M  V30 7460 C 710.91 5.06407 -1.42965 0
M  V30 7461 O 709.936 5.27501 -2.13848 0
M  V30 7462 N 711.138 5.79649 -0.314194 0
M  V30 7463 H 713.903 2.1387 -2.09951 0
M  V30 7464 H 711.464 1.04873 -1.23342 0
M  V30 7465 H 713.456 4.0259 -0.412687 0
M  V30 7466 H 712.026 3.12257 0.146396 0
M  V30 7467 H 711.246 3.17324 -2.33879 0
M  V30 7468 H 712.534 4.35576 -2.62966 0
M  V30 7469 H 711.932 5.65025 0.276228 0
M  V30 7470 H 710.489 6.51766 -0.0661641 0
M  V30 7471 N 713.922 1.13953 1.08869 0
M  V30 7472 C 714.832 0.835666 2.19212 0
M  V30 7473 C 715.848 -0.182005 1.73045 0
M  V30 7474 O 717.024 -0.0116661 2.01397 0
M  V30 7475 C 714.089 0.312325 3.4529 0
M  V30 7476 C 713.15 1.39196 4.06107 0
M  V30 7477 C 712.383 0.893496 5.26168 0
M  V30 7478 O 712.606 -0.266807 5.69776 0
M  V30 7479 O 711.54 1.67037 5.78258 0
M  V30 7480 H 715.366 1.75769 2.47667 0
M  V30 7481 H 712.951 0.917421 1.17914 0
M  V30 7482 H 714.833 0.0261582 4.21392 0
M  V30 7483 H 713.508 -0.582042 3.18424 0
M  V30 7484 H 712.415 1.73152 3.31616 0
M  V30 7485 H 713.748 2.26068 4.37212 0
M  V30 7486 N 715.4 -1.26948 0.933913 0
M  V30 7487 C 716.333 -2.24977 0.382169 0
M  V30 7488 C 717.311 -1.53893 -0.524949 0
M  V30 7489 O 718.495 -1.82699 -0.464048 0
M  V30 7490 C 715.622 -3.35676 -0.451615 0
M  V30 7491 C 714.668 -4.24686 0.392947 0
M  V30 7492 S 715.501 -5.03898 1.81237 0
M  V30 7493 C 716.657 -6.18078 0.986443 0
M  V30 7494 H 716.89 -2.71429 1.21299 0
M  V30 7495 H 714.423 -1.35701 0.736523 0
M  V30 7496 H 716.381 -3.99901 -0.926797 0
M  V30 7497 H 715.042 -2.8785 -1.25703 0
M  V30 7498 H 714.235 -5.03402 -0.245533 0
M  V30 7499 H 713.837 -3.65288 0.802537 0
M  V30 7500 H 716.129 -6.77125 0.225321 0
M  V30 7501 H 717.072 -6.86216 1.74682 0
M  V30 7502 H 717.48 -5.62047 0.525711 0
M  V30 7503 N 716.879 -0.700114 -1.41195 0
M  V30 7504 C 717.809 -0.0521132 -2.33442 0
M  V30 7505 C 718.79 0.76228 -1.52063 0
M  V30 7506 O 719.975 0.714336 -1.80585 0
M  V30 7507 C 717.105 0.881693 -3.35922 0
M  V30 7508 C 716.059 0.174062 -4.27646 0
M  V30 7509 C 715.385 1.22254 -5.20536 0
M  V30 7510 C 716.685 -0.962396 -5.13357 0
M  V30 7511 H 718.379 -0.822574 -2.87879 0
M  V30 7512 H 715.925 -0.397011 -1.38419 0
M  V30 7513 H 717.878 1.34429 -3.99383 0
M  V30 7514 H 716.602 1.68387 -2.79845 0
M  V30 7515 H 715.261 -0.268551 -3.65615 0
M  V30 7516 H 714.909 2.01736 -4.60773 0
M  V30 7517 H 714.609 0.754038 -5.82742 0
M  V30 7518 H 716.133 1.68555 -5.86874 0
M  V30 7519 H 717.547 -0.579875 -5.7036 0
M  V30 7520 H 715.944 -1.35828 -5.84526 0
M  V30 7521 H 717.014 -1.80003 -4.50252 0
M  V30 7522 N 718.357 1.51182 -0.445186 0
M  V30 7523 C 719.773 1.59299 -0.0978954 0
M  V30 7524 C 719.973 1.4555 1.39346 0
M  V30 7525 O 719.029 1.30073 2.16419 0
M  V30 7526 C 720.342 2.94133 -0.625005 0
M  V30 7527 C 721.89 3.07463 -0.586137 0
M  V30 7528 C 722.365 4.44832 -1.09035 0
M  V30 7529 N 723.856 4.51173 -1.04867 0
M  V30 7530 C 724.591 5.55804 -1.40959 0
M  V30 7531 N 724.087 6.67816 -1.84375 0
M  V30 7532 N 725.88 5.46205 -1.32726 0
M  V30 7533 H 718.031 1.58363 -1.41544 0
M  V30 7534 H 720.294 0.746946 -0.58376 0
M  V30 7535 H 720 3.09589 -1.66876 0
M  V30 7536 H 719.874 3.77161 -0.0542262 0
M  V30 7537 H 722.261 2.9167 0.448646 0
M  V30 7538 H 722.342 2.26255 -1.19341 0
M  V30 7539 H 721.986 4.61372 -2.12364 0
M  V30 7540 H 721.916 5.24591 -0.459539 0
M  V30 7541 H 724.407 3.70783 -0.729932 0
M  V30 7542 H 724.72 7.43683 -2.10131 0
M  V30 7543 H 723.065 6.69003 -1.88308 0
M  V30 7544 H 726.256 4.57583 -0.986678 0
M  V30 7545 H 726.429 6.27634 -1.61182 0
M  V30 7546 N 719.835 0.176821 1.56605 0
M  V30 7547 C 720.765 -0.746841 2.21234 0
M  V30 7548 C 721.746 -1.23502 1.16967 0
M  V30 7549 O 722.931 -1.28718 1.45414 0
M  V30 7550 C 720.061 -1.97407 2.8574 0
M  V30 7551 C 719.015 -1.62153 3.96094 0
M  V30 7552 C 718.341 -2.92387 4.47676 0
M  V30 7553 C 719.641 -0.845353 5.15413 0
M  V30 7554 H 721.335 -0.208116 2.98676 0
M  V30 7555 H 718.881 -0.0986594 1.43662 0
M  V30 7556 H 720.834 -2.62531 3.2963 0
M  V30 7557 H 719.558 -2.53703 2.05676 0
M  V30 7558 H 718.217 -0.993964 3.52868 0
M  V30 7559 H 717.865 -3.46734 3.64396 0
M  V30 7560 H 717.565 -2.69551 5.22127 0
M  V30 7561 H 719.089 -3.5853 4.94255 0
M  V30 7562 H 720.503 -1.39929 5.55961 0
M  V30 7563 H 718.9 -0.715814 5.95815 0
M  V30 7564 H 719.97 0.157239 4.84645 0
M  V30 7565 N 721.313 -1.57302 -0.09688 0
M  V30 7566 C 722.243 -2.0497 -1.11846 0
M  V30 7567 C 723.224 -0.938278 -1.41882 0
M  V30 7568 O 724.409 -1.20943 -1.51942 0
M  V30 7569 C 721.539 -2.47264 -2.43881 0
M  V30 7570 C 720.493 -3.62053 -2.28257 0
M  V30 7571 C 719.819 -3.90318 -3.65453 0
M  V30 7572 C 721.119 -4.93005 -1.72461 0
M  V30 7573 H 722.813 -2.90567 -0.721888 0
M  V30 7574 H 720.359 -1.39786 -0.345803 0
M  V30 7575 H 722.312 -2.7922 -3.15617 0
M  V30 7576 H 721.036 -1.58664 -2.8547 0
M  V30 7577 H 719.695 -3.30341 -1.58967 0
M  V30 7578 H 719.343 -2.98889 -4.04567 0
M  V30 7579 H 719.043 -4.67597 -3.55846 0
M  V30 7580 H 720.567 -4.24747 -4.3866 0
M  V30 7581 H 721.981 -5.23354 -2.34036 0
M  V30 7582 H 720.378 -5.74436 -1.73618 0
M  V30 7583 H 721.448 -4.80053 -0.683898 0
M  V30 7584 N 722.791 0.367657 -1.53252 0
M  V30 7585 C 724.039 1.10832 -1.68999 0
M  V30 7586 C 724.36 1.89894 -0.443306 0
M  V30 7587 O 723.63 1.88235 0.54262 0
M  V30 7588 H 722.21 0.412153 -0.623008 0
M  V30 7589 H 724.872 0.414775 -1.90435 0
M  V30 7590 H 723.968 1.7993 -2.55013 0
M  V30 7591 N 724.269 1.44576 0.627338 0
M  V30 7592 C 725.219 1.48168 1.73293 0
M  V30 7593 C 726.203 0.347045 1.57113 0
M  V30 7594 O 727.395 0.592605 1.66785 0
M  V30 7595 C 724.524 1.43236 3.11991 0
M  V30 7596 C 723.61 2.61828 3.33627 0
M  V30 7597 N 724.001 3.87053 3.25612 0
M  V30 7598 C 722.299 2.57104 3.64436 0
M  V30 7599 C 723 4.66093 3.48041 0
M  V30 7600 N 721.976 3.97228 3.71095 0
M  V30 7601 H 725.778 2.42832 1.6556 0
M  V30 7602 H 723.292 1.39592 0.829934 0
M  V30 7603 H 725.289 1.43893 3.91281 0
M  V30 7604 H 723.949 0.496133 3.20887 0
M  V30 7605 H 724.96 4.18966 3.04447 0
M  V30 7606 H 721.637 1.72295 3.8029 0
M  V30 7607 H 723.027 5.75117 3.47404 0
M  V30 7608 O 725.786 -0.770871 1.41915 0
M  V30 7609 H 726.477 -1.41834 1.31919 0
M  V30 END ATOM
M  V30 BEGIN BOND
M  V30 END BOND
M  V30 END CTAB
M  END
$$$$
