drugbank_target|O95749 Geranylgeranyl pyrophosphate synthase (DB00282; DB00399; DB00710; DB02552; DB04695; DB04714; DB06548; DB06830; DB06931; DB07221; DB07410; DB07780; DB07841; DB07873; DB08529)
 OpenBabel12092120343D

  0  0  0     0  0            999 V3000
M  V30 BEGIN CTAB
M  V30 COUNTS 4919 4972 0 0 0
M  V30 BEGIN ATOM
M  V30 1 H -0.908 1.98254 -0.117106 0
M  V30 2 N 0 1.576 0 0
M  V30 3 C 0.933 2.03868 1.02534 0
M  V30 4 C 1.911 0.928543 1.3348 0
M  V30 5 O 3.095 1.19667 1.45644 0
M  V30 6 C 0.222 2.43627 2.35294 0
M  V30 7 C -0.732 3.65373 2.2001 0
M  V30 8 S 0.101 5.13292 1.52614 0
M  V30 9 C 1.257 5.56322 2.86805 0
M  V30 10 H 1.49 2.90518 0.631377 0
M  V30 11 H -0.977 1.52953 0.210867 0
M  V30 12 H 0.981 2.67203 3.11629 0
M  V30 13 H -0.358 1.57376 2.7183 0
M  V30 14 H -1.165 3.90944 3.18086 0
M  V30 15 H -1.563 3.418 1.51819 0
M  V30 16 H 0.729 5.58782 3.83104 0
M  V30 17 H 1.672 6.56266 2.65933 0
M  V30 18 H 2.08 4.83886 2.90714 0
M  V30 19 N 1.4781 -0.272755 1.55222 0
M  V30 20 C 2.3881 -1.35918 1.91216 0
M  V30 21 C 3.4041 -1.54026 0.809436 0
M  V30 22 O 4.5801 -1.68148 1.10852 0
M  V30 23 C 1.6451 -2.69834 2.17693 0
M  V30 24 C 0.7061 -2.6047 3.41253 0
M  V30 25 C -0.0609 -3.88 3.66458 0
M  V30 26 O 0.1621 -4.88693 2.94169 0
M  V30 27 O -0.9039 -3.88189 4.59992 0
M  V30 28 H 2.9221 -1.0839 2.83699 0
M  V30 29 H 0.5071 -0.471301 1.41771 0
M  V30 30 H 2.3891 -3.49017 2.36147 0
M  V30 31 H 1.0641 -2.97148 1.28392 0
M  V30 32 H -0.0289 -1.79663 3.28134 0
M  V30 33 H 1.3041 -2.38106 4.30774 0
M  V30 34 N 2.9562 -1.48159 -0.537278 0
M  V30 35 C 3.9032 -1.62138 -1.64256 0
M  V30 36 C 4.8732 -0.463668 -1.59497 0
M  V30 37 O 6.0582 -0.686241 -1.78032 0
M  V30 38 C 3.1982 -1.66028 -3.02537 0
M  V30 39 C 2.3112 -2.92855 -3.17585 0
M  V30 40 C 1.4462 -2.87952 -4.46382 0
M  V30 41 C 0.4852 -4.09516 -4.54932 0
M  V30 42 N -0.3778 -4.02733 -5.75109 0
M  V30 43 H 4.4622 -2.56529 -1.51647 0
M  V30 44 H 1.9992 -1.27224 -0.738414 0
M  V30 45 H 3.9572 -1.66265 -3.82638 0
M  V30 46 H 2.5872 -0.751331 -3.13934 0
M  V30 47 H 1.6392 -3.02395 -2.30784 0
M  V30 48 H 2.9512 -3.82822 -3.19764 0
M  V30 49 H 2.1052 -2.8655 -5.34765 0
M  V30 50 H 0.8442 -1.95702 -4.46712 0
M  V30 51 H -0.1508 -4.11201 -3.64957 0
M  V30 52 H 1.0742 -5.02917 -4.56346 0
M  V30 53 H -0.9798 -3.13299 -5.76351 0
M  V30 54 H -1.0628 -4.86397 -5.78752 0
M  V30 55 H 0.2052 -4.05379 -6.65799 0
M  V30 56 N 4.4343 0.785586 -1.36625 0
M  V30 57 C 5.6623 1.57448 -1.3423 0
M  V30 58 C 6.0773 1.88649 0.0755653 0
M  V30 59 O 5.4343 1.50414 1.03354 0
M  V30 60 C 5.4853 2.89316 -2.16745 0
M  V30 61 O 5.2063 2.59459 -3.53005 0
M  V30 62 C 6.7073 3.83606 -2.22174 0
M  V30 63 H 3.9273 0.488226 -0.4603 0
M  V30 64 H 6.4713 0.974733 -1.79775 0
M  V30 65 H 4.6263 3.4575 -1.74745 0
M  V30 66 H 5.0403 3.43804 -3.96105 0
M  V30 67 H 6.5143 4.73181 -2.8426 0
M  V30 68 H 6.9913 4.21734 -1.22627 0
M  V30 69 H 7.5973 3.33104 -2.64427 0
M  V30 70 N 5.9124 1.20967 1.01018 0
M  V30 71 C 6.8444 0.922059 2.09835 0
M  V30 72 C 7.8574 -0.0927106 1.62536 0
M  V30 73 O 9.0464 0.139127 1.77957 0
M  V30 74 C 6.1464 0.362004 3.36961 0
M  V30 75 C 5.3194 1.42986 4.13369 0
M  V30 76 C 4.3784 0.879976 5.1879 0
M  V30 77 O 3.4044 1.56219 5.47343 0
M  V30 78 N 4.6064 -0.307396 5.79686 0
M  V30 79 H 7.3714 1.8588 2.35093 0
M  V30 80 H 4.9324 1.11422 1.1746 0
M  V30 81 H 6.9244 -0.0201474 4.04695 0
M  V30 82 H 5.4944 -0.479437 3.08902 0
M  V30 83 H 4.7144 1.98608 3.40512 0
M  V30 84 H 6.0024 2.14885 4.61196 0
M  V30 85 H 5.4004 -0.878796 5.58832 0
M  V30 86 H 3.9574 -0.631115 6.48737 0
M  V30 87 N 7.3905 -1.2043 1.01659 0
M  V30 88 C 8.3005 -2.2689 0.596484 0
M  V30 89 C 9.3165 -1.70107 -0.36599 0
M  V30 90 O 10.4925 -2.00117 -0.226942 0
M  V30 91 C 7.5575 -3.4665 -0.0586659 0
M  V30 92 C 6.6185 -4.18662 0.949751 0
M  V30 93 C 5.8515 -5.32705 0.32577 0
M  V30 94 O 6.0745 -5.63656 -0.874509 0
M  V30 95 O 5.0085 -5.92803 1.04249 0
M  V30 96 H 8.8345 -2.65041 1.4828 0
M  V30 97 H 6.4195 -1.27048 0.786082 0
M  V30 98 H 8.3015 -4.19256 -0.424564 0
M  V30 99 H 6.9765 -3.10375 -0.91918 0
M  V30 100 H 5.8835 -3.48229 1.36702 0
M  V30 101 H 7.2165 -4.58878 1.78023 0
M  V30 102 N 8.8686 -0.792821 -1.36206 0
M  V30 103 C 10.0966 -0.378825 -2.03402 0
M  V30 104 C 10.5116 1.00586 -1.59774 0
M  V30 105 O 9.8686 1.64574 -0.788764 0
M  V30 106 C 9.9196 -0.43683 -3.58851 0
M  V30 107 O 9.6406 -1.76691 -4.00889 0
M  V30 108 C 11.1416 -0.0138943 -4.43298 0
M  V30 109 H 8.3616 -0.155673 -0.652692 0
M  V30 110 H 10.9056 -1.07261 -1.74113 0
M  V30 111 H 9.0606 0.208575 -3.86838 0
M  V30 112 H 9.4746 -1.72011 -4.95492 0
M  V30 113 H 10.9486 -0.105615 -5.51899 0
M  V30 114 H 11.4256 1.03915 -4.2673 0
M  V30 115 H 12.0316 -0.63192 -4.20579 0
M  V30 116 N 10.3467 1.47872 -0.545128 0
M  V30 117 C 11.5927 2.02793 -0.0166104 0
M  V30 118 C 11.9257 1.41987 1.32489 0
M  V30 119 O 11.2007 0.571045 1.85928 0
M  V30 120 C 11.4837 3.59989 0.0893294 0
M  V30 121 C 11.3367 4.3125 -1.27841 0
M  V30 122 C 12.6557 4.32606 0.808724 0
M  V30 123 H 9.7747 0.736962 -0.00751035 0
M  V30 124 H 12.4167 1.76433 -0.705085 0
M  V30 125 H 10.5667 3.82579 0.675681 0
M  V30 126 H 12.2387 4.20035 -1.90704 0
M  V30 127 H 10.4817 3.92076 -1.85632 0
M  V30 128 H 11.1527 5.39736 -1.15713 0
M  V30 129 H 13.6287 4.14936 0.310992 0
M  V30 130 H 12.5047 5.42251 0.851782 0
M  V30 131 H 12.7657 4.00963 1.86229 0
M  V30 132 N 11.8248 0.280983 1.55075 0
M  V30 133 C 12.7568 -0.637268 2.20163 0
M  V30 134 C 13.7698 -1.11298 1.18813 0
M  V30 135 O 14.9588 -1.03388 1.4551 0
M  V30 136 C 12.0588 -1.88199 2.81841 0
M  V30 137 C 11.2318 -1.55211 4.08936 0
M  V30 138 C 10.2908 -2.64991 4.54606 0
M  V30 139 O 9.3168 -2.30929 5.2025 0
M  V30 140 N 10.5188 -3.95161 4.25238 0
M  V30 141 H 13.2838 -0.0801694 2.99593 0
M  V30 142 H 10.8448 0.102329 1.61576 0
M  V30 143 H 12.8368 -2.60948 3.09335 0
M  V30 144 H 11.4068 -2.34799 2.06369 0
M  V30 145 H 10.6268 -0.658185 3.88666 0
M  V30 146 H 11.9148 -1.30681 4.91732 0
M  V30 147 H 11.3128 -4.25653 3.72607 0
M  V30 148 H 9.8698 -4.6427 4.5749 0
M  V30 149 N 13.3029 -1.57598 0.00835791 0
M  V30 150 C 14.7189 -1.55764 -0.347822 0
M  V30 151 C 14.9189 -1.01186 -1.74252 0
M  V30 152 O 13.9749 -0.649371 -2.44007 0
M  V30 153 C 15.2879 -2.99927 -0.215407 0
M  V30 154 C 16.8359 -3.11656 -0.289725 0
M  V30 155 C 17.3109 -4.57621 -0.18634 0
M  V30 156 N 18.8019 -4.62557 -0.243978 0
M  V30 157 C 19.5369 -5.73094 -0.18745 0
M  V30 158 N 19.0329 -6.92753 -0.0810331 0
M  V30 159 N 20.8259 -5.61588 -0.239925 0
M  V30 160 H 12.9769 -1.91411 0.92062 0
M  V30 161 H 15.2399 -0.879562 0.353659 0
M  V30 162 H 14.9459 -3.43729 0.744512 0
M  V30 163 H 14.8199 -3.63865 -0.994097 0
M  V30 164 H 17.2069 -2.67779 -1.24009 0
M  V30 165 H 17.2879 -2.5048 0.51898 0
M  V30 166 H 16.9319 -5.02174 0.760519 0
M  V30 167 H 16.8619 -5.16752 -1.01364 0
M  V30 168 H 19.3529 -3.76481 -0.327217 0
M  V30 169 H 19.6659 -7.72787 -0.0440241 0
M  V30 170 H 18.0109 -6.94984 -0.0465419 0
M  V30 171 H 21.2019 -4.66996 -0.321317 0
M  V30 172 H 21.3749 -6.47714 -0.192407 0
M  V30 173 N 14.781 0.264519 -1.55364 0
M  V30 174 C 16.03 0.992812 -1.75574 0
M  V30 175 C 16.343 1.87142 -0.568979 0
M  V30 176 O 17.549 2.63513 -0.653682 0
M  V30 177 C 16.005 1.81519 -3.10771 0
M  V30 178 C 15.613 0.984839 -4.37041 0
M  V30 179 C 17.357 2.53727 -3.40327 0
M  V30 180 C 15.264 1.80209 -5.63275 0
M  V30 181 H 14.194 0.374412 -0.65447 0
M  V30 182 H 16.845 0.248138 -1.81815 0
M  V30 183 H 15.227 2.60115 -2.98591 0
M  V30 184 H 16.401 0.242455 -4.60162 0
M  V30 185 H 14.716 0.37691 -4.14691 0
M  V30 186 H 17.313 3.15292 -4.3185 0
M  V30 187 H 17.656 3.24447 -2.60845 0
M  V30 188 H 18.189 1.82156 -3.53644 0
M  V30 189 H 14.928 1.13896 -6.45529 0
M  V30 190 H 14.448 2.52022 -5.44284 0
M  V30 191 H 16.127 2.37364 -6.01887 0
M  V30 192 N 16.2591 1.48442 0.529413 0
M  V30 193 C 17.1891 1.65902 1.64313 0
M  V30 194 C 18.1701 0.507897 1.6234 0
M  V30 195 O 19.3551 0.740503 1.79528 0
M  V30 196 C 16.4851 1.69911 3.02898 0
M  V30 197 C 15.4391 2.8453 3.19729 0
M  V30 198 C 14.7651 2.73629 4.59381 0
M  V30 199 C 16.0651 4.25821 3.02447 0
M  V30 200 H 17.7591 2.5914 1.49955 0
M  V30 201 H 15.3051 1.24709 0.719982 0
M  V30 202 H 17.2581 1.80715 3.80684 0
M  V30 203 H 15.9821 0.732524 3.18279 0
M  V30 204 H 14.6411 2.73283 2.44361 0
M  V30 205 H 14.2891 1.74938 4.71599 0
M  V30 206 H 13.9891 3.50541 4.71588 0
M  V30 207 H 15.5131 2.86401 5.39265 0
M  V30 208 H 16.9271 4.37898 3.70024 0
M  V30 209 H 15.3241 5.03735 3.26146 0
M  V30 210 H 16.3941 4.42244 1.98867 0
M  V30 211 N 17.7372 -0.778329 1.37039 0
M  V30 212 C 18.6672 -1.90546 1.34962 0
M  V30 213 C 19.6482 -1.68681 0.219274 0
M  V30 214 O 20.8332 -1.89634 0.418624 0
M  V30 215 C 17.9632 -3.27734 1.14925 0
M  V30 216 C 16.9172 -3.64147 2.24902 0
M  V30 217 C 16.2432 -4.99806 1.89996 0
M  V30 218 C 17.5432 -3.71579 3.67051 0
M  V30 219 H 19.2372 -1.92541 2.29277 0
M  V30 220 H 16.7832 -0.924948 1.10366 0
M  V30 221 H 18.7362 -4.06215 1.12104 0
M  V30 222 H 17.4602 -3.26154 0.170631 0
M  V30 223 H 16.1192 -2.8797 2.26868 0
M  V30 224 H 15.7672 -4.94759 0.906796 0
M  V30 225 H 15.4672 -5.25139 2.63634 0
M  V30 226 H 16.9912 -5.80694 1.88749 0
M  V30 227 H 18.4052 -4.40227 3.67251 0
M  V30 228 H 16.8022 -4.08405 4.39688 0
M  V30 229 H 17.8722 -2.72404 4.01154 0
M  V30 230 N 19.2153 -1.21501 -1.00376 0
M  V30 231 C 20.1253 -0.991447 -2.12621 0
M  V30 232 C 21.1413 0.0568446 -1.73907 0
M  V30 233 O 22.3173 -0.13348 -2.00957 0
M  V30 234 C 19.3823 -0.560312 -3.42142 0
M  V30 235 C 18.4433 -1.68096 -3.95022 0
M  V30 236 C 17.6763 -1.2703 -5.18362 0
M  V30 237 O 17.8993 -0.144438 -5.70217 0
M  V30 238 O 16.8333 -2.08269 -5.64719 0
M  V30 239 H 20.6593 -1.93158 -2.34358 0
M  V30 240 H 18.2443 -0.999999 -1.10997 0
M  V30 241 H 20.1263 -0.329724 -4.20108 0
M  V30 242 H 18.8013 0.351089 -3.2179 0
M  V30 243 H 17.7083 -1.96597 -3.18278 0
M  V30 244 H 19.0413 -2.56983 -4.19786 0
M  V30 245 N 20.6934 1.19889 -1.02296 0
M  V30 246 C 22.1044 1.71124 -0.746568 0
M  V30 247 C 22.4554 1.81939 0.734335 0
M  V30 248 O 21.5804 1.48639 1.57275 0
M  V30 249 C 22.1754 3.10804 -1.34857 0
M  V30 250 C 20.7344 3.59323 -1.1209 0
M  V30 251 C 19.8814 2.3635 -1.45031 0
M  V30 252 H 22.8324 1.04813 -1.19163 0
M  V30 253 H 22.8534 3.73186 -0.742437 0
M  V30 254 H 22.3654 3.029 -2.42638 0
M  V30 255 H 20.4664 3.7255 -0.0610337 0
M  V30 256 H 20.5794 4.4378 -1.80544 0
M  V30 257 H 18.9434 2.39399 -0.869487 0
M  V30 258 H 19.7264 2.31081 -2.53883 0
M  V30 259 N 22.1715 0.800033 1.35784 0
M  V30 260 C 23.4015 0.389041 2.02904 0
M  V30 261 C 23.8095 -1.0027 1.60445 0
M  V30 262 O 23.1525 -1.65633 0.794453 0
M  V30 263 C 23.2145 0.385495 3.57427 0
M  V30 264 C 22.8785 1.72662 4.23127 0
M  V30 265 C 23.8755 2.68385 4.4527 0
M  V30 266 C 21.5605 2.00883 4.60381 0
M  V30 267 C 23.5545 3.90517 5.03761 0
M  V30 268 C 21.2415 3.2328 5.18588 0
M  V30 269 C 22.2395 4.17915 5.40218 0
M  V30 270 O 21.9275 5.38153 5.97199 0
M  V30 271 H 21.6595 0.157032 0.657508 0
M  V30 272 H 24.2135 1.08311 1.74522 0
M  V30 273 H 22.4435 -0.365128 3.84972 0
M  V30 274 H 24.1325 -0.00228296 4.059 0
M  V30 275 H 24.8985 2.47872 4.16874 0
M  V30 276 H 20.7775 1.28037 4.42863 0
M  V30 277 H 24.3215 4.64395 5.2056 0
M  V30 278 H 20.2185 3.43667 5.4641 0
M  V30 279 H 20.9865 5.3936 6.15656 0
M  V30 280 N 23.6496 -1.47581 0.552962 0
M  V30 281 C 24.5966 -2.29957 -0.197108 0
M  V30 282 C 25.5666 -1.38799 -0.912359 0
M  V30 283 O 26.7516 -1.67761 -0.908888 0
M  V30 284 C 23.8916 -3.22672 -1.22379 0
M  V30 285 C 23.0046 -4.28919 -0.515038 0
M  V30 286 C 22.1396 -5.0879 -1.52664 0
M  V30 287 C 21.1786 -6.06815 -0.802631 0
M  V30 288 N 20.3156 -6.7966 -1.76086 0
M  V30 289 H 25.1556 -2.93578 0.511486 0
M  V30 290 H 22.6926 -1.4471 0.264067 0
M  V30 291 H 24.6506 -3.74845 -1.83159 0
M  V30 292 H 23.2806 -2.60925 -1.90047 0
M  V30 293 H 22.3326 -3.79835 0.207192 0
M  V30 294 H 23.6446 -4.98773 0.0523425 0
M  V30 295 H 22.7986 -5.65091 -2.20809 0
M  V30 296 H 21.5376 -4.38828 -2.12794 0
M  V30 297 H 20.5426 -5.49695 -0.107238 0
M  V30 298 H 21.7676 -6.78784 -0.207135 0
M  V30 299 H 19.7136 -6.12432 -2.35081 0
M  V30 300 H 19.6306 -7.45669 -1.24552 0
M  V30 301 H 20.8986 -7.40538 -2.43359 0
M  V30 302 N 25.1277 -0.289203 -1.54924 0
M  V30 303 C 26.3577 0.325989 -2.04012 0
M  V30 304 C 26.7657 1.48961 -1.1665 0
M  V30 305 O 26.1087 1.82794 -0.1822 0
M  V30 306 C 26.1707 0.856112 -3.49158 0
M  V30 307 C 25.8347 -0.180697 -4.56643 0
M  V30 308 C 26.8317 -1.0051 -5.10092 0
M  V30 309 C 24.5167 -0.318998 -5.01286 0
M  V30 310 C 26.5107 -1.95385 -6.06715 0
M  V30 311 C 24.1977 -1.27121 -5.97732 0
M  V30 312 C 25.1957 -2.08713 -6.50329 0
M  V30 313 O 24.8837 -3.02322 -7.44887 0
M  V30 314 H 24.6157 0.0765276 -0.671654 0
M  V30 315 H 27.1697 -0.423254 -2.00992 0
M  V30 316 H 25.3997 1.65567 -3.49463 0
M  V30 317 H 27.0887 1.38591 -3.81507 0
M  V30 318 H 27.8547 -0.90906 -4.76404 0
M  V30 319 H 23.7337 0.306108 -4.59983 0
M  V30 320 H 27.2777 -2.59111 -6.47694 0
M  V30 321 H 23.1747 -1.36801 -6.30837 0
M  V30 322 H 23.9427 -2.97165 -7.6265 0
M  V30 323 N 26.6058 1.57591 -0.0167156 0
M  V30 324 C 27.5358 2.12496 0.967858 0
M  V30 325 C 28.5168 1.03807 1.34752 0
M  V30 326 O 29.7018 1.31577 1.42833 0
M  V30 327 C 26.8318 2.64194 2.25431 0
M  V30 328 C 25.7858 3.77559 2.01576 0
M  V30 329 C 25.1118 4.15636 3.36379 0
M  V30 330 C 26.4118 5.04151 1.36489 0
M  V30 331 H 28.1058 2.95013 0.510643 0
M  V30 332 H 25.6518 1.41915 0.244181 0
M  V30 333 H 27.6048 3.01236 2.94678 0
M  V30 334 H 26.3288 1.78821 2.73296 0
M  V30 335 H 24.9878 3.40937 1.34751 0
M  V30 336 H 24.6358 3.27263 3.81979 0
M  V30 337 H 24.3358 4.92022 3.21229 0
M  V30 338 H 25.8598 4.5525 4.06915 0
M  V30 339 H 27.2738 5.38857 1.95718 0
M  V30 340 H 25.6708 5.85453 1.31776 0
M  V30 341 H 26.7408 4.83733 0.336219 0
M  V30 342 N 28.0839 -0.256276 1.55502 0
M  V30 343 C 29.0139 -1.32102 1.92539 0
M  V30 344 C 29.9949 -1.50684 0.789194 0
M  V30 345 O 31.1799 -1.63449 1.04872 0
M  V30 346 C 28.3099 -2.67752 2.21192 0
M  V30 347 C 27.2639 -2.63878 3.36975 0
M  V30 348 C 26.5899 -4.03236 3.51147 0
M  V30 349 C 27.8899 -2.21682 4.72921 0
M  V30 350 H 29.5839 -1.01351 2.81724 0
M  V30 351 H 27.1299 -0.486105 1.35547 0
M  V30 352 H 29.0829 -3.42365 2.45691 0
M  V30 353 H 27.8069 -3.0012 1.28824 0
M  V30 354 H 26.4659 -1.91722 3.12471 0
M  V30 355 H 26.1139 -4.32854 2.56216 0
M  V30 356 H 25.8139 -4.01535 4.29003 0
M  V30 357 H 27.3379 -4.79563 3.77957 0
M  V30 358 H 28.7519 -2.86023 4.96854 0
M  V30 359 H 27.1489 -2.3111 5.53812 0
M  V30 360 H 28.2189 -1.16833 4.70615 0
M  V30 361 N 29.562 -1.4872 -0.521534 0
M  V30 362 C 30.494 -1.59968 -1.64143 0
M  V30 363 C 31.507 -0.483463 -1.55456 0
M  V30 364 O 32.696 -0.75467 -1.61762 0
M  V30 365 C 29.796 -1.52127 -3.02838 0
M  V30 366 C 28.969 -2.78932 -3.36921 0
M  V30 367 C 28.028 -2.64428 -4.54933 0
M  V30 368 O 27.054 -3.38331 -4.57735 0
M  V30 369 N 28.256 -1.74606 -5.53618 0
M  V30 370 H 31.021 -2.56548 -1.54929 0
M  V30 371 H 28.582 -1.45551 -0.708988 0
M  V30 372 H 30.574 -1.40106 -3.79674 0
M  V30 373 H 29.144 -0.634868 -3.06085 0
M  V30 374 H 28.364 -3.05455 -2.4918 0
M  V30 375 H 29.652 -3.63041 -3.56481 0
M  V30 376 H 29.05 -1.13782 -5.54139 0
M  V30 377 H 27.607 -1.6852 -6.29638 0
M  V30 378 N 31.0401 0.771051 -1.3745 0
M  V30 379 C 31.9701 1.89827 -1.3597 0
M  V30 380 C 32.9511 1.68562 -0.228216 0
M  V30 381 O 34.1361 1.8941 -0.428675 0
M  V30 382 C 31.2661 3.2712 -1.16662 0
M  V30 383 C 30.2201 3.6295 -2.2683 0
M  V30 384 C 29.5461 4.98791 -1.92644 0
M  V30 385 C 30.8461 3.69627 -3.69017 0
M  V30 386 H 32.5401 1.91323 -2.30295 0
M  V30 387 H 30.0861 0.919082 -1.10855 0
M  V30 388 H 32.0391 4.05615 -1.14256 0
M  V30 389 H 30.7631 3.26059 -0.187926 0
M  V30 390 H 29.4221 2.86763 -2.28392 0
M  V30 391 H 29.0701 4.94271 -0.933021 0
M  V30 392 H 28.7701 5.23733 -2.66416 0
M  V30 393 H 30.2941 5.79685 -1.91826 0
M  V30 394 H 31.7081 4.38273 -3.69581 0
M  V30 395 H 30.1051 4.06067 -4.41848 0
M  V30 396 H 31.1751 2.70273 -4.02592 0
M  V30 397 N 32.5182 1.22032 0.997298 0
M  V30 398 C 33.9292 1.0397 1.55071 0
M  V30 399 C 34.2802 -0.398192 1.92117 0
M  V30 400 O 33.4052 -1.28254 1.74298 0
M  V30 401 C 34.0002 1.88109 2.81781 0
M  V30 402 C 32.5592 1.74357 3.33581 0
M  V30 403 C 31.7062 1.84846 2.06706 0
M  V30 404 H 34.6572 1.35941 0.818883 0
M  V30 405 H 34.6782 1.39589 3.53971 0
M  V30 406 H 34.1902 2.92754 2.54787 0
M  V30 407 H 32.2912 0.72427 3.65493 0
M  V30 408 H 32.4042 2.56772 4.04481 0
M  V30 409 H 30.7682 1.28238 2.20062 0
M  V30 410 H 31.5512 2.91014 1.82114 0
M  V30 411 N 33.9963 -1.19345 1.0293 0
M  V30 412 C 35.2443 -1.88665 0.724574 0
M  V30 413 C 35.5653 -1.80036 -0.749144 0
M  V30 414 O 34.8353 -1.2111 -1.53978 0
M  V30 415 H 33.4153 -0.698406 0.265025 0
M  V30 416 H 36.0773 -1.44885 1.30362 0
M  V30 417 H 35.1733 -2.94987 1.01926 0
M  V30 418 N 35.4744 -0.807222 -1.35358 0
M  V30 419 C 36.4214 -0.216037 -2.29787 0
M  V30 420 C 37.3914 0.650278 -1.52842 0
M  V30 421 O 38.5764 0.595227 -1.81278 0
M  V30 422 C 35.7164 0.628893 -3.39321 0
M  V30 423 C 34.8294 -0.257927 -4.31229 0
M  V30 424 C 33.9644 0.595069 -5.27856 0
M  V30 425 C 33.0034 -0.292111 -6.11403 0
M  V30 426 N 32.1404 0.520895 -7.00165 0
M  V30 427 H 36.9804 -1.02671 -2.79755 0
M  V30 428 H 34.5174 -0.517839 -1.37684 0
M  V30 429 H 36.4754 1.13393 -4.01494 0
M  V30 430 H 35.1054 1.40482 -2.90628 0
M  V30 431 H 34.1574 -0.881076 -3.70056 0
M  V30 432 H 35.4694 -0.940759 -4.89848 0
M  V30 433 H 34.6234 1.16522 -5.95405 0
M  V30 434 H 33.3624 1.31146 -4.69736 0
M  V30 435 H 32.3674 -0.874525 -5.428 0
M  V30 436 H 33.5924 -1.00638 -6.71602 0
M  V30 437 H 31.5384 1.22125 -6.44532 0
M  V30 438 H 31.4554 -0.103877 -7.55929 0
M  V30 439 H 32.7234 1.0743 -7.72062 0
M  V30 440 N 36.9525 1.47285 -0.560781 0
M  V30 441 C 37.8845 2.28118 0.222438 0
M  V30 442 C 38.8975 1.37219 0.876056 0
M  V30 443 O 40.0865 1.62011 0.749307 0
M  V30 444 C 37.1865 3.1159 1.33285 0
M  V30 445 C 36.3595 4.30473 0.77534 0
M  V30 446 C 35.4185 4.95513 1.77069 0
M  V30 447 O 34.4445 5.53792 1.31539 0
M  V30 448 N 35.6465 4.90531 3.10418 0
M  V30 449 H 38.4115 2.95976 -0.470958 0
M  V30 450 H 35.9725 1.56955 -0.39709 0
M  V30 451 H 37.9645 3.51967 1.99752 0
M  V30 452 H 36.5345 2.45951 1.92943 0
M  V30 453 H 35.7545 3.94144 -0.0662113 0
M  V30 454 H 37.0425 5.07362 0.382272 0
M  V30 455 H 36.4405 4.44389 3.5005 0
M  V30 456 H 34.9975 5.34917 3.72434 0
M  V30 457 N 38.4306 0.297415 1.54768 0
M  V30 458 C 39.6766 -0.313376 2.00364 0
M  V30 459 C 40.0096 -1.53815 1.18553 0
M  V30 460 O 39.2846 -1.92739 0.261103 0
M  V30 461 C 39.5676 -0.673525 3.53745 0
M  V30 462 C 39.4206 0.560133 4.46299 0
M  V30 463 C 40.7396 -1.50143 4.13697 0
M  V30 464 H 37.8586 -0.112428 0.728374 0
M  V30 465 H 40.5006 0.4088 1.8555 0
M  V30 466 H 38.6506 -1.28881 3.665 0
M  V30 467 H 40.3226 1.19863 4.45455 0
M  V30 468 H 38.5656 1.19405 4.17043 0
M  V30 469 H 39.2366 0.26405 5.51368 0
M  V30 470 H 41.7126 -0.981588 4.04356 0
M  V30 471 H 40.5886 -1.72221 5.21182 0
M  V30 472 H 40.8496 -2.48952 3.65343 0
M  V30 473 N 39.9087 -1.5758 0.0250728 0
M  V30 474 C 41.3247 -1.56124 -0.331282 0
M  V30 475 C 41.5247 -1.03029 -1.73169 0
M  V30 476 O 40.5807 -0.675215 -2.43305 0
M  V30 477 C 41.8937 -3.00139 -0.183584 0
M  V30 478 C 43.4417 -3.11946 -0.256654 0
M  V30 479 C 43.9167 -4.57793 -0.137792 0
M  V30 480 N 45.4077 -4.6279 -0.194904 0
M  V30 481 C 46.1427 -5.7326 -0.126655 0
M  V30 482 N 45.6387 -6.928 -0.00755288 0
M  V30 483 N 47.4317 -5.61811 -0.180348 0
M  V30 484 H 39.5827 -1.90424 0.94087 0
M  V30 485 H 41.8457 -0.875761 0.362968 0
M  V30 486 H 41.5517 -3.4292 0.780927 0
M  V30 487 H 41.4257 -3.64899 -0.955448 0
M  V30 488 H 43.8127 -2.69079 -1.21162 0
M  V30 489 H 43.8937 -2.49915 0.545517 0
M  V30 490 H 43.5377 -5.01339 0.813739 0
M  V30 491 H 43.4677 -5.17798 -0.958775 0
M  V30 492 H 45.9587 -3.76807 -0.287267 0
M  V30 493 H 46.2717 -7.72791 0.0379428 0
M  V30 494 H 44.6167 -6.94995 0.0271731 0
M  V30 495 H 47.8077 -4.6731 -0.271767 0
M  V30 496 H 47.9807 -6.47882 -0.123697 0
M  V30 497 N 41.3868 0.248026 -1.55636 0
M  V30 498 C 42.6148 0.993808 -1.81469 0
M  V30 499 C 43.0298 1.78991 -0.60064 0
M  V30 500 O 42.3868 1.77345 0.430682 0
M  V30 501 C 42.4378 1.93258 -3.05506 0
M  V30 502 O 42.1588 1.16869 -4.22224 0
M  V30 503 C 43.6598 2.79444 -3.4413 0
M  V30 504 H 40.8798 0.292486 -0.603898 0
M  V30 505 H 43.4238 0.271253 -2.02693 0
M  V30 506 H 41.5788 2.60943 -2.86335 0
M  V30 507 H 41.9928 1.80359 -4.92515 0
M  V30 508 H 43.4668 3.41066 -4.34026 0
M  V30 509 H 43.9438 3.50499 -2.64665 0
M  V30 510 H 44.5498 2.17214 -3.65648 0
M  V30 511 N 42.8649 1.48995 0.513639 0
M  V30 512 C 43.8119 1.6473 1.61656 0
M  V30 513 C 44.7819 0.488984 1.58739 0
M  V30 514 O 45.9669 0.714478 1.76918 0
M  V30 515 C 43.1069 1.7082 2.99858 0
M  V30 516 C 42.2199 2.9787 3.12885 0
M  V30 517 C 41.3549 2.95017 4.41744 0
M  V30 518 C 40.3939 4.16702 4.48359 0
M  V30 519 N 39.5309 4.11832 5.68629 0
M  V30 520 H 44.3709 2.58909 1.47547 0
M  V30 521 H 41.9079 1.28382 0.71808 0
M  V30 522 H 43.8659 1.72331 3.79944 0
M  V30 523 H 42.4959 0.801181 3.12699 0
M  V30 524 H 41.5479 3.06029 2.25944 0
M  V30 525 H 42.8599 3.8786 3.13633 0
M  V30 526 H 42.0139 2.95021 5.30139 0
M  V30 527 H 40.7529 2.02784 4.43542 0
M  V30 528 H 39.7579 4.16955 3.58369 0
M  V30 529 H 40.9829 5.10113 4.48287 0
M  V30 530 H 38.9289 3.22428 5.71293 0
M  V30 531 H 38.8459 4.95543 5.7094 0
M  V30 532 H 40.1139 4.1592 6.59266 0
M  V30 533 N 44.343 -0.763751 1.37857 0
M  V30 534 C 45.273 -1.89103 1.36975 0
M  V30 535 C 46.254 -1.68439 0.237152 0
M  V30 536 O 47.439 -1.8918 0.438713 0
M  V30 537 C 44.569 -3.26496 1.18395 0
M  V30 538 C 43.523 -3.61741 2.28751 0
M  V30 539 C 42.849 -4.97762 1.95286 0
M  V30 540 C 44.149 -3.67665 3.70972 0
M  V30 541 H 45.843 -1.90099 2.31307 0
M  V30 542 H 43.389 -0.91319 1.11341 0
M  V30 543 H 45.342 -4.05003 1.16406 0
M  V30 544 H 44.066 -3.25955 0.205215 0
M  V30 545 H 42.725 -2.85547 2.29909 0
M  V30 546 H 42.373 -4.93769 0.959221 0
M  V30 547 H 42.073 -5.22313 2.69189 0
M  V30 548 H 43.597 -5.7866 1.94898 0
M  V30 549 H 45.011 -4.36307 3.719 0
M  V30 550 H 43.408 -4.03718 4.43995 0
M  V30 551 H 44.478 -2.68134 4.0402 0
M  V30 552 N 45.8211 -1.22559 -0.990812 0
M  V30 553 C 47.0461 -1.07862 -1.77145 0
M  V30 554 C 47.4711 0.366447 -1.84496 0
M  V30 555 O 46.8291 1.26478 -1.29896 0
M  V30 556 C 46.8771 -1.69686 -3.18181 0
M  V30 557 O 45.9811 -0.951946 -4.01263 0
M  V30 558 H 45.3221 -0.378712 -0.545411 0
M  V30 559 H 47.8521 -1.62399 -1.2445 0
M  V30 560 H 47.8621 -1.74496 -3.68802 0
M  V30 561 H 46.5371 -2.74841 -3.12146 0
M  V30 562 H 45.1141 -0.980011 -3.59792 0
M  V30 563 N 47.2992 1.18797 -1.03562 0
M  V30 564 C 48.2312 2.21731 -0.580337 0
M  V30 565 C 49.2442 1.59051 0.347349 0
M  V30 566 O 50.4332 1.77929 0.142669 0
M  V30 567 C 47.5332 3.38459 0.172805 0
M  V30 568 C 46.7062 4.3072 -0.761496 0
M  V30 569 C 45.7652 5.26174 -0.0525547 0
M  V30 570 O 44.7912 5.65108 -0.681333 0
M  V30 571 N 45.9932 5.67624 1.21586 0
M  V30 572 H 48.7582 2.61417 -1.46565 0
M  V30 573 H 46.3192 1.33531 -0.915476 0
M  V30 574 H 48.3112 3.99335 0.656793 0
M  V30 575 H 46.8812 2.97507 0.959602 0
M  V30 576 H 46.1012 3.67525 -1.42544 0
M  V30 577 H 47.3892 4.89267 -1.39626 0
M  V30 578 H 46.7872 5.38038 1.74732 0
M  V30 579 H 45.3442 6.30721 1.64421 0
M  V30 580 N 48.7773 0.814389 1.34928 0
M  V30 581 C 49.7403 0.235759 2.27984 0
M  V30 582 C 50.7403 -0.581412 1.49921 0
M  V30 583 O 51.9303 -0.398758 1.69575 0
M  V30 584 C 49.0623 -0.670433 3.34242 0
M  V30 585 H 50.2553 1.05659 2.80671 0
M  V30 586 H 47.8083 0.585614 1.44915 0
M  V30 587 H 48.5433 -1.51466 2.86755 0
M  V30 588 H 48.3283 -0.0860822 3.92005 0
M  V30 589 H 49.8183 -1.06935 4.03676 0
M  V30 590 N 50.2554 -1.46986 0.568584 0
M  V30 591 C 51.5024 -2.02441 0.0487986 0
M  V30 592 C 51.8304 -1.44169 -1.30559 0
M  V30 593 O 51.0854 -0.591213 -1.86556 0
M  V30 594 C 51.3844 -3.57306 -0.081836 0
M  V30 595 C 51.0504 -4.34552 1.20313 0
M  V30 596 C 49.7124 -4.55376 1.5552 0
M  V30 597 C 52.0644 -4.79016 2.05411 0
M  V30 598 C 49.3924 -5.17913 2.7565 0
M  V30 599 C 51.7444 -5.42879 3.24754 0
M  V30 600 C 50.4084 -5.61933 3.60261 0
M  V30 601 H 49.6784 -0.740785 0.0178567 0
M  V30 602 H 52.3254 -1.76525 0.742384 0
M  V30 603 H 50.6304 -3.8228 -0.858463 0
M  V30 604 H 52.3274 -3.97876 -0.499546 0
M  V30 605 H 48.9174 -4.18631 0.919014 0
M  V30 606 H 53.1014 -4.62696 1.79516 0
M  V30 607 H 48.3574 -5.30858 3.03315 0
M  V30 608 H 52.5314 -5.76293 3.90973 0
M  V30 609 H 50.1584 -6.10161 4.53439 0
M  V30 610 N 51.7335 -0.305618 -1.54608 0
M  V30 611 C 52.6815 0.584119 -2.25146 0
M  V30 612 C 53.6755 1.13326 -1.25911 0
M  V30 613 O 54.8815 1.08337 -1.43747 0
M  V30 614 H 51.2565 0.206983 -0.722954 0
M  V30 615 H 53.2275 -0.033291 -2.98381 0
M  V30 616 C 51.9765 1.74225 -3.009 0
M  V30 617 H 51.2995 1.32892 -3.77067 0
M  V30 618 H 52.7395 2.34077 -3.53531 0
M  V30 619 C 51.1985 2.64914 -2.0814 0
M  V30 620 O 51.7285 3.66137 -1.65246 0
M  V30 621 N 49.9345 2.3275 -1.74 0
M  V30 622 H 49.4815 1.50479 -2.09078 0
M  V30 623 H 49.4395 2.93694 -1.12211 0
M  V30 624 N 53.2116 1.57565 -0.0334293 0
M  V30 625 C 54.1616 2.06978 0.956237 0
M  V30 626 C 55.1456 0.971193 1.28283 0
M  V30 627 O 56.3376 1.23471 1.26822 0
M  V30 628 C 53.4666 2.60393 2.23719 0
M  V30 629 C 52.5526 3.7719 1.93877 0
M  V30 630 N 52.9436 4.87639 1.34321 0
M  V30 631 C 51.2416 3.85758 2.23845 0
M  V30 632 C 51.9426 5.68825 1.21709 0
M  V30 633 N 50.9186 5.1587 1.71404 0
M  V30 634 H 54.7206 2.89773 0.490815 0
M  V30 635 H 52.2346 1.61492 0.171478 0
M  V30 636 H 54.2316 2.94088 2.95496 0
M  V30 637 H 52.8916 1.79031 2.70884 0
M  V30 638 H 53.9026 5.07803 1.01767 0
M  V30 639 H 50.5796 3.1531 2.73653 0
M  V30 640 H 51.9696 6.67631 0.75621 0
M  V30 641 N 54.6897 -0.239769 1.55765 0
M  V30 642 C 55.9357 -0.963942 1.79108 0
M  V30 643 C 56.2907 -1.82689 0.60352 0
M  V30 644 O 55.5837 -1.87313 -0.403033 0
M  V30 645 C 55.7777 -1.852 3.05672 0
M  V30 646 C 55.6067 -1.07651 4.36625 0
M  V30 647 C 54.3767 -0.778738 4.99263 0
M  V30 648 C 56.5747 -0.45062 5.12322 0
M  V30 649 N 54.5567 0.0200708 6.13897 0
M  V30 650 C 55.9277 0.212429 6.19636 0
M  V30 651 C 57.9827 -0.361806 4.96584 0
M  V30 652 C 56.6857 0.955772 7.12922 0
M  V30 653 C 58.7117 0.368023 5.90254 0
M  V30 654 C 58.0737 1.01968 6.96981 0
M  V30 655 H 54.1727 -0.333601 0.707272 0
M  V30 656 H 56.7567 -0.236425 1.93259 0
M  V30 657 H 54.9277 -2.55149 2.92837 0
M  V30 658 H 56.6597 -2.51228 3.1728 0
M  V30 659 H 53.4147 -1.09229 4.60832 0
M  V30 660 H 53.8387 0.407777 6.75771 0
M  V30 661 H 58.4807 -0.851286 4.14141 0
M  V30 662 H 56.1987 1.45683 7.9486 0
M  V30 663 H 59.7847 0.437504 5.80153 0
M  V30 664 H 58.6647 1.5754 7.68213 0
M  V30 665 N 56.1678 -1.49265 -0.50573 0
M  V30 666 C 57.0978 -1.68495 -1.61653 0
M  V30 667 C 58.0788 -0.53366 -1.61512 0
M  V30 668 O 59.2638 -0.76897 -1.78327 0
M  V30 669 C 56.3938 -1.74709 -3.00157 0
M  V30 670 C 55.3478 -2.89581 -3.15162 0
M  V30 671 C 54.6738 -2.80903 -4.5497 0
M  V30 672 C 55.9738 -4.30578 -2.95634 0
M  V30 673 H 57.6678 -2.61493 -1.45814 0
M  V30 674 H 55.2138 -1.25838 -0.70005 0
M  V30 675 H 57.1668 -1.86748 -3.77761 0
M  V30 676 H 55.8908 -0.783067 -3.17074 0
M  V30 677 H 54.5498 -2.77136 -2.39982 0
M  V30 678 H 54.1978 -1.82419 -4.68756 0
M  V30 679 H 53.8978 -3.57999 -4.65951 0
M  V30 680 H 55.4218 -2.94944 -5.34641 0
M  V30 681 H 56.8358 -4.4373 -3.63011 0
M  V30 682 H 55.2328 -5.0886 -3.18091 0
M  V30 683 H 56.3028 -4.45352 -1.91806 0
M  V30 684 N 57.6459 0.756429 -1.3826 0
M  V30 685 C 58.5929 1.87011 -1.35261 0
M  V30 686 C 59.5629 1.64695 -0.215616 0
M  V30 687 O 60.7479 1.864 -0.407399 0
M  V30 688 C 57.8879 3.24275 -1.18068 0
M  V30 689 C 57.0009 3.58442 -2.41129 0
M  V30 690 C 56.1359 4.84994 -2.16689 0
M  V30 691 C 55.1749 5.11939 -3.35537 0
M  V30 692 N 54.3119 6.29685 -3.10549 0
M  V30 693 H 59.1519 1.8891 -2.30472 0
M  V30 694 H 56.6889 0.923373 -1.14509 0
M  V30 695 H 58.6469 4.03479 -1.06116 0
M  V30 696 H 57.2769 3.21711 -0.264973 0
M  V30 697 H 56.3289 2.74103 -2.63764 0
M  V30 698 H 57.6409 3.74283 -3.29717 0
M  V30 699 H 56.7949 5.72135 -2.01857 0
M  V30 700 H 55.5339 4.71286 -1.25462 0
M  V30 701 H 54.5389 4.23268 -3.50891 0
M  V30 702 H 55.7639 5.27546 -4.27635 0
M  V30 703 H 53.7099 6.17306 -2.21967 0
M  V30 704 H 53.6269 6.46014 -3.92686 0
M  V30 705 H 54.8949 7.19722 -2.99367 0
M  V30 706 N 59.124 1.23083 0.984299 0
M  V30 707 C 60.37 1.06214 1.72761 0
M  V30 708 C 60.703 -0.400584 1.90024 0
M  V30 709 O 59.978 -1.29672 1.44967 0
M  V30 710 C 60.261 1.78375 3.12817 0
M  V30 711 C 60.114 3.32296 3.03149 0
M  V30 712 C 61.433 1.54309 4.12161 0
M  V30 713 H 58.552 0.387251 0.627061 0
M  V30 714 H 61.194 1.51536 1.14616 0
M  V30 715 H 59.344 1.39848 3.62457 0
M  V30 716 H 61.016 3.8032 2.61064 0
M  V30 717 H 59.259 3.6153 2.39747 0
M  V30 718 H 59.93 3.77972 4.02295 0
M  V30 719 H 62.406 1.87791 3.71314 0
M  V30 720 H 61.282 2.07281 5.08258 0
M  V30 721 H 61.543 0.477572 4.39513 0
M  V30 722 N 60.6021 -1.18246 1.0419 0
M  V30 723 C 62.0131 -1.69914 0.773698 0
M  V30 724 C 62.3641 -1.83085 -0.705297 0
M  V30 725 O 61.4891 -1.51123 -1.5489 0
M  V30 726 C 62.0841 -3.08619 1.39784 0
M  V30 727 C 60.6431 -3.57494 1.17792 0
M  V30 728 C 59.7901 -2.34013 1.48773 0
M  V30 729 H 62.7411 -1.02904 1.20816 0
M  V30 730 H 62.7621 -3.71958 0.801714 0
M  V30 731 H 62.2741 -2.99001 2.47426 0
M  V30 732 H 60.3751 -3.72406 0.120295 0
M  V30 733 H 60.4881 -4.40852 1.87581 0
M  V30 734 H 58.8521 -2.37986 0.907463 0
M  V30 735 H 59.6351 -2.27013 2.57527 0
M  V30 736 N 62.0802 -0.821533 -1.34494 0
M  V30 737 C 62.9902 -0.244355 -2.33324 0
M  V30 738 C 64.0062 0.620527 -1.62559 0
M  V30 739 O 65.1822 0.528754 -1.94335 0
M  V30 740 C 62.2472 0.585368 -3.41723 0
M  V30 741 C 61.3082 -0.301752 -4.28238 0
M  V30 742 C 60.5412 0.488466 -5.3146 0
M  V30 743 O 60.7642 1.72186 -5.4379 0
M  V30 744 O 59.6982 -0.12848 -6.01763 0
M  V30 745 H 63.5242 -1.06231 -2.84515 0
M  V30 746 H 61.1092 -0.583645 -1.37528 0
M  V30 747 H 62.9912 1.05747 -4.07916 0
M  V30 748 H 61.6662 1.38068 -2.92778 0
M  V30 749 H 60.5732 -0.821315 -3.64973 0
M  V30 750 H 61.9062 -1.06138 -4.8062 0
M  V30 751 N 63.5583 1.46682 -0.576371 0
M  V30 752 C 64.8353 1.95599 0.00703437 0
M  V30 753 C 65.2153 1.51904 1.46589 0
M  V30 754 O 64.5633 0.766755 2.15251 0
M  V30 755 C 64.7733 3.4864 -0.158404 0
M  V30 756 C 66.1213 4.24594 -0.0229439 0
M  V30 757 O 67.1453 3.56094 -0.0869173 0
M  V30 758 O 66.0043 5.46373 0.118015 0
M  V30 759 H 63.0983 0.825275 0.053384 0
M  V30 760 H 65.6443 1.56996 -0.644244 0
M  V30 761 H 64.4163 3.7331 -1.17282 0
M  V30 762 H 64.0393 3.94057 0.5296 0
M  V30 763 N 65.0364 0.313813 1.54444 0
M  V30 764 C 65.9834 -0.55655 2.23989 0
M  V30 765 C 66.9534 -1.11943 1.22711 0
M  V30 766 O 68.1384 -1.16158 1.51367 0
M  V30 767 C 65.2784 -1.71635 2.99392 0
M  V30 768 C 64.3914 -1.18364 4.15468 0
M  V30 769 C 63.5264 -2.30834 4.78424 0
M  V30 770 C 62.5654 -1.74762 5.86622 0
M  V30 771 N 61.7024 -2.80855 6.43479 0
M  V30 772 H 66.5424 0.0430893 2.97969 0
M  V30 773 H 64.0794 0.0330359 1.47063 0
M  V30 774 H 66.0374 -2.39868 3.41349 0
M  V30 775 H 64.6674 -2.28742 2.27765 0
M  V30 776 H 63.7194 -0.393163 3.78363 0
M  V30 777 H 65.0314 -0.733262 4.93381 0
M  V30 778 H 64.1854 -3.0699 5.23299 0
M  V30 779 H 62.9244 -2.79204 3.99871 0
M  V30 780 H 61.9294 -0.970995 5.41158 0
M  V30 781 H 63.1544 -1.2728 6.67066 0
M  V30 782 H 61.1004 -3.28535 5.67804 0
M  V30 783 H 61.0174 -2.40351 7.16776 0
M  V30 784 H 62.2854 -3.5687 6.93011 0
M  V30 785 N 66.5145 -1.57545 0.0417849 0
M  V30 786 C 67.4445 -2.14009 -0.933929 0
M  V30 787 C 68.4255 -1.05938 -1.33083 0
M  V30 788 O 69.6105 -1.33833 -1.40721 0
M  V30 789 C 66.7405 -2.67747 -2.21199 0
M  V30 790 C 65.6945 -3.80718 -1.95544 0
M  V30 791 C 65.0205 -4.20935 -3.29724 0
M  V30 792 C 66.3205 -5.06258 -1.28452 0
M  V30 793 H 68.0145 -2.95788 -0.463645 0
M  V30 794 H 65.5605 -1.42285 -0.221573 0
M  V30 795 H 67.5135 -3.05886 -2.89848 0
M  V30 796 H 66.2375 -1.83147 -2.70416 0
M  V30 797 H 64.8965 -3.43037 -1.2931 0
M  V30 798 H 64.5445 -3.33298 -3.76724 0
M  V30 799 H 64.2445 -4.9707 -3.13361 0
M  V30 800 H 65.7685 -4.61666 -3.9962 0
M  V30 801 H 67.1825 -5.41903 -1.8712 0
M  V30 802 H 65.5795 -5.87475 -1.22445 0
M  V30 803 H 66.6495 -4.84207 -0.259219 0
M  V30 804 N 67.9926 0.231505 -1.5589 0
M  V30 805 C 68.9246 1.31006 -1.8807 0
M  V30 806 C 69.9376 1.43539 -0.768145 0
M  V30 807 O 71.1266 1.44614 -1.04638 0
M  V30 808 C 68.2266 2.68688 -2.06543 0
M  V30 809 C 67.3996 2.78228 -3.37502 0
M  V30 810 C 66.4586 3.96857 -3.4553 0
M  V30 811 O 65.4846 3.85662 -4.18633 0
M  V30 812 N 66.6866 5.1072 -2.75944 0
M  V30 813 H 69.4516 1.03731 -2.81176 0
M  V30 814 H 67.0126 0.421573 -1.56315 0
M  V30 815 H 69.0046 3.46412 -2.09239 0
M  V30 816 H 67.5746 2.88605 -1.20109 0
M  V30 817 H 66.7946 1.87059 -3.46991 0
M  V30 818 H 68.0826 2.81564 -4.23791 0
M  V30 819 H 67.4806 5.2271 -2.16311 0
M  V30 820 H 66.0376 5.86523 -2.84314 0
M  V30 821 N 69.4707 1.49531 0.497807 0
M  V30 822 C 70.7197 1.58426 1.24837 0
M  V30 823 C 71.0327 0.277643 1.93619 0
M  V30 824 O 72.2387 0.24517 2.70391 0
M  V30 825 C 70.6947 2.79538 2.26686 0
M  V30 826 C 70.3027 4.16971 1.63828 0
M  V30 827 C 72.0467 2.97764 3.0255 0
M  V30 828 C 69.9537 5.29301 2.63807 0
M  V30 829 H 68.8837 0.58989 0.469623 0
M  V30 830 H 71.5347 1.75923 0.521857 0
M  V30 831 H 69.9167 2.55542 3.02514 0
M  V30 832 H 71.0907 4.51116 0.939711 0
M  V30 833 H 69.4057 4.04129 1.00342 0
M  V30 834 H 72.0027 3.78856 3.77323 0
M  V30 835 H 72.3457 2.08448 3.60354 0
M  V30 836 H 72.8787 3.21815 2.33838 0
M  V30 837 H 69.6177 6.20687 2.10779 0
M  V30 838 H 69.1377 4.99606 3.31894 0
M  V30 839 H 70.8167 5.58768 3.2617 0
M  V30 840 N 70.9488 -0.749086 1.3866 0
M  V30 841 C 72.1978 -1.50371 1.3443 0
M  V30 842 C 72.5108 -1.95503 -0.0616397 0
M  V30 843 O 73.7168 -2.70554 -0.226489 0
M  V30 844 C 72.1728 -2.71644 2.36088 0
M  V30 845 C 71.7808 -2.3352 3.82325 0
M  V30 846 C 73.5248 -3.49518 2.40909 0
M  V30 847 C 71.4318 -3.51431 4.75658 0
M  V30 848 H 70.3618 -0.564628 0.499712 0
M  V30 849 H 73.0128 -0.818449 1.64237 0
M  V30 850 H 71.3948 -3.42175 1.9933 0
M  V30 851 H 72.5688 -1.70627 4.28046 0
M  V30 852 H 70.8838 -1.6877 3.80665 0
M  V30 853 H 73.4808 -4.37197 3.07836 0
M  V30 854 H 73.8238 -3.90992 1.42937 0
M  V30 855 H 74.3568 -2.86005 2.76489 0
M  V30 856 H 71.0958 -3.15019 5.74842 0
M  V30 857 H 70.6158 -4.13352 4.34627 0
M  V30 858 H 72.2948 -4.17953 4.93887 0
M  V30 859 N 72.4269 -1.23603 -0.977757 0
M  V30 860 C 73.6759 -1.06377 -1.71368 0
M  V30 861 C 73.9889 0.399062 -1.91486 0
M  V30 862 O 75.1949 0.691312 -2.62551 0
M  V30 863 C 73.6509 -1.85512 -3.08404 0
M  V30 864 C 73.2589 -3.36141 -2.96164 0
M  V30 865 C 75.0029 -1.76783 -3.85938 0
M  V30 866 C 72.9099 -4.07659 -4.28449 0
M  V30 867 H 71.8399 -0.394452 -0.642591 0
M  V30 868 H 74.4909 -1.47594 -1.09034 0
M  V30 869 H 72.8729 -1.37103 -3.71509 0
M  V30 870 H 74.0469 -3.92056 -2.42133 0
M  V30 871 H 72.3619 -3.45712 -2.32104 0
M  V30 872 H 74.9589 -2.27526 -4.83876 0
M  V30 873 H 75.3019 -0.731116 -4.0983 0
M  V30 874 H 75.8349 -2.22818 -3.2954 0
M  V30 875 H 72.5739 -5.11648 -4.09752 0
M  V30 876 H 72.0939 -3.5653 -4.82334 0
M  V30 877 H 73.7729 -4.141 -4.97122 0
M  V30 878 N 73.905 1.17692 -1.04816 0
M  V30 879 C 74.815 2.25229 -0.65643 0
M  V30 880 C 75.831 1.71018 0.320761 0
M  V30 881 O 77.007 2.00649 0.173805 0
M  V30 882 C 74.072 3.46684 -0.0332629 0
M  V30 883 C 73.133 4.15997 -1.06042 0
M  V30 884 C 72.366 5.31654 -0.466893 0
M  V30 885 O 72.589 5.65777 0.724758 0
M  V30 886 O 71.523 5.89831 -1.1993 0
M  V30 887 H 75.349 2.61016 -1.55255 0
M  V30 888 H 72.934 1.24919 -0.81949 0
M  V30 889 H 74.816 4.20234 0.313256 0
M  V30 890 H 73.491 3.12703 0.836566 0
M  V30 891 H 72.398 3.44482 -1.45886 0
M  V30 892 H 73.731 4.53996 -1.90127 0
M  V30 893 N 75.3831 0.828654 1.34056 0
M  V30 894 C 76.6291 0.42008 1.98402 0
M  V30 895 C 76.9621 -1.01564 1.65525 0
M  V30 896 O 76.2371 -1.70834 0.929831 0
M  V30 897 C 76.5201 0.62927 3.54559 0
M  V30 898 C 76.3731 2.11152 3.97159 0
M  V30 899 C 77.6921 0.0688756 4.40046 0
M  V30 900 H 74.8111 0.154104 0.720709 0
M  V30 901 H 77.4531 1.04228 1.5886 0
M  V30 902 H 75.6031 0.0996418 3.88372 0
M  V30 903 H 77.2751 2.70522 3.73651 0
M  V30 904 H 75.5181 2.59985 3.47261 0
M  V30 905 H 76.1891 2.20868 5.05887 0
M  V30 906 H 78.6651 0.521458 4.1282 0
M  V30 907 H 77.5411 0.245006 5.48353 0
M  V30 908 H 77.8021 -1.0266 4.30015 0
M  V30 909 N 76.8612 -1.46375 0.584142 0
M  V30 910 C 78.0892 -2.06761 0.0759296 0
M  V30 911 C 78.5042 -1.43266 -1.22965 0
M  V30 912 O 77.8612 -0.538458 -1.74376 0
M  V30 913 C 77.9122 -3.61375 -0.0950384 0
M  V30 914 O 77.6332 -4.22495 1.15887 0
M  V30 915 C 79.1342 -4.38693 -0.637434 0
M  V30 916 H 76.3542 -0.668479 0.0581075 0
M  V30 917 H 78.8982 -1.8798 0.805218 0
M  V30 918 H 77.0532 -3.79578 -0.774554 0
M  V30 919 H 77.4672 -5.15385 0.973598 0
M  V30 920 H 78.9412 -5.47464 -0.706237 0
M  V30 921 H 79.4182 -4.06836 -1.65472 0
M  V30 922 H 80.0242 -4.25299 0.00725967 0
M  V30 923 N 78.3393 -0.321999 -1.54275 0
M  V30 924 C 79.2493 0.553631 -2.27974 0
M  V30 925 C 80.2653 1.13054 -1.32268 0
M  V30 926 O 81.4413 1.15084 -1.6528 0
M  V30 927 C 78.5063 1.69927 -3.02201 0
M  V30 928 C 77.5673 1.15433 -4.1349 0
M  V30 929 C 76.8003 2.24537 -4.84168 0
M  V30 930 O 77.0233 3.44852 -4.5435 0
M  V30 931 O 75.9573 1.90044 -5.7111 0
M  V30 932 H 79.7833 -0.0448345 -3.03667 0
M  V30 933 H 77.3683 -0.0877418 -1.49142 0
M  V30 934 H 79.2503 2.3663 -3.48689 0
M  V30 935 H 77.9253 2.28395 -2.29385 0
M  V30 936 H 76.8323 0.452436 -3.71354 0
M  V30 937 H 78.1653 0.614805 -4.88345 0
M  V30 938 N 79.8174 1.5752 -0.0501392 0
M  V30 939 C 80.7504 2.07026 0.959962 0
M  V30 940 C 81.7284 0.970539 1.30458 0
M  V30 941 O 82.9124 1.2424 1.41763 0
M  V30 942 C 80.0394 2.5099 2.27424 0
M  V30 943 C 79.0854 3.72188 2.08275 0
M  V30 944 S 79.9184 5.17888 1.36207 0
M  V30 945 C 81.0744 5.65165 2.6896 0
M  V30 946 H 81.3074 2.9238 0.538631 0
M  V30 947 H 78.8404 1.53547 0.162099 0
M  V30 948 H 80.7984 2.76982 3.02971 0
M  V30 949 H 79.4594 1.65944 2.66686 0
M  V30 950 H 78.6524 4.00866 3.05487 0
M  V30 951 H 78.2544 3.46457 1.40868 0
M  V30 952 H 80.5464 5.70687 3.65133 0
M  V30 953 H 81.4894 6.64394 2.4492 0
M  V30 954 H 81.8974 4.9289 2.75172 0
M  V30 955 N 81.2955 -0.223234 1.56011 0
M  V30 956 C 82.2255 -1.27988 1.95298 0
M  V30 957 C 83.2065 -1.48976 0.820979 0
M  V30 958 O 84.3915 -1.61188 1.08315 0
M  V30 959 C 81.5215 -2.63 2.26822 0
M  V30 960 C 80.4755 -2.56671 3.42497 0
M  V30 961 C 79.8015 -3.95697 3.59622 0
M  V30 962 C 81.1015 -2.11601 4.77517 0
M  V30 963 H 82.7955 -0.953525 2.8381 0
M  V30 964 H 80.3415 -0.457244 1.36548 0
M  V30 965 H 82.2945 -3.37077 2.52898 0
M  V30 966 H 81.0185 -2.9732 1.35161 0
M  V30 967 H 79.6775 -1.85051 3.16467 0
M  V30 968 H 79.3255 -4.27322 2.6534 0
M  V30 969 H 79.0255 -3.92345 4.37424 0
M  V30 970 H 80.5495 -4.71438 3.88044 0
M  V30 971 H 81.9635 -2.7542 5.02809 0
M  V30 972 H 80.3605 -2.19311 5.5859 0
M  V30 973 H 81.4305 -1.06824 4.72987 0
M  V30 974 N 82.7736 -1.49793 -0.48987 0
M  V30 975 C 83.7236 -1.63673 -1.5873 0
M  V30 976 C 84.7076 -0.491956 -1.53195 0
M  V30 977 O 85.8996 -0.745461 -1.60536 0
M  V30 978 C 83.0286 -1.71689 -2.97284 0
M  V30 979 C 82.1146 -2.91781 -3.07774 0
M  V30 980 N 82.5056 -4.15714 -2.88124 0
M  V30 981 C 80.8036 -2.89949 -3.38889 0
M  V30 982 C 81.5046 -4.965 -3.03088 0
M  V30 983 N 80.4806 -4.30083 -3.3246 0
M  V30 984 H 84.2826 -2.57204 -1.42208 0
M  V30 985 H 81.7966 -1.46719 -0.69623 0
M  V30 986 H 83.7936 -1.79732 -3.76168 0
M  V30 987 H 82.4536 -0.793024 -3.14867 0
M  V30 988 H 83.4646 -4.45515 -2.64077 0
M  V30 989 H 80.1416 -2.06987 -3.62578 0
M  V30 990 H 81.5316 -6.04991 -2.92294 0
M  V30 991 N 84.2517 0.741722 -1.39055 0
M  V30 992 C 85.1997 1.87702 -1.3737 0
M  V30 993 C 86.1937 1.67427 -0.257812 0
M  V30 994 O 87.3997 1.7485 -0.427489 0
M  V30 995 H 83.7747 0.617757 -0.428812 0
M  V30 996 H 85.7457 1.86239 -2.33147 0
M  V30 997 C 84.4947 3.25315 -1.22741 0
M  V30 998 H 83.8177 3.41509 -2.07873 0
M  V30 999 H 85.2577 4.04964 -1.25618 0
M  V30 1000 C 83.7167 3.36838 0.0647316 0
M  V30 1001 O 84.2467 3.88073 1.03741 0
M  V30 1002 N 82.4527 2.90329 0.125544 0
M  V30 1003 H 81.9997 2.48823 -0.666682 0
M  V30 1004 H 81.9577 2.98418 0.989639 0
M  V30 1005 N 85.7298 1.2412 0.971189 0
M  V30 1006 C 86.6928 1.03156 2.04674 0
M  V30 1007 C 87.6928 -0.00990322 1.60797 0
M  V30 1008 O 88.8828 0.230729 1.72665 0
M  V30 1009 C 86.0148 0.562765 3.36223 0
M  V30 1010 H 87.2078 1.98614 2.24705 0
M  V30 1011 H 84.7608 1.06293 1.14593 0
M  V30 1012 H 85.4958 -0.395176 3.21883 0
M  V30 1013 H 85.2808 1.31441 3.69413 0
M  V30 1014 H 86.7708 0.437015 4.15307 0
M  V30 1015 N 87.2079 -1.17134 1.05439 0
M  V30 1016 C 88.4329 -1.91913 0.786396 0
M  V30 1017 C 88.8579 -1.7643 -0.652234 0
M  V30 1018 O 88.2159 -1.08372 -1.45345 0
M  V30 1019 C 88.2639 -3.40921 1.17497 0
M  V30 1020 O 87.3679 -4.11244 0.308589 0
M  V30 1021 H 86.7089 -0.598215 0.288158 0
M  V30 1022 H 89.2389 -1.48457 1.4079 0
M  V30 1023 H 89.2489 -3.91668 1.14281 0
M  V30 1024 H 87.9239 -3.5151 2.22292 0
M  V30 1025 H 86.5009 -3.70731 0.40157 0
M  V30 1026 N 88.686 -0.835752 -1.33615 0
M  V30 1027 C 89.616 -0.281739 -2.31794 0
M  V30 1028 C 90.597 0.608833 -1.58831 0
M  V30 1029 O 91.782 0.533035 -1.86741 0
M  V30 1030 C 88.912 0.546612 -3.42971 0
M  V30 1031 C 87.866 -0.247904 -4.27281 0
M  V30 1032 C 87.192 0.704001 -5.30045 0
M  V30 1033 C 88.492 -1.46324 -5.01385 0
M  V30 1034 H 90.186 -1.10206 -2.78379 0
M  V30 1035 H 87.732 -0.531388 -1.33837 0
M  V30 1036 H 89.685 0.944467 -4.1068 0
M  V30 1037 H 88.409 1.40011 -2.95067 0
M  V30 1038 H 87.068 -0.627281 -3.61194 0
M  V30 1039 H 86.716 1.55381 -4.78399 0
M  V30 1040 H 86.416 0.176524 -5.87335 0
M  V30 1041 H 87.94 1.09944 -6.0062 0
M  V30 1042 H 89.354 -1.13871 -5.61877 0
M  V30 1043 H 87.751 -1.92728 -5.6831 0
M  V30 1044 H 88.821 -2.23467 -4.30338 0
M  V30 1045 N 90.1641 1.46063 -0.591896 0
M  V30 1046 C 91.0941 2.33172 0.123673 0
M  V30 1047 C 92.0751 1.45897 0.87453 0
M  V30 1048 O 93.2601 1.74698 0.848181 0
M  V30 1049 C 90.3901 3.28336 1.13194 0
M  V30 1050 C 89.3441 4.25124 0.495324 0
M  V30 1051 C 88.6701 5.09863 1.61071 0
M  V30 1052 C 89.9701 5.19143 -0.573425 0
M  V30 1053 H 91.6641 2.93252 -0.603646 0
M  V30 1054 H 89.2101 1.41014 -0.291741 0
M  V30 1055 H 91.1631 3.88137 1.64097 0
M  V30 1056 H 89.8871 2.66383 1.88965 0
M  V30 1057 H 88.5461 3.66599 0.00729452 0
M  V30 1058 H 88.1941 4.44288 2.35832 0
M  V30 1059 H 87.8941 5.75417 1.19035 0
M  V30 1060 H 89.4181 5.72529 2.12233 0
M  V30 1061 H 90.8321 5.73106 -0.1491 0
M  V30 1062 H 89.2291 5.93089 -0.914636 0
M  V30 1063 H 90.2991 4.62519 -1.45617 0
M  V30 1064 N 91.6422 0.330177 1.54103 0
M  V30 1065 C 92.8912 -0.271336 1.99867 0
M  V30 1066 C 93.2042 -1.52723 1.22209 0
M  V30 1067 O 94.4102 -2.20515 1.58383 0
M  V30 1068 C 92.8662 -0.534032 3.55916 0
M  V30 1069 C 92.4742 0.705193 4.42415 0
M  V30 1070 C 94.2182 -1.09514 4.1013 0
M  V30 1071 C 92.1252 0.414035 5.89949 0
M  V30 1072 H 91.0552 -0.105166 0.74663 0
M  V30 1073 H 93.7062 0.443429 1.78062 0
M  V30 1074 H 92.0882 -1.30915 3.73734 0
M  V30 1075 H 93.2622 1.4804 4.36372 0
M  V30 1076 H 91.5772 1.18698 3.99124 0
M  V30 1077 H 94.1742 -1.3277 5.17954 0
M  V30 1078 H 94.5172 -2.04656 3.62521 0
M  V30 1079 H 95.0502 -0.381038 3.95971 0
M  V30 1080 H 91.7892 1.33481 6.41766 0
M  V30 1081 H 91.3092 -0.323336 5.98928 0
M  V30 1082 H 92.9882 0.0263105 6.46995 0
M  V30 1083 N 93.1203 -1.57491 0.0584922 0
M  V30 1084 C 94.3973 -1.84346 -0.653918 0
M  V30 1085 C 94.7773 -0.948355 -1.88599 0
M  V30 1086 O 94.1253 -0.0112403 -2.28497 0
M  V30 1087 C 94.3353 -3.34239 -1.00425 0
M  V30 1088 C 95.6833 -4.01431 -1.38342 0
M  V30 1089 O 96.7073 -3.38907 -1.09637 0
M  V30 1090 O 95.5663 -5.11683 -1.91943 0
M  V30 1091 H 92.6603 -0.761112 -0.323478 0
M  V30 1092 H 95.2063 -1.6947 0.0884125 0
M  V30 1093 H 93.9783 -3.91089 -0.128625 0
M  V30 1094 H 93.6013 -3.54329 -1.80378 0
M  V30 1095 N 94.5984 0.214957 -1.56127 0
M  V30 1096 C 95.8754 0.963093 -1.70247 0
M  V30 1097 C 96.2554 2.02166 -0.60764 0
M  V30 1098 O 95.6034 2.25244 0.384385 0
M  V30 1099 C 95.8134 1.56756 -3.11815 0
M  V30 1100 C 97.1614 2.0573 -3.7143 0
M  V30 1101 O 98.1854 1.66637 -3.14818 0
M  V30 1102 O 97.0444 2.77603 -4.70743 0
M  V30 1103 H 94.1384 0.450321 -0.693643 0
M  V30 1104 H 96.6844 0.206219 -1.68442 0
M  V30 1105 H 95.4564 0.803533 -3.82961 0
M  V30 1106 H 95.0794 2.3898 -3.17765 0
M  V30 1107 N 96.0765 1.50051 0.48192 0
M  V30 1108 C 97.3255 1.59741 1.23149 0
M  V30 1109 C 97.6385 0.298163 1.93314 0
M  V30 1110 O 98.8445 0.273835 2.70116 0
M  V30 1111 C 97.3005 2.81926 2.23708 0
M  V30 1112 C 96.9085 4.18685 1.59396 0
M  V30 1113 C 98.6525 3.00956 2.99375 0
M  V30 1114 C 96.5595 5.3207 2.58178 0
M  V30 1115 H 95.4895 0.594838 0.46334 0
M  V30 1116 H 98.1405 1.76467 0.503169 0
M  V30 1117 H 96.5225 2.58736 2.99786 0
M  V30 1118 H 97.6965 4.52088 0.891811 0
M  V30 1119 H 96.0115 4.05171 0.960503 0
M  V30 1120 H 98.6085 3.82836 3.73283 0
M  V30 1121 H 98.9515 2.12258 3.58123 0
M  V30 1122 H 99.4845 3.24277 2.30411 0
M  V30 1123 H 96.2235 6.22888 2.04184 0
M  V30 1124 H 95.7435 5.03098 3.26577 0
M  V30 1125 H 97.4225 5.62196 3.20225 0
M  V30 1126 N 97.5546 -0.734337 1.39446 0
M  V30 1127 C 98.4646 -1.87879 1.40495 0
M  V30 1128 C 99.4806 -1.714 0.299672 0
M  V30 1129 O 100.657 -1.93991 0.541249 0
M  V30 1130 C 97.7216 -3.23477 1.24754 0
M  V30 1131 C 96.7826 -3.52344 2.45259 0
M  V30 1132 C 96.0156 -4.81473 2.30259 0
M  V30 1133 O 96.2386 -5.55237 1.30643 0
M  V30 1134 O 95.1726 -5.10254 3.19256 0
M  V30 1135 H 98.9986 -1.89949 2.36966 0
M  V30 1136 H 96.5836 -0.882243 1.20569 0
M  V30 1137 H 98.4656 -4.04509 1.18111 0
M  V30 1138 H 97.1406 -3.22176 0.313781 0
M  V30 1139 H 96.0476 -2.71396 2.57478 0
M  V30 1140 H 97.3806 -3.58426 3.37331 0
M  V30 1141 N 99.0327 -1.24633 -0.964593 0
M  V30 1142 C 100.31 -0.995809 -1.68354 0
M  V30 1143 C 100.69 0.480964 -2.05548 0
M  V30 1144 O 100.038 1.45599 -1.76105 0
M  V30 1145 C 100.248 -1.92177 -2.91323 0
M  V30 1146 C 101.596 -2.19446 -3.63495 0
M  V30 1147 O 102.62 -1.89855 -3.01386 0
M  V30 1148 O 101.479 -2.69714 -4.75307 0
M  V30 1149 H 98.5727 -0.376854 -0.736146 0
M  V30 1150 H 101.119 -1.35745 -1.0184 0
M  V30 1151 H 99.8907 -2.91938 -2.60553 0
M  V30 1152 H 99.5137 -1.56349 -3.65569 0
M  V30 1153 N 100.511 1.16574 -1.06058 0
M  V30 1154 C 101.459 2.22941 -0.663343 0
M  V30 1155 C 102.453 1.66358 0.319593 0
M  V30 1156 O 103.659 1.7905 0.184713 0
M  V30 1157 H 100.034 0.725907 -0.196376 0
M  V30 1158 H 102.005 2.53736 -1.57037 0
M  V30 1159 C 100.754 3.47642 -0.0632808 0
M  V30 1160 H 100.077 3.91493 -0.810733 0
M  V30 1161 H 101.517 4.2363 0.177177 0
M  V30 1162 C 99.9758 3.1509 1.19248 0
M  V30 1163 O 100.506 3.30673 2.28075 0
M  V30 1164 N 98.7118 2.6924 1.09353 0
M  V30 1165 H 98.2588 2.5676 0.207912 0
M  V30 1166 H 98.2168 2.47833 1.93458 0
M  V30 1167 N 101.989 0.842826 1.3317 0
M  V30 1168 C 103.214 0.453129 2.02389 0
M  V30 1169 C 103.639 -0.939105 1.6298 0
M  V30 1170 O 102.997 -1.61472 0.8244 0
M  V30 1171 C 103.045 0.586094 3.55805 0
M  V30 1172 O 102.149 -0.386029 4.10589 0
M  V30 1173 H 101.49 0.183664 0.638094 0
M  V30 1174 H 104.02 1.13875 1.69981 0
M  V30 1175 H 104.03 0.469209 4.05293 0
M  V30 1176 H 102.705 1.6014 3.83833 0
M  V30 1177 H 101.282 -0.226371 3.72212 0
M  V30 1178 N 103.467 -1.45747 0.599634 0
M  V30 1179 C 104.414 -2.30467 -0.123849 0
M  V30 1180 C 105.384 -1.41632 -0.86774 0
M  V30 1181 O 106.569 -1.70568 -0.855056 0
M  V30 1182 C 103.709 -3.26402 -1.12051 0
M  V30 1183 C 102.822 -4.3034 -0.37832 0
M  V30 1184 C 101.957 -5.13389 -1.364 0
M  V30 1185 C 100.996 -6.09061 -0.609171 0
M  V30 1186 N 100.133 -6.84918 -1.54374 0
M  V30 1187 H 104.973 -2.91802 0.604627 0
M  V30 1188 H 102.51 -1.43797 0.309972 0
M  V30 1189 H 104.468 -3.80482 -1.7114 0
M  V30 1190 H 103.098 -2.66839 -1.8165 0
M  V30 1191 H 102.15 -3.78984 0.327929 0
M  V30 1192 H 103.462 -4.98354 0.210997 0
M  V30 1193 H 102.616 -5.7183 -2.02719 0
M  V30 1194 H 101.355 -4.45376 -1.98725 0
M  V30 1195 H 100.36 -5.49758 0.0676979 0
M  V30 1196 H 101.585 -6.79099 0.00891991 0
M  V30 1197 H 99.531 -6.19601 -2.15478 0
M  V30 1198 H 99.448 -7.49254 -1.00766 0
M  V30 1199 H 100.716 -7.47906 -2.19676 0
M  V30 1200 N 104.945 -0.338344 -1.53925 0
M  V30 1201 C 105.875 0.51328 -2.27789 0
M  V30 1202 C 106.856 1.107 -1.29149 0
M  V30 1203 O 108.041 1.12937 -1.57984 0
M  V30 1204 C 105.171 1.66697 -3.04679 0
M  V30 1205 C 104.125 1.20183 -4.1078 0
M  V30 1206 C 103.451 2.44363 -4.75595 0
M  V30 1207 C 104.751 0.30605 -5.21403 0
M  V30 1208 H 106.445 -0.102883 -2.99223 0
M  V30 1209 H 103.991 -0.0509219 -1.4391 0
M  V30 1210 H 105.944 2.26915 -3.55088 0
M  V30 1211 H 104.668 2.30995 -2.30887 0
M  V30 1212 H 103.327 0.622499 -3.61276 0
M  V30 1213 H 102.975 3.07057 -3.98403 0
M  V30 1214 H 102.675 2.13925 -5.47275 0
M  V30 1215 H 104.199 3.05317 -5.28786 0
M  V30 1216 H 105.613 0.814929 -5.67478 0
M  V30 1217 H 104.01 0.0937929 -6.00027 0
M  V30 1218 H 105.08 -0.65921 -4.80398 0
M  V30 1219 N 106.423 1.57458 -0.0668435 0
M  V30 1220 C 107.839 1.56947 0.289772 0
M  V30 1221 C 108.039 1.07584 1.70376 0
M  V30 1222 O 107.095 0.739486 2.41429 0
M  V30 1223 C 108.408 3.0052 0.103943 0
M  V30 1224 C 109.956 3.12517 0.173857 0
M  V30 1225 C 110.431 4.57997 0.0163682 0
M  V30 1226 N 111.922 4.63144 0.0721352 0
M  V30 1227 C 112.657 5.73394 -0.0253794 0
M  V30 1228 N 112.153 6.92576 -0.176133 0
M  V30 1229 N 113.946 5.62091 0.0313305 0
M  V30 1230 H 106.097 1.87863 -0.991027 0
M  V30 1231 H 108.36 0.86583 -0.38606 0
M  V30 1232 H 108.066 3.40729 -0.871572 0
M  V30 1233 H 107.94 3.67304 0.858366 0
M  V30 1234 H 110.327 2.72197 1.13985 0
M  V30 1235 H 110.408 2.48381 -0.611586 0
M  V30 1236 H 110.052 4.99005 -0.946374 0
M  V30 1237 H 109.982 5.20158 0.821153 0
M  V30 1238 H 112.473 3.77436 0.187263 0
M  V30 1239 H 112.786 7.72418 -0.242821 0
M  V30 1240 H 111.131 6.94678 -0.211429 0
M  V30 1241 H 114.322 4.67867 0.147773 0
M  V30 1242 H 114.495 6.47982 -0.048121 0
M  V30 1243 N 107.901 -0.206675 1.56239 0
M  V30 1244 C 109.317 -0.557025 1.49564 0
M  V30 1245 C 109.517 -1.86424 0.764735 0
M  V30 1246 O 108.573 -2.50584 0.310491 0
M  V30 1247 C 109.886 -0.622478 2.94186 0
M  V30 1248 C 111.434 -0.712099 3.04792 0
M  V30 1249 C 111.909 -0.808767 4.50803 0
M  V30 1250 N 113.4 -0.8726 4.54907 0
M  V30 1251 C 114.135 -0.967365 5.65181 0
M  V30 1252 N 113.631 -1.02515 6.85173 0
M  V30 1253 N 115.424 -1.00366 5.53067 0
M  V30 1254 H 107.575 0.650943 2.02179 0
M  V30 1255 H 109.838 0.230387 0.919579 0
M  V30 1256 H 109.544 0.268727 3.50672 0
M  V30 1257 H 109.418 -1.4811 3.46905 0
M  V30 1258 H 111.805 -1.59374 2.48363 0
M  V30 1259 H 111.886 0.172489 2.55218 0
M  V30 1260 H 111.53 0.0684754 5.07854 0
M  V30 1261 H 111.46 -1.70899 4.98098 0
M  V30 1262 H 113.951 -0.837657 3.68499 0
M  V30 1263 H 114.264 -1.09765 7.64965 0
M  V30 1264 H 112.609 -0.994026 6.87855 0
M  V30 1265 H 115.8 -0.95527 4.58249 0
M  V30 1266 H 115.973 -1.07405 6.39037 0
M  V30 1267 N 109.379 -1.50304 -0.473955 0
M  V30 1268 C 110.627 -1.60832 -1.22382 0
M  V30 1269 C 110.948 -0.30939 -1.9253 0
M  V30 1270 O 110.218 0.67296 -1.83978 0
M  V30 1271 H 108.798 -0.592652 -0.454723 0
M  V30 1272 H 111.46 -1.87068 -0.546968 0
M  V30 1273 H 110.556 -2.41803 -1.97327 0
M  V30 1274 N 110.857 0.726932 -1.39834 0
M  V30 1275 C 112.104 1.48664 -1.37496 0
M  V30 1276 C 112.432 1.94482 0.0264678 0
M  V30 1277 O 111.687 1.67692 1.00886 0
M  V30 1278 C 111.986 2.73495 -2.30077 0
M  V30 1279 C 111.652 2.46502 -3.77555 0
M  V30 1280 C 110.314 2.3885 -4.17737 0
M  V30 1281 C 112.666 2.23604 -4.70798 0
M  V30 1282 C 109.994 2.06352 -5.49214 0
M  V30 1283 C 112.346 1.92622 -6.02561 0
M  V30 1284 C 111.01 1.83444 -6.41798 0
M  V30 1285 H 110.28 0.544001 -0.503135 0
M  V30 1286 H 112.927 0.833657 -1.72402 0
M  V30 1287 H 111.232 3.43575 -1.88317 0
M  V30 1288 H 112.929 3.31549 -2.25558 0
M  V30 1289 H 109.519 2.5334 -3.45712 0
M  V30 1290 H 113.703 2.28479 -4.40581 0
M  V30 1291 H 108.959 1.97776 -5.78528 0
M  V30 1292 H 113.133 1.73914 -6.74334 0
M  V30 1293 H 110.76 1.58029 -7.43593 0
M  V30 1294 N 112.336 1.25143 0.95797 0
M  V30 1295 C 113.747 1.08851 1.51685 0
M  V30 1296 C 114.098 -0.33687 1.93286 0
M  V30 1297 O 113.223 -1.22644 1.7829 0
M  V30 1298 C 113.818 1.96978 2.75654 0
M  V30 1299 C 112.377 1.84881 3.27866 0
M  V30 1300 C 111.524 1.91329 2.0072 0
M  V30 1301 H 114.475 1.38478 0.77522 0
M  V30 1302 H 114.496 1.5078 3.4935 0
M  V30 1303 H 114.008 3.00712 2.45345 0
M  V30 1304 H 112.109 0.840182 3.63004 0
M  V30 1305 H 112.222 2.6951 3.96107 0
M  V30 1306 H 110.586 1.35174 2.15871 0
M  V30 1307 H 111.369 2.96661 1.72764 0
M  V30 1308 N 113.814 -1.1601 1.06675 0
M  V30 1309 C 115.06 -1.86909 0.786945 0
M  V30 1310 C 115.393 -1.81717 -0.685018 0
M  V30 1311 O 114.668 -1.23551 -1.50218 0
M  V30 1312 C 114.951 -3.36313 1.28707 0
M  V30 1313 C 114.804 -3.50175 2.82308 0
M  V30 1314 C 116.123 -4.3084 0.898071 0
M  V30 1315 H 113.242 -0.678677 0.287343 0
M  V30 1316 H 115.884 -1.36336 1.32334 0
M  V30 1317 H 114.034 -3.79513 0.830768 0
M  V30 1318 H 115.706 -3.15886 3.36175 0
M  V30 1319 H 113.949 -2.91959 3.20847 0
M  V30 1320 H 114.62 -4.55116 3.12368 0
M  V30 1321 H 117.096 -3.95561 1.29114 0
M  V30 1322 H 115.972 -5.33876 1.27543 0
M  V30 1323 H 116.233 -4.41662 -0.196651 0
M  V30 1324 N 115.292 -0.849877 -1.32721 0
M  V30 1325 C 116.255 -0.296122 -2.27279 0
M  V30 1326 C 117.255 0.541458 -1.5141 0
M  V30 1327 O 118.445 0.353658 -1.70572 0
M  V30 1328 C 115.577 0.581579 -3.35902 0
M  V30 1329 H 116.77 -1.13064 -2.77771 0
M  V30 1330 H 114.323 -0.62383 -1.43311 0
M  V30 1331 H 115.058 1.43809 -2.9067 0
M  V30 1332 H 114.843 -0.0178814 -3.92096 0
M  V30 1333 H 116.333 0.961951 -4.0637 0
M  V30 1334 N 116.77 1.45427 -0.607355 0
M  V30 1335 C 117.72 2.27612 0.133038 0
M  V30 1336 C 118.704 1.37307 0.838785 0
M  V30 1337 O 119.896 1.61299 0.728813 0
M  V30 1338 C 117.025 3.24173 1.12991 0
M  V30 1339 C 116.111 4.21965 0.425011 0
M  V30 1340 N 116.502 5.02982 -0.533217 0
M  V30 1341 C 114.8 4.40899 0.672593 0
M  V30 1342 C 115.501 5.73931 -0.947518 0
M  V30 1343 N 114.477 5.42819 -0.291321 0
M  V30 1344 H 118.279 2.87649 -0.602935 0
M  V30 1345 H 115.793 1.56576 -0.431006 0
M  V30 1346 H 117.79 3.81783 1.67473 0
M  V30 1347 H 116.45 2.65696 1.86644 0
M  V30 1348 H 117.461 5.09843 -0.90995 0
M  V30 1349 H 114.138 3.93547 1.39382 0
M  V30 1350 H 115.528 6.49037 -1.73782 0
M  V30 1351 N 118.248 0.346503 1.53744 0
M  V30 1352 C 119.473 -0.253074 2.0585 0
M  V30 1353 C 119.898 -1.43202 1.21962 0
M  V30 1354 O 119.256 -1.79783 0.234073 0
M  V30 1355 C 119.304 -0.643193 3.54817 0
M  V30 1356 O 118.408 -1.74286 3.73762 0
M  V30 1357 H 117.749 -0.0413583 0.662711 0
M  V30 1358 H 120.279 0.501574 1.98357 0
M  V30 1359 H 120.289 -0.919526 3.97503 0
M  V30 1360 H 118.964 0.218966 4.15323 0
M  V30 1361 H 117.541 -1.46356 3.42979 0
M  V30 1362 N 119.726 -1.57421 0.075193 0
M  V30 1363 C 120.975 -1.92794 -0.592731 0
M  V30 1364 C 121.288 -0.957478 -1.70563 0
M  V30 1365 O 122.494 -1.20417 -2.43335 0
M  V30 1366 C 120.95 -3.42495 -1.10569 0
M  V30 1367 C 120.558 -4.47994 -0.0236121 0
M  V30 1368 C 122.302 -3.86864 -1.74748 0
M  V30 1369 C 120.209 -5.88829 -0.550803 0
M  V30 1370 H 119.139 -0.719591 -0.225177 0
M  V30 1371 H 121.79 -1.82902 0.147978 0
M  V30 1372 H 120.172 -3.47471 -1.89947 0
M  V30 1373 H 121.346 -4.54637 0.751099 0
M  V30 1374 H 119.661 -4.13113 0.522159 0
M  V30 1375 H 122.258 -4.8947 -2.15229 0
M  V30 1376 H 122.601 -3.24417 -2.60882 0
M  V30 1377 H 123.134 -3.84504 -1.01986 0
M  V30 1378 H 119.873 -6.54929 0.273457 0
M  V30 1379 H 119.393 -5.85698 -1.29296 0
M  V30 1380 H 121.072 -6.38811 -1.02613 0
M  V30 1381 N 121.204 0.198386 -1.56346 0
M  V30 1382 C 122.434 0.934215 -1.84271 0
M  V30 1383 C 122.842 1.77496 -0.655125 0
M  V30 1384 O 122.185 1.7961 0.385488 0
M  V30 1385 C 122.247 1.88278 -3.06254 0
M  V30 1386 C 121.911 1.22431 -4.40295 0
M  V30 1387 C 122.908 0.602839 -5.16393 0
M  V30 1388 C 120.593 1.22915 -4.87029 0
M  V30 1389 C 122.587 -0.0050083 -6.374 0
M  V30 1390 C 120.274 0.617465 -6.07973 0
M  V30 1391 C 121.272 0.00146341 -6.83 0
M  V30 1392 O 120.96 -0.600642 -8.01653 0
M  V30 1393 H 120.692 0.278245 -0.616081 0
M  V30 1394 H 123.246 0.211626 -2.04307 0
M  V30 1395 H 121.476 2.64498 -2.82095 0
M  V30 1396 H 123.165 2.48612 -3.20853 0
M  V30 1397 H 123.931 0.591265 -4.81382 0
M  V30 1398 H 119.81 1.69801 -4.28589 0
M  V30 1399 H 123.354 -0.48643 -6.95902 0
M  V30 1400 H 119.251 0.62653 -6.42452 0
M  V30 1401 H 120.019 -0.497225 -8.16988 0
M  V30 1402 N 122.682 1.50554 0.465978 0
M  V30 1403 C 123.93 1.61479 1.21528 0
M  V30 1404 C 124.251 0.319596 1.92363 0
M  V30 1405 O 123.521 -0.663194 1.84333 0
M  V30 1406 H 122.101 0.595055 0.451573 0
M  V30 1407 H 124.763 1.87355 0.53704 0
M  V30 1408 H 123.859 2.42846 1.96042 0
M  V30 1409 N 124.16 -0.719506 1.40217 0
M  V30 1410 C 125.409 -1.47486 1.37589 0
M  V30 1411 C 125.722 -1.9559 -0.0201568 0
M  V30 1412 O 126.928 -2.70973 -0.169049 0
M  V30 1413 C 125.384 -2.66575 2.41796 0
M  V30 1414 C 124.992 -2.25358 3.87192 0
M  V30 1415 C 126.736 -3.4433 2.48269 0
M  V30 1416 C 124.643 -3.41262 4.83005 0
M  V30 1417 H 123.573 -0.553901 0.511576 0
M  V30 1418 H 126.224 -0.783427 1.65936 0
M  V30 1419 H 124.606 -3.3787 2.06543 0
M  V30 1420 H 125.78 -1.61509 4.31569 0
M  V30 1421 H 124.095 -1.60657 3.84159 0
M  V30 1422 H 126.692 -4.30569 3.17041 0
M  V30 1423 H 127.035 -3.87872 1.51198 0
M  V30 1424 H 127.568 -2.80076 2.82493 0
M  V30 1425 H 124.307 -3.02755 5.81394 0
M  V30 1426 H 123.827 -4.0404 4.43297 0
M  V30 1427 H 125.506 -4.07383 5.02641 0
M  V30 1428 N 125.638 -1.25649 -0.95132 0
M  V30 1429 C 127.049 -1.09654 -1.51106 0
M  V30 1430 C 127.4 0.326615 -1.93462 0
M  V30 1431 O 126.525 1.21697 -1.78938 0
M  V30 1432 C 127.12 -1.98437 -2.74605 0
M  V30 1433 C 125.679 -1.86618 -3.2688 0
M  V30 1434 C 124.826 -1.9239 -1.99703 0
M  V30 1435 H 127.777 -1.38887 -0.767865 0
M  V30 1436 H 127.798 -1.5263 -3.48546 0
M  V30 1437 H 127.31 -3.02009 -2.43746 0
M  V30 1438 H 125.411 -0.859421 -3.62553 0
M  V30 1439 H 125.524 -2.71607 -3.94673 0
M  V30 1440 H 123.888 -1.36317 -2.15151 0
M  V30 1441 H 124.671 -2.97573 -1.71188 0
M  V30 1442 N 127.117 1.15442 -1.07289 0
M  V30 1443 C 128.342 1.90638 -0.816828 0
M  V30 1444 C 128.767 1.77445 0.624083 0
M  V30 1445 O 128.125 1.10671 1.43602 0
M  V30 1446 C 128.173 3.39008 -1.22906 0
M  V30 1447 O 127.277 4.10701 -0.373975 0
M  V30 1448 H 126.618 0.593555 -0.297638 0
M  V30 1449 H 129.148 1.46198 -1.43134 0
M  V30 1450 H 129.158 3.89801 -1.20497 0
M  V30 1451 H 127.833 3.47929 -2.27856 0
M  V30 1452 H 126.41 3.70046 -0.460499 0
M  V30 1453 N 128.595 0.856903 1.32268 0
M  V30 1454 C 129.841 0.462069 1.97466 0
M  V30 1455 C 130.174 -0.980298 1.67642 0
M  V30 1456 O 129.449 -1.68824 0.965858 0
M  V30 1457 C 129.732 0.704336 3.53145 0
M  V30 1458 C 129.585 2.19529 3.9259 0
M  V30 1459 C 130.904 0.1622 4.39801 0
M  V30 1460 H 128.023 0.169357 0.717278 0
M  V30 1461 H 130.665 1.07574 1.56614 0
M  V30 1462 H 128.815 0.181999 3.88073 0
M  V30 1463 H 130.487 2.78387 3.67829 0
M  V30 1464 H 128.73 2.67292 3.41668 0
M  V30 1465 H 129.401 2.31549 5.01088 0
M  V30 1466 H 131.877 0.608905 4.11621 0
M  V30 1467 H 130.753 0.361265 5.4771 0
M  V30 1468 H 131.014 -0.935158 4.32096 0
M  V30 1469 N 130.073 -1.45103 0.615059 0
M  V30 1470 C 131.322 -2.01396 0.110718 0
M  V30 1471 C 131.635 -1.48834 -1.26916 0
M  V30 1472 O 132.841 -1.97152 -1.86664 0
M  V30 1473 C 131.297 -3.59599 0.14723 0
M  V30 1474 C 130.905 -4.21158 1.52743 0
M  V30 1475 C 132.649 -4.23428 -0.30148 0
M  V30 1476 C 130.556 -5.71535 1.51992 0
M  V30 1477 H 129.486 -0.753061 0.0376241 0
M  V30 1478 H 132.137 -1.66494 0.77149 0
M  V30 1479 H 130.519 -3.91724 -0.580339 0
M  V30 1480 H 131.693 -4.00594 2.2773 0
M  V30 1481 H 130.008 -3.69552 1.91886 0
M  V30 1482 H 132.605 -5.33703 -0.326392 0
M  V30 1483 H 132.948 -3.94629 -1.32565 0
M  V30 1484 H 133.481 -3.96047 0.373065 0
M  V30 1485 H 130.22 -6.05044 2.52193 0
M  V30 1486 H 129.74 -5.94268 0.81274 0
M  V30 1487 H 131.419 -6.34873 1.24681 0
M  V30 1488 N 131.551 -0.354651 -1.53558 0
M  V30 1489 C 132.499 0.512195 -2.26891 0
M  V30 1490 C 133.493 1.09263 -1.29452 0
M  V30 1491 O 134.699 1.03709 -1.47121 0
M  V30 1492 H 131.074 0.183878 -0.729173 0
M  V30 1493 H 133.045 -0.128202 -2.98124 0
M  V30 1494 C 131.794 1.64563 -3.06291 0
M  V30 1495 H 131.117 1.20829 -3.81104 0
M  V30 1496 H 132.557 2.22711 -3.60799 0
M  V30 1497 C 131.016 2.58158 -2.16462 0
M  V30 1498 O 131.546 3.60695 -1.76811 0
M  V30 1499 N 129.752 2.27096 -1.81317 0
M  V30 1500 H 129.299 1.43751 -2.1376 0
M  V30 1501 H 129.257 2.89975 -1.21498 0
M  V30 1502 N 133.029 1.57378 -0.0835403 0
M  V30 1503 C 134.254 1.98682 0.594987 0
M  V30 1504 C 134.679 0.961969 1.61641 0
M  V30 1505 O 134.037 -0.0709989 1.81161 0
M  V30 1506 C 134.085 3.38988 1.2296 0
M  V30 1507 O 133.189 3.39208 2.34546 0
M  V30 1508 H 132.53 0.646368 0.152002 0
M  V30 1509 H 135.06 2.03961 -0.161533 0
M  V30 1510 H 135.07 3.76431 1.57366 0
M  V30 1511 H 133.745 4.13107 0.481228 0
M  V30 1512 H 132.322 3.13548 2.01846 0
M  V30 1513 N 134.507 -0.190092 1.56449 0
M  V30 1514 C 135.47 -1.21925 1.9408 0
M  V30 1515 C 136.47 -1.38176 0.822431 0
M  V30 1516 O 137.66 -1.35903 1.08977 0
M  V30 1517 C 134.792 -2.58773 2.21922 0
M  V30 1518 H 135.985 -0.897464 2.86157 0
M  V30 1519 H 133.538 -0.43181 1.50217 0
M  V30 1520 H 134.273 -2.95998 1.32499 0
M  V30 1521 H 134.058 -2.48348 3.03424 0
M  V30 1522 H 135.548 -3.32978 2.52022 0
M  V30 1523 N 135.985 -1.50799 -0.457987 0
M  V30 1524 C 136.933 -1.71162 -1.575 0
M  V30 1525 C 137.927 -0.577592 -1.59249 0
M  V30 1526 O 139.133 -0.758443 -1.63241 0
M  V30 1527 H 135.508 -0.540468 -0.522875 0
M  V30 1528 H 137.479 -2.64837 -1.37492 0
M  V30 1529 C 136.228 -1.83496 -2.95338 0
M  V30 1530 H 135.551 -2.70153 -2.94716 0
M  V30 1531 H 136.991 -2.01765 -3.72917 0
M  V30 1532 C 135.45 -0.589694 -3.31699 0
M  V30 1533 O 135.98 0.265163 -4.00824 0
M  V30 1534 N 134.186 -0.439845 -2.87252 0
M  V30 1535 H 133.733 -1.13655 -2.31172 0
M  V30 1536 H 133.691 0.392159 -3.11945 0
M  V30 1537 N 137.463 0.71206 -1.40597 0
M  V30 1538 C 138.693 1.49894 -1.42181 0
M  V30 1539 C 139.101 1.89189 -0.0208078 0
M  V30 1540 O 138.444 1.56223 0.966436 0
M  V30 1541 C 138.506 2.80215 -2.25211 0
M  V30 1542 C 138.17 2.63221 -3.73582 0
M  V30 1543 C 139.167 2.30249 -4.66135 0
M  V30 1544 C 136.852 2.79376 -4.17438 0
M  V30 1545 C 138.846 2.13645 -6.00529 0
M  V30 1546 C 136.533 2.6239 -5.51901 0
M  V30 1547 C 137.531 2.29573 -6.43262 0
M  V30 1548 O 137.219 2.12719 -7.75246 0
M  V30 1549 H 136.951 0.469031 -0.486812 0
M  V30 1550 H 139.505 0.88564 -1.85326 0
M  V30 1551 H 137.735 3.4389 -1.76852 0
M  V30 1552 H 139.424 3.41947 -2.18694 0
M  V30 1553 H 140.19 2.17398 -4.33547 0
M  V30 1554 H 136.069 3.03906 -3.46644 0
M  V30 1555 H 139.613 1.87953 -6.71803 0
M  V30 1556 H 135.51 2.74826 -5.84073 0
M  V30 1557 H 136.278 2.27611 -7.86216 0
M  V30 1558 N 138.941 1.26152 0.944643 0
M  V30 1559 C 140.187 1.11657 1.69294 0
M  V30 1560 C 140.52 -0.339926 1.91202 0
M  V30 1561 O 139.795 -1.24994 1.49019 0
M  V30 1562 C 140.078 1.88236 3.06984 0
M  V30 1563 C 139.931 3.41772 2.92424 0
M  V30 1564 C 141.25 1.67343 4.07043 0
M  V30 1565 H 138.369 0.407004 0.614424 0
M  V30 1566 H 141.011 1.55106 1.09737 0
M  V30 1567 H 139.161 1.51308 3.57824 0
M  V30 1568 H 140.833 3.88433 2.48832 0
M  V30 1569 H 139.076 3.68974 2.28124 0
M  V30 1570 H 139.747 3.90579 3.90067 0
M  V30 1571 H 142.223 1.99509 3.65151 0
M  V30 1572 H 141.099 2.23346 5.01406 0
M  V30 1573 H 141.36 0.617158 4.37771 0
M  V30 1574 N 140.419 -1.14872 1.07899 0
M  V30 1575 C 141.649 -1.89386 0.825631 0
M  V30 1576 C 142.057 -1.78565 -0.625406 0
M  V30 1577 O 141.4 -1.13918 -1.44113 0
M  V30 1578 C 141.462 -3.40206 1.16191 0
M  V30 1579 C 141.126 -3.74812 2.61467 0
M  V30 1580 C 142.123 -3.75367 3.59716 0
M  V30 1581 C 139.808 -4.0495 2.97189 0
M  V30 1582 C 141.802 -4.05574 4.9172 0
M  V30 1583 C 139.489 -4.34821 4.29388 0
M  V30 1584 C 140.487 -4.35116 5.26463 0
M  V30 1585 O 140.175 -4.64267 6.56286 0
M  V30 1586 H 139.907 -0.606894 0.297751 0
M  V30 1587 H 142.461 -1.46438 1.44031 0
M  V30 1588 H 140.691 -3.8358 0.490214 0
M  V30 1589 H 142.38 -3.96018 0.890193 0
M  V30 1590 H 143.146 -3.52176 3.33462 0
M  V30 1591 H 139.025 -4.03876 2.22273 0
M  V30 1592 H 142.569 -4.05719 5.67484 0
M  V30 1593 H 138.466 -4.5748 4.55392 0
M  V30 1594 H 139.234 -4.82007 6.61522 0
M  V30 1595 N 141.898 -0.863906 -1.31812 0
M  V30 1596 C 143.145 -0.471836 -1.96926 0
M  V30 1597 C 143.473 0.974578 -1.68322 0
M  V30 1598 O 142.728 1.7003 -0.968933 0
M  V30 1599 C 143.027 -0.668547 -3.51091 0
M  V30 1600 C 142.693 -2.08683 -3.99703 0
M  V30 1601 C 141.355 -2.47471 -4.12688 0
M  V30 1602 C 143.707 -3.01207 -4.25351 0
M  V30 1603 C 141.035 -3.78037 -4.4867 0
M  V30 1604 C 143.387 -4.31282 -4.62794 0
M  V30 1605 C 142.051 -4.69992 -4.73987 0
M  V30 1606 H 141.321 -0.172657 -0.720604 0
M  V30 1607 H 143.968 -1.09573 -1.57054 0
M  V30 1608 H 142.273 0.0385252 -3.91781 0
M  V30 1609 H 143.97 -0.345102 -3.99512 0
M  V30 1610 H 140.56 -1.77566 -3.90087 0
M  V30 1611 H 144.744 -2.72469 -4.14819 0
M  V30 1612 H 140 -4.078 -4.55532 0
M  V30 1613 H 144.174 -5.03031 -4.81594 0
M  V30 1614 H 141.801 -5.71207 -5.01624 0
M  V30 1615 N 143.376 1.44774 -0.622745 0
M  V30 1616 C 144.306 2.33382 0.0741861 0
M  V30 1617 C 145.287 1.47719 0.843387 0
M  V30 1618 O 146.472 1.76458 0.810934 0
M  V30 1619 C 143.602 3.30663 1.06204 0
M  V30 1620 C 142.556 4.26079 0.405037 0
M  V30 1621 C 141.882 5.13165 1.5022 0
M  V30 1622 C 143.182 5.1781 -0.683414 0
M  V30 1623 H 144.876 2.91905 -0.665713 0
M  V30 1624 H 142.422 1.40363 -0.321587 0
M  V30 1625 H 144.375 3.9153 1.55827 0
M  V30 1626 H 143.099 2.70331 1.83272 0
M  V30 1627 H 141.758 3.66532 -0.0704683 0
M  V30 1628 H 141.406 4.49191 2.26355 0
M  V30 1629 H 141.106 5.77812 1.06803 0
M  V30 1630 H 142.63 5.76902 2.00041 0
M  V30 1631 H 144.044 5.72661 -0.270631 0
M  V30 1632 H 142.441 5.91015 -1.04023 0
M  V30 1633 H 143.511 4.59326 -1.55395 0
M  V30 1634 N 144.854 0.36279 1.53368 0
M  V30 1635 C 146.102 -0.227326 2.00817 0
M  V30 1636 C 146.423 -1.49511 1.25186 0
M  V30 1637 O 145.693 -1.92482 0.364348 0
M  V30 1638 H 144.273 -0.0869923 0.741917 0
M  V30 1639 H 146.935 0.488381 1.88682 0
M  V30 1640 H 146.031 -0.456273 3.08747 0
M  V30 1641 N 146.332 -1.57332 0.0918853 0
M  V30 1642 C 147.262 -2.16872 -0.865371 0
M  V30 1643 C 148.243 -1.10118 -1.29646 0
M  V30 1644 O 149.428 -1.38242 -1.36392 0
M  V30 1645 C 146.558 -2.74649 -2.12569 0
M  V30 1646 C 145.512 -3.86747 -1.83333 0
M  V30 1647 C 144.838 -4.31212 -3.16166 0
M  V30 1648 C 146.138 -5.10089 -1.1228 0
M  V30 1649 H 147.832 -2.97114 -0.369307 0
M  V30 1650 H 145.378 -1.42918 -0.176194 0
M  V30 1651 H 147.331 -3.14952 -2.7997 0
M  V30 1652 H 146.055 -1.91657 -2.64452 0
M  V30 1653 H 144.714 -3.46978 -1.18331 0
M  V30 1654 H 144.362 -3.45115 -3.6593 0
M  V30 1655 H 144.062 -5.06788 -2.97388 0
M  V30 1656 H 145.586 -4.74146 -3.84731 0
M  V30 1657 H 147 -5.47582 -1.69785 0
M  V30 1658 H 145.397 -5.91073 -1.03693 0
M  V30 1659 H 146.467 -4.84786 -0.105041 0
M  V30 1660 N 147.81 0.181792 -1.56548 0
M  V30 1661 C 148.72 1.24538 -1.98815 0
M  V30 1662 C 149.736 1.49045 -0.897861 0
M  V30 1663 O 150.912 1.61399 -1.20467 0
M  V30 1664 C 147.977 2.56683 -2.33055 0
M  V30 1665 C 147.038 2.40131 -3.55859 0
M  V30 1666 C 146.271 3.65975 -3.88456 0
M  V30 1667 O 146.494 4.70711 -3.22161 0
M  V30 1668 O 145.428 3.6071 -4.81842 0
M  V30 1669 H 149.254 0.916647 -2.89536 0
M  V30 1670 H 146.839 0.387842 -1.44278 0
M  V30 1671 H 148.721 3.34655 -2.56094 0
M  V30 1672 H 147.396 2.89157 -1.45498 0
M  V30 1673 H 146.303 1.60226 -3.38051 0
M  V30 1674 H 147.636 2.12585 -4.43924 0
M  V30 1675 N 149.288 1.51039 0.449983 0
M  V30 1676 C 150.235 1.71439 1.54523 0
M  V30 1677 C 151.205 0.555871 1.56522 0
M  V30 1678 O 152.39 0.788871 1.73728 0
M  V30 1679 C 149.53 1.83384 2.92343 0
M  V30 1680 C 148.643 3.10873 2.9997 0
M  V30 1681 C 147.778 3.13488 4.28834 0
M  V30 1682 C 146.817 4.35343 4.30282 0
M  V30 1683 N 145.954 4.35579 5.5065 0
M  V30 1684 H 150.794 2.64934 1.36433 0
M  V30 1685 H 148.331 1.31312 0.662982 0
M  V30 1686 H 150.289 1.88291 3.72293 0
M  V30 1687 H 148.919 0.933086 3.0902 0
M  V30 1688 H 147.971 3.15336 2.12761 0
M  V30 1689 H 149.283 4.00814 2.96901 0
M  V30 1690 H 148.437 3.17241 5.17149 0
M  V30 1691 H 147.176 2.21414 4.34543 0
M  V30 1692 H 146.181 4.3178 3.40362 0
M  V30 1693 H 147.406 5.28668 4.26248 0
M  V30 1694 H 145.352 3.46369 5.57104 0
M  V30 1695 H 145.269 5.19313 5.49409 0
M  V30 1696 H 146.537 4.43507 6.41032 0
M  V30 1697 N 150.766 -0.704594 1.40972 0
M  V30 1698 C 152.012 -1.46675 1.40051 0
M  V30 1699 C 152.345 -1.94199 0.00641102 0
M  V30 1700 O 151.62 -1.68916 -0.964235 0
M  V30 1701 C 151.903 -2.68505 2.39952 0
M  V30 1702 C 151.756 -2.26805 3.88432 0
M  V30 1703 C 153.075 -3.70686 2.37233 0
M  V30 1704 H 150.194 -0.532015 0.510028 0
M  V30 1705 H 152.836 -0.803255 1.72185 0
M  V30 1706 H 150.986 -3.25114 2.1268 0
M  V30 1707 H 152.658 -1.75592 4.26574 0
M  V30 1708 H 150.901 -1.58685 4.03734 0
M  V30 1709 H 151.572 -3.14181 4.53866 0
M  V30 1710 H 154.048 -3.23731 2.61415 0
M  V30 1711 H 152.924 -4.53553 3.09162 0
M  V30 1712 H 153.185 -4.19754 1.38777 0
M  V30 1713 N 152.244 -1.26651 -0.937939 0
M  V30 1714 C 153.174 -1.10993 -2.05433 0
M  V30 1715 C 154.155 -0.0142161 -1.70094 0
M  V30 1716 O 155.34 -0.186837 -1.93299 0
M  V30 1717 C 152.47 -0.745561 -3.39203 0
M  V30 1718 C 151.424 -1.79337 -3.88616 0
M  V30 1719 C 150.75 -1.28324 -5.19073 0
M  V30 1720 C 152.05 -3.19553 -4.13138 0
M  V30 1721 H 153.744 -2.0438 -2.1879 0
M  V30 1722 H 151.29 -0.984041 -1.05131 0
M  V30 1723 H 153.243 -0.622888 -4.16771 0
M  V30 1724 H 151.967 0.22401 -3.25831 0
M  V30 1725 H 150.626 -1.90477 -3.13231 0
M  V30 1726 H 150.274 -0.303414 -5.02084 0
M  V30 1727 H 149.974 -1.98369 -5.53103 0
M  V30 1728 H 151.498 -1.1733 -5.99221 0
M  V30 1729 H 152.912 -3.11471 -4.81309 0
M  V30 1730 H 151.309 -3.87218 -4.58457 0
M  V30 1731 H 152.379 -3.65368 -3.18801 0
M  V30 1732 N 153.722 1.14298 -1.08507 0
M  V30 1733 C 154.95 1.89219 -0.836876 0
M  V30 1734 C 155.365 1.78638 0.611054 0
M  V30 1735 O 154.722 1.14643 1.41998 0
M  V30 1736 C 154.773 3.39158 -1.25116 0
M  V30 1737 O 154.494 3.49449 -2.64229 0
M  V30 1738 C 155.995 4.31073 -1.03398 0
M  V30 1739 H 153.215 0.599328 -0.301739 0
M  V30 1740 H 155.759 1.44746 -1.44461 0
M  V30 1741 H 153.914 3.81251 -0.687514 0
M  V30 1742 H 154.328 4.42589 -2.81452 0
M  V30 1743 H 155.802 5.34646 -1.37323 0
M  V30 1744 H 156.279 4.3919 0.0289259 0
M  V30 1745 H 156.885 3.94738 -1.58311 0
M  V30 1746 N 155.201 0.870884 1.31352 0
M  V30 1747 C 156.131 0.343096 2.30966 0
M  V30 1748 C 157.112 -0.566507 1.60389 0
M  V30 1749 O 158.297 -0.483336 1.88089 0
M  V30 1750 C 155.427 -0.455487 3.443 0
M  V30 1751 C 154.381 0.361103 4.26474 0
M  V30 1752 C 153.707 -0.563221 5.31725 0
M  V30 1753 C 155.007 1.59566 4.97329 0
M  V30 1754 H 156.701 1.17548 2.75359 0
M  V30 1755 H 154.247 0.566686 1.32381 0
M  V30 1756 H 156.2 -0.83525 4.13039 0
M  V30 1757 H 154.924 -1.32139 2.98675 0
M  V30 1758 H 153.583 0.722825 3.59403 0
M  V30 1759 H 153.231 -1.42643 4.82351 0
M  V30 1760 H 152.931 -0.0207409 5.87596 0
M  V30 1761 H 154.455 -0.939808 6.03324 0
M  V30 1762 H 155.869 1.28728 5.58661 0
M  V30 1763 H 154.266 2.07728 5.63 0
M  V30 1764 H 155.336 2.34798 4.24262 0
M  V30 1765 N 156.679 -1.44442 0.630414 0
M  V30 1766 C 157.956 -1.9549 0.0655657 0
M  V30 1767 C 158.336 -1.5724 -1.40851 0
M  V30 1768 O 157.684 -0.846116 -2.12257 0
M  V30 1769 C 157.894 -3.47812 0.287691 0
M  V30 1770 C 159.242 -4.24216 0.180513 0
M  V30 1771 O 160.266 -3.55526 0.219019 0
M  V30 1772 O 159.125 -5.46434 0.0848493 0
M  V30 1773 H 156.219 -0.826688 -0.0227177 0
M  V30 1774 H 158.765 -1.54496 0.702068 0
M  V30 1775 H 157.537 -3.687 1.31056 0
M  V30 1776 H 157.16 -3.95751 -0.382984 0
M  V30 1777 N 158.157 -0.370918 -1.53173 0
M  V30 1778 C 159.107 0.489588 -2.22681 0
M  V30 1779 C 160.091 1.04442 -1.22395 0
M  V30 1780 O 161.283 0.973578 -1.47819 0
M  V30 1781 C 158.412 1.626 -3.02351 0
M  V30 1782 C 157.498 1.08379 -4.10018 0
M  V30 1783 N 157.889 0.265004 -5.05105 0
M  V30 1784 C 156.187 1.35809 -4.2482 0
M  V30 1785 C 156.888 -0.0324755 -5.81691 0
M  V30 1786 N 155.864 0.566581 -5.40639 0
M  V30 1787 H 159.666 -0.142729 -2.93553 0
M  V30 1788 H 157.18 -0.179221 -1.61408 0
M  V30 1789 H 159.177 2.2547 -3.50669 0
M  V30 1790 H 157.837 2.26132 -2.33011 0
M  V30 1791 H 158.848 -0.0962352 -5.17811 0
M  V30 1792 H 155.525 1.9958 -3.66707 0
M  V30 1793 H 156.915 -0.69473 -6.68299 0
M  V30 1794 N 159.635 1.57281 -0.100228 0
M  V30 1795 C 161.046 1.81725 0.428107 0
M  V30 1796 C 161.397 1.01619 1.67833 0
M  V30 1797 O 160.522 0.247098 2.14985 0
M  V30 1798 C 161.117 3.29617 0.78347 0
M  V30 1799 C 159.676 3.54808 1.25653 0
M  V30 1800 C 158.823 2.76118 0.255752 0
M  V30 1801 H 161.774 1.55324 -0.325608 0
M  V30 1802 H 161.795 3.4322 1.64256 0
M  V30 1803 H 161.307 3.87893 -0.12665 0
M  V30 1804 H 159.408 3.01868 2.18418 0
M  V30 1805 H 159.521 4.63443 1.21482 0
M  V30 1806 H 157.885 2.43745 0.738956 0
M  V30 1807 H 158.668 3.37145 -0.647136 0
M  V30 1808 N 161.113 -0.173488 1.56642 0
M  V30 1809 C 162.39 -0.917617 1.7274 0
M  V30 1810 C 162.77 -2.00484 0.661027 0
M  V30 1811 O 162.118 -2.26184 -0.32453 0
M  V30 1812 C 162.328 -1.48433 3.15862 0
M  V30 1813 C 163.676 -1.95809 3.76754 0
M  V30 1814 O 164.7 -1.58231 3.19126 0
M  V30 1815 O 163.559 -2.65024 4.77938 0
M  V30 1816 H 160.653 -0.431772 0.705338 0
M  V30 1817 H 163.199 -0.161487 1.6893 0
M  V30 1818 H 161.971 -0.701715 3.84957 0
M  V30 1819 H 161.594 -2.30471 3.23989 0
M  V30 1820 N 162.591 -1.51276 -0.441967 0
M  V30 1821 C 163.554 -1.7167 -1.51862 0
M  V30 1822 C 164.554 -0.586793 -1.49711 0
M  V30 1823 O 165.744 -0.854276 -1.51815 0
M  V30 1824 C 162.876 -1.76889 -2.91416 0
M  V30 1825 H 164.069 -2.67754 -1.35084 0
M  V30 1826 H 161.622 -1.41196 -0.670333 0
M  V30 1827 H 162.357 -0.826026 -3.13604 0
M  V30 1828 H 162.142 -2.59001 -2.94382 0
M  V30 1829 H 163.632 -1.94522 -3.69528 0
M  V30 1830 N 164.069 0.697108 -1.41344 0
M  V30 1831 C 165.315 1.4593 -1.40827 0
M  V30 1832 C 165.648 1.94193 -0.0167098 0
M  V30 1833 O 164.923 1.69425 0.955263 0
M  V30 1834 C 165.206 2.67229 -2.41373 0
M  V30 1835 C 165.059 2.24741 -3.8963 0
M  V30 1836 C 166.378 3.69423 -2.39196 0
M  V30 1837 H 163.497 0.529303 -0.512842 0
M  V30 1838 H 166.139 0.794112 -1.72609 0
M  V30 1839 H 164.289 3.23982 -2.14401 0
M  V30 1840 H 165.961 1.73327 -4.27499 0
M  V30 1841 H 164.204 1.56542 -4.0457 0
M  V30 1842 H 164.875 3.1177 -4.55525 0
M  V30 1843 H 167.351 3.2234 -2.63128 0
M  V30 1844 H 166.227 4.51907 -3.11563 0
M  V30 1845 H 166.488 4.19012 -1.41001 0
M  V30 1846 N 165.547 1.27147 0.931209 0
M  V30 1847 C 166.494 1.09568 2.03134 0
M  V30 1848 C 167.464 -0.00222433 1.661 0
M  V30 1849 O 168.649 0.159439 1.90133 0
M  V30 1850 C 165.789 0.745231 3.36957 0
M  V30 1851 C 164.902 1.92041 3.86968 0
M  V30 1852 C 164.037 1.51216 5.09222 0
M  V30 1853 C 163.076 2.65504 5.5152 0
M  V30 1854 N 162.213 2.25291 6.64972 0
M  V30 1855 H 167.053 2.03708 2.17502 0
M  V30 1856 H 164.59 1.01411 1.06556 0
M  V30 1857 H 166.548 0.522878 4.1391 0
M  V30 1858 H 165.178 -0.159202 3.22407 0
M  V30 1859 H 164.23 2.25541 3.06326 0
M  V30 1860 H 165.542 2.77787 4.1429 0
M  V30 1861 H 164.696 1.25084 5.93666 0
M  V30 1862 H 163.435 0.625749 4.83669 0
M  V30 1863 H 162.44 2.92354 4.65628 0
M  V30 1864 H 163.665 3.54761 5.7907 0
M  V30 1865 H 161.611 1.39098 6.41083 0
M  V30 1866 H 161.528 3.04577 6.91931 0
M  V30 1867 H 162.796 2.02398 7.52765 0
M  V30 1868 N 167.025 -1.13721 1.09112 0
M  V30 1869 C 167.955 -2.21148 0.749385 0
M  V30 1870 C 168.936 -1.6792 -0.271475 0
M  V30 1871 O 170.121 -1.93693 -0.140251 0
M  V30 1872 C 167.251 -3.46905 0.165659 0
M  V30 1873 C 166.205 -4.13203 1.11567 0
M  V30 1874 C 165.531 -5.33248 0.393809 0
M  V30 1875 C 166.831 -4.60912 2.45678 0
M  V30 1876 H 168.525 -2.4999 1.64758 0
M  V30 1877 H 166.071 -1.20156 0.793626 0
M  V30 1878 H 168.024 -4.21313 -0.085466 0
M  V30 1879 H 166.748 -3.17449 -0.767714 0
M  V30 1880 H 165.407 -3.40758 1.35202 0
M  V30 1881 H 165.055 -5.00054 -0.543599 0
M  V30 1882 H 164.755 -5.78552 1.02721 0
M  V30 1883 H 166.279 -6.10413 0.150908 0
M  V30 1884 H 167.693 -5.26759 2.26269 0
M  V30 1885 H 166.09 -5.16944 3.04776 0
M  V30 1886 H 167.16 -3.75603 3.06677 0
M  V30 1887 N 168.503 -0.877838 -1.30888 0
M  V30 1888 C 169.75 -0.492696 -1.96415 0
M  V30 1889 C 170.078 0.956671 -1.69346 0
M  V30 1890 O 169.333 1.68993 -0.986913 0
M  V30 1891 C 169.632 -0.705748 -3.50363 0
M  V30 1892 C 169.298 -2.1291 -3.97467 0
M  V30 1893 C 167.96 -2.51834 -4.1004 0
M  V30 1894 C 170.312 -3.05702 -4.22132 0
M  V30 1895 C 167.64 -3.82775 -4.44635 0
M  V30 1896 C 169.992 -4.36166 -4.58194 0
M  V30 1897 C 168.656 -4.74993 -4.68975 0
M  V30 1898 H 167.926 -0.18029 -0.718733 0
M  V30 1899 H 170.573 -1.11233 -1.55883 0
M  V30 1900 H 168.878 -0.00303058 -3.918 0
M  V30 1901 H 170.575 -0.387456 -3.99124 0
M  V30 1902 H 167.165 -1.81694 -3.88182 0
M  V30 1903 H 171.349 -2.76853 -4.11906 0
M  V30 1904 H 166.605 -4.12609 -4.51181 0
M  V30 1905 H 170.779 -5.08111 -4.76231 0
M  V30 1906 H 168.406 -5.76495 -4.95537 0
M  V30 1907 N 169.982 1.44106 -0.638065 0
M  V30 1908 C 171.21 2.06336 -0.152615 0
M  V30 1909 C 171.625 1.47731 1.17563 0
M  V30 1910 O 170.982 0.602806 1.72257 0
M  V30 1911 C 171.033 3.61479 -0.0391491 0
M  V30 1912 O 170.754 4.17903 -1.31487 0
M  V30 1913 C 172.255 4.40757 0.474176 0
M  V30 1914 H 169.475 0.665862 -0.0828776 0
M  V30 1915 H 172.019 1.84862 -0.87443 0
M  V30 1916 H 170.174 3.82191 0.633142 0
M  V30 1917 H 170.588 5.11416 -1.16421 0
M  V30 1918 H 172.062 5.49707 0.502562 0
M  V30 1919 H 172.539 4.12697 1.50258 0
M  V30 1920 H 173.145 4.24979 -0.165102 0
M  V30 1921 N 171.46 0.379036 1.52974 0
M  V30 1922 C 172.876 0.0285448 1.59574 0
M  V30 1923 C 173.076 -1.45542 1.39355 0
M  V30 1924 O 172.132 -2.2187 1.20541 0
M  V30 1925 C 173.445 0.496535 2.96572 0
M  V30 1926 C 174.993 0.451909 3.0972 0
M  V30 1927 C 175.468 0.895924 4.49152 0
M  V30 1928 N 176.959 0.851522 4.55306 0
M  V30 1929 C 177.694 1.16661 5.61407 0
M  V30 1930 N 177.19 1.55166 6.752 0
M  V30 1931 N 178.983 1.08853 5.51459 0
M  V30 1932 H 171.134 1.34525 1.64367 0
M  V30 1933 H 173.397 0.550733 0.771619 0
M  V30 1934 H 173.103 1.53258 3.16552 0
M  V30 1935 H 172.977 -0.109802 3.7704 0
M  V30 1936 H 175.364 -0.575029 2.89443 0
M  V30 1937 H 175.445 1.09392 2.3123 0
M  V30 1938 H 175.089 1.92104 4.70168 0
M  V30 1939 H 175.019 0.23103 5.26093 0
M  V30 1940 H 177.51 0.568038 3.73606 0
M  V30 1941 H 177.823 1.776 7.52116 0
M  V30 1942 H 176.168 1.59044 6.76557 0
M  V30 1943 H 179.359 0.786803 4.6144 0
M  V30 1944 H 179.532 1.33742 6.34048 0
M  V30 1945 N 172.938 -1.57226 0.108567 0
M  V30 1946 C 173.87 -2.11809 -0.875752 0
M  V30 1947 C 174.883 -1.05839 -1.23701 0
M  V30 1948 O 176.072 -1.33245 -1.18778 0
M  V30 1949 C 173.172 -2.59411 -2.18081 0
M  V30 1950 C 172.345 -3.89364 -1.99284 0
M  V30 1951 C 171.404 -4.22672 -3.13424 0
M  V30 1952 O 170.43 -4.91668 -2.86795 0
M  V30 1953 N 171.632 -3.79154 -4.3957 0
M  V30 1954 H 174.397 -2.9689 -0.409477 0
M  V30 1955 H 171.958 -1.61721 -0.076158 0
M  V30 1956 H 173.95 -2.7873 -2.93414 0
M  V30 1957 H 172.52 -1.79268 -2.5609 0
M  V30 1958 H 171.74 -3.79059 -1.08203 0
M  V30 1959 H 173.028 -4.74358 -1.84017 0
M  V30 1960 H 172.426 -3.23486 -4.64083 0
M  V30 1961 H 170.983 -4.03602 -5.11809 0
M  V30 1962 N 174.416 0.165178 -1.56732 0
M  V30 1963 C 175.346 1.20651 -1.99914 0
M  V30 1964 C 176.327 1.45827 -0.875705 0
M  V30 1965 O 177.512 1.57057 -1.14223 0
M  V30 1966 C 174.642 2.54401 -2.36427 0
M  V30 1967 C 173.596 2.43782 -3.51787 0
M  V30 1968 C 172.922 3.82078 -3.7406 0
M  V30 1969 C 174.222 1.93732 -4.85041 0
M  V30 1970 H 175.916 0.847534 -2.87154 0
M  V30 1971 H 173.462 0.40625 -1.38151 0
M  V30 1972 H 175.415 3.27458 -2.65234 0
M  V30 1973 H 174.139 2.92098 -1.46103 0
M  V30 1974 H 172.798 1.73178 -3.23117 0
M  V30 1975 H 172.446 4.17179 -2.81017 0
M  V30 1976 H 172.146 3.7584 -4.51684 0
M  V30 1977 H 173.67 4.56712 -4.05274 0
M  V30 1978 H 175.084 2.56569 -5.12684 0
M  V30 1979 H 173.481 1.98428 -5.66345 0
M  V30 1980 H 174.551 0.891962 -4.76626 0
M  V30 1981 N 175.894 1.51508 0.433938 0
M  V30 1982 C 176.824 1.76016 1.53429 0
M  V30 1983 C 177.805 0.610112 1.58782 0
M  V30 1984 O 178.99 0.853177 1.74455 0
M  V30 1985 C 176.12 1.88831 2.9148 0
M  V30 1986 C 175.074 3.04288 3.00987 0
M  V30 1987 C 174.4 3.0229 4.4105 0
M  V30 1988 C 175.7 4.44193 2.74754 0
M  V30 1989 H 177.394 2.68152 1.33171 0
M  V30 1990 H 174.94 1.29035 0.639214 0
M  V30 1991 H 176.893 2.04559 3.6842 0
M  V30 1992 H 175.617 0.933455 3.12976 0
M  V30 1993 H 174.276 2.8827 2.26486 0
M  V30 1994 H 173.924 2.04576 4.59519 0
M  V30 1995 H 173.624 3.79822 4.4834 0
M  V30 1996 H 175.148 3.20116 5.1996 0
M  V30 1997 H 176.562 4.60544 3.41426 0
M  V30 1998 H 174.959 5.23457 2.9345 0
M  V30 1999 H 176.029 4.53996 1.70339 0
M  V30 2000 N 177.372 -0.689602 1.41712 0
M  V30 2001 C 178.282 -1.83314 1.46401 0
M  V30 2002 C 179.298 -1.7036 0.35405 0
M  V30 2003 O 180.474 -1.92171 0.602692 0
M  V30 2004 C 177.539 -3.19344 1.34982 0
M  V30 2005 C 176.6 -3.44363 2.56344 0
M  V30 2006 C 175.833 -4.73904 2.45461 0
M  V30 2007 O 176.056 -5.508 1.48241 0
M  V30 2008 O 174.99 -4.99839 3.35328 0
M  V30 2009 H 178.816 -1.82314 2.42889 0
M  V30 2010 H 176.401 -0.843438 1.23315 0
M  V30 2011 H 178.283 -4.00547 1.3092 0
M  V30 2012 H 176.958 -3.21014 0.41612 0
M  V30 2013 H 175.865 -2.63067 2.65982 0
M  V30 2014 H 177.198 -3.47512 3.48563 0
M  V30 2015 N 178.85 -1.27639 -0.924453 0
M  V30 2016 C 179.78 -1.13166 -2.04244 0
M  V30 2017 C 180.761 -0.032256 -1.70069 0
M  V30 2018 O 181.946 -0.207328 -1.9309 0
M  V30 2019 C 179.076 -0.781496 -3.38393 0
M  V30 2020 C 178.03 -1.83449 -3.86692 0
M  V30 2021 C 177.356 -1.33822 -5.17683 0
M  V30 2022 C 178.656 -3.23917 -4.09726 0
M  V30 2023 H 180.35 -2.06689 -2.1661 0
M  V30 2024 H 177.896 -0.995136 -1.04082 0
M  V30 2025 H 179.849 -0.667057 -4.16087 0
M  V30 2026 H 178.573 0.189439 -3.2605 0
M  V30 2027 H 177.232 -1.93789 -3.11193 0
M  V30 2028 H 176.88 -0.35665 -5.01734 0
M  V30 2029 H 176.58 -2.04224 -5.50968 0
M  V30 2030 H 178.104 -1.23679 -5.97943 0
M  V30 2031 H 179.518 -3.16559 -4.77978 0
M  V30 2032 H 177.915 -3.92059 -4.54324 0
M  V30 2033 H 178.985 -3.68729 -3.14908 0
M  V30 2034 N 180.328 1.1314 -1.09713 0
M  V30 2035 C 181.278 2.16709 -0.708593 0
M  V30 2036 C 182.262 1.58471 0.278523 0
M  V30 2037 O 183.454 1.76779 0.088427 0
M  V30 2038 C 180.583 3.43039 -0.133923 0
M  V30 2039 C 179.669 4.08277 -1.14763 0
M  V30 2040 N 180.06 4.48637 -2.33577 0
M  V30 2041 C 178.358 4.34954 -0.986446 0
M  V30 2042 C 179.059 4.9952 -2.98085 0
M  V30 2043 N 178.035 4.94561 -2.25632 0
M  V30 2044 H 181.837 2.45672 -1.61315 0
M  V30 2045 H 179.351 1.29967 -0.973775 0
M  V30 2046 H 181.348 4.16583 0.162465 0
M  V30 2047 H 180.008 3.15549 0.765447 0
M  V30 2048 H 181.019 4.41246 -2.7115 0
M  V30 2049 H 177.696 4.17258 -0.142008 0
M  V30 2050 H 179.086 5.40521 -3.99108 0
M  V30 2051 N 181.806 0.884767 1.30421 0
M  V30 2052 C 182.738 0.308655 2.27112 0
M  V30 2053 C 183.751 -0.536655 1.53701 0
M  V30 2054 O 184.94 -0.35624 1.74909 0
M  V30 2055 C 182.04 -0.579782 3.33904 0
M  V30 2056 C 181.213 0.236417 4.36761 0
M  V30 2057 C 180.272 -0.582482 5.22966 0
M  V30 2058 O 179.298 -0.00525502 5.692 0
M  V30 2059 N 180.5 -1.89163 5.48815 0
M  V30 2060 H 183.265 1.13964 2.77186 0
M  V30 2061 H 180.826 0.747731 1.43599 0
M  V30 2062 H 182.818 -1.13366 3.88497 0
M  V30 2063 H 181.388 -1.31144 2.83761 0
M  V30 2064 H 180.608 0.97174 3.82035 0
M  V30 2065 H 181.896 0.795924 5.02536 0
M  V30 2066 H 181.294 -2.38352 5.13035 0
M  V30 2067 H 179.851 -2.39296 6.06284 0
M  V30 2068 N 183.284 -1.43765 0.645699 0
M  V30 2069 C 184.532 -2.01499 0.155731 0
M  V30 2070 C 184.853 -1.51151 -1.232 0
M  V30 2071 O 184.123 -0.721044 -1.82148 0
M  V30 2072 H 182.703 -0.745003 0.0545817 0
M  V30 2073 H 185.365 -1.76075 0.835677 0
M  V30 2074 H 184.461 -3.1181 0.134577 0
M  V30 2075 N 184.763 -0.387143 -1.52771 0
M  V30 2076 C 185.695 0.484089 -2.2403 0
M  V30 2077 C 186.708 1.02849 -1.26198 0
M  V30 2078 O 187.897 0.931186 -1.52286 0
M  V30 2079 C 184.997 1.68337 -2.94136 0
M  V30 2080 C 184.17 1.26672 -4.18656 0
M  V30 2081 C 183.229 2.33045 -4.7178 0
M  V30 2082 O 182.255 1.94541 -5.34923 0
M  V30 2083 N 183.457 3.64929 -4.5145 0
M  V30 2084 H 186.222 -0.126404 -2.99433 0
M  V30 2085 H 183.783 -0.213392 -1.60488 0
M  V30 2086 H 185.775 2.39019 -3.26577 0
M  V30 2087 H 184.345 2.20025 -2.22053 0
M  V30 2088 H 183.565 0.388878 -3.92277 0
M  V30 2089 H 184.853 0.964964 -4.99566 0
M  V30 2090 H 184.251 3.98974 -4.01044 0
M  V30 2091 H 182.808 4.31651 -4.88386 0
M  V30 2092 N 186.241 1.57166 -0.116904 0
M  V30 2093 C 187.489 1.94737 0.540533 0
M  V30 2094 C 187.81 1.00096 1.67349 0
M  V30 2095 O 187.08 0.0568854 1.95817 0
M  V30 2096 H 185.66 0.718981 0.202669 0
M  V30 2097 H 188.322 1.94017 -0.185353 0
M  V30 2098 H 187.418 2.97719 0.936483 0
M  V30 2099 N 187.719 -0.156864 1.56817 0
M  V30 2100 C 188.649 -1.19589 2.00551 0
M  V30 2101 C 189.63 -1.4536 0.883426 0
M  V30 2102 O 190.815 -1.56449 1.15054 0
M  V30 2103 C 187.945 -2.53143 2.37773 0
M  V30 2104 C 186.899 -2.41913 3.53075 0
M  V30 2105 C 186.225 -3.80088 3.76081 0
M  V30 2106 C 187.525 -1.91157 4.86062 0
M  V30 2107 H 189.219 -0.832293 2.87599 0
M  V30 2108 H 186.765 -0.398918 1.38364 0
M  V30 2109 H 188.718 -3.26047 2.66967 0
M  V30 2110 H 187.442 -2.91319 1.4765 0
M  V30 2111 H 186.101 -1.71462 3.24031 0
M  V30 2112 H 185.749 -4.15683 2.83225 0
M  V30 2113 H 185.449 -3.73439 4.53671 0
M  V30 2114 H 186.973 -4.54556 4.0769 0
M  V30 2115 H 188.387 -2.53846 5.14038 0
M  V30 2116 H 186.784 -1.95422 5.67389 0
M  V30 2117 H 187.854 -0.866673 4.77092 0
M  V30 2118 N 189.197 -1.51736 -0.425897 0
M  V30 2119 C 190.474 -1.55519 -1.1863 0
M  V30 2120 C 190.854 -0.326219 -2.08564 0
M  V30 2121 O 190.202 0.688012 -2.17896 0
M  V30 2122 C 190.412 -2.87521 -1.9782 0
M  V30 2123 C 191.76 -3.39899 -2.54468 0
M  V30 2124 O 192.784 -2.89148 -2.08019 0
M  V30 2125 O 191.643 -4.2848 -3.39215 0
M  V30 2126 H 188.737 -0.625739 -0.540721 0
M  V30 2127 H 191.283 -1.64055 -0.434038 0
M  V30 2128 H 190.055 -3.68422 -1.31836 0
M  V30 2129 H 189.678 -2.822 -2.80088 0
M  V30 2130 N 190.675 0.682077 -1.42076 0
M  V30 2131 C 191.924 1.43786 -1.41451 0
M  V30 2132 C 192.237 1.95574 -0.0317074 0
M  V30 2133 O 193.443 2.71326 0.0971462 0
M  V30 2134 C 191.899 2.60071 -2.48779 0
M  V30 2135 C 191.507 2.15013 -3.93031 0
M  V30 2136 C 193.251 3.37626 -2.57311 0
M  V30 2137 C 191.158 3.28336 -4.91883 0
M  V30 2138 H 190.088 0.540143 -0.526082 0
M  V30 2139 H 192.739 0.739157 -1.67955 0
M  V30 2140 H 191.121 3.32275 -2.15429 0
M  V30 2141 H 192.295 1.5001 -4.35699 0
M  V30 2142 H 190.61 1.50416 -3.88284 0
M  V30 2143 H 193.207 4.22012 -3.28345 0
M  V30 2144 H 193.55 3.83727 -1.61429 0
M  V30 2145 H 194.083 2.72488 -2.89819 0
M  V30 2146 H 190.822 2.87234 -5.89217 0
M  V30 2147 H 190.342 3.92145 -4.53853 0
M  V30 2148 H 192.021 3.93913 -5.13265 0
M  V30 2149 N 192.153 1.28127 0.917671 0
M  V30 2150 C 193.383 1.17722 1.6978 0
M  V30 2151 C 193.791 -0.267261 1.87303 0
M  V30 2152 O 193.134 -1.19286 1.39702 0
M  V30 2153 C 193.196 1.79958 3.11216 0
M  V30 2154 C 192.86 3.29187 3.16993 0
M  V30 2155 C 193.857 4.25679 2.98485 0
M  V30 2156 C 191.542 3.70075 3.39632 0
M  V30 2157 C 193.536 5.61035 3.02521 0
M  V30 2158 C 191.223 5.05557 3.433 0
M  V30 2159 C 192.221 6.00847 3.24764 0
M  V30 2160 O 191.909 7.33859 3.28187 0
M  V30 2161 H 191.641 0.409788 0.537634 0
M  V30 2162 H 194.195 1.69694 1.15728 0
M  V30 2163 H 192.425 1.22475 3.66793 0
M  V30 2164 H 194.114 1.64125 3.71238 0
M  V30 2165 H 194.88 3.95426 2.80826 0
M  V30 2166 H 190.759 2.96373 3.53106 0
M  V30 2167 H 194.303 6.35388 2.87971 0
M  V30 2168 H 190.2 5.35462 3.60486 0
M  V30 2169 H 190.968 7.42436 3.44575 0
M  V30 2170 N 193.631 -1.12557 1.10312 0
M  V30 2171 C 194.877 -1.84515 0.855901 0
M  V30 2172 C 195.232 -1.82409 -0.611936 0
M  V30 2173 O 194.525 -1.25778 -1.44535 0
M  V30 2174 C 194.719 -3.31462 1.33669 0
M  V30 2175 C 194.548 -3.47879 2.84974 0
M  V30 2176 C 193.318 -3.61589 3.52961 0
M  V30 2177 C 195.516 -3.43152 3.83081 0
M  V30 2178 N 193.498 -3.66359 4.926 0
M  V30 2179 C 194.869 -3.54401 5.08724 0
M  V30 2180 C 196.924 -3.2661 3.75807 0
M  V30 2181 C 195.627 -3.50815 6.2795 0
M  V30 2182 C 197.653 -3.24335 4.94531 0
M  V30 2183 C 197.015 -3.36144 6.19021 0
M  V30 2184 H 193.114 -0.690967 0.366182 0
M  V30 2185 H 195.698 -1.34763 1.40524 0
M  V30 2186 H 193.869 -3.7976 0.814686 0
M  V30 2187 H 195.601 -3.91272 1.03385 0
M  V30 2188 H 192.356 -3.63652 3.03404 0
M  V30 2189 H 192.78 -3.72411 5.65366 0
M  V30 2190 H 197.422 -3.16375 2.80476 0
M  V30 2191 H 195.14 -3.5982 7.23571 0
M  V30 2192 H 198.726 -3.12719 4.9061 0
M  V30 2193 H 197.606 -3.34357 7.09348 0
M  V30 2194 N 195.109 -0.891671 -1.2995 0
M  V30 2195 C 196.525 -0.58662 -1.48428 0
M  V30 2196 C 196.725 0.873951 -1.81561 0
M  V30 2197 O 195.781 1.65471 -1.90724 0
M  V30 2198 C 197.094 -1.50553 -2.60296 0
M  V30 2199 C 198.642 -1.50988 -2.74175 0
M  V30 2200 C 199.117 -2.41488 -3.89163 0
M  V30 2201 N 200.608 -2.39489 -3.96483 0
M  V30 2202 C 201.343 -3.06223 -4.84784 0
M  V30 2203 N 200.839 -3.82206 -5.77833 0
M  V30 2204 N 202.632 -2.95421 -4.78208 0
M  V30 2205 H 194.783 -1.83644 -1.06718 0
M  V30 2206 H 197.046 -0.786455 -0.529332 0
M  V30 2207 H 196.752 -2.54581 -2.42654 0
M  V30 2208 H 196.626 -1.22008 -3.56923 0
M  V30 2209 H 199.013 -0.47708 -2.91218 0
M  V30 2210 H 199.094 -1.83567 -1.78148 0
M  V30 2211 H 198.738 -3.44857 -3.72876 0
M  V30 2212 H 198.668 -2.06222 -4.84541 0
M  V30 2213 H 201.159 -1.84278 -3.29924 0
M  V30 2214 H 201.472 -4.302 -6.41988 0
M  V30 2215 H 199.817 -3.86313 -5.77743 0
M  V30 2216 H 203.008 -2.35581 -4.04499 0
M  V30 2217 H 203.181 -3.47704 -5.46814 0
M  V30 2218 N 196.587 1.43421 -0.653314 0
M  V30 2219 C 197.864 1.95361 -0.0966581 0
M  V30 2220 C 198.244 1.59461 1.38331 0
M  V30 2221 O 197.592 0.879777 2.10884 0
M  V30 2222 C 197.802 3.47311 -0.342988 0
M  V30 2223 C 199.15 4.23875 -0.24798 0
M  V30 2224 O 200.174 3.55133 -0.275553 0
M  V30 2225 O 199.033 5.4623 -0.171771 0
M  V30 2226 H 196.127 0.826945 0.00956291 0
M  V30 2227 H 198.673 1.5336 -0.726558 0
M  V30 2228 H 197.445 3.66569 -1.36906 0
M  V30 2229 H 197.068 3.9631 0.319975 0
M  V30 2230 N 198.065 0.39524 1.52563 0
M  V30 2231 C 199.013 -0.451859 2.28169 0
M  V30 2232 C 200.007 -1.05792 1.32304 0
M  V30 2233 O 201.213 -0.997718 1.49818 0
M  V30 2234 H 197.588 -0.164481 0.733792 0
M  V30 2235 H 199.559 0.207199 2.9768 0
M  V30 2236 C 198.308 -1.56385 3.10546 0
M  V30 2237 H 197.631 -1.10682 3.84174 0
M  V30 2238 H 199.071 -2.13067 3.66577 0
M  V30 2239 C 197.53 -2.52328 2.23231 0
M  V30 2240 O 198.06 -3.5588 1.86312 0
M  V30 2241 N 196.266 -2.22209 1.87274 0
M  V30 2242 H 195.813 -1.38033 2.17496 0
M  V30 2243 H 195.771 -2.86652 1.29143 0
M  V30 2244 N 199.544 -1.57102 0.125237 0
M  V30 2245 C 200.774 -1.99472 -0.538015 0
M  V30 2246 C 201.182 -1.00395 -1.60366 0
M  V30 2247 O 200.525 0.0103875 -1.83697 0
M  V30 2248 C 200.587 -3.38262 -1.21734 0
M  V30 2249 C 200.251 -4.56021 -0.298897 0
M  V30 2250 C 201.248 -5.17817 0.464943 0
M  V30 2251 C 198.933 -5.01869 -0.208149 0
M  V30 2252 C 200.927 -6.23852 1.3072 0
M  V30 2253 C 198.614 -6.07763 0.637736 0
M  V30 2254 C 199.612 -6.68622 1.39403 0
M  V30 2255 O 199.3 -7.7247 2.22586 0
M  V30 2256 H 199.032 -0.659934 -0.146501 0
M  V30 2257 H 201.586 -2.04321 0.210267 0
M  V30 2258 H 199.816 -3.30185 -2.01282 0
M  V30 2259 H 201.505 -3.6488 -1.77813 0
M  V30 2260 H 202.271 -4.83308 0.404741 0
M  V30 2261 H 198.15 -4.54241 -0.786522 0
M  V30 2262 H 201.694 -6.71284 1.898 0
M  V30 2263 H 197.591 -6.41701 0.699309 0
M  V30 2264 H 198.359 -7.89595 2.15596 0
M  V30 2265 N 201.022 0.148545 -1.56898 0
M  V30 2266 C 202.25 0.876389 -1.87422 0
M  V30 2267 C 202.665 1.74809 -0.713256 0
M  V30 2268 O 202.022 1.79725 0.317025 0
M  V30 2269 C 202.073 1.73438 -3.17178 0
M  V30 2270 O 201.794 0.897809 -4.28802 0
M  V30 2271 C 203.295 2.56993 -3.61205 0
M  V30 2272 H 200.515 0.253489 -0.621277 0
M  V30 2273 H 203.059 0.141798 -2.04008 0
M  V30 2274 H 201.214 2.42205 -3.0235 0
M  V30 2275 H 201.628 1.48672 -5.02988 0
M  V30 2276 H 203.102 3.12773 -4.54838 0
M  V30 2277 H 203.579 3.32958 -2.86419 0
M  V30 2278 H 204.185 1.9352 -3.78722 0
M  V30 2279 N 202.5 1.5196 0.417844 0
M  V30 2280 C 203.74 1.67262 1.17486 0
M  V30 2281 C 204.104 0.38983 1.88001 0
M  V30 2282 O 205.305 0.418845 2.65517 0
M  V30 2283 C 203.576 2.85526 2.14965 0
M  V30 2284 S 205.135 3.21263 2.98891 0
M  V30 2285 H 201.953 0.589077 0.398132 0
M  V30 2286 H 204.555 1.89927 0.463452 0
M  V30 2287 H 203.259 3.77145 1.61833 0
M  V30 2288 H 202.79 2.65107 2.90657 0
M  V30 2289 H 204.805 2.69208 4.16823 0
M  V30 2290 N 203.978 -0.674533 1.42435 0
M  V30 2291 C 205.389 -1.25514 1.38214 0
M  V30 2292 C 205.74 -1.96055 0.0755464 0
M  V30 2293 O 204.865 -2.00028 -0.8257 0
M  V30 2294 C 205.46 -2.28269 2.50357 0
M  V30 2295 C 204.019 -2.81856 2.49467 0
M  V30 2296 C 203.166 -1.56182 2.29134 0
M  V30 2297 H 206.117 -0.467902 1.51646 0
M  V30 2298 H 206.138 -3.10009 2.20624 0
M  V30 2299 H 205.65 -1.769 3.45439 0
M  V30 2300 H 203.751 -3.37346 1.58204 0
M  V30 2301 H 203.864 -3.30854 3.46515 0
M  V30 2302 H 202.228 -1.82761 1.774 0
M  V30 2303 H 203.011 -1.06778 3.26272 0
M  V30 2304 N 205.456 -1.28612 -0.910864 0
M  V30 2305 C 206.684 -1.18792 -1.69399 0
M  V30 2306 C 207.099 0.253039 -1.87097 0
M  V30 2307 O 206.456 1.17071 -1.40003 0
M  V30 2308 C 206.507 -1.88511 -3.08457 0
M  V30 2309 O 206.228 -3.26979 -2.91576 0
M  V30 2310 C 207.729 -1.85029 -4.02839 0
M  V30 2311 H 204.949 -0.412233 -0.529438 0
M  V30 2312 H 207.493 -1.69788 -1.13984 0
M  V30 2313 H 205.648 -1.41379 -3.60681 0
M  V30 2314 H 206.062 -3.61936 -3.79608 0
M  V30 2315 H 207.536 -2.38395 -4.97867 0
M  V30 2316 H 208.013 -0.823303 -4.31414 0
M  V30 2317 H 208.619 -2.31853 -3.56545 0
M  V30 2318 N 206.934 1.1197 -1.10907 0
M  V30 2319 C 207.844 2.21433 -0.774896 0
M  V30 2320 C 208.86 1.72478 0.229657 0
M  V30 2321 O 210.036 2.01288 0.0672008 0
M  V30 2322 C 207.101 3.4602 -0.216986 0
M  V30 2323 C 206.162 4.09791 -1.27944 0
M  V30 2324 C 205.395 5.28431 -0.748055 0
M  V30 2325 O 205.618 5.68823 0.423833 0
M  V30 2326 O 204.552 5.82644 -1.51027 0
M  V30 2327 H 208.378 2.5242 -1.68873 0
M  V30 2328 H 205.963 1.20399 -0.884555 0
M  V30 2329 H 207.845 4.21304 0.090059 0
M  V30 2330 H 206.52 3.16698 0.669633 0
M  V30 2331 H 205.427 3.36265 -1.63941 0
M  V30 2332 H 206.76 4.4328 -2.13925 0
M  V30 2333 N 208.412 0.89855 1.29475 0
M  V30 2334 C 209.322 0.379974 2.31502 0
M  V30 2335 C 210.338 -0.524695 1.659 0
M  V30 2336 O 211.514 -0.414551 1.97087 0
M  V30 2337 C 208.579 -0.385138 3.44554 0
M  V30 2338 C 207.64 0.550914 4.2575 0
M  V30 2339 C 206.873 -0.177778 5.33404 0
M  V30 2340 O 207.096 -1.40189 5.52904 0
M  V30 2341 O 206.03 0.479106 5.9999 0
M  V30 2342 H 209.856 1.22639 2.77837 0
M  V30 2343 H 207.441 0.662834 1.33891 0
M  V30 2344 H 209.323 -0.817841 4.13388 0
M  V30 2345 H 207.998 -1.20763 3.0033 0
M  V30 2346 H 206.905 1.03271 3.59564 0
M  V30 2347 H 208.238 1.33979 4.73614 0
M  V30 2348 N 209.89 -1.43072 0.660911 0
M  V30 2349 C 210.8 -2.34585 -0.0264163 0
M  V30 2350 C 211.816 -1.54316 -0.803898 0
M  V30 2351 O 212.992 -1.86939 -0.749391 0
M  V30 2352 C 210.057 -3.32689 -0.975639 0
M  V30 2353 C 209.118 -4.2886 -0.194236 0
M  V30 2354 C 208.351 -5.22278 -1.09825 0
M  V30 2355 O 208.574 -5.20299 -2.33763 0
M  V30 2356 O 207.508 -5.99228 -0.566513 0
M  V30 2357 H 211.334 -2.94869 0.727034 0
M  V30 2358 H 208.919 -1.43342 0.42111 0
M  V30 2359 H 210.801 -3.92995 -1.52094 0
M  V30 2360 H 209.476 -2.74898 -1.70918 0
M  V30 2361 H 208.383 -3.72011 0.394835 0
M  V30 2362 H 209.716 -4.89655 0.499899 0
M  V30 2363 N 211.368 -0.403325 -1.52352 0
M  V30 2364 C 212.598 0.17376 -2.05868 0
M  V30 2365 C 213.006 1.39898 -1.27378 0
M  V30 2366 O 212.349 1.80939 -0.31729 0
M  V30 2367 C 212.411 0.594756 -3.54546 0
M  V30 2368 C 212.075 -0.518926 -4.54044 0
M  V30 2369 C 213.072 -1.3807 -5.01231 0
M  V30 2370 C 210.757 -0.689961 -4.97539 0
M  V30 2371 C 212.751 -2.39852 -5.90551 0
M  V30 2372 C 210.438 -1.71109 -5.86656 0
M  V30 2373 C 211.436 -2.56378 -6.33056 0
M  V30 2374 O 211.124 -3.56743 -7.20409 0
M  V30 2375 H 210.856 0.0264951 -0.675481 0
M  V30 2376 H 213.41 -0.571179 -1.97299 0
M  V30 2377 H 211.64 1.39189 -3.60782 0
M  V30 2378 H 213.329 1.0991 -3.90736 0
M  V30 2379 H 214.095 -1.25994 -4.68349 0
M  V30 2380 H 209.974 -0.035939 -4.60986 0
M  V30 2381 H 213.518 -3.06441 -6.26689 0
M  V30 2382 H 209.415 -1.83218 -6.18952 0
M  V30 2383 H 210.183 -3.52918 -7.38506 0
M  V30 2384 N 212.846 1.57033 -0.133567 0
M  V30 2385 C 213.793 2.16074 0.811208 0
M  V30 2386 C 214.763 1.08979 1.2535 0
M  V30 2387 O 215.948 1.36958 1.32843 0
M  V30 2388 C 213.088 2.77595 2.05024 0
M  V30 2389 C 212.201 3.99042 1.65498 0
M  V30 2390 C 211.336 4.48603 2.84479 0
M  V30 2391 C 210.375 5.62547 2.41262 0
M  V30 2392 N 209.512 6.06787 3.53206 0
M  V30 2393 H 214.352 2.96477 0.300906 0
M  V30 2394 H 211.889 1.46462 0.136822 0
M  V30 2395 H 213.847 3.11402 2.77642 0
M  V30 2396 H 212.477 1.99859 2.53488 0
M  V30 2397 H 211.529 3.71302 0.826981 0
M  V30 2398 H 212.841 4.81629 1.29748 0
M  V30 2399 H 211.995 4.84395 3.65303 0
M  V30 2400 H 210.734 3.64995 3.23465 0
M  V30 2401 H 209.739 5.26345 1.58874 0
M  V30 2402 H 210.964 6.47931 2.03377 0
M  V30 2403 H 208.91 5.26117 3.91838 0
M  V30 2404 H 208.827 6.84266 3.21427 0
M  V30 2405 H 210.095 6.4722 4.34427 0
M  V30 2406 N 214.325 -0.140222 1.56975 0
M  V30 2407 C 215.288 -1.15689 1.97861 0
M  V30 2408 C 216.288 -1.3549 0.865974 0
M  V30 2409 O 217.478 -1.32367 1.13246 0
M  V30 2410 C 214.61 -2.51582 2.30042 0
M  V30 2411 H 215.803 -0.805971 2.88867 0
M  V30 2412 H 213.356 -0.383801 1.51515 0
M  V30 2413 H 214.091 -2.91632 1.41849 0
M  V30 2414 H 213.876 -2.38569 3.11171 0
M  V30 2415 H 215.366 -3.24792 2.62488 0
M  V30 2416 N 215.803 -1.52179 -0.40978 0
M  V30 2417 C 216.736 -1.70196 -1.52015 0
M  V30 2418 C 217.714 -0.549542 -1.53032 0
M  V30 2419 O 218.898 -0.776815 -1.71749 0
M  V30 2420 C 216.025 -1.74069 -2.90547 0
M  V30 2421 C 215.071 -2.95601 -3.07445 0
M  V30 2422 S 215.904 -4.55956 -2.80827 0
M  V30 2423 C 217.06 -4.62614 -4.21591 0
M  V30 2424 H 217.293 -2.64109 -1.36504 0
M  V30 2425 H 214.826 -1.4221 -0.601312 0
M  V30 2426 H 216.784 -1.76985 -3.70387 0
M  V30 2427 H 215.445 -0.812835 -3.034 0
M  V30 2428 H 214.638 -2.94791 -4.08796 0
M  V30 2429 H 214.24 -2.90569 -2.35469 0
M  V30 2430 H 216.532 -4.39951 -5.15218 0
M  V30 2431 H 217.475 -5.64548 -4.27424 0
M  V30 2432 H 217.883 -3.91654 -4.06531 0
M  V30 2433 N 217.281 0.66697 -1.42791 0
M  V30 2434 C 218.527 1.4291 -1.43891 0
M  V30 2435 C 218.86 1.94114 -0.0578972 0
M  V30 2436 O 218.135 1.71414 0.91911 0
M  V30 2437 C 218.418 2.62049 -2.46987 0
M  V30 2438 C 218.271 2.16426 -3.94309 0
M  V30 2439 C 219.59 3.64266 -2.46978 0
M  V30 2440 H 216.709 0.518306 -0.523954 0
M  V30 2441 H 219.351 0.757321 -1.74255 0
M  V30 2442 H 217.501 3.19361 -2.21225 0
M  V30 2443 H 219.173 1.64221 -4.31079 0
M  V30 2444 H 217.416 1.47925 -4.078 0
M  V30 2445 H 218.087 3.02038 -4.62036 0
M  V30 2446 H 220.563 3.16686 -2.69906 0
M  V30 2447 H 219.439 4.45196 -3.21079 0
M  V30 2448 H 219.7 4.15927 -1.49857 0
M  V30 2449 N 218.759 1.29093 0.90403 0
M  V30 2450 C 219.689 1.16401 2.02418 0
M  V30 2451 C 220.67 0.0593085 1.69997 0
M  V30 2452 O 221.855 0.238021 1.92736 0
M  V30 2453 C 218.985 0.835233 3.37107 0
M  V30 2454 C 217.939 1.89578 3.83724 0
M  V30 2455 C 217.265 1.42041 5.15489 0
M  V30 2456 C 218.565 3.30394 4.04521 0
M  V30 2457 H 220.259 2.10109 2.13295 0
M  V30 2458 H 217.805 1.01157 1.02486 0
M  V30 2459 H 219.758 0.733169 4.14973 0
M  V30 2460 H 218.482 -0.137543 3.2631 0
M  V30 2461 H 217.141 1.98715 3.08071 0
M  V30 2462 H 216.789 0.436426 5.01103 0
M  V30 2463 H 216.489 2.12964 5.4765 0
M  V30 2464 H 218.013 1.33176 5.959 0
M  V30 2465 H 219.427 3.24123 4.72882 0
M  V30 2466 H 217.824 3.99237 4.48029 0
M  V30 2467 H 218.894 3.73692 3.09002 0
M  V30 2468 N 220.237 -1.11381 1.11499 0
M  V30 2469 C 221.169 -2.17207 0.731704 0
M  V30 2470 C 222.182 -1.61066 -0.236957 0
M  V30 2471 O 223.371 -1.78489 -0.0197591 0
M  V30 2472 C 220.471 -3.38846 0.0607624 0
M  V30 2473 C 219.644 -4.24451 1.0564 0
M  V30 2474 C 218.703 -5.24562 0.4149 0
M  V30 2475 O 217.729 -5.59071 1.069 0
M  V30 2476 N 218.931 -5.74651 -0.821943 0
M  V30 2477 H 221.696 -2.50699 1.64225 0
M  V30 2478 H 219.257 -1.26908 1.00529 0
M  V30 2479 H 221.249 -4.02911 -0.380139 0
M  V30 2480 H 219.819 -3.03411 -0.752376 0
M  V30 2481 H 219.039 -3.56833 1.67524 0
M  V30 2482 H 220.327 -4.78486 1.72998 0
M  V30 2483 H 219.725 -5.48797 -1.37252 0
M  V30 2484 H 218.282 -6.40549 -1.20582 0
M  V30 2485 N 221.715 -0.905404 -1.28997 0
M  V30 2486 C 222.662 -0.385892 -2.27551 0
M  V30 2487 C 223.632 0.535113 -1.57244 0
M  V30 2488 O 224.817 0.459119 -1.85194 0
M  V30 2489 C 221.957 0.375461 -3.43051 0
M  V30 2490 C 221.07 -0.577092 -4.28128 0
M  V30 2491 C 220.205 0.201879 -5.30816 0
M  V30 2492 C 219.244 -0.744829 -6.07551 0
M  V30 2493 N 218.381 9.42587e-05 -7.021 0
M  V30 2494 H 223.221 -1.23139 -2.71368 0
M  V30 2495 H 220.758 -0.618542 -1.33463 0
M  V30 2496 H 222.716 0.832992 -4.088 0
M  V30 2497 H 221.346 1.18537 -3.00248 0
M  V30 2498 H 220.398 -1.15315 -3.62501 0
M  V30 2499 H 221.71 -1.30152 -4.8152 0
M  V30 2500 H 220.864 0.720351 -6.02408 0
M  V30 2501 H 219.603 0.959413 -4.7817 0
M  V30 2502 H 218.608 -1.27475 -5.34818 0
M  V30 2503 H 219.833 -1.50178 -6.62286 0
M  V30 2504 H 217.779 0.739791 -6.51815 0
M  V30 2505 H 217.696 -0.664321 -7.53076 0
M  V30 2506 H 218.964 0.498644 -7.77903 0
M  V30 2507 N 223.193 1.4272 -0.668489 0
M  V30 2508 C 224.421 2.05966 -0.196348 0
M  V30 2509 C 224.836 1.50191 1.14403 0
M  V30 2510 O 224.193 0.639208 1.7094 0
M  V30 2511 C 224.244 3.61314 -0.115815 0
M  V30 2512 O 223.965 4.1502 -1.40322 0
M  V30 2513 C 225.466 4.41663 0.380579 0
M  V30 2514 H 222.686 0.663954 -0.0969829 0
M  V30 2515 H 225.23 1.82966 -0.913446 0
M  V30 2516 H 223.385 3.83448 0.551931 0
M  V30 2517 H 223.799 5.08832 -1.27243 0
M  V30 2518 H 225.273 5.5065 0.385848 0
M  V30 2519 H 225.75 4.15792 1.41471 0
M  V30 2520 H 226.356 4.24534 -0.255209 0
M  V30 2521 N 224.671 0.411399 1.52136 0
M  V30 2522 C 225.919 -0.163322 2.01439 0
M  V30 2523 C 226.24 -1.45453 1.29879 0
M  V30 2524 O 225.51 -1.91225 0.4254 0
M  V30 2525 H 224.09 -0.0633447 0.744309 0
M  V30 2526 H 226.752 0.548161 1.87033 0
M  V30 2527 H 225.848 -0.357817 3.10042 0
M  V30 2528 N 226.149 -1.5696 0.141893 0
M  V30 2529 C 227.397 -1.95573 -0.509484 0
M  V30 2530 C 227.718 -1.02746 -1.65736 0
M  V30 2531 O 226.988 -0.0880311 -1.95702 0
M  V30 2532 H 225.568 -0.722115 -0.191205 0
M  V30 2533 H 228.23 -1.93697 0.216196 0
M  V30 2534 H 227.326 -2.99171 -0.889 0
M  V30 2535 N 227.627 0.131896 -1.57047 0
M  V30 2536 C 228.557 1.16384 -2.02428 0
M  V30 2537 C 229.538 1.43936 -0.90644 0
M  V30 2538 O 230.723 1.54599 -1.17528 0
M  V30 2539 C 227.853 2.49328 -2.4177 0
M  V30 2540 C 226.807 2.36266 -3.56879 0
M  V30 2541 C 226.133 3.74057 -3.8208 0
M  V30 2542 C 227.433 1.834 -4.89042 0
M  V30 2543 H 229.127 0.786433 -2.88887 0
M  V30 2544 H 226.673 0.376855 -1.38981 0
M  V30 2545 H 228.626 3.21759 -2.7212 0
M  V30 2546 H 227.35 2.88934 -1.52266 0
M  V30 2547 H 226.009 1.66286 -3.26718 0
M  V30 2548 H 225.657 4.11125 -2.89803 0
M  V30 2549 H 225.357 3.66174 -4.59554 0
M  V30 2550 H 226.881 4.48012 -4.1487 0
M  V30 2551 H 228.295 2.45636 -5.18011 0
M  V30 2552 H 226.692 1.8637 -5.70426 0
M  V30 2553 H 227.762 0.790662 -4.7841 0
M  V30 2554 N 229.106 1.52395 0.401703 0
M  V30 2555 C 230.353 1.66817 1.14796 0
M  V30 2556 C 230.681 0.401772 1.90305 0
M  V30 2557 O 229.936 -0.615487 1.85769 0
M  V30 2558 C 230.235 2.84578 2.16217 0
M  V30 2559 C 229.901 4.22513 1.5746 0
M  V30 2560 C 228.563 4.60029 1.41161 0
M  V30 2561 C 230.915 5.0844 1.14622 0
M  V30 2562 C 228.243 5.81144 0.80552 0
M  V30 2563 C 230.595 6.30167 0.55428 0
M  V30 2564 C 229.259 6.66426 0.378482 0
M  V30 2565 H 228.529 0.610428 0.420069 0
M  V30 2566 H 231.176 1.86512 0.434212 0
M  V30 2567 H 229.481 2.59248 2.93764 0
M  V30 2568 H 231.178 2.92933 2.73845 0
M  V30 2569 H 227.768 3.92953 1.71132 0
M  V30 2570 H 231.952 4.80034 1.26021 0
M  V30 2571 H 227.208 6.07855 0.657399 0
M  V30 2572 H 231.382 6.96071 0.213983 0
M  V30 2573 H 229.009 7.60143 -0.0932606 0
M  V30 2574 N 230.584 -0.659388 1.43143 0
M  V30 2575 C 231.832 -1.41654 1.44147 0
M  V30 2576 C 232.153 -1.94893 0.0645739 0
M  V30 2577 O 231.423 -1.74044 -0.899198 0
M  V30 2578 H 230.003 -0.525708 0.530697 0
M  V30 2579 H 232.665 -0.778097 1.78694 0
M  V30 2580 H 231.761 -2.26195 2.1504 0
M  V30 2581 N 232.062 -1.29571 -0.897171 0
M  V30 2582 C 232.992 -1.17473 -2.01798 0
M  V30 2583 C 233.973 -0.068323 -1.69963 0
M  V30 2584 O 235.158 -0.248239 -1.92607 0
M  V30 2585 C 232.288 -0.853099 -3.36659 0
M  V30 2586 C 231.242 -1.9161 -3.82713 0
M  V30 2587 C 230.568 -1.44773 -5.14728 0
M  V30 2588 C 231.868 -3.32535 -4.02763 0
M  V30 2589 H 233.562 -2.11237 -2.12177 0
M  V30 2590 H 231.108 -1.01699 -1.01948 0
M  V30 2591 H 233.061 -0.755165 -4.14578 0
M  V30 2592 H 231.785 0.120236 -3.26379 0
M  V30 2593 H 230.444 -2.00346 -3.07013 0
M  V30 2594 H 230.092 -0.462995 -5.00865 0
M  V30 2595 H 229.792 -2.15865 -5.46513 0
M  V30 2596 H 231.316 -1.36334 -5.95185 0
M  V30 2597 H 232.73 -3.26626 -4.71156 0
M  V30 2598 H 231.127 -4.01607 -4.45905 0
M  V30 2599 H 232.197 -3.75326 -3.07016 0
M  V30 2600 N 233.54 1.10788 -1.12088 0
M  V30 2601 C 234.503 2.15207 -0.788577 0
M  V30 2602 C 235.503 1.59609 0.195317 0
M  V30 2603 O 236.693 1.74174 -0.0300193 0
M  V30 2604 C 233.825 3.4047 -0.171174 0
M  V30 2605 H 235.018 2.46116 -1.71368 0
M  V30 2606 H 232.571 1.26089 -0.923652 0
M  V30 2607 H 233.306 3.15176 0.763832 0
M  V30 2608 H 233.091 3.82109 -0.879514 0
M  V30 2609 H 234.581 4.17576 0.04496 0
M  V30 2610 N 235.018 0.912232 1.28515 0
M  V30 2611 C 236.264 0.545405 1.95328 0
M  V30 2612 C 236.597 -0.908313 1.71649 0
M  V30 2613 O 235.872 -1.64575 1.03659 0
M  V30 2614 C 236.155 0.853483 3.4984 0
M  V30 2615 C 236.008 2.35982 3.82926 0
M  V30 2616 C 237.327 0.348589 4.38717 0
M  V30 2617 H 234.446 0.199626 0.709449 0
M  V30 2618 H 237.088 1.1412 1.5191 0
M  V30 2619 H 235.238 0.34643 3.86952 0
M  V30 2620 H 236.91 2.93738 3.55691 0
M  V30 2621 H 235.153 2.81543 3.30024 0
M  V30 2622 H 235.824 2.52593 4.90816 0
M  V30 2623 H 238.3 0.78294 4.08668 0
M  V30 2624 H 237.176 0.593242 5.45685 0
M  V30 2625 H 237.437 -0.751049 4.35674 0
M  V30 2626 N 236.496 -1.42363 0.676048 0
M  V30 2627 C 237.744 -2.01123 0.198437 0
M  V30 2628 C 238.065 -1.53731 -1.19966 0
M  V30 2629 O 237.335 -0.759518 -1.80577 0
M  V30 2630 H 235.915 -0.743678 0.0703721 0
M  V30 2631 H 238.577 -1.74263 0.872837 0
M  V30 2632 H 237.673 -3.11454 0.200686 0
M  V30 2633 N 237.974 -0.419461 -1.51915 0
M  V30 2634 C 238.904 0.391813 -2.30189 0
M  V30 2635 C 239.885 1.03699 -1.34836 0
M  V30 2636 O 241.07 1.04403 -1.63748 0
M  V30 2637 C 238.2 1.50312 -3.13087 0
M  V30 2638 C 237.154 0.9824 -4.16573 0
M  V30 2639 C 236.48 2.18809 -4.8788 0
M  V30 2640 C 237.78 0.0292356 -5.22292 0
M  V30 2641 H 239.474 -0.26135 -2.98257 0
M  V30 2642 H 237.02 -0.127134 -1.43438 0
M  V30 2643 H 238.973 2.07773 -3.66617 0
M  V30 2644 H 237.697 2.18431 -2.42807 0
M  V30 2645 H 236.356 0.430119 -3.64068 0
M  V30 2646 H 236.004 2.85507 -4.14119 0
M  V30 2647 H 235.704 1.84615 -5.57845 0
M  V30 2648 H 237.228 2.76858 -5.44226 0
M  V30 2649 H 238.642 0.512976 -5.71 0
M  V30 2650 H 237.039 -0.2244 -5.9968 0
M  V30 2651 H 238.109 -0.912931 -4.76228 0
M  V30 2652 N 239.452 1.56882 -0.150215 0
M  V30 2653 C 240.385 2.12712 0.826358 0
M  V30 2654 C 241.363 1.05154 1.24022 0
M  V30 2655 O 242.547 1.33004 1.33575 0
M  V30 2656 C 239.674 2.64945 2.11002 0
M  V30 2657 C 238.72 3.8468 1.84183 0
M  V30 2658 S 239.553 5.25502 1.02995 0
M  V30 2659 C 240.709 5.81125 2.32474 0
M  V30 2660 H 240.942 2.95214 0.351598 0
M  V30 2661 H 238.475 1.54267 0.0641211 0
M  V30 2662 H 240.433 2.95689 2.84742 0
M  V30 2663 H 239.094 1.82568 2.55593 0
M  V30 2664 H 238.287 4.19482 2.79375 0
M  V30 2665 H 237.889 3.54714 1.1855 0
M  V30 2666 H 240.181 5.92753 3.281 0
M  V30 2667 H 241.124 6.78625 2.02171 0
M  V30 2668 H 241.532 5.09392 2.43269 0
M  V30 2669 N 240.93 -0.123565 1.57115 0
M  V30 2670 C 241.862 -1.17739 1.96648 0
M  V30 2671 C 242.875 -1.37906 0.865201 0
M  V30 2672 O 244.064 -1.37062 1.14351 0
M  V30 2673 C 241.164 -2.53821 2.24562 0
M  V30 2674 C 240.337 -2.54317 3.55867 0
M  V30 2675 C 239.396 -3.72112 3.72047 0
M  V30 2676 O 238.422 -3.55907 4.44206 0
M  V30 2677 N 239.624 -4.90498 3.10471 0
M  V30 2678 H 242.389 -0.841147 2.87654 0
M  V30 2679 H 239.95 -0.31289 1.58848 0
M  V30 2680 H 241.942 -3.31175 2.32606 0
M  V30 2681 H 240.512 -2.79645 1.39705 0
M  V30 2682 H 239.732 -1.62711 3.59053 0
M  V30 2683 H 241.02 -2.51701 4.42181 0
M  V30 2684 H 240.418 -5.06567 2.51806 0
M  V30 2685 H 238.975 -5.65544 3.24043 0
M  V30 2686 N 242.408 -1.52605 -0.393616 0
M  V30 2687 C 243.338 -1.80022 -1.48709 0
M  V30 2688 C 244.319 -0.651995 -1.57108 0
M  V30 2689 O 245.504 -0.89913 -1.72132 0
M  V30 2690 C 242.634 -1.96492 -2.86371 0
M  V30 2691 C 241.588 -3.12161 -2.92813 0
M  V30 2692 C 240.914 -3.13877 -4.3288 0
M  V30 2693 C 242.214 -4.51322 -2.6288 0
M  V30 2694 H 243.908 -2.71589 -1.26015 0
M  V30 2695 H 241.454 -1.30684 -0.604778 0
M  V30 2696 H 243.407 -2.14255 -3.62867 0
M  V30 2697 H 242.131 -1.01611 -3.10391 0
M  V30 2698 H 240.79 -2.94173 -2.18764 0
M  V30 2699 H 240.438 -2.16687 -4.53933 0
M  V30 2700 H 240.138 -3.91576 -4.38112 0
M  V30 2701 H 241.662 -3.33789 -5.1129 0
M  V30 2702 H 243.076 -4.69435 -3.29096 0
M  V30 2703 H 241.473 -5.31053 -2.79468 0
M  V30 2704 H 242.543 -4.58353 -1.58242 0
M  V30 2705 N 243.887 0.651787 -1.4349 0
M  V30 2706 C 245.134 1.41167 -1.45183 0
M  V30 2707 C 245.462 1.94349 -0.0766601 0
M  V30 2708 O 244.717 1.72804 0.918555 0
M  V30 2709 C 245.016 2.60914 -2.44251 0
M  V30 2710 C 244.682 2.26142 -3.9009 0
M  V30 2711 C 243.344 2.16371 -4.2981 0
M  V30 2712 C 245.696 1.98334 -4.81989 0
M  V30 2713 C 243.024 1.7695 -5.5938 0
M  V30 2714 C 245.376 1.6041 -6.11924 0
M  V30 2715 C 244.04 1.49166 -6.5062 0
M  V30 2716 H 243.31 0.516566 -0.531263 0
M  V30 2717 H 245.957 0.741099 -1.76579 0
M  V30 2718 H 244.262 3.3311 -2.06265 0
M  V30 2719 H 245.959 3.19127 -2.42815 0
M  V30 2720 H 242.549 2.34658 -3.58655 0
M  V30 2721 H 246.733 2.04803 -4.52072 0
M  V30 2722 H 241.989 1.66831 -5.88198 0
M  V30 2723 H 246.163 1.37925 -6.82605 0
M  V30 2724 H 243.79 1.1839 -7.50925 0
M  V30 2725 N 245.365 1.30045 0.890287 0
M  V30 2726 C 246.59 1.21598 1.68014 0
M  V30 2727 C 247.015 -0.218678 1.86825 0
M  V30 2728 O 246.373 -1.15756 1.39536 0
M  V30 2729 C 246.421 1.94434 3.03691 0
M  V30 2730 O 245.525 1.2678 3.92429 0
M  V30 2731 H 244.866 0.420856 0.513592 0
M  V30 2732 H 247.396 1.71775 1.11151 0
M  V30 2733 H 247.406 2.03251 3.5377 0
M  V30 2734 H 246.081 2.98777 2.89318 0
M  V30 2735 H 244.658 1.26282 3.50866 0
M  V30 2736 N 246.843 -1.10192 1.12674 0
M  V30 2737 C 248.12 -1.78717 0.794965 0
M  V30 2738 C 248.5 -1.98628 -0.714853 0
M  V30 2739 O 247.848 -1.58135 -1.64941 0
M  V30 2740 C 248.058 -3.11546 1.5729 0
M  V30 2741 C 249.406 -3.86382 1.76052 0
M  V30 2742 O 250.43 -3.21274 1.53823 0
M  V30 2743 O 249.289 -5.03246 2.13087 0
M  V30 2744 H 246.383 -0.774702 0.289423 0
M  V30 2745 H 248.929 -1.16819 1.23091 0
M  V30 2746 H 247.701 -2.92489 2.59935 0
M  V30 2747 H 247.324 -3.81164 1.13137 0
M  V30 2748 N 248.321 -0.919034 -1.28029 0
M  V30 2749 C 249.551 -0.570143 -1.98577 0
M  V30 2750 C 249.959 0.854172 -1.68821 0
M  V30 2751 O 249.302 1.57807 -0.940351 0
M  V30 2752 C 249.364 -0.705734 -3.52505 0
M  V30 2753 C 249.028 -2.10057 -4.05863 0
M  V30 2754 C 250.025 -3.07385 -4.19298 0
M  V30 2755 C 247.71 -2.41517 -4.40426 0
M  V30 2756 C 249.704 -4.34287 -4.66555 0
M  V30 2757 C 247.391 -3.68657 -4.87376 0
M  V30 2758 C 248.389 -4.64856 -5.00398 0
M  V30 2759 O 248.077 -5.89735 -5.46322 0
M  V30 2760 H 247.809 -0.215592 -0.6407 0
M  V30 2761 H 250.363 -1.23583 -1.64062 0
M  V30 2762 H 248.593 0.0170414 -3.86696 0
M  V30 2763 H 250.282 -0.363172 -4.04272 0
M  V30 2764 H 251.048 -2.84398 -3.92865 0
M  V30 2765 H 246.927 -1.67389 -4.29537 0
M  V30 2766 H 250.471 -5.09377 -4.76635 0
M  V30 2767 H 246.368 -3.91466 -5.13249 0
M  V30 2768 H 247.136 -5.92599 -5.64596 0
M  V30 2769 N 249.799 1.42003 -0.683588 0
M  V30 2770 C 250.746 2.30798 -0.0107309 0
M  V30 2771 C 251.716 1.4645 0.783688 0
M  V30 2772 O 252.901 1.75263 0.754156 0
M  V30 2773 C 250.041 3.3238 0.928306 0
M  V30 2774 C 249.154 4.31814 0.126776 0
M  V30 2775 C 248.289 5.20468 1.06236 0
M  V30 2776 C 247.328 6.11577 0.253035 0
M  V30 2777 N 246.465 6.92754 1.14179 0
M  V30 2778 H 251.305 2.8778 -0.773727 0
M  V30 2779 H 248.842 1.41745 -0.393283 0
M  V30 2780 H 250.8 3.89813 1.48666 0
M  V30 2781 H 249.43 2.76976 1.65783 0
M  V30 2782 H 248.482 3.76427 -0.54833 0
M  V30 2783 H 249.794 4.96276 -0.501192 0
M  V30 2784 H 248.948 5.82677 1.69035 0
M  V30 2785 H 247.687 4.56204 1.7242 0
M  V30 2786 H 246.692 5.48428 -0.388108 0
M  V30 2787 H 247.917 6.77892 -0.404839 0
M  V30 2788 H 245.863 6.3111 1.78987 0
M  V30 2789 H 245.78 7.53855 0.569111 0
M  V30 2790 H 247.048 7.59441 1.75697 0
M  V30 2791 N 251.277 0.427512 1.51691 0
M  V30 2792 C 252.187 -0.39527 2.31246 0
M  V30 2793 C 253.203 -1.03674 1.39742 0
M  V30 2794 O 254.379 -1.03425 1.72816 0
M  V30 2795 C 251.444 -1.48706 3.13189 0
M  V30 2796 C 250.505 -0.866743 4.20459 0
M  V30 2797 C 249.738 -1.90651 4.98486 0
M  V30 2798 O 249.961 -3.12733 4.77026 0
M  V30 2799 O 248.895 -1.5025 5.82845 0
M  V30 2800 H 252.721 0.253918 3.02637 0
M  V30 2801 H 250.306 0.190274 1.48183 0
M  V30 2802 H 252.188 -2.12047 3.64162 0
M  V30 2803 H 250.863 -2.12051 2.44573 0
M  V30 2804 H 249.77 -0.195544 3.73589 0
M  V30 2805 H 251.103 -0.276934 4.9142 0
M  V30 2806 N 252.755 -1.56801 0.158532 0
M  V30 2807 C 254.032 -1.88131 -0.535357 0
M  V30 2808 C 254.412 -1.06638 -1.82186 0
M  V30 2809 O 253.76 -0.156533 -2.27963 0
M  V30 2810 C 253.97 -3.39949 -0.789653 0
M  V30 2811 C 255.318 -4.09416 -1.12533 0
M  V30 2812 O 256.342 -3.45194 -0.878622 0
M  V30 2813 O 255.201 -5.22855 -1.59014 0
M  V30 2814 H 252.295 -0.780143 -0.27442 0
M  V30 2815 H 254.841 -1.68564 0.19601 0
M  V30 2816 H 253.613 -3.91115 0.120353 0
M  V30 2817 H 253.236 -3.65084 -1.57479 0
M  V30 2818 N 254.233 0.115231 -1.57178 0
M  V30 2819 C 255.163 1.1423 -2.03651 0
M  V30 2820 C 256.144 1.42967 -0.921655 0
M  V30 2821 O 257.329 1.53343 -1.19162 0
M  V30 2822 C 254.459 2.4675 -2.44401 0
M  V30 2823 C 253.413 2.32467 -3.59365 0
M  V30 2824 C 252.739 3.69984 -3.86026 0
M  V30 2825 C 254.039 1.78203 -4.90959 0
M  V30 2826 H 255.733 0.755749 -2.89705 0
M  V30 2827 H 253.279 0.362093 -1.39373 0
M  V30 2828 H 255.232 3.18854 -2.75517 0
M  V30 2829 H 253.956 2.87302 -1.55322 0
M  V30 2830 H 252.615 1.62811 -3.28463 0
M  V30 2831 H 252.263 4.08028 -2.94147 0
M  V30 2832 H 251.963 3.61279 -4.63412 0
M  V30 2833 H 253.487 4.43587 -4.19599 0
M  V30 2834 H 254.901 2.40128 -5.20587 0
M  V30 2835 H 253.298 1.8031 -5.72371 0
M  V30 2836 H 254.368 0.739876 -4.79222 0
M  V30 2837 N 255.711 1.52812 0.385517 0
M  V30 2838 C 256.658 1.77838 1.47113 0
M  V30 2839 C 257.628 0.621757 1.54024 0
M  V30 2840 O 258.813 0.861846 1.70226 0
M  V30 2841 C 255.953 1.95618 2.84302 0
M  V30 2842 C 255.066 3.23316 2.86515 0
M  V30 2843 C 254.201 3.31394 4.15152 0
M  V30 2844 C 253.24 4.53201 4.1143 0
M  V30 2845 N 252.377 4.58542 5.3168 0
M  V30 2846 H 257.217 2.70482 1.25073 0
M  V30 2847 H 254.754 1.34006 0.606692 0
M  V30 2848 H 256.712 2.03912 3.63972 0
M  V30 2849 H 255.342 1.06331 3.04784 0
M  V30 2850 H 254.394 3.24076 1.99195 0
M  V30 2851 H 255.706 4.13045 2.79634 0
M  V30 2852 H 254.86 3.3889 5.03228 0
M  V30 2853 H 253.599 2.39645 4.24761 0
M  V30 2854 H 252.604 4.45827 3.21742 0
M  V30 2855 H 253.829 5.46271 4.03442 0
M  V30 2856 H 251.775 3.69686 5.41912 0
M  V30 2857 H 251.692 5.42148 5.26889 0
M  V30 2858 H 252.96 4.70296 6.21644 0
M  V30 2859 N 257.189 -0.644168 1.43834 0
M  V30 2860 C 258.6 -1.22554 1.40845 0
M  V30 2861 C 258.951 -1.9585 0.117115 0
M  V30 2862 O 258.076 -2.01734 -0.783086 0
M  V30 2863 C 258.671 -2.22907 2.55143 0
M  V30 2864 C 257.23 -2.76501 2.5539 0
M  V30 2865 C 256.377 -1.51287 2.32396 0
M  V30 2866 H 259.328 -0.43563 1.52604 0
M  V30 2867 H 259.349 -3.05259 2.2715 0
M  V30 2868 H 258.861 -1.69533 3.49114 0
M  V30 2869 H 256.962 -3.33914 1.65324 0
M  V30 2870 H 257.075 -3.23429 3.53455 0
M  V30 2871 H 255.439 -1.78957 1.81236 0
M  V30 2872 H 256.222 -0.998336 3.28463 0
M  V30 2873 N 258.668 -1.30515 -0.883378 0
M  V30 2874 C 259.598 -1.19607 -2.00541 0
M  V30 2875 C 260.579 -0.086346 -1.69881 0
M  V30 2876 O 261.764 -0.268654 -1.92333 0
M  V30 2877 C 258.894 -0.888758 -3.35736 0
M  V30 2878 C 257.848 -1.95659 -3.8066 0
M  V30 2879 C 257.174 -1.50224 -5.13164 0
M  V30 2880 C 258.474 -3.36788 -3.99213 0
M  V30 2881 H 260.168 -2.13476 -2.09925 0
M  V30 2882 H 257.714 -1.02775 -1.00863 0
M  V30 2883 H 259.667 -0.799094 -4.13754 0
M  V30 2884 H 258.391 0.0856125 -3.26488 0
M  V30 2885 H 257.05 -2.03591 -3.04871 0
M  V30 2886 H 256.698 -0.516092 -5.00345 0
M  V30 2887 H 256.398 -2.2165 -5.44192 0
M  V30 2888 H 257.922 -1.42639 -5.93706 0
M  V30 2889 H 259.336 -3.31605 -4.67665 0
M  V30 2890 H 257.733 -4.06314 -4.41621 0
M  V30 2891 H 258.803 -3.78561 -3.03017 0
M  V30 2892 N 260.146 1.09593 -1.13257 0
M  V30 2893 C 261.076 2.18214 -0.830946 0
M  V30 2894 C 262.057 1.68812 0.208966 0
M  V30 2895 O 263.242 1.9408 0.0682666 0
M  V30 2896 C 260.372 3.46051 -0.294296 0
M  V30 2897 C 259.326 4.08778 -1.26826 0
M  V30 2898 C 258.652 5.31419 -0.591449 0
M  V30 2899 C 259.952 4.51476 -2.62615 0
M  V30 2900 H 261.646 2.43703 -1.73923 0
M  V30 2901 H 259.192 1.17128 -0.837675 0
M  V30 2902 H 261.145 4.2134 -0.0709606 0
M  V30 2903 H 259.869 3.20079 0.649366 0
M  V30 2904 H 258.528 3.35505 -1.47756 0
M  V30 2905 H 258.176 5.01727 0.357633 0
M  V30 2906 H 257.876 5.74341 -1.24123 0
M  V30 2907 H 259.4 6.09433 -0.377355 0
M  V30 2908 H 260.814 5.17999 -2.45663 0
M  V30 2909 H 259.211 5.05277 -3.23752 0
M  V30 2910 H 260.281 3.63962 -3.20406 0
M  V30 2911 N 261.624 0.925811 1.2754 0
M  V30 2912 C 262.572 0.413897 2.28888 0
M  V30 2913 C 263.566 -0.500779 1.61829 0
M  V30 2914 O 264.772 -0.38069 1.75928 0
M  V30 2915 H 261.147 0.115274 0.743112 0
M  V30 2916 H 263.118 1.28151 2.69481 0
M  V30 2917 C 261.867 -0.319792 3.46226 0
M  V30 2918 H 261.19 0.374846 3.98039 0
M  V30 2919 H 262.63 -0.642435 4.19105 0
M  V30 2920 C 261.089 -1.53209 3.00048 0
M  V30 2921 O 261.619 -2.6309 3.03557 0
M  V30 2922 N 259.825 -1.38326 2.55566 0
M  V30 2923 H 259.372 -0.489292 2.5291 0
M  V30 2924 H 259.33 -2.19564 2.25031 0
M  V30 2925 N 263.102 -1.41638 0.69111 0
M  V30 2926 C 264.33 -2.05628 0.22909 0
M  V30 2927 C 264.745 -1.51992 -1.11999 0
M  V30 2928 O 264.102 -0.666322 -1.69901 0
M  V30 2929 C 264.153 -3.61084 0.173283 0
M  V30 2930 O 263.874 -4.12735 1.46907 0
M  V30 2931 C 265.375 -4.42213 -0.310266 0
M  V30 2932 H 262.595 -0.662327 0.107534 0
M  V30 2933 H 265.139 -1.81489 0.942438 0
M  V30 2934 H 263.294 -3.84278 -0.490858 0
M  V30 2935 H 263.708 -5.06743 1.35322 0
M  V30 2936 H 265.182 -5.51194 -0.298196 0
M  V30 2937 H 265.659 -4.1799 -1.34838 0
M  V30 2938 H 266.265 -4.24074 0.322716 0
M  V30 2939 N 264.58 -0.43555 -1.51462 0
M  V30 2940 C 265.51 0.367376 -2.30592 0
M  V30 2941 C 266.491 1.02263 -1.35928 0
M  V30 2942 O 267.676 1.02661 -1.64847 0
M  V30 2943 C 264.806 1.46983 -3.14664 0
M  V30 2944 C 263.76 0.938161 -4.17591 0
M  V30 2945 C 263.086 2.13622 -4.90173 0
M  V30 2946 C 264.386 -0.0261621 -5.22293 0
M  V30 2947 H 266.08 -0.292969 -2.97963 0
M  V30 2948 H 263.626 -0.14234 -1.43295 0
M  V30 2949 H 265.579 2.03873 -3.688 0
M  V30 2950 H 264.303 2.15843 -2.4511 0
M  V30 2951 H 262.962 0.391481 -3.64504 0
M  V30 2952 H 262.61 2.81098 -4.17124 0
M  V30 2953 H 262.31 1.78688 -5.59772 0
M  V30 2954 H 263.834 2.7107 -5.47132 0
M  V30 2955 H 265.248 0.452384 -5.71512 0
M  V30 2956 H 263.645 -0.287992 -5.99409 0
M  V30 2957 H 264.715 -0.963391 -4.75233 0
M  V30 2958 N 266.058 1.56714 -0.166846 0
M  V30 2959 C 267.306 1.96358 0.478305 0
M  V30 2960 C 267.627 1.0537 1.6408 0
M  V30 2961 O 266.897 0.119154 1.95537 0
M  V30 2962 H 265.477 0.725065 0.179692 0
M  V30 2963 H 268.139 1.93329 -0.246985 0
M  V30 2964 H 267.235 3.00547 0.841292 0
M  V30 2965 N 267.536 -0.106894 1.57237 0
M  V30 2966 C 268.466 -1.13148 2.04254 0
M  V30 2967 C 269.447 -1.42476 0.929224 0
M  V30 2968 O 270.632 -1.52709 1.19973 0
M  V30 2969 C 267.762 -2.4545 2.45706 0
M  V30 2970 C 266.716 -2.30558 3.60592 0
M  V30 2971 C 266.042 -3.67931 3.87983 0
M  V30 2972 C 267.342 -1.75597 4.91897 0
M  V30 2973 H 269.036 -0.740374 2.90101 0
M  V30 2974 H 266.582 -0.354696 1.39563 0
M  V30 2975 H 268.535 -3.17389 2.77205 0
M  V30 2976 H 267.259 -2.86475 1.56843 0
M  V30 2977 H 265.918 -1.61067 3.29322 0
M  V30 2978 H 265.566 -4.06462 2.96306 0
M  V30 2979 H 265.266 -3.58817 4.65322 0
M  V30 2980 H 266.79 -4.41356 4.21945 0
M  V30 2981 H 268.204 -2.37364 5.21854 0
M  V30 2982 H 266.601 -1.77272 5.73319 0
M  V30 2983 H 267.671 -0.714451 4.79608 0
M  V30 2984 N 269.014 -1.53014 -0.377408 0
M  V30 2985 C 270.261 -1.68623 -1.12128 0
M  V30 2986 C 270.589 -0.431997 -1.89642 0
M  V30 2987 O 269.844 0.585855 -1.86725 0
M  V30 2988 C 270.143 -2.87982 -2.11663 0
M  V30 2989 C 269.809 -4.24964 -1.50719 0
M  V30 2990 C 268.471 -4.62217 -1.33825 0
M  V30 2991 C 270.823 -5.10199 -1.06519 0
M  V30 2992 C 268.151 -5.82352 -0.712963 0
M  V30 2993 C 270.503 -6.30969 -0.453955 0
M  V30 2994 C 269.167 -6.66944 -0.272411 0
M  V30 2995 H 268.437 -0.617034 -0.410305 0
M  V30 2996 H 271.084 -1.8718 -0.404484 0
M  V30 2997 H 269.389 -2.63889 -2.89603 0
M  V30 2998 H 271.086 -2.97253 -2.6915 0
M  V30 2999 H 267.676 -3.95626 -1.64858 0
M  V30 3000 H 271.86 -4.81978 -1.18368 0
M  V30 3001 H 267.116 -6.08824 -0.560611 0
M  V30 3002 H 271.29 -6.96324 -0.103217 0
M  V30 3003 H 268.917 -7.59898 0.214181 0
M  V30 3004 N 270.492 0.636531 -1.44174 0
M  V30 3005 C 271.739 1.39619 -1.46672 0
M  V30 3006 C 272.067 1.94257 -0.0972691 0
M  V30 3007 O 271.322 1.73768 0.900175 0
M  V30 3008 C 271.621 2.58309 -2.47005 0
M  V30 3009 C 271.287 2.21992 -3.92467 0
M  V30 3010 C 269.949 2.118 -4.32081 0
M  V30 3011 C 272.301 1.9321 -4.84065 0
M  V30 3012 C 269.629 1.71007 -5.61225 0
M  V30 3013 C 271.981 1.53911 -6.13591 0
M  V30 3014 C 270.645 1.42257 -6.52165 0
M  V30 3015 H 269.915 0.510902 -0.536712 0
M  V30 3016 H 272.562 0.722328 -1.77355 0
M  V30 3017 H 270.867 3.30903 -2.09786 0
M  V30 3018 H 272.564 3.16533 -2.46186 0
M  V30 3019 H 269.154 2.30841 -3.61124 0
M  V30 3020 H 273.338 1.99997 -4.54219 0
M  V30 3021 H 268.594 1.60583 -5.89935 0
M  V30 3022 H 272.768 1.30677 -6.8403 0
M  V30 3023 H 270.395 1.10419 -7.52138 0
M  V30 3024 N 271.97 1.30982 0.876444 0
M  V30 3025 C 272.902 1.13902 1.98894 0
M  V30 3026 C 273.915 0.0798815 1.62604 0
M  V30 3027 O 275.104 0.326743 1.75484 0
M  V30 3028 C 272.204 0.716699 3.31235 0
M  V30 3029 C 271.377 1.85945 3.95908 0
M  V30 3030 C 270.436 1.42426 5.06558 0
M  V30 3031 O 269.462 2.13287 5.27729 0
M  V30 3032 N 270.664 0.308025 5.79682 0
M  V30 3033 H 273.429 2.09724 2.14094 0
M  V30 3034 H 270.99 1.2323 1.05004 0
M  V30 3035 H 272.982 0.408403 4.02634 0
M  V30 3036 H 271.552 -0.149719 3.12241 0
M  V30 3037 H 270.772 2.33541 3.17573 0
M  V30 3038 H 272.06 2.62503 4.35855 0
M  V30 3039 H 271.458 -0.282241 5.64995 0
M  V30 3040 H 270.015 0.0592282 6.51773 0
M  V30 3041 N 273.449 -1.08991 1.13837 0
M  V30 3042 C 274.698 -1.80631 0.897509 0
M  V30 3043 C 275.011 -1.86872 -0.57777 0
M  V30 3044 O 276.217 -2.54866 -0.935701 0
M  V30 3045 C 274.673 -3.24517 1.55618 0
M  V30 3046 C 274.281 -3.26529 3.0673 0
M  V30 3047 C 276.025 -4.00882 1.3962 0
M  V30 3048 C 273.932 -4.64965 3.65461 0
M  V30 3049 H 272.862 -0.67691 0.332129 0
M  V30 3050 H 275.513 -1.2246 1.3666 0
M  V30 3051 H 273.895 -3.82778 1.01476 0
M  V30 3052 H 275.069 -2.78008 3.67489 0
M  V30 3053 H 273.384 -2.63656 3.22296 0
M  V30 3054 H 275.981 -5.03167 1.80906 0
M  V30 3055 H 276.324 -4.14896 0.341578 0
M  V30 3056 H 276.857 -3.49075 1.90766 0
M  V30 3057 H 273.596 -4.56153 4.70749 0
M  V30 3058 H 273.116 -5.13792 3.09481 0
M  V30 3059 H 274.795 -5.3394 3.654 0
M  V30 3060 N 274.927 -0.932562 -1.27047 0
M  V30 3061 C 276.343 -0.633544 -1.46487 0
M  V30 3062 C 276.543 0.815746 -1.84249 0
M  V30 3063 O 275.599 1.59319 -1.95892 0
M  V30 3064 C 276.912 -1.58758 -2.55375 0
M  V30 3065 C 278.46 -1.59634 -2.69232 0
M  V30 3066 C 278.935 -2.53747 -3.81283 0
M  V30 3067 N 280.426 -2.51982 -3.88664 0
M  V30 3068 C 281.161 -3.21491 -4.74796 0
M  V30 3069 N 280.657 -4.00395 -5.65381 0
M  V30 3070 N 282.45 -3.10485 -4.68568 0
M  V30 3071 H 274.601 -1.86946 -1.00821 0
M  V30 3072 H 276.864 -0.802897 -0.504044 0
M  V30 3073 H 276.57 -2.62172 -2.34432 0
M  V30 3074 H 276.444 -1.33301 -3.52861 0
M  V30 3075 H 278.831 -0.569488 -2.89553 0
M  V30 3076 H 278.912 -1.89142 -1.72218 0
M  V30 3077 H 278.556 -3.56545 -3.61715 0
M  V30 3078 H 278.486 -2.21532 -4.77735 0
M  V30 3079 H 280.977 -1.94681 -3.23895 0
M  V30 3080 H 281.29 -4.50406 -6.27976 0
M  V30 3081 H 279.635 -4.04498 -5.65161 0
M  V30 3082 H 282.826 -2.48331 -3.96799 0
M  V30 3083 H 282.999 -3.64925 -5.35475 0
M  V30 3084 N 276.405 1.4127 -0.698611 0
M  V30 3085 C 277.682 1.94955 -0.158762 0
M  V30 3086 C 278.062 1.63781 1.33188 0
M  V30 3087 O 277.41 0.946423 2.07979 0
M  V30 3088 C 277.62 3.46044 -0.453309 0
M  V30 3089 C 278.968 4.22872 -0.382707 0
M  V30 3090 O 279.992 3.54076 -0.388396 0
M  V30 3091 O 278.851 5.45407 -0.345463 0
M  V30 3092 H 275.945 0.82683 -0.0167505 0
M  V30 3093 H 278.491 1.50971 -0.77498 0
M  V30 3094 H 277.263 3.62028 -1.48498 0
M  V30 3095 H 276.886 3.97128 0.19373 0
M  V30 3096 N 277.883 0.443576 1.51229 0
M  V30 3097 C 279.16 -0.181038 1.9476 0
M  V30 3098 C 279.54 -1.59523 1.38259 0
M  V30 3099 O 278.888 -2.2122 0.572198 0
M  V30 3100 C 279.098 -0.152422 3.48667 0
M  V30 3101 C 280.446 -0.354923 4.23114 0
M  V30 3102 O 281.47 -0.230257 3.55455 0
M  V30 3103 O 280.329 -0.603674 5.43156 0
M  V30 3104 H 277.423 -0.1266 0.817252 0
M  V30 3105 H 279.969 0.502004 1.62105 0
M  V30 3106 H 278.741 0.836022 3.82265 0
M  V30 3107 H 278.364 -0.878107 3.87782 0
M  V30 3108 N 279.361 -1.56624 0.175154 0
M  V30 3109 C 280.591 -2.01082 -0.474283 0
M  V30 3110 C 280.999 -1.05447 -1.57091 0
M  V30 3111 O 280.342 -0.0480595 -1.83637 0
M  V30 3112 C 280.404 -3.41963 -1.10911 0
M  V30 3113 C 280.068 -4.56742 -0.153666 0
M  V30 3114 C 281.065 -5.16076 0.629448 0
M  V30 3115 C 278.75 -5.02277 -0.0483776 0
M  V30 3116 C 280.744 -6.19377 1.50501 0
M  V30 3117 C 278.431 -6.05427 0.830768 0
M  V30 3118 C 279.429 -6.63849 1.60605 0
M  V30 3119 O 279.117 -7.64998 2.47049 0
M  V30 3120 H 278.849 -0.664261 -0.125432 0
M  V30 3121 H 281.403 -2.03549 0.275163 0
M  V30 3122 H 279.633 -3.36422 -1.90676 0
M  V30 3123 H 281.322 -3.70352 -1.66114 0
M  V30 3124 H 282.088 -4.81776 0.558297 0
M  V30 3125 H 277.967 -4.56513 -0.641611 0
M  V30 3126 H 281.511 -6.64906 2.1106 0
M  V30 3127 H 277.408 -6.39151 0.903107 0
M  V30 3128 H 278.176 -7.82336 2.40607 0
M  V30 3129 N 280.839 0.0985539 -1.57292 0
M  V30 3130 C 281.802 1.10402 -2.00858 0
M  V30 3131 C 282.802 1.33146 -0.901593 0
M  V30 3132 O 283.992 1.29318 -1.16716 0
M  V30 3133 C 281.124 2.45394 -2.36632 0
M  V30 3134 H 282.317 0.729099 -2.90902 0
M  V30 3135 H 279.87 0.343495 -1.52479 0
M  V30 3136 H 280.605 2.87769 -1.49531 0
M  V30 3137 H 280.39 2.30235 -3.17387 0
M  V30 3138 H 281.88 3.17718 -2.71007 0
M  V30 3139 N 282.317 1.53212 0.369288 0
M  V30 3140 C 283.265 1.80054 1.47253 0
M  V30 3141 C 284.259 0.669456 1.55611 0
M  V30 3142 O 285.465 0.852328 1.58541 0
M  V30 3143 H 281.84 0.570034 0.490475 0
M  V30 3144 H 283.811 2.72403 1.21817 0
M  V30 3145 C 282.56 2.00403 2.84137 0
M  V30 3146 H 281.883 2.86876 2.78464 0
M  V30 3147 H 283.323 2.23164 3.60519 0
M  V30 3148 C 281.782 0.782081 3.27697 0
M  V30 3149 O 282.312 -0.0310205 4.01688 0
M  V30 3150 N 280.518 0.606573 2.84199 0
M  V30 3151 H 280.065 1.26939 2.24152 0
M  V30 3152 H 280.023 -0.20962 3.137 0
M  V30 3153 N 283.795 -0.628877 1.44509 0
M  V30 3154 C 284.725 -1.75187 1.54376 0
M  V30 3155 C 285.706 -1.65411 0.396618 0
M  V30 3156 O 286.891 -1.84137 0.617031 0
M  V30 3157 C 284.021 -3.13725 1.48976 0
M  V30 3158 C 282.975 -3.38291 2.62189 0
M  V30 3159 C 282.301 -4.76883 2.41841 0
M  V30 3160 C 283.601 -3.30632 4.04326 0
M  V30 3161 H 285.295 -1.67187 2.48373 0
M  V30 3162 H 282.841 -0.802909 1.19538 0
M  V30 3163 H 284.794 -3.92064 1.54478 0
M  V30 3164 H 283.518 -3.22515 0.514961 0
M  V30 3165 H 282.177 -2.62334 2.56079 0
M  V30 3166 H 281.825 -4.82378 1.42548 0
M  V30 3167 H 281.525 -4.94278 3.17747 0
M  V30 3168 H 283.049 -5.57449 2.49165 0
M  V30 3169 H 284.463 -3.98873 4.11793 0
M  V30 3170 H 282.86 -3.59561 4.80454 0
M  V30 3171 H 283.93 -2.28404 4.27738 0
M  V30 3172 N 285.273 -1.31445 -0.869486 0
M  V30 3173 C 286.223 -1.15731 -1.96444 0
M  V30 3174 C 287.207 -0.0681855 -1.60755 0
M  V30 3175 O 288.399 -0.293154 -1.74555 0
M  V30 3176 C 285.528 -0.867255 -3.32165 0
M  V30 3177 C 284.614 -1.99738 -3.74119 0
M  V30 3178 N 285.005 -3.24447 -3.88031 0
M  V30 3179 C 283.303 -1.89723 -4.03635 0
M  V30 3180 C 284.004 -3.98374 -4.23879 0
M  V30 3181 N 282.98 -3.26547 -4.3459 0
M  V30 3182 H 286.782 -2.10296 -2.05312 0
M  V30 3183 H 284.296 -1.23009 -1.06031 0
M  V30 3184 H 286.293 -0.735668 -4.10358 0
M  V30 3185 H 284.953 0.0701614 -3.24624 0
M  V30 3186 H 285.964 -3.59557 -3.72746 0
M  V30 3187 H 282.641 -1.03449 -4.04481 0
M  V30 3188 H 284.031 -5.05844 -4.42235 0
M  V30 3189 N 286.751 1.08385 -1.14413 0
M  V30 3190 C 287.976 1.85057 -0.936413 0
M  V30 3191 C 288.401 1.81055 0.509971 0
M  V30 3192 O 287.759 1.1958 1.36273 0
M  V30 3193 C 287.807 3.30505 -1.44217 0
M  V30 3194 O 286.911 4.07491 -0.634409 0
M  V30 3195 H 286.252 0.573425 -0.334784 0
M  V30 3196 H 288.782 1.36799 -1.52142 0
M  V30 3197 H 288.792 3.81348 -1.45043 0
M  V30 3198 H 287.467 3.32734 -2.49522 0
M  V30 3199 H 286.044 3.66368 -0.694902 0
M  V30 3200 N 288.23 0.939286 1.26551 0
M  V30 3201 C 289.177 0.446088 2.26448 0
M  V30 3202 C 290.147 -0.493234 1.58608 0
M  V30 3203 O 291.332 -0.409857 1.86346 0
M  V30 3204 C 288.472 -0.284375 3.43926 0
M  V30 3205 C 287.585 0.690399 4.26448 0
M  V30 3206 C 286.72 -0.0610712 5.31165 0
M  V30 3207 C 285.759 0.905649 6.05363 0
M  V30 3208 N 284.896 0.186055 7.01853 0
M  V30 3209 H 289.736 1.30291 2.68008 0
M  V30 3210 H 287.273 0.65371 1.31776 0
M  V30 3211 H 289.231 -0.724313 4.10864 0
M  V30 3212 H 287.861 -1.10535 3.03285 0
M  V30 3213 H 286.913 1.24885 3.59316 0
M  V30 3214 H 288.225 1.42873 4.779 0
M  V30 3215 H 287.379 -0.56038 6.04106 0
M  V30 3216 H 286.118 -0.832297 4.80546 0
M  V30 3217 H 285.123 1.4161 5.3125 0
M  V30 3218 H 286.348 1.67685 6.58072 0
M  V30 3219 H 284.294 -0.566714 6.53548 0
M  V30 3220 H 284.211 0.863752 7.51049 0
M  V30 3221 H 285.479 -0.292221 7.78952 0
M  V30 3222 N 289.708 -1.40897 0.706093 0
M  V30 3223 C 290.618 -2.3455 0.0482286 0
M  V30 3224 C 291.634 -1.56796 -0.754396 0
M  V30 3225 O 292.81 -1.89228 -0.689538 0
M  V30 3226 C 289.875 -3.35625 -0.869303 0
M  V30 3227 C 288.936 -4.29261 -0.0576994 0
M  V30 3228 C 288.169 -5.25508 -0.931531 0
M  V30 3229 O 288.392 -5.27472 -2.17092 0
M  V30 3230 O 287.326 -6.00727 -0.375587 0
M  V30 3231 H 291.152 -2.92407 0.820476 0
M  V30 3232 H 288.737 -1.4193 0.4665 0
M  V30 3233 H 290.619 -3.97635 -1.39514 0
M  V30 3234 H 289.294 -2.80196 -1.62086 0
M  V30 3235 H 288.201 -3.70566 0.512988 0
M  V30 3236 H 289.534 -4.87817 0.655426 0
M  V30 3237 N 291.186 -0.45159 -1.50991 0
M  V30 3238 C 292.416 0.108177 -2.06317 0
M  V30 3239 C 292.824 1.35774 -1.31765 0
M  V30 3240 O 292.167 1.79838 -0.374694 0
M  V30 3241 C 292.229 0.481659 -3.56259 0
M  V30 3242 C 291.893 -0.663114 -4.52163 0
M  V30 3243 C 292.89 -1.53947 -4.96585 0
M  V30 3244 C 290.575 -0.8479 -4.95092 0
M  V30 3245 C 292.569 -2.58518 -5.82621 0
M  V30 3246 C 290.256 -1.89686 -5.80915 0
M  V30 3247 C 291.254 -2.76388 -6.24579 0
M  V30 3248 O 290.942 -3.79482 -7.08695 0
M  V30 3249 H 290.674 0.00499183 -0.675982 0
M  V30 3250 H 293.228 -0.633659 -1.95381 0
M  V30 3251 H 291.458 1.27641 -3.65027 0
M  V30 3252 H 293.147 0.974233 -3.94035 0
M  V30 3253 H 293.913 -1.4083 -4.64103 0
M  V30 3254 H 289.792 -0.18258 -4.60638 0
M  V30 3255 H 293.336 -3.26224 -6.16623 0
M  V30 3256 H 289.233 -2.02817 -6.12809 0
M  V30 3257 H 290.001 -3.76234 -7.26905 0
M  V30 3258 N 292.664 1.56529 -0.183458 0
M  V30 3259 C 293.889 2.02064 0.467428 0
M  V30 3260 C 294.314 1.06282 1.55196 0
M  V30 3261 O 293.672 0.0443565 1.81246 0
M  V30 3262 C 293.72 3.46122 1.01153 0
M  V30 3263 O 292.824 3.53437 2.12499 0
M  V30 3264 H 292.165 0.654726 0.110588 0
M  V30 3265 H 294.695 2.02521 -0.290917 0
M  V30 3266 H 294.705 3.85676 1.33108 0
M  V30 3267 H 293.38 4.15331 0.217533 0
M  V30 3268 H 291.957 3.2575 1.81497 0
M  V30 3269 N 294.142 -0.090211 1.57342 0
M  V30 3270 C 295.052 -1.12735 2.05738 0
M  V30 3271 C 296.068 -1.43557 0.983231 0
M  V30 3272 O 297.244 -1.54101 1.29672 0
M  V30 3273 C 294.309 -2.42659 2.47624 0
M  V30 3274 C 293.37 -2.18975 3.69254 0
M  V30 3275 C 292.603 -3.42704 4.09133 0
M  V30 3276 O 292.826 -4.51127 3.49057 0
M  V30 3277 O 291.76 -3.32003 5.02053 0
M  V30 3278 H 295.586 -0.746279 2.94388 0
M  V30 3279 H 293.171 -0.303064 1.46294 0
M  V30 3280 H 295.053 -3.19155 2.7517 0
M  V30 3281 H 293.728 -2.80182 1.62109 0
M  V30 3282 H 292.635 -1.40244 3.46818 0
M  V30 3283 H 293.968 -1.86342 4.55563 0
M  V30 3284 N 295.62 -1.53406 -0.361157 0
M  V30 3285 C 296.568 -1.80832 -1.46296 0
M  V30 3286 C 297.562 -0.677699 -1.55253 0
M  V30 3287 O 298.768 -0.860723 -1.58087 0
M  V30 3288 H 295.143 -0.572627 -0.487445 0
M  V30 3289 H 297.114 -2.73045 -1.20371 0
M  V30 3290 C 295.863 -2.01907 -2.8307 0
M  V30 3291 H 295.186 -2.88349 -2.76938 0
M  V30 3292 H 296.626 -2.25072 -3.59331 0
M  V30 3293 C 295.085 -0.799449 -3.27277 0
M  V30 3294 O 295.615 0.00971761 -4.01699 0
M  V30 3295 N 293.821 -0.621637 -2.83873 0
M  V30 3296 H 293.368 -1.28126 -2.23476 0
M  V30 3297 H 293.326 0.19298 -3.13807 0
M  V30 3298 N 297.098 0.621204 -1.44841 0
M  V30 3299 C 298.045 1.73267 -1.5247 0
M  V30 3300 C 299.015 1.6189 -0.371611 0
M  V30 3301 O 300.2 1.81668 -0.58321 0
M  V30 3302 C 297.34 3.11545 -1.48438 0
M  V30 3303 C 296.453 3.33827 -2.74196 0
M  V30 3304 C 295.588 4.62133 -2.61929 0
M  V30 3305 C 294.627 4.77627 -3.82804 0
M  V30 3306 N 293.764 5.97219 -3.69153 0
M  V30 3307 H 298.604 1.66082 -2.47428 0
M  V30 3308 H 296.141 0.810026 -1.22788 0
M  V30 3309 H 298.099 3.91528 -1.4409 0
M  V30 3310 H 296.729 3.1772 -0.570402 0
M  V30 3311 H 295.781 2.47715 -2.88689 0
M  V30 3312 H 297.093 3.41153 -3.6389 0
M  V30 3313 H 296.247 5.50291 -2.5547 0
M  V30 3314 H 294.986 4.57182 -1.69811 0
M  V30 3315 H 293.991 3.87896 -3.89637 0
M  V30 3316 H 295.216 4.84385 -4.75971 0
M  V30 3317 H 293.162 5.93339 -2.79794 0
M  V30 3318 H 293.079 6.05644 -4.52472 0
M  V30 3319 H 294.347 6.87912 -3.66603 0
M  V30 3320 N 298.576 1.31904 0.862503 0
M  V30 3321 C 299.801 1.25135 1.65397 0
M  V30 3322 C 300.226 -0.179 1.87246 0
M  V30 3323 O 299.584 -1.1277 1.4196 0
M  V30 3324 C 299.632 2.00832 2.99498 0
M  V30 3325 O 298.736 1.35075 3.89652 0
M  V30 3326 H 298.077 0.431655 0.504549 0
M  V30 3327 H 300.607 1.74094 1.07483 0
M  V30 3328 H 300.617 2.10709 3.49379 0
M  V30 3329 H 299.292 3.04847 2.82916 0
M  V30 3330 H 297.869 1.33696 3.48109 0
M  V30 3331 N 300.054 -1.07777 1.14986 0
M  V30 3332 C 301.301 -1.8029 0.922056 0
M  V30 3333 C 301.629 -1.86531 -0.55105 0
M  V30 3334 O 300.884 -1.34189 -1.42449 0
M  V30 3335 C 301.183 -3.25495 1.47608 0
M  V30 3336 C 300.849 -3.39361 2.96893 0
M  V30 3337 C 299.511 -3.42852 3.37647 0
M  V30 3338 C 301.863 -3.42512 3.92854 0
M  V30 3339 C 299.191 -3.47094 4.73015 0
M  V30 3340 C 301.543 -3.4829 5.28088 0
M  V30 3341 C 300.207 -3.50058 5.68345 0
M  V30 3342 H 299.477 -0.659727 0.337404 0
M  V30 3343 H 302.124 -1.26854 1.43459 0
M  V30 3344 H 300.429 -3.81683 0.88463 0
M  V30 3345 H 302.126 -3.80168 1.27568 0
M  V30 3346 H 298.716 -3.37339 2.64387 0
M  V30 3347 H 302.9 -3.3904 3.62444 0
M  V30 3348 H 298.156 -3.46758 5.03556 0
M  V30 3349 H 302.33 -3.49675 6.02246 0
M  V30 3350 H 299.957 -3.53097 6.73221 0
M  V30 3351 N 301.532 -0.945985 -1.26051 0
M  V30 3352 C 302.772 -0.603665 -1.95282 0
M  V30 3353 C 303.136 0.842377 -1.72534 0
M  V30 3354 O 304.337 1.29387 -2.35611 0
M  V30 3355 C 302.608 -0.942292 -3.44754 0
M  V30 3356 S 304.167 -0.711242 -4.32997 0
M  V30 3357 H 300.985 -0.222176 -0.675395 0
M  V30 3358 H 303.587 -1.21832 -1.52896 0
M  V30 3359 H 302.291 -1.99203 -3.58812 0
M  V30 3360 H 301.822 -0.317546 -3.92116 0
M  V30 3361 H 303.837 0.422221 -4.944 0
M  V30 3362 N 303.011 1.40521 -0.713556 0
M  V30 3363 C 303.921 2.34522 -0.0606667 0
M  V30 3364 C 304.937 1.57193 0.74607 0
M  V30 3365 O 306.113 1.89591 0.679493 0
M  V30 3366 C 303.178 3.36081 0.851491 0
M  V30 3367 C 302.239 4.29286 0.0349339 0
M  V30 3368 C 301.472 5.25994 0.903649 0
M  V30 3369 O 301.695 5.28616 2.14292 0
M  V30 3370 O 300.629 6.00918 0.343723 0
M  V30 3371 H 304.455 2.91968 -0.835972 0
M  V30 3372 H 302.04 1.41681 -0.47402 0
M  V30 3373 H 303.922 3.98369 1.37404 0
M  V30 3374 H 302.597 2.81052 1.60598 0
M  V30 3375 H 301.504 3.70289 -0.532633 0
M  V30 3376 H 302.837 4.87462 -0.681287 0
M  V30 3377 N 304.489 0.459591 1.5075 0
M  V30 3378 C 305.766 -0.160371 1.94941 0
M  V30 3379 C 306.146 -1.58048 1.39943 0
M  V30 3380 O 305.494 -2.206 0.595629 0
M  V30 3381 C 305.704 -0.115432 3.48809 0
M  V30 3382 C 307.052 -0.310026 4.23467 0
M  V30 3383 O 308.076 -0.192543 3.55679 0
M  V30 3384 O 306.935 -0.546031 5.43765 0
M  V30 3385 H 304.029 -0.117925 0.818549 0
M  V30 3386 H 306.575 0.519169 1.61563 0
M  V30 3387 H 305.347 0.87652 3.81357 0
M  V30 3388 H 304.97 -0.836928 3.88692 0
M  V30 3389 N 305.967 -1.56429 0.191757 0
M  V30 3390 C 306.897 -2.21937 -0.725696 0
M  V30 3391 C 307.878 -1.1814 -1.2238 0
M  V30 3392 O 309.063 -1.46636 -1.27325 0
M  V30 3393 C 306.193 -2.87611 -1.94672 0
M  V30 3394 C 305.147 -3.97623 -1.58366 0
M  V30 3395 C 304.473 -4.50446 -2.88102 0
M  V30 3396 C 305.773 -5.16197 -0.796133 0
M  V30 3397 H 307.467 -2.98861 -0.179606 0
M  V30 3398 H 305.013 -1.43749 -0.0849464 0
M  V30 3399 H 306.966 -3.3212 -2.59373 0
M  V30 3400 H 305.69 -2.08087 -2.51728 0
M  V30 3401 H 304.349 -3.53801 -0.960247 0
M  V30 3402 H 303.997 -3.67688 -3.43241 0
M  V30 3403 H 303.697 -5.24675 -2.64556 0
M  V30 3404 H 305.221 -4.97654 -3.53798 0
M  V30 3405 H 306.635 -5.57271 -1.34618 0
M  V30 3406 H 305.032 -5.96471 -0.658928 0
M  V30 3407 H 306.102 -4.84473 0.203478 0
M  V30 3408 N 307.445 0.0818655 -1.57387 0
M  V30 3409 C 308.673 0.796108 -1.9097 0
M  V30 3410 C 309.088 1.71626 -0.786757 0
M  V30 3411 O 308.445 1.80908 0.240513 0
M  V30 3412 C 308.496 1.59829 -3.24248 0
M  V30 3413 O 308.217 0.715131 -4.32224 0
M  V30 3414 C 309.718 2.41442 -3.7178 0
M  V30 3415 H 306.938 0.22691 -0.631469 0
M  V30 3416 H 309.482 0.0551439 -2.04426 0
M  V30 3417 H 307.637 2.29163 -3.12351 0
M  V30 3418 H 308.051 1.27205 -5.08841 0
M  V30 3419 H 309.525 2.932 -4.67694 0
M  V30 3420 H 310.002 3.2051 -3.00283 0
M  V30 3421 H 310.608 1.77283 -3.86589 0
M  V30 3422 N 308.923 1.53595 0.353017 0
M  V30 3423 C 309.833 1.83897 1.45667 0
M  V30 3424 C 310.849 0.728334 1.58023 0
M  V30 3425 O 312.025 1.01968 1.73679 0
M  V30 3426 C 309.09 2.03383 2.80778 0
M  V30 3427 C 308.151 3.27262 2.77845 0
M  V30 3428 C 307.384 3.45809 4.06512 0
M  V30 3429 O 307.607 2.68387 5.03314 0
M  V30 3430 O 306.541 4.39207 4.11559 0
M  V30 3431 H 310.367 2.77686 1.2298 0
M  V30 3432 H 307.952 1.39132 0.544308 0
M  V30 3433 H 309.834 2.17698 3.60812 0
M  V30 3434 H 308.509 1.12783 3.03417 0
M  V30 3435 H 307.416 3.18359 1.96465 0
M  V30 3436 H 308.749 4.17824 2.60161 0
M  V30 3437 N 310.401 -0.613514 1.45168 0
M  V30 3438 C 311.649 -1.36997 1.48581 0
M  V30 3439 C 311.97 -1.94589 0.126545 0
M  V30 3440 O 311.24 -1.76816 -0.843372 0
M  V30 3441 H 309.82 -0.508558 0.547154 0
M  V30 3442 H 312.482 -0.720853 1.81079 0
M  V30 3443 H 311.578 -2.1924 2.22127 0
M  V30 3444 N 311.879 -1.3236 -0.855495 0
M  V30 3445 C 312.826 -1.21225 -1.964 0
M  V30 3446 C 313.796 -0.0946204 -1.6583 0
M  V30 3447 O 314.981 -0.27002 -1.8888 0
M  V30 3448 C 312.121 -0.940419 -3.32039 0
M  V30 3449 C 311.234 -2.14276 -3.75113 0
M  V30 3450 C 310.369 -1.80648 -4.9954 0
M  V30 3451 C 309.408 -2.97208 -5.35102 0
M  V30 3452 N 308.545 -2.63678 -6.50706 0
M  V30 3453 H 313.385 -2.16042 -2.05255 0
M  V30 3454 H 310.922 -1.07451 -1.00463 0
M  V30 3455 H 312.88 -0.763311 -4.10158 0
M  V30 3456 H 311.51 -0.0290413 -3.22787 0
M  V30 3457 H 310.562 -2.43017 -2.92655 0
M  V30 3458 H 311.874 -3.01468 -3.97389 0
M  V30 3459 H 311.028 -1.59484 -5.85363 0
M  V30 3460 H 309.767 -0.906678 -4.79198 0
M  V30 3461 H 308.772 -3.19004 -4.47791 0
M  V30 3462 H 309.997 -3.87918 -5.57401 0
M  V30 3463 H 307.943 -1.76238 -6.31883 0
M  V30 3464 H 307.86 -3.444 -6.72997 0
M  V30 3465 H 309.128 -2.45942 -7.39684 0
M  V30 3466 N 313.357 1.07166 -1.15556 0
M  V30 3467 C 314.604 1.79798 -0.931604 0
M  V30 3468 C 314.932 1.8682 0.54115 0
M  V30 3469 O 314.187 1.34942 1.41736 0
M  V30 3470 C 314.486 3.24707 -1.49332 0
M  V30 3471 C 314.152 3.37781 -2.98688 0
M  V30 3472 C 312.814 3.41057 -3.39461 0
M  V30 3473 C 315.166 3.40424 -3.94665 0
M  V30 3474 C 312.494 3.4458 -4.74849 0
M  V30 3475 C 314.846 3.45485 -5.29927 0
M  V30 3476 C 313.51 3.47039 -5.70193 0
M  V30 3477 H 312.78 0.657928 -0.340898 0
M  V30 3478 H 315.427 1.26091 -1.44129 0
M  V30 3479 H 313.732 3.81208 -0.904859 0
M  V30 3480 H 315.429 3.79486 -1.29582 0
M  V30 3481 H 312.019 3.35932 -2.66172 0
M  V30 3482 H 316.203 3.37113 -3.64237 0
M  V30 3483 H 311.459 3.44083 -5.05388 0
M  V30 3484 H 315.633 3.46476 -6.04092 0
M  V30 3485 H 313.26 3.49522 -6.75084 0
M  V30 3486 N 314.835 0.952656 1.25548 0
M  V30 3487 C 316.06 0.623025 1.97821 0
M  V30 3488 C 316.485 -0.7976 1.70352 0
M  V30 3489 O 315.843 -1.53905 0.958283 0
M  V30 3490 C 315.891 0.885532 3.49558 0
M  V30 3491 O 314.995 -0.0366641 4.12384 0
M  V30 3492 H 314.336 0.237082 0.620232 0
M  V30 3493 H 316.866 1.27871 1.59719 0
M  V30 3494 H 316.876 0.811009 3.99858 0
M  V30 3495 H 315.551 1.92094 3.6888 0
M  V30 3496 H 314.128 0.0898954 3.72792 0
M  V30 3497 N 316.313 -1.40141 0.720998 0
M  V30 3498 C 317.56 -2.00787 0.262842 0
M  V30 3499 C 317.888 -1.5718 -1.14563 0
M  V30 3500 O 317.143 -0.785391 -1.79249 0
M  V30 3501 C 317.442 -3.56165 0.296892 0
M  V30 3502 C 317.108 -4.19373 1.65641 0
M  V30 3503 C 315.77 -4.36352 2.02855 0
M  V30 3504 C 318.122 -4.54578 2.54968 0
M  V30 3505 C 315.45 -4.8582 3.28931 0
M  V30 3506 C 317.802 -5.05447 3.80402 0
M  V30 3507 C 316.466 -5.20635 4.17726 0
M  V30 3508 H 315.736 -0.734731 0.0961807 0
M  V30 3509 H 318.383 -1.67673 0.925093 0
M  V30 3510 H 316.688 -3.8922 -0.448932 0
M  V30 3511 H 318.385 -4.00929 -0.0755208 0
M  V30 3512 H 314.975 -4.06549 1.35704 0
M  V30 3513 H 319.159 -4.41091 2.27491 0
M  V30 3514 H 314.415 -4.95764 3.57811 0
M  V30 3515 H 318.589 -5.31663 4.49786 0
M  V30 3516 H 316.216 -5.58728 5.15487 0
M  V30 3517 N 317.792 -0.46758 -1.50504 0
M  V30 3518 C 319.203 -0.0116166 -1.86696 0
M  V30 3519 C 319.554 1.39202 -1.38265 0
M  V30 3520 O 318.679 2.0313 -0.746132 0
M  V30 3521 C 319.274 -0.0143044 -3.38797 0
M  V30 3522 C 317.833 0.386175 -3.74414 0
M  V30 3523 C 316.98 -0.401287 -2.74381 0
M  V30 3524 H 319.931 -0.682022 -1.43297 0
M  V30 3525 H 319.952 0.788641 -3.72237 0
M  V30 3526 H 319.464 -1.03602 -3.74016 0
M  V30 3527 H 317.565 1.41237 -3.44794 0
M  V30 3528 H 317.678 0.0899596 -4.79016 0
M  V30 3529 H 316.042 0.144536 -2.5429 0
M  V30 3530 H 316.825 -1.42244 -3.12444 0
M  V30 3531 N 319.27 1.56325 -0.20005 0
M  V30 3532 C 320.498 2.02105 0.442874 0
M  V30 3533 C 320.913 1.08014 1.5485 0
M  V30 3534 O 320.27 0.0858797 1.82298 0
M  V30 3535 C 320.321 3.47549 0.994583 0
M  V30 3536 O 320.042 4.38049 -0.0669322 0
M  V30 3537 C 321.543 4.0887 1.7129 0
M  V30 3538 H 318.763 0.661807 0.110691 0
M  V30 3539 H 321.307 2.02134 -0.310207 0
M  V30 3540 H 319.462 3.48204 1.69803 0
M  V30 3541 H 319.876 5.23368 0.344462 0
M  V30 3542 H 321.35 5.12475 2.05118 0
M  V30 3543 H 321.827 3.52615 2.61838 0
M  V30 3544 H 322.433 4.12002 1.05518 0
M  V30 3545 N 320.748 -0.0735177 1.57428 0
M  V30 3546 C 321.997 -0.771809 1.86349 0
M  V30 3547 C 322.31 -1.78828 0.792452 0
M  V30 3548 O 323.516 -2.53602 0.96945 0
M  V30 3549 C 321.972 -1.42358 3.30548 0
M  V30 3550 C 321.58 -0.445761 4.45777 0
M  V30 3551 C 323.324 -2.10434 3.6867 0
M  V30 3552 C 321.231 -1.10335 5.81016 0
M  V30 3553 H 320.161 -0.291999 0.695164 0
M  V30 3554 H 322.812 -0.0250749 1.83483 0
M  V30 3555 H 321.194 -2.21852 3.28021 0
M  V30 3556 H 322.368 0.319239 4.59693 0
M  V30 3557 H 320.683 0.130457 4.16196 0
M  V30 3558 H 323.28 -2.60405 4.67004 0
M  V30 3559 H 323.623 -2.90298 2.98383 0
M  V30 3560 H 324.156 -1.37773 3.7318 0
M  V30 3561 H 320.895 -0.345061 6.54591 0
M  V30 3562 H 320.415 -1.83925 5.70904 0
M  V30 3563 H 322.094 -1.62367 6.26295 0
M  V30 3564 N 322.226 -1.5378 -0.344866 0
M  V30 3565 C 323.176 -1.78057 -1.42407 0
M  V30 3566 C 324.16 -0.635732 -1.47808 0
M  V30 3567 O 325.352 -0.89508 -1.527 0
M  V30 3568 C 322.481 -1.99242 -2.79566 0
M  V30 3569 C 321.567 -3.19787 -2.78562 0
M  V30 3570 N 321.958 -4.41284 -2.47189 0
M  V30 3571 C 320.256 -3.2093 -3.0971 0
M  V30 3572 C 320.957 -5.23128 -2.54385 0
M  V30 3573 N 319.933 -4.59813 -2.89953 0
M  V30 3574 H 323.735 -2.69588 -1.17046 0
M  V30 3575 H 321.249 -1.52687 -0.553217 0
M  V30 3576 H 323.246 -2.14768 -3.57324 0
M  V30 3577 H 321.906 -1.08953 -3.05875 0
M  V30 3578 H 322.917 -4.68657 -2.20411 0
M  V30 3579 H 319.594 -2.40603 -3.41199 0
M  V30 3580 H 320.984 -6.30096 -2.333 0
M  V30 3581 N 323.704 0.605807 -1.45491 0
M  V30 3582 C 324.667 1.69836 -1.5391 0
M  V30 3583 C 325.667 1.55261 -0.418424 0
M  V30 3584 O 326.857 1.60296 -0.681965 0
M  V30 3585 C 323.989 3.09117 -1.43734 0
M  V30 3586 H 325.182 1.63738 -2.51257 0
M  V30 3587 H 322.735 0.821689 -1.32959 0
M  V30 3588 H 323.47 3.20791 -0.475788 0
M  V30 3589 H 323.255 3.21104 -2.25021 0
M  V30 3590 H 324.745 3.88696 -1.52661 0
M  V30 3591 N 325.182 1.32811 0.848464 0
M  V30 3592 C 326.431 1.23075 1.59798 0
M  V30 3593 C 326.744 -0.204419 1.94529 0
M  V30 3594 O 327.95 -0.423701 2.68173 0
M  V30 3595 C 326.406 2.15594 2.88179 0
M  V30 3596 C 326.014 3.64228 2.60849 0
M  V30 3597 C 327.758 2.14709 3.66197 0
M  V30 3598 C 325.665 4.48689 3.85269 0
M  V30 3599 H 324.595 0.457091 0.599653 0
M  V30 3600 H 327.246 1.57813 0.936342 0
M  V30 3601 H 325.628 1.73778 3.55833 0
M  V30 3602 H 326.802 4.14424 2.01467 0
M  V30 3603 H 325.117 3.67306 1.96151 0
M  V30 3604 H 327.714 2.75046 4.58534 0
M  V30 3605 H 328.057 1.13966 4.00397 0
M  V30 3606 H 328.59 2.54837 3.05455 0
M  V30 3607 H 325.329 5.5027 3.56207 0
M  V30 3608 H 324.849 4.03241 4.44024 0
M  V30 3609 H 326.528 4.62006 4.52946 0
M  V30 3610 N 326.66 -1.06551 1.16123 0
M  V30 3611 C 327.906 -1.79719 0.952505 0
M  V30 3612 C 328.261 -1.85396 -0.514385 0
M  V30 3613 O 327.554 -1.33263 -1.37665 0
M  V30 3614 C 327.748 -3.23911 1.51052 0
M  V30 3615 C 327.577 -3.32284 3.03013 0
M  V30 3616 C 326.347 -3.42371 3.71632 0
M  V30 3617 C 328.545 -3.22363 4.00732 0
M  V30 3618 N 326.527 -3.39732 5.11327 0
M  V30 3619 C 327.898 -3.26937 5.26794 0
M  V30 3620 C 329.953 -3.0623 3.92591 0
M  V30 3621 C 328.656 -3.17035 6.45663 0
M  V30 3622 C 330.682 -2.97665 5.11028 0
M  V30 3623 C 330.044 -3.02858 6.35969 0
M  V30 3624 H 326.143 -0.670585 0.402293 0
M  V30 3625 H 328.727 -1.27125 1.4747 0
M  V30 3626 H 326.898 -3.74907 1.01484 0
M  V30 3627 H 328.63 -3.85242 1.2398 0
M  V30 3628 H 325.385 -3.47058 3.22254 0
M  V30 3629 H 325.809 -3.41919 5.84312 0
M  V30 3630 H 330.451 -3.01063 2.96852 0
M  V30 3631 H 328.169 -3.2096 7.41627 0
M  V30 3632 H 331.755 -2.86273 5.06497 0
M  V30 3633 H 330.635 -2.96286 7.26075 0
M  V30 3634 N 328.138 -0.959301 -1.25041 0
M  V30 3635 C 329.363 -0.633507 -1.97488 0
M  V30 3636 C 329.788 0.788555 -1.70773 0
M  V30 3637 O 329.146 1.53394 -0.966431 0
M  V30 3638 C 329.194 -0.904057 -3.49083 0
M  V30 3639 O 328.298 0.0147939 -4.12397 0
M  V30 3640 H 327.639 -0.240368 -0.618966 0
M  V30 3641 H 330.169 -1.28717 -1.59038 0
M  V30 3642 H 330.179 -0.832203 -3.99423 0
M  V30 3643 H 328.854 -1.94048 -3.67856 0
M  V30 3644 H 327.431 -0.109664 -3.72739 0
M  V30 3645 N 329.616 1.39756 -0.72842 0
M  V30 3646 C 331.032 1.5442 -0.403308 0
M  V30 3647 C 331.232 1.69694 1.08656 0
M  V30 3648 O 330.288 1.69373 1.87267 0
M  V30 3649 C 331.601 2.76555 -1.18058 0
M  V30 3650 C 333.149 2.90384 -1.16815 0
M  V30 3651 C 333.624 4.15449 -1.92785 0
M  V30 3652 N 335.115 4.22475 -1.89918 0
M  V30 3653 C 335.85 5.1818 -2.45514 0
M  V30 3654 N 335.346 6.19714 -3.09719 0
M  V30 3655 N 337.139 5.1035 -2.35584 0
M  V30 3656 H 329.29 1.28089 -1.69431 0
M  V30 3657 H 331.553 0.620327 -0.716867 0
M  V30 3658 H 331.259 2.7159 -2.23455 0
M  V30 3659 H 331.133 3.69033 -0.780662 0
M  V30 3660 H 333.52 2.94846 -0.12234 0
M  V30 3661 H 333.601 1.98988 -1.6074 0
M  V30 3662 H 333.245 4.11749 -2.97364 0
M  V30 3663 H 333.175 5.05877 -1.46272 0
M  V30 3664 H 335.666 3.49743 -1.43138 0
M  V30 3665 H 335.979 6.8919 -3.49625 0
M  V30 3666 H 334.324 6.20121 -3.13807 0
M  V30 3667 H 337.515 4.2996 -1.85072 0
M  V30 3668 H 337.688 5.84761 -2.79211 0
M  V30 3669 N 331.094 0.475555 1.50254 0
M  V30 3670 C 332.505 0.0215174 1.86688 0
M  V30 3671 C 332.856 -1.38467 1.39001 0
M  V30 3672 O 331.981 -2.02732 0.756894 0
M  V30 3673 C 332.576 0.0322715 3.38785 0
M  V30 3674 C 331.135 -0.366314 3.74613 0
M  V30 3675 C 330.282 0.415832 2.74164 0
M  V30 3676 H 333.233 0.689612 1.42934 0
M  V30 3677 H 333.254 -0.76889 3.7265 0
M  V30 3678 H 332.766 1.05584 3.73462 0
M  V30 3679 H 330.867 -1.39406 3.45538 0
M  V30 3680 H 330.98 -0.064555 4.79057 0
M  V30 3681 H 329.344 -0.131048 2.54363 0
M  V30 3682 H 330.127 1.43899 3.11686 0
M  V30 3683 N 332.573 -1.56217 0.208337 0
M  V30 3684 C 333.483 -2.23316 -0.718836 0
M  V30 3685 C 334.499 -1.23648 -1.22422 0
M  V30 3686 O 335.675 -1.56423 -1.26861 0
M  V30 3687 C 332.74 -2.88968 -1.91568 0
M  V30 3688 C 331.801 -4.03943 -1.45357 0
M  V30 3689 C 331.034 -4.66455 -2.59337 0
M  V30 3690 O 331.257 -4.27919 -3.77149 0
M  V30 3691 O 330.191 -5.55686 -2.31293 0
M  V30 3692 H 334.017 -3.03182 -0.177315 0
M  V30 3693 H 331.602 -1.49384 -0.0215402 0
M  V30 3694 H 333.484 -3.30455 -2.61491 0
M  V30 3695 H 332.159 -2.12071 -2.44556 0
M  V30 3696 H 331.066 -3.67052 -0.722746 0
M  V30 3697 H 332.399 -4.82543 -0.970219 0
M  V30 3698 N 334.051 0.0651679 -1.57465 0
M  V30 3699 C 335.276 0.779605 -1.9219 0
M  V30 3700 C 335.701 1.69988 -0.805333 0
M  V30 3701 O 335.059 1.79685 0.241435 0
M  V30 3702 C 335.107 1.54364 -3.2589 0
M  V30 3703 O 334.211 2.65474 -3.1559 0
M  V30 3704 H 333.552 0.212249 -0.629163 0
M  V30 3705 H 336.082 0.0314294 -2.04576 0
M  V30 3706 H 336.092 1.92146 -3.59922 0
M  V30 3707 H 334.767 0.868457 -4.06732 0
M  V30 3708 H 333.344 2.30501 -2.93128 0
M  V30 3709 N 335.529 1.53961 0.336706 0
M  V30 3710 C 336.757 1.75483 1.09605 0
M  V30 3711 C 337.172 0.4972 1.82136 0
M  V30 3712 O 336.529 -0.53149 1.74589 0
M  V30 3713 C 336.58 2.93943 2.10428 0
M  V30 3714 O 336.301 4.14842 1.40846 0
M  V30 3715 C 337.802 3.27571 2.98684 0
M  V30 3716 H 335.022 0.586166 0.326574 0
M  V30 3717 H 337.566 2.00808 0.38683 0
M  V30 3718 H 335.721 2.70929 2.76905 0
M  V30 3719 H 336.135 4.81383 2.08255 0
M  V30 3720 H 337.609 4.13791 3.6535 0
M  V30 3721 H 338.086 2.44168 3.65074 0
M  V30 3722 H 338.692 3.52615 2.37787 0
M  V30 3723 N 337.007 -0.598083 1.45811 0
M  V30 3724 C 337.939 -1.72231 1.51225 0
M  V30 3725 C 338.952 -1.57757 0.402059 0
M  V30 3726 O 340.141 -1.65464 0.669624 0
M  V30 3727 C 337.241 -3.10331 1.3619 0
M  V30 3728 C 336.414 -3.50955 2.61054 0
M  V30 3729 C 335.473 -4.68055 2.40439 0
M  V30 3730 O 334.499 -4.74691 3.14097 0
M  V30 3731 N 335.701 -5.61941 1.45612 0
M  V30 3732 H 338.466 -1.68046 2.48154 0
M  V30 3733 H 336.027 -0.783637 1.41671 0
M  V30 3734 H 338.019 -3.86439 1.20195 0
M  V30 3735 H 336.589 -3.0897 0.475015 0
M  V30 3736 H 335.809 -2.64711 2.92099 0
M  V30 3737 H 337.097 -3.74858 3.44034 0
M  V30 3738 H 336.495 -5.59301 0.848431 0
M  V30 3739 H 335.052 -6.37542 1.35585 0
M  V30 3740 N 338.485 -1.33259 -0.841409 0
M  V30 3741 C 339.731 -1.24757 -1.59886 0
M  V30 3742 C 340.064 0.186913 -1.93298 0
M  V30 3743 O 339.339 1.12757 -1.5848 0
M  V30 3744 C 339.622 -2.12036 -2.91055 0
M  V30 3745 C 339.475 -3.63929 -2.6434 0
M  V30 3746 C 340.794 -1.9916 -3.92458 0
M  V30 3747 H 337.913 -0.454542 -0.580138 0
M  V30 3748 H 340.555 -1.63335 -0.970647 0
M  V30 3749 H 338.705 -1.79265 -3.44669 0
M  V30 3750 H 340.377 -4.06978 -2.17178 0
M  V30 3751 H 338.62 -3.85935 -1.98082 0
M  V30 3752 H 339.291 -4.20341 -3.57796 0
M  V30 3753 H 341.767 -2.27895 -3.48143 0
M  V30 3754 H 340.643 -2.62484 -4.82072 0
M  V30 3755 H 340.904 -0.963082 -4.31482 0
M  V30 3756 N 339.963 1.05934 -1.16686 0
M  V30 3757 C 340.895 2.13468 -0.834503 0
M  V30 3758 C 341.908 1.62013 0.15984 0
M  V30 3759 O 343.097 1.7838 -0.0654228 0
M  V30 3760 C 340.197 3.3817 -0.222361 0
M  V30 3761 C 339.37 4.18928 -1.25771 0
M  V30 3762 C 338.429 5.21985 -0.664703 0
M  V30 3763 O 337.455 5.53334 -1.33453 0
M  V30 3764 N 338.657 5.77919 0.546834 0
M  V30 3765 H 341.422 2.42578 -1.75999 0
M  V30 3766 H 338.983 1.21967 -1.06469 0
M  V30 3767 H 340.975 4.04266 0.187472 0
M  V30 3768 H 339.545 3.06655 0.606758 0
M  V30 3769 H 338.765 3.48433 -1.84358 0
M  V30 3770 H 340.053 4.69687 -1.95631 0
M  V30 3771 H 339.451 5.54721 1.10912 0
M  V30 3772 H 338.008 6.45573 0.898829 0
M  V30 3773 N 341.441 0.965919 1.2453 0
M  V30 3774 C 342.389 0.486506 2.27455 0
M  V30 3775 C 343.383 -0.449041 1.6334 0
M  V30 3776 O 344.589 -0.324527 1.7705 0
M  V30 3777 H 340.964 0.138857 0.739069 0
M  V30 3778 H 342.935 1.3666 2.65267 0
M  V30 3779 C 341.684 -0.209481 3.47068 0
M  V30 3780 H 341.007 0.50129 3.96645 0
M  V30 3781 H 342.447 -0.508775 4.20936 0
M  V30 3782 C 340.906 -1.43586 3.0477 0
M  V30 3783 O 341.436 -2.53299 3.11773 0
M  V30 3784 N 339.642 -1.30126 2.59838 0
M  V30 3785 H 339.189 -0.408583 2.54339 0
M  V30 3786 H 339.147 -2.12294 2.31902 0
M  V30 3787 N 342.919 -1.39368 0.735821 0
M  V30 3788 C 344.168 -1.99733 0.281004 0
M  V30 3789 C 344.481 -1.59055 -1.13846 0
M  V30 3790 O 345.687 -2.12262 -1.69284 0
M  V30 3791 C 344.143 -3.57057 0.451462 0
M  V30 3792 C 343.751 -4.06697 1.87886 0
M  V30 3793 C 345.495 -4.2446 0.0584616 0
M  V30 3794 C 343.402 -5.56598 1.99883 0
M  V30 3795 H 342.332 -0.747163 0.101311 0
M  V30 3796 H 344.983 -1.59357 0.909819 0
M  V30 3797 H 343.365 -3.95234 -0.246263 0
M  V30 3798 H 344.539 -3.79853 2.60861 0
M  V30 3799 H 342.854 -3.5196 2.22515 0
M  V30 3800 H 345.451 -5.34549 0.127099 0
M  V30 3801 H 345.794 -4.04444 -0.986433 0
M  V30 3802 H 346.327 -3.9146 0.707374 0
M  V30 3803 H 343.066 -5.81494 3.02564 0
M  V30 3804 H 342.586 -5.85242 1.31346 0
M  V30 3805 H 344.265 -6.22022 1.78039 0
M  V30 3806 N 344.397 -0.483516 -1.5 0
M  V30 3807 C 345.327 0.293829 -2.31644 0
M  V30 3808 C 346.308 0.978864 -1.39112 0
M  V30 3809 O 347.493 0.973644 -1.68029 0
M  V30 3810 C 344.623 1.36897 -3.19181 0
M  V30 3811 C 343.577 0.804833 -4.20365 0
M  V30 3812 C 342.903 1.9792 -4.96721 0
M  V30 3813 C 344.203 -0.192313 -5.21946 0
M  V30 3814 H 345.897 -0.387616 -2.9688 0
M  V30 3815 H 343.443 -0.187856 -1.42769 0
M  V30 3816 H 345.396 1.92037 -3.751 0
M  V30 3817 H 344.12 2.07936 -2.51853 0
M  V30 3818 H 342.779 0.275319 -3.65565 0
M  V30 3819 H 342.427 2.67686 -4.25856 0
M  V30 3820 H 342.127 1.60789 -5.65173 0
M  V30 3821 H 343.651 2.53526 -5.55479 0
M  V30 3822 H 345.065 0.270333 -5.72662 0
M  V30 3823 H 343.462 -0.478543 -5.98189 0
M  V30 3824 H 344.532 -1.11409 -4.71928 0
M  V30 3825 N 345.875 1.56104 -0.216619 0
M  V30 3826 C 347.291 1.58995 0.13886 0
M  V30 3827 C 347.491 1.23333 1.59346 0
M  V30 3828 O 346.547 0.966234 2.33281 0
M  V30 3829 C 347.86 3.00143 -0.182968 0
M  V30 3830 C 349.408 3.12751 -0.124807 0
M  V30 3831 C 349.883 4.56068 -0.420241 0
M  V30 3832 N 351.374 4.61723 -0.369634 0
M  V30 3833 C 352.109 5.70542 -0.571789 0
M  V30 3834 N 351.605 6.87744 -0.835453 0
M  V30 3835 N 353.398 5.59831 -0.504563 0
M  V30 3836 H 345.549 1.77562 -1.16557 0
M  V30 3837 H 347.812 0.825091 -0.466828 0
M  V30 3838 H 347.518 3.30871 -1.19237 0
M  V30 3839 H 347.392 3.73813 0.504367 0
M  V30 3840 H 349.779 2.81822 0.875223 0
M  V30 3841 H 349.86 2.41421 -0.845544 0
M  V30 3842 H 349.504 4.87713 -1.41769 0
M  V30 3843 H 349.434 5.25617 0.321631 0
M  V30 3844 H 351.925 3.77502 -0.173338 0
M  V30 3845 H 352.238 7.66587 -0.977938 0
M  V30 3846 H 350.583 6.895 -0.872592 0
M  V30 3847 H 353.774 4.67145 -0.298842 0
M  V30 3848 H 353.947 6.44573 -0.665519 0
M  V30 3849 N 347.353 -0.0568162 1.57498 0
M  V30 3850 C 348.285 -1.09292 2.01464 0
M  V30 3851 C 349.298 -1.34112 0.922913 0
M  V30 3852 O 350.487 -1.32089 1.20062 0
M  V30 3853 C 347.587 -2.44068 2.35125 0
M  V30 3854 C 346.76 -2.38995 3.66333 0
M  V30 3855 C 345.819 -3.55997 3.87495 0
M  V30 3856 O 344.845 -3.36746 4.58901 0
M  V30 3857 N 346.047 -4.76888 3.30996 0
M  V30 3858 H 348.812 -0.718386 2.90963 0
M  V30 3859 H 346.373 -0.245235 1.60032 0
M  V30 3860 H 348.365 -3.21011 2.46443 0
M  V30 3861 H 346.935 -2.73468 1.5144 0
M  V30 3862 H 346.155 -1.47336 3.65631 0
M  V30 3863 H 347.443 -2.3272 4.52458 0
M  V30 3864 H 346.841 -4.95431 2.73065 0
M  V30 3865 H 345.398 -5.51291 3.47738 0
M  V30 3866 N 348.832 -1.54138 -0.328536 0
M  V30 3867 C 350.248 -1.44736 -0.672574 0
M  V30 3868 C 350.448 -0.616217 -1.91846 0
M  V30 3869 O 349.504 -0.113067 -2.52247 0
M  V30 3870 C 350.817 -2.884 -0.851217 0
M  V30 3871 C 352.365 -2.98271 -0.948877 0
M  V30 3872 C 352.84 -4.43074 -1.15973 0
M  V30 3873 N 354.331 -4.46665 -1.22658 0
M  V30 3874 C 355.066 -5.55857 -1.40751 0
M  V30 3875 N 354.562 -6.75026 -1.5592 0
M  V30 3876 N 356.355 -5.43495 -1.4342 0
M  V30 3877 H 348.506 -2.06661 0.490421 0
M  V30 3878 H 350.769 -0.934812 0.157579 0
M  V30 3879 H 350.475 -3.51699 -0.00704236 0
M  V30 3880 H 350.349 -3.34225 -1.74853 0
M  V30 3881 H 352.736 -2.35102 -1.78356 0
M  V30 3882 H 352.817 -2.55785 -0.0281435 0
M  V30 3883 H 352.461 -5.06827 -0.329915 0
M  V30 3884 H 352.391 -4.83165 -2.09426 0
M  V30 3885 H 354.882 -3.60797 -1.124 0
M  V30 3886 H 355.195 -7.54004 -1.69404 0
M  V30 3887 H 353.54 -6.77944 -1.53027 0
M  V30 3888 H 356.731 -4.49349 -1.31162 0
M  V30 3889 H 356.904 -6.28649 -1.57178 0
M  V30 3890 N 350.31 0.590341 -1.46126 0
M  V30 3891 C 351.538 1.37504 -1.54597 0
M  V30 3892 C 351.953 1.87897 -0.184447 0
M  V30 3893 O 351.31 1.63192 0.816984 0
M  V30 3894 C 351.361 2.56779 -2.54454 0
M  V30 3895 O 351.082 2.08476 -3.85317 0
M  V30 3896 C 352.583 3.49427 -2.72792 0
M  V30 3897 H 349.803 0.420325 -0.523037 0
M  V30 3898 H 352.347 0.718383 -1.91467 0
M  V30 3899 H 350.502 3.1845 -2.20609 0
M  V30 3900 H 350.916 2.86097 -4.396 0
M  V30 3901 H 352.39 4.29619 -3.466 0
M  V30 3902 H 352.867 4.00876 -1.79429 0
M  V30 3903 H 353.473 2.93598 -3.07702 0
M  V30 3904 N 351.788 1.33704 0.83433 0
M  V30 3905 C 352.698 1.26382 1.97648 0
M  V30 3906 C 353.714 0.173548 1.73132 0
M  V30 3907 O 354.89 0.397962 1.97429 0
M  V30 3908 C 351.955 1.00769 3.31733 0
M  V30 3909 C 351.016 2.1884 3.69334 0
M  V30 3910 C 350.249 1.9444 4.9702 0
M  V30 3911 O 350.472 0.896961 5.63303 0
M  V30 3912 O 349.406 2.81093 5.32231 0
M  V30 3913 H 353.232 2.22444 2.06767 0
M  V30 3914 H 350.817 1.13795 0.968037 0
M  V30 3915 H 352.699 0.882186 4.12062 0
M  V30 3916 H 351.374 0.0773783 3.23608 0
M  V30 3917 H 350.281 2.36946 2.89495 0
M  V30 3918 H 351.614 3.10221 3.82131 0
M  V30 3919 N 353.266 -1.05314 1.17247 0
M  V30 3920 C 354.214 -2.15137 0.884238 0
M  V30 3921 C 355.208 -1.68729 -0.15063 0
M  V30 3922 O 356.414 -1.8 -0.00366673 0
M  V30 3923 H 352.789 -0.702471 0.2684 0
M  V30 3924 H 354.76 -2.36652 1.81764 0
M  V30 3925 C 353.509 -3.45243 0.412659 0
M  V30 3926 H 352.832 -3.81352 1.20043 0
M  V30 3927 H 354.272 -4.23263 0.249858 0
M  V30 3928 C 352.731 -3.25487 -0.86948 0
M  V30 3929 O 353.261 -3.51938 -1.93655 0
M  V30 3930 N 351.467 -2.78875 -0.817147 0
M  V30 3931 H 351.014 -2.57549 0.0514211 0
M  V30 3932 H 350.972 -2.66036 -1.67547 0
M  V30 3933 N 354.744 -0.972509 -1.24016 0
M  V30 3934 C 355.993 -0.632603 -1.91523 0
M  V30 3935 C 356.306 0.836641 -1.76804 0
M  V30 3936 O 357.512 1.28728 -2.39043 0
M  V30 3937 C 355.968 -1.08082 -3.43287 0
M  V30 3938 C 355.576 -2.57386 -3.66683 0
M  V30 3939 C 357.32 -0.814288 -4.16617 0
M  V30 3940 C 355.227 -2.95915 -5.12043 0
M  V30 3941 H 354.157 -0.232898 -0.717129 0
M  V30 3942 H 356.808 -1.17936 -1.40582 0
M  V30 3943 H 355.19 -0.462339 -3.93292 0
M  V30 3944 H 356.364 -3.24405 -3.27258 0
M  V30 3945 H 354.679 -2.81701 -3.06649 0
M  V30 3946 H 357.276 -1.0781 -5.23718 0
M  V30 3947 H 357.619 0.24955 -4.15551 0
M  V30 3948 H 358.152 -1.39397 -3.72577 0
M  V30 3949 H 354.891 -4.0139 -5.18234 0
M  V30 3950 H 354.411 -2.33584 -5.52448 0
M  V30 3951 H 356.09 -2.86086 -5.80314 0
M  V30 3952 N 356.222 1.38976 -0.743202 0
M  V30 3953 C 357.499 1.94351 -0.220705 0
M  V30 3954 C 357.879 1.67935 1.2791 0
M  V30 3955 O 357.227 1.01211 2.04862 0
M  V30 3956 C 357.437 3.44426 -0.563171 0
M  V30 3957 C 358.785 4.2144 -0.517046 0
M  V30 3958 O 359.809 3.52661 -0.500846 0
M  V30 3959 O 358.668 5.44032 -0.518806 0
M  V30 3960 H 355.762 0.825879 -0.043047 0
M  V30 3961 H 358.308 1.48429 -0.822618 0
M  V30 3962 H 357.08 3.5712 -1.59941 0
M  V30 3963 H 356.703 3.97543 0.0672883 0
M  V30 3964 N 357.7 0.491464 1.49741 0
M  V30 3965 C 358.949 -0.0582189 2.01616 0
M  V30 3966 C 359.262 -1.38927 1.3769 0
M  V30 3967 O 360.468 -2.02509 1.80838 0
M  V30 3968 C 358.924 -0.154235 3.59569 0
M  V30 3969 C 358.532 1.1696 4.32463 0
M  V30 3970 C 360.276 -0.65479 4.1942 0
M  V30 3971 C 358.183 1.03627 5.8225 0
M  V30 3972 H 357.113 -0.0255317 0.753568 0
M  V30 3973 H 359.764 0.629445 1.72367 0
M  V30 3974 H 358.146 -0.906138 3.85493 0
M  V30 3975 H 359.32 1.93405 4.18248 0
M  V30 3976 H 357.635 1.60285 3.84315 0
M  V30 3977 H 360.232 -0.771903 5.29099 0
M  V30 3978 H 360.575 -1.65127 3.8215 0
M  V30 3979 H 361.108 0.040304 3.9778 0
M  V30 3980 H 357.847 2.00672 6.24028 0
M  V30 3981 H 357.367 0.312546 5.98985 0
M  V30 3982 H 359.046 0.711114 6.4308 0
M  V30 3983 N 359.178 -1.55987 0.224894 0
M  V30 3984 C 360.125 -2.20436 -0.68385 0
M  V30 3985 C 361.095 -1.16102 -1.18783 0
M  V30 3986 O 362.28 -1.4447 -1.24632 0
M  V30 3987 C 359.42 -2.89076 -1.88491 0
M  V30 3988 C 358.533 -4.08012 -1.41951 0
M  V30 3989 C 357.668 -4.64426 -2.5784 0
M  V30 3990 C 356.707 -5.75656 -2.08053 0
M  V30 3991 N 355.844 -6.26347 -3.17227 0
M  V30 3992 H 360.684 -2.97727 -0.12754 0
M  V30 3993 H 358.221 -1.47011 -0.0511978 0
M  V30 3994 H 360.179 -3.27059 -2.59014 0
M  V30 3995 H 358.809 -2.14298 -2.41405 0
M  V30 3996 H 357.861 -3.75492 -0.609095 0
M  V30 3997 H 359.173 -4.88375 -1.01447 0
M  V30 3998 H 358.327 -5.04869 -3.3644 0
M  V30 3999 H 357.066 -3.83233 -3.01635 0
M  V30 4000 H 356.071 -5.34712 -1.27916 0
M  V30 4001 H 357.296 -6.58686 -1.65255 0
M  V30 4002 H 355.242 -5.48067 -3.60497 0
M  V30 4003 H 355.159 -7.01843 -2.80986 0
M  V30 4004 H 356.427 -6.71447 -3.95953 0
M  V30 4005 N 360.656 0.0484629 -1.57525 0
M  V30 4006 C 361.603 1.05504 -2.05275 0
M  V30 4007 C 362.573 1.37084 -0.937927 0
M  V30 4008 O 363.758 1.47754 -1.2072 0
M  V30 4009 C 360.898 2.35676 -2.52093 0
M  V30 4010 C 360.011 2.10423 -3.77288 0
M  V30 4011 C 359.146 3.34327 -4.12794 0
M  V30 4012 C 358.185 3.04542 -5.30962 0
M  V30 4013 N 357.322 4.20841 -5.61994 0
M  V30 4014 H 362.162 0.640885 -2.91027 0
M  V30 4015 H 359.699 0.304854 -1.43906 0
M  V30 4016 H 361.657 3.11709 -2.77297 0
M  V30 4017 H 360.287 2.7485 -1.69285 0
M  V30 4018 H 359.339 1.24976 -3.59284 0
M  V30 4019 H 360.651 1.84438 -4.63448 0
M  V30 4020 H 359.805 4.1874 -4.39024 0
M  V30 4021 H 358.544 3.63408 -3.25247 0
M  V30 4022 H 357.549 2.18528 -5.04505 0
M  V30 4023 H 358.774 2.76758 -6.20146 0
M  V30 4024 H 356.72 4.4991 -4.77406 0
M  V30 4025 H 356.637 3.98212 -6.42622 0
M  V30 4026 H 357.905 5.06184 -5.92789 0
M  V30 4027 N 362.134 1.5431 0.320358 0
M  V30 4028 C 363.364 1.7638 1.07582 0
M  V30 4029 C 363.772 0.513944 1.82086 0
M  V30 4030 O 363.115 -0.525123 1.76035 0
M  V30 4031 C 363.177 2.9055 2.1171 0
M  V30 4032 C 362.841 4.2934 1.56575 0
M  V30 4033 C 363.838 5.10077 1.00586 0
M  V30 4034 C 361.523 4.75893 1.60722 0
M  V30 4035 C 363.517 6.35477 0.494756 0
M  V30 4036 C 361.204 6.0126 1.09224 0
M  V30 4037 C 362.202 6.80886 0.53696 0
M  V30 4038 O 361.89 8.03894 0.0297371 0
M  V30 4039 H 361.622 0.592369 0.325692 0
M  V30 4040 H 364.176 2.02019 0.37116 0
M  V30 4041 H 362.406 2.60489 2.85801 0
M  V30 4042 H 364.095 3.00373 2.73003 0
M  V30 4043 H 364.861 4.75265 0.966869 0
M  V30 4044 H 360.74 4.13957 2.02882 0
M  V30 4045 H 364.284 6.97574 0.0606842 0
M  V30 4046 H 360.181 6.35562 1.12831 0
M  V30 4047 H 360.949 8.18372 0.14486 0
M  V30 4048 N 363.613 -0.582584 1.46437 0
M  V30 4049 C 364.853 -1.35184 1.53312 0
M  V30 4050 C 365.217 -1.9115 0.180508 0
M  V30 4051 O 366.418 -2.68514 0.124017 0
M  V30 4052 C 364.689 -2.45089 2.60127 0
M  V30 4053 S 366.248 -3.32439 2.86408 0
M  V30 4054 H 363.066 -0.460559 0.54167 0
M  V30 4055 H 365.668 -0.669709 1.83671 0
M  V30 4056 H 364.372 -2.02366 3.57038 0
M  V30 4057 H 363.903 -3.18074 2.315 0
M  V30 4058 H 365.918 -4.43924 2.21688 0
M  V30 4059 N 365.091 -1.34144 -0.827227 0
M  V30 4060 C 366.337 -1.26446 -1.58554 0
M  V30 4061 C 366.67 0.1664 -1.93486 0
M  V30 4062 O 365.945 1.1107 -1.59667 0
M  V30 4063 C 366.228 -2.15111 -2.8879 0
M  V30 4064 C 366.081 -3.66712 -2.60465 0
M  V30 4065 C 367.4 -2.03311 -3.90324 0
M  V30 4066 H 364.519 -0.46067 -0.575284 0
M  V30 4067 H 367.161 -1.64356 -0.953269 0
M  V30 4068 H 365.311 -1.8291 -3.42748 0
M  V30 4069 H 366.983 -4.09259 -2.1285 0
M  V30 4070 H 365.226 -3.88014 -1.93978 0
M  V30 4071 H 365.897 -4.24112 -3.53317 0
M  V30 4072 H 368.373 -2.31574 -3.45706 0
M  V30 4073 H 367.249 -2.67582 -4.79261 0
M  V30 4074 H 367.51 -1.00879 -4.30437 0
M  V30 4075 N 366.569 1.04691 -1.17803 0
M  V30 4076 C 367.519 2.10856 -0.867391 0
M  V30 4077 C 368.503 1.601 0.160206 0
M  V30 4078 O 369.695 1.76948 -0.042947 0
M  V30 4079 C 366.824 3.411 -0.388012 0
M  V30 4080 C 365.91 3.9864 -1.44732 0
M  V30 4081 N 366.301 4.30075 -2.66212 0
M  V30 4082 C 364.599 4.26439 -1.30637 0
M  V30 4083 C 365.3 4.76033 -3.34317 0
M  V30 4084 N 364.276 4.76462 -2.61696 0
M  V30 4085 H 368.078 2.33029 -1.79094 0
M  V30 4086 H 365.592 1.22386 -1.0675 0
M  V30 4087 H 367.589 4.16641 -0.146994 0
M  V30 4088 H 366.249 3.20357 0.529271 0
M  V30 4089 H 367.26 4.19917 -3.03134 0
M  V30 4090 H 363.937 4.15056 -0.451129 0
M  V30 4091 H 365.327 5.09427 -4.38103 0
M  V30 4092 N 368.047 0.979072 1.23499 0
M  V30 4093 C 369.277 0.664237 1.95631 0
M  V30 4094 C 369.685 -0.772653 1.72704 0
M  V30 4095 O 369.028 -1.53141 1.01457 0
M  V30 4096 C 369.09 0.873115 3.48736 0
M  V30 4097 C 368.754 2.29182 3.95379 0
M  V30 4098 C 369.751 3.2704 4.04155 0
M  V30 4099 C 367.436 2.62256 4.28401 0
M  V30 4100 C 369.43 4.56052 4.45304 0
M  V30 4101 C 367.117 3.91491 4.69231 0
M  V30 4102 C 368.115 4.88201 4.77649 0
M  V30 4103 O 367.803 6.15129 5.17563 0
M  V30 4104 H 367.535 0.245915 0.629684 0
M  V30 4105 H 370.089 1.3127 1.57979 0
M  V30 4106 H 368.319 0.167476 3.86337 0
M  V30 4107 H 370.008 0.555642 4.02079 0
M  V30 4108 H 370.774 3.02819 3.78848 0
M  V30 4109 H 366.653 1.87692 4.21061 0
M  V30 4110 H 370.197 5.31538 4.51789 0
M  V30 4111 H 366.094 4.15508 4.93987 0
M  V30 4112 H 366.862 6.18862 5.35679 0
M  V30 4113 N 369.525 -1.3858 0.750561 0
M  V30 4114 C 370.455 -2.33102 0.136237 0
M  V30 4115 C 371.436 -1.54713 -0.706965 0
M  V30 4116 O 372.621 -1.83043 -0.648769 0
M  V30 4117 C 369.751 -3.38882 -0.760017 0
M  V30 4118 C 368.705 -4.27995 -0.0197785 0
M  V30 4119 C 368.031 -5.24605 -1.03408 0
M  V30 4120 C 369.331 -5.09554 1.14684 0
M  V30 4121 H 371.025 -2.84726 0.925822 0
M  V30 4122 H 368.571 -1.36898 0.446654 0
M  V30 4123 H 370.524 -4.0397 -1.19943 0
M  V30 4124 H 369.248 -2.85734 -1.58189 0
M  V30 4125 H 367.907 -3.64409 0.400184 0
M  V30 4126 H 367.555 -4.67746 -1.84994 0
M  V30 4127 H 367.255 -5.85081 -0.543464 0
M  V30 4128 H 368.779 -5.9257 -1.47288 0
M  V30 4129 H 370.193 -5.67899 0.785118 0
M  V30 4130 H 368.59 -5.7925 1.56812 0
M  V30 4131 H 369.66 -4.4347 1.96118 0
M  V30 4132 N 371.003 -0.499398 -1.49478 0
M  V30 4133 C 371.913 0.284489 -2.32869 0
M  V30 4134 C 372.929 0.968885 -1.44529 0
M  V30 4135 O 374.105 0.95062 -1.77553 0
M  V30 4136 C 371.17 1.33594 -3.19928 0
M  V30 4137 C 370.231 0.665149 -4.24116 0
M  V30 4138 C 369.464 1.6665 -5.07014 0
M  V30 4139 O 369.687 2.89618 -4.91404 0
M  V30 4140 O 368.621 1.22271 -5.8935 0
M  V30 4141 H 372.447 -0.39802 -3.01081 0
M  V30 4142 H 370.032 -0.260758 -1.47107 0
M  V30 4143 H 371.914 1.94431 -3.73864 0
M  V30 4144 H 370.589 2.0014 -2.54412 0
M  V30 4145 H 369.496 0.0170769 -3.74096 0
M  V30 4146 H 370.829 0.0421555 -4.92182 0
M  V30 4147 N 372.481 1.55866 -0.233164 0
M  V30 4148 C 373.758 1.90471 0.444988 0
M  V30 4149 C 374.138 1.15209 1.7689 0
M  V30 4150 O 373.486 0.265119 2.26957 0
M  V30 4151 C 373.696 3.4333 0.626559 0
M  V30 4152 C 375.044 4.14319 0.92871 0
M  V30 4153 O 376.068 3.48993 0.712926 0
M  V30 4154 O 374.927 5.29846 1.33887 0
M  V30 4155 H 372.021 0.792347 0.236885 0
M  V30 4156 H 374.567 1.67437 -0.276211 0
M  V30 4157 H 373.339 3.90095 -0.306822 0
M  V30 4158 H 372.962 3.72181 1.39881 0
M  V30 4159 N 373.959 -0.0401083 1.57549 0
M  V30 4160 C 375.205 -0.734211 1.89043 0
M  V30 4161 C 375.538 -1.75591 0.829535 0
M  V30 4162 O 374.813 -1.93868 -0.156706 0
M  V30 4163 C 375.096 -1.41374 3.31188 0
M  V30 4164 C 374.949 -0.406299 4.47961 0
M  V30 4165 C 376.268 -2.35061 3.72068 0
M  V30 4166 H 373.387 -0.265447 0.687537 0
M  V30 4167 H 376.029 0.00294087 1.9 0
M  V30 4168 H 374.179 -2.04206 3.30503 0
M  V30 4169 H 375.851 0.219255 4.60779 0
M  V30 4170 H 374.094 0.275485 4.32924 0
M  V30 4171 H 374.765 -0.920022 5.44279 0
M  V30 4172 H 377.241 -1.82282 3.74049 0
M  V30 4173 H 376.117 -2.79593 4.72355 0
M  V30 4174 H 376.378 -3.21258 3.0372 0
M  V30 4175 N 375.437 -1.54477 -0.31217 0
M  V30 4176 C 376.685 -1.72884 -1.04668 0
M  V30 4177 C 377.006 -0.511477 -1.88173 0
M  V30 4178 O 376.276 0.474407 -1.90069 0
M  V30 4179 H 374.856 -0.637461 -0.389425 0
M  V30 4180 H 377.518 -1.91807 -0.345852 0
M  V30 4181 H 376.614 -2.61334 -1.70619 0
M  V30 4182 N 376.915 0.57481 -1.46744 0
M  V30 4183 C 378.14 1.36341 -1.56288 0
M  V30 4184 C 378.565 1.86954 -0.207347 0
M  V30 4185 O 377.923 1.62006 0.813871 0
M  V30 4186 C 377.971 2.52147 -2.57787 0
M  V30 4187 O 377.075 3.53834 -2.11838 0
M  V30 4188 H 376.416 0.405713 -0.525636 0
M  V30 4189 H 378.946 0.696453 -1.92382 0
M  V30 4190 H 378.956 2.98958 -2.77648 0
M  V30 4191 H 377.631 2.14663 -3.5622 0
M  V30 4192 H 376.208 3.1345 -2.01999 0
M  V30 4193 N 378.394 1.34581 0.820102 0
M  V30 4194 C 379.641 1.27096 1.57648 0
M  V30 4195 C 379.969 -0.158317 1.93855 0
M  V30 4196 O 379.224 -1.12028 1.60463 0
M  V30 4197 C 379.523 2.10997 2.8847 0
M  V30 4198 C 379.189 3.59966 2.71543 0
M  V30 4199 C 377.851 4.00575 2.66634 0
M  V30 4200 C 380.203 4.54548 2.55021 0
M  V30 4201 C 377.531 5.33953 2.43128 0
M  V30 4202 C 379.883 5.88109 2.33047 0
M  V30 4203 C 378.547 6.27878 2.26552 0
M  V30 4204 H 377.817 0.465078 0.576874 0
M  V30 4205 H 380.464 1.6635 0.948671 0
M  V30 4206 H 378.769 1.6458 3.55557 0
M  V30 4207 H 380.466 2.0255 3.46084 0
M  V30 4208 H 377.056 3.27733 2.76205 0
M  V30 4209 H 381.24 4.24069 2.57835 0
M  V30 4210 H 376.496 5.63781 2.3656 0
M  V30 4211 H 380.67 6.60985 2.19251 0
M  V30 4212 H 378.297 7.31162 2.081 0
M  V30 4213 N 379.872 -1.04064 1.18357 0
M  V30 4214 C 380.782 -2.15569 0.925596 0
M  V30 4215 C 381.798 -1.7365 -0.110295 0
M  V30 4216 O 382.974 -2.01273 0.0716218 0
M  V30 4217 C 380.039 -3.43704 0.454836 0
M  V30 4218 C 379.1 -4.00004 1.55869 0
M  V30 4219 C 378.333 -5.22023 1.1103 0
M  V30 4220 O 378.556 -5.70392 -0.0309756 0
M  V30 4221 O 377.49 -5.70856 1.90805 0
M  V30 4222 H 381.316 -2.40187 1.8586 0
M  V30 4223 H 378.901 -1.1402 0.965394 0
M  V30 4224 H 380.783 -4.20923 0.200382 0
M  V30 4225 H 379.458 -3.20559 -0.449876 0
M  V30 4226 H 378.365 -3.24172 1.86716 0
M  V30 4227 H 379.698 -4.2749 2.43953 0
M  V30 4228 N 381.35 -0.985608 -1.22978 0
M  V30 4229 C 382.58 -0.674603 -1.95276 0
M  V30 4230 C 382.988 0.763483 -1.73111 0
M  V30 4231 O 382.331 1.52601 -1.02268 0
M  V30 4232 C 382.393 -0.891597 -3.48268 0
M  V30 4233 C 382.057 -2.31275 -3.94158 0
M  V30 4234 C 383.054 -3.29179 -4.02415 0
M  V30 4235 C 380.739 -2.64524 -4.27004 0
M  V30 4236 C 382.733 -4.58407 -4.42879 0
M  V30 4237 C 380.42 -3.93974 -4.67149 0
M  V30 4238 C 381.418 -4.90727 -4.75053 0
M  V30 4239 O 381.106 -6.17865 -5.14294 0
M  V30 4240 H 380.838 -0.249251 -0.628371 0
M  V30 4241 H 383.392 -1.32106 -1.5728 0
M  V30 4242 H 381.622 -0.187962 -3.86243 0
M  V30 4243 H 383.311 -0.576957 -4.01779 0
M  V30 4244 H 384.077 -3.04823 -3.77237 0
M  V30 4245 H 379.956 -1.89923 -4.2006 0
M  V30 4246 H 383.5 -5.33926 -4.48964 0
M  V30 4247 H 379.397 -4.18122 -4.91777 0
M  V30 4248 H 380.165 -6.21694 -5.32389 0
M  V30 4249 N 382.828 1.3818 -0.7579 0
M  V30 4250 C 384.056 2.04301 -0.326937 0
M  V30 4251 C 384.471 1.57163 1.0462 0
M  V30 4252 O 383.828 0.746626 1.66529 0
M  V30 4253 C 383.879 3.59846 -0.345363 0
M  V30 4254 O 383.6 4.05256 -1.66432 0
M  V30 4255 C 385.101 4.4319 0.098927 0
M  V30 4256 H 382.321 0.656443 -0.139012 0
M  V30 4257 H 384.865 1.76786 -1.02796 0
M  V30 4258 H 383.02 3.86182 0.306955 0
M  V30 4259 H 383.434 4.99709 -1.59345 0
M  V30 4260 H 384.908 5.51989 0.0348745 0
M  V30 4261 H 385.385 4.23947 1.14741 0
M  V30 4262 H 385.991 4.22051 -0.52468 0
M  V30 4263 N 384.306 0.507319 1.49211 0
M  V30 4264 C 385.722 0.163682 1.58758 0
M  V30 4265 C 385.922 -1.33208 1.51188 0
M  V30 4266 O 384.978 -2.10855 1.38911 0
M  V30 4267 C 386.291 0.746095 2.91297 0
M  V30 4268 C 387.839 0.712773 3.04776 0
M  V30 4269 C 388.314 1.27336 4.39943 0
M  V30 4270 N 389.805 1.23433 4.46451 0
M  V30 4271 C 390.54 1.63821 5.495 0
M  V30 4272 N 390.036 2.11832 6.5962 0
M  V30 4273 N 391.829 1.55198 5.4025 0
M  V30 4274 H 383.98 1.47972 1.52375 0
M  V30 4275 H 386.243 0.614147 0.722168 0
M  V30 4276 H 385.949 1.79534 3.02424 0
M  V30 4277 H 385.823 0.210137 3.76614 0
M  V30 4278 H 388.21 -0.327656 2.93275 0
M  V30 4279 H 388.291 1.28595 2.21127 0
M  V30 4280 H 387.935 2.3126 4.52196 0
M  V30 4281 H 387.865 0.676066 5.22242 0
M  V30 4282 H 390.356 0.882627 3.67448 0
M  V30 4283 H 390.669 2.40703 7.34358 0
M  V30 4284 H 389.014 2.1581 6.60644 0
M  V30 4285 H 392.205 1.17505 4.53112 0
M  V30 4286 H 392.378 1.86997 6.20432 0
M  V30 4287 N 385.784 -1.5574 0.241426 0
M  V30 4288 C 386.732 -2.22538 -0.676718 0
M  V30 4289 C 387.726 -1.21117 -1.18436 0
M  V30 4290 O 388.932 -1.39144 -1.14188 0
M  V30 4291 H 385.307 -0.713776 -0.236701 0
M  V30 4292 H 387.278 -2.98264 -0.0901187 0
M  V30 4293 C 386.027 -2.93439 -1.86518 0
M  V30 4294 H 385.35 -3.7125 -1.4837 0
M  V30 4295 H 386.79 -3.43549 -2.48495 0
M  V30 4296 C 385.249 -1.97008 -2.73294 0
M  V30 4297 O 385.779 -1.49965 -3.72657 0
M  V30 4298 N 383.985 -1.64227 -2.39745 0
M  V30 4299 H 383.532 -2.02677 -1.58996 0
M  V30 4300 H 383.49 -0.999708 -2.98083 0
M  V30 4301 N 387.262 0.0317525 -1.57568 0
M  V30 4302 C 388.49 0.734949 -1.93407 0
M  V30 4303 C 388.905 1.69036 -0.84096 0
M  V30 4304 O 388.262 1.81582 0.182836 0
M  V30 4305 C 388.313 1.49432 -3.29169 0
M  V30 4306 O 388.034 0.577261 -4.3428 0
M  V30 4307 C 389.535 2.29492 -3.79273 0
M  V30 4308 H 386.755 0.206706 -0.638368 0
M  V30 4309 H 389.299 -0.00992046 -2.04498 0
M  V30 4310 H 387.454 2.1911 -3.19483 0
M  V30 4311 H 387.868 1.10952 -5.1263 0
M  V30 4312 H 389.342 2.78172 -4.76785 0
M  V30 4313 H 389.819 3.10794 -3.10328 0
M  V30 4314 H 390.425 1.64894 -3.92033 0
M  V30 4315 N 388.74 1.54641 0.303973 0
M  V30 4316 C 389.67 1.88386 1.3796 0
M  V30 4317 C 390.651 0.742485 1.5304 0
M  V30 4318 O 391.836 0.997959 1.66597 0
M  V30 4319 C 388.966 2.12854 2.74427 0
M  V30 4320 C 387.92 3.28702 2.74115 0
M  V30 4321 C 387.246 3.38582 4.13844 0
M  V30 4322 C 388.546 4.65881 2.3612 0
M  V30 4323 H 390.24 2.78474 1.09966 0
M  V30 4324 H 387.786 1.33988 0.527556 0
M  V30 4325 H 389.739 2.35047 3.49758 0
M  V30 4326 H 388.463 1.19535 3.03939 0
M  V30 4327 H 387.122 3.06428 2.0124 0
M  V30 4328 H 386.77 2.42784 4.40528 0
M  V30 4329 H 386.47 4.16453 4.14537 0
M  V30 4330 H 387.994 3.63031 4.90959 0
M  V30 4331 H 389.408 4.87823 3.01167 0
M  V30 4332 H 387.805 5.46444 2.48031 0
M  V30 4333 H 388.875 4.66799 1.3125 0
M  V30 4334 N 390.218 -0.567019 1.47046 0
M  V30 4335 C 391.165 -1.67489 1.58796 0
M  V30 4336 C 392.135 -1.60399 0.43144 0
M  V30 4337 O 393.32 -1.79378 0.650233 0
M  V30 4338 C 390.46 -3.05821 1.59899 0
M  V30 4339 C 389.573 -3.2342 2.86397 0
M  V30 4340 C 388.708 -4.52093 2.789 0
M  V30 4341 C 387.747 -4.6309 4.00267 0
M  V30 4342 N 386.884 -5.83106 3.91064 0
M  V30 4343 H 391.724 -1.56785 2.53422 0
M  V30 4344 H 389.261 -0.763896 1.2571 0
M  V30 4345 H 391.219 -3.8591 1.58522 0
M  V30 4346 H 389.849 -3.15384 0.687929 0
M  V30 4347 H 388.901 -2.3683 2.97684 0
M  V30 4348 H 390.213 -3.27412 3.76301 0
M  V30 4349 H 389.367 -5.4043 2.75718 0
M  V30 4350 H 388.106 -4.50565 1.86662 0
M  V30 4351 H 387.111 -3.73168 4.03765 0
M  V30 4352 H 388.336 -4.66386 4.93621 0
M  V30 4353 H 386.282 -5.82546 3.01623 0
M  V30 4354 H 386.199 -5.88434 4.74638 0
M  V30 4355 H 387.467 -6.73831 3.91882 0
M  V30 4356 N 391.696 -1.35014 -0.812953 0
M  V30 4357 C 392.606 -1.2951 -1.95613 0
M  V30 4358 C 393.622 -0.20107 -1.72834 0
M  V30 4359 O 394.798 -0.42932 -1.96771 0
M  V30 4360 C 391.863 -1.06033 -3.30088 0
M  V30 4361 C 390.924 -2.24688 -3.65805 0
M  V30 4362 C 390.157 -2.02322 -4.93864 0
M  V30 4363 O 390.38 -0.986464 -5.61805 0
M  V30 4364 O 389.314 -2.89525 -5.27692 0
M  V30 4365 H 393.14 -2.25705 -2.03202 0
M  V30 4366 H 390.725 -1.15321 -0.949811 0
M  V30 4367 H 392.607 -0.94763 -4.10607 0
M  V30 4368 H 391.282 -0.128852 -3.23443 0
M  V30 4369 H 390.189 -2.41521 -2.85689 0
M  V30 4370 H 391.522 -3.16261 -3.77147 0
M  V30 4371 N 393.175 1.03435 -1.18907 0
M  V30 4372 C 394.105 2.13503 -0.945448 0
M  V30 4373 C 395.086 1.69682 0.119189 0
M  V30 4374 O 396.271 1.94169 -0.034707 0
M  V30 4375 C 393.401 3.44004 -0.477316 0
M  V30 4376 C 392.355 4.0148 -1.48316 0
M  V30 4377 C 391.681 5.27537 -0.872311 0
M  V30 4378 C 392.981 4.36921 -2.86177 0
M  V30 4379 H 394.675 2.34141 -1.86597 0
M  V30 4380 H 392.221 1.12523 -0.898584 0
M  V30 4381 H 394.174 4.20372 -0.294204 0
M  V30 4382 H 392.898 3.23072 0.478786 0
M  V30 4383 H 391.557 3.27201 -1.65332 0
M  V30 4384 H 391.205 5.02917 0.0911752 0
M  V30 4385 H 390.905 5.66954 -1.54393 0
M  V30 4386 H 392.429 6.06576 -0.699871 0
M  V30 4387 H 393.843 5.04248 -2.72776 0
M  V30 4388 H 392.24 4.87405 -3.50081 0
M  V30 4389 H 393.31 3.46466 -3.39248 0
M  V30 4390 N 394.653 0.992116 1.22453 0
M  V30 4391 C 395.563 0.55065 2.28046 0
M  V30 4392 C 396.579 -0.400189 1.69335 0
M  V30 4393 O 397.755 -0.267215 1.99619 0
M  V30 4394 C 394.82 -0.128496 3.46462 0
M  V30 4395 C 393.881 0.865208 4.20491 0
M  V30 4396 C 393.114 0.218377 5.33253 0
M  V30 4397 O 393.337 -0.987894 5.6178 0
M  V30 4398 O 392.271 0.922845 5.94783 0
M  V30 4399 H 396.097 1.4291 2.67975 0
M  V30 4400 H 393.682 0.760326 1.28606 0
M  V30 4401 H 395.564 -0.508947 4.18315 0
M  V30 4402 H 394.239 -0.981526 3.0846 0
M  V30 4403 H 393.146 1.29658 3.50913 0
M  V30 4404 H 394.479 1.68741 4.62371 0
M  V30 4405 N 396.131 -1.37776 0.765217 0
M  V30 4406 C 397.094 -2.28686 0.153416 0
M  V30 4407 C 398.094 -1.47727 -0.635081 0
M  V30 4408 O 399.284 -1.68027 -0.459632 0
M  V30 4409 C 396.416 -3.31608 -0.790495 0
M  V30 4410 H 397.609 -2.84297 0.954723 0
M  V30 4411 H 395.162 -1.46932 0.53299 0
M  V30 4412 H 395.897 -2.81109 -1.61705 0
M  V30 4413 H 395.682 -3.9144 -0.227348 0
M  V30 4414 H 397.172 -3.99559 -1.21419 0
M  V30 4415 N 397.609 -0.515225 -1.4894 0
M  V30 4416 C 398.556 0.255567 -2.29381 0
M  V30 4417 C 399.526 0.947387 -1.36432 0
M  V30 4418 O 400.711 0.951288 -1.65394 0
M  V30 4419 C 397.851 1.30551 -3.19453 0
M  V30 4420 C 396.964 0.624029 -4.27469 0
M  V30 4421 C 396.099 1.65563 -5.0474 0
M  V30 4422 C 395.138 0.956802 -6.04576 0
M  V30 4423 N 394.275 1.93326 -6.74959 0
M  V30 4424 H 399.115 -0.436607 -2.94784 0
M  V30 4425 H 396.652 -0.227154 -1.45336 0
M  V30 4426 H 398.61 1.92639 -3.70062 0
M  V30 4427 H 397.24 1.96626 -2.56004 0
M  V30 4428 H 396.292 -0.110459 -3.8024 0
M  V30 4429 H 397.604 0.0746092 -4.98744 0
M  V30 4430 H 396.758 2.35119 -5.59289 0
M  V30 4431 H 395.497 2.23893 -4.3327 0
M  V30 4432 H 394.502 0.247097 -5.49244 0
M  V30 4433 H 395.727 0.379814 -6.78037 0
M  V30 4434 H 393.673 2.50591 -6.06251 0
M  V30 4435 H 393.59 1.43489 -7.42258 0
M  V30 4436 H 394.858 2.62126 -7.34105 0
M  V30 4437 N 399.087 1.5561 -0.249682 0
M  V30 4438 C 400.05 2.20217 0.635394 0
M  V30 4439 C 401.05 1.17227 1.10066 0
M  V30 4440 O 402.24 1.42292 1.00492 0
M  V30 4441 C 399.372 2.84794 1.87363 0
M  V30 4442 H 400.565 2.99814 0.0716752 0
M  V30 4443 H 398.118 1.563 -0.000153234 0
M  V30 4444 H 398.853 2.09142 2.47851 0
M  V30 4445 H 398.638 3.60241 1.5482 0
M  V30 4446 H 400.128 3.3423 2.5036 0
M  V30 4447 N 400.565 -0.0233959 1.57583 0
M  V30 4448 C 401.795 -0.723631 1.93513 0
M  V30 4449 C 402.203 -1.69115 0.848333 0
M  V30 4450 O 401.546 -1.82781 -0.183484 0
M  V30 4451 C 401.608 -1.53075 3.25282 0
M  V30 4452 C 401.272 -0.727388 4.51174 0
M  V30 4453 C 402.269 -0.0251924 5.19894 0
M  V30 4454 C 399.954 -0.680256 4.97672 0
M  V30 4455 C 401.948 0.713374 6.33395 0
M  V30 4456 C 399.635 0.0620523 6.11068 0
M  V30 4457 C 400.633 0.757622 6.78785 0
M  V30 4458 O 400.321 1.48787 7.90011 0
M  V30 4459 H 400.053 -0.208051 0.643188 0
M  V30 4460 H 402.607 0.0167489 2.05393 0
M  V30 4461 H 400.837 -2.31508 3.09744 0
M  V30 4462 H 402.526 -2.11413 3.46496 0
M  V30 4463 H 403.292 -0.0526003 4.84971 0
M  V30 4464 H 399.171 -1.21116 4.44805 0
M  V30 4465 H 402.715 1.25683 6.86185 0
M  V30 4466 H 398.612 0.0913634 6.45435 0
M  V30 4467 H 399.38 1.40213 8.06401 0
M  V30 4468 N 402.043 -1.548 -0.295768 0
M  V30 4469 C 402.99 -1.86113 -1.36494 0
M  V30 4470 C 403.96 -0.7105 -1.50137 0
M  V30 4471 O 405.145 -0.959626 -1.64912 0
M  V30 4472 C 402.285 -2.11861 -2.72413 0
M  V30 4473 C 401.398 -3.39471 -2.67177 0
M  V30 4474 C 400.533 -3.55035 -3.95125 0
M  V30 4475 C 399.572 -4.76418 -3.84308 0
M  V30 4476 N 398.709 -4.8876 -5.04042 0
M  V30 4477 H 403.549 -2.77314 -1.09091 0
M  V30 4478 H 401.086 -1.37315 -0.52753 0
M  V30 4479 H 403.044 -2.24786 -3.51464 0
M  V30 4480 H 401.674 -1.2392 -2.98066 0
M  V30 4481 H 400.726 -3.35139 -1.79962 0
M  V30 4482 H 402.038 -4.28646 -2.55076 0
M  V30 4483 H 401.192 -3.67653 -4.82614 0
M  V30 4484 H 399.931 -2.64002 -4.10066 0
M  V30 4485 H 398.936 -4.63827 -2.95202 0
M  V30 4486 H 400.161 -5.68863 -3.70906 0
M  V30 4487 H 398.107 -4.00652 -5.19436 0
M  V30 4488 H 398.024 -5.71945 -4.94384 0
M  V30 4489 H 399.292 -5.0574 -5.93167 0
M  V30 4490 N 403.521 0.559213 -1.47345 0
M  V30 4491 C 404.453 1.68161 -1.55738 0
M  V30 4492 C 405.466 1.56636 -0.443744 0
M  V30 4493 O 406.655 1.6363 -0.713258 0
M  V30 4494 C 403.755 3.06611 -1.4437 0
M  V30 4495 C 402.928 3.4391 -2.70268 0
M  V30 4496 C 401.987 4.61515 -2.52765 0
M  V30 4497 O 401.013 4.66197 -3.26572 0
M  V30 4498 N 402.215 5.57883 -1.6046 0
M  V30 4499 H 404.98 1.61408 -2.52522 0
M  V30 4500 H 402.541 0.7458 -1.43699 0
M  V30 4501 H 404.533 3.83117 -1.30398 0
M  V30 4502 H 403.103 3.07602 -0.556766 0
M  V30 4503 H 402.323 2.56873 -2.99015 0
M  V30 4504 H 403.611 3.65605 -3.53851 0
M  V30 4505 H 403.009 5.56855 -0.996422 0
M  V30 4506 H 401.566 6.33723 -1.52441 0
M  V30 4507 N 404.999 1.35443 0.805782 0
M  V30 4508 C 406.248 1.28097 1.55801 0
M  V30 4509 C 406.561 -0.142428 1.95081 0
M  V30 4510 O 407.767 -0.33817 2.69386 0
M  V30 4511 C 406.223 2.24653 2.81174 0
M  V30 4512 C 405.831 3.72342 2.49129 0
M  V30 4513 C 407.575 2.2625 3.59181 0
M  V30 4514 C 405.482 4.60719 3.70799 0
M  V30 4515 H 404.412 0.475937 0.584808 0
M  V30 4516 H 407.063 1.60712 0.885661 0
M  V30 4517 H 405.445 1.85011 3.50124 0
M  V30 4518 H 406.619 4.20624 1.88181 0
M  V30 4519 H 404.934 3.73361 1.84366 0
M  V30 4520 H 407.531 2.89495 4.49552 0
M  V30 4521 H 407.874 1.26647 3.96568 0
M  V30 4522 H 408.407 2.64426 2.97193 0
M  V30 4523 H 405.146 5.61324 3.3852 0
M  V30 4524 H 404.666 4.17163 4.3097 0
M  V30 4525 H 406.345 4.76182 4.38018 0
M  V30 4526 N 406.477 -1.02803 1.19454 0
M  V30 4527 C 407.754 -1.73299 0.907013 0
M  V30 4528 C 408.134 -2.02772 -0.587086 0
M  V30 4529 O 407.482 -1.68304 -1.54551 0
M  V30 4530 C 407.692 -3.00912 1.76785 0
M  V30 4531 C 409.04 -3.74403 2.00268 0
M  V30 4532 O 410.064 -3.10841 1.73943 0
M  V30 4533 O 408.923 -4.88675 2.4466 0
M  V30 4534 H 406.017 -0.754727 0.338106 0
M  V30 4535 H 408.563 -1.08754 1.30271 0
M  V30 4536 H 407.335 -2.75366 2.7801 0
M  V30 4537 H 406.958 -3.73197 1.37149 0
M  V30 4538 N 407.956 -0.998596 -1.21925 0
M  V30 4539 C 408.919 -0.558679 -2.22287 0
M  V30 4540 C 409.919 0.361525 -1.56683 0
M  V30 4541 O 411.109 0.152695 -1.73529 0
M  V30 4542 C 408.241 0.18661 -3.40389 0
M  V30 4543 H 409.434 -1.4463 -2.62721 0
M  V30 4544 H 406.987 -0.786413 -1.35075 0
M  V30 4545 H 407.722 1.08996 -3.05435 0
M  V30 4546 H 407.507 -0.474188 -3.89222 0
M  V30 4547 H 408.997 0.482367 -4.14805 0
M  V30 4548 N 409.434 1.37368 -0.772513 0
M  V30 4549 C 410.85 1.53059 -0.452231 0
M  V30 4550 C 411.05 1.73065 1.03203 0
M  V30 4551 O 410.106 1.75245 1.81784 0
M  V30 4552 C 411.419 2.72659 -1.26797 0
M  V30 4553 C 412.967 2.86521 -1.25995 0
M  V30 4554 C 413.442 4.09105 -2.05905 0
M  V30 4555 N 414.933 4.16219 -2.03263 0
M  V30 4556 C 415.668 5.10107 -2.61875 0
M  V30 4557 N 415.164 6.09547 -3.29278 0
M  V30 4558 N 416.957 5.02596 -2.51701 0
M  V30 4559 H 409.108 1.22634 -1.7342 0
M  V30 4560 H 411.371 0.597206 -0.736239 0
M  V30 4561 H 411.077 2.64343 -2.31982 0
M  V30 4562 H 410.951 3.66363 -0.897672 0
M  V30 4563 H 413.338 2.94308 -0.216081 0
M  V30 4564 H 413.419 1.93774 -1.66989 0
M  V30 4565 H 413.063 4.0208 -3.10313 0
M  V30 4566 H 412.993 5.00968 -1.62292 0
M  V30 4567 H 415.484 3.45012 -1.54192 0
M  V30 4568 H 415.797 6.77718 -3.71374 0
M  V30 4569 H 414.142 6.09824 -3.33377 0
M  V30 4570 H 417.333 4.23855 -1.98657 0
M  V30 4571 H 417.506 5.75582 -2.97673 0
M  V30 4572 N 410.912 0.523116 1.48665 0
M  V30 4573 C 412.16 -0.0134497 2.02096 0
M  V30 4574 C 412.481 -1.35418 1.40311 0
M  V30 4575 O 411.751 -1.87543 0.566074 0
M  V30 4576 H 410.331 -0.00795915 0.746958 0
M  V30 4577 H 412.993 0.685388 1.82451 0
M  V30 4578 H 412.089 -0.126849 3.11842 0
M  V30 4579 N 412.39 -1.55475 0.257931 0
M  V30 4580 C 413.638 -1.98813 -0.363009 0
M  V30 4581 C 413.959 -1.14757 -1.57657 0
M  V30 4582 O 413.229 -0.232956 -1.9451 0
M  V30 4583 H 411.809 -0.734308 -0.137113 0
M  V30 4584 H 414.471 -1.9156 0.359281 0
M  V30 4585 H 413.567 -3.04941 -0.664634 0
M  V30 4586 N 413.868 0.0150385 -1.57593 0
M  V30 4587 C 414.816 1.02958 -2.08572 0
M  V30 4588 C 415.81 1.36554 -1.00246 0
M  V30 4589 O 417.016 1.35295 -1.18724 0
M  V30 4590 H 413.391 0.349619 -0.665786 0
M  V30 4591 H 415.362 0.573932 -2.92829 0
M  V30 4592 C 414.111 2.31752 -2.59203 0
M  V30 4593 H 413.434 2.06765 -3.42182 0
M  V30 4594 H 414.874 3.01053 -2.98568 0
M  V30 4595 C 413.333 3.01692 -1.49945 0
M  V30 4596 O 413.863 3.92083 -0.873704 0
M  V30 4597 N 412.069 2.6326 -1.23056 0
M  V30 4598 H 411.616 1.89838 -1.74125 0
M  V30 4599 H 411.574 3.10372 -0.501685 0
M  V30 4600 N 415.346 1.54954 0.287554 0
M  V30 4601 C 416.757 1.65732 0.859634 0
M  V30 4602 C 417.108 0.574767 1.87592 0
M  V30 4603 O 416.233 -0.286299 2.14498 0
M  V30 4604 C 416.828 3.00438 1.56597 0
M  V30 4605 C 415.387 3.13292 2.08627 0
M  V30 4606 C 414.534 2.61473 0.923416 0
M  V30 4607 H 417.485 1.5857 0.0642338 0
M  V30 4608 H 417.506 2.92613 2.43224 0
M  V30 4609 H 417.018 3.79207 0.826053 0
M  V30 4610 H 415.119 2.39268 2.85625 0
M  V30 4611 H 415.232 4.19647 2.31157 0
M  V30 4612 H 413.596 2.18264 1.31275 0
M  V30 4613 H 414.379 3.42733 0.197241 0
M  V30 4614 N 416.824 -0.551391 1.4764 0
M  V30 4615 C 417.734 -1.68525 1.63207 0
M  V30 4616 C 418.75 -1.6621 0.514815 0
M  V30 4617 O 419.926 -1.85551 0.783113 0
M  V30 4618 C 416.991 -3.05025 1.64805 0
M  V30 4619 C 416.052 -3.18362 2.88 0
M  V30 4620 C 415.285 -4.4835 2.89513 0
M  V30 4621 O 415.508 -5.34163 2.00065 0
M  V30 4622 O 414.442 -4.65602 3.81443 0
M  V30 4623 H 418.268 -1.58333 2.59161 0
M  V30 4624 H 415.853 -0.722063 1.30792 0
M  V30 4625 H 417.735 -3.86245 1.68502 0
M  V30 4626 H 416.41 -3.15587 0.720197 0
M  V30 4627 H 415.317 -2.36518 2.89845 0
M  V30 4628 H 416.65 -3.12707 3.80099 0
M  V30 4629 N 418.302 -1.35869 -0.798587 0
M  V30 4630 C 419.232 -1.32118 -1.92528 0
M  V30 4631 C 420.213 -0.194209 -1.68988 0
M  V30 4632 O 421.398 -0.390426 -1.90235 0
M  V30 4633 C 418.528 -1.10047 -3.29404 0
M  V30 4634 C 417.482 -2.19471 -3.67446 0
M  V30 4635 C 416.808 -1.82555 -5.02571 0
M  V30 4636 C 418.108 -3.61495 -3.76987 0
M  V30 4637 H 419.802 -2.26394 -1.95924 0
M  V30 4638 H 417.348 -1.08981 -0.94123 0
M  V30 4639 H 419.301 -1.06061 -4.07835 0
M  V30 4640 H 418.025 -0.122195 -3.26371 0
M  V30 4641 H 416.684 -2.22568 -2.91306 0
M  V30 4642 H 416.332 -0.833249 -4.9605 0
M  V30 4643 H 416.032 -2.5581 -5.28995 0
M  V30 4644 H 417.556 -1.80108 -5.83432 0
M  V30 4645 H 418.97 -3.60676 -4.4563 0
M  V30 4646 H 417.367 -4.33577 -4.14887 0
M  V30 4647 H 418.437 -3.97065 -2.78329 0
M  V30 4648 N 419.78 1.02168 -1.19998 0
M  V30 4649 C 421.026 1.75945 -1.00852 0
M  V30 4650 C 421.359 1.88702 0.458828 0
M  V30 4651 O 420.634 1.40911 1.34069 0
M  V30 4652 C 420.917 3.18154 -1.68671 0
M  V30 4653 C 420.77 3.13224 -3.22817 0
M  V30 4654 C 422.089 4.16711 -1.41561 0
M  V30 4655 H 419.208 0.638673 -0.367785 0
M  V30 4656 H 421.85 1.19222 -1.4794 0
M  V30 4657 H 420 3.66586 -1.28636 0
M  V30 4658 H 421.672 2.72635 -3.72112 0
M  V30 4659 H 419.915 2.50751 -3.53986 0
M  V30 4660 H 420.586 4.13728 -3.65422 0
M  V30 4661 H 423.062 3.76913 -1.76284 0
M  V30 4662 H 421.938 5.14391 -1.91553 0
M  V30 4663 H 422.199 4.40774 -0.342193 0
M  V30 4664 N 421.258 1.00505 1.21394 0
M  V30 4665 C 422.221 0.570459 2.21987 0
M  V30 4666 C 423.221 -0.353211 1.56873 0
M  V30 4667 O 424.411 -0.14349 1.73608 0
M  V30 4668 C 421.543 -0.168555 3.40483 0
M  V30 4669 H 422.736 1.46021 2.6195 0
M  V30 4670 H 420.289 0.793565 1.34656 0
M  V30 4671 H 421.024 -1.07374 3.06009 0
M  V30 4672 H 420.809 0.494823 3.88965 0
M  V30 4673 H 422.299 -0.460362 4.15055 0
M  V30 4674 N 422.737 -1.36956 0.779787 0
M  V30 4675 C 423.667 -2.32761 0.185651 0
M  V30 4676 C 424.648 -1.56177 -0.673989 0
M  V30 4677 O 425.833 -1.84378 -0.609797 0
M  V30 4678 C 422.963 -3.40418 -0.687964 0
M  V30 4679 C 421.917 -4.27941 0.0710102 0
M  V30 4680 C 421.243 -5.26681 -0.922573 0
M  V30 4681 C 422.543 -5.07006 1.25467 0
M  V30 4682 H 424.237 -2.82698 0.986008 0
M  V30 4683 H 421.783 -1.3592 0.475592 0
M  V30 4684 H 423.736 -4.06423 -1.11348 0
M  V30 4685 H 422.46 -2.89025 -1.52093 0
M  V30 4686 H 421.119 -3.63478 0.47739 0
M  V30 4687 H 420.767 -4.71565 -1.7503 0
M  V30 4688 H 420.467 -5.86103 -0.419237 0
M  V30 4689 H 421.991 -5.9556 -1.34686 0
M  V30 4690 H 423.405 -5.66105 0.905401 0
M  V30 4691 H 421.802 -5.75793 1.69063 0
M  V30 4692 H 422.872 -4.3921 2.05481 0
M  V30 4693 N 424.215 -0.530993 -1.48385 0
M  V30 4694 C 425.461 0.00274135 -2.028 0
M  V30 4695 C 425.794 1.33838 -1.40716 0
M  V30 4696 O 425.069 1.86465 -0.553277 0
M  V30 4697 C 425.352 0.123676 -3.59888 0
M  V30 4698 C 425.205 -1.2372 -4.3245 0
M  V30 4699 C 426.524 0.849967 -4.31814 0
M  V30 4700 H 423.643 -0.000477758 -0.737 0
M  V30 4701 H 426.285 -0.688217 -1.77098 0
M  V30 4702 H 424.435 0.712157 -3.81917 0
M  V30 4703 H 426.107 -1.86687 -4.21836 0
M  V30 4704 H 424.35 -1.81882 -3.93829 0
M  V30 4705 H 425.021 -1.10557 -5.40815 0
M  V30 4706 H 427.497 0.350572 -4.14621 0
M  V30 4707 H 426.373 0.903486 -5.41413 0
M  V30 4708 H 426.634 1.90047 -3.99167 0
M  V30 4709 N 425.693 1.55336 -0.266172 0
M  V30 4710 C 426.64 2.22172 0.625165 0
M  V30 4711 C 427.61 1.19211 1.15663 0
M  V30 4712 O 428.795 1.47723 1.20758 0
M  V30 4713 C 425.935 2.93972 1.8076 0
M  V30 4714 C 425.048 4.11632 1.31084 0
M  V30 4715 C 424.183 4.71099 2.45436 0
M  V30 4716 C 423.222 5.8097 1.92718 0
M  V30 4717 N 422.359 6.34538 3.00509 0
M  V30 4718 H 427.199 2.9796 0.0485582 0
M  V30 4719 H 424.736 1.47095 0.0122024 0
M  V30 4720 H 426.694 3.33811 2.50251 0
M  V30 4721 H 425.324 2.20623 2.35638 0
M  V30 4722 H 424.376 3.76975 0.509326 0
M  V30 4723 H 425.688 4.90893 0.884633 0
M  V30 4724 H 424.842 5.13612 3.22936 0
M  V30 4725 H 423.581 3.91096 2.91368 0
M  V30 4726 H 422.586 5.37916 1.13695 0
M  V30 4727 H 423.811 6.62836 1.47733 0
M  V30 4728 H 421.757 5.57433 3.45839 0
M  V30 4729 H 421.674 7.09046 2.62279 0
M  V30 4730 H 422.942 6.81709 3.78011 0
M  V30 4731 N 427.171 -0.0066808 1.57599 0
M  V30 4732 C 428.121 -1.0086 2.04478 0
M  V30 4733 C 429.105 -1.30714 0.938231 0
M  V30 4734 O 430.297 -1.29924 1.20203 0
M  V30 4735 C 427.426 -2.30273 2.54615 0
M  V30 4736 C 426.512 -2.03413 3.72134 0
M  V30 4737 N 426.903 -1.46688 4.84062 0
M  V30 4738 C 425.201 -2.33589 3.79937 0
M  V30 4739 C 425.902 -1.36146 5.65543 0
M  V30 4740 N 424.878 -1.84477 5.1134 0
M  V30 4741 H 428.68 -0.564402 2.8843 0
M  V30 4742 H 426.194 -0.212521 1.61003 0
M  V30 4743 H 428.191 -3.02885 2.86472 0
M  V30 4744 H 426.851 -2.75352 1.72079 0
M  V30 4745 H 427.862 -1.14658 5.05049 0
M  V30 4746 H 424.539 -2.81589 3.08243 0
M  V30 4747 H 425.929 -0.925873 6.6549 0
M  V30 4748 N 428.649 -1.55105 -0.279332 0
M  V30 4749 C 429.579 -1.90557 -1.34945 0
M  V30 4750 C 430.56 -0.766738 -1.51839 0
M  V30 4751 O 431.745 -1.02434 -1.64988 0
M  V30 4752 C 428.875 -2.17193 -2.71006 0
M  V30 4753 C 427.829 -3.33021 -2.68851 0
M  V30 4754 C 427.155 -3.45123 -4.08405 0
M  V30 4755 C 428.455 -4.69578 -2.28678 0
M  V30 4756 H 430.149 -2.80188 -1.05522 0
M  V30 4757 H 427.695 -1.34811 -0.506173 0
M  V30 4758 H 429.648 -2.40581 -3.45975 0
M  V30 4759 H 428.372 -1.24355 -3.01999 0
M  V30 4760 H 427.031 -3.0959 -1.9634 0
M  V30 4761 H 426.679 -2.49762 -4.3661 0
M  V30 4762 H 426.379 -4.22995 -4.07859 0
M  V30 4763 H 427.903 -3.70796 -4.85121 0
M  V30 4764 H 429.317 -4.92553 -2.93368 0
M  V30 4765 H 427.714 -5.5032 -2.39306 0
M  V30 4766 H 428.784 -4.68828 -1.23807 0
M  V30 4767 N 430.127 0.543554 -1.4793 0
M  V30 4768 C 431.352 1.32995 -1.59145 0
M  V30 4769 C 431.777 1.86472 -0.246956 0
M  V30 4770 O 431.135 1.63696 0.779324 0
M  V30 4771 C 431.183 2.46623 -2.63077 0
M  V30 4772 O 430.287 3.49261 -2.19295 0
M  V30 4773 H 429.628 0.394472 -0.534124 0
M  V30 4774 H 432.158 0.655489 -1.93816 0
M  V30 4775 H 432.168 2.93001 -2.83926 0
M  V30 4776 H 430.843 2.07059 -3.60693 0
M  V30 4777 H 429.42 3.09094 -2.08603 0
M  V30 4778 N 431.605 1.3629 0.791371 0
M  V30 4779 C 432.552 1.30458 1.90393 0
M  V30 4780 C 433.522 0.173632 1.6519 0
M  V30 4781 O 434.707 0.35983 1.87376 0
M  V30 4782 C 431.847 1.09777 3.27174 0
M  V30 4783 C 430.96 2.31929 3.64462 0
M  V30 4784 C 430.095 2.04276 4.90352 0
M  V30 4785 C 429.134 3.224 5.20312 0
M  V30 4786 N 428.271 2.94424 6.37385 0
M  V30 4787 H 433.111 2.25589 1.94714 0
M  V30 4788 H 430.648 1.12122 0.952216 0
M  V30 4789 H 432.606 0.958133 4.06049 0
M  V30 4790 H 431.236 0.183014 3.22281 0
M  V30 4791 H 430.288 2.56703 2.80727 0
M  V30 4792 H 431.6 3.20085 3.82553 0
M  V30 4793 H 430.754 1.87231 5.77087 0
M  V30 4794 H 429.493 1.13428 4.74326 0
M  V30 4795 H 428.498 3.40005 4.32061 0
M  V30 4796 H 429.723 4.14071 5.38258 0
M  V30 4797 H 427.669 2.06185 6.22755 0
M  V30 4798 H 427.586 3.76118 6.55798 0
M  V30 4799 H 428.854 2.80953 7.27108 0
M  V30 4800 N 433.083 -1.0153 1.20538 0
M  V30 4801 C 434.016 -2.09759 0.898695 0
M  V30 4802 C 434.994 -1.61909 -0.149733 0
M  V30 4803 O 436.178 -1.88486 -0.0230293 0
M  V30 4804 C 433.305 -3.36913 0.347512 0
M  V30 4805 C 432.351 -4.03655 1.37713 0
M  V30 4806 S 433.184 -4.47402 2.94265 0
M  V30 4807 C 434.34 -5.77756 2.40726 0
M  V30 4808 H 434.573 -2.3545 1.81523 0
M  V30 4809 H 432.106 -1.14665 1.03399 0
M  V30 4810 H 434.064 -4.10484 0.0360518 0
M  V30 4811 H 432.725 -3.09291 -0.547546 0
M  V30 4812 H 431.918 -4.9514 0.940872 0
M  V30 4813 H 431.52 -3.36313 1.63614 0
M  V30 4814 H 433.812 -6.52994 1.80569 0
M  V30 4815 H 434.755 -6.2618 3.30612 0
M  V30 4816 H 435.163 -5.34081 1.82806 0
M  V30 4817 N 434.561 -1.01147 -1.20859 0
M  V30 4818 C 435.808 -0.697865 -1.90095 0
M  V30 4819 C 436.136 0.772014 -1.78522 0
M  V30 4820 O 435.391 1.57595 -1.16027 0
M  V30 4821 C 435.69 -1.0727 -3.40922 0
M  V30 4822 C 435.356 -2.53792 -3.72693 0
M  V30 4823 C 434.018 -2.93829 -3.81075 0
M  V30 4824 C 436.37 -3.48674 -3.87397 0
M  V30 4825 C 433.698 -4.27696 -4.01613 0
M  V30 4826 C 436.05 -4.82223 -4.09444 0
M  V30 4827 C 434.714 -5.21973 -4.16054 0
M  V30 4828 H 433.984 -0.255367 -0.695607 0
M  V30 4829 H 436.631 -1.27111 -1.43231 0
M  V30 4830 H 434.936 -0.417799 -3.89566 0
M  V30 4831 H 436.633 -0.807818 -3.92779 0
M  V30 4832 H 433.223 -2.21768 -3.66765 0
M  V30 4833 H 437.407 -3.18904 -3.80281 0
M  V30 4834 H 432.663 -4.58055 -4.04964 0
M  V30 4835 H 436.837 -5.55672 -4.19763 0
M  V30 4836 H 434.464 -6.25717 -4.31721 0
M  V30 4837 N 436.039 1.36541 -0.78704 0
M  V30 4838 C 436.986 2.30082 -0.181901 0
M  V30 4839 C 437.956 1.5186 0.672896 0
M  V30 4840 O 439.141 1.80374 0.622072 0
M  V30 4841 C 436.281 3.3835 0.679197 0
M  V30 4842 C 435.394 4.31565 -0.193882 0
M  V30 4843 C 434.529 5.26915 0.673364 0
M  V30 4844 C 433.568 6.11769 -0.201315 0
M  V30 4845 N 432.705 6.99315 0.624777 0
M  V30 4846 H 437.545 2.81248 -0.985064 0
M  V30 4847 H 435.082 1.38437 -0.497342 0
M  V30 4848 H 437.04 3.99767 1.19341 0
M  V30 4849 H 435.67 2.8851 1.44781 0
M  V30 4850 H 434.722 3.71323 -0.826044 0
M  V30 4851 H 436.034 4.91191 -0.867937 0
M  V30 4852 H 435.188 5.9361 1.25348 0
M  V30 4853 H 433.927 4.67737 1.38105 0
M  V30 4854 H 432.932 5.44039 -0.793849 0
M  V30 4855 H 434.157 6.73022 -0.906568 0
M  V30 4856 H 432.103 6.42648 1.3168 0
M  V30 4857 H 432.02 7.56 0.00835237 0
M  V30 4858 H 433.288 7.70382 1.18879 0
M  V30 4859 N 437.518 0.538854 1.48102 0
M  V30 4860 C 438.428 -0.222648 2.33541 0
M  V30 4861 C 439.444 -0.930225 1.47047 0
M  V30 4862 O 440.62 -0.903211 1.80011 0
M  V30 4863 C 437.685 -1.25064 3.23357 0
M  V30 4864 C 436.746 -0.552469 4.2573 0
M  V30 4865 C 435.979 -1.53149 5.11254 0
M  V30 4866 O 436.202 -2.76487 4.9891 0
M  V30 4867 O 435.136 -1.06602 5.92385 0
M  V30 4868 H 438.962 0.477707 2.99919 0
M  V30 4869 H 436.547 0.299669 1.46364 0
M  V30 4870 H 438.429 -1.8445 3.78888 0
M  V30 4871 H 437.104 -1.93325 2.59629 0
M  V30 4872 H 436.011 0.082114 3.7401 0
M  V30 4873 H 437.344 0.0883526 4.92121 0
M  V30 4874 N 438.996 -1.55193 0.274407 0
M  V30 4875 C 439.906 -2.26164 -0.623473 0
M  V30 4876 C 440.922 -1.28729 -1.17068 0
M  V30 4877 O 442.098 -1.61663 -1.20112 0
M  V30 4878 C 439.163 -2.96833 -1.7914 0
M  V30 4879 C 438.224 -4.09745 -1.28093 0
M  V30 4880 C 437.457 -4.77034 -2.3932 0
M  V30 4881 O 437.68 -4.4353 -3.5866 0
M  V30 4882 O 436.614 -5.64996 -2.07516 0
M  V30 4883 H 440.44 -3.03661 -0.0485661 0
M  V30 4884 H 438.025 -1.49341 0.0418382 0
M  V30 4885 H 439.907 -3.41248 -2.4724 0
M  V30 4886 H 438.582 -2.22253 -2.35341 0
M  V30 4887 H 437.489 -3.69787 -0.566416 0
M  V30 4888 H 438.822 -4.86224 -0.764683 0
M  V30 4889 N 440.474 -0.00167713 -1.576 0
M  V30 4890 C 441.422 1.0074 -2.09652 0
M  V30 4891 C 442.416 1.35483 -1.01689 0
M  V30 4892 O 443.622 1.34028 -1.20152 0
M  V30 4893 H 439.997 0.342537 -0.669457 0
M  V30 4894 H 441.968 0.542841 -2.93421 0
M  V30 4895 C 440.717 2.2899 -2.61647 0
M  V30 4896 H 440.04 2.03124 -3.44355 0
M  V30 4897 H 441.48 2.9787 -3.01744 0
M  V30 4898 C 439.939 3.00085 -1.53136 0
M  V30 4899 O 440.469 3.91135 -0.91524 0
M  V30 4900 N 438.675 2.6194 -1.25841 0
M  V30 4901 H 438.222 1.8798 -1.76129 0
M  V30 4902 H 438.18 3.09822 -0.534576 0
M  V30 4903 N 441.952 1.55251 0.271103 0
M  V30 4904 C 442.862 1.9136 1.35714 0
M  V30 4905 C 443.878 0.811075 1.5394 0
M  V30 4906 O 445.054 1.11031 1.6803 0
M  V30 4907 C 442.119 2.1798 2.69603 0
M  V30 4908 C 441.18 3.4153 2.60107 0
M  V30 4909 C 440.413 3.66871 3.8761 0
M  V30 4910 O 440.636 2.94689 4.8838 0
M  V30 4911 O 439.57 4.60405 3.87699 0
M  V30 4912 H 443.396 2.83815 1.08088 0
M  V30 4913 H 440.981 1.41821 0.469792 0
M  V30 4914 H 442.863 2.36518 3.48765 0
M  V30 4915 H 441.538 1.28708 2.97012 0
M  V30 4916 H 440.445 3.28325 1.79314 0
M  V30 4917 H 441.778 4.31027 2.37647 0
M  V30 4918 O 443.469 -0.416875 1.56027 0
M  V30 4919 H 444.16 -1.06974 1.61481 0
M  V30 END ATOM
M  V30 BEGIN BOND
M  V30 END BOND
M  V30 END CTAB
M  END
$$$$
