drugbank_target|P22749 Granulysin (DB03434)
 OpenBabel12092120023D

  0  0  0     0  0            999 V3000
M  V30 BEGIN CTAB
M  V30 COUNTS 2315 2332 0 0 0
M  V30 BEGIN ATOM
M  V30 1 H -0.908 1.98254 -0.117106 0
M  V30 2 N 0 1.576 0 0
M  V30 3 C 0.933 2.03868 1.02534 0
M  V30 4 C 1.911 0.928543 1.3348 0
M  V30 5 O 3.095 1.19667 1.45644 0
M  V30 6 C 0.222 2.43627 2.35294 0
M  V30 7 C -0.732 3.65373 2.2001 0
M  V30 8 S 0.101 5.13292 1.52614 0
M  V30 9 C 1.257 5.56322 2.86805 0
M  V30 10 H 1.49 2.90518 0.631377 0
M  V30 11 H -0.977 1.52953 0.210867 0
M  V30 12 H 0.981 2.67203 3.11629 0
M  V30 13 H -0.358 1.57376 2.7183 0
M  V30 14 H -1.165 3.90944 3.18086 0
M  V30 15 H -1.563 3.418 1.51819 0
M  V30 16 H 0.729 5.58782 3.83104 0
M  V30 17 H 1.672 6.56266 2.65933 0
M  V30 18 H 2.08 4.83886 2.90714 0
M  V30 19 N 1.4781 -0.272755 1.55222 0
M  V30 20 C 2.4411 -1.32041 1.87344 0
M  V30 21 C 3.4411 -1.42342 0.74803 0
M  V30 22 O 4.6311 -1.41488 1.0162 0
M  V30 23 C 1.7631 -2.70173 2.07893 0
M  V30 24 H 2.9561 -1.04789 2.80997 0
M  V30 25 H 0.5091 -0.51083 1.47717 0
M  V30 26 H 1.2441 -3.02605 1.16622 0
M  V30 27 H 1.0291 -2.64082 2.89833 0
M  V30 28 H 2.5191 -3.45869 2.34017 0
M  V30 29 N 2.9562 -1.48159 -0.537278 0
M  V30 30 C 4.1842 -1.59454 -1.31841 0
M  V30 31 C 4.5992 -0.252065 -1.8711 0
M  V30 32 O 3.9562 0.757621 -1.66031 0
M  V30 33 C 4.0072 -2.63546 -2.47439 0
M  V30 34 O 3.7282 -3.92583 -1.94449 0
M  V30 35 C 5.2292 -2.85212 -3.39366 0
M  V30 36 H 2.4492 -0.53785 -0.401196 0
M  V30 37 H 4.9932 -1.93932 -0.648891 0
M  V30 38 H 3.1482 -2.31946 -3.1029 0
M  V30 39 H 3.5622 -4.49629 -2.70063 0
M  V30 40 H 5.0362 -3.61863 -4.16844 0
M  V30 41 H 5.5132 -1.93765 -3.94147 0
M  V30 42 H 6.1192 -3.18086 -2.82314 0
M  V30 43 N 4.4343 0.785586 -1.36625 0
M  V30 44 C 5.6803 1.5452 -1.32269 0
M  V30 45 C 6.0353 1.92159 0.0962266 0
M  V30 46 O 5.3283 1.60158 1.05167 0
M  V30 47 C 5.5223 2.83007 -2.1827 0
M  V30 48 C 5.3513 2.57925 -3.68382 0
M  V30 49 C 4.1213 2.52752 -4.37544 0
M  V30 50 C 6.3193 2.26861 -4.61561 0
M  V30 51 N 4.3013 2.19608 -5.73276 0
M  V30 52 C 5.6723 2.03738 -5.85569 0
M  V30 53 C 7.7273 2.129 -4.50087 0
M  V30 54 C 6.4303 1.68065 -6.9939 0
M  V30 55 C 8.4563 1.78626 -5.63779 0
M  V30 56 C 7.8183 1.56353 -6.86828 0
M  V30 57 H 3.9173 0.566301 -0.539283 0
M  V30 58 H 6.5013 0.917736 -1.71714 0
M  V30 59 H 4.6723 3.43614 -1.81063 0
M  V30 60 H 6.4043 3.48775 -2.05275 0
M  V30 61 H 3.1593 2.6813 -3.90389 0
M  V30 62 H 3.5833 2.05771 -6.44971 0
M  V30 63 H 8.2253 2.28808 -3.55537 0
M  V30 64 H 5.9433 1.50895 -7.93887 0
M  V30 65 H 9.5293 1.68502 -5.56865 0
M  V30 66 H 8.4093 1.30223 -7.73312 0
M  V30 67 N 5.9124 1.20967 1.01018 0
M  V30 68 C 6.8754 0.965918 2.07853 0
M  V30 69 C 7.8754 -0.0610545 1.60684 0
M  V30 70 O 9.0654 0.175681 1.73312 0
M  V30 71 C 6.1974 0.455513 3.37843 0
M  V30 72 H 7.3904 1.91365 2.3091 0
M  V30 73 H 4.9434 1.02594 1.17916 0
M  V30 74 H 5.6784 -0.497381 3.20463 0
M  V30 75 H 5.4634 1.19622 3.73407 0
M  V30 76 H 6.9534 0.304667 4.16487 0
M  V30 77 N 7.3905 -1.2043 1.01659 0
M  V30 78 C 8.3205 -2.25466 0.607226 0
M  V30 79 C 9.3015 -1.65853 -0.377716 0
M  V30 80 O 10.4865 -1.92409 -0.263149 0
M  V30 81 C 7.6165 -3.47256 -0.0552949 0
M  V30 82 C 6.5705 -4.19462 0.850632 0
M  V30 83 C 5.8965 -5.34673 0.0538859 0
M  V30 84 C 7.1965 -4.75603 2.15868 0
M  V30 85 H 8.8905 -2.59962 1.48526 0
M  V30 86 H 6.4365 -1.2496 0.715605 0
M  V30 87 H 8.3895 -4.19917 -0.353233 0
M  V30 88 H 7.1135 -3.11924 -0.968045 0
M  V30 89 H 5.7725 -3.48667 1.13257 0
M  V30 90 H 5.4205 -4.95585 -0.860514 0
M  V30 91 H 5.1205 -5.83913 0.657192 0
M  V30 92 H 6.6445 -6.10138 -0.237598 0
M  V30 93 H 8.0585 -5.40083 1.92311 0
M  V30 94 H 6.4555 -5.3528 2.71284 0
M  V30 95 H 7.5255 -3.94346 2.82169 0
M  V30 96 N 8.8686 -0.792821 -1.36206 0
M  V30 97 C 9.7986 -0.207853 -2.32573 0
M  V30 98 C 10.7796 0.659055 -1.56813 0
M  V30 99 O 11.9646 0.592176 -1.84951 0
M  V30 100 C 9.0946 0.655449 -3.41059 0
M  V30 101 C 8.0486 -0.111842 -4.27854 0
M  V30 102 C 7.3746 0.872274 -5.27537 0
M  V30 103 C 8.6746 -1.30299 -5.05786 0
M  V30 104 H 10.3686 -1.01294 -2.81744 0
M  V30 105 H 7.9146 -0.48854 -1.3546 0
M  V30 106 H 9.8676 1.07464 -4.07467 0
M  V30 107 H 8.5916 1.49328 -2.90463 0
M  V30 108 H 7.2506 -0.512053 -3.63006 0
M  V30 109 H 6.8986 1.70523 -4.73214 0
M  V30 110 H 6.5986 0.363291 -5.86476 0
M  V30 111 H 8.1226 1.28996 -5.96818 0
M  V30 112 H 9.5366 -0.959379 -5.65216 0
M  V30 113 H 7.9336 -1.7455 -5.74154 0
M  V30 114 H 9.0036 -2.09663 -4.37229 0
M  V30 115 N 10.3467 1.47872 -0.545128 0
M  V30 116 C 11.2767 2.32661 0.197793 0
M  V30 117 C 12.2577 1.43041 0.920504 0
M  V30 118 O 13.4427 1.71912 0.90333 0
M  V30 119 C 10.5727 3.24569 1.23582 0
M  V30 120 C 9.5267 4.23333 0.630323 0
M  V30 121 C 8.8527 5.0448 1.77211 0
M  V30 122 C 10.1527 5.20704 -0.407974 0
M  V30 123 H 11.8467 2.95024 -0.510045 0
M  V30 124 H 9.3927 1.4187 -0.246731 0
M  V30 125 H 11.3457 3.8272 1.76362 0
M  V30 126 H 10.0697 2.60236 1.97344 0
M  V30 127 H 8.7287 3.6639 0.123922 0
M  V30 128 H 8.3767 4.36561 2.49847 0
M  V30 129 H 8.0767 5.71339 1.37281 0
M  V30 130 H 9.6007 5.65487 2.3034 0
M  V30 131 H 11.0147 5.7329 0.033305 0
M  V30 132 H 9.4117 5.95699 -0.725486 0
M  V30 133 H 10.4817 4.66917 -1.30828 0
M  V30 134 N 11.8248 0.280983 1.55075 0
M  V30 135 C 12.7548 -0.597469 2.25727 0
M  V30 136 C 13.7358 -1.15417 1.24952 0
M  V30 137 O 14.9208 -1.18722 1.53684 0
M  V30 138 C 12.0508 -1.7789 2.98283 0
M  V30 139 C 11.0048 -1.35347 4.06036 0
M  V30 140 C 10.3308 -2.61846 4.66198 0
M  V30 141 C 11.6308 -0.499354 5.19907 0
M  V30 142 H 13.3248 -0.00824265 2.99399 0
M  V30 143 H 10.8708 -0.0025244 1.44 0
M  V30 144 H 12.8238 -2.39937 3.46422 0
M  V30 145 H 11.5478 -2.39405 2.22155 0
M  V30 146 H 10.2068 -0.756156 3.58717 0
M  V30 147 H 9.8548 -3.21632 3.86732 0
M  V30 148 H 9.5548 -2.3409 5.38958 0
M  V30 149 H 11.0788 -3.24732 5.1709 0
M  V30 150 H 12.4928 -1.02498 5.64063 0
M  V30 151 H 10.8898 -0.316424 5.99265 0
M  V30 152 H 11.9598 0.480459 4.82514 0
M  V30 153 N 13.3029 -1.57598 0.00835791 0
M  V30 154 C 14.2659 -2.07884 -0.965242 0
M  V30 155 C 15.2659 -0.989825 -1.26725 0
M  V30 156 O 16.4559 -1.25218 -1.21104 0
M  V30 157 C 13.5879 -2.52731 -2.28779 0
M  V30 158 H 14.7809 -2.95178 -0.530112 0
M  V30 159 H 12.3339 -1.54458 -0.239283 0
M  V30 160 H 13.0689 -1.68705 -2.76964 0
M  V30 161 H 12.8539 -3.32272 -2.08177 0
M  V30 162 H 14.3439 -2.91933 -2.98605 0
M  V30 163 N 14.781 0.264519 -1.55364 0
M  V30 164 C 15.744 1.31046 -1.88042 0
M  V30 165 C 16.744 1.41943 -0.755569 0
M  V30 166 O 17.934 1.40947 -1.02369 0
M  V30 167 C 15.066 2.69067 -2.09323 0
M  V30 168 H 16.259 1.03297 -2.81549 0
M  V30 169 H 13.812 0.502989 -1.47986 0
M  V30 170 H 14.547 3.01982 -1.18226 0
M  V30 171 H 14.332 2.62542 -2.91229 0
M  V30 172 H 15.822 3.44623 -2.35848 0
M  V30 173 N 16.2591 1.48442 0.529413 0
M  V30 174 C 17.1921 1.57577 1.65059 0
M  V30 175 C 18.1701 0.426198 1.56915 0
M  V30 176 O 19.3541 0.637877 1.77379 0
M  V30 177 C 16.4811 1.5043 3.03461 0
M  V30 178 C 15.5271 2.70235 3.29962 0
M  V30 179 S 16.3601 4.32198 3.16172 0
M  V30 180 C 17.5161 4.2765 4.57019 0
M  V30 181 H 17.7491 2.52427 1.5706 0
M  V30 182 H 15.2821 1.36982 0.712417 0
M  V30 183 H 17.2401 1.46992 3.8328 0
M  V30 184 H 15.9011 0.569167 3.089 0
M  V30 185 H 15.0941 2.61374 4.30929 0
M  V30 186 H 14.6961 2.70938 2.57815 0
M  V30 187 H 16.9881 3.97618 5.48549 0
M  V30 188 H 17.9311 5.28797 4.70934 0
M  V30 189 H 18.3391 3.5811 4.36368 0
M  V30 190 N 17.7372 -0.778329 1.37039 0
M  V30 191 C 18.6672 -1.90546 1.34962 0
M  V30 192 C 19.6482 -1.68681 0.219274 0
M  V30 193 O 20.8332 -1.89634 0.418624 0
M  V30 194 C 17.9632 -3.27734 1.14925 0
M  V30 195 C 16.9172 -3.64147 2.24902 0
M  V30 196 C 16.2432 -4.99806 1.89996 0
M  V30 197 C 17.5432 -3.71579 3.67051 0
M  V30 198 H 19.2372 -1.92541 2.29277 0
M  V30 199 H 16.7832 -0.924948 1.10366 0
M  V30 200 H 18.7362 -4.06215 1.12104 0
M  V30 201 H 17.4602 -3.26154 0.170631 0
M  V30 202 H 16.1192 -2.8797 2.26868 0
M  V30 203 H 15.7672 -4.94759 0.906796 0
M  V30 204 H 15.4672 -5.25139 2.63634 0
M  V30 205 H 16.9912 -5.80694 1.88749 0
M  V30 206 H 18.4052 -4.40227 3.67251 0
M  V30 207 H 16.8022 -4.08405 4.39688 0
M  V30 208 H 17.8722 -2.72404 4.01154 0
M  V30 209 N 19.2153 -1.21501 -1.00376 0
M  V30 210 C 20.1453 -0.999478 -2.11028 0
M  V30 211 C 21.1263 0.0759671 -1.6993 0
M  V30 212 O 22.3113 -0.0841106 -1.94018 0
M  V30 213 C 19.4413 -0.564709 -3.42678 0
M  V30 214 C 18.3953 -1.58486 -3.97576 0
M  V30 215 C 17.7213 -1.00628 -5.25146 0
M  V30 216 C 19.0213 -2.97204 -4.29496 0
M  V30 217 H 20.7153 -1.92495 -2.29317 0
M  V30 218 H 18.2613 -0.92693 -1.102 0
M  V30 219 H 20.2143 -0.401091 -4.19487 0
M  V30 220 H 18.9383 0.396411 -3.24185 0
M  V30 221 H 17.5973 -1.73606 -3.22888 0
M  V30 222 H 17.2453 -0.0368439 -5.02987 0
M  V30 223 H 16.9453 -1.68771 -5.62841 0
M  V30 224 H 18.4693 -0.854015 -6.04598 0
M  V30 225 H 19.8833 -2.8552 -4.97143 0
M  V30 226 H 18.2803 -3.62372 -4.78338 0
M  V30 227 H 19.3503 -3.47956 -3.3772 0
M  V30 228 N 20.6934 1.19889 -1.02296 0
M  V30 229 C 21.9414 1.89046 -0.714558 0
M  V30 230 C 22.2624 1.79636 0.758681 0
M  V30 231 O 21.5324 1.20292 1.54618 0
M  V30 232 H 20.1124 0.699802 -0.261317 0
M  V30 233 H 22.7744 1.45574 -1.29592 0
M  V30 234 H 21.8704 2.95524 -1.0036 0
M  V30 235 N 22.1715 0.800033 1.35784 0
M  V30 236 C 23.1195 0.193851 2.31791 0
M  V30 237 C 24.1135 -0.652744 1.56319 0
M  V30 238 O 25.3195 -0.546641 1.71499 0
M  V30 239 H 21.6945 0.04392 0.750716 0
M  V30 240 H 23.6655 1.01883 2.80468 0
M  V30 241 C 22.4145 -0.648338 3.41602 0
M  V30 242 H 21.7375 -0.00624665 3.998 0
M  V30 243 H 23.1775 -1.03898 4.11073 0
M  V30 244 C 21.6365 -1.8111 2.84079 0
M  V30 245 O 22.1665 -2.90825 2.77099 0
M  V30 246 N 20.3725 -1.62056 2.41218 0
M  V30 247 H 19.9195 -0.728123 2.47095 0
M  V30 248 H 19.8775 -2.40013 2.03079 0
M  V30 249 N 23.6496 -1.47581 0.552962 0
M  V30 250 C 25.0606 -1.86324 0.118463 0
M  V30 251 C 25.4116 -1.46006 -1.3106 0
M  V30 252 O 24.5366 -0.861182 -1.98526 0
M  V30 253 C 25.1316 -3.3816 0.20821 0
M  V30 254 C 23.6906 -3.7601 -0.171226 0
M  V30 255 C 22.8376 -2.71634 0.557686 0
M  V30 256 H 25.7886 -1.39159 0.762928 0
M  V30 257 H 25.8096 -3.76141 -0.574278 0
M  V30 258 H 25.3216 -3.67473 1.24841 0
M  V30 259 H 23.4226 -3.52313 -1.21269 0
M  V30 260 H 23.5356 -4.78745 0.184379 0
M  V30 261 H 21.8996 -2.547 0.00125792 0
M  V30 262 H 22.6826 -3.0379 1.59896 0
M  V30 263 N 25.1277 -0.289203 -1.54924 0
M  V30 264 C 26.3757 0.322879 -1.99504 0
M  V30 265 C 26.6967 1.55313 -1.1791 0
M  V30 266 O 25.9667 1.94001 -0.272097 0
M  V30 267 H 24.5467 0.122291 -0.736922 0
M  V30 268 H 27.2087 -0.397802 -1.90797 0
M  V30 269 H 26.3047 0.603061 -3.06218 0
M  V30 270 N 26.6058 1.57591 -0.0167156 0
M  V30 271 C 27.5358 2.12496 0.967858 0
M  V30 272 C 28.5168 1.03807 1.34752 0
M  V30 273 O 29.7018 1.31577 1.42833 0
M  V30 274 C 26.8318 2.64194 2.25431 0
M  V30 275 C 25.7858 3.77559 2.01576 0
M  V30 276 C 25.1118 4.15636 3.36379 0
M  V30 277 C 26.4118 5.04151 1.36489 0
M  V30 278 H 28.1058 2.95013 0.510643 0
M  V30 279 H 25.6518 1.41915 0.244181 0
M  V30 280 H 27.6048 3.01236 2.94678 0
M  V30 281 H 26.3288 1.78821 2.73296 0
M  V30 282 H 24.9878 3.40937 1.34751 0
M  V30 283 H 24.6358 3.27263 3.81979 0
M  V30 284 H 24.3358 4.92022 3.21229 0
M  V30 285 H 25.8598 4.5525 4.06915 0
M  V30 286 H 27.2738 5.38857 1.95718 0
M  V30 287 H 25.6708 5.85453 1.31776 0
M  V30 288 H 26.7408 4.83733 0.336219 0
M  V30 289 N 28.0839 -0.256276 1.55502 0
M  V30 290 C 29.3299 -0.987079 1.77157 0
M  V30 291 C 29.6629 -1.85327 0.580315 0
M  V30 292 O 28.9379 -1.89874 -0.421686 0
M  V30 293 C 29.2209 -1.85553 3.08613 0
M  V30 294 C 29.0739 -1.01816 4.38125 0
M  V30 295 C 30.3929 -2.8397 3.36228 0
M  V30 296 H 27.5119 -0.357428 0.644526 0
M  V30 297 H 30.1539 -0.258239 1.88237 0
M  V30 298 H 28.3039 -2.47695 2.99298 0
M  V30 299 H 29.9759 -0.416159 4.59419 0
M  V30 300 H 28.2189 -0.322178 4.32602 0
M  V30 301 H 28.8899 -1.65939 5.26468 0
M  V30 302 H 31.3659 -2.31964 3.45445 0
M  V30 303 H 30.2419 -3.41864 4.29442 0
M  V30 304 H 30.5029 -3.59955 2.56681 0
M  V30 305 N 29.562 -1.4872 -0.521534 0
M  V30 306 C 30.809 -1.57168 -1.27689 0
M  V30 307 C 31.137 -0.249275 -1.92896 0
M  V30 308 O 30.392 0.761162 -1.80291 0
M  V30 309 C 30.691 -2.66497 -2.38148 0
M  V30 310 C 30.357 -4.08664 -1.90538 0
M  V30 311 C 29.019 -4.47357 -1.77271 0
M  V30 312 C 31.371 -4.97724 -1.54663 0
M  V30 313 C 28.699 -5.72905 -1.26478 0
M  V30 314 C 31.051 -6.2377 -1.05329 0
M  V30 315 C 29.715 -6.61311 -0.906861 0
M  V30 316 H 28.985 -0.575117 -0.467249 0
M  V30 317 H 31.632 -1.82472 -0.581051 0
M  V30 318 H 29.937 -2.35085 -3.13437 0
M  V30 319 H 31.634 -2.70246 -2.96257 0
M  V30 320 H 28.224 -3.78111 -2.01816 0
M  V30 321 H 32.408 -4.68501 -1.63768 0
M  V30 322 H 27.664 -6.00709 -1.13835 0
M  V30 323 H 31.838 -6.9217 -0.76644 0
M  V30 324 H 29.465 -7.5848 -0.511083 0
M  V30 325 N 31.0401 0.771051 -1.3745 0
M  V30 326 C 32.2651 1.56529 -1.36065 0
M  V30 327 C 32.6901 1.88029 0.0515859 0
M  V30 328 O 32.0481 1.49282 1.02882 0
M  V30 329 C 32.0961 2.85187 -2.20683 0
M  V30 330 O 31.2001 3.79593 -1.61193 0
M  V30 331 H 30.5411 0.47411 -0.464883 0
M  V30 332 H 33.0711 0.954269 -1.80983 0
M  V30 333 H 33.0811 3.34283 -2.33921 0
M  V30 334 H 31.7561 2.61588 -3.23334 0
M  V30 335 H 30.3331 3.38239 -1.56999 0
M  V30 336 N 32.5182 1.22032 0.997298 0
M  V30 337 C 33.9342 0.979326 1.26021 0
M  V30 338 C 34.1342 -0.32972 1.98784 0
M  V30 339 O 33.1902 -1.05345 2.29475 0
M  V30 340 C 34.5032 2.17509 2.07631 0
M  V30 341 C 36.0512 2.21817 2.2083 0
M  V30 342 C 36.5262 3.40933 3.05825 0
M  V30 343 N 38.0172 3.41067 3.13412 0
M  V30 344 C 38.7522 4.29885 3.79455 0
M  V30 345 N 38.2482 5.28914 4.47462 0
M  V30 346 N 40.0412 4.17673 3.76173 0
M  V30 347 H 32.1922 2.06202 0.509352 0
M  V30 348 H 34.4552 0.90334 0.287541 0
M  V30 349 H 34.1612 3.12415 1.61524 0
M  V30 350 H 34.0352 2.17206 3.08385 0
M  V30 351 H 36.4222 1.27462 2.66153 0
M  V30 352 H 36.5032 2.2616 1.1952 0
M  V30 353 H 36.1472 4.35586 2.61203 0
M  V30 354 H 36.0772 3.33829 4.07266 0
M  V30 355 H 38.5682 2.69406 2.65007 0
M  V30 356 H 38.8812 5.92973 4.95583 0
M  V30 357 H 37.2262 5.32831 4.46224 0
M  V30 358 H 40.4172 3.39564 3.22202 0
M  V30 359 H 40.5902 4.87098 4.27363 0
M  V30 360 N 33.9963 -1.19345 1.0293 0
M  V30 361 C 34.9263 -2.2481 0.631105 0
M  V30 362 C 35.9073 -1.66245 -0.360104 0
M  V30 363 O 37.0923 -1.92677 -0.242726 0
M  V30 364 C 34.2223 -3.47295 -0.0184607 0
M  V30 365 C 33.1763 -4.18536 0.895073 0
M  V30 366 C 32.5023 -5.34586 0.110592 0
M  V30 367 C 33.8023 -4.73287 2.209 0
M  V30 368 H 35.4963 -2.58372 1.51275 0
M  V30 369 H 33.0423 -1.24194 0.728818 0
M  V30 370 H 34.9953 -4.20268 -0.308675 0
M  V30 371 H 33.7193 -3.12933 -0.934907 0
M  V30 372 H 32.3783 -3.47446 1.16949 0
M  V30 373 H 32.0263 -4.96469 -0.807902 0
M  V30 374 H 31.7263 -5.83183 0.719087 0
M  V30 375 H 33.2503 -6.10355 -0.172871 0
M  V30 376 H 34.6643 -5.38013 1.98028 0
M  V30 377 H 33.0613 -5.32373 2.76946 0
M  V30 378 H 34.1313 -3.91331 2.86336 0
M  V30 379 N 35.4744 -0.807222 -1.35358 0
M  V30 380 C 36.6994 -0.399309 -2.0352 0
M  V30 381 C 37.1244 0.981986 -1.60433 0
M  V30 382 O 36.4824 1.63601 -0.781299 0
M  V30 383 C 36.5304 -0.491552 -3.57234 0
M  V30 384 O 35.6344 0.494754 -4.09421 0
M  V30 385 H 34.9754 -0.166682 -0.642739 0
M  V30 386 H 37.5054 -1.09328 -1.72941 0
M  V30 387 H 37.5154 -0.361588 -4.06395 0
M  V30 388 H 36.1904 -1.49907 -3.87944 0
M  V30 389 H 34.7674 0.324977 -3.71481 0
M  V30 390 N 36.9525 1.47285 -0.560781 0
M  V30 391 C 38.3635 1.86258 -0.128343 0
M  V30 392 C 38.7145 1.46699 1.30284 0
M  V30 393 O 37.8395 0.871698 1.98067 0
M  V30 394 C 38.4345 3.38044 -0.22614 0
M  V30 395 C 36.9935 3.76096 0.151283 0
M  V30 396 C 36.1405 2.71335 -0.572084 0
M  V30 397 H 39.0915 1.38752 -0.770297 0
M  V30 398 H 39.1125 3.76441 0.554322 0
M  V30 399 H 38.6245 3.66806 -1.26788 0
M  V30 400 H 36.7255 3.52951 1.19399 0
M  V30 401 H 36.8385 4.78641 -0.209765 0
M  V30 402 H 35.2025 2.54696 -0.0147653 0
M  V30 403 H 35.9855 3.02938 -1.61504 0
M  V30 404 N 38.4306 0.297415 1.54768 0
M  V30 405 C 39.3406 -0.58983 2.27064 0
M  V30 406 C 40.3566 -1.15144 1.30453 0
M  V30 407 O 41.5326 -1.17699 1.63428 0
M  V30 408 C 38.5976 -1.74714 2.9946 0
M  V30 409 C 37.6586 -1.21997 4.11601 0
M  V30 410 C 36.8916 -2.32212 4.80535 0
M  V30 411 O 37.1146 -3.52036 4.48806 0
M  V30 412 O 36.0486 -1.99106 5.68014 0
M  V30 413 H 39.8746 -0.00348199 3.037 0
M  V30 414 H 37.4596 0.0640035 1.49263 0
M  V30 415 H 39.3416 -2.42147 3.44881 0
M  V30 416 H 38.0166 -2.32016 2.25722 0
M  V30 417 H 36.9236 -0.511458 3.70587 0
M  V30 418 H 38.2566 -0.692419 4.87305 0
M  V30 419 N 39.9087 -1.5758 0.0250728 0
M  V30 420 C 41.1387 -1.95646 -0.663783 0
M  V30 421 C 41.5467 -0.899935 -1.66427 0
M  V30 422 O 40.8897 0.127191 -1.83259 0
M  V30 423 C 40.9517 -3.29835 -1.43 0
M  V30 424 C 40.6157 -4.53197 -0.588305 0
M  V30 425 C 41.6127 -5.19726 0.13469 0
M  V30 426 C 39.2977 -4.99529 -0.526897 0
M  V30 427 C 41.2917 -6.30902 0.90781 0
M  V30 428 C 38.9787 -6.10589 0.24993 0
M  V30 429 C 39.9767 -6.76134 0.965994 0
M  V30 430 O 39.6647 -7.85062 1.7301 0
M  V30 431 H 39.3967 -0.649282 -0.188174 0
M  V30 432 H 41.9507 -2.05245 0.0799006 0
M  V30 433 H 40.1807 -3.16716 -2.21873 0
M  V30 434 H 41.8697 -3.52833 -2.00658 0
M  V30 435 H 42.6357 -4.84904 0.0965562 0
M  V30 436 H 38.5147 -4.48319 -1.07381 0
M  V30 437 H 42.0587 -6.81995 1.46724 0
M  V30 438 H 37.9557 -6.44849 0.289795 0
M  V30 439 H 38.7237 -8.01708 1.64944 0
M  V30 440 N 41.3868 0.248026 -1.55636 0
M  V30 441 C 42.6168 0.992367 -1.81206 0
M  V30 442 C 43.0248 1.7949 -0.598324 0
M  V30 443 O 42.3678 1.78292 0.442434 0
M  V30 444 C 42.4298 1.97926 -3.00109 0
M  V30 445 C 42.0938 1.36377 -4.36177 0
M  V30 446 C 43.0908 0.76682 -5.14214 0
M  V30 447 C 40.7758 1.38347 -4.82872 0
M  V30 448 C 42.7698 0.197778 -6.37093 0
M  V30 449 C 40.4568 0.810574 -6.057 0
M  V30 450 C 41.4548 0.218754 -6.8265 0
M  V30 451 O 41.1428 -0.345298 -8.03158 0
M  V30 452 H 40.8748 0.297704 -0.606917 0
M  V30 453 H 43.4288 0.276517 -2.0353 0
M  V30 454 H 41.6588 2.73339 -2.73538 0
M  V30 455 H 43.3478 2.58694 -3.12781 0
M  V30 456 H 44.1138 0.744114 -4.79258 0
M  V30 457 H 39.9928 1.8335 -4.2297 0
M  V30 458 H 43.5368 -0.264788 -6.97097 0
M  V30 459 H 39.4338 0.830604 -6.40134 0
M  V30 460 H 40.2018 -0.237055 -8.18157 0
M  V30 461 N 42.8649 1.48995 0.513639 0
M  V30 462 C 44.1419 1.48338 1.27495 0
M  V30 463 C 44.5219 0.204065 2.10111 0
M  V30 464 O 43.8699 -0.813881 2.13514 0
M  V30 465 C 44.0799 2.75498 2.14247 0
M  V30 466 C 45.4279 3.24484 2.73852 0
M  V30 467 O 46.4519 2.76528 2.24523 0
M  V30 468 O 45.3109 4.07974 3.6362 0
M  V30 469 H 42.4049 0.593149 0.576284 0
M  V30 470 H 44.9509 1.61246 0.528948 0
M  V30 471 H 43.7229 3.60109 1.53092 0
M  V30 472 H 43.3459 2.6539 2.96064 0
M  V30 473 N 44.343 -0.763751 1.37857 0
M  V30 474 C 45.273 -1.89103 1.36975 0
M  V30 475 C 46.254 -1.68439 0.237152 0
M  V30 476 O 47.439 -1.8918 0.438713 0
M  V30 477 C 44.569 -3.26496 1.18395 0
M  V30 478 C 43.523 -3.61741 2.28751 0
M  V30 479 C 42.849 -4.97762 1.95286 0
M  V30 480 C 44.149 -3.67665 3.70972 0
M  V30 481 H 45.843 -1.90099 2.31307 0
M  V30 482 H 43.389 -0.91319 1.11341 0
M  V30 483 H 45.342 -4.05003 1.16406 0
M  V30 484 H 44.066 -3.25955 0.205215 0
M  V30 485 H 42.725 -2.85547 2.29909 0
M  V30 486 H 42.373 -4.93769 0.959221 0
M  V30 487 H 42.073 -5.22313 2.69189 0
M  V30 488 H 43.597 -5.7866 1.94898 0
M  V30 489 H 45.011 -4.36307 3.719 0
M  V30 490 H 43.408 -4.03718 4.43995 0
M  V30 491 H 44.478 -2.68134 4.0402 0
M  V30 492 N 45.8211 -1.22559 -0.990812 0
M  V30 493 C 46.7841 -0.998863 -2.0629 0
M  V30 494 C 47.7841 0.0354834 -1.60761 0
M  V30 495 O 48.9741 -0.203231 -1.7301 0
M  V30 496 C 46.1061 -0.509203 -3.37076 0
M  V30 497 H 47.2991 -1.95014 -2.27837 0
M  V30 498 H 44.8521 -1.04456 -1.16269 0
M  V30 499 H 45.5871 0.446335 -3.21214 0
M  V30 500 H 45.3721 -1.25547 -3.71457 0
M  V30 501 H 46.8621 -0.370888 -4.1595 0
M  V30 502 N 47.2992 1.18797 -1.03562 0
M  V30 503 C 48.7152 1.40671 -0.753917 0
M  V30 504 C 48.9152 1.9043 0.658686 0
M  V30 505 O 47.9712 2.08538 1.42366 0
M  V30 506 C 49.2842 2.41192 -1.79574 0
M  V30 507 C 50.8322 2.54928 -1.81606 0
M  V30 508 C 51.3072 3.58709 -2.84766 0
M  V30 509 N 52.7982 3.66212 -2.83625 0
M  V30 510 C 53.5332 4.46225 -3.60098 0
M  V30 511 N 53.0292 5.29888 -4.46308 0
M  V30 512 N 54.8222 4.40939 -3.4861 0
M  V30 513 H 46.9732 0.848221 -1.94728 0
M  V30 514 H 49.2362 0.435081 -0.842264 0
M  V30 515 H 48.9422 2.11669 -2.80872 0
M  V30 516 H 48.8162 3.40467 -1.62365 0
M  V30 517 H 51.2032 2.83771 -0.809817 0
M  V30 518 H 51.2842 1.55784 -2.02891 0
M  V30 519 H 50.9282 3.30607 -3.85566 0
M  V30 520 H 50.8582 4.57519 -2.60737 0
M  V30 521 H 53.3492 3.06466 -2.21105 0
M  V30 522 H 53.6622 5.88078 -5.01382 0
M  V30 523 H 52.0072 5.29326 -4.50377 0
M  V30 524 H 55.1982 3.74624 -2.80668 0
M  V30 525 H 55.3712 5.03056 -4.08459 0
M  V30 526 N 48.7773 0.814389 1.34928 0
M  V30 527 C 49.7403 0.235759 2.27984 0
M  V30 528 C 50.7403 -0.581412 1.49921 0
M  V30 529 O 51.9303 -0.398758 1.69575 0
M  V30 530 C 49.0623 -0.670433 3.34242 0
M  V30 531 H 50.2553 1.05659 2.80671 0
M  V30 532 H 47.8083 0.585614 1.44915 0
M  V30 533 H 48.5433 -1.51466 2.86755 0
M  V30 534 H 48.3283 -0.0860822 3.92005 0
M  V30 535 H 49.8183 -1.06935 4.03676 0
M  V30 536 N 50.2554 -1.46986 0.568584 0
M  V30 537 C 51.2054 -2.27179 -0.193339 0
M  V30 538 C 52.1894 -1.35035 -0.874895 0
M  V30 539 O 53.3814 -1.5931 -0.771322 0
M  V30 540 C 50.5104 -3.21063 -1.21546 0
M  V30 541 C 49.5964 -4.2069 -0.536738 0
M  V30 542 N 49.9874 -5.04218 0.399673 0
M  V30 543 C 48.2854 -4.38961 -0.789254 0
M  V30 544 C 48.9864 -5.76242 0.795017 0
M  V30 545 N 47.9624 -5.434 0.1473 0
M  V30 546 H 51.7644 -2.89146 0.526458 0
M  V30 547 H 49.2784 -1.57664 0.389342 0
M  V30 548 H 51.2754 -3.77209 -1.77536 0
M  V30 549 H 49.9354 -2.60654 -1.93623 0
M  V30 550 H 50.9464 -5.12077 0.774454 0
M  V30 551 H 47.6234 -3.89713 -1.49767 0
M  V30 552 H 49.0134 -6.53417 1.56513 0
M  V30 553 N 51.7335 -0.305618 -1.54608 0
M  V30 554 C 52.6635 0.561482 -2.26649 0
M  V30 555 C 53.6445 1.13415 -1.26772 0
M  V30 556 O 54.8295 1.16262 -1.55553 0
M  V30 557 C 51.9595 1.73122 -3.01075 0
M  V30 558 C 50.9135 1.2887 -4.08138 0
M  V30 559 C 50.2395 2.54396 -4.70305 0
M  V30 560 C 51.5395 0.416578 -5.20636 0
M  V30 561 H 53.2335 -0.0393902 -2.99374 0
M  V30 562 H 50.7795 -0.020385 -1.43986 0
M  V30 563 H 52.7325 2.34396 -3.50195 0
M  V30 564 H 51.4565 2.3584 -2.25936 0
M  V30 565 H 50.1155 0.698991 -3.59875 0
M  V30 566 H 49.7635 3.15439 -3.918 0
M  V30 567 H 49.4635 2.25486 -5.42614 0
M  V30 568 H 50.9875 3.16464 -5.2219 0
M  V30 569 H 52.4015 0.935116 -5.65622 0
M  V30 570 H 50.7985 0.221046 -5.99693 0
M  V30 571 H 51.8685 -0.557162 -4.81688 0
M  V30 572 N 53.2116 1.57565 -0.0334293 0
M  V30 573 C 54.6276 1.56297 0.322997 0
M  V30 574 C 54.8276 1.03945 1.7262 0
M  V30 575 O 53.8836 0.688109 2.42943 0
M  V30 576 C 55.1966 3.00232 0.167664 0
M  V30 577 C 56.7446 3.12078 0.240107 0
M  V30 578 C 57.2196 4.57859 0.113513 0
M  V30 579 N 58.7106 4.62887 0.170359 0
M  V30 580 C 59.4456 5.73319 0.0962517 0
M  V30 581 N 58.9416 6.92794 -0.0291881 0
M  V30 582 N 60.7346 5.61898 0.150551 0
M  V30 583 H 52.8856 1.89923 -0.950956 0
M  V30 584 H 55.1486 0.873824 -0.367608 0
M  V30 585 H 54.8546 3.42501 -0.799102 0
M  V30 586 H 54.7286 3.654 0.936083 0
M  V30 587 H 57.1156 2.69718 1.19733 0
M  V30 588 H 57.1966 2.49623 -0.558763 0
M  V30 589 H 56.8406 5.009 -0.840314 0
M  V30 590 H 56.7706 5.18299 0.931302 0
M  V30 591 H 59.2616 3.76954 0.26728 0
M  V30 592 H 59.5746 7.7276 -0.0789252 0
M  V30 593 H 57.9196 6.94971 -0.0640299 0
M  V30 594 H 61.1106 4.67448 0.246981 0
M  V30 595 H 61.2836 6.47938 0.0893365 0
M  V30 596 N 54.6897 -0.239769 1.55765 0
M  V30 597 C 55.9667 -0.990056 1.68693 0
M  V30 598 C 56.3467 -2.03107 0.5754 0
M  V30 599 O 55.6947 -2.24604 -0.42017 0
M  V30 600 C 55.9047 -1.61696 3.09282 0
M  V30 601 C 57.2527 -2.11613 3.6811 0
M  V30 602 O 58.2767 -1.71624 3.12127 0
M  V30 603 O 57.1357 -2.85057 4.66267 0
M  V30 604 H 54.2297 -0.461299 0.686391 0
M  V30 605 H 56.7757 -0.232991 1.68093 0
M  V30 606 H 55.5477 -0.864357 3.81634 0
M  V30 607 H 55.1707 -2.44005 3.13923 0
M  V30 608 N 56.1678 -1.49265 -0.50573 0
M  V30 609 C 57.0778 -1.68312 -1.63427 0
M  V30 610 C 58.0938 -0.565682 -1.64548 0
M  V30 611 O 59.2698 -0.839801 -1.83055 0
M  V30 612 C 56.3348 -1.74107 -2.99813 0
M  V30 613 C 55.3958 -2.97653 -3.09356 0
M  V30 614 C 54.6288 -3.03163 -4.39236 0
M  V30 615 O 54.8518 -2.16396 -5.27758 0
M  V30 616 O 53.7858 -3.9558 -4.53652 0
M  V30 617 H 57.6118 -2.63907 -1.50289 0
M  V30 618 H 55.1968 -1.32951 -0.681502 0
M  V30 619 H 57.0788 -1.803 -3.80881 0
M  V30 620 H 55.7538 -0.816901 -3.13223 0
M  V30 621 H 54.6608 -2.96981 -2.27493 0
M  V30 622 H 55.9938 -3.89535 -3.00871 0
M  V30 623 N 57.6459 0.756429 -1.3826 0
M  V30 624 C 58.5559 1.9009 -1.37488 0
M  V30 625 C 59.5719 1.71855 -0.272366 0
M  V30 626 O 60.7479 1.94827 -0.510318 0
M  V30 627 C 57.8129 3.25421 -1.19592 0
M  V30 628 C 56.8739 3.56202 -2.39622 0
M  V30 629 C 56.1069 4.85075 -2.2257 0
M  V30 630 O 56.3299 5.57246 -1.21793 0
M  V30 631 O 55.2639 5.15269 -3.11098 0
M  V30 632 H 59.0899 1.93695 -2.33914 0
M  V30 633 H 56.6749 0.901313 -1.1915 0
M  V30 634 H 58.5569 4.06337 -1.11661 0
M  V30 635 H 57.2319 3.22634 -0.262486 0
M  V30 636 H 56.1389 2.75458 -2.53128 0
M  V30 637 H 57.4719 3.63747 -3.31586 0
M  V30 638 N 59.124 1.23083 0.984299 0
M  V30 639 C 60.071 1.00854 2.07598 0
M  V30 640 C 61.041 -0.0726709 1.65941 0
M  V30 641 O 62.226 0.0786535 1.90638 0
M  V30 642 C 59.366 0.601645 3.39815 0
M  V30 643 C 58.479 1.75456 3.94765 0
M  V30 644 C 57.614 1.29482 5.15177 0
M  V30 645 C 56.653 2.41873 5.62284 0
M  V30 646 N 55.79 1.96885 6.73929 0
M  V30 647 H 60.63 1.943 2.25946 0
M  V30 648 H 58.167 0.968001 1.10762 0
M  V30 649 H 60.125 0.346854 4.15756 0
M  V30 650 H 58.755 -0.295803 3.21442 0
M  V30 651 H 57.807 2.12346 3.15616 0
M  V30 652 H 59.119 2.59965 4.25699 0
M  V30 653 H 58.273 0.997923 5.98437 0
M  V30 654 H 57.012 0.420046 4.85888 0
M  V30 655 H 56.017 2.72342 4.77608 0
M  V30 656 H 57.242 3.29881 5.93595 0
M  V30 657 H 55.188 1.11782 6.46406 0
M  V30 658 H 55.105 2.74956 7.04227 0
M  V30 659 H 56.373 1.70289 7.60672 0
M  V30 660 N 60.6021 -1.18246 1.0419 0
M  V30 661 C 61.8271 -1.92736 0.765996 0
M  V30 662 C 62.2521 -1.75728 -0.67091 0
M  V30 663 O 61.6101 -1.06825 -1.46486 0
M  V30 664 C 61.6581 -3.42148 1.13875 0
M  V30 665 O 60.7621 -4.11548 0.264954 0
M  V30 666 H 60.1031 -0.601238 0.281797 0
M  V30 667 H 62.6331 -1.49942 1.39207 0
M  V30 668 H 62.6431 -3.92858 1.1012 0
M  V30 669 H 61.3181 -3.53848 2.18551 0
M  V30 670 H 59.8951 -3.71137 0.362226 0
M  V30 671 N 62.0802 -0.821533 -1.34494 0
M  V30 672 C 63.3202 -0.414785 -2.00147 0
M  V30 673 C 63.6842 1.00299 -1.6372 0
M  V30 674 O 64.8852 1.51255 -2.22206 0
M  V30 675 C 63.1562 -0.609403 -3.52166 0
M  V30 676 S 64.7152 -0.295297 -4.37805 0
M  V30 677 H 61.5332 -0.15679 -0.693497 0
M  V30 678 H 64.1352 -1.06705 -1.63812 0
M  V30 679 H 62.8392 -1.64096 -3.76166 0
M  V30 680 H 62.3702 0.0576414 -3.93358 0
M  V30 681 H 64.3852 0.891531 -4.88125 0
M  V30 682 N 63.5583 1.46682 -0.576371 0
M  V30 683 C 64.9693 1.86112 -0.148091 0
M  V30 684 C 65.3203 1.48073 1.2872 0
M  V30 685 O 64.4453 0.892656 1.97131 0
M  V30 686 C 65.0403 3.37786 -0.261982 0
M  V30 687 C 63.5993 3.76235 0.111384 0
M  V30 688 C 62.7463 2.70713 -0.60083 0
M  V30 689 H 65.6973 1.37927 -0.78497 0
M  V30 690 H 65.7183 3.77007 0.514364 0
M  V30 691 H 65.2303 3.6544 -1.30671 0
M  V30 692 H 63.3313 3.54198 1.15649 0
M  V30 693 H 63.4443 4.78391 -0.26052 0
M  V30 694 H 61.8083 2.54666 -0.0417783 0
M  V30 695 H 62.5913 3.01208 -1.64708 0
M  V30 696 N 65.0364 0.313813 1.54444 0
M  V30 697 C 66.2764 -0.292389 2.02298 0
M  V30 698 C 66.6404 -1.50105 1.19719 0
M  V30 699 O 67.8414 -2.17947 1.5733 0
M  V30 700 C 66.1124 -0.627682 3.51845 0
M  V30 701 S 67.6714 -1.21493 4.21646 0
M  V30 702 H 64.4894 -0.0890247 0.705405 0
M  V30 703 H 67.0914 0.444668 1.90376 0
M  V30 704 H 65.7954 0.260265 4.09574 0
M  V30 705 H 65.3264 -1.39519 3.67829 0
M  V30 706 H 67.3414 -2.5022 4.28491 0
M  V30 707 N 66.5145 -1.57545 0.0417849 0
M  V30 708 C 67.4445 -2.14009 -0.933929 0
M  V30 709 C 68.4255 -1.05938 -1.33083 0
M  V30 710 O 69.6105 -1.33833 -1.40721 0
M  V30 711 C 66.7405 -2.67747 -2.21199 0
M  V30 712 C 65.6945 -3.80718 -1.95544 0
M  V30 713 C 65.0205 -4.20935 -3.29724 0
M  V30 714 C 66.3205 -5.06258 -1.28452 0
M  V30 715 H 68.0145 -2.95788 -0.463645 0
M  V30 716 H 65.5605 -1.42285 -0.221573 0
M  V30 717 H 67.5135 -3.05886 -2.89848 0
M  V30 718 H 66.2375 -1.83147 -2.70416 0
M  V30 719 H 64.8965 -3.43037 -1.2931 0
M  V30 720 H 64.5445 -3.33298 -3.76724 0
M  V30 721 H 64.2445 -4.9707 -3.13361 0
M  V30 722 H 65.7685 -4.61666 -3.9962 0
M  V30 723 H 67.1825 -5.41903 -1.8712 0
M  V30 724 H 65.5795 -5.87475 -1.22445 0
M  V30 725 H 66.6495 -4.84207 -0.259219 0
M  V30 726 N 67.9926 0.231505 -1.5589 0
M  V30 727 C 68.9556 1.27028 -1.90779 0
M  V30 728 C 69.9556 1.40308 -0.785507 0
M  V30 729 O 71.1456 1.38744 -1.05336 0
M  V30 730 C 68.2776 2.64566 -2.14983 0
M  V30 731 H 69.4706 0.973017 -2.83677 0
M  V30 732 H 67.0236 0.471486 -1.49019 0
M  V30 733 H 67.7586 2.99406 -1.24604 0
M  V30 734 H 67.5436 2.56305 -2.96732 0
M  V30 735 H 69.0336 3.39543 -2.43105 0
M  V30 736 N 69.4707 1.49531 0.497807 0
M  V30 737 C 70.4027 1.62559 1.61578 0
M  V30 738 C 71.4157 0.508134 1.54667 0
M  V30 739 O 72.6047 0.780309 1.60541 0
M  V30 740 C 69.7047 1.56925 3.00379 0
M  V30 741 C 68.8777 2.84257 3.3244 0
M  V30 742 C 67.9367 2.71632 4.50669 0
M  V30 743 O 66.9627 3.4557 4.52294 0
M  V30 744 N 68.1647 1.83391 5.5077 0
M  V30 745 H 70.9297 2.58981 1.50828 0
M  V30 746 H 68.4907 1.4666 0.685743 0
M  V30 747 H 70.4827 1.46129 3.77397 0
M  V30 748 H 69.0527 0.683483 3.05037 0
M  V30 749 H 68.2727 3.09381 2.44289 0
M  V30 750 H 69.5607 3.68666 3.5066 0
M  V30 751 H 68.9587 1.22583 5.52259 0
M  V30 752 H 67.5157 1.78515 6.26878 0
M  V30 753 N 70.9488 -0.749086 1.3866 0
M  V30 754 C 71.8588 -1.89358 1.38494 0
M  V30 755 C 72.8748 -1.71708 0.281476 0
M  V30 756 O 74.0508 -1.94554 0.520643 0
M  V30 757 C 71.1158 -3.24782 1.21316 0
M  V30 758 C 70.1768 -3.54926 2.41508 0
M  V30 759 C 69.4098 -4.83888 2.2514 0
M  V30 760 O 69.6328 -5.56592 1.24746 0
M  V30 761 O 68.5668 -5.13612 3.13826 0
M  V30 762 H 72.3928 -1.92452 2.34938 0
M  V30 763 H 69.9778 -0.894981 1.19626 0
M  V30 764 H 71.8598 -4.05739 1.13814 0
M  V30 765 H 70.5348 -3.2249 0.279592 0
M  V30 766 H 69.4418 -2.74112 2.54585 0
M  V30 767 H 70.7748 -3.61983 3.3351 0
M  V30 768 N 72.4269 -1.23603 -0.977757 0
M  V30 769 C 73.6749 -1.06759 -1.71601 0
M  V30 770 C 73.9959 0.395929 -1.90938 0
M  V30 771 O 73.2659 1.28356 -1.47992 0
M  V30 772 H 71.8459 -0.392062 -0.635843 0
M  V30 773 H 74.5079 -1.55362 -1.1768 0
M  V30 774 H 73.6039 -1.55763 -2.70452 0
M  V30 775 N 73.905 1.17692 -1.04816 0
M  V30 776 C 75.316 1.69501 -0.782698 0
M  V30 777 C 75.667 1.83456 0.695577 0
M  V30 778 O 74.792 1.51942 1.54086 0
M  V30 779 C 75.387 3.07874 -1.41419 0
M  V30 780 C 73.946 3.56864 -1.19686 0
M  V30 781 C 73.093 2.3322 -1.50012 0
M  V30 782 H 76.044 1.02262 -1.2136 0
M  V30 783 H 76.065 3.71528 -0.821428 0
M  V30 784 H 75.577 2.97685 -2.49009 0
M  V30 785 H 73.678 3.72337 -0.140043 0
M  V30 786 H 73.791 4.39851 -1.89916 0
M  V30 787 H 72.155 2.37501 -0.920071 0
M  V30 788 H 72.938 2.25644 -2.58727 0
M  V30 789 N 75.3831 0.828654 1.34056 0
M  V30 790 C 76.3151 0.212052 2.28217 0
M  V30 791 C 77.3281 -0.601362 1.51286 0
M  V30 792 O 78.5171 -0.430104 1.73241 0
M  V30 793 C 75.6171 -0.72088 3.31144 0
M  V30 794 C 74.7901 0.0509587 4.3737 0
M  V30 795 C 73.8491 -0.803766 5.20025 0
M  V30 796 O 72.8751 -0.246667 5.68665 0
M  V30 797 N 74.0771 -2.1227 5.40298 0
M  V30 798 H 76.8421 1.02105 2.81771 0
M  V30 799 H 74.4031 0.686153 1.46641 0
M  V30 800 H 76.3951 -1.29742 3.8334 0
M  V30 801 H 74.9651 -1.43061 2.77943 0
M  V30 802 H 74.1851 0.808831 3.85813 0
M  V30 803 H 75.4731 0.582065 5.0546 0
M  V30 804 H 74.8711 -2.59898 5.02464 0
M  V30 805 H 73.4281 -2.64796 5.95589 0
M  V30 806 N 76.8612 -1.46375 0.584142 0
M  V30 807 C 78.1092 -2.01978 0.0701287 0
M  V30 808 C 78.4302 -1.4579 -1.295 0
M  V30 809 O 77.7002 -0.64314 -1.85042 0
M  V30 810 H 76.2802 -0.746648 0.0229345 0
M  V30 811 H 78.9422 -1.79461 0.760245 0
M  V30 812 H 78.0382 -3.121 0.0022064 0
M  V30 813 N 78.3393 -0.321999 -1.54275 0
M  V30 814 C 79.6163 0.335232 -1.92706 0
M  V30 815 C 79.9963 1.70006 -1.25145 0
M  V30 816 O 79.3443 2.25067 -0.394596 0
M  V30 817 C 79.5543 0.429008 -3.46353 0
M  V30 818 C 80.9023 0.690029 -4.18956 0
M  V30 819 O 81.9263 0.511992 -3.52501 0
M  V30 820 O 80.7853 1.03338 -5.36641 0
M  V30 821 H 77.8793 0.191143 -0.804608 0
M  V30 822 H 80.4253 -0.3716 -1.65581 0
M  V30 823 H 79.1973 -0.529611 -3.87699 0
M  V30 824 H 78.8203 1.18348 -3.79578 0
M  V30 825 N 79.8174 1.5752 -0.0501392 0
M  V30 826 C 80.7474 2.14502 0.922566 0
M  V30 827 C 81.7284 1.06642 1.3252 0
M  V30 828 O 82.9134 1.34577 1.4001 0
M  V30 829 C 80.0434 2.68916 2.19776 0
M  V30 830 C 78.9974 3.8175 1.93523 0
M  V30 831 C 78.3234 4.22677 3.27487 0
M  V30 832 C 79.6234 5.06932 1.25765 0
M  V30 833 H 81.3174 2.9603 0.447952 0
M  V30 834 H 78.8634 1.42401 0.214024 0
M  V30 835 H 80.8164 3.07419 2.88222 0
M  V30 836 H 79.5404 1.84578 2.69441 0
M  V30 837 H 78.1994 3.43718 1.27489 0
M  V30 838 H 77.8474 3.35291 3.74952 0
M  V30 839 H 77.5474 4.98725 3.1072 0
M  V30 840 H 79.0714 4.63779 3.97166 0
M  V30 841 H 80.4854 5.42888 1.84244 0
M  V30 842 H 78.8824 5.88116 1.19328 0
M  V30 843 H 79.9524 4.84337 0.233536 0
M  V30 844 N 81.2955 -0.223234 1.56011 0
M  V30 845 C 82.2255 -1.27988 1.95298 0
M  V30 846 C 83.2065 -1.48976 0.820979 0
M  V30 847 O 84.3915 -1.61188 1.08315 0
M  V30 848 C 81.5215 -2.63 2.26822 0
M  V30 849 C 80.4755 -2.56671 3.42497 0
M  V30 850 C 79.8015 -3.95697 3.59622 0
M  V30 851 C 81.1015 -2.11601 4.77517 0
M  V30 852 H 82.7955 -0.953525 2.8381 0
M  V30 853 H 80.3415 -0.457244 1.36548 0
M  V30 854 H 82.2945 -3.37077 2.52898 0
M  V30 855 H 81.0185 -2.9732 1.35161 0
M  V30 856 H 79.6775 -1.85051 3.16467 0
M  V30 857 H 79.3255 -4.27322 2.6534 0
M  V30 858 H 79.0255 -3.92345 4.37424 0
M  V30 859 H 80.5495 -4.71438 3.88044 0
M  V30 860 H 81.9635 -2.7542 5.02809 0
M  V30 861 H 80.3605 -2.19311 5.5859 0
M  V30 862 H 81.4305 -1.06824 4.72987 0
M  V30 863 N 82.7736 -1.49793 -0.48987 0
M  V30 864 C 84.0016 -1.63568 -1.26701 0
M  V30 865 C 84.4166 -0.311465 -1.86213 0
M  V30 866 O 83.7736 0.704416 -1.68357 0
M  V30 867 C 83.8246 -2.71284 -2.38929 0
M  V30 868 O 83.5456 -3.9857 -1.81861 0
M  V30 869 C 85.0466 -2.95864 -3.3012 0
M  V30 870 H 82.2666 -0.550342 -0.383881 0
M  V30 871 H 84.8106 -1.95898 -0.586864 0
M  V30 872 H 82.9656 -2.417 -3.02753 0
M  V30 873 H 83.3796 -4.57993 -2.55622 0
M  V30 874 H 84.8536 -3.74941 -4.05121 0
M  V30 875 H 85.3306 -2.06206 -3.87783 0
M  V30 876 H 85.9366 -3.26907 -2.72051 0
M  V30 877 N 84.2517 0.741722 -1.39055 0
M  V30 878 C 85.1987 1.85566 -1.37237 0
M  V30 879 C 86.1687 1.64457 -0.233072 0
M  V30 880 O 87.3537 1.85957 -0.427147 0
M  V30 881 C 84.4937 3.23004 -1.215 0
M  V30 882 C 83.6067 3.55864 -2.44918 0
M  V30 883 C 82.7417 4.82669 -2.21821 0
M  V30 884 C 81.7807 5.08351 -3.40948 0
M  V30 885 N 80.9177 6.26356 -3.17211 0
M  V30 886 H 85.7577 1.86455 -2.32462 0
M  V30 887 H 83.2947 0.911176 -1.15482 0
M  V30 888 H 85.2527 4.02331 -1.10389 0
M  V30 889 H 83.8827 3.21411 -0.29908 0
M  V30 890 H 82.9347 2.7129 -2.66657 0
M  V30 891 H 84.2467 3.70765 -3.33668 0
M  V30 892 H 83.4007 5.69962 -2.07914 0
M  V30 893 H 82.1397 4.69929 -1.30454 0
M  V30 894 H 81.1447 4.19522 -3.55361 0
M  V30 895 H 82.3697 5.22981 -4.33207 0
M  V30 896 H 80.3157 6.14917 -2.28502 0
M  V30 897 H 80.2327 6.41813 -3.99515 0
M  V30 898 H 81.5007 7.16506 -3.06984 0
M  V30 899 N 85.7298 1.2412 0.971189 0
M  V30 900 C 86.9578 1.10575 1.74874 0
M  V30 901 C 87.3728 -0.342017 1.85676 0
M  V30 902 O 86.7298 -1.23617 1.34258 0
M  V30 903 C 86.7808 1.73579 3.171 0
M  V30 904 O 86.5018 3.12695 3.06844 0
M  V30 905 C 88.0028 1.65598 4.11208 0
M  V30 906 H 85.2228 0.386504 0.548503 0
M  V30 907 H 87.7668 1.64156 1.21955 0
M  V30 908 H 85.9218 1.24009 3.67016 0
M  V30 909 H 86.3358 3.43412 3.96445 0
M  V30 910 H 87.8098 2.1437 5.08674 0
M  V30 911 H 88.2868 0.616532 4.34851 0
M  V30 912 H 88.8928 2.14578 3.67201 0
M  V30 913 N 87.2079 -1.17134 1.05439 0
M  V30 914 C 88.1399 -2.2078 0.615539 0
M  V30 915 C 89.1529 -1.59584 -0.322001 0
M  V30 916 O 90.3419 -1.78133 -0.114344 0
M  V30 917 C 87.4419 -3.38691 -0.118938 0
M  V30 918 C 86.6149 -4.29454 0.829924 0
M  V30 919 C 85.6739 -5.26024 0.136258 0
M  V30 920 O 84.6999 -5.63952 0.77115 0
M  V30 921 N 85.9019 -5.69487 -1.1254 0
M  V30 922 H 88.6669 -2.59052 1.50705 0
M  V30 923 H 86.2279 -1.32058 0.936603 0
M  V30 924 H 88.2199 -4.00329 -0.593179 0
M  V30 925 H 86.7899 -2.98996 -0.91215 0
M  V30 926 H 86.0099 -3.65211 1.48373 0
M  V30 927 H 87.2979 -4.86984 1.47392 0
M  V30 928 H 86.6959 -5.4075 -1.6615 0
M  V30 929 H 85.2529 -6.33257 -1.54366 0
M  V30 930 N 88.686 -0.835752 -1.33615 0
M  V30 931 C 89.596 -0.269088 -2.33052 0
M  V30 932 C 90.612 0.603251 -1.63208 0
M  V30 933 O 91.788 0.508112 -1.94885 0
M  V30 934 C 88.853 0.549091 -3.42324 0
M  V30 935 C 87.914 -0.347156 -4.27894 0
M  V30 936 C 87.147 0.43207 -5.31948 0
M  V30 937 O 87.37 1.66409 -5.45586 0
M  V30 938 O 86.304 -0.192298 -6.01593 0
M  V30 939 H 90.13 -1.09243 -2.83372 0
M  V30 940 H 87.715 -0.598198 -1.36901 0
M  V30 941 H 89.597 1.01414 -4.09015 0
M  V30 942 H 88.272 1.34955 -2.94226 0
M  V30 943 H 87.179 -0.859979 -3.64081 0
M  V30 944 H 88.512 -1.1123 -4.79467 0
M  V30 945 N 90.1641 1.46063 -0.591896 0
M  V30 946 C 91.0941 2.33172 0.123673 0
M  V30 947 C 92.0751 1.45897 0.87453 0
M  V30 948 O 93.2601 1.74698 0.848181 0
M  V30 949 C 90.3901 3.28336 1.13194 0
M  V30 950 C 89.3441 4.25124 0.495324 0
M  V30 951 C 88.6701 5.09863 1.61071 0
M  V30 952 C 89.9701 5.19143 -0.573425 0
M  V30 953 H 91.6641 2.93252 -0.603646 0
M  V30 954 H 89.2101 1.41014 -0.291741 0
M  V30 955 H 91.1631 3.88137 1.64097 0
M  V30 956 H 89.8871 2.66383 1.88965 0
M  V30 957 H 88.5461 3.66599 0.00729452 0
M  V30 958 H 88.1941 4.44288 2.35832 0
M  V30 959 H 87.8941 5.75417 1.19035 0
M  V30 960 H 89.4181 5.72529 2.12233 0
M  V30 961 H 90.8321 5.73106 -0.1491 0
M  V30 962 H 89.2291 5.93089 -0.914636 0
M  V30 963 H 90.2991 4.62519 -1.45617 0
M  V30 964 N 91.6422 0.330177 1.54103 0
M  V30 965 C 92.8902 -0.269871 2.0029 0
M  V30 966 C 93.2112 -1.52133 1.21986 0
M  V30 967 O 92.4812 -1.93212 0.323438 0
M  V30 968 H 91.0612 -0.10271 0.739905 0
M  V30 969 H 93.7232 0.448249 1.89675 0
M  V30 970 H 92.8192 -0.52166 3.07709 0
M  V30 971 N 93.1203 -1.57491 0.0584922 0
M  V30 972 C 94.5363 -1.56792 -0.298091 0
M  V30 973 C 94.7363 -1.06679 -1.70944 0
M  V30 974 O 93.7923 -0.726672 -2.41818 0
M  V30 975 C 95.1053 -3.00461 -0.119879 0
M  V30 976 C 96.6533 -3.1242 -0.190428 0
M  V30 977 C 97.1283 -4.57982 -0.0406567 0
M  V30 978 N 98.6193 -4.63099 -0.0966958 0
M  V30 979 C 99.3543 -5.734 -0.00502943 0
M  V30 980 N 98.8503 -6.9266 0.139402 0
M  V30 981 N 100.643 -5.62067 -0.0611391 0
M  V30 982 H 92.7943 -1.88386 0.98105 0
M  V30 983 H 95.0573 -0.867865 0.381463 0
M  V30 984 H 94.7633 -3.41187 0.85349 0
M  V30 985 H 94.6373 -3.66843 -0.877833 0
M  V30 986 H 97.0243 -2.71589 -1.15427 0
M  V30 987 H 97.1053 -2.48702 0.598405 0
M  V30 988 H 96.7493 -4.995 0.919897 0
M  V30 989 H 96.6793 -5.19715 -0.848727 0
M  V30 990 H 99.1703 -3.77331 -0.207277 0
M  V30 991 H 99.4833 -7.72536 0.201855 0
M  V30 992 H 97.8283 -6.94781 0.174586 0
M  V30 993 H 101.019 -4.67782 -0.172583 0
M  V30 994 H 101.192 -6.47999 0.0137562 0
M  V30 995 N 94.5984 0.214957 -1.56127 0
M  V30 996 C 95.8754 0.963093 -1.70247 0
M  V30 997 C 96.2554 2.02166 -0.60764 0
M  V30 998 O 95.6034 2.25244 0.384385 0
M  V30 999 C 95.8134 1.56756 -3.11815 0
M  V30 1000 C 97.1614 2.0573 -3.7143 0
M  V30 1001 O 98.1854 1.66637 -3.14818 0
M  V30 1002 O 97.0444 2.77603 -4.70743 0
M  V30 1003 H 94.1384 0.450321 -0.693643 0
M  V30 1004 H 96.6844 0.206219 -1.68442 0
M  V30 1005 H 95.4564 0.803533 -3.82961 0
M  V30 1006 H 95.0794 2.3898 -3.17765 0
M  V30 1007 N 96.0765 1.50051 0.48192 0
M  V30 1008 C 97.3065 1.63999 1.2565 0
M  V30 1009 C 97.7145 0.318288 1.86504 0
M  V30 1010 O 97.0575 -0.708534 1.69486 0
M  V30 1011 C 97.1195 2.66504 2.4128 0
M  V30 1012 C 96.7835 4.10352 2.01148 0
M  V30 1013 C 97.7805 4.96562 1.54021 0
M  V30 1014 C 95.4655 4.56203 2.10199 0
M  V30 1015 C 97.4595 6.26668 1.16473 0
M  V30 1016 C 95.1465 5.86318 1.72264 0
M  V30 1017 C 96.1445 6.71375 1.25477 0
M  V30 1018 O 95.8325 7.99062 0.880626 0
M  V30 1019 H 95.5645 0.55456 0.386574 0
M  V30 1020 H 98.1185 1.96954 0.582944 0
M  V30 1021 H 96.3485 2.28769 3.11772 0
M  V30 1022 H 98.0375 2.69783 3.03268 0
M  V30 1023 H 98.8035 4.62358 1.46458 0
M  V30 1024 H 94.6825 3.90152 2.45566 0
M  V30 1025 H 98.2265 6.93011 0.798841 0
M  V30 1026 H 94.1235 6.20046 1.79482 0
M  V30 1027 H 94.8915 8.12239 1.01043 0
M  V30 1028 N 97.5546 -0.734337 1.39446 0
M  V30 1029 C 98.9706 -1.03997 1.21065 0
M  V30 1030 C 99.1706 -2.01369 0.0727019 0
M  V30 1031 O 98.2266 -2.45856 -0.575426 0
M  V30 1032 C 99.5396 -1.60163 2.54496 0
M  V30 1033 C 101.088 -1.7224 2.61347 0
M  V30 1034 C 101.563 -2.31814 3.95002 0
M  V30 1035 N 103.054 -2.39223 3.96644 0
M  V30 1036 C 103.789 -2.86258 4.96834 0
M  V30 1037 N 103.285 -3.33184 6.07421 0
M  V30 1038 N 105.078 -2.85473 4.84213 0
M  V30 1039 H 97.2286 -0.0885624 2.12215 0
M  V30 1040 H 99.4916 -0.10191 0.942506 0
M  V30 1041 H 99.1976 -0.960811 3.38321 0
M  V30 1042 H 99.0716 -2.5896 2.74262 0
M  V30 1043 H 101.459 -2.35443 1.77906 0
M  V30 1044 H 101.54 -0.720939 2.4543 0
M  V30 1045 H 101.184 -1.69238 4.78875 0
M  V30 1046 H 101.114 -3.32638 4.08239 0
M  V30 1047 H 103.605 -2.06057 3.16779 0
M  V30 1048 H 103.918 -3.67586 6.7978 0
M  V30 1049 H 102.263 -3.31191 6.11013 0
M  V30 1050 H 105.454 -2.48136 3.96921 0
M  V30 1051 H 105.627 -3.21814 5.62441 0
M  V30 1052 N 99.0327 -1.24633 -0.964593 0
M  V30 1053 C 100.261 -1.11501 -1.74285 0
M  V30 1054 C 100.676 0.332165 -1.85855 0
M  V30 1055 O 100.033 1.22903 -1.34911 0
M  V30 1056 C 100.084 -1.75258 -3.16175 0
M  V30 1057 O 99.8047 -3.14318 -3.05182 0
M  V30 1058 C 101.306 -1.67776 -4.10324 0
M  V30 1059 H 98.5257 -0.389407 -0.546446 0
M  V30 1060 H 101.07 -1.64801 -1.21083 0
M  V30 1061 H 99.2247 -1.25954 -3.66353 0
M  V30 1062 H 99.6387 -3.4551 -3.94618 0
M  V30 1063 H 101.113 -2.17064 -5.0753 0
M  V30 1064 H 101.59 -0.639584 -4.34518 0
M  V30 1065 H 102.196 -2.16522 -3.66058 0
M  V30 1066 N 100.511 1.16574 -1.06058 0
M  V30 1067 C 101.751 1.88723 -0.78504 0
M  V30 1068 C 102.115 1.79706 0.676006 0
M  V30 1069 O 103.316 2.46757 1.06603 0
M  V30 1070 C 101.587 3.34338 -1.26304 0
M  V30 1071 S 103.146 4.24366 -1.1162 0
M  V30 1072 H 99.9638 0.651448 -0.284846 0
M  V30 1073 H 102.566 1.40732 -1.35701 0
M  V30 1074 H 101.27 3.38439 -2.32136 0
M  V30 1075 H 100.801 3.87378 -0.685719 0
M  V30 1076 H 102.816 4.96179 -0.0456539 0
M  V30 1077 N 101.989 0.842826 1.3317 0
M  V30 1078 C 102.919 0.294028 2.31641 0
M  V30 1079 C 103.9 -0.600401 1.59151 0
M  V30 1080 O 105.085 -0.523124 1.87022 0
M  V30 1081 C 102.215 -0.528416 3.43257 0
M  V30 1082 C 101.169 0.27056 4.27144 0
M  V30 1083 C 100.495 -0.675881 5.30411 0
M  V30 1084 C 101.795 1.48981 5.00602 0
M  V30 1085 H 103.489 1.11681 2.77791 0
M  V30 1086 H 101.035 0.538478 1.33553 0
M  V30 1087 H 102.988 -0.922674 4.11175 0
M  V30 1088 H 101.712 -1.38445 2.95805 0
M  V30 1089 H 100.371 0.646427 3.60856 0
M  V30 1090 H 100.019 -1.52842 4.79216 0
M  V30 1091 H 99.7189 -0.145374 5.8742 0
M  V30 1092 H 101.243 -1.06757 6.01195 0
M  V30 1093 H 102.657 1.16849 5.61266 0
M  V30 1094 H 101.054 1.95739 5.6728 0
M  V30 1095 H 102.124 2.25746 4.29147 0
M  V30 1096 N 103.467 -1.45747 0.599634 0
M  V30 1097 C 104.695 -2.06668 0.0978551 0
M  V30 1098 C 105.11 -1.44562 -1.21439 0
M  V30 1099 O 104.467 -0.556923 -1.73795 0
M  V30 1100 C 104.518 -3.61456 -0.0567044 0
M  V30 1101 O 104.239 -4.21242 1.20361 0
M  V30 1102 C 105.74 -4.39345 -0.590869 0
M  V30 1103 H 102.96 -0.667825 0.0651943 0
M  V30 1104 H 105.504 -1.87115 0.82511 0
M  V30 1105 H 103.659 -3.80378 -0.734251 0
M  V30 1106 H 104.073 -5.14323 1.02821 0
M  V30 1107 H 105.547 -5.48182 -0.648131 0
M  V30 1108 H 106.024 -4.08568 -1.61147 0
M  V30 1109 H 106.63 -4.25268 0.0523679 0
M  V30 1110 N 104.945 -0.338344 -1.53925 0
M  V30 1111 C 106.194 0.260732 -2.00008 0
M  V30 1112 C 106.507 1.52073 -1.23017 0
M  V30 1113 O 107.713 2.19672 -1.5955 0
M  V30 1114 C 106.169 0.51515 -3.56194 0
M  V30 1115 C 105.777 -0.728645 -4.42035 0
M  V30 1116 C 107.521 1.07337 -4.10706 0
M  V30 1117 C 105.428 -0.445315 -5.89721 0
M  V30 1118 H 104.358 0.101205 -0.747177 0
M  V30 1119 H 107.009 -0.452866 -1.77824 0
M  V30 1120 H 105.391 1.28932 -3.74423 0
M  V30 1121 H 106.565 -1.50352 -4.35581 0
M  V30 1122 H 104.88 -1.20813 -3.98489 0
M  V30 1123 H 107.477 1.30022 -5.18651 0
M  V30 1124 H 107.82 2.0273 -3.63602 0
M  V30 1125 H 108.353 0.360034 -3.96167 0
M  V30 1126 H 105.092 -1.36883 -6.41049 0
M  V30 1127 H 104.612 0.291569 -5.99091 0
M  V30 1128 H 106.291 -0.0606218 -6.46972 0
M  V30 1129 N 106.423 1.57458 -0.0668435 0
M  V30 1130 C 107.669 1.93587 0.6043 0
M  V30 1131 C 108.002 0.946722 1.69561 0
M  V30 1132 O 107.277 -0.0248516 1.94484 0
M  V30 1133 C 107.56 3.40014 1.18585 0
M  V30 1134 C 107.413 4.49685 0.101529 0
M  V30 1135 C 108.732 3.87154 2.09284 0
M  V30 1136 H 105.851 0.703958 0.218202 0
M  V30 1137 H 108.493 1.89542 -0.131804 0
M  V30 1138 H 106.643 3.43592 1.81319 0
M  V30 1139 H 108.315 4.5823 -0.531279 0
M  V30 1140 H 106.558 4.30059 -0.568487 0
M  V30 1141 H 107.229 5.49266 0.54874 0
M  V30 1142 H 109.705 3.85551 1.56491 0
M  V30 1143 H 108.581 4.90231 2.46911 0
M  V30 1144 H 108.842 3.2481 2.99918 0
M  V30 1145 N 107.901 -0.206675 1.56239 0
M  V30 1146 C 108.833 -1.27997 1.9013 0
M  V30 1147 C 109.846 -1.42299 0.790883 0
M  V30 1148 O 111.035 -1.42931 1.06925 0
M  V30 1149 C 108.135 -2.65368 2.10792 0
M  V30 1150 C 107.308 -2.72824 3.41886 0
M  V30 1151 C 106.367 -3.9131 3.51799 0
M  V30 1152 O 105.393 -3.78953 4.24716 0
M  V30 1153 N 106.595 -5.06265 2.84035 0
M  V30 1154 H 109.36 -0.992444 2.82791 0
M  V30 1155 H 106.921 -0.396652 1.56966 0
M  V30 1156 H 108.913 -3.43039 2.14724 0
M  V30 1157 H 107.483 -2.86657 1.24685 0
M  V30 1158 H 106.703 -1.81515 3.49923 0
M  V30 1159 H 107.991 -2.74786 4.28217 0
M  V30 1160 H 107.389 -5.19203 2.246 0
M  V30 1161 H 105.946 -5.81925 2.93609 0
M  V30 1162 N 109.379 -1.50304 -0.473955 0
M  V30 1163 C 110.326 -1.68959 -1.57231 0
M  V30 1164 C 111.296 -0.530899 -1.57387 0
M  V30 1165 O 112.481 -0.761133 -1.74961 0
M  V30 1166 C 109.621 -1.7871 -2.95223 0
M  V30 1167 C 108.734 -3.06061 -3.04878 0
M  V30 1168 C 107.869 -3.06626 -4.33767 0
M  V30 1169 C 106.908 -4.28443 -4.37154 0
M  V30 1170 N 106.045 -4.26763 -5.5751 0
M  V30 1171 H 110.885 -2.6273 -1.40631 0
M  V30 1172 H 108.422 -1.30241 -0.683789 0
M  V30 1173 H 110.38 -1.82344 -3.75242 0
M  V30 1174 H 109.01 -0.883806 -3.10465 0
M  V30 1175 H 108.062 -3.11911 -2.17751 0
M  V30 1176 H 109.374 -3.96039 -3.0324 0
M  V30 1177 H 108.528 -3.08973 -5.22131 0
M  V30 1178 H 107.267 -2.14473 -4.3801 0
M  V30 1179 H 106.272 -4.2631 -3.47188 0
M  V30 1180 H 107.497 -5.2182 -4.34605 0
M  V30 1181 H 105.443 -3.37462 -5.62544 0
M  V30 1182 H 105.36 -5.10507 -5.57601 0
M  V30 1183 H 106.628 -4.33253 -6.48006 0
M  V30 1184 N 110.857 0.726932 -1.39834 0
M  V30 1185 C 111.787 1.85405 -1.41941 0
M  V30 1186 C 112.768 1.67751 -0.281728 0
M  V30 1187 O 113.953 1.8795 -0.488717 0
M  V30 1188 C 111.083 3.23243 -1.2701 0
M  V30 1189 C 110.037 3.55549 -2.38262 0
M  V30 1190 C 109.363 4.9241 -2.08415 0
M  V30 1191 C 110.663 3.577 -3.80589 0
M  V30 1192 H 112.357 1.83899 -2.36266 0
M  V30 1193 H 109.903 0.883349 -1.13723 0
M  V30 1194 H 111.856 4.01775 -1.27103 0
M  V30 1195 H 110.58 3.25296 -0.291564 0
M  V30 1196 H 109.239 2.79351 -2.37399 0
M  V30 1197 H 108.887 4.91052 -1.0898 0
M  V30 1198 H 108.587 5.14992 -2.82943 0
M  V30 1199 H 110.111 5.73289 -2.10171 0
M  V30 1200 H 111.525 4.26293 -3.83337 0
M  V30 1201 H 109.922 3.91804 -4.54543 0
M  V30 1202 H 110.992 2.57328 -4.10987 0
M  V30 1203 N 112.336 1.25143 0.95797 0
M  V30 1204 C 113.283 1.05235 2.05412 0
M  V30 1205 C 114.253 -0.0374561 1.66058 0
M  V30 1206 O 115.438 0.119073 1.90428 0
M  V30 1207 C 112.578 0.673589 3.38462 0
M  V30 1208 C 111.691 1.8379 3.90954 0
M  V30 1209 C 110.826 1.40381 5.12315 0
M  V30 1210 C 109.865 2.53746 5.57027 0
M  V30 1211 N 109.002 2.11136 6.69601 0
M  V30 1212 H 113.842 1.99048 2.21774 0
M  V30 1213 H 111.379 0.991277 1.08683 0
M  V30 1214 H 113.337 0.434964 4.14926 0
M  V30 1215 H 111.967 -0.227554 3.21997 0
M  V30 1216 H 111.019 2.18992 3.11041 0
M  V30 1217 H 112.331 2.68937 4.20089 0
M  V30 1218 H 111.485 1.12464 5.96185 0
M  V30 1219 H 110.224 0.523015 4.84887 0
M  V30 1220 H 109.229 2.82412 4.71724 0
M  V30 1221 H 110.454 3.42398 5.86464 0
M  V30 1222 H 108.4 1.25468 6.4389 0
M  V30 1223 H 108.317 2.89832 6.98236 0
M  V30 1224 H 109.585 1.86385 7.56889 0
M  V30 1225 N 113.814 -1.1601 1.06675 0
M  V30 1226 C 114.761 -2.20525 0.680967 0
M  V30 1227 C 115.731 -1.62904 -0.324283 0
M  V30 1228 O 116.916 -1.89615 -0.212294 0
M  V30 1229 C 114.056 -3.45013 0.0776551 0
M  V30 1230 C 113.169 -4.16863 1.13355 0
M  V30 1231 C 112.304 -5.2888 0.49597 0
M  V30 1232 C 111.343 -5.92537 1.53513 0
M  V30 1233 N 110.48 -6.96038 0.920631 0
M  V30 1234 H 115.32 -2.52876 1.57663 0
M  V30 1235 H 112.857 -1.24199 0.788223 0
M  V30 1236 H 114.815 -4.16193 -0.289704 0
M  V30 1237 H 113.445 -3.132 -0.781393 0
M  V30 1238 H 112.497 -3.44248 1.61857 0
M  V30 1239 H 113.809 -4.60294 1.92174 0
M  V30 1240 H 112.963 -6.06653 0.0758604 0
M  V30 1241 H 111.702 -4.86622 -0.324062 0
M  V30 1242 H 110.707 -5.13482 1.9651 0
M  V30 1243 H 111.932 -6.36873 2.35733 0
M  V30 1244 H 109.878 -6.55888 0.12138 0
M  V30 1245 H 109.795 -7.3786 1.64616 0
M  V30 1246 H 111.063 -7.77725 0.525795 0
M  V30 1247 N 115.292 -0.849877 -1.32721 0
M  V30 1248 C 116.225 -0.235903 -2.26977 0
M  V30 1249 C 117.203 0.623355 -1.50177 0
M  V30 1250 O 118.387 0.581207 -1.79316 0
M  V30 1251 C 115.514 0.667712 -3.32053 0
M  V30 1252 C 114.56 -0.11753 -4.26338 0
M  V30 1253 S 115.393 -1.48277 -5.14562 0
M  V30 1254 C 116.549 -0.584741 -6.23163 0
M  V30 1255 H 116.782 -1.03495 -2.78704 0
M  V30 1256 H 114.315 -0.64724 -1.40179 0
M  V30 1257 H 116.273 1.18343 -3.93072 0
M  V30 1258 H 114.934 1.44052 -2.7912 0
M  V30 1259 H 114.127 0.57051 -5.00761 0
M  V30 1260 H 113.729 -0.564668 -3.69713 0
M  V30 1261 H 116.021 0.212968 -6.77165 0
M  V30 1262 H 116.964 -1.29947 -6.96074 0
M  V30 1263 H 117.372 -0.161202 -5.6427 0
M  V30 1264 N 116.77 1.45427 -0.607355 0
M  V30 1265 C 118.016 2.0254 -0.102607 0
M  V30 1266 C 118.349 1.47478 1.26348 0
M  V30 1267 O 117.624 0.64939 1.83339 0
M  V30 1268 C 117.907 3.60044 -0.0634347 0
M  V30 1269 C 117.76 4.2544 -1.46017 0
M  V30 1270 C 119.079 4.35646 0.624514 0
M  V30 1271 H 116.198 0.73598 -0.0387607 0
M  V30 1272 H 118.84 1.73284 -0.779282 0
M  V30 1273 H 116.99 3.85101 0.512808 0
M  V30 1274 H 118.662 4.11569 -2.08347 0
M  V30 1275 H 116.905 3.83849 -2.02094 0
M  V30 1276 H 117.576 5.34342 -1.385 0
M  V30 1277 H 120.052 4.15882 0.134723 0
M  V30 1278 H 118.928 5.45376 0.621028 0
M  V30 1279 H 119.189 4.08501 1.69055 0
M  V30 1280 N 118.248 0.346503 1.53744 0
M  V30 1281 C 119.525 -0.304532 1.93215 0
M  V30 1282 C 119.905 -1.67993 1.27834 0
M  V30 1283 O 119.253 -2.24411 0.430352 0
M  V30 1284 C 119.463 -0.373852 3.46992 0
M  V30 1285 C 120.811 -0.62329 4.2 0
M  V30 1286 O 121.835 -0.455847 3.53271 0
M  V30 1287 O 120.694 -0.947879 5.38217 0
M  V30 1288 H 117.788 -0.178318 0.807547 0
M  V30 1289 H 120.334 0.397895 1.64969 0
M  V30 1290 H 119.106 0.591224 3.86808 0
M  V30 1291 H 118.729 -1.12294 3.81413 0
M  V30 1292 N 119.726 -1.57421 0.075193 0
M  V30 1293 C 120.673 -2.12915 -0.890843 0
M  V30 1294 C 121.643 -1.04252 -1.29309 0
M  V30 1295 O 122.828 -1.31933 -1.37834 0
M  V30 1296 C 119.968 -2.69795 -2.15186 0
M  V30 1297 C 119.081 -3.92624 -1.80194 0
M  V30 1298 C 118.216 -4.37736 -3.00933 0
M  V30 1299 C 117.255 -5.53205 -2.61974 0
M  V30 1300 N 116.392 -5.9326 -3.75483 0
M  V30 1301 H 121.232 -2.95156 -0.410735 0
M  V30 1302 H 118.769 -1.45854 -0.191086 0
M  V30 1303 H 120.727 -3.00883 -2.89008 0
M  V30 1304 H 119.357 -1.90313 -2.60731 0
M  V30 1305 H 118.409 -3.67977 -0.964218 0
M  V30 1306 H 119.721 -4.76482 -1.47534 0
M  V30 1307 H 118.875 -4.70503 -3.8303 0
M  V30 1308 H 117.614 -3.52739 -3.36789 0
M  V30 1309 H 116.619 -5.20086 -1.783 0
M  V30 1310 H 117.844 -6.39936 -2.27284 0
M  V30 1311 H 115.79 -5.11212 -4.11094 0
M  V30 1312 H 115.707 -6.71865 -3.46602 0
M  V30 1313 H 116.975 -6.30651 -4.58148 0
M  V30 1314 N 121.204 0.198386 -1.56346 0
M  V30 1315 C 122.615 0.763358 -1.70381 0
M  V30 1316 C 122.966 1.83995 -0.681203 0
M  V30 1317 O 122.091 2.15785 0.16305 0
M  V30 1318 C 122.686 1.39143 -3.08909 0
M  V30 1319 C 121.245 1.90352 -3.2472 0
M  V30 1320 C 120.392 0.772233 -2.6633 0
M  V30 1321 H 123.343 -0.0266377 -1.58678 0
M  V30 1322 H 123.364 2.26076 -3.06055 0
M  V30 1323 H 122.876 0.607638 -3.83314 0
M  V30 1324 H 120.977 2.71461 -2.55225 0
M  V30 1325 H 121.09 2.06757 -4.3219 0
M  V30 1326 H 119.454 1.18566 -2.2542 0
M  V30 1327 H 120.237 0.00073556 -3.433 0
M  V30 1328 N 122.682 1.50554 0.465978 0
M  V30 1329 C 123.91 1.65563 1.24083 0
M  V30 1330 C 124.325 0.341051 1.85694 0
M  V30 1331 O 123.682 -0.677543 1.69457 0
M  V30 1332 C 123.733 2.75051 2.34583 0
M  V30 1333 O 123.454 4.01413 1.75497 0
M  V30 1334 C 124.955 3.01078 3.25372 0
M  V30 1335 H 122.175 0.55638 0.375077 0
M  V30 1336 H 124.719 1.96807 0.555624 0
M  V30 1337 H 122.874 2.46486 2.9887 0
M  V30 1338 H 123.288 4.62002 2.48303 0
M  V30 1339 H 124.762 3.81339 3.99105 0
M  V30 1340 H 125.239 2.12349 3.84453 0
M  V30 1341 H 125.845 3.31194 2.66816 0
M  V30 1342 N 124.16 -0.719506 1.40217 0
M  V30 1343 C 125.092 -1.84428 1.36084 0
M  V30 1344 C 126.105 -1.60597 0.266913 0
M  V30 1345 O 127.294 -1.70544 0.526983 0
M  V30 1346 C 124.394 -3.20757 1.094 0
M  V30 1347 C 123.567 -3.71817 2.30372 0
M  V30 1348 C 122.626 -4.86748 1.99907 0
M  V30 1349 O 121.652 -4.99603 2.72737 0
M  V30 1350 N 122.854 -5.7226 0.974635 0
M  V30 1351 H 125.619 -1.88473 2.33019 0
M  V30 1352 H 123.18 -0.900885 1.3452 0
M  V30 1353 H 125.172 -3.95235 0.870116 0
M  V30 1354 H 123.742 -3.11884 0.211452 0
M  V30 1355 H 122.962 -2.88514 2.68614 0
M  V30 1356 H 124.25 -4.02666 3.11026 0
M  V30 1357 H 123.648 -5.6448 0.371368 0
M  V30 1358 H 122.205 -6.46739 0.810656 0
M  V30 1359 N 125.638 -1.25649 -0.95132 0
M  V30 1360 C 127.054 -1.02542 -1.223 0
M  V30 1361 C 127.254 0.255715 -1.99871 0
M  V30 1362 O 126.31 0.967558 -2.33226 0
M  V30 1363 C 127.623 -2.25065 -1.99415 0
M  V30 1364 C 129.171 -2.29861 -2.12446 0
M  V30 1365 C 129.646 -3.52048 -2.92961 0
M  V30 1366 N 131.137 -3.52465 -3.00538 0
M  V30 1367 C 131.872 -4.43672 -3.63239 0
M  V30 1368 N 131.368 -5.45157 -4.27523 0
M  V30 1369 N 133.161 -4.31346 -3.60412 0
M  V30 1370 H 125.312 -2.07951 -0.432471 0
M  V30 1371 H 127.575 -0.91339 -0.253816 0
M  V30 1372 H 127.281 -3.18194 -1.49817 0
M  V30 1373 H 127.155 -2.28502 -3.00111 0
M  V30 1374 H 129.542 -1.37252 -2.61239 0
M  V30 1375 H 129.623 -2.3044 -1.11044 0
M  V30 1376 H 129.267 -4.44981 -2.44856 0
M  V30 1377 H 129.197 -3.48715 -3.94596 0
M  V30 1378 H 131.688 -2.79056 -2.54826 0
M  V30 1379 H 132.001 -6.10958 -4.73234 0
M  V30 1380 H 130.346 -5.49025 -4.26141 0
M  V30 1381 H 133.537 -3.51288 -3.09377 0
M  V30 1382 H 133.71 -5.02624 -4.0899 0
M  V30 1383 N 127.117 1.15442 -1.07289 0
M  V30 1384 C 128.342 1.90638 -0.816828 0
M  V30 1385 C 128.767 1.77445 0.624083 0
M  V30 1386 O 128.125 1.10671 1.43602 0
M  V30 1387 C 128.173 3.39008 -1.22906 0
M  V30 1388 O 127.277 4.10701 -0.373975 0
M  V30 1389 H 126.618 0.593555 -0.297638 0
M  V30 1390 H 129.148 1.46198 -1.43134 0
M  V30 1391 H 129.158 3.89801 -1.20497 0
M  V30 1392 H 127.833 3.47929 -2.27856 0
M  V30 1393 H 126.41 3.70046 -0.460499 0
M  V30 1394 N 128.595 0.856903 1.32268 0
M  V30 1395 C 129.841 0.462069 1.97466 0
M  V30 1396 C 130.174 -0.980298 1.67642 0
M  V30 1397 O 129.449 -1.68824 0.965858 0
M  V30 1398 C 129.732 0.704336 3.53145 0
M  V30 1399 C 129.585 2.19529 3.9259 0
M  V30 1400 C 130.904 0.1622 4.39801 0
M  V30 1401 H 128.023 0.169357 0.717278 0
M  V30 1402 H 130.665 1.07574 1.56614 0
M  V30 1403 H 128.815 0.181999 3.88073 0
M  V30 1404 H 130.487 2.78387 3.67829 0
M  V30 1405 H 128.73 2.67292 3.41668 0
M  V30 1406 H 129.401 2.31549 5.01088 0
M  V30 1407 H 131.877 0.608905 4.11621 0
M  V30 1408 H 130.753 0.361265 5.4771 0
M  V30 1409 H 131.014 -0.935158 4.32096 0
M  V30 1410 N 130.073 -1.45103 0.615059 0
M  V30 1411 C 131.298 -2.07064 0.117988 0
M  V30 1412 C 131.723 -1.4554 -1.19163 0
M  V30 1413 O 131.081 -0.550855 -1.72729 0
M  V30 1414 C 131.129 -3.606 -0.000288387 0
M  V30 1415 O 130.233 -3.98847 -1.04856 0
M  V30 1416 H 129.574 -0.659467 0.0774581 0
M  V30 1417 H 132.104 -1.86236 0.847186 0
M  V30 1418 H 132.114 -4.07529 -0.196091 0
M  V30 1419 H 130.789 -4.04765 0.955932 0
M  V30 1420 H 129.366 -3.63577 -0.828619 0
M  V30 1421 N 131.551 -0.354651 -1.53558 0
M  V30 1422 C 132.499 0.512195 -2.26891 0
M  V30 1423 C 133.493 1.09263 -1.29452 0
M  V30 1424 O 134.699 1.03709 -1.47121 0
M  V30 1425 H 131.074 0.183878 -0.729173 0
M  V30 1426 H 133.045 -0.128202 -2.98124 0
M  V30 1427 C 131.794 1.64563 -3.06291 0
M  V30 1428 H 131.117 1.20829 -3.81104 0
M  V30 1429 H 132.557 2.22711 -3.60799 0
M  V30 1430 C 131.016 2.58158 -2.16462 0
M  V30 1431 O 131.546 3.60695 -1.76811 0
M  V30 1432 N 129.752 2.27096 -1.81317 0
M  V30 1433 H 129.299 1.43751 -2.1376 0
M  V30 1434 H 129.257 2.89975 -1.21498 0
M  V30 1435 N 133.029 1.57378 -0.0835403 0
M  V30 1436 C 133.992 2.12252 0.864959 0
M  V30 1437 C 134.992 1.04916 1.21858 0
M  V30 1438 O 136.182 1.30853 1.14991 0
M  V30 1439 C 133.314 2.63358 2.16461 0
M  V30 1440 H 134.507 2.97371 0.388676 0
M  V30 1441 H 132.06 1.55423 0.165317 0
M  V30 1442 H 132.795 1.81727 2.686 0
M  V30 1443 H 132.58 3.41826 1.92087 0
M  V30 1444 H 134.07 3.05847 2.84337 0
M  V30 1445 N 134.507 -0.190092 1.56449 0
M  V30 1446 C 135.47 -1.21925 1.9408 0
M  V30 1447 C 136.47 -1.38176 0.822431 0
M  V30 1448 O 137.66 -1.35903 1.08977 0
M  V30 1449 C 134.792 -2.58773 2.21922 0
M  V30 1450 H 135.985 -0.897464 2.86157 0
M  V30 1451 H 133.538 -0.43181 1.50217 0
M  V30 1452 H 134.273 -2.95998 1.32499 0
M  V30 1453 H 134.058 -2.48348 3.03424 0
M  V30 1454 H 135.548 -3.32978 2.52022 0
M  V30 1455 N 135.985 -1.50799 -0.457987 0
M  V30 1456 C 137.213 -1.66218 -1.23203 0
M  V30 1457 C 137.628 -0.350894 -1.85511 0
M  V30 1458 O 136.985 0.668546 -1.69814 0
M  V30 1459 C 137.036 -2.76291 -2.33121 0
M  V30 1460 O 136.757 -4.02338 -1.73366 0
M  V30 1461 C 138.258 -3.028 -3.2377 0
M  V30 1462 H 135.478 -0.558361 -0.372121 0
M  V30 1463 H 138.022 -1.97099 -0.545179 0
M  V30 1464 H 136.177 -2.48068 -2.97558 0
M  V30 1465 H 136.591 -4.63312 -2.4585 0
M  V30 1466 H 138.065 -3.8345 -3.97077 0
M  V30 1467 H 138.542 -2.14385 -3.83322 0
M  V30 1468 H 139.148 -3.32604 -2.65056 0
M  V30 1469 N 137.463 0.71206 -1.40597 0
M  V30 1470 C 138.879 1.02058 -1.22704 0
M  V30 1471 C 139.079 2.01228 -0.104729 0
M  V30 1472 O 138.135 2.4674 0.53624 0
M  V30 1473 C 139.448 1.56094 -2.57012 0
M  V30 1474 C 140.996 1.6806 -2.64054 0
M  V30 1475 C 141.471 2.25501 -3.9864 0
M  V30 1476 N 142.962 2.32882 -4.004 0
M  V30 1477 C 143.697 2.78317 -5.01325 0
M  V30 1478 N 143.193 3.23478 -6.12645 0
M  V30 1479 N 144.986 2.77733 -4.88693 0
M  V30 1480 H 137.137 0.0547896 -2.12329 0
M  V30 1481 H 139.4 0.0869027 -0.944008 0
M  V30 1482 H 139.106 0.906865 -3.39807 0
M  V30 1483 H 138.98 2.54564 -2.78347 0
M  V30 1484 H 141.367 2.32583 -1.81629 0
M  V30 1485 H 141.448 0.681802 -2.46546 0
M  V30 1486 H 141.092 1.61598 -4.81506 0
M  V30 1487 H 141.022 3.26102 -4.13479 0
M  V30 1488 H 143.513 2.00991 -3.20017 0
M  V30 1489 H 143.826 3.56725 -6.85542 0
M  V30 1490 H 142.171 3.21429 -6.16205 0
M  V30 1491 H 145.362 2.4179 -4.00818 0
M  V30 1492 H 145.535 3.12826 -5.67489 0
M  V30 1493 N 138.941 1.26152 0.944643 0
M  V30 1494 C 140.187 1.11657 1.69294 0
M  V30 1495 C 140.52 -0.339926 1.91202 0
M  V30 1496 O 139.795 -1.24994 1.49019 0
M  V30 1497 C 140.078 1.88236 3.06984 0
M  V30 1498 C 139.931 3.41772 2.92424 0
M  V30 1499 C 141.25 1.67343 4.07043 0
M  V30 1500 H 138.369 0.407004 0.614424 0
M  V30 1501 H 141.011 1.55106 1.09737 0
M  V30 1502 H 139.161 1.51308 3.57824 0
M  V30 1503 H 140.833 3.88433 2.48832 0
M  V30 1504 H 139.076 3.68974 2.28124 0
M  V30 1505 H 139.747 3.90579 3.90067 0
M  V30 1506 H 142.223 1.99509 3.65151 0
M  V30 1507 H 141.099 2.23346 5.01406 0
M  V30 1508 H 141.36 0.617158 4.37771 0
M  V30 1509 N 140.419 -1.14872 1.07899 0
M  V30 1510 C 141.659 -1.8745 0.814965 0
M  V30 1511 C 142.023 -1.80758 -0.64733 0
M  V30 1512 O 143.224 -2.48422 -1.02664 0
M  V30 1513 C 141.495 -3.32286 1.31607 0
M  V30 1514 S 143.054 -4.22537 1.18357 0
M  V30 1515 H 139.872 -0.646833 0.295174 0
M  V30 1516 H 142.474 -1.38555 1.37923 0
M  V30 1517 H 141.178 -3.34703 2.37491 0
M  V30 1518 H 140.709 -3.86238 0.747261 0
M  V30 1519 H 142.724 -4.96044 0.124586 0
M  V30 1520 N 141.898 -0.863906 -1.31812 0
M  V30 1521 C 143.314 -0.555004 -1.49639 0
M  V30 1522 C 143.514 0.912266 -1.79666 0
M  V30 1523 O 142.57 1.69479 -1.87171 0
M  V30 1524 C 143.883 -1.44998 -2.63431 0
M  V30 1525 C 145.431 -1.45138 -2.77316 0
M  V30 1526 C 145.906 -2.33179 -3.94197 0
M  V30 1527 N 147.397 -2.31025 -4.01474 0
M  V30 1528 C 148.132 -2.95871 -4.9117 0
M  V30 1529 N 147.628 -3.69863 -5.8581 0
M  V30 1530 N 149.421 -2.85211 -4.84367 0
M  V30 1531 H 141.572 -1.81339 -1.10589 0
M  V30 1532 H 143.835 -0.77505 -0.545895 0
M  V30 1533 H 143.541 -2.49377 -2.48 0
M  V30 1534 H 143.415 -1.14409 -3.59431 0
M  V30 1535 H 145.802 -0.415201 -2.92164 0
M  V30 1536 H 145.883 -1.79747 -1.82001 0
M  V30 1537 H 145.527 -3.3687 -3.80107 0
M  V30 1538 H 145.457 -1.95897 -4.88807 0
M  V30 1539 H 147.948 -1.77238 -3.33759 0
M  V30 1540 H 148.261 -4.16486 -6.50968 0
M  V30 1541 H 146.606 -3.73971 -5.85808 0
M  V30 1542 H 149.797 -2.26948 -4.09405 0
M  V30 1543 H 149.97 -3.36027 -5.54066 0
M  V30 1544 N 143.376 1.44774 -0.622745 0
M  V30 1545 C 144.604 2.06487 -0.130722 0
M  V30 1546 C 145.019 1.46476 1.19123 0
M  V30 1547 O 144.376 0.584502 1.72887 0
M  V30 1548 C 144.427 3.615 -0.000807207 0
M  V30 1549 O 144.148 4.19274 -1.27048 0
M  V30 1550 C 145.649 4.40229 0.520898 0
M  V30 1551 H 142.869 0.666704 -0.0758106 0
M  V30 1552 H 145.413 1.85779 -0.854774 0
M  V30 1553 H 143.568 3.81498 0.673643 0
M  V30 1554 H 143.982 5.12622 -1.1099 0
M  V30 1555 H 145.456 5.49144 0.560838 0
M  V30 1556 H 145.933 4.1108 1.54627 0
M  V30 1557 H 146.539 4.25131 -0.120018 0
M  V30 1558 N 144.854 0.36279 1.53368 0
M  V30 1559 C 146.102 -0.227326 2.00817 0
M  V30 1560 C 146.423 -1.49511 1.25186 0
M  V30 1561 O 145.693 -1.92482 0.364348 0
M  V30 1562 H 144.273 -0.0869923 0.741917 0
M  V30 1563 H 146.935 0.488381 1.88682 0
M  V30 1564 H 146.031 -0.456273 3.08747 0
M  V30 1565 N 146.332 -1.57332 0.0918853 0
M  V30 1566 C 147.748 -1.57389 -0.264766 0
M  V30 1567 C 147.948 -1.10281 -1.68643 0
M  V30 1568 O 147.004 -0.777801 -2.40222 0
M  V30 1569 C 148.317 -3.00648 -0.0561195 0
M  V30 1570 C 149.865 -3.12754 -0.124116 0
M  V30 1571 C 150.34 -4.57965 0.0564972 0
M  V30 1572 N 151.831 -4.632 0.00155611 0
M  V30 1573 C 152.566 -5.73281 0.116598 0
M  V30 1574 N 152.062 -6.92208 0.286294 0
M  V30 1575 N 153.855 -5.6207 0.0580973 0
M  V30 1576 H 146.006 -1.86262 1.02079 0
M  V30 1577 H 148.269 -0.859579 0.399786 0
M  V30 1578 H 147.975 -3.393 0.925669 0
M  V30 1579 H 147.849 -3.68623 -0.799823 0
M  V30 1580 H 150.236 -2.73976 -1.09641 0
M  V30 1581 H 150.317 -2.47377 0.651024 0
M  V30 1582 H 149.961 -4.97436 1.02564 0
M  V30 1583 H 149.891 -5.21399 -0.738297 0
M  V30 1584 H 152.382 -3.77686 -0.127192 0
M  V30 1585 H 152.695 -7.71934 0.365676 0
M  V30 1586 H 151.04 -6.94254 0.32192 0
M  V30 1587 H 154.231 -4.68043 -0.0733204 0
M  V30 1588 H 154.404 -6.47824 0.151203 0
M  V30 1589 N 147.81 0.181792 -1.56548 0
M  V30 1590 C 149.035 0.920019 -1.85877 0
M  V30 1591 C 149.46 1.75494 -0.677021 0
M  V30 1592 O 148.818 1.77399 0.374056 0
M  V30 1593 C 148.866 1.78112 -3.13542 0
M  V30 1594 O 147.97 2.88152 -2.95029 0
M  V30 1595 H 147.311 0.258334 -0.611686 0
M  V30 1596 H 149.841 0.183092 -2.03779 0
M  V30 1597 H 149.851 2.18314 -3.44678 0
M  V30 1598 H 148.526 1.16777 -3.99169 0
M  V30 1599 H 147.103 2.51609 -2.75222 0
M  V30 1600 N 149.288 1.51039 0.449983 0
M  V30 1601 C 150.704 1.38934 0.785462 0
M  V30 1602 C 150.904 0.461817 1.96136 0
M  V30 1603 O 149.96 -0.0877389 2.52348 0
M  V30 1604 C 151.273 2.80724 1.0777 0
M  V30 1605 C 152.821 2.89787 1.1829 0
M  V30 1606 C 153.296 4.32457 1.50815 0
M  V30 1607 N 154.787 4.35505 1.57764 0
M  V30 1608 C 155.522 5.42914 1.84477 0
M  V30 1609 N 155.018 6.60502 2.09068 0
M  V30 1610 N 156.811 5.3038 1.86155 0
M  V30 1611 H 148.962 2.09904 -0.324647 0
M  V30 1612 H 151.225 0.944378 -0.0827957 0
M  V30 1613 H 150.931 3.50531 0.286498 0
M  V30 1614 H 150.805 3.19273 2.00859 0
M  V30 1615 H 153.192 2.20186 1.96474 0
M  V30 1616 H 153.273 2.54752 0.231314 0
M  V30 1617 H 152.917 5.02603 0.731622 0
M  V30 1618 H 152.847 4.64995 2.47158 0
M  V30 1619 H 155.338 3.50724 1.40715 0
M  V30 1620 H 155.651 7.38158 2.28785 0
M  V30 1621 H 153.996 6.63639 2.06416 0
M  V30 1622 H 157.187 4.37505 1.66454 0
M  V30 1623 H 157.36 6.1417 2.06637 0
M  V30 1624 N 150.766 -0.704594 1.40972 0
M  V30 1625 C 152.012 -1.46546 1.41053 0
M  V30 1626 C 152.367 -1.92393 0.0159714 0
M  V30 1627 O 151.66 -1.66017 -0.956506 0
M  V30 1628 C 151.854 -2.698 2.34399 0
M  V30 1629 C 151.683 -2.36008 3.82793 0
M  V30 1630 C 150.453 -2.26812 4.51536 0
M  V30 1631 C 152.651 -1.99565 4.74003 0
M  V30 1632 N 150.633 -1.8581 5.85105 0
M  V30 1633 C 152.004 -1.69251 5.96451 0
M  V30 1634 C 154.059 -1.86296 4.61734 0
M  V30 1635 C 152.762 -1.27003 7.07999 0
M  V30 1636 C 154.788 -1.45452 5.73234 0
M  V30 1637 C 154.15 -1.16043 6.94776 0
M  V30 1638 H 150.249 -0.533896 0.571383 0
M  V30 1639 H 152.833 -0.816061 1.76773 0
M  V30 1640 H 151.004 -3.32473 2.00789 0
M  V30 1641 H 152.736 -3.36214 2.25261 0
M  V30 1642 H 149.491 -2.44913 4.05357 0
M  V30 1643 H 149.915 -1.67817 6.55871 0
M  V30 1644 H 154.557 -2.0769 3.68273 0
M  V30 1645 H 152.275 -1.04353 8.01334 0
M  V30 1646 H 155.861 -1.35748 5.65742 0
M  V30 1647 H 154.741 -0.84915 7.79589 0
M  V30 1648 N 152.244 -1.26651 -0.937939 0
M  V30 1649 C 153.66 -1.03834 -1.21205 0
M  V30 1650 C 153.86 0.234502 -2.00131 0
M  V30 1651 O 152.916 0.942767 -2.3424 0
M  V30 1652 C 154.229 -2.27167 -1.97017 0
M  V30 1653 C 155.777 -2.32101 -2.09996 0
M  V30 1654 C 156.252 -3.55136 -2.8921 0
M  V30 1655 N 157.743 -3.55632 -2.96783 0
M  V30 1656 C 158.478 -4.475 -3.58512 0
M  V30 1657 N 157.974 -5.4966 -4.21717 0
M  V30 1658 N 159.767 -4.35145 -3.55816 0
M  V30 1659 H 151.918 -2.08398 -0.410391 0
M  V30 1660 H 154.181 -0.916031 -0.244114 0
M  V30 1661 H 153.887 -3.19765 -1.46434 0
M  V30 1662 H 153.761 -2.31672 -2.97671 0
M  V30 1663 H 156.148 -1.40015 -2.59769 0
M  V30 1664 H 156.229 -2.31605 -1.08594 0
M  V30 1665 H 155.873 -4.47553 -2.40123 0
M  V30 1666 H 155.803 -3.5288 -3.90875 0
M  V30 1667 H 158.294 -2.81743 -2.51852 0
M  V30 1668 H 158.607 -6.15943 -4.66727 0
M  V30 1669 H 156.952 -5.53514 -4.20294 0
M  V30 1670 H 160.143 -3.5455 -3.05634 0
M  V30 1671 H 160.316 -5.06934 -4.03636 0
M  V30 1672 N 153.722 1.14298 -1.08507 0
M  V30 1673 C 154.999 1.81544 -0.728088 0
M  V30 1674 C 155.379 1.95838 0.78808 0
M  V30 1675 O 154.727 1.51904 1.70697 0
M  V30 1676 C 154.937 3.17169 -1.45619 0
M  V30 1677 C 156.285 3.9265 -1.61591 0
M  V30 1678 O 157.309 3.26762 -1.41793 0
M  V30 1679 O 156.168 5.10807 -1.94263 0
M  V30 1680 H 153.262 0.78491 -0.260471 0
M  V30 1681 H 155.808 1.21307 -1.18671 0
M  V30 1682 H 154.58 3.01934 -2.489 0
M  V30 1683 H 154.203 3.851 -0.989124 0
M  V30 1684 N 155.201 0.870884 1.31352 0
M  V30 1685 C 156.447 0.482987 1.96965 0
M  V30 1686 C 156.78 -0.962462 1.68672 0
M  V30 1687 O 156.055 -1.6779 0.98371 0
M  V30 1688 C 156.338 0.741752 3.52378 0
M  V30 1689 C 156.191 2.2368 3.9024 0
M  V30 1690 C 157.51 0.208838 4.39604 0
M  V30 1691 H 154.629 0.176955 0.715441 0
M  V30 1692 H 157.271 1.09229 1.55464 0
M  V30 1693 H 155.421 0.223149 3.87859 0
M  V30 1694 H 157.093 2.82273 3.64856 0
M  V30 1695 H 155.336 2.70901 3.38814 0
M  V30 1696 H 156.007 2.3685 4.98604 0
M  V30 1697 H 158.483 0.652529 4.10952 0
M  V30 1698 H 157.359 0.419336 5.47296 0
M  V30 1699 H 157.62 -0.889275 4.33064 0
M  V30 1700 N 156.679 -1.44442 0.630414 0
M  V30 1701 C 157.919 -2.03934 0.137919 0
M  V30 1702 C 158.283 -1.48509 -1.21692 0
M  V30 1703 O 159.484 -1.99499 -1.80149 0
M  V30 1704 C 157.755 -3.57187 0.123373 0
M  V30 1705 S 159.314 -4.37741 -0.304604 0
M  V30 1706 H 156.132 -0.708401 0.0607353 0
M  V30 1707 H 158.734 -1.76835 0.833643 0
M  V30 1708 H 157.438 -3.95032 1.11256 0
M  V30 1709 H 156.969 -3.88895 -0.59362 0
M  V30 1710 H 158.984 -4.71403 -1.54897 0
M  V30 1711 N 158.157 -0.370918 -1.53173 0
M  V30 1712 C 159.573 -0.0200818 -1.59587 0
M  V30 1713 C 159.773 1.46279 -1.38581 0
M  V30 1714 O 158.829 2.22506 -1.19363 0
M  V30 1715 C 160.142 -0.4808 -2.96831 0
M  V30 1716 C 161.69 -0.435477 -3.09956 0
M  V30 1717 C 162.165 -0.872092 -4.4962 0
M  V30 1718 N 163.656 -0.827364 -4.55751 0
M  V30 1719 C 164.391 -1.13683 -5.62018 0
M  V30 1720 N 163.887 -1.51584 -6.76014 0
M  V30 1721 N 165.68 -1.05927 -5.52029 0
M  V30 1722 H 157.831 -1.33652 -1.65079 0
M  V30 1723 H 160.094 -0.546634 -0.774529 0
M  V30 1724 H 159.8 -1.51577 -3.1736 0
M  V30 1725 H 159.674 0.129796 -3.76977 0
M  V30 1726 H 162.061 0.590371 -2.89134 0
M  V30 1727 H 162.142 -1.08164 -2.31806 0
M  V30 1728 H 161.786 -1.89608 -4.71181 0
M  V30 1729 H 161.716 -0.203127 -5.26208 0
M  V30 1730 H 164.207 -0.548216 -3.73902 0
M  V30 1731 H 164.52 -1.73609 -7.53047 0
M  V30 1732 H 162.865 -1.55454 -6.77391 0
M  V30 1733 H 166.056 -0.762321 -4.61851 0
M  V30 1734 H 166.229 -1.30378 -6.34749 0
M  V30 1735 N 159.635 1.57281 -0.100228 0
M  V30 1736 C 160.583 2.15542 0.874328 0
M  V30 1737 C 161.577 1.09962 1.28859 0
M  V30 1738 O 162.783 1.28298 1.26252 0
M  V30 1739 H 159.158 0.689567 0.300003 0
M  V30 1740 H 161.129 2.96241 0.35829 0
M  V30 1741 C 159.878 2.75454 2.1218 0
M  V30 1742 H 159.201 3.56384 1.81193 0
M  V30 1743 H 160.641 3.19781 2.78417 0
M  V30 1744 C 159.1 1.71602 2.89921 0
M  V30 1745 O 159.63 1.15804 3.84646 0
M  V30 1746 N 157.836 1.41975 2.53558 0
M  V30 1747 H 157.383 1.87539 1.76598 0
M  V30 1748 H 157.341 0.727274 3.05873 0
M  V30 1749 N 161.113 -0.173488 1.56642 0
M  V30 1750 C 162.36 -0.890465 1.81871 0
M  V30 1751 C 162.688 -1.82339 0.67696 0
M  V30 1752 O 161.943 -1.92795 -0.335926 0
M  V30 1753 C 162.242 -1.72069 3.13252 0
M  V30 1754 C 161.908 -0.936878 4.41059 0
M  V30 1755 C 160.57 -0.720545 4.75775 0
M  V30 1756 C 162.922 -0.386919 5.19762 0
M  V30 1757 C 160.25 0.0568829 5.86672 0
M  V30 1758 C 162.602 0.37741 6.31473 0
M  V30 1759 C 161.266 0.604563 6.64757 0
M  V30 1760 H 160.536 -0.325844 0.665512 0
M  V30 1761 H 163.183 -0.155527 1.90867 0
M  V30 1762 H 161.488 -2.52496 2.99588 0
M  V30 1763 H 163.185 -2.27844 3.29982 0
M  V30 1764 H 159.775 -1.11553 4.13828 0
M  V30 1765 H 163.959 -0.541398 4.93338 0
M  V30 1766 H 159.215 0.242635 6.10918 0
M  V30 1767 H 163.389 0.810825 6.91664 0
M  V30 1768 H 161.016 1.20885 7.50527 0
M  V30 1769 N 162.591 -1.51276 -0.441967 0
M  V30 1770 C 163.524 -1.66933 -1.55591 0
M  V30 1771 C 164.502 -0.516958 -1.54163 0
M  V30 1772 O 165.686 -0.740209 -1.73358 0
M  V30 1773 C 162.813 -1.67866 -2.94174 0
M  V30 1774 C 161.859 -2.89013 -3.13646 0
M  V30 1775 S 162.692 -4.49897 -2.90436 0
M  V30 1776 C 163.848 -4.53568 -4.31308 0
M  V30 1777 H 164.081 -2.61155 -1.42076 0
M  V30 1778 H 161.614 -1.40902 -0.631341 0
M  V30 1779 H 163.572 -1.69089 -3.74058 0
M  V30 1780 H 162.233 -0.748296 -3.05056 0
M  V30 1781 H 161.426 -2.86054 -4.14957 0
M  V30 1782 H 161.028 -2.85509 -2.4158 0
M  V30 1783 H 163.32 -4.28924 -5.24434 0
M  V30 1784 H 164.263 -5.55355 -4.39303 0
M  V30 1785 H 164.671 -3.82943 -4.14747 0
M  V30 1786 N 164.069 0.697108 -1.41344 0
M  V30 1787 C 165.485 1.00751 -1.2378 0
M  V30 1788 C 165.685 2.01105 -0.126066 0
M  V30 1789 O 164.741 2.47295 0.51004 0
M  V30 1790 C 166.054 1.53359 -2.58653 0
M  V30 1791 C 167.602 1.6525 -2.65822 0
M  V30 1792 C 168.077 2.2126 -4.01009 0
M  V30 1793 N 169.568 2.28622 -4.02847 0
M  V30 1794 C 170.303 2.72984 -5.04249 0
M  V30 1795 N 169.799 3.16962 -6.16041 0
M  V30 1796 N 171.592 2.72534 -4.91611 0
M  V30 1797 H 163.743 0.0322662 -2.12375 0
M  V30 1798 H 166.006 0.0768853 -0.944877 0
M  V30 1799 H 165.712 0.870773 -3.4075 0
M  V30 1800 H 165.586 2.51597 -2.81032 0
M  V30 1801 H 167.973 2.30644 -1.84086 0
M  V30 1802 H 168.054 0.655614 -2.47256 0
M  V30 1803 H 167.698 1.56482 -4.83193 0
M  V30 1804 H 167.628 3.21698 -4.16915 0
M  V30 1805 H 170.119 1.97585 -3.22131 0
M  V30 1806 H 170.432 3.49434 -6.89287 0
M  V30 1807 H 168.777 3.14875 -6.1958 0
M  V30 1808 H 171.968 2.37525 -4.0336 0
M  V30 1809 H 172.141 3.06789 -5.70775 0
M  V30 1810 N 165.547 1.27147 0.931209 0
M  V30 1811 C 166.963 1.04475 1.20653 0
M  V30 1812 C 167.163 -0.223885 2.00252 0
M  V30 1813 O 166.219 -0.930332 2.34736 0
M  V30 1814 C 167.532 2.28209 1.95809 0
M  V30 1815 C 169.08 2.33211 2.08762 0
M  V30 1816 C 169.555 3.56665 2.87323 0
M  V30 1817 N 171.046 3.57201 2.94892 0
M  V30 1818 C 171.781 4.49395 3.56134 0
M  V30 1819 N 171.277 5.51889 4.18796 0
M  V30 1820 N 173.07 4.37026 3.53504 0
M  V30 1821 H 165.221 2.08612 0.399333 0
M  V30 1822 H 167.484 0.917312 0.239253 0
M  V30 1823 H 167.19 3.20538 1.44736 0
M  V30 1824 H 167.064 2.33247 2.96438 0
M  V30 1825 H 169.451 1.41391 2.59023 0
M  V30 1826 H 169.532 2.32178 1.07364 0
M  V30 1827 H 169.176 4.4882 2.37746 0
M  V30 1828 H 169.106 3.54948 3.88998 0
M  V30 1829 H 171.597 2.83074 2.50354 0
M  V30 1830 H 171.91 6.18409 4.63454 0
M  V30 1831 H 170.255 5.55735 4.17353 0
M  V30 1832 H 173.446 3.56166 3.03749 0
M  V30 1833 H 173.619 5.09067 4.00942 0
M  V30 1834 N 167.025 -1.13721 1.09112 0
M  V30 1835 C 168.255 -1.88499 0.845671 0
M  V30 1836 C 168.663 -1.79218 -0.606432 0
M  V30 1837 O 168.006 -1.1544 -1.42896 0
M  V30 1838 C 168.068 -3.38954 1.19793 0
M  V30 1839 C 167.732 -3.72018 2.65428 0
M  V30 1840 C 168.729 -3.7153 3.63677 0
M  V30 1841 C 166.414 -4.01775 3.01467 0
M  V30 1842 C 168.408 -4.00336 4.95994 0
M  V30 1843 C 166.095 -4.30243 4.33975 0
M  V30 1844 C 167.093 -4.29508 5.31048 0
M  V30 1845 O 166.781 -4.5728 6.61173 0
M  V30 1846 H 166.513 -0.603702 0.304171 0
M  V30 1847 H 169.067 -1.44903 1.45576 0
M  V30 1848 H 167.297 -3.83039 0.530871 0
M  V30 1849 H 168.986 -3.95052 0.932146 0
M  V30 1850 H 169.752 -3.4862 3.37179 0
M  V30 1851 H 165.631 -4.01496 2.26544 0
M  V30 1852 H 169.175 -3.99678 5.71755 0
M  V30 1853 H 165.072 -4.52625 4.60219 0
M  V30 1854 H 165.84 -4.74964 6.66597 0
M  V30 1855 N 168.503 -0.877838 -1.30888 0
M  V30 1856 C 169.435 -0.296607 -2.27273 0
M  V30 1857 C 170.448 0.544799 -1.53414 0
M  V30 1858 O 171.637 0.365511 -1.74718 0
M  V30 1859 C 168.737 0.597481 -3.33592 0
M  V30 1860 C 167.91 -0.213251 -4.3688 0
M  V30 1861 C 166.969 0.610208 -5.2265 0
M  V30 1862 O 165.995 0.035441 -5.69189 0
M  V30 1863 N 167.197 1.92071 -5.47804 0
M  V30 1864 H 169.962 -1.12492 -2.77787 0
M  V30 1865 H 167.523 -0.740105 -1.43993 0
M  V30 1866 H 169.515 1.15425 -3.87891 0
M  V30 1867 H 168.085 1.32647 -2.83061 0
M  V30 1868 H 167.305 -0.951466 -3.82545 0
M  V30 1869 H 168.593 -0.769262 -5.02951 0
M  V30 1870 H 167.991 2.4107 -5.11763 0
M  V30 1871 H 166.548 2.42508 -6.05007 0
M  V30 1872 N 169.982 1.44106 -0.638065 0
M  V30 1873 C 171.207 2.0685 -0.150916 0
M  V30 1874 C 171.632 1.47417 1.16833 0
M  V30 1875 O 170.99 0.578264 1.71831 0
M  V30 1876 C 171.038 3.60555 -0.05708 0
M  V30 1877 O 170.142 4.00465 0.984972 0
M  V30 1878 H 169.483 0.658151 -0.0879399 0
M  V30 1879 H 172.013 1.84865 -0.876707 0
M  V30 1880 H 172.023 4.07789 0.131232 0
M  V30 1881 H 170.698 4.03193 -1.02021 0
M  V30 1882 H 169.275 3.64849 0.770672 0
M  V30 1883 N 171.46 0.379036 1.52974 0
M  V30 1884 C 172.876 0.0285448 1.59574 0
M  V30 1885 C 173.076 -1.45542 1.39355 0
M  V30 1886 O 172.132 -2.2187 1.20541 0
M  V30 1887 C 173.445 0.496535 2.96572 0
M  V30 1888 C 174.993 0.451909 3.0972 0
M  V30 1889 C 175.468 0.895924 4.49152 0
M  V30 1890 N 176.959 0.851522 4.55306 0
M  V30 1891 C 177.694 1.16661 5.61407 0
M  V30 1892 N 177.19 1.55166 6.752 0
M  V30 1893 N 178.983 1.08853 5.51459 0
M  V30 1894 H 171.134 1.34525 1.64367 0
M  V30 1895 H 173.397 0.550733 0.771619 0
M  V30 1896 H 173.103 1.53258 3.16552 0
M  V30 1897 H 172.977 -0.109802 3.7704 0
M  V30 1898 H 175.364 -0.575029 2.89443 0
M  V30 1899 H 175.445 1.09392 2.3123 0
M  V30 1900 H 175.089 1.92104 4.70168 0
M  V30 1901 H 175.019 0.23103 5.26093 0
M  V30 1902 H 177.51 0.568038 3.73606 0
M  V30 1903 H 177.823 1.776 7.52116 0
M  V30 1904 H 176.168 1.59044 6.76557 0
M  V30 1905 H 179.359 0.786803 4.6144 0
M  V30 1906 H 179.532 1.33742 6.34048 0
M  V30 1907 N 172.938 -1.57226 0.108567 0
M  V30 1908 C 174.184 -1.95121 -0.552761 0
M  V30 1909 C 174.517 -0.991345 -1.66991 0
M  V30 1910 O 173.792 -0.0267211 -1.94482 0
M  V30 1911 C 174.075 -3.43039 -1.09528 0
M  V30 1912 C 173.928 -4.49797 0.0177332 0
M  V30 1913 C 175.247 -3.92567 -1.98945 0
M  V30 1914 H 172.366 -0.709496 -0.199461 0
M  V30 1915 H 175.008 -1.89126 0.182011 0
M  V30 1916 H 173.158 -3.48279 -1.72146 0
M  V30 1917 H 174.83 -4.56661 0.652584 0
M  V30 1918 H 173.073 -4.284 0.682309 0
M  V30 1919 H 173.744 -5.50528 -0.402919 0
M  V30 1920 H 176.22 -3.89565 -1.46214 0
M  V30 1921 H 175.096 -4.96605 -2.33827 0
M  V30 1922 H 175.357 -3.32648 -2.91201 0
M  V30 1923 N 174.416 0.165178 -1.56732 0
M  V30 1924 C 175.644 0.896218 -1.86482 0
M  V30 1925 C 176.059 1.75555 -0.694675 0
M  V30 1926 O 175.416 1.79379 0.33607 0
M  V30 1927 C 175.467 1.76792 -3.1532 0
M  V30 1928 O 175.188 0.943239 -4.27825 0
M  V30 1929 C 176.689 2.6081 -3.58459 0
M  V30 1930 H 173.909 0.260064 -0.618553 0
M  V30 1931 H 176.453 0.163428 -2.03846 0
M  V30 1932 H 174.608 2.45398 -2.99764 0
M  V30 1933 H 175.022 1.53998 -5.01383 0
M  V30 1934 H 176.496 3.17579 -4.51495 0
M  V30 1935 H 176.973 3.35977 -2.82872 0
M  V30 1936 H 177.579 1.97526 -3.76648 0
M  V30 1937 N 175.894 1.51508 0.433938 0
M  V30 1938 C 176.826 1.69266 1.54537 0
M  V30 1939 C 177.839 0.573276 1.52373 0
M  V30 1940 O 179.028 0.847698 1.57087 0
M  V30 1941 C 176.128 1.69524 2.93453 0
M  V30 1942 C 175.301 2.98101 3.20085 0
M  V30 1943 C 174.36 2.90502 4.38742 0
M  V30 1944 O 173.386 3.64442 4.3723 0
M  V30 1945 N 174.588 2.06586 5.42496 0
M  V30 1946 H 177.353 2.65145 1.39708 0
M  V30 1947 H 174.914 1.49437 0.622922 0
M  V30 1948 H 176.906 1.62004 3.70859 0
M  V30 1949 H 175.476 0.812245 3.01863 0
M  V30 1950 H 174.696 3.19464 2.30947 0
M  V30 1951 H 175.984 3.83207 3.34708 0
M  V30 1952 H 175.382 1.45896 5.46563 0
M  V30 1953 H 173.939 2.04943 6.18742 0
M  V30 1954 N 177.372 -0.689602 1.41712 0
M  V30 1955 C 178.62 -1.4468 1.4111 0
M  V30 1956 C 178.941 -1.94986 0.0232196 0
M  V30 1957 O 178.211 -1.72097 -0.935913 0
M  V30 1958 H 176.791 -0.536847 0.519427 0
M  V30 1959 H 179.453 -0.815825 1.77004 0
M  V30 1960 H 178.549 -2.30706 2.10193 0
M  V30 1961 N 178.85 -1.27639 -0.924453 0
M  V30 1962 C 179.78 -1.13166 -2.04244 0
M  V30 1963 C 180.761 -0.032256 -1.70069 0
M  V30 1964 O 181.946 -0.207328 -1.9309 0
M  V30 1965 C 179.076 -0.781496 -3.38393 0
M  V30 1966 C 178.03 -1.83449 -3.86692 0
M  V30 1967 C 177.356 -1.33822 -5.17683 0
M  V30 1968 C 178.656 -3.23917 -4.09726 0
M  V30 1969 H 180.35 -2.06689 -2.1661 0
M  V30 1970 H 177.896 -0.995136 -1.04082 0
M  V30 1971 H 179.849 -0.667057 -4.16087 0
M  V30 1972 H 178.573 0.189439 -3.2605 0
M  V30 1973 H 177.232 -1.93789 -3.11193 0
M  V30 1974 H 176.88 -0.35665 -5.01734 0
M  V30 1975 H 176.58 -2.04224 -5.50968 0
M  V30 1976 H 178.104 -1.23679 -5.97943 0
M  V30 1977 H 179.518 -3.16559 -4.77978 0
M  V30 1978 H 177.915 -3.92059 -4.54324 0
M  V30 1979 H 178.985 -3.68729 -3.14908 0
M  V30 1980 N 180.328 1.1314 -1.09713 0
M  V30 1981 C 181.574 1.84757 -0.836224 0
M  V30 1982 C 181.907 1.8347 0.636598 0
M  V30 1983 O 181.182 1.27491 1.46889 0
M  V30 1984 C 181.465 3.32782 -1.37578 0
M  V30 1985 C 181.318 3.42567 -2.91493 0
M  V30 1986 C 182.637 4.28307 -1.01198 0
M  V30 1987 H 179.756 0.67082 -0.305236 0
M  V30 1988 H 182.398 1.3278 -1.35903 0
M  V30 1989 H 180.548 3.77177 -0.931097 0
M  V30 1990 H 182.22 3.06862 -3.44432 0
M  V30 1991 H 180.463 2.83349 -3.28475 0
M  V30 1992 H 181.134 4.46674 -3.24324 0
M  V30 1993 H 183.61 3.91999 -1.39556 0
M  V30 1994 H 182.486 5.30307 -1.41653 0
M  V30 1995 H 182.747 4.42029 0.0794833 0
M  V30 1996 N 181.806 0.884767 1.30421 0
M  V30 1997 C 182.769 0.356277 2.26414 0
M  V30 1998 C 183.769 -0.501124 1.52792 0
M  V30 1999 O 184.959 -0.30831 1.7145 0
M  V30 2000 C 182.091 -0.492316 3.37326 0
M  V30 2001 H 183.284 1.20389 2.74675 0
M  V30 2002 H 180.837 0.661607 1.41607 0
M  V30 2003 H 181.572 -1.36052 2.94381 0
M  V30 2004 H 181.357 0.121832 3.91911 0
M  V30 2005 H 182.847 -0.853871 4.08777 0
M  V30 2006 N 183.284 -1.43765 0.645699 0
M  V30 2007 C 184.532 -2.01499 0.155731 0
M  V30 2008 C 184.853 -1.51151 -1.232 0
M  V30 2009 O 184.123 -0.721044 -1.82148 0
M  V30 2010 H 182.703 -0.745003 0.0545817 0
M  V30 2011 H 185.365 -1.76075 0.835677 0
M  V30 2012 H 184.461 -3.1181 0.134577 0
M  V30 2013 N 184.763 -0.387143 -1.52771 0
M  V30 2014 C 185.673 0.456442 -2.30117 0
M  V30 2015 C 186.689 1.07342 -1.36944 0
M  V30 2016 O 187.865 1.07971 -1.70013 0
M  V30 2017 C 184.93 1.56957 -3.09136 0
M  V30 2018 C 183.991 0.977916 -4.18014 0
M  V30 2019 C 183.224 2.038 -4.93256 0
M  V30 2020 O 183.447 3.25271 -4.68567 0
M  V30 2021 O 182.381 1.6565 -5.78657 0
M  V30 2022 H 186.207 -0.17359 -3.03203 0
M  V30 2023 H 183.792 -0.150919 -1.48636 0
M  V30 2024 H 185.674 2.21628 -3.58412 0
M  V30 2025 H 184.349 2.18461 -2.38865 0
M  V30 2026 H 183.256 0.294525 -3.72939 0
M  V30 2027 H 184.589 0.407128 -4.90513 0
M  V30 2028 N 186.241 1.57166 -0.116904 0
M  V30 2029 C 187.469 1.99473 0.549383 0
M  V30 2030 C 187.884 0.996541 1.60357 0
M  V30 2031 O 187.241 -0.0108731 1.82497 0
M  V30 2032 C 187.292 3.41788 1.17741 0
M  V30 2033 O 187.013 4.37788 0.165362 0
M  V30 2034 C 188.514 3.99216 1.92722 0
M  V30 2035 H 185.734 0.655009 0.145616 0
M  V30 2036 H 188.278 2.03494 -0.202625 0
M  V30 2037 H 186.433 3.38713 1.88021 0
M  V30 2038 H 186.847 5.20806 0.621403 0
M  V30 2039 H 188.321 5.00882 2.31995 0
M  V30 2040 H 188.798 3.3824 2.80161 0
M  V30 2041 H 189.404 4.0583 1.27209 0
M  V30 2042 N 187.719 -0.156864 1.56817 0
M  V30 2043 C 188.682 -1.17781 1.96622 0
M  V30 2044 C 189.682 -1.36401 0.851555 0
M  V30 2045 O 190.872 -1.33561 1.11836 0
M  V30 2046 C 188.004 -2.54008 2.27361 0
M  V30 2047 H 189.197 -0.836564 2.87996 0
M  V30 2048 H 186.75 -0.39985 1.51099 0
M  V30 2049 H 187.485 -2.9312 1.38748 0
M  V30 2050 H 187.27 -2.41856 3.08623 0
M  V30 2051 H 188.76 -3.27558 2.59029 0
M  V30 2052 N 189.197 -1.51736 -0.425897 0
M  V30 2053 C 190.129 -1.70083 -1.53638 0
M  V30 2054 C 191.142 -0.581349 -1.52066 0
M  V30 2055 O 192.331 -0.856017 -1.56635 0
M  V30 2056 C 189.431 -1.71078 -2.9255 0
M  V30 2057 C 188.604 -2.99795 -3.185 0
M  V30 2058 C 187.663 -2.92825 -4.37196 0
M  V30 2059 O 186.689 -3.66756 -4.35291 0
M  V30 2060 N 187.891 -2.0946 -5.41393 0
M  V30 2061 H 190.656 -2.65882 -1.383 0
M  V30 2062 H 188.217 -1.49765 -0.614988 0
M  V30 2063 H 190.209 -1.63969 -3.69995 0
M  V30 2064 H 188.779 -0.828242 -3.01428 0
M  V30 2065 H 187.999 -3.20684 -2.2925 0
M  V30 2066 H 189.287 -3.84977 -3.32671 0
M  V30 2067 H 188.685 -1.48792 -5.45781 0
M  V30 2068 H 187.242 -2.08221 -6.17647 0
M  V30 2069 N 190.675 0.682077 -1.42076 0
M  V30 2070 C 191.607 1.80755 -1.40926 0
M  V30 2071 C 192.62 1.59833 -0.309398 0
M  V30 2072 O 193.809 1.69087 -0.572014 0
M  V30 2073 C 190.909 3.17744 -1.17865 0
M  V30 2074 C 190.082 3.65578 -2.40149 0
M  V30 2075 C 189.141 4.81277 -2.12742 0
M  V30 2076 O 188.167 4.92197 -2.85887 0
M  V30 2077 N 189.369 5.69474 -1.12602 0
M  V30 2078 H 192.134 1.82229 -2.37935 0
M  V30 2079 H 189.695 0.864903 -1.36861 0
M  V30 2080 H 191.687 3.9279 -0.9746 0
M  V30 2081 H 190.257 3.11214 -0.294068 0
M  V30 2082 H 189.477 2.81291 -2.76169 0
M  V30 2083 H 190.765 3.94278 -3.21593 0
M  V30 2084 H 190.163 5.63297 -0.520899 0
M  V30 2085 H 188.72 6.44363 -0.981842 0
M  V30 2086 N 192.153 1.28127 0.917671 0
M  V30 2087 C 193.402 1.14432 1.66097 0
M  V30 2088 C 193.715 -0.307247 1.93172 0
M  V30 2089 O 194.921 -0.565259 2.65551 0
M  V30 2090 C 193.377 2.00015 2.99202 0
M  V30 2091 C 192.985 3.49889 2.79789 0
M  V30 2092 C 194.729 1.94996 3.77064 0
M  V30 2093 C 192.636 4.27636 4.08511 0
M  V30 2094 H 191.566 0.424662 0.62304 0
M  V30 2095 H 194.217 1.52628 1.01868 0
M  V30 2096 H 192.599 1.54672 3.64544 0
M  V30 2097 H 193.773 4.03162 2.23152 0
M  V30 2098 H 192.088 3.56392 2.15345 0
M  V30 2099 H 194.685 2.50354 4.72469 0
M  V30 2100 H 195.028 0.925819 4.05875 0
M  V30 2101 H 195.561 2.38287 3.18534 0
M  V30 2102 H 192.3 5.30615 3.84874 0
M  V30 2103 H 191.82 3.79137 4.64774 0
M  V30 2104 H 193.499 4.37346 4.76799 0
M  V30 2105 N 193.631 -1.12557 1.10312 0
M  V30 2106 C 194.871 -1.8568 0.854543 0
M  V30 2107 C 195.235 -1.82091 -0.608843 0
M  V30 2108 O 196.436 -2.50544 -0.973717 0
M  V30 2109 C 194.707 -3.2942 1.38626 0
M  V30 2110 S 196.266 -4.19931 1.27293 0
M  V30 2111 H 193.084 -0.640427 0.308827 0
M  V30 2112 H 195.686 -1.35599 1.40831 0
M  V30 2113 H 194.39 -3.2959 2.44537 0
M  V30 2114 H 193.921 -3.84566 0.82902 0
M  V30 2115 H 195.936 -4.95668 0.229776 0
M  V30 2116 N 195.109 -0.891671 -1.2995 0
M  V30 2117 C 196.019 -0.367691 -2.31701 0
M  V30 2118 C 197.035 0.533486 -1.6562 0
M  V30 2119 O 198.211 0.424997 -1.96865 0
M  V30 2120 C 195.276 0.403406 -3.44345 0
M  V30 2121 C 194.337 -0.528328 -4.26037 0
M  V30 2122 C 193.57 0.206063 -5.33302 0
M  V30 2123 O 193.793 1.43119 -5.52153 0
M  V30 2124 O 192.727 -0.447281 -6.00236 0
M  V30 2125 H 196.553 -1.21163 -2.78484 0
M  V30 2126 H 194.138 -0.655725 -1.34241 0
M  V30 2127 H 196.02 0.839753 -4.12948 0
M  V30 2128 H 194.695 1.22354 -2.99685 0
M  V30 2129 H 193.602 -1.01362 -3.60106 0
M  V30 2130 H 194.935 -1.31465 -4.74318 0
M  V30 2131 N 196.587 1.43421 -0.653314 0
M  V30 2132 C 197.864 1.95361 -0.0966581 0
M  V30 2133 C 198.244 1.59461 1.38331 0
M  V30 2134 O 197.592 0.879777 2.10884 0
M  V30 2135 C 197.802 3.47311 -0.342988 0
M  V30 2136 C 199.15 4.23875 -0.24798 0
M  V30 2137 O 200.174 3.55133 -0.275553 0
M  V30 2138 O 199.033 5.4623 -0.171771 0
M  V30 2139 H 196.127 0.826945 0.00956291 0
M  V30 2140 H 198.673 1.5336 -0.726558 0
M  V30 2141 H 197.445 3.66569 -1.36906 0
M  V30 2142 H 197.068 3.9631 0.319975 0
M  V30 2143 N 198.065 0.39524 1.52563 0
M  V30 2144 C 198.995 -0.428384 2.29537 0
M  V30 2145 C 199.976 -1.05831 1.33169 0
M  V30 2146 O 201.161 -1.06995 1.62067 0
M  V30 2147 C 198.291 -1.55274 3.10656 0
M  V30 2148 C 197.245 -1.04855 4.14957 0
M  V30 2149 C 196.571 -2.26543 4.84337 0
M  V30 2150 C 197.871 -0.112324 5.22179 0
M  V30 2151 H 199.565 0.213867 2.98635 0
M  V30 2152 H 197.111 0.104298 1.43622 0
M  V30 2153 H 199.064 -2.1358 3.63265 0
M  V30 2154 H 197.788 -2.22266 2.39302 0
M  V30 2155 H 196.447 -0.487985 3.63338 0
M  V30 2156 H 196.095 -2.92059 4.09525 0
M  V30 2157 H 195.795 -1.93466 5.54837 0
M  V30 2158 H 197.319 -2.85481 5.39753 0
M  V30 2159 H 198.733 -0.603752 5.70112 0
M  V30 2160 H 197.13 0.128968 5.99961 0
M  V30 2161 H 198.2 0.837052 4.77621 0
M  V30 2162 N 199.544 -1.57102 0.125237 0
M  V30 2163 C 200.96 -1.57915 -0.231322 0
M  V30 2164 C 201.16 -1.13833 -1.66266 0
M  V30 2165 O 200.216 -0.828581 -2.38518 0
M  V30 2166 C 201.529 -3.00699 0.00766489 0
M  V30 2167 C 203.077 -3.12947 -0.0577483 0
M  V30 2168 C 203.552 -4.57742 0.153626 0
M  V30 2169 N 205.043 -4.63092 0.0998073 0
M  V30 2170 C 205.778 -5.72905 0.238174 0
M  V30 2171 N 205.274 -6.91445 0.433057 0
M  V30 2172 N 207.067 -5.6182 0.177308 0
M  V30 2173 H 199.218 -1.84055 1.06007 0
M  V30 2174 H 201.481 -0.850905 0.417929 0
M  V30 2175 H 201.187 -3.3726 0.997431 0
M  V30 2176 H 201.061 -3.70236 -0.721452 0
M  V30 2177 H 203.448 -2.7624 -1.03804 0
M  V30 2178 H 203.529 -2.4594 0.70335 0
M  V30 2179 H 203.173 -4.95149 1.13092 0
M  V30 2180 H 203.103 -5.22848 -0.627534 0
M  V30 2181 H 205.594 -3.77871 -0.047051 0
M  V30 2182 H 205.907 -7.70985 0.529332 0
M  V30 2183 H 204.252 -6.93415 0.469109 0
M  V30 2184 H 207.443 -4.68093 0.0259748 0
M  V30 2185 H 207.616 -6.47357 0.288582 0
M  V30 2186 N 201.022 0.148545 -1.56898 0
M  V30 2187 C 201.952 1.18524 -2.01182 0
M  V30 2188 C 202.933 1.4489 -0.891123 0
M  V30 2189 O 204.118 1.55836 -1.15882 0
M  V30 2190 C 201.248 2.51879 -2.39112 0
M  V30 2191 C 200.202 2.40038 -3.54353 0
M  V30 2192 C 199.528 3.78089 -3.78091 0
M  V30 2193 C 200.828 1.88577 -4.87069 0
M  V30 2194 H 202.522 0.817029 -2.88036 0
M  V30 2195 H 200.068 0.391575 -1.38574 0
M  V30 2196 H 202.021 3.24627 -2.68692 0
M  V30 2197 H 200.745 2.90532 -1.49193 0
M  V30 2198 H 199.404 1.69742 -3.24936 0
M  V30 2199 H 199.052 4.14175 -2.85426 0
M  V30 2200 H 198.752 3.71028 -4.55645 0
M  V30 2201 H 200.276 4.52387 -4.10095 0
M  V30 2202 H 201.69 2.51117 -5.15377 0
M  V30 2203 H 200.087 1.9241 -5.68417 0
M  V30 2204 H 201.157 0.84136 -4.77545 0
M  V30 2205 N 202.5 1.5196 0.417844 0
M  V30 2206 C 203.74 1.67262 1.17486 0
M  V30 2207 C 204.104 0.38983 1.88001 0
M  V30 2208 O 205.305 0.418845 2.65517 0
M  V30 2209 C 203.576 2.85526 2.14965 0
M  V30 2210 S 205.135 3.21263 2.98891 0
M  V30 2211 H 201.953 0.589077 0.398132 0
M  V30 2212 H 204.555 1.89927 0.463452 0
M  V30 2213 H 203.259 3.77145 1.61833 0
M  V30 2214 H 202.79 2.65107 2.90657 0
M  V30 2215 H 204.805 2.69208 4.16823 0
M  V30 2216 N 203.978 -0.674533 1.42435 0
M  V30 2217 C 205.227 -1.43034 1.42212 0
M  V30 2218 C 205.54 -1.95555 0.0420788 0
M  V30 2219 O 206.746 -2.71374 -0.0827558 0
M  V30 2220 C 205.202 -2.58748 2.50155 0
M  V30 2221 C 204.81 -2.12925 3.94166 0
M  V30 2222 C 206.554 -3.36257 2.59098 0
M  V30 2223 C 204.461 -3.25723 4.93618 0
M  V30 2224 H 203.391 -0.537345 0.528939 0
M  V30 2225 H 206.042 -0.73024 1.68344 0
M  V30 2226 H 204.424 -3.31128 2.17188 0
M  V30 2227 H 205.598 -1.47697 4.36488 0
M  V30 2228 H 203.913 -1.48354 3.89076 0
M  V30 2229 H 206.51 -4.20264 3.30578 0
M  V30 2230 H 206.853 -3.82866 1.63461 0
M  V30 2231 H 207.386 -2.70947 2.9126 0
M  V30 2232 H 204.125 -2.84105 5.90732 0
M  V30 2233 H 203.645 -3.89732 4.55926 0
M  V30 2234 H 205.324 -3.91186 5.15347 0
M  V30 2235 N 205.456 -1.28612 -0.910864 0
M  V30 2236 C 206.867 -1.14406 -1.47541 0
M  V30 2237 C 207.218 0.264901 -1.94403 0
M  V30 2238 O 206.343 1.15942 -1.82719 0
M  V30 2239 C 206.938 -2.07073 -2.68153 0
M  V30 2240 C 205.497 -1.96923 -3.20778 0
M  V30 2241 C 204.644 -1.98646 -1.93481 0
M  V30 2242 H 207.595 -1.41259 -0.723291 0
M  V30 2243 H 207.616 -1.63642 -3.43514 0
M  V30 2244 H 207.128 -3.09611 -2.34015 0
M  V30 2245 H 205.229 -0.97433 -3.59635 0
M  V30 2246 H 205.342 -2.84026 -3.85832 0
M  V30 2247 H 203.706 -1.43093 -2.10705 0
M  V30 2248 H 204.489 -3.02868 -1.61634 0
M  V30 2249 N 206.934 1.1197 -1.10907 0
M  V30 2250 C 208.159 1.87942 -0.877064 0
M  V30 2251 C 208.584 1.79341 0.567314 0
M  V30 2252 O 207.942 1.15184 1.40009 0
M  V30 2253 C 207.99 3.34926 -1.33629 0
M  V30 2254 O 207.094 4.09303 -0.504447 0
M  V30 2255 H 206.435 0.583785 -0.316371 0
M  V30 2256 H 208.965 1.4157 -1.47712 0
M  V30 2257 H 208.975 3.8577 -1.32837 0
M  V30 2258 H 207.65 3.40504 -2.3881 0
M  V30 2259 H 206.227 3.68393 -0.577993 0
M  V30 2260 N 208.412 0.89855 1.29475 0
M  V30 2261 C 209.64 0.539261 1.99749 0
M  V30 2262 C 210.055 -0.875716 1.67262 0
M  V30 2263 O 209.412 -1.57786 0.917049 0
M  V30 2264 C 209.463 0.72061 3.54245 0
M  V30 2265 O 209.184 2.07989 3.8558 0
M  V30 2266 C 210.685 0.366118 4.41786 0
M  V30 2267 H 207.905 0.207047 0.638258 0
M  V30 2268 H 210.449 1.20758 1.65039 0
M  V30 2269 H 208.604 0.0994862 3.87272 0
M  V30 2270 H 209.018 2.10841 4.80257 0
M  V30 2271 H 210.492 0.543848 5.49314 0
M  V30 2272 H 210.969 -0.696763 4.33638 0
M  V30 2273 H 211.575 0.964135 4.14228 0
M  V30 2274 N 209.89 -1.43072 0.660911 0
M  V30 2275 C 211.138 -2.01323 0.177094 0
M  V30 2276 C 211.459 -1.5245 -1.2159 0
M  V30 2277 O 210.729 -0.740322 -1.81373 0
M  V30 2278 H 209.309 -0.744382 0.0624804 0
M  V30 2279 H 211.971 -1.75179 0.854305 0
M  V30 2280 H 211.067 -3.11649 0.167641 0
M  V30 2281 N 211.368 -0.403325 -1.52352 0
M  V30 2282 C 212.779 0.0675782 -1.86578 0
M  V30 2283 C 213.13 1.44941 -1.32236 0
M  V30 2284 O 212.255 2.06112 -0.659307 0
M  V30 2285 C 212.85 0.129404 -3.38553 0
M  V30 2286 C 211.409 0.544629 -3.72439 0
M  V30 2287 C 210.556 -0.284551 -2.75836 0
M  V30 2288 H 213.507 -0.620631 -1.46061 0
M  V30 2289 H 213.528 0.94581 -3.68558 0
M  V30 2290 H 213.04 -0.87645 -3.78074 0
M  V30 2291 H 211.141 1.55734 -3.38493 0
M  V30 2292 H 211.254 0.293046 -4.78203 0
M  V30 2293 H 209.618 0.252258 -2.53448 0
M  V30 2294 H 210.401 -1.28865 -3.18196 0
M  V30 2295 N 212.846 1.57033 -0.133567 0
M  V30 2296 C 213.776 2.1909 0.807567 0
M  V30 2297 C 214.757 1.13517 1.26681 0
M  V30 2298 O 215.942 1.41809 1.32679 0
M  V30 2299 C 213.072 2.80188 2.05212 0
M  V30 2300 C 212.026 3.91471 1.73015 0
M  V30 2301 C 211.352 4.39443 3.04622 0
M  V30 2302 C 212.652 5.12886 0.987168 0
M  V30 2303 H 214.346 2.97988 0.290403 0
M  V30 2304 H 211.892 1.43335 0.138239 0
M  V30 2305 H 213.845 3.22264 2.71521 0
M  V30 2306 H 212.569 1.98601 2.59278 0
M  V30 2307 H 211.228 3.49993 1.0909 0
M  V30 2308 H 210.876 3.54695 3.56651 0
M  V30 2309 H 210.576 5.14495 2.83847 0
M  V30 2310 H 212.1 4.8418 3.72024 0
M  V30 2311 H 213.514 5.51891 1.55208 0
M  V30 2312 H 211.911 5.93615 0.87985 0
M  V30 2313 H 212.981 4.84894 -0.0235286 0
M  V30 2314 O 214.363 -0.00541248 1.61499 0
M  V30 2315 H 215.054 -0.622816 1.83414 0
M  V30 END ATOM
M  V30 BEGIN BOND
M  V30 END BOND
M  V30 END CTAB
M  END
$$$$
