drugbank_target|P05020 Dihydroorotase (DB02129; DB02262; DB03801; DB04252)
 OpenBabel12092119543D

  0  0  0     0  0            999 V3000
M  V30 BEGIN CTAB
M  V30 COUNTS 5424 5487 0 0 0
M  V30 BEGIN ATOM
M  V30 1 H -0.908 1.98254 -0.117106 0
M  V30 2 N 0 1.576 0 0
M  V30 3 C 0.933 2.03868 1.02534 0
M  V30 4 C 1.911 0.928543 1.3348 0
M  V30 5 O 3.095 1.19667 1.45644 0
M  V30 6 C 0.222 2.43627 2.35294 0
M  V30 7 C -0.732 3.65373 2.2001 0
M  V30 8 S 0.101 5.13292 1.52614 0
M  V30 9 C 1.257 5.56322 2.86805 0
M  V30 10 H 1.49 2.90518 0.631377 0
M  V30 11 H -0.977 1.52953 0.210867 0
M  V30 12 H 0.981 2.67203 3.11629 0
M  V30 13 H -0.358 1.57376 2.7183 0
M  V30 14 H -1.165 3.90944 3.18086 0
M  V30 15 H -1.563 3.418 1.51819 0
M  V30 16 H 0.729 5.58782 3.83104 0
M  V30 17 H 1.672 6.56266 2.65933 0
M  V30 18 H 2.08 4.83886 2.90714 0
M  V30 19 N 1.4781 -0.272755 1.55222 0
M  V30 20 C 2.7061 -1.02255 1.79865 0
M  V30 21 C 3.1211 -1.79924 0.572088 0
M  V30 22 O 2.4781 -1.76638 -0.458842 0
M  V30 23 C 2.5291 -1.98094 3.02392 0
M  V30 24 O 2.2501 -1.23572 4.20311 0
M  V30 25 C 3.7511 -2.84884 3.39641 0
M  V30 26 H 0.9711 -0.302057 0.599168 0
M  V30 27 H 3.5151 -0.303465 2.02236 0
M  V30 28 H 1.6701 -2.65465 2.82147 0
M  V30 29 H 2.0841 -1.88172 4.89583 0
M  V30 30 H 3.5581 -3.47927 4.28545 0
M  V30 31 H 4.0351 -3.54665 2.59055 0
M  V30 32 H 4.6411 -2.23003 3.62146 0
M  V30 33 N 2.9562 -1.48159 -0.537278 0
M  V30 34 C 3.9192 -1.61665 -1.62472 0
M  V30 35 C 4.9192 -0.490395 -1.5314 0
M  V30 36 O 6.1092 -0.755998 -1.5694 0
M  V30 37 C 3.2412 -1.57997 -3.02076 0
M  V30 38 H 4.4342 -2.58621 -1.51839 0
M  V30 39 H 1.9872 -1.36647 -0.758771 0
M  V30 40 H 2.7222 -0.624913 -3.18222 0
M  V30 41 H 2.5072 -2.39755 -3.10258 0
M  V30 42 H 3.9972 -1.70627 -3.81151 0
M  V30 43 N 4.4343 0.785586 -1.36625 0
M  V30 44 C 5.8453 1.36101 -1.27803 0
M  V30 45 C 6.1963 1.96035 0.0804875 0
M  V30 46 O 5.3213 1.92834 0.982042 0
M  V30 47 C 5.9163 2.47442 -2.31426 0
M  V30 48 C 4.4753 3.00789 -2.26281 0
M  V30 49 C 3.6223 1.73896 -2.15999 0
M  V30 50 H 6.5733 0.586928 -1.47448 0
M  V30 51 H 6.5943 3.2656 -1.95291 0
M  V30 52 H 6.1063 2.03791 -3.30289 0
M  V30 53 H 4.2073 3.48851 -1.30896 0
M  V30 54 H 4.3203 3.57343 -3.19128 0
M  V30 55 H 2.6843 1.9628 -1.62316 0
M  V30 56 H 3.4673 1.32368 -3.16755 0
M  V30 57 N 5.9124 1.20967 1.01018 0
M  V30 58 C 7.1374 1.0503 1.78839 0
M  V30 59 C 7.5624 -0.395752 1.8389 0
M  V30 60 O 6.9204 -1.28529 1.27867 0
M  V30 61 C 6.9684 1.64602 3.2084 0
M  V30 62 O 6.0724 0.887988 4.02726 0
M  V30 63 H 5.4134 0.369987 0.551367 0
M  V30 64 H 7.9434 1.60399 1.27018 0
M  V30 65 H 7.9534 1.68607 3.71532 0
M  V30 66 H 6.6284 2.69841 3.16479 0
M  V30 67 H 5.2054 0.922648 3.61305 0
M  V30 68 N 7.3905 -1.2043 1.01659 0
M  V30 69 C 8.3225 -2.22626 0.544988 0
M  V30 70 C 9.3355 -1.58479 -0.372609 0
M  V30 71 O 10.5245 -1.77679 -0.170958 0
M  V30 72 C 7.6245 -3.38141 -0.22663 0
M  V30 73 C 6.7975 -4.31877 0.692876 0
M  V30 74 C 5.8565 -5.26191 -0.0311616 0
M  V30 75 O 4.8825 -5.6612 0.591343 0
M  V30 76 N 6.0845 -5.65618 -1.30601 0
M  V30 77 H 8.8495 -2.63716 1.42388 0
M  V30 78 H 6.4105 -1.34971 0.894116 0
M  V30 79 H 8.4025 -3.98239 -0.72024 0
M  V30 80 H 6.9725 -2.95943 -1.00681 0
M  V30 81 H 6.1925 -3.69746 1.36679 0
M  V30 82 H 7.4805 -4.91426 1.31824 0
M  V30 83 H 6.8785 -5.3519 -1.83269 0
M  V30 84 H 5.4355 -6.28025 -1.74435 0
M  V30 85 N 8.8686 -0.792821 -1.36206 0
M  V30 86 C 10.1146 -0.36733 -1.99446 0
M  V30 87 C 10.4476 1.05917 -1.62774 0
M  V30 88 O 9.7226 1.7324 -0.88421 0
M  V30 89 C 10.0056 -0.535044 -3.56103 0
M  V30 90 C 9.8586 -2.00548 -4.02617 0
M  V30 91 C 11.1776 0.0478191 -4.40074 0
M  V30 92 H 8.2966 -0.134941 -0.724541 0
M  V30 93 H 10.9386 -0.999794 -1.61568 0
M  V30 94 H 9.0886 0.00336329 -3.885 0
M  V30 95 H 10.7606 -2.60521 -3.80692 0
M  V30 96 H 9.0036 -2.50686 -3.54032 0
M  V30 97 H 9.6746 -2.07377 -5.11565 0
M  V30 98 H 12.1506 -0.411822 -4.14057 0
M  V30 99 H 11.0266 -0.0995336 -5.4881 0
M  V30 100 H 11.2876 1.14025 -4.27142 0
M  V30 101 N 10.3467 1.47872 -0.545128 0
M  V30 102 C 11.2767 2.32661 0.197793 0
M  V30 103 C 12.2577 1.43041 0.920504 0
M  V30 104 O 13.4427 1.71912 0.90333 0
M  V30 105 C 10.5727 3.24569 1.23582 0
M  V30 106 C 9.5267 4.23333 0.630323 0
M  V30 107 C 8.8527 5.0448 1.77211 0
M  V30 108 C 10.1527 5.20704 -0.407974 0
M  V30 109 H 11.8467 2.95024 -0.510045 0
M  V30 110 H 9.3927 1.4187 -0.246731 0
M  V30 111 H 11.3457 3.8272 1.76362 0
M  V30 112 H 10.0697 2.60236 1.97344 0
M  V30 113 H 8.7287 3.6639 0.123922 0
M  V30 114 H 8.3767 4.36561 2.49847 0
M  V30 115 H 8.0767 5.71339 1.37281 0
M  V30 116 H 9.6007 5.65487 2.3034 0
M  V30 117 H 11.0147 5.7329 0.033305 0
M  V30 118 H 9.4117 5.95699 -0.725486 0
M  V30 119 H 10.4817 4.66917 -1.30828 0
M  V30 120 N 11.8248 0.280983 1.55075 0
M  V30 121 C 12.7718 -0.603937 2.22758 0
M  V30 122 C 13.7418 -1.1452 1.20309 0
M  V30 123 O 14.9268 -1.19343 1.48869 0
M  V30 124 C 12.0668 -1.77947 2.95684 0
M  V30 125 C 11.1798 -1.2715 4.12864 0
M  V30 126 C 10.3148 -2.4093 4.7342 0
M  V30 127 C 9.3538 -1.87165 5.82783 0
M  V30 128 N 8.4908 -2.94441 6.37377 0
M  V30 129 H 13.3308 -0.020124 2.97993 0
M  V30 130 H 10.8678 0.00183425 1.471 0
M  V30 131 H 12.8258 -2.47055 3.36184 0
M  V30 132 H 11.4558 -2.33522 2.22861 0
M  V30 133 H 10.5078 -0.473331 3.77444 0
M  V30 134 H 11.8198 -0.837751 4.91715 0
M  V30 135 H 10.9738 -3.18021 5.1667 0
M  V30 136 H 9.7128 -2.87623 3.93859 0
M  V30 137 H 8.7178 -1.08556 5.38976 0
M  V30 138 H 9.9428 -1.41401 6.64216 0
M  V30 139 H 7.8888 -3.40505 5.60707 0
M  V30 140 H 7.8058 -2.55501 7.11516 0
M  V30 141 H 9.0738 -3.71489 6.85285 0
M  V30 142 N 13.3029 -1.57598 0.00835791 0
M  V30 143 C 14.5519 -1.90107 -0.673968 0
M  V30 144 C 14.8649 -0.884275 -1.7447 0
M  V30 145 O 16.0709 -1.09987 -2.48224 0
M  V30 146 C 14.5269 -3.37497 -1.24995 0
M  V30 147 C 14.1349 -4.47491 -0.2136 0
M  V30 148 C 15.8789 -3.79104 -1.90999 0
M  V30 149 C 13.7859 -5.85963 -0.80005 0
M  V30 150 H 12.7159 -0.709393 -0.255495 0
M  V30 151 H 15.3669 -1.83365 0.0702693 0
M  V30 152 H 13.7489 -3.39102 -2.04513 0
M  V30 153 H 14.9229 -4.57414 0.557596 0
M  V30 154 H 13.2379 -4.14956 0.346474 0
M  V30 155 H 15.8349 -4.79901 -2.35795 0
M  V30 156 H 16.1779 -3.1306 -2.74407 0
M  V30 157 H 16.7109 -3.79833 -1.18203 0
M  V30 158 H 13.4499 -6.555 -0.00456708 0
M  V30 159 H 12.9699 -5.79687 -1.54021 0
M  V30 160 H 14.6489 -6.33884 -1.29615 0
M  V30 161 N 14.781 0.264519 -1.55364 0
M  V30 162 C 16.197 0.61215 -1.47394 0
M  V30 163 C 16.397 1.89134 -0.695018 0
M  V30 164 O 15.453 2.51563 -0.217275 0
M  V30 165 C 16.766 0.731235 -2.91674 0
M  V30 166 C 18.314 0.82473 -3.01939 0
M  V30 167 C 18.789 0.975522 -4.4749 0
M  V30 168 N 20.28 1.04083 -4.51354 0
M  V30 169 C 21.015 1.17646 -5.61201 0
M  V30 170 N 20.511 1.27874 -6.80896 0
M  V30 171 N 22.304 1.20823 -5.48961 0
M  V30 172 H 14.455 -0.575456 -2.04456 0
M  V30 173 H 16.718 -0.196099 -0.927496 0
M  V30 174 H 16.424 -0.138392 -3.51428 0
M  V30 175 H 16.298 1.60883 -3.41169 0
M  V30 176 H 18.685 1.68482 -2.42276 0
M  V30 177 H 18.766 -0.0776479 -2.55682 0
M  V30 178 H 18.41 0.120058 -5.07758 0
M  V30 179 H 18.34 1.89268 -4.91412 0
M  V30 180 H 20.831 0.973846 -3.65136 0
M  V30 181 H 21.144 1.38081 -7.60364 0
M  V30 182 H 19.489 1.24863 -6.83692 0
M  V30 183 H 22.68 1.12469 -4.54388 0
M  V30 184 H 22.853 1.31049 -6.3461 0
M  V30 185 N 16.2591 1.48442 0.529413 0
M  V30 186 C 17.6751 1.34575 0.858004 0
M  V30 187 C 17.8751 0.3572 1.98309 0
M  V30 188 O 16.9311 -0.221379 2.51528 0
M  V30 189 C 18.2441 2.74617 1.22499 0
M  V30 190 C 19.7921 2.83109 1.33484 0
M  V30 191 C 20.2671 4.23854 1.73526 0
M  V30 192 N 21.7581 4.2653 1.80628 0
M  V30 193 C 22.4931 5.32372 2.12997 0
M  V30 194 N 21.9891 6.48491 2.43786 0
M  V30 195 N 23.7821 5.19766 2.14008 0
M  V30 196 H 15.9331 2.1133 -0.212925 0
M  V30 197 H 18.1961 0.947439 -0.0326199 0
M  V30 198 H 17.9021 3.4852 0.471905 0
M  V30 199 H 17.7761 3.08177 2.17501 0
M  V30 200 H 20.1631 2.09462 2.0787 0
M  V30 201 H 20.2441 2.53168 0.366027 0
M  V30 202 H 19.8881 4.98018 0.997013 0
M  V30 203 H 19.8181 4.5124 2.71459 0
M  V30 204 H 22.3091 3.42772 1.59108 0
M  V30 205 H 22.6221 7.24993 2.67592 0
M  V30 206 H 20.9671 6.51765 2.41304 0
M  V30 207 H 24.1581 4.28066 1.89412 0
M  V30 208 H 24.3311 6.02354 2.38902 0
M  V30 209 N 17.7372 -0.778329 1.37039 0
M  V30 210 C 19.1482 -1.35421 1.28523 0
M  V30 211 C 19.4992 -1.96075 -0.0700901 0
M  V30 212 O 18.6242 -1.93352 -0.971801 0
M  V30 213 C 19.2192 -2.46211 2.32735 0
M  V30 214 C 17.7782 -2.99585 2.27873 0
M  V30 215 C 16.9252 -1.72748 2.16918 0
M  V30 216 H 19.8762 -0.5791 1.47757 0
M  V30 217 H 19.8972 -3.2552 1.9702 0
M  V30 218 H 19.4092 -2.02036 3.31365 0
M  V30 219 H 17.5102 -3.48152 1.32745 0
M  V30 220 H 17.6232 -3.55646 3.21018 0
M  V30 221 H 15.9872 -1.95416 1.63354 0
M  V30 222 H 16.7702 -1.30686 3.17452 0
M  V30 223 N 19.2153 -1.21501 -1.00376 0
M  V30 224 C 20.4923 -0.941745 -1.71437 0
M  V30 225 C 20.8723 0.546114 -2.03914 0
M  V30 226 O 20.2203 1.51128 -1.71384 0
M  V30 227 C 20.4303 -1.82812 -2.97289 0
M  V30 228 C 21.7783 -2.07771 -3.70292 0
M  V30 229 O 22.8023 -1.80171 -3.07273 0
M  V30 230 O 21.6613 -2.54456 -4.83647 0
M  V30 231 H 18.7553 -0.353243 -0.747762 0
M  V30 232 H 21.3013 -1.32436 -1.06108 0
M  V30 233 H 20.0733 -2.83501 -2.69709 0
M  V30 234 H 19.6963 -1.4464 -3.70358 0
M  V30 235 N 20.6934 1.19889 -1.02296 0
M  V30 236 C 21.9704 1.85148 -0.630832 0
M  V30 237 C 22.3504 1.91385 0.890782 0
M  V30 238 O 21.6984 1.42642 1.78509 0
M  V30 239 C 21.9084 3.24442 -1.28602 0
M  V30 240 C 23.2564 4.00663 -1.4055 0
M  V30 241 O 24.2804 3.33818 -1.24273 0
M  V30 242 O 23.1394 5.20387 -1.66913 0
M  V30 243 H 20.2334 0.797613 -0.218499 0
M  V30 244 H 22.7794 1.27427 -1.12074 0
M  V30 245 H 21.5514 3.14704 -2.32545 0
M  V30 246 H 21.1744 3.89802 -0.7836 0
M  V30 247 N 22.1715 0.800033 1.35784 0
M  V30 248 C 23.4175 0.38701 1.99684 0
M  V30 249 C 23.7725 -1.03268 1.62338 0
M  V30 250 O 23.0655 -1.70543 0.87325 0
M  V30 251 C 23.2595 0.500276 3.53881 0
M  V30 252 C 23.0885 1.92942 4.06206 0
M  V30 253 C 21.8585 2.55637 4.35865 0
M  V30 254 C 24.0565 2.89307 4.25213 0
M  V30 255 N 22.0385 3.9003 4.74078 0
M  V30 256 C 23.4095 4.08556 4.66349 0
M  V30 257 C 25.4645 2.86225 4.07406 0
M  V30 258 C 24.1675 5.25146 4.91543 0
M  V30 259 C 26.1935 4.02011 4.33752 0
M  V30 260 C 25.5555 5.20007 4.75155 0
M  V30 261 H 21.6545 0.189252 0.758754 0
M  V30 262 H 24.2385 1.03988 1.64604 0
M  V30 263 H 22.4095 -0.122568 3.88207 0
M  V30 264 H 24.1415 0.0624733 4.04652 0
M  V30 265 H 20.8965 2.07039 4.25948 0
M  V30 266 H 21.3205 4.59205 4.97454 0
M  V30 267 H 25.9625 1.96154 3.74544 0
M  V30 268 H 23.6805 6.15794 5.23281 0
M  V30 269 H 27.2665 4.00999 4.21534 0
M  V30 270 H 26.1465 6.08113 4.95145 0
M  V30 271 N 23.6496 -1.47581 0.552962 0
M  V30 272 C 24.5996 -2.26961 -0.217423 0
M  V30 273 C 25.5836 -1.34099 -0.889168 0
M  V30 274 O 26.7756 -1.58483 -0.788176 0
M  V30 275 C 23.9046 -3.19756 -1.24944 0
M  V30 276 C 22.9906 -4.20097 -0.581327 0
M  V30 277 N 23.3816 -5.04614 0.346171 0
M  V30 278 C 21.6796 -4.38099 -0.835767 0
M  V30 279 C 22.3806 -5.77052 0.733854 0
M  V30 280 N 21.3566 -5.43526 0.0896567 0
M  V30 281 H 25.1586 -2.89688 0.495761 0
M  V30 282 H 22.6726 -1.58068 0.372597 0
M  V30 283 H 24.6696 -3.75305 -1.81527 0
M  V30 284 H 23.3296 -2.58585 -1.96376 0
M  V30 285 H 24.3406 -5.12869 0.720098 0
M  V30 286 H 21.0176 -3.88102 -1.53892 0
M  V30 287 H 22.4076 -6.5504 1.49574 0
M  V30 288 N 25.1277 -0.289203 -1.54924 0
M  V30 289 C 26.0577 0.58549 -2.2604 0
M  V30 290 C 27.0387 1.14753 -1.25562 0
M  V30 291 O 28.2237 1.17906 -1.54311 0
M  V30 292 C 25.3537 1.76305 -2.99222 0
M  V30 293 C 24.3077 1.33191 -4.06748 0
M  V30 294 C 23.6337 2.5937 -4.6758 0
M  V30 295 C 24.9337 0.471775 -5.20165 0
M  V30 296 H 26.6277 -0.00763532 -2.99399 0
M  V30 297 H 24.1737 -0.00511229 -1.43999 0
M  V30 298 H 26.1267 2.38097 -3.47689 0
M  V30 299 H 24.8507 2.38223 -2.23422 0
M  V30 300 H 23.5097 0.737121 -3.59113 0
M  V30 301 H 23.1577 3.19576 -3.88433 0
M  V30 302 H 22.8577 2.31228 -5.40192 0
M  V30 303 H 24.3817 3.21985 -5.18804 0
M  V30 304 H 25.7957 0.995056 -5.64599 0
M  V30 305 H 24.1927 0.284639 -5.99425 0
M  V30 306 H 25.2627 -0.506041 -4.82252 0
M  V30 307 N 26.6058 1.57591 -0.0167156 0
M  V30 308 C 27.5558 2.05953 0.978137 0
M  V30 309 C 28.5398 0.957532 1.29306 0
M  V30 310 O 29.7318 1.22119 1.28125 0
M  V30 311 C 26.8608 2.58006 2.26468 0
M  V30 312 C 25.9468 3.75113 1.97867 0
M  V30 313 N 26.3378 4.86187 1.39486 0
M  V30 314 C 24.6358 3.83363 2.27924 0
M  V30 315 C 25.3368 5.67502 1.27735 0
M  V30 316 N 24.3128 5.14023 1.76866 0
M  V30 317 H 28.1148 2.89236 0.521522 0
M  V30 318 H 25.6288 1.61301 0.188596 0
M  V30 319 H 27.6258 2.90937 2.98599 0
M  V30 320 H 26.2858 1.76148 2.72767 0
M  V30 321 H 27.2968 5.06695 1.07147 0
M  V30 322 H 23.9738 3.1239 2.76982 0
M  V30 323 H 25.3638 6.66791 0.826978 0
M  V30 324 N 28.0839 -0.256276 1.55502 0
M  V30 325 C 29.0139 -1.32102 1.92539 0
M  V30 326 C 29.9949 -1.50684 0.789194 0
M  V30 327 O 31.1799 -1.63449 1.04872 0
M  V30 328 C 28.3099 -2.67752 2.21192 0
M  V30 329 C 27.2639 -2.63878 3.36975 0
M  V30 330 C 26.5899 -4.03236 3.51147 0
M  V30 331 C 27.8899 -2.21682 4.72921 0
M  V30 332 H 29.5839 -1.01351 2.81724 0
M  V30 333 H 27.1299 -0.486105 1.35547 0
M  V30 334 H 29.0829 -3.42365 2.45691 0
M  V30 335 H 27.8069 -3.0012 1.28824 0
M  V30 336 H 26.4659 -1.91722 3.12471 0
M  V30 337 H 26.1139 -4.32854 2.56216 0
M  V30 338 H 25.8139 -4.01535 4.29003 0
M  V30 339 H 27.3379 -4.79563 3.77957 0
M  V30 340 H 28.7519 -2.86023 4.96854 0
M  V30 341 H 27.1489 -2.3111 5.53812 0
M  V30 342 H 28.2189 -1.16833 4.70615 0
M  V30 343 N 29.562 -1.4872 -0.521534 0
M  V30 344 C 30.978 -1.35028 -0.850855 0
M  V30 345 C 31.178 -0.367712 -1.98116 0
M  V30 346 O 30.234 0.208037 -2.51642 0
M  V30 347 C 31.547 -2.75263 -1.21041 0
M  V30 348 C 33.095 -2.83813 -1.31981 0
M  V30 349 C 33.57 -4.24769 -1.71276 0
M  V30 350 N 35.061 -4.27482 -1.78363 0
M  V30 351 C 35.796 -5.33494 -2.1017 0
M  V30 352 N 35.292 -6.49775 -2.40343 0
M  V30 353 N 37.085 -5.20894 -2.11248 0
M  V30 354 H 29.236 -2.11214 0.22413 0
M  V30 355 H 31.499 -0.947252 0.0376439 0
M  V30 356 H 31.205 -3.48765 -0.453415 0
M  V30 357 H 31.079 -3.09327 -2.15863 0
M  V30 358 H 33.466 -2.10561 -2.06756 0
M  V30 359 H 33.547 -2.53358 -0.352596 0
M  V30 360 H 33.191 -4.9854 -0.970588 0
M  V30 361 H 33.121 -4.52673 -2.69062 0
M  V30 362 H 35.612 -3.43611 -1.57288 0
M  V30 363 H 35.925 -7.26402 -2.63743 0
M  V30 364 H 34.27 -6.53035 -2.37844 0
M  V30 365 H 37.461 -4.29065 -1.87139 0
M  V30 366 H 37.634 -6.03612 -2.35704 0
M  V30 367 N 31.0401 0.771051 -1.3745 0
M  V30 368 C 32.3171 1.519 -1.23231 0
M  V30 369 C 32.6971 2.10383 0.173809 0
M  V30 370 O 32.0451 1.95583 1.18151 0
M  V30 371 C 32.2551 2.59933 -2.32886 0
M  V30 372 C 33.6031 3.27316 -2.70461 0
M  V30 373 O 34.6271 2.70228 -2.32068 0
M  V30 374 O 33.4861 4.30531 -3.36608 0
M  V30 375 H 30.5801 0.672803 -0.480901 0
M  V30 376 H 33.1261 0.807957 -1.49232 0
M  V30 377 H 31.8981 2.14842 -3.27045 0
M  V30 378 H 31.5211 3.38637 -2.08353 0
M  V30 379 N 32.5182 1.22032 0.997298 0
M  V30 380 C 33.7662 1.04016 1.73278 0
M  V30 381 C 34.0872 -0.426255 1.90284 0
M  V30 382 O 33.3572 -1.30694 1.45931 0
M  V30 383 H 31.9372 0.381897 0.642 0
M  V30 384 H 34.5992 1.5347 1.20137 0
M  V30 385 H 33.6952 1.51441 2.72896 0
M  V30 386 N 33.9963 -1.19345 1.0293 0
M  V30 387 C 35.2733 -1.84811 0.640642 0
M  V30 388 C 35.6533 -1.91855 -0.88062 0
M  V30 389 O 35.0013 -1.43587 -1.7775 0
M  V30 390 C 35.2113 -3.23755 1.30321 0
M  V30 391 C 36.5593 -3.99912 1.42673 0
M  V30 392 O 37.5833 -3.33155 1.26041 0
M  V30 393 O 36.4423 -5.19494 1.6967 0
M  V30 394 H 33.5363 -0.796443 0.222726 0
M  V30 395 H 36.0823 -1.26831 1.12748 0
M  V30 396 H 34.8543 -3.13466 2.34211 0
M  V30 397 H 34.4773 -3.89381 0.804261 0
M  V30 398 N 35.4744 -0.807222 -1.35358 0
M  V30 399 C 36.4074 -0.163572 -2.27613 0
M  V30 400 C 37.3854 0.670817 -1.48118 0
M  V30 401 O 38.5694 0.63796 -1.77376 0
M  V30 402 C 35.6964 0.773015 -3.29761 0
M  V30 403 C 34.7424 0.0181653 -4.26496 0
M  V30 404 S 35.5754 -1.31831 -5.19019 0
M  V30 405 C 36.7314 -0.38619 -6.24707 0
M  V30 406 H 36.9644 -0.945757 -2.81856 0
M  V30 407 H 34.4974 -0.602315 -1.42167 0
M  V30 408 H 36.4554 1.30788 -3.89108 0
M  V30 409 H 35.1164 1.52859 -2.74396 0
M  V30 410 H 34.3094 0.729534 -4.98692 0
M  V30 411 H 33.9114 -0.446761 -3.71322 0
M  V30 412 H 36.2034 0.428295 -6.76145 0
M  V30 413 H 37.1464 -1.07736 -6.99856 0
M  V30 414 H 37.5544 0.018398 -5.64497 0
M  V30 415 N 36.9525 1.47285 -0.560781 0
M  V30 416 C 37.8825 2.32857 0.173105 0
M  V30 417 C 38.8635 1.44009 0.905281 0
M  V30 418 O 40.0485 1.7286 0.885046 0
M  V30 419 C 37.1785 3.25861 1.20133 0
M  V30 420 C 36.1325 4.23978 0.585388 0
M  V30 421 C 35.4585 5.06332 1.7185 0
M  V30 422 C 36.7585 5.20242 -0.463178 0
M  V30 423 H 38.4525 2.94466 -0.541307 0
M  V30 424 H 35.9985 1.41601 -0.261764 0
M  V30 425 H 37.9515 3.84569 1.72293 0
M  V30 426 H 36.6755 2.62315 1.94573 0
M  V30 427 H 35.3345 3.66501 0.085054 0
M  V30 428 H 34.9825 4.39186 2.45203 0
M  V30 429 H 34.6825 5.72762 1.31213 0
M  V30 430 H 36.2065 5.67899 2.24329 0
M  V30 431 H 37.6205 5.73293 -0.027502 0
M  V30 432 H 36.0175 5.94896 -0.788627 0
M  V30 433 H 37.0875 4.65504 -1.35773 0
M  V30 434 N 38.4306 0.297415 1.54768 0
M  V30 435 C 39.3776 -0.580276 2.23386 0
M  V30 436 C 40.3476 -1.13238 1.21517 0
M  V30 437 O 41.5326 -1.17757 1.50126 0
M  V30 438 C 38.6726 -1.74801 2.97555 0
M  V30 439 C 37.7856 -1.22764 4.1419 0
M  V30 440 C 36.9206 -2.35895 4.75949 0
M  V30 441 C 35.9596 -1.80974 5.84735 0
M  V30 442 N 35.0966 -2.87664 6.40464 0
M  V30 443 H 39.9366 0.0114833 2.97998 0
M  V30 444 H 37.4736 0.0174361 1.4709 0
M  V30 445 H 39.4316 -2.43475 3.38786 0
M  V30 446 H 38.0616 -2.31145 2.25326 0
M  V30 447 H 37.1136 -0.433271 3.77924 0
M  V30 448 H 38.4256 -0.785551 4.92575 0
M  V30 449 H 37.5796 -3.12523 5.20014 0
M  V30 450 H 36.3186 -2.83429 3.96887 0
M  V30 451 H 35.3236 -1.02834 5.40097 0
M  V30 452 H 36.5486 -1.34348 6.65678 0
M  V30 453 H 34.4946 -3.34538 5.64287 0
M  V30 454 H 34.4116 -2.4794 7.14186 0
M  V30 455 H 35.6796 -3.642 6.89187 0
M  V30 456 N 39.9087 -1.5758 0.0250728 0
M  V30 457 C 41.1367 -1.9593 -0.664747 0
M  V30 458 C 41.5517 -0.901352 -1.65895 0
M  V30 459 O 40.9087 0.117255 -1.82123 0
M  V30 460 C 40.9597 -3.34342 -1.37468 0
M  V30 461 O 40.6807 -4.36079 -0.420324 0
M  V30 462 C 42.1817 -3.873 -2.1567 0
M  V30 463 H 39.4017 -0.645405 -0.183557 0
M  V30 464 H 41.9457 -2.04329 0.0836372 0
M  V30 465 H 40.1007 -3.27175 -2.0745 0
M  V30 466 H 40.5147 -5.16297 -0.923991 0
M  V30 467 H 41.9887 -4.86504 -2.60803 0
M  V30 468 H 42.4657 -3.21331 -2.99405 0
M  V30 469 H 43.0717 -3.97723 -1.50654 0
M  V30 470 N 41.3868 0.248026 -1.55636 0
M  V30 471 C 42.6328 0.97767 -1.77678 0
M  V30 472 C 42.9658 1.85016 -0.590135 0
M  V30 473 O 42.2408 1.90095 0.411611 0
M  V30 474 C 42.5238 1.83914 -3.09593 0
M  V30 475 C 42.3768 0.99491 -4.38659 0
M  V30 476 C 43.6958 2.82183 -3.37729 0
M  V30 477 H 40.8148 0.354005 -0.646413 0
M  V30 478 H 43.4568 0.248253 -1.88371 0
M  V30 479 H 41.6068 2.46104 -3.00608 0
M  V30 480 H 43.2788 0.391789 -4.59633 0
M  V30 481 H 41.5218 0.299231 -4.32767 0
M  V30 482 H 42.1928 1.63145 -5.2734 0
M  V30 483 H 44.6688 2.30129 -3.4667 0
M  V30 484 H 43.5448 3.39582 -4.31249 0
M  V30 485 H 43.8058 3.58588 -2.58586 0
M  V30 486 N 42.8649 1.48995 0.513639 0
M  V30 487 C 44.1109 1.58076 1.27042 0
M  V30 488 C 44.4439 0.261026 1.92438 0
M  V30 489 O 43.7189 -0.734393 1.80103 0
M  V30 490 C 44.0019 2.73091 2.34719 0
M  V30 491 C 43.8549 4.14821 1.73907 0
M  V30 492 C 45.1739 2.83796 3.36375 0
M  V30 493 H 42.2929 0.575391 0.460536 0
M  V30 494 H 44.9349 1.81232 0.570516 0
M  V30 495 H 43.0849 2.53479 2.94416 0
M  V30 496 H 44.7569 4.45917 1.18135 0
M  V30 497 H 42.9999 4.21058 1.0437 0
M  V30 498 H 43.6709 4.91147 2.51949 0
M  V30 499 H 46.1469 3.01611 2.86653 0
M  V30 500 H 45.0229 3.65971 4.09093 0
M  V30 501 H 45.2839 1.92624 3.9793 0
M  V30 502 N 44.343 -0.763751 1.37857 0
M  V30 503 C 45.754 -1.3405 1.29952 0
M  V30 504 C 46.105 -1.96138 -0.0492898 0
M  V30 505 O 45.23 -1.94372 -0.951239 0
M  V30 506 C 45.825 -2.43729 2.35333 0
M  V30 507 C 44.384 -2.97151 2.31037 0
M  V30 508 C 43.531 -1.70438 2.18738 0
M  V30 509 H 46.482 -0.563396 1.48363 0
M  V30 510 H 46.503 -3.23412 2.00462 0
M  V30 511 H 46.015 -1.9851 3.33489 0
M  V30 512 H 44.116 -3.46724 1.3643 0
M  V30 513 H 44.229 -3.52221 3.24772 0
M  V30 514 H 42.593 -1.93673 1.65418 0
M  V30 515 H 43.376 -1.27312 3.18821 0
M  V30 516 N 45.8211 -1.22559 -0.990812 0
M  V30 517 C 47.0511 -1.07623 -1.76355 0
M  V30 518 C 47.4591 0.37601 -1.85426 0
M  V30 519 O 46.8021 1.27228 -1.32509 0
M  V30 520 C 46.8641 -1.61507 -3.21179 0
M  V30 521 C 46.5281 -3.10146 -3.35646 0
M  V30 522 C 47.5251 -4.07553 -3.22796 0
M  V30 523 C 45.2101 -3.49644 -3.60631 0
M  V30 524 C 47.2041 -5.42442 -3.34716 0
M  V30 525 C 44.8911 -4.84682 -3.72192 0
M  V30 526 C 45.8891 -5.8089 -3.59243 0
M  V30 527 O 45.5771 -7.13476 -3.70415 0
M  V30 528 H 45.3091 -0.377745 -0.560611 0
M  V30 529 H 47.8631 -1.62658 -1.25425 0
M  V30 530 H 46.0931 -1.00881 -3.73309 0
M  V30 531 H 47.7821 -1.42202 -3.80175 0
M  V30 532 H 48.5481 -3.78381 -3.03403 0
M  V30 533 H 44.4271 -2.75282 -3.69785 0
M  V30 534 H 47.9711 -6.17518 -3.24526 0
M  V30 535 H 43.8681 -5.13534 -3.91092 0
M  V30 536 H 44.6361 -7.21083 -3.87275 0
M  V30 537 N 47.2992 1.18797 -1.03562 0
M  V30 538 C 48.5272 1.92599 -0.755869 0
M  V30 539 C 48.9422 1.75886 0.686271 0
M  V30 540 O 48.2992 1.08517 1.46732 0
M  V30 541 C 48.3502 3.44159 -1.10619 0
M  V30 542 O 48.0712 3.60341 -2.4917 0
M  V30 543 C 49.5722 4.3507 -0.850214 0
M  V30 544 H 46.7922 0.611587 -0.276048 0
M  V30 545 H 49.3362 1.50742 -1.38192 0
M  V30 546 H 47.4912 3.83823 -0.525194 0
M  V30 547 H 47.9052 4.54128 -2.62427 0
M  V30 548 H 49.3792 5.39989 -1.14523 0
M  V30 549 H 49.8562 4.38673 0.215176 0
M  V30 550 H 50.4622 4.01097 -1.41426 0
M  V30 551 N 48.7773 0.814389 1.34928 0
M  V30 552 C 50.0023 0.410097 2.03305 0
M  V30 553 C 50.4273 -0.973464 1.60951 0
M  V30 554 O 49.7853 -1.63185 0.789964 0
M  V30 555 C 49.8333 0.51049 3.56968 0
M  V30 556 O 48.9373 -0.473035 4.09678 0
M  V30 557 H 48.2783 0.170088 0.641846 0
M  V30 558 H 50.8083 1.10244 1.72358 0
M  V30 559 H 50.8183 0.383135 4.06197 0
M  V30 560 H 49.4933 1.51963 3.87144 0
M  V30 561 H 48.0703 -0.305272 3.71648 0
M  V30 562 N 50.2554 -1.46986 0.568584 0
M  V30 563 C 51.1654 -2.33942 -0.17555 0
M  V30 564 C 52.1814 -1.48891 -0.90041 0
M  V30 565 O 53.3574 -1.81794 -0.86676 0
M  V30 566 C 50.4224 -3.25811 -1.18524 0
M  V30 567 C 49.4834 -4.26757 -0.466582 0
M  V30 568 C 48.7164 -5.14236 -1.42817 0
M  V30 569 O 48.9394 -5.04379 -2.66379 0
M  V30 570 O 47.8734 -5.94412 -0.946453 0
M  V30 571 H 51.6994 -2.98896 0.538036 0
M  V30 572 H 49.2844 -1.4573 0.329097 0
M  V30 573 H 51.1664 -3.82527 -1.76779 0
M  V30 574 H 49.8414 -2.63471 -1.88055 0
M  V30 575 H 48.7484 -3.73769 0.157451 0
M  V30 576 H 50.0814 -4.91843 0.187485 0
M  V30 577 N 51.7335 -0.305618 -1.54608 0
M  V30 578 C 52.9825 0.303098 -1.9941 0
M  V30 579 C 53.2955 1.54648 -1.19764 0
M  V30 580 O 54.5015 2.23007 -1.54855 0
M  V30 581 C 52.9575 0.590588 -3.55021 0
M  V30 582 C 52.5655 -0.634719 -4.43481 0
M  V30 583 C 54.3095 1.16025 -4.08336 0
M  V30 584 C 52.2165 -0.320126 -5.90533 0
M  V30 585 H 51.1465 0.117031 -0.744862 0
M  V30 586 H 53.7975 -0.415045 -1.78745 0
M  V30 587 H 52.1795 1.36845 -3.71604 0
M  V30 588 H 53.3535 -1.41079 -4.38672 0
M  V30 589 H 51.6685 -1.12333 -4.00962 0
M  V30 590 H 54.2655 1.40994 -5.15776 0
M  V30 591 H 54.6085 2.10397 -3.5922 0
M  V30 592 H 55.1415 0.443985 -3.95315 0
M  V30 593 H 51.8805 -1.23254 -6.43808 0
M  V30 594 H 51.4005 0.418579 -5.98338 0
M  V30 595 H 53.0795 0.0766241 -6.46955 0
M  V30 596 N 53.2116 1.57565 -0.0334293 0
M  V30 597 C 54.4416 1.95996 0.653398 0
M  V30 598 C 54.8496 0.908749 1.65947 0
M  V30 599 O 54.1926 -0.117471 1.83324 0
M  V30 600 C 54.2546 3.30589 1.41249 0
M  V30 601 C 53.9186 4.53503 0.564263 0
M  V30 602 C 54.9156 5.19647 -0.16225 0
M  V30 603 C 52.6006 4.99801 0.500398 0
M  V30 604 C 54.5946 6.30412 -0.941255 0
M  V30 605 C 52.2816 6.10448 -0.282308 0
M  V30 606 C 53.2796 6.75612 -1.00184 0
M  V30 607 O 52.9676 7.84134 -1.77171 0
M  V30 608 H 52.6996 0.65027 0.184728 0
M  V30 609 H 55.2536 2.05199 -0.0907841 0
M  V30 610 H 53.4836 3.17888 2.20191 0
M  V30 611 H 55.1726 3.53892 1.98784 0
M  V30 612 H 55.9386 4.84846 -0.12227 0
M  V30 613 H 51.8176 4.48883 1.05002 0
M  V30 614 H 55.3616 6.81208 -1.50339 0
M  V30 615 H 51.2586 6.44686 -0.323989 0
M  V30 616 H 52.0266 8.00822 -1.69194 0
M  V30 617 N 54.6897 -0.239769 1.55765 0
M  V30 618 C 55.9377 -0.964892 1.77579 0
M  V30 619 C 56.2587 -1.85582 0.598699 0
M  V30 620 O 55.5287 -1.92075 -0.385226 0
M  V30 621 H 54.1087 -0.359265 0.654933 0
M  V30 622 H 56.7707 -0.256001 1.93211 0
M  V30 623 H 55.8667 -1.58243 2.69009 0
M  V30 624 N 56.1678 -1.49265 -0.50573 0
M  V30 625 C 57.5838 -1.35923 -0.836486 0
M  V30 626 C 57.7838 -0.388704 -1.97715 0
M  V30 627 O 56.8398 0.181336 -2.51848 0
M  V30 628 C 58.1528 -2.76531 -1.18115 0
M  V30 629 C 59.7008 -2.85197 -1.28964 0
M  V30 630 C 60.1758 -4.26561 -1.66761 0
M  V30 631 N 61.6668 -4.2935 -1.73819 0
M  V30 632 C 62.4018 -5.35693 -2.045 0
M  V30 633 N 61.8978 -6.52287 -2.33438 0
M  V30 634 N 63.6908 -5.23105 -2.05711 0
M  V30 635 H 55.8418 -2.10965 0.246519 0
M  V30 636 H 58.1048 -0.9468 0.0476887 0
M  V30 637 H 57.8108 -3.49226 -0.416398 0
M  V30 638 H 57.6848 -3.11599 -2.1257 0
M  V30 639 H 60.0718 -2.12742 -2.04511 0
M  V30 640 H 60.1528 -2.53718 -0.325704 0
M  V30 641 H 59.7968 -4.99541 -0.917656 0
M  V30 642 H 59.7268 -4.55502 -2.64246 0
M  V30 643 H 62.2178 -3.4526 -1.53635 0
M  V30 644 H 62.5308 -7.29158 -2.56024 0
M  V30 645 H 60.8758 -6.55521 -2.30905 0
M  V30 646 H 64.0668 -4.31026 -1.82577 0
M  V30 647 H 64.2398 -6.06078 -2.29289 0
M  V30 648 N 57.6459 0.756429 -1.3826 0
M  V30 649 C 58.6089 1.85176 -1.35065 0
M  V30 650 C 59.6089 1.58818 -0.251703 0
M  V30 651 O 60.7989 1.66615 -0.508433 0
M  V30 652 C 57.9309 3.22596 -1.10201 0
M  V30 653 H 59.1239 1.89417 -2.3251 0
M  V30 654 H 56.6769 0.95783 -1.23512 0
M  V30 655 H 57.4119 3.24025 -0.133504 0
M  V30 656 H 57.1969 3.43122 -1.89762 0
M  V30 657 H 58.6869 4.02673 -1.10654 0
M  V30 658 N 59.124 1.23083 0.984299 0
M  V30 659 C 60.373 1.05466 1.71929 0
M  V30 660 C 60.686 -0.409211 1.91272 0
M  V30 661 O 61.892 -0.705226 2.62181 0
M  V30 662 C 60.348 1.83874 3.09384 0
M  V30 663 C 59.956 3.34566 2.97943 0
M  V30 664 C 61.7 1.74734 3.8687 0
M  V30 665 C 59.607 4.05381 4.30605 0
M  V30 666 H 58.537 0.391039 0.644674 0
M  V30 667 H 61.188 1.47013 1.09815 0
M  V30 668 H 59.57 1.35131 3.72231 0
M  V30 669 H 60.744 3.90767 2.44209 0
M  V30 670 H 59.059 3.44476 2.33934 0
M  V30 671 H 61.656 2.24957 4.85076 0
M  V30 672 H 61.999 0.709372 4.10212 0
M  V30 673 H 62.532 2.21067 3.30717 0
M  V30 674 H 59.271 5.09467 4.1246 0
M  V30 675 H 58.791 3.53967 4.84218 0
M  V30 676 H 60.47 4.11458 4.99311 0
M  V30 677 N 60.6021 -1.18246 1.0419 0
M  V30 678 C 61.8481 -1.88536 0.747122 0
M  V30 679 C 62.1811 -1.80223 -0.723409 0
M  V30 680 O 61.4561 -1.20337 -1.52804 0
M  V30 681 C 61.7391 -3.38968 1.21544 0
M  V30 682 C 61.5921 -3.56084 2.74816 0
M  V30 683 C 62.9111 -4.32648 0.806482 0
M  V30 684 H 60.0301 -0.684619 0.272883 0
M  V30 685 H 62.6721 -1.39113 1.29413 0
M  V30 686 H 60.8221 -3.8119 0.750081 0
M  V30 687 H 62.4941 -3.22946 3.29399 0
M  V30 688 H 60.7371 -2.98699 3.14582 0
M  V30 689 H 61.4081 -4.61639 3.02644 0
M  V30 690 H 63.8841 -3.98211 1.20695 0
M  V30 691 H 62.7601 -5.36462 1.1619 0
M  V30 692 H 63.0211 -4.41146 -0.29029 0
M  V30 693 N 62.0802 -0.821533 -1.34494 0
M  V30 694 C 63.0132 -0.187704 -2.27427 0
M  V30 695 C 63.9912 0.65507 -1.48821 0
M  V30 696 O 65.1752 0.619111 -1.78043 0
M  V30 697 C 62.3022 0.737996 -3.30562 0
M  V30 698 C 61.3482 -0.0270713 -4.26491 0
M  V30 699 S 62.1812 -1.37329 -5.17592 0
M  V30 700 C 63.3372 -0.452427 -6.24263 0
M  V30 701 H 63.5702 -0.975598 -2.80837 0
M  V30 702 H 61.1032 -0.61736 -1.4152 0
M  V30 703 H 63.0612 1.26654 -3.90473 0
M  V30 704 H 61.7222 1.4994 -2.76001 0
M  V30 705 H 60.9152 0.6766 -4.99438 0
M  V30 706 H 60.5172 -0.48612 -3.70827 0
M  V30 707 H 62.8092 0.356557 -6.76561 0
M  V30 708 H 63.7522 -1.15153 -6.98674 0
M  V30 709 H 64.1602 -0.0414755 -5.64485 0
M  V30 710 N 63.5583 1.46682 -0.576371 0
M  V30 711 C 64.9693 1.86112 -0.148091 0
M  V30 712 C 65.3203 1.48073 1.2872 0
M  V30 713 O 64.4453 0.892656 1.97131 0
M  V30 714 C 65.0403 3.37786 -0.261982 0
M  V30 715 C 63.5993 3.76235 0.111384 0
M  V30 716 C 62.7463 2.70713 -0.60083 0
M  V30 717 H 65.6973 1.37927 -0.78497 0
M  V30 718 H 65.7183 3.77007 0.514364 0
M  V30 719 H 65.2303 3.6544 -1.30671 0
M  V30 720 H 63.3313 3.54198 1.15649 0
M  V30 721 H 63.4443 4.78391 -0.26052 0
M  V30 722 H 61.8083 2.54666 -0.0417783 0
M  V30 723 H 62.5913 3.01208 -1.64708 0
M  V30 724 N 65.0364 0.313813 1.54444 0
M  V30 725 C 65.9844 -0.572171 2.25453 0
M  V30 726 C 66.9784 -1.12657 1.2651 0
M  V30 727 O 68.1844 -1.07573 1.44319 0
M  V30 728 H 64.5594 -0.203146 0.724041 0
M  V30 729 H 66.5304 0.0491145 2.9836 0
M  V30 730 C 65.2794 -1.72626 3.0182 0
M  V30 731 H 64.6024 -1.30891 3.77767 0
M  V30 732 H 66.0424 -2.32199 3.54767 0
M  V30 733 C 64.5014 -2.63806 2.09542 0
M  V30 734 O 65.0314 -3.65256 1.67185 0
M  V30 735 N 63.2374 -2.31824 1.75232 0
M  V30 736 H 62.7844 -1.49368 2.09873 0
M  V30 737 H 62.7424 -2.93095 1.13767 0
M  V30 738 N 66.5145 -1.57545 0.0417849 0
M  V30 739 C 67.4445 -2.14009 -0.933929 0
M  V30 740 C 68.4255 -1.05938 -1.33083 0
M  V30 741 O 69.6105 -1.33833 -1.40721 0
M  V30 742 C 66.7405 -2.67747 -2.21199 0
M  V30 743 C 65.6945 -3.80718 -1.95544 0
M  V30 744 C 65.0205 -4.20935 -3.29724 0
M  V30 745 C 66.3205 -5.06258 -1.28452 0
M  V30 746 H 68.0145 -2.95788 -0.463645 0
M  V30 747 H 65.5605 -1.42285 -0.221573 0
M  V30 748 H 67.5135 -3.05886 -2.89848 0
M  V30 749 H 66.2375 -1.83147 -2.70416 0
M  V30 750 H 64.8965 -3.43037 -1.2931 0
M  V30 751 H 64.5445 -3.33298 -3.76724 0
M  V30 752 H 64.2445 -4.9707 -3.13361 0
M  V30 753 H 65.7685 -4.61666 -3.9962 0
M  V30 754 H 67.1825 -5.41903 -1.8712 0
M  V30 755 H 65.5795 -5.87475 -1.22445 0
M  V30 756 H 66.6495 -4.84207 -0.259219 0
M  V30 757 N 67.9926 0.231505 -1.5589 0
M  V30 758 C 68.9556 1.27028 -1.90779 0
M  V30 759 C 69.9556 1.40308 -0.785507 0
M  V30 760 O 71.1456 1.38744 -1.05336 0
M  V30 761 C 68.2776 2.64566 -2.14983 0
M  V30 762 H 69.4706 0.973017 -2.83677 0
M  V30 763 H 67.0236 0.471486 -1.49019 0
M  V30 764 H 67.7586 2.99406 -1.24604 0
M  V30 765 H 67.5436 2.56305 -2.96732 0
M  V30 766 H 69.0336 3.39543 -2.43105 0
M  V30 767 N 69.4707 1.49531 0.497807 0
M  V30 768 C 70.8817 1.52344 1.07927 0
M  V30 769 C 71.2327 0.311469 1.93712 0
M  V30 770 O 70.3577 -0.578405 2.08527 0
M  V30 771 C 70.9527 2.76062 1.96405 0
M  V30 772 C 69.5117 2.81643 2.49709 0
M  V30 773 C 68.6587 2.46299 1.27404 0
M  V30 774 H 71.6097 1.56182 0.281576 0
M  V30 775 H 71.6307 2.56405 2.81135 0
M  V30 776 H 71.1427 3.64254 1.33943 0
M  V30 777 H 69.2437 1.97739 3.15801 0
M  V30 778 H 69.3567 3.83891 2.86643 0
M  V30 779 H 67.7207 1.98148 1.60029 0
M  V30 780 H 68.5037 3.36769 0.66645 0
M  V30 781 N 70.9488 -0.749086 1.3866 0
M  V30 782 C 72.3598 -1.32664 1.31366 0
M  V30 783 C 72.7108 -1.96179 -0.028484 0
M  V30 784 O 71.8358 -1.9537 -0.93057 0
M  V30 785 C 72.4308 -2.41219 2.37905 0
M  V30 786 C 70.9898 -2.94684 2.34176 0
M  V30 787 C 70.1368 -1.68108 2.20533 0
M  V30 788 H 73.0878 -0.547628 1.48952 0
M  V30 789 H 73.1088 -3.21268 2.0388 0
M  V30 790 H 72.6208 -1.94962 3.35576 0
M  V30 791 H 70.7218 -3.45258 1.401 0
M  V30 792 H 70.8348 -3.48757 3.2849 0
M  V30 793 H 69.1988 -1.91907 1.67463 0
M  V30 794 H 69.9818 -1.23923 3.20153 0
M  V30 795 N 72.4269 -1.23603 -0.977757 0
M  V30 796 C 73.6729 -1.07129 -1.72195 0
M  V30 797 C 74.0059 0.390501 -1.90233 0
M  V30 798 O 73.2809 1.28902 -1.45653 0
M  V30 799 C 73.5639 -1.80031 -3.11867 0
M  V30 800 C 73.4169 -3.33899 -3.01383 0
M  V30 801 C 74.7359 -1.56492 -4.11337 0
M  V30 802 H 71.8549 -0.390571 -0.624999 0
M  V30 803 H 74.4969 -1.52142 -1.13811 0
M  V30 804 H 72.6469 -1.41768 -3.6171 0
M  V30 805 H 74.3189 -3.81699 -2.59043 0
M  V30 806 H 72.5619 -3.62796 -2.37827 0
M  V30 807 H 73.2329 -3.801 -4.00285 0
M  V30 808 H 75.7089 -1.89757 -3.70313 0
M  V30 809 H 74.5849 -2.09973 -5.07151 0
M  V30 810 H 74.8459 -0.500874 -4.39254 0
M  V30 811 N 73.905 1.17692 -1.04816 0
M  V30 812 C 75.133 1.91786 -0.776254 0
M  V30 813 C 75.548 1.76604 0.667577 0
M  V30 814 O 74.905 1.10067 1.45573 0
M  V30 815 C 74.956 3.42967 -1.14263 0
M  V30 816 O 74.677 3.57678 -2.52978 0
M  V30 817 C 76.178 4.34144 -0.896311 0
M  V30 818 H 73.398 0.608624 -0.282519 0
M  V30 819 H 75.942 1.49268 -1.39783 0
M  V30 820 H 74.097 3.83245 -0.565874 0
M  V30 821 H 74.511 4.51319 -2.67229 0
M  V30 822 H 75.985 5.38744 -1.20244 0
M  V30 823 H 76.462 4.38876 0.168636 0
M  V30 824 H 77.068 3.99574 -1.45672 0
M  V30 825 N 75.3831 0.828654 1.34056 0
M  V30 826 C 76.6111 0.43262 2.02326 0
M  V30 827 C 77.0261 -0.963147 1.62385 0
M  V30 828 O 76.3831 -1.62425 0.832121 0
M  V30 829 C 76.4341 0.53182 3.57567 0
M  V30 830 O 76.1551 1.87258 3.96063 0
M  V30 831 C 77.6561 0.131422 4.43105 0
M  V30 832 H 74.8761 0.172923 0.648335 0
M  V30 833 H 77.4201 1.1184 1.71208 0
M  V30 834 H 75.5751 -0.105938 3.87255 0
M  V30 835 H 75.9891 1.85087 4.90758 0
M  V30 836 H 77.4631 0.251904 5.51425 0
M  V30 837 H 77.9401 -0.925645 4.29335 0
M  V30 838 H 78.5461 0.743207 4.18756 0
M  V30 839 N 76.8612 -1.46375 0.584142 0
M  V30 840 C 78.1072 -2.02678 0.0703716 0
M  V30 841 C 78.4402 -1.4545 -1.28678 0
M  V30 842 O 77.7152 -0.62014 -1.84349 0
M  V30 843 C 77.9982 -3.60099 0.00614674 0
M  V30 844 C 77.8512 -4.27709 1.3923 0
M  V30 845 C 79.1702 -4.34598 -0.693742 0
M  V30 846 H 76.2892 -0.736504 0.027047 0
M  V30 847 H 78.9312 -1.74501 0.751615 0
M  V30 848 H 77.0812 -3.84236 -0.574009 0
M  V30 849 H 78.7532 -4.14832 2.01773 0
M  V30 850 H 76.9962 -3.87016 1.95962 0
M  V30 851 H 77.6672 -5.36478 1.29982 0
M  V30 852 H 80.1432 -4.15615 -0.200869 0
M  V30 853 H 79.0192 -5.44318 -0.707714 0
M  V30 854 H 79.2802 -4.05759 -1.75533 0
M  V30 855 N 78.3393 -0.321999 -1.54275 0
M  V30 856 C 79.2493 0.553631 -2.27974 0
M  V30 857 C 80.2653 1.13054 -1.32268 0
M  V30 858 O 81.4413 1.15084 -1.6528 0
M  V30 859 C 78.5063 1.69927 -3.02201 0
M  V30 860 C 77.5673 1.15433 -4.1349 0
M  V30 861 C 76.8003 2.24537 -4.84168 0
M  V30 862 O 77.0233 3.44852 -4.5435 0
M  V30 863 O 75.9573 1.90044 -5.7111 0
M  V30 864 H 79.7833 -0.0448345 -3.03667 0
M  V30 865 H 77.3683 -0.0877418 -1.49142 0
M  V30 866 H 79.2503 2.3663 -3.48689 0
M  V30 867 H 77.9253 2.28395 -2.29385 0
M  V30 868 H 76.8323 0.452436 -3.71354 0
M  V30 869 H 78.1653 0.614805 -4.88345 0
M  V30 870 N 79.8174 1.5752 -0.0501392 0
M  V30 871 C 80.7804 2.1037 0.909786 0
M  V30 872 C 81.7804 1.02308 1.24056 0
M  V30 873 O 82.9704 1.28385 1.17741 0
M  V30 874 C 80.1024 2.58708 2.21998 0
M  V30 875 H 81.2954 2.96479 0.451665 0
M  V30 876 H 78.8484 1.55038 0.198248 0
M  V30 877 H 79.5834 1.75989 2.72394 0
M  V30 878 H 79.3684 3.37675 1.99295 0
M  V30 879 H 80.8584 2.99747 2.9076 0
M  V30 880 N 81.2955 -0.223234 1.56011 0
M  V30 881 C 82.2585 -1.26014 1.9145 0
M  V30 882 C 83.2585 -1.3989 0.792937 0
M  V30 883 O 84.4485 -1.38184 1.0607 0
M  V30 884 C 81.5805 -2.63422 2.16383 0
M  V30 885 H 82.7735 -0.95796 2.84189 0
M  V30 886 H 80.3265 -0.463576 1.49267 0
M  V30 887 H 81.0615 -2.98741 1.2619 0
M  V30 888 H 80.8465 -2.54728 2.98088 0
M  V30 889 H 82.3365 -3.38249 2.44903 0
M  V30 890 N 82.7736 -1.49793 -0.48987 0
M  V30 891 C 84.0196 -1.60078 -1.24511 0
M  V30 892 C 84.3526 -0.291608 -1.91998 0
M  V30 893 O 83.6276 0.705647 -1.81248 0
M  V30 894 C 83.9106 -2.76791 -2.30345 0
M  V30 895 C 83.7636 -4.17535 -1.67286 0
M  V30 896 C 85.0826 -2.89111 -3.31817 0
M  V30 897 H 82.2016 -0.582645 -0.451324 0
M  V30 898 H 84.8436 -1.82117 -0.541612 0
M  V30 899 H 82.9936 -2.5813 -2.90346 0
M  V30 900 H 84.6656 -4.4774 -1.11026 0
M  V30 901 H 82.9086 -4.22665 -0.976577 0
M  V30 902 H 83.5796 -4.95094 -2.44103 0
M  V30 903 H 86.0556 -3.06133 -2.81819 0
M  V30 904 H 84.9316 -3.72433 -4.03219 0
M  V30 905 H 85.1926 -1.9893 -3.94815 0
M  V30 906 N 84.2517 0.741722 -1.39055 0
M  V30 907 C 85.2147 1.83733 -1.37021 0
M  V30 908 C 86.2147 1.58542 -0.268534 0
M  V30 909 O 87.4047 1.66067 -0.526076 0
M  V30 910 C 84.5367 3.2141 -1.13617 0
M  V30 911 H 85.7297 1.86941 -2.34506 0
M  V30 912 H 83.2827 0.944676 -1.24521 0
M  V30 913 H 84.0177 3.23865 -0.167863 0
M  V30 914 H 83.8027 3.4109 -1.93391 0
M  V30 915 H 85.2927 4.01477 -1.14918 0
M  V30 916 N 85.7298 1.2412 0.971189 0
M  V30 917 C 86.9598 1.10415 1.7462 0
M  V30 918 C 87.3678 -0.346462 1.86001 0
M  V30 919 O 86.7108 -1.25104 1.34517 0
M  V30 920 C 86.7728 1.66596 3.18568 0
M  V30 921 C 86.4368 3.15446 3.3067 0
M  V30 922 C 87.4338 4.12636 3.16271 0
M  V30 923 C 85.1188 3.55337 3.55022 0
M  V30 924 C 87.1128 5.47699 3.26044 0
M  V30 925 C 84.7998 4.90542 3.64434 0
M  V30 926 C 85.7978 5.86532 3.49956 0
M  V30 927 O 85.4858 7.19279 3.59017 0
M  V30 928 H 85.2178 0.386616 0.55453 0
M  V30 929 H 87.7718 1.64633 1.22821 0
M  V30 930 H 86.0018 1.06808 3.71657 0
M  V30 931 H 87.6908 1.48232 3.77865 0
M  V30 932 H 88.4568 3.8316 2.97344 0
M  V30 933 H 84.3358 2.8113 3.65359 0
M  V30 934 H 87.8798 6.22603 3.14661 0
M  V30 935 H 83.7768 5.19691 3.82873 0
M  V30 936 H 84.5448 7.27153 3.75754 0
M  V30 937 N 87.2079 -1.17134 1.05439 0
M  V30 938 C 88.6239 -1.39454 0.776201 0
M  V30 939 C 88.8239 -1.91454 -0.628307 0
M  V30 940 O 87.8799 -2.10777 -1.39031 0
M  V30 941 C 89.1929 -2.38305 1.83388 0
M  V30 942 C 90.7409 -2.52006 1.85639 0
M  V30 943 C 91.2159 -3.54133 2.90437 0
M  V30 944 N 92.7069 -3.61653 2.89415 0
M  V30 945 C 93.4419 -4.4044 3.67152 0
M  V30 946 N 92.9379 -5.22721 4.54681 0
M  V30 947 N 94.7309 -4.35337 3.55581 0
M  V30 948 H 86.8819 -0.817134 1.96053 0
M  V30 949 H 89.1449 -0.421626 0.849079 0
M  V30 950 H 88.8509 -2.07173 2.84204 0
M  V30 951 H 88.7249 -3.37841 1.67761 0
M  V30 952 H 91.1119 -2.82447 0.85486 0
M  V30 953 H 91.1929 -1.52537 2.05344 0
M  V30 954 H 90.8369 -3.24431 3.90777 0
M  V30 955 H 90.7669 -4.53313 2.67983 0
M  V30 956 H 93.2579 -3.02909 2.25952 0
M  V30 957 H 93.5709 -5.80027 5.10674 0
M  V30 958 H 91.9159 -5.22093 4.58741 0
M  V30 959 H 95.1069 -3.70112 2.86592 0
M  V30 960 H 95.2799 -4.96494 4.1641 0
M  V30 961 N 88.686 -0.835752 -1.33615 0
M  V30 962 C 89.618 -0.224151 -2.28101 0
M  V30 963 C 90.631 0.593331 -1.51603 0
M  V30 964 O 91.82 0.420911 -1.73466 0
M  V30 965 C 88.92 0.703309 -3.31522 0
M  V30 966 C 88.093 -0.0741528 -4.37337 0
M  V30 967 C 87.152 0.776176 -5.20444 0
M  V30 968 O 86.178 0.216506 -5.68788 0
M  V30 969 N 87.38 2.09401 -5.41416 0
M  V30 970 H 90.145 -1.03598 -2.81225 0
M  V30 971 H 87.706 -0.69392 -1.46275 0
M  V30 972 H 89.698 1.27707 -3.84022 0
M  V30 973 H 88.268 1.41585 -2.78698 0
M  V30 974 H 87.488 -0.82928 -3.85378 0
M  V30 975 H 88.776 -0.608863 -5.05144 0
M  V30 976 H 88.174 2.57229 -5.03835 0
M  V30 977 H 86.731 2.61633 -5.96985 0
M  V30 978 N 90.1641 1.46063 -0.591896 0
M  V30 979 C 91.5801 1.57561 -0.254288 0
M  V30 980 C 91.7801 1.58565 1.24336 0
M  V30 981 O 90.8361 1.50753 2.02558 0
M  V30 982 C 92.1491 2.86549 -0.911611 0
M  V30 983 C 93.6971 3.00197 -0.886059 0
M  V30 984 C 94.1721 4.31933 -1.5231 0
M  V30 985 N 95.6631 4.38654 -1.48786 0
M  V30 986 C 96.3981 5.39222 -1.95006 0
M  V30 987 N 95.8941 6.46414 -2.49241 0
M  V30 988 N 97.6871 5.3048 -1.85868 0
M  V30 989 H 89.8381 1.43655 -1.56451 0
M  V30 990 H 92.1011 0.68583 -0.654478 0
M  V30 991 H 91.8071 2.91651 -1.96551 0
M  V30 992 H 91.6811 3.74794 -0.425368 0
M  V30 993 H 94.0681 2.9467 0.159246 0
M  V30 994 H 94.1491 2.13403 -1.41041 0
M  V30 995 H 93.7931 4.38217 -2.56765 0
M  V30 996 H 93.7231 5.17516 -0.973891 0
M  V30 997 H 96.2141 3.61793 -1.09151 0
M  V30 998 H 96.5271 7.19376 -2.82344 0
M  V30 999 H 94.8721 6.47208 -2.53272 0
M  V30 1000 H 98.0631 4.45643 -1.43248 0
M  V30 1001 H 98.2361 6.08711 -2.22204 0
M  V30 1002 N 91.6422 0.330177 1.54103 0
M  V30 1003 C 92.8912 -0.271336 1.99867 0
M  V30 1004 C 93.2042 -1.52723 1.22209 0
M  V30 1005 O 94.4102 -2.20515 1.58383 0
M  V30 1006 C 92.8662 -0.534032 3.55916 0
M  V30 1007 C 92.4742 0.705193 4.42415 0
M  V30 1008 C 94.2182 -1.09514 4.1013 0
M  V30 1009 C 92.1252 0.414035 5.89949 0
M  V30 1010 H 91.0552 -0.105166 0.74663 0
M  V30 1011 H 93.7062 0.443429 1.78062 0
M  V30 1012 H 92.0882 -1.30915 3.73734 0
M  V30 1013 H 93.2622 1.4804 4.36372 0
M  V30 1014 H 91.5772 1.18698 3.99124 0
M  V30 1015 H 94.1742 -1.3277 5.17954 0
M  V30 1016 H 94.5172 -2.04656 3.62521 0
M  V30 1017 H 95.0502 -0.381038 3.95971 0
M  V30 1018 H 91.7892 1.33481 6.41766 0
M  V30 1019 H 91.3092 -0.323336 5.98928 0
M  V30 1020 H 92.9882 0.0263105 6.46995 0
M  V30 1021 N 93.1203 -1.57491 0.0584922 0
M  V30 1022 C 94.0503 -2.14988 -0.911178 0
M  V30 1023 C 95.0313 -1.07343 -1.31952 0
M  V30 1024 O 96.2163 -1.35318 -1.39294 0
M  V30 1025 C 93.3463 -2.70078 -2.18347 0
M  V30 1026 C 92.3003 -3.82771 -1.91495 0
M  V30 1027 C 91.6263 -4.24408 -3.25241 0
M  V30 1028 C 92.9263 -5.07592 -1.23075 0
M  V30 1029 H 94.6203 -2.96263 -0.432246 0
M  V30 1030 H 92.1663 -1.42512 -0.206469 0
M  V30 1031 H 94.1193 -3.08943 -2.86587 0
M  V30 1032 H 92.8433 -1.86005 -2.68458 0
M  V30 1033 H 91.5023 -3.44389 -1.25664 0
M  V30 1034 H 91.1503 -3.37275 -3.73168 0
M  V30 1035 H 90.8503 -5.00366 -3.08071 0
M  V30 1036 H 92.3743 -4.65879 -3.94701 0
M  V30 1037 H 93.7883 -5.43857 -1.81362 0
M  V30 1038 H 92.1853 -5.88741 -1.16207 0
M  V30 1039 H 93.2553 -4.84454 -0.207847 0
M  V30 1040 N 94.5984 0.214957 -1.56127 0
M  V30 1041 C 95.8754 0.963093 -1.70247 0
M  V30 1042 C 96.2554 2.02166 -0.60764 0
M  V30 1043 O 95.6034 2.25244 0.384385 0
M  V30 1044 C 95.8134 1.56756 -3.11815 0
M  V30 1045 C 97.1614 2.0573 -3.7143 0
M  V30 1046 O 98.1854 1.66637 -3.14818 0
M  V30 1047 O 97.0444 2.77603 -4.70743 0
M  V30 1048 H 94.1384 0.450321 -0.693643 0
M  V30 1049 H 96.6844 0.206219 -1.68442 0
M  V30 1050 H 95.4564 0.803533 -3.82961 0
M  V30 1051 H 95.0794 2.3898 -3.17765 0
M  V30 1052 N 96.0765 1.50051 0.48192 0
M  V30 1053 C 97.0395 1.67584 1.5636 0
M  V30 1054 C 98.0395 0.546894 1.51214 0
M  V30 1055 O 99.2295 0.813725 1.54026 0
M  V30 1056 C 96.3615 1.691 2.96003 0
M  V30 1057 H 97.5545 2.64078 1.42136 0
M  V30 1058 H 95.1075 1.39369 0.707533 0
M  V30 1059 H 95.8425 0.742589 3.15684 0
M  V30 1060 H 95.6275 2.51105 3.01146 0
M  V30 1061 H 97.1175 1.84656 3.74556 0
M  V30 1062 N 97.5546 -0.734337 1.39446 0
M  V30 1063 C 98.8006 -1.49613 1.36908 0
M  V30 1064 C 99.1336 -1.94169 -0.0347829 0
M  V30 1065 O 98.4086 -1.66833 -0.999847 0
M  V30 1066 C 98.6916 -2.73534 2.34203 0
M  V30 1067 C 98.5446 -2.34993 3.83534 0
M  V30 1068 C 99.8636 -3.75635 2.29317 0
M  V30 1069 H 96.9826 -0.542714 0.498629 0
M  V30 1070 H 99.6246 -0.839597 1.70443 0
M  V30 1071 H 97.7746 -3.29553 2.05736 0
M  V30 1072 H 99.4466 -1.84601 4.22753 0
M  V30 1073 H 97.6896 -1.67213 4.00278 0
M  V30 1074 H 98.3606 -3.23738 4.47099 0
M  V30 1075 H 100.837 -3.29203 2.54489 0
M  V30 1076 H 99.7126 -4.60008 2.99472 0
M  V30 1077 H 99.9736 -4.22603 1.29842 0
M  V30 1078 N 99.0327 -1.24633 -0.964593 0
M  V30 1079 C 100.444 -1.08045 -1.5226 0
M  V30 1080 C 100.795 0.347116 -1.93105 0
M  V30 1081 O 99.9197 1.23588 -1.77637 0
M  V30 1082 C 100.515 -1.95514 -2.76695 0
M  V30 1083 C 99.0737 -1.8314 -3.28841 0
M  V30 1084 C 98.2207 -1.90262 -2.01732 0
M  V30 1085 H 101.172 -1.38064 -0.782553 0
M  V30 1086 H 101.193 -1.48925 -3.50145 0
M  V30 1087 H 100.705 -2.99407 -2.46936 0
M  V30 1088 H 98.8057 -0.82092 -3.63444 0
M  V30 1089 H 98.9187 -2.67406 -3.97531 0
M  V30 1090 H 97.2827 -1.34027 -2.16584 0
M  V30 1091 H 98.0657 -2.9574 -1.74334 0
M  V30 1092 N 100.511 1.16574 -1.06058 0
M  V30 1093 C 101.474 2.19085 -0.673392 0
M  V30 1094 C 102.474 1.5835 0.279648 0
M  V30 1095 O 103.664 1.74088 0.0623488 0
M  V30 1096 C 100.796 3.40899 0.00954234 0
M  V30 1097 H 101.989 2.54853 -1.58081 0
M  V30 1098 H 99.5418 1.30808 -0.855516 0
M  V30 1099 H 100.277 3.10684 0.929826 0
M  V30 1100 H 100.062 3.86233 -0.67573 0
M  V30 1101 H 101.552 4.1675 0.266245 0
M  V30 1102 N 101.989 0.842826 1.3317 0
M  V30 1103 C 103.237 0.439577 1.97262 0
M  V30 1104 C 103.558 -1.00548 1.67078 0
M  V30 1105 O 102.828 -1.70098 0.971779 0
M  V30 1106 H 101.408 0.159558 0.72976 0
M  V30 1107 H 104.07 1.07665 1.62463 0
M  V30 1108 H 103.166 0.574886 3.0676 0
M  V30 1109 N 103.467 -1.45747 0.599634 0
M  V30 1110 C 104.417 -2.27538 -0.145107 0
M  V30 1111 C 105.401 -1.3686 -0.846055 0
M  V30 1112 O 106.593 -1.6091 -0.737357 0
M  V30 1113 C 103.722 -3.23569 -1.14708 0
M  V30 1114 C 102.808 -4.21734 -0.447383 0
M  V30 1115 N 103.199 -5.03257 0.506535 0
M  V30 1116 C 101.497 -4.40536 -0.695966 0
M  V30 1117 C 102.198 -5.74426 0.917068 0
M  V30 1118 N 101.174 -5.42966 0.26253 0
M  V30 1119 H 104.976 -2.87965 0.587672 0
M  V30 1120 H 102.49 -1.56803 0.422697 0
M  V30 1121 H 104.487 -3.8089 -1.69495 0
M  V30 1122 H 103.147 -2.64702 -1.8805 0
M  V30 1123 H 104.158 -5.10319 0.882899 0
M  V30 1124 H 100.835 -3.92802 -1.41467 0
M  V30 1125 H 102.225 -6.4995 1.70338 0
M  V30 1126 N 104.945 -0.338344 -1.53925 0
M  V30 1127 C 106.222 0.314774 -1.93051 0
M  V30 1128 C 106.602 1.68669 -1.26941 0
M  V30 1129 O 105.95 2.24636 -0.418445 0
M  V30 1130 C 106.16 0.392249 -3.46789 0
M  V30 1131 C 107.508 0.645554 -4.19664 0
M  V30 1132 O 108.532 0.474575 -3.53024 0
M  V30 1133 O 107.391 0.976408 -5.37707 0
M  V30 1134 H 104.485 0.182598 -0.80659 0
M  V30 1135 H 107.031 -0.389141 -1.65178 0
M  V30 1136 H 105.803 -0.570702 -3.87116 0
M  V30 1137 H 105.426 1.14316 -3.80812 0
M  V30 1138 N 106.423 1.57458 -0.0668435 0
M  V30 1139 C 107.67 1.93301 0.603406 0
M  V30 1140 C 107.998 0.946486 1.69917 0
M  V30 1141 O 107.253 -0.0387021 1.95662 0
M  V30 1142 C 107.552 3.35784 1.22409 0
M  V30 1143 C 107.218 4.50179 0.254955 0
M  V30 1144 C 105.88 4.81199 -0.0116746 0
M  V30 1145 C 108.232 5.19598 -0.408338 0
M  V30 1146 C 105.56 5.78978 -0.94877 0
M  V30 1147 C 107.912 6.18381 -1.33372 0
M  V30 1148 C 106.576 6.47821 -1.60887 0
M  V30 1149 H 105.846 0.707338 0.220802 0
M  V30 1150 H 108.493 1.91012 -0.136665 0
M  V30 1151 H 106.798 3.34515 2.03978 0
M  V30 1152 H 108.495 3.60804 1.74989 0
M  V30 1153 H 105.085 4.25983 0.472954 0
M  V30 1154 H 109.269 4.95832 -0.215456 0
M  V30 1155 H 104.525 6.00115 -1.16925 0
M  V30 1156 H 108.699 6.71277 -1.85367 0
M  V30 1157 H 106.326 7.23399 -2.33661 0
M  V30 1158 N 107.901 -0.206675 1.56239 0
M  V30 1159 C 109.129 -0.945345 1.8404 0
M  V30 1160 C 109.544 -1.77336 0.647885 0
M  V30 1161 O 108.901 -1.78425 -0.383511 0
M  V30 1162 C 108.952 -1.8509 3.10522 0
M  V30 1163 O 108.673 -1.05634 4.25174 0
M  V30 1164 C 110.174 -2.70222 3.51418 0
M  V30 1165 H 107.394 -0.276372 0.61144 0
M  V30 1166 H 109.938 -0.217417 2.03341 0
M  V30 1167 H 108.093 -2.53259 2.93153 0
M  V30 1168 H 108.507 -1.67238 4.97124 0
M  V30 1169 H 109.981 -3.29438 4.42916 0
M  V30 1170 H 110.458 -3.43358 2.73864 0
M  V30 1171 H 111.064 -2.07443 3.71278 0
M  V30 1172 N 109.379 -1.50304 -0.473955 0
M  V30 1173 C 110.79 -1.54042 -1.0549 0
M  V30 1174 C 111.141 -0.342248 -1.93192 0
M  V30 1175 O 110.266 0.545157 -2.09421 0
M  V30 1176 C 110.861 -2.79152 -1.91989 0
M  V30 1177 C 109.42 -2.8558 -2.45196 0
M  V30 1178 C 108.567 -2.48295 -1.2347 0
M  V30 1179 H 111.518 -1.5661 -0.256693 0
M  V30 1180 H 111.539 -2.60845 -2.7702 0
M  V30 1181 H 111.051 -3.66339 -1.28131 0
M  V30 1182 H 109.152 -2.02738 -3.12615 0
M  V30 1183 H 109.265 -3.88403 -2.80499 0
M  V30 1184 H 107.629 -2.00669 -1.56856 0
M  V30 1185 H 108.412 -3.37787 -0.612789 0
M  V30 1186 N 110.857 0.726932 -1.39834 0
M  V30 1187 C 111.787 1.85405 -1.41941 0
M  V30 1188 C 112.768 1.67751 -0.281728 0
M  V30 1189 O 113.953 1.8795 -0.488717 0
M  V30 1190 C 111.083 3.23243 -1.2701 0
M  V30 1191 C 110.037 3.55549 -2.38262 0
M  V30 1192 C 109.363 4.9241 -2.08415 0
M  V30 1193 C 110.663 3.577 -3.80589 0
M  V30 1194 H 112.357 1.83899 -2.36266 0
M  V30 1195 H 109.903 0.883349 -1.13723 0
M  V30 1196 H 111.856 4.01775 -1.27103 0
M  V30 1197 H 110.58 3.25296 -0.291564 0
M  V30 1198 H 109.239 2.79351 -2.37399 0
M  V30 1199 H 108.887 4.91052 -1.0898 0
M  V30 1200 H 108.587 5.14992 -2.82943 0
M  V30 1201 H 110.111 5.73289 -2.10171 0
M  V30 1202 H 111.525 4.26293 -3.83337 0
M  V30 1203 H 109.922 3.91804 -4.54543 0
M  V30 1204 H 110.992 2.57328 -4.10987 0
M  V30 1205 N 112.336 1.25143 0.95797 0
M  V30 1206 C 113.269 0.995565 2.05338 0
M  V30 1207 C 114.247 -0.0740423 1.62431 0
M  V30 1208 O 115.431 0.0649212 1.88388 0
M  V30 1209 C 112.558 0.504298 3.34925 0
M  V30 1210 C 111.604 1.56393 3.96792 0
M  V30 1211 S 112.437 3.14815 4.33188 0
M  V30 1212 C 113.593 2.67415 5.65898 0
M  V30 1213 H 113.826 1.92309 2.26726 0
M  V30 1214 H 111.359 1.08635 1.09716 0
M  V30 1215 H 113.317 0.227497 4.09869 0
M  V30 1216 H 111.978 -0.402671 3.11508 0
M  V30 1217 H 111.171 1.17082 4.90212 0
M  V30 1218 H 110.773 1.79124 3.28315 0
M  V30 1219 H 113.065 2.10833 6.4386 0
M  V30 1220 H 114.008 3.59463 6.10076 0
M  V30 1221 H 114.416 2.07521 5.24972 0
M  V30 1222 N 113.814 -1.1601 1.06675 0
M  V30 1223 C 115.042 -1.90527 0.806667 0
M  V30 1224 C 115.457 -1.77643 -0.639396 0
M  V30 1225 O 114.814 -1.12369 -1.43803 0
M  V30 1226 C 114.865 -3.41106 1.19705 0
M  V30 1227 O 114.586 -3.53608 2.58636 0
M  V30 1228 C 116.087 -4.32663 0.965266 0
M  V30 1229 H 113.307 -0.604053 0.292166 0
M  V30 1230 H 115.851 -1.47026 1.4214 0
M  V30 1231 H 114.006 -3.82296 0.626774 0
M  V30 1232 H 114.42 -4.47011 2.74375 0
M  V30 1233 H 115.894 -5.36763 1.288 0
M  V30 1234 H 116.371 -4.39089 -0.0987936 0
M  V30 1235 H 116.977 -3.97206 1.52011 0
M  V30 1236 N 115.292 -0.849877 -1.32721 0
M  V30 1237 C 116.532 -0.457146 -1.99222 0
M  V30 1238 C 116.896 0.968038 -1.6581 0
M  V30 1239 O 118.097 1.46507 -2.25364 0
M  V30 1240 C 116.368 -0.683966 -3.50794 0
M  V30 1241 S 117.927 -0.388095 -4.3708 0
M  V30 1242 H 114.745 -0.171464 -0.690015 0
M  V30 1243 H 117.347 -1.10155 -1.61512 0
M  V30 1244 H 116.051 -1.72038 -3.726 0
M  V30 1245 H 115.582 -0.0258086 -3.93392 0
M  V30 1246 H 117.597 0.787791 -4.89906 0
M  V30 1247 N 116.77 1.45427 -0.607355 0
M  V30 1248 C 118 2.06314 -0.108656 0
M  V30 1249 C 118.408 1.45269 1.21217 0
M  V30 1250 O 117.751 0.561115 1.74921 0
M  V30 1251 C 117.813 3.59345 0.105618 0
M  V30 1252 C 117.477 4.42723 -1.13337 0
M  V30 1253 C 118.474 4.77715 -2.05145 0
M  V30 1254 C 116.159 4.83478 -1.36213 0
M  V30 1255 C 118.153 5.52317 -3.18158 0
M  V30 1256 C 115.84 5.57835 -2.49527 0
M  V30 1257 C 116.838 5.92171 -3.40327 0
M  V30 1258 O 116.526 6.65019 -4.51669 0
M  V30 1259 H 116.258 0.672782 -0.0658842 0
M  V30 1260 H 118.812 1.87664 -0.834945 0
M  V30 1261 H 117.042 3.76394 0.886796 0
M  V30 1262 H 118.731 4.02076 0.555886 0
M  V30 1263 H 119.497 4.46787 -1.88697 0
M  V30 1264 H 115.376 4.56188 -0.664362 0
M  V30 1265 H 118.92 5.79036 -3.89054 0
M  V30 1266 H 114.817 5.88177 -2.65928 0
M  V30 1267 H 115.585 6.83469 -4.50348 0
M  V30 1268 N 118.248 0.346503 1.53744 0
M  V30 1269 C 119.178 -0.501193 2.28058 0
M  V30 1270 C 120.159 -1.10014 1.29734 0
M  V30 1271 O 121.344 -1.12097 1.58581 0
M  V30 1272 C 118.474 -1.65078 3.05559 0
M  V30 1273 C 117.428 -1.18003 4.11411 0
M  V30 1274 C 116.754 -2.41837 4.76884 0
M  V30 1275 C 118.054 -0.278394 5.21558 0
M  V30 1276 H 119.748 0.11875 2.99164 0
M  V30 1277 H 117.294 0.0585531 1.43881 0
M  V30 1278 H 119.247 -2.25028 3.56287 0
M  V30 1279 H 117.971 -2.29767 2.32109 0
M  V30 1280 H 116.63 -0.603331 3.61601 0
M  V30 1281 H 116.278 -3.0494 4.00026 0
M  V30 1282 H 115.978 -2.1102 5.48402 0
M  V30 1283 H 117.502 -3.02508 5.30397 0
M  V30 1284 H 118.916 -0.784823 5.67903 0
M  V30 1285 H 117.313 -0.0619707 6.00068 0
M  V30 1286 H 118.383 0.684677 4.80042 0
M  V30 1287 N 119.726 -1.57421 0.075193 0
M  V30 1288 C 120.954 -1.97946 -0.602076 0
M  V30 1289 C 121.369 -0.953674 -1.62943 0
M  V30 1290 O 120.726 0.0592551 -1.82404 0
M  V30 1291 C 120.777 -3.38546 -1.26762 0
M  V30 1292 O 120.498 -4.37195 -0.281376 0
M  V30 1293 C 121.999 -3.93966 -2.03239 0
M  V30 1294 H 119.219 -0.650918 -0.162931 0
M  V30 1295 H 121.763 -2.03959 0.148601 0
M  V30 1296 H 119.918 -3.33609 -1.96936 0
M  V30 1297 H 120.332 -5.18975 -0.759267 0
M  V30 1298 H 121.806 -4.94555 -2.45193 0
M  V30 1299 H 122.283 -3.30693 -2.8903 0
M  V30 1300 H 122.889 -4.02315 -1.37924 0
M  V30 1301 N 121.204 0.198386 -1.56346 0
M  V30 1302 C 122.481 0.944982 -1.71258 0
M  V30 1303 C 122.861 2.0151 -0.629048 0
M  V30 1304 O 122.209 2.25639 0.360473 0
M  V30 1305 C 122.419 1.5344 -3.1346 0
M  V30 1306 C 123.767 2.01778 -3.73591 0
M  V30 1307 O 124.791 1.63288 -3.16568 0
M  V30 1308 O 123.65 2.72594 -4.73661 0
M  V30 1309 H 120.744 0.442939 -0.69838 0
M  V30 1310 H 123.29 0.188342 -1.68652 0
M  V30 1311 H 122.062 0.762869 -3.83792 0
M  V30 1312 H 121.685 2.35596 -3.20282 0
M  V30 1313 N 122.682 1.50554 0.465978 0
M  V30 1314 C 123.907 1.65838 1.24549 0
M  V30 1315 C 124.332 0.343486 1.84937 0
M  V30 1316 O 123.69 -0.69324 1.67523 0
M  V30 1317 C 123.738 2.75533 2.32624 0
M  V30 1318 O 122.842 2.37142 3.37398 0
M  V30 1319 H 122.183 0.553893 0.366194 0
M  V30 1320 H 124.713 1.96959 0.553927 0
M  V30 1321 H 124.723 2.98763 2.77857 0
M  V30 1322 H 123.398 3.70962 1.88043 0
M  V30 1323 H 121.975 2.24377 2.97841 0
M  V30 1324 N 124.16 -0.719506 1.40217 0
M  V30 1325 C 125.09 -1.8465 1.42922 0
M  V30 1326 C 126.071 -1.67599 0.29062 0
M  V30 1327 O 127.256 -1.87688 0.498677 0
M  V30 1328 C 124.386 -3.22565 1.28722 0
M  V30 1329 C 123.34 -3.54281 2.40144 0
M  V30 1330 C 122.666 -4.91298 2.11023 0
M  V30 1331 C 123.966 -3.55676 3.82481 0
M  V30 1332 H 125.66 -1.82644 2.37237 0
M  V30 1333 H 123.206 -0.877305 1.1419 0
M  V30 1334 H 125.159 -4.01095 1.29232 0
M  V30 1335 H 123.883 -3.25137 0.308811 0
M  V30 1336 H 122.542 -2.78088 2.38877 0
M  V30 1337 H 122.19 -4.90468 1.11582 0
M  V30 1338 H 121.89 -5.13485 2.8567 0
M  V30 1339 H 123.414 -5.72166 2.13209 0
M  V30 1340 H 124.828 -4.24254 3.85592 0
M  V30 1341 H 123.225 -3.89388 4.56614 0
M  V30 1342 H 124.295 -2.55144 4.12346 0
M  V30 1343 N 125.638 -1.25649 -0.95132 0
M  V30 1344 C 126.915 -1.01361 -1.67288 0
M  V30 1345 C 127.295 0.459135 -2.06046 0
M  V30 1346 O 126.643 1.43723 -1.7764 0
M  V30 1347 C 126.853 -1.95256 -2.89268 0
M  V30 1348 C 128.201 -2.23289 -3.61147 0
M  V30 1349 O 129.225 -1.93041 -2.99355 0
M  V30 1350 O 128.084 -2.74741 -4.72419 0
M  V30 1351 H 125.178 -0.38464 -0.732107 0
M  V30 1352 H 127.724 -1.36817 -1.00395 0
M  V30 1353 H 126.496 -2.94685 -2.57442 0
M  V30 1354 H 126.119 -1.60218 -3.6389 0
M  V30 1355 N 127.117 1.15442 -1.07289 0
M  V30 1356 C 128.528 1.67803 -0.818475 0
M  V30 1357 C 128.879 1.8489 0.656507 0
M  V30 1358 O 128.004 1.55176 1.50829 0
M  V30 1359 C 128.599 3.04805 -1.47917 0
M  V30 1360 C 127.158 3.54245 -1.27229 0
M  V30 1361 C 126.305 2.29986 -1.54925 0
M  V30 1362 H 129.256 0.996646 -1.23502 0
M  V30 1363 H 129.277 3.69702 -0.90005 0
M  V30 1364 H 128.789 2.92336 -2.55267 0
M  V30 1365 H 126.89 3.71956 -0.21899 0
M  V30 1366 H 127.003 4.35723 -1.99203 0
M  V30 1367 H 125.367 2.35496 -0.970242 0
M  V30 1368 H 126.15 2.20105 -2.63455 0
M  V30 1369 N 128.595 0.856903 1.32268 0
M  V30 1370 C 129.543 0.291987 2.3076 0
M  V30 1371 C 130.537 -0.585857 1.58947 0
M  V30 1372 O 131.743 -0.47341 1.73663 0
M  V30 1373 H 128.118 0.075721 0.748178 0
M  V30 1374 H 130.089 1.13687 2.75895 0
M  V30 1375 C 128.838 -0.502869 3.44044 0
M  V30 1376 H 128.161 0.163328 3.99466 0
M  V30 1377 H 129.601 -0.863691 4.1511 0
M  V30 1378 C 128.06 -1.68898 2.91505 0
M  V30 1379 O 128.59 -2.78811 2.89184 0
M  V30 1380 N 126.796 -1.51679 2.47875 0
M  V30 1381 H 126.343 -0.622666 2.49961 0
M  V30 1382 H 126.301 -2.31184 2.13076 0
M  V30 1383 N 130.073 -1.45103 0.615059 0
M  V30 1384 C 130.983 -2.34382 -0.101034 0
M  V30 1385 C 131.999 -1.51681 -0.852585 0
M  V30 1386 O 133.175 -1.8446 -0.808484 0
M  V30 1387 C 130.24 -3.29417 -1.08099 0
M  V30 1388 C 129.301 -4.28025 -0.330577 0
M  V30 1389 C 128.534 -5.1852 -1.26385 0
M  V30 1390 O 128.757 -5.12598 -2.50198 0
M  V30 1391 O 127.691 -5.97122 -0.756866 0
M  V30 1392 H 131.517 -2.97033 0.632855 0
M  V30 1393 H 129.102 -1.4461 0.375293 0
M  V30 1394 H 130.984 -3.87958 -1.6452 0
M  V30 1395 H 129.659 -2.69321 -1.79577 0
M  V30 1396 H 128.566 -3.73078 0.276283 0
M  V30 1397 H 129.899 -4.90997 0.343866 0
M  V30 1398 N 131.551 -0.354651 -1.53558 0
M  V30 1399 C 132.481 0.489091 -2.2832 0
M  V30 1400 C 133.462 1.09324 -1.30316 0
M  V30 1401 O 134.647 1.11255 -1.59173 0
M  V30 1402 C 131.777 1.63456 -3.0643 0
M  V30 1403 C 130.731 1.1582 -4.12031 0
M  V30 1404 C 130.057 2.39305 -4.7816 0
M  V30 1405 C 131.357 0.250731 -5.21698 0
M  V30 1406 H 133.051 -0.134614 -2.99097 0
M  V30 1407 H 130.597 -0.0661826 -1.43848 0
M  V30 1408 H 132.55 2.23136 -3.57475 0
M  V30 1409 H 131.274 2.28533 -2.33325 0
M  V30 1410 H 129.933 0.584146 -3.61916 0
M  V30 1411 H 129.581 3.02814 -4.01637 0
M  V30 1412 H 129.281 2.08109 -5.49513 0
M  V30 1413 H 130.805 2.99691 -5.31994 0
M  V30 1414 H 132.219 0.754695 -5.68311 0
M  V30 1415 H 130.616 0.0301468 -6.00092 0
M  V30 1416 H 131.686 -0.710125 -4.79672 0
M  V30 1417 N 133.029 1.57378 -0.0835403 0
M  V30 1418 C 133.939 2.16897 0.894021 0
M  V30 1419 C 134.955 1.13528 1.31861 0
M  V30 1420 O 136.131 1.45848 1.3889 0
M  V30 1421 C 133.196 2.72831 2.13925 0
M  V30 1422 C 132.257 3.91115 1.76997 0
M  V30 1423 C 131.49 4.44371 2.95584 0
M  V30 1424 O 131.713 3.96596 4.09961 0
M  V30 1425 O 130.647 5.35549 2.74719 0
M  V30 1426 H 134.473 3.00814 0.417679 0
M  V30 1427 H 132.058 1.48741 0.140181 0
M  V30 1428 H 133.94 3.0863 2.86924 0
M  V30 1429 H 132.615 1.91967 2.60635 0
M  V30 1430 H 131.522 3.60148 1.01214 0
M  V30 1431 H 132.855 4.73307 1.3506 0
M  V30 1432 N 134.507 -0.190092 1.56449 0
M  V30 1433 C 135.923 -0.54113 1.50146 0
M  V30 1434 C 136.123 -1.85603 0.784465 0
M  V30 1435 O 135.179 -2.5024 0.337051 0
M  V30 1436 C 136.492 -0.591241 2.9483 0
M  V30 1437 C 138.04 -0.679732 3.0553 0
M  V30 1438 C 138.515 -0.760908 4.51635 0
M  V30 1439 N 140.006 -0.824302 4.55806 0
M  V30 1440 C 140.741 -0.907365 5.66175 0
M  V30 1441 N 140.237 -0.952422 6.86222 0
M  V30 1442 N 142.03 -0.94494 5.541 0
M  V30 1443 H 134.181 0.67235 2.01478 0
M  V30 1444 H 136.444 0.240127 0.917084 0
M  V30 1445 H 136.15 0.305905 3.50367 0
M  V30 1446 H 136.024 -1.44422 3.48457 0
M  V30 1447 H 138.411 -1.56731 2.50039 0
M  V30 1448 H 138.492 0.199549 2.5502 0
M  V30 1449 H 138.136 0.122336 5.07753 0
M  V30 1450 H 138.066 -1.65606 4.99882 0
M  V30 1451 H 140.557 -0.798526 3.69367 0
M  V30 1452 H 140.87 -1.01645 7.66086 0
M  V30 1453 H 139.215 -0.921014 6.8887 0
M  V30 1454 H 142.406 -0.906612 4.59236 0
M  V30 1455 H 142.579 -1.00622 6.4014 0
M  V30 1456 N 135.985 -1.50799 -0.457987 0
M  V30 1457 C 137.233 -1.62121 -1.2067 0
M  V30 1458 C 137.554 -0.329793 -1.92191 0
M  V30 1459 O 136.824 0.653409 -1.84682 0
M  V30 1460 H 135.404 -0.597441 -0.448411 0
M  V30 1461 H 138.066 -1.87637 -0.527096 0
M  V30 1462 H 137.162 -2.43882 -1.94751 0
M  V30 1463 N 137.463 0.71206 -1.40597 0
M  V30 1464 C 138.71 1.47197 -1.39065 0
M  V30 1465 C 139.038 1.94499 0.00583891 0
M  V30 1466 O 138.293 1.68752 0.99102 0
M  V30 1467 C 138.592 2.71039 -2.32965 0
M  V30 1468 C 138.258 2.42484 -3.80148 0
M  V30 1469 C 136.92 2.34406 -4.20247 0
M  V30 1470 C 139.272 2.18598 -4.73143 0
M  V30 1471 C 136.6 2.00516 -5.51371 0
M  V30 1472 C 138.952 1.8622 -6.0457 0
M  V30 1473 C 137.616 1.76626 -6.43708 0
M  V30 1474 H 136.886 0.538634 -0.508876 0
M  V30 1475 H 139.533 0.815325 -1.73276 0
M  V30 1476 H 137.838 3.41558 -1.91951 0
M  V30 1477 H 139.535 3.29138 -2.29061 0
M  V30 1478 H 136.125 2.49659 -3.4838 0
M  V30 1479 H 140.309 2.23793 -4.42979 0
M  V30 1480 H 135.565 1.91628 -5.80593 0
M  V30 1481 H 139.739 1.66752 -6.76141 0
M  V30 1482 H 137.366 1.50133 -7.45228 0
M  V30 1483 N 138.941 1.26152 0.944643 0
M  V30 1484 C 139.889 1.07215 2.06417 0
M  V30 1485 C 140.883 9.2007e-05 1.694 0
M  V30 1486 O 142.089 0.1565 1.79318 0
M  V30 1487 H 138.464 0.329837 0.675805 0
M  V30 1488 H 140.435 2.02099 2.19541 0
M  V30 1489 C 139.184 0.718197 3.40202 0
M  V30 1490 H 138.507 1.53497 3.69159 0
M  V30 1491 H 139.947 0.625459 4.19361 0
M  V30 1492 C 138.406 -0.576435 3.31932 0
M  V30 1493 O 138.936 -1.61574 3.67773 0
M  V30 1494 N 137.142 -0.565781 2.85039 0
M  V30 1495 H 136.689 0.280367 2.5607 0
M  V30 1496 H 136.647 -1.43213 2.79888 0
M  V30 1497 N 140.419 -1.14872 1.07899 0
M  V30 1498 C 141.329 -2.2341 0.715915 0
M  V30 1499 C 142.345 -1.71808 -0.275306 0
M  V30 1500 O 143.521 -2.01039 -0.120545 0
M  V30 1501 C 140.586 -3.46474 0.125168 0
M  V30 1502 C 139.647 -4.13039 1.17034 0
M  V30 1503 C 138.88 -5.30229 0.607688 0
M  V30 1504 O 139.103 -5.675 -0.574497 0
M  V30 1505 O 138.037 -5.86444 1.35526 0
M  V30 1506 H 141.863 -2.56808 1.62121 0
M  V30 1507 H 139.448 -1.22702 0.852322 0
M  V30 1508 H 141.33 -4.20917 -0.201729 0
M  V30 1509 H 140.005 -3.14811 -0.753364 0
M  V30 1510 H 138.912 -3.40493 1.54968 0
M  V30 1511 H 140.245 -4.48796 2.02097 0
M  V30 1512 N 141.898 -0.863906 -1.31812 0
M  V30 1513 C 143.146 -0.470904 -1.96537 0
M  V30 1514 C 143.467 0.978771 -1.68657 0
M  V30 1515 O 142.737 1.6853 -0.998717 0
M  V30 1516 H 141.317 -0.171148 -0.72713 0
M  V30 1517 H 143.979 -1.10236 -1.60729 0
M  V30 1518 H 143.075 -0.623616 -3.05806 0
M  V30 1519 N 143.376 1.44774 -0.622745 0
M  V30 1520 C 144.622 2.0242 -0.124083 0
M  V30 1521 C 144.955 1.4881 1.24777 0
M  V30 1522 O 144.23 0.668799 1.8264 0
M  V30 1523 C 144.513 3.59957 -0.101619 0
M  V30 1524 C 144.366 4.23867 -1.50521 0
M  V30 1525 C 145.685 4.36284 0.578272 0
M  V30 1526 H 142.804 0.735528 -0.0465645 0
M  V30 1527 H 145.446 1.72447 -0.797617 0
M  V30 1528 H 143.596 3.85623 0.471934 0
M  V30 1529 H 145.268 4.09336 -2.12701 0
M  V30 1530 H 143.511 3.81684 -2.06154 0
M  V30 1531 H 144.182 5.32843 -1.4416 0
M  V30 1532 H 146.658 4.16001 0.0906057 0
M  V30 1533 H 145.534 5.46004 0.563149 0
M  V30 1534 H 145.795 4.10271 1.64713 0
M  V30 1535 N 144.854 0.36279 1.53368 0
M  V30 1536 C 146.101 -0.227776 2.01215 0
M  V30 1537 C 146.429 -1.49003 1.25014 0
M  V30 1538 O 145.684 -1.92876 0.331236 0
M  V30 1539 C 145.983 -0.568417 3.52851 0
M  V30 1540 C 145.649 0.59918 4.46901 0
M  V30 1541 C 144.311 0.919559 4.72332 0
M  V30 1542 C 146.663 1.38156 5.02556 0
M  V30 1543 C 143.991 2.02434 5.5067 0
M  V30 1544 C 146.343 2.47674 5.821 0
M  V30 1545 C 145.007 2.8025 6.05819 0
M  V30 1546 H 144.277 -0.083349 0.736297 0
M  V30 1547 H 146.924 0.494677 1.85001 0
M  V30 1548 H 145.229 -1.37185 3.66998 0
M  V30 1549 H 146.926 -1.03756 3.87344 0
M  V30 1550 H 143.516 0.339437 4.27254 0
M  V30 1551 H 147.7 1.14729 4.82857 0
M  V30 1552 H 142.956 2.28075 5.67267 0
M  V30 1553 H 147.13 3.08716 6.24234 0
M  V30 1554 H 144.757 3.65979 6.66306 0
M  V30 1555 N 146.332 -1.57332 0.0918853 0
M  V30 1556 C 147.56 -1.98574 -0.581048 0
M  V30 1557 C 147.975 -0.970903 -1.61923 0
M  V30 1558 O 147.332 0.0399054 -1.82456 0
M  V30 1559 C 147.383 -3.39872 -1.23164 0
M  V30 1560 O 147.104 -4.37469 -0.234989 0
M  V30 1561 C 148.605 -3.96099 -1.99049 0
M  V30 1562 H 145.825 -0.65261 -0.156018 0
M  V30 1563 H 148.369 -2.0379 0.170225 0
M  V30 1564 H 146.524 -3.35679 -1.93386 0
M  V30 1565 H 146.938 -5.19751 -0.70418 0
M  V30 1566 H 148.412 -4.97127 -2.39934 0
M  V30 1567 H 148.889 -3.3374 -2.85507 0
M  V30 1568 H 149.495 -4.03755 -1.3365 0
M  V30 1569 N 147.81 0.181792 -1.56548 0
M  V30 1570 C 148.773 1.20894 -1.94724 0
M  V30 1571 C 149.773 1.37738 -0.829747 0
M  V30 1572 O 150.963 1.35323 -1.09697 0
M  V30 1573 C 148.095 2.57593 -2.23291 0
M  V30 1574 H 149.288 0.882275 -2.86629 0
M  V30 1575 H 146.841 0.423838 -1.50444 0
M  V30 1576 H 147.576 2.95291 -1.34067 0
M  V30 1577 H 147.361 2.46735 -3.04736 0
M  V30 1578 H 148.851 3.31637 -2.53785 0
M  V30 1579 N 149.288 1.51039 0.449983 0
M  V30 1580 C 150.251 1.70863 1.5277 0
M  V30 1581 C 151.251 0.578846 1.5002 0
M  V30 1582 O 152.441 0.846213 1.52266 0
M  V30 1583 C 149.573 1.75341 2.9235 0
M  V30 1584 H 150.766 2.67034 1.36502 0
M  V30 1585 H 148.319 1.40838 0.677812 0
M  V30 1586 H 149.054 0.809383 3.14037 0
M  V30 1587 H 148.839 2.57436 2.95752 0
M  V30 1588 H 150.329 1.92559 3.70555 0
M  V30 1589 N 150.766 -0.704594 1.40972 0
M  V30 1590 C 151.713 -1.81862 1.42109 0
M  V30 1591 C 152.683 -1.63781 0.276593 0
M  V30 1592 O 153.868 -1.84759 0.4763 0
M  V30 1593 C 151.008 -3.19669 1.30022 0
M  V30 1594 C 150.121 -3.49246 2.54267 0
M  V30 1595 C 149.256 -4.76618 2.3454 0
M  V30 1596 C 148.295 -4.99133 3.54306 0
M  V30 1597 N 147.432 -6.17726 3.33706 0
M  V30 1598 H 152.272 -1.80226 2.37324 0
M  V30 1599 H 149.809 -0.880238 1.17857 0
M  V30 1600 H 151.767 -3.99263 1.21018 0
M  V30 1601 H 150.397 -3.20506 0.384192 0
M  V30 1602 H 149.449 -2.64125 2.73756 0
M  V30 1603 H 150.761 -3.61788 3.43381 0
M  V30 1604 H 149.915 -5.64249 2.22952 0
M  V30 1605 H 148.654 -4.66305 1.42867 0
M  V30 1606 H 147.659 -4.09953 3.66359 0
M  V30 1607 H 148.884 -5.11311 4.4692 0
M  V30 1608 H 146.83 -6.08642 2.44725 0
M  V30 1609 H 146.747 -6.30995 4.16391 0
M  V30 1610 H 148.015 -7.08115 3.25873 0
M  V30 1611 N 152.244 -1.26651 -0.937939 0
M  V30 1612 C 153.174 -1.10993 -2.05433 0
M  V30 1613 C 154.155 -0.0142161 -1.70094 0
M  V30 1614 O 155.34 -0.186837 -1.93299 0
M  V30 1615 C 152.47 -0.745561 -3.39203 0
M  V30 1616 C 151.424 -1.79337 -3.88616 0
M  V30 1617 C 150.75 -1.28324 -5.19073 0
M  V30 1618 C 152.05 -3.19553 -4.13138 0
M  V30 1619 H 153.744 -2.0438 -2.1879 0
M  V30 1620 H 151.29 -0.984041 -1.05131 0
M  V30 1621 H 153.243 -0.622888 -4.16771 0
M  V30 1622 H 151.967 0.22401 -3.25831 0
M  V30 1623 H 150.626 -1.90477 -3.13231 0
M  V30 1624 H 150.274 -0.303414 -5.02084 0
M  V30 1625 H 149.974 -1.98369 -5.53103 0
M  V30 1626 H 151.498 -1.1733 -5.99221 0
M  V30 1627 H 152.912 -3.11471 -4.81309 0
M  V30 1628 H 151.309 -3.87218 -4.58457 0
M  V30 1629 H 152.379 -3.65368 -3.18801 0
M  V30 1630 N 153.722 1.14298 -1.08507 0
M  V30 1631 C 154.952 1.88945 -0.835663 0
M  V30 1632 C 155.36 1.78894 0.615928 0
M  V30 1633 O 154.703 1.1468 1.43506 0
M  V30 1634 C 154.765 3.39585 -1.17994 0
M  V30 1635 C 154.429 3.7342 -2.63451 0
M  V30 1636 C 155.426 3.73454 -3.61702 0
M  V30 1637 C 153.111 4.03368 -2.99332 0
M  V30 1638 C 155.105 4.02961 -4.93864 0
M  V30 1639 C 152.792 4.32538 -4.31687 0
M  V30 1640 C 153.79 4.32318 -5.28763 0
M  V30 1641 O 153.478 4.6078 -6.58739 0
M  V30 1642 H 153.21 0.605307 -0.300965 0
M  V30 1643 H 155.764 1.45673 -1.44806 0
M  V30 1644 H 153.994 3.83315 -0.51055 0
M  V30 1645 H 155.683 3.9554 -0.911182 0
M  V30 1646 H 156.449 3.50403 -3.35325 0
M  V30 1647 H 152.328 4.02692 -2.24411 0
M  V30 1648 H 155.872 4.02704 -5.69627 0
M  V30 1649 H 151.769 4.55059 -4.57812 0
M  V30 1650 H 152.537 4.78492 -6.64069 0
M  V30 1651 N 155.201 0.870884 1.31352 0
M  V30 1652 C 156.612 0.534714 1.78879 0
M  V30 1653 C 156.963 -0.948423 1.71754 0
M  V30 1654 O 156.088 -1.74055 1.28584 0
M  V30 1655 C 156.683 0.963839 3.24801 0
M  V30 1656 C 155.242 0.679311 3.70219 0
M  V30 1657 C 154.389 1.15465 2.52117 0
M  V30 1658 H 157.34 1.05651 1.18421 0
M  V30 1659 H 157.361 0.286892 3.79417 0
M  V30 1660 H 156.873 2.04332 3.29955 0
M  V30 1661 H 154.974 -0.388769 3.70566 0
M  V30 1662 H 155.087 1.25698 4.62317 0
M  V30 1663 H 153.451 0.574383 2.48139 0
M  V30 1664 H 154.234 2.24157 2.60016 0
M  V30 1665 N 156.679 -1.44442 0.630414 0
M  V30 1666 C 157.642 -2.29107 -0.0652523 0
M  V30 1667 C 158.642 -1.41002 -0.772995 0
M  V30 1668 O 159.832 -1.62881 -0.617692 0
M  V30 1669 C 156.964 -3.22564 -1.10296 0
M  V30 1670 H 158.157 -2.92103 0.679401 0
M  V30 1671 H 155.71 -1.51343 0.390517 0
M  V30 1672 H 156.445 -2.64416 -1.87762 0
M  V30 1673 H 156.23 -3.87491 -0.59941 0
M  V30 1674 H 157.72 -3.86167 -1.5895 0
M  V30 1675 N 158.157 -0.370918 -1.53173 0
M  V30 1676 C 159.105 0.488101 -2.27421 0
M  V30 1677 C 160.099 1.07884 -1.30604 0
M  V30 1678 O 161.305 1.02143 -1.48212 0
M  V30 1679 H 157.68 0.176134 -0.731082 0
M  V30 1680 H 159.651 -0.159815 -2.97972 0
M  V30 1681 C 158.4 1.61306 -3.08019 0
M  V30 1682 H 157.723 1.1678 -3.82364 0
M  V30 1683 H 159.163 2.18872 -3.63141 0
M  V30 1684 C 157.622 2.55848 -2.19188 0
M  V30 1685 O 158.152 3.58799 -1.80626 0
M  V30 1686 N 156.358 2.2516 -1.83715 0
M  V30 1687 H 155.905 1.41476 -2.15273 0
M  V30 1688 H 155.863 2.8867 -1.24567 0
M  V30 1689 N 159.635 1.57281 -0.100228 0
M  V30 1690 C 160.598 2.13158 0.842398 0
M  V30 1691 C 161.598 1.06202 1.20738 0
M  V30 1692 O 162.788 1.32066 1.13597 0
M  V30 1693 C 159.92 2.65639 2.13655 0
M  V30 1694 H 161.113 2.97766 0.357114 0
M  V30 1695 H 158.666 1.5559 0.148823 0
M  V30 1696 H 159.401 1.84566 2.66657 0
M  V30 1697 H 159.186 3.43844 1.88451 0
M  V30 1698 H 160.676 3.08846 2.81077 0
M  V30 1699 N 161.113 -0.173488 1.56642 0
M  V30 1700 C 162.341 -0.906095 1.86004 0
M  V30 1701 C 162.756 -1.75921 0.685355 0
M  V30 1702 O 162.113 -1.79198 -0.345578 0
M  V30 1703 C 162.164 -1.78462 3.14378 0
M  V30 1704 O 161.885 -0.965914 4.27319 0
M  V30 1705 C 163.386 -2.62707 3.57071 0
M  V30 1706 H 160.606 -0.263341 0.617165 0
M  V30 1707 H 163.15 -0.174236 2.03756 0
M  V30 1708 H 161.305 -2.46984 2.98459 0
M  V30 1709 H 161.719 -1.56655 5.00559 0
M  V30 1710 H 163.193 -3.19969 4.49804 0
M  V30 1711 H 163.67 -3.37472 2.81086 0
M  V30 1712 H 164.276 -1.99521 3.75595 0
M  V30 1713 N 162.591 -1.51276 -0.441967 0
M  V30 1714 C 163.819 -1.67516 -1.21434 0
M  V30 1715 C 164.234 -0.37055 -1.85128 0
M  V30 1716 O 163.591 0.650498 -1.70513 0
M  V30 1717 C 163.642 -2.78748 -2.30177 0
M  V30 1718 O 163.363 -4.04154 -1.69089 0
M  V30 1719 C 164.864 -3.06217 -3.20541 0
M  V30 1720 H 162.084 -0.562276 -0.366178 0
M  V30 1721 H 164.628 -1.97666 -0.524244 0
M  V30 1722 H 162.783 -2.5121 -2.94911 0
M  V30 1723 H 163.197 -4.65894 -2.40922 0
M  V30 1724 H 164.671 -3.8764 -3.92987 0
M  V30 1725 H 165.148 -2.18439 -3.81026 0
M  V30 1726 H 165.754 -3.35397 -2.61513 0
M  V30 1727 N 164.069 0.697108 -1.41344 0
M  V30 1728 C 165.017 1.83237 -1.43272 0
M  V30 1729 C 166.011 1.66522 -0.310947 0
M  V30 1730 O 167.217 1.73402 -0.482899 0
M  V30 1731 H 163.592 0.603802 -0.448249 0
M  V30 1732 H 165.563 1.78727 -2.38954 0
M  V30 1733 C 164.312 3.21245 -1.33029 0
M  V30 1734 H 163.635 3.34723 -2.18633 0
M  V30 1735 H 165.075 4.00763 -1.38439 0
M  V30 1736 C 163.534 3.36873 -0.0424635 0
M  V30 1737 O 164.064 3.91177 0.913421 0
M  V30 1738 N 162.27 2.90581 0.0331145 0
M  V30 1739 H 161.817 2.46577 -0.745506 0
M  V30 1740 H 161.775 3.01416 0.894199 0
M  V30 1741 N 165.547 1.27147 0.931209 0
M  V30 1742 C 166.772 1.16191 1.71797 0
M  V30 1743 C 167.197 -0.278004 1.86034 0
M  V30 1744 O 166.555 -1.20137 1.35782 0
M  V30 1745 C 166.603 1.84673 3.09723 0
M  V30 1746 O 165.707 1.14231 3.96264 0
M  V30 1747 H 165.048 0.404303 0.526721 0
M  V30 1748 H 167.578 1.68152 1.1656 0
M  V30 1749 H 167.588 1.91893 3.60057 0
M  V30 1750 H 166.263 2.89421 2.98677 0
M  V30 1751 H 164.84 1.15056 3.54706 0
M  V30 1752 N 167.025 -1.13721 1.09112 0
M  V30 1753 C 168.25 -1.89314 0.847053 0
M  V30 1754 C 168.675 -1.78416 -0.595774 0
M  V30 1755 O 168.033 -1.12942 -1.41823 0
M  V30 1756 C 168.081 -3.3701 1.28284 0
M  V30 1757 O 167.185 -4.10054 0.439267 0
M  V30 1758 H 166.526 -0.588745 0.307044 0
M  V30 1759 H 169.056 -1.43902 1.45442 0
M  V30 1760 H 169.066 -3.87834 1.26683 0
M  V30 1761 H 167.741 -3.4426 2.33363 0
M  V30 1762 H 166.318 -3.69266 0.519312 0
M  V30 1763 N 168.503 -0.877838 -1.30888 0
M  V30 1764 C 169.453 -0.310872 -2.25871 0
M  V30 1765 C 170.437 0.556596 -1.50966 0
M  V30 1766 O 171.629 0.402187 -1.7237 0
M  V30 1767 C 168.758 0.479821 -3.3993 0
M  V30 1768 C 167.844 -0.401333 -4.22197 0
M  V30 1769 N 168.235 -1.49848 -4.83093 0
M  V30 1770 C 166.533 -0.195167 -4.45573 0
M  V30 1771 C 167.234 -2.0425 -5.44662 0
M  V30 1772 N 166.21 -1.33843 -5.26865 0
M  V30 1773 H 170.012 -1.1493 -2.70496 0
M  V30 1774 H 167.526 -0.726458 -1.45246 0
M  V30 1775 H 169.523 0.902582 -4.07012 0
M  V30 1776 H 168.183 1.31577 -2.96846 0
M  V30 1777 H 169.194 -1.88137 -4.82519 0
M  V30 1778 H 165.871 0.604192 -4.13105 0
M  V30 1779 H 167.261 -2.96345 -6.03017 0
M  V30 1780 N 169.982 1.44106 -0.638065 0
M  V30 1781 C 171.23 2.01579 -0.145043 0
M  V30 1782 C 171.551 1.50496 1.24 0
M  V30 1783 O 170.821 0.711374 1.82527 0
M  V30 1784 H 169.401 0.745282 -0.05063 0
M  V30 1785 H 172.063 1.76516 -0.826327 0
M  V30 1786 H 171.159 3.11877 -0.118039 0
M  V30 1787 N 171.46 0.379036 1.52974 0
M  V30 1788 C 172.706 -0.206727 2.01744 0
M  V30 1789 C 173.039 -1.47314 1.26539 0
M  V30 1790 O 172.314 -1.91084 0.362903 0
M  V30 1791 C 172.597 -0.485066 3.56818 0
M  V30 1792 C 172.45 0.795919 4.42702 0
M  V30 1793 C 173.769 -1.28003 4.21074 0
M  V30 1794 H 170.888 -0.0736607 0.73331 0
M  V30 1795 H 173.53 0.506581 1.83122 0
M  V30 1796 H 171.68 -1.09272 3.72816 0
M  V30 1797 H 173.352 1.43307 4.38476 0
M  V30 1798 H 171.595 1.41344 4.10127 0
M  V30 1799 H 172.266 0.555947 5.49193 0
M  V30 1800 H 174.742 -0.765867 4.08991 0
M  V30 1801 H 173.618 -1.44352 5.29579 0
M  V30 1802 H 173.879 -2.29236 3.78026 0
M  V30 1803 N 172.938 -1.57226 0.108567 0
M  V30 1804 C 174.166 -1.99179 -0.559954 0
M  V30 1805 C 174.581 -0.988022 -1.60884 0
M  V30 1806 O 173.938 0.0205512 -1.82488 0
M  V30 1807 C 173.989 -3.41159 -1.19552 0
M  V30 1808 O 173.71 -4.37694 -0.188577 0
M  V30 1809 C 175.211 -3.98188 -1.94837 0
M  V30 1810 H 172.431 -0.654228 -0.149088 0
M  V30 1811 H 174.975 -2.03598 0.19183 0
M  V30 1812 H 173.13 -3.37711 -1.89815 0
M  V30 1813 H 173.544 -5.20469 -0.649014 0
M  V30 1814 H 175.018 -4.99644 -2.34648 0
M  V30 1815 H 175.495 -3.3675 -2.81951 0
M  V30 1816 H 176.101 -4.0515 -1.2936 0
M  V30 1817 N 174.416 0.165178 -1.56732 0
M  V30 1818 C 175.641 0.900253 -1.86843 0
M  V30 1819 C 176.066 1.74766 -0.695596 0
M  V30 1820 O 175.424 1.77786 0.35522 0
M  V30 1821 C 175.472 1.74777 -3.15413 0
M  V30 1822 O 174.576 2.85007 -2.98068 0
M  V30 1823 H 173.917 0.251832 -0.614391 0
M  V30 1824 H 176.447 0.161468 -2.03962 0
M  V30 1825 H 176.457 2.14646 -3.46974 0
M  V30 1826 H 175.132 1.12537 -4.00385 0
M  V30 1827 H 173.709 2.48676 -2.77875 0
M  V30 1828 N 175.894 1.51508 0.433938 0
M  V30 1829 C 177.143 1.63578 1.18005 0
M  V30 1830 C 177.456 0.359514 1.92268 0
M  V30 1831 O 178.662 0.359632 2.69108 0
M  V30 1832 C 177.118 2.88901 2.14626 0
M  V30 1833 C 176.726 4.23544 1.45995 0
M  V30 1834 C 178.47 3.10328 2.89649 0
M  V30 1835 C 176.377 5.40014 2.4112 0
M  V30 1836 H 175.307 0.609277 0.444182 0
M  V30 1837 H 177.958 1.77978 0.446773 0
M  V30 1838 H 176.34 2.68142 2.91403 0
M  V30 1839 H 177.514 4.54696 0.747532 0
M  V30 1840 H 175.829 4.08021 0.831115 0
M  V30 1841 H 178.426 3.94518 3.60915 0
M  V30 1842 H 178.769 2.23544 3.51189 0
M  V30 1843 H 179.302 3.31443 2.19978 0
M  V30 1844 H 176.041 6.29068 1.84264 0
M  V30 1845 H 175.561 5.13233 3.10406 0
M  V30 1846 H 177.24 5.72099 3.02177 0
M  V30 1847 N 177.372 -0.689602 1.41712 0
M  V30 1848 C 178.649 -1.44457 1.31877 0
M  V30 1849 C 179.029 -2.11039 -0.0508537 0
M  V30 1850 O 178.377 -2.02138 -1.06547 0
M  V30 1851 C 178.587 -2.45913 2.47645 0
M  V30 1852 C 179.935 -3.10991 2.89084 0
M  V30 1853 O 180.959 -2.56238 2.47428 0
M  V30 1854 O 179.818 -4.10174 3.61137 0
M  V30 1855 H 176.912 -0.64362 0.519309 0
M  V30 1856 H 179.458 -0.719576 1.53689 0
M  V30 1857 H 178.23 -1.95409 3.39015 0
M  V30 1858 H 177.853 -3.25913 2.27742 0
M  V30 1859 N 178.85 -1.27639 -0.924453 0
M  V30 1860 C 179.813 -1.10681 -2.00705 0
M  V30 1861 C 180.813 -0.0497823 -1.60723 0
M  V30 1862 O 182.003 -0.294654 -1.7169 0
M  V30 1863 C 179.135 -0.687164 -3.33902 0
M  V30 1864 H 180.328 -2.06817 -2.17179 0
M  V30 1865 H 177.881 -1.10473 -1.10569 0
M  V30 1866 H 178.616 0.275439 -3.23128 0
M  V30 1867 H 178.401 -1.45061 -3.6428 0
M  V30 1868 H 179.891 -0.590853 -4.13399 0
M  V30 1869 N 180.328 1.1314 -1.09713 0
M  V30 1870 C 181.577 1.83838 -0.829851 0
M  V30 1871 C 181.89 1.84599 0.646728 0
M  V30 1872 O 183.096 2.51218 1.02965 0
M  V30 1873 C 181.552 3.30069 -1.43466 0
M  V30 1874 C 181.16 3.37688 -2.94399 0
M  V30 1875 C 182.904 4.05788 -1.24645 0
M  V30 1876 C 180.811 4.78209 -3.47952 0
M  V30 1877 H 179.741 0.68877 -0.306777 0
M  V30 1878 H 182.392 1.27448 -1.3202 0
M  V30 1879 H 180.774 3.8628 -0.871996 0
M  V30 1880 H 181.948 2.91456 -3.56918 0
M  V30 1881 H 180.263 2.75436 -3.12289 0
M  V30 1882 H 182.86 5.09535 -1.62107 0
M  V30 1883 H 183.203 4.15878 -0.187357 0
M  V30 1884 H 183.736 3.55915 -1.77678 0
M  V30 1885 H 180.475 4.73311 -4.53495 0
M  V30 1886 H 179.995 5.24924 -2.90198 0
M  V30 1887 H 181.674 5.47133 -3.45332 0
M  V30 1888 N 181.806 0.884767 1.30421 0
M  V30 1889 C 182.739 0.295999 2.26272 0
M  V30 1890 C 183.717 -0.58332 1.51777 0
M  V30 1891 O 184.901 -0.53346 1.80794 0
M  V30 1892 C 182.028 -0.57944 3.33707 0
M  V30 1893 C 181.074 0.230525 4.25877 0
M  V30 1894 S 181.907 1.61867 5.1045 0
M  V30 1895 C 183.063 0.749756 6.21393 0
M  V30 1896 H 183.296 1.10848 2.75862 0
M  V30 1897 H 180.829 0.684178 1.38414 0
M  V30 1898 H 182.787 -1.07879 3.96071 0
M  V30 1899 H 181.448 -1.36601 2.82841 0
M  V30 1900 H 180.641 -0.437542 5.02097 0
M  V30 1901 H 180.243 0.662493 3.68086 0
M  V30 1902 H 182.535 -0.0333547 6.77492 0
M  V30 1903 H 183.478 1.48356 6.92384 0
M  V30 1904 H 183.886 0.310751 5.63644 0
M  V30 1905 N 183.284 -1.43765 0.645699 0
M  V30 1906 C 184.695 -1.85193 0.236719 0
M  V30 1907 C 185.046 -1.54045 -1.21509 0
M  V30 1908 O 184.171 -0.985694 -1.92647 0
M  V30 1909 C 184.766 -3.36151 0.422845 0
M  V30 1910 C 183.325 -3.76338 0.0682492 0
M  V30 1911 C 182.472 -2.67538 0.729306 0
M  V30 1912 H 185.423 -1.34025 0.849883 0
M  V30 1913 H 185.444 -3.79032 -0.333904 0
M  V30 1914 H 184.956 -3.5879 1.47958 0
M  V30 1915 H 183.057 -3.59312 -0.986179 0
M  V30 1916 H 183.17 -4.76603 0.488469 0
M  V30 1917 H 181.534 -2.54176 0.163235 0
M  V30 1918 H 182.317 -2.93006 1.78892 0
M  V30 1919 N 184.763 -0.387143 -1.52771 0
M  V30 1920 C 186.009 0.196025 -2.0185 0
M  V30 1921 C 186.342 1.46641 -1.27319 0
M  V30 1922 O 185.617 1.90889 -0.373032 0
M  V30 1923 C 185.9 0.466136 -3.5707 0
M  V30 1924 C 185.753 -0.819385 -4.42274 0
M  V30 1925 C 187.072 1.25768 -4.21747 0
M  V30 1926 H 184.191 0.0697708 -0.73369 0
M  V30 1927 H 186.833 -0.516286 -1.82851 0
M  V30 1928 H 184.983 1.07293 -3.7339 0
M  V30 1929 H 186.655 -1.4563 -4.37709 0
M  V30 1930 H 184.898 -1.43517 -4.09372 0
M  V30 1931 H 185.569 -0.585065 -5.48891 0
M  V30 1932 H 188.045 0.744167 -4.09391 0
M  V30 1933 H 186.921 1.41541 -5.30337 0
M  V30 1934 H 187.182 2.27228 -3.79236 0
M  V30 1935 N 186.241 1.57166 -0.116904 0
M  V30 1936 C 187.171 2.18222 0.830759 0
M  V30 1937 C 188.152 1.12167 1.27877 0
M  V30 1938 O 189.337 1.40394 1.34176 0
M  V30 1939 C 186.467 2.77996 2.08172 0
M  V30 1940 C 185.421 3.89614 1.77157 0
M  V30 1941 C 184.747 4.36187 3.09265 0
M  V30 1942 C 186.047 5.1181 1.04151 0
M  V30 1943 H 187.741 2.97664 0.321992 0
M  V30 1944 H 185.287 1.4318 0.153434 0
M  V30 1945 H 187.24 3.19366 2.74924 0
M  V30 1946 H 185.964 1.9584 2.6137 0
M  V30 1947 H 184.623 3.48816 1.12796 0
M  V30 1948 H 184.271 3.50893 3.60393 0
M  V30 1949 H 183.971 5.11455 2.89288 0
M  V30 1950 H 185.495 4.80207 3.77139 0
M  V30 1951 H 186.909 5.50214 1.61052 0
M  V30 1952 H 185.306 5.92648 0.942762 0
M  V30 1953 H 186.376 4.84892 0.0279022 0
M  V30 1954 N 187.719 -0.156864 1.56817 0
M  V30 1955 C 188.629 -1.2136 2.00771 0
M  V30 1956 C 189.645 -1.47598 0.921459 0
M  V30 1957 O 190.821 -1.59462 1.2302 0
M  V30 1958 C 187.886 -2.52943 2.37109 0
M  V30 1959 C 186.947 -2.34439 3.59634 0
M  V30 1960 C 186.18 -3.59748 3.94229 0
M  V30 1961 O 186.403 -4.65526 3.29609 0
M  V30 1962 O 185.337 -3.52998 4.8752 0
M  V30 1963 H 189.163 -0.870468 2.90958 0
M  V30 1964 H 186.748 -0.36484 1.44877 0
M  V30 1965 H 188.63 -3.30538 2.61386 0
M  V30 1966 H 187.305 -2.86806 1.5008 0
M  V30 1967 H 186.212 -1.54828 3.40557 0
M  V30 1968 H 187.545 -2.05496 4.4725 0
M  V30 1969 N 189.197 -1.51736 -0.425897 0
M  V30 1970 C 190.613 -1.40166 -0.76326 0
M  V30 1971 C 190.813 -0.492962 -1.95377 0
M  V30 1972 O 189.869 0.0475815 -2.52455 0
M  V30 1973 C 191.182 -2.82403 -1.03291 0
M  V30 1974 C 192.73 -2.91632 -1.13665 0
M  V30 1975 C 193.205 -4.34801 -1.43916 0
M  V30 1976 N 194.696 -4.3796 -1.50816 0
M  V30 1977 C 195.431 -5.4578 -1.75817 0
M  V30 1978 N 194.927 -6.63744 -1.98534 0
M  V30 1979 N 196.72 -5.33274 -1.77694 0
M  V30 1980 H 188.871 -2.09361 0.358 0
M  V30 1981 H 191.134 -0.942941 0.0978094 0
M  V30 1982 H 190.84 -3.50943 -0.230696 0
M  V30 1983 H 190.714 -3.22428 -1.95754 0
M  V30 1984 H 193.101 -2.23284 -1.92947 0
M  V30 1985 H 193.182 -2.55088 -0.190756 0
M  V30 1986 H 192.826 -5.03703 -0.65157 0
M  V30 1987 H 192.756 -4.68868 -2.39729 0
M  V30 1988 H 195.247 -3.52919 -1.35118 0
M  V30 1989 H 195.56 -7.41704 -2.17013 0
M  V30 1990 H 193.905 -6.66839 -1.95832 0
M  V30 1991 H 197.096 -4.40098 -1.59473 0
M  V30 1992 H 197.269 -6.1738 -1.9684 0
M  V30 1993 N 190.675 0.682077 -1.42076 0
M  V30 1994 C 191.608 1.80666 -1.3941 0
M  V30 1995 C 192.586 1.60518 -0.25939 0
M  V30 1996 O 193.77 1.83088 -0.448456 0
M  V30 1997 C 190.897 3.17556 -1.17796 0
M  V30 1998 C 189.943 3.56468 -2.34164 0
M  V30 1999 S 190.776 3.59729 -3.96681 0
M  V30 2000 C 191.932 4.99323 -3.77395 0
M  V30 2001 H 192.165 1.82652 -2.34575 0
M  V30 2002 H 189.698 0.852062 -1.2876 0
M  V30 2003 H 191.656 3.96575 -1.06012 0
M  V30 2004 H 190.317 3.13164 -0.242279 0
M  V30 2005 H 189.51 4.5595 -2.1477 0
M  V30 2006 H 189.112 2.84792 -2.42425 0
M  V30 2007 H 191.404 5.87202 -3.37935 0
M  V30 2008 H 192.347 5.23763 -4.76527 0
M  V30 2009 H 192.755 4.71498 -3.10403 0
M  V30 2010 N 192.153 1.28127 0.917671 0
M  V30 2011 C 193.063 1.13556 2.05286 0
M  V30 2012 C 194.079 0.0630914 1.73886 0
M  V30 2013 O 195.255 0.271598 1.9956 0
M  V30 2014 C 192.32 0.794676 3.3747 0
M  V30 2015 C 191.381 1.94909 3.82504 0
M  V30 2016 C 190.614 1.62437 5.0838 0
M  V30 2017 O 190.837 0.536905 5.67867 0
M  V30 2018 O 189.771 2.46677 5.4903 0
M  V30 2019 H 193.597 2.08844 2.20495 0
M  V30 2020 H 191.182 1.07409 1.03845 0
M  V30 2021 H 193.064 0.618344 4.16839 0
M  V30 2022 H 191.739 -0.128581 3.23445 0
M  V30 2023 H 190.646 2.18055 3.03978 0
M  V30 2024 H 191.979 2.85291 4.01086 0
M  V30 2025 N 193.631 -1.12557 1.10312 0
M  V30 2026 C 194.578 -2.18247 0.750781 0
M  V30 2027 C 195.548 -1.63853 -0.272293 0
M  V30 2028 O 196.733 -1.90195 -0.151862 0
M  V30 2029 C 193.873 -3.44591 0.187379 0
M  V30 2030 C 192.986 -4.13046 1.2656 0
M  V30 2031 C 192.121 -5.27034 0.663978 0
M  V30 2032 C 191.16 -5.87353 1.72287 0
M  V30 2033 N 190.297 -6.92757 1.1416 0
M  V30 2034 H 195.137 -2.47732 1.65628 0
M  V30 2035 H 192.674 -1.21629 0.827337 0
M  V30 2036 H 194.632 -4.16904 -0.157148 0
M  V30 2037 H 193.262 -3.15527 -0.681355 0
M  V30 2038 H 192.314 -3.38924 1.72727 0
M  V30 2039 H 193.626 -4.53947 2.06721 0
M  V30 2040 H 192.78 -6.06104 0.268824 0
M  V30 2041 H 191.519 -4.87407 -0.169082 0
M  V30 2042 H 190.524 -5.06971 2.12746 0
M  V30 2043 H 191.749 -6.29051 2.55875 0
M  V30 2044 H 189.695 -6.5517 0.329984 0
M  V30 2045 H 189.612 -7.3225 1.88007 0
M  V30 2046 H 190.88 -7.75658 0.772956 0
M  V30 2047 N 195.109 -0.891671 -1.2995 0
M  V30 2048 C 196.358 -0.509521 -1.95158 0
M  V30 2049 C 196.671 0.947388 -1.71125 0
M  V30 2050 O 197.877 1.43669 -2.30372 0
M  V30 2051 C 196.333 -0.860315 -3.49466 0
M  V30 2052 C 195.941 -2.33545 -3.8231 0
M  V30 2053 C 197.685 -0.547687 -4.20952 0
M  V30 2054 C 195.592 -2.62752 -5.29826 0
M  V30 2055 H 194.522 -0.18682 -0.730489 0
M  V30 2056 H 197.173 -1.08756 -1.47798 0
M  V30 2057 H 195.555 -0.211285 -3.95436 0
M  V30 2058 H 196.729 -3.02936 -3.47227 0
M  V30 2059 H 195.044 -2.61629 -3.23944 0
M  V30 2060 H 197.641 -0.742854 -5.29515 0
M  V30 2061 H 197.984 0.51332 -4.13123 0
M  V30 2062 H 198.517 -1.1542 -3.80688 0
M  V30 2063 H 195.256 -3.6762 -5.42712 0
M  V30 2064 H 194.776 -1.97977 -5.66185 0
M  V30 2065 H 196.455 -2.48601 -5.97333 0
M  V30 2066 N 196.587 1.43421 -0.653314 0
M  V30 2067 C 197.835 2.01414 -0.166415 0
M  V30 2068 C 198.156 1.51803 1.22397 0
M  V30 2069 O 197.426 0.730693 1.81763 0
M  V30 2070 H 196.006 0.744703 -0.0585319 0
M  V30 2071 H 198.668 1.75629 -0.845003 0
M  V30 2072 H 197.764 3.11734 -0.151111 0
M  V30 2073 N 198.065 0.39524 1.52563 0
M  V30 2074 C 198.998 -0.4813 2.23067 0
M  V30 2075 C 199.976 -1.05927 1.23362 0
M  V30 2076 O 201.16 -1.10979 1.52368 0
M  V30 2077 C 198.287 -1.66676 2.9485 0
M  V30 2078 C 197.333 -1.21348 4.08873 0
M  V30 2079 S 198.166 -0.190102 5.35162 0
M  V30 2080 C 199.322 -1.38121 6.1047 0
M  V30 2081 H 199.555 0.117381 2.97068 0
M  V30 2082 H 197.088 0.179458 1.53354 0
M  V30 2083 H 199.046 -2.3466 3.36816 0
M  V30 2084 H 197.707 -2.23676 2.20518 0
M  V30 2085 H 196.9 -2.09877 4.58222 0
M  V30 2086 H 196.502 -0.612486 3.68951 0
M  V30 2087 H 198.794 -2.30726 6.37002 0
M  V30 2088 H 199.737 -0.928521 7.01986 0
M  V30 2089 H 200.145 -1.60071 5.41329 0
M  V30 2090 N 199.544 -1.57102 0.125237 0
M  V30 2091 C 200.955 -1.82384 -0.399142 0
M  V30 2092 C 201.306 -1.04276 -1.66195 0
M  V30 2093 O 200.431 -0.281269 -2.14564 0
M  V30 2094 C 201.026 -3.30821 -0.730932 0
M  V30 2095 C 199.585 -3.56762 -1.19992 0
M  V30 2096 C 198.732 -2.7649 -0.211792 0
M  V30 2097 H 201.683 -1.54786 0.350277 0
M  V30 2098 H 201.704 -3.4579 -1.58775 0
M  V30 2099 H 201.216 -3.87643 0.188345 0
M  V30 2100 H 199.317 -3.05305 -2.13588 0
M  V30 2101 H 199.43 -4.65317 -1.14093 0
M  V30 2102 H 197.794 -2.4489 -0.700085 0
M  V30 2103 H 198.577 -3.36073 0.700691 0
M  V30 2104 N 201.022 0.148545 -1.56898 0
M  V30 2105 C 201.952 1.18524 -2.01182 0
M  V30 2106 C 202.933 1.4489 -0.891123 0
M  V30 2107 O 204.118 1.55836 -1.15882 0
M  V30 2108 C 201.248 2.51879 -2.39112 0
M  V30 2109 C 200.202 2.40038 -3.54353 0
M  V30 2110 C 199.528 3.78089 -3.78091 0
M  V30 2111 C 200.828 1.88577 -4.87069 0
M  V30 2112 H 202.522 0.817029 -2.88036 0
M  V30 2113 H 200.068 0.391575 -1.38574 0
M  V30 2114 H 202.021 3.24627 -2.68692 0
M  V30 2115 H 200.745 2.90532 -1.49193 0
M  V30 2116 H 199.404 1.69742 -3.24936 0
M  V30 2117 H 199.052 4.14175 -2.85426 0
M  V30 2118 H 198.752 3.71028 -4.55645 0
M  V30 2119 H 200.276 4.52387 -4.10095 0
M  V30 2120 H 201.69 2.51117 -5.15377 0
M  V30 2121 H 200.087 1.9241 -5.68417 0
M  V30 2122 H 201.157 0.84136 -4.77545 0
M  V30 2123 N 202.5 1.5196 0.417844 0
M  V30 2124 C 203.43 1.77634 1.51554 0
M  V30 2125 C 204.411 0.626918 1.58126 0
M  V30 2126 O 205.596 0.871632 1.7354 0
M  V30 2127 C 202.726 1.91911 2.8946 0
M  V30 2128 C 201.68 3.07463 2.97743 0
M  V30 2129 C 201.006 3.06951 4.37819 0
M  V30 2130 C 202.306 4.47082 2.70027 0
M  V30 2131 H 204 2.6955 1.3032 0
M  V30 2132 H 201.546 1.29706 0.625492 0
M  V30 2133 H 203.499 2.08455 3.6623 0
M  V30 2134 H 202.223 0.966598 3.11969 0
M  V30 2135 H 200.882 2.90656 2.23416 0
M  V30 2136 H 200.53 2.09438 4.57323 0
M  V30 2137 H 200.23 3.84556 4.44286 0
M  V30 2138 H 201.754 3.25613 5.16535 0
M  V30 2139 H 203.168 4.6414 3.36522 0
M  V30 2140 H 201.565 5.2654 2.87881 0
M  V30 2141 H 202.635 4.55777 1.65514 0
M  V30 2142 N 203.978 -0.674533 1.42435 0
M  V30 2143 C 205.224 -1.43671 1.43131 0
M  V30 2144 C 205.557 -1.94142 0.0476021 0
M  V30 2145 O 204.832 -1.70924 -0.928188 0
M  V30 2146 C 205.115 -2.63355 2.45594 0
M  V30 2147 C 204.968 -2.18514 3.93156 0
M  V30 2148 C 206.287 -3.65571 2.45043 0
M  V30 2149 H 203.406 -0.521077 0.521198 0
M  V30 2150 H 206.048 -0.766551 1.7385 0
M  V30 2151 H 204.198 -3.2053 2.19528 0
M  V30 2152 H 205.87 -1.66504 4.30202 0
M  V30 2153 H 204.113 -1.50086 4.07009 0
M  V30 2154 H 204.784 -3.04484 4.60428 0
M  V30 2155 H 207.26 -3.18113 2.68223 0
M  V30 2156 H 206.136 -4.46893 3.18713 0
M  V30 2157 H 206.397 -4.16716 1.47649 0
M  V30 2158 N 205.456 -1.28612 -0.910864 0
M  V30 2159 C 206.406 -1.09423 -2.00026 0
M  V30 2160 C 207.39 -0.0170079 -1.60891 0
M  V30 2161 O 208.582 -0.237472 -1.754 0
M  V30 2162 C 205.711 -0.76114 -3.34756 0
M  V30 2163 C 204.797 -1.87735 -3.80285 0
M  V30 2164 N 205.188 -3.11938 -3.98156 0
M  V30 2165 C 203.486 -1.76786 -4.09467 0
M  V30 2166 C 204.187 -3.84687 -4.36338 0
M  V30 2167 N 203.163 -3.12555 -4.44759 0
M  V30 2168 H 206.965 -2.03658 -2.11898 0
M  V30 2169 H 204.479 -1.19573 -1.09891 0
M  V30 2170 H 206.476 -0.604743 -4.12491 0
M  V30 2171 H 205.136 0.173403 -3.24237 0
M  V30 2172 H 206.147 -3.47516 -3.83996 0
M  V30 2173 H 202.824 -0.905284 -4.07567 0
M  V30 2174 H 204.214 -4.91518 -4.58104 0
M  V30 2175 N 206.934 1.1197 -1.10907 0
M  V30 2176 C 208.182 1.83225 -0.852819 0
M  V30 2177 C 208.503 1.84769 0.623341 0
M  V30 2178 O 207.773 1.3143 1.45269 0
M  V30 2179 H 206.353 0.67849 -0.312507 0
M  V30 2180 H 209.015 1.3556 -1.40033 0
M  V30 2181 H 208.111 2.87265 -1.22005 0
M  V30 2182 N 208.412 0.89855 1.29475 0
M  V30 2183 C 209.322 0.379974 2.31502 0
M  V30 2184 C 210.338 -0.524695 1.659 0
M  V30 2185 O 211.514 -0.414551 1.97087 0
M  V30 2186 C 208.579 -0.385138 3.44554 0
M  V30 2187 C 207.64 0.550914 4.2575 0
M  V30 2188 C 206.873 -0.177778 5.33404 0
M  V30 2189 O 207.096 -1.40189 5.52904 0
M  V30 2190 O 206.03 0.479106 5.9999 0
M  V30 2191 H 209.856 1.22639 2.77837 0
M  V30 2192 H 207.441 0.662834 1.33891 0
M  V30 2193 H 209.323 -0.817841 4.13388 0
M  V30 2194 H 207.998 -1.20763 3.0033 0
M  V30 2195 H 206.905 1.03271 3.59564 0
M  V30 2196 H 208.238 1.33979 4.73614 0
M  V30 2197 N 209.89 -1.43072 0.660911 0
M  V30 2198 C 211.136 -2.0202 0.177708 0
M  V30 2199 C 211.469 -1.52066 -1.20787 0
M  V30 2200 O 210.744 -0.716987 -1.80802 0
M  V30 2201 C 211.027 -3.59561 0.197019 0
M  V30 2202 C 210.88 -4.19727 1.61706 0
M  V30 2203 C 212.199 -4.37664 -0.462396 0
M  V30 2204 H 209.318 -0.734034 0.0660494 0
M  V30 2205 H 211.96 -1.70272 0.843058 0
M  V30 2206 H 210.11 -3.86739 -0.369527 0
M  V30 2207 H 211.782 -4.03553 2.23479 0
M  V30 2208 H 210.025 -3.76084 2.16201 0
M  V30 2209 H 210.696 -5.28834 1.58237 0
M  V30 2210 H 213.172 -4.16095 0.0197215 0
M  V30 2211 H 212.048 -5.47305 -0.418188 0
M  V30 2212 H 212.309 -4.14493 -1.53778 0
M  V30 2213 N 211.368 -0.403325 -1.52352 0
M  V30 2214 C 212.596 0.174012 -2.06167 0
M  V30 2215 C 213.011 1.39347 -1.27388 0
M  V30 2216 O 212.368 1.79597 -0.324201 0
M  V30 2217 C 212.419 0.530223 -3.5759 0
M  V30 2218 O 212.14 -0.640806 -4.33388 0
M  V30 2219 C 213.641 1.16192 -4.27802 0
M  V30 2220 H 210.861 0.0229464 -0.670608 0
M  V30 2221 H 213.405 -0.572604 -1.9632 0
M  V30 2222 H 211.56 1.22673 -3.67464 0
M  V30 2223 H 211.974 -0.344851 -5.23365 0
M  V30 2224 H 213.448 1.36141 -5.34948 0
M  V30 2225 H 213.925 2.13335 -3.83907 0
M  V30 2226 H 214.531 0.505775 -4.22282 0
M  V30 2227 N 212.846 1.57033 -0.133567 0
M  V30 2228 C 213.796 2.12641 0.822671 0
M  V30 2229 C 214.78 1.05081 1.21847 0
M  V30 2230 O 215.972 1.31287 1.18713 0
M  V30 2231 C 213.101 2.74094 2.06706 0
M  V30 2232 C 212.187 3.88757 1.69497 0
M  V30 2233 N 212.578 4.95194 1.03037 0
M  V30 2234 C 210.876 3.99213 1.98859 0
M  V30 2235 C 211.577 5.75414 0.852873 0
M  V30 2236 N 210.553 5.25726 1.3825 0
M  V30 2237 H 214.355 2.92308 0.305537 0
M  V30 2238 H 211.869 1.62256 0.0684276 0
M  V30 2239 H 213.866 3.12285 2.76195 0
M  V30 2240 H 212.526 1.95896 2.5895 0
M  V30 2241 H 213.537 5.13247 0.692669 0
M  V30 2242 H 210.214 3.32075 2.53047 0
M  V30 2243 H 211.604 6.71089 0.330091 0
M  V30 2244 N 214.325 -0.140222 1.56975 0
M  V30 2245 C 215.288 -1.15689 1.97861 0
M  V30 2246 C 216.288 -1.3549 0.865974 0
M  V30 2247 O 217.478 -1.32367 1.13246 0
M  V30 2248 C 214.61 -2.51582 2.30042 0
M  V30 2249 H 215.803 -0.805971 2.88867 0
M  V30 2250 H 213.356 -0.383801 1.51515 0
M  V30 2251 H 214.091 -2.91632 1.41849 0
M  V30 2252 H 213.876 -2.38569 3.11171 0
M  V30 2253 H 215.366 -3.24792 2.62488 0
M  V30 2254 N 215.803 -1.52179 -0.40978 0
M  V30 2255 C 217.08 -1.56769 -1.16974 0
M  V30 2256 C 217.46 -0.348322 -2.08206 0
M  V30 2257 O 216.808 0.664862 -2.18613 0
M  V30 2258 C 217.018 -2.89603 -1.9476 0
M  V30 2259 C 218.366 -3.42579 -2.50849 0
M  V30 2260 O 219.39 -2.91338 -2.04941 0
M  V30 2261 O 218.249 -4.32054 -3.34652 0
M  V30 2262 H 215.343 -0.631439 -0.534054 0
M  V30 2263 H 217.889 -1.64507 -0.416613 0
M  V30 2264 H 216.661 -3.698 -1.27921 0
M  V30 2265 H 216.284 -2.85155 -2.77079 0
M  V30 2266 N 217.281 0.66697 -1.42791 0
M  V30 2267 C 218.53 1.42278 -1.42968 0
M  V30 2268 C 218.843 1.9553 -0.0524489 0
M  V30 2269 O 220.049 2.71414 0.068363 0
M  V30 2270 C 218.505 2.57418 -2.51524 0
M  V30 2271 C 218.113 2.10832 -3.9529 0
M  V30 2272 C 219.857 3.34878 -2.60877 0
M  V30 2273 C 217.764 3.23101 -4.95338 0
M  V30 2274 H 216.694 0.534533 -0.531781 0
M  V30 2275 H 219.345 0.721302 -1.68729 0
M  V30 2276 H 217.727 3.29971 -2.18941 0
M  V30 2277 H 218.901 1.4538 -4.37266 0
M  V30 2278 H 217.216 1.46289 -3.89857 0
M  V30 2279 H 219.813 4.18505 -3.32802 0
M  V30 2280 H 220.156 3.81993 -1.6549 0
M  V30 2281 H 220.689 2.69398 -2.92693 0
M  V30 2282 H 217.428 2.80969 -5.9223 0
M  V30 2283 H 216.948 3.87309 -4.57987 0
M  V30 2284 H 218.627 3.88447 -5.17415 0
M  V30 2285 N 218.759 1.29093 0.90403 0
M  V30 2286 C 220.036 1.075 1.63411 0
M  V30 2287 C 220.416 -0.382346 2.07609 0
M  V30 2288 O 219.764 -1.37031 1.82851 0
M  V30 2289 C 219.974 2.05858 2.81822 0
M  V30 2290 C 221.322 2.36539 3.52611 0
M  V30 2291 O 222.346 2.04019 2.91984 0
M  V30 2292 O 221.205 2.92085 4.61897 0
M  V30 2293 H 218.299 0.411547 0.717327 0
M  V30 2294 H 220.845 1.40449 0.952479 0
M  V30 2295 H 219.617 3.04037 2.46327 0
M  V30 2296 H 219.24 1.73613 3.57693 0
M  V30 2297 N 220.237 -1.11381 1.11499 0
M  V30 2298 C 221.486 -1.82494 0.858993 0
M  V30 2299 C 221.799 -1.85605 -0.617278 0
M  V30 2300 O 223.005 -2.52824 -0.989552 0
M  V30 2301 C 221.461 -3.27745 1.48699 0
M  V30 2302 C 221.069 -3.32961 2.99735 0
M  V30 2303 C 222.813 -4.03754 1.31085 0
M  V30 2304 C 220.72 -4.72612 3.55516 0
M  V30 2305 H 219.65 -0.683802 0.317696 0
M  V30 2306 H 222.301 -1.25331 1.34031 0
M  V30 2307 H 220.683 -3.84844 0.933339 0
M  V30 2308 H 221.857 -2.85741 3.61509 0
M  V30 2309 H 220.172 -2.70433 3.16631 0
M  V30 2310 H 222.769 -5.06891 1.70192 0
M  V30 2311 H 223.112 -4.15527 0.253496 0
M  V30 2312 H 223.645 -3.53043 1.83318 0
M  V30 2313 H 220.384 -4.66036 4.60967 0
M  V30 2314 H 219.904 -5.2024 2.98513 0
M  V30 2315 H 221.583 -5.4157 3.53992 0
M  V30 2316 N 221.715 -0.905404 -1.28997 0
M  V30 2317 C 222.962 -0.534248 -1.95325 0
M  V30 2318 C 223.29 0.920535 -1.71337 0
M  V30 2319 O 222.545 1.66861 -1.02254 0
M  V30 2320 C 222.844 -0.779906 -3.48787 0
M  V30 2321 C 222.51 -2.21293 -3.92861 0
M  V30 2322 C 221.172 -2.60475 -4.04606 0
M  V30 2323 C 223.524 -3.14587 -4.15553 0
M  V30 2324 C 220.852 -3.9212 -4.36416 0
M  V30 2325 C 223.204 -4.45787 -4.48839 0
M  V30 2326 C 221.868 -4.84834 -4.58794 0
M  V30 2327 H 221.138 -0.195495 -0.714747 0
M  V30 2328 H 223.785 -1.14514 -1.53488 0
M  V30 2329 H 222.09 -0.0861365 -3.91705 0
M  V30 2330 H 223.787 -0.472029 -3.98212 0
M  V30 2331 H 220.377 -1.89887 -3.84241 0
M  V30 2332 H 224.561 -2.85528 -4.0594 0
M  V30 2333 H 219.817 -4.22086 -4.42327 0
M  V30 2334 H 223.991 -5.18098 -4.65346 0
M  V30 2335 H 221.618 -5.86877 -4.83197 0
M  V30 2336 N 223.193 1.4272 -0.668489 0
M  V30 2337 C 224.47 1.95248 -0.117373 0
M  V30 2338 C 224.85 1.60919 1.36632 0
M  V30 2339 O 224.198 0.902095 2.09939 0
M  V30 2340 C 224.408 3.46927 -0.379806 0
M  V30 2341 C 225.756 4.23588 -0.292923 0
M  V30 2342 O 226.78 3.5482 -0.313204 0
M  V30 2343 O 225.639 5.46017 -0.229697 0
M  V30 2344 H 222.733 0.827 0.00079152 0
M  V30 2345 H 225.279 1.52581 -0.742783 0
M  V30 2346 H 224.051 3.65096 -1.40786 0
M  V30 2347 H 223.674 3.96627 0.277923 0
M  V30 2348 N 224.671 0.411399 1.52136 0
M  V30 2349 C 226.087 0.0623865 1.59478 0
M  V30 2350 C 226.287 -1.42554 1.4241 0
M  V30 2351 O 225.343 -2.19263 1.2522 0
M  V30 2352 C 226.656 0.559331 2.95452 0
M  V30 2353 C 228.204 0.517503 3.08692 0
M  V30 2354 C 228.679 0.990994 4.4715 0
M  V30 2355 N 230.17 0.947908 4.53397 0
M  V30 2356 C 230.905 1.28544 5.58806 0
M  V30 2357 N 230.401 1.69454 6.71757 0
M  V30 2358 N 232.194 1.20526 5.49026 0
M  V30 2359 H 224.345 1.37982 1.61477 0
M  V30 2360 H 226.608 0.566977 0.759764 0
M  V30 2361 H 226.314 1.59938 3.1323 0
M  V30 2362 H 226.188 -0.0298014 3.77188 0
M  V30 2363 H 228.575 -0.513505 2.90598 0
M  V30 2364 H 228.656 1.14272 2.28857 0
M  V30 2365 H 228.3 2.02034 4.65988 0
M  V30 2366 H 228.23 0.34257 5.25485 0
M  V30 2367 H 230.721 0.647157 3.72317 0
M  V30 2368 H 231.034 1.93513 7.48179 0
M  V30 2369 H 229.379 1.73359 6.73032 0
M  V30 2370 H 232.57 0.884505 4.59667 0
M  V30 2371 H 232.743 1.47161 6.31069 0
M  V30 2372 N 226.149 -1.5696 0.141893 0
M  V30 2373 C 227.059 -2.20066 -0.812905 0
M  V30 2374 C 228.075 -1.18344 -1.27557 0
M  V30 2375 O 229.251 -1.50902 -1.33381 0
M  V30 2376 C 226.316 -2.80583 -2.03652 0
M  V30 2377 C 225.377 -3.97414 -1.62359 0
M  V30 2378 C 224.61 -4.55036 -2.78887 0
M  V30 2379 O 224.833 -4.11538 -3.94959 0
M  V30 2380 O 223.767 -5.45376 -2.54653 0
M  V30 2381 H 227.593 -3.02157 -0.305746 0
M  V30 2382 H 225.178 -1.49159 -0.0848799 0
M  V30 2383 H 227.06 -3.19067 -2.75272 0
M  V30 2384 H 225.735 -2.01508 -2.5333 0
M  V30 2385 H 224.642 -3.63656 -0.877775 0
M  V30 2386 H 225.975 -4.77994 -1.17401 0
M  V30 2387 N 227.627 0.131896 -1.57047 0
M  V30 2388 C 228.59 1.14638 -1.98471 0
M  V30 2389 C 229.59 1.35029 -0.873148 0
M  V30 2390 O 230.78 1.31764 -1.13946 0
M  V30 2391 C 227.912 2.50358 -2.31373 0
M  V30 2392 H 229.105 0.79064 -2.8929 0
M  V30 2393 H 226.658 0.375761 -1.51716 0
M  V30 2394 H 227.393 2.90876 -1.43393 0
M  V30 2395 H 227.178 2.36915 -3.12432 0
M  V30 2396 H 228.668 3.23395 -2.64207 0
M  V30 2397 N 229.106 1.52395 0.401703 0
M  V30 2398 C 230.522 1.41363 0.740864 0
M  V30 2399 C 230.722 0.523982 1.94568 0
M  V30 2400 O 229.778 -0.00741204 2.52499 0
M  V30 2401 C 231.091 2.84011 0.987847 0
M  V30 2402 C 232.639 2.93404 1.09011 0
M  V30 2403 C 233.114 4.37036 1.3698 0
M  V30 2404 N 234.605 4.40304 1.43829 0
M  V30 2405 C 235.34 5.48508 1.67112 0
M  V30 2406 N 234.836 6.66819 1.87949 0
M  V30 2407 N 236.629 5.36034 1.69187 0
M  V30 2408 H 228.78 2.08765 -0.391262 0
M  V30 2409 H 231.043 0.941265 -0.112798 0
M  V30 2410 H 230.749 3.51265 0.174835 0
M  V30 2411 H 230.623 3.25502 1.906 0
M  V30 2412 H 233.01 2.26325 1.8937 0
M  V30 2413 H 233.091 2.55359 0.15015 0
M  V30 2414 H 232.735 5.04676 0.571353 0
M  V30 2415 H 232.665 4.72623 2.3224 0
M  V30 2416 H 235.156 3.55024 1.29486 0
M  V30 2417 H 235.469 7.45063 2.05185 0
M  V30 2418 H 233.814 6.6987 1.85199 0
M  V30 2419 H 237.005 4.42579 1.52451 0
M  V30 2420 H 237.178 6.20434 1.86993 0
M  V30 2421 N 230.584 -0.659388 1.43143 0
M  V30 2422 C 231.831 -1.41935 1.44433 0
M  V30 2423 C 232.159 -1.94387 0.0663522 0
M  V30 2424 O 231.414 -1.72314 -0.927706 0
M  V30 2425 C 231.713 -2.62206 2.42864 0
M  V30 2426 C 231.379 -2.28208 3.88886 0
M  V30 2427 C 230.041 -2.18647 4.28657 0
M  V30 2428 C 232.393 -2.00887 4.8093 0
M  V30 2429 C 229.721 -1.79914 5.58433 0
M  V30 2430 C 232.073 -1.63653 6.11065 0
M  V30 2431 C 230.737 -1.52614 6.49819 0
M  V30 2432 H 230.007 -0.519376 0.528517 0
M  V30 2433 H 232.654 -0.750453 1.76183 0
M  V30 2434 H 230.959 -3.34199 2.04495 0
M  V30 2435 H 232.656 -3.2041 2.41119 0
M  V30 2436 H 229.246 -2.36557 3.57406 0
M  V30 2437 H 233.43 -2.07198 4.5098 0
M  V30 2438 H 228.686 -1.69948 5.87305 0
M  V30 2439 H 232.86 -1.41543 6.81864 0
M  V30 2440 H 230.487 -1.22371 7.50286 0
M  V30 2441 N 232.062 -1.29571 -0.897171 0
M  V30 2442 C 233.311 -1.1706 -1.64256 0
M  V30 2443 C 233.624 0.276476 -1.93636 0
M  V30 2444 O 234.83 0.52294 -2.66416 0
M  V30 2445 C 233.286 -2.0475 -2.95982 0
M  V30 2446 C 232.894 -3.54295 -2.74187 0
M  V30 2447 C 234.638 -2.0097 -3.73914 0
M  V30 2448 C 232.545 -4.34081 -4.01656 0
M  V30 2449 H 231.475 -0.43452 -0.616205 0
M  V30 2450 H 234.126 -1.54229 -0.994268 0
M  V30 2451 H 232.508 -1.60452 -3.62038 0
M  V30 2452 H 233.682 -4.06662 -2.1671 0
M  V30 2453 H 231.997 -3.59773 -2.09648 0
M  V30 2454 H 234.594 -2.57838 -4.68427 0
M  V30 2455 H 234.937 -0.990273 -4.0435 0
M  V30 2456 H 235.47 -2.43325 -3.14703 0
M  V30 2457 H 232.209 -5.36671 -3.76384 0
M  V30 2458 H 231.729 -3.86483 -4.58684 0
M  V30 2459 H 233.408 -4.44877 -4.69781 0
M  V30 2460 N 233.54 1.10788 -1.12088 0
M  V30 2461 C 234.45 2.20599 -0.798338 0
M  V30 2462 C 235.466 1.72712 0.21135 0
M  V30 2463 O 236.642 2.01348 0.0458477 0
M  V30 2464 C 233.707 3.45771 -0.253674 0
M  V30 2465 C 232.768 4.08411 -1.32283 0
M  V30 2466 C 232.001 5.27608 -0.80406 0
M  V30 2467 O 232.224 5.69241 0.363478 0
M  V30 2468 O 231.158 5.8101 -1.57198 0
M  V30 2469 H 234.984 2.50614 -1.7154 0
M  V30 2470 H 232.569 1.19454 -0.897275 0
M  V30 2471 H 234.451 4.21376 0.0453691 0
M  V30 2472 H 233.126 3.1739 0.636005 0
M  V30 2473 H 232.033 3.34507 -1.67499 0
M  V30 2474 H 233.366 4.40986 -2.18614 0
M  V30 2475 N 235.018 0.912232 1.28515 0
M  V30 2476 C 236.243 0.559774 1.99703 0
M  V30 2477 C 236.668 -0.851393 1.67729 0
M  V30 2478 O 236.026 -1.56875 0.908834 0
M  V30 2479 C 236.074 0.773874 3.52198 0
M  V30 2480 O 235.178 -0.167842 4.12058 0
M  V30 2481 H 234.519 0.21723 0.627461 0
M  V30 2482 H 237.049 1.22725 1.63706 0
M  V30 2483 H 237.059 0.683386 4.02236 0
M  V30 2484 H 235.734 1.80261 3.74805 0
M  V30 2485 H 234.311 -0.0287509 3.72889 0
M  V30 2486 N 236.496 -1.42363 0.676048 0
M  V30 2487 C 237.742 -2.0182 0.199125 0
M  V30 2488 C 238.075 -1.53339 -1.19168 0
M  V30 2489 O 237.35 -0.736124 -1.80032 0
M  V30 2490 C 237.633 -3.59331 0.235144 0
M  V30 2491 C 237.486 -4.17989 1.66149 0
M  V30 2492 C 238.805 -4.3813 -0.41595 0
M  V30 2493 H 235.924 -0.733293 0.0738311 0
M  V30 2494 H 238.566 -1.69368 0.86107 0
M  V30 2495 H 236.716 -3.87109 -0.328487 0
M  V30 2496 H 238.388 -4.0116 2.27747 0
M  V30 2497 H 236.631 -3.7377 2.20178 0
M  V30 2498 H 237.302 -5.27126 1.63837 0
M  V30 2499 H 239.778 -4.16051 0.0638529 0
M  V30 2500 H 238.654 -5.47717 -0.360115 0
M  V30 2501 H 238.915 -4.16101 -1.49373 0
M  V30 2502 N 237.974 -0.419461 -1.51915 0
M  V30 2503 C 238.907 0.445751 -2.23804 0
M  V30 2504 C 239.885 1.03951 -1.25031 0
M  V30 2505 O 241.069 1.08541 -1.54114 0
M  V30 2506 C 238.196 1.61964 -2.97465 0
M  V30 2507 C 237.242 1.14828 -4.10751 0
M  V30 2508 S 238.075 0.104938 -5.35397 0
M  V30 2509 C 239.231 1.28391 -6.1259 0
M  V30 2510 H 239.464 -0.164627 -2.96844 0
M  V30 2511 H 236.997 -0.203833 -1.53049 0
M  V30 2512 H 238.955 2.29271 -3.40507 0
M  V30 2513 H 237.616 2.20139 -2.24048 0
M  V30 2514 H 236.809 2.02561 -4.61503 0
M  V30 2515 H 236.411 0.553712 -3.69878 0
M  V30 2516 H 238.703 2.20563 -6.40592 0
M  V30 2517 H 239.646 0.816724 -7.03374 0
M  V30 2518 H 240.054 1.51439 -5.43807 0
M  V30 2519 N 239.452 1.56882 -0.150215 0
M  V30 2520 C 240.362 2.20494 0.801222 0
M  V30 2521 C 241.378 1.19019 1.26927 0
M  V30 2522 O 242.554 1.51607 1.32579 0
M  V30 2523 C 239.619 2.81659 2.02161 0
M  V30 2524 C 238.68 3.9827 1.60249 0
M  V30 2525 C 237.913 4.56508 2.7647 0
M  V30 2526 O 238.136 4.13627 3.92771 0
M  V30 2527 O 237.07 5.46719 2.51757 0
M  V30 2528 H 240.896 3.02315 0.289717 0
M  V30 2529 H 238.481 1.49202 0.0769684 0
M  V30 2530 H 240.363 3.20522 2.73576 0
M  V30 2531 H 239.038 2.02849 2.52258 0
M  V30 2532 H 237.945 3.64117 0.858477 0
M  V30 2533 H 239.278 4.78609 1.14864 0
M  V30 2534 N 240.93 -0.123565 1.57115 0
M  V30 2535 C 242.341 -0.681198 1.73829 0
M  V30 2536 C 242.692 -1.80535 0.768214 0
M  V30 2537 O 241.817 -2.16317 -0.0599103 0
M  V30 2538 C 242.412 -1.24246 3.15196 0
M  V30 2539 C 240.971 -1.74643 3.33432 0
M  V30 2540 C 240.118 -0.644284 2.69711 0
M  V30 2541 H 243.069 0.102315 1.5837 0
M  V30 2542 H 243.09 -2.11216 3.16493 0
M  V30 2543 H 242.602 -0.424062 3.85776 0
M  V30 2544 H 240.703 -2.58974 2.67886 0
M  V30 2545 H 240.816 -1.85902 4.41562 0
M  V30 2546 H 239.18 -1.07676 2.3082 0
M  V30 2547 H 239.963 0.163058 3.42913 0
M  V30 2548 N 242.408 -1.52605 -0.393616 0
M  V30 2549 C 243.338 -1.80022 -1.48709 0
M  V30 2550 C 244.319 -0.651995 -1.57108 0
M  V30 2551 O 245.504 -0.89913 -1.72132 0
M  V30 2552 C 242.634 -1.96492 -2.86371 0
M  V30 2553 C 241.588 -3.12161 -2.92813 0
M  V30 2554 C 240.914 -3.13877 -4.3288 0
M  V30 2555 C 242.214 -4.51322 -2.6288 0
M  V30 2556 H 243.908 -2.71589 -1.26015 0
M  V30 2557 H 241.454 -1.30684 -0.604778 0
M  V30 2558 H 243.407 -2.14255 -3.62867 0
M  V30 2559 H 242.131 -1.01611 -3.10391 0
M  V30 2560 H 240.79 -2.94173 -2.18764 0
M  V30 2561 H 240.438 -2.16687 -4.53933 0
M  V30 2562 H 240.138 -3.91576 -4.38112 0
M  V30 2563 H 241.662 -3.33789 -5.1129 0
M  V30 2564 H 243.076 -4.69435 -3.29096 0
M  V30 2565 H 241.473 -5.31053 -2.79468 0
M  V30 2566 H 242.543 -4.58353 -1.58242 0
M  V30 2567 N 243.887 0.651787 -1.4349 0
M  V30 2568 C 245.303 0.96762 -1.26922 0
M  V30 2569 C 245.503 2.00602 -0.189982 0
M  V30 2570 O 244.559 2.48793 0.431107 0
M  V30 2571 C 245.872 1.45052 -2.63401 0
M  V30 2572 C 247.42 1.5671 -2.70945 0
M  V30 2573 C 247.895 2.0839 -4.07845 0
M  V30 2574 N 249.386 2.1569 -4.09917 0
M  V30 2575 C 250.121 2.56804 -5.12679 0
M  V30 2576 N 249.617 2.97203 -6.25813 0
M  V30 2577 N 251.41 2.56756 -5.00033 0
M  V30 2578 H 243.561 -0.0353158 -2.12371 0
M  V30 2579 H 245.824 0.0467858 -0.946845 0
M  V30 2580 H 245.53 0.761926 -3.43348 0
M  V30 2581 H 245.404 2.42529 -2.88894 0
M  V30 2582 H 247.791 2.2467 -1.9133 0
M  V30 2583 H 247.872 0.57662 -2.49216 0
M  V30 2584 H 247.516 1.41031 -4.87927 0
M  V30 2585 H 247.446 3.08271 -4.26938 0
M  V30 2586 H 249.937 1.87237 -3.28254 0
M  V30 2587 H 250.25 3.27328 -7.00055 0
M  V30 2588 H 248.595 2.95004 -6.29283 0
M  V30 2589 H 251.786 2.24572 -4.10713 0
M  V30 2590 H 251.959 2.88475 -5.80247 0
M  V30 2591 N 245.365 1.30045 0.890287 0
M  V30 2592 C 246.297 1.11786 2.00091 0
M  V30 2593 C 247.31 0.0626307 1.62679 0
M  V30 2594 O 248.499 0.308112 1.75821 0
M  V30 2595 C 245.599 0.681527 3.31977 0
M  V30 2596 C 244.772 1.81735 3.97858 0
M  V30 2597 C 243.831 1.37045 5.08041 0
M  V30 2598 O 242.857 2.07677 5.29961 0
M  V30 2599 N 244.059 0.246525 5.79976 0
M  V30 2600 H 246.824 2.07441 2.16306 0
M  V30 2601 H 244.385 1.2211 1.06305 0
M  V30 2602 H 246.377 0.365675 4.03045 0
M  V30 2603 H 244.947 -0.182828 3.12065 0
M  V30 2604 H 244.167 2.30159 3.20032 0
M  V30 2605 H 245.455 2.57865 4.38615 0
M  V30 2606 H 244.853 -0.34215 5.64664 0
M  V30 2607 H 243.41 -0.00990438 6.51799 0
M  V30 2608 N 246.843 -1.10192 1.12674 0
M  V30 2609 C 248.259 -1.34235 0.863317 0
M  V30 2610 C 248.459 -1.95062 -0.505277 0
M  V30 2611 O 247.515 -2.19192 -1.25345 0
M  V30 2612 C 248.828 -2.2616 1.98172 0
M  V30 2613 C 250.376 -2.3969 2.0129 0
M  V30 2614 C 250.851 -3.34946 3.1237 0
M  V30 2615 N 252.342 -3.42515 3.11829 0
M  V30 2616 C 253.077 -4.16199 3.94419 0
M  V30 2617 N 252.573 -4.92747 4.87004 0
M  V30 2618 N 254.366 -4.11843 3.82547 0
M  V30 2619 H 246.517 -0.690798 2.00853 0
M  V30 2620 H 248.78 -0.366774 0.874174 0
M  V30 2621 H 248.486 -1.8868 2.96804 0
M  V30 2622 H 248.36 -3.26488 1.88906 0
M  V30 2623 H 250.747 -2.76438 1.03276 0
M  V30 2624 H 250.828 -1.39169 2.14629 0
M  V30 2625 H 250.472 -2.98923 4.10619 0
M  V30 2626 H 250.402 -4.35353 2.96269 0
M  V30 2627 H 252.893 -2.87926 2.44759 0
M  V30 2628 H 253.206 -5.46376 5.46528 0
M  V30 2629 H 251.551 -4.91862 4.91016 0
M  V30 2630 H 254.742 -3.51136 3.0955 0
M  V30 2631 H 254.915 -4.69007 4.47142 0
M  V30 2632 N 248.321 -0.919034 -1.28029 0
M  V30 2633 C 249.251 -0.428581 -2.29533 0
M  V30 2634 C 250.232 0.50659 -1.62381 0
M  V30 2635 O 251.417 0.413195 -1.89753 0
M  V30 2636 C 248.547 0.327388 -3.45753 0
M  V30 2637 C 247.501 -0.519137 -4.2484 0
M  V30 2638 C 246.827 0.365486 -5.33449 0
M  V30 2639 C 248.127 -1.77914 -4.91064 0
M  V30 2640 H 249.821 -1.27687 -2.70807 0
M  V30 2641 H 247.367 -0.615428 -1.30186 0
M  V30 2642 H 249.32 0.681378 -4.15855 0
M  V30 2643 H 248.044 1.20963 -3.03374 0
M  V30 2644 H 246.703 -0.855717 -3.56473 0
M  V30 2645 H 246.351 1.24642 -4.87312 0
M  V30 2646 H 246.051 -0.197356 -5.87268 0
M  V30 2647 H 247.575 0.715241 -6.06396 0
M  V30 2648 H 248.989 -1.49374 -5.53498 0
M  V30 2649 H 247.386 -2.2848 -5.54903 0
M  V30 2650 H 248.456 -2.50382 -4.15255 0
M  V30 2651 N 249.799 1.42003 -0.683588 0
M  V30 2652 C 251.027 2.05746 -0.218182 0
M  V30 2653 C 251.442 1.51396 1.12804 0
M  V30 2654 O 250.799 0.657303 1.70252 0
M  V30 2655 C 250.85 3.61171 -0.154131 0
M  V30 2656 O 250.571 4.13508 -1.44716 0
M  V30 2657 C 252.072 4.42042 0.333713 0
M  V30 2658 H 249.292 0.662888 -0.10402 0
M  V30 2659 H 251.836 1.81987 -0.9328 0
M  V30 2660 H 249.991 3.84012 0.511231 0
M  V30 2661 H 250.405 5.07453 -1.32632 0
M  V30 2662 H 251.879 5.51028 0.327423 0
M  V30 2663 H 252.356 4.17269 1.37053 0
M  V30 2664 H 252.962 4.24239 -0.300222 0
M  V30 2665 N 251.277 0.427512 1.51691 0
M  V30 2666 C 252.24 -0.377132 2.26076 0
M  V30 2667 C 253.24 -0.958089 1.29141 0
M  V30 2668 O 254.43 -0.83408 1.52934 0
M  V30 2669 C 251.562 -1.53262 3.04506 0
M  V30 2670 H 252.755 0.27464 2.9864 0
M  V30 2671 H 250.308 0.180445 1.55255 0
M  V30 2672 H 251.043 -2.22072 2.36335 0
M  V30 2673 H 250.828 -1.12232 3.75694 0
M  V30 2674 H 252.318 -2.10135 3.60878 0
M  V30 2675 N 252.755 -1.56801 0.158532 0
M  V30 2676 C 253.685 -2.20347 -0.772609 0
M  V30 2677 C 254.666 -1.15518 -1.24859 0
M  V30 2678 O 255.851 -1.43902 -1.30406 0
M  V30 2679 C 252.981 -2.83417 -2.00729 0
M  V30 2680 C 251.935 -3.94174 -1.66765 0
M  V30 2681 C 251.261 -4.44233 -2.97592 0
M  V30 2682 C 252.561 -5.14392 -0.905447 0
M  V30 2683 H 254.255 -2.98413 -0.242959 0
M  V30 2684 H 251.801 -1.43537 -0.115419 0
M  V30 2685 H 253.754 -3.26543 -2.6636 0
M  V30 2686 H 252.478 -2.02701 -2.56086 0
M  V30 2687 H 251.137 -3.51684 -1.03508 0
M  V30 2688 H 250.785 -3.60325 -3.50963 0
M  V30 2689 H 250.485 -5.18945 -2.75626 0
M  V30 2690 H 252.009 -4.90037 -3.64274 0
M  V30 2691 H 253.423 -5.5429 -1.46408 0
M  V30 2692 H 251.82 -5.9494 -0.7853 0
M  V30 2693 H 252.89 -4.84795 0.100668 0
M  V30 2694 N 254.233 0.115231 -1.57178 0
M  V30 2695 C 255.18 1.14115 -2.00615 0
M  V30 2696 C 256.15 1.40939 -0.878941 0
M  V30 2697 O 257.335 1.52741 -1.14345 0
M  V30 2698 C 254.475 2.46156 -2.4187 0
M  V30 2699 C 253.588 2.26236 -3.68024 0
M  V30 2700 C 252.723 3.51534 -3.98243 0
M  V30 2701 C 251.762 3.26787 -5.17568 0
M  V30 2702 N 250.899 4.44298 -5.43639 0
M  V30 2703 H 255.739 0.763743 -2.88047 0
M  V30 2704 H 253.276 0.365615 -1.42484 0
M  V30 2705 H 255.234 3.23189 -2.63827 0
M  V30 2706 H 253.864 2.81783 -1.57475 0
M  V30 2707 H 252.916 1.40102 -3.5366 0
M  V30 2708 H 254.228 2.03929 -4.55208 0
M  V30 2709 H 253.382 4.36984 -4.20868 0
M  V30 2710 H 252.121 3.76876 -3.09541 0
M  V30 2711 H 251.126 2.39729 -4.94783 0
M  V30 2712 H 252.351 3.02812 -6.0785 0
M  V30 2713 H 250.297 4.69754 -4.57895 0
M  V30 2714 H 250.214 4.25109 -6.25154 0
M  V30 2715 H 251.482 5.3087 -5.70786 0
M  V30 2716 N 255.711 1.52812 0.385517 0
M  V30 2717 C 256.957 1.68275 1.13188 0
M  V30 2718 C 257.29 0.423179 1.89533 0
M  V30 2719 O 256.565 -0.579113 1.85679 0
M  V30 2720 C 256.848 2.92001 2.1073 0
M  V30 2721 C 256.701 4.28067 1.38125 0
M  V30 2722 C 258.02 3.11283 3.11113 0
M  V30 2723 H 255.139 0.612352 0.410115 0
M  V30 2724 H 257.781 1.85415 0.414869 0
M  V30 2725 H 255.931 2.77519 2.71874 0
M  V30 2726 H 257.603 4.54324 0.799187 0
M  V30 2727 H 255.846 4.28388 0.683092 0
M  V30 2728 H 256.517 5.10733 2.09417 0
M  V30 2729 H 258.993 3.2482 2.6006 0
M  V30 2730 H 257.869 3.99325 3.76605 0
M  V30 2731 H 258.13 2.25656 3.80173 0
M  V30 2732 N 257.189 -0.644168 1.43834 0
M  V30 2733 C 258.435 -1.40603 1.46146 0
M  V30 2734 C 258.768 -1.93997 0.0887717 0
M  V30 2735 O 258.043 -1.72854 -0.891724 0
M  V30 2736 C 258.326 -2.58086 2.51124 0
M  V30 2737 C 258.179 -2.10126 3.97702 0
M  V30 2738 C 259.498 -3.60291 2.52742 0
M  V30 2739 H 256.617 -0.509905 0.532134 0
M  V30 2740 H 259.259 -0.729502 1.75437 0
M  V30 2741 H 257.409 -3.15801 2.26278 0
M  V30 2742 H 259.081 -1.57342 4.33637 0
M  V30 2743 H 257.324 -1.41419 4.10101 0
M  V30 2744 H 257.995 -2.94649 4.66783 0
M  V30 2745 H 260.471 -3.12352 2.7491 0
M  V30 2746 H 259.347 -4.40032 3.28121 0
M  V30 2747 H 259.608 -4.1349 1.56455 0
M  V30 2748 N 258.668 -1.30515 -0.883378 0
M  V30 2749 C 259.915 -1.1943 -1.63532 0
M  V30 2750 C 260.243 0.250627 -1.92878 0
M  V30 2751 O 259.498 1.19556 -1.54935 0
M  V30 2752 C 259.797 -1.96994 -2.98209 0
M  V30 2753 C 259.463 -3.466 -2.88408 0
M  V30 2754 C 258.125 -3.87397 -2.85442 0
M  V30 2755 C 260.477 -4.41863 -2.76418 0
M  V30 2756 C 257.805 -5.21745 -2.68327 0
M  V30 2757 C 260.157 -5.7632 -2.60841 0
M  V30 2758 C 258.821 -6.16354 -2.56251 0
M  V30 2759 H 258.091 -0.437025 -0.598406 0
M  V30 2760 H 260.738 -1.61635 -1.02696 0
M  V30 2761 H 259.043 -1.47429 -3.63004 0
M  V30 2762 H 260.74 -1.85808 -3.55354 0
M  V30 2763 H 257.33 -3.14182 -2.91527 0
M  V30 2764 H 261.514 -4.11285 -2.77775 0
M  V30 2765 H 256.77 -5.51853 -2.63189 0
M  V30 2766 H 260.944 -6.49772 -2.50538 0
M  V30 2767 H 258.571 -7.20401 -2.42748 0
M  V30 2768 N 260.146 1.09593 -1.13257 0
M  V30 2769 C 261.056 2.19739 -0.821691 0
M  V30 2770 C 262.072 1.72926 0.19302 0
M  V30 2771 O 263.248 2.01385 0.0244895 0
M  V30 2772 C 260.313 3.45482 -0.290333 0
M  V30 2773 C 259.374 4.06985 -1.36607 0
M  V30 2774 C 258.607 5.26726 -0.859975 0
M  V30 2775 O 258.83 5.69594 0.303082 0
M  V30 2776 O 257.764 5.7931 -1.63351 0
M  V30 2777 H 261.59 2.48781 -1.74189 0
M  V30 2778 H 259.175 1.18496 -0.909894 0
M  V30 2779 H 261.057 4.214 0.000674022 0
M  V30 2780 H 259.732 3.18047 0.602306 0
M  V30 2781 H 258.639 3.32712 -1.71037 0
M  V30 2782 H 259.972 4.38643 -2.23279 0
M  V30 2783 N 261.624 0.925811 1.2754 0
M  V30 2784 C 262.574 0.394488 2.24561 0
M  V30 2785 C 263.558 -0.500183 1.52928 0
M  V30 2786 O 264.75 -0.337936 1.73744 0
M  V30 2787 C 261.879 -0.353328 3.41477 0
M  V30 2788 C 260.965 0.557752 4.20416 0
M  V30 2789 N 261.356 1.67674 4.77199 0
M  V30 2790 C 259.654 0.360404 4.44541 0
M  V30 2791 C 260.355 2.24324 5.36706 0
M  V30 2792 N 259.331 1.53305 5.21535 0
M  V30 2793 H 263.133 1.2489 2.66045 0
M  V30 2794 H 260.647 0.779864 1.4245 0
M  V30 2795 H 262.644 -0.7509 4.10082 0
M  V30 2796 H 261.304 -1.20469 3.01525 0
M  V30 2797 H 262.315 2.05915 4.75204 0
M  V30 2798 H 258.992 -0.450454 4.15063 0
M  V30 2799 H 260.382 3.18521 5.91603 0
M  V30 2800 N 263.102 -1.41638 0.69111 0
M  V30 2801 C 264.351 -2.00526 0.217318 0
M  V30 2802 C 264.664 -1.55353 -1.18848 0
M  V30 2803 O 265.87 -2.06769 -1.75951 0
M  V30 2804 C 264.326 -3.58313 0.337639 0
M  V30 2805 C 263.934 -4.12469 1.74852 0
M  V30 2806 C 265.678 -4.24431 -0.0766066 0
M  V30 2807 C 263.585 -5.62675 1.82074 0
M  V30 2808 H 262.515 -0.750008 0.0774893 0
M  V30 2809 H 265.166 -1.6217 0.858661 0
M  V30 2810 H 263.548 -3.9425 -0.371879 0
M  V30 2811 H 264.722 -3.8796 2.48644 0
M  V30 2812 H 263.037 -3.58861 2.11205 0
M  V30 2813 H 265.634 -5.34683 -0.0430284 0
M  V30 2814 H 265.977 -4.01101 -1.1146 0
M  V30 2815 H 266.51 -3.93512 0.582476 0
M  V30 2816 H 263.249 -5.90826 2.83911 0
M  V30 2817 H 262.769 -5.89124 1.12661 0
M  V30 2818 H 264.448 -6.27371 1.58159 0
M  V30 2819 N 264.58 -0.43555 -1.51462 0
M  V30 2820 C 265.808 0.130242 -2.0649 0
M  V30 2821 C 266.223 1.36614 -1.30315 0
M  V30 2822 O 265.58 1.78869 -0.362223 0
M  V30 2823 C 265.631 0.454253 -3.58635 0
M  V30 2824 O 265.352 -0.73259 -4.31931 0
M  V30 2825 C 266.853 1.07091 -4.3017 0
M  V30 2826 H 264.073 0.00871669 -0.670943 0
M  V30 2827 H 266.617 -0.614117 -1.95061 0
M  V30 2828 H 264.772 1.14851 -3.69984 0
M  V30 2829 H 265.186 -0.455787 -5.22516 0
M  V30 2830 H 266.66 1.24764 -5.37716 0
M  V30 2831 H 267.137 2.05144 -3.88346 0
M  V30 2832 H 267.743 0.416089 -4.2326 0
M  V30 2833 N 266.058 1.56714 -0.166846 0
M  V30 2834 C 267.286 2.0112 0.485644 0
M  V30 2835 C 267.701 1.04705 1.57106 0
M  V30 2836 O 267.058 0.0471923 1.82439 0
M  V30 2837 C 267.109 3.45361 1.06808 0
M  V30 2838 O 266.83 4.38092 0.0259995 0
M  V30 2839 C 268.331 4.05145 1.79924 0
M  V30 2840 H 265.551 0.65931 0.124704 0
M  V30 2841 H 268.095 2.02746 -0.267262 0
M  V30 2842 H 266.25 3.44524 1.7715 0
M  V30 2843 H 266.664 5.22519 0.455398 0
M  V30 2844 H 268.138 5.08009 2.15942 0
M  V30 2845 H 268.615 3.46982 2.69258 0
M  V30 2846 H 269.221 4.09672 1.14234 0
M  V30 2847 N 267.536 -0.106894 1.57237 0
M  V30 2848 C 268.483 -1.13049 2.01217 0
M  V30 2849 C 269.453 -1.40471 0.886403 0
M  V30 2850 O 270.638 -1.52133 1.15153 0
M  V30 2851 C 267.778 -2.4487 2.43172 0
M  V30 2852 C 266.891 -2.24281 3.69218 0
M  V30 2853 C 266.026 -3.49417 4.00101 0
M  V30 2854 C 265.065 -3.24038 5.19294 0
M  V30 2855 N 264.202 -4.41409 5.45988 0
M  V30 2856 H 269.042 -0.748456 2.88448 0
M  V30 2857 H 266.579 -0.358054 1.42676 0
M  V30 2858 H 268.537 -3.21786 2.65537 0
M  V30 2859 H 267.167 -2.80944 1.58967 0
M  V30 2860 H 266.219 -1.38224 3.54398 0
M  V30 2861 H 267.531 -2.01512 4.56283 0
M  V30 2862 H 266.685 -4.34746 4.2318 0
M  V30 2863 H 265.424 -3.75229 3.11535 0
M  V30 2864 H 264.429 -2.37102 4.96047 0
M  V30 2865 H 265.654 -2.99584 6.09447 0
M  V30 2866 H 263.6 -4.67319 4.60379 0
M  V30 2867 H 263.517 -4.21788 6.274 0
M  V30 2868 H 264.785 -5.27836 5.73593 0
M  V30 2869 N 269.014 -1.53014 -0.377408 0
M  V30 2870 C 270.291 -1.59215 -1.13622 0
M  V30 2871 C 270.671 -0.392407 -2.07421 0
M  V30 2872 O 270.019 0.618342 -2.19975 0
M  V30 2873 C 270.229 -2.93669 -1.88573 0
M  V30 2874 C 271.577 -3.47822 -2.43526 0
M  V30 2875 O 272.601 -2.9562 -1.98715 0
M  V30 2876 O 271.46 -4.39055 -3.25412 0
M  V30 2877 H 268.554 -0.642625 -0.52054 0
M  V30 2878 H 271.1 -1.65353 -0.381625 0
M  V30 2879 H 269.872 -3.7243 -1.20048 0
M  V30 2880 H 269.495 -2.90968 -2.70968 0
M  V30 2881 N 270.492 0.636531 -1.44174 0
M  V30 2882 C 271.455 1.73063 -1.50273 0
M  V30 2883 C 272.455 1.56113 -0.385397 0
M  V30 2884 O 273.645 1.61707 -0.64781 0
M  V30 2885 C 270.777 3.12096 -1.37145 0
M  V30 2886 H 271.97 1.69031 -2.47727 0
M  V30 2887 H 269.523 0.849706 -1.31186 0
M  V30 2888 H 270.258 3.21728 -0.407636 0
M  V30 2889 H 270.043 3.25805 -2.18159 0
M  V30 2890 H 271.533 3.91846 -1.44382 0
M  V30 2891 N 271.97 1.30982 0.876444 0
M  V30 2892 C 272.933 1.18054 1.96459 0
M  V30 2893 C 273.933 0.109399 1.60427 0
M  V30 2894 O 275.123 0.358173 1.70478 0
M  V30 2895 C 272.255 0.810616 3.31122 0
M  V30 2896 H 273.448 2.14735 2.09354 0
M  V30 2897 H 271.001 1.145 1.06392 0
M  V30 2898 H 271.736 -0.155322 3.23928 0
M  V30 2899 H 271.521 1.58481 3.58645 0
M  V30 2900 H 273.011 0.743876 4.10921 0
M  V30 2901 N 273.449 -1.08991 1.13837 0
M  V30 2902 C 274.726 -1.77863 0.813876 0
M  V30 2903 C 275.106 -1.99375 -0.693746 0
M  V30 2904 O 274.454 -1.59875 -1.63255 0
M  V30 2905 C 274.664 -3.0986 1.60586 0
M  V30 2906 C 276.012 -3.84493 1.8014 0
M  V30 2907 O 277.036 -3.19624 1.57222 0
M  V30 2908 O 275.895 -5.00957 2.18413 0
M  V30 2909 H 272.989 -0.771589 0.297624 0
M  V30 2910 H 275.535 -1.15507 1.24323 0
M  V30 2911 H 274.307 -2.89715 2.63022 0
M  V30 2912 H 273.93 -3.79942 1.17173 0
M  V30 2913 N 274.927 -0.932562 -1.27047 0
M  V30 2914 C 276.157 -0.591173 -1.97961 0
M  V30 2915 C 276.565 0.836219 -1.69717 0
M  V30 2916 O 275.908 1.56801 -0.957036 0
M  V30 2917 C 275.97 -0.743082 -3.51736 0
M  V30 2918 C 275.634 -2.1435 -4.03613 0
M  V30 2919 C 276.631 -3.11815 -4.16014 0
M  V30 2920 C 274.316 -2.46175 -4.37839 0
M  V30 2921 C 276.31 -4.39211 -4.61923 0
M  V30 2922 C 273.997 -3.73806 -4.83438 0
M  V30 2923 C 274.995 -4.70137 -4.95439 0
M  V30 2924 O 274.683 -5.95496 -5.40037 0
M  V30 2925 H 274.415 -0.222375 -0.638377 0
M  V30 2926 H 276.969 -1.25317 -1.62742 0
M  V30 2927 H 275.199 -0.0239739 -3.86693 0
M  V30 2928 H 276.888 -0.40603 -4.03864 0
M  V30 2929 H 277.654 -2.88549 -3.89826 0
M  V30 2930 H 273.533 -1.71936 -4.27737 0
M  V30 2931 H 277.077 -5.14404 -4.71205 0
M  V30 2932 H 272.974 -3.96888 -5.09068 0
M  V30 2933 H 273.742 -5.98554 -5.58279 0
M  V30 2934 N 276.405 1.4127 -0.698611 0
M  V30 2935 C 277.651 2.01478 -0.231207 0
M  V30 2936 C 277.984 1.55215 1.16713 0
M  V30 2937 O 277.259 0.764672 1.78838 0
M  V30 2938 C 277.542 3.58912 -0.292281 0
M  V30 2939 C 277.395 4.15293 -1.72778 0
M  V30 2940 C 278.714 4.38736 0.346194 0
M  V30 2941 H 275.833 0.732025 -0.0854878 0
M  V30 2942 H 278.475 1.67977 -0.887906 0
M  V30 2943 H 276.625 3.87582 0.26686 0
M  V30 2944 H 278.297 3.97486 -2.341 0
M  V30 2945 H 276.54 3.7022 -2.26096 0
M  V30 2946 H 277.211 5.24452 -1.72202 0
M  V30 2947 H 279.687 4.15897 -0.130035 0
M  V30 2948 H 278.563 5.48221 0.272932 0
M  V30 2949 H 278.824 4.18425 1.42734 0
M  V30 2950 N 277.883 0.443576 1.51229 0
M  V30 2951 C 279.299 0.0962001 1.5931 0
M  V30 2952 C 279.499 -1.39501 1.45402 0
M  V30 2953 O 278.555 -2.16557 1.29843 0
M  V30 2954 C 279.868 0.621875 2.94199 0
M  V30 2955 C 281.416 0.582865 3.07525 0
M  V30 2956 C 281.891 1.08562 4.44948 0
M  V30 2957 N 283.382 1.04387 4.51284 0
M  V30 2958 C 284.117 1.40368 5.55954 0
M  V30 2959 N 283.613 1.83664 6.68011 0
M  V30 2960 N 285.406 1.32145 5.46346 0
M  V30 2961 H 277.557 1.41376 1.58514 0
M  V30 2962 H 279.82 0.582965 0.747567 0
M  V30 2963 H 279.526 1.66546 3.09767 0
M  V30 2964 H 279.4 0.0502125 3.77167 0
M  V30 2965 H 281.787 -0.451749 2.91622 0
M  V30 2966 H 281.868 1.191 2.26382 0
M  V30 2967 H 281.512 2.11873 4.61598 0
M  V30 2968 H 281.442 0.453956 5.2464 0
M  V30 2969 H 283.933 0.725986 3.70861 0
M  V30 2970 H 284.246 2.0934 7.43906 0
M  V30 2971 H 282.591 1.87596 6.69203 0
M  V30 2972 H 285.782 0.981808 4.57688 0
M  V30 2973 H 285.955 1.60514 6.27805 0
M  V30 2974 N 279.361 -1.56624 0.175154 0
M  V30 2975 C 280.638 -1.88688 -0.515373 0
M  V30 2976 C 281.018 -1.08564 -1.81044 0
M  V30 2977 O 280.366 -0.180703 -2.27784 0
M  V30 2978 C 280.576 -3.40768 -0.753552 0
M  V30 2979 C 281.924 -4.10587 -1.08184 0
M  V30 2980 O 282.948 -3.46106 -0.841961 0
M  V30 2981 O 281.807 -5.24512 -1.53459 0
M  V30 2982 H 278.901 -0.78301 -0.26613 0
M  V30 2983 H 281.447 -1.68347 0.213877 0
M  V30 2984 H 280.219 -3.90965 0.161829 0
M  V30 2985 H 279.842 -3.66733 -1.53598 0
M  V30 2986 N 280.839 0.0985539 -1.57292 0
M  V30 2987 C 282.087 0.801092 -1.85545 0
M  V30 2988 C 282.408 1.79438 -0.763353 0
M  V30 2989 O 281.678 1.94763 0.21073 0
M  V30 2990 H 280.258 0.29884 -0.684619 0
M  V30 2991 H 282.92 0.0810064 -1.94732 0
M  V30 2992 H 282.016 1.3338 -2.82163 0
M  V30 2993 N 282.317 1.53212 0.369288 0
M  V30 2994 C 283.265 1.80054 1.47253 0
M  V30 2995 C 284.259 0.669456 1.55611 0
M  V30 2996 O 285.465 0.852328 1.58541 0
M  V30 2997 H 281.84 0.570034 0.490475 0
M  V30 2998 H 283.811 2.72403 1.21817 0
M  V30 2999 C 282.56 2.00403 2.84137 0
M  V30 3000 H 281.883 2.86876 2.78464 0
M  V30 3001 H 283.323 2.23164 3.60519 0
M  V30 3002 C 281.782 0.782081 3.27697 0
M  V30 3003 O 282.312 -0.0310205 4.01688 0
M  V30 3004 N 280.518 0.606573 2.84199 0
M  V30 3005 H 280.065 1.26939 2.24152 0
M  V30 3006 H 280.023 -0.20962 3.137 0
M  V30 3007 N 283.795 -0.628877 1.44509 0
M  V30 3008 C 284.705 -1.7694 1.54044 0
M  V30 3009 C 285.721 -1.68705 0.425987 0
M  V30 3010 O 286.897 -1.89442 0.683656 0
M  V30 3011 C 283.962 -3.13332 1.48405 0
M  V30 3012 C 283.023 -3.33181 2.70719 0
M  V30 3013 C 282.256 -4.63067 2.6534 0
M  V30 3014 O 282.479 -5.44017 1.71469 0
M  V30 3015 O 281.413 -4.85167 3.56226 0
M  V30 3016 H 285.239 -1.71848 2.50403 0
M  V30 3017 H 282.824 -0.790378 1.26781 0
M  V30 3018 H 284.706 -3.94634 1.47791 0
M  V30 3019 H 283.381 -3.1896 0.551898 0
M  V30 3020 H 282.288 -2.51549 2.769 0
M  V30 3021 H 283.621 -3.32416 3.62988 0
M  V30 3022 N 285.273 -1.31445 -0.869486 0
M  V30 3023 C 286.689 -1.10113 -1.15531 0
M  V30 3024 C 286.889 0.128087 -2.01092 0
M  V30 3025 O 285.945 0.817276 -2.38908 0
M  V30 3026 C 287.258 -2.37291 -1.84698 0
M  V30 3027 C 288.806 -2.42906 -1.97397 0
M  V30 3028 C 289.281 -3.69967 -2.69979 0
M  V30 3029 N 290.772 -3.70864 -2.77514 0
M  V30 3030 C 291.507 -4.65875 -3.34287 0
M  V30 3031 N 291.003 -5.71242 -3.91988 0
M  V30 3032 N 292.796 -4.53394 -3.3225 0
M  V30 3033 H 284.947 -2.1028 -0.299347 0
M  V30 3034 H 287.21 -0.927683 -0.195214 0
M  V30 3035 H 286.916 -3.27078 -1.29278 0
M  V30 3036 H 286.79 -2.47125 -2.84972 0
M  V30 3037 H 289.177 -1.53588 -2.51982 0
M  V30 3038 H 289.258 -2.37036 -0.961643 0
M  V30 3039 H 288.902 -4.59652 -2.16062 0
M  V30 3040 H 288.832 -3.73103 -3.7162 0
M  V30 3041 H 291.323 -2.94697 -2.36563 0
M  V30 3042 H 291.636 -6.39817 -4.33421 0
M  V30 3043 H 289.981 -5.75015 -3.90362 0
M  V30 3044 H 293.172 -3.70252 -2.8641 0
M  V30 3045 H 293.345 -5.27617 -3.76197 0
M  V30 3046 N 286.751 1.08385 -1.14413 0
M  V30 3047 C 287.681 2.17321 -0.854044 0
M  V30 3048 C 288.662 1.69024 0.191049 0
M  V30 3049 O 289.847 1.94141 0.0476779 0
M  V30 3050 C 286.977 3.45719 -0.330983 0
M  V30 3051 C 285.931 4.07409 -1.31155 0
M  V30 3052 C 285.257 5.30762 -0.64778 0
M  V30 3053 C 286.557 4.48665 -2.67388 0
M  V30 3054 H 288.251 2.41845 -1.76498 0
M  V30 3055 H 285.797 1.16233 -0.850051 0
M  V30 3056 H 287.75 4.21241 -0.115645 0
M  V30 3057 H 286.474 3.2075 0.615381 0
M  V30 3058 H 285.133 3.33919 -1.51306 0
M  V30 3059 H 284.781 5.02078 0.304398 0
M  V30 3060 H 284.481 5.72992 -1.30207 0
M  V30 3061 H 286.005 6.08998 -0.441972 0
M  V30 3062 H 287.419 5.15364 -2.51143 0
M  V30 3063 H 285.816 5.01814 -3.29093 0
M  V30 3064 H 286.886 3.60543 -3.24248 0
M  V30 3065 N 288.23 0.939286 1.26551 0
M  V30 3066 C 289.193 0.451987 2.24699 0
M  V30 3067 C 290.193 -0.435869 1.5478 0
M  V30 3068 O 291.383 -0.235314 1.72603 0
M  V30 3069 C 288.515 -0.348801 3.39111 0
M  V30 3070 H 289.708 1.3193 2.69322 0
M  V30 3071 H 287.261 0.721072 1.38673 0
M  V30 3072 H 287.996 -1.23444 2.99887 0
M  V30 3073 H 287.781 0.287945 3.91041 0
M  V30 3074 H 289.271 -0.679726 4.12031 0
M  V30 3075 N 289.708 -1.40897 0.706093 0
M  V30 3076 C 290.671 -2.29131 0.0562841 0
M  V30 3077 C 291.671 -1.44901 -0.697166 0
M  V30 3078 O 292.861 -1.65926 -0.530484 0
M  V30 3079 C 289.993 -3.27957 -0.93043 0
M  V30 3080 H 291.186 -2.88091 0.833284 0
M  V30 3081 H 288.739 -1.4906 0.470192 0
M  V30 3082 H 289.474 -2.73997 -1.73482 0
M  V30 3083 H 289.259 -3.90124 -0.393166 0
M  V30 3084 H 290.749 -3.94049 -1.38256 0
M  V30 3085 N 291.186 -0.45159 -1.50991 0
M  V30 3086 C 292.414 0.108334 -2.06616 0
M  V30 3087 C 292.829 1.35224 -1.31757 0
M  V30 3088 O 292.186 1.78475 -0.381174 0
M  V30 3089 C 292.237 0.41619 -3.59096 0
M  V30 3090 O 291.958 -0.778361 -4.3113 0
M  V30 3091 C 293.459 1.02523 -4.31282 0
M  V30 3092 H 290.679 0.00159995 -0.670998 0
M  V30 3093 H 293.223 -0.634771 -1.94399 0
M  V30 3094 H 291.378 1.10921 -3.71181 0
M  V30 3095 H 291.792 -0.511181 -5.22003 0
M  V30 3096 H 293.266 1.19053 -5.39009 0
M  V30 3097 H 293.743 2.01013 -3.905 0
M  V30 3098 H 294.349 0.371173 -4.23677 0
M  V30 3099 N 292.664 1.56529 -0.183458 0
M  V30 3100 C 293.913 1.96419 0.458511 0
M  V30 3101 C 294.226 1.0727 1.63562 0
M  V30 3102 O 295.432 1.36893 2.34462 0
M  V30 3103 C 293.888 3.49298 0.867122 0
M  V30 3104 C 293.496 4.47092 -0.285057 0
M  V30 3105 C 295.24 3.97983 1.47683 0
M  V30 3106 C 293.147 5.91225 0.143862 0
M  V30 3107 H 292.077 0.733394 0.175071 0
M  V30 3108 H 294.728 1.81448 -0.273624 0
M  V30 3109 H 293.11 3.59731 1.65559 0
M  V30 3110 H 294.284 4.48383 -1.0625 0
M  V30 3111 H 292.599 4.08535 -0.805503 0
M  V30 3112 H 295.196 5.03134 1.80999 0
M  V30 3113 H 295.539 3.41618 2.37914 0
M  V30 3114 H 296.072 3.90617 0.752562 0
M  V30 3115 H 292.811 6.5149 -0.723974 0
M  V30 3116 H 292.331 5.93214 0.886413 0
M  V30 3117 H 294.01 6.44362 0.583628 0
M  V30 3118 N 294.142 -0.090211 1.57342 0
M  V30 3119 C 295.37 -0.806224 1.90546 0
M  V30 3120 C 295.785 -1.72041 0.777644 0
M  V30 3121 O 295.142 -1.80778 -0.250103 0
M  V30 3122 C 295.193 -1.61546 3.23396 0
M  V30 3123 O 294.914 -0.738043 4.31839 0
M  V30 3124 C 296.415 -2.4341 3.70495 0
M  V30 3125 H 293.635 -0.230256 0.630257 0
M  V30 3126 H 296.179 -0.0659843 2.04394 0
M  V30 3127 H 294.334 -2.30816 3.11131 0
M  V30 3128 H 294.748 -1.29901 5.08159 0
M  V30 3129 H 296.222 -2.95676 4.66133 0
M  V30 3130 H 296.699 -3.22098 2.98579 0
M  V30 3131 H 297.305 -1.79331 3.85643 0
M  V30 3132 N 295.62 -1.53406 -0.361157 0
M  V30 3133 C 297.031 -1.61442 -0.937728 0
M  V30 3134 C 297.382 -0.48461 -1.90121 0
M  V30 3135 O 296.507 0.388312 -2.12888 0
M  V30 3136 C 297.102 -2.92624 -1.70753 0
M  V30 3137 C 295.661 -3.02981 -2.23337 0
M  V30 3138 C 294.808 -2.5677 -1.04712 0
M  V30 3139 H 297.759 -1.58083 -0.139816 0
M  V30 3140 H 297.78 -2.80675 -2.56908 0
M  V30 3141 H 297.292 -3.74834 -1.00604 0
M  V30 3142 H 295.393 -2.25368 -2.96715 0
M  V30 3143 H 295.506 -4.0814 -2.50916 0
M  V30 3144 H 293.87 -2.11752 -1.41539 0
M  V30 3145 H 294.653 -3.41402 -0.360539 0
M  V30 3146 N 297.098 0.621204 -1.44841 0
M  V30 3147 C 298.03 1.74615 -1.48466 0
M  V30 3148 C 299.043 1.58377 -0.37691 0
M  V30 3149 O 300.232 1.66508 -0.643215 0
M  V30 3150 C 297.332 3.12459 -1.31236 0
M  V30 3151 C 296.505 3.55064 -2.55438 0
M  V30 3152 C 295.564 4.71821 -2.32963 0
M  V30 3153 O 294.59 4.79628 -3.06505 0
M  V30 3154 N 295.792 5.64186 -1.36654 0
M  V30 3155 H 298.557 1.71973 -2.45449 0
M  V30 3156 H 296.118 0.806077 -1.40407 0
M  V30 3157 H 298.11 3.88302 -1.14032 0
M  V30 3158 H 296.68 3.09686 -0.4258 0
M  V30 3159 H 295.9 2.69324 -2.87851 0
M  V30 3160 H 297.188 3.80284 -3.38026 0
M  V30 3161 H 296.586 5.6058 -0.759344 0
M  V30 3162 H 295.143 6.39618 -1.25425 0
M  V30 3163 N 298.576 1.31904 0.862503 0
M  V30 3164 C 299.526 1.16772 1.95827 0
M  V30 3165 C 300.51 0.0767098 1.60717 0
M  V30 3166 O 301.702 0.302407 1.74398 0
M  V30 3167 C 298.831 0.884858 3.317 0
M  V30 3168 C 297.917 2.0172 3.73055 0
M  V30 3169 N 298.308 3.265 3.86305 0
M  V30 3170 C 296.606 1.91861 4.02623 0
M  V30 3171 C 297.307 4.00616 4.2176 0
M  V30 3172 N 296.283 3.28847 4.32852 0
M  V30 3173 H 300.085 2.11382 2.04193 0
M  V30 3174 H 297.599 1.2357 1.05377 0
M  V30 3175 H 299.596 0.757419 4.09962 0
M  V30 3176 H 298.256 -0.0529448 3.24657 0
M  V30 3177 H 299.267 3.61529 3.70833 0
M  V30 3178 H 295.944 1.05593 4.03926 0
M  V30 3179 H 297.334 5.08182 4.39546 0
M  V30 3180 N 300.054 -1.07777 1.14986 0
M  V30 3181 C 300.984 -2.16865 0.865557 0
M  V30 3182 C 301.965 -1.69123 -0.182083 0
M  V30 3183 O 303.15 -1.94164 -0.0373815 0
M  V30 3184 C 300.28 -3.45539 0.349313 0
M  V30 3185 C 299.234 -4.06708 1.33313 0
M  V30 3186 C 298.56 -5.30411 0.675918 0
M  V30 3187 C 299.86 -4.47241 2.69764 0
M  V30 3188 H 301.554 -2.40905 1.77778 0
M  V30 3189 H 299.1 -1.15781 0.856203 0
M  V30 3190 H 301.053 -4.21174 0.137983 0
M  V30 3191 H 299.777 -3.21072 -0.598362 0
M  V30 3192 H 298.436 -3.33112 1.53075 0
M  V30 3193 H 298.084 -5.02232 -0.277767 0
M  V30 3194 H 297.784 -5.72293 1.33244 0
M  V30 3195 H 299.308 -6.08755 0.474262 0
M  V30 3196 H 300.722 -5.14025 2.53873 0
M  V30 3197 H 299.119 -5.00062 3.3175 0
M  V30 3198 H 300.189 -3.58818 3.26156 0
M  V30 3199 N 301.532 -0.945985 -1.26051 0
M  V30 3200 C 302.465 -0.403619 -2.24602 0
M  V30 3201 C 303.443 0.510241 -1.54387 0
M  V30 3202 O 304.627 0.446593 -1.83133 0
M  V30 3203 C 301.754 0.419564 -3.36091 0
M  V30 3204 C 300.8 -0.433454 -4.24292 0
M  V30 3205 S 301.633 -1.86037 -5.02146 0
M  V30 3206 C 302.789 -1.04538 -6.17108 0
M  V30 3207 H 303.022 -1.23883 -2.7026 0
M  V30 3208 H 300.555 -0.749438 -1.34992 0
M  V30 3209 H 302.513 0.888595 -4.00767 0
M  V30 3210 H 301.174 1.22951 -2.89036 0
M  V30 3211 H 300.367 0.197486 -5.03613 0
M  V30 3212 H 299.969 -0.837357 -3.64506 0
M  V30 3213 H 302.261 -0.289923 -6.76879 0
M  V30 3214 H 303.204 -1.81222 -6.84518 0
M  V30 3215 H 303.612 -0.579319 -5.61519 0
M  V30 3216 N 303.011 1.40521 -0.713556 0
M  V30 3217 C 304.258 2.00923 -0.25219 0
M  V30 3218 C 304.586 1.56571 1.15395 0
M  V30 3219 O 303.841 0.775874 1.79663 0
M  V30 3220 C 304.14 3.56317 -0.278 0
M  V30 3221 C 303.806 4.20246 -1.63415 0
M  V30 3222 C 302.468 4.37422 -2.00538 0
M  V30 3223 C 304.82 4.55923 -2.52554 0
M  V30 3224 C 302.148 4.87558 -3.2635 0
M  V30 3225 C 304.5 5.07458 -3.77716 0
M  V30 3226 C 303.164 5.22843 -4.14959 0
M  V30 3227 H 302.434 0.735231 -0.0922829 0
M  V30 3228 H 305.081 1.68161 -0.916188 0
M  V30 3229 H 303.386 3.88976 0.469567 0
M  V30 3230 H 305.083 4.00883 0.0967819 0
M  V30 3231 H 301.673 4.07263 -1.33546 0
M  V30 3232 H 305.857 4.42291 -2.25149 0
M  V30 3233 H 301.113 4.97654 -3.55176 0
M  V30 3234 H 305.287 5.34041 -4.4696 0
M  V30 3235 H 302.914 5.61454 -5.12516 0
M  V30 3236 N 304.489 0.459591 1.5075 0
M  V30 3237 C 305.437 -0.354678 2.2988 0
M  V30 3238 C 306.431 -1.00086 1.36672 0
M  V30 3239 O 307.637 -0.933277 1.53915 0
M  V30 3240 H 304.012 -0.13321 0.740107 0
M  V30 3241 H 305.983 0.333269 2.96533 0
M  V30 3242 C 304.732 -1.43073 3.169 0
M  V30 3243 H 304.055 -0.942882 3.88523 0
M  V30 3244 H 305.495 -1.97328 3.75284 0
M  V30 3245 C 303.954 -2.42633 2.33732 0
M  V30 3246 O 304.484 -3.47658 2.01238 0
M  V30 3247 N 302.69 -2.14066 1.9653 0
M  V30 3248 H 302.237 -1.28685 2.23155 0
M  V30 3249 H 302.195 -2.80917 1.41185 0
M  V30 3250 N 305.967 -1.56429 0.191757 0
M  V30 3251 C 307.383 -1.58754 -0.164137 0
M  V30 3252 C 307.583 -1.20782 -1.61288 0
M  V30 3253 O 306.639 -0.928999 -2.34789 0
M  V30 3254 C 307.952 -3.00396 0.135195 0
M  V30 3255 C 309.5 -3.1291 0.0750351 0
M  V30 3256 C 309.975 -4.56679 0.347632 0
M  V30 3257 N 311.466 -4.62252 0.296131 0
M  V30 3258 C 312.201 -5.71379 0.480948 0
M  V30 3259 N 311.697 -6.88986 0.725933 0
M  V30 3260 N 313.49 -5.60563 0.415435 0
M  V30 3261 H 305.641 -1.79393 1.13718 0
M  V30 3262 H 307.904 -0.832414 0.453643 0
M  V30 3263 H 307.61 -3.32726 1.13958 0
M  V30 3264 H 307.484 -3.72963 -0.563773 0
M  V30 3265 H 309.871 -2.80394 -0.919948 0
M  V30 3266 H 309.952 -2.42736 0.807029 0
M  V30 3267 H 309.596 -4.89907 1.33992 0
M  V30 3268 H 309.526 -5.25039 -0.405212 0
M  V30 3269 H 312.017 -3.7773 0.113259 0
M  V30 3270 H 312.33 -7.68046 0.855857 0
M  V30 3271 H 310.675 -6.90801 0.762788 0
M  V30 3272 H 313.866 -4.67561 0.224486 0
M  V30 3273 H 314.039 -6.45551 0.562889 0
M  V30 3274 N 307.445 0.0818655 -1.57387 0
M  V30 3275 C 308.393 1.11712 -2.04018 0
M  V30 3276 C 309.387 1.40683 -0.94364 0
M  V30 3277 O 310.593 1.40209 -1.12878 0
M  V30 3278 H 306.968 0.377542 -0.650358 0
M  V30 3279 H 308.939 0.697614 -2.90131 0
M  V30 3280 C 307.688 2.42537 -2.49141 0
M  V30 3281 H 307.011 2.21092 -3.33104 0
M  V30 3282 H 308.451 3.13446 -2.85531 0
M  V30 3283 C 306.91 3.0778 -1.37014 0
M  V30 3284 O 307.44 3.95436 -0.706621 0
M  V30 3285 N 305.646 2.68242 -1.11779 0
M  V30 3286 H 305.193 1.97052 -1.65917 0
M  V30 3287 H 305.151 3.1222 -0.369594 0
M  V30 3288 N 308.923 1.53595 0.353017 0
M  V30 3289 C 309.873 1.77299 1.43349 0
M  V30 3290 C 310.857 0.627884 1.48143 0
M  V30 3291 O 312.049 0.88697 1.53173 0
M  V30 3292 C 309.178 1.97757 2.80619 0
M  V30 3293 C 308.264 3.18305 2.80254 0
M  V30 3294 N 308.655 4.39967 2.49526 0
M  V30 3295 C 306.953 3.19283 3.11407 0
M  V30 3296 C 307.654 5.21772 2.57156 0
M  V30 3297 N 306.63 4.58269 2.92388 0
M  V30 3298 H 310.432 2.68963 1.18474 0
M  V30 3299 H 307.946 1.52391 0.561306 0
M  V30 3300 H 309.943 2.1287 3.58458 0
M  V30 3301 H 308.603 1.07329 3.06448 0
M  V30 3302 H 309.614 4.67482 2.22893 0
M  V30 3303 H 306.291 2.3879 3.4247 0
M  V30 3304 H 307.681 6.2885 2.36638 0
M  V30 3305 N 310.401 -0.613514 1.45168 0
M  V30 3306 C 311.334 -1.73809 1.47871 0
M  V30 3307 C 312.312 -1.59097 0.33568 0
M  V30 3308 O 313.496 -1.8074 0.535299 0
M  V30 3309 C 310.623 -3.11574 1.32813 0
M  V30 3310 C 309.669 -3.4489 2.50905 0
M  V30 3311 S 310.502 -3.40393 4.13392 0
M  V30 3312 C 311.658 -4.80749 4.00789 0
M  V30 3313 H 311.891 -1.71252 2.43023 0
M  V30 3314 H 309.424 -0.789658 1.32679 0
M  V30 3315 H 311.382 -3.91065 1.24812 0
M  V30 3316 H 310.043 -3.11652 0.391418 0
M  V30 3317 H 309.236 -4.45183 2.36279 0
M  V30 3318 H 308.838 -2.72901 2.55736 0
M  V30 3319 H 311.13 -5.7041 3.65567 0
M  V30 3320 H 312.073 -5.00431 5.00974 0
M  V30 3321 H 312.481 -4.56151 3.32545 0
M  V30 3322 N 311.879 -1.3236 -0.855495 0
M  V30 3323 C 312.809 -1.23833 -1.97958 0
M  V30 3324 C 313.79 -0.122361 -1.69659 0
M  V30 3325 O 314.975 -0.30939 -1.9172 0
M  V30 3326 C 312.105 -0.959772 -3.33775 0
M  V30 3327 C 311.059 -2.03689 -3.76424 0
M  V30 3328 C 310.385 -1.61075 -5.09862 0
M  V30 3329 C 311.685 -3.4518 -3.9198 0
M  V30 3330 H 313.379 -2.1788 -2.0535 0
M  V30 3331 H 310.925 -1.04891 -0.986605 0
M  V30 3332 H 312.878 -0.886678 -4.11966 0
M  V30 3333 H 311.602 0.0163404 -3.26596 0
M  V30 3334 H 310.261 -2.10012 -3.00484 0
M  V30 3335 H 309.909 -0.622107 -4.99138 0
M  V30 3336 H 309.609 -2.33143 -5.39368 0
M  V30 3337 H 311.133 -1.55201 -5.90546 0
M  V30 3338 H 312.547 -3.4145 -4.60526 0
M  V30 3339 H 310.944 -4.1559 -4.32903 0
M  V30 3340 H 312.014 -3.84903 -2.94919 0
M  V30 3341 N 313.357 1.07166 -1.15556 0
M  V30 3342 C 314.603 1.80065 -0.932984 0
M  V30 3343 C 314.936 1.86586 0.53845 0
M  V30 3344 O 314.211 1.35098 1.39924 0
M  V30 3345 C 314.494 3.25022 -1.55025 0
M  V30 3346 C 314.347 3.26634 -3.09242 0
M  V30 3347 C 315.666 4.22341 -1.2376 0
M  V30 3348 H 312.785 0.653697 -0.340366 0
M  V30 3349 H 315.427 1.25389 -1.4275 0
M  V30 3350 H 313.577 3.71712 -1.12972 0
M  V30 3351 H 315.249 2.88173 -3.60214 0
M  V30 3352 H 313.492 2.65539 -3.43033 0
M  V30 3353 H 314.163 4.28854 -3.47546 0
M  V30 3354 H 316.639 3.8405 -1.60139 0
M  V30 3355 H 315.515 5.22053 -1.69564 0
M  V30 3356 H 315.776 4.41828 -0.154938 0
M  V30 3357 N 314.835 0.952656 1.25548 0
M  V30 3358 C 316.083 0.605176 1.92826 0
M  V30 3359 C 316.404 -0.860261 1.74999 0
M  V30 3360 O 315.674 -1.6125 1.11244 0
M  V30 3361 H 314.254 0.220832 0.713612 0
M  V30 3362 H 316.916 1.21047 1.52754 0
M  V30 3363 H 316.012 0.832798 3.00784 0
M  V30 3364 N 316.313 -1.40141 0.720998 0
M  V30 3365 C 317.561 -2.0039 0.262323 0
M  V30 3366 C 317.882 -1.57469 -1.15015 0
M  V30 3367 O 317.152 -0.816582 -1.78069 0
M  V30 3368 H 315.732 -0.741063 0.093996 0
M  V30 3369 H 318.394 -1.71398 0.927835 0
M  V30 3370 H 317.49 -3.10658 0.299671 0
M  V30 3371 N 317.792 -0.46758 -1.50504 0
M  V30 3372 C 319.038 0.0887532 -2.02606 0
M  V30 3373 C 319.371 1.39686 -1.34913 0
M  V30 3374 O 318.646 1.88644 -0.473694 0
M  V30 3375 C 318.929 0.276206 -3.59039 0
M  V30 3376 C 318.782 -1.05267 -4.37309 0
M  V30 3377 C 320.101 1.03235 -4.27821 0
M  V30 3378 H 317.22 0.0307814 -0.736357 0
M  V30 3379 H 319.862 -0.612485 -1.79857 0
M  V30 3380 H 318.012 0.8735 -3.78553 0
M  V30 3381 H 319.684 -1.68628 -4.29374 0
M  V30 3382 H 317.927 -1.65015 -4.01189 0
M  V30 3383 H 318.598 -0.875197 -5.45018 0
M  V30 3384 H 321.074 0.526111 -4.12761 0
M  V30 3385 H 319.95 1.1323 -5.37094 0
M  V30 3386 H 320.211 2.06806 -3.90748 0
M  V30 3387 N 319.27 1.56325 -0.20005 0
M  V30 3388 C 320.686 1.58839 0.155716 0
M  V30 3389 C 320.886 1.21636 1.60645 0
M  V30 3390 O 319.942 0.941437 2.34293 0
M  V30 3391 C 321.255 3.0032 -0.151124 0
M  V30 3392 C 322.803 3.12866 -0.0916284 0
M  V30 3393 C 323.278 4.56488 -0.371845 0
M  V30 3394 N 324.769 4.62089 -0.320641 0
M  V30 3395 C 325.504 5.71116 -0.511243 0
M  V30 3396 N 325 6.88592 -0.762461 0
M  V30 3397 N 326.793 5.60335 -0.445157 0
M  V30 3398 H 318.944 1.78788 -1.14668 0
M  V30 3399 H 321.207 0.829996 -0.458051 0
M  V30 3400 H 320.913 3.32117 -1.15721 0
M  V30 3401 H 320.787 3.73257 0.543986 0
M  V30 3402 H 323.174 2.80878 0.905065 0
M  V30 3403 H 323.255 2.42304 -0.81989 0
M  V30 3404 H 322.899 4.89189 -1.36588 0
M  V30 3405 H 322.829 5.25246 0.377362 0
M  V30 3406 H 325.32 3.77665 -0.13329 0
M  V30 3407 H 325.633 7.67581 -0.896576 0
M  V30 3408 H 323.978 6.90387 -0.799412 0
M  V30 3409 H 327.169 4.67436 -0.249278 0
M  V30 3410 H 327.342 6.45243 -0.597116 0
M  V30 3411 N 320.748 -0.0735177 1.57428 0
M  V30 3412 C 322.159 -0.625551 1.75908 0
M  V30 3413 C 322.51 -1.78 0.825261 0
M  V30 3414 O 321.635 -2.16398 0.00893964 0
M  V30 3415 C 322.23 -1.14155 3.18989 0
M  V30 3416 C 320.789 -1.63946 3.38819 0
M  V30 3417 C 319.936 -0.558151 2.71625 0
M  V30 3418 H 322.887 0.152647 1.57964 0
M  V30 3419 H 322.908 -2.0104 3.23053 0
M  V30 3420 H 322.42 -0.301116 3.8693 0
M  V30 3421 H 320.521 -2.50321 2.7599 0
M  V30 3422 H 320.634 -1.71759 4.47253 0
M  V30 3423 H 318.998 -1.00278 2.34129 0
M  V30 3424 H 319.781 0.272071 3.4222 0
M  V30 3425 N 322.226 -1.5378 -0.344866 0
M  V30 3426 C 323.176 -1.78057 -1.42407 0
M  V30 3427 C 324.16 -0.635732 -1.47808 0
M  V30 3428 O 325.352 -0.89508 -1.527 0
M  V30 3429 C 322.481 -1.99242 -2.79566 0
M  V30 3430 C 321.567 -3.19787 -2.78562 0
M  V30 3431 N 321.958 -4.41284 -2.47189 0
M  V30 3432 C 320.256 -3.2093 -3.0971 0
M  V30 3433 C 320.957 -5.23128 -2.54385 0
M  V30 3434 N 319.933 -4.59813 -2.89953 0
M  V30 3435 H 323.735 -2.69588 -1.17046 0
M  V30 3436 H 321.249 -1.52687 -0.553217 0
M  V30 3437 H 323.246 -2.14768 -3.57324 0
M  V30 3438 H 321.906 -1.08953 -3.05875 0
M  V30 3439 H 322.917 -4.68657 -2.20411 0
M  V30 3440 H 319.594 -2.40603 -3.41199 0
M  V30 3441 H 320.984 -6.30096 -2.333 0
M  V30 3442 N 323.704 0.605807 -1.45491 0
M  V30 3443 C 324.634 1.72709 -1.57143 0
M  V30 3444 C 325.615 1.6476 -0.422884 0
M  V30 3445 O 326.8 1.83132 -0.646247 0
M  V30 3446 C 323.93 3.11316 -1.53948 0
M  V30 3447 C 322.884 3.34077 -2.67537 0
M  V30 3448 C 322.21 4.72975 -2.49397 0
M  V30 3449 C 323.51 3.24158 -4.09535 0
M  V30 3450 H 325.204 1.63214 -2.51001 0
M  V30 3451 H 322.75 0.78379 -1.208 0
M  V30 3452 H 324.703 3.89557 -1.60696 0
M  V30 3453 H 323.427 3.21655 -0.566205 0
M  V30 3454 H 322.086 2.58227 -2.6022 0
M  V30 3455 H 321.734 4.8005 -1.50205 0
M  V30 3456 H 321.434 4.8916 -3.25571 0
M  V30 3457 H 322.958 5.53414 -2.58002 0
M  V30 3458 H 324.372 3.92271 -4.18086 0
M  V30 3459 H 322.769 3.51872 -4.86113 0
M  V30 3460 H 323.839 2.2157 -4.31317 0
M  V30 3461 N 325.182 1.32811 0.848464 0
M  V30 3462 C 326.412 1.26556 1.63301 0
M  V30 3463 C 326.82 -0.1676 1.88456 0
M  V30 3464 O 326.163 -1.11713 1.45828 0
M  V30 3465 C 326.225 1.96202 3.01239 0
M  V30 3466 C 325.889 3.45528 2.99098 0
M  V30 3467 C 326.886 4.40903 2.75501 0
M  V30 3468 C 324.571 3.87558 3.19537 0
M  V30 3469 C 326.565 5.76282 2.72356 0
M  V30 3470 C 324.252 5.23044 3.16019 0
M  V30 3471 C 325.25 6.17217 2.92458 0
M  V30 3472 O 324.938 7.50223 2.88825 0
M  V30 3473 H 324.67 0.43771 0.515156 0
M  V30 3474 H 327.224 1.7559 1.0657 0
M  V30 3475 H 325.454 1.41746 3.59785 0
M  V30 3476 H 327.143 1.83573 3.62016 0
M  V30 3477 H 327.909 4.09756 2.5947 0
M  V30 3478 H 323.788 3.14674 3.369 0
M  V30 3479 H 327.332 6.4976 2.53886 0
M  V30 3480 H 323.229 5.53818 3.31596 0
M  V30 3481 H 323.997 7.59657 3.04735 0
M  V30 3482 N 326.66 -1.06551 1.16123 0
M  V30 3483 C 327.9 -1.80889 0.951766 0
M  V30 3484 C 328.264 -1.85062 -0.511465 0
M  V30 3485 O 329.465 -2.55353 -0.83954 0
M  V30 3486 C 327.736 -3.21609 1.55893 0
M  V30 3487 S 329.295 -4.12593 1.49373 0
M  V30 3488 H 326.113 -0.623156 0.342341 0
M  V30 3489 H 328.715 -1.27943 1.47821 0
M  V30 3490 H 327.419 -3.16165 2.61664 0
M  V30 3491 H 326.95 -3.79631 1.0317 0
M  V30 3492 H 328.965 -4.93753 0.492196 0
M  V30 3493 N 328.138 -0.959301 -1.25041 0
M  V30 3494 C 329.068 -0.501388 -2.28053 0
M  V30 3495 C 330.049 0.454673 -1.63911 0
M  V30 3496 O 331.234 0.352618 -1.90972 0
M  V30 3497 C 328.364 0.217224 -3.4662 0
M  V30 3498 C 327.318 -0.654034 -4.22973 0
M  V30 3499 C 326.644 0.195589 -5.34342 0
M  V30 3500 C 327.944 -1.93447 -4.85155 0
M  V30 3501 H 329.638 -1.36238 -2.66608 0
M  V30 3502 H 327.184 -0.656534 -1.28163 0
M  V30 3503 H 329.137 0.548732 -4.17812 0
M  V30 3504 H 327.861 1.1125 -3.07068 0
M  V30 3505 H 326.52 -0.968693 -3.5357 0
M  V30 3506 H 326.168 1.09076 -4.91031 0
M  V30 3507 H 325.868 -0.384091 -5.86343 0
M  V30 3508 H 327.392 0.521958 -6.08365 0
M  V30 3509 H 328.806 -1.66908 -5.48466 0
M  V30 3510 H 327.203 -2.46018 -5.47353 0
M  V30 3511 H 328.273 -2.63466 -4.07079 0
M  V30 3512 N 329.616 1.39756 -0.72842 0
M  V30 3513 C 331.027 1.83498 -0.344289 0
M  V30 3514 C 331.378 1.60868 1.12321 0
M  V30 3515 O 330.503 1.09634 1.86573 0
M  V30 3516 C 331.098 3.33114 -0.618112 0
M  V30 3517 C 329.657 3.753 -0.287549 0
M  V30 3518 C 328.804 2.62831 -0.884048 0
M  V30 3519 H 331.755 1.28842 -0.926578 0
M  V30 3520 H 331.776 3.80334 0.112349 0
M  V30 3521 H 331.288 3.49553 -1.68625 0
M  V30 3522 H 329.389 3.64451 0.775012 0
M  V30 3523 H 329.502 4.72945 -0.765512 0
M  V30 3524 H 327.866 2.52792 -0.311149 0
M  V30 3525 H 328.649 2.82078 -1.95671 0
M  V30 3526 N 331.094 0.475555 1.50254 0
M  V30 3527 C 332.343 -0.0795996 2.01543 0
M  V30 3528 C 332.656 -1.4038 1.36209 0
M  V30 3529 O 333.862 -2.04415 1.7868 0
M  V30 3530 C 332.318 -0.192363 3.59386 0
M  V30 3531 C 331.926 1.12367 4.33679 0
M  V30 3532 C 333.67 -0.699238 4.18701 0
M  V30 3533 C 331.577 0.974453 5.83317 0
M  V30 3534 H 330.507 -0.0335228 0.753254 0
M  V30 3535 H 333.158 0.611128 1.73025 0
M  V30 3536 H 331.54 -0.946974 3.84511 0
M  V30 3537 H 332.714 1.88958 4.20276 0
M  V30 3538 H 331.029 1.562 3.85993 0
M  V30 3539 H 333.626 -0.827978 5.28251 0
M  V30 3540 H 333.969 -1.69171 3.80377 0
M  V30 3541 H 334.502 -0.00188807 3.978 0
M  V30 3542 H 331.241 1.94042 6.26121 0
M  V30 3543 H 330.761 0.248998 5.99283 0
M  V30 3544 H 332.44 0.642867 6.43798 0
M  V30 3545 N 332.573 -1.56217 0.208337 0
M  V30 3546 C 333.503 -2.22694 -0.702116 0
M  V30 3547 C 334.484 -1.19432 -1.2112 0
M  V30 3548 O 335.669 -1.47978 -1.25762 0
M  V30 3549 C 332.799 -2.8966 -1.9161 0
M  V30 3550 C 331.753 -3.9928 -1.5414 0
M  V30 3551 C 331.079 -4.53476 -2.83308 0
M  V30 3552 C 332.379 -5.17012 -0.741339 0
M  V30 3553 H 334.073 -2.99034 -0.147898 0
M  V30 3554 H 331.619 -1.43831 -0.0696951 0
M  V30 3555 H 333.572 -3.34852 -2.55836 0
M  V30 3556 H 332.296 -2.10746 -2.49507 0
M  V30 3557 H 330.955 -3.54799 -0.922668 0
M  V30 3558 H 330.603 -3.71308 -3.39322 0
M  V30 3559 H 330.303 -5.27451 -2.58976 0
M  V30 3560 H 331.827 -5.01378 -3.485 0
M  V30 3561 H 333.241 -5.58667 -1.28699 0
M  V30 3562 H 331.638 -5.97137 -0.595627 0
M  V30 3563 H 332.708 -4.8423 0.254851 0
M  V30 3564 N 334.051 0.0651679 -1.57465 0
M  V30 3565 C 334.998 1.07675 -2.04144 0
M  V30 3566 C 335.968 1.38071 -0.923335 0
M  V30 3567 O 337.153 1.49026 -1.19146 0
M  V30 3568 C 334.293 2.38337 -2.49579 0
M  V30 3569 C 333.406 2.14413 -3.75035 0
M  V30 3570 C 332.541 3.38686 -4.09225 0
M  V30 3571 C 331.58 3.10156 -5.27702 0
M  V30 3572 N 330.717 4.26778 -5.57499 0
M  V30 3573 H 335.557 0.671716 -2.90331 0
M  V30 3574 H 333.094 0.3201 -1.43575 0
M  V30 3575 H 335.052 3.14632 -2.73975 0
M  V30 3576 H 333.682 2.7663 -1.6636 0
M  V30 3577 H 332.734 1.2878 -3.57939 0
M  V30 3578 H 334.046 1.89344 -4.61466 0
M  V30 3579 H 333.2 4.23373 -4.34558 0
M  V30 3580 H 331.939 3.66837 -3.21374 0
M  V30 3581 H 330.944 2.23866 -5.02159 0
M  V30 3582 H 332.169 2.8332 -6.17176 0
M  V30 3583 H 330.115 4.54948 -4.72608 0
M  V30 3584 H 330.032 4.05005 -6.38362 0
M  V30 3585 H 331.3 5.12443 -5.87386 0
M  V30 3586 N 335.529 1.53961 0.336706 0
M  V30 3587 C 336.945 1.44378 0.680241 0
M  V30 3588 C 337.145 0.606034 1.9217 0
M  V30 3589 O 336.201 0.099688 2.52303 0
M  V30 3590 C 337.514 2.87945 0.8665 0
M  V30 3591 C 339.062 2.97763 0.964682 0
M  V30 3592 C 339.537 4.42453 1.18321 0
M  V30 3593 N 341.028 4.46008 1.25025 0
M  V30 3594 C 341.763 5.55102 1.43697 0
M  V30 3595 N 341.259 6.7419 1.59498 0
M  V30 3596 N 343.052 5.42727 1.463 0
M  V30 3597 H 335.203 2.06918 -0.479455 0
M  V30 3598 H 337.466 0.935634 -0.152619 0
M  V30 3599 H 337.172 3.51691 0.0256937 0
M  V30 3600 H 337.046 3.33293 1.76623 0
M  V30 3601 H 339.433 2.34153 1.796 0
M  V30 3602 H 339.514 2.55766 0.041708 0
M  V30 3603 H 339.158 5.06645 0.356788 0
M  V30 3604 H 339.088 4.82048 2.11985 0
M  V30 3605 H 341.579 3.60196 1.14312 0
M  V30 3606 H 341.892 7.53095 1.734 0
M  V30 3607 H 340.237 6.77123 1.56621 0
M  V30 3608 H 343.428 4.48647 1.33543 0
M  V30 3609 H 343.601 6.27806 1.6051 0
M  V30 3610 N 337.007 -0.598083 1.45811 0
M  V30 3611 C 337.955 -1.72932 1.55555 0
M  V30 3612 C 338.949 -1.63984 0.424921 0
M  V30 3613 O 340.155 -1.69663 0.601205 0
M  V30 3614 H 336.53 -0.571489 0.488779 0
M  V30 3615 H 338.501 -1.61842 2.50699 0
M  V30 3616 C 337.25 -3.11318 1.54843 0
M  V30 3617 H 336.573 -3.18867 2.41172 0
M  V30 3618 H 338.013 -3.90274 1.65717 0
M  V30 3619 C 336.472 -3.3578 0.274427 0
M  V30 3620 O 337.002 -3.9654 -0.641778 0
M  V30 3621 N 335.208 -2.90119 0.167139 0
M  V30 3622 H 334.755 -2.40855 0.913596 0
M  V30 3623 H 334.713 -3.0686 -0.684435 0
M  V30 3624 N 338.485 -1.33259 -0.841409 0
M  V30 3625 C 339.734 -1.23921 -1.59143 0
M  V30 3626 C 340.047 0.1941 -1.94635 0
M  V30 3627 O 341.253 0.409474 -2.68394 0
M  V30 3628 C 339.709 -2.17119 -2.87032 0
M  V30 3629 C 339.317 -3.65606 -2.58914 0
M  V30 3630 C 341.061 -2.16648 -3.65053 0
M  V30 3631 C 338.968 -4.50726 -3.82884 0
M  V30 3632 H 337.898 -0.460264 -0.597221 0
M  V30 3633 H 340.549 -1.58307 -0.927959 0
M  V30 3634 H 338.931 -1.75663 -3.54906 0
M  V30 3635 H 340.105 -4.15487 -1.99267 0
M  V30 3636 H 338.42 -3.68341 -1.942 0
M  V30 3637 H 341.017 -2.77474 -4.57069 0
M  V30 3638 H 341.36 -1.16088 -3.99787 0
M  V30 3639 H 341.893 -2.56453 -3.041 0
M  V30 3640 H 338.632 -5.52151 -3.53283 0
M  V30 3641 H 338.152 -4.0559 -4.41879 0
M  V30 3642 H 339.831 -4.64401 -4.50489 0
M  V30 3643 N 339.963 1.05934 -1.16686 0
M  V30 3644 C 340.913 2.11764 -0.844978 0
M  V30 3645 C 341.897 1.59922 0.177178 0
M  V30 3646 O 343.089 1.76983 -0.0241768 0
M  V30 3647 C 340.218 3.41493 -0.351812 0
M  V30 3648 C 339.304 4.00152 -1.40496 0
M  V30 3649 N 339.695 4.32874 -2.61636 0
M  V30 3650 C 337.993 4.278 -1.26106 0
M  V30 3651 C 338.694 4.79552 -3.29249 0
M  V30 3652 N 337.67 4.79211 -2.56628 0
M  V30 3653 H 341.472 2.34916 -1.76612 0
M  V30 3654 H 338.986 1.23511 -1.05446 0
M  V30 3655 H 340.983 4.16773 -0.102796 0
M  V30 3656 H 339.643 3.19778 0.56322 0
M  V30 3657 H 340.654 4.23109 -2.98663 0
M  V30 3658 H 337.331 4.15511 -0.407081 0
M  V30 3659 H 338.721 5.14045 -4.32675 0
M  V30 3660 N 341.441 0.965919 1.2453 0
M  V30 3661 C 342.373 0.452465 2.2469 0
M  V30 3662 C 343.386 -0.437821 1.56802 0
M  V30 3663 O 344.575 -0.244283 1.76821 0
M  V30 3664 C 341.675 -0.366258 3.36915 0
M  V30 3665 C 340.848 0.513701 4.34373 0
M  V30 3666 C 339.907 -0.248716 5.25612 0
M  V30 3667 O 338.933 0.356745 5.68081 0
M  V30 3668 N 340.135 -1.53877 5.59734 0
M  V30 3669 H 342.9 1.31361 2.69378 0
M  V30 3670 H 340.461 0.837541 1.38553 0
M  V30 3671 H 342.453 -0.884297 3.94921 0
M  V30 3672 H 341.023 -1.12832 2.91526 0
M  V30 3673 H 340.243 1.21273 3.75082 0
M  V30 3674 H 341.531 1.11391 4.96457 0
M  V30 3675 H 340.929 -2.05243 5.27154 0
M  V30 3676 H 339.486 -2.00254 6.20275 0
M  V30 3677 N 342.919 -1.39368 0.735821 0
M  V30 3678 C 343.851 -2.2913 0.0567723 0
M  V30 3679 C 344.864 -1.46859 -0.702589 0
M  V30 3680 O 346.053 -1.69925 -0.546616 0
M  V30 3681 C 343.153 -3.25492 -0.943823 0
M  V30 3682 C 342.326 -4.36709 -0.24581 0
M  V30 3683 C 341.385 -5.13376 -1.15463 0
M  V30 3684 O 340.411 -5.65683 -0.631803 0
M  V30 3685 N 341.613 -5.24656 -2.48427 0
M  V30 3686 H 344.378 -2.88047 0.827582 0
M  V30 3687 H 341.939 -1.50957 0.585112 0
M  V30 3688 H 343.931 -3.73657 -1.55443 0
M  V30 3689 H 342.501 -2.676 -1.61583 0
M  V30 3690 H 341.721 -3.9041 0.545286 0
M  V30 3691 H 343.009 -5.08244 0.237891 0
M  V30 3692 H 342.407 -4.83679 -2.93379 0
M  V30 3693 H 340.964 -5.76258 -3.04582 0
M  V30 3694 N 344.397 -0.483516 -1.5 0
M  V30 3695 C 345.36 0.292965 -2.2732 0
M  V30 3696 C 346.36 0.909499 -1.32608 0
M  V30 3697 O 347.55 0.776745 -1.55924 0
M  V30 3698 C 344.682 1.41854 -3.09984 0
M  V30 3699 H 345.875 -0.385289 -2.97415 0
M  V30 3700 H 343.428 -0.237942 -1.54478 0
M  V30 3701 H 344.163 2.13148 -2.44414 0
M  V30 3702 H 343.948 0.982114 -3.79601 0
M  V30 3703 H 345.438 1.96597 -3.68429 0
M  V30 3704 N 345.875 1.56104 -0.216619 0
M  V30 3705 C 346.805 2.23063 0.690296 0
M  V30 3706 C 347.786 1.20072 1.20485 0
M  V30 3707 O 348.971 1.48643 1.24976 0
M  V30 3708 C 346.101 2.90672 1.90072 0
M  V30 3709 C 345.055 4.00092 1.5202 0
M  V30 3710 C 344.381 4.54972 2.80899 0
M  V30 3711 C 345.681 5.17398 0.71391 0
M  V30 3712 H 347.375 2.99109 0.132038 0
M  V30 3713 H 344.921 1.43866 0.0620664 0
M  V30 3714 H 346.874 3.36204 2.54057 0
M  V30 3715 H 345.598 2.12066 2.48386 0
M  V30 3716 H 344.257 3.55283 0.903839 0
M  V30 3717 H 343.905 3.73102 3.37348 0
M  V30 3718 H 343.605 5.28817 2.56176 0
M  V30 3719 H 345.129 5.0322 3.45836 0
M  V30 3720 H 346.543 5.59342 1.25735 0
M  V30 3721 H 344.94 5.97444 0.563951 0
M  V30 3722 H 346.01 4.84088 -0.280527 0
M  V30 3723 N 347.353 -0.0568162 1.57498 0
M  V30 3724 C 348.769 -0.411933 1.54192 0
M  V30 3725 C 348.969 -1.78287 0.938942 0
M  V30 3726 O 348.025 -2.46483 0.547919 0
M  V30 3727 C 349.338 -0.339244 2.9878 0
M  V30 3728 C 350.886 -0.418348 3.10192 0
M  V30 3729 C 351.361 -0.375407 4.56459 0
M  V30 3730 N 352.852 -0.435038 4.61153 0
M  V30 3731 C 353.587 -0.424265 5.71828 0
M  V30 3732 N 353.083 -0.367418 6.91825 0
M  V30 3733 N 354.876 -0.471938 5.60115 0
M  V30 3734 H 347.027 0.840684 1.95055 0
M  V30 3735 H 349.29 0.316987 0.893433 0
M  V30 3736 H 348.996 0.601742 3.46514 0
M  V30 3737 H 348.87 -1.14371 3.59443 0
M  V30 3738 H 351.257 -1.34976 2.62422 0
M  V30 3739 H 351.338 0.414962 2.52412 0
M  V30 3740 H 350.982 0.552219 5.04889 0
M  V30 3741 H 350.912 -1.22645 5.12119 0
M  V30 3742 H 353.403 -0.482612 3.74806 0
M  V30 3743 H 353.716 -0.363535 7.71944 0
M  V30 3744 H 352.061 -0.333879 6.94198 0
M  V30 3745 H 355.252 -0.514145 4.65268 0
M  V30 3746 H 355.425 -0.460073 6.46365 0
M  V30 3747 N 348.832 -1.54138 -0.328536 0
M  V30 3748 C 349.742 -1.86192 -1.42723 0
M  V30 3749 C 350.758 -0.753382 -1.56844 0
M  V30 3750 O 351.934 -1.04718 -1.72035 0
M  V30 3751 C 348.999 -2.07824 -2.77507 0
M  V30 3752 C 348.06 -3.31641 -2.72603 0
M  V30 3753 C 347.293 -3.52232 -4.00959 0
M  V30 3754 O 347.516 -2.7636 -4.9898 0
M  V30 3755 O 346.45 -4.45699 -4.0452 0
M  V30 3756 H 350.276 -2.79608 -1.18547 0
M  V30 3757 H 347.861 -1.3998 -0.522104 0
M  V30 3758 H 349.743 -2.23411 -3.57303 0
M  V30 3759 H 348.418 -1.17596 -3.01584 0
M  V30 3760 H 347.325 -3.21444 -1.91376 0
M  V30 3761 H 348.658 -4.2191 -2.53481 0
M  V30 3762 N 350.31 0.590341 -1.46126 0
M  V30 3763 C 351.24 1.71032 -1.58966 0
M  V30 3764 C 352.221 1.64302 -0.440335 0
M  V30 3765 O 353.406 1.82436 -0.665634 0
M  V30 3766 C 350.536 3.09665 -1.57241 0
M  V30 3767 C 349.49 3.31221 -2.71066 0
M  V30 3768 C 348.816 4.70303 -2.54399 0
M  V30 3769 C 350.116 3.19796 -4.1295 0
M  V30 3770 H 351.81 1.60543 -2.52718 0
M  V30 3771 H 349.356 0.770933 -1.21625 0
M  V30 3772 H 351.309 3.87831 -1.64819 0
M  V30 3773 H 350.033 3.21036 -0.600289 0
M  V30 3774 H 348.692 2.55452 -2.62944 0
M  V30 3775 H 348.34 4.78429 -1.55288 0
M  V30 3776 H 348.04 4.85679 -3.30741 0
M  V30 3777 H 349.564 5.50647 -2.63857 0
M  V30 3778 H 350.978 3.87815 -4.22223 0
M  V30 3779 H 349.375 3.46696 -4.89818 0
M  V30 3780 H 350.445 2.16983 -4.33643 0
M  V30 3781 N 351.788 1.33704 0.83433 0
M  V30 3782 C 353.034 1.25603 1.59222 0
M  V30 3783 C 353.367 -0.176659 1.93395 0
M  V30 3784 O 352.642 -1.11915 1.59076 0
M  V30 3785 C 352.925 2.13576 2.89926 0
M  V30 3786 C 352.778 3.65326 2.62406 0
M  V30 3787 C 354.097 2.01238 3.91397 0
M  V30 3788 H 351.216 0.457613 0.577719 0
M  V30 3789 H 353.858 1.63848 0.961972 0
M  V30 3790 H 352.008 1.8109 3.43713 0
M  V30 3791 H 353.68 4.08124 2.15017 0
M  V30 3792 H 351.923 3.8698 1.96033 0
M  V30 3793 H 352.594 4.22232 3.55562 0
M  V30 3794 H 355.07 2.29738 3.46929 0
M  V30 3795 H 353.946 2.65036 4.80673 0
M  V30 3796 H 354.207 0.985951 4.30966 0
M  V30 3797 N 353.266 -1.05314 1.17247 0
M  V30 3798 C 354.229 -2.112 0.890357 0
M  V30 3799 C 355.229 -1.60359 -0.118943 0
M  V30 3800 O 356.419 -1.73833 0.113086 0
M  V30 3801 C 353.551 -3.39266 0.333422 0
M  V30 3802 H 354.744 -2.37659 1.82916 0
M  V30 3803 H 352.297 -1.21538 0.982758 0
M  V30 3804 H 353.032 -3.18462 -0.612587 0
M  V30 3805 H 352.817 -3.77477 1.06082 0
M  V30 3806 H 354.307 -4.17315 0.154322 0
M  V30 3807 N 354.744 -0.972509 -1.24016 0
M  V30 3808 C 355.969 -0.654417 -1.96805 0
M  V30 3809 C 356.394 0.770398 -1.716 0
M  V30 3810 O 355.752 1.52361 -0.982647 0
M  V30 3811 C 355.8 -0.941031 -3.48105 0
M  V30 3812 O 354.904 -0.0289472 -4.1239 0
M  V30 3813 H 354.245 -0.24692 -0.616382 0
M  V30 3814 H 356.775 -1.30396 -1.57664 0
M  V30 3815 H 356.785 -0.87452 -3.98517 0
M  V30 3816 H 355.46 -1.97939 -3.65777 0
M  V30 3817 H 354.037 -0.149192 -3.72601 0
M  V30 3818 N 356.222 1.38976 -0.743202 0
M  V30 3819 C 357.47 1.99948 -0.29417 0
M  V30 3820 C 357.791 1.59279 1.12495 0
M  V30 3821 O 357.061 0.844808 1.76748 0
M  V30 3822 H 355.641 0.739473 -0.105774 0
M  V30 3823 H 358.303 1.699 -0.954986 0
M  V30 3824 H 357.399 3.10142 -0.349056 0
M  V30 3825 N 357.7 0.491464 1.49741 0
M  V30 3826 C 358.947 -0.0564256 2.02421 0
M  V30 3827 C 359.275 -1.37872 1.37192 0
M  V30 3828 O 358.53 -1.89375 0.493508 0
M  V30 3829 C 358.829 -0.267329 3.56399 0
M  V30 3830 C 358.495 0.975775 4.40215 0
M  V30 3831 C 357.157 1.31655 4.62839 0
M  V30 3832 C 359.509 1.80251 4.89039 0
M  V30 3833 C 356.837 2.48375 5.31532 0
M  V30 3834 C 359.189 2.96116 5.59015 0
M  V30 3835 C 357.853 3.30585 5.79888 0
M  V30 3836 H 357.123 -0.0206476 0.740712 0
M  V30 3837 H 359.77 0.649686 1.80143 0
M  V30 3838 H 358.075 -1.05588 3.77304 0
M  V30 3839 H 359.772 -0.705549 3.94744 0
M  V30 3840 H 356.362 0.700315 4.2284 0
M  V30 3841 H 360.546 1.55239 4.71396 0
M  V30 3842 H 355.802 2.7533 5.45897 0
M  V30 3843 H 359.976 3.60509 5.95824 0
M  V30 3844 H 357.603 4.21132 6.32892 0
M  V30 3845 N 359.178 -1.55987 0.224894 0
M  V30 3846 C 360.126 -2.21808 -0.700283 0
M  V30 3847 C 361.12 -1.19854 -1.19714 0
M  V30 3848 O 362.326 -1.37925 -1.15658 0
M  V30 3849 H 358.701 -0.711226 -0.244258 0
M  V30 3850 H 360.672 -2.98152 -0.121749 0
M  V30 3851 C 359.421 -2.91444 -1.8962 0
M  V30 3852 H 358.744 -3.69655 -1.52299 0
M  V30 3853 H 360.184 -3.40894 -2.52125 0
M  V30 3854 C 358.643 -1.94098 -2.75368 0
M  V30 3855 O 359.173 -1.46004 -3.74227 0
M  V30 3856 N 357.379 -1.61675 -2.41474 0
M  V30 3857 H 356.926 -2.00979 -1.61137 0
M  V30 3858 H 356.884 -0.968036 -2.99126 0
M  V30 3859 N 360.656 0.0484629 -1.57525 0
M  V30 3860 C 362.072 0.40375 -1.54409 0
M  V30 3861 C 362.272 1.77786 -0.948384 0
M  V30 3862 O 361.328 2.46189 -0.560983 0
M  V30 3863 C 362.641 0.323394 -2.98956 0
M  V30 3864 C 364.189 0.401892 -3.10409 0
M  V30 3865 C 364.664 0.351195 -4.56652 0
M  V30 3866 N 366.155 0.410576 -4.61377 0
M  V30 3867 C 366.89 0.393933 -5.72045 0
M  V30 3868 N 366.386 0.330724 -6.9201 0
M  V30 3869 N 368.179 0.442227 -5.60358 0
M  V30 3870 H 360.33 -0.851016 -1.94606 0
M  V30 3871 H 362.593 -0.321721 -0.89174 0
M  V30 3872 H 362.299 -0.62011 -3.4619 0
M  V30 3873 H 362.173 1.12463 -3.60044 0
M  V30 3874 H 364.56 1.33582 -2.63134 0
M  V30 3875 H 364.641 -0.428342 -2.52188 0
M  V30 3876 H 364.285 -0.578987 -5.04589 0
M  V30 3877 H 364.215 1.19928 -5.12762 0
M  V30 3878 H 366.706 0.462729 -3.75056 0
M  V30 3879 H 367.019 0.322592 -7.72126 0
M  V30 3880 H 365.364 0.29706 -6.94365 0
M  V30 3881 H 368.555 0.489464 -4.65534 0
M  V30 3882 H 368.728 0.425788 -6.466 0
M  V30 3883 N 362.134 1.5431 0.320358 0
M  V30 3884 C 363.38 1.72924 1.05949 0
M  V30 3885 C 363.713 0.503185 1.87568 0
M  V30 3886 O 362.988 -0.499839 1.87968 0
M  V30 3887 C 363.271 3.00676 1.98156 0
M  V30 3888 C 363.124 4.3354 1.19845 0
M  V30 3889 C 364.443 3.24198 2.9763 0
M  V30 3890 H 361.562 0.629195 0.383774 0
M  V30 3891 H 364.204 1.87008 0.335854 0
M  V30 3892 H 362.354 2.888 2.59859 0
M  V30 3893 H 364.026 4.57305 0.605773 0
M  V30 3894 H 362.269 4.309 0.500784 0
M  V30 3895 H 362.94 5.19156 1.87567 0
M  V30 3896 H 365.416 3.35557 2.4605 0
M  V30 3897 H 364.292 4.14938 3.59329 0
M  V30 3898 H 364.553 2.41577 3.7026 0
M  V30 3899 N 363.613 -0.582584 1.46437 0
M  V30 3900 C 364.86 -1.34079 1.51753 0
M  V30 3901 C 365.188 -1.93762 0.169299 0
M  V30 3902 O 364.443 -1.76989 -0.835062 0
M  V30 3903 C 364.742 -2.48964 2.56421 0
M  V30 3904 C 364.408 -2.07273 4.00436 0
M  V30 3905 C 363.07 -1.95618 4.39644 0
M  V30 3906 C 365.422 -1.75111 4.90903 0
M  V30 3907 C 362.75 -1.5006 5.67185 0
M  V30 3908 C 365.102 -1.31032 6.18881 0
M  V30 3909 C 363.766 -1.17954 6.56996 0
M  V30 3910 H 363.036 -0.49063 0.555304 0
M  V30 3911 H 365.683 -0.656007 1.79913 0
M  V30 3912 H 363.988 -3.22889 2.21923 0
M  V30 3913 H 365.685 -3.07178 2.57765 0
M  V30 3914 H 362.275 -2.17279 3.69443 0
M  V30 3915 H 366.459 -1.83001 4.61329 0
M  V30 3916 H 361.715 -1.38577 5.95488 0
M  V30 3917 H 365.889 -1.052 6.88408 0
M  V30 3918 H 363.516 -0.824279 7.55718 0
M  V30 3919 N 365.091 -1.34144 -0.827227 0
M  V30 3920 C 366.021 -1.28005 -1.95287 0
M  V30 3921 C 367.002 -0.158321 -1.69362 0
M  V30 3922 O 368.187 -0.349987 -1.9102 0
M  V30 3923 C 365.317 -1.03036 -3.31664 0
M  V30 3924 C 364.271 -2.11628 -3.72019 0
M  V30 3925 C 363.597 -1.71854 -5.0633 0
M  V30 3926 C 364.897 -3.53417 -3.8457 0
M  V30 3927 H 366.591 -2.22187 -2.00682 0
M  V30 3928 H 364.137 -1.0696 -0.964135 0
M  V30 3929 H 366.09 -0.973863 -4.09993 0
M  V30 3930 H 364.814 -0.0529391 -3.26557 0
M  V30 3931 H 363.473 -2.16339 -2.95961 0
M  V30 3932 H 363.121 -0.727841 -4.97706 0
M  V30 3933 H 362.821 -2.44531 -5.34302 0
M  V30 3934 H 364.345 -1.67692 -5.87122 0
M  V30 3935 H 365.759 -3.51142 -4.5318 0
M  V30 3936 H 364.156 -4.24679 -4.2399 0
M  V30 3937 H 365.226 -3.91072 -2.86689 0
M  V30 3938 N 366.569 1.04691 -1.17803 0
M  V30 3939 C 367.817 1.7743 -0.967617 0
M  V30 3940 C 368.138 1.88359 0.504574 0
M  V30 3941 O 367.408 1.40402 1.36617 0
M  V30 3942 H 365.988 0.657242 -0.355024 0
M  V30 3943 H 368.65 1.2638 -1.48371 0
M  V30 3944 H 367.746 2.78924 -1.40027 0
M  V30 3945 N 368.047 0.979072 1.23499 0
M  V30 3946 C 369.275 0.665202 1.95915 0
M  V30 3947 C 369.69 -0.767571 1.72493 0
M  V30 3948 O 369.047 -1.51635 1.01554 0
M  V30 3949 C 369.098 0.944438 3.48945 0
M  V30 3950 O 368.819 2.3209 3.71572 0
M  V30 3951 C 370.32 0.646336 4.38563 0
M  V30 3952 H 367.54 0.247218 0.623798 0
M  V30 3953 H 370.084 1.31009 1.57025 0
M  V30 3954 H 368.239 0.345575 3.85856 0
M  V30 3955 H 368.653 2.40957 4.65876 0
M  V30 3956 H 370.127 0.892091 5.44744 0
M  V30 3957 H 370.604 -0.419575 4.37191 0
M  V30 3958 H 371.21 1.22562 4.07258 0
M  V30 3959 N 369.525 -1.3858 0.750561 0
M  V30 3960 C 370.802 -1.94231 0.231009 0
M  V30 3961 C 371.182 -1.68611 -1.27018 0
M  V30 3962 O 370.53 -1.02296 -2.04323 0
M  V30 3963 C 370.74 -3.44123 0.581428 0
M  V30 3964 C 372.088 -4.2116 0.539389 0
M  V30 3965 O 373.112 -3.52391 0.519541 0
M  V30 3966 O 371.971 -5.43749 0.54765 0
M  V30 3967 H 369.065 -0.825639 0.0474263 0
M  V30 3968 H 371.611 -1.4799 0.830478 0
M  V30 3969 H 370.383 -3.56267 1.61833 0
M  V30 3970 H 370.006 -3.97573 -0.0462047 0
M  V30 3971 N 371.003 -0.499398 -1.49478 0
M  V30 3972 C 372.228 0.044722 -2.07352 0
M  V30 3973 C 372.653 1.30207 -1.35749 0
M  V30 3974 O 372.011 1.76516 -0.413732 0
M  V30 3975 C 372.059 0.283013 -3.59488 0
M  V30 3976 O 371.163 1.35804 -3.89398 0
M  V30 3977 H 370.504 -0.0255147 -0.66351 0
M  V30 3978 H 373.034 -0.698561 -1.92305 0
M  V30 3979 H 373.044 0.515007 -4.04737 0
M  V30 3980 H 371.719 -0.635636 -4.11014 0
M  V30 3981 H 370.296 1.11113 -3.55961 0
M  V30 3982 N 372.481 1.55866 -0.233164 0
M  V30 3983 C 373.444 2.1953 0.658715 0
M  V30 3984 C 374.444 1.16053 1.11303 0
M  V30 3985 O 375.634 1.41218 1.01996 0
M  V30 3986 C 372.766 2.82791 1.90373 0
M  V30 3987 H 373.959 2.99721 0.10347 0
M  V30 3988 H 371.512 1.56291 0.0164245 0
M  V30 3989 H 372.247 2.06501 2.50056 0
M  V30 3990 H 372.032 3.58578 1.58632 0
M  V30 3991 H 373.522 3.31556 2.53891 0
M  V30 3992 N 373.959 -0.0401083 1.57549 0
M  V30 3993 C 375.37 -0.588097 1.77196 0
M  V30 3994 C 375.721 -1.76209 0.862832 0
M  V30 3995 O 374.846 -2.16331 0.0548389 0
M  V30 3996 C 375.441 -1.07363 3.21339 0
M  V30 3997 C 374 -1.56723 3.42221 0
M  V30 3998 C 373.147 -0.50041 2.72747 0
M  V30 3999 H 376.098 0.186119 1.57605 0
M  V30 4000 H 376.119 -1.94143 3.27244 0
M  V30 4001 H 375.631 -0.218975 3.87482 0
M  V30 4002 H 373.732 -2.4441 2.81237 0
M  V30 4003 H 373.845 -1.62234 4.50796 0
M  V30 4004 H 372.209 -0.952894 2.36203 0
M  V30 4005 H 372.992 0.344599 3.41566 0
M  V30 4006 N 375.437 -1.54477 -0.31217 0
M  V30 4007 C 376.387 -1.81037 -1.38598 0
M  V30 4008 C 377.371 -0.666941 -1.46426 0
M  V30 4009 O 378.563 -0.927269 -1.50767 0
M  V30 4010 C 375.692 -2.05127 -2.75277 0
M  V30 4011 C 374.778 -3.25624 -2.71716 0
M  V30 4012 N 375.169 -4.46428 -2.37773 0
M  V30 4013 C 373.467 -3.27427 -3.02833 0
M  V30 4014 C 374.168 -5.28406 -2.43232 0
M  V30 4015 N 373.144 -4.6586 -2.80135 0
M  V30 4016 H 376.946 -2.7201 -1.11301 0
M  V30 4017 H 374.46 -1.53826 -0.520705 0
M  V30 4018 H 376.457 -2.22299 -3.52688 0
M  V30 4019 H 375.117 -1.15416 -3.03495 0
M  V30 4020 H 376.128 -4.73227 -2.1042 0
M  V30 4021 H 372.805 -2.47786 -3.36018 0
M  V30 4022 H 374.195 -6.34903 -2.19882 0
M  V30 4023 N 376.915 0.57481 -1.46744 0
M  V30 4024 C 377.878 1.66533 -1.57478 0
M  V30 4025 C 378.878 1.54338 -0.451263 0
M  V30 4026 O 380.068 1.58814 -0.715813 0
M  V30 4027 C 377.2 3.05999 -1.50259 0
M  V30 4028 H 378.393 1.58372 -2.54673 0
M  V30 4029 H 375.946 0.793301 -1.34672 0
M  V30 4030 H 376.681 3.19709 -0.543725 0
M  V30 4031 H 376.466 3.16259 -2.31781 0
M  V30 4032 H 377.956 3.8537 -1.60872 0
M  V30 4033 N 378.394 1.34581 0.820102 0
M  V30 4034 C 379.81 1.14325 1.11364 0
M  V30 4035 C 380.01 -0.0533648 2.01429 0
M  V30 4036 O 379.066 -0.728044 2.41776 0
M  V30 4037 C 380.379 2.43983 1.75764 0
M  V30 4038 C 381.927 2.50065 1.88246 0
M  V30 4039 C 382.402 3.79732 2.56061 0
M  V30 4040 N 383.893 3.80908 2.63558 0
M  V30 4041 C 384.628 4.77961 3.16766 0
M  V30 4042 N 384.124 5.85397 3.70517 0
M  V30 4043 N 385.917 4.65413 3.15194 0
M  V30 4044 H 378.068 2.11246 0.221096 0
M  V30 4045 H 380.331 0.934289 0.160649 0
M  V30 4046 H 380.037 3.31651 1.1705 0
M  V30 4047 H 379.911 2.57531 2.75604 0
M  V30 4048 H 382.298 1.62834 2.46108 0
M  V30 4049 H 382.379 2.40442 0.873006 0
M  V30 4050 H 382.023 4.67354 1.98853 0
M  V30 4051 H 381.953 3.86639 3.57516 0
M  V30 4052 H 384.444 3.03274 2.25463 0
M  V30 4053 H 384.757 6.55463 4.09376 0
M  V30 4054 H 383.102 5.89107 3.68752 0
M  V30 4055 H 386.293 3.80627 2.72471 0
M  V30 4056 H 386.466 5.41216 3.56356 0
M  V30 4057 N 379.872 -1.04064 1.18357 0
M  V30 4058 C 380.822 -2.10393 0.878561 0
M  V30 4059 C 381.806 -1.60183 -0.151713 0
M  V30 4060 O 382.998 -1.76923 0.0523303 0
M  V30 4061 C 380.127 -3.4089 0.406096 0
M  V30 4062 C 379.213 -3.97866 1.46844 0
M  V30 4063 N 379.604 -4.28657 2.68489 0
M  V30 4064 C 377.902 -4.2574 1.32896 0
M  V30 4065 C 378.603 -4.74253 3.36836 0
M  V30 4066 N 377.579 -4.75068 2.64219 0
M  V30 4067 H 381.381 -2.32076 1.80327 0
M  V30 4068 H 378.895 -1.21818 1.07397 0
M  V30 4069 H 380.892 -4.16557 0.169088 0
M  V30 4070 H 379.552 -3.20633 -0.512275 0
M  V30 4071 H 380.563 -4.18304 3.05356 0
M  V30 4072 H 377.24 -4.1481 0.473134 0
M  V30 4073 H 378.63 -5.07096 4.40798 0
M  V30 4074 N 381.35 -0.985608 -1.22978 0
M  V30 4075 C 382.766 -0.695104 -1.43668 0
M  V30 4076 C 382.966 0.736866 -1.87543 0
M  V30 4077 O 382.022 1.50868 -2.02473 0
M  V30 4078 C 383.335 -1.69447 -2.48412 0
M  V30 4079 C 384.883 -1.70909 -2.62219 0
M  V30 4080 C 385.358 -2.6969 -3.70178 0
M  V30 4081 N 386.849 -2.6824 -3.77626 0
M  V30 4082 C 387.584 -3.41339 -4.60733 0
M  V30 4083 N 387.08 -4.24015 -5.4789 0
M  V30 4084 N 388.873 -3.30079 -4.54977 0
M  V30 4085 H 381.024 -1.91054 -0.928016 0
M  V30 4086 H 383.287 -0.823553 -0.469536 0
M  V30 4087 H 382.993 -2.7188 -2.23102 0
M  V30 4088 H 382.867 -1.48147 -3.46889 0
M  V30 4089 H 385.254 -0.691785 -2.86877 0
M  V30 4090 H 385.335 -1.96276 -1.6404 0
M  V30 4091 H 384.979 -3.71566 -3.46268 0
M  V30 4092 H 384.909 -2.41595 -4.67909 0
M  V30 4093 H 387.4 -2.08243 -3.15346 0
M  V30 4094 H 387.713 -4.76636 -6.08308 0
M  V30 4095 H 386.058 -4.28104 -5.47496 0
M  V30 4096 H 389.249 -2.64937 -3.85909 0
M  V30 4097 H 389.422 -3.87308 -5.19516 0
M  V30 4098 N 382.828 1.3818 -0.7579 0
M  V30 4099 C 383.775 2.30416 -0.133057 0
M  V30 4100 C 384.745 1.50398 0.704957 0
M  V30 4101 O 385.93 1.79014 0.660192 0
M  V30 4102 C 383.07 3.36834 0.750813 0
M  V30 4103 C 382.183 4.31879 -0.102297 0
M  V30 4104 C 381.318 5.25368 0.784979 0
M  V30 4105 C 380.357 6.12058 -0.0715046 0
M  V30 4106 N 379.494 6.97832 0.772972 0
M  V30 4107 H 384.334 2.83274 -0.925186 0
M  V30 4108 H 381.871 1.39461 -0.467866 0
M  V30 4109 H 383.829 3.97145 1.27794 0
M  V30 4110 H 382.459 2.85374 1.50868 0
M  V30 4111 H 381.511 3.72991 -0.747095 0
M  V30 4112 H 382.823 4.92921 -0.763552 0
M  V30 4113 H 381.977 5.90818 1.37911 0
M  V30 4114 H 380.716 4.64703 1.47996 0
M  V30 4115 H 379.721 5.456 -0.678272 0
M  V30 4116 H 380.946 6.74793 -0.763606 0
M  V30 4117 H 378.892 6.3971 1.45282 0
M  V30 4118 H 378.809 7.55812 0.168709 0
M  V30 4119 H 380.077 7.67687 1.35194 0
M  V30 4120 N 384.306 0.507319 1.49211 0
M  V30 4121 C 385.216 -0.272136 2.33016 0
M  V30 4122 C 386.232 -0.961206 1.45041 0
M  V30 4123 O 387.408 -0.941191 1.78055 0
M  V30 4124 C 384.473 -1.31895 3.20631 0
M  V30 4125 C 383.534 -0.642648 4.24463 0
M  V30 4126 C 382.767 -1.63959 5.07891 0
M  V30 4127 O 382.99 -2.87007 4.92933 0
M  V30 4128 O 381.924 -1.19143 5.8999 0
M  V30 4129 H 385.75 0.413982 3.00865 0
M  V30 4130 H 383.335 0.268556 1.46966 0
M  V30 4131 H 385.217 -1.92446 3.7489 0
M  V30 4132 H 383.892 -1.98788 2.5547 0
M  V30 4133 H 382.799 0.00276252 3.741 0
M  V30 4134 H 384.132 -0.0160534 4.92197 0
M  V30 4135 N 385.784 -1.5574 0.241426 0
M  V30 4136 C 387.009 -2.0366 -0.392111 0
M  V30 4137 C 387.434 -1.11969 -1.51144 0
M  V30 4138 O 386.792 -0.111594 -1.80956 0
M  V30 4139 C 386.84 -3.49638 -0.882371 0
M  V30 4140 O 385.944 -3.6108 -1.99235 0
M  V30 4141 H 385.285 -0.658379 -0.0862122 0
M  V30 4142 H 387.815 -2.01302 0.365881 0
M  V30 4143 H 387.825 -3.90351 -1.18702 0
M  V30 4144 H 386.5 -4.15852 -0.0632361 0
M  V30 4145 H 385.077 -3.32262 -1.69282 0
M  V30 4146 N 387.262 0.0317525 -1.57568 0
M  V30 4147 C 388.487 0.738664 -1.938 0
M  V30 4148 C 388.912 1.68242 -0.841208 0
M  V30 4149 O 388.27 1.80157 0.203267 0
M  V30 4150 C 388.318 1.47417 -3.29091 0
M  V30 4151 O 387.422 2.5872 -3.2115 0
M  V30 4152 H 386.763 0.198856 -0.633524 0
M  V30 4153 H 389.293 -0.0119713 -2.04596 0
M  V30 4154 H 389.303 1.84468 -3.63917 0
M  V30 4155 H 387.978 0.781988 -4.08482 0
M  V30 4156 H 386.555 2.24231 -2.97951 0
M  V30 4157 N 388.74 1.54641 0.303973 0
M  V30 4158 C 389.98 1.75516 1.04755 0
M  V30 4159 C 390.344 0.528211 1.84591 0
M  V30 4160 O 391.545 0.614645 2.61678 0
M  V30 4161 C 389.816 3.00685 1.93193 0
M  V30 4162 S 391.375 3.42549 2.74237 0
M  V30 4163 H 388.193 0.616987 0.353339 0
M  V30 4164 H 390.795 1.92842 0.321292 0
M  V30 4165 H 389.499 3.8811 1.33411 0
M  V30 4166 H 389.03 2.85937 2.70191 0
M  V30 4167 H 391.045 2.99386 3.95705 0
M  V30 4168 N 390.218 -0.567019 1.47046 0
M  V30 4169 C 391.466 -1.322 1.52864 0
M  V30 4170 C 391.787 -1.94088 0.188388 0
M  V30 4171 O 391.057 -1.7941 -0.786693 0
M  V30 4172 H 389.637 -0.490894 0.563056 0
M  V30 4173 H 392.299 -0.662879 1.83281 0
M  V30 4174 H 391.395 -2.12062 2.2899 0
M  V30 4175 N 391.696 -1.35014 -0.812953 0
M  V30 4176 C 392.936 -1.29289 -1.58315 0
M  V30 4177 C 393.3 0.132727 -1.91541 0
M  V30 4178 O 394.501 0.314269 -2.66957 0
M  V30 4179 C 392.772 -2.1681 -2.84127 0
M  V30 4180 S 394.331 -2.28538 -3.74588 0
M  V30 4181 H 391.149 -0.459569 -0.542511 0
M  V30 4182 H 393.751 -1.70336 -0.959467 0
M  V30 4183 H 392.455 -3.19379 -2.57731 0
M  V30 4184 H 391.986 -1.76697 -3.51485 0
M  V30 4185 H 394.001 -1.4655 -4.74065 0
M  V30 4186 N 393.175 1.03435 -1.18907 0
M  V30 4187 C 394.138 2.09756 -0.923844 0
M  V30 4188 C 395.138 1.60528 0.093416 0
M  V30 4189 O 396.328 1.73631 -0.140727 0
M  V30 4190 C 393.46 3.38692 -0.387354 0
M  V30 4191 H 394.653 2.34719 -1.86674 0
M  V30 4192 H 392.206 1.19959 -1.00197 0
M  V30 4193 H 392.941 3.19396 0.561845 0
M  V30 4194 H 392.726 3.75742 -1.12074 0
M  V30 4195 H 394.216 4.17016 -0.220694 0
M  V30 4196 N 394.653 0.992116 1.22453 0
M  V30 4197 C 395.901 0.666215 1.90804 0
M  V30 4198 C 396.222 -0.804152 1.77647 0
M  V30 4199 O 395.492 -1.57629 1.16318 0
M  V30 4200 H 394.072 0.243423 0.706225 0
M  V30 4201 H 396.734 1.25845 1.48825 0
M  V30 4202 H 395.83 0.928069 2.97982 0
M  V30 4203 N 396.131 -1.37776 0.765217 0
M  V30 4204 C 397.371 -2.01691 0.331669 0
M  V30 4205 C 397.735 -1.59432 -1.06983 0
M  V30 4206 O 398.936 -2.15761 -1.60314 0
M  V30 4207 C 397.207 -3.54385 0.463261 0
M  V30 4208 S 398.766 -4.38652 0.114011 0
M  V30 4209 H 395.584 -0.699387 0.127979 0
M  V30 4210 H 398.186 -1.68084 0.998396 0
M  V30 4211 H 396.89 -3.82629 1.48401 0
M  V30 4212 H 396.421 -3.92783 -0.220246 0
M  V30 4213 H 398.436 -4.84021 -1.09261 0
M  V30 4214 N 397.609 -0.515225 -1.4894 0
M  V30 4215 C 398.856 0.024215 -2.02486 0
M  V30 4216 C 399.184 1.35671 -1.39368 0
M  V30 4217 O 398.439 1.88566 -0.523574 0
M  V30 4218 C 398.738 0.210595 -3.56779 0
M  V30 4219 C 398.404 -1.04569 -4.38607 0
M  V30 4220 C 397.066 -1.39002 -4.60686 0
M  V30 4221 C 399.418 -1.88008 -4.86109 0
M  V30 4222 C 396.746 -2.568 -5.27514 0
M  V30 4223 C 399.098 -3.04972 -5.54234 0
M  V30 4224 C 397.762 -3.39768 -5.74555 0
M  V30 4225 H 397.032 0.00886088 -0.740947 0
M  V30 4226 H 399.679 -0.678263 -1.79086 0
M  V30 4227 H 397.984 0.99572 -3.78936 0
M  V30 4228 H 399.681 0.642659 -3.95817 0
M  V30 4229 H 396.271 -0.767497 -4.21672 0
M  V30 4230 H 400.455 -1.62719 -4.68867 0
M  V30 4231 H 395.711 -2.8398 -5.41447 0
M  V30 4232 H 399.885 -3.69943 -5.90013 0
M  V30 4233 H 397.512 -4.31148 -6.26112 0
M  V30 4234 N 399.087 1.5561 -0.249682 0
M  V30 4235 C 400.035 2.22894 0.664906 0
M  V30 4236 C 401.029 1.21743 1.17792 0
M  V30 4237 O 402.235 1.39748 1.13449 0
M  V30 4238 H 398.61 0.715022 0.232912 0
M  V30 4239 H 400.581 2.98307 0.0742998 0
M  V30 4240 C 399.33 2.94424 1.84959 0
M  V30 4241 H 398.653 3.72031 1.46399 0
M  V30 4242 H 400.093 3.44862 2.4667 0
M  V30 4243 C 398.552 1.98454 2.72245 0
M  V30 4244 O 399.082 1.51939 3.71857 0
M  V30 4245 N 397.288 1.65496 2.38871 0
M  V30 4246 H 396.835 2.03517 1.57919 0
M  V30 4247 H 396.793 1.0155 2.97548 0
M  V30 4248 N 400.565 -0.0233959 1.57583 0
M  V30 4249 C 401.528 -1.00693 2.05897 0
M  V30 4250 C 402.528 -1.28693 0.964092 0
M  V30 4251 O 403.718 -1.23602 1.22753 0
M  V30 4252 C 400.85 -2.33825 2.4807 0
M  V30 4253 H 402.043 -0.589476 2.9405 0
M  V30 4254 H 399.596 -0.270354 1.53944 0
M  V30 4255 H 400.331 -2.80307 1.6309 0
M  V30 4256 H 400.116 -2.1483 3.2801 0
M  V30 4257 H 401.606 -3.04426 2.85857 0
M  V30 4258 N 402.043 -1.548 -0.295768 0
M  V30 4259 C 403.454 -1.65274 -0.868411 0
M  V30 4260 C 403.805 -0.56481 -1.87894 0
M  V30 4261 O 402.93 0.29767 -2.14343 0
M  V30 4262 C 403.525 -2.99603 -1.58188 0
M  V30 4263 C 402.084 -3.12181 -2.10286 0
M  V30 4264 C 401.231 -2.6098 -0.93727 0
M  V30 4265 H 404.182 -1.58534 -0.0726422 0
M  V30 4266 H 404.203 -2.91319 -2.44772 0
M  V30 4267 H 403.715 -3.78764 -0.846151 0
M  V30 4268 H 401.816 -2.3775 -2.8689 0
M  V30 4269 H 401.929 -4.18415 -2.33379 0
M  V30 4270 H 400.293 -2.17564 -1.32431 0
M  V30 4271 H 401.076 -3.42623 -0.215414 0
M  V30 4272 N 403.521 0.559213 -1.47345 0
M  V30 4273 C 404.749 1.34194 -1.57479 0
M  V30 4274 C 405.164 1.87463 -0.224261 0
M  V30 4275 O 404.521 1.64888 0.782185 0
M  V30 4276 C 404.572 2.51324 -2.59843 0
M  V30 4277 O 404.293 2.00256 -3.89653 0
M  V30 4278 C 405.794 3.43563 -2.80142 0
M  V30 4279 H 403.014 0.409136 -0.531835 0
M  V30 4280 H 405.558 0.677609 -1.92947 0
M  V30 4281 H 403.713 3.13699 -2.27314 0
M  V30 4282 H 404.127 2.76708 -4.4557 0
M  V30 4283 H 405.601 4.2217 -3.55635 0
M  V30 4284 H 406.078 3.9698 -1.87892 0
M  V30 4285 H 406.684 2.87005 -3.1386 0
M  V30 4286 N 404.999 1.35443 0.805782 0
M  V30 4287 C 405.962 1.28301 1.89925 0
M  V30 4288 C 406.962 0.194285 1.59622 0
M  V30 4289 O 408.152 0.448036 1.6834 0
M  V30 4290 C 405.284 0.984997 3.2636 0
M  V30 4291 H 406.477 2.2553 1.97677 0
M  V30 4292 H 404.03 1.19979 1.00173 0
M  V30 4293 H 404.765 0.016603 3.24296 0
M  V30 4294 H 404.55 1.77269 3.4974 0
M  V30 4295 H 406.04 0.960651 4.064 0
M  V30 4296 N 406.477 -1.02803 1.19454 0
M  V30 4297 C 407.407 -2.12999 0.956758 0
M  V30 4298 C 408.388 -1.69743 -0.110188 0
M  V30 4299 O 409.573 -1.94148 0.0450038 0
M  V30 4300 C 406.703 -3.43746 0.495553 0
M  V30 4301 C 405.657 -4.00688 1.50443 0
M  V30 4302 C 404.983 -5.27067 0.900275 0
M  V30 4303 C 406.283 -4.35397 2.8849 0
M  V30 4304 H 407.977 -2.33148 1.87836 0
M  V30 4305 H 405.523 -1.12045 0.904539 0
M  V30 4306 H 407.476 -4.2021 0.316493 0
M  V30 4307 H 406.2 -3.23321 -0.461646 0
M  V30 4308 H 404.859 -3.2632 1.67065 0
M  V30 4309 H 404.507 -5.02959 -0.064503 0
M  V30 4310 H 404.207 -5.66127 1.57397 0
M  V30 4311 H 405.731 -6.06196 0.73203 0
M  V30 4312 H 407.145 -5.02795 2.75446 0
M  V30 4313 H 405.542 -4.85541 3.52661 0
M  V30 4314 H 406.612 -3.44662 3.41081 0
M  V30 4315 N 407.956 -0.998596 -1.21925 0
M  V30 4316 C 409.204 -0.676325 -1.90448 0
M  V30 4317 C 409.525 0.794719 -1.78071 0
M  V30 4318 O 408.795 1.5701 -1.17152 0
M  V30 4319 H 407.375 -0.247165 -0.704925 0
M  V30 4320 H 410.037 -1.26633 -1.48156 0
M  V30 4321 H 409.133 -0.943858 -2.97486 0
M  V30 4322 N 409.434 1.37368 -0.772513 0
M  V30 4323 C 410.659 2.0447 -0.347386 0
M  V30 4324 C 411.084 1.57882 1.0225 0
M  V30 4325 O 410.442 0.73941 1.65537 0
M  V30 4326 C 410.49 3.58369 -0.400479 0
M  V30 4327 O 409.594 4.0803 0.598789 0
M  V30 4328 H 408.935 0.646773 -0.15027 0
M  V30 4329 H 411.465 1.75667 -1.04892 0
M  V30 4330 H 411.475 4.07183 -0.258045 0
M  V30 4331 H 410.15 3.91633 -1.39986 0
M  V30 4332 H 408.727 3.70534 0.419411 0
M  V30 4333 N 410.912 0.523116 1.48665 0
M  V30 4334 C 412.142 -0.00961724 2.06598 0
M  V30 4335 C 412.55 -1.29333 1.38093 0
M  V30 4336 O 411.893 -1.77846 0.46007 0
M  V30 4337 C 411.955 -0.311135 3.58151 0
M  V30 4338 C 411.619 0.878092 4.48485 0
M  V30 4339 C 412.616 1.77464 4.88674 0
M  V30 4340 C 410.301 1.08315 4.90483 0
M  V30 4341 C 412.295 2.86021 5.69623 0
M  V30 4342 C 409.982 2.17187 5.71203 0
M  V30 4343 C 410.98 3.05873 6.10681 0
M  V30 4344 O 410.668 4.12862 6.89783 0
M  V30 4345 H 410.4 0.0272658 0.67545 0
M  V30 4346 H 412.954 0.726156 1.92136 0
M  V30 4347 H 411.184 -1.10079 3.70701 0
M  V30 4348 H 412.873 -0.785125 3.98234 0
M  V30 4349 H 413.639 1.62813 4.56855 0
M  V30 4350 H 409.518 0.402149 4.59243 0
M  V30 4351 H 413.062 3.55272 6.00356 0
M  V30 4352 H 408.959 2.31824 6.02435 0
M  V30 4353 H 409.727 4.10487 7.08126 0
M  V30 4354 N 412.39 -1.55475 0.257931 0
M  V30 4355 C 413.353 -2.20551 -0.623706 0
M  V30 4356 C 414.353 -1.17809 -1.09443 0
M  V30 4357 O 415.543 -1.42823 -0.997362 0
M  V30 4358 C 412.675 -2.85784 -1.8585 0
M  V30 4359 H 413.868 -2.99848 -0.0557743 0
M  V30 4360 H 411.421 -1.56298 0.0084422 0
M  V30 4361 H 412.156 -2.10453 -2.46739 0
M  V30 4362 H 411.941 -3.61057 -1.52907 0
M  V30 4363 H 413.431 -3.35553 -2.48584 0
M  V30 4364 N 413.868 0.0150385 -1.57593 0
M  V30 4365 C 415.096 0.714395 -1.94175 0
M  V30 4366 C 415.511 1.68135 -0.858841 0
M  V30 4367 O 414.868 1.81766 0.163567 0
M  V30 4368 C 414.919 1.45933 -3.30735 0
M  V30 4369 O 414.64 0.531167 -4.34868 0
M  V30 4370 C 416.141 2.25456 -3.81686 0
M  V30 4371 H 413.361 0.199923 -0.640525 0
M  V30 4372 H 415.905 -0.0316096 -2.04476 0
M  V30 4373 H 414.06 2.15709 -3.21789 0
M  V30 4374 H 414.474 1.05509 -5.13778 0
M  V30 4375 H 415.948 2.731 -4.79709 0
M  V30 4376 H 416.425 3.07485 -3.13607 0
M  V30 4377 H 417.031 1.60727 -3.9376 0
M  V30 4378 N 415.346 1.54954 0.287554 0
M  V30 4379 C 416.592 1.75132 1.02257 0
M  V30 4380 C 416.925 0.542858 1.86458 0
M  V30 4381 O 416.2 -0.459856 1.88986 0
M  V30 4382 C 416.483 3.04812 1.91733 0
M  V30 4383 C 416.336 4.35985 1.10622 0
M  V30 4384 C 417.655 3.30438 2.90687 0
M  V30 4385 H 414.774 0.637194 0.370341 0
M  V30 4386 H 417.416 1.87678 0.296111 0
M  V30 4387 H 415.566 2.94247 2.53675 0
M  V30 4388 H 417.238 4.58487 0.508636 0
M  V30 4389 H 415.481 4.31865 0.409271 0
M  V30 4390 H 416.152 5.23017 1.76513 0
M  V30 4391 H 418.628 3.40701 2.38877 0
M  V30 4392 H 417.504 4.22467 3.50447 0
M  V30 4393 H 417.765 2.49377 3.65053 0
M  V30 4394 N 416.824 -0.551391 1.4764 0
M  V30 4395 C 418.071 -1.3083 1.54563 0
M  V30 4396 C 418.399 -1.93359 0.210361 0
M  V30 4397 O 417.654 -1.78721 -0.797332 0
M  V30 4398 C 417.953 -2.43469 2.61644 0
M  V30 4399 C 417.619 -1.98732 4.04742 0
M  V30 4400 C 416.281 -1.86248 4.43695 0
M  V30 4401 C 418.633 -1.64659 4.94507 0
M  V30 4402 C 415.961 -1.37995 5.70241 0
M  V30 4403 C 418.313 -1.17875 6.21521 0
M  V30 4404 C 416.977 -1.03992 6.5935 0
M  V30 4405 H 416.247 -0.478741 0.565587 0
M  V30 4406 H 418.894 -0.617697 1.81264 0
M  V30 4407 H 417.199 -3.18109 2.28722 0
M  V30 4408 H 418.896 -3.01642 2.64222 0
M  V30 4409 H 415.486 -2.09393 3.73968 0
M  V30 4410 H 419.67 -1.73174 4.65107 0
M  V30 4411 H 414.926 -1.25915 5.98294 0
M  V30 4412 H 419.1 -0.905739 6.90485 0
M  V30 4413 H 416.727 -0.663794 7.57296 0
M  V30 4414 N 418.302 -1.35869 -0.798587 0
M  V30 4415 C 419.212 -1.31578 -1.94228 0
M  V30 4416 C 420.228 -0.21939 -1.72611 0
M  V30 4417 O 421.404 -0.450167 -1.96305 0
M  V30 4418 C 418.469 -1.09528 -3.28944 0
M  V30 4419 C 417.53 -2.28556 -3.63402 0
M  V30 4420 C 416.763 -2.07549 -4.9169 0
M  V30 4421 O 416.986 -1.046 -5.60727 0
M  V30 4422 O 415.92 -2.95106 -5.24591 0
M  V30 4423 H 419.746 -2.27847 -2.00796 0
M  V30 4424 H 417.331 -1.16322 -0.937526 0
M  V30 4425 H 419.213 -0.991127 -4.09579 0
M  V30 4426 H 417.888 -0.16315 -3.23289 0
M  V30 4427 H 416.795 -2.44538 -2.83112 0
M  V30 4428 H 418.128 -3.20244 -3.73771 0
M  V30 4429 N 419.78 1.02168 -1.19998 0
M  V30 4430 C 420.69 2.14069 -0.959774 0
M  V30 4431 C 421.706 1.73804 0.082655 0
M  V30 4432 O 422.882 2.01133 -0.103633 0
M  V30 4433 C 419.947 3.42936 -0.509459 0
M  V30 4434 C 419.008 3.97474 -1.62213 0
M  V30 4435 C 418.241 5.2019 -1.19321 0
M  V30 4436 O 418.464 5.70369 -0.0597726 0
M  V30 4437 O 417.398 5.67749 -1.99863 0
M  V30 4438 H 421.224 2.37199 -1.89658 0
M  V30 4439 H 418.809 1.12469 -0.983411 0
M  V30 4440 H 420.691 4.20551 -0.267322 0
M  V30 4441 H 419.366 3.21234 0.398821 0
M  V30 4442 H 418.273 3.21161 -1.9185 0
M  V30 4443 H 419.606 4.23555 -2.50723 0
M  V30 4444 N 421.258 1.00505 1.21394 0
M  V30 4445 C 422.191 0.51032 2.22421 0
M  V30 4446 C 423.169 -0.436 1.56645 0
M  V30 4447 O 424.353 -0.358709 1.85055 0
M  V30 4448 C 421.48 -0.258733 3.3771 0
M  V30 4449 C 420.526 0.635395 4.2174 0
M  V30 4450 S 421.359 2.09783 4.92698 0
M  V30 4451 C 422.515 1.33862 6.11418 0
M  V30 4452 H 422.748 1.36637 2.64041 0
M  V30 4453 H 420.281 0.812991 1.31262 0
M  V30 4454 H 422.239 -0.696372 4.0455 0
M  V30 4455 H 420.9 -1.0902 2.94573 0
M  V30 4456 H 420.093 0.0430189 5.03982 0
M  V30 4457 H 419.695 1.01031 3.60095 0
M  V30 4458 H 421.987 0.612541 6.74725 0
M  V30 4459 H 422.93 2.13675 6.75092 0
M  V30 4460 H 423.338 0.846568 5.58116 0
M  V30 4461 N 422.737 -1.36956 0.779787 0
M  V30 4462 C 423.685 -2.32053 0.15942 0
M  V30 4463 C 424.679 -1.55333 -0.675878 0
M  V30 4464 O 425.885 -1.70668 -0.57204 0
M  V30 4465 H 422.26 -0.751286 0.0327707 0
M  V30 4466 H 424.231 -2.8195 0.977078 0
M  V30 4467 C 422.98 -3.40602 -0.698977 0
M  V30 4468 H 422.303 -3.99746 -0.0655966 0
M  V30 4469 H 423.743 -4.09486 -1.09989 0
M  V30 4470 C 422.202 -2.81359 -1.85307 0
M  V30 4471 O 422.732 -2.72751 -2.94906 0
M  V30 4472 N 420.938 -2.38786 -1.65619 0
M  V30 4473 H 420.485 -2.45987 -0.764725 0
M  V30 4474 H 420.443 -1.99493 -2.43002 0
M  V30 4475 N 424.215 -0.530993 -1.48385 0
M  V30 4476 C 425.178 0.220497 -2.28137 0
M  V30 4477 C 426.178 0.866851 -1.35434 0
M  V30 4478 O 427.368 0.726746 -1.58316 0
M  V30 4479 C 424.5 1.31921 -3.1434 0
M  V30 4480 H 425.693 -0.479714 -2.96038 0
M  V30 4481 H 423.246 -0.286968 -1.53643 0
M  V30 4482 H 423.981 2.05264 -2.51072 0
M  V30 4483 H 423.766 0.86085 -3.82533 0
M  V30 4484 H 425.256 1.84776 -3.74497 0
M  V30 4485 N 425.693 1.55336 -0.266172 0
M  V30 4486 C 426.623 2.25146 0.618981 0
M  V30 4487 C 427.604 1.23845 1.16604 0
M  V30 4488 O 428.789 1.52544 1.20183 0
M  V30 4489 C 425.919 2.96572 1.80728 0
M  V30 4490 C 424.873 4.04726 1.39215 0
M  V30 4491 C 424.199 4.63678 2.66283 0
M  V30 4492 C 425.499 5.19407 0.548942 0
M  V30 4493 H 427.193 2.99377 0.0368116 0
M  V30 4494 H 424.739 1.43991 0.0162651 0
M  V30 4495 H 426.692 3.44116 2.43232 0
M  V30 4496 H 425.416 2.19861 2.41514 0
M  V30 4497 H 424.075 3.57979 0.790351 0
M  V30 4498 H 423.723 3.83646 3.25308 0
M  V30 4499 H 423.423 5.367 2.39222 0
M  V30 4500 H 424.947 5.13967 3.29651 0
M  V30 4501 H 426.361 5.63059 1.07876 0
M  V30 4502 H 424.758 5.98936 0.373593 0
M  V30 4503 H 425.828 4.8295 -0.434394 0
M  V30 4504 N 427.171 -0.0066808 1.57599 0
M  V30 4505 C 428.103 -1.02827 2.04839 0
M  V30 4506 C 429.116 -1.31108 0.965113 0
M  V30 4507 O 430.305 -1.28202 1.24203 0
M  V30 4508 C 427.405 -2.36464 2.42771 0
M  V30 4509 C 426.578 -2.27219 3.73751 0
M  V30 4510 C 425.637 -3.43489 3.98625 0
M  V30 4511 O 424.663 -3.21976 4.69382 0
M  V30 4512 N 425.865 -4.66116 3.46 0
M  V30 4513 H 428.63 -0.625455 2.93101 0
M  V30 4514 H 426.191 -0.194198 1.60731 0
M  V30 4515 H 428.183 -3.13008 2.56531 0
M  V30 4516 H 426.753 -2.68512 1.60063 0
M  V30 4517 H 425.973 -1.35629 3.70133 0
M  V30 4518 H 427.261 -2.18208 4.59633 0
M  V30 4519 H 426.659 -4.86493 2.88688 0
M  V30 4520 H 425.216 -5.39949 3.65101 0
M  V30 4521 N 428.649 -1.55105 -0.279332 0
M  V30 4522 C 429.599 -1.83937 -1.34727 0
M  V30 4523 C 430.583 -0.69785 -1.44979 0
M  V30 4524 O 431.775 -0.95904 -1.48766 0
M  V30 4525 C 428.904 -2.1092 -2.70864 0
M  V30 4526 C 427.99 -3.31314 -2.64748 0
M  V30 4527 N 428.381 -4.51371 -2.2825 0
M  V30 4528 C 426.679 -3.33777 -2.95819 0
M  V30 4529 C 427.38 -5.33447 -2.31969 0
M  V30 4530 N 426.356 -4.71697 -2.7019 0
M  V30 4531 H 430.158 -2.74309 -1.05506 0
M  V30 4532 H 427.672 -1.54896 -0.487959 0
M  V30 4533 H 429.669 -2.2973 -3.47893 0
M  V30 4534 H 428.329 -1.21828 -3.00979 0
M  V30 4535 H 429.34 -4.77584 -2.00335 0
M  V30 4536 H 426.017 -2.54858 -3.30687 0
M  V30 4537 H 427.407 -6.39424 -2.06365 0
M  V30 4538 N 430.127 0.543554 -1.4793 0
M  V30 4539 C 431.374 1.30008 -1.55255 0
M  V30 4540 C 431.702 1.93245 -0.220612 0
M  V30 4541 O 430.957 1.79141 0.787843 0
M  V30 4542 C 431.256 2.42078 -2.62932 0
M  V30 4543 C 430.922 1.96583 -4.0579 0
M  V30 4544 C 429.584 1.83893 -4.44676 0
M  V30 4545 C 431.936 1.62034 -4.95373 0
M  V30 4546 C 429.264 1.34969 -5.70964 0
M  V30 4547 C 431.616 1.14577 -6.22137 0
M  V30 4548 C 430.28 1.00493 -6.59892 0
M  V30 4549 H 429.55 0.475735 -0.568117 0
M  V30 4550 H 432.197 0.608075 -1.81589 0
M  V30 4551 H 430.502 3.16892 -2.30406 0
M  V30 4552 H 432.199 3.00236 -2.65818 0
M  V30 4553 H 428.789 2.07407 -3.75074 0
M  V30 4554 H 432.973 1.70705 -4.66019 0
M  V30 4555 H 428.229 1.2274 -5.98953 0
M  V30 4556 H 432.403 0.869109 -6.90955 0
M  V30 4557 H 430.03 0.623624 -7.57638 0
M  V30 4558 N 431.605 1.3629 0.791371 0
M  V30 4559 C 432.515 1.32606 1.93527 0
M  V30 4560 C 433.531 0.228541 1.72493 0
M  V30 4561 O 434.707 0.460571 1.96063 0
M  V30 4562 C 431.772 1.11271 3.28359 0
M  V30 4563 C 430.833 2.3048 3.62185 0
M  V30 4564 C 430.066 2.10154 4.90583 0
M  V30 4565 O 430.289 1.07572 5.60165 0
M  V30 4566 O 429.223 2.97884 5.23019 0
M  V30 4567 H 433.049 2.28909 1.99585 0
M  V30 4568 H 430.634 1.16818 0.931344 0
M  V30 4569 H 432.516 1.01283 4.09047 0
M  V30 4570 H 431.191 0.180292 3.23198 0
M  V30 4571 H 430.098 2.46036 2.81811 0
M  V30 4572 H 431.431 3.22221 3.72068 0
M  V30 4573 N 433.083 -1.0153 1.20538 0
M  V30 4574 C 434.046 -2.0826 0.957098 0
M  V30 4575 C 435.046 -1.60657 -0.0678655 0
M  V30 4576 O 436.236 -1.73385 0.168332 0
M  V30 4577 C 433.368 -3.38033 0.441188 0
M  V30 4578 H 434.561 -2.31719 1.90384 0
M  V30 4579 H 432.114 -1.1835 1.02093 0
M  V30 4580 H 432.849 -3.20249 -0.510961 0
M  V30 4581 H 432.634 -3.73911 1.18038 0
M  V30 4582 H 434.124 -4.16613 0.287009 0
M  V30 4583 N 434.561 -1.01147 -1.20859 0
M  V30 4584 C 435.808 -0.697865 -1.90095 0
M  V30 4585 C 436.136 0.772014 -1.78522 0
M  V30 4586 O 435.391 1.57595 -1.16027 0
M  V30 4587 C 435.69 -1.0727 -3.40922 0
M  V30 4588 C 435.356 -2.53792 -3.72693 0
M  V30 4589 C 434.018 -2.93829 -3.81075 0
M  V30 4590 C 436.37 -3.48674 -3.87397 0
M  V30 4591 C 433.698 -4.27696 -4.01613 0
M  V30 4592 C 436.05 -4.82223 -4.09444 0
M  V30 4593 C 434.714 -5.21973 -4.16054 0
M  V30 4594 H 433.984 -0.255367 -0.695607 0
M  V30 4595 H 436.631 -1.27111 -1.43231 0
M  V30 4596 H 434.936 -0.417799 -3.89566 0
M  V30 4597 H 436.633 -0.807818 -3.92779 0
M  V30 4598 H 433.223 -2.21768 -3.66765 0
M  V30 4599 H 437.407 -3.18904 -3.80281 0
M  V30 4600 H 432.663 -4.58055 -4.04964 0
M  V30 4601 H 436.837 -5.55672 -4.19763 0
M  V30 4602 H 434.464 -6.25717 -4.31721 0
M  V30 4603 N 436.039 1.36541 -0.78704 0
M  V30 4604 C 437.279 2.01138 -0.363714 0
M  V30 4605 C 437.643 1.61114 1.04433 0
M  V30 4606 O 438.844 2.18285 1.56861 0
M  V30 4607 C 437.115 3.53603 -0.519582 0
M  V30 4608 S 438.674 4.38415 -0.183782 0
M  V30 4609 H 435.492 0.697263 -0.13909 0
M  V30 4610 H 438.094 1.66475 -1.02501 0
M  V30 4611 H 436.798 3.8022 -1.5447 0
M  V30 4612 H 436.329 3.93084 0.15773 0
M  V30 4613 H 438.344 4.85698 1.01547 0
M  V30 4614 N 437.518 0.538854 1.48102 0
M  V30 4615 C 438.743 0.0102694 2.07397 0
M  V30 4616 C 439.168 -1.26562 1.39153 0
M  V30 4617 O 438.526 -1.75357 0.460387 0
M  V30 4618 C 438.574 -0.187602 3.60112 0
M  V30 4619 O 437.678 -1.25432 3.92862 0
M  V30 4620 H 437.019 0.0430975 0.6626 0
M  V30 4621 H 439.549 0.749301 1.90385 0
M  V30 4622 H 439.559 -0.407517 4.0596 0
M  V30 4623 H 438.234 0.744386 4.09184 0
M  V30 4624 H 436.811 -1.01636 3.58782 0
M  V30 4625 N 438.996 -1.55193 0.274407 0
M  V30 4626 C 440.242 -1.99877 -0.343086 0
M  V30 4627 C 440.575 -1.16256 -1.55558 0
M  V30 4628 O 439.85 -0.232462 -1.93106 0
M  V30 4629 C 440.133 -3.52706 -0.725965 0
M  V30 4630 C 439.986 -4.47081 0.493818 0
M  V30 4631 C 441.305 -4.11422 -1.56268 0
M  V30 4632 H 438.424 -0.726625 -0.123229 0
M  V30 4633 H 441.066 -1.86136 0.38121 0
M  V30 4634 H 439.216 -3.64546 -1.34307 0
M  V30 4635 H 440.888 -4.47186 1.13237 0
M  V30 4636 H 439.131 -4.1877 1.13201 0
M  V30 4637 H 439.802 -5.51699 0.18217 0
M  V30 4638 H 442.278 -4.02855 -1.04151 0
M  V30 4639 H 441.154 -5.18568 -1.79939 0
M  V30 4640 H 441.415 -3.61607 -2.54348 0
M  V30 4641 N 440.474 -0.00167713 -1.576 0
M  V30 4642 C 441.422 1.0074 -2.09652 0
M  V30 4643 C 442.416 1.35483 -1.01689 0
M  V30 4644 O 443.622 1.34028 -1.20152 0
M  V30 4645 H 439.997 0.342537 -0.669457 0
M  V30 4646 H 441.968 0.542841 -2.93421 0
M  V30 4647 C 440.717 2.2899 -2.61647 0
M  V30 4648 H 440.04 2.03124 -3.44355 0
M  V30 4649 H 441.48 2.9787 -3.01744 0
M  V30 4650 C 439.939 3.00085 -1.53136 0
M  V30 4651 O 440.469 3.91135 -0.91524 0
M  V30 4652 N 438.675 2.6194 -1.25841 0
M  V30 4653 H 438.222 1.8798 -1.76129 0
M  V30 4654 H 438.18 3.09822 -0.534576 0
M  V30 4655 N 441.952 1.55251 0.271103 0
M  V30 4656 C 443.2 1.75599 1.00047 0
M  V30 4657 C 443.521 0.561188 1.8675 0
M  V30 4658 O 442.791 -0.423846 1.9126 0
M  V30 4659 H 441.371 0.647562 0.372387 0
M  V30 4660 H 444.033 1.92656 0.294876 0
M  V30 4661 H 443.129 2.65766 1.6363 0
M  V30 4662 N 443.43 -0.535701 1.48216 0
M  V30 4663 C 444.841 -1.11769 1.49548 0
M  V30 4664 C 445.192 -1.94442 0.26207 0
M  V30 4665 O 444.317 -2.06987 -0.631287 0
M  V30 4666 C 444.912 -2.03367 2.70975 0
M  V30 4667 C 443.471 -2.56795 2.75196 0
M  V30 4668 C 442.618 -1.33631 2.42977 0
M  V30 4669 H 445.569 -0.321232 1.55415 0
M  V30 4670 H 445.59 -2.87569 2.49167 0
M  V30 4671 H 445.102 -1.43169 3.60727 0
M  V30 4672 H 443.203 -3.20731 1.89638 0
M  V30 4673 H 443.316 -2.9632 3.76472 0
M  V30 4674 H 441.68 -1.6502 1.94012 0
M  V30 4675 H 442.463 -0.75194 3.34964 0
M  V30 4676 N 444.908 -1.36708 -0.784132 0
M  V30 4677 C 445.84 -1.27333 -1.90575 0
M  V30 4678 C 446.853 -0.191706 -1.61667 0
M  V30 4679 O 448.042 -0.446854 -1.72816 0
M  V30 4680 C 445.142 -0.943177 -3.25511 0
M  V30 4681 C 444.315 -2.12776 -3.82158 0
M  V30 4682 C 443.374 -1.76983 -4.95544 0
M  V30 4683 O 442.4 -2.49134 -5.11782 0
M  V30 4684 N 443.602 -0.706624 -5.76183 0
M  V30 4685 H 446.367 -2.23974 -1.99138 0
M  V30 4686 H 443.928 -1.30171 -0.962656 0
M  V30 4687 H 445.92 -0.684799 -3.98864 0
M  V30 4688 H 444.49 -0.0657333 -3.12531 0
M  V30 4689 H 443.71 -2.54863 -3.0073 0
M  V30 4690 H 444.998 -2.91904 -4.16737 0
M  V30 4691 H 444.396 -0.107643 -5.65598 0
M  V30 4692 H 442.953 -0.50808 -6.49817 0
M  V30 4693 N 446.386 1.0089 -1.21074 0
M  V30 4694 C 447.633 1.74607 -1.0256 0
M  V30 4695 C 447.961 1.89426 0.44136 0
M  V30 4696 O 447.216 1.42266 1.34384 0
M  V30 4697 C 447.515 3.16335 -1.66334 0
M  V30 4698 C 447.181 3.21474 -3.16173 0
M  V30 4699 C 445.843 3.22583 -3.57062 0
M  V30 4700 C 448.195 3.19025 -4.12156 0
M  V30 4701 C 445.523 3.18925 -4.92446 0
M  V30 4702 C 447.875 3.16909 -5.47496 0
M  V30 4703 C 446.539 3.16326 -5.87787 0
M  V30 4704 H 445.809 0.638933 -0.375294 0
M  V30 4705 H 448.456 1.18274 -1.50611 0
M  V30 4706 H 446.761 3.75876 -1.10566 0
M  V30 4707 H 448.458 3.72083 -1.49516 0
M  V30 4708 H 445.048 3.2135 -2.83605 0
M  V30 4709 H 449.232 3.17332 -3.81595 0
M  V30 4710 H 444.488 3.16809 -5.22917 0
M  V30 4711 H 448.662 3.13968 -6.21609 0
M  V30 4712 H 446.289 3.13246 -6.92662 0
M  V30 4713 N 447.864 1.01787 1.20321 0
M  V30 4714 C 449.094 0.72614 1.93419 0
M  V30 4715 C 449.502 -0.717317 1.75075 0
M  V30 4716 O 448.845 -1.49836 1.06278 0
M  V30 4717 C 448.907 0.983621 3.45782 0
M  V30 4718 C 448.571 2.41645 3.87888 0
M  V30 4719 C 449.568 3.39732 3.93545 0
M  V30 4720 C 447.253 2.75752 4.19841 0
M  V30 4721 C 449.247 4.69988 4.30569 0
M  V30 4722 C 446.934 4.06221 4.56539 0
M  V30 4723 C 447.932 5.0315 4.61876 0
M  V30 4724 O 447.62 6.31284 4.97731 0
M  V30 4725 H 447.352 0.265824 0.621541 0
M  V30 4726 H 449.906 1.3623 1.53722 0
M  V30 4727 H 448.136 0.290301 3.85609 0
M  V30 4728 H 449.825 0.683279 4.00108 0
M  V30 4729 H 450.591 3.14718 3.69022 0
M  V30 4730 H 446.47 2.00993 4.14877 0
M  V30 4731 H 450.014 5.45642 4.3465 0
M  V30 4732 H 445.911 4.31013 4.80518 0
M  V30 4733 H 446.679 6.35591 5.15719 0
M  V30 4734 N 449.342 -1.36122 0.79427 0
M  V30 4735 C 450.59 -1.98718 0.368177 0
M  V30 4736 C 450.911 -1.63345 -1.06506 0
M  V30 4737 O 450.181 -0.909825 -1.73491 0
M  V30 4738 H 448.761 -0.735038 0.133146 0
M  V30 4739 H 451.423 -1.66239 1.01739 0
M  V30 4740 H 450.519 -3.08633 0.463923 0
M  V30 4741 N 450.82 -0.546701 -1.47814 0
M  V30 4742 C 451.75 0.195317 -2.32682 0
M  V30 4743 C 452.731 0.918981 -1.43139 0
M  V30 4744 O 453.916 0.901501 -1.72008 0
M  V30 4745 C 451.046 1.23237 -3.247 0
M  V30 4746 C 450 0.625818 -4.234 0
M  V30 4747 C 449.326 1.76674 -5.04669 0
M  V30 4748 C 450.626 -0.413515 -5.2066 0
M  V30 4749 H 452.32 -0.513184 -2.94969 0
M  V30 4750 H 449.866 -0.248241 -1.41844 0
M  V30 4751 H 451.819 1.75955 -3.82907 0
M  V30 4752 H 450.543 1.97067 -2.60446 0
M  V30 4753 H 449.202 0.120023 -3.66403 0
M  V30 4754 H 448.85 2.49383 -4.36826 0
M  V30 4755 H 448.55 1.36673 -5.71484 0
M  V30 4756 H 450.074 2.29738 -5.65732 0
M  V30 4757 H 451.488 0.0272042 -5.73294 0
M  V30 4758 H 449.885 -0.731825 -5.95621 0
M  V30 4759 H 450.955 -1.31325 -4.66778 0
M  V30 4760 N 452.299 1.55045 -0.282633 0
M  V30 4761 C 453.71 1.85473 0.213655 0
M  V30 4762 C 454.061 1.20465 1.54863 0
M  V30 4763 O 453.186 0.495676 2.10647 0
M  V30 4764 C 453.781 3.36496 0.394445 0
M  V30 4765 C 452.34 3.67022 0.834961 0
M  V30 4766 C 451.487 2.77218 -0.0674081 0
M  V30 4767 H 454.438 1.50478 -0.504202 0
M  V30 4768 H 454.459 3.60007 1.23186 0
M  V30 4769 H 453.971 3.83782 -0.577326 0
M  V30 4770 H 452.072 3.25241 1.81794 0
M  V30 4771 H 452.185 4.74433 0.667075 0
M  V30 4772 H 450.549 2.5069 0.450196 0
M  V30 4773 H 451.332 3.2732 -1.0352 0
M  V30 4774 N 453.777 0.010035 1.57597 0
M  V30 4775 C 455.023 -0.673697 1.91283 0
M  V30 4776 C 455.356 -1.72863 0.884979 0
M  V30 4777 O 454.631 -1.94268 -0.0949487 0
M  V30 4778 C 454.914 -1.30766 3.35518 0
M  V30 4779 C 454.767 -0.263578 4.49027 0
M  V30 4780 C 456.086 -2.23105 3.79358 0
M  V30 4781 H 453.205 -0.243439 0.695634 0
M  V30 4782 H 455.847 0.0633864 1.89894 0
M  V30 4783 H 453.997 -1.93588 3.36832 0
M  V30 4784 H 455.669 0.365738 4.59848 0
M  V30 4785 H 453.912 0.413077 4.31829 0
M  V30 4786 H 454.583 -0.746398 5.4693 0
M  V30 4787 H 457.059 -1.70289 3.79659 0
M  V30 4788 H 455.935 -2.64424 4.81011 0
M  V30 4789 H 456.196 -3.11433 3.13787 0
M  V30 4790 N 455.255 -1.55392 -0.262866 0
M  V30 4791 C 456.203 -1.8977 -1.345 0
M  V30 4792 C 457.197 -0.775063 -1.50629 0
M  V30 4793 O 458.403 -0.959519 -1.52293 0
M  V30 4794 H 454.778 -0.602467 -0.450041 0
M  V30 4795 H 456.749 -2.80147 -1.02762 0
M  V30 4796 C 455.498 -2.19501 -2.69657 0
M  V30 4797 H 454.821 -3.05378 -2.5804 0
M  V30 4798 H 456.261 -2.47469 -3.44289 0
M  V30 4799 C 454.72 -1.00597 -3.21531 0
M  V30 4800 O 455.25 -0.245768 -4.00947 0
M  V30 4801 N 453.456 -0.800911 -2.79345 0
M  V30 4802 H 453.003 -1.42079 -2.14875 0
M  V30 4803 H 452.961 -0.00697996 -3.14399 0
M  V30 4804 N 456.733 0.527833 -1.48498 0
M  V30 4805 C 458.01 1.28905 -1.47115 0
M  V30 4806 C 458.39 2.10297 -0.184007 0
M  V30 4807 O 457.738 2.12728 0.834218 0
M  V30 4808 C 457.948 2.16866 -2.73441 0
M  V30 4809 C 459.296 2.76936 -3.21857 0
M  V30 4810 O 460.32 2.27152 -2.74373 0
M  V30 4811 O 459.179 3.67496 -4.04486 0
M  V30 4812 H 456.273 0.581918 -0.587623 0
M  V30 4813 H 458.819 0.544311 -1.60734 0
M  V30 4814 H 457.591 1.56521 -3.58632 0
M  V30 4815 H 457.214 2.98583 -2.62553 0
M  V30 4816 N 458.211 1.37122 0.776871 0
M  V30 4817 C 459.439 1.3523 1.5659 0
M  V30 4818 C 459.854 -0.0635518 1.88693 0
M  V30 4819 O 459.211 -1.02394 1.51069 0
M  V30 4820 C 459.262 2.18583 2.8793 0
M  V30 4821 O 458.983 3.5465 2.57206 0
M  V30 4822 C 460.484 2.24612 3.82183 0
M  V30 4823 H 457.704 0.4634 0.485285 0
M  V30 4824 H 460.248 1.80392 0.963266 0
M  V30 4825 H 458.403 1.76943 3.4463 0
M  V30 4826 H 458.817 3.98286 3.41275 0
M  V30 4827 H 460.291 2.87267 4.71361 0
M  V30 4828 H 460.768 1.25309 4.20944 0
M  V30 4829 H 461.374 2.66543 3.31414 0
M  V30 4830 N 459.689 -1.00246 1.21608 0
M  V30 4831 C 460.936 -1.74061 1.03485 0
M  V30 4832 C 461.264 -1.89658 -0.431308 0
M  V30 4833 O 460.519 -1.42976 -1.33627 0
M  V30 4834 C 460.818 -3.15448 1.68009 0
M  V30 4835 C 460.484 -3.19792 3.17874 0
M  V30 4836 C 459.146 -3.20685 3.58768 0
M  V30 4837 C 461.498 -3.16835 4.13842 0
M  V30 4838 C 458.826 -3.16309 4.94131 0
M  V30 4839 C 461.178 -3.14001 5.49169 0
M  V30 4840 C 459.842 -3.13204 5.89457 0
M  V30 4841 H 459.112 -0.636934 0.378677 0
M  V30 4842 H 461.759 -1.17473 1.51236 0
M  V30 4843 H 460.064 -3.75284 1.12557 0
M  V30 4844 H 461.761 -3.71285 1.51487 0
M  V30 4845 H 458.351 -3.19842 2.85305 0
M  V30 4846 H 462.535 -3.15303 3.83272 0
M  V30 4847 H 457.791 -3.14032 5.24589 0
M  V30 4848 H 461.965 -3.10667 6.23265 0
M  V30 4849 H 459.592 -3.09568 6.94314 0
M  V30 4850 N 461.167 -1.02423 -1.1978 0
M  V30 4851 C 462.416 -0.713265 -1.88667 0
M  V30 4852 C 462.729 0.7609 -1.80193 0
M  V30 4853 O 463.935 1.18473 -2.44288 0
M  V30 4854 C 462.391 -1.22545 -3.38394 0
M  V30 4855 C 461.999 -2.72706 -3.55437 0
M  V30 4856 C 463.743 -0.990257 -4.12788 0
M  V30 4857 C 461.65 -3.17367 -4.99031 0
M  V30 4858 H 460.58 -0.263105 -0.706606 0
M  V30 4859 H 463.231 -1.23792 -1.35454 0
M  V30 4860 H 461.613 -0.628732 -3.90977 0
M  V30 4861 H 462.787 -3.37993 -3.13205 0
M  V30 4862 H 461.102 -2.94453 -2.94425 0
M  V30 4863 H 463.699 -1.29926 -5.18675 0
M  V30 4864 H 464.042 0.0730761 -4.16236 0
M  V30 4865 H 464.575 -1.55074 -3.66329 0
M  V30 4866 H 461.314 -4.23009 -5.00743 0
M  V30 4867 H 460.834 -2.56805 -5.42044 0
M  V30 4868 H 462.513 -3.10441 -5.67658 0
M  V30 4869 N 462.645 1.35699 -0.801477 0
M  V30 4870 C 463.555 2.33661 -0.209691 0
M  V30 4871 C 464.571 1.6162 0.644591 0
M  V30 4872 O 465.747 1.93529 0.557545 0
M  V30 4873 C 462.812 3.40816 0.636033 0
M  V30 4874 C 461.873 4.28639 -0.238147 0
M  V30 4875 C 461.106 5.30676 0.567307 0
M  V30 4876 O 461.329 5.41174 1.8024 0
M  V30 4877 O 460.263 6.01887 -0.0391336 0
M  V30 4878 H 464.089 2.8606 -1.01996 0
M  V30 4879 H 461.674 1.38379 -0.563164 0
M  V30 4880 H 463.556 4.06301 1.11791 0
M  V30 4881 H 462.231 2.90696 1.42399 0
M  V30 4882 H 461.138 3.66152 -0.767044 0
M  V30 4883 H 462.471 4.82143 -0.989915 0
M  V30 4884 N 464.123 0.554532 1.47522 0
M  V30 4885 C 465.053 -0.182974 2.32782 0
M  V30 4886 C 466.034 -0.911377 1.43624 0
M  V30 4887 O 467.219 -0.892366 1.72483 0
M  V30 4888 C 464.349 -1.21513 3.25349 0
M  V30 4889 C 463.303 -0.603355 4.23726 0
M  V30 4890 C 462.629 -1.73995 5.05598 0
M  V30 4891 C 463.929 0.441121 5.20434 0
M  V30 4892 H 465.623 0.52882 2.94693 0
M  V30 4893 H 463.169 0.255759 1.41711 0
M  V30 4894 H 465.122 -1.73922 3.83835 0
M  V30 4895 H 463.846 -1.95683 2.61487 0
M  V30 4896 H 462.505 -0.10059 3.66462 0
M  V30 4897 H 462.153 -2.47063 4.38143 0
M  V30 4898 H 461.853 -1.3364 5.72201 0
M  V30 4899 H 463.377 -2.26735 5.66942 0
M  V30 4900 H 464.791 0.00319931 5.733 0
M  V30 4901 H 463.188 0.763402 5.95224 0
M  V30 4902 H 464.258 1.33799 4.66075 0
M  V30 4903 N 465.601 -1.54893 0.290851 0
M  V30 4904 C 466.847 -2.0023 -0.321867 0
M  V30 4905 C 467.18 -1.179 -1.54316 0
M  V30 4906 O 466.455 -0.25293 -1.92848 0
M  V30 4907 C 466.738 -3.53456 -0.688515 0
M  V30 4908 C 466.591 -4.46532 0.541209 0
M  V30 4909 C 467.91 -4.13057 -1.51895 0
M  V30 4910 H 465.029 -0.727891 -0.115515 0
M  V30 4911 H 467.671 -1.85722 0.400931 0
M  V30 4912 H 465.821 -3.6595 -1.30433 0
M  V30 4913 H 467.493 -4.4596 1.17973 0
M  V30 4914 H 465.736 -4.17545 1.17636 0
M  V30 4915 H 466.407 -5.51475 0.240675 0
M  V30 4916 H 468.883 -4.03937 -0.99872 0
M  V30 4917 H 467.759 -5.20448 -1.74429 0
M  V30 4918 H 468.02 -3.64284 -2.50498 0
M  V30 4919 N 467.08 -0.0183926 -1.57589 0
M  V30 4920 C 468.496 0.337897 -1.55982 0
M  V30 4921 C 468.696 1.73604 -1.02294 0
M  V30 4922 O 467.752 2.43589 -0.664895 0
M  V30 4923 C 469.065 0.196305 -3.00059 0
M  V30 4924 C 470.613 0.269875 -3.11834 0
M  V30 4925 C 471.088 0.157197 -4.5773 0
M  V30 4926 N 472.579 0.214521 -4.62703 0
M  V30 4927 C 473.314 0.150955 -5.73201 0
M  V30 4928 N 472.81 0.0369212 -6.9279 0
M  V30 4929 N 474.603 0.204162 -5.61729 0
M  V30 4930 H 466.754 -0.93279 -1.90821 0
M  V30 4931 H 469.017 -0.359253 -0.877292 0
M  V30 4932 H 468.723 -0.766383 -3.43248 0
M  V30 4933 H 468.597 0.970908 -3.6449 0
M  V30 4934 H 470.984 1.22302 -2.68563 0
M  V30 4935 H 471.065 -0.534918 -2.50144 0
M  V30 4936 H 470.709 -0.792479 -5.01679 0
M  V30 4937 H 470.639 0.980717 -5.17387 0
M  V30 4938 H 473.13 0.303238 -3.76681 0
M  V30 4939 H 473.443 -0.00518321 -7.728 0
M  V30 4940 H 471.788 0.0022886 -6.95 0
M  V30 4941 H 474.979 0.291575 -4.67191 0
M  V30 4942 H 475.152 0.15116 -6.47824 0
M  V30 4943 N 468.558 1.5553 0.254621 0
M  V30 4944 C 469.468 1.92789 1.33677 0
M  V30 4945 C 470.484 0.827356 1.53071 0
M  V30 4946 O 471.66 1.12807 1.66843 0
M  V30 4947 C 468.725 2.20827 2.67275 0
M  V30 4948 C 467.786 3.4427 2.5647 0
M  V30 4949 C 467.019 3.70961 3.83697 0
M  V30 4950 O 467.242 2.99852 4.85227 0
M  V30 4951 O 466.176 4.64491 3.82794 0
M  V30 4952 H 470.002 2.84945 1.05071 0
M  V30 4953 H 467.587 1.42312 0.454723 0
M  V30 4954 H 469.469 2.40204 3.46237 0
M  V30 4955 H 468.144 1.31851 2.9563 0
M  V30 4956 H 467.051 3.30209 1.75821 0
M  V30 4957 H 468.384 4.33524 2.33062 0
M  V30 4958 N 470.036 -0.519951 1.48776 0
M  V30 4959 C 470.946 -1.65025 1.66745 0
M  V30 4960 C 471.962 -1.6508 0.549954 0
M  V30 4961 O 473.138 -1.83848 0.822295 0
M  V30 4962 C 470.203 -3.0146 1.71238 0
M  V30 4963 C 469.264 -3.12182 2.94688 0
M  V30 4964 C 468.497 -4.42109 2.98958 0
M  V30 4965 O 468.72 -5.29799 2.1135 0
M  V30 4966 O 467.654 -4.57406 3.91233 0
M  V30 4967 H 471.48 -1.52801 2.62461 0
M  V30 4968 H 469.065 -0.694157 1.32294 0
M  V30 4969 H 470.947 -3.82584 1.76657 0
M  V30 4970 H 469.622 -3.13988 0.786975 0
M  V30 4971 H 468.529 -2.30316 2.94797 0
M  V30 4972 H 469.862 -3.04574 3.86646 0
M  V30 4973 N 471.514 -1.37532 -0.769588 0
M  V30 4974 C 472.446 -1.29347 -1.89214 0
M  V30 4975 C 473.459 -0.208842 -1.61455 0
M  V30 4976 O 474.648 -0.465158 -1.72333 0
M  V30 4977 C 471.748 -0.977649 -3.24492 0
M  V30 4978 C 470.921 -2.16817 -3.7988 0
M  V30 4979 C 469.98 -1.82229 -4.93639 0
M  V30 4980 O 469.006 -2.54548 -5.09111 0
M  V30 4981 N 470.208 -0.767696 -5.75401 0
M  V30 4982 H 472.973 -2.26073 -1.96751 0
M  V30 4983 H 470.534 -1.31185 -0.948795 0
M  V30 4984 H 472.526 -0.727065 -3.98115 0
M  V30 4985 H 471.096 -0.0988777 -3.12444 0
M  V30 4986 H 470.316 -2.58038 -2.9801 0
M  V30 4987 H 471.604 -2.96308 -4.13617 0
M  V30 4988 H 471.002 -0.167626 -5.65452 0
M  V30 4989 H 469.559 -0.576973 -6.49241 0
M  V30 4990 N 472.992 0.995999 -1.22138 0
M  V30 4991 C 473.924 2.08745 -0.946485 0
M  V30 4992 C 474.937 1.62633 0.0737356 0
M  V30 4993 O 476.126 1.77782 -0.159886 0
M  V30 4994 C 473.226 3.36516 -0.401305 0
M  V30 4995 C 472.399 4.11672 -1.47801 0
M  V30 4996 C 471.458 5.17728 -0.940461 0
M  V30 4997 O 470.484 5.45482 -1.62596 0
M  V30 4998 N 471.686 5.80005 0.239723 0
M  V30 4999 H 474.451 2.32908 -1.88611 0
M  V30 5000 H 472.012 1.16152 -1.12785 0
M  V30 5001 H 474.004 4.04691 -0.0270837 0
M  V30 5002 H 472.574 3.0944 0.443354 0
M  V30 5003 H 471.794 3.38171 -2.02568 0
M  V30 5004 H 473.082 4.58657 -2.20253 0
M  V30 5005 H 472.48 5.5982 0.813518 0
M  V30 5006 H 471.037 6.4943 0.555361 0
M  V30 5007 N 474.47 1.03057 1.19235 0
M  V30 5008 C 475.716 0.729098 1.89241 0
M  V30 5009 C 476.049 -0.740573 1.79525 0
M  V30 5010 O 475.324 -1.53946 1.18874 0
M  V30 5011 C 475.607 1.18304 3.40112 0
M  V30 5012 C 475.46 2.71406 3.5869 0
M  V30 5013 C 476.779 0.765161 4.33397 0
M  V30 5014 H 473.898 0.266338 0.687192 0
M  V30 5015 H 476.54 1.28079 1.40341 0
M  V30 5016 H 474.69 0.713672 3.81889 0
M  V30 5017 H 476.362 3.26303 3.26074 0
M  V30 5018 H 474.605 3.11717 3.01687 0
M  V30 5019 H 475.276 2.98225 4.64506 0
M  V30 5020 H 477.752 1.16889 3.99345 0
M  V30 5021 H 476.628 1.11065 5.37546 0
M  V30 5022 H 476.889 -0.332372 4.40849 0
M  V30 5023 N 475.948 -1.35272 0.808662 0
M  V30 5024 C 476.911 -2.28082 0.226093 0
M  V30 5025 C 477.911 -1.49673 -0.587762 0
M  V30 5026 O 479.101 -1.69404 -0.405943 0
M  V30 5027 C 476.233 -3.33955 -0.684596 0
M  V30 5028 H 477.426 -2.81116 1.04469 0
M  V30 5029 H 474.979 -1.45162 0.579466 0
M  V30 5030 H 475.714 -2.86111 -1.5268 0
M  V30 5031 H 475.499 -3.91965 -0.102699 0
M  V30 5032 H 476.989 -4.03219 -1.08646 0
M  V30 5033 N 477.426 -0.562348 -1.47226 0
M  V30 5034 C 478.336 0.185466 -2.33866 0
M  V30 5035 C 479.352 0.906713 -1.48508 0
M  V30 5036 O 480.528 0.874458 -1.81425 0
M  V30 5037 C 477.593 1.19904 -3.25306 0
M  V30 5038 C 476.654 0.484669 -4.26555 0
M  V30 5039 C 475.887 1.44996 -5.13626 0
M  V30 5040 O 476.11 2.68515 -5.03245 0
M  V30 5041 O 475.044 0.971642 -5.94006 0
M  V30 5042 H 478.87 -0.525361 -2.99121 0
M  V30 5043 H 476.455 -0.322916 -1.45868 0
M  V30 5044 H 478.337 1.78399 -3.81774 0
M  V30 5045 H 477.012 1.8917 -2.62672 0
M  V30 5046 H 475.919 -0.141605 -3.73832 0
M  V30 5047 H 477.252 -0.166634 -4.91918 0
M  V30 5048 N 478.904 1.54736 -0.299062 0
M  V30 5049 C 480.129 2.04975 0.316254 0
M  V30 5050 C 480.554 1.17501 1.46885 0
M  V30 5051 O 479.912 0.178678 1.80417 0
M  V30 5052 C 479.96 3.52672 0.751997 0
M  V30 5053 O 479.064 3.68226 1.85697 0
M  V30 5054 H 478.405 0.661126 0.0617175 0
M  V30 5055 H 480.935 1.99805 -0.440341 0
M  V30 5056 H 480.945 3.94488 1.04133 0
M  V30 5057 H 479.62 4.158 -0.0911482 0
M  V30 5058 H 478.197 3.38316 1.56834 0
M  V30 5059 N 480.382 0.0267497 1.57577 0
M  V30 5060 C 481.631 -0.651736 1.9088 0
M  V30 5061 C 481.944 -1.73427 0.904576 0
M  V30 5062 O 483.15 -2.46923 1.12877 0
M  V30 5063 C 481.606 -1.21048 3.38933 0
M  V30 5064 C 481.214 -0.161362 4.47709 0
M  V30 5065 C 482.958 -1.86562 3.81307 0
M  V30 5066 C 480.865 -0.731611 5.86857 0
M  V30 5067 H 479.795 -0.247198 0.712326 0
M  V30 5068 H 482.446 0.0916641 1.83271 0
M  V30 5069 H 480.828 -2.00542 3.41466 0
M  V30 5070 H 482.002 0.61094 4.56732 0
M  V30 5071 H 480.317 0.394877 4.14523 0
M  V30 5072 H 482.914 -2.30178 4.8262 0
M  V30 5073 H 483.257 -2.70735 3.16241 0
M  V30 5074 H 483.79 -1.13762 3.81186 0
M  V30 5075 H 480.529 0.0719329 6.55461 0
M  V30 5076 H 480.049 -1.47245 5.81445 0
M  V30 5077 H 481.728 -1.22208 6.35354 0
M  V30 5078 N 481.861 -1.55662 -0.24637 0
M  V30 5079 C 482.824 -1.89558 -1.28842 0
M  V30 5080 C 483.824 -0.772082 -1.41052 0
M  V30 5081 O 485.014 -1.04007 -1.39743 0
M  V30 5082 C 482.146 -2.12449 -2.66605 0
M  V30 5083 H 483.339 -2.82735 -1.00004 0
M  V30 5084 H 480.892 -1.48562 -0.485684 0
M  V30 5085 H 481.627 -1.21742 -3.00582 0
M  V30 5086 H 481.412 -2.94273 -2.59125 0
M  V30 5087 H 482.902 -2.39854 -3.41847 0
M  V30 5088 N 483.339 0.512053 -1.4905 0
M  V30 5089 C 484.269 1.62365 -1.67809 0
M  V30 5090 C 485.25 1.61737 -0.526809 0
M  V30 5091 O 486.435 1.78651 -0.761404 0
M  V30 5092 C 483.565 3.00895 -1.73435 0
M  V30 5093 C 482.519 3.16387 -2.88242 0
M  V30 5094 C 481.845 4.56157 -2.78971 0
M  V30 5095 C 483.145 2.97457 -4.29321 0
M  V30 5096 H 484.839 1.46921 -2.60873 0
M  V30 5097 H 482.385 0.705379 -1.2554 0
M  V30 5098 H 484.338 3.78549 -1.85145 0
M  V30 5099 H 483.062 3.17403 -0.769619 0
M  V30 5100 H 481.721 2.41155 -2.76116 0
M  V30 5101 H 481.369 4.69525 -1.8043 0
M  V30 5102 H 481.069 4.67465 -3.5602 0
M  V30 5103 H 482.593 5.35886 -2.92675 0
M  V30 5104 H 484.007 3.64888 -4.42187 0
M  V30 5105 H 482.404 3.20245 -5.07507 0
M  V30 5106 H 483.474 1.93692 -4.44535 0
M  V30 5107 N 484.817 1.37938 0.762283 0
M  V30 5108 C 486.045 1.36883 1.55147 0
M  V30 5109 C 486.46 -0.0435348 1.8875 0
M  V30 5110 O 485.817 -1.00786 1.52146 0
M  V30 5111 C 485.868 2.21624 2.85596 0
M  V30 5112 O 485.589 3.57358 2.5343 0
M  V30 5113 C 487.09 2.28653 3.7978 0
M  V30 5114 H 484.31 0.468521 0.480343 0
M  V30 5115 H 486.854 1.81404 0.944079 0
M  V30 5116 H 485.009 1.80588 3.42734 0
M  V30 5117 H 485.423 4.01883 3.37032 0
M  V30 5118 H 486.897 2.9225 4.68288 0
M  V30 5119 H 487.374 1.29767 4.19592 0
M  V30 5120 H 487.98 2.70043 3.28568 0
M  V30 5121 N 486.295 -0.989507 1.22664 0
M  V30 5122 C 487.572 -1.70326 0.961688 0
M  V30 5123 C 487.952 -2.04537 -0.522279 0
M  V30 5124 O 487.3 -1.73136 -1.49118 0
M  V30 5125 C 487.51 -2.95135 1.86269 0
M  V30 5126 C 488.858 -3.67842 2.12078 0
M  V30 5127 O 489.882 -3.0515 1.83745 0
M  V30 5128 O 488.741 -4.80644 2.60083 0
M  V30 5129 H 485.835 -0.743589 0.361946 0
M  V30 5130 H 488.381 -1.04555 1.33665 0
M  V30 5131 H 487.153 -2.66382 2.8663 0
M  V30 5132 H 486.776 -3.68645 1.48952 0
M  V30 5133 N 487.773 -1.03688 -1.18687 0
M  V30 5134 C 489.05 -0.652397 -1.84399 0
M  V30 5135 C 489.43 0.868386 -1.92412 0
M  V30 5136 O 488.778 1.76832 -1.44716 0
M  V30 5137 C 488.988 -1.3238 -3.22919 0
M  V30 5138 C 490.336 -1.45216 -3.98996 0
M  V30 5139 O 491.36 -1.2816 -3.32345 0
M  V30 5140 O 490.219 -1.72975 -5.18403 0
M  V30 5141 H 487.313 -0.227793 -0.795009 0
M  V30 5142 H 489.859 -1.13553 -1.2611 0
M  V30 5143 H 488.631 -2.36202 -3.11968 0
M  V30 5144 H 488.254 -0.829039 -3.88861 0
M  V30 5145 N 489.251 1.34841 -0.815825 0
M  V30 5146 C 490.479 2.0273 -0.413294 0
M  V30 5147 C 490.894 1.61459 0.978599 0
M  V30 5148 O 490.251 0.816584 1.63212 0
M  V30 5149 C 490.302 3.58058 -0.497676 0
M  V30 5150 O 490.023 3.97832 -1.8347 0
M  V30 5151 C 491.524 4.4321 -0.0891339 0
M  V30 5152 H 488.744 0.649956 -0.166728 0
M  V30 5153 H 491.288 1.72267 -1.10201 0
M  V30 5154 H 489.443 3.87136 0.142886 0
M  V30 5155 H 489.857 4.92501 -1.80396 0
M  V30 5156 H 491.331 5.5164 -0.199274 0
M  V30 5157 H 491.808 4.28432 0.966571 0
M  V30 5158 H 492.414 4.19446 -0.703214 0
M  V30 5159 N 490.729 0.570148 1.46925 0
M  V30 5160 C 491.659 -0.158274 2.32963 0
M  V30 5161 C 492.64 -0.896093 1.44583 0
M  V30 5162 O 493.825 -0.874022 1.7342 0
M  V30 5163 C 490.955 -1.18055 3.26619 0
M  V30 5164 C 489.909 -0.558379 4.24342 0
M  V30 5165 C 489.235 -1.68623 5.07415 0
M  V30 5166 C 490.535 0.496295 5.19937 0
M  V30 5167 H 492.229 0.560046 2.94115 0
M  V30 5168 H 489.775 0.270775 1.41431 0
M  V30 5169 H 491.728 -1.69841 3.85658 0
M  V30 5170 H 490.452 -1.92899 2.63548 0
M  V30 5171 H 489.111 -0.0617157 3.66548 0
M  V30 5172 H 488.759 -2.42402 4.40738 0
M  V30 5173 H 488.459 -1.27564 5.73586 0
M  V30 5174 H 489.983 -2.20709 5.69315 0
M  V30 5175 H 491.397 0.0640052 5.73264 0
M  V30 5176 H 489.794 0.82649 5.94381 0
M  V30 5177 H 490.864 1.38735 4.6463 0
M  V30 5178 N 492.207 -1.54576 0.307264 0
M  V30 5179 C 493.453 -2.0056 -0.300612 0
M  V30 5180 C 493.786 -1.1953 -1.53057 0
M  V30 5181 O 493.061 -0.27337 -1.92569 0
M  V30 5182 C 493.344 -3.54167 -0.650987 0
M  V30 5183 C 493.197 -4.45933 0.588539 0
M  V30 5184 C 494.516 -4.14645 -1.47506 0
M  V30 5185 H 491.635 -0.729075 -0.107788 0
M  V30 5186 H 494.277 -1.85286 0.420606 0
M  V30 5187 H 492.427 -3.67313 -1.26544 0
M  V30 5188 H 494.099 -4.44683 1.22697 0
M  V30 5189 H 492.342 -4.16274 1.22058 0
M  V30 5190 H 493.013 -5.51189 0.299153 0
M  V30 5191 H 495.489 -4.04973 -0.955821 0
M  V30 5192 H 494.365 -5.22269 -1.68899 0
M  V30 5193 H 494.626 -3.66921 -2.4662 0
M  V30 5194 N 493.685 -0.035106 -1.57561 0
M  V30 5195 C 495.096 0.502885 -1.798 0
M  V30 5196 C 495.447 1.71892 -0.945921 0
M  V30 5197 O 494.572 2.15822 -0.157991 0
M  V30 5198 C 495.167 0.919097 -3.26095 0
M  V30 5199 C 493.726 1.40216 -3.49308 0
M  V30 5200 C 492.873 0.369709 -2.74824 0
M  V30 5201 H 495.824 -0.261102 -1.56537 0
M  V30 5202 H 495.845 1.78308 -3.36135 0
M  V30 5203 H 495.357 0.0338526 -3.88085 0
M  V30 5204 H 493.458 2.30714 -2.92578 0
M  V30 5205 H 493.571 1.40541 -4.58023 0
M  V30 5206 H 491.935 0.839113 -2.40481 0
M  V30 5207 H 492.718 -0.507173 -3.39533 0
M  V30 5208 N 495.163 1.55791 0.238111 0
M  V30 5209 C 496.41 1.78033 0.964907 0
M  V30 5210 C 496.738 0.600984 1.84982 0
M  V30 5211 O 495.993 -0.41536 1.91241 0
M  V30 5212 C 496.292 3.05869 1.84875 0
M  V30 5213 C 495.958 4.36808 1.11846 0
M  V30 5214 C 494.62 4.72388 0.916662 0
M  V30 5215 C 496.972 5.17717 0.60151 0
M  V30 5216 C 494.3 5.86406 0.185756 0
M  V30 5217 C 496.652 6.32494 -0.115972 0
M  V30 5218 C 495.316 6.66688 -0.329168 0
M  V30 5219 H 494.586 0.651469 0.353085 0
M  V30 5220 H 497.233 1.90061 0.234318 0
M  V30 5221 H 495.538 2.88891 2.64668 0
M  V30 5222 H 497.235 3.20278 2.41294 0
M  V30 5223 H 493.825 4.08862 1.28569 0
M  V30 5224 H 498.009 4.90678 0.744932 0
M  V30 5225 H 493.265 6.11399 0.0101886 0
M  V30 5226 H 497.439 6.94425 -0.524127 0
M  V30 5227 H 495.066 7.54884 -0.897474 0
M  V30 5228 N 496.642 -0.504142 1.49319 0
M  V30 5229 C 497.572 -1.61473 1.68667 0
M  V30 5230 C 498.553 -1.61455 0.535378 0
M  V30 5231 O 499.738 -1.78245 0.770868 0
M  V30 5232 C 496.868 -2.99971 1.75028 0
M  V30 5233 C 495.822 -3.14854 2.89916 0
M  V30 5234 C 495.148 -4.54671 2.81387 0
M  V30 5235 C 496.448 -2.95176 4.30893 0
M  V30 5236 H 498.142 -1.45535 2.61648 0
M  V30 5237 H 495.688 -0.698711 1.25913 0
M  V30 5238 H 497.641 -3.77562 1.8715 0
M  V30 5239 H 496.365 -3.1699 0.786441 0
M  V30 5240 H 495.024 -2.39687 2.77391 0
M  V30 5241 H 494.672 -4.68562 1.82917 0
M  V30 5242 H 494.372 -4.6557 3.58494 0
M  V30 5243 H 495.896 -5.34327 2.95512 0
M  V30 5244 H 497.31 -3.62538 4.44116 0
M  V30 5245 H 495.707 -3.17549 5.09198 0
M  V30 5246 H 496.777 -1.91332 4.45556 0
M  V30 5247 N 498.12 -1.38341 -0.754957 0
M  V30 5248 C 499.083 -1.35262 -1.85032 0
M  V30 5249 C 500.083 -0.253393 -1.58791 0
M  V30 5250 O 501.273 -0.510205 -1.66561 0
M  V30 5251 C 498.405 -1.10544 -3.22479 0
M  V30 5252 H 499.598 -2.32712 -1.8917 0
M  V30 5253 H 497.151 -1.23614 -0.956515 0
M  V30 5254 H 497.886 -0.136952 -3.24011 0
M  V30 5255 H 497.671 -1.90127 -3.4292 0
M  V30 5256 H 499.161 -1.11082 -4.02555 0
M  V30 5257 N 499.598 0.982988 -1.23187 0
M  V30 5258 C 500.846 1.72052 -1.06031 0
M  V30 5259 C 501.167 1.90769 0.404019 0
M  V30 5260 O 500.437 1.47446 1.28982 0
M  V30 5261 H 499.017 0.637499 -0.389363 0
M  V30 5262 H 501.679 1.18338 -1.54862 0
M  V30 5263 H 500.775 2.7111 -1.54615 0
M  V30 5264 N 501.076 1.04316 1.18135 0
M  V30 5265 C 501.986 0.646876 2.25505 0
M  V30 5266 C 503.002 -0.328008 1.7088 0
M  V30 5267 O 504.178 -0.182309 2.00573 0
M  V30 5268 C 501.243 0.0185664 3.46695 0
M  V30 5269 C 500.304 1.04277 4.16443 0
M  V30 5270 C 499.537 0.444352 5.31847 0
M  V30 5271 O 499.76 -0.748735 5.65465 0
M  V30 5272 O 498.694 1.17428 5.90334 0
M  V30 5273 H 502.52 1.54147 2.61672 0
M  V30 5274 H 500.105 0.814188 1.25265 0
M  V30 5275 H 501.987 -0.331068 4.20097 0
M  V30 5276 H 500.662 -0.849814 3.12346 0
M  V30 5277 H 499.569 1.44425 3.45098 0
M  V30 5278 H 500.902 1.882 4.54798 0
M  V30 5279 N 502.554 -1.34406 0.822964 0
M  V30 5280 C 503.782 -2.02508 0.424039 0
M  V30 5281 C 504.197 -1.61975 -0.970022 0
M  V30 5282 O 503.554 -0.825228 -1.62777 0
M  V30 5283 C 503.605 -3.57789 0.516657 0
M  V30 5284 O 503.326 -3.96853 1.85577 0
M  V30 5285 C 504.827 -4.43157 0.112637 0
M  V30 5286 H 502.047 -0.649063 0.170173 0
M  V30 5287 H 504.591 -1.7168 1.11113 0
M  V30 5288 H 502.746 -3.87207 -0.122353 0
M  V30 5289 H 503.16 -4.91538 1.83005 0
M  V30 5290 H 504.634 -5.51527 0.228526 0
M  V30 5291 H 505.111 -4.28939 -0.943837 0
M  V30 5292 H 505.717 -4.19067 0.725449 0
M  V30 5293 N 504.032 -0.577932 -1.46621 0
M  V30 5294 C 505.278 -0.0617793 -2.02706 0
M  V30 5295 C 505.611 1.29294 -1.44903 0
M  V30 5296 O 504.886 1.8461 -0.61232 0
M  V30 5297 C 505.169 0.00911824 -3.60099 0
M  V30 5298 C 505.022 -1.37416 -4.28295 0
M  V30 5299 C 506.341 0.712159 -4.343 0
M  V30 5300 H 503.46 -0.0239246 -0.736612 0
M  V30 5301 H 506.102 -0.744211 -1.74818 0
M  V30 5302 H 504.252 0.590292 -3.83989 0
M  V30 5303 H 505.924 -2.00013 -4.15683 0
M  V30 5304 H 504.167 -1.94319 -3.87843 0
M  V30 5305 H 504.838 -1.27707 -5.37024 0
M  V30 5306 H 507.314 0.218486 -4.15526 0
M  V30 5307 H 506.19 0.730782 -5.44014 0
M  V30 5308 H 506.451 1.77251 -4.05012 0
M  V30 5309 N 505.51 1.54411 -0.315457 0
M  V30 5310 C 506.926 1.59556 0.037464 0
M  V30 5311 C 507.126 1.33217 1.5118 0
M  V30 5312 O 506.182 1.11264 2.26664 0
M  V30 5313 C 507.495 2.98372 -0.373477 0
M  V30 5314 C 509.043 3.11324 -0.323452 0
M  V30 5315 C 509.518 4.52472 -0.709433 0
M  V30 5316 N 511.009 4.58437 -0.662524 0
M  V30 5317 C 511.744 5.65751 -0.933474 0
M  V30 5318 N 511.24 6.81039 -1.27114 0
M  V30 5319 N 513.033 5.55489 -0.859573 0
M  V30 5320 H 505.184 1.6979 -1.27614 0
M  V30 5321 H 507.447 0.793732 -0.518356 0
M  V30 5322 H 507.153 3.22618 -1.40037 0
M  V30 5323 H 507.027 3.76264 0.265615 0
M  V30 5324 H 509.414 2.86818 0.694223 0
M  V30 5325 H 509.495 2.35555 -0.997367 0
M  V30 5326 H 509.139 4.7771 -1.72498 0
M  V30 5327 H 509.069 5.26598 -0.0132923 0
M  V30 5328 H 511.56 3.75636 -0.413065 0
M  V30 5329 H 511.873 7.58816 -1.46348 0
M  V30 5330 H 510.218 6.82555 -1.30932 0
M  V30 5331 H 513.409 4.64299 -0.595324 0
M  V30 5332 H 513.582 6.39036 -1.0741 0
M  V30 5333 N 506.988 0.0434614 1.5754 0
M  V30 5334 C 508.234 -0.627109 1.93491 0
M  V30 5335 C 508.589 -1.68904 0.921362 0
M  V30 5336 O 507.882 -1.91504 -0.0605799 0
M  V30 5337 C 508.076 -1.2738 3.3393 0
M  V30 5338 C 507.905 -0.27603 4.48852 0
M  V30 5339 C 506.675 0.129244 5.05135 0
M  V30 5340 C 508.873 0.475462 5.12098 0
M  V30 5341 N 506.855 1.12068 6.03584 0
M  V30 5342 C 508.226 1.32021 6.05781 0
M  V30 5343 C 510.281 0.534611 4.95022 0
M  V30 5344 C 508.984 2.2188 6.84223 0
M  V30 5345 C 511.01 1.42059 5.74085 0
M  V30 5346 C 510.372 2.25309 6.67394 0
M  V30 5347 H 506.471 -0.201354 0.755633 0
M  V30 5348 H 509.055 0.113991 1.94366 0
M  V30 5349 H 507.226 -1.98496 3.33847 0
M  V30 5350 H 508.958 -1.90255 3.57191 0
M  V30 5351 H 505.713 -0.248145 4.72949 0
M  V30 5352 H 506.137 1.61306 6.57502 0
M  V30 5353 H 510.779 -0.0947817 4.22694 0
M  V30 5354 H 508.497 2.85868 7.55847 0
M  V30 5355 H 512.083 1.47083 5.62901 0
M  V30 5356 H 510.963 2.92754 7.27506 0
M  V30 5357 N 508.466 -1.55915 -0.229846 0
M  V30 5358 C 509.691 -1.8296 -0.976743 0
M  V30 5359 C 510.116 -0.622735 -1.77493 0
M  V30 5360 O 509.474 0.428431 -1.76165 0
M  V30 5361 C 509.522 -3.07916 -1.8767 0
M  V30 5362 O 508.626 -2.86028 -2.97088 0
M  V30 5363 H 507.967 -0.603453 -0.277021 0
M  V30 5364 H 510.497 -2.0312 -0.245669 0
M  V30 5365 H 510.507 -3.37802 -2.2881 0
M  V30 5366 H 509.182 -3.95389 -1.28996 0
M  V30 5367 H 507.759 -2.67355 -2.59954 0
M  V30 5368 N 509.944 0.496216 -1.49584 0
M  V30 5369 C 511.19 1.25189 -1.59548 0
M  V30 5370 C 511.523 1.9212 -0.283466 0
M  V30 5371 O 510.798 1.80947 0.713324 0
M  V30 5372 C 511.081 2.31516 -2.75812 0
M  V30 5373 C 510.934 1.69054 -4.16822 0
M  V30 5374 C 512.253 3.3304 -2.87702 0
M  V30 5375 H 509.372 0.45379 -0.580727 0
M  V30 5376 H 512.014 0.549327 -1.81886 0
M  V30 5377 H 510.164 2.91438 -2.56897 0
M  V30 5378 H 511.836 1.12923 -4.47265 0
M  V30 5379 H 510.079 0.994485 -4.22247 0
M  V30 5380 H 510.75 2.462 -4.94054 0
M  V30 5381 H 513.226 2.83114 -3.04936 0
M  V30 5382 H 512.102 4.04794 -3.7072 0
M  V30 5383 H 512.363 3.95655 -1.97255 0
M  V30 5384 N 511.423 1.38739 0.74761 0
M  V30 5385 C 512.37 1.36449 1.86146 0
M  V30 5386 C 513.34 0.226098 1.64554 0
M  V30 5387 O 514.525 0.41926 1.86137 0
M  V30 5388 C 511.665 1.2013 3.23516 0
M  V30 5389 C 510.778 2.43407 3.56899 0
M  V30 5390 C 509.913 2.19773 4.83605 0
M  V30 5391 C 508.952 3.3879 5.09792 0
M  V30 5392 N 508.089 3.14553 6.27695 0
M  V30 5393 H 512.929 2.3167 1.87438 0
M  V30 5394 H 510.466 1.15094 0.916063 0
M  V30 5395 H 512.424 1.08683 4.02795 0
M  V30 5396 H 511.054 0.285453 3.21535 0
M  V30 5397 H 510.106 2.65504 2.72418 0
M  V30 5398 H 511.418 3.32094 3.72176 0
M  V30 5399 H 510.572 2.05496 5.70838 0
M  V30 5400 H 509.311 1.28461 4.70478 0
M  V30 5401 H 508.316 3.53579 4.21025 0
M  V30 5402 H 509.541 4.30986 5.24812 0
M  V30 5403 H 507.487 2.25893 6.1588 0
M  V30 5404 H 507.404 3.96791 6.435 0
M  V30 5405 H 508.672 3.03943 7.17801 0
M  V30 5406 N 512.901 -0.976442 1.23707 0
M  V30 5407 C 513.833 -2.07212 0.979574 0
M  V30 5408 C 514.846 -1.6273 -0.0478528 0
M  V30 5409 O 516.035 -1.77506 0.18815 0
M  V30 5410 C 513.135 -3.35835 0.45479 0
M  V30 5411 C 512.308 -4.09268 1.54331 0
M  V30 5412 C 511.367 -5.16166 1.02271 0
M  V30 5413 O 510.393 -5.42827 1.71254 0
M  V30 5414 N 511.595 -5.80313 -0.147419 0
M  V30 5415 H 514.36 -2.29878 1.92292 0
M  V30 5416 H 511.921 -1.14343 1.14618 0
M  V30 5417 H 513.913 -4.04597 0.0914631 0
M  V30 5418 H 512.483 -3.10106 -0.394068 0
M  V30 5419 H 511.703 -3.34906 2.07923 0
M  V30 5420 H 512.991 -4.55095 2.27522 0
M  V30 5421 H 512.389 -5.61043 -0.724353 0
M  V30 5422 H 510.946 -6.50231 -0.451972 0
M  V30 5423 O 514.418 -1.17461 -1.10838 0
M  V30 5424 H 515.109 -0.912283 -1.70872 0
M  V30 END ATOM
M  V30 BEGIN BOND
M  V30 END BOND
M  V30 END CTAB
M  END
$$$$
