drugbank_drug|DB00041 Aldesleukin sequence
 OpenBabel12092119123D

  0  0  0     0  0            999 V3000
M  V30 BEGIN CTAB
M  V30 COUNTS 2218 2236 0 0 0
M  V30 BEGIN ATOM
M  V30 1 H -0.908 1.98254 -0.117106 0
M  V30 2 N 0 1.576 0 0
M  V30 3 C 0.933 2.03868 1.02534 0
M  V30 4 C 1.911 0.928543 1.3348 0
M  V30 5 O 3.095 1.19667 1.45644 0
M  V30 6 C 0.222 2.43627 2.35294 0
M  V30 7 C -0.732 3.65373 2.2001 0
M  V30 8 S 0.101 5.13292 1.52614 0
M  V30 9 C 1.257 5.56322 2.86805 0
M  V30 10 H 1.49 2.90518 0.631377 0
M  V30 11 H -0.977 1.52953 0.210867 0
M  V30 12 H 0.981 2.67203 3.11629 0
M  V30 13 H -0.358 1.57376 2.7183 0
M  V30 14 H -1.165 3.90944 3.18086 0
M  V30 15 H -1.563 3.418 1.51819 0
M  V30 16 H 0.729 5.58782 3.83104 0
M  V30 17 H 1.672 6.56266 2.65933 0
M  V30 18 H 2.08 4.83886 2.90714 0
M  V30 19 N 1.4781 -0.272755 1.55222 0
M  V30 20 C 2.4411 -1.32041 1.87344 0
M  V30 21 C 3.4411 -1.42342 0.74803 0
M  V30 22 O 4.6311 -1.41488 1.0162 0
M  V30 23 C 1.7631 -2.70173 2.07893 0
M  V30 24 H 2.9561 -1.04789 2.80997 0
M  V30 25 H 0.5091 -0.51083 1.47717 0
M  V30 26 H 1.2441 -3.02605 1.16622 0
M  V30 27 H 1.0291 -2.64082 2.89833 0
M  V30 28 H 2.5191 -3.45869 2.34017 0
M  V30 29 N 2.9562 -1.48159 -0.537278 0
M  V30 30 C 4.3672 -1.49429 -1.11928 0
M  V30 31 C 4.7182 -0.26 -1.9447 0
M  V30 32 O 3.8432 0.633489 -2.0692 0
M  V30 33 C 4.4382 -2.70758 -2.03656 0
M  V30 34 C 2.9972 -2.74923 -2.57088 0
M  V30 35 C 2.1442 -2.42835 -1.3389 0
M  V30 36 H 5.0952 -1.55381 -0.322886 0
M  V30 37 H 5.1162 -2.48861 -2.87834 0
M  V30 38 H 4.6282 -3.60575 -1.43553 0
M  V30 39 H 2.7292 -1.89296 -3.20933 0
M  V30 40 H 2.8422 -3.76157 -2.9672 0
M  V30 41 H 1.2062 -1.93836 -1.65226 0
M  V30 42 H 1.9892 -3.34884 -0.755504 0
M  V30 43 N 4.4343 0.785586 -1.36625 0
M  V30 44 C 5.6623 1.57448 -1.3423 0
M  V30 45 C 6.0773 1.88649 0.0755653 0
M  V30 46 O 5.4343 1.50414 1.03354 0
M  V30 47 C 5.4853 2.89316 -2.16745 0
M  V30 48 O 5.2063 2.59459 -3.53005 0
M  V30 49 C 6.7073 3.83606 -2.22174 0
M  V30 50 H 3.9273 0.488226 -0.4603 0
M  V30 51 H 6.4713 0.974733 -1.79775 0
M  V30 52 H 4.6263 3.4575 -1.74745 0
M  V30 53 H 5.0403 3.43804 -3.96105 0
M  V30 54 H 6.5143 4.73181 -2.8426 0
M  V30 55 H 6.9913 4.21734 -1.22627 0
M  V30 56 H 7.5973 3.33104 -2.64427 0
M  V30 57 N 5.9124 1.20967 1.01018 0
M  V30 58 C 7.1374 1.0503 1.78839 0
M  V30 59 C 7.5624 -0.395752 1.8389 0
M  V30 60 O 6.9204 -1.28529 1.27867 0
M  V30 61 C 6.9684 1.64602 3.2084 0
M  V30 62 O 6.0724 0.887988 4.02726 0
M  V30 63 H 5.4134 0.369987 0.551367 0
M  V30 64 H 7.9434 1.60399 1.27018 0
M  V30 65 H 7.9534 1.68607 3.71532 0
M  V30 66 H 6.6284 2.69841 3.16479 0
M  V30 67 H 5.2054 0.922648 3.61305 0
M  V30 68 N 7.3905 -1.2043 1.01659 0
M  V30 69 C 8.6155 -1.94318 0.724942 0
M  V30 70 C 9.0405 -1.74266 -0.708034 0
M  V30 71 O 8.3985 -1.03694 -1.48719 0
M  V30 72 C 8.4465 -3.44486 1.06591 0
M  V30 73 O 7.5505 -4.12017 0.177599 0
M  V30 74 H 6.8915 -0.60708 0.26898 0
M  V30 75 H 9.4215 -1.52861 1.35995 0
M  V30 76 H 9.4315 -3.95106 1.01762 0
M  V30 77 H 8.1065 -3.58404 2.10997 0
M  V30 78 H 6.6835 -3.71821 0.283421 0
M  V30 79 N 8.8686 -0.792821 -1.36206 0
M  V30 80 C 10.0936 -0.377701 -2.03932 0
M  V30 81 C 10.5186 0.998947 -1.59382 0
M  V30 82 O 9.8766 1.64421 -0.763903 0
M  V30 83 C 9.9246 -0.453635 -3.57735 0
M  V30 84 O 9.0286 0.538151 -4.08874 0
M  V30 85 H 8.3696 -0.159855 -0.644471 0
M  V30 86 H 10.8996 -1.07488 -1.7409 0
M  V30 87 H 10.9096 -0.318464 -4.06755 0
M  V30 88 H 9.5846 -1.45784 -3.89512 0
M  V30 89 H 8.1616 0.364359 -3.71116 0
M  V30 90 N 10.3467 1.47872 -0.545128 0
M  V30 91 C 11.5747 2.06889 -0.021084 0
M  V30 92 C 11.9897 1.39955 1.2672 0
M  V30 93 O 11.3467 0.492036 1.75742 0
M  V30 94 C 11.3977 3.60996 0.190817 0
M  V30 95 O 11.1187 4.25419 -1.04644 0
M  V30 96 C 12.6197 4.36849 0.753521 0
M  V30 97 H 9.8397 0.669785 -0.0403635 0
M  V30 98 H 12.3837 1.90049 -0.755095 0
M  V30 99 H 10.5387 3.77391 0.87492 0
M  V30 100 H 10.9527 5.17785 -0.836611 0
M  V30 101 H 12.4267 5.45399 0.851139 0
M  V30 102 H 12.9037 4.02306 1.762 0
M  V30 103 H 13.5097 4.25169 0.105503 0
M  V30 104 N 11.8248 0.280983 1.55075 0
M  V30 105 C 12.7718 -0.603937 2.22758 0
M  V30 106 C 13.7418 -1.1452 1.20309 0
M  V30 107 O 14.9268 -1.19343 1.48869 0
M  V30 108 C 12.0668 -1.77947 2.95684 0
M  V30 109 C 11.1798 -1.2715 4.12864 0
M  V30 110 C 10.3148 -2.4093 4.7342 0
M  V30 111 C 9.3538 -1.87165 5.82783 0
M  V30 112 N 8.4908 -2.94441 6.37377 0
M  V30 113 H 13.3308 -0.020124 2.97993 0
M  V30 114 H 10.8678 0.00183425 1.471 0
M  V30 115 H 12.8258 -2.47055 3.36184 0
M  V30 116 H 11.4558 -2.33522 2.22861 0
M  V30 117 H 10.5078 -0.473331 3.77444 0
M  V30 118 H 11.8198 -0.837751 4.91715 0
M  V30 119 H 10.9738 -3.18021 5.1667 0
M  V30 120 H 9.7128 -2.87623 3.93859 0
M  V30 121 H 8.7178 -1.08556 5.38976 0
M  V30 122 H 9.9428 -1.41401 6.64216 0
M  V30 123 H 7.8888 -3.40505 5.60707 0
M  V30 124 H 7.8058 -2.55501 7.11516 0
M  V30 125 H 9.0738 -3.71489 6.85285 0
M  V30 126 N 13.3029 -1.57598 0.00835791 0
M  V30 127 C 14.2499 -2.08945 -0.980346 0
M  V30 128 C 15.2199 -0.986738 -1.33614 0
M  V30 129 O 16.4049 -1.25968 -1.43306 0
M  V30 130 C 13.5449 -2.60425 -2.26435 0
M  V30 131 C 12.6579 -3.84628 -1.96685 0
M  V30 132 C 11.7929 -4.24579 -3.19228 0
M  V30 133 C 10.8319 -5.41596 -2.85202 0
M  V30 134 N 9.9689 -5.768 -4.00307 0
M  V30 135 H 14.8089 -2.93148 -0.535551 0
M  V30 136 H 12.3459 -1.44912 -0.252776 0
M  V30 137 H 14.3039 -2.88354 -3.01509 0
M  V30 138 H 12.9339 -1.79083 -2.68568 0
M  V30 139 H 11.9859 -3.63556 -1.11942 0
M  V30 140 H 13.2979 -4.69796 -1.67611 0
M  V30 141 H 12.4519 -4.53834 -4.02641 0
M  V30 142 H 11.1909 -3.38137 -3.51447 0
M  V30 143 H 10.1959 -5.12056 -2.00198 0
M  V30 144 H 11.4209 -6.29721 -2.54222 0
M  V30 145 H 9.3669 -4.93316 -4.32407 0
M  V30 146 H 9.2839 -6.5656 -3.74786 0
M  V30 147 H 10.5519 -6.10652 -4.84484 0
M  V30 148 N 14.781 0.264519 -1.55364 0
M  V30 149 C 16.009 1.013 -1.80405 0
M  V30 150 C 16.424 1.79618 -0.581622 0
M  V30 151 O 15.781 1.76879 0.449468 0
M  V30 152 C 15.832 1.96487 -3.03439 0
M  V30 153 O 15.553 1.21341 -4.20961 0
M  V30 154 C 17.054 2.83079 -3.41147 0
M  V30 155 H 14.274 0.298875 -0.600762 0
M  V30 156 H 16.818 0.292736 -2.02394 0
M  V30 157 H 14.973 2.63965 -2.83551 0
M  V30 158 H 15.387 1.85573 -4.90574 0
M  V30 159 H 16.861 3.4565 -4.30384 0
M  V30 160 H 17.338 3.53286 -2.60932 0
M  V30 161 H 17.944 2.2108 -3.63323 0
M  V30 162 N 16.2591 1.48442 0.529413 0
M  V30 163 C 17.1911 1.59095 1.64989 0
M  V30 164 C 18.2041 0.475212 1.5571 0
M  V30 165 O 19.3931 0.746081 1.6216 0
M  V30 166 C 16.4931 1.50518 3.0364 0
M  V30 167 C 15.6661 2.77142 3.38395 0
M  V30 168 C 14.7251 2.62012 4.56329 0
M  V30 169 O 13.7511 3.35898 4.59522 0
M  V30 170 N 14.9531 1.71667 5.54536 0
M  V30 171 H 17.7181 2.55723 1.56287 0
M  V30 172 H 15.2791 1.45173 0.716697 0
M  V30 173 H 17.2711 1.38091 3.80412 0
M  V30 174 H 15.8411 0.618627 3.06418 0
M  V30 175 H 15.0611 3.0413 2.50796 0
M  V30 176 H 16.3491 3.61146 3.58401 0
M  V30 177 H 15.7471 1.10841 5.54735 0
M  V30 178 H 14.3041 1.65178 6.30523 0
M  V30 179 N 17.7372 -0.778329 1.37039 0
M  V30 180 C 18.6672 -1.90546 1.34962 0
M  V30 181 C 19.6482 -1.68681 0.219274 0
M  V30 182 O 20.8332 -1.89634 0.418624 0
M  V30 183 C 17.9632 -3.27734 1.14925 0
M  V30 184 C 16.9172 -3.64147 2.24902 0
M  V30 185 C 16.2432 -4.99806 1.89996 0
M  V30 186 C 17.5432 -3.71579 3.67051 0
M  V30 187 H 19.2372 -1.92541 2.29277 0
M  V30 188 H 16.7832 -0.924948 1.10366 0
M  V30 189 H 18.7362 -4.06215 1.12104 0
M  V30 190 H 17.4602 -3.26154 0.170631 0
M  V30 191 H 16.1192 -2.8797 2.26868 0
M  V30 192 H 15.7672 -4.94759 0.906796 0
M  V30 193 H 15.4672 -5.25139 2.63634 0
M  V30 194 H 16.9912 -5.80694 1.88749 0
M  V30 195 H 18.4052 -4.40227 3.67251 0
M  V30 196 H 16.8022 -4.08405 4.39688 0
M  V30 197 H 17.8722 -2.72404 4.01154 0
M  V30 198 N 19.2153 -1.21501 -1.00376 0
M  V30 199 C 20.1473 -0.933174 -2.09343 0
M  V30 200 C 21.1603 0.0840896 -1.62583 0
M  V30 201 O 22.3493 -0.148563 -1.77881 0
M  V30 202 C 19.4493 -0.379869 -3.36764 0
M  V30 203 C 18.6223 -1.45176 -4.12605 0
M  V30 204 C 17.6813 -0.907476 -5.18316 0
M  V30 205 O 16.7073 -1.5912 -5.46507 0
M  V30 206 N 17.9093 0.276649 -5.7984 0
M  V30 207 H 20.6743 -1.87124 -2.34104 0
M  V30 208 H 18.2353 -1.12043 -1.16867 0
M  V30 209 H 20.2273 -0.00131488 -4.047 0
M  V30 210 H 18.7973 0.463048 -3.09151 0
M  V30 211 H 18.0173 -2.00411 -3.39454 0
M  V30 212 H 19.3053 -2.17328 -4.6005 0
M  V30 213 H 18.7033 0.849147 -5.59291 0
M  V30 214 H 17.2603 0.596702 -6.49063 0
M  V30 215 N 20.6934 1.19889 -1.02296 0
M  V30 216 C 21.6234 2.25141 -0.619174 0
M  V30 217 C 22.6044 1.66051 0.368915 0
M  V30 218 O 23.7894 1.92546 0.252941 0
M  V30 219 C 20.9194 3.4728 0.0368783 0
M  V30 220 C 19.8734 4.19005 -0.872865 0
M  V30 221 C 19.1994 5.34637 -0.0822402 0
M  V30 222 C 20.4994 4.74452 -2.18387 0
M  V30 223 H 22.1934 2.59171 -1.49903 0
M  V30 224 H 19.7394 1.24579 -0.722222 0
M  V30 225 H 21.6924 4.20098 0.330958 0
M  V30 226 H 20.4164 3.12433 0.95149 0
M  V30 227 H 19.0754 3.48061 -1.15105 0
M  V30 228 H 18.7234 4.96034 0.83422 0
M  V30 229 H 18.4234 5.83557 -0.688149 0
M  V30 230 H 19.9474 6.10255 0.205238 0
M  V30 231 H 21.3614 5.39055 -1.95172 0
M  V30 232 H 19.7584 5.33834 -2.74119 0
M  V30 233 H 20.8284 3.92844 -2.84257 0
M  V30 234 N 22.1715 0.800033 1.35784 0
M  V30 235 C 23.0815 0.207204 2.33683 0
M  V30 236 C 24.0975 -0.64631 1.61551 0
M  V30 237 O 25.2735 -0.559604 1.93469 0
M  V30 238 C 22.3385 -0.639659 3.40748 0
M  V30 239 C 21.3995 0.233585 4.28664 0
M  V30 240 C 20.6325 -0.572954 5.30616 0
M  V30 241 O 20.8555 -1.80816 5.40982 0
M  V30 242 O 19.7895 0.0327285 6.01891 0
M  V30 243 H 23.6155 1.01692 2.86169 0
M  V30 244 H 21.2005 0.561691 1.38439 0
M  V30 245 H 23.0825 -1.12223 4.06182 0
M  V30 246 H 21.7575 -1.42708 2.90544 0
M  V30 247 H 20.6645 0.763147 3.66233 0
M  V30 248 H 21.9975 0.984784 4.82248 0
M  V30 249 N 23.6496 -1.47581 0.552962 0
M  V30 250 C 24.5996 -2.26961 -0.217423 0
M  V30 251 C 25.5836 -1.34099 -0.889168 0
M  V30 252 O 26.7756 -1.58483 -0.788176 0
M  V30 253 C 23.9046 -3.19756 -1.24944 0
M  V30 254 C 22.9906 -4.20097 -0.581327 0
M  V30 255 N 23.3816 -5.04614 0.346171 0
M  V30 256 C 21.6796 -4.38099 -0.835767 0
M  V30 257 C 22.3806 -5.77052 0.733854 0
M  V30 258 N 21.3566 -5.43526 0.0896567 0
M  V30 259 H 25.1586 -2.89688 0.495761 0
M  V30 260 H 22.6726 -1.58068 0.372597 0
M  V30 261 H 24.6696 -3.75305 -1.81527 0
M  V30 262 H 23.3296 -2.58585 -1.96376 0
M  V30 263 H 24.3406 -5.12869 0.720098 0
M  V30 264 H 21.0176 -3.88102 -1.53892 0
M  V30 265 H 22.4076 -6.5504 1.49574 0
M  V30 266 N 25.1277 -0.289203 -1.54924 0
M  V30 267 C 26.0577 0.58549 -2.2604 0
M  V30 268 C 27.0387 1.14753 -1.25562 0
M  V30 269 O 28.2237 1.17906 -1.54311 0
M  V30 270 C 25.3537 1.76305 -2.99222 0
M  V30 271 C 24.3077 1.33191 -4.06748 0
M  V30 272 C 23.6337 2.5937 -4.6758 0
M  V30 273 C 24.9337 0.471775 -5.20165 0
M  V30 274 H 26.6277 -0.00763532 -2.99399 0
M  V30 275 H 24.1737 -0.00511229 -1.43999 0
M  V30 276 H 26.1267 2.38097 -3.47689 0
M  V30 277 H 24.8507 2.38223 -2.23422 0
M  V30 278 H 23.5097 0.737121 -3.59113 0
M  V30 279 H 23.1577 3.19576 -3.88433 0
M  V30 280 H 22.8577 2.31228 -5.40192 0
M  V30 281 H 24.3817 3.21985 -5.18804 0
M  V30 282 H 25.7957 0.995056 -5.64599 0
M  V30 283 H 24.1927 0.284639 -5.99425 0
M  V30 284 H 25.2627 -0.506041 -4.82252 0
M  V30 285 N 26.6058 1.57591 -0.0167156 0
M  V30 286 C 27.5358 2.12496 0.967858 0
M  V30 287 C 28.5168 1.03807 1.34752 0
M  V30 288 O 29.7018 1.31577 1.42833 0
M  V30 289 C 26.8318 2.64194 2.25431 0
M  V30 290 C 25.7858 3.77559 2.01576 0
M  V30 291 C 25.1118 4.15636 3.36379 0
M  V30 292 C 26.4118 5.04151 1.36489 0
M  V30 293 H 28.1058 2.95013 0.510643 0
M  V30 294 H 25.6518 1.41915 0.244181 0
M  V30 295 H 27.6048 3.01236 2.94678 0
M  V30 296 H 26.3288 1.78821 2.73296 0
M  V30 297 H 24.9878 3.40937 1.34751 0
M  V30 298 H 24.6358 3.27263 3.81979 0
M  V30 299 H 24.3358 4.92022 3.21229 0
M  V30 300 H 25.8598 4.5525 4.06915 0
M  V30 301 H 27.2738 5.38857 1.95718 0
M  V30 302 H 25.6708 5.85453 1.31776 0
M  V30 303 H 26.7408 4.83733 0.336219 0
M  V30 304 N 28.0839 -0.256276 1.55502 0
M  V30 305 C 29.0139 -1.32102 1.92539 0
M  V30 306 C 29.9949 -1.50684 0.789194 0
M  V30 307 O 31.1799 -1.63449 1.04872 0
M  V30 308 C 28.3099 -2.67752 2.21192 0
M  V30 309 C 27.2639 -2.63878 3.36975 0
M  V30 310 C 26.5899 -4.03236 3.51147 0
M  V30 311 C 27.8899 -2.21682 4.72921 0
M  V30 312 H 29.5839 -1.01351 2.81724 0
M  V30 313 H 27.1299 -0.486105 1.35547 0
M  V30 314 H 29.0829 -3.42365 2.45691 0
M  V30 315 H 27.8069 -3.0012 1.28824 0
M  V30 316 H 26.4659 -1.91722 3.12471 0
M  V30 317 H 26.1139 -4.32854 2.56216 0
M  V30 318 H 25.8139 -4.01535 4.29003 0
M  V30 319 H 27.3379 -4.79563 3.77957 0
M  V30 320 H 28.7519 -2.86023 4.96854 0
M  V30 321 H 27.1489 -2.3111 5.53812 0
M  V30 322 H 28.2189 -1.16833 4.70615 0
M  V30 323 N 29.562 -1.4872 -0.521534 0
M  V30 324 C 30.839 -1.4766 -1.2828 0
M  V30 325 C 31.219 -0.19292 -2.10217 0
M  V30 326 O 30.567 0.825193 -2.13079 0
M  V30 327 C 30.777 -2.74358 -2.15705 0
M  V30 328 C 32.125 -3.23028 -2.75569 0
M  V30 329 O 33.149 -2.75333 -2.25987 0
M  V30 330 O 32.008 -4.0604 -3.65778 0
M  V30 331 H 29.102 -0.590085 -0.579421 0
M  V30 332 H 31.648 -1.60963 -0.537492 0
M  V30 333 H 30.42 -3.59292 -1.54999 0
M  V30 334 H 30.043 -2.63816 -2.97467 0
M  V30 335 N 31.0401 0.771051 -1.3745 0
M  V30 336 C 31.9701 1.89827 -1.3597 0
M  V30 337 C 32.9511 1.68562 -0.228216 0
M  V30 338 O 34.1361 1.8941 -0.428675 0
M  V30 339 C 31.2661 3.2712 -1.16662 0
M  V30 340 C 30.2201 3.6295 -2.2683 0
M  V30 341 C 29.5461 4.98791 -1.92644 0
M  V30 342 C 30.8461 3.69627 -3.69017 0
M  V30 343 H 32.5401 1.91323 -2.30295 0
M  V30 344 H 30.0861 0.919082 -1.10855 0
M  V30 345 H 32.0391 4.05615 -1.14256 0
M  V30 346 H 30.7631 3.26059 -0.187926 0
M  V30 347 H 29.4221 2.86763 -2.28392 0
M  V30 348 H 29.0701 4.94271 -0.933021 0
M  V30 349 H 28.7701 5.23733 -2.66416 0
M  V30 350 H 30.2941 5.79685 -1.91826 0
M  V30 351 H 31.7081 4.38273 -3.69581 0
M  V30 352 H 30.1051 4.06067 -4.41848 0
M  V30 353 H 31.1751 2.70273 -4.02592 0
M  V30 354 N 32.5182 1.22032 0.997298 0
M  V30 355 C 33.4502 0.944263 2.08845 0
M  V30 356 C 34.4632 -0.0754663 1.62625 0
M  V30 357 O 35.6522 0.157994 1.77799 0
M  V30 358 C 32.7522 0.397723 3.36558 0
M  V30 359 C 31.9252 1.47362 4.11829 0
M  V30 360 C 30.9842 0.934951 5.17827 0
M  V30 361 O 30.0102 1.62016 5.45655 0
M  V30 362 N 31.2122 -0.245895 5.79979 0
M  V30 363 H 33.9772 1.88363 2.33109 0
M  V30 364 H 31.5382 1.12661 1.16272 0
M  V30 365 H 33.5302 0.0227771 4.04694 0
M  V30 366 H 32.1002 -0.446646 3.09393 0
M  V30 367 H 31.3202 2.02208 3.38386 0
M  V30 368 H 32.6082 2.19764 4.58891 0
M  V30 369 H 32.0062 -0.819475 5.59733 0
M  V30 370 H 30.5632 -0.562272 6.4937 0
M  V30 371 N 33.9963 -1.19345 1.0293 0
M  V30 372 C 34.9293 -2.21347 0.555029 0
M  V30 373 C 35.9073 -1.57492 -0.404351 0
M  V30 374 O 37.0913 -1.85741 -0.321352 0
M  V30 375 C 34.2183 -3.38163 -0.19064 0
M  V30 376 C 33.2643 -4.20375 0.720236 0
M  V30 377 S 34.0973 -4.88371 2.19668 0
M  V30 378 C 35.2533 -6.08597 1.46153 0
M  V30 379 H 35.4863 -2.61235 1.41929 0
M  V30 380 H 33.0193 -1.29598 0.839272 0
M  V30 381 H 34.9773 -4.05871 -0.614724 0
M  V30 382 H 33.6383 -2.9671 -1.03063 0
M  V30 383 H 32.8313 -5.03793 0.14455 0
M  V30 384 H 32.4333 -3.57987 1.08266 0
M  V30 385 H 34.7253 -6.73354 0.748357 0
M  V30 386 H 35.6683 -6.7065 2.27233 0
M  V30 387 H 36.0763 -5.56297 0.958842 0
M  V30 388 N 35.4744 -0.807222 -1.35358 0
M  V30 389 C 36.7234 -0.384376 -1.98004 0
M  V30 390 C 37.0364 1.0543 -1.64754 0
M  V30 391 O 38.2424 1.58029 -2.20769 0
M  V30 392 C 36.6984 -0.636326 -3.5423 0
M  V30 393 C 36.3064 -2.08759 -3.96388 0
M  V30 394 C 38.0504 -0.278869 -4.23583 0
M  V30 395 C 35.9574 -2.28525 -5.45463 0
M  V30 396 H 34.8874 -0.139986 -0.740891 0
M  V30 397 H 37.5384 -0.991369 -1.54415 0
M  V30 398 H 35.9204 0.0406256 -3.95979 0
M  V30 399 H 37.0944 -2.8024 -3.6579 0
M  V30 400 H 35.4094 -2.40497 -3.39926 0
M  V30 401 H 38.0064 -0.404599 -5.33167 0
M  V30 402 H 38.3494 0.775012 -4.09022 0
M  V30 403 H 38.8824 -0.909764 -3.87257 0
M  V30 404 H 35.6214 -3.32361 -5.64992 0
M  V30 405 H 35.1414 -1.61569 -5.77629 0
M  V30 406 H 36.8204 -2.10109 -6.11934 0
M  V30 407 N 36.9525 1.47285 -0.560781 0
M  V30 408 C 37.8825 2.32857 0.173105 0
M  V30 409 C 38.8635 1.44009 0.905281 0
M  V30 410 O 40.0485 1.7286 0.885046 0
M  V30 411 C 37.1785 3.25861 1.20133 0
M  V30 412 C 36.1325 4.23978 0.585388 0
M  V30 413 C 35.4585 5.06332 1.7185 0
M  V30 414 C 36.7585 5.20242 -0.463178 0
M  V30 415 H 38.4525 2.94466 -0.541307 0
M  V30 416 H 35.9985 1.41601 -0.261764 0
M  V30 417 H 37.9515 3.84569 1.72293 0
M  V30 418 H 36.6755 2.62315 1.94573 0
M  V30 419 H 35.3345 3.66501 0.085054 0
M  V30 420 H 34.9825 4.39186 2.45203 0
M  V30 421 H 34.6825 5.72762 1.31213 0
M  V30 422 H 36.2065 5.67899 2.24329 0
M  V30 423 H 37.6205 5.73293 -0.027502 0
M  V30 424 H 36.0175 5.94896 -0.788627 0
M  V30 425 H 37.0875 4.65504 -1.35773 0
M  V30 426 N 38.4306 0.297415 1.54768 0
M  V30 427 C 39.3786 -0.596051 2.24833 0
M  V30 428 C 40.3726 -1.13992 1.25308 0
M  V30 429 O 41.5786 -1.09098 1.4317 0
M  V30 430 H 37.9536 -0.210814 0.721846 0
M  V30 431 H 39.9246 0.0174667 2.98395 0
M  V30 432 C 38.6736 -1.75818 2.99972 0
M  V30 433 H 37.9966 -1.3489 3.76357 0
M  V30 434 H 39.4366 -2.35949 3.52284 0
M  V30 435 C 37.8956 -2.66014 2.06732 0
M  V30 436 O 38.4256 -3.67009 1.63302 0
M  V30 437 N 36.6316 -2.33669 1.72763 0
M  V30 438 H 36.1786 -1.51586 2.08277 0
M  V30 439 H 36.1366 -2.94285 1.10652 0
M  V30 440 N 39.9087 -1.5758 0.0250728 0
M  V30 441 C 41.1567 -1.91255 -0.653151 0
M  V30 442 C 41.4777 -0.901691 -1.729 0
M  V30 443 O 40.7477 0.0573785 -1.95816 0
M  V30 444 H 39.3277 -0.705942 -0.244243 0
M  V30 445 H 41.9897 -1.94767 0.0719209 0
M  V30 446 H 41.0857 -2.91752 -1.10847 0
M  V30 447 N 41.3868 0.248026 -1.55636 0
M  V30 448 C 42.6358 0.974134 -1.76617 0
M  V30 449 C 42.9488 1.86528 -0.588796 0
M  V30 450 O 44.1548 2.62805 -0.681594 0
M  V30 451 C 42.6108 1.78213 -3.12679 0
M  V30 452 C 42.2188 0.93843 -4.38061 0
M  V30 453 C 43.9628 2.50104 -3.42999 0
M  V30 454 C 41.8698 1.74225 -5.65155 0
M  V30 455 H 40.7998 0.36745 -0.658405 0
M  V30 456 H 43.4508 0.22884 -1.82067 0
M  V30 457 H 41.8328 2.56933 -3.01333 0
M  V30 458 H 43.0068 0.193635 -4.60393 0
M  V30 459 H 41.3218 0.332905 -4.15067 0
M  V30 460 H 43.9188 3.10694 -4.3517 0
M  V30 461 H 44.2618 3.21662 -2.64271 0
M  V30 462 H 44.7948 1.78395 -3.55556 0
M  V30 463 H 41.5338 1.07043 -6.46701 0
M  V30 464 H 41.0538 2.46235 -5.46926 0
M  V30 465 H 42.7328 2.30967 -6.0437 0
M  V30 466 N 42.8649 1.48995 0.513639 0
M  V30 467 C 43.8129 1.65199 1.63744 0
M  V30 468 C 44.8069 0.51809 1.61283 0
M  V30 469 O 46.0129 0.697335 1.65943 0
M  V30 470 H 42.3879 0.52069 0.542574 0
M  V30 471 H 44.3589 2.59552 1.47226 0
M  V30 472 C 43.1079 1.72409 3.01945 0
M  V30 473 H 42.4309 2.59029 3.04539 0
M  V30 474 H 43.8709 1.87785 3.80148 0
M  V30 475 C 42.3299 0.46618 3.33659 0
M  V30 476 O 42.8599 -0.413744 3.99564 0
M  V30 477 N 41.0659 0.332931 2.88687 0
M  V30 478 H 40.6129 1.04996 2.35231 0
M  V30 479 H 40.5709 -0.507665 3.10274 0
M  V30 480 N 44.343 -0.763751 1.37857 0
M  V30 481 C 45.291 -1.89864 1.34367 0
M  V30 482 C 46.285 -1.67816 0.231143 0
M  V30 483 O 47.491 -1.75508 0.399617 0
M  V30 484 H 43.866 -0.624501 0.41893 0
M  V30 485 H 45.837 -1.89925 2.30155 0
M  V30 486 C 44.586 -3.27227 1.1755 0
M  V30 487 H 43.909 -3.44773 2.02414 0
M  V30 488 H 45.349 -4.06911 1.1916 0
M  V30 489 C 43.808 -3.36692 -0.118311 0
M  V30 490 O 44.338 -3.86374 -1.09902 0
M  V30 491 N 42.544 -2.90092 -0.171717 0
M  V30 492 H 42.091 -2.49853 0.627012 0
M  V30 493 H 42.049 -2.96806 -1.03699 0
M  V30 494 N 45.8211 -1.22559 -0.990812 0
M  V30 495 C 47.0511 -1.07623 -1.76355 0
M  V30 496 C 47.4591 0.37601 -1.85426 0
M  V30 497 O 46.8021 1.27228 -1.32509 0
M  V30 498 C 46.8641 -1.61507 -3.21179 0
M  V30 499 C 46.5281 -3.10146 -3.35646 0
M  V30 500 C 47.5251 -4.07553 -3.22796 0
M  V30 501 C 45.2101 -3.49644 -3.60631 0
M  V30 502 C 47.2041 -5.42442 -3.34716 0
M  V30 503 C 44.8911 -4.84682 -3.72192 0
M  V30 504 C 45.8891 -5.8089 -3.59243 0
M  V30 505 O 45.5771 -7.13476 -3.70415 0
M  V30 506 H 45.3091 -0.377745 -0.560611 0
M  V30 507 H 47.8631 -1.62658 -1.25425 0
M  V30 508 H 46.0931 -1.00881 -3.73309 0
M  V30 509 H 47.7821 -1.42202 -3.80175 0
M  V30 510 H 48.5481 -3.78381 -3.03403 0
M  V30 511 H 44.4271 -2.75282 -3.69785 0
M  V30 512 H 47.9711 -6.17518 -3.24526 0
M  V30 513 H 43.8681 -5.13534 -3.91092 0
M  V30 514 H 44.6361 -7.21083 -3.87275 0
M  V30 515 N 47.2992 1.18797 -1.03562 0
M  V30 516 C 48.2462 2.22253 -0.622259 0
M  V30 517 C 49.2162 1.61987 0.36736 0
M  V30 518 O 50.4012 1.88986 0.262492 0
M  V30 519 C 47.5412 3.45097 0.0138462 0
M  V30 520 C 46.6542 4.19722 -1.02263 0
M  V30 521 C 45.7892 5.30009 -0.355573 0
M  V30 522 C 44.8282 5.96399 -1.37749 0
M  V30 523 N 43.9652 6.98234 -0.735766 0
M  V30 524 H 48.8052 2.56968 -1.50903 0
M  V30 525 H 46.3422 1.26245 -0.755017 0
M  V30 526 H 48.3002 4.15279 0.399948 0
M  V30 527 H 46.9302 3.11018 0.864158 0
M  V30 528 H 45.9822 3.48418 -1.52673 0
M  V30 529 H 47.2942 4.65227 -1.79903 0
M  V30 530 H 46.4482 6.0664 0.0850095 0
M  V30 531 H 45.1872 4.85592 0.452967 0
M  V30 532 H 44.1922 5.18512 -1.82826 0
M  V30 533 H 45.4172 6.42899 -2.18764 0
M  V30 534 H 43.3632 6.55979 0.0525597 0
M  V30 535 H 43.2802 7.41965 -1.44995 0
M  V30 536 H 44.5482 7.78845 -0.31941 0
M  V30 537 N 48.7773 0.814389 1.34928 0
M  V30 538 C 49.7253 0.218424 2.31572 0
M  V30 539 C 50.7193 -0.636128 1.57002 0
M  V30 540 O 51.9253 -0.52842 1.72069 0
M  V30 541 H 48.3003 0.0518799 0.750208 0
M  V30 542 H 50.2713 1.04852 2.79372 0
M  V30 543 C 49.0203 -0.61207 3.4227 0
M  V30 544 H 48.3433 0.0361578 3.99784 0
M  V30 545 H 49.7833 -0.995317 4.12152 0
M  V30 546 C 48.2423 -1.78087 2.85984 0
M  V30 547 O 48.7723 -2.8787 2.80168 0
M  V30 548 N 46.9783 -1.59488 2.42924 0
M  V30 549 H 46.5253 -0.701874 2.47854 0
M  V30 550 H 46.4833 -2.37846 2.05613 0
M  V30 551 N 50.2554 -1.46986 0.568584 0
M  V30 552 C 51.6664 -1.86188 0.138219 0
M  V30 553 C 52.0174 -1.47388 -1.29504 0
M  V30 554 O 51.1424 -0.88219 -1.97602 0
M  V30 555 C 51.7374 -3.3792 0.244065 0
M  V30 556 C 50.2964 -3.76171 -0.131335 0
M  V30 557 C 49.4434 -2.71027 0.586465 0
M  V30 558 H 52.3944 -1.38342 0.777645 0
M  V30 559 H 52.4154 -3.76729 -0.534351 0
M  V30 560 H 51.9274 -3.66128 1.28731 0
M  V30 561 H 50.0284 -3.5358 -1.17526 0
M  V30 562 H 50.1414 -4.78523 0.235146 0
M  V30 563 H 48.5054 -2.54684 0.0282722 0
M  V30 564 H 49.2884 -3.02077 1.63109 0
M  V30 565 N 51.7335 -0.305618 -1.54608 0
M  V30 566 C 52.6805 0.568421 -2.23691 0
M  V30 567 C 53.6505 1.12592 -1.22116 0
M  V30 568 O 54.8355 1.16959 -1.50749 0
M  V30 569 C 51.9755 1.7322 -2.98477 0
M  V30 570 C 51.0885 1.20566 -4.14835 0
M  V30 571 C 50.2235 2.33368 -4.77193 0
M  V30 572 C 49.2625 1.7787 -5.85686 0
M  V30 573 N 48.3995 2.84263 -6.4198 0
M  V30 574 H 53.2395 -0.0272867 -2.97988 0
M  V30 575 H 50.7765 -0.0252363 -1.47078 0
M  V30 576 H 52.7345 2.41675 -3.40072 0
M  V30 577 H 51.3645 2.29947 -2.26548 0
M  V30 578 H 50.4165 0.413223 -3.78149 0
M  V30 579 H 51.7285 0.759417 -4.92985 0
M  V30 580 H 50.8825 3.09761 -5.21664 0
M  V30 581 H 49.6215 2.8132 -3.98385 0
M  V30 582 H 48.6265 0.99968 -5.40635 0
M  V30 583 H 49.8515 1.30816 -6.66381 0
M  V30 584 H 47.7975 3.31541 -5.66053 0
M  V30 585 H 47.7145 2.44149 -7.15491 0
M  V30 586 H 48.9825 3.6054 -6.91109 0
M  V30 587 N 53.2116 1.57565 -0.0334293 0
M  V30 588 C 54.1416 2.13511 0.945265 0
M  V30 589 C 55.1226 1.05231 1.33643 0
M  V30 590 O 56.3076 1.33084 1.41429 0
M  V30 591 C 53.4376 2.6657 2.22616 0
M  V30 592 C 52.3916 3.79676 1.97561 0
M  V30 593 C 51.7176 4.1918 3.31952 0
M  V30 594 C 53.0176 5.0557 1.31135 0
M  V30 595 H 54.7116 2.95538 0.479325 0
M  V30 596 H 52.2576 1.42166 0.229115 0
M  V30 597 H 54.2106 3.04344 2.91466 0
M  V30 598 H 52.9346 1.8171 2.71384 0
M  V30 599 H 51.5936 3.42347 1.31127 0
M  V30 600 H 51.2416 3.31296 3.78487 0
M  V30 601 H 50.9416 4.95402 3.15992 0
M  V30 602 H 52.4656 4.59541 4.02063 0
M  V30 603 H 53.8796 5.40903 1.89992 0
M  V30 604 H 52.2766 5.86818 1.25559 0
M  V30 605 H 53.3466 4.84062 0.284894 0
M  V30 606 N 54.6897 -0.239769 1.55765 0
M  V30 607 C 55.9177 -0.98417 1.81994 0
M  V30 608 C 56.3327 -1.7867 0.610124 0
M  V30 609 O 55.6897 -1.77571 -0.421271 0
M  V30 610 C 55.7407 -1.91635 3.06526 0
M  V30 611 O 55.4617 -1.14629 4.22838 0
M  V30 612 C 56.9627 -2.77616 3.45607 0
M  V30 613 H 54.1827 -0.28928 0.605441 0
M  V30 614 H 56.7267 -0.260499 2.02834 0
M  V30 615 H 54.8817 -2.5942 2.87715 0
M  V30 616 H 55.2957 -1.77745 4.93464 0
M  V30 617 H 56.7697 -3.38759 4.35828 0
M  V30 618 H 57.2467 -3.4909 2.6652 0
M  V30 619 H 57.8527 -2.15271 3.66795 0
M  V30 620 N 56.1678 -1.49265 -0.50573 0
M  V30 621 C 57.5838 -1.35923 -0.836486 0
M  V30 622 C 57.7838 -0.388704 -1.97715 0
M  V30 623 O 56.8398 0.181336 -2.51848 0
M  V30 624 C 58.1528 -2.76531 -1.18115 0
M  V30 625 C 59.7008 -2.85197 -1.28964 0
M  V30 626 C 60.1758 -4.26561 -1.66761 0
M  V30 627 N 61.6668 -4.2935 -1.73819 0
M  V30 628 C 62.4018 -5.35693 -2.045 0
M  V30 629 N 61.8978 -6.52287 -2.33438 0
M  V30 630 N 63.6908 -5.23105 -2.05711 0
M  V30 631 H 55.8418 -2.10965 0.246519 0
M  V30 632 H 58.1048 -0.9468 0.0476887 0
M  V30 633 H 57.8108 -3.49226 -0.416398 0
M  V30 634 H 57.6848 -3.11599 -2.1257 0
M  V30 635 H 60.0718 -2.12742 -2.04511 0
M  V30 636 H 60.1528 -2.53718 -0.325704 0
M  V30 637 H 59.7968 -4.99541 -0.917656 0
M  V30 638 H 59.7268 -4.55502 -2.64246 0
M  V30 639 H 62.2178 -3.4526 -1.53635 0
M  V30 640 H 62.5308 -7.29158 -2.56024 0
M  V30 641 H 60.8758 -6.55521 -2.30905 0
M  V30 642 H 64.0668 -4.31026 -1.82577 0
M  V30 643 H 64.2398 -6.06078 -2.29289 0
M  V30 644 N 57.6459 0.756429 -1.3826 0
M  V30 645 C 58.5789 1.87802 -1.29637 0
M  V30 646 C 59.5569 1.61667 -0.173939 0
M  V30 647 O 60.7409 1.85208 -0.350775 0
M  V30 648 C 57.8679 3.23354 -1.00797 0
M  V30 649 C 56.9139 3.68379 -2.14939 0
M  V30 650 S 57.7469 3.8025 -3.77054 0
M  V30 651 C 58.9029 5.18626 -3.50396 0
M  V30 652 H 59.1359 1.94829 -2.24564 0
M  V30 653 H 56.6689 0.919117 -1.24063 0
M  V30 654 H 58.6269 4.01637 -0.848413 0
M  V30 655 H 57.2879 3.14008 -0.0759369 0
M  V30 656 H 56.4809 4.66693 -1.90299 0
M  V30 657 H 56.0829 2.97242 -2.26988 0
M  V30 658 H 58.3749 6.04289 -3.06334 0
M  V30 659 H 59.3179 5.48286 -4.48094 0
M  V30 660 H 59.7259 4.87289 -2.84973 0
M  V30 661 N 59.124 1.23083 0.984299 0
M  V30 662 C 60.054 1.03292 2.09411 0
M  V30 663 C 61.035 -0.048923 1.7003 0
M  V30 664 O 62.22 0.114967 1.93859 0
M  V30 665 C 59.35 0.619155 3.41736 0
M  V30 666 C 58.304 1.64791 3.95004 0
M  V30 667 C 57.63 1.0897 5.23478 0
M  V30 668 C 58.93 3.03999 4.24714 0
M  V30 669 H 60.624 1.96119 2.26225 0
M  V30 670 H 58.17 0.944344 1.08711 0
M  V30 671 H 60.123 0.467777 4.18796 0
M  V30 672 H 58.847 -0.344786 3.24775 0
M  V30 673 H 57.506 1.78721 3.20085 0
M  V30 674 H 57.154 0.11686 5.02864 0
M  V30 675 H 56.854 1.77704 5.60085 0
M  V30 676 H 58.378 0.950093 6.03163 0
M  V30 677 H 59.792 2.93393 4.92538 0
M  V30 678 H 58.189 3.69936 4.72512 0
M  V30 679 H 59.259 3.53285 3.32142 0
M  V30 680 N 60.6021 -1.18246 1.0419 0
M  V30 681 C 61.8301 -1.92195 0.766072 0
M  V30 682 C 62.2451 -1.76247 -0.676933 0
M  V30 683 O 61.6021 -1.09293 -1.46155 0
M  V30 684 C 61.6531 -3.43568 1.12442 0
M  V30 685 O 61.3741 -3.59015 2.51078 0
M  V30 686 C 62.8751 -4.34613 0.873275 0
M  V30 687 H 60.0951 -0.610114 0.279288 0
M  V30 688 H 62.6391 -1.50007 1.38989 0
M  V30 689 H 60.7941 -3.8354 0.545542 0
M  V30 690 H 61.2081 -4.5273 2.64831 0
M  V30 691 H 62.6821 -5.39374 1.17385 0
M  V30 692 H 63.1591 -4.38781 -0.191909 0
M  V30 693 H 63.7651 -4.00341 1.43551 0
M  V30 694 N 62.0802 -0.821533 -1.34494 0
M  V30 695 C 63.3272 -0.408946 -1.98328 0
M  V30 696 C 63.6552 1.02764 -1.65136 0
M  V30 697 O 62.9102 1.73026 -0.914349 0
M  V30 698 C 63.2092 -0.556512 -3.53041 0
M  V30 699 C 62.8752 -1.95861 -4.0614 0
M  V30 700 C 61.5372 -2.34217 -4.20352 0
M  V30 701 C 63.8892 -2.87523 -4.34718 0
M  V30 702 C 61.2172 -3.63572 -4.6047 0
M  V30 703 C 63.5692 -4.1634 -4.76281 0
M  V30 704 C 62.2332 -4.54675 -4.88699 0
M  V30 705 H 61.5032 -0.149644 -0.725732 0
M  V30 706 H 64.1502 -1.04521 -1.6046 0
M  V30 707 H 62.4552 0.163148 -3.9146 0
M  V30 708 H 64.1522 -0.217826 -4.00408 0
M  V30 709 H 60.7422 -1.65066 -3.95539 0
M  V30 710 H 64.9262 -2.59133 -4.23277 0
M  V30 711 H 60.1822 -3.93101 -4.68275 0
M  V30 712 H 64.3562 -4.87455 -4.97354 0
M  V30 713 H 61.9832 -5.54959 -5.19542 0
M  V30 714 N 63.5583 1.46682 -0.576371 0
M  V30 715 C 64.5053 2.30241 0.160499 0
M  V30 716 C 65.4753 1.40233 0.890162 0
M  V30 717 O 66.6603 1.69186 0.882084 0
M  V30 718 C 63.8003 3.24578 1.1723 0
M  V30 719 C 62.9133 4.29684 0.446736 0
M  V30 720 C 62.0483 5.11154 1.44551 0
M  V30 721 C 61.0873 6.08015 0.70599 0
M  V30 722 N 60.2243 6.82376 1.65251 0
M  V30 723 H 65.0643 2.92727 -0.558127 0
M  V30 724 H 62.6013 1.44272 -0.287056 0
M  V30 725 H 64.5593 3.77711 1.77172 0
M  V30 726 H 63.1893 2.63916 1.85872 0
M  V30 727 H 62.2413 3.79458 -0.267594 0
M  V30 728 H 63.5533 4.98626 -0.131686 0
M  V30 729 H 62.7073 5.68533 2.11791 0
M  V30 730 H 61.4463 4.42158 2.05786 0
M  V30 731 H 60.4513 5.49796 0.0197725 0
M  V30 732 H 61.6763 6.79028 0.09912 0
M  V30 733 H 59.6223 6.16094 2.25308 0
M  V30 734 H 59.5393 7.47556 1.12673 0
M  V30 735 H 60.8073 7.44316 2.31546 0
M  V30 736 N 65.0364 0.313813 1.54444 0
M  V30 737 C 66.2834 -0.291675 2.00388 0
M  V30 738 C 66.6114 -1.52904 1.2021 0
M  V30 739 O 65.8664 -1.93833 0.269707 0
M  V30 740 C 66.1654 -0.680386 3.50864 0
M  V30 741 C 65.8314 0.456699 4.48581 0
M  V30 742 C 64.4934 0.768824 4.75018 0
M  V30 743 C 66.8454 1.22098 5.06697 0
M  V30 744 C 64.1734 1.84812 5.56831 0
M  V30 745 C 66.5254 2.29029 5.89685 0
M  V30 746 C 65.1894 2.60834 6.14428 0
M  V30 747 H 64.4594 -0.106732 0.733273 0
M  V30 748 H 67.1064 0.43557 1.86481 0
M  V30 749 H 65.4114 -1.48791 3.62448 0
M  V30 750 H 67.1084 -1.16026 3.83847 0
M  V30 751 H 63.6984 0.203337 4.28117 0
M  V30 752 H 67.8824 0.993096 4.86263 0
M  V30 753 H 63.1384 2.09912 5.74236 0
M  V30 754 H 67.3124 2.887 6.33739 0
M  V30 755 H 64.9394 3.44596 6.77612 0
M  V30 756 N 66.5145 -1.57545 0.0417849 0
M  V30 757 C 67.7445 -1.96339 -0.642995 0
M  V30 758 C 68.1525 -0.917536 -1.65463 0
M  V30 759 O 67.4955 0.107747 -1.83384 0
M  V30 760 C 67.5575 -3.31333 -1.39494 0
M  V30 761 C 67.2215 -4.53796 -0.540204 0
M  V30 762 C 68.2185 -5.19553 0.189806 0
M  V30 763 C 65.9035 -5.0006 -0.473886 0
M  V30 764 C 67.8975 -6.29904 0.974674 0
M  V30 765 C 65.5845 -6.10289 0.314677 0
M  V30 766 C 66.5825 -6.75072 1.03765 0
M  V30 767 O 66.2705 -7.83183 1.81327 0
M  V30 768 H 66.0025 -0.651241 -0.181277 0
M  V30 769 H 68.5565 -2.05148 0.101665 0
M  V30 770 H 66.7865 -3.19052 -2.18502 0
M  V30 771 H 68.4755 -3.54942 -1.96904 0
M  V30 772 H 69.2415 -4.84774 0.147981 0
M  V30 773 H 65.1205 -4.49433 -1.0262 0
M  V30 774 H 68.6645 -6.80401 1.5395 0
M  V30 775 H 64.5615 -6.44506 0.358174 0
M  V30 776 H 65.3295 -7.99913 1.73438 0
M  V30 777 N 67.9926 0.231505 -1.5589 0
M  V30 778 C 68.9256 1.31369 -1.86595 0
M  V30 779 C 69.9036 1.45671 -0.722397 0
M  V30 780 O 71.0876 1.61642 -0.969743 0
M  V30 781 C 68.2146 2.68529 -2.06421 0
M  V30 782 C 67.2606 2.71295 -3.29092 0
M  V30 783 S 68.0936 2.26358 -4.85306 0
M  V30 784 C 69.2496 3.65414 -5.08157 0
M  V30 785 H 69.4826 1.05128 -2.78092 0
M  V30 786 H 67.0156 0.433259 -1.48197 0
M  V30 787 H 68.9736 3.47499 -2.18528 0
M  V30 788 H 67.6346 2.91999 -1.15738 0
M  V30 789 H 66.8276 3.72063 -3.39978 0
M  V30 790 H 66.4296 2.0038 -3.15791 0
M  V30 791 H 68.7216 4.6103 -4.96445 0
M  V30 792 H 69.6646 3.5945 -6.10083 0
M  V30 793 H 70.0726 3.5864 -4.35933 0
M  V30 794 N 69.4707 1.49531 0.497807 0
M  V30 795 C 70.8817 1.52344 1.07927 0
M  V30 796 C 71.2327 0.311469 1.93712 0
M  V30 797 O 70.3577 -0.578405 2.08527 0
M  V30 798 C 70.9527 2.76062 1.96405 0
M  V30 799 C 69.5117 2.81643 2.49709 0
M  V30 800 C 68.6587 2.46299 1.27404 0
M  V30 801 H 71.6097 1.56182 0.281576 0
M  V30 802 H 71.6307 2.56405 2.81135 0
M  V30 803 H 71.1427 3.64254 1.33943 0
M  V30 804 H 69.2437 1.97739 3.15801 0
M  V30 805 H 69.3567 3.83891 2.86643 0
M  V30 806 H 67.7207 1.98148 1.60029 0
M  V30 807 H 68.5037 3.36769 0.66645 0
M  V30 808 N 70.9488 -0.749086 1.3866 0
M  V30 809 C 71.8958 -1.86291 1.36251 0
M  V30 810 C 72.8658 -1.64578 0.224347 0
M  V30 811 O 74.0508 -1.86181 0.417279 0
M  V30 812 C 71.1908 -3.23644 1.19786 0
M  V30 813 C 70.3038 -3.57158 2.43027 0
M  V30 814 C 69.4388 -4.83838 2.19258 0
M  V30 815 C 68.4778 -5.10152 3.38247 0
M  V30 816 N 67.6148 -6.28029 3.13884 0
M  V30 817 H 72.4548 -1.87685 2.3147 0
M  V30 818 H 69.9918 -0.917287 1.14997 0
M  V30 819 H 71.9498 -4.0291 1.08254 0
M  V30 820 H 70.5798 -3.21566 0.282031 0
M  V30 821 H 69.6318 -2.72701 2.65214 0
M  V30 822 H 70.9438 -3.7253 3.31697 0
M  V30 823 H 70.0978 -5.71057 2.04888 0
M  V30 824 H 68.8368 -4.70614 1.2796 0
M  V30 825 H 67.8418 -4.21401 3.53131 0
M  V30 826 H 69.0668 -5.25271 4.30427 0
M  V30 827 H 67.0128 -6.1612 2.25238 0
M  V30 828 H 66.9298 -6.43922 3.96106 0
M  V30 829 H 68.1978 -7.18124 3.03179 0
M  V30 830 N 72.4269 -1.23603 -0.977757 0
M  V30 831 C 73.3739 -1.01954 -2.07061 0
M  V30 832 C 74.3439 0.0638697 -1.65977 0
M  V30 833 O 75.5289 -0.0887624 -1.90593 0
M  V30 834 C 72.6689 -0.619658 -3.39491 0
M  V30 835 C 71.7819 -1.77547 -3.93829 0
M  V30 836 C 70.9169 -1.32212 -5.14484 0
M  V30 837 C 69.9559 -2.44852 -5.60994 0
M  V30 838 N 69.0929 -2.00456 -6.72876 0
M  V30 839 H 73.9329 -1.95495 -2.24913 0
M  V30 840 H 71.4699 -0.973861 -1.10247 0
M  V30 841 H 73.4279 -0.368898 -4.15566 0
M  V30 842 H 72.0579 0.278752 -3.21594 0
M  V30 843 H 71.1099 -2.14016 -3.14486 0
M  V30 844 H 72.4219 -2.62219 -4.24314 0
M  V30 845 H 71.5759 -1.02965 -5.97899 0
M  V30 846 H 70.3149 -0.445808 -4.85658 0
M  V30 847 H 69.3199 -2.74871 -4.76157 0
M  V30 848 H 70.5449 -3.33024 -5.91837 0
M  V30 849 H 68.4909 -1.15208 -6.45804 0
M  V30 850 H 68.4079 -2.78687 -7.02759 0
M  V30 851 H 69.6759 -1.7432 -7.59758 0
M  V30 852 N 73.905 1.17692 -1.04816 0
M  V30 853 C 74.868 2.19787 -0.650117 0
M  V30 854 C 75.868 1.58044 0.296427 0
M  V30 855 O 77.058 1.74012 0.0808097 0
M  V30 856 C 74.19 3.40869 0.0456987 0
M  V30 857 H 75.383 2.56516 -1.5537 0
M  V30 858 H 72.936 1.31708 -0.841594 0
M  V30 859 H 73.671 3.09681 0.962726 0
M  V30 860 H 73.456 3.86928 -0.634727 0
M  V30 861 H 74.946 4.16445 0.310432 0
M  V30 862 N 75.3831 0.828654 1.34056 0
M  V30 863 C 76.6111 0.43262 2.02326 0
M  V30 864 C 77.0261 -0.963147 1.62385 0
M  V30 865 O 76.3831 -1.62425 0.832121 0
M  V30 866 C 76.4341 0.53182 3.57567 0
M  V30 867 O 76.1551 1.87258 3.96063 0
M  V30 868 C 77.6561 0.131422 4.43105 0
M  V30 869 H 74.8761 0.172923 0.648335 0
M  V30 870 H 77.4201 1.1184 1.71208 0
M  V30 871 H 75.5751 -0.105938 3.87255 0
M  V30 872 H 75.9891 1.85087 4.90758 0
M  V30 873 H 77.4631 0.251904 5.51425 0
M  V30 874 H 77.9401 -0.925645 4.29335 0
M  V30 875 H 78.5461 0.743207 4.18756 0
M  V30 876 N 76.8612 -1.46375 0.584142 0
M  V30 877 C 77.7712 -2.34115 -0.150728 0
M  V30 878 C 78.7872 -1.49838 -0.884567 0
M  V30 879 O 79.9632 -1.82704 -0.847429 0
M  V30 880 C 77.0282 -3.2705 -1.15062 0
M  V30 881 C 76.0892 -4.27228 -0.421293 0
M  V30 882 C 75.3222 -5.15722 -1.37355 0
M  V30 883 O 75.5452 -5.07176 -2.61014 0
M  V30 884 O 74.4792 -5.95383 -0.883355 0
M  V30 885 H 78.3052 -2.98309 0.569708 0
M  V30 886 H 75.8902 -1.45373 0.344535 0
M  V30 887 H 77.7722 -3.84381 -1.72712 0
M  V30 888 H 76.4472 -2.65451 -1.8525 0
M  V30 889 H 75.3542 -3.7358 0.197085 0
M  V30 890 H 76.6872 -4.91616 0.239641 0
M  V30 891 N 78.3393 -0.321999 -1.54275 0
M  V30 892 C 79.2693 0.537411 -2.27231 0
M  V30 893 C 80.2503 1.12064 -1.27968 0
M  V30 894 O 81.4353 1.14606 -1.56777 0
M  V30 895 C 78.5653 1.69919 -3.02894 0
M  V30 896 C 77.5193 1.24534 -4.09482 0
M  V30 897 C 76.8453 2.49394 -4.72977 0
M  V30 898 C 78.1453 0.361335 -5.21049 0
M  V30 899 H 79.8393 -0.0711406 -2.99315 0
M  V30 900 H 77.3853 -0.0356555 -1.43956 0
M  V30 901 H 79.3383 2.30668 -3.52662 0
M  V30 902 H 78.0623 2.33431 -2.28424 0
M  V30 903 H 76.7213 0.660782 -3.60596 0
M  V30 904 H 76.3693 3.11265 -3.95124 0
M  V30 905 H 76.0693 2.19718 -5.44975 0
M  V30 906 H 77.5933 3.10908 -5.25517 0
M  V30 907 H 79.0073 0.875072 -5.66582 0
M  V30 908 H 77.4043 0.157428 -5.99893 0
M  V30 909 H 78.4743 -0.60822 -4.8107 0
M  V30 910 N 79.8174 1.5752 -0.0501392 0
M  V30 911 C 80.7644 2.1147 0.924603 0
M  V30 912 C 81.7344 1.02182 1.30951 0
M  V30 913 O 82.9194 1.29723 1.39916 0
M  V30 914 C 80.0594 2.66337 2.19451 0
M  V30 915 C 79.1724 3.89708 1.86418 0
M  V30 916 C 78.3074 4.32893 3.07859 0
M  V30 917 C 77.3464 5.48967 2.70742 0
M  V30 918 N 76.4834 5.87211 3.84874 0
M  V30 919 H 81.3234 2.94465 0.457639 0
M  V30 920 H 78.8604 1.45531 0.214266 0
M  V30 921 H 80.8184 2.96247 2.93758 0
M  V30 922 H 79.4484 1.86141 2.63726 0
M  V30 923 H 78.5004 3.66396 1.02264 0
M  V30 924 H 79.8124 4.74074 1.55096 0
M  V30 925 H 78.9664 4.6435 3.90466 0
M  V30 926 H 77.7054 3.47336 3.42358 0
M  V30 927 H 76.7104 5.17183 1.86551 0
M  V30 928 H 77.9354 6.3624 2.37436 0
M  V30 929 H 75.8814 5.04607 4.19175 0
M  V30 930 H 75.7984 6.66266 3.57247 0
M  V30 931 H 77.0664 6.23282 4.68123 0
M  V30 932 N 81.2955 -0.223234 1.56011 0
M  V30 933 C 82.2455 -1.28008 1.88674 0
M  V30 934 C 83.2295 -1.42369 0.749663 0
M  V30 935 O 84.4215 -1.45212 1.01205 0
M  V30 936 C 81.5505 -2.63084 2.20548 0
M  V30 937 C 80.6365 -2.52632 3.40643 0
M  V30 938 N 81.0275 -2.11829 4.59306 0
M  V30 939 C 79.3255 -2.83594 3.44224 0
M  V30 940 C 80.0265 -2.12587 5.41463 0
M  V30 941 N 79.0025 -2.5301 4.81131 0
M  V30 942 H 82.8045 -0.955487 2.77935 0
M  V30 943 H 80.3185 -0.431801 1.56554 0
M  V30 944 H 82.3155 -3.39385 2.42122 0
M  V30 945 H 80.9755 -2.96391 1.32599 0
M  V30 946 H 81.9865 -1.82988 4.84496 0
M  V30 947 H 78.6635 -3.21284 2.66614 0
M  V30 948 H 80.0535 -1.83179 6.46448 0
M  V30 949 N 82.7736 -1.49793 -0.48987 0
M  V30 950 C 83.7036 -1.70201 -1.59856 0
M  V30 951 C 84.6846 -0.55076 -1.60937 0
M  V30 952 O 85.8696 -0.787841 -1.77501 0
M  V30 953 C 82.9996 -1.77882 -2.98287 0
M  V30 954 C 81.9536 -2.92907 -3.12073 0
M  V30 955 C 81.2796 -2.85712 -4.51965 0
M  V30 956 C 82.5796 -4.3369 -2.91051 0
M  V30 957 H 84.2736 -2.63025 -1.43032 0
M  V30 958 H 81.8196 -1.26574 -0.686664 0
M  V30 959 H 83.7726 -1.90744 -3.75759 0
M  V30 960 H 82.4966 -0.816653 -3.16225 0
M  V30 961 H 81.1556 -2.79665 -2.37029 0
M  V30 962 H 80.8036 -1.8738 -4.66795 0
M  V30 963 H 80.5036 -3.62921 -4.62128 0
M  V30 964 H 82.0276 -3.00598 -5.31482 0
M  V30 965 H 83.4416 -4.47555 -3.58284 0
M  V30 966 H 81.8386 -5.12205 -3.12675 0
M  V30 967 H 82.9086 -4.47362 -1.87071 0
M  V30 968 N 84.2517 0.741722 -1.39055 0
M  V30 969 C 85.1837 1.8657 -1.33133 0
M  V30 970 C 86.1967 1.61001 -0.241329 0
M  V30 971 O 87.3857 1.7136 -0.499784 0
M  V30 972 C 84.4857 3.22457 -1.04283 0
M  V30 973 C 83.6587 3.75435 -2.24427 0
M  V30 974 C 82.7177 4.89867 -1.92138 0
M  V30 975 O 81.7437 5.03879 -2.64754 0
M  V30 976 N 82.9457 5.73738 -0.88347 0
M  V30 977 H 85.7107 1.92156 -2.29991 0
M  V30 978 H 83.2717 0.922172 -1.3307 0
M  V30 979 H 85.2637 3.9657 -0.807128 0
M  V30 980 H 83.8337 3.12181 -0.161807 0
M  V30 981 H 83.0537 2.92751 -2.6399 0
M  V30 982 H 84.3417 4.07563 -3.04581 0
M  V30 983 H 83.7397 5.64999 -0.281517 0
M  V30 984 H 82.2967 6.47947 -0.707662 0
M  V30 985 N 85.7298 1.2412 0.971189 0
M  V30 986 C 86.9698 1.09066 1.7287 0
M  V30 987 C 87.3338 -0.364794 1.88503 0
M  V30 988 O 88.5348 -0.636748 2.61149 0
M  V30 989 C 86.8058 1.80629 3.08396 0
M  V30 990 S 88.3648 1.81263 3.99611 0
M  V30 991 H 85.1828 0.390145 0.594397 0
M  V30 992 H 87.7848 1.57397 1.15959 0
M  V30 993 H 86.4888 2.85647 2.94676 0
M  V30 994 H 86.0198 1.32617 3.70373 0
M  V30 995 H 88.0348 0.877804 4.88374 0
M  V30 996 N 87.2079 -1.17134 1.05439 0
M  V30 997 C 88.1379 -2.2342 0.678649 0
M  V30 998 C 89.1189 -1.66971 -0.32476 0
M  V30 999 O 90.3039 -1.93149 -0.201802 0
M  V30 1000 C 87.4339 -3.47256 0.0552099 0
M  V30 1001 C 86.3879 -4.16543 0.98365 0
M  V30 1002 C 85.7139 -5.34231 0.223961 0
M  V30 1003 C 87.0139 -4.68495 2.3089 0
M  V30 1004 H 88.7079 -2.55105 1.56722 0
M  V30 1005 H 86.2539 -1.2262 0.754998 0
M  V30 1006 H 88.2069 -4.20828 -0.21946 0
M  V30 1007 H 86.9309 -3.14846 -0.868319 0
M  V30 1008 H 85.5899 -3.44887 1.24293 0
M  V30 1009 H 85.2379 -4.98071 -0.702412 0
M  V30 1010 H 84.9379 -5.81527 0.842627 0
M  V30 1011 H 86.4619 -6.10585 -0.0433671 0
M  V30 1012 H 87.8759 -5.33691 2.09396 0
M  V30 1013 H 86.2729 -5.26379 2.88176 0
M  V30 1014 H 87.3429 -3.85169 2.94572 0
M  V30 1015 N 88.686 -0.835752 -1.33615 0
M  V30 1016 C 89.596 -0.269088 -2.33052 0
M  V30 1017 C 90.612 0.603251 -1.63208 0
M  V30 1018 O 91.788 0.508112 -1.94885 0
M  V30 1019 C 88.853 0.549091 -3.42324 0
M  V30 1020 C 87.914 -0.347156 -4.27894 0
M  V30 1021 C 87.147 0.43207 -5.31948 0
M  V30 1022 O 87.37 1.66409 -5.45586 0
M  V30 1023 O 86.304 -0.192298 -6.01593 0
M  V30 1024 H 90.13 -1.09243 -2.83372 0
M  V30 1025 H 87.715 -0.598198 -1.36901 0
M  V30 1026 H 89.597 1.01414 -4.09015 0
M  V30 1027 H 88.272 1.34955 -2.94226 0
M  V30 1028 H 87.179 -0.859979 -3.64081 0
M  V30 1029 H 88.512 -1.1123 -4.79467 0
M  V30 1030 N 90.1641 1.46063 -0.591896 0
M  V30 1031 C 91.0741 2.34192 0.13831 0
M  V30 1032 C 92.0901 1.50305 0.876608 0
M  V30 1033 O 93.2661 1.8315 0.837728 0
M  V30 1034 C 90.3311 3.27656 1.13326 0
M  V30 1035 C 89.3921 4.27445 0.39863 0
M  V30 1036 C 88.6251 5.16443 1.34618 0
M  V30 1037 O 88.8481 5.08553 2.58321 0
M  V30 1038 O 87.7821 5.95843 0.851768 0
M  V30 1039 H 91.6081 2.98002 -0.58552 0
M  V30 1040 H 89.1931 1.45188 -0.352239 0
M  V30 1041 H 91.0751 3.85291 1.70671 0
M  V30 1042 H 89.7501 2.6643 1.83839 0
M  V30 1043 H 88.6571 3.73471 -0.216895 0
M  V30 1044 H 89.9901 4.91482 -0.265709 0
M  V30 1045 N 91.6422 0.330177 1.54103 0
M  V30 1046 C 92.5522 -0.541534 2.28264 0
M  V30 1047 C 93.5682 -1.12351 1.32866 0
M  V30 1048 O 94.7442 -1.14206 1.65888 0
M  V30 1049 C 91.8092 -1.68322 3.03098 0
M  V30 1050 C 90.8702 -1.13238 4.14096 0
M  V30 1051 C 90.1032 -2.21966 4.85352 0
M  V30 1052 O 90.3262 -3.42437 4.56172 0
M  V30 1053 O 89.2602 -1.87013 5.7211 0
M  V30 1054 H 93.0862 0.060938 3.03639 0
M  V30 1055 H 90.6712 0.09565 1.49093 0
M  V30 1056 H 92.5532 -2.34777 3.49939 0
M  V30 1057 H 91.2282 -2.27176 2.30593 0
M  V30 1058 H 90.1352 -0.432736 3.71589 0
M  V30 1059 H 91.4682 -0.588898 4.88664 0
M  V30 1060 N 93.1203 -1.57491 0.0584922 0
M  V30 1061 C 94.0503 -2.14988 -0.911178 0
M  V30 1062 C 95.0313 -1.07343 -1.31952 0
M  V30 1063 O 96.2163 -1.35318 -1.39294 0
M  V30 1064 C 93.3463 -2.70078 -2.18347 0
M  V30 1065 C 92.3003 -3.82771 -1.91495 0
M  V30 1066 C 91.6263 -4.24408 -3.25241 0
M  V30 1067 C 92.9263 -5.07592 -1.23075 0
M  V30 1068 H 94.6203 -2.96263 -0.432246 0
M  V30 1069 H 92.1663 -1.42512 -0.206469 0
M  V30 1070 H 94.1193 -3.08943 -2.86587 0
M  V30 1071 H 92.8433 -1.86005 -2.68458 0
M  V30 1072 H 91.5023 -3.44389 -1.25664 0
M  V30 1073 H 91.1503 -3.37275 -3.73168 0
M  V30 1074 H 90.8503 -5.00366 -3.08071 0
M  V30 1075 H 92.3743 -4.65879 -3.94701 0
M  V30 1076 H 93.7883 -5.43857 -1.81362 0
M  V30 1077 H 92.1853 -5.88741 -1.16207 0
M  V30 1078 H 93.2553 -4.84454 -0.207847 0
M  V30 1079 N 94.5984 0.214957 -1.56127 0
M  V30 1080 C 95.5454 1.26642 -1.92952 0
M  V30 1081 C 96.5154 1.46244 -0.78753 0
M  V30 1082 O 97.7004 1.59704 -1.04399 0
M  V30 1083 C 94.8404 2.6104 -2.25726 0
M  V30 1084 C 93.9534 2.49183 -3.52891 0
M  V30 1085 C 93.0884 3.76149 -3.7508 0
M  V30 1086 C 92.1274 3.59041 -4.95738 0
M  V30 1087 N 91.2644 4.77972 -5.14283 0
M  V30 1088 H 96.1044 0.945384 -2.82607 0
M  V30 1089 H 93.6414 0.455489 -1.3987 0
M  V30 1090 H 95.5994 3.39313 -2.42739 0
M  V30 1091 H 94.2294 2.91227 -1.39236 0
M  V30 1092 H 93.2814 1.6231 -3.44034 0
M  V30 1093 H 94.5934 2.32466 -4.41318 0
M  V30 1094 H 93.7474 4.62865 -3.92226 0
M  V30 1095 H 92.4864 3.95799 -2.84947 0
M  V30 1096 H 91.4914 2.7071 -4.78535 0
M  V30 1097 H 92.7164 3.40856 -5.87362 0
M  V30 1098 H 90.6624 4.97923 -4.27093 0
M  V30 1099 H 90.5794 4.64006 -5.96853 0
M  V30 1100 H 91.8474 5.66096 -5.35869 0
M  V30 1101 N 96.0765 1.50051 0.48192 0
M  V30 1102 C 97.4875 1.5348 1.06305 0
M  V30 1103 C 97.8385 0.331997 1.93371 0
M  V30 1104 O 96.9635 -0.556256 2.09129 0
M  V30 1105 C 97.5585 2.7813 1.93466 0
M  V30 1106 C 96.1175 2.84275 2.46707 0
M  V30 1107 C 95.2645 2.47637 1.24785 0
M  V30 1108 H 98.2155 1.56472 0.264995 0
M  V30 1109 H 98.2365 2.59372 2.78399 0
M  V30 1110 H 97.7485 3.65654 1.30072 0
M  V30 1111 H 95.8495 2.01077 3.13686 0
M  V30 1112 H 95.9625 3.8691 2.82555 0
M  V30 1113 H 94.3265 1.99835 1.57918 0
M  V30 1114 H 95.1095 3.37457 0.630694 0
M  V30 1115 N 97.5546 -0.734337 1.39446 0
M  V30 1116 C 98.4846 -1.86155 1.40955 0
M  V30 1117 C 99.4656 -1.67898 0.272827 0
M  V30 1118 O 100.651 -1.88207 0.478743 0
M  V30 1119 C 97.7806 -3.23912 1.25294 0
M  V30 1120 C 96.7346 -3.56808 2.36373 0
M  V30 1121 C 96.0606 -4.93508 2.058 0
M  V30 1122 C 97.3606 -3.59713 3.78687 0
M  V30 1123 H 99.0546 -1.8515 2.35287 0
M  V30 1124 H 96.6006 -0.889367 1.13253 0
M  V30 1125 H 98.5536 -4.02443 1.2497 0
M  V30 1126 H 97.2776 -3.25446 0.274308 0
M  V30 1127 H 95.9366 -2.80606 2.35914 0
M  V30 1128 H 95.5846 -4.91623 1.06374 0
M  V30 1129 H 95.2846 -5.16486 2.80208 0
M  V30 1130 H 96.8086 -5.74396 2.07128 0
M  V30 1131 H 98.2226 -4.2832 3.81071 0
M  V30 1132 H 96.6196 -3.94209 4.52459 0
M  V30 1133 H 97.6896 -2.59504 4.09617 0
M  V30 1134 N 99.0327 -1.24633 -0.964593 0
M  V30 1135 C 99.9427 -1.05859 -2.09359 0
M  V30 1136 C 100.959 0.00148855 -1.74 0
M  V30 1137 O 102.135 -0.197346 -2.00431 0
M  V30 1138 C 99.1997 -0.668879 -3.40187 0
M  V30 1139 C 98.2607 -1.80578 -3.89474 0
M  V30 1140 C 97.4937 -1.43457 -5.14058 0
M  V30 1141 O 97.7167 -0.325775 -5.69469 0
M  V30 1142 O 96.6507 -2.2613 -5.57807 0
M  V30 1143 H 100.477 -2.00516 -2.28094 0
M  V30 1144 H 98.0617 -1.03481 -1.0776 0
M  V30 1145 H 99.9437 -0.463211 -4.18846 0
M  V30 1146 H 98.6187 0.248536 -3.22744 0
M  V30 1147 H 97.5257 -2.06623 -3.11862 0
M  V30 1148 H 98.8587 -2.70208 -4.11398 0
M  V30 1149 N 100.511 1.16574 -1.06058 0
M  V30 1150 C 101.421 2.2452 -0.680282 0
M  V30 1151 C 102.437 1.71348 0.302604 0
M  V30 1152 O 103.613 2.00822 0.152513 0
M  V30 1153 C 100.678 3.46629 -0.0700315 0
M  V30 1154 C 99.7388 4.14849 -1.10448 0
M  V30 1155 C 98.9718 5.31129 -0.523256 0
M  V30 1156 O 99.1948 5.66514 0.664709 0
M  V30 1157 O 98.1288 5.88526 -1.26179 0
M  V30 1158 H 101.955 2.59355 -1.58015 0
M  V30 1159 H 99.5398 1.24043 -0.832694 0
M  V30 1160 H 101.422 4.20543 0.268667 0
M  V30 1161 H 100.097 3.13573 0.803353 0
M  V30 1162 H 99.0038 3.42916 -1.49532 0
M  V30 1163 H 100.337 4.51954 -1.94931 0
M  V30 1164 N 101.989 0.842826 1.3317 0
M  V30 1165 C 103.235 0.441099 1.97945 0
M  V30 1166 C 103.568 -0.998024 1.66593 0
M  V30 1167 O 102.843 -1.69839 0.947898 0
M  V30 1168 C 103.126 0.666841 3.53872 0
M  V30 1169 C 102.979 2.15352 3.94897 0
M  V30 1170 C 104.298 0.115544 4.39948 0
M  V30 1171 H 101.417 0.161739 0.719034 0
M  V30 1172 H 104.059 1.05907 1.57746 0
M  V30 1173 H 102.209 0.140828 3.88245 0
M  V30 1174 H 103.881 2.7447 3.70761 0
M  V30 1175 H 102.124 2.63653 3.44484 0
M  V30 1176 H 102.795 2.26221 5.03516 0
M  V30 1177 H 105.271 0.565213 4.12243 0
M  V30 1178 H 104.147 0.303152 5.48062 0
M  V30 1179 H 104.408 -0.980935 4.3108 0
M  V30 1180 N 103.467 -1.45747 0.599634 0
M  V30 1181 C 104.397 -2.33235 -0.111306 0
M  V30 1182 C 105.378 -1.46359 -0.866781 0
M  V30 1183 O 106.563 -1.75146 -0.838904 0
M  V30 1184 C 103.693 -3.28932 -1.11451 0
M  V30 1185 C 102.647 -4.25381 -0.472772 0
M  V30 1186 C 101.973 -5.1071 -1.58365 0
M  V30 1187 C 103.273 -5.18831 0.600948 0
M  V30 1188 H 104.967 -2.92927 0.61919 0
M  V30 1189 H 102.513 -1.40857 0.299215 0
M  V30 1190 H 104.466 -3.89002 -1.62036 0
M  V30 1191 H 103.19 -2.67381 -1.8755 0
M  V30 1192 H 101.849 -3.66598 0.0121472 0
M  V30 1193 H 101.497 -4.45533 -2.33473 0
M  V30 1194 H 101.197 -5.7604 -1.15982 0
M  V30 1195 H 102.721 -5.73647 -2.09194 0
M  V30 1196 H 104.135 -5.73019 0.179491 0
M  V30 1197 H 102.532 -5.92595 0.946076 0
M  V30 1198 H 103.602 -4.6174 1.48068 0
M  V30 1199 N 104.945 -0.338344 -1.53925 0
M  V30 1200 C 105.893 0.536231 -2.26335 0
M  V30 1201 C 106.887 1.1063 -1.28286 0
M  V30 1202 O 108.093 1.05264 -1.46012 0
M  V30 1203 H 104.468 0.191602 -0.727181 0
M  V30 1204 H 106.439 -0.0965747 -2.98244 0
M  V30 1205 C 105.188 1.67803 -3.04528 0
M  V30 1206 H 104.511 1.24864 -3.79801 0
M  V30 1207 H 105.951 2.26526 -3.58416 0
M  V30 1208 C 104.41 2.60439 -2.13712 0
M  V30 1209 O 104.94 3.6255 -1.72975 0
M  V30 1210 N 103.146 2.29006 -1.78898 0
M  V30 1211 H 102.693 1.46011 -2.12223 0
M  V30 1212 H 102.651 2.91248 -1.18416 0
M  V30 1213 N 106.423 1.57458 -0.0668435 0
M  V30 1214 C 107.353 2.15468 0.899764 0
M  V30 1215 C 108.334 1.08042 1.31381 0
M  V30 1216 O 109.519 1.36054 1.38574 0
M  V30 1217 C 106.649 2.71232 2.16911 0
M  V30 1218 C 105.603 3.83781 1.89463 0
M  V30 1219 C 104.929 4.26127 3.22986 0
M  V30 1220 C 106.229 5.08238 1.20381 0
M  V30 1221 H 107.923 2.96488 0.416529 0
M  V30 1222 H 105.469 1.4262 0.198908 0
M  V30 1223 H 107.422 3.10458 2.84945 0
M  V30 1224 H 106.146 1.87426 2.67468 0
M  V30 1225 H 104.805 3.45051 1.23836 0
M  V30 1226 H 104.453 3.39249 3.71374 0
M  V30 1227 H 104.153 5.01993 3.05413 0
M  V30 1228 H 105.677 4.67966 3.92225 0
M  V30 1229 H 107.091 5.44811 1.78475 0
M  V30 1230 H 105.488 5.89349 1.13083 0
M  V30 1231 H 106.558 4.84558 0.182153 0
M  V30 1232 N 107.901 -0.206675 1.56239 0
M  V30 1233 C 108.864 -1.23976 1.92776 0
M  V30 1234 C 109.864 -1.39041 0.807729 0
M  V30 1235 O 111.054 -1.37051 1.0753 0
M  V30 1236 C 108.186 -2.61112 2.19165 0
M  V30 1237 H 109.379 -0.927764 2.85189 0
M  V30 1238 H 106.932 -0.447718 1.4975 0
M  V30 1239 H 107.667 -2.97386 1.29352 0
M  V30 1240 H 107.452 -2.51552 3.00772 0
M  V30 1241 H 108.942 -3.35633 2.48476 0
M  V30 1242 N 109.379 -1.50304 -0.473955 0
M  V30 1243 C 110.311 -1.65109 -1.58971 0
M  V30 1244 C 111.324 -0.532676 -1.53839 0
M  V30 1245 O 112.513 -0.805751 -1.59279 0
M  V30 1246 C 109.613 -1.61684 -2.97845 0
M  V30 1247 C 108.786 -2.8951 -3.27876 0
M  V30 1248 C 107.845 -2.78768 -4.4629 0
M  V30 1249 O 106.871 -3.52722 -4.46739 0
M  V30 1250 N 108.073 -1.9213 -5.47783 0
M  V30 1251 H 110.838 -2.61347 -1.46689 0
M  V30 1252 H 108.399 -1.47732 -0.662324 0
M  V30 1253 H 110.391 -1.52114 -3.75024 0
M  V30 1254 H 108.961 -0.731925 -3.03911 0
M  V30 1255 H 108.181 -3.13228 -2.39336 0
M  V30 1256 H 109.469 -3.74199 -3.4475 0
M  V30 1257 H 108.867 -1.31353 -5.50239 0
M  V30 1258 H 107.424 -1.88466 -6.23958 0
M  V30 1259 N 110.857 0.726932 -1.39834 0
M  V30 1260 C 112.082 1.52121 -1.40976 0
M  V30 1261 C 112.507 1.88098 -0.00826029 0
M  V30 1262 O 111.865 1.52479 0.980807 0
M  V30 1263 C 111.913 2.78021 -2.29644 0
M  V30 1264 O 111.017 3.74272 -1.73188 0
M  V30 1265 H 110.358 0.45908 -0.479731 0
M  V30 1266 H 112.888 0.896207 -1.83927 0
M  V30 1267 H 112.898 3.26671 -2.44438 0
M  V30 1268 H 111.573 2.51169 -3.31492 0
M  V30 1269 H 110.15 3.33073 -1.6768 0
M  V30 1270 N 112.336 1.25143 0.95797 0
M  V30 1271 C 113.283 1.05235 2.05412 0
M  V30 1272 C 114.253 -0.0374561 1.66058 0
M  V30 1273 O 115.438 0.119073 1.90428 0
M  V30 1274 C 112.578 0.673589 3.38462 0
M  V30 1275 C 111.691 1.8379 3.90954 0
M  V30 1276 C 110.826 1.40381 5.12315 0
M  V30 1277 C 109.865 2.53746 5.57027 0
M  V30 1278 N 109.002 2.11136 6.69601 0
M  V30 1279 H 113.842 1.99048 2.21774 0
M  V30 1280 H 111.379 0.991277 1.08683 0
M  V30 1281 H 113.337 0.434964 4.14926 0
M  V30 1282 H 111.967 -0.227554 3.21997 0
M  V30 1283 H 111.019 2.18992 3.11041 0
M  V30 1284 H 112.331 2.68937 4.20089 0
M  V30 1285 H 111.485 1.12464 5.96185 0
M  V30 1286 H 110.224 0.523015 4.84887 0
M  V30 1287 H 109.229 2.82412 4.71724 0
M  V30 1288 H 110.454 3.42398 5.86464 0
M  V30 1289 H 108.4 1.25468 6.4389 0
M  V30 1290 H 108.317 2.89832 6.98236 0
M  V30 1291 H 109.585 1.86385 7.56889 0
M  V30 1292 N 113.814 -1.1601 1.06675 0
M  V30 1293 C 114.762 -2.22586 0.675157 0
M  V30 1294 C 115.756 -1.66525 -0.310766 0
M  V30 1295 O 116.962 -1.79145 -0.175215 0
M  V30 1296 H 113.337 -0.724855 0.200223 0
M  V30 1297 H 115.308 -2.52899 1.58381 0
M  V30 1298 C 114.057 -3.47604 0.0817162 0
M  V30 1299 H 113.38 -3.91058 0.831484 0
M  V30 1300 H 114.82 -4.23718 -0.154708 0
M  V30 1301 C 113.279 -3.15718 -1.17576 0
M  V30 1302 O 113.809 -3.31878 -2.26318 0
M  V30 1303 N 112.015 -2.69816 -1.07923 0
M  V30 1304 H 111.562 -2.56866 -0.194293 0
M  V30 1305 H 111.52 -2.48855 -1.92141 0
M  V30 1306 N 115.292 -0.849877 -1.32721 0
M  V30 1307 C 116.539 -0.450923 -1.97416 0
M  V30 1308 C 116.867 0.992376 -1.67279 0
M  V30 1309 O 116.122 1.71048 -0.950845 0
M  V30 1310 C 116.421 -0.631272 -3.51781 0
M  V30 1311 C 116.087 -2.04432 -4.01894 0
M  V30 1312 C 114.749 -2.4308 -4.1529 0
M  V30 1313 C 117.101 -2.96679 -4.28522 0
M  V30 1314 C 114.429 -3.73257 -4.52654 0
M  V30 1315 C 116.781 -4.26349 -4.67343 0
M  V30 1316 C 115.445 -4.64939 -4.78945 0
M  V30 1317 H 114.715 -0.165004 -0.722395 0
M  V30 1318 H 117.362 -1.07901 -1.58207 0
M  V30 1319 H 115.667 0.0800767 -3.91718 0
M  V30 1320 H 117.364 -0.302709 -3.99856 0
M  V30 1321 H 113.954 -1.73419 -3.91949 0
M  V30 1322 H 118.138 -2.68054 -4.17685 0
M  V30 1323 H 113.394 -4.02946 -4.59831 0
M  V30 1324 H 117.568 -4.97895 -4.86902 0
M  V30 1325 H 115.195 -5.65855 -5.07654 0
M  V30 1326 N 116.77 1.45427 -0.607355 0
M  V30 1327 C 117.72 2.27612 0.133038 0
M  V30 1328 C 118.704 1.37307 0.838785 0
M  V30 1329 O 119.896 1.61299 0.728813 0
M  V30 1330 C 117.025 3.24173 1.12991 0
M  V30 1331 C 116.111 4.21965 0.425011 0
M  V30 1332 N 116.502 5.02982 -0.533217 0
M  V30 1333 C 114.8 4.40899 0.672593 0
M  V30 1334 C 115.501 5.73931 -0.947518 0
M  V30 1335 N 114.477 5.42819 -0.291321 0
M  V30 1336 H 118.279 2.87649 -0.602935 0
M  V30 1337 H 115.793 1.56576 -0.431006 0
M  V30 1338 H 117.79 3.81783 1.67473 0
M  V30 1339 H 116.45 2.65696 1.86644 0
M  V30 1340 H 117.461 5.09843 -0.90995 0
M  V30 1341 H 114.138 3.93547 1.39382 0
M  V30 1342 H 115.528 6.49037 -1.73782 0
M  V30 1343 N 118.248 0.346503 1.53744 0
M  V30 1344 C 119.178 -0.501193 2.28058 0
M  V30 1345 C 120.159 -1.10014 1.29734 0
M  V30 1346 O 121.344 -1.12097 1.58581 0
M  V30 1347 C 118.474 -1.65078 3.05559 0
M  V30 1348 C 117.428 -1.18003 4.11411 0
M  V30 1349 C 116.754 -2.41837 4.76884 0
M  V30 1350 C 118.054 -0.278394 5.21558 0
M  V30 1351 H 119.748 0.11875 2.99164 0
M  V30 1352 H 117.294 0.0585531 1.43881 0
M  V30 1353 H 119.247 -2.25028 3.56287 0
M  V30 1354 H 117.971 -2.29767 2.32109 0
M  V30 1355 H 116.63 -0.603331 3.61601 0
M  V30 1356 H 116.278 -3.0494 4.00026 0
M  V30 1357 H 115.978 -2.1102 5.48402 0
M  V30 1358 H 117.502 -3.02508 5.30397 0
M  V30 1359 H 118.916 -0.784823 5.67903 0
M  V30 1360 H 117.313 -0.0619707 6.00068 0
M  V30 1361 H 118.383 0.684677 4.80042 0
M  V30 1362 N 119.726 -1.57421 0.075193 0
M  V30 1363 C 121.142 -1.57099 -0.281444 0
M  V30 1364 C 121.342 -1.08486 -1.69803 0
M  V30 1365 O 120.398 -0.752279 -2.41033 0
M  V30 1366 C 121.711 -3.00571 -0.0880041 0
M  V30 1367 C 123.259 -3.12605 -0.157281 0
M  V30 1368 C 123.734 -4.57999 0.0079207 0
M  V30 1369 N 125.225 -4.63176 -0.0475725 0
M  V30 1370 C 125.96 -5.73373 0.0557876 0
M  V30 1371 N 125.456 -6.92473 0.21286 0
M  V30 1372 N 127.249 -5.621 -0.00152098 0
M  V30 1373 H 119.4 -1.87335 1.00098 0
M  V30 1374 H 121.663 -0.86377 0.390646 0
M  V30 1375 H 121.369 -3.40262 0.889629 0
M  V30 1376 H 121.243 -3.67754 -0.838875 0
M  V30 1377 H 123.63 -2.72798 -1.1254 0
M  V30 1378 H 123.711 -2.48053 0.62475 0
M  V30 1379 H 123.355 -4.98496 0.972824 0
M  V30 1380 H 123.285 -5.20586 -0.793556 0
M  V30 1381 H 125.776 -3.7753 -0.167244 0
M  V30 1382 H 126.089 -7.72279 0.283781 0
M  V30 1383 H 124.434 -6.94556 0.248267 0
M  V30 1384 H 127.625 -4.67938 -0.122958 0
M  V30 1385 H 127.798 -6.47948 0.0824844 0
M  V30 1386 N 121.204 0.198386 -1.56346 0
M  V30 1387 C 122.615 0.763358 -1.70381 0
M  V30 1388 C 122.966 1.83995 -0.681203 0
M  V30 1389 O 122.091 2.15785 0.16305 0
M  V30 1390 C 122.686 1.39143 -3.08909 0
M  V30 1391 C 121.245 1.90352 -3.2472 0
M  V30 1392 C 120.392 0.772233 -2.6633 0
M  V30 1393 H 123.343 -0.0266377 -1.58678 0
M  V30 1394 H 123.364 2.26076 -3.06055 0
M  V30 1395 H 122.876 0.607638 -3.83314 0
M  V30 1396 H 120.977 2.71461 -2.55225 0
M  V30 1397 H 121.09 2.06757 -4.3219 0
M  V30 1398 H 119.454 1.18566 -2.2542 0
M  V30 1399 H 120.237 0.00073556 -3.433 0
M  V30 1400 N 122.682 1.50554 0.465978 0
M  V30 1401 C 124.098 1.38093 0.800154 0
M  V30 1402 C 124.298 0.440988 1.96615 0
M  V30 1403 O 123.354 -0.114499 2.5224 0
M  V30 1404 C 124.667 2.79565 1.10742 0
M  V30 1405 C 126.215 2.88516 1.21357 0
M  V30 1406 C 126.69 4.30833 1.55393 0
M  V30 1407 N 128.181 4.33807 1.62375 0
M  V30 1408 C 128.916 5.40927 1.90225 0
M  V30 1409 N 128.412 6.58247 2.16062 0
M  V30 1410 N 130.205 5.28376 1.9177 0
M  V30 1411 H 122.356 2.10237 -0.302366 0
M  V30 1412 H 124.619 0.945203 -0.0727746 0
M  V30 1413 H 124.325 3.50208 0.323661 0
M  V30 1414 H 124.199 3.17125 2.04234 0
M  V30 1415 H 126.586 2.1809 1.98799 0
M  V30 1416 H 126.667 2.54492 0.258321 0
M  V30 1417 H 126.311 5.01799 0.784889 0
M  V30 1418 H 126.241 4.62347 2.52076 0
M  V30 1419 H 128.732 3.49212 1.44427 0
M  V30 1420 H 129.045 7.3569 2.36601 0
M  V30 1421 H 127.39 6.61413 2.13444 0
M  V30 1422 H 130.581 4.35715 1.71085 0
M  V30 1423 H 130.754 6.11944 2.13139 0
M  V30 1424 N 124.16 -0.719506 1.40217 0
M  V30 1425 C 125.437 -1.47221 1.28784 0
M  V30 1426 C 125.817 -2.10883 -0.0956067 0
M  V30 1427 O 125.165 -1.99833 -1.10811 0
M  V30 1428 C 125.375 -2.5111 2.42373 0
M  V30 1429 C 126.723 -3.17053 2.82423 0
M  V30 1430 O 127.747 -2.61429 2.41937 0
M  V30 1431 O 126.606 -4.17742 3.52355 0
M  V30 1432 H 123.7 -0.654491 0.50554 0
M  V30 1433 H 126.246 -0.752014 1.52128 0
M  V30 1434 H 125.018 -2.02556 3.34793 0
M  V30 1435 H 124.641 -3.3067 2.20778 0
M  V30 1436 N 125.638 -1.25649 -0.95132 0
M  V30 1437 C 126.568 -1.08808 -2.06599 0
M  V30 1438 C 127.549 0.00382547 -1.701 0
M  V30 1439 O 128.734 -0.166325 -1.93486 0
M  V30 1440 C 125.864 -0.709542 -3.39975 0
M  V30 1441 C 124.818 -1.75206 -3.90496 0
M  V30 1442 C 124.144 -1.22811 -5.20405 0
M  V30 1443 C 125.444 -3.15153 -4.16504 0
M  V30 1444 H 127.138 -2.02048 -2.20946 0
M  V30 1445 H 124.684 -0.972835 -1.06169 0
M  V30 1446 H 126.637 -0.578649 -4.17408 0
M  V30 1447 H 125.361 0.258556 -3.25575 0
M  V30 1448 H 124.02 -1.87145 -3.15234 0
M  V30 1449 H 123.668 -0.250145 -5.02378 0
M  V30 1450 H 123.368 -1.92492 -5.55176 0
M  V30 1451 H 124.892 -1.10968 -6.00432 0
M  V30 1452 H 126.306 -3.06349 -4.84586 0
M  V30 1453 H 124.703 -3.82333 -4.62538 0
M  V30 1454 H 125.773 -3.61966 -3.22658 0
M  V30 1455 N 127.117 1.15442 -1.07289 0
M  V30 1456 C 128.366 1.85557 -0.790669 0
M  V30 1457 C 128.679 1.83186 0.685739 0
M  V30 1458 O 129.885 2.48977 1.0827 0
M  V30 1459 C 128.341 3.33038 -1.36433 0
M  V30 1460 C 127.949 3.43856 -2.8717 0
M  V30 1461 C 129.693 4.0834 -1.1601 0
M  V30 1462 C 127.6 4.85482 -3.3773 0
M  V30 1463 H 126.53 0.695122 -0.292098 0
M  V30 1464 H 129.181 1.30219 -1.29287 0
M  V30 1465 H 127.563 3.88043 -0.789864 0
M  V30 1466 H 128.737 2.98961 -3.50655 0
M  V30 1467 H 127.052 2.81998 -3.06376 0
M  V30 1468 H 129.649 5.12859 -1.51262 0
M  V30 1469 H 129.992 4.16182 -0.0991007 0
M  V30 1470 H 130.525 3.59603 -1.70089 0
M  V30 1471 H 127.264 4.82823 -4.43353 0
M  V30 1472 H 126.784 5.30961 -2.78999 0
M  V30 1473 H 128.463 5.54335 -3.33648 0
M  V30 1474 N 128.595 0.856903 1.32268 0
M  V30 1475 C 129.82 0.474569 2.01897 0
M  V30 1476 C 130.245 -0.921766 1.63967 0
M  V30 1477 O 129.603 -1.60589 0.84148 0
M  V30 1478 C 129.651 0.623799 3.55164 0
M  V30 1479 O 128.755 -0.342459 4.10976 0
M  V30 1480 H 128.096 0.190422 0.63611 0
M  V30 1481 H 130.626 1.15672 1.68764 0
M  V30 1482 H 130.636 0.512169 4.04773 0
M  V30 1483 H 129.311 1.64202 3.82113 0
M  V30 1484 H 127.888 -0.18688 3.72431 0
M  V30 1485 N 130.073 -1.45103 0.615059 0
M  V30 1486 C 131.021 -2.32331 -0.111791 0
M  V30 1487 C 132.015 -1.46409 -0.852102 0
M  V30 1488 O 133.221 -1.62849 -0.766821 0
M  V30 1489 H 129.596 -0.749993 -0.0549072 0
M  V30 1490 H 131.567 -2.91407 0.642225 0
M  V30 1491 C 130.316 -3.3015 -1.09071 0
M  V30 1492 H 129.639 -3.96265 -0.530485 0
M  V30 1493 H 131.079 -3.93898 -1.56908 0
M  V30 1494 C 129.538 -2.57875 -2.168 0
M  V30 1495 O 130.068 -2.36567 -3.24652 0
M  V30 1496 N 128.274 -2.17884 -1.92289 0
M  V30 1497 H 127.821 -2.35413 -1.04587 0
M  V30 1498 H 127.779 -1.6985 -2.64572 0
M  V30 1499 N 131.551 -0.354651 -1.53558 0
M  V30 1500 C 132.8 0.239504 -2.00273 0
M  V30 1501 C 133.113 1.50759 -1.24623 0
M  V30 1502 O 134.319 2.17968 -1.61871 0
M  V30 1503 C 132.775 0.477341 -3.5672 0
M  V30 1504 C 132.383 -0.775488 -4.41237 0
M  V30 1505 C 134.127 1.02975 -4.11821 0
M  V30 1506 C 132.034 -0.507838 -5.89216 0
M  V30 1507 H 130.964 0.0932743 -0.748208 0
M  V30 1508 H 133.615 -0.471701 -1.77334 0
M  V30 1509 H 131.997 1.24953 -3.7577 0
M  V30 1510 H 133.171 -1.54963 -4.33962 0
M  V30 1511 H 131.486 -1.25033 -3.97185 0
M  V30 1512 H 134.083 1.24513 -5.2 0
M  V30 1513 H 134.426 1.98862 -3.65731 0
M  V30 1514 H 134.959 0.317994 -3.96527 0
M  V30 1515 H 131.698 -1.43674 -6.39561 0
M  V30 1516 H 131.218 0.228011 -5.99366 0
M  V30 1517 H 132.897 -0.129238 -6.46871 0
M  V30 1518 N 133.029 1.57378 -0.0835403 0
M  V30 1519 C 133.977 2.14602 0.89714 0
M  V30 1520 C 134.971 1.08589 1.30018 0
M  V30 1521 O 136.177 1.26952 1.27606 0
M  V30 1522 H 132.552 0.686346 0.3073 0
M  V30 1523 H 134.523 2.95845 0.38969 0
M  V30 1524 C 133.272 2.73188 2.15089 0
M  V30 1525 H 132.595 3.54442 1.84962 0
M  V30 1526 H 134.035 3.1681 2.81793 0
M  V30 1527 C 132.494 1.68517 2.91725 0
M  V30 1528 O 133.024 1.11718 3.85852 0
M  V30 1529 N 131.23 1.39277 2.55049 0
M  V30 1530 H 130.777 1.85655 1.78577 0
M  V30 1531 H 130.735 0.694791 3.06627 0
M  V30 1532 N 134.507 -0.190092 1.56449 0
M  V30 1533 C 135.753 -0.911052 1.81184 0
M  V30 1534 C 136.086 -1.82699 0.658396 0
M  V30 1535 O 135.361 -1.91491 -0.340775 0
M  V30 1536 C 135.644 -1.72297 3.16205 0
M  V30 1537 C 135.497 -0.831419 4.42049 0
M  V30 1538 C 136.816 -2.69454 3.47969 0
M  V30 1539 H 133.935 -0.32977 0.659106 0
M  V30 1540 H 136.577 -0.178169 1.89163 0
M  V30 1541 H 134.727 -2.34778 3.09534 0
M  V30 1542 H 136.399 -0.220929 4.60771 0
M  V30 1543 H 134.642 -0.138406 4.33579 0
M  V30 1544 H 135.313 -1.43461 5.33032 0
M  V30 1545 H 137.789 -2.17104 3.54972 0
M  V30 1546 H 136.665 -3.23342 4.43555 0
M  V30 1547 H 136.926 -3.48744 2.71717 0
M  V30 1548 N 135.985 -1.50799 -0.457987 0
M  V30 1549 C 137.234 -1.6168 -1.20593 0
M  V30 1550 C 137.547 -0.32888 -1.92815 0
M  V30 1551 O 138.753 -0.316773 -2.69646 0
M  V30 1552 C 137.209 -2.8545 -2.19195 0
M  V30 1553 C 136.817 -4.21168 -1.52715 0
M  V30 1554 C 138.561 -3.05681 -2.94549 0
M  V30 1555 C 136.468 -5.3611 -2.4968 0
M  V30 1556 H 135.398 -0.602134 -0.453818 0
M  V30 1557 H 138.049 -1.77245 -0.475031 0
M  V30 1558 H 136.431 -2.63472 -2.95632 0
M  V30 1559 H 137.605 -4.53449 -0.819775 0
M  V30 1560 H 135.92 -4.06648 -0.895922 0
M  V30 1561 H 138.517 -3.88727 -3.67145 0
M  V30 1562 H 138.86 -2.17929 -3.54701 0
M  V30 1563 H 139.393 -3.27901 -2.25223 0
M  V30 1564 H 136.132 -6.26057 -1.94249 0
M  V30 1565 H 135.652 -5.0823 -3.18532 0
M  V30 1566 H 137.331 -5.6722 -3.11241 0
M  V30 1567 N 137.463 0.71206 -1.40597 0
M  V30 1568 C 138.709 1.47416 -1.39271 0
M  V30 1569 C 139.042 1.942 0.00388791 0
M  V30 1570 O 138.317 1.68403 0.973179 0
M  V30 1571 C 138.6 2.69774 -2.38525 0
M  V30 1572 C 138.453 2.28861 -3.87224 0
M  V30 1573 C 139.772 3.71939 -2.35264 0
M  V30 1574 H 136.891 0.534713 -0.5072 0
M  V30 1575 H 139.533 0.812375 -1.71757 0
M  V30 1576 H 137.683 3.26238 -2.10953 0
M  V30 1577 H 139.355 1.77852 -4.25636 0
M  V30 1578 H 137.598 1.60824 -4.02887 0
M  V30 1579 H 138.269 3.16584 -4.52193 0
M  V30 1580 H 140.745 3.25113 -2.59694 0
M  V30 1581 H 139.621 4.55186 -3.06753 0
M  V30 1582 H 139.882 4.20484 -1.36549 0
M  V30 1583 N 138.941 1.26152 0.944643 0
M  V30 1584 C 139.871 1.09902 2.06019 0
M  V30 1585 C 140.852 0.00519538 1.70099 0
M  V30 1586 O 142.037 0.176583 1.93396 0
M  V30 1587 C 139.167 0.727562 3.39594 0
M  V30 1588 C 138.121 1.77274 3.89561 0
M  V30 1589 C 137.447 1.25569 5.19747 0
M  V30 1590 C 138.747 3.17357 4.14827 0
M  V30 1591 H 140.441 2.03217 2.19871 0
M  V30 1592 H 137.987 0.978452 1.05652 0
M  V30 1593 H 139.94 0.600777 4.17095 0
M  V30 1594 H 138.664 -0.241287 3.25707 0
M  V30 1595 H 137.323 1.88814 3.14237 0
M  V30 1596 H 136.971 0.276783 5.02238 0
M  V30 1597 H 136.671 1.95433 5.54148 0
M  V30 1598 H 138.195 1.1415 5.99835 0
M  V30 1599 H 139.609 3.08914 4.82954 0
M  V30 1600 H 138.006 3.84781 4.60504 0
M  V30 1601 H 139.076 3.63673 3.20734 0
M  V30 1602 N 140.419 -1.14872 1.07899 0
M  V30 1603 C 141.329 -2.2341 0.715915 0
M  V30 1604 C 142.345 -1.71808 -0.275306 0
M  V30 1605 O 143.521 -2.01039 -0.120545 0
M  V30 1606 C 140.586 -3.46474 0.125168 0
M  V30 1607 C 139.647 -4.13039 1.17034 0
M  V30 1608 C 138.88 -5.30229 0.607688 0
M  V30 1609 O 139.103 -5.675 -0.574497 0
M  V30 1610 O 138.037 -5.86444 1.35526 0
M  V30 1611 H 141.863 -2.56808 1.62121 0
M  V30 1612 H 139.448 -1.22702 0.852322 0
M  V30 1613 H 141.33 -4.20917 -0.201729 0
M  V30 1614 H 140.005 -3.14811 -0.753364 0
M  V30 1615 H 138.912 -3.40493 1.54968 0
M  V30 1616 H 140.245 -4.48796 2.02097 0
M  V30 1617 N 141.898 -0.863906 -1.31812 0
M  V30 1618 C 142.828 -0.330843 -2.31144 0
M  V30 1619 C 143.809 0.575005 -1.60087 0
M  V30 1620 O 144.994 0.493304 -1.8783 0
M  V30 1621 C 142.124 0.47374 -3.44054 0
M  V30 1622 C 141.078 -0.338481 -4.26659 0
M  V30 1623 C 140.404 0.591412 -5.31419 0
M  V30 1624 C 141.704 -1.56926 -4.98168 0
M  V30 1625 H 143.398 -1.16086 -2.75979 0
M  V30 1626 H 140.944 -0.559657 -1.32679 0
M  V30 1627 H 142.897 0.857143 -4.12591 0
M  V30 1628 H 141.621 1.33721 -2.9797 0
M  V30 1629 H 140.28 -0.703754 -3.59782 0
M  V30 1630 H 139.928 1.45199 -4.81587 0
M  V30 1631 H 139.628 0.0519022 -5.87577 0
M  V30 1632 H 141.152 0.97179 -6.02817 0
M  V30 1633 H 142.566 -1.25764 -5.59336 0
M  V30 1634 H 140.963 -2.04739 -5.64094 0
M  V30 1635 H 142.033 -2.32544 -4.25501 0
M  V30 1636 N 143.376 1.44774 -0.622745 0
M  V30 1637 C 144.323 2.30635 0.0871679 0
M  V30 1638 C 145.293 1.42994 0.845097 0
M  V30 1639 O 146.478 1.71907 0.827812 0
M  V30 1640 C 143.618 3.28144 1.06844 0
M  V30 1641 C 142.731 4.30888 0.309809 0
M  V30 1642 C 141.866 5.15494 1.28215 0
M  V30 1643 C 140.905 6.09953 0.512198 0
M  V30 1644 N 140.042 6.87287 1.43458 0
M  V30 1645 H 144.882 2.90803 -0.650974 0
M  V30 1646 H 142.419 1.43286 -0.33281 0
M  V30 1647 H 144.377 3.83157 1.65066 0
M  V30 1648 H 143.007 2.69695 1.77382 0
M  V30 1649 H 142.059 3.78414 -0.388181 0
M  V30 1650 H 143.371 4.97955 -0.290254 0
M  V30 1651 H 142.525 5.74983 1.93596 0
M  V30 1652 H 141.264 4.48481 1.91614 0
M  V30 1653 H 140.269 5.49581 -0.155151 0
M  V30 1654 H 141.494 6.78999 -0.116958 0
M  V30 1655 H 139.44 6.2295 2.05594 0
M  V30 1656 H 139.357 7.50763 0.888335 0
M  V30 1657 H 140.625 7.51306 2.07749 0
M  V30 1658 N 144.854 0.36279 1.53368 0
M  V30 1659 C 146.102 -0.227326 2.00817 0
M  V30 1660 C 146.423 -1.49511 1.25186 0
M  V30 1661 O 145.693 -1.92482 0.364348 0
M  V30 1662 H 144.273 -0.0869923 0.741917 0
M  V30 1663 H 146.935 0.488381 1.88682 0
M  V30 1664 H 146.031 -0.456273 3.08747 0
M  V30 1665 N 146.332 -1.57332 0.0918853 0
M  V30 1666 C 147.557 -1.98995 -0.584442 0
M  V30 1667 C 147.982 -0.970528 -1.61128 0
M  V30 1668 O 147.34 0.0613904 -1.81196 0
M  V30 1669 C 147.388 -3.39636 -1.21161 0
M  V30 1670 O 146.492 -3.40447 -2.32744 0
M  V30 1671 H 145.833 -0.647165 -0.148572 0
M  V30 1672 H 148.363 -2.03873 0.172347 0
M  V30 1673 H 148.373 -3.7726 -1.55367 0
M  V30 1674 H 147.048 -4.13356 -0.459313 0
M  V30 1675 H 145.625 -3.14614 -2.0018 0
M  V30 1676 N 147.81 0.181792 -1.56548 0
M  V30 1677 C 148.72 1.24538 -1.98815 0
M  V30 1678 C 149.736 1.49045 -0.897861 0
M  V30 1679 O 150.912 1.61399 -1.20467 0
M  V30 1680 C 147.977 2.56683 -2.33055 0
M  V30 1681 C 147.038 2.40131 -3.55859 0
M  V30 1682 C 146.271 3.65975 -3.88456 0
M  V30 1683 O 146.494 4.70711 -3.22161 0
M  V30 1684 O 145.428 3.6071 -4.81842 0
M  V30 1685 H 149.254 0.916647 -2.89536 0
M  V30 1686 H 146.839 0.387842 -1.44278 0
M  V30 1687 H 148.721 3.34655 -2.56094 0
M  V30 1688 H 147.396 2.89157 -1.45498 0
M  V30 1689 H 146.303 1.60226 -3.38051 0
M  V30 1690 H 147.636 2.12585 -4.43924 0
M  V30 1691 N 149.288 1.51039 0.449983 0
M  V30 1692 C 150.516 1.66869 1.2232 0
M  V30 1693 C 150.931 0.360727 1.85322 0
M  V30 1694 O 150.288 -0.659531 1.70166 0
M  V30 1695 C 150.339 2.77524 2.31652 0
M  V30 1696 O 150.06 4.03252 1.7123 0
M  V30 1697 C 151.561 3.04512 3.2216 0
M  V30 1698 H 148.781 0.560326 0.369155 0
M  V30 1699 H 151.325 1.97385 0.534719 0
M  V30 1700 H 149.48 2.49642 2.96239 0
M  V30 1701 H 149.894 4.64609 2.43389 0
M  V30 1702 H 151.368 3.85551 3.95038 0
M  V30 1703 H 151.845 2.16415 3.8218 0
M  V30 1704 H 152.451 3.34005 2.63288 0
M  V30 1705 N 150.766 -0.704594 1.40972 0
M  V30 1706 C 151.994 -1.49354 1.43182 0
M  V30 1707 C 152.409 -1.88768 0.0345508 0
M  V30 1708 O 151.766 -1.56184 -0.944081 0
M  V30 1709 C 151.817 -2.76187 2.33244 0
M  V30 1710 O 151.538 -2.38436 3.67532 0
M  V30 1711 C 153.039 -3.7 2.44162 0
M  V30 1712 H 150.259 -0.460559 0.487982 0
M  V30 1713 H 152.803 -0.868261 1.85153 0
M  V30 1714 H 150.958 -3.34974 1.94606 0
M  V30 1715 H 151.372 -3.20126 4.15475 0
M  V30 1716 H 152.846 -4.55803 3.11364 0
M  V30 1717 H 153.323 -4.13867 1.47006 0
M  V30 1718 H 153.929 -3.17121 2.83398 0
M  V30 1719 N 152.244 -1.26651 -0.937939 0
M  V30 1720 C 153.491 -1.12387 -1.6845 0
M  V30 1721 C 153.819 0.332208 -1.91642 0
M  V30 1722 O 153.074 1.2602 -1.49725 0
M  V30 1723 C 153.373 -1.84168 -3.06295 0
M  V30 1724 C 153.039 -3.34056 -3.02849 0
M  V30 1725 C 151.701 -3.74942 -3.01616 0
M  V30 1726 C 154.053 -4.29741 -2.9491 0
M  V30 1727 C 151.381 -5.09894 -2.90215 0
M  V30 1728 C 153.733 -5.64738 -2.8505 0
M  V30 1729 C 152.397 -6.0493 -2.82162 0
M  V30 1730 H 151.667 -0.411252 -0.616403 0
M  V30 1731 H 154.314 -1.57134 -1.09459 0
M  V30 1732 H 152.619 -1.319 -3.6893 0
M  V30 1733 H 154.316 -1.70569 -3.62915 0
M  V30 1734 H 150.906 -3.01534 -3.0459 0
M  V30 1735 H 155.09 -3.99133 -2.94969 0
M  V30 1736 H 150.346 -5.40194 -2.86358 0
M  V30 1737 H 154.52 -6.38561 -2.77872 0
M  V30 1738 H 152.147 -7.09457 -2.73084 0
M  V30 1739 N 153.722 1.14298 -1.08507 0
M  V30 1740 C 154.655 2.18447 -0.660004 0
M  V30 1741 C 155.633 1.59242 0.328749 0
M  V30 1742 O 156.817 1.87062 0.232367 0
M  V30 1743 C 153.944 3.38688 0.0290807 0
M  V30 1744 C 152.99 4.1646 -0.919982 0
M  V30 1745 S 153.823 4.77334 -2.42718 0
M  V30 1746 C 154.979 6.00931 -1.75024 0
M  V30 1747 H 155.212 2.54166 -1.54231 0
M  V30 1748 H 152.745 1.25446 -0.900149 0
M  V30 1749 H 154.703 4.08342 0.420378 0
M  V30 1750 H 153.364 3.01289 0.887895 0
M  V30 1751 H 152.557 5.02529 -0.384751 0
M  V30 1752 H 152.159 3.52414 -1.25223 0
M  V30 1753 H 154.451 6.69017 -1.06877 0
M  V30 1754 H 155.394 6.59044 -2.58971 0
M  V30 1755 H 155.802 5.51089 -1.22317 0
M  V30 1756 N 155.201 0.870884 1.31352 0
M  V30 1757 C 156.441 0.488783 1.9847 0
M  V30 1758 C 156.805 -0.941536 1.67329 0
M  V30 1759 O 158.006 -1.42903 2.27667 0
M  V30 1760 C 156.277 0.739688 3.49662 0
M  V30 1761 S 157.836 0.457582 4.36408 0
M  V30 1762 H 154.654 0.18242 0.6872 0
M  V30 1763 H 157.256 1.12711 1.59739 0
M  V30 1764 H 155.96 1.77944 3.69816 0
M  V30 1765 H 155.491 0.0883905 3.93301 0
M  V30 1766 H 157.506 -0.709752 4.91098 0
M  V30 1767 N 156.679 -1.44442 0.630414 0
M  V30 1768 C 157.589 -2.34476 -0.0761693 0
M  V30 1769 C 158.605 -1.52576 -0.836449 0
M  V30 1770 O 159.781 -1.85307 -0.788874 0
M  V30 1771 C 156.846 -3.30545 -1.04599 0
M  V30 1772 C 155.907 -4.28352 -0.28516 0
M  V30 1773 C 155.14 -5.19831 -1.20878 0
M  V30 1774 O 155.363 -5.15223 -2.44747 0
M  V30 1775 O 154.297 -5.97892 -0.693491 0
M  V30 1776 H 158.123 -2.96345 0.664324 0
M  V30 1777 H 155.708 -1.44203 0.39061 0
M  V30 1778 H 157.59 -3.89681 -1.60396 0
M  V30 1779 H 156.265 -2.7121 -1.76711 0
M  V30 1780 H 155.172 -3.72764 0.315837 0
M  V30 1781 H 156.505 -4.90605 0.395924 0
M  V30 1782 N 158.157 -0.370918 -1.53173 0
M  V30 1783 C 159.387 0.217389 -2.05453 0
M  V30 1784 C 159.795 1.42568 -1.24382 0
M  V30 1785 O 159.138 1.81571 -0.278839 0
M  V30 1786 C 159.2 0.669827 -3.53205 0
M  V30 1787 C 158.864 -0.4225 -4.55043 0
M  V30 1788 C 159.861 -1.27407 -5.04047 0
M  V30 1789 C 157.546 -0.58427 -4.9889 0
M  V30 1790 C 159.54 -2.27271 -5.95505 0
M  V30 1791 C 157.227 -1.58627 -5.90153 0
M  V30 1792 C 158.225 -2.42892 -6.38351 0
M  V30 1793 O 157.913 -3.41382 -7.27814 0
M  V30 1794 H 157.645 0.0408171 -0.674767 0
M  V30 1795 H 160.199 -0.5292 -1.98466 0
M  V30 1796 H 158.429 1.4681 -3.57748 0
M  V30 1797 H 160.118 1.18173 -3.88317 0
M  V30 1798 H 160.884 -1.16031 -4.70916 0
M  V30 1799 H 156.763 0.061851 -4.60959 0
M  V30 1800 H 160.307 -2.93079 -6.33049 0
M  V30 1801 H 156.204 -1.70048 -6.22699 0
M  V30 1802 H 156.972 -3.37173 -7.45826 0
M  V30 1803 N 159.635 1.57281 -0.100228 0
M  V30 1804 C 160.598 2.13158 0.842398 0
M  V30 1805 C 161.598 1.06202 1.20738 0
M  V30 1806 O 162.788 1.32066 1.13597 0
M  V30 1807 C 159.92 2.65639 2.13655 0
M  V30 1808 H 161.113 2.97766 0.357114 0
M  V30 1809 H 158.666 1.5559 0.148823 0
M  V30 1810 H 159.401 1.84566 2.66657 0
M  V30 1811 H 159.186 3.43844 1.88451 0
M  V30 1812 H 160.676 3.08846 2.81077 0
M  V30 1813 N 161.113 -0.173488 1.56642 0
M  V30 1814 C 162.39 -0.917617 1.7274 0
M  V30 1815 C 162.77 -2.00484 0.661027 0
M  V30 1816 O 162.118 -2.26184 -0.32453 0
M  V30 1817 C 162.328 -1.48433 3.15862 0
M  V30 1818 C 163.676 -1.95809 3.76754 0
M  V30 1819 O 164.7 -1.58231 3.19126 0
M  V30 1820 O 163.559 -2.65024 4.77938 0
M  V30 1821 H 160.653 -0.431772 0.705338 0
M  V30 1822 H 163.199 -0.161487 1.6893 0
M  V30 1823 H 161.971 -0.701715 3.84957 0
M  V30 1824 H 161.594 -2.30471 3.23989 0
M  V30 1825 N 162.591 -1.51276 -0.441967 0
M  V30 1826 C 163.501 -1.75092 -1.56141 0
M  V30 1827 C 164.517 -0.634963 -1.62001 0
M  V30 1828 O 165.693 -0.916686 -1.79329 0
M  V30 1829 C 162.758 -1.86666 -2.92158 0
M  V30 1830 C 161.819 -3.10506 -2.96453 0
M  V30 1831 C 161.052 -3.21519 -4.25982 0
M  V30 1832 O 161.275 -2.38586 -5.18105 0
M  V30 1833 O 160.209 -4.14465 -4.36466 0
M  V30 1834 H 164.035 -2.70044 -1.38961 0
M  V30 1835 H 161.62 -1.35722 -0.624499 0
M  V30 1836 H 163.502 -1.96292 -3.72891 0
M  V30 1837 H 162.177 -0.949014 -3.09476 0
M  V30 1838 H 161.084 -3.06363 -2.14692 0
M  V30 1839 H 162.417 -4.01945 -2.84079 0
M  V30 1840 N 164.069 0.697108 -1.41344 0
M  V30 1841 C 165.297 1.48593 -1.43972 0
M  V30 1842 C 165.712 1.88747 -0.0445612 0
M  V30 1843 O 165.069 1.56682 0.935785 0
M  V30 1844 C 165.12 2.74946 -2.34706 0
M  V30 1845 O 164.841 2.36484 -3.68791 0
M  V30 1846 C 166.342 3.687 -2.46121 0
M  V30 1847 H 163.562 0.457964 -0.490418 0
M  V30 1848 H 166.106 0.858429 -1.8561 0
M  V30 1849 H 164.261 3.33937 -1.9638 0
M  V30 1850 H 164.675 3.17918 -4.17167 0
M  V30 1851 H 166.149 4.54145 -3.13777 0
M  V30 1852 H 166.626 4.13081 -1.49199 0
M  V30 1853 H 167.232 3.15613 -2.85076 0
M  V30 1854 N 165.547 1.27147 0.931209 0
M  V30 1855 C 166.51 1.09615 2.01289 0
M  V30 1856 C 167.51 0.0412581 1.60747 0
M  V30 1857 O 168.7 0.285545 1.71844 0
M  V30 1858 C 165.832 0.669447 3.34262 0
M  V30 1859 H 167.025 2.05662 2.18273 0
M  V30 1860 H 164.578 1.09885 1.11153 0
M  V30 1861 H 165.313 -0.292572 3.22978 0
M  V30 1862 H 165.098 1.43127 3.65044 0
M  V30 1863 H 166.588 0.568921 4.13706 0
M  V30 1864 N 167.025 -1.13721 1.09112 0
M  V30 1865 C 168.253 -1.88773 0.846899 0
M  V30 1866 C 168.668 -1.7896 -0.601572 0
M  V30 1867 O 168.025 -1.15394 -1.41388 0
M  V30 1868 C 168.076 -3.3849 1.26913 0
M  V30 1869 O 167.797 -3.48043 2.66079 0
M  V30 1870 C 169.298 -4.30518 1.05682 0
M  V30 1871 H 166.518 -0.59772 0.304914 0
M  V30 1872 H 169.062 -1.43977 1.45227 0
M  V30 1873 H 167.217 -3.80881 0.707723 0
M  V30 1874 H 167.631 -4.4109 2.83795 0
M  V30 1875 H 169.105 -5.3391 1.40156 0
M  V30 1876 H 169.582 -4.392 -0.00563416 0
M  V30 1877 H 170.188 -3.93893 1.60402 0
M  V30 1878 N 168.503 -0.877838 -1.30888 0
M  V30 1879 C 169.752 -0.488793 -1.95688 0
M  V30 1880 C 170.065 0.965485 -1.70111 0
M  V30 1881 O 171.271 1.46104 -2.28836 0
M  V30 1882 C 169.727 -0.823201 -3.50359 0
M  V30 1883 C 169.335 -2.29477 -3.84765 0
M  V30 1884 C 171.079 -0.503009 -4.21509 0
M  V30 1885 C 168.986 -2.57118 -5.32583 0
M  V30 1886 H 167.916 -0.179062 -0.732429 0
M  V30 1887 H 170.567 -1.07183 -1.48943 0
M  V30 1888 H 168.949 -0.169331 -3.95638 0
M  V30 1889 H 170.123 -2.99236 -3.5042 0
M  V30 1890 H 168.438 -2.58178 -3.267 0
M  V30 1891 H 171.035 -0.68665 -5.30273 0
M  V30 1892 H 171.378 0.557109 -4.12555 0
M  V30 1893 H 171.911 -1.11376 -3.8189 0
M  V30 1894 H 168.65 -3.61843 -5.4658 0
M  V30 1895 H 168.17 -1.91961 -5.68253 0
M  V30 1896 H 169.849 -2.42251 -5.99936 0
M  V30 1897 N 169.982 1.44106 -0.638065 0
M  V30 1898 C 171.228 2.02277 -0.145546 0
M  V30 1899 C 171.561 1.50125 1.23191 0
M  V30 1900 O 170.836 0.688133 1.8192 0
M  V30 1901 C 171.119 3.59829 -0.139791 0
M  V30 1902 C 170.972 4.22247 -1.55008 0
M  V30 1903 C 172.291 4.36873 0.531966 0
M  V30 1904 H 169.41 0.734992 -0.0543632 0
M  V30 1905 H 172.052 1.71592 -0.815863 0
M  V30 1906 H 170.202 3.86102 0.431007 0
M  V30 1907 H 171.874 4.07057 -2.1703 0
M  V30 1908 H 170.117 3.79476 -2.10191 0
M  V30 1909 H 170.788 5.31284 -1.49804 0
M  V30 1910 H 173.264 4.16074 0.0464781 0
M  V30 1911 H 172.14 5.4657 0.505206 0
M  V30 1912 H 172.401 4.11995 1.60352 0
M  V30 1913 N 171.46 0.379036 1.52974 0
M  V30 1914 C 172.37 -0.468639 2.29872 0
M  V30 1915 C 173.386 -1.08067 1.36373 0
M  V30 1916 O 174.562 -1.08871 1.69438 0
M  V30 1917 C 171.627 -1.58594 3.083 0
M  V30 1918 C 170.688 -1.00007 4.17489 0
M  V30 1919 C 169.921 -2.06413 4.92168 0
M  V30 1920 O 170.144 -3.27751 4.66835 0
M  V30 1921 O 169.078 -1.68717 5.7777 0
M  V30 1922 H 172.904 0.157508 3.03291 0
M  V30 1923 H 170.489 0.143035 1.48714 0
M  V30 1924 H 172.371 -2.23525 3.57232 0
M  V30 1925 H 171.046 -2.19724 2.37703 0
M  V30 1926 H 169.953 -0.314299 3.72777 0
M  V30 1927 H 171.286 -0.433135 4.90291 0
M  V30 1928 N 172.938 -1.57226 0.108567 0
M  V30 1929 C 174.185 -1.94833 -0.551943 0
M  V30 1930 C 174.513 -0.991204 -1.67348 0
M  V30 1931 O 173.768 -0.0131878 -1.95696 0
M  V30 1932 C 174.067 -3.38911 -1.13463 0
M  V30 1933 C 173.733 -4.50696 -0.135509 0
M  V30 1934 C 172.395 -4.80998 0.139252 0
M  V30 1935 C 174.747 -5.18333 0.545957 0
M  V30 1936 C 172.075 -5.76259 1.10194 0
M  V30 1937 C 174.427 -6.14627 1.49721 0
M  V30 1938 C 173.091 -6.43327 1.78006 0
M  V30 1939 H 172.361 -0.712944 -0.20197 0
M  V30 1940 H 175.008 -1.90582 0.18726 0
M  V30 1941 H 173.313 -3.39805 -1.95037 0
M  V30 1942 H 175.01 -3.65317 -1.65362 0
M  V30 1943 H 171.6 -4.27087 -0.359846 0
M  V30 1944 H 175.784 -4.95087 0.346842 0
M  V30 1945 H 171.04 -5.96804 1.32795 0
M  V30 1946 H 175.214 -6.66126 2.03099 0
M  V30 1947 H 172.841 -7.1695 2.52759 0
M  V30 1948 N 174.416 0.165178 -1.56732 0
M  V30 1949 C 175.346 1.20651 -1.99914 0
M  V30 1950 C 176.327 1.45827 -0.875705 0
M  V30 1951 O 177.512 1.57057 -1.14223 0
M  V30 1952 C 174.642 2.54401 -2.36427 0
M  V30 1953 C 173.596 2.43782 -3.51787 0
M  V30 1954 C 172.922 3.82078 -3.7406 0
M  V30 1955 C 174.222 1.93732 -4.85041 0
M  V30 1956 H 175.916 0.847534 -2.87154 0
M  V30 1957 H 173.462 0.40625 -1.38151 0
M  V30 1958 H 175.415 3.27458 -2.65234 0
M  V30 1959 H 174.139 2.92098 -1.46103 0
M  V30 1960 H 172.798 1.73178 -3.23117 0
M  V30 1961 H 172.446 4.17179 -2.81017 0
M  V30 1962 H 172.146 3.7584 -4.51684 0
M  V30 1963 H 173.67 4.56712 -4.05274 0
M  V30 1964 H 175.084 2.56569 -5.12684 0
M  V30 1965 H 173.481 1.98428 -5.66345 0
M  V30 1966 H 174.551 0.891962 -4.76626 0
M  V30 1967 N 175.894 1.51508 0.433938 0
M  V30 1968 C 176.842 1.73646 1.54757 0
M  V30 1969 C 177.836 0.602854 1.5831 0
M  V30 1970 O 179.042 0.784318 1.62014 0
M  V30 1971 H 175.417 0.548718 0.51421 0
M  V30 1972 H 177.388 2.66991 1.33261 0
M  V30 1973 C 176.137 1.88172 2.92381 0
M  V30 1974 H 175.46 2.74808 2.90381 0
M  V30 1975 H 176.9 2.07672 3.6966 0
M  V30 1976 C 175.359 0.64239 3.30719 0
M  V30 1977 O 175.889 -0.201362 4.01195 0
M  V30 1978 N 174.095 0.485489 2.86516 0
M  V30 1979 H 173.642 1.17318 2.29334 0
M  V30 1980 H 173.6 -0.342482 3.12529 0
M  V30 1981 N 177.372 -0.689602 1.41712 0
M  V30 1982 C 178.788 -1.00093 1.24312 0
M  V30 1983 C 178.988 -2.01036 0.136729 0
M  V30 1984 O 178.044 -2.47562 -0.496918 0
M  V30 1985 C 179.357 -1.51985 2.59463 0
M  V30 1986 C 180.905 -1.63838 2.66695 0
M  V30 1987 C 181.38 -2.1913 4.02177 0
M  V30 1988 N 182.871 -2.26483 4.04054 0
M  V30 1989 C 183.606 -2.70306 5.0569 0
M  V30 1990 N 183.102 -3.13691 6.17713 0
M  V30 1991 N 184.895 -2.69923 4.9305 0
M  V30 1992 H 177.046 -0.0210029 2.1239 0
M  V30 1993 H 179.309 -0.0718733 0.945272 0
M  V30 1994 H 179.015 -0.85269 3.41207 0
M  V30 1995 H 178.889 -2.50103 2.82362 0
M  V30 1996 H 181.276 -2.29664 1.85306 0
M  V30 1997 H 181.357 -0.642492 2.476 0
M  V30 1998 H 181.001 -1.53918 4.84016 0
M  V30 1999 H 180.931 -3.19482 4.18615 0
M  V30 2000 H 183.422 -1.95874 3.23174 0
M  V30 2001 H 183.735 -3.45773 6.9113 0
M  V30 2002 H 182.08 -3.11585 6.21241 0
M  V30 2003 H 185.271 -2.35382 4.04614 0
M  V30 2004 H 185.444 -3.03758 5.72394 0
M  V30 2005 N 178.85 -1.27639 -0.924453 0
M  V30 2006 C 180.096 -1.15345 -1.67532 0
M  V30 2007 C 180.451 0.297096 -1.90092 0
M  V30 2008 O 179.744 1.21374 -1.48253 0
M  V30 2009 C 179.938 -1.87407 -3.04325 0
M  V30 2010 C 179.767 -3.3932 -2.95114 0
M  V30 2011 C 178.537 -4.08644 -2.97218 0
M  V30 2012 C 180.735 -4.35242 -2.73987 0
M  V30 2013 N 178.717 -5.47102 -2.78482 0
M  V30 2014 C 180.088 -5.6099 -2.63988 0
M  V30 2015 C 182.143 -4.25294 -2.589 0
M  V30 2016 C 180.846 -6.77924 -2.40442 0
M  V30 2017 C 182.872 -5.41952 -2.36731 0
M  V30 2018 C 182.234 -6.66658 -2.27478 0
M  V30 2019 H 178.333 -0.47696 -0.619704 0
M  V30 2020 H 180.917 -1.6115 -1.09265 0
M  V30 2021 H 179.088 -1.44053 -3.60699 0
M  V30 2022 H 180.82 -1.6759 -3.68369 0
M  V30 2023 H 177.575 -3.60136 -3.07569 0
M  V30 2024 H 177.999 -6.19852 -2.72236 0
M  V30 2025 H 182.641 -3.29598 -2.64811 0
M  V30 2026 H 180.359 -7.73699 -2.3327 0
M  V30 2027 H 183.945 -5.36137 -2.25938 0
M  V30 2028 H 182.825 -7.55405 -2.10555 0
M  V30 2029 N 180.328 1.1314 -1.09713 0
M  V30 2030 C 181.577 1.83838 -0.829851 0
M  V30 2031 C 181.89 1.84599 0.646728 0
M  V30 2032 O 183.096 2.51218 1.02965 0
M  V30 2033 C 181.552 3.30069 -1.43466 0
M  V30 2034 C 181.16 3.37688 -2.94399 0
M  V30 2035 C 182.904 4.05788 -1.24645 0
M  V30 2036 C 180.811 4.78209 -3.47952 0
M  V30 2037 H 179.741 0.68877 -0.306777 0
M  V30 2038 H 182.392 1.27448 -1.3202 0
M  V30 2039 H 180.774 3.8628 -0.871996 0
M  V30 2040 H 181.948 2.91456 -3.56918 0
M  V30 2041 H 180.263 2.75436 -3.12289 0
M  V30 2042 H 182.86 5.09535 -1.62107 0
M  V30 2043 H 183.203 4.15878 -0.187357 0
M  V30 2044 H 183.736 3.55915 -1.77678 0
M  V30 2045 H 180.475 4.73311 -4.53495 0
M  V30 2046 H 179.995 5.24924 -2.90198 0
M  V30 2047 H 181.674 5.47133 -3.45332 0
M  V30 2048 N 181.806 0.884767 1.30421 0
M  V30 2049 C 183.034 0.518044 2.0031 0
M  V30 2050 C 183.449 -0.893408 1.66324 0
M  V30 2051 O 182.806 -1.5875 0.900262 0
M  V30 2052 C 182.857 0.682997 3.54989 0
M  V30 2053 O 182.578 2.03888 3.87764 0
M  V30 2054 C 184.079 0.31924 4.42149 0
M  V30 2055 H 181.299 0.200265 0.640418 0
M  V30 2056 H 183.843 1.19001 1.6631 0
M  V30 2057 H 181.998 0.0584052 3.87356 0
M  V30 2058 H 182.412 2.05735 4.82466 0
M  V30 2059 H 183.886 0.485555 5.4986 0
M  V30 2060 H 184.363 -0.742717 4.32875 0
M  V30 2061 H 184.969 0.920147 4.15227 0
M  V30 2062 N 183.284 -1.43765 0.645699 0
M  V30 2063 C 184.531 -2.01898 0.15604 0
M  V30 2064 C 184.859 -1.50887 -1.22733 0
M  V30 2065 O 184.114 -0.689271 -1.8316 0
M  V30 2066 C 184.413 -3.57238 0.107679 0
M  V30 2067 C 184.079 -4.27564 1.43178 0
M  V30 2068 C 182.741 -4.46492 1.7944 0
M  V30 2069 C 185.093 -4.67454 2.30513 0
M  V30 2070 C 182.421 -5.02573 3.02716 0
M  V30 2071 C 184.773 -5.24901 3.53074 0
M  V30 2072 C 183.437 -5.42046 3.89541 0
M  V30 2073 H 182.707 -0.738797 0.057099 0
M  V30 2074 H 185.354 -1.72341 0.834912 0
M  V30 2075 H 183.659 -3.86293 -0.654618 0
M  V30 2076 H 185.356 -3.99965 -0.287938 0
M  V30 2077 H 181.946 -4.13171 1.13963 0
M  V30 2078 H 186.13 -4.5253 2.0379 0
M  V30 2079 H 181.386 -5.14033 3.31028 0
M  V30 2080 H 185.56 -5.54758 4.20971 0
M  V30 2081 H 183.187 -5.85268 4.85145 0
M  V30 2082 N 184.763 -0.387143 -1.52771 0
M  V30 2083 C 186.003 0.195537 -2.03463 0
M  V30 2084 C 186.367 1.44222 -1.26744 0
M  V30 2085 O 187.568 2.10192 -1.67549 0
M  V30 2086 C 185.839 0.459097 -3.54439 0
M  V30 2087 S 187.398 1.01237 -4.26962 0
M  V30 2088 H 184.216 0.0552675 -0.708849 0
M  V30 2089 H 186.818 -0.534992 -1.88037 0
M  V30 2090 H 185.522 -0.455382 -4.07866 0
M  V30 2091 H 185.053 1.21811 -3.74066 0
M  V30 2092 H 187.068 2.29492 -4.39941 0
M  V30 2093 N 186.241 1.57166 -0.116904 0
M  V30 2094 C 187.173 2.12271 0.864507 0
M  V30 2095 C 188.186 1.06494 1.23138 0
M  V30 2096 O 189.375 1.33873 1.18069 0
M  V30 2097 C 186.475 2.60564 2.16702 0
M  V30 2098 C 185.648 3.90416 1.97216 0
M  V30 2099 C 184.707 4.24329 3.11178 0
M  V30 2100 O 183.733 4.93182 2.84184 0
M  V30 2101 N 184.935 3.8148 4.37554 0
M  V30 2102 H 187.7 2.97102 0.393726 0
M  V30 2103 H 185.261 1.61759 0.0675805 0
M  V30 2104 H 187.253 2.80282 2.91932 0
M  V30 2105 H 185.823 1.80623 2.55135 0
M  V30 2106 H 185.043 3.79627 1.06192 0
M  V30 2107 H 186.331 4.75327 1.81499 0
M  V30 2108 H 185.729 3.25943 4.62361 0
M  V30 2109 H 184.286 4.06311 5.09661 0
M  V30 2110 N 187.719 -0.156864 1.56817 0
M  V30 2111 C 188.944 -0.890331 1.87318 0
M  V30 2112 C 189.369 -1.74394 0.704855 0
M  V30 2113 O 188.727 -1.77972 -0.345786 0
M  V30 2114 C 188.775 -1.73102 3.16336 0
M  V30 2115 O 187.879 -2.83422 2.99576 0
M  V30 2116 H 187.22 -0.24857 0.615718 0
M  V30 2117 H 189.75 -0.150649 2.04045 0
M  V30 2118 H 189.76 -2.12803 3.48107 0
M  V30 2119 H 188.435 -1.10412 4.00976 0
M  V30 2120 H 187.012 -2.47199 2.7919 0
M  V30 2121 N 189.197 -1.51736 -0.425897 0
M  V30 2122 C 190.446 -1.64201 -1.17136 0
M  V30 2123 C 190.759 -0.369705 -1.92074 0
M  V30 2124 O 191.965 -0.373898 -2.68913 0
M  V30 2125 C 190.421 -2.90035 -2.13091 0
M  V30 2126 C 190.029 -4.24312 -1.43747 0
M  V30 2127 C 191.773 -3.1186 -2.87999 0
M  V30 2128 C 189.68 -5.41285 -2.38253 0
M  V30 2129 H 188.61 -0.611624 -0.440944 0
M  V30 2130 H 191.261 -1.78212 -0.437328 0
M  V30 2131 H 189.643 -2.69684 -2.89977 0
M  V30 2132 H 190.817 -4.55086 -0.723408 0
M  V30 2133 H 189.132 -4.08456 -0.809465 0
M  V30 2134 H 191.729 -3.96427 -3.58817 0
M  V30 2135 H 192.072 -2.25403 -3.49999 0
M  V30 2136 H 192.605 -3.32605 -2.18217 0
M  V30 2137 H 189.344 -6.30037 -1.80925 0
M  V30 2138 H 188.864 -5.14872 -3.0768 0
M  V30 2139 H 190.543 -5.73694 -2.99139 0
M  V30 2140 N 190.675 0.682077 -1.42076 0
M  V30 2141 C 191.924 1.43786 -1.41451 0
M  V30 2142 C 192.237 1.95574 -0.0317074 0
M  V30 2143 O 193.443 2.71326 0.0971462 0
M  V30 2144 C 191.899 2.60071 -2.48779 0
M  V30 2145 C 191.507 2.15013 -3.93031 0
M  V30 2146 C 193.251 3.37626 -2.57311 0
M  V30 2147 C 191.158 3.28336 -4.91883 0
M  V30 2148 H 190.088 0.540143 -0.526082 0
M  V30 2149 H 192.739 0.739157 -1.67955 0
M  V30 2150 H 191.121 3.32275 -2.15429 0
M  V30 2151 H 192.295 1.5001 -4.35699 0
M  V30 2152 H 190.61 1.50416 -3.88284 0
M  V30 2153 H 193.207 4.22012 -3.28345 0
M  V30 2154 H 193.55 3.83727 -1.61429 0
M  V30 2155 H 194.083 2.72488 -2.89819 0
M  V30 2156 H 190.822 2.87234 -5.89217 0
M  V30 2157 H 190.342 3.92145 -4.53853 0
M  V30 2158 H 192.021 3.93913 -5.13265 0
M  V30 2159 N 192.153 1.28127 0.917671 0
M  V30 2160 C 193.378 1.18007 1.70555 0
M  V30 2161 C 193.803 -0.258257 1.86319 0
M  V30 2162 O 193.161 -1.1869 1.37049 0
M  V30 2163 C 193.209 1.87948 3.07746 0
M  V30 2164 O 192.313 1.18427 3.9503 0
M  V30 2165 H 191.654 0.409867 0.522403 0
M  V30 2166 H 194.184 1.69379 1.1477 0
M  V30 2167 H 194.194 1.95701 3.58001 0
M  V30 2168 H 192.869 2.92573 2.95591 0
M  V30 2169 H 191.446 1.18811 3.53466 0
M  V30 2170 N 193.631 -1.12557 1.10312 0
M  V30 2171 C 194.859 -1.87864 0.866873 0
M  V30 2172 C 195.274 -1.79588 -0.582557 0
M  V30 2173 O 194.631 -1.16887 -1.40156 0
M  V30 2174 C 194.682 -3.37125 1.30496 0
M  V30 2175 O 194.403 -3.45201 2.69755 0
M  V30 2176 C 195.904 -4.29373 1.10243 0
M  V30 2177 H 193.124 -0.594452 0.311236 0
M  V30 2178 H 195.668 -1.42429 1.46745 0
M  V30 2179 H 193.823 -3.80109 0.748081 0
M  V30 2180 H 194.237 -4.38056 2.88457 0
M  V30 2181 H 195.711 -5.32394 1.45811 0
M  V30 2182 H 196.188 -4.39181 0.0409492 0
M  V30 2183 H 196.794 -3.92169 1.64571 0
M  V30 2184 N 195.109 -0.891671 -1.2995 0
M  V30 2185 C 196.039 -0.379797 -2.30391 0
M  V30 2186 C 197.02 0.540919 -1.6127 0
M  V30 2187 O 198.205 0.453352 -1.88834 0
M  V30 2188 C 195.335 0.400654 -3.44981 0
M  V30 2189 C 194.289 -0.428905 -4.25846 0
M  V30 2190 C 193.615 0.478557 -5.32554 0
M  V30 2191 C 194.915 -1.67458 -4.94727 0
M  V30 2192 H 196.609 -1.21914 -2.73454 0
M  V30 2193 H 194.155 -0.587675 -1.31462 0
M  V30 2194 H 196.108 0.769434 -4.14316 0
M  V30 2195 H 194.832 1.27371 -3.0074 0
M  V30 2196 H 193.491 -0.779911 -3.58208 0
M  V30 2197 H 193.139 1.34951 -4.84559 0
M  V30 2198 H 192.839 -0.0727433 -5.87555 0
M  V30 2199 H 194.363 0.843705 -6.04743 0
M  V30 2200 H 195.777 -1.376 -5.56542 0
M  V30 2201 H 194.174 -2.16659 -5.59624 0
M  V30 2202 H 195.244 -2.41518 -4.20473 0
M  V30 2203 N 196.587 1.43421 -0.653314 0
M  V30 2204 C 197.815 2.06163 -0.174491 0
M  V30 2205 C 198.23 1.48969 1.1599 0
M  V30 2206 O 197.587 0.621042 1.71608 0
M  V30 2207 C 197.638 3.61417 -0.0774865 0
M  V30 2208 O 197.359 4.16485 -1.35912 0
M  V30 2209 C 198.86 4.41235 0.427402 0
M  V30 2210 H 196.08 0.664946 -0.0899353 0
M  V30 2211 H 198.624 1.83924 -0.893988 0
M  V30 2212 H 196.779 3.82841 0.59257 0
M  V30 2213 H 197.193 5.10153 -1.21839 0
M  V30 2214 H 198.667 5.5021 0.44423 0
M  V30 2215 H 199.144 4.14268 1.45873 0
M  V30 2216 H 199.75 4.2478 -0.210167 0
M  V30 2217 O 198.104 0.537413 1.52296 0
M  V30 2218 H 198.795 0.0295046 1.93678 0
M  V30 END ATOM
M  V30 BEGIN BOND
M  V30 END BOND
M  V30 END CTAB
M  END
$$$$
