drugbank_target|Q9NSD5 Sodium- and chloride-dependent GABA transporter 2 (DB08848)
 OpenBabel12092120583D

  0  0  0     0  0            999 V3000
M  V30 BEGIN CTAB
M  V30 COUNTS 9572 9723 0 0 0
M  V30 BEGIN ATOM
M  V30 1 H -0.908 1.98254 -0.117106 0
M  V30 2 N 0 1.576 0 0
M  V30 3 C 0.933 2.03868 1.02534 0
M  V30 4 C 1.911 0.928543 1.3348 0
M  V30 5 O 3.095 1.19667 1.45644 0
M  V30 6 C 0.222 2.43627 2.35294 0
M  V30 7 C -0.732 3.65373 2.2001 0
M  V30 8 S 0.101 5.13292 1.52614 0
M  V30 9 C 1.257 5.56322 2.86805 0
M  V30 10 H 1.49 2.90518 0.631377 0
M  V30 11 H -0.977 1.52953 0.210867 0
M  V30 12 H 0.981 2.67203 3.11629 0
M  V30 13 H -0.358 1.57376 2.7183 0
M  V30 14 H -1.165 3.90944 3.18086 0
M  V30 15 H -1.563 3.418 1.51819 0
M  V30 16 H 0.729 5.58782 3.83104 0
M  V30 17 H 1.672 6.56266 2.65933 0
M  V30 18 H 2.08 4.83886 2.90714 0
M  V30 19 N 1.4781 -0.272755 1.55222 0
M  V30 20 C 2.7551 -1.02562 1.66555 0
M  V30 21 C 3.1351 -2.04282 0.532189 0
M  V30 22 O 2.4831 -2.23662 -0.467717 0
M  V30 23 C 2.6931 -1.6822 3.05782 0
M  V30 24 C 4.0411 -2.19373 3.63539 0
M  V30 25 O 5.0651 -1.78206 3.08417 0
M  V30 26 O 3.9241 -2.94883 4.60115 0
M  V30 27 H 1.0181 -0.475755 0.676451 0
M  V30 28 H 3.5641 -0.268593 1.67561 0
M  V30 29 H 2.3361 -0.945112 3.79715 0
M  V30 30 H 1.9591 -2.50609 3.08676 0
M  V30 31 N 2.9562 -1.48159 -0.537278 0
M  V30 32 C 4.1812 -1.59707 -1.32319 0
M  V30 33 C 4.6062 -0.254859 -1.86365 0
M  V30 34 O 3.9642 0.772378 -1.64024 0
M  V30 35 C 4.0122 -2.6412 -2.45505 0
M  V30 36 O 3.1162 -2.20774 -3.48328 0
M  V30 37 H 2.4572 -0.535791 -0.392204 0
M  V30 38 H 4.9872 -1.94092 -0.647268 0
M  V30 39 H 4.9972 -2.85166 -2.91795 0
M  V30 40 H 3.6722 -3.61567 -2.05528 0
M  V30 41 H 2.2492 -2.09911 -3.08207 0
M  V30 42 N 4.4343 0.785586 -1.36625 0
M  V30 43 C 5.8503 1.08419 -1.17122 0
M  V30 44 C 6.0503 2.015 0.00208491 0
M  V30 45 O 5.1063 2.43551 0.666278 0
M  V30 46 C 6.4193 1.69498 -2.48377 0
M  V30 47 C 7.9673 1.81821 -2.54775 0
M  V30 48 C 8.4423 2.46315 -3.86126 0
M  V30 49 N 9.9333 2.53779 -3.87492 0
M  V30 50 C 10.6683 3.045 -4.85868 0
M  V30 51 N 10.1643 3.55499 -5.94637 0
M  V30 52 N 11.9573 3.03247 -4.73284 0
M  V30 53 H 4.1083 0.167264 -2.1174 0
M  V30 54 H 6.3713 0.13682 -0.938075 0
M  V30 55 H 6.0773 1.08571 -3.34522 0
M  V30 56 H 5.9513 2.6896 -2.64462 0
M  V30 57 H 8.3383 2.41884 -1.69045 0
M  V30 58 H 8.4193 0.811532 -2.42586 0
M  V30 59 H 8.0633 1.86895 -4.72263 0
M  V30 60 H 7.9933 3.47561 -3.95612 0
M  V30 61 H 10.4843 2.17672 -3.08913 0
M  V30 62 H 10.7973 3.92562 -6.65669 0
M  V30 63 H 9.1423 3.5364 -5.98301 0
M  V30 64 H 12.3333 2.62696 -3.87438 0
M  V30 65 H 12.5063 3.42467 -5.50109 0
M  V30 66 N 5.9124 1.20967 1.01018 0
M  V30 67 C 7.1584 1.02526 1.74975 0
M  V30 68 C 7.4914 -0.4408 1.89131 0
M  V30 69 O 6.7664 -1.32718 1.42184 0
M  V30 70 C 7.0494 1.71699 3.1653 0
M  V30 71 C 6.9024 3.25791 3.10129 0
M  V30 72 C 8.2214 1.45531 4.15342 0
M  V30 73 H 5.3404 0.373863 0.635134 0
M  V30 74 H 7.9824 1.49071 1.17805 0
M  V30 75 H 6.1324 1.32128 3.65341 0
M  V30 76 H 7.8044 3.74697 2.69072 0
M  V30 77 H 6.0474 3.56363 2.47362 0
M  V30 78 H 6.7184 3.69353 4.10222 0
M  V30 79 H 9.1944 1.79872 3.75213 0
M  V30 80 H 8.0704 1.96453 5.1254 0
M  V30 81 H 8.3314 0.384237 4.40427 0
M  V30 82 N 7.3905 -1.2043 1.01659 0
M  V30 83 C 8.6155 -1.94318 0.724942 0
M  V30 84 C 9.0405 -1.74266 -0.708034 0
M  V30 85 O 8.3985 -1.03694 -1.48719 0
M  V30 86 C 8.4465 -3.44486 1.06591 0
M  V30 87 O 7.5505 -4.12017 0.177599 0
M  V30 88 H 6.8915 -0.60708 0.26898 0
M  V30 89 H 9.4215 -1.52861 1.35995 0
M  V30 90 H 9.4315 -3.95106 1.01762 0
M  V30 91 H 8.1065 -3.58404 2.10997 0
M  V30 92 H 6.6835 -3.71821 0.283421 0
M  V30 93 N 8.8686 -0.792821 -1.36206 0
M  V30 94 C 10.1166 -0.366062 -1.98757 0
M  V30 95 C 10.4376 1.0668 -1.63231 0
M  V30 96 O 9.7076 1.73587 -0.907978 0
M  V30 97 H 8.2876 -0.132364 -0.735179 0
M  V30 98 H 10.9496 -1.01562 -1.66347 0
M  V30 99 H 10.0456 -0.460638 -3.08682 0
M  V30 100 N 10.3467 1.47872 -0.545128 0
M  V30 101 C 11.5747 2.06889 -0.021084 0
M  V30 102 C 11.9897 1.39955 1.2672 0
M  V30 103 O 11.3467 0.492036 1.75742 0
M  V30 104 C 11.3977 3.60996 0.190817 0
M  V30 105 O 11.1187 4.25419 -1.04644 0
M  V30 106 C 12.6197 4.36849 0.753521 0
M  V30 107 H 9.8397 0.669785 -0.0403635 0
M  V30 108 H 12.3837 1.90049 -0.755095 0
M  V30 109 H 10.5387 3.77391 0.87492 0
M  V30 110 H 10.9527 5.17785 -0.836611 0
M  V30 111 H 12.4267 5.45399 0.851139 0
M  V30 112 H 12.9037 4.02306 1.762 0
M  V30 113 H 13.5097 4.25169 0.105503 0
M  V30 114 N 11.8248 0.280983 1.55075 0
M  V30 115 C 13.0528 -0.337293 2.04132 0
M  V30 116 C 13.4678 -1.4903 1.15912 0
M  V30 117 O 12.8248 -1.81606 0.180459 0
M  V30 118 C 12.8758 -0.812706 3.52246 0
M  V30 119 O 12.5968 0.294387 4.3711 0
M  V30 120 C 14.0978 -1.4982 4.17216 0
M  V30 121 H 11.3178 -0.0761638 0.666663 0
M  V30 122 H 13.8618 0.414787 2.00249 0
M  V30 123 H 12.0168 -1.51486 3.56554 0
M  V30 124 H 12.4308 -0.0721325 5.2445 0
M  V30 125 H 13.9048 -1.7822 5.22438 0
M  V30 126 H 14.3818 -2.43168 3.65741 0
M  V30 127 H 14.9878 -0.839742 4.16927 0
M  V30 128 N 13.3029 -1.57598 0.00835791 0
M  V30 129 C 14.5279 -1.95617 -0.689103 0
M  V30 130 C 14.9529 -0.883753 -1.66046 0
M  V30 131 O 14.3109 0.157352 -1.80616 0
M  V30 132 C 14.3589 -3.32736 -1.38994 0
M  V30 133 O 13.4629 -3.27631 -2.50463 0
M  V30 134 H 12.8039 -0.638379 -0.182668 0
M  V30 135 H 15.3339 -2.045 0.064036 0
M  V30 136 H 15.3439 -3.68494 -1.75147 0
M  V30 137 H 14.0189 -4.1034 -0.677778 0
M  V30 138 H 12.5959 -3.03561 -2.16576 0
M  V30 139 N 14.781 0.264519 -1.55364 0
M  V30 140 C 15.729 1.34702 -1.89626 0
M  V30 141 C 16.723 1.50712 -0.773459 0
M  V30 142 O 17.929 1.52395 -0.957897 0
M  V30 143 H 14.304 0.450682 -0.601988 0
M  V30 144 H 16.275 1.0306 -2.80038 0
M  V30 145 C 15.024 2.6989 -2.19214 0
M  V30 146 H 14.347 2.58365 -3.05103 0
M  V30 147 H 15.787 3.44553 -2.47102 0
M  V30 148 C 14.246 3.21637 -1.00254 0
M  V30 149 O 14.776 4.00973 -0.241501 0
M  V30 150 N 12.982 2.7943 -0.797938 0
M  V30 151 H 12.529 2.15026 -1.4185 0
M  V30 152 H 12.487 3.144 -0.00363422 0
M  V30 153 N 16.2591 1.48442 0.529413 0
M  V30 154 C 17.5071 1.56179 1.28267 0
M  V30 155 C 17.8281 0.237721 1.93546 0
M  V30 156 O 17.0981 -0.740779 1.81354 0
M  V30 157 H 15.6781 0.575367 0.476405 0
M  V30 158 H 18.3401 1.84909 0.61602 0
M  V30 159 H 17.4361 2.34312 2.06165 0
M  V30 160 N 17.7372 -0.778329 1.37039 0
M  V30 161 C 18.6472 -1.92253 1.34446 0
M  V30 162 C 19.6632 -1.72267 0.244991 0
M  V30 163 O 20.8392 -1.95615 0.479258 0
M  V30 164 C 17.9042 -3.27282 1.144 0
M  V30 165 C 16.9652 -3.59969 2.33925 0
M  V30 166 C 16.1982 -4.88555 2.14825 0
M  V30 167 O 16.4212 -5.59113 1.12912 0
M  V30 168 O 15.3552 -5.20153 3.02861 0
M  V30 169 H 19.1812 -1.97392 2.30803 0
M  V30 170 H 16.7662 -0.920154 1.17701 0
M  V30 171 H 18.6482 -4.08062 1.05182 0
M  V30 172 H 17.3232 -3.23011 0.211124 0
M  V30 173 H 16.2302 -2.7945 2.48714 0
M  V30 174 H 17.5632 -3.68976 3.25757 0
M  V30 175 N 19.2153 -1.21501 -1.00376 0
M  V30 176 C 20.4433 -1.059 -1.77744 0
M  V30 177 C 20.8583 0.391125 -1.84704 0
M  V30 178 O 20.2153 1.27133 -1.30933 0
M  V30 179 C 20.2663 -1.65111 -3.21591 0
M  V30 180 O 19.9873 -3.0445 -3.15027 0
M  V30 181 C 21.4883 -1.54637 -4.15454 0
M  V30 182 H 18.7083 -0.371825 -0.558558 0
M  V30 183 H 21.2523 -1.60865 -1.26264 0
M  V30 184 H 19.4073 -1.14235 -3.70175 0
M  V30 185 H 19.8213 -3.3278 -4.0541 0
M  V30 186 H 21.2953 -2.00808 -5.14179 0
M  V30 187 H 21.7723 -0.501022 -4.36333 0
M  V30 188 H 22.3783 -2.04767 -3.72761 0
M  V30 189 N 20.6934 1.19889 -1.02296 0
M  V30 190 C 21.6404 2.22901 -0.598651 0
M  V30 191 C 22.6104 1.61588 0.384521 0
M  V30 192 O 23.7954 1.88697 0.282522 0
M  V30 193 C 20.9354 3.45063 0.0504476 0
M  V30 194 C 20.0484 4.20783 -0.978053 0
M  V30 195 C 19.1834 5.30356 -0.299338 0
M  V30 196 C 18.2224 5.97826 -1.31416 0
M  V30 197 N 17.3594 6.98975 -0.661667 0
M  V30 198 H 22.1994 2.58554 -1.48169 0
M  V30 199 H 19.7364 1.27039 -0.741584 0
M  V30 200 H 21.6944 4.14831 0.443971 0
M  V30 201 H 20.3244 3.10084 0.897097 0
M  V30 202 H 19.3764 3.50018 -1.48969 0
M  V30 203 H 20.6884 4.67109 -1.74958 0
M  V30 204 H 19.8424 6.06516 0.149347 0
M  V30 205 H 18.5814 4.85084 0.504445 0
M  V30 206 H 17.5864 5.20422 -1.77317 0
M  V30 207 H 18.8114 6.45183 -2.11933 0
M  V30 208 H 16.7574 6.55886 0.122132 0
M  V30 209 H 16.6744 7.43461 -1.37117 0
M  V30 210 H 17.9424 7.7914 -0.236785 0
M  V30 211 N 22.1715 0.800033 1.35784 0
M  V30 212 C 23.5825 0.439142 1.81462 0
M  V30 213 C 23.9335 -1.03813 1.66485 0
M  V30 214 O 23.0585 -1.80626 1.19177 0
M  V30 215 C 23.6535 0.790314 3.29453 0
M  V30 216 C 22.2125 0.482111 3.733 0
M  V30 217 C 21.3595 1.01938 2.57883 0
M  V30 218 H 24.3105 0.992254 1.23855 0
M  V30 219 H 24.3315 0.0853677 3.80404 0
M  V30 220 H 23.8435 1.86554 3.40322 0
M  V30 221 H 21.9445 -0.584652 3.67984 0
M  V30 222 H 22.0575 1.01015 4.6833 0
M  V30 223 H 20.4215 0.442043 2.50835 0
M  V30 224 H 21.2045 2.10059 2.71533 0
M  V30 225 N 23.6496 -1.47581 0.552962 0
M  V30 226 C 24.8956 -2.02782 0.0273648 0
M  V30 227 C 25.2286 -1.42687 -1.31734 0
M  V30 228 O 24.5036 -0.580897 -1.85623 0
M  V30 229 C 24.7866 -3.60031 -0.0702371 0
M  V30 230 C 24.6396 -4.30566 1.30126 0
M  V30 231 C 25.9586 -4.33028 -0.785771 0
M  V30 232 H 23.0776 -0.736912 0.0114185 0
M  V30 233 H 25.7196 -1.76056 0.714432 0
M  V30 234 H 23.8696 -3.82932 -0.655382 0
M  V30 235 H 25.5416 -4.19018 1.92929 0
M  V30 236 H 23.7846 -3.91086 1.87709 0
M  V30 237 H 24.4556 -5.39114 1.18573 0
M  V30 238 H 26.9316 -4.15095 -0.288982 0
M  V30 239 H 25.8076 -5.42695 -0.823013 0
M  V30 240 H 26.0686 -4.01945 -1.841 0
M  V30 241 N 25.1277 -0.289203 -1.54924 0
M  V30 242 C 26.3577 0.325989 -2.04012 0
M  V30 243 C 26.7657 1.48961 -1.1665 0
M  V30 244 O 26.1087 1.82794 -0.1822 0
M  V30 245 C 26.1707 0.856112 -3.49158 0
M  V30 246 C 25.8347 -0.180697 -4.56643 0
M  V30 247 C 26.8317 -1.0051 -5.10092 0
M  V30 248 C 24.5167 -0.318998 -5.01286 0
M  V30 249 C 26.5107 -1.95385 -6.06715 0
M  V30 250 C 24.1977 -1.27121 -5.97732 0
M  V30 251 C 25.1957 -2.08713 -6.50329 0
M  V30 252 O 24.8837 -3.02322 -7.44887 0
M  V30 253 H 24.6157 0.0765276 -0.671654 0
M  V30 254 H 27.1697 -0.423254 -2.00992 0
M  V30 255 H 25.3997 1.65567 -3.49463 0
M  V30 256 H 27.0887 1.38591 -3.81507 0
M  V30 257 H 27.8547 -0.90906 -4.76404 0
M  V30 258 H 23.7337 0.306108 -4.59983 0
M  V30 259 H 27.2777 -2.59111 -6.47694 0
M  V30 260 H 23.1747 -1.36801 -6.30837 0
M  V30 261 H 23.9427 -2.97165 -7.6265 0
M  V30 262 N 26.6058 1.57591 -0.0167156 0
M  V30 263 C 28.0168 1.79201 0.523834 0
M  V30 264 C 28.3678 0.925796 1.72984 0
M  V30 265 O 27.4928 0.132792 2.15992 0
M  V30 266 C 28.0878 3.25 0.957091 0
M  V30 267 C 26.6468 3.47648 1.44283 0
M  V30 268 C 25.7938 2.74374 0.401757 0
M  V30 269 H 28.7448 1.56831 -0.242816 0
M  V30 270 H 28.7658 3.34031 1.82219 0
M  V30 271 H 28.2778 3.88019 0.0791415 0
M  V30 272 H 26.3788 2.89866 2.34113 0
M  V30 273 H 26.4918 4.56352 1.45877 0
M  V30 274 H 24.8558 2.39485 0.867121 0
M  V30 275 H 25.6388 3.40102 -0.467513 0
M  V30 276 N 28.0839 -0.256276 1.55502 0
M  V30 277 C 29.3299 -0.987079 1.77157 0
M  V30 278 C 29.6629 -1.85327 0.580315 0
M  V30 279 O 28.9379 -1.89874 -0.421686 0
M  V30 280 C 29.2209 -1.85553 3.08613 0
M  V30 281 C 29.0739 -1.01816 4.38125 0
M  V30 282 C 30.3929 -2.8397 3.36228 0
M  V30 283 H 27.5119 -0.357428 0.644526 0
M  V30 284 H 30.1539 -0.258239 1.88237 0
M  V30 285 H 28.3039 -2.47695 2.99298 0
M  V30 286 H 29.9759 -0.416159 4.59419 0
M  V30 287 H 28.2189 -0.322178 4.32602 0
M  V30 288 H 28.8899 -1.65939 5.26468 0
M  V30 289 H 31.3659 -2.31964 3.45445 0
M  V30 290 H 30.2419 -3.41864 4.29442 0
M  V30 291 H 30.5029 -3.59955 2.56681 0
M  V30 292 N 29.562 -1.4872 -0.521534 0
M  V30 293 C 30.495 -1.58451 -1.64221 0
M  V30 294 C 31.473 -0.434513 -1.56687 0
M  V30 295 O 32.657 -0.647275 -1.77038 0
M  V30 296 C 29.784 -1.52037 -3.02659 0
M  V30 297 C 28.83 -2.71981 -3.28525 0
M  V30 298 S 29.663 -4.33869 -3.13876 0
M  V30 299 C 30.819 -4.30067 -4.54745 0
M  V30 300 H 31.052 -2.53256 -1.55719 0
M  V30 301 H 28.585 -1.37358 -0.705143 0
M  V30 302 H 30.543 -1.49023 -3.82495 0
M  V30 303 H 29.204 -0.585541 -3.08594 0
M  V30 304 H 28.397 -2.63656 -4.29536 0
M  V30 305 H 27.999 -2.72302 -2.56374 0
M  V30 306 H 30.291 -4.00521 -5.46433 0
M  V30 307 H 31.234 -5.31287 -4.68123 0
M  V30 308 H 31.642 -3.60419 -4.34463 0
M  V30 309 N 31.0401 0.771051 -1.3745 0
M  V30 310 C 31.9501 1.91538 -1.35464 0
M  V30 311 C 32.9661 1.72134 -0.254123 0
M  V30 312 O 34.1421 1.95358 -0.489626 0
M  V30 313 C 31.2071 3.26671 -1.16134 0
M  V30 314 C 30.2681 3.58723 -2.35831 0
M  V30 315 C 29.5011 4.87409 -2.17413 0
M  V30 316 O 29.7241 5.58506 -1.15876 0
M  V30 317 O 28.6581 5.18539 -3.05615 0
M  V30 318 H 32.4841 1.96165 -2.31847 0
M  V30 319 H 30.0691 0.9139 -1.18187 0
M  V30 320 H 31.9511 4.07499 -1.07345 0
M  V30 321 H 30.6261 3.22894 -0.228251 0
M  V30 322 H 29.5331 2.78127 -2.50192 0
M  V30 323 H 30.8661 3.67243 -3.27709 0
M  V30 324 N 32.5182 1.22032 0.997298 0
M  V30 325 C 33.4652 0.986467 2.08656 0
M  V30 326 C 34.4352 -0.0902671 1.65855 0
M  V30 327 O 35.6202 0.0584294 1.90711 0
M  V30 328 C 32.7602 0.565569 3.40434 0
M  V30 329 C 31.8732 1.71259 3.96604 0
M  V30 330 C 31.0082 1.24011 5.16522 0
M  V30 331 C 30.0472 2.35896 5.64818 0
M  V30 332 N 29.1842 1.89726 6.7598 0
M  V30 333 H 34.0242 1.91892 2.27994 0
M  V30 334 H 31.5612 0.956199 1.11782 0
M  V30 335 H 33.5192 0.302738 4.161 0
M  V30 336 H 32.1492 -0.329879 3.2111 0
M  V30 337 H 31.2012 2.08986 3.17851 0
M  V30 338 H 32.5132 2.55436 4.28432 0
M  V30 339 H 31.6672 0.934395 5.99461 0
M  V30 340 H 30.4062 0.368487 4.86306 0
M  V30 341 H 29.4112 2.67261 4.8047 0
M  V30 342 H 30.6362 3.23567 5.97061 0
M  V30 343 H 28.5822 1.0492 6.47555 0
M  V30 344 H 28.4992 2.67471 7.07103 0
M  V30 345 H 29.7672 1.62211 7.62435 0
M  V30 346 N 33.9963 -1.19345 1.0293 0
M  V30 347 C 34.9433 -2.2258 0.610464 0
M  V30 348 C 35.9133 -1.6179 -0.375946 0
M  V30 349 O 37.0983 -1.88844 -0.272511 0
M  V30 350 C 34.2383 -3.45085 -0.0321473 0
M  V30 351 C 33.3513 -4.20258 1.00035 0
M  V30 352 C 32.4863 -5.3019 0.32746 0
M  V30 353 C 31.5253 -5.97121 1.34584 0
M  V30 354 N 30.6623 -6.98615 0.698726 0
M  V30 355 H 35.5023 -2.57764 1.49538 0
M  V30 356 H 33.0393 -1.26644 0.748311 0
M  V30 357 H 34.9973 -4.15061 -0.421966 0
M  V30 358 H 33.6273 -3.10555 -0.88064 0
M  V30 359 H 32.6793 -3.49223 1.50823 0
M  V30 360 H 33.9913 -4.66175 1.77433 0
M  V30 361 H 33.1453 -6.06587 -0.11718 0
M  V30 362 H 31.8843 -4.85345 -0.478713 0
M  V30 363 H 30.8893 -5.19474 1.80074 0
M  V30 364 H 32.1143 -6.4405 2.15352 0
M  V30 365 H 30.0603 -6.55942 -0.0873471 0
M  V30 366 H 29.9773 -7.42724 1.41058 0
M  V30 367 H 31.2453 -7.79004 0.278102 0
M  V30 368 N 35.4744 -0.807222 -1.35358 0
M  V30 369 C 36.3844 -0.219594 -2.3357 0
M  V30 370 C 37.4004 0.637734 -1.61892 0
M  V30 371 O 38.5764 0.549336 -1.93763 0
M  V30 372 C 35.6414 0.62158 -3.41083 0
M  V30 373 C 34.7024 -0.256315 -4.28534 0
M  V30 374 C 33.9354 0.544807 -5.30912 0
M  V30 375 O 34.1584 1.77944 -5.41934 0
M  V30 376 O 33.0924 -0.0646478 -6.01865 0
M  V30 377 H 36.9184 -1.03208 -2.85625 0
M  V30 378 H 34.5034 -0.569025 -1.38139 0
M  V30 379 H 36.3854 1.10067 -4.06772 0
M  V30 380 H 35.0604 1.41165 -2.91297 0
M  V30 381 H 33.9674 -0.782559 -3.65823 0
M  V30 382 H 35.3004 -1.01034 -4.81719 0
M  V30 383 N 36.9525 1.47285 -0.560781 0
M  V30 384 C 37.8625 2.33846 0.187954 0
M  V30 385 C 38.8785 1.48412 0.908293 0
M  V30 386 O 40.0545 1.81332 0.876388 0
M  V30 387 C 37.1195 3.25178 1.2025 0
M  V30 388 C 36.1805 4.26504 0.489208 0
M  V30 389 C 35.4135 5.13472 1.45542 0
M  V30 390 O 35.6365 5.02959 2.6905 0
M  V30 391 O 34.5705 5.93902 0.977963 0
M  V30 392 H 38.3965 2.99177 -0.522177 0
M  V30 393 H 35.9815 1.45903 -0.321364 0
M  V30 394 H 37.8635 3.81584 1.78805 0
M  V30 395 H 36.5385 2.6247 1.89449 0
M  V30 396 H 35.4455 3.73847 -0.137627 0
M  V30 397 H 36.7785 4.91935 -0.161399 0
M  V30 398 N 38.4306 0.297415 1.54768 0
M  V30 399 C 39.7076 -0.365847 1.92148 0
M  V30 400 C 40.0876 -1.71975 1.22424 0
M  V30 401 O 39.4356 -2.25666 0.358739 0
M  V30 402 C 39.6456 -0.484056 3.45627 0
M  V30 403 C 40.9936 -0.756594 4.17805 0
M  V30 404 O 42.0176 -0.568007 3.51642 0
M  V30 405 O 40.8766 -1.11863 5.34929 0
M  V30 406 H 37.9706 -0.203919 0.801465 0
M  V30 407 H 40.5166 0.34521 1.66152 0
M  V30 408 H 39.2886 0.467865 3.88493 0
M  V30 409 H 38.9116 -1.24372 3.77647 0
M  V30 410 N 39.9087 -1.5758 0.0250728 0
M  V30 411 C 41.1567 -1.91255 -0.653151 0
M  V30 412 C 41.4777 -0.901691 -1.729 0
M  V30 413 O 40.7477 0.0573785 -1.95816 0
M  V30 414 H 39.3277 -0.705942 -0.244243 0
M  V30 415 H 41.9897 -1.94767 0.0719209 0
M  V30 416 H 41.0857 -2.91752 -1.10847 0
M  V30 417 N 41.3868 0.248026 -1.55636 0
M  V30 418 C 42.6148 0.993808 -1.81469 0
M  V30 419 C 43.0298 1.78991 -0.60064 0
M  V30 420 O 42.3868 1.77345 0.430682 0
M  V30 421 C 42.4378 1.93258 -3.05506 0
M  V30 422 O 42.1588 1.16869 -4.22224 0
M  V30 423 C 43.6598 2.79444 -3.4413 0
M  V30 424 H 40.8798 0.292486 -0.603898 0
M  V30 425 H 43.4238 0.271253 -2.02693 0
M  V30 426 H 41.5788 2.60943 -2.86335 0
M  V30 427 H 41.9928 1.80359 -4.92515 0
M  V30 428 H 43.4668 3.41066 -4.34026 0
M  V30 429 H 43.9438 3.50499 -2.64665 0
M  V30 430 H 44.5498 2.17214 -3.65648 0
M  V30 431 N 42.8649 1.48995 0.513639 0
M  V30 432 C 43.7949 1.67636 1.62544 0
M  V30 433 C 44.7759 0.525087 1.61793 0
M  V30 434 O 45.9609 0.759502 1.78732 0
M  V30 435 C 43.0909 1.73114 3.01079 0
M  V30 436 C 42.0449 2.87905 3.16693 0
M  V30 437 C 41.3709 2.78486 4.56453 0
M  V30 438 C 42.6709 4.29005 2.97913 0
M  V30 439 H 44.3649 2.60716 1.47198 0
M  V30 440 H 41.9109 1.25465 0.706714 0
M  V30 441 H 43.8639 1.84742 3.78746 0
M  V30 442 H 42.5879 0.766241 3.17484 0
M  V30 443 H 41.2469 2.75859 2.41448 0
M  V30 444 H 40.8949 1.7993 4.69717 0
M  V30 445 H 40.5949 3.55523 4.67843 0
M  V30 446 H 42.1189 2.92104 5.36197 0
M  V30 447 H 43.5329 4.41798 3.65359 0
M  V30 448 H 41.9299 5.07166 3.20785 0
M  V30 449 H 42.9999 4.44329 1.94165 0
M  V30 450 N 44.343 -0.763751 1.37857 0
M  V30 451 C 45.253 -1.90817 1.36478 0
M  V30 452 C 46.269 -1.71997 0.263248 0
M  V30 453 O 47.445 -1.95095 0.499979 0
M  V30 454 C 44.51 -3.2605 1.17864 0
M  V30 455 C 43.571 -3.57467 2.3773 0
M  V30 456 C 42.804 -4.86249 2.19995 0
M  V30 457 O 43.027 -5.57884 1.18836 0
M  V30 458 O 41.961 -5.16911 3.08361 0
M  V30 459 H 45.787 -1.94933 2.32884 0
M  V30 460 H 43.372 -0.907619 1.1867 0
M  V30 461 H 45.254 -4.06924 1.09504 0
M  V30 462 H 43.929 -3.22769 0.245372 0
M  V30 463 H 42.836 -2.76796 2.51664 0
M  V30 464 H 44.169 -3.655 3.29652 0
M  V30 465 N 45.8211 -1.22559 -0.990812 0
M  V30 466 C 47.2371 -0.985996 -1.255 0
M  V30 467 C 47.4371 0.319173 -1.98956 0
M  V30 468 O 46.4931 1.04127 -2.3003 0
M  V30 469 C 47.8061 -2.18607 -2.06474 0
M  V30 470 C 49.3541 -2.22985 -2.19651 0
M  V30 471 C 49.8291 -3.4255 -3.04012 0
M  V30 472 N 51.3201 -3.42725 -3.11599 0
M  V30 473 C 52.0551 -4.31892 -3.7717 0
M  V30 474 N 51.5511 -5.31279 -4.44651 0
M  V30 475 N 53.3441 -4.19662 -3.73952 0
M  V30 476 H 45.4951 -2.06469 -0.49841 0
M  V30 477 H 47.7581 -0.904853 -0.282747 0
M  V30 478 H 47.4641 -3.13267 -1.59865 0
M  V30 479 H 47.3381 -2.18838 -3.07229 0
M  V30 480 H 49.7251 -1.28871 -2.65474 0
M  V30 481 H 49.8061 -2.26791 -1.18319 0
M  V30 482 H 49.4501 -4.36965 -2.58889 0
M  V30 483 H 49.3801 -3.35984 -4.0549 0
M  V30 484 H 51.8711 -2.70807 -2.63575 0
M  V30 485 H 52.1841 -5.95593 -4.92431 0
M  V30 486 H 50.5291 -5.3519 -4.43392 0
M  V30 487 H 53.7201 -3.41268 -3.20396 0
M  V30 488 H 53.8931 -4.89358 -4.24774 0
M  V30 489 N 47.2992 1.18797 -1.03562 0
M  V30 490 C 48.5472 1.88278 -0.734569 0
M  V30 491 C 48.8682 1.8043 0.739586 0
M  V30 492 O 48.1382 1.21925 1.53333 0
M  V30 493 H 46.7182 0.696991 -0.268725 0
M  V30 494 H 49.3802 1.44192 -1.31129 0
M  V30 495 H 48.4762 2.94443 -1.03489 0
M  V30 496 N 48.7773 0.814389 1.34928 0
M  V30 497 C 49.7273 0.202752 2.27097 0
M  V30 498 C 50.7113 -0.62799 1.48139 0
M  V30 499 O 51.9033 -0.483969 1.70255 0
M  V30 500 C 49.0323 -0.64146 3.37254 0
M  V30 501 C 48.1183 0.19944 4.23631 0
M  V30 502 N 48.5093 1.26628 4.89693 0
M  V30 503 C 46.8073 -0.0176433 4.45997 0
M  V30 504 C 47.5083 1.78031 5.53787 0
M  V30 505 N 46.4843 1.08553 5.32651 0
M  V30 506 H 50.2863 1.01893 2.75672 0
M  V30 507 H 47.8003 0.656332 1.48546 0
M  V30 508 H 49.7973 -1.09575 4.02243 0
M  V30 509 H 48.4573 -1.4559 2.9023 0
M  V30 510 H 49.4683 1.64901 4.90946 0
M  V30 511 H 46.1453 -0.800601 4.09752 0
M  V30 512 H 47.5353 2.67236 6.16469 0
M  V30 513 N 50.2554 -1.46986 0.568584 0
M  V30 514 C 51.5014 -2.0332 0.0571487 0
M  V30 515 C 51.8564 -1.43384 -1.28291 0
M  V30 516 O 51.1494 -0.584304 -1.82473 0
M  V30 517 C 51.3434 -3.57306 -0.081836 0
M  V30 518 C 51.1724 -4.32174 1.24321 0
M  V30 519 C 49.9424 -4.71633 1.81358 0
M  V30 520 C 52.1404 -4.66598 2.16312 0
M  V30 521 N 50.1224 -5.31191 3.07748 0
M  V30 522 C 51.4934 -5.26578 3.27285 0
M  V30 523 C 53.5484 -4.48527 2.16166 0
M  V30 524 C 52.2514 -5.70395 4.38226 0
M  V30 525 C 54.2774 -4.93351 3.26127 0
M  V30 526 C 53.6394 -5.5339 4.3582 0
M  V30 527 H 49.7384 -0.77943 0.063351 0
M  V30 528 H 52.3224 -1.79323 0.758378 0
M  V30 529 H 50.4934 -3.81046 -0.752207 0
M  V30 530 H 52.2254 -4.00282 -0.59637 0
M  V30 531 H 48.9804 -4.53946 1.35019 0
M  V30 532 H 49.4044 -5.65505 3.72201 0
M  V30 533 H 54.0464 -4.01456 1.32638 0
M  V30 534 H 51.7644 -6.16452 5.22506 0
M  V30 535 H 55.3504 -4.81131 3.27115 0
M  V30 536 H 54.2304 -5.87441 5.19503 0
M  V30 537 N 51.7335 -0.305618 -1.54608 0
M  V30 538 C 52.6815 0.584119 -2.25146 0
M  V30 539 C 53.6755 1.13326 -1.25911 0
M  V30 540 O 54.8815 1.08337 -1.43747 0
M  V30 541 H 51.2565 0.206983 -0.722954 0
M  V30 542 H 53.2275 -0.033291 -2.98381 0
M  V30 543 C 51.9765 1.74225 -3.009 0
M  V30 544 H 51.2995 1.32892 -3.77067 0
M  V30 545 H 52.7395 2.34077 -3.53531 0
M  V30 546 C 51.1985 2.64914 -2.0814 0
M  V30 547 O 51.7285 3.66137 -1.65246 0
M  V30 548 N 49.9345 2.3275 -1.74 0
M  V30 549 H 49.4815 1.50479 -2.09078 0
M  V30 550 H 49.4395 2.93694 -1.12211 0
M  V30 551 N 53.2116 1.57565 -0.0334293 0
M  V30 552 C 54.1596 2.1164 0.96496 0
M  V30 553 C 55.1536 1.04398 1.33407 0
M  V30 554 O 56.3596 1.22828 1.3158 0
M  V30 555 H 52.7346 0.676222 0.32898 0
M  V30 556 H 54.7056 2.94455 0.483614 0
M  V30 557 C 53.4546 2.66207 2.23672 0
M  V30 558 H 52.7776 3.48378 1.96145 0
M  V30 559 H 54.2176 3.07685 2.9173 0
M  V30 560 C 52.6766 1.59151 2.96939 0
M  V30 561 O 53.2066 0.993858 3.89211 0
M  V30 562 N 51.4126 1.31093 2.59351 0
M  V30 563 H 50.9596 1.7988 1.84393 0
M  V30 564 H 50.9176 0.596889 3.08682 0
M  V30 565 N 54.6897 -0.239769 1.55765 0
M  V30 566 C 55.6367 -1.29696 1.90913 0
M  V30 567 C 56.6067 -1.47478 0.764164 0
M  V30 568 O 57.7917 -1.61345 1.01845 0
M  V30 569 C 54.9317 -2.64598 2.21544 0
M  V30 570 C 54.0447 -2.54765 3.48882 0
M  V30 571 C 53.1797 -3.82069 3.69049 0
M  V30 572 C 52.2187 -3.66883 4.89963 0
M  V30 573 N 51.3557 -4.86094 5.06614 0
M  V30 574 H 56.1957 -0.990224 2.81067 0
M  V30 575 H 53.7327 -0.477684 1.39128 0
M  V30 576 H 55.6907 -3.43132 2.3731 0
M  V30 577 H 54.3207 -2.93405 1.34585 0
M  V30 578 H 53.3727 -1.67763 3.41409 0
M  V30 579 H 54.6847 -2.39457 4.37563 0
M  V30 580 H 53.8387 -4.69046 3.84812 0
M  V30 581 H 52.5777 -4.00282 2.78614 0
M  V30 582 H 51.5827 -2.78289 4.74168 0
M  V30 583 H 52.8077 -3.50157 5.81865 0
M  V30 584 H 50.7537 -5.04655 4.19117 0
M  V30 585 H 50.6707 -4.73443 5.89396 0
M  V30 586 H 51.9387 -5.74549 5.26795 0
M  V30 587 N 56.1678 -1.49265 -0.50573 0
M  V30 588 C 57.1008 -1.60183 -1.62532 0
M  V30 589 C 58.0788 -0.451107 -1.56217 0
M  V30 590 O 59.2628 -0.666016 -1.76342 0
M  V30 591 C 56.3898 -1.55238 -3.01029 0
M  V30 592 C 55.4358 -2.7545 -3.25621 0
M  V30 593 S 56.2688 -4.37174 -3.09256 0
M  V30 594 C 57.4248 -4.34866 -4.50158 0
M  V30 595 H 57.6578 -2.54894 -1.53025 0
M  V30 596 H 55.1908 -1.38098 -0.690535 0
M  V30 597 H 57.1488 -1.53071 -3.80893 0
M  V30 598 H 55.8098 -0.618238 -3.07956 0
M  V30 599 H 55.0028 -2.68197 -4.26716 0
M  V30 600 H 54.6048 -2.75005 -2.53472 0
M  V30 601 H 56.8968 -4.06295 -5.42154 0
M  V30 602 H 57.8398 -5.36223 -4.62462 0
M  V30 603 H 58.2478 -3.65007 -4.30616 0
M  V30 604 N 57.6459 0.756429 -1.3826 0
M  V30 605 C 58.5559 1.9009 -1.37488 0
M  V30 606 C 59.5719 1.71855 -0.272366 0
M  V30 607 O 60.7479 1.94827 -0.510318 0
M  V30 608 C 57.8129 3.25421 -1.19592 0
M  V30 609 C 56.8739 3.56202 -2.39622 0
M  V30 610 C 56.1069 4.85075 -2.2257 0
M  V30 611 O 56.3299 5.57246 -1.21793 0
M  V30 612 O 55.2639 5.15269 -3.11098 0
M  V30 613 H 59.0899 1.93695 -2.33914 0
M  V30 614 H 56.6749 0.901313 -1.1915 0
M  V30 615 H 58.5569 4.06337 -1.11661 0
M  V30 616 H 57.2319 3.22634 -0.262486 0
M  V30 617 H 56.1389 2.75458 -2.53128 0
M  V30 618 H 57.4719 3.63747 -3.31586 0
M  V30 619 N 59.124 1.23083 0.984299 0
M  V30 620 C 60.371 1.06057 1.72505 0
M  V30 621 C 60.699 -0.403105 1.90277 0
M  V30 622 O 59.954 -1.3149 1.44944 0
M  V30 623 C 60.253 1.72673 3.1292 0
M  V30 624 C 59.919 3.22586 3.15038 0
M  V30 625 C 58.581 3.63489 3.15324 0
M  V30 626 C 60.933 4.185 3.10657 0
M  V30 627 C 58.261 4.98772 3.08939 0
M  V30 628 C 60.613 5.53769 3.05814 0
M  V30 629 C 59.277 5.94041 3.04419 0
M  V30 630 H 58.547 0.388091 0.631242 0
M  V30 631 H 61.194 1.52963 1.15215 0
M  V30 632 H 59.499 1.18116 3.73572 0
M  V30 633 H 61.196 1.56982 3.68996 0
M  V30 634 H 57.786 2.90022 3.15571 0
M  V30 635 H 61.97 3.87911 3.09579 0
M  V30 636 H 57.226 5.29193 3.0621 0
M  V30 637 H 61.4 6.27808 3.0138 0
M  V30 638 H 59.027 6.98833 2.99227 0
M  V30 639 N 60.6021 -1.18246 1.0419 0
M  V30 640 C 61.8481 -1.88536 0.747122 0
M  V30 641 C 62.1811 -1.80223 -0.723409 0
M  V30 642 O 61.4561 -1.20337 -1.52804 0
M  V30 643 C 61.7391 -3.38968 1.21544 0
M  V30 644 C 61.5921 -3.56084 2.74816 0
M  V30 645 C 62.9111 -4.32648 0.806482 0
M  V30 646 H 60.0301 -0.684619 0.272883 0
M  V30 647 H 62.6721 -1.39113 1.29413 0
M  V30 648 H 60.8221 -3.8119 0.750081 0
M  V30 649 H 62.4941 -3.22946 3.29399 0
M  V30 650 H 60.7371 -2.98699 3.14582 0
M  V30 651 H 61.4081 -4.61639 3.02644 0
M  V30 652 H 63.8841 -3.98211 1.20695 0
M  V30 653 H 62.7601 -5.36462 1.1619 0
M  V30 654 H 63.0211 -4.41146 -0.29029 0
M  V30 655 N 62.0802 -0.821533 -1.34494 0
M  V30 656 C 63.0102 -0.257138 -2.3208 0
M  V30 657 C 63.9912 0.625645 -1.58176 0
M  V30 658 O 65.1762 0.552811 -1.86166 0
M  V30 659 C 62.3062 0.582958 -3.42372 0
M  V30 660 C 61.2602 -0.202571 -4.2752 0
M  V30 661 C 60.5862 0.760179 -5.29269 0
M  V30 662 C 61.8862 -1.40998 -5.02908 0
M  V30 663 H 63.5802 -1.07247 -2.79532 0
M  V30 664 H 61.1262 -0.517163 -1.34393 0
M  V30 665 H 63.0792 0.987972 -4.09655 0
M  V30 666 H 61.8032 1.43133 -2.93565 0
M  V30 667 H 60.4622 -0.588936 -3.61838 0
M  V30 668 H 60.1102 1.60447 -4.76724 0
M  V30 669 H 59.8102 0.238809 -5.87115 0
M  V30 670 H 61.3342 1.16308 -5.9942 0
M  V30 671 H 62.7482 -1.07905 -5.63054 0
M  V30 672 H 61.1452 -1.86689 -5.70322 0
M  V30 673 H 62.2152 -2.1889 -4.32684 0
M  V30 674 N 63.5583 1.46682 -0.576371 0
M  V30 675 C 64.7833 2.07304 -0.0630475 0
M  V30 676 C 65.2083 1.42329 1.2298 0
M  V30 677 O 64.5663 0.504865 1.74129 0
M  V30 678 C 64.6143 3.60472 0.095895 0
M  V30 679 O 63.7183 3.95927 1.15394 0
M  V30 680 H 63.0593 0.661288 -0.0599463 0
M  V30 681 H 65.5893 1.88417 -0.797511 0
M  V30 682 H 65.5993 4.06865 0.304071 0
M  V30 683 H 64.2743 4.07157 -0.84828 0
M  V30 684 H 62.8513 3.61252 0.924724 0
M  V30 685 N 65.0364 0.313813 1.54444 0
M  V30 686 C 66.2824 -0.292108 2.00685 0
M  V30 687 C 66.6154 -1.52548 1.20177 0
M  V30 688 O 65.8904 -1.92452 0.281531 0
M  V30 689 C 66.1734 -0.635968 3.5444 0
M  V30 690 C 66.0264 0.607437 4.4568 0
M  V30 691 C 67.3454 -1.45747 4.15266 0
M  V30 692 H 64.4644 -0.104697 0.729526 0
M  V30 693 H 67.1064 0.428457 1.85106 0
M  V30 694 H 65.2564 -1.24986 3.67846 0
M  V30 695 H 66.9284 1.24581 4.44159 0
M  V30 696 H 65.1714 1.23822 4.15753 0
M  V30 697 H 65.8424 0.322515 5.51057 0
M  V30 698 H 68.3184 -0.938645 4.05375 0
M  V30 699 H 67.1944 -1.66683 5.2298 0
M  V30 700 H 67.4554 -2.45063 3.67963 0
M  V30 701 N 66.5145 -1.57545 0.0417849 0
M  V30 702 C 67.4775 -2.09885 -0.92093 0
M  V30 703 C 68.4775 -1.01648 -1.24596 0
M  V30 704 O 69.6675 -1.27759 -1.1842 0
M  V30 705 C 66.7995 -2.57527 -2.23367 0
M  V30 706 H 67.9925 -2.96236 -0.467382 0
M  V30 707 H 65.5455 -1.5493 -0.206467 0
M  V30 708 H 66.2805 -1.74542 -2.73323 0
M  V30 709 H 66.0655 -3.36613 -2.01083 0
M  V30 710 H 67.5555 -2.98201 -2.92346 0
M  V30 711 N 67.9926 0.231505 -1.5589 0
M  V30 712 C 69.2406 0.955461 -1.78088 0
M  V30 713 C 69.5616 1.85262 -0.608533 0
M  V30 714 O 68.8316 1.92277 0.375035 0
M  V30 715 H 67.4116 0.355787 -0.656829 0
M  V30 716 H 70.0736 0.245751 -1.93344 0
M  V30 717 H 69.1696 1.56814 -2.69844 0
M  V30 718 N 69.4707 1.49531 0.497807 0
M  V30 719 C 70.3807 1.69176 1.62532 0
M  V30 720 C 71.3967 0.5744 1.64246 0
M  V30 721 O 72.5727 0.849497 1.82608 0
M  V30 722 C 69.6377 1.75695 2.98885 0
M  V30 723 C 68.6987 2.9929 3.07773 0
M  V30 724 C 67.9317 3.05488 4.37622 0
M  V30 725 O 68.1547 2.19192 5.26603 0
M  V30 726 O 67.0887 3.9798 4.51548 0
M  V30 727 H 70.9147 2.647 1.48887 0
M  V30 728 H 68.4997 1.3331 0.674441 0
M  V30 729 H 70.3817 1.82317 3.79919 0
M  V30 730 H 69.0567 0.8335 3.12785 0
M  V30 731 H 67.9637 2.98183 2.25915 0
M  V30 732 H 69.2967 3.91125 2.98801 0
M  V30 733 N 70.9488 -0.749086 1.3866 0
M  V30 734 C 72.1978 -1.50371 1.3443 0
M  V30 735 C 72.5108 -1.95503 -0.0616397 0
M  V30 736 O 73.7168 -2.70554 -0.226489 0
M  V30 737 C 72.1728 -2.71644 2.36088 0
M  V30 738 C 71.7808 -2.3352 3.82325 0
M  V30 739 C 73.5248 -3.49518 2.40909 0
M  V30 740 C 71.4318 -3.51431 4.75658 0
M  V30 741 H 70.3618 -0.564628 0.499712 0
M  V30 742 H 73.0128 -0.818449 1.64237 0
M  V30 743 H 71.3948 -3.42175 1.9933 0
M  V30 744 H 72.5688 -1.70627 4.28046 0
M  V30 745 H 70.8838 -1.6877 3.80665 0
M  V30 746 H 73.4808 -4.37197 3.07836 0
M  V30 747 H 73.8238 -3.90992 1.42937 0
M  V30 748 H 74.3568 -2.86005 2.76489 0
M  V30 749 H 71.0958 -3.15019 5.74842 0
M  V30 750 H 70.6158 -4.13352 4.34627 0
M  V30 751 H 72.2948 -4.17953 4.93887 0
M  V30 752 N 72.4269 -1.23603 -0.977757 0
M  V30 753 C 73.6759 -1.06377 -1.71368 0
M  V30 754 C 73.9889 0.399062 -1.91486 0
M  V30 755 O 75.1949 0.691312 -2.62551 0
M  V30 756 C 73.6509 -1.85512 -3.08404 0
M  V30 757 C 73.2589 -3.36141 -2.96164 0
M  V30 758 C 75.0029 -1.76783 -3.85938 0
M  V30 759 C 72.9099 -4.07659 -4.28449 0
M  V30 760 H 71.8399 -0.394452 -0.642591 0
M  V30 761 H 74.4909 -1.47594 -1.09034 0
M  V30 762 H 72.8729 -1.37103 -3.71509 0
M  V30 763 H 74.0469 -3.92056 -2.42133 0
M  V30 764 H 72.3619 -3.45712 -2.32104 0
M  V30 765 H 74.9589 -2.27526 -4.83876 0
M  V30 766 H 75.3019 -0.731116 -4.0983 0
M  V30 767 H 75.8349 -2.22818 -3.2954 0
M  V30 768 H 72.5739 -5.11648 -4.09752 0
M  V30 769 H 72.0939 -3.5653 -4.82334 0
M  V30 770 H 73.7729 -4.141 -4.97122 0
M  V30 771 N 73.905 1.17692 -1.04816 0
M  V30 772 C 75.153 1.87488 -0.754497 0
M  V30 773 C 75.474 1.81205 0.720407 0
M  V30 774 O 74.744 1.23544 1.52032 0
M  V30 775 H 73.324 0.694101 -0.276102 0
M  V30 776 H 75.986 1.42793 -1.32651 0
M  V30 777 H 75.082 2.93328 -1.06606 0
M  V30 778 N 75.3831 0.828654 1.34056 0
M  V30 779 C 76.3131 0.269443 2.3194 0
M  V30 780 C 77.2941 -0.617247 1.58506 0
M  V30 781 O 78.4791 -0.542931 1.86456 0
M  V30 782 C 75.6091 -0.564793 3.42677 0
M  V30 783 C 74.5631 0.225241 4.27407 0
M  V30 784 C 73.8891 -0.7321 5.29664 0
M  V30 785 C 75.1891 1.43663 5.02154 0
M  V30 786 H 76.8831 1.08728 2.7896 0
M  V30 787 H 74.4291 0.524283 1.34117 0
M  V30 788 H 76.3821 -0.966233 4.10173 0
M  V30 789 H 75.1061 -1.41574 2.9432 0
M  V30 790 H 73.7651 0.608117 3.61521 0
M  V30 791 H 73.4131 -1.57916 4.77568 0
M  V30 792 H 73.1131 -0.20767 5.87233 0
M  V30 793 H 74.6371 -1.13128 6.00029 0
M  V30 794 H 76.0511 1.1089 5.62473 0
M  V30 795 H 74.4481 1.89711 5.69324 0
M  V30 796 H 75.5181 2.21181 4.31517 0
M  V30 797 N 76.8612 -1.46375 0.584142 0
M  V30 798 C 78.1092 -2.01978 0.0701287 0
M  V30 799 C 78.4302 -1.4579 -1.295 0
M  V30 800 O 77.7002 -0.64314 -1.85042 0
M  V30 801 H 76.2802 -0.746648 0.0229345 0
M  V30 802 H 78.9422 -1.79461 0.760245 0
M  V30 803 H 78.0382 -3.121 0.0022064 0
M  V30 804 N 78.3393 -0.321999 -1.54275 0
M  V30 805 C 79.2873 0.560206 -2.25753 0
M  V30 806 C 80.2813 1.11984 -1.27106 0
M  V30 807 O 81.4873 1.06806 -1.44888 0
M  V30 808 H 77.8623 0.199304 -0.725108 0
M  V30 809 H 79.8333 -0.0649365 -2.98329 0
M  V30 810 C 78.5823 1.71023 -3.02731 0
M  V30 811 H 77.9053 1.28885 -3.78456 0
M  V30 812 H 79.3453 2.30314 -3.55993 0
M  V30 813 C 77.8043 2.62692 -2.10938 0
M  V30 814 O 78.3343 3.64364 -1.6912 0
M  V30 815 N 76.5403 2.30891 -1.76459 0
M  V30 816 H 76.0873 1.48253 -2.10663 0
M  V30 817 H 76.0453 2.92487 -1.1532 0
M  V30 818 N 79.8174 1.5752 -0.0501392 0
M  V30 819 C 81.0634 1.92936 0.624798 0
M  V30 820 C 81.3964 0.928685 1.70555 0
M  V30 821 O 80.6714 -0.0454779 1.94447 0
M  V30 822 C 80.9544 3.38737 1.22185 0
M  V30 823 C 80.8074 4.49552 0.149218 0
M  V30 824 C 82.1264 3.84913 2.13378 0
M  V30 825 H 79.2454 0.701604 0.225657 0
M  V30 826 H 81.8874 1.89671 -0.111693 0
M  V30 827 H 80.0374 3.4165 1.84953 0
M  V30 828 H 81.7094 4.58768 -0.482648 0
M  V30 829 H 79.9524 4.30638 -0.522841 0
M  V30 830 H 80.6234 5.48653 0.606966 0
M  V30 831 H 83.0994 3.8387 1.60572 0
M  V30 832 H 81.9754 4.87584 2.52097 0
M  V30 833 H 82.2364 3.21611 3.03346 0
M  V30 834 N 81.2955 -0.223234 1.56011 0
M  V30 835 C 82.5415 -0.944891 1.8012 0
M  V30 836 C 82.8965 -1.82039 0.622862 0
M  V30 837 O 82.1895 -1.8773 -0.383143 0
M  V30 838 C 82.3835 -1.81948 3.0762 0
M  V30 839 C 82.2125 -1.03014 4.37742 0
M  V30 840 C 80.9825 -0.72574 5.00061 0
M  V30 841 C 83.1805 -0.396256 5.12771 0
M  V30 842 N 81.1625 0.0851816 6.13841 0
M  V30 843 C 82.5335 0.278137 6.19376 0
M  V30 844 C 84.5885 -0.309117 4.9694 0
M  V30 845 C 83.2915 1.03133 7.11868 0
M  V30 846 C 85.3175 0.430607 5.8983 0
M  V30 847 C 84.6795 1.09355 6.9586 0
M  V30 848 H 80.7785 -0.326081 0.710771 0
M  V30 849 H 83.3625 -0.215914 1.93499 0
M  V30 850 H 81.5335 -2.52029 2.95527 0
M  V30 851 H 83.2655 -2.47848 3.19927 0
M  V30 852 H 80.0205 -1.04335 4.61964 0
M  V30 853 H 80.4445 0.479428 6.753 0
M  V30 854 H 85.0865 -0.807313 4.15021 0
M  V30 855 H 82.8045 1.54105 7.9327 0
M  V30 856 H 86.3905 0.499012 5.79656 0
M  V30 857 H 85.2705 1.65679 7.66499 0
M  V30 858 N 82.7736 -1.49793 -0.48987 0
M  V30 859 C 84.1896 -1.36803 -0.822022 0
M  V30 860 C 84.3896 -0.409652 -1.97292 0
M  V30 861 O 83.4456 0.154614 -2.52026 0
M  V30 862 C 84.7586 -2.77768 -1.15175 0
M  V30 863 C 86.3066 -2.86549 -1.25931 0
M  V30 864 C 86.7816 -4.28306 -1.62228 0
M  V30 865 N 88.2726 -4.31169 -1.69256 0
M  V30 866 C 89.0076 -5.37832 -1.98807 0
M  V30 867 N 88.5036 -6.54726 -2.26507 0
M  V30 868 N 90.2966 -5.25258 -2.00152 0
M  V30 869 H 82.4476 -2.10691 0.268881 0
M  V30 870 H 84.7106 -0.946241 0.057728 0
M  V30 871 H 84.4166 -3.49648 -0.379335 0
M  V30 872 H 84.2906 -3.13836 -2.09253 0
M  V30 873 H 86.6776 -2.14899 -2.02243 0
M  V30 874 H 86.7586 -2.54049 -0.298776 0
M  V30 875 H 86.4026 -5.00486 -0.864622 0
M  V30 876 H 86.3326 -4.58279 -2.594 0
M  V30 877 H 88.8236 -3.4687 -1.49965 0
M  V30 878 H 89.1366 -7.31833 -2.48276 0
M  V30 879 H 87.4816 -6.57933 -2.23939 0
M  V30 880 H 90.6726 -4.32938 -1.77996 0
M  V30 881 H 90.8456 -6.08476 -2.22848 0
M  V30 882 N 84.2517 0.741722 -1.39055 0
M  V30 883 C 85.4987 1.50114 -1.35912 0
M  V30 884 C 85.8267 1.94443 0.0470937 0
M  V30 885 O 85.0817 1.66612 1.02659 0
M  V30 886 C 85.3807 2.7592 -2.27163 0
M  V30 887 C 85.0467 2.50493 -3.74919 0
M  V30 888 C 83.7087 2.43267 -4.1518 0
M  V30 889 C 86.0607 2.28585 -4.684 0
M  V30 890 C 83.3887 2.12166 -5.46994 0
M  V30 891 C 85.7407 1.99002 -6.00484 0
M  V30 892 C 84.4047 1.90241 -6.39816 0
M  V30 893 H 83.6747 0.549306 -0.497336 0
M  V30 894 H 86.3217 0.851896 -1.71508 0
M  V30 895 H 84.6267 3.45553 -1.84663 0
M  V30 896 H 86.3237 3.33923 -2.22028 0
M  V30 897 H 82.9137 2.56992 -3.43006 0
M  V30 898 H 87.0977 2.33139 -4.38132 0
M  V30 899 H 82.3537 2.03901 -5.76398 0
M  V30 900 H 86.5277 1.81057 -6.72452 0
M  V30 901 H 84.1547 1.65907 -7.41875 0
M  V30 902 N 85.7298 1.2412 0.971189 0
M  V30 903 C 87.1408 1.07236 1.52831 0
M  V30 904 C 87.4918 -0.357352 1.92918 0
M  V30 905 O 86.6168 -1.24528 1.76979 0
M  V30 906 C 87.2118 1.94043 2.77728 0
M  V30 907 C 85.7708 1.81394 3.29808 0
M  V30 908 C 84.9178 1.89189 2.02738 0
M  V30 909 H 87.8688 1.37648 0.789864 0
M  V30 910 H 87.8898 1.47066 3.5093 0
M  V30 911 H 87.4018 2.98093 2.4852 0
M  V30 912 H 85.5028 0.801634 3.63874 0
M  V30 913 H 85.6158 2.65294 3.98944 0
M  V30 914 H 83.9798 1.32877 2.17292 0
M  V30 915 H 84.7628 2.94812 1.759 0
M  V30 916 N 87.2079 -1.17134 1.05439 0
M  V30 917 C 88.4379 -1.91094 0.785274 0
M  V30 918 C 88.8459 -1.77198 -0.663142 0
M  V30 919 O 88.1889 -1.10835 -1.46497 0
M  V30 920 C 88.2509 -3.42594 1.08949 0
M  V30 921 C 87.9149 -3.80274 2.53458 0
M  V30 922 C 88.9119 -3.82912 3.51673 0
M  V30 923 C 86.5969 -4.11162 2.88532 0
M  V30 924 C 88.5909 -4.15913 4.83006 0
M  V30 925 C 86.2779 -4.43831 4.20068 0
M  V30 926 C 87.2759 -4.46185 5.17115 0
M  V30 927 O 86.9639 -4.78083 6.46291 0
M  V30 928 H 86.6959 -0.613073 0.284811 0
M  V30 929 H 89.2499 -1.49461 1.40893 0
M  V30 930 H 87.4799 -3.84534 0.408741 0
M  V30 931 H 89.1689 -3.97817 0.805991 0
M  V30 932 H 89.9349 -3.5917 3.25917 0
M  V30 933 H 85.8139 -4.085 2.13656 0
M  V30 934 H 89.3579 -4.17665 5.5875 0
M  V30 935 H 85.2549 -4.67037 4.45586 0
M  V30 936 H 86.0229 -4.9593 6.51149 0
M  V30 937 N 88.686 -0.835752 -1.33615 0
M  V30 938 C 89.616 -0.281739 -2.31794 0
M  V30 939 C 90.597 0.608833 -1.58831 0
M  V30 940 O 91.782 0.533035 -1.86741 0
M  V30 941 C 88.912 0.546612 -3.42971 0
M  V30 942 C 87.866 -0.247904 -4.27281 0
M  V30 943 C 87.192 0.704001 -5.30045 0
M  V30 944 C 88.492 -1.46324 -5.01385 0
M  V30 945 H 90.186 -1.10206 -2.78379 0
M  V30 946 H 87.732 -0.531388 -1.33837 0
M  V30 947 H 89.685 0.944467 -4.1068 0
M  V30 948 H 88.409 1.40011 -2.95067 0
M  V30 949 H 87.068 -0.627281 -3.61194 0
M  V30 950 H 86.716 1.55381 -4.78399 0
M  V30 951 H 86.416 0.176524 -5.87335 0
M  V30 952 H 87.94 1.09944 -6.0062 0
M  V30 953 H 89.354 -1.13871 -5.61877 0
M  V30 954 H 87.751 -1.92728 -5.6831 0
M  V30 955 H 88.821 -2.23467 -4.30338 0
M  V30 956 N 90.1641 1.46063 -0.591896 0
M  V30 957 C 91.4041 2.04228 -0.0838014 0
M  V30 958 C 91.7681 1.45231 1.25587 0
M  V30 959 O 92.9691 1.94653 1.85375 0
M  V30 960 C 91.2401 3.57389 -0.0286282 0
M  V30 961 S 92.7991 4.3678 0.420557 0
M  V30 962 H 89.6171 0.709762 -0.0419319 0
M  V30 963 H 92.2191 1.78983 -0.786465 0
M  V30 964 H 90.9231 3.97843 -1.00743 0
M  V30 965 H 90.4541 3.87185 0.69652 0
M  V30 966 H 92.4691 4.67131 1.67341 0
M  V30 967 N 91.6422 0.330177 1.54103 0
M  V30 968 C 92.8722 -0.271784 2.04805 0
M  V30 969 C 93.2802 -1.45816 1.20559 0
M  V30 970 O 92.6232 -1.82247 0.2306 0
M  V30 971 C 92.6852 -0.763238 3.51305 0
M  V30 972 C 92.3492 0.301705 4.56003 0
M  V30 973 C 93.3462 1.13999 5.07248 0
M  V30 974 C 91.0312 0.451793 5.00264 0
M  V30 975 C 93.0252 2.11402 6.01322 0
M  V30 976 C 90.7122 1.42924 5.94151 0
M  V30 977 C 91.7102 2.25882 6.44567 0
M  V30 978 O 91.3982 3.21965 7.3661 0
M  V30 979 H 91.1302 -0.058693 0.673447 0
M  V30 980 H 93.6842 0.476395 1.99799 0
M  V30 981 H 91.9142 -1.56244 3.5373 0
M  V30 982 H 93.6032 -1.28427 3.85047 0
M  V30 983 H 94.3692 1.03505 4.73827 0
M  V30 984 H 90.2482 -0.184044 4.60632 0
M  V30 985 H 93.7922 2.76192 6.40596 0
M  V30 986 H 89.6892 1.53479 6.26988 0
M  V30 987 H 90.4572 3.17281 7.54503 0
M  V30 988 N 93.1203 -1.57491 0.0584922 0
M  V30 989 C 94.0673 -2.11958 -0.913376 0
M  V30 990 C 95.0373 -1.02875 -1.30407 0
M  V30 991 O 96.2223 -1.30464 -1.39226 0
M  V30 992 C 93.3623 -2.67497 -2.18035 0
M  V30 993 C 92.4753 -3.90691 -1.84349 0
M  V30 994 C 91.6103 -4.3452 -3.05559 0
M  V30 995 C 90.6493 -5.50395 -2.67827 0
M  V30 996 N 89.7863 -5.89244 -3.81754 0
M  V30 997 H 94.6263 -2.94704 -0.442017 0
M  V30 998 H 92.1633 -1.45643 -0.206545 0
M  V30 999 H 94.1213 -2.978 -2.92183 0
M  V30 1000 H 92.7513 -1.87537 -2.62735 0
M  V30 1001 H 91.8033 -3.66934 -1.00319 0
M  V30 1002 H 93.1153 -4.7489 -1.5258 0
M  V30 1003 H 92.2693 -4.66414 -3.87998 0
M  V30 1004 H 91.0083 -3.49147 -3.40511 0
M  V30 1005 H 90.0133 -5.18165 -1.83806 0
M  V30 1006 H 91.2383 -6.3749 -2.34059 0
M  V30 1007 H 89.1843 -5.06823 -4.16493 0
M  V30 1008 H 89.1013 -6.68151 -3.53708 0
M  V30 1009 H 90.3693 -6.25756 -4.64811 0
M  V30 1010 N 94.5984 0.214957 -1.56127 0
M  V30 1011 C 95.5464 1.28601 -1.93816 0
M  V30 1012 C 96.5404 1.48175 -0.821016 0
M  V30 1013 O 97.7464 1.49271 -1.0059 0
M  V30 1014 H 94.1214 0.431302 -0.616022 0
M  V30 1015 H 96.0924 0.940991 -2.83175 0
M  V30 1016 C 94.8414 2.62779 -2.27689 0
M  V30 1017 H 94.1644 2.48527 -3.13168 0
M  V30 1018 H 95.6044 3.36517 -2.57939 0
M  V30 1019 C 94.0634 3.18285 -1.10436 0
M  V30 1020 O 94.5934 4.00002 -0.368945 0
M  V30 1021 N 92.7994 2.7675 -0.886433 0
M  V30 1022 H 92.3464 2.10404 -1.48619 0
M  V30 1023 H 92.3044 3.14229 -0.103656 0
M  V30 1024 N 96.0765 1.50051 0.48192 0
M  V30 1025 C 97.3245 1.60181 1.23234 0
M  V30 1026 C 97.6455 0.299176 1.92691 0
M  V30 1027 O 96.9155 -0.682708 1.83619 0
M  V30 1028 H 95.4955 0.590232 0.457859 0
M  V30 1029 H 98.1575 1.86775 0.556881 0
M  V30 1030 H 97.2535 2.40753 1.98607 0
M  V30 1031 N 97.5546 -0.734337 1.39446 0
M  V30 1032 C 98.8026 -1.49096 1.36436 0
M  V30 1033 C 99.1236 -1.94961 -0.0388255 0
M  V30 1034 O 98.3936 -1.69033 -0.990191 0
M  V30 1035 H 96.9736 -0.5531 0.502085 0
M  V30 1036 H 99.6356 -0.871725 1.74319 0
M  V30 1037 H 98.7316 -2.37276 2.02747 0
M  V30 1038 N 99.0327 -1.24633 -0.964593 0
M  V30 1039 C 100.281 -1.08573 -1.70459 0
M  V30 1040 C 100.602 0.375655 -1.91347 0
M  V30 1041 O 99.8717 1.26779 -1.49345 0
M  V30 1042 H 98.4517 -0.398784 -0.631649 0
M  V30 1043 H 101.114 -1.56601 -1.16026 0
M  V30 1044 H 100.21 -1.58623 -2.68785 0
M  V30 1045 N 100.511 1.16574 -1.06058 0
M  V30 1046 C 101.474 2.19085 -0.673392 0
M  V30 1047 C 102.474 1.5835 0.279648 0
M  V30 1048 O 103.664 1.74088 0.0623488 0
M  V30 1049 C 100.796 3.40899 0.00954234 0
M  V30 1050 H 101.989 2.54853 -1.58081 0
M  V30 1051 H 99.5418 1.30808 -0.855516 0
M  V30 1052 H 100.277 3.10684 0.929826 0
M  V30 1053 H 100.062 3.86233 -0.67573 0
M  V30 1054 H 101.552 4.1675 0.266245 0
M  V30 1055 N 101.989 0.842826 1.3317 0
M  V30 1056 C 103.236 0.440447 1.97652 0
M  V30 1057 C 103.564 -1.00123 1.6675 0
M  V30 1058 O 102.819 -1.7155 0.941761 0
M  V30 1059 C 103.118 0.612607 3.52111 0
M  V30 1060 C 102.784 2.02297 4.02972 0
M  V30 1061 C 101.446 2.40874 4.16573 0
M  V30 1062 C 103.798 2.94402 4.30089 0
M  V30 1063 C 101.126 3.70852 4.54627 0
M  V30 1064 C 103.478 4.23865 4.69597 0
M  V30 1065 C 102.142 4.62392 4.81404 0
M  V30 1066 H 101.412 0.161171 0.72326 0
M  V30 1067 H 104.059 1.07061 1.58777 0
M  V30 1068 H 102.364 -0.100849 3.9167 0
M  V30 1069 H 104.061 0.2815 4.00011 0
M  V30 1070 H 100.651 1.71338 3.92863 0
M  V30 1071 H 104.835 2.65835 4.19101 0
M  V30 1072 H 100.091 4.00501 4.61962 0
M  V30 1073 H 104.265 4.95306 4.89536 0
M  V30 1074 H 101.892 5.63154 5.10648 0
M  V30 1075 N 103.467 -1.45747 0.599634 0
M  V30 1076 C 104.714 -2.02292 0.0917284 0
M  V30 1077 C 105.042 -1.46906 -1.27472 0
M  V30 1078 O 104.297 -0.630652 -1.8526 0
M  V30 1079 C 104.596 -3.57399 -0.00602758 0
M  V30 1080 C 104.262 -4.31902 1.29503 0
M  V30 1081 C 102.924 -4.51974 1.65144 0
M  V30 1082 C 105.276 -4.74551 2.15525 0
M  V30 1083 C 102.604 -5.11949 2.86574 0
M  V30 1084 C 104.956 -5.35868 3.36196 0
M  V30 1085 C 103.62 -5.54165 3.72099 0
M  V30 1086 H 102.89 -0.740239 0.0335658 0
M  V30 1087 H 105.537 -1.7491 0.779661 0
M  V30 1088 H 103.842 -3.84014 -0.777183 0
M  V30 1089 H 105.539 -3.98846 -0.415038 0
M  V30 1090 H 102.129 -4.16588 1.00761 0
M  V30 1091 H 106.313 -4.58784 1.8929 0
M  V30 1092 H 101.569 -5.24305 3.14507 0
M  V30 1093 H 105.743 -5.6787 4.03109 0
M  V30 1094 H 103.37 -6.00406 4.6628 0
M  V30 1095 N 104.945 -0.338344 -1.53925 0
M  V30 1096 C 106.194 0.260732 -2.00008 0
M  V30 1097 C 106.507 1.52073 -1.23017 0
M  V30 1098 O 107.713 2.19672 -1.5955 0
M  V30 1099 C 106.169 0.51515 -3.56194 0
M  V30 1100 C 105.777 -0.728645 -4.42035 0
M  V30 1101 C 107.521 1.07337 -4.10706 0
M  V30 1102 C 105.428 -0.445315 -5.89721 0
M  V30 1103 H 104.358 0.101205 -0.747177 0
M  V30 1104 H 107.009 -0.452866 -1.77824 0
M  V30 1105 H 105.391 1.28932 -3.74423 0
M  V30 1106 H 106.565 -1.50352 -4.35581 0
M  V30 1107 H 104.88 -1.20813 -3.98489 0
M  V30 1108 H 107.477 1.30022 -5.18651 0
M  V30 1109 H 107.82 2.0273 -3.63602 0
M  V30 1110 H 108.353 0.360034 -3.96167 0
M  V30 1111 H 105.092 -1.36883 -6.41049 0
M  V30 1112 H 104.612 0.291569 -5.99091 0
M  V30 1113 H 106.291 -0.0606218 -6.46972 0
M  V30 1114 N 106.423 1.57458 -0.0668435 0
M  V30 1115 C 107.834 1.80776 0.466558 0
M  V30 1116 C 108.185 0.980361 1.69951 0
M  V30 1117 O 107.31 0.201441 2.1546 0
M  V30 1118 C 107.905 3.27881 0.85321 0
M  V30 1119 C 106.464 3.52062 1.3315 0
M  V30 1120 C 105.611 2.75513 0.314264 0
M  V30 1121 H 108.562 1.5598 -0.292588 0
M  V30 1122 H 108.583 3.39659 1.715 0
M  V30 1123 H 108.095 3.88075 -0.0443439 0
M  V30 1124 H 106.196 2.97167 2.24772 0
M  V30 1125 H 106.309 4.60762 1.31285 0
M  V30 1126 H 104.673 2.42123 0.790492 0
M  V30 1127 H 105.456 3.38442 -0.575477 0
M  V30 1128 N 107.901 -0.206675 1.56239 0
M  V30 1129 C 109.131 -0.943975 1.83773 0
M  V30 1130 C 109.539 -1.77841 0.645703 0
M  V30 1131 O 108.882 -1.79403 -0.395008 0
M  V30 1132 C 108.944 -1.899 3.05251 0
M  V30 1133 C 108.608 -1.24764 4.39639 0
M  V30 1134 C 109.605 -0.630216 5.16066 0
M  V30 1135 C 107.29 -1.25496 4.8637 0
M  V30 1136 C 109.284 -0.0287946 6.37393 0
M  V30 1137 C 106.971 -0.649698 6.07637 0
M  V30 1138 C 107.969 -0.0376845 6.8299 0
M  V30 1139 O 107.657 0.55812 8.0196 0
M  V30 1140 H 107.389 -0.281508 0.614597 0
M  V30 1141 H 109.943 -0.222458 2.04192 0
M  V30 1142 H 108.173 -2.6599 2.80689 0
M  V30 1143 H 109.862 -2.5031 3.1953 0
M  V30 1144 H 110.628 -0.616785 4.81062 0
M  V30 1145 H 106.507 -1.72072 4.27683 0
M  V30 1146 H 110.051 0.449518 6.9615 0
M  V30 1147 H 105.948 -0.660592 6.42111 0
M  V30 1148 H 106.716 0.453891 8.17241 0
M  V30 1149 N 109.379 -1.50304 -0.473955 0
M  V30 1150 C 110.309 -1.71886 -1.58042 0
M  V30 1151 C 111.29 -0.567799 -1.60344 0
M  V30 1152 O 112.475 -0.806623 -1.76656 0
M  V30 1153 C 109.605 -1.81036 -2.96384 0
M  V30 1154 C 108.559 -2.962 -3.08949 0
M  V30 1155 C 107.885 -2.9049 -4.48909 0
M  V30 1156 C 109.185 -4.36752 -2.86434 0
M  V30 1157 H 110.879 -2.64527 -1.40234 0
M  V30 1158 H 108.425 -1.27295 -0.673201 0
M  V30 1159 H 110.378 -1.94719 -3.73714 0
M  V30 1160 H 109.102 -0.850147 -3.15341 0
M  V30 1161 H 107.761 -2.82164 -2.3405 0
M  V30 1162 H 107.409 -1.92321 -4.64781 0
M  V30 1163 H 107.109 -3.67802 -4.58253 0
M  V30 1164 H 108.633 -3.06218 -5.28264 0
M  V30 1165 H 110.047 -4.5133 -3.53517 0
M  V30 1166 H 108.444 -5.15493 -3.07225 0
M  V30 1167 H 109.514 -4.49321 -1.82316 0
M  V30 1168 N 110.857 0.726932 -1.39834 0
M  V30 1169 C 112.103 1.48884 -1.377 0
M  V30 1170 C 112.436 1.94185 0.0244852 0
M  V30 1171 O 111.711 1.67361 0.990986 0
M  V30 1172 C 111.994 2.72288 -2.3565 0
M  V30 1173 C 111.847 2.32956 -3.84775 0
M  V30 1174 C 113.166 3.74414 -2.31306 0
M  V30 1175 H 110.285 0.540062 -0.5015 0
M  V30 1176 H 112.927 0.830547 -1.70886 0
M  V30 1177 H 111.077 3.28457 -2.07481 0
M  V30 1178 H 112.749 1.82356 -4.23726 0
M  V30 1179 H 110.992 1.65088 -4.01159 0
M  V30 1180 H 111.663 3.21362 -4.4881 0
M  V30 1181 H 114.139 3.27849 -2.56231 0
M  V30 1182 H 113.015 4.58414 -3.01907 0
M  V30 1183 H 113.276 4.21909 -1.32081 0
M  V30 1184 N 112.336 1.25143 0.95797 0
M  V30 1185 C 113.583 1.09692 1.70217 0
M  V30 1186 C 113.911 -0.362654 1.91089 0
M  V30 1187 O 113.166 -1.28386 1.47701 0
M  V30 1188 C 113.465 1.79272 3.09187 0
M  V30 1189 C 113.131 3.29196 3.08125 0
M  V30 1190 C 111.793 3.70096 3.07543 0
M  V30 1191 C 114.145 4.24995 3.0171 0
M  V30 1192 C 111.473 5.05213 2.9829 0
M  V30 1193 C 113.825 5.60132 2.93999 0
M  V30 1194 C 112.489 6.00365 2.9175 0
M  V30 1195 H 111.759 0.401393 0.622868 0
M  V30 1196 H 114.406 1.55372 1.11945 0
M  V30 1197 H 112.711 1.26014 3.70982 0
M  V30 1198 H 114.408 1.64773 3.65583 0
M  V30 1199 H 110.998 2.96651 3.09348 0
M  V30 1200 H 115.182 3.9439 3.01281 0
M  V30 1201 H 110.438 5.35569 2.94916 0
M  V30 1202 H 114.612 6.3406 2.87996 0
M  V30 1203 H 112.239 7.05023 2.84336 0
M  V30 1204 N 113.814 -1.1601 1.06675 0
M  V30 1205 C 114.744 -2.22688 0.702307 0
M  V30 1206 C 115.725 -1.67306 -0.307032 0
M  V30 1207 O 116.91 -1.93352 -0.181305 0
M  V30 1208 C 114.04 -3.47178 0.092038 0
M  V30 1209 C 112.994 -4.15477 1.02777 0
M  V30 1210 C 112.32 -5.33963 0.28061 0
M  V30 1211 C 113.62 -4.66019 2.35846 0
M  V30 1212 H 115.314 -2.53429 1.59419 0
M  V30 1213 H 112.86 -1.21813 0.767961 0
M  V30 1214 H 114.813 -4.21037 -0.174814 0
M  V30 1215 H 113.537 -3.15749 -0.834877 0
M  V30 1216 H 112.196 -3.43549 1.27944 0
M  V30 1217 H 111.844 -4.98788 -0.649545 0
M  V30 1218 H 111.544 -5.806 0.904258 0
M  V30 1219 H 113.068 -6.10596 0.021396 0
M  V30 1220 H 114.482 -5.3144 2.15045 0
M  V30 1221 H 112.879 -5.23293 2.93743 0
M  V30 1222 H 113.949 -3.82023 2.98641 0
M  V30 1223 N 115.292 -0.849877 -1.32721 0
M  V30 1224 C 116.539 -0.450923 -1.97416 0
M  V30 1225 C 116.867 0.992376 -1.67279 0
M  V30 1226 O 116.122 1.71048 -0.950845 0
M  V30 1227 C 116.421 -0.631272 -3.51781 0
M  V30 1228 C 116.087 -2.04432 -4.01894 0
M  V30 1229 C 114.749 -2.4308 -4.1529 0
M  V30 1230 C 117.101 -2.96679 -4.28522 0
M  V30 1231 C 114.429 -3.73257 -4.52654 0
M  V30 1232 C 116.781 -4.26349 -4.67343 0
M  V30 1233 C 115.445 -4.64939 -4.78945 0
M  V30 1234 H 114.715 -0.165004 -0.722395 0
M  V30 1235 H 117.362 -1.07901 -1.58207 0
M  V30 1236 H 115.667 0.0800767 -3.91718 0
M  V30 1237 H 117.364 -0.302709 -3.99856 0
M  V30 1238 H 113.954 -1.73419 -3.91949 0
M  V30 1239 H 118.138 -2.68054 -4.17685 0
M  V30 1240 H 113.394 -4.02946 -4.59831 0
M  V30 1241 H 117.568 -4.97895 -4.86902 0
M  V30 1242 H 115.195 -5.65855 -5.07654 0
M  V30 1243 N 116.77 1.45427 -0.607355 0
M  V30 1244 C 117.998 2.06614 -0.108814 0
M  V30 1245 C 118.413 1.45204 1.2067 0
M  V30 1246 O 117.77 0.566132 1.73497 0
M  V30 1247 C 117.821 3.61481 0.0375347 0
M  V30 1248 O 117.542 4.20598 -1.22593 0
M  V30 1249 C 119.043 4.39652 0.567561 0
M  V30 1250 H 116.263 0.66747 -0.0687351 0
M  V30 1251 H 118.807 1.86675 -0.835022 0
M  V30 1252 H 116.962 3.80762 0.714068 0
M  V30 1253 H 117.376 5.1377 -1.05547 0
M  V30 1254 H 118.85 5.48518 0.61905 0
M  V30 1255 H 119.327 4.09417 1.58978 0
M  V30 1256 H 119.933 4.25234 -0.0749202 0
M  V30 1257 N 118.248 0.346503 1.53744 0
M  V30 1258 C 119.488 -0.249413 2.02873 0
M  V30 1259 C 119.852 -1.47532 1.22876 0
M  V30 1260 O 121.053 -2.1456 1.61918 0
M  V30 1261 C 119.324 -0.552909 3.53097 0
M  V30 1262 S 120.883 -1.12521 4.24128 0
M  V30 1263 H 117.701 -0.074042 0.707134 0
M  V30 1264 H 120.303 0.48495 1.8939 0
M  V30 1265 H 119.007 0.347083 4.0893 0
M  V30 1266 H 118.538 -1.31686 3.70705 0
M  V30 1267 H 120.553 -2.41075 4.33702 0
M  V30 1268 N 119.726 -1.57421 0.075193 0
M  V30 1269 C 120.974 -1.93236 -0.591974 0
M  V30 1270 C 121.295 -0.956241 -1.69944 0
M  V30 1271 O 120.565 -0.00494792 -1.95899 0
M  V30 1272 H 119.145 -0.713355 -0.22166 0
M  V30 1273 H 121.807 -1.9444 0.133848 0
M  V30 1274 H 120.903 -2.95131 -1.01509 0
M  V30 1275 N 121.204 0.198386 -1.56346 0
M  V30 1276 C 122.453 0.917451 -1.79627 0
M  V30 1277 C 122.766 1.8456 -0.64784 0
M  V30 1278 O 123.972 2.60504 -0.764859 0
M  V30 1279 C 122.428 1.68175 -3.18191 0
M  V30 1280 C 122.036 0.798589 -4.40825 0
M  V30 1281 C 123.78 2.39065 -3.50782 0
M  V30 1282 C 121.687 1.56157 -5.70411 0
M  V30 1283 H 120.617 0.346317 -0.669762 0
M  V30 1284 H 123.268 0.170801 -1.82703 0
M  V30 1285 H 121.65 2.47216 -3.09354 0
M  V30 1286 H 122.824 0.0470665 -4.60776 0
M  V30 1287 H 121.139 0.200686 -4.15916 0
M  V30 1288 H 123.736 2.96692 -4.44835 0
M  V30 1289 H 124.079 3.13091 -2.74371 0
M  V30 1290 H 124.612 1.66993 -3.61052 0
M  V30 1291 H 121.351 0.864142 -6.49779 0
M  V30 1292 H 120.871 2.2871 -5.54483 0
M  V30 1293 H 122.55 2.11622 -6.11412 0
M  V30 1294 N 122.682 1.50554 0.465978 0
M  V30 1295 C 124.093 1.54599 1.04671 0
M  V30 1296 C 124.444 0.352488 1.93008 0
M  V30 1297 O 123.569 -0.534044 2.09707 0
M  V30 1298 C 124.164 2.80166 1.90505 0
M  V30 1299 C 122.723 2.86876 2.43678 0
M  V30 1300 C 121.87 2.48947 1.22151 0
M  V30 1301 H 124.821 1.56744 0.248384 0
M  V30 1302 H 124.842 2.62311 2.75633 0
M  V30 1303 H 124.354 3.67013 1.26186 0
M  V30 1304 H 122.455 2.04393 3.11536 0
M  V30 1305 H 122.568 3.89885 2.78436 0
M  V30 1306 H 120.932 2.01498 1.5579 0
M  V30 1307 H 121.715 3.38107 0.594866 0
M  V30 1308 N 124.16 -0.719506 1.40217 0
M  V30 1309 C 125.406 -1.48152 1.38488 0
M  V30 1310 C 125.739 -1.94195 -0.0141867 0
M  V30 1311 O 125.014 -1.67884 -0.982096 0
M  V30 1312 C 125.297 -2.71035 2.37091 0
M  V30 1313 C 125.15 -2.30912 3.86005 0
M  V30 1314 C 126.469 -3.73182 2.33288 0
M  V30 1315 H 123.588 -0.537395 0.504357 0
M  V30 1316 H 126.23 -0.821472 1.71324 0
M  V30 1317 H 124.38 -3.27352 2.0922 0
M  V30 1318 H 126.052 -1.80107 4.24687 0
M  V30 1319 H 124.295 -1.62958 4.02029 0
M  V30 1320 H 124.966 -3.18978 4.50508 0
M  V30 1321 H 127.442 -3.26485 2.57966 0
M  V30 1322 H 126.318 -4.56806 3.04334 0
M  V30 1323 H 126.579 -4.21202 1.34317 0
M  V30 1324 N 125.638 -1.25649 -0.95132 0
M  V30 1325 C 126.885 -1.10594 -1.69633 0
M  V30 1326 C 127.213 0.352515 -1.91279 0
M  V30 1327 O 126.468 1.27601 -1.4838 0
M  V30 1328 C 126.767 -1.80909 -3.08231 0
M  V30 1329 C 126.433 -3.30825 -3.06375 0
M  V30 1330 C 125.095 -3.71722 -3.05576 0
M  V30 1331 C 127.447 -4.26589 -2.99452 0
M  V30 1332 C 124.775 -5.06788 -2.95606 0
M  V30 1333 C 127.127 -5.61683 -2.91024 0
M  V30 1334 C 125.791 -6.01904 -2.88562 0
M  V30 1335 H 125.061 -0.404691 -0.620731 0
M  V30 1336 H 127.708 -1.55964 -1.11119 0
M  V30 1337 H 126.013 -1.27979 -3.70309 0
M  V30 1338 H 127.71 -1.6671 -3.64704 0
M  V30 1339 H 124.3 -2.98287 -3.07771 0
M  V30 1340 H 128.484 -3.95982 -2.99185 0
M  V30 1341 H 123.74 -5.37126 -2.92071 0
M  V30 1342 H 127.914 -6.35578 -2.84629 0
M  V30 1343 H 125.541 -7.06521 -2.80593 0
M  V30 1344 N 127.117 1.15442 -1.07289 0
M  V30 1345 C 128.047 2.22312 -0.714107 0
M  V30 1346 C 129.028 1.67467 0.298155 0
M  V30 1347 O 130.213 1.93445 0.171048 0
M  V30 1348 C 127.343 3.47124 -0.110448 0
M  V30 1349 C 126.297 4.14926 -1.04979 0
M  V30 1350 C 125.623 5.33807 -0.308924 0
M  V30 1351 C 126.923 4.64762 -2.38314 0
M  V30 1352 H 128.617 2.5258 -1.6076 0
M  V30 1353 H 126.163 1.21404 -0.77441 0
M  V30 1354 H 128.116 4.21124 0.152482 0
M  V30 1355 H 126.84 3.16187 0.81812 0
M  V30 1356 H 125.499 3.42866 -1.29764 0
M  V30 1357 H 125.147 4.99126 0.623084 0
M  V30 1358 H 124.847 5.80113 -0.935036 0
M  V30 1359 H 126.371 6.10576 -0.0537771 0
M  V30 1360 H 127.785 5.30292 -2.1786 0
M  V30 1361 H 126.182 5.21728 -2.96514 0
M  V30 1362 H 127.252 3.80434 -3.00663 0
M  V30 1363 N 128.595 0.856903 1.32268 0
M  V30 1364 C 129.525 0.31858 2.31316 0
M  V30 1365 C 130.506 -0.583487 1.59779 0
M  V30 1366 O 131.691 -0.503259 1.87566 0
M  V30 1367 C 128.821 -0.491979 3.43798 0
M  V30 1368 C 127.775 0.315849 4.26833 0
M  V30 1369 C 127.101 -0.619586 5.31098 0
M  V30 1370 C 128.401 1.54282 4.98993 0
M  V30 1371 H 130.095 1.14621 2.76591 0
M  V30 1372 H 127.641 0.552613 1.32974 0
M  V30 1373 H 129.594 -0.879012 4.1213 0
M  V30 1374 H 128.318 -1.35299 2.97257 0
M  V30 1375 H 126.977 0.684664 3.6015 0
M  V30 1376 H 126.625 -1.47751 4.8081 0
M  V30 1377 H 126.325 -0.0830621 5.87541 0
M  V30 1378 H 127.849 -1.00375 6.02293 0
M  V30 1379 H 129.263 1.22796 5.59995 0
M  V30 1380 H 127.66 2.01745 5.65172 0
M  V30 1381 H 128.73 2.30285 4.26728 0
M  V30 1382 N 130.073 -1.45103 0.615059 0
M  V30 1383 C 130.983 -2.34382 -0.101034 0
M  V30 1384 C 131.999 -1.51681 -0.852585 0
M  V30 1385 O 133.175 -1.8446 -0.808484 0
M  V30 1386 C 130.24 -3.29417 -1.08099 0
M  V30 1387 C 129.301 -4.28025 -0.330577 0
M  V30 1388 C 128.534 -5.1852 -1.26385 0
M  V30 1389 O 128.757 -5.12598 -2.50198 0
M  V30 1390 O 127.691 -5.97122 -0.756866 0
M  V30 1391 H 131.517 -2.97033 0.632855 0
M  V30 1392 H 129.102 -1.4461 0.375293 0
M  V30 1393 H 130.984 -3.87958 -1.6452 0
M  V30 1394 H 129.659 -2.69321 -1.79577 0
M  V30 1395 H 128.566 -3.73078 0.276283 0
M  V30 1396 H 129.899 -4.90997 0.343866 0
M  V30 1397 N 131.551 -0.354651 -1.53558 0
M  V30 1398 C 132.779 0.239515 -2.05509 0
M  V30 1399 C 133.194 1.4333 -1.2289 0
M  V30 1400 O 132.551 1.80538 -0.266899 0
M  V30 1401 C 132.602 0.643719 -3.55723 0
M  V30 1402 O 132.323 -0.502602 -4.35207 0
M  V30 1403 C 133.824 1.29743 -4.23889 0
M  V30 1404 H 131.044 0.0442697 -0.669538 0
M  V30 1405 H 133.588 -0.509856 -1.98042 0
M  V30 1406 H 131.743 1.34302 -3.63376 0
M  V30 1407 H 132.157 -0.178172 -5.24197 0
M  V30 1408 H 133.631 1.53091 -5.30346 0
M  V30 1409 H 134.108 2.25441 -3.76926 0
M  V30 1410 H 134.714 0.639865 -4.20459 0
M  V30 1411 N 133.029 1.57378 -0.0835403 0
M  V30 1412 C 133.992 2.12252 0.864959 0
M  V30 1413 C 134.992 1.04916 1.21858 0
M  V30 1414 O 136.182 1.30853 1.14991 0
M  V30 1415 C 133.314 2.63358 2.16461 0
M  V30 1416 H 134.507 2.97371 0.388676 0
M  V30 1417 H 132.06 1.55423 0.165317 0
M  V30 1418 H 132.795 1.81727 2.686 0
M  V30 1419 H 132.58 3.41826 1.92087 0
M  V30 1420 H 134.07 3.05847 2.84337 0
M  V30 1421 N 134.507 -0.190092 1.56449 0
M  V30 1422 C 135.437 -1.23816 1.97969 0
M  V30 1423 C 136.418 -1.47201 0.852395 0
M  V30 1424 O 137.603 -1.58854 1.1171 0
M  V30 1425 C 134.733 -2.5813 2.3235 0
M  V30 1426 C 133.687 -2.49348 3.47864 0
M  V30 1427 C 133.013 -3.8798 3.67934 0
M  V30 1428 C 134.313 -2.01424 4.81898 0
M  V30 1429 H 136.007 -0.89311 2.85769 0
M  V30 1430 H 133.553 -0.428177 1.37487 0
M  V30 1431 H 135.506 -3.31637 2.59991 0
M  V30 1432 H 134.23 -2.94386 1.41438 0
M  V30 1433 H 132.889 -1.78297 3.20321 0
M  V30 1434 H 132.537 -4.21597 2.74344 0
M  V30 1435 H 132.237 -3.82978 4.45648 0
M  V30 1436 H 133.761 -4.63101 3.97957 0
M  V30 1437 H 135.175 -2.64693 5.08538 0
M  V30 1438 H 133.572 -2.07413 5.63116 0
M  V30 1439 H 134.642 -0.967677 4.75146 0
M  V30 1440 N 135.985 -1.50799 -0.457987 0
M  V30 1441 C 137.233 -1.62121 -1.2067 0
M  V30 1442 C 137.554 -0.329793 -1.92191 0
M  V30 1443 O 136.824 0.653409 -1.84682 0
M  V30 1444 H 135.404 -0.597441 -0.448411 0
M  V30 1445 H 138.066 -1.87637 -0.527096 0
M  V30 1446 H 137.162 -2.43882 -1.94751 0
M  V30 1447 N 137.463 0.71206 -1.40597 0
M  V30 1448 C 138.395 1.83704 -1.37061 0
M  V30 1449 C 139.408 1.60453 -0.275426 0
M  V30 1450 O 140.597 1.70262 -0.53602 0
M  V30 1451 C 137.697 3.20172 -1.11099 0
M  V30 1452 C 136.87 3.7059 -2.3234 0
M  V30 1453 C 135.929 4.85681 -2.02485 0
M  V30 1454 O 134.955 4.9815 -2.75382 0
M  V30 1455 N 136.157 5.71735 -1.00497 0
M  V30 1456 H 138.922 1.87235 -2.34016 0
M  V30 1457 H 136.483 0.893739 -1.34996 0
M  V30 1458 H 138.475 3.94768 -0.891064 0
M  V30 1459 H 137.045 3.11767 -0.227989 0
M  V30 1460 H 136.265 2.87085 -2.7014 0
M  V30 1461 H 137.553 4.01011 -3.13157 0
M  V30 1462 H 136.951 5.64275 -0.401298 0
M  V30 1463 H 135.508 6.463 -0.844942 0
M  V30 1464 N 138.941 1.26152 0.944643 0
M  V30 1465 C 140.171 1.14094 1.72239 0
M  V30 1466 C 140.579 -0.306931 1.86694 0
M  V30 1467 O 139.922 -1.22222 1.3714 0
M  V30 1468 C 139.984 1.73316 3.14963 0
M  V30 1469 C 139.648 3.2239 3.23904 0
M  V30 1470 C 140.645 4.19252 3.07447 0
M  V30 1471 C 138.33 3.62788 3.47405 0
M  V30 1472 C 140.324 5.54491 3.14353 0
M  V30 1473 C 138.011 4.98162 3.53947 0
M  V30 1474 C 139.009 5.93823 3.37436 0
M  V30 1475 O 138.697 7.26732 3.43679 0
M  V30 1476 H 138.429 0.398292 0.546205 0
M  V30 1477 H 140.983 1.67201 1.19301 0
M  V30 1478 H 139.213 1.14667 3.69308 0
M  V30 1479 H 140.902 1.56214 3.74636 0
M  V30 1480 H 141.668 3.8938 2.8915 0
M  V30 1481 H 137.547 2.88816 3.59313 0
M  V30 1482 H 141.091 6.29137 3.01384 0
M  V30 1483 H 136.988 5.27695 3.71763 0
M  V30 1484 H 137.756 7.3496 3.60245 0
M  V30 1485 N 140.419 -1.14872 1.07899 0
M  V30 1486 C 141.647 -1.89661 0.82683 0
M  V30 1487 C 142.062 -1.78312 -0.620519 0
M  V30 1488 O 141.419 -1.13888 -1.42604 0
M  V30 1489 C 141.47 -3.39817 1.23316 0
M  V30 1490 O 141.191 -3.50845 2.62372 0
M  V30 1491 C 142.692 -4.31615 1.0111 0
M  V30 1492 H 139.912 -0.60092 0.298557 0
M  V30 1493 H 142.456 -1.4551 1.43691 0
M  V30 1494 H 140.611 -3.8161 0.667286 0
M  V30 1495 H 141.025 -4.44076 2.79101 0
M  V30 1496 H 142.499 -5.35367 1.34486 0
M  V30 1497 H 142.976 -4.39169 -0.0522168 0
M  V30 1498 H 143.582 -3.95572 1.56215 0
M  V30 1499 N 141.898 -0.863906 -1.31812 0
M  V30 1500 C 143.123 -0.48527 -2.01643 0
M  V30 1501 C 143.548 0.913058 -1.64453 0
M  V30 1502 O 142.906 1.6014 -0.849985 0
M  V30 1503 C 142.954 -0.642625 -3.54828 0
M  V30 1504 O 142.058 0.320659 -4.11151 0
M  V30 1505 H 141.399 -0.193793 -0.635091 0
M  V30 1506 H 143.929 -1.16565 -1.68148 0
M  V30 1507 H 143.939 -0.533628 -4.04495 0
M  V30 1508 H 142.614 -1.66227 -3.81237 0
M  V30 1509 H 141.191 0.167126 -3.72525 0
M  V30 1510 N 143.376 1.44774 -0.622745 0
M  V30 1511 C 144.308 2.28856 0.125485 0
M  V30 1512 C 145.321 1.40811 0.817069 0
M  V30 1513 O 146.51 1.65044 0.679918 0
M  V30 1514 C 143.61 3.16963 1.19949 0
M  V30 1515 C 142.783 4.33374 0.592064 0
M  V30 1516 C 141.842 5.02577 1.55893 0
M  V30 1517 O 140.868 5.58873 1.07933 0
M  V30 1518 N 142.07 5.03256 2.89334 0
M  V30 1519 H 144.835 2.93713 -0.596068 0
M  V30 1520 H 142.396 1.55129 -0.463303 0
M  V30 1521 H 144.388 3.60123 1.84644 0
M  V30 1522 H 142.958 2.53913 1.82337 0
M  V30 1523 H 142.178 3.93509 -0.233322 0
M  V30 1524 H 143.466 5.08527 0.166738 0
M  V30 1525 H 142.864 4.58836 3.30887 0
M  V30 1526 H 141.421 5.50232 3.49412 0
M  V30 1527 N 144.854 0.36279 1.53368 0
M  V30 1528 C 146.102 -0.227326 2.00817 0
M  V30 1529 C 146.423 -1.49511 1.25186 0
M  V30 1530 O 145.693 -1.92482 0.364348 0
M  V30 1531 H 144.273 -0.0869923 0.741917 0
M  V30 1532 H 146.935 0.488381 1.88682 0
M  V30 1533 H 146.031 -0.456273 3.08747 0
M  V30 1534 N 146.332 -1.57332 0.0918853 0
M  V30 1535 C 147.58 -1.93853 -0.571446 0
M  V30 1536 C 147.901 -0.974212 -1.6892 0
M  V30 1537 O 147.171 -0.0257254 -1.95883 0
M  V30 1538 H 145.751 -0.715666 -0.214082 0
M  V30 1539 H 148.413 -1.94287 0.154464 0
M  V30 1540 H 147.509 -2.96191 -0.983729 0
M  V30 1541 N 147.81 0.181792 -1.56548 0
M  V30 1542 C 149.056 0.901431 -1.81665 0
M  V30 1543 C 149.389 1.82347 -0.668075 0
M  V30 1544 O 148.664 1.91669 0.330615 0
M  V30 1545 C 148.947 1.70618 -3.17115 0
M  V30 1546 C 148.8 0.807964 -4.42484 0
M  V30 1547 C 150.119 2.67605 -3.49393 0
M  V30 1548 H 147.238 0.32627 -0.660846 0
M  V30 1549 H 149.88 0.168134 -1.89255 0
M  V30 1550 H 148.03 2.33133 -3.10775 0
M  V30 1551 H 149.702 0.19649 -4.60881 0
M  V30 1552 H 147.945 0.115411 -4.33646 0
M  V30 1553 H 148.616 1.40632 -5.33785 0
M  V30 1554 H 151.092 2.15218 -3.56118 0
M  V30 1555 H 149.968 3.20985 -4.45264 0
M  V30 1556 H 150.229 3.47298 -2.73563 0
M  V30 1557 N 149.288 1.51039 0.449983 0
M  V30 1558 C 150.516 1.66869 1.2232 0
M  V30 1559 C 150.931 0.360727 1.85322 0
M  V30 1560 O 150.288 -0.659531 1.70166 0
M  V30 1561 C 150.339 2.77524 2.31652 0
M  V30 1562 O 150.06 4.03252 1.7123 0
M  V30 1563 C 151.561 3.04512 3.2216 0
M  V30 1564 H 148.781 0.560326 0.369155 0
M  V30 1565 H 151.325 1.97385 0.534719 0
M  V30 1566 H 149.48 2.49642 2.96239 0
M  V30 1567 H 149.894 4.64609 2.43389 0
M  V30 1568 H 151.368 3.85551 3.95038 0
M  V30 1569 H 151.845 2.16415 3.8218 0
M  V30 1570 H 152.451 3.34005 2.63288 0
M  V30 1571 N 150.766 -0.704594 1.40972 0
M  V30 1572 C 151.729 -1.80035 1.41845 0
M  V30 1573 C 152.729 -1.57774 0.310474 0
M  V30 1574 O 153.919 -1.64613 0.56992 0
M  V30 1575 C 151.051 -3.18284 1.22098 0
M  V30 1576 H 152.244 -1.80658 2.3938 0
M  V30 1577 H 149.797 -0.911329 1.26982 0
M  V30 1578 H 150.532 -3.23306 0.253672 0
M  V30 1579 H 150.317 -3.35843 2.02366 0
M  V30 1580 H 151.807 -3.98289 1.25522 0
M  V30 1581 N 152.244 -1.26651 -0.937939 0
M  V30 1582 C 153.49 -1.13562 -1.68746 0
M  V30 1583 C 153.845 0.317241 -1.89767 0
M  V30 1584 O 153.138 1.22939 -1.46957 0
M  V30 1585 C 153.332 -1.84168 -3.06295 0
M  V30 1586 C 153.161 -3.36171 -2.98696 0
M  V30 1587 C 151.931 -4.05468 -3.01535 0
M  V30 1588 C 154.129 -4.32312 -2.78588 0
M  V30 1589 N 152.111 -5.44118 -2.84269 0
M  V30 1590 C 153.482 -5.58159 -2.69924 0
M  V30 1591 C 155.537 -4.22524 -2.63396 0
M  V30 1592 C 154.24 -6.75335 -2.47618 0
M  V30 1593 C 156.266 -5.39411 -2.42466 0
M  V30 1594 C 155.628 -6.64208 -2.34536 0
M  V30 1595 H 151.727 -0.470361 -0.624728 0
M  V30 1596 H 154.311 -1.59982 -1.10968 0
M  V30 1597 H 152.482 -1.40219 -3.62206 0
M  V30 1598 H 154.214 -1.63674 -3.70126 0
M  V30 1599 H 150.969 -3.56854 -3.11372 0
M  V30 1600 H 151.393 -6.1693 -2.78795 0
M  V30 1601 H 156.035 -3.26771 -2.68292 0
M  V30 1602 H 153.753 -7.71182 -2.41463 0
M  V30 1603 H 157.339 -5.33711 -2.31611 0
M  V30 1604 H 156.219 -7.53129 -2.18555 0
M  V30 1605 N 153.722 1.14298 -1.08507 0
M  V30 1606 C 155.138 1.37347 -0.812901 0
M  V30 1607 C 155.338 1.93052 0.577325 0
M  V30 1608 O 154.394 2.14389 1.33393 0
M  V30 1609 C 155.707 2.33359 -1.89642 0
M  V30 1610 C 157.255 2.46996 -1.92255 0
M  V30 1611 C 157.73 3.46309 -2.99724 0
M  V30 1612 N 159.221 3.53853 -2.98902 0
M  V30 1613 C 159.956 4.3055 -3.787 0
M  V30 1614 N 159.452 5.10482 -4.6838 0
M  V30 1615 N 161.245 4.25757 -3.66998 0
M  V30 1616 H 153.396 0.764867 -1.9815 0
M  V30 1617 H 155.659 0.398966 -0.859959 0
M  V30 1618 H 155.365 1.99565 -2.89597 0
M  V30 1619 H 155.239 3.33274 -1.76659 0
M  V30 1620 H 157.626 2.80081 -0.929445 0
M  V30 1621 H 157.707 1.47039 -2.09316 0
M  V30 1622 H 157.351 3.13957 -3.99241 0
M  V30 1623 H 157.281 4.46049 -2.79907 0
M  V30 1624 H 159.772 2.96812 -2.33904 0
M  V30 1625 H 160.085 5.66284 -5.25873 0
M  V30 1626 H 158.43 5.09747 -4.72422 0
M  V30 1627 H 161.621 3.62383 -2.96304 0
M  V30 1628 H 161.794 4.85279 -4.29427 0
M  V30 1629 N 155.201 0.870884 1.31352 0
M  V30 1630 C 156.148 0.325425 2.28494 0
M  V30 1631 C 157.118 -0.576615 1.5577 0
M  V30 1632 O 158.303 -0.508059 1.83911 0
M  V30 1633 C 155.443 -0.466283 3.41935 0
M  V30 1634 C 154.556 0.463378 4.29508 0
M  V30 1635 C 153.691 -0.342544 5.30094 0
M  V30 1636 C 152.73 0.583486 6.09313 0
M  V30 1637 N 151.867 -0.186244 7.01853 0
M  V30 1638 H 156.707 1.15901 2.74538 0
M  V30 1639 H 154.244 0.58294 1.35056 0
M  V30 1640 H 156.202 -0.941085 4.06447 0
M  V30 1641 H 154.832 -1.26456 2.97 0
M  V30 1642 H 153.884 1.05663 3.65431 0
M  V30 1643 H 155.196 1.1734 4.84802 0
M  V30 1644 H 154.35 -0.879816 6.00287 0
M  V30 1645 H 153.089 -1.08585 4.75458 0
M  V30 1646 H 152.094 1.13251 5.3801 0
M  V30 1647 H 153.319 1.32566 6.66035 0
M  V30 1648 H 151.265 -0.912348 6.49625 0
M  V30 1649 H 151.182 0.464422 7.54572 0
M  V30 1650 H 152.45 -0.704716 7.76308 0
M  V30 1651 N 156.679 -1.44442 0.630414 0
M  V30 1652 C 157.928 -2.01267 0.132073 0
M  V30 1653 C 158.241 -1.50172 -1.25331 0
M  V30 1654 O 159.447 -1.9912 -1.84562 0
M  V30 1655 C 157.903 -3.59422 0.185362 0
M  V30 1656 C 157.511 -4.19514 1.57201 0
M  V30 1657 C 159.255 -4.23724 -0.256553 0
M  V30 1658 C 157.162 -5.69891 1.58045 0
M  V30 1659 H 156.092 -0.752619 0.0456092 0
M  V30 1660 H 158.743 -1.65666 0.789106 0
M  V30 1661 H 157.125 -3.92318 -0.538759 0
M  V30 1662 H 158.299 -3.98156 2.31966 0
M  V30 1663 H 156.614 -3.67496 1.95795 0
M  V30 1664 H 159.211 -5.34019 -0.269767 0
M  V30 1665 H 159.554 -3.96013 -1.28372 0
M  V30 1666 H 160.087 -3.95629 0.41505 0
M  V30 1667 H 156.826 -6.02336 2.58597 0
M  V30 1668 H 156.346 -5.93373 0.875725 0
M  V30 1669 H 158.025 -6.33515 1.31408 0
M  V30 1670 N 158.157 -0.370918 -1.53173 0
M  V30 1671 C 159.397 0.217106 -2.03244 0
M  V30 1672 C 159.761 1.45558 -1.25207 0
M  V30 1673 O 160.962 2.11957 -1.65311 0
M  V30 1674 C 159.233 0.496664 -3.53932 0
M  V30 1675 S 160.792 1.0576 -4.25864 0
M  V30 1676 H 157.61 0.0627827 -0.708223 0
M  V30 1677 H 160.212 -0.515019 -1.88594 0
M  V30 1678 H 158.916 -0.412096 -4.08326 0
M  V30 1679 H 158.447 1.25772 -3.72753 0
M  V30 1680 H 160.462 2.34145 -4.37482 0
M  V30 1681 N 159.635 1.57281 -0.100228 0
M  V30 1682 C 161.046 1.81725 0.428107 0
M  V30 1683 C 161.397 1.01619 1.67833 0
M  V30 1684 O 160.522 0.247098 2.14985 0
M  V30 1685 C 161.117 3.29617 0.78347 0
M  V30 1686 C 159.676 3.54808 1.25653 0
M  V30 1687 C 158.823 2.76118 0.255752 0
M  V30 1688 H 161.774 1.55324 -0.325608 0
M  V30 1689 H 161.795 3.4322 1.64256 0
M  V30 1690 H 161.307 3.87893 -0.12665 0
M  V30 1691 H 159.408 3.01868 2.18418 0
M  V30 1692 H 159.521 4.63443 1.21482 0
M  V30 1693 H 157.885 2.43745 0.738956 0
M  V30 1694 H 158.668 3.37145 -0.647136 0
M  V30 1695 N 161.113 -0.173488 1.56642 0
M  V30 1696 C 162.362 -0.888758 1.81063 0
M  V30 1697 C 162.675 -1.83506 0.67712 0
M  V30 1698 O 163.881 -2.59254 0.806206 0
M  V30 1699 C 162.337 -1.63091 3.20826 0
M  V30 1700 C 161.945 -0.728357 4.4204 0
M  V30 1701 C 163.689 -2.33454 3.54541 0
M  V30 1702 C 161.596 -1.47062 5.72823 0
M  V30 1703 H 160.526 -0.335618 0.675186 0
M  V30 1704 H 163.177 -0.141712 1.82952 0
M  V30 1705 H 161.559 -2.42263 3.13248 0
M  V30 1706 H 162.733 0.0262449 4.60793 0
M  V30 1707 H 161.048 -0.134492 4.16183 0
M  V30 1708 H 163.645 -2.89578 4.49498 0
M  V30 1709 H 163.988 -3.08687 2.79317 0
M  V30 1710 H 164.521 -1.61227 3.63663 0
M  V30 1711 H 161.26 -0.760658 6.51072 0
M  V30 1712 H 160.78 -2.1986 5.58052 0
M  V30 1713 H 162.459 -2.01868 6.14702 0
M  V30 1714 N 162.591 -1.51276 -0.441967 0
M  V30 1715 C 163.838 -1.63715 -1.19179 0
M  V30 1716 C 164.166 -0.351175 -1.91303 0
M  V30 1717 O 163.421 0.664524 -1.84072 0
M  V30 1718 C 163.72 -2.78746 -2.23686 0
M  V30 1719 C 163.386 -4.18189 -1.68607 0
M  V30 1720 C 162.048 -4.56125 -1.53308 0
M  V30 1721 C 164.4 -5.05222 -1.28062 0
M  V30 1722 C 161.728 -5.78804 -0.959317 0
M  V30 1723 C 164.08 -6.28476 -0.721162 0
M  V30 1724 C 162.744 -6.65188 -0.55504 0
M  V30 1725 H 162.014 -0.599076 -0.436106 0
M  V30 1726 H 164.661 -1.85296 -0.48351 0
M  V30 1727 H 162.966 -2.51369 -3.00535 0
M  V30 1728 H 164.663 -2.8557 -2.81515 0
M  V30 1729 H 161.253 -3.88277 -1.8149 0
M  V30 1730 H 165.437 -4.76524 -1.38704 0
M  V30 1731 H 160.693 -6.05899 -0.81833 0
M  V30 1732 H 164.867 -6.95259 -0.398458 0
M  V30 1733 H 162.494 -7.60123 -0.108311 0
M  V30 1734 N 164.069 0.697108 -1.41344 0
M  V30 1735 C 164.979 1.84088 -1.45427 0
M  V30 1736 C 165.995 1.70545 -0.34501 0
M  V30 1737 O 167.171 1.92488 -0.592492 0
M  V30 1738 C 164.236 3.20056 -1.33286 0
M  V30 1739 C 163.297 3.45718 -2.54514 0
M  V30 1740 C 162.53 4.75199 -2.42944 0
M  V30 1741 O 162.753 5.51579 -1.45318 0
M  V30 1742 O 161.687 5.0161 -3.32672 0
M  V30 1743 H 165.513 1.836 -2.41919 0
M  V30 1744 H 163.098 0.849966 -1.22866 0
M  V30 1745 H 164.98 4.01236 -1.28794 0
M  V30 1746 H 163.655 3.2123 -0.39909 0
M  V30 1747 H 162.562 2.64474 -2.64583 0
M  V30 1748 H 163.895 3.49356 -3.46715 0
M  V30 1749 N 165.547 1.27147 0.931209 0
M  V30 1750 C 166.795 1.13055 1.6752 0
M  V30 1751 C 167.116 -0.324791 1.92276 0
M  V30 1752 O 166.386 -1.22775 1.52654 0
M  V30 1753 H 164.966 0.415391 0.620854 0
M  V30 1754 H 167.628 1.59623 1.11833 0
M  V30 1755 H 166.724 1.65694 2.64485 0
M  V30 1756 N 167.025 -1.13721 1.09112 0
M  V30 1757 C 168.274 -1.84275 0.82009 0
M  V30 1758 C 168.587 -1.84253 -0.656509 0
M  V30 1759 O 169.793 -2.50668 -1.04296 0
M  V30 1760 C 168.249 -3.30825 1.41714 0
M  V30 1761 C 167.857 -3.39244 2.92605 0
M  V30 1762 C 169.601 -4.06443 1.22492 0
M  V30 1763 C 167.508 -4.80047 3.45411 0
M  V30 1764 H 166.438 -0.690387 0.30312 0
M  V30 1765 H 169.089 -1.28146 1.31343 0
M  V30 1766 H 167.471 -3.86737 0.851498 0
M  V30 1767 H 168.645 -2.93344 3.55367 0
M  V30 1768 H 166.96 -2.77088 3.10823 0
M  V30 1769 H 169.557 -5.10387 1.59402 0
M  V30 1770 H 169.9 -4.15972 0.165299 0
M  V30 1771 H 170.433 -3.56852 1.75788 0
M  V30 1772 H 167.172 -4.75709 4.50978 0
M  V30 1773 H 166.692 -5.26455 2.87411 0
M  V30 1774 H 168.371 -5.48957 3.42425 0
M  V30 1775 N 168.503 -0.877838 -1.30888 0
M  V30 1776 C 169.751 -0.491723 -1.96027 0
M  V30 1777 C 170.072 0.960827 -1.69685 0
M  V30 1778 O 169.342 1.67462 -1.01654 0
M  V30 1779 H 167.922 -0.17885 -0.725273 0
M  V30 1780 H 170.584 -1.11935 -1.59551 0
M  V30 1781 H 169.68 -0.656016 -3.05128 0
M  V30 1782 N 169.982 1.44106 -0.638065 0
M  V30 1783 C 171.212 2.06037 -0.152394 0
M  V30 1784 C 171.62 1.47808 1.18108 0
M  V30 1785 O 170.963 0.598092 1.73691 0
M  V30 1786 C 171.025 3.59488 0.0293714 0
M  V30 1787 C 170.689 4.4022 -1.22702 0
M  V30 1788 C 171.686 4.73256 -2.15232 0
M  V30 1789 C 169.371 4.8048 -1.46437 0
M  V30 1790 C 171.365 5.45444 -3.29802 0
M  V30 1791 C 169.052 5.52417 -2.61303 0
M  V30 1792 C 170.05 5.84819 -3.52811 0
M  V30 1793 O 169.738 6.55289 -4.65673 0
M  V30 1794 H 169.47 0.671233 -0.0801401 0
M  V30 1795 H 172.024 1.85851 -0.874563 0
M  V30 1796 H 170.254 3.78191 0.806758 0
M  V30 1797 H 171.943 4.03164 0.470475 0
M  V30 1798 H 172.709 4.42684 -1.98131 0
M  V30 1799 H 168.588 4.54676 -0.760977 0
M  V30 1800 H 172.132 5.70653 -4.01249 0
M  V30 1801 H 168.029 5.82404 -2.78344 0
M  V30 1802 H 168.797 6.73762 -4.64744 0
M  V30 1803 N 171.46 0.379036 1.52974 0
M  V30 1804 C 172.423 -0.448865 2.24762 0
M  V30 1805 C 173.423 -0.998689 1.26027 0
M  V30 1806 O 174.613 -0.882313 1.50203 0
M  V30 1807 C 171.745 -1.62872 2.99476 0
M  V30 1808 H 172.938 0.179491 2.99362 0
M  V30 1809 H 170.491 0.13096 1.5575 0
M  V30 1810 H 171.226 -2.29479 2.29151 0
M  V30 1811 H 171.011 -1.24128 3.71934 0
M  V30 1812 H 172.501 -2.2151 3.5401 0
M  V30 1813 N 172.938 -1.57226 0.108567 0
M  V30 1814 C 174.163 -1.99604 -0.563303 0
M  V30 1815 C 174.588 -0.987563 -1.6009 0
M  V30 1816 O 173.946 0.0421687 -1.81251 0
M  V30 1817 C 173.994 -3.40902 -1.17552 0
M  V30 1818 O 173.098 -3.42896 -2.2912 0
M  V30 1819 H 172.439 -0.648704 -0.1417 0
M  V30 1820 H 174.969 -2.03679 0.193961 0
M  V30 1821 H 174.979 -3.78886 -1.51357 0
M  V30 1822 H 173.654 -4.1382 -0.415445 0
M  V30 1823 H 172.231 -3.1672 -1.96832 0
M  V30 1824 N 174.416 0.165178 -1.56732 0
M  V30 1825 C 175.348 1.22911 -1.93457 0
M  V30 1826 C 176.361 1.40152 -0.828333 0
M  V30 1827 O 177.55 1.40046 -1.10677 0
M  V30 1828 C 174.65 2.59686 -2.17753 0
M  V30 1829 C 173.823 2.63663 -3.48999 0
M  V30 1830 C 172.882 3.81845 -3.62051 0
M  V30 1831 O 171.908 3.67559 -4.34613 0
M  V30 1832 N 173.11 4.98557 -2.97357 0
M  V30 1833 H 175.875 0.917118 -2.85323 0
M  V30 1834 H 173.436 0.354895 -1.57962 0
M  V30 1835 H 175.428 3.37225 -2.23743 0
M  V30 1836 H 173.998 2.83251 -1.32242 0
M  V30 1837 H 173.218 1.72173 -3.54612 0
M  V30 1838 H 174.506 2.63336 -4.35352 0
M  V30 1839 H 173.904 5.13065 -2.38287 0
M  V30 1840 H 172.461 5.73936 -3.08934 0
M  V30 1841 N 175.894 1.51508 0.433938 0
M  V30 1842 C 176.827 1.67756 1.54704 0
M  V30 1843 C 177.805 0.525127 1.53887 0
M  V30 1844 O 178.989 0.749393 1.72963 0
M  V30 1845 C 176.116 1.69424 2.9328 0
M  V30 1846 C 175.162 2.90673 3.12108 0
M  V30 1847 S 175.995 4.51431 2.88046 0
M  V30 1848 C 177.151 4.55849 4.28897 0
M  V30 1849 H 177.384 2.61904 1.40689 0
M  V30 1850 H 174.917 1.41235 0.62386 0
M  V30 1851 H 176.875 1.7107 3.73156 0
M  V30 1852 H 175.536 0.764464 3.04655 0
M  V30 1853 H 174.729 2.88251 4.13434 0
M  V30 1854 H 174.331 2.86786 2.40062 0
M  V30 1855 H 176.623 4.31699 5.22152 0
M  V30 1856 H 177.566 5.57676 4.36351 0
M  V30 1857 H 177.974 3.85137 4.12711 0
M  V30 1858 N 177.372 -0.689602 1.41712 0
M  V30 1859 C 178.621 -1.44534 1.40686 0
M  V30 1860 C 178.934 -1.95588 0.0213352 0
M  V30 1861 O 180.14 -2.71271 -0.111534 0
M  V30 1862 C 178.596 -2.61387 2.47396 0
M  V30 1863 C 178.204 -2.17094 3.91885 0
M  V30 1864 C 179.948 -3.38986 2.55517 0
M  V30 1865 C 177.855 -3.3094 4.90135 0
M  V30 1866 H 176.785 -0.542925 0.52321 0
M  V30 1867 H 179.436 -0.748054 1.6756 0
M  V30 1868 H 177.818 -3.33412 2.13664 0
M  V30 1869 H 178.992 -1.52318 4.34897 0
M  V30 1870 H 177.307 -1.52473 3.8748 0
M  V30 1871 H 179.904 -4.23747 3.26102 0
M  V30 1872 H 180.247 -3.84578 1.59391 0
M  V30 1873 H 180.78 -2.74021 2.8837 0
M  V30 1874 H 177.519 -2.90355 5.87685 0
M  V30 1875 H 177.039 -3.94546 4.51767 0
M  V30 1876 H 178.718 -3.9663 5.11169 0
M  V30 1877 N 178.85 -1.27639 -0.924453 0
M  V30 1878 C 180.096 -1.14336 -1.67497 0
M  V30 1879 C 180.429 0.309465 -1.91718 0
M  V30 1880 O 179.704 1.22608 -1.50989 0
M  V30 1881 C 179.987 -1.93096 -3.0395 0
M  V30 1882 C 179.84 -3.46381 -2.8695 0
M  V30 1883 C 181.159 -1.73798 -4.0433 0
M  V30 1884 H 178.278 -0.416728 -0.607871 0
M  V30 1885 H 180.92 -1.56832 -1.07256 0
M  V30 1886 H 179.07 -1.56982 -3.55372 0
M  V30 1887 H 180.742 -3.92343 -2.42621 0
M  V30 1888 H 178.985 -3.72557 -2.22225 0
M  V30 1889 H 179.656 -3.96735 -3.83804 0
M  V30 1890 H 182.132 -2.05293 -3.61931 0
M  V30 1891 H 181.008 -2.31294 -4.97789 0
M  V30 1892 H 181.269 -0.686725 -4.36734 0
M  V30 1893 N 180.328 1.1314 -1.09713 0
M  V30 1894 C 181.577 1.83838 -0.829851 0
M  V30 1895 C 181.89 1.84599 0.646728 0
M  V30 1896 O 183.096 2.51218 1.02965 0
M  V30 1897 C 181.552 3.30069 -1.43466 0
M  V30 1898 C 181.16 3.37688 -2.94399 0
M  V30 1899 C 182.904 4.05788 -1.24645 0
M  V30 1900 C 180.811 4.78209 -3.47952 0
M  V30 1901 H 179.741 0.68877 -0.306777 0
M  V30 1902 H 182.392 1.27448 -1.3202 0
M  V30 1903 H 180.774 3.8628 -0.871996 0
M  V30 1904 H 181.948 2.91456 -3.56918 0
M  V30 1905 H 180.263 2.75436 -3.12289 0
M  V30 1906 H 182.86 5.09535 -1.62107 0
M  V30 1907 H 183.203 4.15878 -0.187357 0
M  V30 1908 H 183.736 3.55915 -1.77678 0
M  V30 1909 H 180.475 4.73311 -4.53495 0
M  V30 1910 H 179.995 5.24924 -2.90198 0
M  V30 1911 H 181.674 5.47133 -3.45332 0
M  V30 1912 N 181.806 0.884767 1.30421 0
M  V30 1913 C 182.736 0.367574 2.30589 0
M  V30 1914 C 183.717 -0.549464 1.60981 0
M  V30 1915 O 184.902 -0.46336 1.88591 0
M  V30 1916 C 182.032 -0.418944 3.44764 0
M  V30 1917 C 180.986 0.406316 4.26067 0
M  V30 1918 C 180.312 -0.506793 5.32293 0
M  V30 1919 C 181.612 1.64832 4.95608 0
M  V30 1920 H 183.306 1.20462 2.74097 0
M  V30 1921 H 180.852 0.580695 1.31772 0
M  V30 1922 H 182.805 -0.791395 4.13902 0
M  V30 1923 H 181.529 -1.28964 3.0006 0
M  V30 1924 H 180.188 0.760903 3.58617 0
M  V30 1925 H 179.836 -1.37519 4.83836 0
M  V30 1926 H 179.536 0.0415828 5.87585 0
M  V30 1927 H 181.06 -0.875764 6.04287 0
M  V30 1928 H 182.474 1.34646 5.57264 0
M  V30 1929 H 180.871 2.13688 5.60765 0
M  V30 1930 H 181.941 2.39284 4.21748 0
M  V30 1931 N 183.284 -1.43765 0.645699 0
M  V30 1932 C 184.214 -2.33471 -0.0370477 0
M  V30 1933 C 185.195 -1.49042 -0.819779 0
M  V30 1934 O 186.38 -1.77726 -0.782758 0
M  V30 1935 C 183.51 -3.32311 -1.0093 0
M  V30 1936 C 182.464 -4.2667 -0.337201 0
M  V30 1937 C 181.79 -5.1549 -1.42037 0
M  V30 1938 C 183.09 -5.16657 0.765706 0
M  V30 1939 H 184.784 -2.90809 0.712069 0
M  V30 1940 H 182.33 -1.39834 0.343876 0
M  V30 1941 H 184.283 -3.9396 -1.49578 0
M  V30 1942 H 183.007 -2.73213 -1.78948 0
M  V30 1943 H 181.666 -3.66374 0.128771 0
M  V30 1944 H 181.314 -4.52735 -2.1918 0
M  V30 1945 H 181.014 -5.79438 -0.975966 0
M  V30 1946 H 182.538 -5.80012 -1.90838 0
M  V30 1947 H 183.952 -5.72158 0.361702 0
M  V30 1948 H 182.349 -5.89286 1.13413 0
M  V30 1949 H 183.419 -4.56796 1.62683 0
M  V30 1950 N 184.763 -0.387143 -1.52771 0
M  V30 1951 C 185.711 0.463953 -2.27926 0
M  V30 1952 C 186.705 1.06493 -1.31741 0
M  V30 1953 O 187.911 1.00565 -1.49287 0
M  V30 1954 H 184.286 0.16837 -0.732909 0
M  V30 1955 H 186.257 -0.19141 -2.97785 0
M  V30 1956 C 185.006 1.5803 -3.09713 0
M  V30 1957 H 184.329 1.12718 -3.83581 0
M  V30 1958 H 185.769 2.15008 -3.65442 0
M  V30 1959 C 184.228 2.53509 -2.2189 0
M  V30 1960 O 184.758 3.56863 -1.84422 0
M  V30 1961 N 182.964 2.23199 -1.86093 0
M  V30 1962 H 182.511 1.39185 -2.16761 0
M  V30 1963 H 182.469 2.87333 -1.27621 0
M  V30 1964 N 186.241 1.57166 -0.116904 0
M  V30 1965 C 187.487 1.95412 0.542405 0
M  V30 1966 C 187.82 1.00019 1.66463 0
M  V30 1967 O 187.095 0.0370346 1.94465 0
M  V30 1968 C 187.378 3.43615 1.07708 0
M  V30 1969 C 187.231 4.49781 -0.0415868 0
M  V30 1970 C 188.55 3.93616 1.96861 0
M  V30 1971 H 185.669 0.710543 0.195696 0
M  V30 1972 H 188.311 1.89027 -0.192038 0
M  V30 1973 H 186.461 3.49187 1.70296 0
M  V30 1974 H 188.133 4.56308 -0.676793 0
M  V30 1975 H 186.376 4.28033 -0.705019 0
M  V30 1976 H 187.047 5.50733 0.373717 0
M  V30 1977 H 189.523 3.90335 1.44146 0
M  V30 1978 H 188.399 4.97838 2.3119 0
M  V30 1979 H 188.66 3.34188 2.89432 0
M  V30 1980 N 187.719 -0.156864 1.56817 0
M  V30 1981 C 188.949 -0.885031 1.86684 0
M  V30 1982 C 189.357 -1.75696 0.701954 0
M  V30 1983 O 188.7 -1.80569 -0.337732 0
M  V30 1984 C 188.762 -1.80092 3.11138 0
M  V30 1985 C 188.426 -1.10714 4.43386 0
M  V30 1986 C 189.423 -0.465714 5.1781 0
M  V30 1987 C 187.108 -1.09959 4.90117 0
M  V30 1988 C 189.102 0.174002 6.37162 0
M  V30 1989 C 186.789 -0.456055 6.09396 0
M  V30 1990 C 187.787 0.179622 6.82764 0
M  V30 1991 O 187.475 0.812975 7.99779 0
M  V30 1992 H 187.207 -0.261813 0.623242 0
M  V30 1993 H 189.761 -0.157383 2.04796 0
M  V30 1994 H 187.991 -2.56926 2.89009 0
M  V30 1995 H 189.68 -2.40018 3.27332 0
M  V30 1996 H 190.446 -0.463427 4.82781 0
M  V30 1997 H 186.325 -1.58378 4.3294 0
M  V30 1998 H 189.869 0.670765 6.94368 0
M  V30 1999 H 185.766 -0.455975 6.43888 0
M  V30 2000 H 186.534 0.71366 8.15383 0
M  V30 2001 N 189.197 -1.51736 -0.425897 0
M  V30 2002 C 190.427 -1.68549 -1.19476 0
M  V30 2003 C 190.835 -0.387288 -1.85194 0
M  V30 2004 O 190.178 0.645142 -1.71999 0
M  V30 2005 C 190.24 -2.75275 -2.31223 0
M  V30 2006 C 189.904 -4.17534 -1.8578 0
M  V30 2007 C 190.901 -5.01936 -1.35485 0
M  V30 2008 C 188.586 -4.6369 -1.93123 0
M  V30 2009 C 190.58 -6.30559 -0.931347 0
M  V30 2010 C 188.267 -5.92307 -1.50384 0
M  V30 2011 C 189.265 -6.75569 -1.00473 0
M  V30 2012 O 188.953 -8.0178 -0.583452 0
M  V30 2013 H 188.685 -0.568525 -0.365725 0
M  V30 2014 H 191.239 -1.98982 -0.509444 0
M  V30 2015 H 189.469 -2.40182 -3.03067 0
M  V30 2016 H 191.158 -2.80853 -2.93047 0
M  V30 2017 H 191.924 -4.67475 -1.29197 0
M  V30 2018 H 187.803 -3.98997 -2.30916 0
M  V30 2019 H 191.347 -6.95498 -0.541084 0
M  V30 2020 H 187.244 -6.2628 -1.56346 0
M  V30 2021 H 188.012 -8.1543 -0.708275 0
M  V30 2022 N 190.675 0.682077 -1.42076 0
M  V30 2023 C 191.924 1.43786 -1.41451 0
M  V30 2024 C 192.237 1.95574 -0.0317074 0
M  V30 2025 O 193.443 2.71326 0.0971462 0
M  V30 2026 C 191.899 2.60071 -2.48779 0
M  V30 2027 C 191.507 2.15013 -3.93031 0
M  V30 2028 C 193.251 3.37626 -2.57311 0
M  V30 2029 C 191.158 3.28336 -4.91883 0
M  V30 2030 H 190.088 0.540143 -0.526082 0
M  V30 2031 H 192.739 0.739157 -1.67955 0
M  V30 2032 H 191.121 3.32275 -2.15429 0
M  V30 2033 H 192.295 1.5001 -4.35699 0
M  V30 2034 H 190.61 1.50416 -3.88284 0
M  V30 2035 H 193.207 4.22012 -3.28345 0
M  V30 2036 H 193.55 3.83727 -1.61429 0
M  V30 2037 H 194.083 2.72488 -2.89819 0
M  V30 2038 H 190.822 2.87234 -5.89217 0
M  V30 2039 H 190.342 3.92145 -4.53853 0
M  V30 2040 H 192.021 3.93913 -5.13265 0
M  V30 2041 N 192.153 1.28127 0.917671 0
M  V30 2042 C 193.402 1.14432 1.66097 0
M  V30 2043 C 193.715 -0.307247 1.93172 0
M  V30 2044 O 194.921 -0.565259 2.65551 0
M  V30 2045 C 193.377 2.00015 2.99202 0
M  V30 2046 C 192.985 3.49889 2.79789 0
M  V30 2047 C 194.729 1.94996 3.77064 0
M  V30 2048 C 192.636 4.27636 4.08511 0
M  V30 2049 H 191.566 0.424662 0.62304 0
M  V30 2050 H 194.217 1.52628 1.01868 0
M  V30 2051 H 192.599 1.54672 3.64544 0
M  V30 2052 H 193.773 4.03162 2.23152 0
M  V30 2053 H 192.088 3.56392 2.15345 0
M  V30 2054 H 194.685 2.50354 4.72469 0
M  V30 2055 H 195.028 0.925819 4.05875 0
M  V30 2056 H 195.561 2.38287 3.18534 0
M  V30 2057 H 192.3 5.30615 3.84874 0
M  V30 2058 H 191.82 3.79137 4.64774 0
M  V30 2059 H 193.499 4.37346 4.76799 0
M  V30 2060 N 193.631 -1.12557 1.10312 0
M  V30 2061 C 194.877 -1.84311 0.846011 0
M  V30 2062 C 195.21 -1.83805 -0.626859 0
M  V30 2063 O 194.485 -1.28268 -1.46211 0
M  V30 2064 C 194.768 -3.32048 1.39341 0
M  V30 2065 C 194.621 -3.41016 2.93305 0
M  V30 2066 C 195.94 -4.27764 1.03468 0
M  V30 2067 H 193.059 -0.669192 0.30879 0
M  V30 2068 H 195.701 -1.32057 1.36605 0
M  V30 2069 H 193.851 -3.76678 0.951087 0
M  V30 2070 H 195.523 -3.05031 3.46055 0
M  V30 2071 H 193.766 -2.81603 3.29973 0
M  V30 2072 H 194.437 -4.44948 3.26689 0
M  V30 2073 H 196.913 -3.91253 1.41633 0
M  V30 2074 H 195.789 -5.29549 1.44463 0
M  V30 2075 H 196.05 -4.42064 -0.0560404 0
M  V30 2076 N 195.109 -0.891671 -1.2995 0
M  V30 2077 C 196.039 -0.379797 -2.30391 0
M  V30 2078 C 197.02 0.540919 -1.6127 0
M  V30 2079 O 198.205 0.453352 -1.88834 0
M  V30 2080 C 195.335 0.400654 -3.44981 0
M  V30 2081 C 194.289 -0.428905 -4.25846 0
M  V30 2082 C 193.615 0.478557 -5.32554 0
M  V30 2083 C 194.915 -1.67458 -4.94727 0
M  V30 2084 H 196.609 -1.21914 -2.73454 0
M  V30 2085 H 194.155 -0.587675 -1.31462 0
M  V30 2086 H 196.108 0.769434 -4.14316 0
M  V30 2087 H 194.832 1.27371 -3.0074 0
M  V30 2088 H 193.491 -0.779911 -3.58208 0
M  V30 2089 H 193.139 1.34951 -4.84559 0
M  V30 2090 H 192.839 -0.0727433 -5.87555 0
M  V30 2091 H 194.363 0.843705 -6.04743 0
M  V30 2092 H 195.777 -1.376 -5.56542 0
M  V30 2093 H 194.174 -2.16659 -5.59624 0
M  V30 2094 H 195.244 -2.41518 -4.20473 0
M  V30 2095 N 196.587 1.43421 -0.653314 0
M  V30 2096 C 197.55 2.29182 0.0287951 0
M  V30 2097 C 198.55 1.42213 0.750465 0
M  V30 2098 O 199.74 1.63843 0.591701 0
M  V30 2099 C 196.872 3.24278 1.05151 0
M  V30 2100 H 198.065 2.90985 -0.725786 0
M  V30 2101 H 195.618 1.50702 -0.414545 0
M  V30 2102 H 196.353 2.6737 1.83532 0
M  V30 2103 H 196.138 3.88396 0.537687 0
M  V30 2104 H 197.628 3.88647 1.52786 0
M  V30 2105 N 198.065 0.39524 1.52563 0
M  V30 2106 C 199.311 -0.177763 2.02622 0
M  V30 2107 C 199.666 -1.43974 1.27629 0
M  V30 2108 O 198.959 -1.87995 0.36992 0
M  V30 2109 C 199.153 -0.493444 3.53977 0
M  V30 2110 C 198.982 0.736392 4.4363 0
M  V30 2111 C 197.752 1.25744 4.89404 0
M  V30 2112 C 199.95 1.61046 4.88435 0
M  V30 2113 N 197.932 2.44421 5.63145 0
M  V30 2114 C 199.303 2.64359 5.60816 0
M  V30 2115 C 201.358 1.62985 4.70468 0
M  V30 2116 C 200.061 3.69505 6.17137 0
M  V30 2117 C 202.087 2.67042 5.27677 0
M  V30 2118 C 201.449 3.69077 5.99968 0
M  V30 2119 H 197.548 -0.0269794 0.781534 0
M  V30 2120 H 200.132 0.546466 1.86874 0
M  V30 2121 H 198.303 -1.18672 3.69826 0
M  V30 2122 H 200.035 -1.05412 3.90731 0
M  V30 2123 H 196.79 0.817546 4.6649 0
M  V30 2124 H 197.214 3.04485 6.04663 0
M  V30 2125 H 201.856 0.854442 4.14076 0
M  V30 2126 H 199.574 4.4791 6.72608 0
M  V30 2127 H 203.16 2.69433 5.15652 0
M  V30 2128 H 202.04 4.48273 6.43444 0
M  V30 2129 N 199.544 -1.57102 0.125237 0
M  V30 2130 C 200.507 -2.14471 -0.80838 0
M  V30 2131 C 201.507 -1.0811 -1.19033 0
M  V30 2132 O 202.697 -1.33856 -1.11482 0
M  V30 2133 C 199.829 -2.69005 -2.09402 0
M  V30 2134 H 201.022 -2.98297 -0.309696 0
M  V30 2135 H 198.575 -1.55807 -0.124051 0
M  V30 2136 H 199.31 -1.88785 -2.63687 0
M  V30 2137 H 199.095 -3.46799 -1.82957 0
M  V30 2138 H 200.585 -3.13278 -2.76128 0
M  V30 2139 N 201.022 0.148545 -1.56898 0
M  V30 2140 C 201.952 1.18524 -2.01182 0
M  V30 2141 C 202.933 1.4489 -0.891123 0
M  V30 2142 O 204.118 1.55836 -1.15882 0
M  V30 2143 C 201.248 2.51879 -2.39112 0
M  V30 2144 C 200.202 2.40038 -3.54353 0
M  V30 2145 C 199.528 3.78089 -3.78091 0
M  V30 2146 C 200.828 1.88577 -4.87069 0
M  V30 2147 H 202.522 0.817029 -2.88036 0
M  V30 2148 H 200.068 0.391575 -1.38574 0
M  V30 2149 H 202.021 3.24627 -2.68692 0
M  V30 2150 H 200.745 2.90532 -1.49193 0
M  V30 2151 H 199.404 1.69742 -3.24936 0
M  V30 2152 H 199.052 4.14175 -2.85426 0
M  V30 2153 H 198.752 3.71028 -4.55645 0
M  V30 2154 H 200.276 4.52387 -4.10095 0
M  V30 2155 H 201.69 2.51117 -5.15377 0
M  V30 2156 H 200.087 1.9241 -5.68417 0
M  V30 2157 H 201.157 0.84136 -4.77545 0
M  V30 2158 N 202.5 1.5196 0.417844 0
M  V30 2159 C 203.747 1.65591 1.16559 0
M  V30 2160 C 204.075 0.381565 1.90721 0
M  V30 2161 O 203.33 -0.635156 1.85106 0
M  V30 2162 C 203.629 2.82269 2.19223 0
M  V30 2163 C 203.295 4.20819 1.61933 0
M  V30 2164 C 201.957 4.58506 1.46033 0
M  V30 2165 C 204.309 5.07196 1.20008 0
M  V30 2166 C 201.637 5.80257 0.867113 0
M  V30 2167 C 203.989 6.29544 0.621086 0
M  V30 2168 C 202.653 6.65987 0.449144 0
M  V30 2169 H 201.923 0.605939 0.42652 0
M  V30 2170 H 204.57 1.86041 0.45397 0
M  V30 2171 H 202.875 2.56118 2.96498 0
M  V30 2172 H 204.572 2.90012 2.76936 0
M  V30 2173 H 201.162 3.91116 1.7529 0
M  V30 2174 H 205.346 4.7867 1.31105 0
M  V30 2175 H 200.602 6.07124 0.721833 0
M  V30 2176 H 204.776 6.95805 0.287798 0
M  V30 2177 H 202.403 7.60199 -0.012632 0
M  V30 2178 N 203.978 -0.674533 1.42435 0
M  V30 2179 C 205.208 -1.46071 1.46105 0
M  V30 2180 C 205.616 -1.89067 0.0709605 0
M  V30 2181 O 204.959 -1.58731 -0.924677 0
M  V30 2182 C 205.021 -2.74145 2.32561 0
M  V30 2183 C 204.685 -2.53224 3.8043 0
M  V30 2184 C 205.682 -2.17809 4.72075 0
M  V30 2185 C 203.367 -2.6821 4.24698 0
M  V30 2186 C 205.361 -1.97648 6.05982 0
M  V30 2187 C 203.048 -2.47665 5.58664 0
M  V30 2188 C 204.046 -2.12437 6.49122 0
M  V30 2189 O 203.734 -1.9209 7.80613 0
M  V30 2190 H 203.466 -0.455959 0.499076 0
M  V30 2191 H 206.02 -0.836193 1.87609 0
M  V30 2192 H 204.25 -3.3908 1.85908 0
M  V30 2193 H 205.939 -3.36028 2.27683 0
M  V30 2194 H 206.705 -2.05826 4.39159 0
M  V30 2195 H 202.584 -2.94609 3.54579 0
M  V30 2196 H 206.128 -1.70075 6.7655 0
M  V30 2197 H 202.025 -2.59244 5.91154 0
M  V30 2198 H 202.793 -2.06686 7.91974 0
M  V30 2199 N 205.456 -1.28612 -0.910864 0
M  V30 2200 C 206.386 -1.15326 -2.03032 0
M  V30 2201 C 207.367 -0.0502924 -1.70026 0
M  V30 2202 O 208.552 -0.227797 -1.92859 0
M  V30 2203 C 205.682 -0.817343 -3.37545 0
M  V30 2204 C 204.636 -1.8754 -3.84724 0
M  V30 2205 C 203.962 -1.39305 -5.16235 0
M  V30 2206 C 205.262 -3.28244 -4.06267 0
M  V30 2207 H 206.956 -2.08975 -2.14406 0
M  V30 2208 H 204.502 -1.00612 -1.03021 0
M  V30 2209 H 206.455 -0.711151 -4.15356 0
M  V30 2210 H 205.179 0.154846 -3.26233 0
M  V30 2211 H 203.838 -1.97079 -3.09121 0
M  V30 2212 H 203.486 -0.409846 -5.01328 0
M  V30 2213 H 203.186 -2.10057 -5.48771 0
M  V30 2214 H 204.71 -1.30014 -5.96598 0
M  V30 2215 H 206.124 -3.21611 -4.74594 0
M  V30 2216 H 204.521 -3.96855 -4.5014 0
M  V30 2217 H 205.591 -3.72048 -3.10979 0
M  V30 2218 N 206.934 1.1197 -1.10907 0
M  V30 2219 C 208.181 1.83588 -0.854507 0
M  V30 2220 C 208.509 1.84357 0.6199 0
M  V30 2221 O 207.764 1.28809 1.47332 0
M  V30 2222 C 208.063 3.30749 -1.35425 0
M  V30 2223 C 207.729 3.50146 -2.84093 0
M  V30 2224 C 206.391 3.55148 -3.2469 0
M  V30 2225 C 208.743 3.56857 -3.79872 0
M  V30 2226 C 206.071 3.6441 -4.59806 0
M  V30 2227 C 208.423 3.6765 -5.14797 0
M  V30 2228 C 207.087 3.7091 -5.54961 0
M  V30 2229 H 206.357 0.671795 -0.312686 0
M  V30 2230 H 209.004 1.32091 -1.38652 0
M  V30 2231 H 207.309 3.84703 -0.742361 0
M  V30 2232 H 209.006 3.8464 -1.1337 0
M  V30 2233 H 205.596 3.46919 -2.51685 0
M  V30 2234 H 209.78 3.52258 -3.49611 0
M  V30 2235 H 205.036 3.65208 -4.9034 0
M  V30 2236 H 209.21 3.71786 -5.88853 0
M  V30 2237 H 206.837 3.7784 -6.59652 0
M  V30 2238 N 208.412 0.89855 1.29475 0
M  V30 2239 C 209.637 0.538561 2.00285 0
M  V30 2240 C 210.062 -0.869135 1.66816 0
M  V30 2241 O 209.42 -1.57831 0.892145 0
M  V30 2242 C 209.468 0.736475 3.52999 0
M  V30 2243 O 208.572 -0.211537 4.11857 0
M  V30 2244 H 207.913 0.210563 0.62973 0
M  V30 2245 H 210.443 1.20982 1.64998 0
M  V30 2246 H 210.453 0.640685 4.02938 0
M  V30 2247 H 209.128 1.76276 3.76696 0
M  V30 2248 H 207.705 -0.0682991 3.72837 0
M  V30 2249 N 209.89 -1.43072 0.660911 0
M  V30 2250 C 211.115 -2.06584 0.183805 0
M  V30 2251 C 211.54 -1.49257 -1.14472 0
M  V30 2252 O 210.898 -0.605528 -1.70889 0
M  V30 2253 C 210.946 -3.60418 0.114434 0
M  V30 2254 O 210.05 -4.01981 -0.921137 0
M  V30 2255 H 209.391 -0.656669 0.0983994 0
M  V30 2256 H 211.921 -1.83447 0.906006 0
M  V30 2257 H 211.931 -4.07946 -0.0663394 0
M  V30 2258 H 210.606 -4.01519 1.08422 0
M  V30 2259 H 209.183 -3.66029 -0.71253 0
M  V30 2260 N 211.368 -0.403325 -1.52352 0
M  V30 2261 C 212.615 0.174347 -2.01748 0
M  V30 2262 C 212.943 1.45636 -1.2892 0
M  V30 2263 O 212.198 1.9193 -0.382258 0
M  V30 2264 C 212.497 0.474665 -3.54234 0
M  V30 2265 C 212.163 -0.717458 -4.45155 0
M  V30 2266 C 210.825 -1.04447 -4.69728 0
M  V30 2267 C 213.177 -1.51432 -4.98716 0
M  V30 2268 C 210.505 -2.16963 -5.45109 0
M  V30 2269 C 212.857 -2.6302 -5.75329 0
M  V30 2270 C 211.521 -2.96213 -5.98175 0
M  V30 2271 H 210.791 0.0637981 -0.738248 0
M  V30 2272 H 213.438 -0.543553 -1.83624 0
M  V30 2273 H 211.743 1.27406 -3.70506 0
M  V30 2274 H 213.44 0.934496 -3.89959 0
M  V30 2275 H 210.03 -0.452596 -4.26204 0
M  V30 2276 H 214.214 -1.27491 -4.79645 0
M  V30 2277 H 209.47 -2.43034 -5.61021 0
M  V30 2278 H 213.644 -3.25158 -6.15829 0
M  V30 2279 H 211.271 -3.83516 -6.56368 0
M  V30 2280 N 212.846 1.57033 -0.133567 0
M  V30 2281 C 214.074 2.00044 0.528195 0
M  V30 2282 C 214.489 1.01349 1.59291 0
M  V30 2283 O 213.846 0.00848369 1.82498 0
M  V30 2284 C 213.897 3.43018 1.1411 0
M  V30 2285 O 213.618 4.37939 0.11892 0
M  V30 2286 C 215.119 4.01237 1.88477 0
M  V30 2287 H 212.339 0.656517 0.138661 0
M  V30 2288 H 214.883 2.03267 -0.224196 0
M  V30 2289 H 213.038 3.40688 1.84418 0
M  V30 2290 H 213.452 5.21436 0.56613 0
M  V30 2291 H 214.926 5.03314 2.26669 0
M  V30 2292 H 215.403 3.41193 2.76558 0
M  V30 2293 H 216.009 4.07156 1.22898 0
M  V30 2294 N 214.325 -0.140222 1.56975 0
M  V30 2295 C 215.574 -0.850152 1.82908 0
M  V30 2296 C 215.887 -1.82028 0.715892 0
M  V30 2297 O 217.093 -2.57485 0.861016 0
M  V30 2298 C 215.549 -1.5625 3.24213 0
M  V30 2299 C 215.157 -0.63443 4.43485 0
M  V30 2300 C 216.901 -2.25881 3.59413 0
M  V30 2301 C 214.808 -1.34879 5.75814 0
M  V30 2302 H 213.738 -0.321221 0.682153 0
M  V30 2303 H 216.389 -0.102874 1.83211 0
M  V30 2304 H 214.771 -2.35565 3.18316 0
M  V30 2305 H 215.945 0.12398 4.60633 0
M  V30 2306 H 214.26 -0.0461836 4.16374 0
M  V30 2307 H 216.857 -2.79978 4.5554 0
M  V30 2308 H 217.2 -3.02693 2.85802 0
M  V30 2309 H 217.733 -1.53477 3.67001 0
M  V30 2310 H 214.472 -0.622385 6.52539 0
M  V30 2311 H 213.992 -2.07974 5.6259 0
M  V30 2312 H 215.671 -1.88784 6.18845 0
M  V30 2313 N 215.803 -1.52179 -0.40978 0
M  V30 2314 C 217.08 -1.56769 -1.16974 0
M  V30 2315 C 217.46 -0.348322 -2.08206 0
M  V30 2316 O 216.808 0.664862 -2.18613 0
M  V30 2317 C 217.018 -2.89603 -1.9476 0
M  V30 2318 C 218.366 -3.42579 -2.50849 0
M  V30 2319 O 219.39 -2.91338 -2.04941 0
M  V30 2320 O 218.249 -4.32054 -3.34652 0
M  V30 2321 H 215.343 -0.631439 -0.534054 0
M  V30 2322 H 217.889 -1.64507 -0.416613 0
M  V30 2323 H 216.661 -3.698 -1.27921 0
M  V30 2324 H 216.284 -2.85155 -2.77079 0
M  V30 2325 N 217.281 0.66697 -1.42791 0
M  V30 2326 C 218.211 1.79218 -1.49677 0
M  V30 2327 C 219.192 1.66405 -0.352623 0
M  V30 2328 O 220.377 1.85708 -0.567993 0
M  V30 2329 C 217.507 3.17565 -1.40605 0
M  V30 2330 C 216.461 3.45124 -2.53127 0
M  V30 2331 C 215.787 4.83127 -2.29112 0
M  V30 2332 C 217.087 3.41236 -3.95418 0
M  V30 2333 H 218.781 1.73713 -2.43853 0
M  V30 2334 H 216.327 0.83432 -1.17367 0
M  V30 2335 H 218.28 3.96022 -1.44029 0
M  V30 2336 H 217.004 3.23767 -0.429271 0
M  V30 2337 H 215.663 2.69031 -2.49034 0
M  V30 2338 H 215.311 4.85988 -1.29709 0
M  V30 2339 H 215.011 5.02528 -3.04531 0
M  V30 2340 H 216.535 5.63859 -2.34297 0
M  V30 2341 H 217.949 4.09651 -4.01073 0
M  V30 2342 H 216.346 3.72173 -4.70752 0
M  V30 2343 H 217.416 2.39665 -4.21532 0
M  V30 2344 N 218.759 1.29093 0.90403 0
M  V30 2345 C 220.17 1.15186 1.46932 0
M  V30 2346 C 220.521 -0.254587 1.94541 0
M  V30 2347 O 219.646 -1.14972 1.83332 0
M  V30 2348 C 220.241 2.08492 2.67051 0
M  V30 2349 C 218.8 1.98621 3.19729 0
M  V30 2350 C 217.947 1.9967 1.92425 0
M  V30 2351 H 220.898 1.41641 0.715789 0
M  V30 2352 H 220.919 1.65461 3.42641 0
M  V30 2353 H 220.431 3.10847 2.3237 0
M  V30 2354 H 218.532 0.993389 3.59114 0
M  V30 2355 H 218.645 2.86068 3.8432 0
M  V30 2356 H 217.009 1.44208 2.09943 0
M  V30 2357 H 217.792 3.03721 1.60026 0
M  V30 2358 N 220.237 -1.11381 1.11499 0
M  V30 2359 C 221.483 -1.83597 0.875423 0
M  V30 2360 C 221.838 -1.83048 -0.592555 0
M  V30 2361 O 221.131 -1.27304 -1.43193 0
M  V30 2362 C 221.325 -3.30026 1.37177 0
M  V30 2363 C 221.154 -3.44837 2.88647 0
M  V30 2364 C 219.924 -3.57825 3.56776 0
M  V30 2365 C 222.122 -3.3907 3.86699 0
M  V30 2366 N 220.104 -3.61113 4.96458 0
M  V30 2367 C 221.475 -3.48986 5.12454 0
M  V30 2368 C 223.53 -3.22605 3.7925 0
M  V30 2369 C 222.233 -3.44135 6.31636 0
M  V30 2370 C 224.259 -3.19072 4.97943 0
M  V30 2371 C 223.621 -3.29559 6.22551 0
M  V30 2372 H 219.72 -0.687044 0.37349 0
M  V30 2373 H 222.304 -1.33265 1.41946 0
M  V30 2374 H 220.475 -3.78874 0.854919 0
M  V30 2375 H 222.207 -3.90153 1.07529 0
M  V30 2376 H 218.962 -3.60414 3.07244 0
M  V30 2377 H 219.386 -3.66394 5.69284 0
M  V30 2378 H 224.028 -3.13382 2.83816 0
M  V30 2379 H 221.746 -3.52126 7.27347 0
M  V30 2380 H 225.332 -3.07498 4.93899 0
M  V30 2381 H 224.212 -3.26815 7.12855 0
M  V30 2382 N 221.715 -0.905404 -1.28997 0
M  V30 2383 C 222.963 -0.533192 -1.9494 0
M  V30 2384 C 223.284 0.924618 -1.71685 0
M  V30 2385 O 222.554 1.65268 -1.05183 0
M  V30 2386 H 221.134 -0.194194 -0.721317 0
M  V30 2387 H 223.796 -1.15294 -1.57141 0
M  V30 2388 H 222.892 -0.72059 -3.03667 0
M  V30 2389 N 223.193 1.4272 -0.668489 0
M  V30 2390 C 224.441 2.01226 -0.187769 0
M  V30 2391 C 224.762 1.53092 1.2078 0
M  V30 2392 O 224.032 0.74993 1.80977 0
M  V30 2393 H 222.612 0.744041 -0.0664272 0
M  V30 2394 H 225.274 1.74723 -0.863583 0
M  V30 2395 H 224.37 3.11556 -0.184166 0
M  V30 2396 N 224.671 0.411399 1.52136 0
M  V30 2397 C 225.911 -0.163143 2.03748 0
M  V30 2398 C 226.275 -1.42187 1.29022 0
M  V30 2399 O 227.476 -2.075 1.70872 0
M  V30 2400 C 225.747 -0.402651 3.55125 0
M  V30 2401 S 227.306 -0.944315 4.28519 0
M  V30 2402 H 224.124 -0.0439833 0.709638 0
M  V30 2403 H 226.726 0.56484 1.87163 0
M  V30 2404 H 225.43 0.520212 4.0709 0
M  V30 2405 H 224.961 -1.15844 3.75957 0
M  V30 2406 H 226.976 -2.22463 4.43536 0
M  V30 2407 N 226.149 -1.5696 0.141893 0
M  V30 2408 C 227.379 -2.00031 -0.516828 0
M  V30 2409 C 227.787 -1.02091 -1.59293 0
M  V30 2410 O 227.13 -0.00909657 -1.83698 0
M  V30 2411 C 227.192 -3.39534 -1.1814 0
M  V30 2412 C 226.856 -4.56313 -0.250513 0
M  V30 2413 C 227.853 -5.17295 0.519839 0
M  V30 2414 C 225.538 -5.02061 -0.154907 0
M  V30 2415 C 227.532 -6.2243 1.3733 0
M  V30 2416 C 225.219 -6.07053 0.702161 0
M  V30 2417 C 226.217 -6.67106 1.46487 0
M  V30 2418 O 225.905 -7.70066 2.30767 0
M  V30 2419 H 225.637 -0.661451 -0.139493 0
M  V30 2420 H 228.191 -2.04086 0.231926 0
M  V30 2421 H 226.421 -3.32302 -1.97769 0
M  V30 2422 H 228.11 -3.66745 -1.73933 0
M  V30 2423 H 228.876 -4.82852 0.45598 0
M  V30 2424 H 224.755 -4.5505 -0.7383 0
M  V30 2425 H 228.299 -6.69233 1.96909 0
M  V30 2426 H 224.196 -6.40923 0.76733 0
M  V30 2427 H 224.964 -7.87264 2.23959 0
M  V30 2428 N 227.627 0.131896 -1.57047 0
M  V30 2429 C 228.577 1.1679 -1.95816 0
M  V30 2430 C 229.561 1.37756 -0.831393 0
M  V30 2431 O 230.753 1.39065 -1.09499 0
M  V30 2432 C 227.882 2.49778 -2.35512 0
M  V30 2433 C 226.968 2.32342 -3.54793 0
M  V30 2434 N 227.359 1.8469 -4.70875 0
M  V30 2435 C 225.657 2.63043 -3.60173 0
M  V30 2436 C 226.358 1.80656 -5.52936 0
M  V30 2437 N 225.334 2.24528 -4.95064 0
M  V30 2438 H 229.136 0.791818 -2.83033 0
M  V30 2439 H 226.65 0.339791 -1.58805 0
M  V30 2440 H 228.647 3.24692 -2.61498 0
M  V30 2441 H 227.307 2.88156 -1.49654 0
M  V30 2442 H 228.318 1.54429 -4.9434 0
M  V30 2443 H 224.995 3.05193 -2.84892 0
M  V30 2444 H 226.385 1.45178 -6.56028 0
M  V30 2445 N 229.106 1.52395 0.401703 0
M  V30 2446 C 230.016 1.7917 1.51444 0
M  V30 2447 C 231.032 0.677691 1.6026 0
M  V30 2448 O 232.208 0.963909 1.76835 0
M  V30 2449 C 229.273 1.94347 2.87107 0
M  V30 2450 C 228.334 3.18257 2.88116 0
M  V30 2451 C 227.567 3.32701 4.17308 0
M  V30 2452 O 227.79 2.52238 5.11598 0
M  V30 2453 O 226.724 4.25891 4.25324 0
M  V30 2454 H 230.55 2.73633 1.31752 0
M  V30 2455 H 228.135 1.3733 0.588296 0
M  V30 2456 H 230.017 2.06109 3.67555 0
M  V30 2457 H 228.692 1.03073 3.06851 0
M  V30 2458 H 227.599 3.11947 2.06494 0
M  V30 2459 H 228.932 4.09336 2.73322 0
M  V30 2460 N 230.584 -0.659388 1.43143 0
M  V30 2461 C 231.83 -1.41984 1.45644 0
M  V30 2462 C 232.185 -1.92245 0.0771718 0
M  V30 2463 O 231.478 -1.68976 -0.903205 0
M  V30 2464 C 231.672 -2.62206 2.42864 0
M  V30 2465 C 231.501 -2.23711 3.90107 0
M  V30 2466 C 230.271 -2.12332 4.58523 0
M  V30 2467 C 232.469 -1.84384 4.80112 0
M  V30 2468 N 230.451 -1.67102 5.9072 0
M  V30 2469 C 231.822 -1.5019 6.01534 0
M  V30 2470 C 233.877 -1.71512 4.67427 0
M  V30 2471 C 232.58 -1.04414 7.11681 0
M  V30 2472 C 234.606 -1.27142 5.77572 0
M  V30 2473 C 233.968 -0.938808 6.98116 0
M  V30 2474 H 230.067 -0.515448 0.588079 0
M  V30 2475 H 232.651 -0.759409 1.79279 0
M  V30 2476 H 230.822 -3.25917 2.11265 0
M  V30 2477 H 232.554 -3.28877 2.35843 0
M  V30 2478 H 229.309 -2.31893 4.12944 0
M  V30 2479 H 229.733 -1.46866 6.60878 0
M  V30 2480 H 234.375 -1.95868 3.74694 0
M  V30 2481 H 232.093 -0.788061 8.04248 0
M  V30 2482 H 235.679 -1.17681 5.69774 0
M  V30 2483 H 234.559 -0.6007 7.81896 0
M  V30 2484 N 232.062 -1.29571 -0.897171 0
M  V30 2485 C 233.01 -1.14802 -2.02295 0
M  V30 2486 C 234.004 -0.0629637 -1.69283 0
M  V30 2487 O 235.21 -0.222945 -1.78614 0
M  V30 2488 H 231.585 -0.354692 -0.663097 0
M  V30 2489 H 233.556 -2.10108 -2.11889 0
M  V30 2490 C 232.305 -0.843966 -3.37302 0
M  V30 2491 H 231.628 -1.67093 -3.63208 0
M  V30 2492 H 233.068 -0.780672 -4.16751 0
M  V30 2493 C 231.527 0.452843 -3.33843 0
M  V30 2494 O 232.057 1.47813 -3.73516 0
M  V30 2495 N 230.263 0.459601 -2.86943 0
M  V30 2496 H 229.81 -0.375213 -2.54853 0
M  V30 2497 H 229.768 1.32726 -2.85011 0
M  V30 2498 N 233.54 1.10788 -1.12088 0
M  V30 2499 C 234.768 1.86461 -0.896651 0
M  V30 2500 C 235.183 1.80492 0.553912 0
M  V30 2501 O 234.54 1.19102 1.38278 0
M  V30 2502 C 234.591 3.35006 -1.35843 0
M  V30 2503 O 234.312 3.40866 -2.75213 0
M  V30 2504 C 235.813 4.27565 -1.1706 0
M  V30 2505 H 233.033 0.589425 -0.320654 0
M  V30 2506 H 235.577 1.40076 -1.48993 0
M  V30 2507 H 233.732 3.7887 -0.808458 0
M  V30 2508 H 234.146 4.33411 -2.9539 0
M  V30 2509 H 235.62 5.30007 -1.54263 0
M  V30 2510 H 236.097 4.3906 -0.110814 0
M  V30 2511 H 236.703 3.89501 -1.70789 0
M  V30 2512 N 235.018 0.912232 1.28515 0
M  V30 2513 C 235.928 0.404506 2.31086 0
M  V30 2514 C 236.944 -0.50707 1.66448 0
M  V30 2515 O 238.12 -0.393624 1.97516 0
M  V30 2516 C 235.185 -0.348572 3.44943 0
M  V30 2517 C 234.246 0.59604 4.25142 0
M  V30 2518 C 233.479 -0.121194 5.33562 0
M  V30 2519 O 233.702 -1.34317 5.5436 0
M  V30 2520 O 232.636 0.542716 5.99448 0
M  V30 2521 H 236.462 1.25579 2.76521 0
M  V30 2522 H 234.047 0.676998 1.33181 0
M  V30 2523 H 235.929 -0.77395 4.14232 0
M  V30 2524 H 234.604 -1.17571 3.01594 0
M  V30 2525 H 233.511 1.07079 3.58448 0
M  V30 2526 H 234.844 1.38995 4.72167 0
M  V30 2527 N 236.496 -1.42363 0.676048 0
M  V30 2528 C 237.446 -2.27987 -0.0242903 0
M  V30 2529 C 238.43 -1.41153 -0.772319 0
M  V30 2530 O 239.622 -1.64592 -0.651025 0
M  V30 2531 C 236.751 -3.29195 -0.973953 0
M  V30 2532 C 235.837 -4.23512 -0.223202 0
M  V30 2533 N 236.228 -4.99865 0.772589 0
M  V30 2534 C 234.526 -4.43606 -0.461469 0
M  V30 2535 C 235.227 -5.68757 1.22027 0
M  V30 2536 N 234.203 -5.40811 0.549975 0
M  V30 2537 H 238.005 -2.84445 0.73949 0
M  V30 2538 H 235.519 -1.54341 0.50522 0
M  V30 2539 H 237.516 -3.89339 -1.49067 0
M  V30 2540 H 236.176 -2.74298 -1.73755 0
M  V30 2541 H 237.187 -5.04921 1.15217 0
M  V30 2542 H 233.864 -3.99749 -1.20446 0
M  V30 2543 H 235.254 -6.40007 2.0455 0
M  V30 2544 N 237.974 -0.419461 -1.51915 0
M  V30 2545 C 239.214 0.152336 -2.03832 0
M  V30 2546 C 239.578 1.41501 -1.29775 0
M  V30 2547 O 240.779 2.06591 -1.7197 0
M  V30 2548 C 239.05 0.383812 -3.55333 0
M  V30 2549 S 240.609 0.921577 -4.29013 0
M  V30 2550 H 237.427 0.0402193 -0.709862 0
M  V30 2551 H 240.029 -0.574758 -1.8686 0
M  V30 2552 H 238.733 -0.541794 -4.06808 0
M  V30 2553 H 238.264 1.13849 -3.76566 0
M  V30 2554 H 240.279 2.20108 -4.4471 0
M  V30 2555 N 239.452 1.56882 -0.150215 0
M  V30 2556 C 240.385 2.12712 0.826358 0
M  V30 2557 C 241.363 1.05154 1.24022 0
M  V30 2558 O 242.547 1.33004 1.33575 0
M  V30 2559 C 239.674 2.64945 2.11002 0
M  V30 2560 C 238.72 3.8468 1.84183 0
M  V30 2561 S 239.553 5.25502 1.02995 0
M  V30 2562 C 240.709 5.81125 2.32474 0
M  V30 2563 H 240.942 2.95214 0.351598 0
M  V30 2564 H 238.475 1.54267 0.0641211 0
M  V30 2565 H 240.433 2.95689 2.84742 0
M  V30 2566 H 239.094 1.82568 2.55593 0
M  V30 2567 H 238.287 4.19482 2.79375 0
M  V30 2568 H 237.889 3.54714 1.1855 0
M  V30 2569 H 240.181 5.92753 3.281 0
M  V30 2570 H 241.124 6.78625 2.02171 0
M  V30 2571 H 241.532 5.09392 2.43269 0
M  V30 2572 N 240.93 -0.123565 1.57115 0
M  V30 2573 C 241.84 -1.17074 2.033 0
M  V30 2574 C 242.856 -1.4561 0.952559 0
M  V30 2575 O 244.032 -1.56817 1.26374 0
M  V30 2576 C 241.097 -2.47857 2.42421 0
M  V30 2577 C 240.158 -2.26758 3.64526 0
M  V30 2578 C 239.391 -3.51305 4.01771 0
M  V30 2579 O 239.614 -4.5843 3.39409 0
M  V30 2580 O 238.548 -3.42578 4.94898 0
M  V30 2581 H 242.374 -0.808555 2.92739 0
M  V30 2582 H 239.959 -0.334027 1.45618 0
M  V30 2583 H 241.841 -3.2492 2.68338 0
M  V30 2584 H 240.516 -2.83558 1.5613 0
M  V30 2585 H 239.423 -1.47569 3.43765 0
M  V30 2586 H 240.756 -1.95963 4.51508 0
M  V30 2587 N 242.408 -1.52605 -0.393616 0
M  V30 2588 C 243.655 -1.67424 -1.1391 0
M  V30 2589 C 243.983 -0.411859 -1.90089 0
M  V30 2590 O 243.238 0.605626 -1.86093 0
M  V30 2591 C 243.537 -2.85721 -2.14705 0
M  V30 2592 C 243.203 -4.23342 -1.55218 0
M  V30 2593 C 241.865 -4.60771 -1.3872 0
M  V30 2594 C 244.217 -5.09041 -1.11924 0
M  V30 2595 C 241.545 -5.81563 -0.774689 0
M  V30 2596 C 243.897 -6.30452 -0.520853 0
M  V30 2597 C 242.561 -6.66617 -0.343134 0
M  V30 2598 H 241.831 -0.612648 -0.416826 0
M  V30 2599 H 244.478 -1.8674 -0.424315 0
M  V30 2600 H 242.783 -2.60803 -2.92385 0
M  V30 2601 H 244.48 -2.94382 -2.72288 0
M  V30 2602 H 241.07 -3.93855 -1.69045 0
M  V30 2603 H 245.254 -4.80695 -1.23473 0
M  V30 2604 H 240.51 -6.08196 -0.625154 0
M  V30 2605 H 244.684 -6.96175 -0.177065 0
M  V30 2606 H 242.311 -7.60083 0.133571 0
M  V30 2607 N 243.887 0.651787 -1.4349 0
M  V30 2608 C 244.819 1.77725 -1.44729 0
M  V30 2609 C 245.832 1.59141 -0.343231 0
M  V30 2610 O 247.021 1.67835 -0.607751 0
M  V30 2611 C 244.121 3.15172 -1.24579 0
M  V30 2612 C 243.294 3.60402 -2.47849 0
M  V30 2613 C 242.353 4.76656 -2.22902 0
M  V30 2614 O 241.379 4.86022 -2.96263 0
M  V30 2615 N 242.581 5.66958 -1.24656 0
M  V30 2616 H 245.346 1.77141 -2.41746 0
M  V30 2617 H 242.907 0.835678 -1.38665 0
M  V30 2618 H 244.899 3.90634 -1.0577 0
M  V30 2619 H 243.469 3.1052 -0.360015 0
M  V30 2620 H 242.689 2.75369 -2.82073 0
M  V30 2621 H 243.977 3.87368 -3.29884 0
M  V30 2622 H 243.375 5.62065 -0.640265 0
M  V30 2623 H 241.932 6.42135 -1.1183 0
M  V30 2624 N 245.365 1.30045 0.890287 0
M  V30 2625 C 246.312 1.15976 1.99545 0
M  V30 2626 C 247.282 0.0506202 1.66023 0
M  V30 2627 O 248.467 0.219847 1.89529 0
M  V30 2628 C 245.607 0.852054 3.34416 0
M  V30 2629 C 244.72 2.04255 3.80662 0
M  V30 2630 C 243.855 1.6734 5.04154 0
M  V30 2631 C 242.894 2.82916 5.42794 0
M  V30 2632 N 242.031 2.46333 6.57468 0
M  V30 2633 H 246.871 2.10524 2.10911 0
M  V30 2634 H 244.408 1.04749 1.03276 0
M  V30 2635 H 246.366 0.654296 4.12037 0
M  V30 2636 H 244.996 -0.0565502 3.2275 0
M  V30 2637 H 244.048 2.35172 2.98995 0
M  V30 2638 H 245.36 2.90826 4.05242 0
M  V30 2639 H 244.514 1.43908 5.89386 0
M  V30 2640 H 243.253 0.779308 4.81433 0
M  V30 2641 H 242.258 3.0702 4.56091 0
M  V30 2642 H 243.483 3.73004 5.6749 0
M  V30 2643 H 241.429 1.59423 6.36334 0
M  V30 2644 H 241.346 3.26436 6.81891 0
M  V30 2645 H 242.614 2.26244 7.45945 0
M  V30 2646 N 246.843 -1.10192 1.12674 0
M  V30 2647 C 248.071 -1.85983 0.906527 0
M  V30 2648 C 248.486 -1.80783 -0.544333 0
M  V30 2649 O 247.843 -1.19834 -1.37645 0
M  V30 2650 C 247.894 -3.34281 1.37618 0
M  V30 2651 O 247.615 -3.39401 2.77017 0
M  V30 2652 C 249.116 -4.26938 1.19325 0
M  V30 2653 H 246.336 -0.587716 0.323775 0
M  V30 2654 H 248.88 -1.39284 1.49734 0
M  V30 2655 H 247.035 -3.78436 0.828539 0
M  V30 2656 H 247.449 -4.31838 2.97684 0
M  V30 2657 H 248.923 -5.29181 1.57071 0
M  V30 2658 H 249.4 -4.38995 0.134097 0
M  V30 2659 H 250.006 -3.8859 1.72852 0
M  V30 2660 N 248.321 -0.919034 -1.28029 0
M  V30 2661 C 249.269 -0.401753 -2.29104 0
M  V30 2662 C 250.263 0.509354 -1.61561 0
M  V30 2663 O 251.469 0.390014 -1.75724 0
M  V30 2664 H 247.844 -0.111331 -0.743713 0
M  V30 2665 H 249.815 -1.2672 -2.70156 0
M  V30 2666 C 248.564 0.338148 -3.46052 0
M  V30 2667 H 247.887 -0.353732 -3.98232 0
M  V30 2668 H 249.327 0.664653 -4.18758 0
M  V30 2669 C 247.786 1.54798 -2.99231 0
M  V30 2670 O 248.316 2.64696 -3.02157 0
M  V30 2671 N 246.522 1.3968 -2.54829 0
M  V30 2672 H 246.069 0.502698 -2.52647 0
M  V30 2673 H 246.027 2.20755 -2.23863 0
M  V30 2674 N 249.799 1.42003 -0.683588 0
M  V30 2675 C 251.047 2.01015 -0.209101 0
M  V30 2676 C 251.368 1.54365 1.19149 0
M  V30 2677 O 250.638 0.769083 1.80172 0
M  V30 2678 H 249.218 0.743294 -0.074315 0
M  V30 2679 H 251.88 1.73798 -0.882066 0
M  V30 2680 H 250.976 3.11343 -0.2172 0
M  V30 2681 N 251.277 0.427512 1.51691 0
M  V30 2682 C 252.502 -0.143601 2.06902 0
M  V30 2683 C 252.927 -1.36536 1.29382 0
M  V30 2684 O 252.285 -1.78289 0.329043 0
M  V30 2685 C 252.333 -0.454207 3.57728 0
M  V30 2686 O 251.437 -1.54228 3.82475 0
M  V30 2687 H 250.778 -0.00617128 0.663971 0
M  V30 2688 H 253.308 0.606014 1.95419 0
M  V30 2689 H 253.318 -0.707525 4.01818 0
M  V30 2690 H 251.993 0.438812 4.13579 0
M  V30 2691 H 250.57 -1.2797 3.50254 0
M  V30 2692 N 252.755 -1.56801 0.158532 0
M  V30 2693 C 253.685 -2.20347 -0.772609 0
M  V30 2694 C 254.666 -1.15518 -1.24859 0
M  V30 2695 O 255.851 -1.43902 -1.30406 0
M  V30 2696 C 252.981 -2.83417 -2.00729 0
M  V30 2697 C 251.935 -3.94174 -1.66765 0
M  V30 2698 C 251.261 -4.44233 -2.97592 0
M  V30 2699 C 252.561 -5.14392 -0.905447 0
M  V30 2700 H 254.255 -2.98413 -0.242959 0
M  V30 2701 H 251.801 -1.43537 -0.115419 0
M  V30 2702 H 253.754 -3.26543 -2.6636 0
M  V30 2703 H 252.478 -2.02701 -2.56086 0
M  V30 2704 H 251.137 -3.51684 -1.03508 0
M  V30 2705 H 250.785 -3.60325 -3.50963 0
M  V30 2706 H 250.485 -5.18945 -2.75626 0
M  V30 2707 H 252.009 -4.90037 -3.64274 0
M  V30 2708 H 253.423 -5.5429 -1.46408 0
M  V30 2709 H 251.82 -5.9494 -0.7853 0
M  V30 2710 H 252.89 -4.84795 0.100668 0
M  V30 2711 N 254.233 0.115231 -1.57178 0
M  V30 2712 C 255.181 1.16014 -2.01602 0
M  V30 2713 C 256.175 1.42653 -0.913587 0
M  V30 2714 O 257.381 1.42571 -1.09879 0
M  V30 2715 H 253.756 0.391252 -0.642204 0
M  V30 2716 H 255.727 0.758998 -2.88586 0
M  V30 2717 C 254.476 2.47767 -2.4394 0
M  V30 2718 H 253.799 2.28108 -3.28339 0
M  V30 2719 H 255.239 3.19432 -2.78818 0
M  V30 2720 C 253.698 3.10617 -1.30455 0
M  V30 2721 O 254.228 3.96846 -0.622585 0
M  V30 2722 N 252.434 2.70553 -1.06064 0
M  V30 2723 H 251.981 2.00527 -1.61699 0
M  V30 2724 H 251.939 3.12934 -0.303284 0
M  V30 2725 N 255.711 1.52812 0.385517 0
M  V30 2726 C 256.959 1.67694 1.12797 0
M  V30 2727 C 257.28 0.421115 1.90399 0
M  V30 2728 O 256.55 -0.564551 1.87589 0
M  V30 2729 H 255.13 0.618155 0.419396 0
M  V30 2730 H 257.792 1.89938 0.436972 0
M  V30 2731 H 256.888 2.52896 1.82894 0
M  V30 2732 N 257.189 -0.644168 1.43834 0
M  V30 2733 C 258.417 -1.43147 1.49387 0
M  V30 2734 C 258.832 -1.88452 0.114583 0
M  V30 2735 O 258.189 -1.60047 -0.876989 0
M  V30 2736 C 258.24 -2.66046 2.44748 0
M  V30 2737 O 257.961 -2.22633 3.77314 0
M  V30 2738 C 259.462 -3.59311 2.59635 0
M  V30 2739 H 256.682 -0.439447 0.507077 0
M  V30 2740 H 259.226 -0.78895 1.88669 0
M  V30 2741 H 257.381 -3.26418 2.08638 0
M  V30 2742 H 257.795 -3.02216 4.28679 0
M  V30 2743 H 259.269 -4.42187 3.30416 0
M  V30 2744 H 259.746 -4.07259 1.64427 0
M  V30 2745 H 260.352 -3.04816 2.96593 0
M  V30 2746 N 258.668 -1.30515 -0.883378 0
M  V30 2747 C 259.893 -1.22487 -1.67367 0
M  V30 2748 C 260.318 0.208767 -1.86938 0
M  V30 2749 O 259.676 1.15015 -1.40148 0
M  V30 2750 C 259.724 -1.96041 -3.02655 0
M  V30 2751 O 258.828 -1.28859 -3.91751 0
M  V30 2752 H 258.169 -0.423573 -0.511353 0
M  V30 2753 H 260.699 -1.72362 -1.10239 0
M  V30 2754 H 260.709 -2.05124 -3.52687 0
M  V30 2755 H 259.384 -3.00307 -2.8773 0
M  V30 2756 H 257.961 -1.28141 -3.50192 0
M  V30 2757 N 260.146 1.09593 -1.13257 0
M  V30 2758 C 261.056 2.19739 -0.821691 0
M  V30 2759 C 262.072 1.72926 0.19302 0
M  V30 2760 O 263.248 2.01385 0.0244895 0
M  V30 2761 C 260.313 3.45482 -0.290333 0
M  V30 2762 C 259.374 4.06985 -1.36607 0
M  V30 2763 C 258.607 5.26726 -0.859975 0
M  V30 2764 O 258.83 5.69594 0.303082 0
M  V30 2765 O 257.764 5.7931 -1.63351 0
M  V30 2766 H 261.59 2.48781 -1.74189 0
M  V30 2767 H 259.175 1.18496 -0.909894 0
M  V30 2768 H 261.057 4.214 0.000674022 0
M  V30 2769 H 259.732 3.18047 0.602306 0
M  V30 2770 H 258.639 3.32712 -1.71037 0
M  V30 2771 H 259.972 4.38643 -2.23279 0
M  V30 2772 N 261.624 0.925811 1.2754 0
M  V30 2773 C 262.572 0.413897 2.28888 0
M  V30 2774 C 263.566 -0.500779 1.61829 0
M  V30 2775 O 264.772 -0.38069 1.75928 0
M  V30 2776 H 261.147 0.115274 0.743112 0
M  V30 2777 H 263.118 1.28151 2.69481 0
M  V30 2778 C 261.867 -0.319792 3.46226 0
M  V30 2779 H 261.19 0.374846 3.98039 0
M  V30 2780 H 262.63 -0.642435 4.19105 0
M  V30 2781 C 261.089 -1.53209 3.00048 0
M  V30 2782 O 261.619 -2.6309 3.03557 0
M  V30 2783 N 259.825 -1.38326 2.55566 0
M  V30 2784 H 259.372 -0.489292 2.5291 0
M  V30 2785 H 259.33 -2.19564 2.25031 0
M  V30 2786 N 263.102 -1.41638 0.69111 0
M  V30 2787 C 264.065 -2.29178 0.0319786 0
M  V30 2788 C 265.065 -1.44153 -0.712496 0
M  V30 2789 O 266.255 -1.65354 -0.548053 0
M  V30 2790 C 263.387 -3.26952 -0.965161 0
M  V30 2791 H 264.58 -2.88959 0.802681 0
M  V30 2792 H 262.133 -1.4955 0.454356 0
M  V30 2793 H 262.868 -2.72142 -1.76378 0
M  V30 2794 H 262.653 -3.89685 -0.434522 0
M  V30 2795 H 264.143 -3.92561 -1.42428 0
M  V30 2796 N 264.58 -0.43555 -1.51462 0
M  V30 2797 C 265.808 0.130242 -2.0649 0
M  V30 2798 C 266.223 1.36614 -1.30315 0
M  V30 2799 O 265.58 1.78869 -0.362223 0
M  V30 2800 C 265.631 0.454253 -3.58635 0
M  V30 2801 O 265.352 -0.73259 -4.31931 0
M  V30 2802 C 266.853 1.07091 -4.3017 0
M  V30 2803 H 264.073 0.00871669 -0.670943 0
M  V30 2804 H 266.617 -0.614117 -1.95061 0
M  V30 2805 H 264.772 1.14851 -3.69984 0
M  V30 2806 H 265.186 -0.455787 -5.22516 0
M  V30 2807 H 266.66 1.24764 -5.37716 0
M  V30 2808 H 267.137 2.05144 -3.88346 0
M  V30 2809 H 267.743 0.416089 -4.2326 0
M  V30 2810 N 266.058 1.56714 -0.166846 0
M  V30 2811 C 267.283 2.01557 0.488833 0
M  V30 2812 C 267.708 1.0463 1.56314 0
M  V30 2813 O 267.066 0.0251304 1.81283 0
M  V30 2814 C 267.114 3.4503 1.04818 0
M  V30 2815 O 266.218 3.51163 2.16236 0
M  V30 2816 H 265.559 0.653516 0.117526 0
M  V30 2817 H 268.089 2.02818 -0.269421 0
M  V30 2818 H 268.099 3.84243 1.37191 0
M  V30 2819 H 266.774 4.15077 0.261572 0
M  V30 2820 H 265.351 3.23807 1.84942 0
M  V30 2821 N 267.536 -0.106894 1.57237 0
M  V30 2822 C 268.947 -0.662723 1.74542 0
M  V30 2823 C 269.298 -1.7971 0.787319 0
M  V30 2824 O 268.423 -2.16368 -0.0369636 0
M  V30 2825 C 269.018 -1.20896 3.16496 0
M  V30 2826 C 267.577 -1.71096 3.35266 0
M  V30 2827 C 266.724 -0.615642 2.7038 0
M  V30 2828 H 269.675 0.119106 1.58252 0
M  V30 2829 H 269.696 -2.07847 3.18716 0
M  V30 2830 H 269.208 -0.383122 3.86204 0
M  V30 2831 H 267.309 -2.56119 2.70618 0
M  V30 2832 H 267.422 -1.81208 4.43509 0
M  V30 2833 H 265.786 -1.05222 2.31949 0
M  V30 2834 H 266.569 0.199419 3.4272 0
M  V30 2835 N 269.014 -1.53014 -0.377408 0
M  V30 2836 C 270.26 -1.68872 -1.12294 0
M  V30 2837 C 270.593 -0.433224 -1.89306 0
M  V30 2838 O 269.868 0.569258 -1.85983 0
M  V30 2839 C 270.151 -2.93115 -2.09179 0
M  V30 2840 C 270.004 -4.28794 -1.35853 0
M  V30 2841 C 271.323 -3.12928 -3.09458 0
M  V30 2842 H 268.442 -0.614518 -0.406862 0
M  V30 2843 H 271.084 -1.85633 -0.40503 0
M  V30 2844 H 269.234 -2.78956 -2.70399 0
M  V30 2845 H 270.906 -4.54742 -0.775082 0
M  V30 2846 H 269.149 -4.28744 -0.660364 0
M  V30 2847 H 269.82 -5.11837 -2.06706 0
M  V30 2848 H 272.296 -3.26194 -2.58334 0
M  V30 2849 H 271.172 -4.01316 -3.74482 0
M  V30 2850 H 271.433 -2.27669 -3.78971 0
M  V30 2851 N 270.492 0.636531 -1.44174 0
M  V30 2852 C 271.741 1.39213 -1.45954 0
M  V30 2853 C 272.054 1.95374 -0.0939119 0
M  V30 2854 O 273.26 2.71498 0.0107767 0
M  V30 2855 C 271.716 2.52025 -2.56927 0
M  V30 2856 C 271.324 2.024 -3.99673 0
M  V30 2857 C 273.068 3.29269 -2.67922 0
M  V30 2858 C 270.975 3.12521 -5.0208 0
M  V30 2859 H 269.905 0.523132 -0.542999 0
M  V30 2860 H 272.556 0.685349 -1.70221 0
M  V30 2861 H 270.938 3.25253 -2.25891 0
M  V30 2862 H 272.112 1.36073 -4.40251 0
M  V30 2863 H 270.427 1.37987 -3.92872 0
M  V30 2864 H 273.024 4.11352 -3.41605 0
M  V30 2865 H 273.367 3.78397 -1.73555 0
M  V30 2866 H 273.9 2.63129 -2.98342 0
M  V30 2867 H 270.639 2.68343 -5.98057 0
M  V30 2868 H 270.159 3.77507 -4.66099 0
M  V30 2869 H 271.838 3.77385 -5.25538 0
M  V30 2870 N 271.97 1.30982 0.876444 0
M  V30 2871 C 272.88 1.2003 2.01569 0
M  V30 2872 C 273.896 0.11838 1.73597 0
M  V30 2873 O 275.072 0.33495 1.98595 0
M  V30 2874 C 272.137 0.901637 3.34771 0
M  V30 2875 C 271.198 2.06979 3.76109 0
M  V30 2876 C 270.431 1.78529 5.02954 0
M  V30 2877 O 270.654 0.717296 5.65872 0
M  V30 2878 O 269.588 2.64019 5.40905 0
M  V30 2879 H 273.414 2.15753 2.13739 0
M  V30 2880 H 270.999 1.10658 1.00375 0
M  V30 2881 H 272.881 0.750645 4.1466 0
M  V30 2882 H 271.556 -0.0256141 3.2369 0
M  V30 2883 H 270.463 2.27616 2.96887 0
M  V30 2884 H 271.796 2.97907 3.91807 0
M  V30 2885 N 273.449 -1.08991 1.13837 0
M  V30 2886 C 274.696 -1.81258 0.902882 0
M  V30 2887 C 275.024 -1.85936 -0.570803 0
M  V30 2888 O 274.279 -1.3267 -1.43865 0
M  V30 2889 C 274.578 -3.27042 1.44147 0
M  V30 2890 C 274.244 -3.4249 2.93276 0
M  V30 2891 C 272.906 -3.46414 3.33992 0
M  V30 2892 C 275.258 -3.4666 3.892 0
M  V30 2893 C 272.586 -3.52091 4.69307 0
M  V30 2894 C 274.938 -3.53872 5.24364 0
M  V30 2895 C 273.602 -3.56066 5.646 0
M  V30 2896 H 272.872 -0.663268 0.330388 0
M  V30 2897 H 275.519 -1.28368 1.42105 0
M  V30 2898 H 273.824 -3.82599 0.844097 0
M  V30 2899 H 275.521 -3.81499 1.23528 0
M  V30 2900 H 272.111 -3.40124 2.60794 0
M  V30 2901 H 276.295 -3.42865 3.58828 0
M  V30 2902 H 271.551 -3.52079 4.9985 0
M  V30 2903 H 275.725 -3.56043 5.98503 0
M  V30 2904 H 273.352 -3.60218 6.69438 0
M  V30 2905 N 274.927 -0.932562 -1.27047 0
M  V30 2906 C 276.173 -0.585913 -1.94778 0
M  V30 2907 C 276.528 0.864142 -1.71902 0
M  V30 2908 O 275.821 1.60894 -1.04037 0
M  V30 2909 C 276.015 -0.853713 -3.47054 0
M  V30 2910 C 275.844 -2.32825 -3.84737 0
M  V30 2911 C 274.614 -2.98184 -4.07939 0
M  V30 2912 C 276.812 -3.30612 -3.93954 0
M  V30 2913 N 274.794 -4.3574 -4.3244 0
M  V30 2914 C 276.165 -4.53395 -4.22887 0
M  V30 2915 C 278.22 -3.25755 -3.76548 0
M  V30 2916 C 276.923 -5.71927 -4.36224 0
M  V30 2917 C 278.949 -4.43604 -3.91113 0
M  V30 2918 C 278.311 -5.65166 -4.20437 0
M  V30 2919 H 274.41 -0.264617 -0.735868 0
M  V30 2920 H 276.994 -1.20019 -1.53309 0
M  V30 2921 H 275.165 -0.268557 -3.8747 0
M  V30 2922 H 276.897 -0.469202 -4.01971 0
M  V30 2923 H 273.652 -2.48835 -4.02961 0
M  V30 2924 H 274.076 -5.06915 -4.48738 0
M  V30 2925 H 278.718 -2.32835 -3.52913 0
M  V30 2926 H 276.436 -6.65308 -4.58683 0
M  V30 2927 H 280.022 -4.41368 -3.79059 0
M  V30 2928 H 278.902 -6.54836 -4.31462 0
M  V30 2929 N 276.405 1.4127 -0.698611 0
M  V30 2930 C 277.315 2.34573 -0.0357891 0
M  V30 2931 C 278.331 1.56393 0.762701 0
M  V30 2932 O 279.507 1.8886 0.699564 0
M  V30 2933 C 276.572 3.35159 0.887089 0
M  V30 2934 C 275.633 4.29225 0.0804634 0
M  V30 2935 C 274.866 5.25006 0.959387 0
M  V30 2936 O 275.089 5.26314 2.19886 0
M  V30 2937 O 274.023 6.00519 0.407439 0
M  V30 2938 H 277.849 2.92838 -0.804957 0
M  V30 2939 H 275.434 1.42175 -0.458966 0
M  V30 2940 H 277.316 3.9689 1.41621 0
M  V30 2941 H 275.991 2.79333 1.6357 0
M  V30 2942 H 274.898 3.70833 -0.493328 0
M  V30 2943 H 276.231 4.88157 -0.629547 0
M  V30 2944 N 277.883 0.443576 1.51229 0
M  V30 2945 C 279.299 0.0962001 1.5931 0
M  V30 2946 C 279.499 -1.39501 1.45402 0
M  V30 2947 O 278.555 -2.16557 1.29843 0
M  V30 2948 C 279.868 0.621875 2.94199 0
M  V30 2949 C 281.416 0.582865 3.07525 0
M  V30 2950 C 281.891 1.08562 4.44948 0
M  V30 2951 N 283.382 1.04387 4.51284 0
M  V30 2952 C 284.117 1.40368 5.55954 0
M  V30 2953 N 283.613 1.83664 6.68011 0
M  V30 2954 N 285.406 1.32145 5.46346 0
M  V30 2955 H 277.557 1.41376 1.58514 0
M  V30 2956 H 279.82 0.582965 0.747567 0
M  V30 2957 H 279.526 1.66546 3.09767 0
M  V30 2958 H 279.4 0.0502125 3.77167 0
M  V30 2959 H 281.787 -0.451749 2.91622 0
M  V30 2960 H 281.868 1.191 2.26382 0
M  V30 2961 H 281.512 2.11873 4.61598 0
M  V30 2962 H 281.442 0.453956 5.2464 0
M  V30 2963 H 283.933 0.725986 3.70861 0
M  V30 2964 H 284.246 2.0934 7.43906 0
M  V30 2965 H 282.591 1.87596 6.69203 0
M  V30 2966 H 285.782 0.981808 4.57688 0
M  V30 2967 H 285.955 1.60514 6.27805 0
M  V30 2968 N 279.361 -1.56624 0.175154 0
M  V30 2969 C 280.777 -1.58571 -0.180966 0
M  V30 2970 C 280.977 -1.19065 -1.6256 0
M  V30 2971 O 280.033 -0.904044 -2.35761 0
M  V30 2972 C 281.346 -3.00522 0.103326 0
M  V30 2973 C 282.894 -3.12972 0.0418426 0
M  V30 2974 C 283.369 -4.57022 0.299175 0
M  V30 2975 N 284.86 -4.62541 0.247086 0
M  V30 2976 C 285.595 -5.71857 0.420318 0
M  V30 2977 N 285.091 -6.89717 0.652816 0
M  V30 2978 N 286.884 -5.60972 0.355957 0
M  V30 2979 H 279.035 -1.80589 1.11809 0
M  V30 2980 H 281.298 -0.837178 0.444788 0
M  V30 2981 H 281.004 -3.33916 1.10422 0
M  V30 2982 H 280.878 -3.72344 -0.603299 0
M  V30 2983 H 283.265 -2.79403 -0.949636 0
M  V30 2984 H 283.346 -2.43578 0.781238 0
M  V30 2985 H 282.99 -4.913 1.28788 0
M  V30 2986 H 282.92 -5.24579 -0.460876 0
M  V30 2987 H 285.411 -3.77829 0.0731895 0
M  V30 2988 H 285.724 -7.68911 0.774347 0
M  V30 2989 H 284.069 -6.91572 0.689476 0
M  V30 2990 H 287.26 -4.67773 0.174882 0
M  V30 2991 H 287.433 -6.46111 0.494388 0
M  V30 2992 N 280.839 0.0985539 -1.57292 0
M  V30 2993 C 282.085 0.803867 -1.86188 0
M  V30 2994 C 282.418 1.78549 -0.763794 0
M  V30 2995 O 281.693 1.93153 0.22855 0
M  V30 2996 C 281.976 1.53568 -3.25713 0
M  V30 2997 C 281.829 0.572277 -4.46145 0
M  V30 2998 C 283.148 2.48708 -3.63087 0
M  V30 2999 H 280.267 0.290781 -0.677211 0
M  V30 3000 H 282.909 0.0675783 -1.8988 0
M  V30 3001 H 281.059 2.16332 -3.22696 0
M  V30 3002 H 282.731 -0.0480894 -4.61275 0
M  V30 3003 H 280.974 -0.114618 -4.33649 0
M  V30 3004 H 281.645 1.12139 -5.40489 0
M  V30 3005 H 284.121 1.96039 -3.67026 0
M  V30 3006 H 282.997 2.96932 -4.61652 0
M  V30 3007 H 283.258 3.32309 -2.91588 0
M  V30 3008 N 282.317 1.53212 0.369288 0
M  V30 3009 C 283.247 1.82365 1.45826 0
M  V30 3010 C 284.228 0.676907 1.56051 0
M  V30 3011 O 285.413 0.926401 1.70679 0
M  V30 3012 C 282.543 2.01023 2.83208 0
M  V30 3013 C 281.497 3.1678 2.8781 0
M  V30 3014 C 280.823 3.20724 4.27832 0
M  V30 3015 C 282.123 4.55447 2.55667 0
M  V30 3016 H 283.817 2.73559 1.21678 0
M  V30 3017 H 281.363 1.3163 0.583911 0
M  V30 3018 H 283.316 2.20001 3.59413 0
M  V30 3019 H 282.04 1.06536 3.08736 0
M  V30 3020 H 280.699 2.97616 2.14056 0
M  V30 3021 H 280.347 2.23882 4.50429 0
M  V30 3022 H 280.047 3.98496 4.31827 0
M  V30 3023 H 281.571 3.41881 5.05915 0
M  V30 3024 H 282.985 4.74611 3.21586 0
M  V30 3025 H 281.382 5.35432 2.70984 0
M  V30 3026 H 282.452 4.60812 1.5093 0
M  V30 3027 N 283.795 -0.628877 1.44509 0
M  V30 3028 C 284.742 -1.74074 1.51549 0
M  V30 3029 C 285.712 -1.62084 0.363021 0
M  V30 3030 O 286.897 -1.81975 0.573567 0
M  V30 3031 C 284.037 -3.12328 1.46784 0
M  V30 3032 C 283.15 -3.35277 2.72422 0
M  V30 3033 C 282.285 -4.63515 2.59475 0
M  V30 3034 C 281.324 -4.7965 3.80266 0
M  V30 3035 N 280.461 -5.99168 3.65981 0
M  V30 3036 H 285.301 -1.67392 2.46544 0
M  V30 3037 H 282.838 -0.816527 1.22357 0
M  V30 3038 H 284.796 -3.92286 1.42012 0
M  V30 3039 H 283.426 -3.18018 0.553544 0
M  V30 3040 H 282.478 -2.49242 2.87372 0
M  V30 3041 H 283.79 -3.43078 3.62076 0
M  V30 3042 H 282.944 -5.51638 2.52548 0
M  V30 3043 H 281.683 -4.58076 1.67384 0
M  V30 3044 H 280.688 -3.89957 3.87574 0
M  V30 3045 H 281.913 -4.86902 4.73395 0
M  V30 3046 H 279.859 -5.94814 2.76644 0
M  V30 3047 H 279.776 -6.08035 4.49254 0
M  V30 3048 H 281.044 -6.89846 3.6295 0
M  V30 3049 N 285.273 -1.31445 -0.869486 0
M  V30 3050 C 286.522 -1.20517 -1.61736 0
M  V30 3051 C 286.835 0.235341 -1.94179 0
M  V30 3052 O 288.041 0.466312 -2.67465 0
M  V30 3053 C 286.497 -2.10982 -2.91573 0
M  V30 3054 C 286.105 -3.60032 -2.66611 0
M  V30 3055 C 287.849 -2.08856 -3.69567 0
M  V30 3056 C 285.756 -4.42503 -3.92358 0
M  V30 3057 H 284.686 -0.447493 -0.606849 0
M  V30 3058 H 287.337 -1.56303 -0.96133 0
M  V30 3059 H 285.719 -1.68095 -3.58553 0
M  V30 3060 H 286.893 -4.11167 -2.08035 0
M  V30 3061 H 285.208 -3.64139 -2.0197 0
M  V30 3062 H 287.805 -2.67716 -4.62852 0
M  V30 3063 H 288.148 -1.07582 -4.02159 0
M  V30 3064 H 288.681 -2.49945 -3.09471 0
M  V30 3065 H 285.42 -5.44533 -3.64916 0
M  V30 3066 H 284.94 -3.96125 -4.50383 0
M  V30 3067 H 286.619 -4.54741 -4.60238 0
M  V30 3068 N 286.751 1.08385 -1.14413 0
M  V30 3069 C 287.976 1.85057 -0.936413 0
M  V30 3070 C 288.401 1.81055 0.509971 0
M  V30 3071 O 287.759 1.1958 1.36273 0
M  V30 3072 C 287.807 3.30505 -1.44217 0
M  V30 3073 O 286.911 4.07491 -0.634409 0
M  V30 3074 H 286.252 0.573425 -0.334784 0
M  V30 3075 H 288.782 1.36799 -1.52142 0
M  V30 3076 H 288.792 3.81348 -1.45043 0
M  V30 3077 H 287.467 3.32734 -2.49522 0
M  V30 3078 H 286.044 3.66368 -0.694902 0
M  V30 3079 N 288.23 0.939286 1.26551 0
M  V30 3080 C 289.507 0.5038 1.89001 0
M  V30 3081 C 289.887 -1.01854 1.84903 0
M  V30 3082 O 289.235 -1.87773 1.30206 0
M  V30 3083 C 289.445 1.063 3.32417 0
M  V30 3084 C 290.793 1.13051 4.09273 0
M  V30 3085 O 291.817 1.01345 3.41479 0
M  V30 3086 O 290.676 1.31233 5.30509 0
M  V30 3087 H 287.77 0.163897 0.810597 0
M  V30 3088 H 290.316 1.03173 1.34735 0
M  V30 3089 H 289.088 2.10665 3.29752 0
M  V30 3090 H 288.711 0.517408 3.94219 0
M  V30 3091 N 289.708 -1.40897 0.706093 0
M  V30 3092 C 290.956 -2.00657 0.241054 0
M  V30 3093 C 291.277 -1.56241 -1.16678 0
M  V30 3094 O 290.547 -0.79765 -1.78926 0
M  V30 3095 H 289.127 -0.742018 0.0861308 0
M  V30 3096 H 291.789 -1.72372 0.909604 0
M  V30 3097 H 290.885 -3.10958 0.266705 0
M  V30 3098 N 291.186 -0.45159 -1.50991 0
M  V30 3099 C 292.435 0.111653 -2.01391 0
M  V30 3100 C 292.748 1.42529 -1.33959 0
M  V30 3101 O 293.954 2.07232 -1.75405 0
M  V30 3102 C 292.41 0.249514 -3.59034 0
M  V30 3103 C 292.018 -1.05453 -4.35412 0
M  V30 3104 C 293.762 0.765762 -4.17536 0
M  V30 3105 C 291.669 -0.881529 -5.84793 0
M  V30 3106 H 290.599 0.0455022 -0.752626 0
M  V30 3107 H 293.25 -0.583524 -1.73975 0
M  V30 3108 H 291.632 1.00803 -3.82955 0
M  V30 3109 H 292.806 -1.82248 -4.23229 0
M  V30 3110 H 291.121 -1.50039 -3.88429 0
M  V30 3111 H 293.718 0.911913 -5.26866 0
M  V30 3112 H 294.061 1.75201 -3.77638 0
M  V30 3113 H 294.594 0.0651744 -3.97747 0
M  V30 3114 H 291.333 -1.84057 -6.29129 0
M  V30 3115 H 290.853 -0.153625 -5.99603 0
M  V30 3116 H 292.532 -0.540363 -6.4474 0
M  V30 3117 N 292.664 1.56529 -0.183458 0
M  V30 3118 C 293.596 2.15747 0.773697 0
M  V30 3119 C 294.609 1.1162 1.1851 0
M  V30 3120 O 295.798 1.3876 1.12285 0
M  V30 3121 C 292.898 2.6952 2.05456 0
M  V30 3122 C 292.071 3.98429 1.8048 0
M  V30 3123 C 291.13 4.37145 2.92901 0
M  V30 3124 O 290.156 5.04791 2.6301 0
M  V30 3125 N 291.358 3.99695 4.2098 0
M  V30 3126 H 294.123 2.98505 0.26736 0
M  V30 3127 H 291.684 1.619 -0.0010878 0
M  V30 3128 H 293.676 2.92412 2.79781 0
M  V30 3129 H 292.246 1.91282 2.47245 0
M  V30 3130 H 291.466 3.8379 0.899947 0
M  V30 3131 H 292.754 4.82597 1.61175 0
M  V30 3132 H 292.152 3.4526 4.48121 0
M  V30 3133 H 290.709 4.27562 4.9197 0
M  V30 3134 N 294.142 -0.090211 1.57342 0
M  V30 3135 C 295.092 -1.11557 1.98844 0
M  V30 3136 C 296.076 -1.35503 0.867624 0
M  V30 3137 O 297.268 -1.36113 1.13148 0
M  V30 3138 C 294.397 -2.43446 2.42051 0
M  V30 3139 C 293.483 -2.22853 3.60828 0
M  V30 3140 N 293.874 -1.72141 4.75606 0
M  V30 3141 C 292.172 -2.53401 3.67021 0
M  V30 3142 C 292.873 -1.65932 5.57531 0
M  V30 3143 N 291.849 -2.11323 5.00843 0
M  V30 3144 H 295.651 -0.716499 2.85032 0
M  V30 3145 H 293.165 -0.297567 1.59651 0
M  V30 3146 H 295.162 -3.17644 2.70014 0
M  V30 3147 H 293.822 -2.84087 1.57241 0
M  V30 3148 H 294.833 -1.41268 4.98261 0
M  V30 3149 H 291.51 -2.97532 2.92884 0
M  V30 3150 H 292.9 -1.27733 6.59647 0
M  V30 3151 N 295.62 -1.53406 -0.361157 0
M  V30 3152 C 296.55 -1.83136 -1.44857 0
M  V30 3153 C 297.531 -0.685174 -1.5569 0
M  V30 3154 O 298.716 -0.93544 -1.70186 0
M  V30 3155 C 295.846 -2.02522 -2.82138 0
M  V30 3156 C 294.8 -3.18302 -2.86126 0
M  V30 3157 C 294.126 -3.22989 -4.26125 0
M  V30 3158 C 295.426 -4.56796 -2.53248 0
M  V30 3159 H 297.12 -2.74201 -1.20226 0
M  V30 3160 H 294.666 -1.31938 -0.576922 0
M  V30 3161 H 296.619 -2.21904 -3.58241 0
M  V30 3162 H 295.343 -1.08172 -3.08166 0
M  V30 3163 H 294.002 -2.98747 -2.12475 0
M  V30 3164 H 293.65 -2.26267 -4.49235 0
M  V30 3165 H 293.35 -4.00781 -4.29708 0
M  V30 3166 H 294.874 -3.44559 -5.04094 0
M  V30 3167 H 296.288 -4.7631 -3.19064 0
M  V30 3168 H 294.685 -5.36862 -2.68141 0
M  V30 3169 H 295.755 -4.61606 -1.48484 0
M  V30 3170 N 297.098 0.621204 -1.44841 0
M  V30 3171 C 298.346 1.37783 -1.47852 0
M  V30 3172 C 298.667 1.94653 -0.116224 0
M  V30 3173 O 297.937 1.76367 0.852737 0
M  V30 3174 H 296.517 0.511453 -0.544449 0
M  V30 3175 H 299.179 0.730446 -1.80694 0
M  V30 3176 H 298.275 2.20414 -2.20961 0
M  V30 3177 N 298.576 1.31904 0.862503 0
M  V30 3178 C 299.539 1.20131 1.95195 0
M  V30 3179 C 300.539 0.126409 1.60302 0
M  V30 3180 O 301.729 0.376234 1.70089 0
M  V30 3181 C 298.861 0.845691 3.30244 0
M  V30 3182 H 300.054 2.16943 2.07064 0
M  V30 3183 H 297.607 1.15622 1.05172 0
M  V30 3184 H 298.342 -0.120957 3.24074 0
M  V30 3185 H 298.127 1.62276 3.56944 0
M  V30 3186 H 299.617 0.787418 4.10109 0
M  V30 3187 N 300.054 -1.07777 1.14986 0
M  V30 3188 C 300.984 -2.16865 0.865557 0
M  V30 3189 C 301.965 -1.69123 -0.182083 0
M  V30 3190 O 303.15 -1.94164 -0.0373815 0
M  V30 3191 C 300.28 -3.45539 0.349313 0
M  V30 3192 C 299.234 -4.06708 1.33313 0
M  V30 3193 C 298.56 -5.30411 0.675918 0
M  V30 3194 C 299.86 -4.47241 2.69764 0
M  V30 3195 H 301.554 -2.40905 1.77778 0
M  V30 3196 H 299.1 -1.15781 0.856203 0
M  V30 3197 H 301.053 -4.21174 0.137983 0
M  V30 3198 H 299.777 -3.21072 -0.598362 0
M  V30 3199 H 298.436 -3.33112 1.53075 0
M  V30 3200 H 298.084 -5.02232 -0.277767 0
M  V30 3201 H 297.784 -5.72293 1.33244 0
M  V30 3202 H 299.308 -6.08755 0.474262 0
M  V30 3203 H 300.722 -5.14025 2.53873 0
M  V30 3204 H 299.119 -5.00062 3.3175 0
M  V30 3205 H 300.189 -3.58818 3.26156 0
M  V30 3206 N 301.532 -0.945985 -1.26051 0
M  V30 3207 C 302.948 -0.649045 -1.45807 0
M  V30 3208 C 303.148 0.796158 -1.85104 0
M  V30 3209 O 302.204 1.57233 -1.97571 0
M  V30 3210 C 303.517 -1.61458 -2.53677 0
M  V30 3211 C 305.065 -1.62481 -2.67524 0
M  V30 3212 C 305.54 -2.57776 -3.7857 0
M  V30 3213 N 307.031 -2.5609 -3.85969 0
M  V30 3214 C 307.766 -3.26508 -4.7136 0
M  V30 3215 N 307.262 -4.0637 -5.61102 0
M  V30 3216 N 309.055 -3.15437 -4.65248 0
M  V30 3217 H 301.206 -1.88005 -0.988328 0
M  V30 3218 H 303.469 -0.808198 -0.4955 0
M  V30 3219 H 303.175 -2.64644 -2.31638 0
M  V30 3220 H 303.049 -1.37036 -3.51427 0
M  V30 3221 H 305.436 -0.600167 -2.88933 0
M  V30 3222 H 305.517 -1.90958 -1.70202 0
M  V30 3223 H 305.161 -3.60361 -3.57913 0
M  V30 3224 H 305.091 -2.26587 -4.75359 0
M  V30 3225 H 307.582 -1.98105 -3.21812 0
M  V30 3226 H 307.895 -4.57042 -6.23164 0
M  V30 3227 H 306.24 -4.10469 -5.60839 0
M  V30 3228 H 309.431 -2.52525 -3.94143 0
M  V30 3229 H 309.604 -3.70584 -5.31575 0
M  V30 3230 N 303.011 1.40521 -0.713556 0
M  V30 3231 C 304.257 2.01714 -0.261382 0
M  V30 3232 C 304.612 1.55562 1.13217 0
M  V30 3233 O 303.905 0.764893 1.7567 0
M  V30 3234 C 304.099 3.56317 -0.278 0
M  V30 3235 C 303.928 4.17476 -1.67163 0
M  V30 3236 C 302.698 4.50998 -2.2788 0
M  V30 3237 C 304.896 4.42472 -2.6215 0
M  V30 3238 N 302.878 4.9754 -3.5962 0
M  V30 3239 C 304.249 4.90985 -3.78594 0
M  V30 3240 C 306.304 4.24508 -2.60188 0
M  V30 3241 C 305.007 5.2342 -4.9338 0
M  V30 3242 C 307.033 4.58043 -3.741 0
M  V30 3243 C 306.395 5.06743 -4.89276 0
M  V30 3244 H 302.494 0.769104 -0.141434 0
M  V30 3245 H 305.078 1.70785 -0.934915 0
M  V30 3246 H 303.249 3.8668 0.36509 0
M  V30 3247 H 304.981 4.0425 0.190695 0
M  V30 3248 H 301.736 4.38062 -1.79997 0
M  V30 3249 H 302.16 5.25196 -4.27198 0
M  V30 3250 H 306.802 3.86078 -1.72348 0
M  V30 3251 H 304.52 5.60765 -5.81866 0
M  V30 3252 H 308.106 4.45785 -3.73854 0
M  V30 3253 H 306.986 5.32204 -5.75959 0
M  V30 3254 N 304.489 0.459591 1.5075 0
M  V30 3255 C 305.399 -0.34613 2.32033 0
M  V30 3256 C 306.415 -1.00686 1.41909 0
M  V30 3257 O 307.591 -0.997361 1.7497 0
M  V30 3258 C 304.656 -1.42029 3.16273 0
M  V30 3259 C 303.717 -0.777362 4.22203 0
M  V30 3260 C 302.95 -1.80034 5.02418 0
M  V30 3261 O 303.173 -3.02544 4.83553 0
M  V30 3262 O 302.107 -1.37853 5.85901 0
M  V30 3263 H 305.933 0.318054 3.0203 0
M  V30 3264 H 303.518 0.221663 1.47746 0
M  V30 3265 H 305.4 -2.04275 3.68578 0
M  V30 3266 H 304.075 -2.06815 2.49016 0
M  V30 3267 H 302.982 -0.116256 3.73919 0
M  V30 3268 H 304.315 -0.172634 4.91897 0
M  V30 3269 N 305.967 -1.56429 0.191757 0
M  V30 3270 C 306.897 -2.21937 -0.725696 0
M  V30 3271 C 307.878 -1.1814 -1.2238 0
M  V30 3272 O 309.063 -1.46636 -1.27325 0
M  V30 3273 C 306.193 -2.87611 -1.94672 0
M  V30 3274 C 305.147 -3.97623 -1.58366 0
M  V30 3275 C 304.473 -4.50446 -2.88102 0
M  V30 3276 C 305.773 -5.16197 -0.796133 0
M  V30 3277 H 307.467 -2.98861 -0.179606 0
M  V30 3278 H 305.013 -1.43749 -0.0849464 0
M  V30 3279 H 306.966 -3.3212 -2.59373 0
M  V30 3280 H 305.69 -2.08087 -2.51728 0
M  V30 3281 H 304.349 -3.53801 -0.960247 0
M  V30 3282 H 303.997 -3.67688 -3.43241 0
M  V30 3283 H 303.697 -5.24675 -2.64556 0
M  V30 3284 H 305.221 -4.97654 -3.53798 0
M  V30 3285 H 306.635 -5.57271 -1.34618 0
M  V30 3286 H 305.032 -5.96471 -0.658928 0
M  V30 3287 H 306.102 -4.84473 0.203478 0
M  V30 3288 N 307.445 0.0818655 -1.57387 0
M  V30 3289 C 308.408 1.08265 -2.02018 0
M  V30 3290 C 309.408 1.32183 -0.915664 0
M  V30 3291 O 310.598 1.28073 -1.18081 0
M  V30 3292 C 307.73 2.42871 -2.39221 0
M  V30 3293 H 308.923 0.698204 -2.91659 0
M  V30 3294 H 306.476 0.327303 -1.52835 0
M  V30 3295 H 307.211 2.86167 -1.52575 0
M  V30 3296 H 306.996 2.26855 -3.19811 0
M  V30 3297 H 308.486 3.14826 -2.74362 0
M  V30 3298 N 308.923 1.53595 0.353017 0
M  V30 3299 C 309.853 1.83902 1.43883 0
M  V30 3300 C 310.834 0.693421 1.55324 0
M  V30 3301 O 312.019 0.944452 1.69687 0
M  V30 3302 C 309.149 2.04016 2.8106 0
M  V30 3303 C 308.103 3.19814 2.84434 0
M  V30 3304 C 307.429 3.25244 4.24406 0
M  V30 3305 C 308.729 4.58133 2.50822 0
M  V30 3306 H 310.423 2.74835 1.1877 0
M  V30 3307 H 307.969 1.32242 0.569917 0
M  V30 3308 H 309.922 2.238 3.57059 0
M  V30 3309 H 308.646 1.09804 3.07588 0
M  V30 3310 H 307.305 2.9987 2.10887 0
M  V30 3311 H 306.953 2.28646 4.48029 0
M  V30 3312 H 306.653 4.03054 4.27576 0
M  V30 3313 H 308.177 3.47228 5.0226 0
M  V30 3314 H 309.591 4.77995 3.16534 0
M  V30 3315 H 307.988 5.38276 2.6529 0
M  V30 3316 H 309.058 4.62387 1.46034 0
M  V30 3317 N 310.401 -0.613514 1.45168 0
M  V30 3318 C 311.641 -1.38405 1.5041 0
M  V30 3319 C 312.005 -1.91489 0.139922 0
M  V30 3320 O 313.206 -2.68716 0.067033 0
M  V30 3321 C 311.477 -2.50552 2.5487 0
M  V30 3322 S 313.036 -3.38439 2.79292 0
M  V30 3323 H 309.854 -0.471945 0.531779 0
M  V30 3324 H 312.456 -0.708518 1.82209 0
M  V30 3325 H 311.16 -2.09894 3.52665 0
M  V30 3326 H 310.691 -3.22913 2.24701 0
M  V30 3327 H 312.706 -4.48527 2.12222 0
M  V30 3328 N 311.879 -1.3236 -0.855495 0
M  V30 3329 C 312.809 -1.23833 -1.97958 0
M  V30 3330 C 313.79 -0.122361 -1.69659 0
M  V30 3331 O 314.975 -0.30939 -1.9172 0
M  V30 3332 C 312.105 -0.959772 -3.33775 0
M  V30 3333 C 311.059 -2.03689 -3.76424 0
M  V30 3334 C 310.385 -1.61075 -5.09862 0
M  V30 3335 C 311.685 -3.4518 -3.9198 0
M  V30 3336 H 313.379 -2.1788 -2.0535 0
M  V30 3337 H 310.925 -1.04891 -0.986605 0
M  V30 3338 H 312.878 -0.886678 -4.11966 0
M  V30 3339 H 311.602 0.0163404 -3.26596 0
M  V30 3340 H 310.261 -2.10012 -3.00484 0
M  V30 3341 H 309.909 -0.622107 -4.99138 0
M  V30 3342 H 309.609 -2.33143 -5.39368 0
M  V30 3343 H 311.133 -1.55201 -5.90546 0
M  V30 3344 H 312.547 -3.4145 -4.60526 0
M  V30 3345 H 310.944 -4.1559 -4.32903 0
M  V30 3346 H 312.014 -3.84903 -2.94919 0
M  V30 3347 N 313.357 1.07166 -1.15556 0
M  V30 3348 C 314.287 2.16403 -0.877046 0
M  V30 3349 C 315.268 1.69217 0.173111 0
M  V30 3350 O 316.453 1.94181 0.027084 0
M  V30 3351 C 313.583 3.45349 -0.367632 0
M  V30 3352 C 312.537 4.05995 -1.35468 0
M  V30 3353 C 311.863 5.30045 -0.704038 0
M  V30 3354 C 313.163 4.45804 -2.72132 0
M  V30 3355 H 314.857 2.39959 -1.79053 0
M  V30 3356 H 312.403 1.15325 -0.862331 0
M  V30 3357 H 314.356 4.21095 -0.160317 0
M  V30 3358 H 313.08 3.21385 0.581326 0
M  V30 3359 H 311.739 3.32296 -1.54839 0
M  V30 3360 H 311.387 5.02373 0.251128 0
M  V30 3361 H 311.087 5.71579 -1.36277 0
M  V30 3362 H 312.611 6.08495 -0.50654 0
M  V30 3363 H 314.025 5.12671 -2.56595 0
M  V30 3364 H 312.422 4.98296 -3.34397 0
M  V30 3365 H 313.492 3.57083 -3.28054 0
M  V30 3366 N 314.835 0.952656 1.25548 0
M  V30 3367 C 315.765 0.489287 2.28316 0
M  V30 3368 C 316.746 -0.463359 1.63667 0
M  V30 3369 O 317.931 -0.36274 1.90782 0
M  V30 3370 C 315.061 -0.235603 3.465 0
M  V30 3371 C 314.015 0.631593 4.23314 0
M  V30 3372 C 313.341 -0.223923 5.34231 0
M  V30 3373 C 314.641 1.90871 4.86174 0
M  V30 3374 H 316.335 1.34822 2.67326 0
M  V30 3375 H 313.881 0.649728 1.28509 0
M  V30 3376 H 315.834 -0.570882 4.17515 0
M  V30 3377 H 314.558 -1.12877 3.06474 0
M  V30 3378 H 313.217 0.949929 3.54079 0
M  V30 3379 H 312.865 -1.11678 4.90446 0
M  V30 3380 H 312.565 0.35299 5.86539 0
M  V30 3381 H 314.089 -0.554214 6.0808 0
M  V30 3382 H 315.503 1.63997 5.49343 0
M  V30 3383 H 313.9 2.43112 5.4865 0
M  V30 3384 H 314.97 2.61304 4.08471 0
M  V30 3385 N 316.313 -1.40141 0.720998 0
M  V30 3386 C 317.276 -2.29058 0.0805834 0
M  V30 3387 C 318.276 -1.45632 -0.681758 0
M  V30 3388 O 319.466 -1.6648 -0.512856 0
M  V30 3389 C 316.598 -3.28925 -0.895593 0
M  V30 3390 H 317.791 -2.87191 0.863793 0
M  V30 3391 H 315.344 -1.48553 0.485975 0
M  V30 3392 H 316.079 -2.75822 -1.70566 0
M  V30 3393 H 315.864 -3.90519 -0.351766 0
M  V30 3394 H 317.354 -3.95494 -1.34069 0
M  V30 3395 N 317.792 -0.46758 -1.50504 0
M  V30 3396 C 319.038 0.0808869 -2.03239 0
M  V30 3397 C 319.393 1.37721 -1.34353 0
M  V30 3398 O 318.686 1.86016 -0.459194 0
M  V30 3399 C 318.88 0.323995 -3.55928 0
M  V30 3400 C 318.709 -0.947215 -4.39611 0
M  V30 3401 C 317.479 -1.48951 -4.82848 0
M  V30 3402 C 319.677 -1.84166 -4.80195 0
M  V30 3403 N 317.659 -2.71011 -5.50842 0
M  V30 3404 C 319.03 -2.90815 -5.47564 0
M  V30 3405 C 321.085 -1.85246 -4.62156 0
M  V30 3406 C 319.788 -3.98529 -5.98805 0
M  V30 3407 C 321.814 -2.91914 -5.14335 0
M  V30 3408 C 321.176 -3.97282 -5.81676 0
M  V30 3409 H 317.275 -0.0103394 -0.781932 0
M  V30 3410 H 319.859 -0.635003 -1.84054 0
M  V30 3411 H 318.03 1.00892 -3.75067 0
M  V30 3412 H 319.762 0.866492 -3.95315 0
M  V30 3413 H 316.517 -1.03918 -4.62058 0
M  V30 3414 H 316.941 -3.32988 -5.89447 0
M  V30 3415 H 321.583 -1.05103 -4.09528 0
M  V30 3416 H 319.301 -4.79491 -6.50472 0
M  V30 3417 H 322.887 -2.93729 -5.0221 0
M  V30 3418 H 321.767 -4.78462 -6.21324 0
M  V30 3419 N 319.27 1.56325 -0.20005 0
M  V30 3420 C 320.516 1.98012 0.438059 0
M  V30 3421 C 320.849 1.08702 1.60927 0
M  V30 3422 O 320.124 0.140064 1.93995 0
M  V30 3423 C 320.407 3.48841 0.893419 0
M  V30 3424 C 320.26 4.48928 -0.279947 0
M  V30 3425 C 321.579 4.03498 1.75719 0
M  V30 3426 H 318.698 0.719918 0.157757 0
M  V30 3427 H 321.34 1.87743 -0.291968 0
M  V30 3428 H 319.49 3.57723 1.51547 0
M  V30 3429 H 321.162 4.52079 -0.91772 0
M  V30 3430 H 319.405 4.23694 -0.930919 0
M  V30 3431 H 320.076 5.5194 0.0812601 0
M  V30 3432 H 322.552 3.97427 1.23253 0
M  V30 3433 H 321.428 5.09393 2.04476 0
M  V30 3434 H 321.689 3.4906 2.71311 0
M  V30 3435 N 320.748 -0.0735177 1.57428 0
M  V30 3436 C 321.997 -0.771809 1.86349 0
M  V30 3437 C 322.31 -1.78828 0.792452 0
M  V30 3438 O 323.516 -2.53602 0.96945 0
M  V30 3439 C 321.972 -1.42358 3.30548 0
M  V30 3440 C 321.58 -0.445761 4.45777 0
M  V30 3441 C 323.324 -2.10434 3.6867 0
M  V30 3442 C 321.231 -1.10335 5.81016 0
M  V30 3443 H 320.161 -0.291999 0.695164 0
M  V30 3444 H 322.812 -0.0250749 1.83483 0
M  V30 3445 H 321.194 -2.21852 3.28021 0
M  V30 3446 H 322.368 0.319239 4.59693 0
M  V30 3447 H 320.683 0.130457 4.16196 0
M  V30 3448 H 323.28 -2.60405 4.67004 0
M  V30 3449 H 323.623 -2.90298 2.98383 0
M  V30 3450 H 324.156 -1.37773 3.7318 0
M  V30 3451 H 320.895 -0.345061 6.54591 0
M  V30 3452 H 320.415 -1.83925 5.70904 0
M  V30 3453 H 322.094 -1.62367 6.26295 0
M  V30 3454 N 322.226 -1.5378 -0.344866 0
M  V30 3455 C 323.466 -1.72677 -1.09371 0
M  V30 3456 C 323.83 -0.479084 -1.85927 0
M  V30 3457 O 325.031 -0.54505 -2.63216 0
M  V30 3458 C 323.302 -2.95457 -2.01097 0
M  V30 3459 S 324.861 -3.35158 -2.83222 0
M  V30 3460 H 321.679 -0.607402 -0.369573 0
M  V30 3461 H 324.281 -1.91922 -0.372307 0
M  V30 3462 H 322.985 -3.84437 -1.43655 0
M  V30 3463 H 322.516 -2.78673 -2.77678 0
M  V30 3464 H 324.531 -2.88789 -4.03504 0
M  V30 3465 N 323.704 0.605807 -1.45491 0
M  V30 3466 C 324.934 1.38934 -1.52908 0
M  V30 3467 C 325.342 1.88513 -0.161086 0
M  V30 3468 O 324.685 1.62962 0.847891 0
M  V30 3469 C 324.747 2.62737 -2.45376 0
M  V30 3470 C 324.411 2.34785 -3.92078 0
M  V30 3471 C 325.408 1.95038 -4.8193 0
M  V30 3472 C 323.093 2.47642 -4.37011 0
M  V30 3473 C 325.087 1.68511 -6.14722 0
M  V30 3474 C 322.774 2.20728 -5.69844 0
M  V30 3475 C 323.772 1.81225 -6.58519 0
M  V30 3476 O 323.46 1.54627 -7.88889 0
M  V30 3477 H 323.192 0.431629 -0.520262 0
M  V30 3478 H 325.746 0.74573 -1.91384 0
M  V30 3479 H 323.976 3.29824 -2.01874 0
M  V30 3480 H 325.665 3.24783 -2.43456 0
M  V30 3481 H 326.431 1.84639 -4.48479 0
M  V30 3482 H 322.31 2.77356 -3.68232 0
M  V30 3483 H 325.854 1.37602 -6.83894 0
M  V30 3484 H 321.751 2.30744 -6.02849 0
M  V30 3485 H 322.519 1.68665 -8.00933 0
M  V30 3486 N 325.182 1.32811 0.848464 0
M  V30 3487 C 326.429 1.23724 1.60308 0
M  V30 3488 C 326.757 -0.1994 1.93475 0
M  V30 3489 O 326.012 -1.15406 1.5805 0
M  V30 3490 C 326.311 2.04831 2.92881 0
M  V30 3491 C 325.977 3.54125 2.79117 0
M  V30 3492 C 324.639 3.94829 2.7507 0
M  V30 3493 C 326.991 4.49036 2.64606 0
M  V30 3494 C 324.319 5.28675 2.544 0
M  V30 3495 C 326.671 5.83033 2.4547 0
M  V30 3496 C 325.335 6.22931 2.39819 0
M  V30 3497 H 324.605 0.452737 0.586609 0
M  V30 3498 H 327.252 1.64301 0.983743 0
M  V30 3499 H 325.557 1.57001 3.58968 0
M  V30 3500 H 327.254 1.95164 3.50303 0
M  V30 3501 H 323.844 3.21801 2.83094 0
M  V30 3502 H 328.028 4.18505 2.66772 0
M  V30 3503 H 323.284 5.58637 2.48465 0
M  V30 3504 H 327.458 6.56186 2.33222 0
M  V30 3505 H 325.085 7.26584 2.23562 0
M  V30 3506 N 326.66 -1.06551 1.16123 0
M  V30 3507 C 327.9 -1.80889 0.951766 0
M  V30 3508 C 328.264 -1.85062 -0.511465 0
M  V30 3509 O 329.465 -2.55353 -0.83954 0
M  V30 3510 C 327.736 -3.21609 1.55893 0
M  V30 3511 S 329.295 -4.12593 1.49373 0
M  V30 3512 H 326.113 -0.623156 0.342341 0
M  V30 3513 H 328.715 -1.27943 1.47821 0
M  V30 3514 H 327.419 -3.16165 2.61664 0
M  V30 3515 H 326.95 -3.79631 1.0317 0
M  V30 3516 H 328.965 -4.93753 0.492196 0
M  V30 3517 N 328.138 -0.959301 -1.25041 0
M  V30 3518 C 329.387 -0.612254 -1.92183 0
M  V30 3519 C 329.7 0.855347 -1.75907 0
M  V30 3520 O 330.906 1.31256 -2.37664 0
M  V30 3521 C 329.362 -1.04435 -3.44414 0
M  V30 3522 C 328.97 -2.53482 -3.69393 0
M  V30 3523 C 330.714 -0.770055 -4.17457 0
M  V30 3524 C 328.621 -2.90468 -5.15153 0
M  V30 3525 H 327.551 -0.225279 -0.719559 0
M  V30 3526 H 330.202 -1.16438 -1.41825 0
M  V30 3527 H 328.584 -0.4206 -3.9376 0
M  V30 3528 H 329.758 -3.20916 -3.30681 0
M  V30 3529 H 328.073 -2.78432 -3.0962 0
M  V30 3530 H 330.67 -1.02249 -5.24832 0
M  V30 3531 H 331.013 0.293611 -4.15263 0
M  V30 3532 H 331.546 -1.35437 -3.74034 0
M  V30 3533 H 328.285 -3.95871 -5.22462 0
M  V30 3534 H 327.805 -2.27711 -5.54894 0
M  V30 3535 H 329.484 -2.79914 -5.83315 0
M  V30 3536 N 329.616 1.39756 -0.72842 0
M  V30 3537 C 330.862 2.01425 -0.282761 0
M  V30 3538 C 331.217 1.56754 1.11561 0
M  V30 3539 O 330.51 0.783482 1.74849 0
M  V30 3540 C 330.704 3.56002 -0.315776 0
M  V30 3541 C 330.533 4.1568 -1.71582 0
M  V30 3542 C 329.303 4.48555 -2.32651 0
M  V30 3543 C 331.501 4.39667 -2.66829 0
M  V30 3544 N 329.483 4.93698 -3.64877 0
M  V30 3545 C 330.854 4.86942 -3.8378 0
M  V30 3546 C 332.909 4.21724 -2.64675 0
M  V30 3547 C 331.612 5.18158 -4.98904 0
M  V30 3548 C 333.638 4.54049 -3.78937 0
M  V30 3549 C 333 5.01525 -4.94623 0
M  V30 3550 H 329.099 0.76756 -0.149583 0
M  V30 3551 H 331.683 1.69784 -0.952976 0
M  V30 3552 H 329.854 3.87046 0.324057 0
M  V30 3553 H 331.586 4.0443 0.147808 0
M  V30 3554 H 328.341 4.36128 -1.84633 0
M  V30 3555 H 328.765 5.20635 -4.32744 0
M  V30 3556 H 333.407 3.84228 -1.76433 0
M  V30 3557 H 331.125 5.54562 -5.87781 0
M  V30 3558 H 334.711 4.41795 -3.78561 0
M  V30 3559 H 333.591 5.26065 -5.81572 0
M  V30 3560 N 331.094 0.475555 1.50254 0
M  V30 3561 C 332.041 -0.316293 2.28622 0
M  V30 3562 C 333.011 -0.983227 1.33873 0
M  V30 3563 O 334.196 -0.994805 1.62814 0
M  V30 3564 C 331.336 -1.38975 3.1588 0
M  V30 3565 C 330.449 -0.737146 4.25664 0
M  V30 3566 C 329.584 -1.78887 5.00173 0
M  V30 3567 C 328.623 -1.11676 6.01826 0
M  V30 3568 N 327.76 -2.11154 6.69596 0
M  V30 3569 H 332.6 0.358297 2.95838 0
M  V30 3570 H 330.137 0.188541 1.45887 0
M  V30 3571 H 332.095 -2.02383 3.64825 0
M  V30 3572 H 330.725 -2.03344 2.50701 0
M  V30 3573 H 329.777 0.0096065 3.80399 0
M  V30 3574 H 331.089 -0.206816 4.98371 0
M  V30 3575 H 330.243 -2.49865 5.52859 0
M  V30 3576 H 328.982 -2.35302 4.27182 0
M  V30 3577 H 327.987 -0.392633 5.48396 0
M  V30 3578 H 329.212 -0.55945 6.76792 0
M  V30 3579 H 327.158 -2.66577 5.99394 0
M  V30 3580 H 327.075 -1.63118 7.38193 0
M  V30 3581 H 328.343 -2.81497 7.26897 0
M  V30 3582 N 332.573 -1.56217 0.208337 0
M  V30 3583 C 333.821 -1.97558 -0.426076 0
M  V30 3584 C 334.142 -1.09683 -1.61229 0
M  V30 3585 O 333.412 -0.170956 -1.95153 0
M  V30 3586 H 331.992 -0.729575 -0.160405 0
M  V30 3587 H 334.654 -1.92606 0.298155 0
M  V30 3588 H 333.75 -3.02672 -0.761312 0
M  V30 3589 N 334.051 0.0651679 -1.57465 0
M  V30 3590 C 335.297 0.764193 -1.87851 0
M  V30 3591 C 335.63 1.76889 -0.801495 0
M  V30 3592 O 334.905 1.93594 0.187528 0
M  V30 3593 C 335.188 1.46625 -3.28897 0
M  V30 3594 C 335.041 0.477515 -4.47258 0
M  V30 3595 C 336.36 2.4095 -3.68281 0
M  V30 3596 H 333.479 0.276351 -0.683227 0
M  V30 3597 H 336.121 0.0272868 -1.8998 0
M  V30 3598 H 334.271 2.09438 -3.27212 0
M  V30 3599 H 335.943 -0.145922 -4.61069 0
M  V30 3600 H 334.186 -0.206576 -4.33308 0
M  V30 3601 H 334.857 1.0065 -5.42746 0
M  V30 3602 H 337.333 1.88209 -3.71102 0
M  V30 3603 H 336.209 2.87072 -4.67847 0
M  V30 3604 H 336.47 3.26049 -2.98571 0
M  V30 3605 N 335.529 1.53961 0.336706 0
M  V30 3606 C 336.476 1.82428 1.41381 0
M  V30 3607 C 337.446 0.670444 1.51968 0
M  V30 3608 O 338.631 0.915565 1.67398 0
M  V30 3609 C 335.771 2.04564 2.77934 0
M  V30 3610 C 334.884 3.32267 2.76084 0
M  V30 3611 C 334.019 3.44434 4.04399 0
M  V30 3612 C 333.058 4.66061 3.96804 0
M  V30 3613 N 332.195 4.75224 5.16823 0
M  V30 3614 H 337.035 2.74324 1.16405 0
M  V30 3615 H 334.572 1.35869 0.563752 0
M  V30 3616 H 336.53 2.15388 3.57301 0
M  V30 3617 H 335.16 1.15974 3.01247 0
M  V30 3618 H 334.212 3.3025 1.88784 0
M  V30 3619 H 335.524 4.21733 2.66351 0
M  V30 3620 H 334.678 3.54728 4.92192 0
M  V30 3621 H 333.417 2.53037 4.16921 0
M  V30 3622 H 332.422 4.55838 3.07396 0
M  V30 3623 H 333.647 5.58829 3.85858 0
M  V30 3624 H 331.593 3.86739 5.29876 0
M  V30 3625 H 331.51 5.58636 5.09374 0
M  V30 3626 H 332.778 4.89835 6.06367 0
M  V30 3627 N 337.007 -0.598083 1.45811 0
M  V30 3628 C 338.232 -1.3881 1.54099 0
M  V30 3629 C 338.657 -1.8726 0.177578 0
M  V30 3630 O 338.015 -1.6069 -0.839541 0
M  V30 3631 C 338.063 -2.56217 2.53743 0
M  V30 3632 O 337.167 -3.5716 2.06182 0
M  V30 3633 H 336.508 -0.414024 0.519115 0
M  V30 3634 H 339.038 -0.726971 1.91249 0
M  V30 3635 H 339.048 -3.03337 2.72856 0
M  V30 3636 H 337.723 -2.20303 3.5276 0
M  V30 3637 H 336.3 -3.16624 1.96987 0
M  V30 3638 N 338.485 -1.33259 -0.841409 0
M  V30 3639 C 339.713 -1.27605 -1.62864 0
M  V30 3640 C 340.128 0.153507 -1.88175 0
M  V30 3641 O 339.485 1.09485 -1.46011 0
M  V30 3642 C 339.536 -2.04596 -2.98031 0
M  V30 3643 O 339.257 -3.41975 -2.73834 0
M  V30 3644 C 340.758 -2.06122 -3.92465 0
M  V30 3645 H 337.978 -0.439718 -0.506842 0
M  V30 3646 H 340.522 -1.75591 -1.04824 0
M  V30 3647 H 338.677 -1.60299 -3.5268 0
M  V30 3648 H 339.091 -3.81549 -3.59889 0
M  V30 3649 H 340.565 -2.64451 -4.84531 0
M  V30 3650 H 341.042 -1.05083 -4.26444 0
M  V30 3651 H 341.648 -2.50427 -3.43753 0
M  V30 3652 N 339.963 1.05934 -1.16686 0
M  V30 3653 C 341.211 1.78447 -0.948744 0
M  V30 3654 C 341.532 1.87813 0.524523 0
M  V30 3655 O 340.802 1.38945 1.38098 0
M  V30 3656 H 339.382 0.660971 -0.348033 0
M  V30 3657 H 342.044 1.27947 -1.47022 0
M  V30 3658 H 341.14 2.80394 -1.37061 0
M  V30 3659 N 341.441 0.965919 1.2453 0
M  V30 3660 C 342.388 0.49402 2.25451 0
M  V30 3661 C 343.358 -0.45948 1.59618 0
M  V30 3662 O 344.543 -0.370238 1.87173 0
M  V30 3663 C 341.683 -0.211359 3.44452 0
M  V30 3664 C 340.796 0.7807 4.24887 0
M  V30 3665 C 339.931 0.0516105 5.31175 0
M  V30 3666 C 338.97 1.03385 6.03306 0
M  V30 3667 N 338.107 0.334887 7.01301 0
M  V30 3668 H 342.947 1.35946 2.65184 0
M  V30 3669 H 340.484 0.681515 1.3036 0
M  V30 3670 H 342.442 -0.637 4.12308 0
M  V30 3671 H 341.072 -1.04077 3.05562 0
M  V30 3672 H 340.124 1.32479 3.56586 0
M  V30 3673 H 341.436 1.52978 4.74762 0
M  V30 3674 H 340.59 -0.432114 6.05159 0
M  V30 3675 H 339.329 -0.730179 4.82203 0
M  V30 3676 H 338.334 1.52847 5.28127 0
M  V30 3677 H 339.559 1.81606 6.54367 0
M  V30 3678 H 337.505 -0.427959 6.54603 0
M  V30 3679 H 337.422 1.02287 7.49048 0
M  V30 3680 H 338.69 -0.126928 7.79397 0
M  V30 3681 N 342.919 -1.39368 0.735821 0
M  V30 3682 C 344.165 -2.00794 0.284544 0
M  V30 3683 C 344.498 -1.58255 -1.12557 0
M  V30 3684 O 343.773 -0.811819 -1.76748 0
M  V30 3685 C 344.056 -3.58011 0.387337 0
M  V30 3686 C 343.909 -4.10566 1.83728 0
M  V30 3687 C 345.228 -4.395 -0.22975 0
M  V30 3688 H 342.347 -0.729501 0.104866 0
M  V30 3689 H 344.989 -1.65564 0.93213 0
M  V30 3690 H 343.139 -3.88154 -0.164006 0
M  V30 3691 H 344.811 -3.91139 2.44556 0
M  V30 3692 H 343.054 -3.64095 2.35833 0
M  V30 3693 H 343.725 -5.19702 1.86047 0
M  V30 3694 H 346.201 -4.15406 0.240257 0
M  V30 3695 H 345.077 -5.48752 -0.127485 0
M  V30 3696 H 345.338 -4.22062 -1.3159 0
M  V30 3697 N 344.397 -0.483516 -1.5 0
M  V30 3698 C 345.643 0.0672592 -2.02688 0
M  V30 3699 C 345.976 1.38247 -1.36387 0
M  V30 3700 O 345.251 1.88131 -0.493675 0
M  V30 3701 C 345.534 0.238109 -3.59312 0
M  V30 3702 C 345.387 -1.099 -4.36168 0
M  V30 3703 C 346.706 0.986916 -4.28892 0
M  V30 3704 H 343.825 0.0229696 -0.736642 0
M  V30 3705 H 346.467 -0.631527 -1.79197 0
M  V30 3706 H 344.617 0.8333 -3.79458 0
M  V30 3707 H 346.289 -1.73172 -4.27562 0
M  V30 3708 H 344.532 -1.69261 -3.99416 0
M  V30 3709 H 345.203 -0.932954 -5.44059 0
M  V30 3710 H 347.679 0.482302 -4.13295 0
M  V30 3711 H 346.555 1.07527 -5.38265 0
M  V30 3712 H 346.816 2.0265 -3.92919 0
M  V30 3713 N 345.875 1.56104 -0.216619 0
M  V30 3714 C 347.105 2.02269 0.420802 0
M  V30 3715 C 347.513 1.09575 1.5424 0
M  V30 3716 O 346.856 0.0967308 1.83445 0
M  V30 3717 C 346.918 3.44784 1.01806 0
M  V30 3718 C 346.582 4.56988 0.0325154 0
M  V30 3719 C 347.579 5.14225 -0.766055 0
M  V30 3720 C 345.264 5.02228 -0.0848092 0
M  V30 3721 C 347.258 6.15169 -1.6687 0
M  V30 3722 C 344.945 6.03011 -0.990994 0
M  V30 3723 C 345.943 6.59357 -1.78149 0
M  V30 3724 O 345.631 7.58179 -2.67245 0
M  V30 3725 H 345.363 0.667353 0.107776 0
M  V30 3726 H 347.917 2.02747 -0.329034 0
M  V30 3727 H 346.147 3.41359 1.81689 0
M  V30 3728 H 347.836 3.74626 1.56237 0
M  V30 3729 H 348.602 4.80126 -0.685836 0
M  V30 3730 H 344.481 4.58054 0.520349 0
M  V30 3731 H 348.025 6.59076 -2.28615 0
M  V30 3732 H 343.922 6.36532 -1.07225 0
M  V30 3733 H 344.69 7.75682 -2.61265 0
M  V30 3734 N 347.353 -0.0568162 1.57498 0
M  V30 3735 C 348.6 -0.753104 1.87975 0
M  V30 3736 C 348.928 -1.76815 0.81035 0
M  V30 3737 O 348.183 -1.94756 -0.19199 0
M  V30 3738 C 348.482 -1.48359 3.25153 0
M  V30 3739 C 348.148 -0.60713 4.46794 0
M  V30 3740 C 346.81 -0.365642 4.79809 0
M  V30 3741 C 349.162 -0.000305978 5.212 0
M  V30 3742 C 346.49 0.491905 5.84634 0
M  V30 3743 C 348.842 0.844781 6.26934 0
M  V30 3744 C 347.506 1.096 6.58441 0
M  V30 3745 H 346.776 -0.27558 0.687849 0
M  V30 3746 H 349.423 -0.0135173 1.91495 0
M  V30 3747 H 347.728 -2.29577 3.17492 0
M  V30 3748 H 349.425 -2.02739 3.45974 0
M  V30 3749 H 346.015 -0.805487 4.20963 0
M  V30 3750 H 350.199 -0.173961 4.95995 0
M  V30 3751 H 345.455 0.695131 6.07436 0
M  V30 3752 H 349.629 1.32165 6.83744 0
M  V30 3753 H 347.256 1.76224 7.39492 0
M  V30 3754 N 348.832 -1.54138 -0.328536 0
M  V30 3755 C 350.06 -1.76062 -1.08673 0
M  V30 3756 C 350.475 -0.506852 -1.81869 0
M  V30 3757 O 349.832 0.522223 -1.74869 0
M  V30 3758 C 349.883 -2.95054 -2.08866 0
M  V30 3759 O 349.604 -4.15583 -1.38644 0
M  V30 3760 C 351.105 -3.2915 -2.96943 0
M  V30 3761 H 348.325 -0.587889 -0.323461 0
M  V30 3762 H 350.869 -2.0101 -0.376175 0
M  V30 3763 H 349.024 -2.72394 -2.75464 0
M  V30 3764 H 349.438 -4.82481 -2.05699 0
M  V30 3765 H 350.912 -4.15723 -3.63151 0
M  V30 3766 H 351.389 -2.461 -3.63774 0
M  V30 3767 H 351.995 -3.53871 -2.35914 0
M  V30 3768 N 350.31 0.590341 -1.46126 0
M  V30 3769 C 351.273 1.68194 -1.55703 0
M  V30 3770 C 352.273 1.54808 -0.434868 0
M  V30 3771 O 353.463 1.59564 -0.698928 0
M  V30 3772 C 350.595 3.07575 -1.47005 0
M  V30 3773 H 351.788 1.61064 -2.52979 0
M  V30 3774 H 349.341 0.807541 -1.33823 0
M  V30 3775 H 350.076 3.20268 -0.509785 0
M  V30 3776 H 349.861 3.187 -2.28414 0
M  V30 3777 H 351.351 3.87055 -1.56776 0
M  V30 3778 N 351.788 1.33704 0.83433 0
M  V30 3779 C 353.016 1.28467 1.62185 0
M  V30 3780 C 353.431 -0.143526 1.88254 0
M  V30 3781 O 352.788 -1.08709 1.4659 0
M  V30 3782 C 352.839 2.06174 2.96942 0
M  V30 3783 O 352.56 3.43422 2.72016 0
M  V30 3784 C 354.061 2.08201 3.91366 0
M  V30 3785 H 351.281 0.4424 0.504503 0
M  V30 3786 H 353.825 1.76145 1.03891 0
M  V30 3787 H 351.98 1.62167 3.51825 0
M  V30 3788 H 352.394 3.83453 3.57861 0
M  V30 3789 H 353.868 2.67017 4.83121 0
M  V30 3790 H 354.345 1.07343 4.2588 0
M  V30 3791 H 354.951 2.52246 3.42421 0
M  V30 3792 N 353.266 -1.05314 1.17247 0
M  V30 3793 C 354.513 -1.78293 0.960091 0
M  V30 3794 C 354.841 -1.87658 -0.51136 0
M  V30 3795 O 354.096 -1.3718 -1.39571 0
M  V30 3796 C 354.395 -3.2229 1.54479 0
M  V30 3797 C 354.061 -3.32987 3.04024 0
M  V30 3798 C 352.723 -3.35613 3.44844 0
M  V30 3799 C 355.075 -3.34102 4.00031 0
M  V30 3800 C 352.403 -3.36982 4.8027 0
M  V30 3801 C 354.755 -3.3701 5.35357 0
M  V30 3802 C 353.419 -3.37923 5.75642 0
M  V30 3803 H 352.689 -0.652422 0.351322 0
M  V30 3804 H 355.336 -1.23782 1.46117 0
M  V30 3805 H 353.641 -3.7972 0.965391 0
M  V30 3806 H 355.338 -3.77376 1.35603 0
M  V30 3807 H 351.928 -3.31655 2.71483 0
M  V30 3808 H 356.112 -3.31276 3.69554 0
M  V30 3809 H 351.368 -3.35999 5.10798 0
M  V30 3810 H 355.542 -3.36822 6.09528 0
M  V30 3811 H 353.169 -3.38738 6.80559 0
M  V30 3812 N 354.744 -0.972509 -1.24016 0
M  V30 3813 C 356.155 -0.67517 -1.74064 0
M  V30 3814 C 356.506 0.808939 -1.78747 0
M  V30 3815 O 355.631 1.63286 -1.42009 0
M  V30 3816 C 356.226 -1.21889 -3.16115 0
M  V30 3817 C 354.785 -0.971358 -3.6365 0
M  V30 3818 C 353.932 -1.35134 -2.42145 0
M  V30 3819 H 356.883 -1.14727 -1.09651 0
M  V30 3820 H 356.904 -0.587489 -3.75937 0
M  V30 3821 H 356.416 -2.29906 -3.12674 0
M  V30 3822 H 354.517 0.0930686 -3.72484 0
M  V30 3823 H 354.63 -1.62039 -4.50866 0
M  V30 3824 H 352.994 -0.769751 -2.4279 0
M  V30 3825 H 353.777 -2.4411 -2.41381 0
M  V30 3826 N 356.222 1.38976 -0.743202 0
M  V30 3827 C 357.452 2.04339 -0.304807 0
M  V30 3828 C 357.86 1.56162 1.06819 0
M  V30 3829 O 357.203 0.725284 1.68776 0
M  V30 3830 C 357.265 3.58716 -0.237369 0
M  V30 3831 C 356.929 4.29905 -1.55018 0
M  V30 3832 C 357.926 4.55987 -2.49744 0
M  V30 3833 C 355.611 4.68294 -1.81675 0
M  V30 3834 C 357.605 5.19478 -3.69353 0
M  V30 3835 C 355.292 5.31512 -3.0156 0
M  V30 3836 C 356.29 5.57037 -3.9522 0
M  V30 3837 O 355.978 6.18941 -5.12998 0
M  V30 3838 H 355.71 0.663439 -0.12971 0
M  V30 3839 H 358.264 1.78852 -1.01001 0
M  V30 3840 H 356.494 3.83133 0.524003 0
M  V30 3841 H 358.183 4.05543 0.170121 0
M  V30 3842 H 358.949 4.26767 -2.30423 0
M  V30 3843 H 354.828 4.47779 -1.09615 0
M  V30 3844 H 358.372 5.39318 -4.42473 0
M  V30 3845 H 354.269 5.60153 -3.20778 0
M  V30 3846 H 355.037 6.37433 -5.13441 0
M  V30 3847 N 357.7 0.491464 1.49741 0
M  V30 3848 C 358.63 -0.28154 2.31796 0
M  V30 3849 C 359.611 -0.971473 1.3963 0
M  V30 3850 O 360.796 -0.964719 1.68543 0
M  V30 3851 C 357.926 -1.35203 3.19902 0
M  V30 3852 C 356.88 -0.782529 4.20786 0
M  V30 3853 C 356.206 -1.95283 4.97764 0
M  V30 3854 C 357.506 0.21999 5.21837 0
M  V30 3855 H 359.2 0.403355 2.96671 0
M  V30 3856 H 356.746 0.195425 1.42668 0
M  V30 3857 H 358.699 -1.90045 3.76113 0
M  V30 3858 H 357.423 -2.06598 2.52953 0
M  V30 3859 H 356.082 -0.255928 3.65706 0
M  V30 3860 H 355.73 -2.65423 4.2727 0
M  V30 3861 H 355.43 -1.57789 5.66018 0
M  V30 3862 H 356.954 -2.50577 5.56816 0
M  V30 3863 H 358.368 -0.23996 5.72798 0
M  V30 3864 H 356.765 0.51026 5.97927 0
M  V30 3865 H 357.835 1.13911 4.7133 0
M  V30 3866 N 359.178 -1.55987 0.224894 0
M  V30 3867 C 360.111 -2.16413 -0.723929 0
M  V30 3868 C 361.089 -1.10952 -1.18863 0
M  V30 3869 O 362.273 -1.39225 -1.27077 0
M  V30 3870 C 359.4 -2.74711 -1.98121 0
M  V30 3871 C 358.446 -3.9303 -1.6562 0
M  V30 3872 S 359.279 -5.29817 -0.778058 0
M  V30 3873 C 360.435 -5.91555 -2.04483 0
M  V30 3874 H 360.668 -2.96555 -0.210347 0
M  V30 3875 H 358.201 -1.54397 0.00955457 0
M  V30 3876 H 360.159 -3.08938 -2.70311 0
M  V30 3877 H 358.82 -1.94555 -2.46591 0
M  V30 3878 H 358.013 -4.32334 -2.59043 0
M  V30 3879 H 357.615 -3.59966 -1.01491 0
M  V30 3880 H 359.907 -6.07732 -2.99446 0
M  V30 3881 H 360.85 -6.87498 -1.69563 0
M  V30 3882 H 361.258 -5.20419 -2.18688 0
M  V30 3883 N 360.656 0.0484629 -1.57525 0
M  V30 3884 C 361.586 1.0549 -2.08313 0
M  V30 3885 C 362.567 1.38929 -0.981463 0
M  V30 3886 O 363.752 1.48151 -1.25558 0
M  V30 3887 C 360.882 2.36162 -2.54646 0
M  V30 3888 C 359.836 2.17016 -3.68901 0
M  V30 3889 C 359.162 3.53278 -4.01371 0
M  V30 3890 C 360.462 1.57219 -4.98076 0
M  V30 3891 H 362.156 0.632195 -2.92649 0
M  V30 3892 H 359.702 0.302654 -1.40784 0
M  V30 3893 H 361.655 3.06882 -2.88793 0
M  V30 3894 H 360.379 2.80456 -1.67368 0
M  V30 3895 H 359.038 1.48733 -3.35073 0
M  V30 3896 H 358.686 3.95185 -3.11188 0
M  V30 3897 H 358.386 3.41299 -4.78318 0
M  V30 3898 H 359.91 4.25391 -4.38035 0
M  V30 3899 H 361.324 2.17832 -5.30304 0
M  V30 3900 H 359.721 1.55871 -5.79503 0
M  V30 3901 H 360.791 0.535956 -4.81929 0
M  V30 3902 N 362.134 1.5431 0.320358 0
M  V30 3903 C 363.38 1.72924 1.05949 0
M  V30 3904 C 363.713 0.503185 1.87568 0
M  V30 3905 O 362.988 -0.499839 1.87968 0
M  V30 3906 C 363.271 3.00676 1.98156 0
M  V30 3907 C 363.124 4.3354 1.19845 0
M  V30 3908 C 364.443 3.24198 2.9763 0
M  V30 3909 H 361.562 0.629195 0.383774 0
M  V30 3910 H 364.204 1.87008 0.335854 0
M  V30 3911 H 362.354 2.888 2.59859 0
M  V30 3912 H 364.026 4.57305 0.605773 0
M  V30 3913 H 362.269 4.309 0.500784 0
M  V30 3914 H 362.94 5.19156 1.87567 0
M  V30 3915 H 365.416 3.35557 2.4605 0
M  V30 3916 H 364.292 4.14938 3.59329 0
M  V30 3917 H 364.553 2.41577 3.7026 0
M  V30 3918 N 363.613 -0.582584 1.46437 0
M  V30 3919 C 364.859 -1.34278 1.51978 0
M  V30 3920 C 365.192 -1.93446 0.170973 0
M  V30 3921 O 364.467 -1.76481 -0.817608 0
M  V30 3922 C 364.75 -2.47203 2.61845 0
M  V30 3923 C 364.603 -1.93069 4.06257 0
M  V30 3924 C 365.922 -3.49247 2.67795 0
M  V30 3925 H 363.041 -0.486876 0.553282 0
M  V30 3926 H 365.683 -0.654437 1.78374 0
M  V30 3927 H 363.833 -3.0592 2.39469 0
M  V30 3928 H 365.505 -1.38808 4.3992 0
M  V30 3929 H 363.748 -1.23898 4.1573 0
M  V30 3930 H 364.419 -2.74586 4.7886 0
M  V30 3931 H 366.895 -3.00411 2.8791 0
M  V30 3932 H 365.771 -4.25719 3.46489 0
M  V30 3933 H 366.032 -4.06482 1.73852 0
M  V30 3934 N 365.091 -1.34144 -0.827227 0
M  V30 3935 C 366.021 -1.28005 -1.95287 0
M  V30 3936 C 367.002 -0.158321 -1.69362 0
M  V30 3937 O 368.187 -0.349987 -1.9102 0
M  V30 3938 C 365.317 -1.03036 -3.31664 0
M  V30 3939 C 364.271 -2.11628 -3.72019 0
M  V30 3940 C 363.597 -1.71854 -5.0633 0
M  V30 3941 C 364.897 -3.53417 -3.8457 0
M  V30 3942 H 366.591 -2.22187 -2.00682 0
M  V30 3943 H 364.137 -1.0696 -0.964135 0
M  V30 3944 H 366.09 -0.973863 -4.09993 0
M  V30 3945 H 364.814 -0.0529391 -3.26557 0
M  V30 3946 H 363.473 -2.16339 -2.95961 0
M  V30 3947 H 363.121 -0.727841 -4.97706 0
M  V30 3948 H 362.821 -2.44531 -5.34302 0
M  V30 3949 H 364.345 -1.67692 -5.87122 0
M  V30 3950 H 365.759 -3.51142 -4.5318 0
M  V30 3951 H 364.156 -4.24679 -4.2399 0
M  V30 3952 H 365.226 -3.91072 -2.86689 0
M  V30 3953 N 366.569 1.04691 -1.17803 0
M  V30 3954 C 367.499 2.14494 -0.92275 0
M  V30 3955 C 368.48 1.69546 0.137179 0
M  V30 3956 O 369.665 1.94195 -0.0141108 0
M  V30 3957 C 366.795 3.44491 -0.440803 0
M  V30 3958 C 365.749 4.03031 -1.4405 0
M  V30 3959 C 365.075 5.28432 -0.81631 0
M  V30 3960 C 366.375 4.39932 -2.81527 0
M  V30 3961 H 368.069 2.36107 -1.84103 0
M  V30 3962 H 365.615 1.1347 -0.886599 0
M  V30 3963 H 367.568 4.2066 -0.249602 0
M  V30 3964 H 366.292 3.22546 0.513025 0
M  V30 3965 H 364.951 3.28937 -1.61853 0
M  V30 3966 H 364.599 5.02792 0.144511 0
M  V30 3967 H 364.299 5.68559 -1.48371 0
M  V30 3968 H 365.823 6.07284 -0.635496 0
M  V30 3969 H 367.237 5.07113 -2.67412 0
M  V30 3970 H 365.634 4.9109 -3.44892 0
M  V30 3971 H 366.704 3.50045 -3.35554 0
M  V30 3972 N 368.047 0.979072 1.23499 0
M  V30 3973 C 369.296 0.642751 1.91185 0
M  V30 3974 C 369.609 -0.827253 1.77245 0
M  V30 3975 O 370.815 -1.27458 2.39722 0
M  V30 3976 C 369.271 1.09901 3.42709 0
M  V30 3977 C 368.879 2.59327 3.65313 0
M  V30 3978 C 370.623 0.836371 4.16179 0
M  V30 3979 C 368.53 2.98627 5.10467 0
M  V30 3980 H 367.46 0.236698 0.715884 0
M  V30 3981 H 370.111 1.1868 1.39955 0
M  V30 3982 H 368.493 0.48319 3.93041 0
M  V30 3983 H 369.667 3.26136 3.25533 0
M  V30 3984 H 367.982 2.83323 3.05151 0
M  V30 3985 H 370.579 1.10586 5.23139 0
M  V30 3986 H 370.922 -0.227509 4.15678 0
M  V30 3987 H 371.455 1.41371 3.71832 0
M  V30 3988 H 368.194 4.04133 5.16098 0
M  V30 3989 H 367.714 2.3651 5.51201 0
M  V30 3990 H 369.393 2.89159 5.78788 0
M  V30 3991 N 369.525 -1.3858 0.750561 0
M  V30 3992 C 370.941 -1.53759 0.427824 0
M  V30 3993 C 371.141 -1.71401 -1.05943 0
M  V30 3994 O 370.197 -1.72331 -1.84549 0
M  V30 3995 C 371.51 -2.74642 1.22443 0
M  V30 3996 C 373.058 -2.88489 1.2142 0
M  V30 3997 C 373.533 -4.12329 1.9937 0
M  V30 3998 N 375.024 -4.194 1.96616 0
M  V30 3999 C 375.759 -5.14209 2.53727 0
M  V30 4000 N 375.255 -6.14709 3.19539 0
M  V30 4001 N 377.048 -5.06537 2.43673 0
M  V30 4002 H 369.199 -1.25377 1.71447 0
M  V30 4003 H 371.462 -0.608844 0.726645 0
M  V30 4004 H 371.168 -2.68 2.27747 0
M  V30 4005 H 371.042 -3.67745 0.839273 0
M  V30 4006 H 373.429 -2.94614 0.169232 0
M  V30 4007 H 373.51 -1.96406 1.63885 0
M  V30 4008 H 373.154 -4.06966 3.03877 0
M  V30 4009 H 373.084 -5.03486 1.54302 0
M  V30 4010 H 375.575 -3.47421 1.48684 0
M  V30 4011 H 375.888 -6.8354 3.60545 0
M  V30 4012 H 374.233 -6.1505 3.23633 0
M  V30 4013 H 377.424 -4.26962 1.91889 0
M  V30 4014 H 377.597 -5.80245 2.88479 0
M  V30 4015 N 371.003 -0.499398 -1.49478 0
M  V30 4016 C 372.251 0.0455996 -2.02049 0
M  V30 4017 C 372.572 1.37633 -1.38138 0
M  V30 4018 O 371.842 1.8842 -0.536166 0
M  V30 4019 H 370.422 0.0198416 -0.746736 0
M  V30 4020 H 373.084 -0.656274 -1.83519 0
M  V30 4021 H 372.18 0.176445 -3.11601 0
M  V30 4022 N 372.481 1.55866 -0.233164 0
M  V30 4023 C 373.727 1.98897 0.395959 0
M  V30 4024 C 374.06 1.12091 1.58585 0
M  V30 4025 O 373.335 0.181182 1.93654 0
M  V30 4026 C 373.618 3.50658 0.819224 0
M  V30 4027 C 373.471 4.48233 -0.375109 0
M  V30 4028 C 374.79 4.07135 1.67121 0
M  V30 4029 H 371.909 0.723102 0.142451 0
M  V30 4030 H 374.551 1.87082 -0.331725 0
M  V30 4031 H 372.701 3.60857 1.43925 0
M  V30 4032 H 374.373 4.50031 -1.01341 0
M  V30 4033 H 372.616 4.21624 -1.02058 0
M  V30 4034 H 373.287 5.51988 -0.0358328 0
M  V30 4035 H 375.763 3.99952 1.14795 0
M  V30 4036 H 374.639 5.13615 1.93625 0
M  V30 4037 H 374.9 3.54736 2.63846 0
M  V30 4038 N 373.959 -0.0401083 1.57549 0
M  V30 4039 C 375.187 -0.745196 1.93014 0
M  V30 4040 C 375.602 -1.6948 0.831984 0
M  V30 4041 O 374.959 -1.81482 -0.192463 0
M  V30 4042 C 375.01 -1.51176 3.28372 0
M  V30 4043 O 374.731 -0.600284 4.33968 0
M  V30 4044 C 376.232 -2.315 3.78051 0
M  V30 4045 H 373.452 -0.210088 0.637263 0
M  V30 4046 H 375.996 -0.000924689 2.045 0
M  V30 4047 H 374.151 -2.20801 3.18317 0
M  V30 4048 H 374.565 -1.13669 5.12035 0
M  V30 4049 H 376.039 -2.80697 4.75303 0
M  V30 4050 H 376.516 -3.12436 3.08675 0
M  V30 4051 H 377.122 -1.66971 3.91153 0
M  V30 4052 N 375.437 -1.54477 -0.31217 0
M  V30 4053 C 376.367 -1.87652 -1.38957 0
M  V30 4054 C 377.348 -0.734358 -1.53431 0
M  V30 4055 O 378.533 -0.98911 -1.67123 0
M  V30 4056 C 375.663 -2.11396 -2.75552 0
M  V30 4057 C 374.617 -3.27243 -2.75855 0
M  V30 4058 C 373.943 -3.36382 -4.15633 0
M  V30 4059 C 375.243 -4.64622 -2.38587 0
M  V30 4060 H 376.937 -2.77887 -1.11442 0
M  V30 4061 H 374.483 -1.33707 -0.534655 0
M  V30 4062 H 376.436 -2.33189 -3.51 0
M  V30 4063 H 375.16 -1.17921 -3.04569 0
M  V30 4064 H 373.819 -3.05356 -2.02863 0
M  V30 4065 H 373.467 -2.40445 -4.41809 0
M  V30 4066 H 373.167 -4.14249 -4.1674 0
M  V30 4067 H 374.691 -3.60422 -4.92877 0
M  V30 4068 H 376.105 -4.86219 -3.03749 0
M  V30 4069 H 374.502 -5.45121 -2.50925 0
M  V30 4070 H 375.572 -4.66097 -1.33723 0
M  V30 4071 N 376.915 0.57481 -1.46744 0
M  V30 4072 C 378.326 1.15695 -1.46532 0
M  V30 4073 C 378.677 1.95068 -0.210425 0
M  V30 4074 O 377.802 2.05241 0.685944 0
M  V30 4075 C 378.397 2.1048 -2.65487 0
M  V30 4076 C 376.956 2.64002 -2.68291 0
M  V30 4077 C 376.103 1.40026 -2.39349 0
M  V30 4078 H 379.054 0.362325 -1.54509 0
M  V30 4079 H 379.075 2.94074 -2.41455 0
M  V30 4080 H 378.587 1.52683 -3.56805 0
M  V30 4081 H 376.688 3.25646 -1.81067 0
M  V30 4082 H 376.801 3.06197 -3.68483 0
M  V30 4083 H 375.165 1.70106 -1.89568 0
M  V30 4084 H 375.948 0.840485 -3.32852 0
M  V30 4085 N 378.394 1.34581 0.820102 0
M  V30 4086 C 379.642 1.26845 1.57336 0
M  V30 4087 C 379.963 -0.160667 1.94337 0
M  V30 4088 O 379.233 -1.09396 1.6251 0
M  V30 4089 H 377.813 0.466514 0.583415 0
M  V30 4090 H 380.475 1.68526 0.979027 0
M  V30 4091 H 379.571 1.87513 2.4949 0
M  V30 4092 N 379.872 -1.04064 1.18357 0
M  V30 4093 C 380.835 -2.10243 0.912707 0
M  V30 4094 C 381.835 -1.60477 -0.101928 0
M  V30 4095 O 383.025 -1.73703 0.131517 0
M  V30 4096 C 380.157 -3.38893 0.369387 0
M  V30 4097 H 381.35 -2.35706 1.85426 0
M  V30 4098 H 378.903 -1.20489 0.995594 0
M  V30 4099 H 379.638 -3.19094 -0.578776 0
M  V30 4100 H 379.423 -3.76331 1.1008 0
M  V30 4101 H 380.913 -4.17128 0.198575 0
M  V30 4102 N 381.35 -0.985608 -1.22978 0
M  V30 4103 C 382.313 -0.535071 -2.22867 0
M  V30 4104 C 383.313 0.378123 -1.56291 0
M  V30 4105 O 384.503 0.171092 -1.73358 0
M  V30 4106 C 381.635 0.222702 -3.40172 0
M  V30 4107 H 382.828 -1.41835 -2.6424 0
M  V30 4108 H 380.381 -0.772042 -1.35901 0
M  V30 4109 H 381.116 1.12229 -3.04262 0
M  V30 4110 H 380.901 -0.43288 -3.89703 0
M  V30 4111 H 382.391 0.526335 -4.1427 0
M  V30 4112 N 382.828 1.3818 -0.7579 0
M  V30 4113 C 383.76 2.2901 -0.0932177 0
M  V30 4114 C 384.773 1.47958 0.679136 0
M  V30 4115 O 385.962 1.70773 0.519514 0
M  V30 4116 C 383.062 3.26953 0.89192 0
M  V30 4117 C 382.235 4.37045 0.176303 0
M  V30 4118 C 381.294 5.15148 1.07281 0
M  V30 4119 O 380.32 5.66616 0.541728 0
M  V30 4120 N 381.522 5.28542 2.40049 0
M  V30 4121 H 384.287 2.86694 -0.873303 0
M  V30 4122 H 381.848 1.50007 -0.609054 0
M  V30 4123 H 383.84 3.76083 1.49479 0
M  V30 4124 H 382.41 2.70136 1.57306 0
M  V30 4125 H 381.63 3.89493 -0.607328 0
M  V30 4126 H 382.918 5.07801 -0.318718 0
M  V30 4127 H 382.316 4.88285 2.85647 0
M  V30 4128 H 380.873 5.8103 2.95376 0
M  V30 4129 N 384.306 0.507319 1.49211 0
M  V30 4130 C 385.554 -0.0348839 2.0207 0
M  V30 4131 C 385.875 -1.36898 1.38866 0
M  V30 4132 O 385.145 -1.88133 0.546151 0
M  V30 4133 H 383.725 -0.0158812 0.746831 0
M  V30 4134 H 386.387 0.665998 1.83168 0
M  V30 4135 H 385.483 -0.159917 3.1169 0
M  V30 4136 N 385.784 -1.5574 0.241426 0
M  V30 4137 C 387.033 -1.97986 -0.385295 0
M  V30 4138 C 387.346 -1.13267 -1.59468 0
M  V30 4139 O 388.552 -1.45501 -2.2922 0
M  V30 4140 C 387.008 -3.52275 -0.736884 0
M  V30 4141 C 386.616 -4.45726 0.450796 0
M  V30 4142 C 388.36 -4.03189 -1.3281 0
M  V30 4143 C 386.267 -5.91352 0.0756662 0
M  V30 4144 H 385.197 -0.739386 -0.147731 0
M  V30 4145 H 387.848 -1.80308 0.340779 0
M  V30 4146 H 386.23 -3.65628 -1.52094 0
M  V30 4147 H 387.404 -4.44131 1.22819 0
M  V30 4148 H 385.719 -4.05264 0.956573 0
M  V30 4149 H 388.316 -5.09505 -1.62201 0
M  V30 4150 H 388.659 -3.50212 -2.25071 0
M  V30 4151 H 389.192 -3.93141 -0.607069 0
M  V30 4152 H 385.931 -6.48354 0.965272 0
M  V30 4153 H 385.451 -5.96095 -0.665635 0
M  V30 4154 H 387.13 -6.46084 -0.344075 0
M  V30 4155 N 387.262 0.0317525 -1.57568 0
M  V30 4156 C 388.194 1.06073 -2.03178 0
M  V30 4157 C 389.207 1.32627 -0.944132 0
M  V30 4158 O 390.396 1.30162 -1.22148 0
M  V30 4159 C 387.496 2.40297 -2.38978 0
M  V30 4160 C 386.669 2.33137 -3.70089 0
M  V30 4161 C 385.728 3.49787 -3.9311 0
M  V30 4162 O 384.754 3.29403 -4.64201 0
M  V30 4163 N 385.956 4.71562 -3.38541 0
M  V30 4164 H 388.721 0.672006 -2.92069 0
M  V30 4165 H 386.282 0.219745 -1.60402 0
M  V30 4166 H 388.274 3.1705 -2.51518 0
M  V30 4167 H 386.844 2.71024 -1.55771 0
M  V30 4168 H 386.064 1.415 -3.67928 0
M  V30 4169 H 387.352 2.25493 -4.56104 0
M  V30 4170 H 386.75 4.91024 -2.80912 0
M  V30 4171 H 385.307 5.45689 -3.56464 0
M  V30 4172 N 388.74 1.54641 0.303973 0
M  V30 4173 C 389.987 1.7378 1.03955 0
M  V30 4174 C 390.315 0.521986 1.87365 0
M  V30 4175 O 389.57 -0.496099 1.89308 0
M  V30 4176 C 389.869 2.97753 1.97681 0
M  V30 4177 C 389.535 4.31671 1.30271 0
M  V30 4178 C 388.197 4.68075 1.11619 0
M  V30 4179 C 390.549 5.147 0.82055 0
M  V30 4180 C 387.877 5.8509 0.434304 0
M  V30 4181 C 390.229 6.32416 0.152395 0
M  V30 4182 C 388.893 6.67484 -0.0461067 0
M  V30 4183 H 388.163 0.635908 0.380398 0
M  V30 4184 H 390.81 1.88896 0.314718 0
M  V30 4185 H 389.115 2.77406 2.76682 0
M  V30 4186 H 390.812 3.09756 2.54661 0
M  V30 4187 H 387.402 4.03041 1.45795 0
M  V30 4188 H 391.586 4.87077 0.952374 0
M  V30 4189 H 386.842 6.10806 0.269495 0
M  V30 4190 H 391.016 6.96023 -0.229126 0
M  V30 4191 H 388.643 7.58011 -0.576494 0
M  V30 4192 N 390.218 -0.567019 1.47046 0
M  V30 4193 C 391.448 -1.34831 1.56538 0
M  V30 4194 C 391.856 -1.8802 0.21101 0
M  V30 4195 O 391.199 -1.65152 -0.804387 0
M  V30 4196 C 391.261 -2.56139 2.52256 0
M  V30 4197 C 390.925 -2.24307 3.98165 0
M  V30 4198 C 391.922 -1.82192 4.86931 0
M  V30 4199 C 389.607 -2.35968 4.43423 0
M  V30 4200 C 391.601 -1.52153 6.18973 0
M  V30 4201 C 389.288 -2.05542 5.75496 0
M  V30 4202 C 390.286 -1.63701 6.63092 0
M  V30 4203 O 389.974 -1.33657 7.92711 0
M  V30 4204 H 389.706 -0.417683 0.531523 0
M  V30 4205 H 392.26 -0.694726 1.93294 0
M  V30 4206 H 390.49 -3.24356 2.10548 0
M  V30 4207 H 392.179 -3.18214 2.51982 0
M  V30 4208 H 392.945 -1.72684 4.53217 0
M  V30 4209 H 388.824 -2.67495 3.75456 0
M  V30 4210 H 392.368 -1.19421 6.87302 0
M  V30 4211 H 388.265 -2.14679 6.08755 0
M  V30 4212 H 389.033 -1.4737 8.05124 0
M  V30 4213 N 391.696 -1.35014 -0.812953 0
M  V30 4214 C 392.626 -1.30069 -1.93919 0
M  V30 4215 C 393.607 -0.176275 -1.69184 0
M  V30 4216 O 394.792 -0.370227 -1.90638 0
M  V30 4217 C 391.922 -1.06547 -3.30552 0
M  V30 4218 C 390.876 -2.15561 -3.69753 0
M  V30 4219 C 390.202 -1.77214 -5.04479 0
M  V30 4220 C 391.502 -3.57476 -3.808 0
M  V30 4221 H 393.196 -2.24303 -1.98314 0
M  V30 4222 H 390.742 -1.07977 -0.952736 0
M  V30 4223 H 392.695 -1.01729 -4.08937 0
M  V30 4224 H 391.419 -0.0875719 -3.26483 0
M  V30 4225 H 390.078 -2.19466 -2.9365 0
M  V30 4226 H 389.726 -0.780589 -4.96906 0
M  V30 4227 H 389.426 -2.50184 -5.31678 0
M  V30 4228 H 390.95 -1.7391 -5.8531 0
M  V30 4229 H 392.364 -3.55929 -4.4943 0
M  V30 4230 H 390.761 -4.29152 -4.19462 0
M  V30 4231 H 391.831 -3.94091 -2.82525 0
M  V30 4232 N 393.175 1.03435 -1.18907 0
M  V30 4233 C 394.405 1.8012 -1.01195 0
M  V30 4234 C 394.813 1.8395 0.442613 0
M  V30 4235 O 394.156 1.27836 1.31923 0
M  V30 4236 C 394.218 3.26792 -1.49823 0
M  V30 4237 C 393.882 3.46609 -2.97844 0
M  V30 4238 C 394.879 3.37278 -3.95651 0
M  V30 4239 C 392.564 3.73001 -3.36416 0
M  V30 4240 C 394.558 3.54054 -5.30023 0
M  V30 4241 C 392.245 3.89423 -4.70949 0
M  V30 4242 C 393.243 3.79951 -5.67562 0
M  V30 4243 O 392.931 3.95895 -6.99659 0
M  V30 4244 H 392.663 0.573865 -0.357289 0
M  V30 4245 H 395.217 1.31207 -1.58031 0
M  V30 4246 H 393.447 3.76703 -0.873578 0
M  V30 4247 H 395.136 3.85055 -1.28404 0
M  V30 4248 H 395.902 3.16846 -3.67197 0
M  V30 4249 H 391.781 3.79469 -2.61772 0
M  V30 4250 H 395.325 3.46577 -6.05417 0
M  V30 4251 H 391.222 4.09351 -4.99101 0
M  V30 4252 H 391.99 4.13019 -7.06653 0
M  V30 4253 N 394.653 0.992116 1.22453 0
M  V30 4254 C 396.064 0.702776 1.72968 0
M  V30 4255 C 396.415 -0.780399 1.80012 0
M  V30 4256 O 395.54 -1.61007 1.44589 0
M  V30 4257 C 396.135 1.26903 3.14135 0
M  V30 4258 C 394.694 1.02909 3.62059 0
M  V30 4259 C 393.841 1.38969 2.39964 0
M  V30 4260 H 396.792 1.16457 1.07812 0
M  V30 4261 H 396.813 0.647223 3.74955 0
M  V30 4262 H 396.325 2.34851 3.08977 0
M  V30 4263 H 394.426 -0.0337979 3.72585 0
M  V30 4264 H 394.539 1.69191 4.48231 0
M  V30 4265 H 392.903 0.808279 2.41535 0
M  V30 4266 H 393.686 2.4792 2.37467 0
M  V30 4267 N 396.131 -1.37776 0.765217 0
M  V30 4268 C 397.079 -2.32209 0.134798 0
M  V30 4269 C 398.073 -1.54607 -0.692315 0
M  V30 4270 O 399.279 -1.70052 -0.590109 0
M  V30 4271 H 395.654 -0.751591 0.0248005 0
M  V30 4272 H 397.625 -2.8297 0.947119 0
M  V30 4273 C 396.374 -3.39841 -0.735063 0
M  V30 4274 H 395.697 -3.99654 -0.107991 0
M  V30 4275 H 397.137 -4.08296 -1.14326 0
M  V30 4276 C 395.596 -2.79378 -1.88281 0
M  V30 4277 O 396.126 -2.69608 -2.97783 0
M  V30 4278 N 394.332 -2.37016 -1.68142 0
M  V30 4279 H 393.879 -2.45162 -0.790772 0
M  V30 4280 H 393.837 -1.96905 -2.45104 0
M  V30 4281 N 397.609 -0.515225 -1.4894 0
M  V30 4282 C 398.539 0.244628 -2.32215 0
M  V30 4283 C 399.52 0.949136 -1.41157 0
M  V30 4284 O 400.705 0.937783 -1.70057 0
M  V30 4285 C 397.835 1.30096 -3.22013 0
M  V30 4286 C 396.789 0.715486 -4.21977 0
M  V30 4287 C 396.115 1.87339 -5.00808 0
M  V30 4288 C 397.415 -0.302982 -5.2142 0
M  V30 4289 H 399.109 -0.450501 -2.95991 0
M  V30 4290 H 396.655 -0.218098 -1.42339 0
M  V30 4291 H 398.608 1.84037 -3.79089 0
M  V30 4292 H 397.332 2.02547 -2.56207 0
M  V30 4293 H 395.991 0.197715 -3.66066 0
M  V30 4294 H 395.639 2.58592 -4.31438 0
M  V30 4295 H 395.339 1.48764 -5.68457 0
M  V30 4296 H 396.863 2.41686 -5.60732 0
M  V30 4297 H 398.277 0.148802 -5.73107 0
M  V30 4298 H 396.674 -0.60532 -5.97039 0
M  V30 4299 H 397.744 -1.21395 -4.69459 0
M  V30 4300 N 399.087 1.5561 -0.249682 0
M  V30 4301 C 400.315 2.03411 0.378352 0
M  V30 4302 C 400.73 1.12886 1.51335 0
M  V30 4303 O 400.087 0.143833 1.81932 0
M  V30 4304 C 400.138 3.50537 0.88351 0
M  V30 4305 O 399.859 4.37614 -0.20626 0
M  V30 4306 C 401.36 4.14113 1.58195 0
M  V30 4307 H 398.58 0.664994 0.08958 0
M  V30 4308 H 401.124 2.01044 -0.374357 0
M  V30 4309 H 399.279 3.5343 1.58639 0
M  V30 4310 H 399.693 5.24199 0.177782 0
M  V30 4311 H 401.167 5.18741 1.8871 0
M  V30 4312 H 401.644 3.60767 2.50487 0
M  V30 4313 H 402.25 4.15151 0.923573 0
M  V30 4314 N 400.565 -0.0233959 1.57583 0
M  V30 4315 C 401.981 -0.379134 1.55031 0
M  V30 4316 C 402.181 -1.76255 0.976548 0
M  V30 4317 O 401.237 -2.45266 0.600078 0
M  V30 4318 C 402.55 -0.275792 2.99433 0
M  V30 4319 C 404.098 -0.352458 3.11009 0
M  V30 4320 C 404.573 -0.278501 4.57152 0
M  V30 4321 N 406.064 -0.337123 4.61972 0
M  V30 4322 C 406.799 -0.302876 5.726 0
M  V30 4323 N 406.295 -0.220589 6.92449 0
M  V30 4324 N 408.088 -0.353023 5.6099 0
M  V30 4325 H 400.239 0.881869 1.93227 0
M  V30 4326 H 402.502 0.335867 0.886509 0
M  V30 4327 H 402.208 0.675108 3.4516 0
M  V30 4328 H 402.082 -1.06721 3.61788 0
M  V30 4329 H 404.469 -1.29379 2.65226 0
M  V30 4330 H 404.55 0.468409 2.51475 0
M  V30 4331 H 404.194 0.659189 5.03604 0
M  V30 4332 H 404.124 -1.11755 5.14605 0
M  V30 4333 H 406.615 -0.403002 3.75745 0
M  V30 4334 H 406.928 -0.199713 7.72542 0
M  V30 4335 H 405.273 -0.186555 6.9475 0
M  V30 4336 H 408.464 -0.415339 4.66254 0
M  V30 4337 H 408.637 -0.322866 6.47195 0
M  V30 4338 N 402.043 -1.548 -0.295768 0
M  V30 4339 C 402.973 -1.89115 -1.36959 0
M  V30 4340 C 403.954 -0.75059 -1.52644 0
M  V30 4341 O 405.139 -1.00678 -1.66065 0
M  V30 4342 C 402.269 -2.14307 -2.73295 0
M  V30 4343 C 401.223 -3.30151 -2.72368 0
M  V30 4344 C 400.549 -3.40772 -4.12042 0
M  V30 4345 C 401.849 -4.67126 -2.33646 0
M  V30 4346 H 403.543 -2.79053 -1.08488 0
M  V30 4347 H 401.089 -1.34266 -0.520443 0
M  V30 4348 H 403.042 -2.36898 -3.48507 0
M  V30 4349 H 401.766 -1.21145 -3.03301 0
M  V30 4350 H 400.425 -3.0749 -1.99613 0
M  V30 4351 H 400.073 -2.45117 -4.39234 0
M  V30 4352 H 399.773 -4.18645 -4.12322 0
M  V30 4353 H 401.297 -3.6563 -4.89027 0
M  V30 4354 H 402.711 -4.89414 -2.98575 0
M  V30 4355 H 401.108 -5.47751 -2.45129 0
M  V30 4356 H 402.178 -4.67489 -1.28772 0
M  V30 4357 N 403.521 0.559213 -1.47345 0
M  V30 4358 C 404.767 1.31614 -1.55079 0
M  V30 4359 C 405.122 1.91257 -0.209422 0
M  V30 4360 O 404.415 1.74796 0.784656 0
M  V30 4361 C 404.609 2.44853 -2.6035 0
M  V30 4362 C 404.438 1.96305 -4.04591 0
M  V30 4363 C 403.208 1.8024 -4.72061 0
M  V30 4364 C 405.406 1.50872 -4.91673 0
M  V30 4365 N 403.388 1.26011 -6.00828 0
M  V30 4366 C 404.759 1.08395 -6.10451 0
M  V30 4367 C 406.814 1.38905 -4.78132 0
M  V30 4368 C 405.517 0.551399 -7.17183 0
M  V30 4369 C 407.543 0.870518 -5.84958 0
M  V30 4370 C 406.905 0.455661 -7.02925 0
M  V30 4371 H 403.004 0.473712 -0.62219 0
M  V30 4372 H 405.588 0.634103 -1.84085 0
M  V30 4373 H 403.759 3.10589 -2.33215 0
M  V30 4374 H 405.491 3.11849 -2.57938 0
M  V30 4375 H 402.246 2.02895 -4.27937 0
M  V30 4376 H 402.67 1.00991 -6.69425 0
M  V30 4377 H 407.312 1.69591 -3.87297 0
M  V30 4378 H 405.03 0.232159 -8.07766 0
M  V30 4379 H 408.616 0.781507 -5.76527 0
M  V30 4380 H 407.496 0.0606414 -7.84177 0
M  V30 4381 N 404.999 1.35443 0.805782 0
M  V30 4382 C 406.276 1.19325 1.54987 0
M  V30 4383 C 406.656 -0.227294 2.09873 0
M  V30 4384 O 406.004 -1.2309 1.92512 0
M  V30 4385 C 406.214 2.26196 2.65775 0
M  V30 4386 C 407.562 2.62043 3.34094 0
M  V30 4387 O 408.586 2.25115 2.76046 0
M  V30 4388 O 407.445 3.25542 4.38958 0
M  V30 4389 H 404.539 0.463623 0.684823 0
M  V30 4390 H 407.085 1.47127 0.845674 0
M  V30 4391 H 405.857 3.21471 2.23096 0
M  V30 4392 H 405.48 1.99667 3.43829 0
M  V30 4393 N 406.477 -1.02803 1.19454 0
M  V30 4394 C 407.888 -1.57667 0.999899 0
M  V30 4395 C 408.239 -1.91041 -0.446956 0
M  V30 4396 O 407.364 -1.70978 -1.32648 0
M  V30 4397 C 407.959 -2.86477 1.80877 0
M  V30 4398 C 406.518 -3.37911 1.65811 0
M  V30 4399 C 405.665 -2.11343 1.79526 0
M  V30 4400 H 408.616 -0.853214 1.33813 0
M  V30 4401 H 408.637 -3.57408 1.30536 0
M  V30 4402 H 408.149 -2.62155 2.86175 0
M  V30 4403 H 406.25 -3.67218 0.63102 0
M  V30 4404 H 406.363 -4.10885 2.46395 0
M  V30 4405 H 404.727 -2.23254 1.22596 0
M  V30 4406 H 405.51 -1.89461 2.86285 0
M  V30 4407 N 407.956 -0.998596 -1.21925 0
M  V30 4408 C 408.888 -0.511879 -2.23411 0
M  V30 4409 C 409.901 0.396094 -1.57908 0
M  V30 4410 O 411.09 0.197316 -1.77406 0
M  V30 4411 C 408.19 0.276802 -3.37768 0
M  V30 4412 C 407.363 -0.628687 -4.32858 0
M  V30 4413 C 406.422 0.109272 -5.26087 0
M  V30 4414 O 405.448 -0.507237 -5.66935 0
M  V30 4415 N 406.65 1.38983 -5.63617 0
M  V30 4416 H 409.415 -1.38457 -2.658 0
M  V30 4417 H 406.976 -0.873981 -1.36283 0
M  V30 4418 H 408.968 0.77928 -3.97126 0
M  V30 4419 H 407.538 1.05063 -2.94415 0
M  V30 4420 H 406.758 -1.31175 -3.71735 0
M  V30 4421 H 408.046 -1.24514 -4.93329 0
M  V30 4422 H 407.444 1.91194 -5.32411 0
M  V30 4423 H 406.001 1.83739 -6.25367 0
M  V30 4424 N 409.434 1.37368 -0.772513 0
M  V30 4425 C 410.68 1.99969 -0.337681 0
M  V30 4426 C 411.013 1.61184 1.08321 0
M  V30 4427 O 410.288 0.858395 1.74533 0
M  V30 4428 C 410.571 3.56858 -0.482121 0
M  V30 4429 C 410.424 4.0555 -1.94549 0
M  V30 4430 C 411.743 4.39955 0.113143 0
M  V30 4431 H 408.862 0.726464 -0.124171 0
M  V30 4432 H 411.504 1.63034 -0.975699 0
M  V30 4433 H 409.654 3.88452 0.0610361 0
M  V30 4434 H 411.326 3.84518 -2.54841 0
M  V30 4435 H 409.569 3.57715 -2.45403 0
M  V30 4436 H 410.24 5.14587 -1.9976 0
M  V30 4437 H 412.716 4.14623 -0.35031 0
M  V30 4438 H 411.592 5.48897 -0.0180514 0
M  V30 4439 H 411.853 4.25403 1.20354 0
M  V30 4440 N 410.912 0.523116 1.48665 0
M  V30 4441 C 412.158 -0.00540031 2.03399 0
M  V30 4442 C 412.513 -1.3264 1.39372 0
M  V30 4443 O 411.806 -1.84184 0.527916 0
M  V30 4444 C 412 -0.191671 3.56886 0
M  V30 4445 C 411.829 1.10972 4.35793 0
M  V30 4446 C 410.599 1.66769 4.76987 0
M  V30 4447 C 412.797 2.01861 4.73029 0
M  V30 4448 N 410.779 2.91268 5.40404 0
M  V30 4449 C 412.15 3.10937 5.36394 0
M  V30 4450 C 414.205 2.02271 4.54962 0
M  V30 4451 C 412.908 4.20478 5.83601 0
M  V30 4452 C 414.934 3.10802 5.03146 0
M  V30 4453 C 414.296 4.18597 5.6653 0
M  V30 4454 H 410.395 0.0393531 0.781009 0
M  V30 4455 H 412.979 0.702876 1.8157 0
M  V30 4456 H 411.15 -0.869025 3.78553 0
M  V30 4457 H 412.882 -0.719177 3.98259 0
M  V30 4458 H 409.637 1.20996 4.57883 0
M  V30 4459 H 410.061 3.54635 5.76683 0
M  V30 4460 H 414.703 1.2023 4.05345 0
M  V30 4461 H 412.421 5.03303 6.32228 0
M  V30 4462 H 416.007 3.12166 4.90962 0
M  V30 4463 H 414.887 5.01193 6.03138 0
M  V30 4464 N 412.39 -1.55475 0.257931 0
M  V30 4465 C 413.323 -2.179 -0.677862 0
M  V30 4466 C 414.301 -1.13448 -1.16483 0
M  V30 4467 O 415.485 -1.41889 -1.24095 0
M  V30 4468 C 412.612 -2.78851 -1.92249 0
M  V30 4469 C 411.658 -3.96454 -1.57246 0
M  V30 4470 S 412.491 -5.31349 -0.665501 0
M  V30 4471 C 413.647 -5.9576 -1.91889 0
M  V30 4472 H 413.88 -2.96934 -0.147396 0
M  V30 4473 H 411.413 -1.54342 0.0423023 0
M  V30 4474 H 413.371 -3.14602 -2.63697 0
M  V30 4475 H 412.032 -1.99742 -2.42409 0
M  V30 4476 H 411.225 -4.37731 -2.49814 0
M  V30 4477 H 410.827 -3.62038 -0.938325 0
M  V30 4478 H 413.119 -6.13947 -2.86487 0
M  V30 4479 H 414.062 -6.9094 -1.54942 0
M  V30 4480 H 414.47 -5.2494 -2.076 0
M  V30 4481 N 413.868 0.0150385 -1.57593 0
M  V30 4482 C 415.145 0.7392 -1.81094 0
M  V30 4483 C 415.525 1.92817 -0.859344 0
M  V30 4484 O 414.873 2.28301 0.095362 0
M  V30 4485 C 415.083 1.15907 -3.29191 0
M  V30 4486 C 416.431 1.56918 -3.9454 0
M  V30 4487 O 417.455 1.25328 -3.33424 0
M  V30 4488 O 416.314 2.15604 -5.02173 0
M  V30 4489 H 413.408 0.358631 -0.745193 0
M  V30 4490 H 415.954 -0.00926156 -1.69697 0
M  V30 4491 H 414.726 0.310921 -3.90063 0
M  V30 4492 H 414.349 1.96711 -3.45529 0
M  V30 4493 N 415.346 1.54954 0.287554 0
M  V30 4494 C 416.309 1.86076 1.33823 0
M  V30 4495 C 417.309 0.734414 1.43049 0
M  V30 4496 O 418.499 1.00266 1.42452 0
M  V30 4497 C 415.631 2.05305 2.72144 0
M  V30 4498 H 416.824 2.79984 1.07465 0
M  V30 4499 H 414.377 1.47223 0.524902 0
M  V30 4500 H 415.112 1.1373 3.03704 0
M  V30 4501 H 414.897 2.873 2.66836 0
M  V30 4502 H 416.387 2.30706 3.48087 0
M  V30 4503 N 416.824 -0.551391 1.4764 0
M  V30 4504 C 418.072 -1.30572 1.54258 0
M  V30 4505 C 418.393 -1.93877 0.208963 0
M  V30 4506 O 417.663 -1.80234 -0.767619 0
M  V30 4507 H 416.243 -0.484894 0.568231 0
M  V30 4508 H 418.905 -0.643402 1.83974 0
M  V30 4509 H 418.001 -2.09621 2.31226 0
M  V30 4510 N 418.302 -1.35869 -0.798587 0
M  V30 4511 C 419.53 -1.32722 -1.58722 0
M  V30 4512 C 419.945 0.0935631 -1.88568 0
M  V30 4513 O 419.302 1.04784 -1.49421 0
M  V30 4514 C 419.353 -2.13974 -2.91371 0
M  V30 4515 O 419.074 -3.50514 -2.62815 0
M  V30 4516 C 420.575 -2.18504 -3.85708 0
M  V30 4517 H 417.795 -0.45562 -0.492596 0
M  V30 4518 H 420.339 -1.78837 -0.991843 0
M  V30 4519 H 418.494 -1.71438 -3.47402 0
M  V30 4520 H 418.908 -3.92806 -3.47568 0
M  V30 4521 H 420.382 -2.79732 -4.75872 0
M  V30 4522 H 420.859 -1.18597 -4.22885 0
M  V30 4523 H 421.465 -2.61236 -3.35612 0
M  V30 4524 N 419.78 1.02168 -1.19998 0
M  V30 4525 C 420.712 2.10705 -0.901994 0
M  V30 4526 C 421.725 1.6244 0.108216 0
M  V30 4527 O 422.914 1.78082 -0.12214 0
M  V30 4528 C 420.014 3.37291 -0.329834 0
M  V30 4529 C 419.187 4.14714 -1.39035 0
M  V30 4530 C 418.246 5.19606 -0.830432 0
M  V30 4531 O 417.272 5.48809 -1.50989 0
M  V30 4532 N 418.474 5.79366 0.362696 0
M  V30 4533 H 421.239 2.36856 -1.83628 0
M  V30 4534 H 418.8 1.18518 -1.10296 0
M  V30 4535 H 420.792 4.04657 0.0587633 0
M  V30 4536 H 419.362 3.0843 0.508891 0
M  V30 4537 H 418.582 3.42392 -1.9535 0
M  V30 4538 H 419.87 4.63226 -2.10474 0
M  V30 4539 H 419.268 5.57968 0.932081 0
M  V30 4540 H 417.825 6.48106 0.69299 0
M  V30 4541 N 421.258 1.00505 1.21394 0
M  V30 4542 C 422.507 0.683159 1.89778 0
M  V30 4543 C 422.82 -0.789471 1.7896 0
M  V30 4544 O 424.026 -1.22344 2.42372 0
M  V30 4545 C 422.482 1.17146 3.40301 0
M  V30 4546 C 422.09 2.67017 3.5973 0
M  V30 4547 C 423.834 0.924461 4.14311 0
M  V30 4548 C 421.741 3.09387 5.04017 0
M  V30 4549 H 420.671 0.25183 0.710702 0
M  V30 4550 H 423.322 1.21622 1.37406 0
M  V30 4551 H 421.704 0.566451 3.91928 0
M  V30 4552 H 422.878 3.32968 3.18542 0
M  V30 4553 H 421.193 2.89732 2.99073 0
M  V30 4554 H 423.79 1.21658 5.20676 0
M  V30 4555 H 424.133 -0.139286 4.16067 0
M  V30 4556 H 424.666 1.49226 3.6875 0
M  V30 4557 H 421.405 4.14989 5.07409 0
M  V30 4558 H 420.925 2.48149 5.46061 0
M  V30 4559 H 422.604 3.01371 5.72525 0
M  V30 4560 N 422.737 -1.36956 0.779787 0
M  V30 4561 C 423.984 -1.99491 0.347766 0
M  V30 4562 C 424.312 -1.61898 -1.07793 0
M  V30 4563 O 423.567 -0.86071 -1.75756 0
M  V30 4564 C 423.866 -3.54585 0.447686 0
M  V30 4565 C 423.532 -4.1197 1.83279 0
M  V30 4566 C 422.194 -4.27356 2.2118 0
M  V30 4567 C 424.546 -4.43354 2.74019 0
M  V30 4568 C 421.874 -4.71432 3.4924 0
M  V30 4569 C 424.226 -4.88858 4.01497 0
M  V30 4570 C 422.89 -5.0245 4.39432 0
M  V30 4571 H 422.16 -0.729991 0.127257 0
M  V30 4572 H 424.807 -1.63599 0.995376 0
M  V30 4573 H 423.112 -3.90773 -0.283447 0
M  V30 4574 H 424.809 -4.00888 0.0945948 0
M  V30 4575 H 421.399 -4.00428 1.52825 0
M  V30 4576 H 425.583 -4.31045 2.45995 0
M  V30 4577 H 420.839 -4.80141 3.78516 0
M  V30 4578 H 425.013 -5.12108 4.71931 0
M  V30 4579 H 422.64 -5.36362 5.38721 0
M  V30 4580 N 424.215 -0.530993 -1.48385 0
M  V30 4581 C 425.462 0.0027373 -2.025 0
M  V30 4582 C 425.79 1.34186 -1.40799 0
M  V30 4583 O 425.045 1.88 -0.543544 0
M  V30 4584 C 425.344 0.172742 -3.56982 0
M  V30 4585 C 425.01 -1.09215 -4.37473 0
M  V30 4586 C 423.672 -1.43881 -4.59186 0
M  V30 4587 C 426.024 -1.93153 -4.84088 0
M  V30 4588 C 423.352 -2.62381 -5.2476 0
M  V30 4589 C 425.704 -3.10833 -5.50968 0
M  V30 4590 C 424.368 -3.45843 -5.70919 0
M  V30 4591 H 423.638 0.00100165 -0.740999 0
M  V30 4592 H 426.285 -0.697219 -1.78357 0
M  V30 4593 H 424.59 0.955473 -3.79971 0
M  V30 4594 H 426.287 0.600642 -3.96476 0
M  V30 4595 H 422.877 -0.812177 -4.20834 0
M  V30 4596 H 427.061 -1.67683 -4.67115 0
M  V30 4597 H 422.317 -2.89707 -5.38405 0
M  V30 4598 H 426.491 -3.7618 -5.86056 0
M  V30 4599 H 424.118 -4.37764 -6.21503 0
M  V30 4600 N 425.693 1.55336 -0.266172 0
M  V30 4601 C 426.918 2.04258 0.359661 0
M  V30 4602 C 427.343 1.14359 1.49344 0
M  V30 4603 O 426.701 0.140369 1.80756 0
M  V30 4604 C 426.749 3.50997 0.826635 0
M  V30 4605 O 425.853 3.64204 1.93466 0
M  V30 4606 H 425.194 0.659668 0.075727 0
M  V30 4607 H 427.724 2.00694 -0.39786 0
M  V30 4608 H 427.734 3.9219 1.12477 0
M  V30 4609 H 426.409 4.159 -0.00293032 0
M  V30 4610 H 424.986 3.34913 1.63974 0
M  V30 4611 N 427.171 -0.0066808 1.57599 0
M  V30 4612 C 428.418 -0.69292 1.90276 0
M  V30 4613 C 428.746 -1.74148 0.866192 0
M  V30 4614 O 428.001 -1.95268 -0.129933 0
M  V30 4615 C 428.3 -1.37939 3.29708 0
M  V30 4616 C 427.966 -0.464679 4.48499 0
M  V30 4617 C 426.628 -0.212809 4.80729 0
M  V30 4618 C 428.98 0.16551 5.20937 0
M  V30 4619 C 426.308 0.677653 5.82773 0
M  V30 4620 C 428.66 1.04381 6.23929 0
M  V30 4621 C 427.324 1.30492 6.54621 0
M  V30 4622 H 426.594 -0.253558 0.696268 0
M  V30 4623 H 429.241 0.0474123 1.91441 0
M  V30 4624 H 427.546 -2.1936 3.24636 0
M  V30 4625 H 429.243 -1.9163 3.52249 0
M  V30 4626 H 425.833 -0.671153 4.23313 0
M  V30 4627 H 430.017 -0.0160756 4.96297 0
M  V30 4628 H 425.273 0.88803 6.04917 0
M  V30 4629 H 429.447 1.53851 6.79193 0
M  V30 4630 H 427.074 1.99662 7.33512 0
M  V30 4631 N 428.649 -1.55105 -0.279332 0
M  V30 4632 C 429.612 -1.86783 -1.32834 0
M  V30 4633 C 430.612 -0.74199 -1.42657 0
M  V30 4634 O 431.802 -1.0102 -1.41918 0
M  V30 4635 C 428.934 -2.06746 -2.71052 0
M  V30 4636 H 430.127 -2.8055 -1.05979 0
M  V30 4637 H 427.68 -1.47499 -0.517087 0
M  V30 4638 H 428.415 -1.15339 -3.03097 0
M  V30 4639 H 428.2 -2.88711 -2.65309 0
M  V30 4640 H 429.69 -2.32549 -3.46858 0
M  V30 4641 N 430.127 0.543554 -1.4793 0
M  V30 4642 C 431.376 1.29649 -1.54512 0
M  V30 4643 C 431.689 1.94382 -0.217973 0
M  V30 4644 O 432.895 2.71017 -0.161908 0
M  V30 4645 C 431.351 2.35175 -2.72435 0
M  V30 4646 C 430.959 1.76572 -4.11736 0
M  V30 4647 C 432.703 3.11564 -2.8832 0
M  V30 4648 C 430.61 2.79958 -5.20939 0
M  V30 4649 H 429.54 0.487541 -0.57517 0
M  V30 4650 H 432.191 0.575708 -1.74235 0
M  V30 4651 H 430.573 3.10229 -2.46118 0
M  V30 4652 H 431.747 1.07799 -4.48013 0
M  V30 4653 H 430.062 1.12722 -4.00852 0
M  V30 4654 H 432.659 3.88794 -3.67074 0
M  V30 4655 H 433.002 3.66594 -1.97268 0
M  V30 4656 H 433.535 2.43623 -3.14472 0
M  V30 4657 H 430.274 2.29766 -6.13912 0
M  V30 4658 H 429.794 3.47101 -4.89164 0
M  V30 4659 H 431.473 3.43198 -5.48474 0
M  V30 4660 N 431.605 1.3629 0.791371 0
M  V30 4661 C 432.845 1.31792 1.56238 0
M  V30 4662 C 433.209 -0.102237 1.91728 0
M  V30 4663 O 434.41 -0.271759 2.67423 0
M  V30 4664 C 432.681 2.21303 2.80642 0
M  V30 4665 S 434.24 2.34468 3.70904 0
M  V30 4666 H 431.058 0.468141 0.535131 0
M  V30 4667 H 433.66 1.71841 0.932246 0
M  V30 4668 H 432.364 3.23439 2.52617 0
M  V30 4669 H 431.895 1.82266 3.4863 0
M  V30 4670 H 433.91 1.54074 4.71673 0
M  V30 4671 N 433.083 -1.0153 1.20538 0
M  V30 4672 C 434.013 -2.11972 0.979295 0
M  V30 4673 C 434.994 -1.6985 -0.0921787 0
M  V30 4674 O 436.179 -1.94089 0.0655932 0
M  V30 4675 C 433.309 -3.43201 0.531984 0
M  V30 4676 C 432.263 -3.9907 1.54685 0
M  V30 4677 C 431.589 -5.26082 0.956127 0
M  V30 4678 C 432.889 -4.32313 2.93092 0
M  V30 4679 H 434.583 -2.31143 1.90298 0
M  V30 4680 H 432.129 -1.11079 0.916372 0
M  V30 4681 H 434.082 -4.1985 0.361044 0
M  V30 4682 H 432.806 -3.23792 -0.427327 0
M  V30 4683 H 431.465 -3.2453 1.70517 0
M  V30 4684 H 431.113 -5.02999 -0.0111538 0
M  V30 4685 H 430.813 -5.64426 1.63393 0
M  V30 4686 H 432.337 -6.05386 0.796284 0
M  V30 4687 H 433.751 -4.99845 2.80763 0
M  V30 4688 H 432.148 -4.81774 3.57791 0
M  V30 4689 H 433.218 -3.41025 3.44717 0
M  V30 4690 N 434.561 -1.01147 -1.20859 0
M  V30 4691 C 435.809 -0.696486 -1.89719 0
M  V30 4692 C 436.13 0.775788 -1.78904 0
M  V30 4693 O 435.4 1.55759 -1.18811 0
M  V30 4694 H 433.98 -0.254628 -0.702263 0
M  V30 4695 H 436.642 -1.28197 -1.46804 0
M  V30 4696 H 435.738 -0.975357 -2.96468 0
M  V30 4697 N 436.039 1.36541 -0.78704 0
M  V30 4698 C 437.279 2.01138 -0.363714 0
M  V30 4699 C 437.643 1.61114 1.04433 0
M  V30 4700 O 438.844 2.18285 1.56861 0
M  V30 4701 C 437.115 3.53603 -0.519582 0
M  V30 4702 S 438.674 4.38415 -0.183782 0
M  V30 4703 H 435.492 0.697263 -0.13909 0
M  V30 4704 H 438.094 1.66475 -1.02501 0
M  V30 4705 H 436.798 3.8022 -1.5447 0
M  V30 4706 H 436.329 3.93084 0.15773 0
M  V30 4707 H 438.344 4.85698 1.01547 0
M  V30 4708 N 437.518 0.538854 1.48102 0
M  V30 4709 C 438.448 -0.207654 2.32575 0
M  V30 4710 C 439.429 -0.926559 1.4265 0
M  V30 4711 O 440.614 -0.91061 1.71527 0
M  V30 4712 C 437.744 -1.24957 3.24042 0
M  V30 4713 C 436.698 -0.648263 4.23062 0
M  V30 4714 C 436.024 -1.79348 5.03725 0
M  V30 4715 C 437.324 0.385897 5.20872 0
M  V30 4716 H 439.018 0.497534 2.95237 0
M  V30 4717 H 436.564 0.240715 1.41974 0
M  V30 4718 H 438.517 -1.77983 3.81969 0
M  V30 4719 H 437.241 -1.98446 2.59397 0
M  V30 4720 H 435.9 -0.139452 3.66335 0
M  V30 4721 H 435.548 -2.51696 4.35498 0
M  V30 4722 H 435.248 -1.39702 5.70751 0
M  V30 4723 H 436.772 -2.32735 5.64506 0
M  V30 4724 H 438.186 -0.057607 5.73271 0
M  V30 4725 H 436.583 0.700227 5.96001 0
M  V30 4726 H 437.653 1.28848 4.67468 0
M  V30 4727 N 438.996 -1.55193 0.274407 0
M  V30 4728 C 440.224 -2.03987 -0.345943 0
M  V30 4729 C 440.639 -1.15279 -1.4952 0
M  V30 4730 O 439.996 -0.172759 -1.8168 0
M  V30 4731 C 440.047 -3.51898 -0.827631 0
M  V30 4732 O 439.768 -4.37231 0.275855 0
M  V30 4733 C 441.269 -4.16577 -1.51587 0
M  V30 4734 H 438.489 -0.666335 -0.0789892 0
M  V30 4735 H 441.033 -2.00423 0.406294 0
M  V30 4736 H 439.188 -3.55909 -1.52996 0
M  V30 4737 H 439.602 -5.24415 -0.0943638 0
M  V30 4738 H 441.076 -5.21678 -1.80433 0
M  V30 4739 H 441.553 -3.64707 -2.44716 0
M  V30 4740 H 442.159 -4.16568 -0.857409 0
M  V30 4741 N 440.474 -0.00167713 -1.576 0
M  V30 4742 C 441.437 0.974046 -2.07473 0
M  V30 4743 C 442.437 1.27143 -0.984444 0
M  V30 4744 O 443.627 1.21633 -1.24703 0
M  V30 4745 C 440.759 2.29849 -2.51759 0
M  V30 4746 H 441.952 0.54262 -2.9495 0
M  V30 4747 H 439.505 0.245829 -1.54355 0
M  V30 4748 H 440.24 2.77677 -1.67529 0
M  V30 4749 H 440.025 2.09584 -3.31386 0
M  V30 4750 H 441.515 2.9984 -2.90664 0
M  V30 4751 N 441.952 1.55251 0.271103 0
M  V30 4752 C 442.882 1.9127 1.33933 0
M  V30 4753 C 443.863 0.77478 1.5143 0
M  V30 4754 O 445.048 1.03307 1.64442 0
M  V30 4755 C 442.178 2.18627 2.69851 0
M  V30 4756 C 441.132 3.34442 2.67081 0
M  V30 4757 C 440.458 3.47284 4.06569 0
M  V30 4758 C 441.758 4.70784 2.26185 0
M  V30 4759 H 443.452 2.80744 1.04035 0
M  V30 4760 H 440.998 1.35077 0.499017 0
M  V30 4761 H 442.951 2.42413 3.44694 0
M  V30 4762 H 441.675 1.25955 3.01335 0
M  V30 4763 H 440.334 3.10627 1.94695 0
M  V30 4764 H 439.982 2.52074 4.35279 0
M  V30 4765 H 439.682 4.25152 4.0561 0
M  V30 4766 H 441.206 3.73363 4.83148 0
M  V30 4767 H 442.62 4.94102 2.90751 0
M  V30 4768 H 441.017 5.51582 2.36384 0
M  V30 4769 H 442.087 4.69478 1.21319 0
M  V30 4770 N 443.43 -0.535701 1.48216 0
M  V30 4771 C 444.678 -1.28928 1.55634 0
M  V30 4772 C 444.999 -1.93645 0.229514 0
M  V30 4773 O 444.269 -1.81038 -0.74846 0
M  V30 4774 H 442.849 -0.47884 0.573342 0
M  V30 4775 H 445.511 -0.623853 1.84646 0
M  V30 4776 H 444.607 -2.07157 2.33436 0
M  V30 4777 N 444.908 -1.36708 -0.784132 0
M  V30 4778 C 446.133 -1.34565 -1.5782 0
M  V30 4779 C 446.558 0.0695257 -1.87971 0
M  V30 4780 O 445.916 1.04302 -1.48293 0
M  V30 4781 C 445.964 -2.17952 -2.87279 0
M  V30 4782 O 445.068 -1.57563 -3.81114 0
M  V30 4783 H 444.409 -0.460337 -0.478524 0
M  V30 4784 H 446.939 -1.80064 -0.971495 0
M  V30 4785 H 446.949 -2.30721 -3.365 0
M  V30 4786 H 445.624 -3.20823 -2.64661 0
M  V30 4787 H 444.201 -1.53764 -3.39722 0
M  V30 4788 N 446.386 1.0089 -1.21074 0
M  V30 4789 C 447.616 1.77933 -1.04993 0
M  V30 4790 C 448.024 1.84847 0.403495 0
M  V30 4791 O 447.367 1.30606 1.29181 0
M  V30 4792 C 447.429 3.23541 -1.56722 0
M  V30 4793 C 447.093 3.40214 -3.05129 0
M  V30 4794 C 448.09 3.2881 -4.02716 0
M  V30 4795 C 445.775 3.65781 -3.44252 0
M  V30 4796 C 447.769 3.42732 -5.37414 0
M  V30 4797 C 445.456 3.79346 -4.79103 0
M  V30 4798 C 446.454 3.67827 -5.75493 0
M  V30 4799 O 446.142 3.80965 -7.07899 0
M  V30 4800 H 445.874 0.566157 -0.369381 0
M  V30 4801 H 448.428 1.27826 -1.60779 0
M  V30 4802 H 446.658 3.74766 -0.953285 0
M  V30 4803 H 448.347 3.82245 -1.36543 0
M  V30 4804 H 449.113 3.08986 -3.73835 0
M  V30 4805 H 444.992 3.73831 -2.69762 0
M  V30 4806 H 448.536 3.33658 -6.12632 0
M  V30 4807 H 444.433 3.98672 -5.07672 0
M  V30 4808 H 445.201 3.97937 -7.15254 0
M  V30 4809 N 447.864 1.01787 1.20321 0
M  V30 4810 C 448.812 0.58254 2.25187 0
M  V30 4811 C 449.806 -0.379359 1.65098 0
M  V30 4812 O 451.012 -0.249142 1.78267 0
M  V30 4813 H 447.387 0.170078 0.732514 0
M  V30 4814 H 449.358 1.47788 2.59232 0
M  V30 4815 C 448.107 -0.0620885 3.47645 0
M  V30 4816 H 447.43 0.669069 3.94162 0
M  V30 4817 H 448.87 -0.329784 4.22716 0
M  V30 4818 C 447.329 -1.3053 3.10586 0
M  V30 4819 O 447.859 -2.39848 3.22236 0
M  V30 4820 N 446.065 -1.18988 2.65123 0
M  V30 4821 H 445.612 -0.300341 2.55843 0
M  V30 4822 H 445.57 -2.02267 2.40698 0
M  V30 4823 N 449.342 -1.36122 0.79427 0
M  V30 4824 C 450.289 -2.29982 0.194101 0
M  V30 4825 C 451.259 -1.52214 -0.664833 0
M  V30 4826 O 452.444 -1.80702 -0.612498 0
M  V30 4827 C 449.584 -3.38706 -0.661244 0
M  V30 4828 C 448.697 -4.31456 0.216766 0
M  V30 4829 C 447.832 -5.27265 -0.645411 0
M  V30 4830 C 446.871 -6.11653 0.233756 0
M  V30 4831 N 446.008 -6.99636 -0.587682 0
M  V30 4832 H 450.848 -2.80722 0.999965 0
M  V30 4833 H 448.385 -1.38172 0.504677 0
M  V30 4834 H 450.343 -4.00394 -1.17219 0
M  V30 4835 H 448.973 -2.89274 -1.43249 0
M  V30 4836 H 448.025 -3.7088 0.845724 0
M  V30 4837 H 449.337 -4.90724 0.893973 0
M  V30 4838 H 448.491 -5.94266 -1.22198 0
M  V30 4839 H 447.23 -4.68463 -1.35623 0
M  V30 4840 H 446.235 -5.4361 0.82269 0
M  V30 4841 H 447.46 -6.72531 0.942247 0
M  V30 4842 H 445.406 -6.43337 -1.2827 0
M  V30 4843 H 445.323 -7.55993 0.0317402 0
M  V30 4844 H 446.591 -7.71001 -1.14792 0
M  V30 4845 N 450.82 -0.546701 -1.47814 0
M  V30 4846 C 452.05 -0.0232519 -2.06587 0
M  V30 4847 C 452.458 1.2712 -1.40133 0
M  V30 4848 O 451.801 1.77091 -0.488305 0
M  V30 4849 C 451.863 0.254117 -3.58601 0
M  V30 4850 C 451.527 -0.949331 -4.47031 0
M  V30 4851 C 452.524 -1.85216 -4.85789 0
M  V30 4852 C 450.209 -1.16104 -4.88697 0
M  V30 4853 C 452.203 -2.95047 -5.65001 0
M  V30 4854 C 449.89 -2.26247 -5.67676 0
M  V30 4855 C 450.888 -3.1555 -6.05737 0
M  V30 4856 O 450.576 -4.23784 -6.83127 0
M  V30 4857 H 450.308 -0.0380082 -0.674931 0
M  V30 4858 H 452.862 -0.756631 -1.90956 0
M  V30 4859 H 451.092 1.04168 -3.72406 0
M  V30 4860 H 452.781 0.72167 -3.99433 0
M  V30 4861 H 453.547 -1.70061 -4.54207 0
M  V30 4862 H 449.426 -0.475159 -4.58545 0
M  V30 4863 H 452.97 -3.64778 -5.94628 0
M  V30 4864 H 448.867 -2.41379 -5.98671 0
M  V30 4865 H 449.635 -4.21701 -7.01506 0
M  V30 4866 N 452.299 1.55045 -0.282633 0
M  V30 4867 C 453.249 2.19514 0.616249 0
M  V30 4868 C 454.233 1.16216 1.11277 0
M  V30 4869 O 455.425 1.42004 1.05659 0
M  V30 4870 C 452.554 2.92548 1.7964 0
M  V30 4871 C 451.64 4.03142 1.31671 0
M  V30 4872 N 452.031 5.0276 0.553695 0
M  V30 4873 C 450.329 4.1635 1.59903 0
M  V30 4874 C 451.03 5.80923 0.30054 0
M  V30 4875 N 450.006 5.3651 0.875116 0
M  V30 4876 H 453.808 2.93889 0.0255363 0
M  V30 4877 H 451.322 1.62169 -0.0865362 0
M  V30 4878 H 453.319 3.37188 2.45173 0
M  V30 4879 H 451.979 2.19685 2.39099 0
M  V30 4880 H 452.99 5.17512 0.20032 0
M  V30 4881 H 449.667 3.54682 2.20243 0
M  V30 4882 H 451.057 6.7118 -0.311053 0
M  V30 4883 N 453.777 0.010035 1.57597 0
M  V30 4884 C 454.725 -0.996272 2.10184 0
M  V30 4885 C 455.719 -1.34942 1.02406 0
M  V30 4886 O 456.925 -1.33389 1.20861 0
M  V30 4887 H 453.3 -0.338982 0.671264 0
M  V30 4888 H 455.271 -0.527272 2.93705 0
M  V30 4889 C 454.02 -2.27599 2.62857 0
M  V30 4890 H 453.343 -2.01295 3.45428 0
M  V30 4891 H 454.783 -2.96265 3.0332 0
M  V30 4892 C 453.242 -2.99269 1.54725 0
M  V30 4893 O 453.772 -3.90644 0.93597 0
M  V30 4894 N 451.978 -2.61269 1.27228 0
M  V30 4895 H 451.525 -1.87043 1.77123 0
M  V30 4896 H 451.483 -3.09534 0.550999 0
M  V30 4897 N 455.255 -1.55392 -0.262866 0
M  V30 4898 C 456.203 -1.8977 -1.345 0
M  V30 4899 C 457.197 -0.775063 -1.50629 0
M  V30 4900 O 458.403 -0.959519 -1.52293 0
M  V30 4901 H 454.778 -0.602467 -0.450041 0
M  V30 4902 H 456.749 -2.80147 -1.02762 0
M  V30 4903 C 455.498 -2.19501 -2.69657 0
M  V30 4904 H 454.821 -3.05378 -2.5804 0
M  V30 4905 H 456.261 -2.47469 -3.44289 0
M  V30 4906 C 454.72 -1.00597 -3.21531 0
M  V30 4907 O 455.25 -0.245768 -4.00947 0
M  V30 4908 N 453.456 -0.800911 -2.79345 0
M  V30 4909 H 453.003 -1.42079 -2.14875 0
M  V30 4910 H 452.961 -0.00697996 -3.14399 0
M  V30 4911 N 456.733 0.527833 -1.48498 0
M  V30 4912 C 457.973 1.29401 -1.58224 0
M  V30 4913 C 458.337 1.90348 -0.251327 0
M  V30 4914 O 459.538 2.67868 -0.223588 0
M  V30 4915 C 457.809 2.35266 -2.69044 0
M  V30 4916 S 459.368 3.2158 -2.98549 0
M  V30 4917 H 456.186 0.440138 -0.558391 0
M  V30 4918 H 458.788 0.601079 -1.8603 0
M  V30 4919 H 457.492 1.88975 -3.64303 0
M  V30 4920 H 457.023 3.09263 -2.43146 0
M  V30 4921 H 459.038 4.35391 -2.38011 0
M  V30 4922 N 458.211 1.37122 0.776871 0
M  V30 4923 C 459.441 1.35034 1.56363 0
M  V30 4924 C 459.849 -0.0674681 1.8908 0
M  V30 4925 O 459.192 -1.03826 1.51545 0
M  V30 4926 C 459.254 2.11894 2.90415 0
M  V30 4927 C 458.918 3.60897 2.80362 0
M  V30 4928 C 459.915 4.54887 2.51742 0
M  V30 4929 C 457.6 4.03951 2.98545 0
M  V30 4930 C 459.594 5.89909 2.41426 0
M  V30 4931 C 457.281 5.3906 2.87849 0
M  V30 4932 C 458.279 6.31852 2.5933 0
M  V30 4933 O 457.967 7.64479 2.48651 0
M  V30 4934 H 457.699 0.464402 0.49123 0
M  V30 4935 H 460.253 1.80992 0.971127 0
M  V30 4936 H 458.483 1.60618 3.51765 0
M  V30 4937 H 460.172 2.02505 3.51776 0
M  V30 4938 H 460.938 4.22934 2.37385 0
M  V30 4939 H 456.817 3.3209 3.19746 0
M  V30 4940 H 460.361 6.62304 2.19086 0
M  V30 4941 H 456.258 5.70617 3.01773 0
M  V30 4942 H 457.026 7.74742 2.64039 0
M  V30 4943 N 459.689 -1.00246 1.21608 0
M  V30 4944 C 461.105 -1.26435 0.973975 0
M  V30 4945 C 461.305 -1.98642 -0.338143 0
M  V30 4946 O 460.361 -2.29026 -1.06317 0
M  V30 4947 C 461.674 -2.08551 2.16626 0
M  V30 4948 C 463.222 -2.21769 2.20879 0
M  V30 4949 C 463.697 -3.07267 3.39633 0
M  V30 4950 N 465.188 -3.14855 3.39736 0
M  V30 4951 C 465.923 -3.81274 4.28273 0
M  V30 4952 N 465.419 -4.497 5.27012 0
M  V30 4953 N 467.212 -3.7794 4.16074 0
M  V30 4954 H 459.363 -0.518089 2.05984 0
M  V30 4955 H 461.626 -0.291368 0.902113 0
M  V30 4956 H 461.332 -1.62847 3.11727 0
M  V30 4957 H 461.206 -3.09303 2.15897 0
M  V30 4958 H 463.593 -2.66691 1.26332 0
M  V30 4959 H 463.674 -1.20478 2.25652 0
M  V30 4960 H 463.318 -2.63047 4.34475 0
M  V30 4961 H 463.248 -4.08678 3.321 0
M  V30 4962 H 465.739 -2.66147 2.6828 0
M  V30 4963 H 466.052 -4.98092 5.90867 0
M  V30 4964 H 464.397 -4.48479 5.30935 0
M  V30 4965 H 467.588 -3.23638 3.38195 0
M  V30 4966 H 467.761 -4.29424 4.85282 0
M  V30 4967 N 461.167 -1.02423 -1.1978 0
M  V30 4968 C 462.444 -0.632802 -1.85081 0
M  V30 4969 C 462.824 0.888745 -1.9148 0
M  V30 4970 O 462.172 1.78357 -1.42832 0
M  V30 4971 C 462.382 -1.28947 -3.24305 0
M  V30 4972 C 463.73 -1.40976 -4.00513 0
M  V30 4973 O 464.754 -1.24628 -3.33686 0
M  V30 4974 O 463.613 -1.67467 -5.20209 0
M  V30 4975 H 460.707 -0.219348 -0.79738 0
M  V30 4976 H 463.253 -1.12209 -1.27307 0
M  V30 4977 H 462.025 -2.3288 -3.14456 0
M  V30 4978 H 461.648 -0.787748 -3.89718 0
M  V30 4979 N 462.645 1.35699 -0.801477 0
M  V30 4980 C 463.885 2.00741 -0.385027 0
M  V30 4981 C 464.249 1.62213 1.02718 0
M  V30 4982 O 465.45 2.19936 1.54537 0
M  V30 4983 C 463.721 3.53032 -0.557057 0
M  V30 4984 S 465.28 4.38195 -0.230272 0
M  V30 4985 H 462.098 0.695748 -0.146477 0
M  V30 4986 H 464.7 1.65378 -1.04261 0
M  V30 4987 H 463.404 3.7856 -1.58494 0
M  V30 4988 H 462.935 3.93229 0.116029 0
M  V30 4989 H 464.95 4.86748 0.963895 0
M  V30 4990 N 464.123 0.554532 1.47522 0
M  V30 4991 C 465.372 0.0273458 2.01681 0
M  V30 4992 C 465.685 -1.32962 1.43459 0
M  V30 4993 O 466.891 -1.94657 1.89265 0
M  V30 4994 C 465.347 -0.00159057 3.599 0
M  V30 4995 C 464.955 1.35197 4.27113 0
M  V30 4996 C 466.699 -0.476311 4.21819 0
M  V30 4997 C 464.606 1.28229 5.77331 0
M  V30 4998 H 463.536 0.00645269 0.753972 0
M  V30 4999 H 466.187 0.701985 1.69542 0
M  V30 5000 H 464.569 -0.741821 3.8899 0
M  V30 5001 H 465.743 2.1097 4.09668 0
M  V30 5002 H 464.058 1.76441 3.77171 0
M  V30 5003 H 466.655 -0.5468 5.31897 0
M  V30 5004 H 466.998 -1.4877 3.8881 0
M  V30 5005 H 467.531 0.20898 3.97251 0
M  V30 5006 H 464.27 2.26959 6.14955 0
M  V30 5007 H 463.79 0.566314 5.97121 0
M  V30 5008 H 465.469 0.983226 6.39485 0
M  V30 5009 N 465.601 -1.54893 0.290851 0
M  V30 5010 C 466.564 -2.21824 -0.576784 0
M  V30 5011 C 467.564 -1.20104 -1.06919 0
M  V30 5012 O 468.754 -1.44906 -0.966843 0
M  V30 5013 C 465.886 -2.89662 -1.79747 0
M  V30 5014 H 467.079 -2.99899 0.00784051 0
M  V30 5015 H 464.632 -1.56245 0.0415934 0
M  V30 5016 H 465.367 -2.15639 -2.42219 0
M  V30 5017 H 465.152 -3.64219 -1.45214 0
M  V30 5018 H 466.642 -3.4075 -2.4141 0
M  V30 5019 N 467.08 -0.0183926 -1.57589 0
M  V30 5020 C 468.01 0.965596 -2.12599 0
M  V30 5021 C 468.991 1.34641 -1.0395 0
M  V30 5022 O 470.176 1.42693 -1.31729 0
M  V30 5023 C 467.306 2.25149 -2.64434 0
M  V30 5024 C 466.26 2.01175 -3.77773 0
M  V30 5025 C 465.586 3.35937 -4.15994 0
M  V30 5026 C 466.886 1.35953 -5.04296 0
M  V30 5027 H 468.58 0.507504 -2.95067 0
M  V30 5028 H 466.126 0.242671 -1.41941 0
M  V30 5029 H 468.079 2.94357 -3.01549 0
M  V30 5030 H 466.803 2.73105 -1.79112 0
M  V30 5031 H 465.462 1.34388 -3.4108 0
M  V30 5032 H 465.11 3.81631 -3.27669 0
M  V30 5033 H 464.81 3.20705 -4.92364 0
M  V30 5034 H 466.334 4.0643 -4.55683 0
M  V30 5035 H 467.748 1.95144 -5.39065 0
M  V30 5036 H 466.145 1.31152 -5.85593 0
M  V30 5037 H 467.215 0.331071 -4.83768 0
M  V30 5038 N 468.558 1.5553 0.254621 0
M  V30 5039 C 469.798 1.7876 0.991179 0
M  V30 5040 C 470.162 0.586669 1.82817 0
M  V30 5041 O 471.363 0.697585 2.5959 0
M  V30 5042 C 469.634 3.06679 1.83529 0
M  V30 5043 S 471.193 3.511 2.632 0
M  V30 5044 H 468.011 0.627916 0.333531 0
M  V30 5045 H 470.613 1.93766 0.259778 0
M  V30 5046 H 469.317 3.92158 1.20996 0
M  V30 5047 H 468.848 2.94388 2.60958 0
M  V30 5048 H 470.863 3.11823 3.8598 0
M  V30 5049 N 470.036 -0.519951 1.48776 0
M  V30 5050 C 471.283 -1.27522 1.57303 0
M  V30 5051 C 471.611 -1.92869 0.251328 0
M  V30 5052 O 470.866 -1.80372 -0.759243 0
M  V30 5053 C 471.165 -2.37864 2.6675 0
M  V30 5054 C 470.831 -1.90103 4.08867 0
M  V30 5055 C 469.493 -1.76795 4.47546 0
M  V30 5056 C 471.845 -1.54133 4.97888 0
M  V30 5057 C 469.173 -1.25868 5.73039 0
M  V30 5058 C 471.525 -1.04665 6.23881 0
M  V30 5059 C 470.189 -0.899823 6.61407 0
M  V30 5060 H 469.459 -0.466636 0.575614 0
M  V30 5061 H 472.106 -0.579109 1.82534 0
M  V30 5062 H 470.411 -3.13186 2.35418 0
M  V30 5063 H 472.108 -2.95969 2.70561 0
M  V30 5064 H 468.698 -2.01414 3.78326 0
M  V30 5065 H 472.882 -1.6327 4.68675 0
M  V30 5066 H 468.138 -1.13196 6.0083 0
M  V30 5067 H 472.312 -0.759074 6.92251 0
M  V30 5068 H 469.939 -0.503011 7.58534 0
M  V30 5069 N 471.514 -1.37532 -0.769588 0
M  V30 5070 C 472.444 -1.36172 -1.89682 0
M  V30 5071 C 473.425 -0.23001 -1.68538 0
M  V30 5072 O 474.61 -0.43069 -1.89364 0
M  V30 5073 C 471.74 -1.1701 -3.26995 0
M  V30 5074 C 470.694 -2.27216 -3.62708 0
M  V30 5075 C 470.02 -1.93174 -4.98586 0
M  V30 5076 C 471.32 -3.6941 -3.69234 0
M  V30 5077 H 473.014 -2.30499 -1.91078 0
M  V30 5078 H 470.56 -1.10953 -0.917902 0
M  V30 5079 H 472.513 -1.14688 -4.05493 0
M  V30 5080 H 471.237 -0.191395 -3.26039 0
M  V30 5081 H 469.896 -2.28697 -2.86519 0
M  V30 5082 H 469.544 -0.938281 -4.94171 0
M  V30 5083 H 469.244 -2.66973 -5.23449 0
M  V30 5084 H 470.768 -1.92443 -5.79481 0
M  V30 5085 H 472.182 -3.70047 -4.37879 0
M  V30 5086 H 470.579 -4.4228 -4.05597 0
M  V30 5087 H 471.649 -4.0288 -2.69844 0
M  V30 5088 N 472.992 0.995999 -1.22138 0
M  V30 5089 C 473.94 2.10673 -0.985876 0
M  V30 5090 C 474.934 1.69255 0.0699553 0
M  V30 5091 O 476.14 1.79812 -0.0822176 0
M  V30 5092 H 472.515 0.688865 -0.30161 0
M  V30 5093 H 474.486 2.27711 -1.92848 0
M  V30 5094 C 473.235 3.42881 -0.576909 0
M  V30 5095 H 472.558 3.75191 -1.38101 0
M  V30 5096 H 473.998 4.21589 -0.451518 0
M  V30 5097 C 472.457 3.29265 0.713196 0
M  V30 5098 O 472.987 3.60777 1.76643 0
M  V30 5099 N 471.193 2.82456 0.683162 0
M  V30 5100 H 470.74 2.5701 -0.174242 0
M  V30 5101 H 470.698 2.73727 1.54663 0
M  V30 5102 N 474.47 1.03057 1.19235 0
M  V30 5103 C 475.695 0.74757 1.93458 0
M  V30 5104 C 476.12 -0.687648 1.7508 0
M  V30 5105 O 475.478 -1.47499 1.05422 0
M  V30 5106 C 475.526 1.10604 3.43219 0
M  V30 5107 O 474.63 0.225671 4.11782 0
M  V30 5108 H 473.971 0.276047 0.603899 0
M  V30 5109 H 476.501 1.3777 1.51263 0
M  V30 5110 H 476.511 1.06366 3.93891 0
M  V30 5111 H 475.186 2.15165 3.55917 0
M  V30 5112 H 473.763 0.326795 3.71465 0
M  V30 5113 N 475.948 -1.35272 0.808662 0
M  V30 5114 C 477.196 -1.98316 0.389233 0
M  V30 5115 C 477.517 -1.64465 -1.04767 0
M  V30 5116 O 476.787 -0.928175 -1.72516 0
M  V30 5117 H 475.367 -0.733585 0.140935 0
M  V30 5118 H 478.029 -1.6515 1.03496 0
M  V30 5119 H 477.125 -3.08123 0.496631 0
M  V30 5120 N 477.426 -0.562348 -1.47226 0
M  V30 5121 C 478.654 -0.0452275 -2.06851 0
M  V30 5122 C 479.069 1.25078 -1.41424 0
M  V30 5123 O 478.426 1.75156 -0.512513 0
M  V30 5124 C 478.477 0.148674 -3.61194 0
M  V30 5125 O 478.198 -1.09602 -4.24169 0
M  V30 5126 C 479.699 0.702488 -4.37699 0
M  V30 5127 H 476.919 -0.0481775 -0.669268 0
M  V30 5128 H 479.463 -0.777223 -1.89155 0
M  V30 5129 H 477.618 0.830817 -3.78386 0
M  V30 5130 H 478.032 -0.896982 -5.16773 0
M  V30 5131 H 479.506 0.78743 -5.46355 0
M  V30 5132 H 479.983 1.71493 -4.04335 0
M  V30 5133 H 480.589 0.0558772 -4.25263 0
M  V30 5134 N 478.904 1.54736 -0.299062 0
M  V30 5135 C 480.129 2.04975 0.316254 0
M  V30 5136 C 480.554 1.17501 1.46885 0
M  V30 5137 O 479.912 0.178678 1.80417 0
M  V30 5138 C 479.96 3.52672 0.751997 0
M  V30 5139 O 479.064 3.68226 1.85697 0
M  V30 5140 H 478.405 0.661126 0.0617175 0
M  V30 5141 H 480.935 1.99805 -0.440341 0
M  V30 5142 H 480.945 3.94488 1.04133 0
M  V30 5143 H 479.62 4.158 -0.0911482 0
M  V30 5144 H 478.197 3.38316 1.56834 0
M  V30 5145 N 480.382 0.0267497 1.57577 0
M  V30 5146 C 481.629 -0.652404 1.91703 0
M  V30 5147 C 481.957 -1.72271 0.902936 0
M  V30 5148 O 481.212 -1.955 -0.0884843 0
M  V30 5149 C 481.511 -1.30914 3.3256 0
M  V30 5150 C 481.177 -0.369441 4.49384 0
M  V30 5151 C 479.839 -0.110791 4.81072 0
M  V30 5152 C 482.191 0.275971 5.20469 0
M  V30 5153 C 479.519 0.801116 5.81205 0
M  V30 5154 C 481.871 1.17592 6.21575 0
M  V30 5155 C 480.535 1.44348 6.51705 0
M  V30 5156 H 479.805 -0.238732 0.70149 0
M  V30 5157 H 482.452 0.0880091 1.91298 0
M  V30 5158 H 480.757 -2.12425 3.29216 0
M  V30 5159 H 482.454 -1.84115 3.56234 0
M  V30 5160 H 479.044 -0.581211 4.24641 0
M  V30 5161 H 483.228 0.0892 4.9622 0
M  V30 5162 H 478.484 1.01614 6.02897 0
M  V30 5163 H 482.658 1.68223 6.75777 0
M  V30 5164 H 480.285 2.15176 7.29111 0
M  V30 5165 N 481.861 -1.55662 -0.24637 0
M  V30 5166 C 483.107 -1.77782 -0.975779 0
M  V30 5167 C 483.44 -0.592103 -1.84953 0
M  V30 5168 O 482.715 0.409588 -1.90138 0
M  V30 5169 C 482.998 -3.09788 -1.83584 0
M  V30 5170 C 482.851 -4.38764 -0.990241 0
M  V30 5171 C 484.17 -3.38029 -2.81823 0
M  V30 5172 H 481.289 -0.646789 -0.353317 0
M  V30 5173 H 483.931 -1.88398 -0.246248 0
M  V30 5174 H 482.081 -3.00869 -2.45784 0
M  V30 5175 H 483.753 -4.59675 -0.386897 0
M  V30 5176 H 481.996 -4.32798 -0.294626 0
M  V30 5177 H 482.667 -5.27514 -1.62584 0
M  V30 5178 H 485.143 -3.46915 -2.2976 0
M  V30 5179 H 484.019 -4.3161 -3.39122 0
M  V30 5180 H 484.28 -2.58968 -3.58313 0
M  V30 5181 N 483.339 0.512053 -1.4905 0
M  V30 5182 C 484.302 1.59704 -1.64399 0
M  V30 5183 C 485.302 1.52285 -0.516317 0
M  V30 5184 O 486.492 1.55635 -0.782527 0
M  V30 5185 C 483.624 2.9935 -1.63102 0
M  V30 5186 H 484.817 1.47428 -2.61161 0
M  V30 5187 H 482.37 0.735469 -1.37915 0
M  V30 5188 H 483.105 3.17116 -0.678836 0
M  V30 5189 H 482.89 3.06144 -2.44986 0
M  V30 5190 H 484.38 3.782 -1.77072 0
M  V30 5191 N 484.817 1.37938 0.762283 0
M  V30 5192 C 486.065 1.33404 1.51815 0
M  V30 5193 C 486.386 -0.0780975 1.94844 0
M  V30 5194 O 485.656 -1.02405 1.67003 0
M  V30 5195 H 484.236 0.490839 0.563104 0
M  V30 5196 H 486.898 1.72527 0.906669 0
M  V30 5197 H 485.994 1.97926 2.41313 0
M  V30 5198 N 486.295 -0.989507 1.22664 0
M  V30 5199 C 487.542 -1.72953 1.05325 0
M  V30 5200 C 487.87 -1.90104 -0.411168 0
M  V30 5201 O 487.125 -1.44386 -1.32103 0
M  V30 5202 C 487.424 -3.13649 1.71345 0
M  V30 5203 C 487.09 -3.16403 3.21248 0
M  V30 5204 C 485.752 -3.16862 3.62149 0
M  V30 5205 C 488.104 -3.12428 4.17179 0
M  V30 5206 C 485.432 -3.11051 4.97458 0
M  V30 5207 C 487.784 -3.08159 5.52468 0
M  V30 5208 C 486.448 -3.06935 5.92746 0
M  V30 5209 H 485.718 -0.632881 0.385412 0
M  V30 5210 H 488.365 -1.15863 1.52473 0
M  V30 5211 H 486.67 -3.74069 1.16532 0
M  V30 5212 H 488.367 -3.69658 1.55416 0
M  V30 5213 H 484.957 -3.16798 2.88682 0
M  V30 5214 H 489.141 -3.11221 3.86595 0
M  V30 5215 H 484.397 -3.0845 5.27891 0
M  V30 5216 H 488.571 -3.04039 6.26525 0
M  V30 5217 H 486.198 -3.02186 6.97558 0
M  V30 5218 N 487.773 -1.03688 -1.18687 0
M  V30 5219 C 488.736 -0.629115 -2.20397 0
M  V30 5220 C 489.736 0.311495 -1.57754 0
M  V30 5221 O 490.926 0.0974107 -1.73927 0
M  V30 5222 C 488.058 0.0782231 -3.4081 0
M  V30 5223 H 489.251 -1.52915 -2.57987 0
M  V30 5224 H 486.804 -0.828988 -1.32505 0
M  V30 5225 H 487.539 0.992233 -3.08748 0
M  V30 5226 H 487.324 -0.597776 -3.87517 0
M  V30 5227 H 488.814 0.350156 -4.16129 0
M  V30 5228 N 489.251 1.34841 -0.815825 0
M  V30 5229 C 490.5 1.97755 -0.396976 0
M  V30 5230 C 490.813 1.65422 1.04379 0
M  V30 5231 O 492.019 2.21771 1.5662 0
M  V30 5232 C 490.475 3.53818 -0.658869 0
M  V30 5233 C 490.083 3.95051 -2.11278 0
M  V30 5234 C 491.827 4.23397 -0.305834 0
M  V30 5235 C 489.734 5.43997 -2.31994 0
M  V30 5236 H 488.664 0.739985 -0.1447 0
M  V30 5237 H 491.315 1.53781 -1.00118 0
M  V30 5238 H 489.697 3.95997 0.0154112 0
M  V30 5239 H 490.871 3.63998 -2.82564 0
M  V30 5240 H 489.186 3.38388 -2.42657 0
M  V30 5241 H 491.783 5.32899 -0.43854 0
M  V30 5242 H 492.126 4.09508 0.748952 0
M  V30 5243 H 492.659 3.8667 -0.934403 0
M  V30 5244 H 489.398 5.62865 -3.35952 0
M  V30 5245 H 488.918 5.76589 -1.65244 0
M  V30 5246 H 490.597 6.10584 -2.14001 0
M  V30 5247 N 490.729 0.570148 1.46925 0
M  V30 5248 C 491.976 0.0509529 2.02436 0
M  V30 5249 C 492.304 -1.30405 1.44308 0
M  V30 5250 O 491.559 -1.86493 0.593198 0
M  V30 5251 C 491.858 -0.0780336 3.57315 0
M  V30 5252 C 491.524 1.20775 4.34424 0
M  V30 5253 C 490.186 1.56004 4.5521 0
M  V30 5254 C 492.538 2.0592 4.78797 0
M  V30 5255 C 489.866 2.76201 5.17619 0
M  V30 5256 C 492.218 3.25332 5.42533 0
M  V30 5257 C 490.882 3.60859 5.61549 0
M  V30 5258 H 490.152 0.018645 0.740765 0
M  V30 5259 H 492.799 0.744262 1.76445 0
M  V30 5260 H 491.104 -0.854394 3.82371 0
M  V30 5261 H 492.801 -0.495312 3.97929 0
M  V30 5262 H 489.391 0.923469 4.18533 0
M  V30 5263 H 493.575 1.80008 4.62505 0
M  V30 5264 H 488.831 3.0388 5.30535 0
M  V30 5265 H 493.005 3.91586 5.75876 0
M  V30 5266 H 490.632 4.54088 6.09678 0
M  V30 5267 N 492.207 -1.54576 0.307264 0
M  V30 5268 C 493.432 -2.05139 -0.305379 0
M  V30 5269 C 493.857 -1.18278 -1.46259 0
M  V30 5270 O 493.215 -0.188243 -1.8032 0
M  V30 5271 C 493.263 -3.53066 -0.733283 0
M  V30 5272 O 492.367 -3.69206 -1.83741 0
M  V30 5273 H 491.708 -0.661444 -0.0582105 0
M  V30 5274 H 494.238 -1.99569 0.450931 0
M  V30 5275 H 494.248 -3.95034 -1.02039 0
M  V30 5276 H 492.923 -4.15746 0.113198 0
M  V30 5277 H 491.5 -3.39143 -1.55037 0
M  V30 5278 N 493.685 -0.035106 -1.57561 0
M  V30 5279 C 494.934 0.641604 -1.91223 0
M  V30 5280 C 495.247 1.72944 -0.913761 0
M  V30 5281 O 496.453 2.46321 -1.14185 0
M  V30 5282 C 494.909 1.19249 -3.3957 0
M  V30 5283 C 494.517 0.137616 -4.47789 0
M  V30 5284 C 496.261 1.84537 -3.82291 0
M  V30 5285 C 494.168 0.700478 -5.87237 0
M  V30 5286 H 493.098 0.243417 -0.713627 0
M  V30 5287 H 495.749 -0.101382 -1.8322 0
M  V30 5288 H 494.131 1.98728 -3.42525 0
M  V30 5289 H 495.305 -0.635153 -4.56402 0
M  V30 5290 H 493.62 -0.416855 -4.14308 0
M  V30 5291 H 496.217 2.27616 -4.83834 0
M  V30 5292 H 496.56 2.69054 -3.17672 0
M  V30 5293 H 497.093 1.11739 -3.81784 0
M  V30 5294 H 493.832 -0.106693 -6.55413 0
M  V30 5295 H 493.352 1.4416 -5.82218 0
M  V30 5296 H 495.031 1.18837 -6.35993 0
M  V30 5297 N 495.163 1.55791 0.238111 0
M  V30 5298 C 496.093 1.94068 1.29846 0
M  V30 5299 C 497.074 0.806726 1.49753 0
M  V30 5300 O 498.259 1.06772 1.62214 0
M  V30 5301 C 495.389 2.24302 2.65153 0
M  V30 5302 C 494.343 3.40032 2.59927 0
M  V30 5303 C 493.669 3.55829 3.99111 0
M  V30 5304 C 494.969 4.75476 2.16148 0
M  V30 5305 H 496.663 2.82887 0.980563 0
M  V30 5306 H 494.209 1.36105 0.470253 0
M  V30 5307 H 496.162 2.4967 3.39475 0
M  V30 5308 H 494.886 1.32318 2.98596 0
M  V30 5309 H 493.545 3.14687 1.88063 0
M  V30 5310 H 493.193 2.6125 4.29834 0
M  V30 5311 H 492.893 4.3366 3.96501 0
M  V30 5312 H 494.417 3.83528 4.7512 0
M  V30 5313 H 495.831 5.00158 2.80205 0
M  V30 5314 H 494.228 5.56472 2.24631 0
M  V30 5315 H 495.298 4.71946 1.11333 0
M  V30 5316 N 496.642 -0.504142 1.49319 0
M  V30 5317 C 497.89 -1.25598 1.58334 0
M  V30 5318 C 498.211 -1.93114 0.270538 0
M  V30 5319 O 497.481 -1.82585 -0.709891 0
M  V30 5320 H 496.061 -0.466571 0.58337 0
M  V30 5321 H 498.723 -0.584547 1.85928 0
M  V30 5322 H 497.819 -2.02159 2.37778 0
M  V30 5323 N 498.12 -1.38341 -0.754957 0
M  V30 5324 C 499.367 -1.34473 -1.51404 0
M  V30 5325 C 499.695 0.0656458 -1.94389 0
M  V30 5326 O 498.95 1.04244 -1.65625 0
M  V30 5327 C 499.249 -2.2452 -2.78075 0
M  V30 5328 C 498.915 -3.72512 -2.54059 0
M  V30 5329 C 497.577 -4.1284 -2.47218 0
M  V30 5330 C 499.929 -4.66197 -2.33044 0
M  V30 5331 C 497.257 -5.44945 -2.17376 0
M  V30 5332 C 499.609 -5.98558 -2.04723 0
M  V30 5333 C 498.273 -6.37972 -1.96337 0
M  V30 5334 H 497.543 -0.492072 -0.554027 0
M  V30 5335 H 500.19 -1.70687 -0.868223 0
M  V30 5336 H 498.495 -1.81357 -3.473 0
M  V30 5337 H 500.192 -2.18832 -3.36026 0
M  V30 5338 H 496.782 -3.40538 -2.60253 0
M  V30 5339 H 500.966 -4.35888 -2.37309 0
M  V30 5340 H 496.222 -5.74426 -2.09391 0
M  V30 5341 H 500.396 -6.70693 -1.87465 0
M  V30 5342 H 498.023 -7.40258 -1.72978 0
M  V30 5343 N 499.598 0.982988 -1.23187 0
M  V30 5344 C 500.531 2.07302 -0.953993 0
M  V30 5345 C 501.509 1.62249 0.106753 0
M  V30 5346 O 502.693 1.88481 -0.0269525 0
M  V30 5347 C 499.82 3.35873 -0.436716 0
M  V30 5348 C 498.866 3.99862 -1.48367 0
M  V30 5349 S 499.699 4.39443 -3.06023 0
M  V30 5350 C 500.855 5.7117 -2.55959 0
M  V30 5351 H 501.088 2.30554 -1.87702 0
M  V30 5352 H 498.621 1.11883 -1.06403 0
M  V30 5353 H 500.579 4.10244 -0.144872 0
M  V30 5354 H 499.24 3.10634 0.465351 0
M  V30 5355 H 498.433 4.92471 -1.07182 0
M  V30 5356 H 498.035 3.31857 -1.72473 0
M  V30 5357 H 500.327 6.47977 -1.97818 0
M  V30 5358 H 501.27 6.17194 -3.47098 0
M  V30 5359 H 501.678 5.29046 -1.96902 0
M  V30 5360 N 501.076 1.04316 1.18135 0
M  V30 5361 C 502.301 0.768047 1.92655 0
M  V30 5362 C 502.726 -0.66904 1.758 0
M  V30 5363 O 502.084 -1.46372 1.06981 0
M  V30 5364 C 502.132 1.14239 3.42026 0
M  V30 5365 O 501.236 0.269333 4.1152 0
M  V30 5366 H 500.577 0.282436 0.600937 0
M  V30 5367 H 503.107 1.39367 1.49793 0
M  V30 5368 H 503.117 1.10538 3.92741 0
M  V30 5369 H 501.792 2.18928 3.53615 0
M  V30 5370 H 500.369 0.366175 3.71098 0
M  V30 5371 N 502.554 -1.34406 0.822964 0
M  V30 5372 C 503.486 -2.28305 0.202375 0
M  V30 5373 C 504.499 -1.5103 -0.60777 0
M  V30 5374 O 505.688 -1.73057 -0.437444 0
M  V30 5375 C 502.788 -3.30836 -0.734911 0
M  V30 5376 C 501.961 -4.37388 0.0324177 0
M  V30 5377 C 501.02 -5.1968 -0.825803 0
M  V30 5378 O 500.046 -5.68556 -0.270771 0
M  V30 5379 N 501.248 -5.39393 -2.14558 0
M  V30 5380 H 504.013 -2.82201 1.00909 0
M  V30 5381 H 501.574 -1.4693 0.67993 0
M  V30 5382 H 503.566 -3.82786 -1.31365 0
M  V30 5383 H 502.136 -2.77334 -1.44238 0
M  V30 5384 H 501.356 -3.86152 0.792469 0
M  V30 5385 H 502.644 -5.05702 0.560633 0
M  V30 5386 H 502.042 -5.01357 -2.62025 0
M  V30 5387 H 500.599 -5.94461 -2.67318 0
M  V30 5388 N 504.032 -0.577932 -1.46621 0
M  V30 5389 C 504.942 0.160651 -2.34049 0
M  V30 5390 C 505.958 0.890911 -1.49462 0
M  V30 5391 O 507.134 0.855166 -1.82343 0
M  V30 5392 C 504.199 1.16447 -3.26559 0
M  V30 5393 C 503.26 0.4394 -4.27045 0
M  V30 5394 C 502.493 1.3954 -5.15135 0
M  V30 5395 O 502.716 2.63162 -5.06065 0
M  V30 5396 O 501.65 0.908585 -5.95003 0
M  V30 5397 H 505.476 -0.557057 -2.98547 0
M  V30 5398 H 503.061 -0.338369 -1.45518 0
M  V30 5399 H 504.943 1.7434 -3.83645 0
M  V30 5400 H 503.618 1.86373 -2.64663 0
M  V30 5401 H 502.525 -0.181247 -3.73661 0
M  V30 5402 H 503.858 -0.218799 -4.91713 0
M  V30 5403 N 505.51 1.54411 -0.315457 0
M  V30 5404 C 506.442 2.21527 0.588067 0
M  V30 5405 C 507.455 1.21263 1.08624 0
M  V30 5406 O 508.644 1.47777 1.00121 0
M  V30 5407 C 505.744 2.85963 1.81875 0
M  V30 5408 C 504.917 4.12291 1.46063 0
M  V30 5409 C 503.976 4.60396 2.54799 0
M  V30 5410 O 503.002 5.25265 2.19283 0
M  V30 5411 N 504.204 4.33935 3.85591 0
M  V30 5412 H 506.969 2.99697 0.013414 0
M  V30 5413 H 504.53 1.61308 -0.138295 0
M  V30 5414 H 506.522 3.15071 2.53993 0
M  V30 5415 H 505.092 2.11548 2.30144 0
M  V30 5416 H 504.312 3.90036 0.571445 0
M  V30 5417 H 505.6 4.9452 1.19695 0
M  V30 5418 H 504.998 3.81996 4.17248 0
M  V30 5419 H 503.555 4.67718 4.53964 0
M  V30 5420 N 506.988 0.0434614 1.5754 0
M  V30 5421 C 508.236 -0.630786 1.92004 0
M  V30 5422 C 508.557 -1.71836 0.921807 0
M  V30 5423 O 507.827 -1.9587 -0.034522 0
M  V30 5424 H 506.407 -0.235988 0.708745 0
M  V30 5425 H 509.069 0.0946462 1.9467 0
M  V30 5426 H 508.165 -1.07434 2.93026 0
M  V30 5427 N 508.466 -1.55915 -0.229846 0
M  V30 5428 C 509.712 -1.78807 -0.956868 0
M  V30 5429 C 510.045 -0.611687 -1.84315 0
M  V30 5430 O 509.32 0.389398 -1.90562 0
M  V30 5431 C 509.603 -3.11718 -1.80288 0
M  V30 5432 C 509.456 -4.3979 -0.943649 0
M  V30 5433 C 510.775 -3.40999 -2.78222 0
M  V30 5434 H 507.894 -0.6505 -0.346437 0
M  V30 5435 H 510.536 -1.88648 -0.226252 0
M  V30 5436 H 508.686 -3.03459 -2.42579 0
M  V30 5437 H 510.358 -4.60059 -0.338121 0
M  V30 5438 H 508.601 -4.33086 -0.248705 0
M  V30 5439 H 509.272 -5.29208 -1.5698 0
M  V30 5440 H 511.748 -3.49332 -2.26067 0
M  V30 5441 H 510.624 -4.35183 -3.34526 0
M  V30 5442 H 510.885 -2.62754 -3.55546 0
M  V30 5443 N 509.944 0.496216 -1.49584 0
M  V30 5444 C 511.355 1.07765 -1.52459 0
M  V30 5445 C 511.706 1.93679 -0.31353 0
M  V30 5446 O 510.831 2.08588 0.576186 0
M  V30 5447 C 511.426 1.96111 -2.76271 0
M  V30 5448 C 509.985 2.49409 -2.81908 0
M  V30 5449 C 509.132 1.27142 -2.46435 0
M  V30 5450 H 512.083 0.279914 -1.56212 0
M  V30 5451 H 512.104 2.80862 -2.56704 0
M  V30 5452 H 511.616 1.33555 -3.64396 0
M  V30 5453 H 509.717 3.1559 -1.98074 0
M  V30 5454 H 509.83 2.86234 -3.84196 0
M  V30 5455 H 508.194 1.59818 -1.98319 0
M  V30 5456 H 508.977 0.662866 -3.3684 0
M  V30 5457 N 511.423 1.38739 0.74761 0
M  V30 5458 C 512.672 1.3459 1.50228 0
M  V30 5459 C 512.985 -0.0595592 1.95509 0
M  V30 5460 O 514.191 -0.22361 2.70578 0
M  V30 5461 C 512.647 2.36377 2.71393 0
M  V30 5462 C 512.255 3.82573 2.33113 0
M  V30 5463 C 513.999 2.41281 3.49262 0
M  V30 5464 C 511.906 4.76032 3.50924 0
M  V30 5465 H 510.836 0.500312 0.564096 0
M  V30 5466 H 513.487 1.64324 0.8167 0
M  V30 5467 H 511.869 1.99694 3.41962 0
M  V30 5468 H 513.043 4.28227 1.70171 0
M  V30 5469 H 511.358 3.80844 1.68365 0
M  V30 5470 H 513.955 3.08301 4.36869 0
M  V30 5471 H 514.298 1.43353 3.9084 0
M  V30 5472 H 514.831 2.76793 2.85711 0
M  V30 5473 H 511.57 5.75177 3.14408 0
M  V30 5474 H 511.09 4.35066 4.12889 0
M  V30 5475 H 512.769 4.94331 4.17427 0
M  V30 5476 N 512.901 -0.976442 1.23707 0
M  V30 5477 C 514.126 -1.75875 1.09922 0
M  V30 5478 C 514.551 -1.84911 -0.34489 0
M  V30 5479 O 513.909 -1.31363 -1.24954 0
M  V30 5480 C 513.957 -3.16179 1.73388 0
M  V30 5481 O 513.061 -4.00124 0.99871 0
M  V30 5482 H 512.402 -0.540954 0.385052 0
M  V30 5483 H 514.932 -1.22546 1.6384 0
M  V30 5484 H 514.942 -3.66741 1.78788 0
M  V30 5485 H 513.617 -3.08917 2.78466 0
M  V30 5486 H 512.194 -3.58624 1.02193 0
M  V30 5487 N 514.379 -1.04941 -1.1758 0
M  V30 5488 C 515.289 -0.658826 -2.25159 0
M  V30 5489 C 516.305 0.318941 -1.71052 0
M  V30 5490 O 517.481 0.171669 -2.00667 0
M  V30 5491 C 514.546 -0.0369522 -3.4668 0
M  V30 5492 C 513.607 -1.06484 -4.15884 0
M  V30 5493 C 512.84 -0.472551 -5.31604 0
M  V30 5494 O 513.063 0.718736 -5.65854 0
M  V30 5495 O 511.997 -1.20557 -5.89703 0
M  V30 5496 H 515.823 -1.55533 -2.60851 0
M  V30 5497 H 513.408 -0.820819 -1.24832 0
M  V30 5498 H 515.29 0.308784 -4.20267 0
M  V30 5499 H 513.965 0.833238 -3.12792 0
M  V30 5500 H 512.872 -1.46253 -3.44327 0
M  V30 5501 H 514.205 -1.9061 -4.53794 0
M  V30 5502 N 515.857 1.33968 -0.830081 0
M  V30 5503 C 517.103 1.98357 -0.422191 0
M  V30 5504 C 517.436 1.65633 1.01387 0
M  V30 5505 O 516.711 0.931648 1.70735 0
M  V30 5506 C 516.994 3.54492 -0.633043 0
M  V30 5507 C 516.847 3.96934 -2.11574 0
M  V30 5508 C 518.166 4.40039 -0.0735584 0
M  V30 5509 H 515.285 0.720544 -0.154871 0
M  V30 5510 H 517.927 1.58749 -1.04397 0
M  V30 5511 H 516.077 3.88361 -0.103775 0
M  V30 5512 H 517.749 3.73363 -2.7092 0
M  V30 5513 H 515.992 3.46984 -2.60354 0
M  V30 5514 H 516.663 5.05651 -2.21406 0
M  V30 5515 H 519.139 4.12764 -0.52585 0
M  V30 5516 H 518.015 5.48327 -0.250841 0
M  V30 5517 H 518.276 4.30124 1.02202 0
M  V30 5518 N 517.335 0.585699 1.46312 0
M  V30 5519 C 518.298 -0.135673 2.28798 0
M  V30 5520 C 519.298 -0.815988 1.38558 0
M  V30 5521 O 520.488 -0.667487 1.60904 0
M  V30 5522 C 517.62 -1.20163 3.1902 0
M  V30 5523 H 518.813 0.589257 2.94054 0
M  V30 5524 H 516.366 0.343794 1.52472 0
M  V30 5525 H 517.101 -1.95804 2.58517 0
M  V30 5526 H 516.886 -0.718282 3.85465 0
M  V30 5527 H 518.376 -1.70749 3.81096 0
M  V30 5528 N 518.813 -1.54241 0.323641 0
M  V30 5529 C 519.723 -2.28033 -0.551205 0
M  V30 5530 C 520.739 -1.32388 -1.12913 0
M  V30 5531 O 521.915 -1.65403 -1.14908 0
M  V30 5532 C 518.98 -3.02382 -1.69606 0
M  V30 5533 C 518.041 -4.13612 -1.14993 0
M  V30 5534 C 517.274 -4.84407 -2.24022 0
M  V30 5535 O 517.497 -4.54716 -3.44368 0
M  V30 5536 O 516.431 -5.71312 -1.89436 0
M  V30 5537 H 520.257 -3.03662 0.048066 0
M  V30 5538 H 517.842 -1.49133 0.0893289 0
M  V30 5539 H 519.724 -3.48941 -2.36259 0
M  V30 5540 H 518.399 -2.29628 -2.28151 0
M  V30 5541 H 517.306 -3.71402 -0.448484 0
M  V30 5542 H 518.639 -4.8841 -0.609608 0
M  V30 5543 N 520.291 -0.0518155 -1.57515 0
M  V30 5544 C 521.516 0.634896 -1.97443 0
M  V30 5545 C 521.941 1.63546 -0.929207 0
M  V30 5546 O 521.299 1.80981 0.107484 0
M  V30 5547 C 521.347 1.29765 -3.36442 0
M  V30 5548 O 520.451 2.41333 -3.34413 0
M  V30 5549 H 519.792 0.164994 -0.643174 0
M  V30 5550 H 522.322 -0.120407 -2.04245 0
M  V30 5551 H 522.332 1.64918 -3.73184 0
M  V30 5552 H 521.007 0.564361 -4.12053 0
M  V30 5553 H 519.584 2.08122 -3.09418 0
M  V30 5554 N 521.769 1.56035 0.221574 0
M  V30 5555 C 523.017 1.78693 0.944102 0
M  V30 5556 C 523.338 0.620317 1.8487 0
M  V30 5557 O 522.608 -0.362784 1.92512 0
M  V30 5558 H 521.188 0.659082 0.351597 0
M  V30 5559 H 523.85 1.93497 0.233435 0
M  V30 5560 H 522.946 2.70837 1.55093 0
M  V30 5561 N 523.247 -0.488276 1.49845 0
M  V30 5562 C 524.658 -1.06955 1.53028 0
M  V30 5563 C 525.009 -1.9351 0.323797 0
M  V30 5564 O 524.134 -2.08891 -0.565116 0
M  V30 5565 C 524.729 -1.94643 2.77307 0
M  V30 5566 C 523.288 -2.4791 2.83227 0
M  V30 5567 C 522.435 -1.25833 2.47106 0
M  V30 5568 H 525.386 -0.271626 1.56358 0
M  V30 5569 H 525.407 -2.79496 2.5819 0
M  V30 5570 H 524.919 -1.31621 3.65099 0
M  V30 5571 H 523.02 -3.14535 1.99745 0
M  V30 5572 H 523.133 -2.84193 3.85709 0
M  V30 5573 H 521.497 -1.58764 1.99163 0
M  V30 5574 H 522.28 -0.644993 3.37186 0
M  V30 5575 N 524.725 -1.39134 -0.740242 0
M  V30 5576 C 525.973 -1.35803 -1.49673 0
M  V30 5577 C 526.294 0.0470897 -1.94943 0
M  V30 5578 O 525.564 0.997347 -1.68611 0
M  V30 5579 H 524.144 -0.499736 -0.555224 0
M  V30 5580 H 526.806 -1.73947 -0.879107 0
M  V30 5581 H 525.902 -2.0174 -2.38133 0
M  V30 5582 N 526.204 0.969867 -1.24223 0
M  V30 5583 C 527.134 2.08191 -1.05729 0
M  V30 5584 C 528.115 1.70075 0.0290765 0
M  V30 5585 O 529.3 1.93712 -0.137583 0
M  V30 5586 C 526.43 3.40991 -0.658995 0
M  V30 5587 C 525.384 3.93054 -1.69389 0
M  V30 5588 C 524.71 5.22171 -1.15072 0
M  V30 5589 C 526.01 4.21137 -3.08935 0
M  V30 5590 H 527.704 2.23921 -1.98746 0
M  V30 5591 H 525.25 1.07602 -0.956967 0
M  V30 5592 H 527.203 4.18221 -0.51662 0
M  V30 5593 H 525.927 3.25155 0.30686 0
M  V30 5594 H 524.586 3.17977 -1.82444 0
M  V30 5595 H 524.234 5.02694 -0.175539 0
M  V30 5596 H 523.934 5.57973 -1.84229 0
M  V30 5597 H 525.458 6.02013 -1.02042 0
M  V30 5598 H 526.872 4.8908 -2.99121 0
M  V30 5599 H 525.269 4.68163 -3.75425 0
M  V30 5600 H 526.339 3.27996 -3.57137 0
M  V30 5601 N 527.682 1.05563 1.17022 0
M  V30 5602 C 528.645 0.664098 2.19368 0
M  V30 5603 C 529.645 -0.286358 1.5823 0
M  V30 5604 O 530.835 -0.069728 1.7406 0
M  V30 5605 C 527.967 -0.0239932 3.40892 0
M  V30 5606 H 529.16 1.57 2.55521 0
M  V30 5607 H 526.713 0.849964 1.31169 0
M  V30 5608 H 527.448 -0.942988 3.10287 0
M  V30 5609 H 527.233 0.659351 3.86516 0
M  V30 5610 H 528.723 -0.283909 4.16634 0
M  V30 5611 N 529.16 -1.33526 0.837174 0
M  V30 5612 C 530.407 -1.97837 0.432064 0
M  V30 5613 C 530.735 -1.66324 -1.00829 0
M  V30 5614 O 529.99 -0.93448 -1.71948 0
M  V30 5615 C 530.289 -3.52367 0.597675 0
M  V30 5616 C 529.955 -4.03826 2.00587 0
M  V30 5617 C 528.617 -4.1759 2.39106 0
M  V30 5618 C 530.969 -4.31333 2.92576 0
M  V30 5619 C 528.297 -4.56195 3.68921 0
M  V30 5620 C 530.649 -4.7139 4.2187 0
M  V30 5621 C 529.313 -4.8336 4.60347 0
M  V30 5622 H 528.583 -0.723937 0.158104 0
M  V30 5623 H 531.23 -1.5923 1.06387 0
M  V30 5624 H 529.535 -3.91624 -0.117452 0
M  V30 5625 H 531.232 -4.00126 0.26454 0
M  V30 5626 H 527.822 -3.93586 1.69671 0
M  V30 5627 H 532.006 -4.20224 2.64056 0
M  V30 5628 H 527.262 -4.63655 3.9854 0
M  V30 5629 H 531.436 -4.91631 4.93226 0
M  V30 5630 H 529.063 -5.1303 5.60985 0
M  V30 5631 N 530.638 -0.59345 -1.46 0
M  V30 5632 C 531.887 -0.0808084 -2.01538 0
M  V30 5633 C 532.2 1.29112 -1.46934 0
M  V30 5634 O 533.406 1.8957 -1.94359 0
M  V30 5635 C 531.862 -0.0938311 -3.59778 0
M  V30 5636 C 531.47 -1.46474 -4.23379 0
M  V30 5637 C 533.214 0.364306 -4.22934 0
M  V30 5638 C 531.121 -1.4349 -5.73729 0
M  V30 5639 H 530.051 -0.0264407 -0.753536 0
M  V30 5640 H 532.702 -0.746689 -1.67621 0
M  V30 5641 H 531.084 0.638427 -3.9082 0
M  V30 5642 H 532.258 -2.21758 -4.03931 0
M  V30 5643 H 530.573 -1.86379 -3.7236 0
M  V30 5644 H 533.17 0.405584 -5.3316 0
M  V30 5645 H 533.513 1.38409 -3.92618 0
M  V30 5646 H 534.046 -0.31423 -3.96557 0
M  V30 5647 H 530.785 -2.43184 -6.08722 0
M  V30 5648 H 530.305 -0.724431 -5.95409 0
M  V30 5649 H 531.984 -1.15243 -6.36654 0
M  V30 5650 N 532.116 1.54067 -0.331816 0
M  V30 5651 C 533.079 2.23275 0.517768 0
M  V30 5652 C 534.079 1.22897 1.03697 0
M  V30 5653 O 535.269 1.47419 0.928084 0
M  V30 5654 C 532.401 2.94326 1.72004 0
M  V30 5655 H 533.594 2.99773 -0.0873507 0
M  V30 5656 H 531.147 1.56079 -0.0830042 0
M  V30 5657 H 531.882 2.21986 2.36417 0
M  V30 5658 H 531.667 3.67941 1.35507 0
M  V30 5659 H 533.157 3.47031 2.32291 0
M  V30 5660 N 533.594 0.0601682 1.57485 0
M  V30 5661 C 534.824 -0.620037 1.97076 0
M  V30 5662 C 535.232 -1.64381 0.936784 0
M  V30 5663 O 534.575 -1.83497 -0.0863377 0
M  V30 5664 C 534.637 -1.35617 3.32939 0
M  V30 5665 C 534.301 -0.487208 4.54396 0
M  V30 5666 C 535.298 0.250428 5.19297 0
M  V30 5667 C 532.983 -0.415494 5.00579 0
M  V30 5668 C 534.977 1.04812 6.28723 0
M  V30 5669 C 532.664 0.385879 6.0988 0
M  V30 5670 C 533.662 1.11637 6.73815 0
M  V30 5671 O 533.35 1.90454 7.81014 0
M  V30 5672 H 533.082 -0.173664 0.653312 0
M  V30 5673 H 535.636 0.1256 2.05016 0
M  V30 5674 H 533.866 -2.14763 3.2158 0
M  V30 5675 H 535.555 -1.92749 3.57215 0
M  V30 5676 H 536.321 0.204546 4.84568 0
M  V30 5677 H 532.2 -0.973679 4.506 0
M  V30 5678 H 535.744 1.6188 6.78558 0
M  V30 5679 H 531.641 0.433366 6.44044 0
M  V30 5680 H 532.409 1.82762 7.97835 0
M  V30 5681 N 535.072 -1.5615 -0.213296 0
M  V30 5682 C 536.483 -1.69645 -0.779582 0
M  V30 5683 C 536.834 -0.663615 -1.84636 0
M  V30 5684 O 535.959 0.183633 -2.15619 0
M  V30 5685 C 536.554 -3.07567 -1.42084 0
M  V30 5686 C 535.113 -3.22889 -1.93442 0
M  V30 5687 C 534.26 -2.65581 -0.797612 0
M  V30 5688 H 537.211 -1.58696 0.0114951 0
M  V30 5689 H 537.232 -3.03884 -2.28986 0
M  V30 5690 H 536.744 -3.82716 -0.644187 0
M  V30 5691 H 534.845 -2.52623 -2.73884 0
M  V30 5692 H 534.958 -4.30197 -2.10872 0
M  V30 5693 H 533.322 -2.24278 -1.20712 0
M  V30 5694 H 534.105 -3.43284 -0.033494 0
M  V30 5695 N 536.55 0.480323 -1.50102 0
M  V30 5696 C 537.966 0.813295 -1.37323 0
M  V30 5697 C 538.166 1.97027 -0.422206 0
M  V30 5698 O 537.222 2.5212 0.138563 0
M  V30 5699 C 538.535 1.13404 -2.78496 0
M  V30 5700 C 540.083 1.24104 -2.87345 0
M  V30 5701 C 540.558 1.59497 -4.29331 0
M  V30 5702 N 542.049 1.66507 -4.32238 0
M  V30 5703 C 542.784 1.95378 -5.39087 0
M  V30 5704 N 542.28 2.22333 -6.56155 0
M  V30 5705 N 544.073 1.96803 -5.26522 0
M  V30 5706 H 536.224 -0.282291 -2.10516 0
M  V30 5707 H 538.487 -0.063752 -0.945854 0
M  V30 5708 H 538.193 0.357064 -3.49883 0
M  V30 5709 H 538.067 2.07251 -3.15162 0
M  V30 5710 H 540.454 2.00871 -2.16183 0
M  V30 5711 H 540.535 0.282593 -2.54234 0
M  V30 5712 H 540.179 0.832736 -5.01027 0
M  V30 5713 H 540.109 2.56477 -4.59921 0
M  V30 5714 H 542.6 1.47753 -3.47818 0
M  V30 5715 H 542.913 2.43611 -7.33399 0
M  V30 5716 H 541.258 2.19745 -6.59346 0
M  V30 5717 H 544.449 1.75235 -4.34062 0
M  V30 5718 H 544.622 2.18969 -6.09883 0
M  V30 5719 N 538.028 1.39524 0.732853 0
M  V30 5720 C 538.991 1.38189 1.82857 0
M  V30 5721 C 539.991 0.278624 1.58368 0
M  V30 5722 O 541.181 0.536639 1.65728 0
M  V30 5723 C 538.313 1.15661 3.2068 0
M  V30 5724 H 539.506 2.35692 1.85444 0
M  V30 5725 H 537.059 1.2512 0.936728 0
M  V30 5726 H 537.794 0.188482 3.23752 0
M  V30 5727 H 537.579 1.95559 3.39852 0
M  V30 5728 H 539.069 1.17472 4.00737 0
M  V30 5729 N 539.506 -0.963266 1.24736 0
M  V30 5730 C 540.752 -1.70933 1.09131 0
M  V30 5731 C 541.085 -1.90676 -0.368273 0
M  V30 5732 O 540.36 -1.47147 -1.27193 0
M  V30 5733 C 540.643 -3.09744 1.83658 0
M  V30 5734 C 540.496 -2.97465 3.37394 0
M  V30 5735 C 541.815 -4.09483 1.61282 0
M  V30 5736 H 538.934 -0.620398 0.397838 0
M  V30 5737 H 541.576 -1.12028 1.53459 0
M  V30 5738 H 539.726 -3.60031 1.4598 0
M  V30 5739 H 541.398 -2.54571 3.84696 0
M  V30 5740 H 539.641 -2.33576 3.65547 0
M  V30 5741 H 540.312 -3.95822 3.84745 0
M  V30 5742 H 542.788 -3.68073 1.94066 0
M  V30 5743 H 541.664 -5.04666 2.15878 0
M  V30 5744 H 541.925 -4.38639 0.552102 0
M  V30 5745 N 540.985 -1.06182 -1.16461 0
M  V30 5746 C 542.231 -0.779015 -1.87241 0
M  V30 5747 C 542.564 0.692715 -1.81425 0
M  V30 5748 O 541.839 1.5074 -1.22913 0
M  V30 5749 C 542.122 -1.2728 -3.36856 0
M  V30 5750 C 541.975 -2.80821 -3.51368 0
M  V30 5751 C 543.294 -0.879799 -4.31216 0
M  V30 5752 H 540.413 -0.284464 -0.679889 0
M  V30 5753 H 543.055 -1.31755 -1.36896 0
M  V30 5754 H 541.205 -0.814673 -3.79862 0
M  V30 5755 H 542.877 -3.34833 -3.17308 0
M  V30 5756 H 541.12 -3.19606 -2.93316 0
M  V30 5757 H 541.791 -3.10435 -4.56436 0
M  V30 5758 H 544.267 -1.27436 -3.96105 0
M  V30 5759 H 543.143 -1.25278 -5.34412 0
M  V30 5760 H 543.404 0.215372 -4.41575 0
M  V30 5761 N 542.463 1.3308 -0.844243 0
M  V30 5762 C 543.396 2.27075 -0.226279 0
M  V30 5763 C 544.374 1.49911 0.629716 0
M  V30 5764 O 545.558 1.79068 0.588803 0
M  V30 5765 C 542.685 3.31767 0.681782 0
M  V30 5766 C 541.731 4.26384 -0.0994565 0
M  V30 5767 S 542.564 5.15186 -1.46094 0
M  V30 5768 C 543.72 6.23405 -0.558319 0
M  V30 5769 H 543.953 2.79141 -1.02312 0
M  V30 5770 H 541.486 1.40452 -0.641292 0
M  V30 5771 H 543.444 3.92566 1.20008 0
M  V30 5772 H 542.105 2.78507 1.45234 0
M  V30 5773 H 541.298 5.00514 0.591733 0
M  V30 5774 H 540.9 3.69949 -0.548991 0
M  V30 5775 H 543.192 6.77069 0.241672 0
M  V30 5776 H 544.135 6.96619 -1.26995 0
M  V30 5777 H 544.543 5.64333 -0.13728 0
M  V30 5778 N 543.941 0.601185 1.45683 0
M  V30 5779 C 544.871 -0.108824 2.33246 0
M  V30 5780 C 545.852 -0.865223 1.46451 0
M  V30 5781 O 547.037 -0.83704 1.75235 0
M  V30 5782 C 544.167 -1.11101 3.2905 0
M  V30 5783 C 543.121 -0.468244 4.25431 0
M  V30 5784 C 542.447 -1.57822 5.10878 0
M  V30 5785 C 543.747 0.606469 5.18767 0
M  V30 5786 H 545.441 0.622306 2.92861 0
M  V30 5787 H 542.987 0.300714 1.40825 0
M  V30 5788 H 544.94 -1.61622 3.89174 0
M  V30 5789 H 543.664 -1.87265 2.67581 0
M  V30 5790 H 542.323 0.0160484 3.66596 0
M  V30 5791 H 541.971 -2.32998 4.45781 0
M  V30 5792 H 541.671 -1.15369 5.76163 0
M  V30 5793 H 543.195 -2.08583 5.73869 0
M  V30 5794 H 544.609 0.185589 5.73 0
M  V30 5795 H 543.006 0.952381 5.92494 0
M  V30 5796 H 544.076 1.48559 4.61582 0
M  V30 5797 N 545.419 -1.53889 0.339982 0
M  V30 5798 C 546.83 -1.86139 -0.144671 0
M  V30 5799 C 547.181 -1.2613 -1.50285 0
M  V30 5800 O 546.306 -0.573515 -2.08662 0
M  V30 5801 C 546.901 -3.37728 -0.269285 0
M  V30 5802 C 545.46 -3.69868 -0.698168 0
M  V30 5803 C 544.607 -2.76777 0.170249 0
M  V30 5804 H 547.558 -1.48503 0.559704 0
M  V30 5805 H 547.579 -3.64331 -1.0974 0
M  V30 5806 H 547.091 -3.81375 0.719366 0
M  V30 5807 H 545.192 -3.31764 -1.69597 0
M  V30 5808 H 545.305 -4.76582 -0.490533 0
M  V30 5809 H 543.669 -2.52188 -0.356844 0
M  V30 5810 H 544.452 -3.23253 1.15597 0
M  V30 5811 N 546.897 -0.0685191 -1.57451 0
M  V30 5812 C 548.144 0.601348 -1.93365 0
M  V30 5813 C 548.472 1.69816 -0.948294 0
M  V30 5814 O 547.727 1.95666 0.0366199 0
M  V30 5815 C 548.026 1.22051 -3.35914 0
M  V30 5816 C 547.692 0.250165 -4.50205 0
M  V30 5817 C 546.354 -0.0167954 -4.81197 0
M  V30 5818 C 548.706 -0.413867 -5.19554 0
M  V30 5819 C 546.034 -0.95493 -5.78876 0
M  V30 5820 C 548.386 -1.3403 -6.18238 0
M  V30 5821 C 547.05 -1.61576 -6.47649 0
M  V30 5822 H 546.32 0.220049 -0.707573 0
M  V30 5823 H 548.967 -0.138697 -1.90997 0
M  V30 5824 H 547.272 2.03622 -3.34732 0
M  V30 5825 H 548.969 1.74605 -3.6099 0
M  V30 5826 H 545.559 0.468421 -4.26033 0
M  V30 5827 H 549.743 -0.220733 -4.95809 0
M  V30 5828 H 544.999 -1.17563 -5.99991 0
M  V30 5829 H 549.173 -1.86081 -6.71079 0
M  V30 5830 H 546.8 -2.34431 -7.2315 0
M  V30 5831 N 548.375 1.56261 0.205012 0
M  V30 5832 C 549.6 1.84491 0.947512 0
M  V30 5833 C 550.025 0.650894 1.76479 0
M  V30 5834 O 549.383 -0.40035 1.76824 0
M  V30 5835 C 549.431 3.10863 1.82747 0
M  V30 5836 O 548.535 2.90719 2.925 0
M  V30 5837 H 547.876 0.607783 0.267386 0
M  V30 5838 H 550.406 2.03485 0.213323 0
M  V30 5839 H 550.416 3.41399 2.23407 0
M  V30 5840 H 549.091 3.97392 1.2269 0
M  V30 5841 H 547.668 2.71457 2.55667 0
M  V30 5842 N 549.853 -0.472356 1.50355 0
M  V30 5843 C 551.264 -1.05326 1.54154 0
M  V30 5844 C 551.615 -1.93155 0.344303 0
M  V30 5845 O 550.74 -2.09479 -0.542928 0
M  V30 5846 C 551.335 -1.91691 2.79356 0
M  V30 5847 C 549.894 -2.44892 2.8584 0
M  V30 5848 C 549.041 -1.23205 2.48426 0
M  V30 5849 H 551.992 -0.255027 1.56637 0
M  V30 5850 H 552.013 -2.76742 2.6114 0
M  V30 5851 H 551.525 -1.27741 3.66475 0
M  V30 5852 H 549.626 -3.12399 2.0307 0
M  V30 5853 H 549.739 -2.80086 3.88701 0
M  V30 5854 H 548.103 -1.56643 2.00836 0
M  V30 5855 H 548.886 -0.609194 3.37852 0
M  V30 5856 N 551.331 -1.39911 -0.725443 0
M  V30 5857 C 552.261 -1.42138 -1.85254 0
M  V30 5858 C 553.242 -0.283513 -1.67721 0
M  V30 5859 O 554.427 -0.490717 -1.87898 0
M  V30 5860 C 551.557 -1.27354 -3.23107 0
M  V30 5861 C 550.511 -2.3864 -3.55296 0
M  V30 5862 C 549.837 -2.08939 -4.92188 0
M  V30 5863 C 551.137 -3.8097 -3.57295 0
M  V30 5864 H 552.831 -2.36461 -1.83648 0
M  V30 5865 H 550.377 -1.13817 -0.882138 0
M  V30 5866 H 552.33 -1.2753 -4.01639 0
M  V30 5867 H 551.054 -0.295025 -3.25265 0
M  V30 5868 H 549.713 -2.37696 -2.79099 0
M  V30 5869 H 549.361 -1.09502 -4.90936 0
M  V30 5870 H 549.061 -2.83491 -5.14691 0
M  V30 5871 H 550.585 -2.10781 -5.73065 0
M  V30 5872 H 551.999 -3.8379 -4.25885 0
M  V30 5873 H 550.396 -4.5496 -3.9132 0
M  V30 5874 H 551.466 -4.11261 -2.5689 0
M  V30 5875 N 552.809 0.956637 -1.25245 0
M  V30 5876 C 554.055 1.70413 -1.11044 0
M  V30 5877 C 554.41 1.89275 0.345377 0
M  V30 5878 O 553.703 1.45116 1.25107 0
M  V30 5879 C 553.897 3.08996 -1.79601 0
M  V30 5880 C 553.726 3.03654 -3.317 0
M  V30 5881 C 552.496 3.07521 -4.00947 0
M  V30 5882 C 554.694 2.84975 -4.28128 0
M  V30 5883 N 552.676 2.92316 -5.39838 0
M  V30 5884 C 554.047 2.7818 -5.5409 0
M  V30 5885 C 556.102 2.6964 -4.18568 0
M  V30 5886 C 554.805 2.57616 -6.71585 0
M  V30 5887 C 556.831 2.50447 -5.35752 0
M  V30 5888 C 556.193 2.4437 -6.60653 0
M  V30 5889 H 552.292 0.631642 -0.461035 0
M  V30 5890 H 554.876 1.13331 -1.58317 0
M  V30 5891 H 553.047 3.64248 -1.34826 0
M  V30 5892 H 554.779 3.72515 -1.58161 0
M  V30 5893 H 551.534 3.16635 -3.52192 0
M  V30 5894 H 551.958 2.87923 -6.12723 0
M  V30 5895 H 556.6 2.73113 -3.22752 0
M  V30 5896 H 554.318 2.52885 -7.67512 0
M  V30 5897 H 557.904 2.39509 -5.30214 0
M  V30 5898 H 556.784 2.29712 -7.49801 0
M  V30 5899 N 554.287 1.06798 1.15896 0
M  V30 5900 C 555.25 0.687328 2.18651 0
M  V30 5901 C 556.25 -0.269559 1.58524 0
M  V30 5902 O 557.44 -0.0512627 1.74125 0
M  V30 5903 C 554.572 0.0121642 3.40898 0
M  V30 5904 H 555.765 1.59701 2.53842 0
M  V30 5905 H 553.318 0.863828 1.3026 0
M  V30 5906 H 554.053 -0.910025 3.1127 0
M  V30 5907 H 553.838 0.700309 3.85795 0
M  V30 5908 H 555.328 -0.239703 4.16911 0
M  V30 5909 N 555.766 -1.3263 0.851289 0
M  V30 5910 C 557.006 -1.99174 0.459266 0
M  V30 5911 C 557.37 -1.65913 -0.966273 0
M  V30 5912 O 558.571 -2.2552 -1.46267 0
M  V30 5913 C 556.842 -3.50721 0.687698 0
M  V30 5914 S 558.401 -4.37039 0.392746 0
M  V30 5915 H 555.219 -0.689832 0.172199 0
M  V30 5916 H 557.821 -1.61395 1.10327 0
M  V30 5917 H 556.525 -3.72417 1.72435 0
M  V30 5918 H 556.056 -3.93389 0.0299949 0
M  V30 5919 H 558.071 -4.8999 -0.782578 0
M  V30 5920 N 557.244 -0.608902 -1.45362 0
M  V30 5921 C 558.484 -0.10763 -2.04116 0
M  V30 5922 C 558.848 1.23883 -1.46686 0
M  V30 5923 O 560.049 1.83091 -1.96803 0
M  V30 5924 C 558.32 -0.0703351 -3.57331 0
M  V30 5925 S 559.879 0.369554 -4.37241 0
M  V30 5926 H 556.697 -0.0502123 -0.709225 0
M  V30 5927 H 559.299 -0.8073 -1.78053 0
M  V30 5928 H 558.003 -1.05379 -3.9664 0
M  V30 5929 H 557.534 0.651287 -3.87971 0
M  V30 5930 H 559.549 1.61878 -4.69052 0
M  V30 5931 N 558.722 1.53707 -0.348139 0
M  V30 5932 C 559.969 2.00988 0.246966 0
M  V30 5933 C 560.297 1.23586 1.50189 0
M  V30 5934 O 559.552 0.312817 1.93184 0
M  V30 5935 C 559.851 3.52292 0.602061 0
M  V30 5936 C 559.517 4.47453 -0.556509 0
M  V30 5937 C 558.179 4.73188 -0.874446 0
M  V30 5938 C 560.531 5.03851 -1.33354 0
M  V30 5939 C 557.859 5.52577 -1.9717 0
M  V30 5940 C 560.211 5.84437 -2.42108 0
M  V30 5941 C 558.875 6.08465 -2.74456 0
M  V30 5942 H 558.145 0.735469 0.0903712 0
M  V30 5943 H 560.792 1.85464 -0.477001 0
M  V30 5944 H 559.097 3.65672 1.40681 0
M  V30 5945 H 560.794 3.86337 1.07447 0
M  V30 5946 H 557.384 4.27558 -0.298652 0
M  V30 5947 H 561.568 4.8393 -1.10117 0
M  V30 5948 H 556.824 5.69418 -2.22651 0
M  V30 5949 H 560.998 6.27151 -3.02745 0
M  V30 5950 H 558.625 6.69768 -3.59604 0
M  V30 5951 N 560.2 0.0768682 1.57412 0
M  V30 5952 C 561.447 -0.591085 1.93681 0
M  V30 5953 C 561.775 -1.69311 0.957286 0
M  V30 5954 O 561.03 -1.95682 -0.0262428 0
M  V30 5955 C 561.329 -1.20268 3.36557 0
M  V30 5956 C 560.995 -0.226286 4.50332 0
M  V30 5957 C 559.657 0.0423142 4.81181 0
M  V30 5958 C 562.009 0.441415 5.19327 0
M  V30 5959 C 559.337 0.985616 5.78362 0
M  V30 5960 C 561.689 1.37307 6.17519 0
M  V30 5961 C 560.353 1.65009 6.46783 0
M  V30 5962 H 559.623 -0.216293 0.70873 0
M  V30 5963 H 562.27 0.148824 1.90921 0
M  V30 5964 H 560.575 -2.01844 3.35807 0
M  V30 5965 H 562.272 -1.72688 3.61911 0
M  V30 5966 H 558.862 -0.445821 4.26275 0
M  V30 5967 H 563.046 0.247023 4.95685 0
M  V30 5968 H 558.302 1.20743 5.99359 0
M  V30 5969 H 562.476 1.89637 6.70083 0
M  V30 5970 H 560.103 2.38263 7.21897 0
M  V30 5971 N 561.678 -1.56367 -0.196722 0
M  V30 5972 C 562.925 -1.80529 -0.917366 0
M  V30 5973 C 563.253 -0.649817 -1.83324 0
M  V30 5974 O 562.508 0.36451 -1.92275 0
M  V30 5975 C 562.807 -3.10663 -1.767 0
M  V30 5976 C 562.473 -4.3962 -1.00225 0
M  V30 5977 C 561.135 -4.74653 -0.791095 0
M  V30 5978 C 563.487 -5.1913 -0.464035 0
M  V30 5979 C 560.815 -5.86692 -0.0302155 0
M  V30 5980 C 563.167 -6.31964 0.283625 0
M  V30 5981 C 561.831 -6.65581 0.505813 0
M  V30 5982 H 561.101 -0.660602 -0.335688 0
M  V30 5983 H 563.748 -1.90615 -0.183844 0
M  V30 5984 H 562.053 -2.95807 -2.56915 0
M  V30 5985 H 563.75 -3.26563 -2.32718 0
M  V30 5986 H 560.34 -4.12127 -1.17684 0
M  V30 5987 H 564.524 -4.9248 -0.614575 0
M  V30 5988 H 559.78 -6.11211 0.151917 0
M  V30 5989 H 563.954 -6.92791 0.708057 0
M  V30 5990 H 561.581 -7.52239 1.0973 0
M  V30 5991 N 563.156 0.464375 -1.50603 0
M  V30 5992 C 564.089 1.58052 -1.64605 0
M  V30 5993 C 565.067 1.54914 -0.494016 0
M  V30 5994 O 566.251 1.74438 -0.714393 0
M  V30 5995 C 563.378 2.96634 -1.63481 0
M  V30 5996 C 562.424 3.17901 -2.84325 0
M  V30 5997 S 563.257 2.97083 -4.45536 0
M  V30 5998 C 564.413 4.37994 -4.47115 0
M  V30 5999 H 564.646 1.45937 -2.59017 0
M  V30 6000 H 562.179 0.652189 -1.39949 0
M  V30 6001 H 564.137 3.76527 -1.63517 0
M  V30 6002 H 562.798 3.06134 -0.702928 0
M  V30 6003 H 561.991 4.19158 -2.79862 0
M  V30 6004 H 561.593 2.45792 -2.81891 0
M  V30 6005 H 563.885 5.30743 -4.21091 0
M  V30 6006 H 564.828 4.47499 -5.48772 0
M  V30 6007 H 565.236 4.20386 -3.76743 0
M  V30 6008 N 564.634 1.40294 0.718013 0
M  V30 6009 C 565.88 1.38645 1.48005 0
M  V30 6010 C 566.213 -0.0121202 1.94196 0
M  V30 6011 O 565.488 -0.980309 1.67989 0
M  V30 6012 C 565.771 2.37379 2.70782 0
M  V30 6013 C 565.624 3.8625 2.30501 0
M  V30 6014 C 566.943 2.33685 3.72933 0
M  V30 6015 H 564.062 0.504928 0.536858 0
M  V30 6016 H 566.704 1.71411 0.819649 0
M  V30 6017 H 564.854 2.09568 3.27129 0
M  V30 6018 H 566.526 4.24879 1.79655 0
M  V30 6019 H 564.769 4.02202 1.6253 0
M  V30 6020 H 565.44 4.50847 3.18498 0
M  V30 6021 H 567.916 2.58314 3.2621 0
M  V30 6022 H 566.792 3.0482 4.56482 0
M  V30 6023 H 567.053 1.34765 4.21059 0
M  V30 6024 N 566.112 -0.949982 1.2575 0
M  V30 6025 C 567.358 -1.69766 1.10938 0
M  V30 6026 C 567.691 -1.91056 -0.348028 0
M  V30 6027 O 566.966 -1.48488 -1.25625 0
M  V30 6028 C 567.249 -3.07779 1.86933 0
M  V30 6029 C 567.102 -2.9387 3.4053 0
M  V30 6030 C 568.421 -4.07749 1.65616 0
M  V30 6031 H 565.54 -0.616144 0.404396 0
M  V30 6032 H 568.182 -1.10394 1.54639 0
M  V30 6033 H 566.332 -3.58462 1.4979 0
M  V30 6034 H 568.004 -2.50476 3.87375 0
M  V30 6035 H 566.247 -2.29686 3.68004 0
M  V30 6036 H 566.918 -3.91719 3.88922 0
M  V30 6037 H 569.394 -3.65994 1.97959 0
M  V30 6038 H 568.27 -5.02348 2.21218 0
M  V30 6039 H 568.531 -4.38029 0.598595 0
M  V30 6040 N 567.59 -1.07411 -1.15328 0
M  V30 6041 C 568.52 -0.716472 -2.22236 0
M  V30 6042 C 569.501 0.296373 -1.67498 0
M  V30 6043 O 570.686 0.168989 -1.93463 0
M  V30 6044 C 567.816 -0.114142 -3.47112 0
M  V30 6045 C 566.77 -1.05421 -4.14814 0
M  V30 6046 C 566.096 -0.314604 -5.33774 0
M  V30 6047 C 567.396 -2.38808 -4.64508 0
M  V30 6048 H 569.09 -1.61029 -2.52408 0
M  V30 6049 H 566.636 -0.775702 -1.21321 0
M  V30 6050 H 568.589 0.148001 -4.2114 0
M  V30 6051 H 567.313 0.814755 -3.16274 0
M  V30 6052 H 565.972 -1.30128 -3.42728 0
M  V30 6053 H 565.62 0.617772 -4.99192 0
M  V30 6054 H 565.32 -0.941209 -5.80013 0
M  V30 6055 H 566.844 -0.0602747 -6.1057 0
M  V30 6056 H 568.258 -2.18424 -5.3006 0
M  V30 6057 H 566.655 -2.97069 -5.21412 0
M  V30 6058 H 567.725 -3.01067 -3.80114 0
M  V30 6059 N 569.068 1.32177 -0.85831 0
M  V30 6060 C 569.998 2.31282 -0.321041 0
M  V30 6061 C 570.979 1.59841 0.581786 0
M  V30 6062 O 572.164 1.87619 0.501262 0
M  V30 6063 C 569.294 3.4385 0.48832 0
M  V30 6064 C 568.248 4.26799 -0.320391 0
M  V30 6065 C 567.574 5.31164 0.613934 0
M  V30 6066 C 568.874 4.98829 -1.54813 0
M  V30 6067 H 570.568 2.76469 -1.14915 0
M  V30 6068 H 568.114 1.32916 -0.554028 0
M  V30 6069 H 570.067 4.12224 0.874626 0
M  V30 6070 H 568.791 2.97401 1.34983 0
M  V30 6071 H 567.45 3.60077 -0.688497 0
M  V30 6072 H 567.098 4.80967 1.47239 0
M  V30 6073 H 566.798 5.8755 0.0768097 0
M  V30 6074 H 568.322 6.024 0.997336 0
M  V30 6075 H 569.736 5.59864 -1.23392 0
M  V30 6076 H 568.133 5.64957 -2.02346 0
M  V30 6077 H 569.203 4.26483 -2.30739 0
M  V30 6078 N 570.547 0.616602 1.45037 0
M  V30 6079 C 571.795 0.115103 2.01772 0
M  V30 6080 C 572.116 -1.2622 1.48639 0
M  V30 6081 O 571.386 -1.83563 0.684199 0
M  V30 6082 H 569.966 0.0395607 0.745952 0
M  V30 6083 H 572.628 0.800032 1.77723 0
M  V30 6084 H 571.724 0.0717274 3.12018 0
M  V30 6085 N 572.025 -1.5352 0.356285 0
M  V30 6086 C 572.955 -2.28372 -0.486661 0
M  V30 6087 C 573.936 -1.30432 -1.09185 0
M  V30 6088 O 575.121 -1.59291 -1.11085 0
M  V30 6089 C 572.251 -3.06604 -1.63129 0
M  V30 6090 C 571.205 -4.12154 -1.15381 0
M  V30 6091 C 570.531 -4.78415 -2.38796 0
M  V30 6092 C 571.831 -5.21724 -0.245179 0
M  V30 6093 H 573.525 -2.99083 0.137797 0
M  V30 6094 H 571.071 -1.43841 0.0677134 0
M  V30 6095 H 573.024 -3.57712 -2.22755 0
M  V30 6096 H 571.748 -2.33568 -2.28284 0
M  V30 6097 H 570.407 -3.61978 -0.580294 0
M  V30 6098 H 570.055 -4.01959 -3.02387 0
M  V30 6099 H 569.755 -5.49734 -2.07524 0
M  V30 6100 H 571.279 -5.32313 -2.99125 0
M  V30 6101 H 572.693 -5.68391 -0.748646 0
M  V30 6102 H 571.09 -6.00095 -0.0237608 0
M  V30 6103 H 572.16 -4.79596 0.715229 0
M  V30 6104 N 573.503 -0.0852151 -1.57369 0
M  V30 6105 C 574.78 0.622534 -1.85429 0
M  V30 6106 C 575.16 1.86962 -0.980229 0
M  V30 6107 O 574.508 2.28445 -0.0500219 0
M  V30 6108 C 574.718 0.947374 -3.35896 0
M  V30 6109 C 576.066 1.31509 -4.03721 0
M  V30 6110 O 577.09 1.03869 -3.40719 0
M  V30 6111 O 575.949 1.83231 -5.14868 0
M  V30 6112 H 573.043 0.310513 -0.766492 0
M  V30 6113 H 575.589 -0.117164 -1.69295 0
M  V30 6114 H 574.361 0.0622264 -3.91251 0
M  V30 6115 H 573.984 1.74338 -3.5734 0
M  V30 6116 N 574.981 1.5647 0.188427 0
M  V30 6117 C 576.206 1.85486 0.927891 0
M  V30 6118 C 576.631 0.669575 1.75779 0
M  V30 6119 O 575.989 -0.381573 1.77239 0
M  V30 6120 C 576.037 3.12784 1.7944 0
M  V30 6121 O 575.141 2.93805 2.894 0
M  V30 6122 H 574.482 0.610585 0.260925 0
M  V30 6123 H 577.012 2.037 0.191729 0
M  V30 6124 H 577.022 3.43749 2.19774 0
M  V30 6125 H 575.697 3.98671 1.18468 0
M  V30 6126 H 574.274 2.74153 2.52774 0
M  V30 6127 N 576.459 -0.456382 1.50847 0
M  V30 6128 C 577.391 -1.57033 1.66953 0
M  V30 6129 C 578.404 -1.53207 0.550593 0
M  V30 6130 O 579.593 -1.58328 0.824285 0
M  V30 6131 C 576.693 -2.95937 1.65149 0
M  V30 6132 C 575.866 -3.24475 2.93317 0
M  V30 6133 C 574.925 -4.43007 2.83957 0
M  V30 6134 O 573.951 -4.42592 3.57912 0
M  V30 6135 N 575.153 -5.45503 1.9851 0
M  V30 6136 H 577.918 -1.43629 2.63042 0
M  V30 6137 H 575.479 -0.645037 1.48495 0
M  V30 6138 H 577.471 -3.73224 1.56481 0
M  V30 6139 H 576.041 -3.03036 0.767343 0
M  V30 6140 H 575.261 -2.35664 3.16 0
M  V30 6141 H 576.549 -3.4036 3.78196 0
M  V30 6142 H 575.947 -5.48668 1.37766 0
M  V30 6143 H 574.504 -6.21716 1.95735 0
M  V30 6144 N 577.937 -1.40673 -0.710563 0
M  V30 6145 C 579.184 -1.39222 -1.47049 0
M  V30 6146 C 579.512 0.0037691 -1.945 0
M  V30 6147 O 578.767 0.989224 -1.68857 0
M  V30 6148 C 579.066 -2.33253 -2.70791 0
M  V30 6149 C 578.732 -3.80406 -2.42079 0
M  V30 6150 C 577.394 -4.20496 -2.33959 0
M  V30 6151 C 579.746 -4.73375 -2.18094 0
M  V30 6152 C 577.074 -5.51584 -1.99929 0
M  V30 6153 C 579.426 -6.04768 -1.85576 0
M  V30 6154 C 578.09 -6.43895 -1.75941 0
M  V30 6155 H 577.36 -0.509449 -0.538092 0
M  V30 6156 H 580.007 -1.73363 -0.81348 0
M  V30 6157 H 578.312 -1.92314 -3.41354 0
M  V30 6158 H 580.009 -2.29412 -3.28894 0
M  V30 6159 H 576.599 -3.48645 -2.49288 0
M  V30 6160 H 580.783 -4.43217 -2.23321 0
M  V30 6161 H 576.039 -5.80797 -1.91011 0
M  V30 6162 H 580.213 -6.76318 -1.66033 0
M  V30 6163 H 577.84 -7.45387 -1.4934 0
M  V30 6164 N 579.415 0.9433 -1.26252 0
M  V30 6165 C 580.661 1.69175 -1.11837 0
M  V30 6166 C 580.994 1.91238 0.337891 0
M  V30 6167 O 580.269 1.49152 1.24836 0
M  V30 6168 C 580.552 3.06783 -1.88563 0
M  V30 6169 C 580.405 2.9206 -3.42083 0
M  V30 6170 C 581.724 4.06865 -1.67776 0
M  V30 6171 H 578.843 0.61399 -0.407658 0
M  V30 6172 H 581.485 1.09572 -1.55222 0
M  V30 6173 H 579.635 3.57663 -1.51689 0
M  V30 6174 H 581.307 2.48419 -3.88698 0
M  V30 6175 H 579.55 2.27731 -3.69217 0
M  V30 6176 H 580.221 3.89651 -3.90994 0
M  V30 6177 H 582.697 3.64939 -1.99897 0
M  V30 6178 H 581.573 5.01168 -2.23879 0
M  V30 6179 H 581.834 4.37705 -0.621816 0
M  V30 6180 N 580.893 1.08022 1.14757 0
M  V30 6181 C 582.133 0.816959 1.87364 0
M  V30 6182 C 582.497 -0.645407 1.80827 0
M  V30 6183 O 583.698 -1.024 2.48531 0
M  V30 6184 C 581.969 1.31961 3.32146 0
M  V30 6185 S 583.528 1.18806 4.2241 0
M  V30 6186 H 580.346 0.295862 0.646519 0
M  V30 6187 H 582.948 1.3807 1.38408 0
M  V30 6188 H 581.652 2.37847 3.3445 0
M  V30 6189 H 581.183 0.751371 3.86158 0
M  V30 6190 H 583.198 0.129865 4.9603 0
M  V30 6191 N 582.371 -1.3172 0.865308 0
M  V30 6192 C 583.617 -1.97168 0.474633 0
M  V30 6193 C 583.95 -1.68263 -0.969604 0
M  V30 6194 O 583.225 -0.976588 -1.68205 0
M  V30 6195 C 583.508 -3.52689 0.726808 0
M  V30 6196 C 583.361 -3.91185 2.22024 0
M  V30 6197 C 584.68 -4.39689 0.190201 0
M  V30 6198 H 581.799 -0.716185 0.17392 0
M  V30 6199 H 584.441 -1.55925 1.08569 0
M  V30 6200 H 582.591 -3.8795 0.206705 0
M  V30 6201 H 584.263 -3.66049 2.80724 0
M  V30 6202 H 582.506 -3.3996 2.69462 0
M  V30 6203 H 583.177 -4.99604 2.34735 0
M  V30 6204 H 585.653 -4.11225 0.635103 0
M  V30 6205 H 584.529 -5.47469 0.396132 0
M  V30 6206 H 584.79 -4.32683 -0.907625 0
M  V30 6207 N 583.85 -0.624285 -1.44708 0
M  V30 6208 C 584.76 0.0861083 -2.34442 0
M  V30 6209 C 585.776 0.84291 -1.5222 0
M  V30 6210 O 586.952 0.796723 -1.84971 0
M  V30 6211 C 584.017 1.05999 -3.30099 0
M  V30 6212 C 583.077 0.303316 -4.28227 0
M  V30 6213 C 582.311 1.23081 -5.19314 0
M  V30 6214 O 582.534 2.46929 -5.14181 0
M  V30 6215 O 581.468 0.71883 -5.97592 0
M  V30 6216 H 585.293 -0.651756 -2.96624 0
M  V30 6217 H 582.879 -0.384493 -1.44368 0
M  V30 6218 H 584.76 1.62046 -3.88997 0
M  V30 6219 H 583.436 1.77859 -2.70459 0
M  V30 6220 H 582.343 -0.300033 -3.72895 0
M  V30 6221 H 583.676 -0.375123 -4.90768 0
M  V30 6222 N 585.328 1.53329 -0.364422 0
M  V30 6223 C 586.553 2.06132 0.229033 0
M  V30 6224 C 586.978 1.23625 1.41769 0
M  V30 6225 O 586.336 0.255038 1.79497 0
M  V30 6226 C 586.384 3.55544 0.60174 0
M  V30 6227 O 585.488 3.75771 1.69912 0
M  V30 6228 H 584.829 0.663148 0.0336213 0
M  V30 6229 H 587.359 1.97758 -0.524689 0
M  V30 6230 H 587.369 3.98549 0.873073 0
M  V30 6231 H 586.044 4.15039 -0.267421 0
M  V30 6232 H 584.621 3.44663 1.42343 0
M  V30 6233 N 586.806 0.0935595 1.57322 0
M  V30 6234 C 587.736 -0.863062 2.16964 0
M  V30 6235 C 588.717 -1.29528 1.10256 0
M  V30 6236 O 589.902 -1.36245 1.38387 0
M  V30 6237 C 587.032 -2.12276 2.74875 0
M  V30 6238 C 585.986 -1.82921 3.86942 0
M  V30 6239 C 585.312 -3.15707 4.31548 0
M  V30 6240 C 586.612 -1.11737 5.10208 0
M  V30 6241 H 588.306 -0.366145 2.97153 0
M  V30 6242 H 585.852 -0.174673 1.42937 0
M  V30 6243 H 587.805 -2.79634 3.1525 0
M  V30 6244 H 586.529 -2.64248 1.91938 0
M  V30 6245 H 585.188 -1.17961 3.47103 0
M  V30 6246 H 584.836 -3.65563 3.45504 0
M  V30 6247 H 584.536 -2.96849 5.07104 0
M  V30 6248 H 586.06 -3.84226 4.74555 0
M  V30 6249 H 587.474 -1.69203 5.47762 0
M  V30 6250 H 585.871 -1.03064 5.91183 0
M  V30 6251 H 586.941 -0.0998818 4.84797 0
M  V30 6252 N 588.284 -1.56567 -0.180126 0
M  V30 6253 C 589.53 -1.81761 -0.899497 0
M  V30 6254 C 589.863 -0.670015 -1.82276 0
M  V30 6255 O 589.138 0.328575 -1.91705 0
M  V30 6256 C 589.421 -3.17296 -1.7028 0
M  V30 6257 C 589.274 -4.4257 -0.803255 0
M  V30 6258 C 590.593 -3.49678 -2.67233 0
M  V30 6259 H 587.712 -0.661192 -0.325567 0
M  V30 6260 H 590.354 -1.89272 -0.16612 0
M  V30 6261 H 588.504 -3.11023 -2.32802 0
M  V30 6262 H 590.176 -4.60902 -0.191585 0
M  V30 6263 H 588.419 -4.33658 -0.110796 0
M  V30 6264 H 589.09 -5.33935 -1.40064 0
M  V30 6265 H 591.566 -3.56347 -2.14839 0
M  V30 6266 H 590.442 -4.45605 -3.20511 0
M  V30 6267 H 590.703 -2.73932 -3.47007 0
M  V30 6268 N 589.762 0.448376 -1.51087 0
M  V30 6269 C 590.99 1.22143 -1.66999 0
M  V30 6270 C 591.405 1.85283 -0.362699 0
M  V30 6271 O 590.762 1.70236 0.65772 0
M  V30 6272 C 590.813 2.31357 -2.7777 0
M  V30 6273 O 590.534 1.70801 -4.03434 0
M  V30 6274 C 592.035 3.21836 -3.04855 0
M  V30 6275 H 589.255 0.368558 -0.560719 0
M  V30 6276 H 591.799 0.532618 -1.97442 0
M  V30 6277 H 589.954 2.95973 -2.49958 0
M  V30 6278 H 590.368 2.42895 -4.64868 0
M  V30 6279 H 591.842 3.94627 -3.85971 0
M  V30 6280 H 592.319 3.81949 -2.16821 0
M  V30 6281 H 592.925 2.62933 -3.34285 0
M  V30 6282 N 591.24 1.41047 0.703093 0
M  V30 6283 C 592.203 1.42036 1.79884 0
M  V30 6284 C 593.203 0.312153 1.57741 0
M  V30 6285 O 594.393 0.571672 1.64553 0
M  V30 6286 C 591.525 1.22437 3.18154 0
M  V30 6287 H 592.718 2.39572 1.80403 0
M  V30 6288 H 590.271 1.27079 0.909977 0
M  V30 6289 H 591.006 0.257112 3.23279 0
M  V30 6290 H 590.791 2.02723 3.35627 0
M  V30 6291 H 592.281 1.25946 3.98155 0
M  V30 6292 N 592.718 -0.936591 1.26751 0
M  V30 6293 C 593.648 -2.05315 1.11212 0
M  V30 6294 C 594.629 -1.70092 0.0160262 0
M  V30 6295 O 595.814 -1.93279 0.188894 0
M  V30 6296 C 592.944 -3.39123 0.749171 0
M  V30 6297 C 591.898 -3.88425 1.79751 0
M  V30 6298 C 591.224 -5.18936 1.28876 0
M  V30 6299 C 592.524 -4.12798 3.19992 0
M  V30 6300 H 594.218 -2.18573 2.04613 0
M  V30 6301 H 591.764 -1.05027 0.985159 0
M  V30 6302 H 593.717 -4.16704 0.627323 0
M  V30 6303 H 592.441 -3.25855 -0.220543 0
M  V30 6304 H 591.1 -3.13028 1.90811 0
M  V30 6305 H 590.748 -5.02051 0.308757 0
M  V30 6306 H 590.448 -5.52892 1.98958 0
M  V30 6307 H 591.972 -5.99096 1.17967 0
M  V30 6308 H 593.386 -4.80977 3.11983 0
M  V30 6309 H 591.783 -4.58044 3.87705 0
M  V30 6310 H 592.853 -3.18412 3.65707 0
M  V30 6311 N 594.196 -1.08629 -1.14182 0
M  V30 6312 C 595.442 -0.818556 -1.85546 0
M  V30 6313 C 595.775 0.654076 -1.82854 0
M  V30 6314 O 595.05 1.48099 -1.26083 0
M  V30 6315 C 595.333 -1.34397 -3.3408 0
M  V30 6316 C 595.186 -2.8821 -3.45333 0
M  V30 6317 C 596.505 -0.971069 -4.29253 0
M  V30 6318 H 593.624 -0.298821 -0.673702 0
M  V30 6319 H 596.266 -1.34629 -1.34071 0
M  V30 6320 H 594.416 -0.895064 -3.78049 0
M  V30 6321 H 596.088 -3.41488 -3.10134 0
M  V30 6322 H 594.331 -3.25756 -2.86471 0
M  V30 6323 H 595.002 -3.20047 -4.49749 0
M  V30 6324 H 597.478 -1.35809 -3.93313 0
M  V30 6325 H 596.354 -1.36586 -5.31635 0
M  V30 6326 H 596.615 0.121659 -4.41933 0
M  V30 6327 N 595.674 1.31259 -0.872281 0
M  V30 6328 C 596.951 1.91362 -0.404943 0
M  V30 6329 C 597.331 1.79362 1.11321 0
M  V30 6330 O 596.679 1.20277 1.94283 0
M  V30 6331 C 596.889 3.3749 -0.888893 0
M  V30 6332 C 598.237 4.14593 -0.916384 0
M  V30 6333 O 599.261 3.46282 -0.834701 0
M  V30 6334 O 598.12 5.3661 -1.03498 0
M  V30 6335 H 595.214 0.818016 -0.121569 0
M  V30 6336 H 597.76 1.39912 -0.960346 0
M  V30 6337 H 596.532 3.40249 -1.93251 0
M  V30 6338 H 596.155 3.96375 -0.311932 0
M  V30 6339 N 597.152 0.631951 1.44375 0
M  V30 6340 C 598.085 -0.121822 2.27875 0
M  V30 6341 C 599.063 -0.850457 1.38586 0
M  V30 6342 O 600.247 -0.854378 1.68026 0
M  V30 6343 C 597.374 -1.17859 3.17533 0
M  V30 6344 C 596.42 -0.550391 4.22934 0
M  V30 6345 S 597.253 0.660145 5.31415 0
M  V30 6346 C 598.409 -0.396613 6.24642 0
M  V30 6347 H 598.642 0.586537 2.91457 0
M  V30 6348 H 596.175 0.420146 1.48574 0
M  V30 6349 H 598.133 -1.78335 3.69739 0
M  V30 6350 H 596.794 -1.85915 2.53169 0
M  V30 6351 H 595.987 -1.34631 4.85685 0
M  V30 6352 H 595.589 -0.0202306 3.73995 0
M  V30 6353 H 597.881 -1.26893 6.65511 0
M  V30 6354 H 598.824 0.195345 7.0783 0
M  V30 6355 H 599.232 -0.72288 5.59852 0
M  V30 6356 N 598.631 -1.53133 0.372548 0
M  V30 6357 C 599.861 -2.05476 -0.215202 0
M  V30 6358 C 600.269 -1.24534 -1.42436 0
M  V30 6359 O 599.612 -0.280771 -1.81542 0
M  V30 6360 C 599.674 -3.53276 -0.666068 0
M  V30 6361 C 599.338 -4.54998 0.427342 0
M  V30 6362 C 600.335 -5.03911 1.27944 0
M  V30 6363 C 598.02 -4.98828 0.589579 0
M  V30 6364 C 600.014 -5.95263 2.27905 0
M  V30 6365 C 597.701 -5.89984 1.59255 0
M  V30 6366 C 598.699 -6.38093 2.43571 0
M  V30 6367 O 598.387 -7.27451 3.42156 0
M  V30 6368 H 598.119 -0.67481 -0.040099 0
M  V30 6369 H 600.673 -1.98409 0.531312 0
M  V30 6370 H 598.903 -3.57904 -1.4643 0
M  V30 6371 H 600.592 -3.88442 -1.1776 0
M  V30 6372 H 601.358 -4.70792 1.16532 0
M  V30 6373 H 597.237 -4.60965 -0.0569456 0
M  V30 6374 H 600.781 -6.32736 2.93753 0
M  V30 6375 H 596.678 -6.22518 1.70711 0
M  V30 6376 H 597.446 -7.45467 3.37967 0
M  V30 6377 N 600.109 -0.101901 -1.5727 0
M  V30 6378 C 601.52 0.426173 -1.81771 0
M  V30 6379 C 601.871 1.67725 -1.01797 0
M  V30 6380 O 600.996 2.14958 -0.249386 0
M  V30 6381 C 601.591 0.779962 -3.297 0
M  V30 6382 C 600.15 1.25275 -3.54941 0
M  V30 6383 C 599.297 0.252814 -2.76145 0
M  V30 6384 H 602.248 -0.32726 -1.55289 0
M  V30 6385 H 602.269 1.63891 -3.43395 0
M  V30 6386 H 601.781 -0.130778 -3.8788 0
M  V30 6387 H 599.882 2.18097 -3.021 0
M  V30 6388 H 599.995 1.20988 -4.63572 0
M  V30 6389 H 598.359 0.736362 -2.43823 0
M  V30 6390 H 599.142 -0.650724 -3.37076 0
M  V30 6391 N 601.587 1.56661 0.17182 0
M  V30 6392 C 602.537 1.92781 1.21736 0
M  V30 6393 C 603.521 0.796065 1.39827 0
M  V30 6394 O 604.713 1.05924 1.41806 0
M  V30 6395 C 601.842 2.29079 2.55691 0
M  V30 6396 C 600.928 3.48765 2.41296 0
M  V30 6397 N 601.319 4.66022 1.96614 0
M  V30 6398 C 599.617 3.53362 2.72124 0
M  V30 6399 C 600.318 5.48159 1.94669 0
M  V30 6400 N 599.294 4.89189 2.37054 0
M  V30 6401 H 603.096 2.80926 0.863592 0
M  V30 6402 H 600.61 1.57889 0.380096 0
M  V30 6403 H 602.607 2.5315 3.31241 0
M  V30 6404 H 601.267 1.42272 2.91871 0
M  V30 6405 H 602.278 4.9025 1.66959 0
M  V30 6406 H 598.955 2.77033 3.12345 0
M  V30 6407 H 600.345 6.52121 1.61826 0
M  V30 6408 N 603.065 -0.440357 1.51323 0
M  V30 6409 C 604.311 -1.19181 1.64085 0
M  V30 6410 C 604.644 -1.90936 0.354575 0
M  V30 6411 O 603.919 -1.8347 -0.645675 0
M  V30 6412 C 604.202 -2.2112 2.84215 0
M  V30 6413 C 604.055 -1.53468 4.22809 0
M  V30 6414 C 605.374 -3.22133 2.99864 0
M  V30 6415 H 602.493 -0.431924 0.597169 0
M  V30 6416 H 605.135 -0.481443 1.83799 0
M  V30 6417 H 603.285 -2.81703 2.67537 0
M  V30 6418 H 604.957 -0.962455 4.51148 0
M  V30 6419 H 603.2 -0.837086 4.25647 0
M  V30 6420 H 603.871 -2.27694 5.02852 0
M  V30 6421 H 606.347 -2.71601 3.15233 0
M  V30 6422 H 605.223 -3.90756 3.85488 0
M  V30 6423 H 605.484 -3.88061 2.11804 0
M  V30 6424 N 604.543 -1.41418 -0.695603 0
M  V30 6425 C 605.79 -1.40774 -1.45564 0
M  V30 6426 C 606.118 -0.0168604 -1.94493 0
M  V30 6427 O 605.373 0.971259 -1.69897 0
M  V30 6428 C 605.672 -2.36112 -2.68302 0
M  V30 6429 C 605.338 -3.82952 -2.38031 0
M  V30 6430 C 604 -4.22954 -2.29486 0
M  V30 6431 C 606.352 -4.75662 -2.13061 0
M  V30 6432 C 603.68 -5.53674 -1.94067 0
M  V30 6433 C 606.032 -6.06702 -1.79151 0
M  V30 6434 C 604.696 -6.45725 -1.69102 0
M  V30 6435 H 603.966 -0.515128 -0.532658 0
M  V30 6436 H 606.613 -1.74216 -0.795047 0
M  V30 6437 H 604.918 -1.95924 -3.39295 0
M  V30 6438 H 606.615 -2.32887 -3.26442 0
M  V30 6439 H 603.205 -3.5127 -2.45576 0
M  V30 6440 H 607.389 -4.45561 -2.18608 0
M  V30 6441 H 602.645 -5.8279 -1.8484 0
M  V30 6442 H 606.819 -6.78041 -1.5885 0
M  V30 6443 H 604.446 -7.46929 -1.41426 0
M  V30 6444 N 606.021 0.929856 -1.27246 0
M  V30 6445 C 607.437 1.20542 -1.04603 0
M  V30 6446 C 607.637 2.00276 0.221754 0
M  V30 6447 O 606.693 2.34835 0.927833 0
M  V30 6448 C 608.006 1.95566 -2.28417 0
M  V30 6449 C 609.554 2.08513 -2.33433 0
M  V30 6450 C 610.029 2.86943 -3.5697 0
M  V30 6451 N 611.52 2.94512 -3.57515 0
M  V30 6452 C 612.255 3.55656 -4.49774 0
M  V30 6453 N 611.751 4.18209 -5.52334 0
M  V30 6454 N 613.544 3.53038 -4.37402 0
M  V30 6455 H 605.695 0.397113 -2.08655 0
M  V30 6456 H 607.958 0.238277 -0.917566 0
M  V30 6457 H 607.664 1.44395 -3.20691 0
M  V30 6458 H 607.538 2.9619 -2.33563 0
M  V30 6459 H 609.925 2.58872 -1.41666 0
M  V30 6460 H 610.006 1.07117 -2.32292 0
M  V30 6461 H 609.65 2.37268 -4.49072 0
M  V30 6462 H 609.58 3.8862 -3.55362 0
M  V30 6463 H 612.071 2.50053 -2.83341 0
M  V30 6464 H 612.384 4.62796 -6.18902 0
M  V30 6465 H 610.729 4.16761 -5.56179 0
M  V30 6466 H 613.92 3.0337 -3.56489 0
M  V30 6467 H 614.093 4.004 -5.09493 0
M  V30 6468 N 607.499 1.09233 1.13605 0
M  V30 6469 C 608.446 0.729921 2.18954 0
M  V30 6470 C 609.416 -0.287916 1.63586 0
M  V30 6471 O 610.601 -0.170003 1.90041 0
M  V30 6472 C 607.741 0.154489 3.44754 0
M  V30 6473 C 606.854 1.22613 4.14234 0
M  V30 6474 C 605.989 0.613657 5.27644 0
M  V30 6475 C 605.028 1.66674 5.8897 0
M  V30 6476 N 604.165 1.07545 6.93814 0
M  V30 6477 H 609.005 1.63257 2.49302 0
M  V30 6478 H 606.542 0.815693 1.22413 0
M  V30 6479 H 608.5 -0.196923 4.16735 0
M  V30 6480 H 607.13 -0.711433 3.14863 0
M  V30 6481 H 606.182 1.69485 3.40557 0
M  V30 6482 H 607.494 2.0238 4.55899 0
M  V30 6483 H 606.648 0.210976 6.06333 0
M  V30 6484 H 605.387 -0.215584 4.87223 0
M  V30 6485 H 604.392 2.07899 5.08978 0
M  V30 6486 H 605.617 2.49861 6.31464 0
M  V30 6487 H 603.563 0.267451 6.55455 0
M  V30 6488 H 603.48 1.81011 7.3401 0
M  V30 6489 H 604.748 0.698906 7.7636 0
M  V30 6490 N 608.977 -1.30795 0.87923 0
M  V30 6491 C 609.924 -2.28282 0.339968 0
M  V30 6492 C 610.894 -1.56134 -0.566685 0
M  V30 6493 O 612.079 -1.84231 -0.496338 0
M  V30 6494 C 609.219 -3.42225 -0.444501 0
M  V30 6495 C 608.332 -4.29204 0.490717 0
M  V30 6496 C 607.467 -5.30302 -0.308784 0
M  V30 6497 C 606.506 -6.08929 0.622272 0
M  V30 6498 N 605.643 -7.01957 -0.14155 0
M  V30 6499 H 610.483 -2.73794 1.17647 0
M  V30 6500 H 608.02 -1.34682 0.591527 0
M  V30 6501 H 609.978 -4.07038 -0.915186 0
M  V30 6502 H 608.608 -2.97799 -1.24562 0
M  V30 6503 H 607.66 -3.6475 1.07988 0
M  V30 6504 H 608.972 -4.84045 1.20425 0
M  V30 6505 H 608.126 -6.00835 -0.841575 0
M  V30 6506 H 606.865 -4.7614 -1.05556 0
M  V30 6507 H 605.87 -5.37278 1.16674 0
M  V30 6508 H 607.095 -6.65178 1.36804 0
M  V30 6509 H 605.041 -6.50192 -0.870966 0
M  V30 6510 H 604.958 -7.54261 0.51246 0
M  V30 6511 H 606.226 -7.76741 -0.655271 0
M  V30 6512 N 610.455 -0.639598 -1.44038 0
M  V30 6513 C 611.403 0.0723409 -2.32487 0
M  V30 6514 C 612.397 0.827129 -1.47834 0
M  V30 6515 O 613.603 0.73907 -1.64127 0
M  V30 6516 H 609.978 0.0421696 -0.750817 0
M  V30 6517 H 611.949 -0.691593 -2.90275 0
M  V30 6518 C 610.698 1.03452 -3.31953 0
M  V30 6519 H 610.021 0.46315 -3.97108 0
M  V30 6520 H 611.461 1.502 -3.96505 0
M  V30 6521 C 609.92 2.12392 -2.61518 0
M  V30 6522 O 610.45 3.2059 -2.42044 0
M  V30 6523 N 608.656 1.88563 -2.21116 0
M  V30 6524 H 608.203 1.00577 -2.37154 0
M  V30 6525 H 608.161 2.61651 -1.74316 0
M  V30 6526 N 611.933 1.52934 -0.380664 0
M  V30 6527 C 613.349 1.59571 -0.0302429 0
M  V30 6528 C 613.549 1.39509 1.45394 0
M  V30 6529 O 612.605 1.20777 2.21741 0
M  V30 6530 C 613.918 2.96519 -0.499691 0
M  V30 6531 C 615.466 3.09672 -0.455204 0
M  V30 6532 C 615.941 4.49056 -0.900703 0
M  V30 6533 N 617.432 4.55215 -0.856367 0
M  V30 6534 C 618.167 5.61282 -1.17259 0
M  V30 6535 N 617.663 6.75035 -1.55885 0
M  V30 6536 N 619.456 5.51343 -1.0944 0
M  V30 6537 H 611.607 1.64224 -1.347 0
M  V30 6538 H 613.87 0.771033 -0.551554 0
M  V30 6539 H 613.576 3.16388 -1.53595 0
M  V30 6540 H 613.45 3.77052 0.105789 0
M  V30 6541 H 615.837 2.89504 0.571949 0
M  V30 6542 H 615.918 2.31113 -1.09638 0
M  V30 6543 H 615.562 4.69964 -1.92604 0
M  V30 6544 H 615.492 5.26068 -0.236629 0
M  V30 6545 H 617.983 3.73546 -0.572013 0
M  V30 6546 H 618.296 7.51926 -1.784 0
M  V30 6547 H 616.641 6.76388 -1.59764 0
M  V30 6548 H 619.832 4.61356 -0.791713 0
M  V30 6549 H 620.005 6.33905 -1.34417 0
M  V30 6550 N 613.412 0.11024 1.57214 0
M  V30 6551 C 614.828 -0.24638 1.57687 0
M  V30 6552 C 615.028 -1.67344 1.12241 0
M  V30 6553 O 614.084 -2.39298 0.805783 0
M  V30 6554 C 615.397 -0.0210288 3.00693 0
M  V30 6555 C 616.945 -0.0876077 3.12877 0
M  V30 6556 C 617.42 0.10994 4.57868 0
M  V30 6557 N 618.911 0.0556135 4.63167 0
M  V30 6558 C 619.646 0.183495 5.73106 0
M  V30 6559 N 619.142 0.367058 6.91827 0
M  V30 6560 N 620.935 0.123689 5.61964 0
M  V30 6561 H 613.086 1.04246 1.85058 0
M  V30 6562 H 615.349 0.40979 0.854854 0
M  V30 6563 H 615.055 0.965203 3.38196 0
M  V30 6564 H 614.929 -0.756748 3.69531 0
M  V30 6565 H 617.316 -1.06436 2.75237 0
M  V30 6566 H 617.397 0.67985 2.466 0
M  V30 6567 H 617.041 1.08362 4.96206 0
M  V30 6568 H 616.971 -0.677397 5.22225 0
M  V30 6569 H 619.462 -0.0831062 3.77809 0
M  V30 6570 H 619.775 0.455739 7.71455 0
M  V30 6571 H 618.12 0.40292 6.93831 0
M  V30 6572 H 621.311 -0.0186928 4.68096 0
M  V30 6573 H 621.484 0.226797 6.47603 0
M  V30 6574 N 614.89 -1.56749 -0.16351 0
M  V30 6575 C 615.8 -2.00255 -1.2221 0
M  V30 6576 C 616.816 -0.915194 -1.47987 0
M  V30 6577 O 617.992 -1.22342 -1.59982 0
M  V30 6578 C 615.057 -2.36035 -2.53946 0
M  V30 6579 C 614.118 -3.58637 -2.35962 0
M  V30 6580 C 613.351 -3.92701 -3.61416 0
M  V30 6581 O 613.574 -3.27632 -4.66919 0
M  V30 6582 O 612.508 -4.86019 -3.55062 0
M  V30 6583 H 616.334 -2.90586 -0.882794 0
M  V30 6584 H 613.919 -1.44721 -0.370978 0
M  V30 6585 H 615.801 -2.59982 -3.31643 0
M  V30 6586 H 614.476 -1.48863 -2.8744 0
M  V30 6587 H 613.383 -3.39898 -1.5627 0
M  V30 6588 H 614.716 -4.46374 -2.0739 0
M  V30 6589 N 616.368 0.432326 -1.51554 0
M  V30 6590 C 617.614 1.18309 -1.64714 0
M  V30 6591 C 617.947 1.90745 -0.364696 0
M  V30 6592 O 617.222 1.8381 0.635936 0
M  V30 6593 C 617.505 2.1961 -2.85383 0
M  V30 6594 C 617.358 1.51223 -4.23617 0
M  V30 6595 C 618.677 3.20538 -3.01569 0
M  V30 6596 H 615.796 0.428751 -0.599451 0
M  V30 6597 H 618.438 0.471689 -1.84052 0
M  V30 6598 H 616.588 2.8028 -2.69027 0
M  V30 6599 H 618.26 0.938516 -4.51652 0
M  V30 6600 H 616.503 0.814501 -4.26085 0
M  V30 6601 H 617.174 2.25024 -5.04052 0
M  V30 6602 H 619.65 2.69926 -3.16669 0
M  V30 6603 H 618.526 3.88706 -3.87555 0
M  V30 6604 H 618.787 3.86933 -2.13859 0
M  V30 6605 N 617.846 1.41785 0.688094 0
M  V30 6606 C 618.776 1.47 1.8142 0
M  V30 6607 C 619.757 0.327881 1.6691 0
M  V30 6608 O 620.942 0.540362 1.86531 0
M  V30 6609 C 618.072 1.35876 3.19617 0
M  V30 6610 C 617.026 2.47976 3.48844 0
M  V30 6611 C 616.352 2.21915 4.86475 0
M  V30 6612 C 617.652 3.90309 3.47068 0
M  V30 6613 H 619.346 2.41247 1.77314 0
M  V30 6614 H 616.892 1.16116 0.851651 0
M  V30 6615 H 618.845 1.38134 3.98117 0
M  V30 6616 H 617.569 0.38116 3.24368 0
M  V30 6617 H 616.228 2.45013 2.72698 0
M  V30 6618 H 615.876 1.2248 4.8786 0
M  V30 6619 H 615.576 2.97037 5.06994 0
M  V30 6620 H 617.1 2.25901 5.67275 0
M  V30 6621 H 618.514 3.94947 4.1556 0
M  V30 6622 H 616.911 4.65175 3.7912 0
M  V30 6623 H 617.981 4.17927 2.45896 0
M  V30 6624 N 619.324 -0.923095 1.27737 0
M  V30 6625 C 620.573 -1.66581 1.13727 0
M  V30 6626 C 620.886 -1.9304 -0.315433 0
M  V30 6627 O 622.092 -2.65309 -0.57651 0
M  V30 6628 C 620.548 -3.00047 1.98745 0
M  V30 6629 C 620.156 -2.8127 3.48699 0
M  V30 6630 C 621.9 -3.77887 1.93395 0
M  V30 6631 C 619.807 -4.1032 4.25901 0
M  V30 6632 H 618.737 -0.624834 0.422017 0
M  V30 6633 H 621.388 -1.02514 1.52194 0
M  V30 6634 H 619.77 -3.65197 1.53125 0
M  V30 6635 H 620.944 -2.24859 4.02213 0
M  V30 6636 H 619.259 -2.16854 3.55476 0
M  V30 6637 H 621.856 -4.73526 2.48348 0
M  V30 6638 H 622.199 -4.06264 0.908605 0
M  V30 6639 H 622.732 -3.19541 2.36935 0
M  V30 6640 H 619.471 -3.8712 5.28978 0
M  V30 6641 H 618.991 -4.66377 3.77163 0
M  V30 6642 H 620.67 -4.78648 4.35321 0
M  V30 6643 N 620.802 -1.09834 -1.13024 0
M  V30 6644 C 621.732 -0.763451 -2.20666 0
M  V30 6645 C 622.713 0.260778 -1.68089 0
M  V30 6646 O 623.898 0.127915 -1.93778 0
M  V30 6647 C 621.028 -0.187744 -3.46792 0
M  V30 6648 C 619.982 -1.14196 -4.12484 0
M  V30 6649 C 619.308 -0.427755 -5.32986 0
M  V30 6650 C 620.608 -2.48607 -4.59338 0
M  V30 6651 H 622.302 -1.66347 -2.48936 0
M  V30 6652 H 619.848 -0.801261 -1.19649 0
M  V30 6653 H 621.801 0.0586375 -4.21359 0
M  V30 6654 H 620.525 0.747485 -3.17931 0
M  V30 6655 H 619.184 -1.37369 -3.3989 0
M  V30 6656 H 618.832 0.511747 -5.0039 0
M  V30 6657 H 618.532 -1.06403 -5.77886 0
M  V30 6658 H 620.056 -0.189772 -6.10305 0
M  V30 6659 H 621.47 -2.29618 -5.25308 0
M  V30 6660 H 619.867 -3.08062 -5.14993 0
M  V30 6661 H 620.937 -3.09062 -3.73642 0
M  V30 6662 N 622.28 1.30327 -0.886154 0
M  V30 6663 C 623.528 1.9571 -0.504195 0
M  V30 6664 C 623.849 1.70294 0.950003 0
M  V30 6665 O 623.119 1.02718 1.66811 0
M  V30 6666 H 621.699 0.72412 -0.183465 0
M  V30 6667 H 624.361 1.58835 -1.12949 0
M  V30 6668 H 623.457 3.04704 -0.675431 0
M  V30 6669 N 623.758 0.647228 1.43697 0
M  V30 6670 C 625.004 0.158422 2.0218 0
M  V30 6671 C 625.337 -1.22233 1.50907 0
M  V30 6672 O 624.612 -1.81478 0.699702 0
M  V30 6673 C 624.895 0.1627 3.59732 0
M  V30 6674 C 624.748 1.57694 4.21251 0
M  V30 6675 C 626.067 -0.504138 4.37203 0
M  V30 6676 H 623.186 0.059042 0.734631 0
M  V30 6677 H 625.828 0.826772 1.71069 0
M  V30 6678 H 623.978 -0.406414 3.86368 0
M  V30 6679 H 625.65 2.19618 4.05667 0
M  V30 6680 H 623.893 2.12603 3.7813 0
M  V30 6681 H 624.564 1.53183 5.3032 0
M  V30 6682 H 627.04 -0.0199841 4.16095 0
M  V30 6683 H 625.916 -0.470394 5.46881 0
M  V30 6684 H 626.177 -1.57726 4.13007 0
M  V30 6685 N 625.236 -1.5273 0.388769 0
M  V30 6686 C 626.461 -2.0647 -0.19621 0
M  V30 6687 C 626.886 -1.25865 -1.39784 0
M  V30 6688 O 626.244 -0.283562 -1.79069 0
M  V30 6689 C 626.292 -3.56456 -0.5451 0
M  V30 6690 O 625.396 -3.78426 -1.63912 0
M  V30 6691 H 624.737 -0.663599 -0.023067 0
M  V30 6692 H 627.267 -1.96898 0.556084 0
M  V30 6693 H 627.277 -3.99888 -0.809557 0
M  V30 6694 H 625.952 -4.14561 0.333417 0
M  V30 6695 H 624.529 -3.46884 -1.36842 0
M  V30 6696 N 626.714 -0.118576 -1.57153 0
M  V30 6697 C 627.96 0.540326 -1.95469 0
M  V30 6698 C 628.293 1.66356 -1.00196 0
M  V30 6699 O 627.568 1.94461 -0.039104 0
M  V30 6700 C 627.851 1.07342 -3.43729 0
M  V30 6701 C 627.704 -0.0463732 -4.49776 0
M  V30 6702 C 629.023 1.96442 -3.93826 0
M  V30 6703 H 626.142 0.19494 -0.710751 0
M  V30 6704 H 628.784 -0.19405 -1.89006 0
M  V30 6705 H 626.934 1.69925 -3.49368 0
M  V30 6706 H 628.606 -0.681648 -4.56236 0
M  V30 6707 H 626.849 -0.709574 -4.27957 0
M  V30 6708 H 627.52 0.367856 -5.50773 0
M  V30 6709 H 629.996 1.43731 -3.90488 0
M  V30 6710 H 628.872 2.3066 -4.98084 0
M  V30 6711 H 629.133 2.89077 -3.34495 0
M  V30 6712 N 628.193 1.56834 0.155195 0
M  V30 6713 C 629.439 1.83169 0.870467 0
M  V30 6714 C 629.772 0.698929 1.81187 0
M  V30 6715 O 629.047 -0.298035 1.92203 0
M  V30 6716 C 629.33 3.19965 1.65211 0
M  V30 6717 C 629.183 4.43792 0.732744 0
M  V30 6718 C 630.502 3.53885 2.61636 0
M  V30 6719 H 627.621 0.666288 0.315006 0
M  V30 6720 H 630.263 1.89513 0.135988 0
M  V30 6721 H 628.413 3.14687 2.27825 0
M  V30 6722 H 630.085 4.61148 0.118236 0
M  V30 6723 H 628.328 4.3378 0.0417906 0
M  V30 6724 H 628.999 5.36095 1.31552 0
M  V30 6725 H 631.475 3.5972 2.09143 0
M  V30 6726 H 630.351 4.50648 3.13381 0
M  V30 6727 H 630.612 2.79418 3.42605 0
M  V30 6728 N 629.671 -0.424282 1.51781 0
M  V30 6729 C 630.896 -1.19928 1.6921 0
M  V30 6730 C 631.321 -1.8392 0.394355 0
M  V30 6731 O 630.679 -1.69371 -0.646778 0
M  V30 6732 C 630.727 -2.24937 2.81843 0
M  V30 6733 O 629.831 -3.3073 2.46356 0
M  V30 6734 H 629.172 -0.35078 0.563781 0
M  V30 6735 H 631.702 -0.499401 1.98412 0
M  V30 6736 H 631.712 -2.69512 3.06312 0
M  V30 6737 H 630.387 -1.77742 3.76006 0
M  V30 6738 H 628.964 -2.9154 2.32505 0
M  V30 6739 N 631.149 -1.42148 -0.680565 0
M  V30 6740 C 632.396 -1.4231 -1.44063 0
M  V30 6741 C 632.724 -0.037488 -1.94464 0
M  V30 6742 O 631.979 0.953184 -1.70918 0
M  V30 6743 C 632.278 -2.38945 -2.65782 0
M  V30 6744 C 631.944 -3.85455 -2.33956 0
M  V30 6745 C 630.606 -4.25364 -2.24987 0
M  V30 6746 C 632.958 -4.77895 -2.08004 0
M  V30 6747 C 630.286 -5.55701 -1.88184 0
M  V30 6748 C 632.638 -6.08568 -1.72706 0
M  V30 6749 C 631.302 -6.47482 -1.62244 0
M  V30 6750 H 630.572 -0.520748 -0.527164 0
M  V30 6751 H 633.219 -1.7505 -0.776524 0
M  V30 6752 H 631.524 -1.99511 -3.37198 0
M  V30 6753 H 633.221 -2.36336 -3.23954 0
M  V30 6754 H 629.811 -3.53855 -2.41836 0
M  V30 6755 H 633.995 -4.47854 -2.1387 0
M  V30 6756 H 629.251 -5.84718 -1.78648 0
M  V30 6757 H 633.425 -6.79688 -1.5165 0
M  V30 6758 H 631.052 -7.48387 -1.33496 0
M  V30 6759 N 632.627 0.916307 -1.28225 0
M  V30 6760 C 633.557 2.0352 -1.14464 0
M  V30 6761 C 634.538 1.70045 -0.0430844 0
M  V30 6762 O 635.723 1.92954 -0.219619 0
M  V30 6763 C 632.853 3.37889 -0.803027 0
M  V30 6764 C 631.807 3.85516 -1.85908 0
M  V30 6765 C 631.133 5.1682 -1.37116 0
M  V30 6766 C 632.433 4.07655 -3.26519 0
M  V30 6767 H 634.127 2.1529 -2.08064 0
M  V30 6768 H 631.673 1.03446 -1.00174 0
M  V30 6769 H 633.626 4.15654 -0.693537 0
M  V30 6770 H 632.35 3.26164 0.168674 0
M  V30 6771 H 631.009 3.09953 -1.95767 0
M  V30 6772 H 630.657 5.01497 -0.38859 0
M  V30 6773 H 630.357 5.49657 -2.07728 0
M  V30 6774 H 631.881 5.97143 -1.27484 0
M  V30 6775 H 633.295 4.75953 -3.19596 0
M  V30 6776 H 631.692 4.51818 -3.94943 0
M  V30 6777 H 632.762 3.12553 -3.70727 0
M  V30 6778 N 634.105 1.10431 1.1244 0
M  V30 6779 C 635.351 0.847972 1.84221 0
M  V30 6780 C 635.684 -0.624903 1.83871 0
M  V30 6781 O 634.959 -1.46074 1.28423 0
M  V30 6782 C 635.242 1.39695 3.319 0
M  V30 6783 C 635.095 2.93668 3.40704 0
M  V30 6784 C 636.414 1.03924 4.27654 0
M  V30 6785 H 633.533 0.309502 0.668863 0
M  V30 6786 H 636.175 1.36745 1.31912 0
M  V30 6787 H 634.325 0.955095 3.76577 0
M  V30 6788 H 635.997 3.46379 3.04662 0
M  V30 6789 H 634.24 3.30272 2.81252 0
M  V30 6790 H 634.911 3.27162 4.446 0
M  V30 6791 H 637.387 1.42049 3.91102 0
M  V30 6792 H 636.263 1.45027 5.29394 0
M  V30 6793 H 636.524 -0.051336 4.4207 0
M  V30 6794 N 635.583 -1.29855 0.893053 0
M  V30 6795 C 636.831 -1.9544 0.514566 0
M  V30 6796 C 637.152 -1.70795 -0.940959 0
M  V30 6797 O 636.422 -1.03601 -1.66264 0
M  V30 6798 H 635.002 -0.723137 0.187302 0
M  V30 6799 H 637.664 -1.58234 1.13789 0
M  V30 6800 H 636.76 -3.04341 0.691581 0
M  V30 6801 N 637.061 -0.65484 -1.43351 0
M  V30 6802 C 637.991 0.0221809 -2.33489 0
M  V30 6803 C 638.972 0.810272 -1.49561 0
M  V30 6804 O 640.157 0.771426 -1.78221 0
M  V30 6805 C 637.287 0.988117 -3.32947 0
M  V30 6806 C 636.241 0.310026 -4.26876 0
M  V30 6807 C 635.567 1.38752 -5.16384 0
M  V30 6808 C 636.867 -0.798589 -5.16159 0
M  V30 6809 H 638.561 -0.730571 -2.9035 0
M  V30 6810 H 636.107 -0.352773 -1.39612 0
M  V30 6811 H 638.06 1.47067 -3.94904 0
M  V30 6812 H 636.784 1.77205 -2.74346 0
M  V30 6813 H 635.443 -0.152097 -3.66284 0
M  V30 6814 H 635.091 2.16293 -4.54121 0
M  V30 6815 H 634.791 0.939051 -5.80048 0
M  V30 6816 H 636.315 1.87141 -5.81215 0
M  V30 6817 H 637.729 -0.398126 -5.71916 0
M  V30 6818 H 636.126 -1.17163 -5.88552 0
M  V30 6819 H 637.196 -1.65588 -4.55751 0
M  V30 6820 N 638.539 1.52521 -0.396863 0
M  V30 6821 C 639.788 2.00857 0.184184 0
M  V30 6822 C 640.101 1.28733 1.47265 0
M  V30 6823 O 641.307 1.67821 2.13421 0
M  V30 6824 C 639.763 3.57901 0.378787 0
M  V30 6825 C 639.371 4.38931 -0.896873 0
M  V30 6826 C 641.115 4.14504 0.915789 0
M  V30 6827 C 639.022 5.87591 -0.670133 0
M  V30 6828 H 637.952 0.750496 0.0726055 0
M  V30 6829 H 640.603 1.75965 -0.520425 0
M  V30 6830 H 638.985 3.79072 1.14543 0
M  V30 6831 H 640.159 4.29524 -1.66872 0
M  V30 6832 H 638.474 3.93586 -1.35938 0
M  V30 6833 H 641.071 5.23236 1.10126 0
M  V30 6834 H 641.414 3.71076 1.88701 0
M  V30 6835 H 641.947 3.97253 0.208523 0
M  V30 6836 H 638.686 6.35355 -1.61257 0
M  V30 6837 H 638.206 5.99767 0.0626368 0
M  V30 6838 H 639.885 6.46268 -0.307577 0
M  V30 6839 N 640.017 0.126909 1.57088 0
M  V30 6840 C 640.95 -0.857844 2.11462 0
M  V30 6841 C 641.928 -1.25569 1.03301 0
M  V30 6842 O 643.112 -1.35535 1.31006 0
M  V30 6843 C 640.239 -2.14912 2.61784 0
M  V30 6844 C 639.285 -1.89874 3.81903 0
M  V30 6845 S 640.118 -1.10785 5.23915 0
M  V30 6846 C 641.274 -2.41075 5.7761 0
M  V30 6847 H 641.507 -0.395384 2.94659 0
M  V30 6848 H 639.04 -0.0870151 1.54155 0
M  V30 6849 H 640.998 -2.89101 2.91429 0
M  V30 6850 H 639.659 -2.58275 1.78754 0
M  V30 6851 H 638.852 -2.85572 4.15289 0
M  V30 6852 H 638.454 -1.23802 3.52915 0
M  V30 6853 H 640.746 -3.36864 5.87817 0
M  V30 6854 H 641.689 -2.12223 6.75549 0
M  V30 6855 H 642.097 -2.50804 5.05725 0
M  V30 6856 N 641.495 -1.56914 -0.146875 0
M  V30 6857 C 642.425 -2.01308 -1.1831 0
M  V30 6858 C 643.406 -0.892664 -1.44795 0
M  V30 6859 O 644.591 -1.16048 -1.55713 0
M  V30 6860 C 641.721 -2.3938 -2.51624 0
M  V30 6861 C 640.675 -3.54608 -2.3966 0
M  V30 6862 C 640.001 -3.78493 -3.77686 0
M  V30 6863 C 641.301 -4.87269 -1.88058 0
M  V30 6864 H 642.995 -2.88123 -0.813964 0
M  V30 6865 H 640.541 -1.38615 -0.3901 0
M  V30 6866 H 642.494 -2.69037 -3.24341 0
M  V30 6867 H 641.218 -1.49502 -2.90373 0
M  V30 6868 H 639.877 -3.25116 -1.69396 0
M  V30 6869 H 639.525 -2.85866 -4.13871 0
M  V30 6870 H 639.225 -4.56039 -3.70543 0
M  V30 6871 H 640.749 -4.10576 -4.51951 0
M  V30 6872 H 642.163 -5.15644 -2.50568 0
M  V30 6873 H 640.56 -5.68622 -1.91805 0
M  V30 6874 H 641.63 -4.77634 -0.836277 0
M  V30 6875 N 642.974 0.416227 -1.52004 0
M  V30 6876 C 644.202 1.18573 -1.69553 0
M  V30 6877 C 644.617 1.84472 -0.401919 0
M  V30 6878 O 643.974 1.71593 0.621463 0
M  V30 6879 C 644.025 2.25413 -2.82615 0
M  V30 6880 O 643.746 1.62205 -4.06966 0
M  V30 6881 C 645.247 3.15297 -3.11613 0
M  V30 6882 H 642.467 0.356582 -0.56841 0
M  V30 6883 H 645.011 0.490618 -1.98528 0
M  V30 6884 H 643.166 2.90604 -2.56179 0
M  V30 6885 H 643.58 2.3298 -4.69916 0
M  V30 6886 H 645.054 3.86351 -3.94255 0
M  V30 6887 H 645.531 3.77264 -2.24874 0
M  V30 6888 H 646.137 2.55783 -3.39787 0
M  V30 6889 N 644.452 1.42507 0.673017 0
M  V30 6890 C 645.362 1.4853 1.81593 0
M  V30 6891 C 646.378 0.373907 1.69935 0
M  V30 6892 O 647.554 0.625078 1.91454 0
M  V30 6893 C 644.619 1.387 3.17747 0
M  V30 6894 C 643.68 2.60346 3.41348 0
M  V30 6895 C 642.913 2.50975 4.71007 0
M  V30 6896 O 643.136 1.54659 5.49033 0
M  V30 6897 O 642.07 3.41138 4.95892 0
M  V30 6898 H 645.896 2.45001 1.79467 0
M  V30 6899 H 643.481 1.2429 0.82899 0
M  V30 6900 H 645.363 1.35586 3.98992 0
M  V30 6901 H 644.038 0.453555 3.20507 0
M  V30 6902 H 642.945 2.69034 2.59945 0
M  V30 6903 H 644.278 3.52595 3.43421 0
M  V30 6904 N 645.93 -0.909495 1.28709 0
M  V30 6905 C 647.178 -1.65577 1.15882 0
M  V30 6906 C 647.499 -1.928 -0.292108 0
M  V30 6907 O 646.769 -1.54716 -1.20166 0
M  V30 6908 H 645.349 -0.613714 0.425869 0
M  V30 6909 H 648.011 -1.09108 1.61498 0
M  V30 6910 H 647.107 -2.61634 1.70159 0
M  V30 6911 N 647.408 -1.11026 -1.11852 0
M  V30 6912 C 648.656 -0.854769 -1.83134 0
M  V30 6913 C 648.977 0.621375 -1.84835 0
M  V30 6914 O 648.247 1.45129 -1.31584 0
M  V30 6915 H 646.827 -0.313229 -0.678157 0
M  V30 6916 H 649.489 -1.40178 -1.35411 0
M  V30 6917 H 648.585 -1.22311 -2.87135 0
M  V30 6918 N 648.886 1.2938 -0.899927 0
M  V30 6919 C 649.819 2.25911 -0.322386 0
M  V30 6920 C 650.797 1.52447 0.565567 0
M  V30 6921 O 651.981 1.81404 0.512324 0
M  V30 6922 C 649.108 3.3436 0.540455 0
M  V30 6923 C 648.154 4.25579 -0.280211 0
M  V30 6924 S 648.987 5.08526 -1.67814 0
M  V30 6925 C 650.143 6.20476 -0.822224 0
M  V30 6926 H 650.376 2.7455 -1.1406 0
M  V30 6927 H 647.909 1.37606 -0.700285 0
M  V30 6928 H 649.867 3.97303 1.0325 0
M  V30 6929 H 648.528 2.84416 1.33291 0
M  V30 6930 H 647.721 5.02574 0.378915 0
M  V30 6931 H 647.323 3.67287 -0.705405 0
M  V30 6932 H 649.615 6.77485 -0.0457138 0
M  V30 6933 H 650.558 6.90606 -1.56426 0
M  V30 6934 H 650.966 5.63243 -0.37651 0
M  V30 6935 N 650.364 0.662433 1.43002 0
M  V30 6936 C 651.594 0.187343 2.05749 0
M  V30 6937 C 652.002 -1.15582 1.49791 0
M  V30 6938 O 651.345 -1.72651 0.627487 0
M  V30 6939 C 651.407 0.0316493 3.59486 0
M  V30 6940 C 651.071 1.30156 4.38073 0
M  V30 6941 C 652.068 2.23234 4.69535 0
M  V30 6942 C 649.753 1.54572 4.77926 0
M  V30 6943 C 651.747 3.39012 5.39768 0
M  V30 6944 C 649.434 2.70641 5.47902 0
M  V30 6945 C 650.432 3.62687 5.78746 0
M  V30 6946 O 650.12 4.76728 6.47291 0
M  V30 6947 H 649.852 0.0915214 0.669776 0
M  V30 6948 H 652.406 0.905982 1.8434 0
M  V30 6949 H 650.636 -0.742451 3.79506 0
M  V30 6950 H 652.325 -0.401977 4.03905 0
M  V30 6951 H 653.091 2.05616 4.39257 0
M  V30 6952 H 648.97 0.83804 4.53319 0
M  V30 6953 H 652.514 4.10877 5.63761 0
M  V30 6954 H 648.411 2.88189 5.77596 0
M  V30 6955 H 649.179 4.76113 6.65777 0
M  V30 6956 N 651.842 -1.52309 0.404946 0
M  V30 6957 C 653.088 -2.02065 -0.172455 0
M  V30 6958 C 653.421 -1.29022 -1.45145 0
M  V30 6959 O 652.696 -0.395284 -1.90441 0
M  V30 6960 C 652.979 -3.5759 -0.424433 0
M  V30 6961 C 652.832 -4.41287 0.870945 0
M  V30 6962 C 654.151 -4.23186 -1.20837 0
M  V30 6963 H 651.27 -0.734454 -0.0612035 0
M  V30 6964 H 653.912 -1.82236 0.53759 0
M  V30 6965 H 652.062 -3.74617 -1.02929 0
M  V30 6966 H 653.734 -4.3598 1.50729 0
M  V30 6967 H 651.977 -4.07669 1.48284 0
M  V30 6968 H 652.648 -5.48171 0.649083 0
M  V30 6969 H 655.124 -4.10232 -0.696338 0
M  V30 6970 H 654 -5.31953 -1.35343 0
M  V30 6971 H 654.261 -3.81862 -2.22786 0
M  V30 6972 N 653.32 -0.135238 -1.57019 0
M  V30 6973 C 654.567 0.518794 -1.95742 0
M  V30 6974 C 654.895 1.65642 -1.01947 0
M  V30 6975 O 654.15 1.95645 -0.0464016 0
M  V30 6976 C 654.449 1.07694 -3.40788 0
M  V30 6977 C 654.115 0.058992 -4.50861 0
M  V30 6978 C 652.777 -0.220872 -4.80693 0
M  V30 6979 C 655.129 -0.633856 -5.17331 0
M  V30 6980 C 652.457 -1.19959 -5.74305 0
M  V30 6981 C 654.809 -1.60131 -6.11997 0
M  V30 6982 C 653.473 -1.889 -6.40213 0
M  V30 6983 H 652.743 0.18984 -0.716269 0
M  V30 6984 H 655.39 -0.219581 -1.90237 0
M  V30 6985 H 653.695 1.89241 -3.43067 0
M  V30 6986 H 655.392 1.59137 -3.68071 0
M  V30 6987 H 651.982 0.287304 -4.27636 0
M  V30 6988 H 656.166 -0.430823 -4.94427 0
M  V30 6989 H 651.422 -1.42905 -5.94465 0
M  V30 6990 H 655.596 -2.14376 -6.62583 0
M  V30 6991 H 653.223 -2.64891 -7.12556 0
M  V30 6992 N 654.798 1.5699 0.138552 0
M  V30 6993 C 655.73 1.95515 1.1961 0
M  V30 6994 C 656.743 0.852002 1.38726 0
M  V30 6995 O 657.932 1.13038 1.38147 0
M  V30 6996 C 655.032 2.2213 2.55952 0
M  V30 6997 C 654.205 3.53424 2.57702 0
M  V30 6998 C 653.264 3.6848 3.75645 0
M  V30 6999 O 652.29 4.4079 3.60129 0
M  V30 7000 N 653.492 3.05777 4.93438 0
M  V30 7001 H 656.257 2.86838 0.868557 0
M  V30 7002 H 653.818 1.58542 0.328033 0
M  V30 7003 H 655.81 2.29435 3.33379 0
M  V30 7004 H 654.38 1.3703 2.80965 0
M  V30 7005 H 653.6 3.57484 1.6613 0
M  V30 7006 H 654.888 4.39759 2.55909 0
M  V30 7007 H 654.286 2.46961 5.08947 0
M  V30 7008 H 652.843 3.18631 5.6861 0
M  V30 7009 N 656.276 -0.40816 1.52223 0
M  V30 7010 C 657.206 -1.5042 1.78595 0
M  V30 7011 C 658.187 -1.57723 0.636974 0
M  V30 7012 O 659.372 -1.72982 0.882664 0
M  V30 7013 C 656.502 -2.88232 1.93751 0
M  V30 7014 C 655.456 -2.95779 3.09352 0
M  V30 7015 C 654.782 -4.35855 3.09732 0
M  V30 7016 C 656.082 -2.67175 4.48793 0
M  V30 7017 H 657.776 -1.28601 2.70374 0
M  V30 7018 H 655.322 -0.617221 1.30101 0
M  V30 7019 H 657.275 -3.64895 2.10783 0
M  V30 7020 H 655.999 -3.11347 0.986443 0
M  V30 7021 H 654.658 -2.21561 2.92072 0
M  V30 7022 H 654.306 -4.55981 2.12346 0
M  V30 7023 H 654.006 -4.41829 3.87377 0
M  V30 7024 H 655.53 -5.14451 3.28895 0
M  V30 7025 H 656.944 -3.3356 4.66273 0
M  V30 7026 H 655.341 -2.84523 5.28362 0
M  V30 7027 H 656.411 -1.62609 4.56822 0
M  V30 7028 N 657.755 -1.42862 -0.66545 0
M  V30 7029 C 659.002 -1.4383 -1.42546 0
M  V30 7030 C 659.33 -0.0581114 -1.94413 0
M  V30 7031 O 658.585 0.935002 -1.71919 0
M  V30 7032 C 658.884 -2.4175 -2.63233 0
M  V30 7033 C 658.55 -3.87915 -2.29854 0
M  V30 7034 C 657.212 -4.27726 -2.20463 0
M  V30 7035 C 659.564 -4.80074 -2.02924 0
M  V30 7036 C 656.892 -5.57666 -1.82279 0
M  V30 7037 C 659.244 -6.10366 -1.66242 0
M  V30 7038 C 657.908 -6.49167 -1.55367 0
M  V30 7039 H 657.178 -0.52631 -0.521612 0
M  V30 7040 H 659.825 -1.75863 -0.757914 0
M  V30 7041 H 658.13 -2.03077 -3.35063 0
M  V30 7042 H 659.827 -2.39759 -3.21429 0
M  V30 7043 H 656.417 -3.564 -2.3807 0
M  V30 7044 H 660.601 -4.50097 -2.09108 0
M  V30 7045 H 655.857 -5.8658 -1.72436 0
M  V30 7046 H 660.031 -6.81258 -1.44432 0
M  V30 7047 H 657.658 -7.49761 -1.2555 0
M  V30 7048 N 659.233 0.902656 -1.29189 0
M  V30 7049 C 660.51 1.63296 -1.07674 0
M  V30 7050 C 660.89 2.07649 0.380137 0
M  V30 7051 O 660.238 1.82997 1.36837 0
M  V30 7052 C 660.448 2.81603 -2.06158 0
M  V30 7053 C 661.796 3.52359 -2.36914 0
M  V30 7054 O 662.82 2.91767 -2.04329 0
M  V30 7055 O 661.679 4.61586 -2.92576 0
M  V30 7056 H 658.773 0.716889 -0.41231 0
M  V30 7057 H 661.319 0.950984 -1.4055 0
M  V30 7058 H 660.091 2.46004 -3.04299 0
M  V30 7059 H 659.714 3.57508 -1.73993 0
M  V30 7060 N 660.711 1.11618 1.11262 0
M  V30 7061 C 661.941 0.88745 1.86569 0
M  V30 7062 C 662.349 -0.56636 1.80524 0
M  V30 7063 O 661.692 -1.40289 1.18594 0
M  V30 7064 C 661.754 1.27313 3.36202 0
M  V30 7065 C 661.418 2.73649 3.66013 0
M  V30 7066 C 662.415 3.71863 3.63337 0
M  V30 7067 C 660.1 3.10342 3.9496 0
M  V30 7068 C 662.094 5.04788 3.89188 0
M  V30 7069 C 659.781 4.43451 4.20469 0
M  V30 7070 C 660.779 5.40484 4.17572 0
M  V30 7071 O 660.467 6.71195 4.42439 0
M  V30 7072 H 660.199 0.317543 0.596777 0
M  V30 7073 H 662.753 1.48768 1.41624 0
M  V30 7074 H 660.983 0.616062 3.81761 0
M  V30 7075 H 662.672 1.01991 3.92877 0
M  V30 7076 H 663.438 3.44861 3.41022 0
M  V30 7077 H 659.317 2.35431 3.9635 0
M  V30 7078 H 662.861 5.80516 3.86842 0
M  V30 7079 H 658.758 4.70187 4.42261 0
M  V30 7080 H 659.526 6.77012 4.59997 0
M  V30 7081 N 662.189 -1.289 0.906776 0
M  V30 7082 C 663.419 -1.99112 0.551168 0
M  V30 7083 C 663.827 -1.67998 -0.870243 0
M  V30 7084 O 663.17 -0.92525 -1.58697 0
M  V30 7085 C 663.232 -3.53162 0.672065 0
M  V30 7086 C 662.896 -4.07849 2.06174 0
M  V30 7087 C 663.893 -4.22212 3.0337 0
M  V30 7088 C 661.578 -4.4271 2.37304 0
M  V30 7089 C 663.572 -4.70678 4.29815 0
M  V30 7090 C 661.259 -4.90871 3.6399 0
M  V30 7091 C 662.257 -5.04811 4.6006 0
M  V30 7092 O 661.945 -5.51925 5.84495 0
M  V30 7093 H 661.677 -0.642728 0.209469 0
M  V30 7094 H 664.231 -1.65234 1.22012 0
M  V30 7095 H 662.461 -3.86662 -0.05394 0
M  V30 7096 H 664.15 -4.046 0.324579 0
M  V30 7097 H 664.916 -3.9556 2.80637 0
M  V30 7098 H 660.795 -4.31114 1.63283 0
M  V30 7099 H 664.339 -4.81474 5.04806 0
M  V30 7100 H 660.236 -5.16961 3.86551 0
M  V30 7101 H 661.004 -5.70225 5.87185 0
M  V30 7102 N 663.667 -0.670007 -1.42649 0
M  V30 7103 C 664.63 0.00204659 -2.292 0
M  V30 7104 C 665.63 0.733817 -1.4308 0
M  V30 7105 O 666.82 0.57254 -1.64522 0
M  V30 7106 C 663.952 1.01359 -3.25483 0
M  V30 7107 H 665.145 -0.759696 -2.90118 0
M  V30 7108 H 662.698 -0.432105 -1.50208 0
M  V30 7109 H 663.433 1.80399 -2.69493 0
M  V30 7110 H 663.218 0.492323 -3.88997 0
M  V30 7111 H 664.708 1.4824 -3.90403 0
M  V30 7112 N 665.145 1.52092 -0.413018 0
M  V30 7113 C 666.108 2.25706 0.398687 0
M  V30 7114 C 667.108 1.28221 0.970368 0
M  V30 7115 O 668.298 1.52131 0.848635 0
M  V30 7116 C 665.43 3.03029 1.5616 0
M  V30 7117 H 666.623 2.98888 -0.246131 0
M  V30 7118 H 664.176 1.5542 -0.165622 0
M  V30 7119 H 664.911 2.34205 2.24317 0
M  V30 7120 H 664.696 3.74606 1.15812 0
M  V30 7121 H 666.186 3.58857 2.13569 0
M  V30 7122 N 666.623 0.143563 1.56945 0
M  V30 7123 C 667.848 -0.518701 2.00809 0
M  V30 7124 C 668.273 -1.5785 1.02298 0
M  V30 7125 O 667.631 -1.813 -0.0017839 0
M  V30 7126 C 667.679 -1.09929 3.43436 0
M  V30 7127 O 666.783 -2.21425 3.47915 0
M  V30 7128 H 666.124 -0.127215 0.6517 0
M  V30 7129 H 668.654 0.239283 2.03196 0
M  V30 7130 H 668.664 -1.4288 3.82164 0
M  V30 7131 H 667.339 -0.323162 4.14643 0
M  V30 7132 H 665.916 -1.89728 3.21026 0
M  V30 7133 N 668.101 -1.57061 -0.130224 0
M  V30 7134 C 669.349 -1.83893 -0.838313 0
M  V30 7135 C 669.67 -0.727046 -1.80939 0
M  V30 7136 O 668.94 0.249927 -1.94299 0
M  V30 7137 H 667.52 -0.67846 -0.312573 0
M  V30 7138 H 670.182 -1.94529 -0.120224 0
M  V30 7139 H 669.278 -2.79419 -1.39038 0
M  V30 7140 N 669.579 0.400081 -1.52437 0
M  V30 7141 C 670.512 1.50929 -1.7116 0
M  V30 7142 C 671.49 1.52679 -0.559275 0
M  V30 7143 O 672.674 1.71251 -0.787735 0
M  V30 7144 C 669.801 2.89433 -1.75915 0
M  V30 7145 C 668.847 3.05556 -2.97553 0
M  V30 7146 S 669.68 2.77919 -4.57735 0
M  V30 7147 C 670.836 4.18636 -4.6529 0
M  V30 7148 H 671.069 1.3482 -2.64973 0
M  V30 7149 H 668.602 0.592245 -1.4259 0
M  V30 7150 H 670.56 3.69253 -1.7934 0
M  V30 7151 H 669.221 3.02877 -0.832137 0
M  V30 7152 H 668.414 4.0691 -2.97388 0
M  V30 7153 H 668.016 2.33615 -2.92062 0
M  V30 7154 H 670.308 5.12406 -4.43223 0
M  V30 7155 H 671.251 4.23821 -5.67258 0
M  V30 7156 H 671.659 4.04029 -3.94234 0
M  V30 7157 N 671.057 1.43213 0.657864 0
M  V30 7158 C 672.297 1.46083 1.42965 0
M  V30 7159 C 672.661 0.0809712 1.91829 0
M  V30 7160 O 673.862 -0.0156305 2.68795 0
M  V30 7161 C 672.133 2.47044 2.58271 0
M  V30 7162 S 673.692 2.68753 3.46868 0
M  V30 7163 H 670.51 0.517015 0.488074 0
M  V30 7164 H 673.112 1.79945 0.764213 0
M  V30 7165 H 671.816 3.46044 2.20639 0
M  V30 7166 H 671.347 2.14665 3.2967 0
M  V30 7167 H 673.362 1.98329 4.54841 0
M  V30 7168 N 672.536 -0.895792 1.29666 0
M  V30 7169 C 673.466 -2.01673 1.17688 0
M  V30 7170 C 674.447 -1.69955 0.0701317 0
M  V30 7171 O 675.632 -1.9258 0.250289 0
M  V30 7172 C 672.762 -3.36568 0.856681 0
M  V30 7173 C 671.716 -3.82509 1.92017 0
M  V30 7174 C 671.042 -5.14574 1.4532 0
M  V30 7175 C 672.342 -4.02409 3.32963 0
M  V30 7176 H 674.036 -2.11953 2.11463 0
M  V30 7177 H 671.582 -1.01839 1.01807 0
M  V30 7178 H 673.535 -4.14498 0.759577 0
M  V30 7179 H 672.259 -3.26391 -0.116763 0
M  V30 7180 H 670.918 -3.068 2.00673 0
M  V30 7181 H 670.566 -5.00815 0.468325 0
M  V30 7182 H 670.266 -5.46283 2.16447 0
M  V30 7183 H 671.79 -5.9504 1.36968 0
M  V30 7184 H 673.204 -4.70808 3.27127 0
M  V30 7185 H 671.601 -4.45478 4.02082 0
M  V30 7186 H 672.671 -3.06616 3.75652 0
M  V30 7187 N 674.014 -1.12206 -1.10668 0
M  V30 7188 C 674.944 -0.810086 -2.18997 0
M  V30 7189 C 675.925 0.225065 -1.68604 0
M  V30 7190 O 677.11 0.086783 -1.94006 0
M  V30 7191 C 674.24 -0.261262 -3.46316 0
M  V30 7192 C 673.194 -1.2292 -4.09969 0
M  V30 7193 C 672.52 -0.540713 -5.31959 0
M  V30 7194 C 673.82 -2.58295 -4.53962 0
M  V30 7195 H 675.514 -1.7159 -2.45352 0
M  V30 7196 H 673.06 -0.82646 -1.17922 0
M  V30 7197 H 675.013 -0.0307522 -4.21389 0
M  V30 7198 H 673.737 0.679879 -3.19445 0
M  V30 7199 H 672.396 -1.44548 -3.369 0
M  V30 7200 H 672.044 0.405492 -5.01363 0
M  V30 7201 H 671.744 -1.18637 -5.75499 0
M  V30 7202 H 673.268 -0.319184 -6.09765 0
M  V30 7203 H 674.682 -2.40709 -5.20319 0
M  V30 7204 H 673.079 -3.18916 -5.08343 0
M  V30 7205 H 674.149 -3.16918 -3.67002 0
M  V30 7206 N 675.492 1.28418 -0.913599 0
M  V30 7207 C 676.739 1.94981 -0.546674 0
M  V30 7208 C 677.067 1.7192 0.909606 0
M  V30 7209 O 676.322 1.03314 1.66207 0
M  V30 7210 C 676.621 3.48283 -0.802099 0
M  V30 7211 C 676.287 3.91444 -2.2379 0
M  V30 7212 C 674.949 4.02939 -2.63046 0
M  V30 7213 C 677.301 4.13542 -3.17227 0
M  V30 7214 C 674.629 4.3391 -3.94891 0
M  V30 7215 C 676.981 4.45992 -4.48636 0
M  V30 7216 C 675.645 4.55698 -4.87746 0
M  V30 7217 H 674.915 0.713487 -0.200042 0
M  V30 7218 H 677.562 1.52756 -1.15489 0
M  V30 7219 H 675.867 3.91643 -0.111076 0
M  V30 7220 H 677.564 3.97903 -0.497375 0
M  V30 7221 H 674.154 3.83024 -1.9233 0
M  V30 7222 H 678.338 4.04114 -2.88107 0
M  V30 7223 H 673.594 4.39631 -4.24894 0
M  V30 7224 H 677.768 4.62038 -5.21051 0
M  V30 7225 H 675.395 4.79451 -5.89942 0
M  V30 7226 N 676.97 0.677563 1.42291 0
M  V30 7227 C 678.216 0.201272 2.01799 0
M  V30 7228 C 678.549 -1.19004 1.53465 0
M  V30 7229 O 677.824 -1.79953 0.738039 0
M  V30 7230 C 678.107 0.238968 3.59306 0
M  V30 7231 C 677.96 1.66594 4.17812 0
M  V30 7232 C 679.279 -0.411287 4.38174 0
M  V30 7233 H 676.398 0.0746114 0.733214 0
M  V30 7234 H 679.04 0.862872 1.69276 0
M  V30 7235 H 677.19 -0.324368 3.87144 0
M  V30 7236 H 678.862 2.28173 4.00917 0
M  V30 7237 H 677.105 2.20576 3.73536 0
M  V30 7238 H 677.776 1.64398 5.26951 0
M  V30 7239 H 680.252 0.0682804 4.16044 0
M  V30 7240 H 679.128 -0.354286 5.47755 0
M  V30 7241 H 679.389 -1.4893 4.1626 0
M  V30 7242 N 678.448 -1.51871 0.421078 0
M  V30 7243 C 679.411 -2.25914 -0.386712 0
M  V30 7244 C 680.411 -1.28733 -0.963555 0
M  V30 7245 O 681.601 -1.52579 -0.840556 0
M  V30 7246 C 678.733 -3.03853 -1.54551 0
M  V30 7247 H 679.926 -2.98754 0.261978 0
M  V30 7248 H 677.479 -1.5533 0.173862 0
M  V30 7249 H 678.214 -2.35392 -2.23072 0
M  V30 7250 H 677.999 -3.75215 -1.13824 0
M  V30 7251 H 679.489 -3.59984 -2.11663 0
M  V30 7252 N 679.926 -0.151884 -1.56866 0
M  V30 7253 C 681.175 0.497992 -1.95456 0
M  V30 7254 C 681.488 1.6569 -1.03953 0
M  V30 7255 O 682.694 2.37173 -1.32142 0
M  V30 7256 C 681.15 0.93732 -3.4748 0
M  V30 7257 C 680.758 -0.194921 -4.47576 0
M  V30 7258 C 682.502 1.55671 -3.94926 0
M  V30 7259 C 680.409 0.26295 -5.90815 0
M  V30 7260 H 679.339 0.189811 -0.729717 0
M  V30 7261 H 681.99 -0.237011 -1.81963 0
M  V30 7262 H 680.372 1.72773 -3.56322 0
M  V30 7263 H 681.546 -0.971951 -4.50433 0
M  V30 7264 H 679.861 -0.72303 -4.10075 0
M  V30 7265 H 682.458 1.91099 -4.99385 0
M  V30 7266 H 682.801 2.44748 -3.36755 0
M  V30 7267 H 683.334 0.831109 -3.89021 0
M  V30 7268 H 680.073 -0.592568 -6.52816 0
M  V30 7269 H 679.593 1.00575 -5.91308 0
M  V30 7270 H 681.272 0.713333 -6.43056 0
M  V30 7271 N 681.404 1.57128 0.121893 0
M  V30 7272 C 682.651 1.847 0.830188 0
M  V30 7273 C 682.979 0.736543 1.80015 0
M  V30 7274 O 682.234 -0.272358 1.93796 0
M  V30 7275 C 682.533 3.1874 1.61677 0
M  V30 7276 C 682.199 4.43901 0.791361 0
M  V30 7277 C 680.861 4.77887 0.563731 0
M  V30 7278 C 683.213 5.20753 0.215823 0
M  V30 7279 C 680.541 5.86168 -0.249737 0
M  V30 7280 C 682.893 6.29891 -0.584821 0
M  V30 7281 C 681.557 6.6241 -0.822794 0
M  V30 7282 H 680.827 0.675866 0.303787 0
M  V30 7283 H 683.474 1.91276 0.0926894 0
M  V30 7284 H 681.779 3.07728 2.42509 0
M  V30 7285 H 683.476 3.37295 2.16872 0
M  V30 7286 H 680.066 4.17272 0.978867 0
M  V30 7287 H 684.25 4.94851 0.378907 0
M  V30 7288 H 679.506 6.0979 -0.44336 0
M  V30 7289 H 683.68 6.88624 -1.03779 0
M  V30 7290 H 681.307 7.46147 -1.45496 0
M  V30 7291 N 682.882 -0.391992 1.52647 0
M  V30 7292 C 683.792 -1.503 1.80131 0
M  V30 7293 C 684.808 -1.59825 0.687882 0
M  V30 7294 O 685.984 -1.76218 0.975149 0
M  V30 7295 C 683.049 -2.85863 1.96171 0
M  V30 7296 C 682.11 -2.86084 3.20085 0
M  V30 7297 C 681.343 -4.15181 3.35351 0
M  V30 7298 O 681.566 -5.09981 2.55491 0
M  V30 7299 O 680.5 -4.22603 4.28591 0
M  V30 7300 H 684.326 -1.30007 2.74466 0
M  V30 7301 H 681.911 -0.579539 1.37701 0
M  V30 7302 H 683.793 -3.66236 2.08445 0
M  V30 7303 H 682.468 -3.06189 1.05025 0
M  V30 7304 H 681.375 -2.04504 3.13256 0
M  V30 7305 H 682.708 -2.7071 4.11068 0
M  V30 7306 N 684.36 -1.4356 -0.65026 0
M  V30 7307 C 685.585 -1.48995 -1.44275 0
M  V30 7308 C 686.01 -0.109954 -1.87778 0
M  V30 7309 O 685.368 0.896926 -1.57559 0
M  V30 7310 C 685.416 -2.44341 -2.65198 0
M  V30 7311 O 684.52 -1.93172 -3.6436 0
M  V30 7312 H 683.861 -0.503852 -0.432469 0
M  V30 7313 H 686.391 -1.88504 -0.795446 0
M  V30 7314 H 686.401 -2.61743 -3.12977 0
M  V30 7315 H 685.076 -3.44588 -2.32877 0
M  V30 7316 H 683.653 -1.85445 -3.23519 0
M  V30 7317 N 685.838 0.888903 -1.30139 0
M  V30 7318 C 686.768 2.01046 -1.18755 0
M  V30 7319 C 687.749 1.69916 -0.0791438 0
M  V30 7320 O 688.934 1.92445 -0.260498 0
M  V30 7321 C 686.064 3.36109 -0.874518 0
M  V30 7322 C 685.018 3.81486 -1.94043 0
M  V30 7323 C 684.344 5.13796 -1.48047 0
M  V30 7324 C 685.644 4.00637 -3.35093 0
M  V30 7325 H 687.338 2.10828 -2.12584 0
M  V30 7326 H 684.884 1.01298 -1.02346 0
M  V30 7327 H 686.837 4.14089 -0.781548 0
M  V30 7328 H 685.561 3.26449 0.0994519 0
M  V30 7329 H 684.22 3.05731 -2.02297 0
M  V30 7330 H 683.868 5.0056 -0.494878 0
M  V30 7331 H 683.568 5.45127 -2.19341 0
M  V30 7332 H 685.092 5.94305 -1.40121 0
M  V30 7333 H 686.506 4.69067 -3.2962 0
M  V30 7334 H 684.903 4.43339 -4.04438 0
M  V30 7335 H 685.973 3.0462 -3.77273 0
M  V30 7336 N 687.317 1.12792 1.10072 0
M  V30 7337 C 688.557 0.895691 1.8373 0
M  V30 7338 C 688.921 -0.568131 1.83402 0
M  V30 7339 O 690.122 -0.917666 2.52651 0
M  V30 7340 C 688.393 1.4593 3.2625 0
M  V30 7341 S 689.952 1.36615 4.16991 0
M  V30 7342 H 686.77 0.323017 0.633389 0
M  V30 7343 H 689.372 1.43816 1.32428 0
M  V30 7344 H 688.076 2.51818 3.24062 0
M  V30 7345 H 687.607 0.914478 3.82624 0
M  V30 7346 H 689.622 0.340131 4.95033 0
M  V30 7347 N 688.795 -1.27931 0.920396 0
M  V30 7348 C 690.041 -1.94977 0.557832 0
M  V30 7349 C 690.374 -1.72224 -0.897365 0
M  V30 7350 O 689.649 -1.04705 -1.63912 0
M  V30 7351 C 689.932 -3.49289 0.875741 0
M  V30 7352 C 689.785 -3.81416 2.38416 0
M  V30 7353 C 691.104 -4.38486 0.376517 0
M  V30 7354 H 688.223 -0.708164 0.20414 0
M  V30 7355 H 690.865 -1.5118 1.15085 0
M  V30 7356 H 689.015 -3.86724 0.371062 0
M  V30 7357 H 690.687 -3.53813 2.95997 0
M  V30 7358 H 688.93 -3.28225 2.83639 0
M  V30 7359 H 689.601 -4.89198 2.55713 0
M  V30 7360 H 692.077 -4.08161 0.808945 0
M  V30 7361 H 690.953 -5.45296 0.627976 0
M  V30 7362 H 691.214 -4.36143 -0.723293 0
M  V30 7363 N 690.273 -0.685099 -1.4193 0
M  V30 7364 C 691.236 -0.0222632 -2.29189 0
M  V30 7365 C 692.236 0.7186 -1.4385 0
M  V30 7366 O 693.426 0.555058 -1.6512 0
M  V30 7367 C 690.558 0.979013 -3.2654 0
M  V30 7368 H 691.751 -0.790424 -2.89296 0
M  V30 7369 H 689.304 -0.448012 -1.49742 0
M  V30 7370 H 690.039 1.77531 -2.71392 0
M  V30 7371 H 689.824 0.451037 -3.89497 0
M  V30 7372 H 691.314 1.44091 -3.91954 0
M  V30 7373 N 691.751 1.51645 -0.429126 0
M  V30 7374 C 692.997 2.02967 0.132584 0
M  V30 7375 C 693.352 1.30804 1.41096 0
M  V30 7376 O 692.645 0.411705 1.87124 0
M  V30 7377 C 692.839 3.54989 0.414472 0
M  V30 7378 C 692.668 4.41879 -0.83503 0
M  V30 7379 C 691.438 4.86482 -1.36614 0
M  V30 7380 C 693.636 4.84727 -1.71886 0
M  V30 7381 N 691.618 5.5756 -2.56904 0
M  V30 7382 C 692.989 5.54788 -2.76786 0
M  V30 7383 C 695.044 4.66721 -1.73425 0
M  V30 7384 C 693.747 6.08753 -3.8316 0
M  V30 7385 C 695.773 5.21597 -2.7873 0
M  V30 7386 C 695.135 5.91598 -3.8235 0
M  V30 7387 H 691.234 0.781942 0.00956367 0
M  V30 7388 H 693.818 1.8561 -0.587957 0
M  V30 7389 H 691.989 3.72378 1.10405 0
M  V30 7390 H 693.721 3.92982 0.966817 0
M  V30 7391 H 690.476 4.64553 -0.921255 0
M  V30 7392 H 690.9 5.97731 -3.17879 0
M  V30 7393 H 695.542 4.1207 -0.946467 0
M  V30 7394 H 693.26 6.62464 -4.62782 0
M  V30 7395 H 696.846 5.09522 -2.80853 0
M  V30 7396 H 695.726 6.33299 -4.62495 0
M  V30 7397 N 693.229 0.160201 1.56784 0
M  V30 7398 C 694.475 -0.48831 1.96833 0
M  V30 7399 C 694.808 -1.63641 1.04571 0
M  V30 7400 O 694.083 -1.94289 0.0906481 0
M  V30 7401 C 694.366 -0.981908 3.46454 0
M  V30 7402 C 694.219 0.165607 4.49495 0
M  V30 7403 C 695.538 -1.85931 3.98896 0
M  V30 7404 H 692.657 -0.176027 0.71567 0
M  V30 7405 H 695.299 0.244093 1.88426 0
M  V30 7406 H 693.449 -1.60602 3.5375 0
M  V30 7407 H 695.121 0.802372 4.54268 0
M  V30 7408 H 693.364 0.822789 4.25926 0
M  V30 7409 H 694.035 -0.221699 5.51555 0
M  V30 7410 H 696.511 -1.33327 3.94161 0
M  V30 7411 H 695.387 -2.17373 5.04024 0
M  V30 7412 H 695.648 -2.80106 3.42042 0
M  V30 7413 N 694.707 -1.5719 -0.113559 0
M  V30 7414 C 695.937 -1.89053 -0.833212 0
M  V30 7415 C 696.345 -0.750139 -1.73694 0
M  V30 7416 O 695.688 0.287808 -1.81431 0
M  V30 7417 C 695.75 -3.15986 -1.71443 0
M  V30 7418 C 695.414 -4.46271 -0.984449 0
M  V30 7419 C 696.411 -5.18897 -0.322741 0
M  V30 7420 C 694.096 -4.92963 -0.964011 0
M  V30 7421 C 696.09 -6.3644 0.349646 0
M  V30 7422 C 693.777 -6.10422 -0.287828 0
M  V30 7423 C 694.775 -6.82009 0.36784 0
M  V30 7424 O 694.463 -7.97233 1.03322 0
M  V30 7425 H 694.195 -0.630225 -0.244526 0
M  V30 7426 H 696.749 -2.05152 -0.100847 0
M  V30 7427 H 694.979 -2.95984 -2.48858 0
M  V30 7428 H 696.668 -3.33826 -2.309 0
M  V30 7429 H 697.434 -4.83875 -0.330114 0
M  V30 7430 H 693.313 -4.37143 -1.46379 0
M  V30 7431 H 696.857 -6.92254 0.861996 0
M  V30 7432 H 692.754 -6.449 -0.278237 0
M  V30 7433 H 693.522 -8.13105 0.938247 0
M  V30 7434 N 696.185 0.383891 -1.52853 0
M  V30 7435 C 697.433 1.12619 -1.67814 0
M  V30 7436 C 697.754 1.90354 -0.423141 0
M  V30 7437 O 697.024 1.87649 0.562554 0
M  V30 7438 H 695.604 0.418738 -0.618601 0
M  V30 7439 H 698.266 0.43495 -1.89985 0
M  V30 7440 H 697.362 1.82624 -2.5309 0
M  V30 7441 N 697.663 1.43903 0.642637 0
M  V30 7442 C 698.626 1.49538 1.73698 0
M  V30 7443 C 699.626 0.378776 1.56275 0
M  V30 7444 O 700.816 0.64095 1.6198 0
M  V30 7445 C 697.948 1.35821 3.12675 0
M  V30 7446 H 699.141 2.47008 1.70079 0
M  V30 7447 H 696.694 1.30824 0.85526 0
M  V30 7448 H 697.429 0.393994 3.21898 0
M  V30 7449 H 697.214 2.16776 3.26727 0
M  V30 7450 H 698.704 1.4272 3.92455 0
M  V30 7451 N 699.141 -0.881989 1.30609 0
M  V30 7452 C 700.088 -1.98803 1.17244 0
M  V30 7453 C 701.058 -1.65987 0.0611905 0
M  V30 7454 O 702.243 -1.89385 0.231911 0
M  V30 7455 C 699.383 -3.33867 0.87333 0
M  V30 7456 C 698.496 -3.79354 2.06675 0
M  V30 7457 C 697.631 -5.03078 1.70547 0
M  V30 7458 C 696.67 -5.40981 2.86366 0
M  V30 7459 N 695.807 -6.55886 2.50514 0
M  V30 7460 H 700.647 -2.09566 2.11863 0
M  V30 7461 H 698.184 -1.02607 1.05405 0
M  V30 7462 H 700.142 -4.11612 0.680519 0
M  V30 7463 H 698.772 -3.2278 -0.0359983 0
M  V30 7464 H 697.824 -2.97492 2.37071 0
M  V30 7465 H 699.136 -4.03382 2.93401 0
M  V30 7466 H 698.29 -5.88457 1.47658 0
M  V30 7467 H 697.029 -4.80927 0.809947 0
M  V30 7468 H 696.034 -4.54127 3.09917 0
M  V30 7469 H 697.259 -5.65104 3.76609 0
M  V30 7470 H 695.205 -6.35306 1.63471 0
M  V30 7471 H 695.122 -6.79799 3.30771 0
M  V30 7472 H 696.39 -7.44489 2.30989 0
M  V30 7473 N 700.619 -1.13374 -1.09472 0
M  V30 7474 C 702.035 -0.871846 -1.33682 0
M  V30 7475 C 702.235 0.492847 -1.9538 0
M  V30 7476 O 701.291 1.23946 -2.19985 0
M  V30 7477 C 702.604 -1.99608 -2.24893 0
M  V30 7478 C 704.152 -2.02812 -2.38404 0
M  V30 7479 C 704.627 -3.14497 -3.3295 0
M  V30 7480 N 706.118 -3.14004 -3.40523 0
M  V30 7481 C 706.853 -3.97061 -4.13679 0
M  V30 7482 N 706.349 -4.90131 -4.89636 0
M  V30 7483 N 708.142 -3.85162 -4.09398 0
M  V30 7484 H 700.293 -2.01288 -0.677995 0
M  V30 7485 H 702.556 -0.876492 -0.361201 0
M  V30 7486 H 702.262 -2.98 -1.86786 0
M  V30 7487 H 702.136 -1.90981 -3.25278 0
M  V30 7488 H 704.523 -1.05034 -2.75775 0
M  V30 7489 H 704.604 -2.15511 -1.37799 0
M  V30 7490 H 704.248 -4.12514 -2.96302 0
M  V30 7491 H 704.178 -2.99035 -4.33458 0
M  V30 7492 H 706.669 -2.46587 -2.86362 0
M  V30 7493 H 706.982 -5.49996 -5.42885 0
M  V30 7494 H 705.327 -4.94138 -4.88726 0
M  V30 7495 H 708.518 -3.11779 -3.49158 0
M  V30 7496 H 708.691 -4.5012 -4.6615 0
M  V30 7497 N 702.098 1.27442 -0.927168 0
M  V30 7498 C 703.345 1.94391 -0.567324 0
M  V30 7499 C 703.673 1.72875 0.891321 0
M  V30 7500 O 702.928 1.05071 1.65102 0
M  V30 7501 C 703.227 3.47413 -0.838994 0
M  V30 7502 C 702.893 3.89049 -2.2793 0
M  V30 7503 C 701.555 4.00127 -2.67305 0
M  V30 7504 C 703.907 4.10154 -3.21595 0
M  V30 7505 C 701.235 4.29697 -3.99471 0
M  V30 7506 C 703.587 4.41208 -4.53341 0
M  V30 7507 C 702.251 4.50499 -4.92551 0
M  V30 7508 H 701.521 0.711325 -0.207598 0
M  V30 7509 H 704.168 1.51523 -1.17103 0
M  V30 7510 H 702.473 3.91503 -0.152609 0
M  V30 7511 H 704.17 3.97354 -0.53955 0
M  V30 7512 H 700.76 3.80962 -1.96381 0
M  V30 7513 H 704.944 4.01036 -2.92377 0
M  V30 7514 H 700.2 4.35099 -4.29533 0
M  V30 7515 H 704.374 4.56486 -5.25922 0
M  V30 7516 H 702.001 4.73167 -5.94994 0
M  V30 7517 N 703.576 0.692616 1.41565 0
M  V30 7518 C 704.806 0.230943 2.05305 0
M  V30 7519 C 705.214 -1.12379 1.52209 0
M  V30 7520 O 704.557 -1.71281 0.663968 0
M  V30 7521 C 704.619 0.107894 3.59338 0
M  V30 7522 C 704.283 1.39419 4.35214 0
M  V30 7523 C 705.28 2.33143 4.64694 0
M  V30 7524 C 702.965 1.64674 4.74539 0
M  V30 7525 C 704.959 3.50385 5.32456 0
M  V30 7526 C 702.646 2.82202 5.42038 0
M  V30 7527 C 703.644 3.74881 5.70923 0
M  V30 7528 O 703.332 4.90351 6.37033 0
M  V30 7529 H 703.064 0.105708 0.667684 0
M  V30 7530 H 705.618 0.94488 1.82376 0
M  V30 7531 H 703.848 -0.661785 3.80995 0
M  V30 7532 H 705.537 -0.316213 4.04666 0
M  V30 7533 H 706.303 2.14887 4.34797 0
M  V30 7534 H 702.182 0.934007 4.51439 0
M  V30 7535 H 705.726 4.22743 5.54918 0
M  V30 7536 H 701.623 3.00376 5.71353 0
M  V30 7537 H 702.391 4.90128 6.55528 0
M  V30 7538 N 705.054 -1.51416 0.437162 0
M  V30 7539 C 706.331 -1.94682 -0.189292 0
M  V30 7540 C 706.711 -1.37581 -1.60108 0
M  V30 7541 O 706.059 -0.562815 -2.2146 0
M  V30 7542 C 706.269 -3.48599 -0.167201 0
M  V30 7543 C 707.617 -4.2296 -0.372856 0
M  V30 7544 O 708.641 -3.55354 -0.245323 0
M  V30 7545 O 707.5 -5.42895 -0.626693 0
M  V30 7546 H 704.594 -0.816708 -0.130063 0
M  V30 7547 H 707.14 -1.62316 0.495128 0
M  V30 7548 H 705.912 -3.82616 0.81981 0
M  V30 7549 H 705.535 -3.87406 -0.894537 0
M  V30 7550 N 706.532 -0.168513 -1.56696 0
M  V30 7551 C 707.48 0.779791 -2.19139 0
M  V30 7552 C 708.474 1.23957 -1.1546 0
M  V30 7553 O 709.68 1.20555 -1.33666 0
M  V30 7554 H 706.055 0.269739 -0.701958 0
M  V30 7555 H 708.026 0.229156 -2.97519 0
M  V30 7556 C 706.775 2.00003 -2.84419 0
M  V30 7557 H 706.098 1.65527 -3.63924 0
M  V30 7558 H 707.538 2.64251 -3.31583 0
M  V30 7559 C 705.997 2.82187 -1.84044 0
M  V30 7560 O 706.527 3.79247 -1.32418 0
M  V30 7561 N 704.733 2.47145 -1.52864 0
M  V30 7562 H 704.28 1.68277 -1.9504 0
M  V30 7563 H 704.238 3.02422 -0.859569 0
M  V30 7564 N 708.01 1.57248 0.105221 0
M  V30 7565 C 709.259 1.84756 0.809198 0
M  V30 7566 C 709.572 0.756262 1.80389 0
M  V30 7567 O 710.778 0.918158 2.55504 0
M  V30 7568 C 709.234 3.27613 1.48989 0
M  V30 7569 C 708.842 4.44788 0.535484 0
M  V30 7570 C 710.586 3.64356 2.17819 0
M  V30 7571 C 708.493 5.78676 1.22019 0
M  V30 7572 H 707.423 0.689139 0.305946 0
M  V30 7573 H 710.074 1.83395 0.0620371 0
M  V30 7574 H 708.456 3.23485 2.28415 0
M  V30 7575 H 709.63 4.60243 -0.226557 0
M  V30 7576 H 707.945 4.16374 -0.0465769 0
M  V30 7577 H 710.542 4.61663 2.69761 0
M  V30 7578 H 710.885 2.92474 2.96251 0
M  V30 7579 H 711.418 3.70328 1.45264 0
M  V30 7580 H 708.157 6.53763 0.476875 0
M  V30 7581 H 707.677 5.67083 1.9539 0
M  V30 7582 H 709.356 6.22897 1.74952 0
M  V30 7583 N 709.488 -0.375779 1.53054 0
M  V30 7584 C 710.398 -1.48381 1.81715 0
M  V30 7585 C 711.414 -1.59087 0.704795 0
M  V30 7586 O 712.59 -1.75174 0.993785 0
M  V30 7587 C 709.655 -2.83767 1.99192 0
M  V30 7588 C 708.716 -2.82673 3.23102 0
M  V30 7589 C 707.949 -4.11601 3.39736 0
M  V30 7590 O 708.172 -5.07243 2.60885 0
M  V30 7591 O 707.106 -4.18034 4.33049 0
M  V30 7592 H 710.932 -1.27089 2.7583 0
M  V30 7593 H 708.517 -0.564902 1.38308 0
M  V30 7594 H 710.399 -3.64004 2.12318 0
M  V30 7595 H 709.074 -3.05057 1.08267 0
M  V30 7596 H 707.981 -2.0117 3.15407 0
M  V30 7597 H 709.314 -2.66335 4.13916 0
M  V30 7598 N 710.966 -1.44241 -0.634997 0
M  V30 7599 C 712.243 -1.37296 -1.39317 0
M  V30 7600 C 712.623 -0.0297532 -2.11079 0
M  V30 7601 O 711.971 0.987524 -2.06059 0
M  V30 7602 C 712.181 -2.56853 -2.36279 0
M  V30 7603 C 713.529 -3.00747 -2.99728 0
M  V30 7604 O 714.553 -2.5703 -2.46605 0
M  V30 7605 O 713.412 -3.76533 -3.96087 0
M  V30 7606 H 710.506 -0.543503 -0.623325 0
M  V30 7607 H 713.052 -1.56324 -0.660376 0
M  V30 7608 H 711.824 -3.46228 -1.82324 0
M  V30 7609 H 711.447 -2.40019 -3.16981 0
M  V30 7610 N 712.444 0.87505 -1.31075 0
M  V30 7611 C 713.377 1.98471 -1.12625 0
M  V30 7612 C 714.355 1.6257 -0.0311379 0
M  V30 7613 O 715.539 1.87574 -0.186594 0
M  V30 7614 C 712.666 3.30963 -0.719799 0
M  V30 7615 C 711.712 3.85849 -1.81722 0
M  V30 7616 S 712.545 4.11926 -3.42165 0
M  V30 7617 C 713.701 5.47423 -3.03445 0
M  V30 7618 H 713.934 2.13817 -2.06566 0
M  V30 7619 H 711.467 1.02463 -1.15502 0
M  V30 7620 H 713.425 4.07541 -0.492035 0
M  V30 7621 H 712.086 3.1346 0.200413 0
M  V30 7622 H 711.279 4.81616 -1.48533 0
M  V30 7623 H 710.881 3.16046 -1.99977 0
M  V30 7624 H 713.173 6.28881 -2.52023 0
M  V30 7625 H 714.116 5.85557 -3.98157 0
M  V30 7626 H 714.524 5.10455 -2.41031 0
M  V30 7627 N 713.922 1.13953 1.08869 0
M  V30 7628 C 715.171 0.899431 1.80536 0
M  V30 7629 C 715.484 -0.575781 1.86933 0
M  V30 7630 O 716.69 -0.932988 2.54966 0
M  V30 7631 C 715.146 1.55963 3.24351 0
M  V30 7632 C 714.754 3.07077 3.26202 0
M  V30 7633 C 716.498 1.40046 4.00733 0
M  V30 7634 C 714.405 3.65955 4.64576 0
M  V30 7635 H 713.335 0.332849 0.676556 0
M  V30 7636 H 715.986 1.3679 1.22314 0
M  V30 7637 H 714.368 1.01883 3.82669 0
M  V30 7638 H 715.542 3.67785 2.77617 0
M  V30 7639 H 713.857 3.22576 2.63312 0
M  V30 7640 H 716.454 1.81441 5.02974 0
M  V30 7641 H 716.797 0.345993 4.1486 0
M  V30 7642 H 717.33 1.91137 3.48872 0
M  V30 7643 H 714.069 4.71234 4.55652 0
M  V30 7644 H 713.589 3.10027 5.13462 0
M  V30 7645 H 715.268 3.65968 5.33551 0
M  V30 7646 N 715.4 -1.26948 0.933913 0
M  V30 7647 C 716.648 -1.93704 0.576484 0
M  V30 7648 C 716.969 -1.73702 -0.886145 0
M  V30 7649 O 716.239 -1.08838 -1.62884 0
M  V30 7650 H 714.819 -0.716812 0.210214 0
M  V30 7651 H 717.481 -1.54534 1.18766 0
M  V30 7652 H 716.577 -3.01987 0.788055 0
M  V30 7653 N 716.879 -0.700114 -1.41195 0
M  V30 7654 C 718.109 -0.241828 -2.0518 0
M  V30 7655 C 718.517 1.1157 -1.52803 0
M  V30 7656 O 717.86 1.70926 -0.673042 0
M  V30 7657 C 717.922 -0.12695 -3.59276 0
M  V30 7658 C 717.586 -1.41725 -4.34469 0
M  V30 7659 C 718.583 -2.35604 -4.63451 0
M  V30 7660 C 716.268 -1.67189 -4.73659 0
M  V30 7661 C 718.262 -3.53204 -5.3059 0
M  V30 7662 C 715.949 -2.85073 -5.40534 0
M  V30 7663 C 716.947 -3.77904 -5.68927 0
M  V30 7664 O 716.635 -4.93723 -6.34424 0
M  V30 7665 H 716.367 -0.109247 -0.667114 0
M  V30 7666 H 718.921 -0.954538 -1.81873 0
M  V30 7667 H 717.151 0.641571 -3.81341 0
M  V30 7668 H 718.84 0.294748 -4.04828 0
M  V30 7669 H 719.606 -2.1719 -4.33651 0
M  V30 7670 H 715.485 -0.957935 -4.50937 0
M  V30 7671 H 719.029 -4.25679 -5.52669 0
M  V30 7672 H 714.926 -3.03402 -5.69752 0
M  V30 7673 H 715.694 -4.93597 -6.5292 0
M  V30 7674 N 718.357 1.51182 -0.445186 0
M  V30 7675 C 719.773 1.59299 -0.0978954 0
M  V30 7676 C 719.973 1.4555 1.39346 0
M  V30 7677 O 719.029 1.30073 2.16419 0
M  V30 7678 C 720.342 2.94133 -0.625005 0
M  V30 7679 C 721.89 3.07463 -0.586137 0
M  V30 7680 C 722.365 4.44832 -1.09035 0
M  V30 7681 N 723.856 4.51173 -1.04867 0
M  V30 7682 C 724.591 5.55804 -1.40959 0
M  V30 7683 N 724.087 6.67816 -1.84375 0
M  V30 7684 N 725.88 5.46205 -1.32726 0
M  V30 7685 H 718.031 1.58363 -1.41544 0
M  V30 7686 H 720.294 0.746946 -0.58376 0
M  V30 7687 H 720 3.09589 -1.66876 0
M  V30 7688 H 719.874 3.77161 -0.0542262 0
M  V30 7689 H 722.261 2.9167 0.448646 0
M  V30 7690 H 722.342 2.26255 -1.19341 0
M  V30 7691 H 721.986 4.61372 -2.12364 0
M  V30 7692 H 721.916 5.24591 -0.459539 0
M  V30 7693 H 724.407 3.70783 -0.729932 0
M  V30 7694 H 724.72 7.43683 -2.10131 0
M  V30 7695 H 723.065 6.69003 -1.88308 0
M  V30 7696 H 726.256 4.57583 -0.986678 0
M  V30 7697 H 726.429 6.27634 -1.61182 0
M  V30 7698 N 719.835 0.176821 1.56605 0
M  V30 7699 C 721.246 -0.338963 1.83597 0
M  V30 7700 C 721.597 -1.62677 1.09684 0
M  V30 7701 O 720.722 -2.13524 0.351661 0
M  V30 7702 C 721.317 -0.62177 3.33046 0
M  V30 7703 C 719.876 -1.08198 3.60514 0
M  V30 7704 C 719.023 -0.120774 2.77037 0
M  V30 7705 H 721.974 0.400978 1.53551 0
M  V30 7706 H 721.995 -1.47321 3.50823 0
M  V30 7707 H 721.507 0.315692 3.86814 0
M  V30 7708 H 719.608 -2.03435 3.12162 0
M  V30 7709 H 719.721 -0.987329 4.68816 0
M  V30 7710 H 718.085 -0.619192 2.47059 0
M  V30 7711 H 718.868 0.810806 3.33588 0
M  V30 7712 N 721.313 -1.57302 -0.09688 0
M  V30 7713 C 722.559 -1.87144 -0.796778 0
M  V30 7714 C 722.914 -0.767428 -1.76432 0
M  V30 7715 O 722.207 0.230728 -1.90206 0
M  V30 7716 C 722.401 -3.21272 -1.56586 0
M  V30 7717 C 722.23 -4.44616 -0.674295 0
M  V30 7718 C 721 -5.04281 -0.320705 0
M  V30 7719 C 723.198 -5.14297 0.0179445 0
M  V30 7720 N 721.18 -6.11162 0.579206 0
M  V30 7721 C 722.551 -6.15125 0.775992 0
M  V30 7722 C 724.606 -4.97815 0.0920521 0
M  V30 7723 C 723.309 -7.01251 1.60122 0
M  V30 7724 C 725.335 -5.84447 0.904175 0
M  V30 7725 C 724.697 -6.84794 1.65035 0
M  V30 7726 H 720.796 -0.734721 -0.267787 0
M  V30 7727 H 723.38 -1.94609 -0.0593955 0
M  V30 7728 H 721.551 -3.14862 -2.27413 0
M  V30 7729 H 723.283 -3.38846 -2.21281 0
M  V30 7730 H 720.038 -4.68866 -0.667961 0
M  V30 7731 H 720.462 -6.69247 1.02166 0
M  V30 7732 H 725.104 -4.20174 -0.470492 0
M  V30 7733 H 722.822 -7.78284 2.17484 0
M  V30 7734 H 726.408 -5.73755 0.964165 0
M  V30 7735 H 725.288 -7.50668 2.26864 0
M  V30 7736 N 722.791 0.367657 -1.53252 0
M  V30 7737 C 724.202 0.944563 -1.61043 0
M  V30 7738 C 724.553 1.90325 -0.476546 0
M  V30 7739 O 723.678 2.12721 0.397333 0
M  V30 7740 C 724.273 1.71992 -2.91898 0
M  V30 7741 C 722.832 2.2462 -3.02031 0
M  V30 7742 C 721.979 1.05799 -2.56324 0
M  V30 7743 H 724.93 0.146516 -1.58022 0
M  V30 7744 H 724.951 2.58095 -2.79584 0
M  V30 7745 H 724.463 1.02192 -3.74404 0
M  V30 7746 H 722.564 2.97668 -2.24108 0
M  V30 7747 H 722.677 2.52644 -4.07073 0
M  V30 7748 H 721.041 1.42435 -2.1115 0
M  V30 7749 H 721.824 0.375008 -3.41246 0
M  V30 7750 N 724.269 1.44576 0.627338 0
M  V30 7751 C 725.199 1.54562 1.75022 0
M  V30 7752 C 726.18 0.398378 1.65369 0
M  V30 7753 O 727.365 0.61899 1.84071 0
M  V30 7754 C 724.495 1.49309 3.13567 0
M  V30 7755 C 723.449 2.62549 3.38012 0
M  V30 7756 C 722.775 2.42348 4.76625 0
M  V30 7757 C 724.075 4.04678 3.30202 0
M  V30 7758 H 725.769 2.4855 1.66922 0
M  V30 7759 H 723.315 1.19624 0.801636 0
M  V30 7760 H 725.268 1.54895 3.919 0
M  V30 7761 H 723.992 0.518392 3.2246 0
M  V30 7762 H 722.651 2.56358 2.62061 0
M  V30 7763 H 722.299 1.43062 4.82226 0
M  V30 7764 H 721.999 3.18273 4.93939 0
M  V30 7765 H 723.523 2.49758 5.57183 0
M  V30 7766 H 724.937 4.12217 3.98435 0
M  V30 7767 H 723.334 4.80836 3.5905 0
M  V30 7768 H 724.404 4.2798 2.27949 0
M  V30 7769 N 725.747 -0.868086 1.31537 0
M  V30 7770 C 726.996 -1.61607 1.20689 0
M  V30 7771 C 727.309 -1.94204 -0.233275 0
M  V30 7772 O 728.515 -2.67515 -0.463465 0
M  V30 7773 C 726.971 -2.91348 2.11292 0
M  V30 7774 C 726.579 -2.66227 3.60315 0
M  V30 7775 C 728.323 -3.69344 2.09249 0
M  V30 7776 C 726.23 -3.91887 4.42921 0
M  V30 7777 H 725.16 -0.606373 0.448138 0
M  V30 7778 H 727.811 -0.959666 1.56405 0
M  V30 7779 H 726.193 -3.58374 1.68477 0
M  V30 7780 H 727.367 -2.07597 4.11388 0
M  V30 7781 H 725.682 -2.01582 3.64354 0
M  V30 7782 H 728.279 -4.62567 2.68209 0
M  V30 7783 H 728.622 -4.02044 1.0801 0
M  V30 7784 H 729.155 -3.09205 2.50274 0
M  V30 7785 H 725.894 -3.64336 5.44922 0
M  V30 7786 H 725.414 -4.49961 3.96605 0
M  V30 7787 H 727.093 -4.59754 4.55231 0
M  V30 7788 N 727.225 -1.14528 -1.08264 0
M  V30 7789 C 728.172 -0.833556 -2.15222 0
M  V30 7790 C 729.142 0.209539 -1.64773 0
M  V30 7791 O 730.327 0.0791388 -1.90636 0
M  V30 7792 C 727.467 -0.318799 -3.43624 0
M  V30 7793 C 726.58 -1.42237 -4.07913 0
M  V30 7794 C 725.715 -0.864704 -5.24115 0
M  V30 7795 C 724.754 -1.94585 -5.80347 0
M  V30 7796 N 723.891 -1.40525 -6.87893 0
M  V30 7797 H 728.731 -1.74965 -2.41228 0
M  V30 7798 H 726.268 -0.873169 -1.18381 0
M  V30 7799 H 728.226 -0.00213088 -4.172 0
M  V30 7800 H 726.856 0.560397 -3.17898 0
M  V30 7801 H 725.908 -1.8554 -3.32083 0
M  V30 7802 H 727.22 -2.23901 -4.45724 0
M  V30 7803 H 726.374 -0.500025 -6.04636 0
M  V30 7804 H 725.113 -0.0171219 -4.87697 0
M  V30 7805 H 724.118 -2.31946 -4.98479 0
M  V30 7806 H 725.343 -2.79704 -6.18823 0
M  V30 7807 H 723.289 -0.579873 -6.53432 0
M  V30 7808 H 723.206 -2.15825 -7.24538 0
M  V30 7809 H 724.474 -1.06852 -7.72142 0
M  V30 7810 N 728.703 1.26451 -0.940633 0
M  V30 7811 C 729.933 1.97581 -0.603766 0
M  V30 7812 C 730.341 1.70246 0.825395 0
M  V30 7813 O 729.684 0.967001 1.56188 0
M  V30 7814 C 729.746 3.51256 -0.765463 0
M  V30 7815 C 729.41 4.0224 -2.16915 0
M  V30 7816 C 730.407 4.1402 -3.14457 0
M  V30 7817 C 728.092 4.36263 -2.48958 0
M  V30 7818 C 730.086 4.59117 -4.42143 0
M  V30 7819 C 727.773 4.81048 -3.76877 0
M  V30 7820 C 728.771 4.92436 -4.73282 0
M  V30 7821 O 728.459 5.36234 -5.98923 0
M  V30 7822 H 728.191 0.636948 -0.226436 0
M  V30 7823 H 730.745 1.61941 -1.2635 0
M  V30 7824 H 728.975 3.86669 -0.0485956 0
M  V30 7825 H 730.664 4.03597 -0.431738 0
M  V30 7826 H 731.43 3.87981 -2.91026 0
M  V30 7827 H 727.309 4.26634 -1.74656 0
M  V30 7828 H 730.853 4.6792 -5.17394 0
M  V30 7829 H 726.75 5.06531 -4.00121 0
M  V30 7830 H 727.518 5.54456 -6.02097 0
M  V30 7831 N 730.181 0.707592 1.40822 0
M  V30 7832 C 731.421 0.247986 2.0289 0
M  V30 7833 C 731.785 -1.13484 1.54872 0
M  V30 7834 O 732.986 -1.69098 2.08948 0
M  V30 7835 C 731.257 0.316326 3.55997 0
M  V30 7836 S 732.816 -0.0674698 4.38748 0
M  V30 7837 H 729.634 0.09895 0.704081 0
M  V30 7838 H 732.236 0.928039 1.72069 0
M  V30 7839 H 730.94 1.32453 3.88438 0
M  V30 7840 H 730.471 -0.382474 3.91536 0
M  V30 7841 H 732.486 -1.29182 4.79089 0
M  V30 7842 N 731.66 -1.50943 0.453197 0
M  V30 7843 C 732.906 -2.03153 -0.100277 0
M  V30 7844 C 733.261 -1.33032 -1.38997 0
M  V30 7845 O 732.554 -0.441423 -1.86446 0
M  V30 7846 C 732.748 -3.55603 -0.357944 0
M  V30 7847 C 732.577 -4.40495 0.905223 0
M  V30 7848 C 731.347 -4.84247 1.44337 0
M  V30 7849 C 733.545 -4.81931 1.79575 0
M  V30 7850 N 731.527 -5.53403 2.65742 0
M  V30 7851 C 732.898 -5.50314 2.85577 0
M  V30 7852 C 734.953 -4.63903 1.80828 0
M  V30 7853 C 733.656 -6.02581 3.92797 0
M  V30 7854 C 735.682 -5.17097 2.86993 0
M  V30 7855 C 735.044 -5.8544 3.91713 0
M  V30 7856 H 731.143 -0.781995 0.00287755 0
M  V30 7857 H 733.727 -1.84651 0.617411 0
M  V30 7858 H 731.898 -3.74087 -1.04467 0
M  V30 7859 H 733.63 -3.9447 -0.904175 0
M  V30 7860 H 730.385 -4.63029 0.995045 0
M  V30 7861 H 730.809 -5.92598 3.27348 0
M  V30 7862 H 735.451 -4.10512 1.0119 0
M  V30 7863 H 733.169 -6.55018 4.73262 0
M  V30 7864 H 736.755 -5.0499 2.88923 0
M  V30 7865 H 735.635 -6.25861 4.72512 0
M  V30 7866 N 733.138 -0.185124 -1.56509 0
M  V30 7867 C 734.068 0.735098 -2.21627 0
M  V30 7868 C 735.049 1.2288 -1.1762 0
M  V30 7869 O 736.234 1.27945 -1.46095 0
M  V30 7870 C 733.364 1.95889 -2.86783 0
M  V30 7871 C 732.318 1.6005 -3.96948 0
M  V30 7872 C 731.644 2.90009 -4.4922 0
M  V30 7873 C 732.944 0.818008 -5.15855 0
M  V30 7874 H 734.638 0.192274 -2.98782 0
M  V30 7875 H 732.184 0.0910393 -1.43712 0
M  V30 7876 H 734.137 2.60779 -3.31017 0
M  V30 7877 H 732.861 2.52608 -2.07018 0
M  V30 7878 H 731.52 0.975237 -3.5339 0
M  V30 7879 H 731.168 3.44797 -3.6623 0
M  V30 7880 H 730.868 2.66778 -5.23549 0
M  V30 7881 H 732.392 3.55904 -4.9615 0
M  V30 7882 H 733.806 1.36979 -5.56695 0
M  V30 7883 H 732.203 0.684207 -5.96187 0
M  V30 7884 H 733.273 -0.182939 -4.84555 0
M  V30 7885 N 734.616 1.57351 0.0885366 0
M  V30 7886 C 735.863 1.86419 0.790824 0
M  V30 7887 C 736.191 0.774561 1.78412 0
M  V30 7888 O 735.446 -0.23119 1.9433 0
M  V30 7889 C 735.745 3.22098 1.5488 0
M  V30 7890 C 735.411 4.4548 0.697025 0
M  V30 7891 C 734.073 4.78975 0.462237 0
M  V30 7892 C 736.425 5.21094 0.105315 0
M  V30 7893 C 733.753 5.85507 -0.374016 0
M  V30 7894 C 736.105 6.28509 -0.718298 0
M  V30 7895 C 734.769 6.60515 -0.963116 0
M  V30 7896 H 734.039 0.682157 0.289383 0
M  V30 7897 H 736.686 1.91429 0.0520961 0
M  V30 7898 H 734.991 3.12803 2.35927 0
M  V30 7899 H 736.688 3.41819 2.09669 0
M  V30 7900 H 733.278 4.19255 0.890137 0
M  V30 7901 H 737.462 4.95544 0.273856 0
M  V30 7902 H 732.718 6.08713 -0.572606 0
M  V30 7903 H 736.892 6.86268 -1.18362 0
M  V30 7904 H 734.519 7.42893 -1.6129 0
M  V30 7905 N 736.094 -0.359525 1.53444 0
M  V30 7906 C 737.024 -1.44662 1.8329 0
M  V30 7907 C 738.005 -1.55617 0.68683 0
M  V30 7908 O 739.19 -1.70086 0.93725 0
M  V30 7909 C 736.32 -2.81923 2.02822 0
M  V30 7910 C 735.274 -2.85787 3.18606 0
M  V30 7911 C 734.6 -4.25781 3.23442 0
M  V30 7912 C 735.9 -2.52762 4.57065 0
M  V30 7913 H 737.594 -1.19934 2.74329 0
M  V30 7914 H 735.14 -0.575517 1.31999 0
M  V30 7915 H 737.093 -3.58005 2.22285 0
M  V30 7916 H 735.817 -3.08051 1.085 0
M  V30 7917 H 734.476 -2.12157 2.98973 0
M  V30 7918 H 734.124 -4.48994 2.26745 0
M  V30 7919 H 733.824 -4.29281 4.01238 0
M  V30 7920 H 735.348 -5.03727 3.45096 0
M  V30 7921 H 736.762 -3.18557 4.76649 0
M  V30 7922 H 735.159 -2.67569 5.37147 0
M  V30 7923 H 736.229 -1.47993 4.61764 0
M  V30 7924 N 737.572 -1.44907 -0.619662 0
M  V30 7925 C 738.8 -1.51795 -1.40591 0
M  V30 7926 C 739.215 -0.146553 -1.8823 0
M  V30 7927 O 738.572 0.849698 -1.61513 0
M  V30 7928 C 738.623 -2.49229 -2.61853 0
M  V30 7929 O 738.344 -3.81039 -2.16197 0
M  V30 7930 C 739.845 -2.65696 -3.54853 0
M  V30 7931 H 737.065 -0.514463 -0.430777 0
M  V30 7932 H 739.609 -1.8998 -0.756813 0
M  V30 7933 H 737.764 -2.14149 -3.2283 0
M  V30 7934 H 738.178 -4.33747 -2.94896 0
M  V30 7935 H 739.652 -3.37874 -4.36515 0
M  V30 7936 H 740.129 -1.71316 -4.0441 0
M  V30 7937 H 740.735 -3.01724 -2.99737 0
M  V30 7938 N 739.05 0.861098 -1.31996 0
M  V30 7939 C 740.461 1.43065 -1.19955 0
M  V30 7940 C 740.812 1.95273 0.190489 0
M  V30 7941 O 739.937 1.87012 1.08882 0
M  V30 7942 C 740.532 2.60052 -2.1716 0
M  V30 7943 C 739.091 3.13026 -2.09026 0
M  V30 7944 C 738.238 1.85756 -2.05888 0
M  V30 7945 H 741.189 0.668834 -1.43918 0
M  V30 7946 H 741.21 3.37016 -1.76637 0
M  V30 7947 H 740.722 2.22024 -3.18319 0
M  V30 7948 H 738.823 3.55653 -1.11092 0
M  V30 7949 H 738.936 3.74707 -2.98549 0
M  V30 7950 H 737.3 2.05088 -1.51033 0
M  V30 7951 H 738.083 1.49954 -3.08818 0
M  V30 7952 N 740.528 1.15101 1.07655 0
M  V30 7953 C 741.491 0.847625 2.12951 0
M  V30 7954 C 742.491 -0.151227 1.60087 0
M  V30 7955 O 743.681 0.0780399 1.74025 0
M  V30 7956 C 740.813 0.265 3.39868 0
M  V30 7957 H 742.006 1.7809 2.41296 0
M  V30 7958 H 739.559 0.958072 1.23494 0
M  V30 7959 H 740.294 -0.676625 3.17163 0
M  V30 7960 H 740.079 0.984554 3.79538 0
M  V30 7961 H 741.569 0.0702121 4.17541 0
M  V30 7962 N 742.006 -1.2595 0.947325 0
M  V30 7963 C 743.252 -1.9375 0.599064 0
M  V30 7964 C 743.585 -1.74088 -0.860632 0
M  V30 7965 O 742.86 -1.08158 -1.61654 0
M  V30 7966 C 743.143 -3.47353 0.949634 0
M  V30 7967 C 742.996 -3.76273 2.46452 0
M  V30 7968 C 744.315 -4.37589 0.469442 0
M  V30 7969 H 741.434 -0.703674 0.219115 0
M  V30 7970 H 744.076 -1.48705 1.18266 0
M  V30 7971 H 742.226 -3.8585 0.453008 0
M  V30 7972 H 743.898 -3.47455 3.03435 0
M  V30 7973 H 742.141 -3.22135 2.90537 0
M  V30 7974 H 742.812 -4.83664 2.66032 0
M  V30 7975 H 745.288 -4.06353 0.89534 0
M  V30 7976 H 744.164 -5.43841 0.7435 0
M  V30 7977 H 744.425 -4.37579 -0.630618 0
M  V30 7978 N 743.484 -0.715051 -1.40445 0
M  V30 7979 C 744.724 -0.258742 -2.02756 0
M  V30 7980 C 745.088 1.12661 -1.55472 0
M  V30 7981 O 746.289 1.67988 -2.09842 0
M  V30 7982 C 744.56 -0.335201 -3.55825 0
M  V30 7983 S 746.119 0.044201 -4.38778 0
M  V30 7984 H 742.937 -0.102683 -0.703546 0
M  V30 7985 H 745.539 -0.937151 -1.71574 0
M  V30 7986 H 744.243 -1.34511 -3.87731 0
M  V30 7987 H 743.774 0.361705 -3.91734 0
M  V30 7988 H 745.789 1.26639 -4.79768 0
M  V30 7989 N 744.962 1.50701 -0.461195 0
M  V30 7990 C 746.19 2.06681 0.0951756 0
M  V30 7991 C 746.605 1.32615 1.34382 0
M  V30 7992 O 745.962 0.392531 1.78229 0
M  V30 7993 C 746.013 3.59354 0.393316 0
M  V30 7994 O 745.734 4.30626 -0.805797 0
M  V30 7995 C 747.235 4.31926 0.997744 0
M  V30 7996 H 744.455 0.670995 -0.00267259 0
M  V30 7997 H 746.999 1.93991 -0.647137 0
M  V30 7998 H 745.154 3.7188 1.08555 0
M  V30 7999 H 745.568 5.21667 -0.544409 0
M  V30 8000 H 747.042 5.39756 1.15619 0
M  V30 8001 H 747.519 3.91772 1.98523 0
M  V30 8002 H 748.125 4.23905 0.344188 0
M  V30 8003 N 746.441 0.193421 1.56409 0
M  V30 8004 C 747.404 -0.714371 2.17783 0
M  V30 8005 C 748.404 -1.1422 1.13183 0
M  V30 8006 O 749.594 -1.05557 1.38576 0
M  V30 8007 C 746.726 -1.97509 2.77855 0
M  V30 8008 H 747.919 -0.179714 2.99361 0
M  V30 8009 H 745.472 -0.0561944 1.56199 0
M  V30 8010 H 746.207 -2.5523 2.0007 0
M  V30 8011 H 745.992 -1.67706 3.54425 0
M  V30 8012 H 747.482 -2.62246 3.24987 0
M  V30 8013 N 747.919 -1.57396 -0.0801906 0
M  V30 8014 C 749.147 -1.91055 -0.794075 0
M  V30 8015 C 749.562 -0.788583 -1.71542 0
M  V30 8016 O 748.919 0.238587 -1.80934 0
M  V30 8017 C 748.97 -3.24418 -1.59484 0
M  V30 8018 O 748.691 -4.323 -0.710532 0
M  V30 8019 C 750.192 -3.72037 -2.41046 0
M  V30 8020 H 747.412 -0.63171 -0.226238 0
M  V30 8021 H 749.956 -2.04431 -0.0529685 0
M  V30 8022 H 748.111 -3.12595 -2.2883 0
M  V30 8023 H 748.525 -5.08976 -1.26663 0
M  V30 8024 H 749.999 -4.68006 -2.92702 0
M  V30 8025 H 750.476 -3.00624 -3.2019 0
M  V30 8026 H 751.082 -3.86777 -1.76871 0
M  V30 8027 N 749.397 0.351382 -1.53633 0
M  V30 8028 C 750.644 1.0925 -1.70502 0
M  V30 8029 C 750.972 1.88881 -0.464123 0
M  V30 8030 O 750.227 1.87693 0.554077 0
M  V30 8031 C 750.526 2.06744 -2.91533 0
M  V30 8032 C 750.192 1.43484 -4.27461 0
M  V30 8033 C 748.854 1.2596 -4.64422 0
M  V30 8034 C 751.206 0.978436 -5.11934 0
M  V30 8035 C 748.534 0.614017 -5.83478 0
M  V30 8036 C 750.886 0.346795 -6.31649 0
M  V30 8037 C 749.55 0.15917 -6.6731 0
M  V30 8038 H 748.82 0.399773 -0.623909 0
M  V30 8039 H 751.467 0.372656 -1.87839 0
M  V30 8040 H 749.772 2.85082 -2.68767 0
M  V30 8041 H 751.469 2.64066 -3.01778 0
M  V30 8042 H 748.059 1.5812 -3.98367 0
M  V30 8043 H 752.243 1.1017 -4.83918 0
M  V30 8044 H 747.499 0.457194 -6.09688 0
M  V30 8045 H 751.673 -0.0149864 -6.96398 0
M  V30 8046 H 749.3 -0.343129 -7.59425 0
M  V30 8047 N 750.875 1.45233 0.611969 0
M  V30 8048 C 751.805 1.5641 1.73373 0
M  V30 8049 C 752.786 0.415896 1.64937 0
M  V30 8050 O 753.971 0.638478 1.83404 0
M  V30 8051 C 751.101 1.52627 3.11965 0
M  V30 8052 C 750.055 2.66119 3.35208 0
M  V30 8053 C 749.381 2.4739 4.74028 0
M  V30 8054 C 750.681 4.08157 3.25891 0
M  V30 8055 H 752.375 2.50307 1.64277 0
M  V30 8056 H 749.921 1.20467 0.788904 0
M  V30 8057 H 751.874 1.59043 3.90235 0
M  V30 8058 H 750.598 0.552564 3.21892 0
M  V30 8059 H 749.257 2.59123 2.59327 0
M  V30 8060 H 748.905 1.48168 4.80682 0
M  V30 8061 H 748.605 3.23494 4.90536 0
M  V30 8062 H 750.129 2.55653 5.54503 0
M  V30 8063 H 751.543 4.1642 3.9404 0
M  V30 8064 H 749.94 4.84617 3.5393 0
M  V30 8065 H 751.01 4.30374 2.23397 0
M  V30 8066 N 752.353 -0.854086 1.3245 0
M  V30 8067 C 753.6 -1.60831 1.23043 0
M  V30 8068 C 753.928 -1.93389 -0.2076 0
M  V30 8069 O 753.183 -1.5756 -1.16075 0
M  V30 8070 C 753.482 -2.93746 2.03587 0
M  V30 8071 C 753.148 -2.80615 3.52939 0
M  V30 8072 C 751.81 -2.76742 3.93659 0
M  V30 8073 C 754.162 -2.66507 4.4791 0
M  V30 8074 C 751.49 -2.56638 5.27592 0
M  V30 8075 C 753.842 -2.47939 5.81987 0
M  V30 8076 C 752.506 -2.42458 6.21909 0
M  V30 8077 H 751.776 -0.588523 0.450247 0
M  V30 8078 H 754.423 -0.990699 1.63882 0
M  V30 8079 H 752.728 -3.5963 1.55478 0
M  V30 8080 H 754.425 -3.51127 1.93677 0
M  V30 8081 H 751.015 -2.84456 3.20598 0
M  V30 8082 H 755.199 -2.68544 4.1737 0
M  V30 8083 H 750.455 -2.50831 5.57579 0
M  V30 8084 H 754.629 -2.36002 6.55192 0
M  V30 8085 H 752.256 -2.2664 7.2563 0
M  V30 8086 N 753.831 -1.1567 -1.07043 0
M  V30 8087 C 755.056 -0.957946 -1.83952 0
M  V30 8088 C 755.481 0.488807 -1.81638 0
M  V30 8089 O 754.839 1.34869 -1.21162 0
M  V30 8090 C 754.887 -1.48064 -3.288 0
M  V30 8091 O 753.991 -0.681921 -4.06723 0
M  V30 8092 H 753.332 -0.341453 -0.569479 0
M  V30 8093 H 755.862 -1.53728 -1.35015 0
M  V30 8094 H 755.872 -1.49484 -3.7963 0
M  V30 8095 H 754.547 -2.53388 -3.29799 0
M  V30 8096 H 753.124 -0.737612 -3.65532 0
M  V30 8097 N 755.309 1.25446 -0.953992 0
M  V30 8098 C 756.239 2.28264 -0.491717 0
M  V30 8099 C 757.22 1.63717 0.461617 0
M  V30 8100 O 758.405 1.90821 0.36071 0
M  V30 8101 C 755.535 3.46525 0.231915 0
M  V30 8102 C 754.489 4.23247 -0.636098 0
M  V30 8103 C 753.815 5.34254 0.218238 0
M  V30 8104 C 755.115 4.85971 -1.91389 0
M  V30 8105 H 756.809 2.67183 -1.35106 0
M  V30 8106 H 754.355 1.2844 -0.651095 0
M  V30 8107 H 756.308 4.17576 0.566439 0
M  V30 8108 H 755.032 3.06594 1.12551 0
M  V30 8109 H 753.691 3.53978 -0.953696 0
M  V30 8110 H 753.339 4.90564 1.11156 0
M  V30 8111 H 753.039 5.86501 -0.359232 0
M  V30 8112 H 754.563 6.08138 0.547743 0
M  V30 8113 H 755.977 5.49168 -1.64581 0
M  V30 8114 H 754.374 5.48391 -2.43696 0
M  V30 8115 H 755.444 4.08192 -2.61738 0
M  V30 8116 N 756.787 0.722489 1.40064 0
M  V30 8117 C 758.036 0.261932 1.99992 0
M  V30 8118 C 758.349 -1.15358 1.57961 0
M  V30 8119 O 759.555 -1.71301 2.10637 0
M  V30 8120 C 758.011 0.41737 3.57472 0
M  V30 8121 C 757.619 1.83997 4.08472 0
M  V30 8122 C 759.363 0.0179561 4.24496 0
M  V30 8123 C 757.27 1.94563 5.5848 0
M  V30 8124 H 756.2 0.0941768 0.748095 0
M  V30 8125 H 758.851 0.894572 1.60218 0
M  V30 8126 H 757.233 -0.283965 3.94981 0
M  V30 8127 H 758.407 2.57224 3.82325 0
M  V30 8128 H 756.722 2.19147 3.54067 0
M  V30 8129 H 759.319 0.076085 5.34646 0
M  V30 8130 H 759.662 -1.02498 4.03485 0
M  V30 8131 H 760.195 0.669988 3.92117 0
M  V30 8132 H 756.934 2.97001 5.84355 0
M  V30 8133 H 756.454 1.25756 5.86469 0
M  V30 8134 H 758.133 1.72095 6.23692 0
M  V30 8135 N 758.265 -1.50454 0.469181 0
M  V30 8136 C 759.212 -2.28486 -0.325982 0
M  V30 8137 C 760.182 -1.33455 -0.988893 0
M  V30 8138 O 761.367 -1.6239 -1.0017 0
M  V30 8139 C 758.507 -3.15288 -1.40313 0
M  V30 8140 C 757.62 -4.25348 -0.755183 0
M  V30 8141 C 756.755 -4.9941 -1.81006 0
M  V30 8142 C 755.794 -6.01348 -1.14226 0
M  V30 8143 N 754.931 -6.68695 -2.1399 0
M  V30 8144 H 759.771 -2.95987 0.345753 0
M  V30 8145 H 757.308 -1.45965 0.182355 0
M  V30 8146 H 759.266 -3.63964 -2.03927 0
M  V30 8147 H 757.896 -2.49837 -2.04405 0
M  V30 8148 H 756.948 -3.80399 -0.00651901 0
M  V30 8149 H 758.26 -4.98279 -0.227941 0
M  V30 8150 H 757.414 -5.51794 -2.52206 0
M  V30 8151 H 756.153 -4.26181 -2.3711 0
M  V30 8152 H 755.158 -5.48225 -0.415876 0
M  V30 8153 H 756.383 -6.76548 -0.588135 0
M  V30 8154 H 754.329 -5.98258 -2.69115 0
M  V30 8155 H 754.246 -7.37495 -1.66246 0
M  V30 8156 H 755.514 -7.25697 -2.84576 0
M  V30 8157 N 759.743 -0.201713 -1.56304 0
M  V30 8158 C 760.973 0.440084 -2.01858 0
M  V30 8159 C 761.381 1.55279 -1.08098 0
M  V30 8160 O 760.724 1.83529 -0.0792216 0
M  V30 8161 C 760.786 1.05091 -3.43797 0
M  V30 8162 C 760.45 0.0761208 -4.56937 0
M  V30 8163 C 761.447 -0.716951 -5.14933 0
M  V30 8164 C 759.132 -0.0368815 -5.02286 0
M  V30 8165 C 761.126 -1.60993 -6.16733 0
M  V30 8166 C 758.813 -0.933409 -6.03929 0
M  V30 8167 C 759.811 -1.71849 -6.61027 0
M  V30 8168 O 759.499 -2.59998 -7.60695 0
M  V30 8169 H 759.231 0.114139 -0.666294 0
M  V30 8170 H 761.785 -0.309672 -2.03052 0
M  V30 8171 H 760.015 1.84938 -3.3961 0
M  V30 8172 H 761.704 1.59804 -3.73118 0
M  V30 8173 H 762.47 -0.63999 -4.80759 0
M  V30 8174 H 758.349 0.564034 -4.57537 0
M  V30 8175 H 761.893 -2.22315 -6.61227 0
M  V30 8176 H 757.79 -1.01146 -6.37526 0
M  V30 8177 H 758.558 -2.53851 -7.7814 0
M  V30 8178 N 761.222 1.57436 0.0718424 0
M  V30 8179 C 762.45 1.91474 0.783932 0
M  V30 8180 C 762.865 0.797669 1.71122 0
M  V30 8181 O 762.222 -0.228989 1.81058 0
M  V30 8182 C 762.273 3.25259 1.57761 0
M  V30 8183 O 761.994 4.3267 0.687596 0
M  V30 8184 C 763.495 3.7331 2.3907 0
M  V30 8185 H 760.715 0.632901 0.222885 0
M  V30 8186 H 763.259 2.04457 0.0421262 0
M  V30 8187 H 761.414 3.13804 2.27169 0
M  V30 8188 H 761.828 5.09641 1.23962 0
M  V30 8189 H 763.302 4.69551 2.90216 0
M  V30 8190 H 763.779 3.02318 3.18591 0
M  V30 8191 H 764.385 3.8771 1.74818 0
M  V30 8192 N 762.7 -0.34323 1.53817 0
M  V30 8193 C 764.111 -0.918823 1.62525 0
M  V30 8194 C 764.462 -1.89542 0.506765 0
M  V30 8195 O 763.587 -2.13326 -0.363441 0
M  V30 8196 C 764.182 -1.67326 2.94597 0
M  V30 8197 C 762.741 -2.19786 3.05567 0
M  V30 8198 C 761.888 -1.01708 2.57974 0
M  V30 8199 H 764.839 -0.121358 1.58235 0
M  V30 8200 H 764.86 -2.53615 2.83654 0
M  V30 8201 H 764.372 -0.962223 3.75983 0
M  V30 8202 H 762.473 -2.94065 2.28816 0
M  V30 8203 H 762.586 -2.46135 4.1104 0
M  V30 8204 H 760.95 -1.39058 2.13389 0
M  V30 8205 H 761.733 -0.320671 3.41799 0
M  V30 8206 N 764.178 -1.45556 -0.604258 0
M  V30 8207 C 765.108 -1.57327 -1.72541 0
M  V30 8208 C 766.089 -0.424637 -1.64714 0
M  V30 8209 O 767.274 -0.648196 -1.83063 0
M  V30 8210 C 764.404 -1.54279 -3.11152 0
M  V30 8211 C 763.358 -2.67893 -3.33792 0
M  V30 8212 C 762.684 -2.499 -4.72709 0
M  V30 8213 C 763.984 -4.0988 -3.23722 0
M  V30 8214 H 765.678 -2.51175 -1.62947 0
M  V30 8215 H 763.224 -1.20884 -0.782504 0
M  V30 8216 H 765.177 -1.6111 -3.89386 0
M  V30 8217 H 763.901 -0.569627 -3.21594 0
M  V30 8218 H 762.56 -2.60495 -2.57949 0
M  V30 8219 H 762.208 -1.50715 -4.79889 0
M  V30 8220 H 761.908 -3.26091 -4.88813 0
M  V30 8221 H 763.432 -2.5859 -5.5314 0
M  V30 8222 H 764.846 -4.18503 -3.91826 0
M  V30 8223 H 763.243 -4.86487 -3.51355 0
M  V30 8224 H 764.313 -4.31553 -2.21111 0
M  V30 8225 N 765.656 0.84705 -1.32902 0
M  V30 8226 C 766.884 1.63403 -1.26913 0
M  V30 8227 C 767.299 1.88108 0.161483 0
M  V30 8228 O 766.656 1.45546 1.10103 0
M  V30 8229 C 766.707 2.98896 -2.03331 0
M  V30 8230 O 766.428 2.75281 -3.40811 0
M  V30 8231 C 767.929 3.93335 -2.04457 0
M  V30 8232 H 765.149 0.508701 -0.437566 0
M  V30 8233 H 767.693 1.05567 -1.75145 0
M  V30 8234 H 765.848 3.53356 -1.58802 0
M  V30 8235 H 766.262 3.61504 -3.8002 0
M  V30 8236 H 767.736 4.85647 -2.62394 0
M  V30 8237 H 768.213 4.26885 -1.03274 0
M  V30 8238 H 768.819 3.44812 -2.48967 0
M  V30 8239 N 767.134 1.16236 1.06428 0
M  V30 8240 C 768.364 0.965782 1.82637 0
M  V30 8241 C 768.772 -0.489284 1.82764 0
M  V30 8242 O 768.115 -1.35133 1.24438 0
M  V30 8243 C 768.177 1.41458 3.30499 0
M  V30 8244 C 767.841 2.88926 3.54077 0
M  V30 8245 C 768.838 3.86939 3.47238 0
M  V30 8246 C 766.523 3.26814 3.81442 0
M  V30 8247 C 768.517 5.20841 3.67428 0
M  V30 8248 C 766.204 4.60886 4.01282 0
M  V30 8249 C 767.202 5.57708 3.94272 0
M  V30 8250 O 766.89 6.89357 4.13573 0
M  V30 8251 H 766.622 0.342569 0.582772 0
M  V30 8252 H 769.176 1.54641 1.35187 0
M  V30 8253 H 767.406 0.777426 3.78805 0
M  V30 8254 H 769.095 1.18563 3.88198 0
M  V30 8255 H 769.861 3.59014 3.26089 0
M  V30 8256 H 765.74 2.5203 3.86008 0
M  V30 8257 H 769.284 5.96401 3.61873 0
M  V30 8258 H 765.181 4.88522 4.21921 0
M  V30 8259 H 765.949 6.95913 4.30869 0
M  V30 8260 N 768.612 -1.24939 0.960631 0
M  V30 8261 C 769.56 -2.27659 0.47686 0
M  V30 8262 C 770.554 -1.63148 -0.455961 0
M  V30 8263 O 771.76 -1.76911 -0.332029 0
M  V30 8264 H 768.135 -0.739651 0.135723 0
M  V30 8265 H 770.106 -2.65844 1.35534 0
M  V30 8266 C 768.855 -3.46976 -0.224191 0
M  V30 8267 H 768.178 -3.96854 0.484471 0
M  V30 8268 H 769.618 -4.20717 -0.526615 0
M  V30 8269 C 768.077 -3.04159 -1.44876 0
M  V30 8270 O 768.607 -3.10697 -2.54618 0
M  V30 8271 N 766.813 -2.59284 -1.31226 0
M  V30 8272 H 766.36 -2.54164 -0.419361 0
M  V30 8273 H 766.318 -2.31 -2.13275 0
M  V30 8274 N 770.09 -0.729906 -1.39679 0
M  V30 8275 C 771.037 -0.0866063 -2.30637 0
M  V30 8276 C 772.007 0.735115 -1.48947 0
M  V30 8277 O 773.192 0.696125 -1.77648 0
M  V30 8278 C 770.332 0.818524 -3.35252 0
M  V30 8279 C 769.445 -0.0152635 -4.31997 0
M  V30 8280 C 768.58 0.890669 -5.2368 0
M  V30 8281 C 767.619 0.0518246 -6.12078 0
M  V30 8282 N 766.756 0.913411 -6.96133 0
M  V30 8283 H 771.596 -0.867925 -2.85081 0
M  V30 8284 H 769.133 -0.439673 -1.40376 0
M  V30 8285 H 771.091 1.3577 -3.9449 0
M  V30 8286 H 769.721 1.56587 -2.82277 0
M  V30 8287 H 768.773 -0.671794 -3.74421 0
M  V30 8288 H 770.085 -0.664086 -4.9436 0
M  V30 8289 H 769.239 1.49787 -5.87919 0
M  V30 8290 H 767.978 1.57328 -4.61627 0
M  V30 8291 H 766.983 -0.568209 -5.46856 0
M  V30 8292 H 768.208 -0.627497 -6.76195 0
M  V30 8293 H 766.154 1.58141 -6.36653 0
M  V30 8294 H 766.071 0.320952 -7.55318 0
M  V30 8295 H 767.339 1.50633 -7.64807 0
M  V30 8296 N 771.568 1.50203 -0.477153 0
M  V30 8297 C 772.515 2.28656 0.31386 0
M  V30 8298 C 773.485 1.33977 0.981802 0
M  V30 8299 O 774.67 1.62919 0.993072 0
M  V30 8300 C 771.81 3.16027 1.38639 0
M  V30 8301 C 770.923 4.25743 0.732615 0
M  V30 8302 C 770.058 5.00363 1.78355 0
M  V30 8303 C 769.097 6.01945 1.11035 0
M  V30 8304 N 768.234 6.6982 2.10441 0
M  V30 8305 H 773.074 2.958 -0.361445 0
M  V30 8306 H 770.611 1.45867 -0.190093 0
M  V30 8307 H 772.569 3.6504 2.01994 0
M  V30 8308 H 771.199 2.50917 2.03077 0
M  V30 8309 H 770.251 3.80398 -0.0136546 0
M  V30 8310 H 771.563 4.98393 0.201513 0
M  V30 8311 H 770.717 5.53124 2.49276 0
M  V30 8312 H 769.456 4.27432 2.34847 0
M  V30 8313 H 768.461 5.48438 0.386797 0
M  V30 8314 H 769.686 6.76851 0.552248 0
M  V30 8315 H 767.632 5.99677 2.65939 0
M  V30 8316 H 767.549 7.38366 1.62332 0
M  V30 8317 H 768.817 7.27196 2.80724 0
M  V30 8318 N 773.046 0.209999 1.56195 0
M  V30 8319 C 774.276 -0.429373 2.02089 0
M  V30 8320 C 774.684 -1.54703 1.0892 0
M  V30 8321 O 774.027 -1.83485 0.0889535 0
M  V30 8322 C 774.089 -1.03266 3.44349 0
M  V30 8323 C 773.753 -0.0518873 4.56971 0
M  V30 8324 C 774.75 0.744249 5.14545 0
M  V30 8325 C 772.435 0.0635185 5.0226 0
M  V30 8326 C 774.429 1.64261 6.15871 0
M  V30 8327 C 772.116 0.965423 6.03426 0
M  V30 8328 C 773.114 1.75352 6.60106 0
M  V30 8329 O 772.802 2.64029 7.59305 0
M  V30 8330 H 772.534 -0.110604 0.66689 0
M  V30 8331 H 775.088 0.320436 2.02885 0
M  V30 8332 H 773.318 -1.83134 3.40586 0
M  V30 8333 H 775.007 -1.57823 3.73961 0
M  V30 8334 H 775.773 0.665476 4.80413 0
M  V30 8335 H 771.652 -0.539762 4.57829 0
M  V30 8336 H 775.196 2.25819 6.60039 0
M  V30 8337 H 771.093 1.04526 6.36981 0
M  V30 8338 H 771.861 2.57974 7.76783 0
M  V30 8339 N 774.524 -1.57472 -0.0634922 0
M  V30 8340 C 775.752 -1.91887 -0.773767 0
M  V30 8341 C 776.167 -0.806733 -1.70696 0
M  V30 8342 O 775.524 0.219383 -1.81177 0
M  V30 8343 C 775.575 -3.26092 -1.56034 0
M  V30 8344 O 775.296 -4.33029 -0.66464 0
M  V30 8345 C 776.797 -3.74573 -2.37087 0
M  V30 8346 H 774.017 -0.634074 -0.219525 0
M  V30 8347 H 776.561 -2.04476 -0.0312828 0
M  V30 8348 H 774.716 -3.15004 -2.25502 0
M  V30 8349 H 775.13 -5.10291 -1.21258 0
M  V30 8350 H 776.604 -4.71084 -2.87722 0
M  V30 8351 H 777.081 -3.04003 -3.16984 0
M  V30 8352 H 777.687 -3.88631 -1.72759 0
M  V30 8353 N 776.003 0.335068 -1.53997 0
M  V30 8354 C 777.233 1.0926 -1.75345 0
M  V30 8355 C 777.641 1.82568 -0.496545 0
M  V30 8356 O 776.984 1.75525 0.541897 0
M  V30 8357 C 777.046 2.14473 -2.88516 0
M  V30 8358 C 776.71 1.60665 -4.27827 0
M  V30 8359 C 777.707 1.05448 -5.09094 0
M  V30 8360 C 775.392 1.65255 -4.74337 0
M  V30 8361 C 777.386 0.555372 -6.34976 0
M  V30 8362 C 775.073 1.14956 -6.0019 0
M  V30 8363 C 776.071 0.601907 -6.80343 0
M  V30 8364 O 775.759 0.106445 -8.0383 0
M  V30 8365 H 775.491 0.331329 -0.589234 0
M  V30 8366 H 778.045 0.39042 -2.01655 0
M  V30 8367 H 776.275 2.88274 -2.5775 0
M  V30 8368 H 777.964 2.75857 -2.97755 0
M  V30 8369 H 778.73 1.01218 -4.74321 0
M  V30 8370 H 774.609 2.06822 -4.12002 0
M  V30 8371 H 778.153 0.127245 -6.97484 0
M  V30 8372 H 774.05 1.18891 -6.34457 0
M  V30 8373 H 774.818 0.222944 -8.18196 0
M  V30 8374 N 777.481 1.45874 0.596531 0
M  V30 8375 C 778.892 1.44798 1.17857 0
M  V30 8376 C 779.243 0.181443 1.95359 0
M  V30 8377 O 778.368 -0.716336 2.042 0
M  V30 8378 C 778.963 2.62333 2.14398 0
M  V30 8379 C 777.522 2.64342 2.67955 0
M  V30 8380 C 776.669 2.37244 1.43564 0
M  V30 8381 H 779.62 1.53954 0.385222 0
M  V30 8382 H 779.641 2.37063 2.97626 0
M  V30 8383 H 779.153 3.54499 1.57963 0
M  V30 8384 H 777.254 1.76213 3.28298 0
M  V30 8385 H 777.367 3.63897 3.11634 0
M  V30 8386 H 775.731 1.87022 1.72901 0
M  V30 8387 H 776.514 3.31568 0.889805 0
M  V30 8388 N 778.959 -0.83999 1.33349 0
M  V30 8389 C 780.205 -1.59724 1.25936 0
M  V30 8390 C 780.56 -1.91616 -0.173563 0
M  V30 8391 O 779.853 -1.55791 -1.11534 0
M  V30 8392 C 780.047 -2.91571 2.06691 0
M  V30 8393 C 779.876 -2.72556 3.57691 0
M  V30 8394 C 778.646 -2.70174 4.27006 0
M  V30 8395 C 780.844 -2.45272 4.52047 0
M  V30 8396 N 778.826 -2.42525 5.63964 0
M  V30 8397 C 780.197 -2.27163 5.76885 0
M  V30 8398 C 782.252 -2.30859 4.41144 0
M  V30 8399 C 780.955 -1.96105 6.92052 0
M  V30 8400 C 782.981 -2.01194 5.56125 0
M  V30 8401 C 782.343 -1.83897 6.79972 0
M  V30 8402 H 778.442 -0.587568 0.516031 0
M  V30 8403 H 781.026 -0.986169 1.67877 0
M  V30 8404 H 779.197 -3.5063 1.67073 0
M  V30 8405 H 780.929 -3.56762 1.91057 0
M  V30 8406 H 777.684 -2.8364 3.7927 0
M  V30 8407 H 778.108 -2.31588 6.36157 0
M  V30 8408 H 782.75 -2.42946 3.46031 0
M  V30 8409 H 780.468 -1.82756 7.87163 0
M  V30 8410 H 784.054 -1.90799 5.49624 0
M  V30 8411 H 782.934 -1.61271 7.67438 0
M  V30 8412 N 780.437 -1.16799 -1.0581 0
M  V30 8413 C 781.683 -0.963929 -1.79109 0
M  V30 8414 C 782.038 0.502569 -1.8572 0
M  V30 8415 O 781.331 1.36813 -1.34137 0
M  V30 8416 C 781.525 -1.53111 -3.22942 0
M  V30 8417 C 781.354 -3.05123 -3.30348 0
M  V30 8418 C 780.124 -3.73804 -3.39998 0
M  V30 8419 C 782.322 -4.02777 -3.19805 0
M  V30 8420 N 780.304 -5.1348 -3.36469 0
M  V30 8421 C 781.675 -5.28866 -3.23576 0
M  V30 8422 C 783.73 -3.94533 -3.03724 0
M  V30 8423 C 782.433 -6.47669 -3.12918 0
M  V30 8424 C 784.459 -5.12913 -2.94405 0
M  V30 8425 C 783.821 -6.37884 -2.98803 0
M  V30 8426 H 779.92 -0.406555 -0.66801 0
M  V30 8427 H 782.504 -1.48277 -1.26183 0
M  V30 8428 H 780.675 -1.03869 -3.74254 0
M  V30 8429 H 782.407 -1.2643 -3.84444 0
M  V30 8430 H 779.162 -3.24457 -3.44999 0
M  V30 8431 H 779.586 -5.86477 -3.38191 0
M  V30 8432 H 784.228 -2.98763 -2.99166 0
M  V30 8433 H 781.946 -7.43656 -3.16231 0
M  V30 8434 H 785.532 -5.08309 -2.83042 0
M  V30 8435 H 784.412 -7.27946 -2.91657 0
M  V30 8436 N 781.915 1.24427 -0.967243 0
M  V30 8437 C 783.163 1.92107 -0.627638 0
M  V30 8438 C 783.484 1.75991 0.83978 0
M  V30 8439 O 782.754 1.13118 1.59941 0
M  V30 8440 H 781.334 0.710986 -0.229145 0
M  V30 8441 H 783.996 1.51331 -1.22821 0
M  V30 8442 H 783.092 2.99791 -0.867844 0
M  V30 8443 N 783.393 0.737304 1.3929 0
M  V30 8444 C 784.67 0.212464 1.94443 0
M  V30 8445 C 785.05 -1.28621 1.67391 0
M  V30 8446 O 784.398 -2.0529 1.00342 0
M  V30 8447 C 784.608 0.548565 3.44662 0
M  V30 8448 C 785.956 0.499177 4.21656 0
M  V30 8449 O 786.98 0.485892 3.5287 0
M  V30 8450 O 785.839 0.495739 5.44247 0
M  V30 8451 H 782.933 0.0395457 0.826054 0
M  V30 8452 H 785.479 0.816319 1.48776 0
M  V30 8453 H 784.251 1.58426 3.57795 0
M  V30 8454 H 783.874 -0.0841399 3.97511 0
M  V30 8455 N 784.871 -1.49948 0.485112 0
M  V30 8456 C 785.834 -2.27351 -0.290546 0
M  V30 8457 C 786.834 -1.32704 -0.908087 0
M  V30 8458 O 788.024 -1.56007 -0.775085 0
M  V30 8459 C 785.156 -3.10135 -1.41524 0
M  V30 8460 H 786.349 -2.97374 0.388454 0
M  V30 8461 H 783.902 -1.54453 0.239586 0
M  V30 8462 H 784.637 -2.44641 -2.12888 0
M  V30 8463 H 784.422 -3.79705 -0.978074 0
M  V30 8464 H 785.912 -3.68638 -1.96204 0
M  V30 8465 N 786.349 -0.21828 -1.56081 0
M  V30 8466 C 787.279 0.687922 -2.23136 0
M  V30 8467 C 788.26 1.20357 -1.202 0
M  V30 8468 O 789.445 1.24817 -1.48776 0
M  V30 8469 C 786.575 1.89762 -2.90874 0
M  V30 8470 C 785.529 1.51595 -4.00254 0
M  V30 8471 C 784.855 2.80415 -4.55271 0
M  V30 8472 C 786.155 0.708404 -5.17474 0
M  V30 8473 H 787.849 0.128854 -2.99123 0
M  V30 8474 H 785.395 0.0605354 -1.43873 0
M  V30 8475 H 787.348 2.53699 -3.36474 0
M  V30 8476 H 786.072 2.4816 -2.1233 0
M  V30 8477 H 784.731 0.900058 -3.55379 0
M  V30 8478 H 784.379 3.36951 -3.73461 0
M  V30 8479 H 784.079 2.55613 -5.2909 0
M  V30 8480 H 785.603 3.453 -5.03587 0
M  V30 8481 H 787.017 1.2514 -5.59476 0
M  V30 8482 H 785.414 0.557593 -5.97504 0
M  V30 8483 H 786.484 -0.285679 -4.84058 0
M  V30 8484 N 787.827 1.57504 0.0551401 0
M  V30 8485 C 789.075 1.87684 0.74962 0
M  V30 8486 C 789.396 0.812547 1.77264 0
M  V30 8487 O 788.666 -0.15694 1.9527 0
M  V30 8488 H 787.246 0.6926 0.279846 0
M  V30 8489 H 789.908 1.94881 0.0272745 0
M  V30 8490 H 789.004 2.85734 1.25548 0
M  V30 8491 N 789.305 -0.326896 1.54172 0
M  V30 8492 C 790.551 -1.06304 1.7341 0
M  V30 8493 C 790.906 -1.85791 0.499935 0
M  V30 8494 O 790.199 -1.84753 -0.507625 0
M  V30 8495 C 790.393 -2.0208 2.94785 0
M  V30 8496 C 790.222 -1.32009 4.29888 0
M  V30 8497 C 788.992 -1.05798 4.941 0
M  V30 8498 C 791.19 -0.737721 5.08982 0
M  V30 8499 N 789.172 -0.324836 6.1304 0
M  V30 8500 C 790.543 -0.136006 6.19851 0
M  V30 8501 C 792.598 -0.640206 4.93767 0
M  V30 8502 C 791.301 0.553757 7.17165 0
M  V30 8503 C 793.327 0.0358492 5.91389 0
M  V30 8504 C 792.689 0.626522 7.01608 0
M  V30 8505 H 788.788 -0.372808 0.687414 0
M  V30 8506 H 791.372 -0.34462 1.91626 0
M  V30 8507 H 789.543 -2.71197 2.78041 0
M  V30 8508 H 791.275 -2.68655 3.02666 0
M  V30 8509 H 788.03 -1.34945 4.53968 0
M  V30 8510 H 788.454 0.0274982 6.76994 0
M  V30 8511 H 793.096 -1.0826 4.08705 0
M  V30 8512 H 790.814 1.00799 8.01789 0
M  V30 8513 H 794.4 0.110895 5.81694 0
M  V30 8514 H 793.28 1.14135 7.7585 0
M  V30 8515 N 790.784 -1.46188 -0.588786 0
M  V30 8516 C 791.714 -1.59148 -1.70863 0
M  V30 8517 C 792.695 -0.442083 -1.64255 0
M  V30 8518 O 793.88 -0.667575 -1.82365 0
M  V30 8519 C 791.01 -1.5757 -3.09498 0
M  V30 8520 C 789.964 -2.71418 -3.30932 0
M  V30 8521 C 789.29 -2.549 -4.70032 0
M  V30 8522 C 790.59 -4.1329 -3.19356 0
M  V30 8523 H 792.284 -2.52889 -1.60274 0
M  V30 8524 H 789.83 -1.21707 -0.769638 0
M  V30 8525 H 791.783 -1.65231 -3.87655 0
M  V30 8526 H 790.507 -0.603705 -3.20972 0
M  V30 8527 H 789.166 -2.63216 -2.55172 0
M  V30 8528 H 788.814 -1.55797 -4.78264 0
M  V30 8529 H 788.514 -3.31257 -4.85327 0
M  V30 8530 H 790.038 -2.64443 -5.50366 0
M  V30 8531 H 791.452 -4.22636 -3.87365 0
M  V30 8532 H 789.849 -4.90187 -3.46175 0
M  V30 8533 H 790.919 -4.33874 -2.16522 0
M  V30 8534 N 792.262 0.832906 -1.33792 0
M  V30 8535 C 793.192 1.95828 -1.27176 0
M  V30 8536 C 794.173 1.69427 -0.15114 0
M  V30 8537 O 795.358 1.91167 -0.341886 0
M  V30 8538 C 792.488 3.32098 -1.01629 0
M  V30 8539 C 791.442 3.72912 -2.10049 0
M  V30 8540 C 790.768 5.07054 -1.69706 0
M  V30 8541 C 792.068 3.86064 -3.51783 0
M  V30 8542 H 793.762 2.01622 -2.21334 0
M  V30 8543 H 791.308 0.96866 -1.0655 0
M  V30 8544 H 793.261 4.10402 -0.956474 0
M  V30 8545 H 791.985 3.26577 -0.0390956 0
M  V30 8546 H 790.644 2.96876 -2.15082 0
M  V30 8547 H 790.292 4.9801 -0.706737 0
M  V30 8548 H 789.992 5.35333 -2.42264 0
M  V30 8549 H 791.516 5.87827 -1.65202 0
M  V30 8550 H 792.93 4.54665 -3.49218 0
M  V30 8551 H 791.327 4.25787 -4.22878 0
M  V30 8552 H 792.397 2.88344 -3.89854 0
M  V30 8553 N 793.74 1.17359 1.05189 0
M  V30 8554 C 794.703 0.892604 2.11105 0
M  V30 8555 C 795.703 -0.117236 1.60372 0
M  V30 8556 O 796.893 0.114936 1.7382 0
M  V30 8557 C 794.025 0.337032 3.3923 0
M  V30 8558 H 795.218 1.83169 2.37464 0
M  V30 8559 H 792.771 0.984051 1.21434 0
M  V30 8560 H 793.506 -0.609198 3.18527 0
M  V30 8561 H 793.291 1.06484 3.77364 0
M  V30 8562 H 794.781 0.158763 4.17298 0
M  V30 8563 N 795.218 -1.23913 0.973828 0
M  V30 8564 C 796.148 -2.27453 0.527969 0
M  V30 8565 C 797.129 -1.6443 -0.435513 0
M  V30 8566 O 798.314 -1.9137 -0.330306 0
M  V30 8567 C 795.444 -3.4685 -0.176757 0
M  V30 8568 C 794.398 -4.22181 0.703352 0
M  V30 8569 C 793.724 -5.34534 -0.133215 0
M  V30 8570 C 795.024 -4.82865 1.99096 0
M  V30 8571 H 796.718 -2.65 1.3934 0
M  V30 8572 H 794.264 -1.27388 0.671446 0
M  V30 8573 H 796.217 -4.18424 -0.499934 0
M  V30 8574 H 794.941 -3.08346 -1.07659 0
M  V30 8575 H 793.6 -3.52416 1.00989 0
M  V30 8576 H 793.248 -4.92271 -1.03338 0
M  V30 8577 H 792.948 -5.85855 0.452494 0
M  V30 8578 H 794.472 -6.08933 -0.450924 0
M  V30 8579 H 795.886 -5.46481 1.73297 0
M  V30 8580 H 794.283 -5.44444 2.52389 0
M  V30 8581 H 795.353 -4.03977 2.68199 0
M  V30 8582 N 796.696 -0.74468 -1.38897 0
M  V30 8583 C 797.921 -0.306119 -2.05128 0
M  V30 8584 C 798.346 1.0541 -1.55789 0
M  V30 8585 O 797.704 1.66993 -0.705909 0
M  V30 8586 C 797.752 -0.328195 -3.59103 0
M  V30 8587 O 796.856 0.680876 -4.06741 0
M  V30 8588 H 796.197 -0.137209 -0.649669 0
M  V30 8589 H 798.727 -1.01331 -1.77745 0
M  V30 8590 H 798.737 -0.175956 -4.0762 0
M  V30 8591 H 797.412 -1.32067 -3.94374 0
M  V30 8592 H 795.989 0.49398 -3.69614 0
M  V30 8593 N 798.174 1.49689 -0.493057 0
M  V30 8594 C 799.399 2.07331 0.0535114 0
M  V30 8595 C 799.824 1.35196 1.30781 0
M  V30 8596 O 799.182 0.406246 1.7669 0
M  V30 8597 C 799.23 3.59364 0.29825 0
M  V30 8598 O 798.334 3.88819 1.37454 0
M  V30 8599 H 797.675 0.663612 -0.0227018 0
M  V30 8600 H 800.205 1.926 -0.690402 0
M  V30 8601 H 800.215 4.04515 0.532159 0
M  V30 8602 H 798.89 4.1128 -0.618207 0
M  V30 8603 H 797.467 3.55487 1.12621 0
M  V30 8604 N 799.652 0.226554 1.55963 0
M  V30 8605 C 800.585 -0.721625 2.1649 0
M  V30 8606 C 801.563 -1.18745 1.11078 0
M  V30 8607 O 802.747 -1.26929 1.3936 0
M  V30 8608 C 799.874 -1.97828 2.74921 0
M  V30 8609 C 798.92 -1.65202 3.93206 0
M  V30 8610 S 799.753 -0.772419 5.299 0
M  V30 8611 C 800.909 -2.03853 5.91773 0
M  V30 8612 H 801.142 -0.207192 2.96577 0
M  V30 8613 H 798.675 0.0111976 1.54396 0
M  V30 8614 H 800.633 -2.69982 3.09225 0
M  V30 8615 H 799.294 -2.46384 1.94817 0
M  V30 8616 H 798.487 -2.58583 4.32609 0
M  V30 8617 H 798.089 -1.01108 3.60074 0
M  V30 8618 H 800.381 -2.98799 6.08051 0
M  V30 8619 H 801.324 -1.68831 6.87678 0
M  V30 8620 H 801.732 -2.18134 5.20651 0
M  V30 8621 N 801.13 -1.57531 -0.0467866 0
M  V30 8622 C 802.376 -1.8873 -0.742218 0
M  V30 8623 C 802.709 -0.822084 -1.75941 0
M  V30 8624 O 801.984 0.164922 -1.938 0
M  V30 8625 C 802.267 -3.30586 -1.42776 0
M  V30 8626 C 802.12 -4.47785 -0.425285 0
M  V30 8627 C 803.439 -3.71068 -2.36636 0
M  V30 8628 H 800.558 -0.686406 -0.268359 0
M  V30 8629 H 803.2 -1.89999 -0.00511341 0
M  V30 8630 H 801.35 -3.29634 -2.05605 0
M  V30 8631 H 803.022 -4.60867 0.199721 0
M  V30 8632 H 801.265 -4.33037 0.25713 0
M  V30 8633 H 801.936 -5.43884 -0.943086 0
M  V30 8634 H 804.412 -3.73273 -1.83866 0
M  V30 8635 H 803.288 -4.71165 -2.81593 0
M  V30 8636 H 803.549 -3.02355 -3.22542 0
M  V30 8637 N 802.608 0.318715 -1.54344 0
M  V30 8638 C 803.848 1.06425 -1.74508 0
M  V30 8639 C 804.212 1.85087 -0.510572 0
M  V30 8640 O 805.413 2.62253 -0.589647 0
M  V30 8641 C 803.684 1.96054 -2.98827 0
M  V30 8642 S 805.243 2.77493 -3.39916 0
M  V30 8643 H 802.061 0.35921 -0.613587 0
M  V30 8644 H 804.663 0.339679 -1.92526 0
M  V30 8645 H 803.367 1.37109 -3.8682 0
M  V30 8646 H 802.898 2.72908 -2.83346 0
M  V30 8647 H 804.913 3.98544 -2.95596 0
M  V30 8648 N 804.086 1.46499 0.581025 0
M  V30 8649 C 805.335 1.51162 1.3354 0
M  V30 8650 C 805.648 0.168433 1.94873 0
M  V30 8651 O 806.854 0.092883 2.71341 0
M  V30 8652 C 805.31 2.66362 2.42032 0
M  V30 8653 C 804.918 4.07109 1.86994 0
M  V30 8654 C 806.662 2.80297 3.188 0
M  V30 8655 C 804.569 5.13645 2.93125 0
M  V30 8656 H 803.499 0.562576 0.502021 0
M  V30 8657 H 806.15 1.72713 0.619863 0
M  V30 8658 H 804.532 2.38143 3.16392 0
M  V30 8659 H 805.706 4.45125 1.19166 0
M  V30 8660 H 804.021 3.97854 1.22887 0
M  V30 8661 H 806.618 3.5706 3.9801 0
M  V30 8662 H 806.961 1.87875 3.71495 0
M  V30 8663 H 807.494 3.0817 2.51547 0
M  V30 8664 H 804.233 6.07866 2.45315 0
M  V30 8665 H 803.753 4.80172 3.59437 0
M  V30 8666 H 805.432 5.39562 3.57046 0
M  V30 8667 N 805.565 -0.825799 1.34232 0
M  V30 8668 C 806.976 -1.39835 1.23706 0
M  V30 8669 C 807.327 -1.95709 -0.138649 0
M  V30 8670 O 806.452 -1.89833 -1.03886 0
M  V30 8671 C 807.047 -2.54203 2.23978 0
M  V30 8672 C 805.606 -3.07374 2.17251 0
M  V30 8673 C 804.753 -1.80232 2.10741 0
M  V30 8674 H 807.704 -0.630442 1.4564 0
M  V30 8675 H 807.725 -3.32214 1.8551 0
M  V30 8676 H 807.237 -2.13506 3.24094 0
M  V30 8677 H 805.338 -3.52583 1.20483 0
M  V30 8678 H 805.451 -3.6666 3.08379 0
M  V30 8679 H 803.815 -2.01012 1.56417 0
M  V30 8680 H 804.598 -1.41713 3.12686 0
M  V30 8681 N 807.043 -1.17915 -1.04565 0
M  V30 8682 C 808.006 -0.903787 -2.10628 0
M  V30 8683 C 809.006 0.10873 -1.60432 0
M  V30 8684 O 810.196 -0.124152 -1.73757 0
M  V30 8685 C 807.328 -0.355017 -3.39046 0
M  V30 8686 H 808.521 -1.84425 -2.3649 0
M  V30 8687 H 806.074 -0.990477 -1.2091 0
M  V30 8688 H 806.809 0.592297 -3.18845 0
M  V30 8689 H 806.594 -1.08484 -3.76794 0
M  V30 8690 H 808.084 -0.180891 -4.17208 0
M  V30 8691 N 808.521 1.23394 -0.980386 0
M  V30 8692 C 809.767 1.924 -0.659848 0
M  V30 8693 C 810.122 1.75076 0.797883 0
M  V30 8694 O 809.415 1.10104 1.56805 0
M  V30 8695 C 809.609 3.43542 -0.985588 0
M  V30 8696 C 809.438 3.75568 -2.47343 0
M  V30 8697 C 808.208 3.96257 -3.13541 0
M  V30 8698 C 810.406 3.81045 -3.45412 0
M  V30 8699 N 808.388 4.15489 -4.51932 0
M  V30 8700 C 809.759 4.05269 -4.69209 0
M  V30 8701 C 811.814 3.63837 -3.39893 0
M  V30 8702 C 810.517 4.14071 -5.88164 0
M  V30 8703 C 812.543 3.73892 -4.58212 0
M  V30 8704 C 811.905 3.98553 -5.80805 0
M  V30 8705 H 808.004 0.725229 -0.292518 0
M  V30 8706 H 810.588 1.48615 -1.25784 0
M  V30 8707 H 808.759 3.86163 -0.416289 0
M  V30 8708 H 810.491 3.99887 -0.622324 0
M  V30 8709 H 807.246 3.93168 -2.64038 0
M  V30 8710 H 807.67 4.29058 -5.23677 0
M  V30 8711 H 812.312 3.43767 -2.46139 0
M  V30 8712 H 810.03 4.32949 -6.82335 0
M  V30 8713 H 813.616 3.61932 -4.55518 0
M  V30 8714 H 812.496 4.06148 -6.70831 0
M  V30 8715 N 809.999 0.752036 1.385 0
M  V30 8716 C 811.224 0.316993 2.04963 0
M  V30 8717 C 811.649 -1.04582 1.56346 0
M  V30 8718 O 811.007 -1.66616 0.714755 0
M  V30 8719 C 811.055 0.347235 3.58924 0
M  V30 8720 O 810.159 -0.659296 4.07096 0
M  V30 8721 H 809.5 0.140652 0.648932 0
M  V30 8722 H 812.03 1.02272 1.77205 0
M  V30 8723 H 812.04 0.19757 4.07521 0
M  V30 8724 H 810.715 1.34157 3.93668 0
M  V30 8725 H 809.292 -0.474371 3.6987 0
M  V30 8726 N 811.477 -1.49425 0.500989 0
M  V30 8727 C 812.407 -2.31971 -0.266775 0
M  V30 8728 C 813.388 -1.40245 -0.962563 0
M  V30 8729 O 814.573 -1.69154 -0.953968 0
M  V30 8730 C 811.703 -3.20757 -1.33163 0
M  V30 8731 C 810.657 -4.21275 -0.75572 0
M  V30 8732 C 809.983 -4.98997 -1.92109 0
M  V30 8733 C 811.283 -5.21686 0.253213 0
M  V30 8734 H 812.977 -2.96408 0.422237 0
M  V30 8735 H 810.523 -1.4254 0.204505 0
M  V30 8736 H 812.476 -3.77315 -1.87646 0
M  V30 8737 H 811.2 -2.54263 -2.04983 0
M  V30 8738 H 809.859 -3.65861 -0.232637 0
M  V30 8739 H 809.507 -4.28951 -2.62698 0
M  V30 8740 H 809.207 -5.67011 -1.54182 0
M  V30 8741 H 810.731 -5.584 -2.47026 0
M  V30 8742 H 812.145 -5.72939 -0.203483 0
M  V30 8743 H 810.542 -5.9759 0.548322 0
M  V30 8744 H 811.612 -4.70596 1.16909 0
M  V30 8745 N 812.955 -0.234822 -1.55841 0
M  V30 8746 C 814.185 0.397168 -2.02746 0
M  V30 8747 C 814.593 1.52951 -1.11367 0
M  V30 8748 O 813.936 1.8332 -0.118133 0
M  V30 8749 C 813.998 0.977748 -3.45948 0
M  V30 8750 C 813.662 -0.0208193 -4.56995 0
M  V30 8751 C 814.659 -0.826015 -5.13296 0
M  V30 8752 C 812.344 -0.143416 -5.02095 0
M  V30 8753 C 814.338 -1.74038 -6.1318 0
M  V30 8754 C 812.025 -1.0613 -6.01814 0
M  V30 8755 C 813.023 -1.85832 -6.57233 0
M  V30 8756 O 812.711 -2.76075 -7.55008 0
M  V30 8757 H 812.443 0.0999802 -0.668566 0
M  V30 8758 H 814.997 -0.352673 -2.0235 0
M  V30 8759 H 813.227 1.77693 -3.43456 0
M  V30 8760 H 814.916 1.51854 -3.76424 0
M  V30 8761 H 815.682 -0.741822 -4.79293 0
M  V30 8762 H 811.561 0.466857 -4.5863 0
M  V30 8763 H 815.105 -2.36291 -6.56363 0
M  V30 8764 H 811.002 -1.14646 -6.35237 0
M  V30 8765 H 811.77 -2.703 -7.7258 0
M  V30 8766 N 814.433 1.57553 0.0384317 0
M  V30 8767 C 815.849 1.54663 0.39391 0
M  V30 8768 C 816.049 0.959685 1.77179 0
M  V30 8769 O 815.105 0.576647 2.45827 0
M  V30 8770 C 816.418 2.99156 0.304352 0
M  V30 8771 C 817.966 3.10659 0.382119 0
M  V30 8772 C 818.441 4.56866 0.322111 0
M  V30 8773 N 819.932 4.61629 0.38119 0
M  V30 8774 C 820.667 5.72284 0.357501 0
M  V30 8775 N 820.163 6.92207 0.286654 0
M  V30 8776 N 821.956 5.60628 0.406538 0
M  V30 8777 H 814.107 1.9406 -0.86339 0
M  V30 8778 H 816.37 0.889673 -0.327392 0
M  V30 8779 H 816.076 3.45788 -0.642141 0
M  V30 8780 H 815.95 3.60753 1.10168 0
M  V30 8781 H 818.337 2.6398 1.31904 0
M  V30 8782 H 818.418 2.5191 -0.444391 0
M  V30 8783 H 818.062 5.0421 -0.611104 0
M  V30 8784 H 817.992 5.13515 1.1666 0
M  V30 8785 H 820.483 3.75343 0.438838 0
M  V30 8786 H 820.796 7.72316 0.273421 0
M  V30 8787 H 819.141 6.9454 0.252841 0
M  V30 8788 H 822.332 4.65836 0.459812 0
M  V30 8789 H 822.505 6.46858 0.384608 0
M  V30 8790 N 815.911 -0.310526 1.54511 0
M  V30 8791 C 816.841 -1.38757 1.878 0
M  V30 8792 C 817.822 -1.53353 0.735991 0
M  V30 8793 O 819.007 -1.67018 0.990887 0
M  V30 8794 C 816.137 -2.75327 2.11689 0
M  V30 8795 C 815.091 -2.75506 3.27537 0
M  V30 8796 C 814.417 -4.15275 3.36824 0
M  V30 8797 C 815.717 -2.38093 4.64875 0
M  V30 8798 H 817.411 -1.11146 2.78005 0
M  V30 8799 H 814.957 -0.533232 1.33763 0
M  V30 8800 H 816.91 -3.50752 2.33562 0
M  V30 8801 H 815.634 -3.04443 1.18245 0
M  V30 8802 H 814.293 -2.02538 3.05572 0
M  V30 8803 H 813.941 -4.41553 2.40915 0
M  V30 8804 H 813.641 -4.16299 4.14692 0
M  V30 8805 H 815.165 -4.92493 3.60947 0
M  V30 8806 H 816.579 -3.03232 4.86542 0
M  V30 8807 H 814.976 -2.50345 5.45387 0
M  V30 8808 H 816.046 -1.33227 4.66239 0
M  V30 8809 N 817.389 -1.46805 -0.573248 0
M  V30 8810 C 818.637 -1.52302 -1.32847 0
M  V30 8811 C 818.958 -0.180159 -1.94166 0
M  V30 8812 O 818.228 0.794291 -1.79075 0
M  V30 8813 H 816.808 -0.56097 -0.493276 0
M  V30 8814 H 819.47 -1.82998 -0.670642 0
M  V30 8815 H 818.566 -2.28089 -2.13031 0
M  V30 8816 N 818.867 0.818669 -1.34668 0
M  V30 8817 C 820.095 1.60674 -1.30351 0
M  V30 8818 C 820.51 1.88408 0.121546 0
M  V30 8819 O 819.867 1.47849 1.06991 0
M  V30 8820 C 819.918 2.94516 -2.09625 0
M  V30 8821 O 819.639 2.6799 -3.46573 0
M  V30 8822 C 821.14 3.8891 -2.12754 0
M  V30 8823 H 818.36 0.499306 -0.448258 0
M  V30 8824 H 820.904 1.01828 -1.77345 0
M  V30 8825 H 819.059 3.49908 -1.66262 0
M  V30 8826 H 819.473 3.53361 -3.87603 0
M  V30 8827 H 820.947 4.79972 -2.72637 0
M  V30 8828 H 821.424 4.24599 -1.12306 0
M  V30 8829 H 822.03 3.39453 -2.56225 0
M  V30 8830 N 820.346 1.18468 1.03938 0
M  V30 8831 C 821.276 0.936389 2.13902 0
M  V30 8832 C 822.257 -0.126381 1.6963 0
M  V30 8833 O 823.442 0.0264757 1.94182 0
M  V30 8834 C 820.572 0.462729 3.44204 0
M  V30 8835 C 819.526 1.46613 4.02105 0
M  V30 8836 C 818.852 0.84994 5.27902 0
M  V30 8837 C 820.152 2.84323 4.3813 0
M  V30 8838 H 821.846 1.85602 2.3493 0
M  V30 8839 H 819.392 0.893806 1.12903 0
M  V30 8840 H 821.345 0.276382 4.20493 0
M  V30 8841 H 820.069 -0.492477 3.22866 0
M  V30 8842 H 818.728 1.63944 3.27899 0
M  V30 8843 H 818.376 -0.112493 5.02874 0
M  V30 8844 H 818.076 1.51988 5.67603 0
M  V30 8845 H 819.6 0.674152 6.06867 0
M  V30 8846 H 821.014 2.70636 5.054 0
M  V30 8847 H 819.411 3.48012 4.88884 0
M  V30 8848 H 820.481 3.37776 3.47901 0
M  V30 8849 N 821.824 -1.22873 0.986916 0
M  V30 8850 C 822.771 -2.2458 0.532215 0
M  V30 8851 C 823.741 -1.60375 -0.432322 0
M  V30 8852 O 824.926 -1.87775 -0.338416 0
M  V30 8853 C 822.066 -3.44761 -0.152864 0
M  V30 8854 C 821.179 -4.23501 0.852704 0
M  V30 8855 C 820.314 -5.31011 0.14176 0
M  V30 8856 C 819.353 -6.01464 1.1361 0
M  V30 8857 N 818.49 -7.00631 0.453871 0
M  V30 8858 H 823.33 -2.62838 1.40428 0
M  V30 8859 H 820.867 -1.29185 0.703543 0
M  V30 8860 H 822.825 -4.1333 -0.566926 0
M  V30 8861 H 821.455 -3.07284 -0.988756 0
M  V30 8862 H 820.507 -3.54286 1.38512 0
M  V30 8863 H 821.819 -4.72097 1.61014 0
M  V30 8864 H 820.973 -6.05805 -0.329337 0
M  V30 8865 H 819.712 -4.83373 -0.648229 0
M  V30 8866 H 818.717 -5.25456 1.61789 0
M  V30 8867 H 819.942 -6.5119 1.92686 0
M  V30 8868 H 817.888 -6.55235 -0.316791 0
M  V30 8869 H 817.805 -7.47204 1.14986 0
M  V30 8870 H 819.073 -7.795 0.00537823 0
M  V30 8871 N 823.302 -0.75937 -1.38099 0
M  V30 8872 C 824.55 -0.317485 -1.99591 0
M  V30 8873 C 824.871 1.10628 -1.60581 0
M  V30 8874 O 824.141 1.7575 -0.865378 0
M  V30 8875 H 822.721 -0.114397 -0.738189 0
M  V30 8876 H 825.383 -0.974749 -1.68774 0
M  V30 8877 H 824.479 -0.385227 -3.09713 0
M  V30 8878 N 824.78 1.49157 -0.508906 0
M  V30 8879 C 826.191 1.86593 -0.0630975 0
M  V30 8880 C 826.542 1.42051 1.35337 0
M  V30 8881 O 825.667 0.801866 2.00995 0
M  V30 8882 C 826.262 3.38629 -0.107729 0
M  V30 8883 C 824.821 3.75336 0.282776 0
M  V30 8884 C 823.968 2.7317 -0.4768 0
M  V30 8885 H 826.919 1.41362 -0.72128 0
M  V30 8886 H 826.94 3.74271 0.685689 0
M  V30 8887 H 826.452 3.71017 -1.13876 0
M  V30 8888 H 824.553 3.48558 1.31675 0
M  V30 8889 H 824.666 4.79081 -0.0421728 0
M  V30 8890 H 823.03 2.54591 0.0743552 0
M  V30 8891 H 823.813 3.08403 -1.50807 0
M  V30 8892 N 826.258 0.243083 1.55714 0
M  V30 8893 C 827.505 -0.38272 1.9885 0
M  V30 8894 C 827.833 -1.58225 1.13115 0
M  V30 8895 O 827.088 -1.94861 0.181067 0
M  V30 8896 C 827.387 -0.839621 3.47398 0
M  V30 8897 C 827.053 0.251737 4.50197 0
M  V30 8898 C 825.715 0.551487 4.78029 0
M  V30 8899 C 828.067 0.988728 5.11736 0
M  V30 8900 C 825.395 1.59237 5.64677 0
M  V30 8901 C 827.747 2.0191 5.99512 0
M  V30 8902 C 826.411 2.32554 6.2568 0
M  V30 8903 H 825.681 -0.140047 0.727645 0
M  V30 8904 H 828.328 0.35011 1.88272 0
M  V30 8905 H 826.633 -1.65159 3.55288 0
M  V30 8906 H 828.33 -1.33404 3.78159 0
M  V30 8907 H 824.92 0.00796741 4.28599 0
M  V30 8908 H 829.104 0.7704 4.90284 0
M  V30 8909 H 824.36 1.83517 5.83208 0
M  V30 8910 H 828.534 2.59511 6.46241 0
M  V30 8911 H 826.161 3.13349 6.92616 0
M  V30 8912 N 827.736 -1.57571 -0.0300757 0
M  V30 8913 C 829.152 -1.54869 -0.385703 0
M  V30 8914 C 829.352 -0.969068 -1.76667 0
M  V30 8915 O 828.408 -0.589676 -2.45518 0
M  V30 8916 C 829.721 -2.99313 -0.288482 0
M  V30 8917 C 831.269 -3.10857 -0.365638 0
M  V30 8918 C 831.744 -4.5703 -0.297878 0
M  V30 8919 N 833.235 -4.61825 -0.356703 0
M  V30 8920 C 833.97 -5.72466 -0.327146 0
M  V30 8921 N 833.466 -6.92349 -0.249941 0
M  V30 8922 N 835.259 -5.60836 -0.376801 0
M  V30 8923 H 827.41 -1.936 0.87367 0
M  V30 8924 H 829.673 -0.887924 0.332106 0
M  V30 8925 H 829.379 -3.45443 0.66047 0
M  V30 8926 H 829.253 -3.61332 -1.08253 0
M  V30 8927 H 831.64 -2.64676 -1.30502 0
M  V30 8928 H 831.721 -2.51671 0.457744 0
M  V30 8929 H 831.365 -5.03879 0.637835 0
M  V30 8930 H 831.295 -5.14127 -1.13935 0
M  V30 8931 H 833.786 -3.75571 -0.418926 0
M  V30 8932 H 834.099 -7.7245 -0.23246 0
M  V30 8933 H 832.444 -6.94664 -0.216004 0
M  V30 8934 H 835.635 -4.66073 -0.435101 0
M  V30 8935 H 835.808 -6.47052 -0.350298 0
M  V30 8936 N 829.214 0.302327 -1.54673 0
M  V30 8937 C 830.124 1.39542 -1.88587 0
M  V30 8938 C 831.14 1.55543 -0.779895 0
M  V30 8939 O 832.316 1.70233 -1.07623 0
M  V30 8940 C 829.381 2.7394 -2.12504 0
M  V30 8941 C 828.442 2.66935 -3.3622 0
M  V30 8942 C 827.675 3.94923 -3.58987 0
M  V30 8943 O 827.898 4.94218 -2.84789 0
M  V30 8944 O 826.832 3.96896 -4.52501 0
M  V30 8945 H 830.658 1.13784 -2.81579 0
M  V30 8946 H 828.243 0.49827 -1.40846 0
M  V30 8947 H 830.125 3.5346 -2.29443 0
M  V30 8948 H 828.8 2.99544 -1.22698 0
M  V30 8949 H 827.707 1.85892 -3.24646 0
M  V30 8950 H 829.04 2.46283 -4.26152 0
M  V30 8951 N 830.692 1.47107 0.565454 0
M  V30 8952 C 832.108 1.32443 0.890566 0
M  V30 8953 C 832.308 0.308735 1.99121 0
M  V30 8954 O 831.364 -0.28265 2.50913 0
M  V30 8955 C 832.677 2.71548 1.2916 0
M  V30 8956 C 834.225 2.7977 1.40349 0
M  V30 8957 C 834.7 4.19497 1.83811 0
M  V30 8958 N 836.191 4.21998 1.90975 0
M  V30 8959 C 836.926 5.2702 2.25916 0
M  V30 8960 N 836.422 6.42353 2.59527 0
M  V30 8961 N 838.215 5.14393 2.26619 0
M  V30 8962 H 830.366 2.11786 -0.161328 0
M  V30 8963 H 832.629 0.947952 -0.00950631 0
M  V30 8964 H 832.335 3.47265 0.556753 0
M  V30 8965 H 832.209 3.02782 2.24951 0
M  V30 8966 H 834.596 2.0433 2.12916 0
M  V30 8967 H 834.677 2.522 0.427655 0
M  V30 8968 H 834.321 4.95439 1.11816 0
M  V30 8969 H 834.251 4.44486 2.82382 0
M  V30 8970 H 836.742 3.38791 1.6742 0
M  V30 8971 H 837.055 7.18252 2.85191 0
M  V30 8972 H 835.4 6.45687 2.57126 0
M  V30 8973 H 838.591 4.2332 1.99794 0
M  V30 8974 H 838.764 5.96349 2.5352 0
M  V30 8975 N 832.17 -0.811516 1.35101 0
M  V30 8976 C 833.419 -1.56343 1.27435 0
M  V30 8977 C 833.732 -1.95019 -0.150696 0
M  V30 8978 O 834.938 -2.6924 -0.349586 0
M  V30 8979 C 833.394 -2.82124 2.23459 0
M  V30 8980 C 833.002 -2.50706 3.71283 0
M  V30 8981 C 834.746 -3.60137 2.24726 0
M  V30 8982 C 832.653 -3.72748 4.59143 0
M  V30 8983 H 831.583 -0.58682 0.473453 0
M  V30 8984 H 834.234 -0.892465 1.60335 0
M  V30 8985 H 832.616 -3.50905 1.83525 0
M  V30 8986 H 833.79 -1.89962 4.19823 0
M  V30 8987 H 832.105 -1.85947 3.72576 0
M  V30 8988 H 834.702 -4.50775 2.87587 0
M  V30 8989 H 835.045 -3.97101 1.24965 0
M  V30 8990 H 835.578 -2.98311 2.63164 0
M  V30 8991 H 832.317 -3.40896 5.59884 0
M  V30 8992 H 831.837 -4.32735 4.15332 0
M  V30 8993 H 833.516 -4.40033 4.74321 0
M  V30 8994 N 833.648 -1.19017 -1.03309 0
M  V30 8995 C 835.064 -0.941483 -1.28873 0
M  V30 8996 C 835.264 0.388587 -1.97718 0
M  V30 8997 O 834.32 1.12111 -2.26246 0
M  V30 8998 C 835.633 -2.11249 -2.13996 0
M  V30 8999 C 837.181 -2.15164 -2.27318 0
M  V30 9000 C 837.656 -3.31704 -3.15811 0
M  V30 9001 N 839.147 -3.31613 -3.23399 0
M  V30 9002 C 839.882 -4.18431 -3.9205 0
M  V30 9003 N 839.378 -5.15397 -4.62966 0
M  V30 9004 N 841.171 -4.06321 -3.88406 0
M  V30 9005 H 833.322 -2.04599 -0.570343 0
M  V30 9006 H 835.585 -0.894406 -0.314232 0
M  V30 9007 H 835.291 -3.07482 -1.70727 0
M  V30 9008 H 835.165 -2.07955 -3.14697 0
M  V30 9009 H 837.552 -1.19504 -2.6982 0
M  V30 9010 H 837.633 -2.22513 -1.26182 0
M  V30 9011 H 837.277 -4.2764 -2.74019 0
M  V30 9012 H 837.207 -3.21592 -4.16997 0
M  V30 9013 H 839.698 -2.6142 -2.72888 0
M  V30 9014 H 840.011 -5.78 -5.12968 0
M  V30 9015 H 838.356 -5.19349 -4.61846 0
M  V30 9016 H 841.547 -3.29849 -3.3214 0
M  V30 9017 H 841.72 -4.74196 -4.41635 0
M  V30 9018 N 835.127 1.22348 -0.993418 0
M  V30 9019 C 836.059 2.23626 -0.502404 0
M  V30 9020 C 837.072 1.57739 0.402784 0
M  V30 9021 O 838.261 1.77321 0.204835 0
M  V30 9022 C 835.361 3.37647 0.291118 0
M  V30 9023 C 834.534 4.33121 -0.610332 0
M  V30 9024 C 833.593 5.26035 0.131572 0
M  V30 9025 O 832.619 5.67145 -0.483199 0
M  V30 9026 N 833.821 5.63023 1.41371 0
M  V30 9027 H 836.586 2.66385 -1.37329 0
M  V30 9028 H 834.147 1.36653 -0.868196 0
M  V30 9029 H 836.139 3.96792 0.796107 0
M  V30 9030 H 834.709 2.93967 1.0631 0
M  V30 9031 H 833.929 3.72287 -1.29598 0
M  V30 9032 H 835.217 4.93853 -1.22422 0
M  V30 9033 H 834.615 5.31596 1.93449 0
M  V30 9034 H 833.172 6.24582 1.86388 0
M  V30 9035 N 836.605 0.766683 1.37694 0
M  V30 9036 C 837.535 0.163432 2.32927 0
M  V30 9037 C 838.516 -0.688861 1.55527 0
M  V30 9038 O 839.701 -0.627363 1.83787 0
M  V30 9039 C 836.831 -0.720416 3.39746 0
M  V30 9040 C 835.785 0.0301718 4.27989 0
M  V30 9041 C 835.111 -0.972788 5.25776 0
M  V30 9042 C 836.411 1.20623 5.0818 0
M  V30 9043 H 838.105 0.958988 2.83626 0
M  V30 9044 H 835.651 0.462601 1.36367 0
M  V30 9045 H 837.604 -1.15221 4.05342 0
M  V30 9046 H 836.328 -1.54844 2.8756 0
M  V30 9047 H 834.987 0.442685 3.63917 0
M  V30 9048 H 834.635 -1.79522 4.69873 0
M  V30 9049 H 834.335 -0.475145 5.85676 0
M  V30 9050 H 835.859 -1.40362 5.94248 0
M  V30 9051 H 837.273 0.851341 5.66944 0
M  V30 9052 H 835.67 1.63561 5.7738 0
M  V30 9053 H 836.74 2.01281 4.41151 0
M  V30 9054 N 838.083 -1.48885 0.516809 0
M  V30 9055 C 839.016 -2.26218 -0.30011 0
M  V30 9056 C 839.994 -1.31491 -0.956496 0
M  V30 9057 O 841.178 -1.6081 -0.983488 0
M  V30 9058 C 838.305 -3.07315 -1.42392 0
M  V30 9059 C 837.351 -4.17316 -0.880295 0
M  V30 9060 S 838.184 -5.34955 0.24146 0
M  V30 9061 C 839.34 -6.1961 -0.885138 0
M  V30 9062 H 839.573 -2.95158 0.356217 0
M  V30 9063 H 837.106 -1.5141 0.302365 0
M  V30 9064 H 839.064 -3.54619 -2.06775 0
M  V30 9065 H 837.725 -2.37813 -2.05192 0
M  V30 9066 H 836.918 -4.73635 -1.72297 0
M  V30 9067 H 836.52 -3.72685 -0.313396 0
M  V30 9068 H 838.812 -6.53513 -1.78682 0
M  V30 9069 H 839.755 -7.07183 -0.360226 0
M  V30 9070 H 840.163 -5.52461 -1.1596 0
M  V30 9071 N 839.561 -0.251338 -1.55583 0
M  V30 9072 C 840.801 0.373651 -2.00956 0
M  V30 9073 C 841.165 1.54806 -1.13574 0
M  V30 9074 O 842.366 2.24108 -1.48422 0
M  V30 9075 C 840.637 0.768919 -3.49031 0
M  V30 9076 S 842.196 1.38381 -4.16409 0
M  V30 9077 H 839.014 0.117371 -0.701245 0
M  V30 9078 H 841.616 -0.367611 -1.92013 0
M  V30 9079 H 840.32 -0.0950492 -4.1029 0
M  V30 9080 H 839.851 1.54225 -3.61909 0
M  V30 9081 H 841.866 2.6728 -4.18062 0
M  V30 9082 N 841.039 1.57585 0.0217189 0
M  V30 9083 C 842.45 1.7787 0.567377 0
M  V30 9084 C 842.801 0.883337 1.7519 0
M  V30 9085 O 841.926 0.0800819 2.16252 0
M  V30 9086 C 842.521 3.2257 1.03606 0
M  V30 9087 C 841.08 3.44026 1.52718 0
M  V30 9088 C 840.227 2.73313 0.468545 0
M  V30 9089 H 843.178 1.57377 -0.2045 0
M  V30 9090 H 843.199 3.29488 1.9031 0
M  V30 9091 H 842.711 3.87711 0.173739 0
M  V30 9092 H 840.812 2.8407 2.41111 0
M  V30 9093 H 840.925 4.52659 1.56962 0
M  V30 9094 H 839.289 2.37299 0.925263 0
M  V30 9095 H 840.072 3.41141 -0.384438 0
M  V30 9096 N 842.517 -0.29412 1.54831 0
M  V30 9097 C 843.48 -1.3461 1.85507 0
M  V30 9098 C 844.48 -1.43359 0.728343 0
M  V30 9099 O 845.67 -1.42875 0.996609 0
M  V30 9100 C 842.802 -2.73012 2.0415 0
M  V30 9101 H 843.995 -1.08651 2.79526 0
M  V30 9102 H 841.548 -0.531138 1.46999 0
M  V30 9103 H 842.283 -3.04183 1.12441 0
M  V30 9104 H 842.068 -2.68051 2.86166 0
M  V30 9105 H 843.558 -3.49061 2.29229 0
M  V30 9106 N 843.995 -1.47404 -0.557645 0
M  V30 9107 C 844.905 -1.62491 -1.69216 0
M  V30 9108 C 845.921 -0.507764 -1.66426 0
M  V30 9109 O 847.097 -0.775241 -1.85882 0
M  V30 9110 C 844.162 -1.63511 -3.05721 0
M  V30 9111 C 843.223 -2.86648 -3.1958 0
M  V30 9112 C 842.456 -2.87609 -4.49574 0
M  V30 9113 O 842.679 -1.97799 -5.35006 0
M  V30 9114 O 841.613 -3.79465 -4.67215 0
M  V30 9115 H 845.439 -2.58487 -1.59431 0
M  V30 9116 H 843.024 -1.30485 -0.7276 0
M  V30 9117 H 844.906 -1.66863 -3.86956 0
M  V30 9118 H 843.581 -0.706812 -3.15889 0
M  V30 9119 H 842.488 -2.8884 -2.37744 0
M  V30 9120 H 843.821 -3.7877 -3.14316 0
M  V30 9121 N 845.473 0.80434 -1.35529 0
M  V30 9122 C 846.75 1.5486 -1.1949 0
M  V30 9123 C 847.13 2.09897 0.22506 0
M  V30 9124 O 846.478 1.92643 1.22886 0
M  V30 9125 C 846.688 2.65535 -2.26478 0
M  V30 9126 C 848.036 3.33814 -2.62399 0
M  V30 9127 O 849.06 2.75807 -2.25409 0
M  V30 9128 O 847.919 4.38612 -3.26009 0
M  V30 9129 H 845.013 0.68433 -0.464351 0
M  V30 9130 H 847.559 0.844107 -1.47217 0
M  V30 9131 H 846.331 2.22754 -3.21709 0
M  V30 9132 H 845.954 3.43617 -2.00033 0
M  V30 9133 N 846.951 1.19563 1.02676 0
M  V30 9134 C 847.881 0.959024 2.12897 0
M  V30 9135 C 848.862 -0.108382 1.69754 0
M  V30 9136 O 850.047 0.0470698 1.94143 0
M  V30 9137 C 847.177 0.499211 3.43693 0
M  V30 9138 C 846.131 1.5087 4.00528 0
M  V30 9139 C 845.457 0.905884 5.2697 0
M  V30 9140 C 846.757 2.88954 4.3509 0
M  V30 9141 H 848.451 1.88084 2.32948 0
M  V30 9142 H 845.997 0.905731 1.11949 0
M  V30 9143 H 847.95 0.320965 4.20176 0
M  V30 9144 H 846.674 -0.458205 3.2337 0
M  V30 9145 H 845.333 1.67413 3.26142 0
M  V30 9146 H 844.981 -0.0591506 5.02965 0
M  V30 9147 H 844.681 1.58 5.65959 0
M  V30 9148 H 846.205 0.73848 6.06118 0
M  V30 9149 H 847.619 2.75981 5.02501 0
M  V30 9150 H 846.016 3.53177 4.85166 0
M  V30 9151 H 847.086 3.41447 3.44299 0
M  V30 9152 N 848.429 -1.21819 0.999893 0
M  V30 9153 C 849.84 -1.72517 0.713775 0
M  V30 9154 C 850.191 -1.80505 -0.768922 0
M  V30 9155 O 849.316 -1.45611 -1.60083 0
M  V30 9156 C 849.911 -3.13321 1.28901 0
M  V30 9157 C 848.47 -3.61396 1.05212 0
M  V30 9158 C 847.617 -2.39074 1.40494 0
M  V30 9159 H 850.568 -1.07068 1.17141 0
M  V30 9160 H 850.589 -3.74535 0.671084 0
M  V30 9161 H 850.101 -3.07475 2.36814 0
M  V30 9162 H 848.202 -3.72599 -0.0100732 0
M  V30 9163 H 848.315 -4.47145 1.72042 0
M  V30 9164 H 846.679 -2.41015 0.823642 0
M  V30 9165 H 847.462 -2.35884 2.49427 0
M  V30 9166 N 849.908 -0.773975 -1.37286 0
M  V30 9167 C 850.84 -0.119938 -2.28886 0
M  V30 9168 C 851.853 0.661822 -1.48741 0
M  V30 9169 O 853.042 0.499548 -1.71367 0
M  V30 9170 C 850.142 0.853703 -3.27971 0
M  V30 9171 C 849.315 0.125286 -4.37221 0
M  V30 9172 C 848.374 1.01261 -5.16365 0
M  V30 9173 O 847.4 0.475565 -5.6721 0
M  V30 9174 N 848.602 2.33864 -5.31308 0
M  V30 9175 H 851.367 -0.906702 -2.85655 0
M  V30 9176 H 848.928 -0.626519 -1.49286 0
M  V30 9177 H 850.92 1.4508 -3.77801 0
M  V30 9178 H 849.49 1.54142 -2.71954 0
M  V30 9179 H 848.71 -0.652742 -3.88758 0
M  V30 9180 H 849.998 -0.377959 -5.07394 0
M  V30 9181 H 849.396 2.79929 -4.91585 0
M  V30 9182 H 847.953 2.88575 -5.84438 0
M  V30 9183 N 851.386 1.48609 -0.524698 0
M  V30 9184 C 852.802 1.58557 -0.182199 0
M  V30 9185 C 853.002 1.52732 1.31435 0
M  V30 9186 O 852.058 1.41362 2.0922 0
M  V30 9187 C 853.371 2.90406 -0.78004 0
M  V30 9188 C 854.919 3.03924 -0.748293 0
M  V30 9189 C 855.394 4.38427 -1.32462 0
M  V30 9190 N 856.885 4.4498 -1.28635 0
M  V30 9191 C 857.62 5.47551 -1.70223 0
M  V30 9192 N 857.116 6.57103 -2.19515 0
M  V30 9193 N 858.909 5.38402 -1.61493 0
M  V30 9194 H 851.06 1.50638 -1.4974 0
M  V30 9195 H 853.323 0.714952 -0.622533 0
M  V30 9196 H 853.029 3.00308 -1.83052 0
M  V30 9197 H 852.903 3.76343 -0.254075 0
M  V30 9198 H 855.29 2.93638 0.293407 0
M  V30 9199 H 855.371 2.19611 -1.31167 0
M  V30 9200 H 855.015 4.49466 -2.36522 0
M  V30 9201 H 854.945 5.21418 -0.736967 0
M  V30 9202 H 857.436 3.66393 -0.92545 0
M  V30 9203 H 857.749 7.31499 -2.49257 0
M  V30 9204 H 856.094 6.58081 -2.23506 0
M  V30 9205 H 859.285 4.5171 -1.22785 0
M  V30 9206 H 859.458 6.18208 -1.94225 0
M  V30 9207 N 852.864 0.259585 1.55447 0
M  V30 9208 C 853.812 -0.6507 2.23313 0
M  V30 9209 C 854.806 -1.17014 1.22491 0
M  V30 9210 O 856.012 -1.12557 1.40467 0
M  V30 9211 H 852.387 -0.228354 0.71649 0
M  V30 9212 H 854.358 -0.0553039 2.98349 0
M  V30 9213 C 853.107 -1.83081 2.95596 0
M  V30 9214 H 852.43 -1.44027 3.72956 0
M  V30 9215 H 853.87 -2.44469 3.46426 0
M  V30 9216 C 852.329 -2.70976 2.00184 0
M  V30 9217 O 852.859 -3.70882 1.54304 0
M  V30 9218 N 851.065 -2.37813 1.67014 0
M  V30 9219 H 850.612 -1.5662 2.04519 0
M  V30 9220 H 850.57 -2.96896 1.03443 0
M  V30 9221 N 854.342 -1.57594 -0.0133615 0
M  V30 9222 C 855.753 -1.78168 -0.557937 0
M  V30 9223 C 856.104 -0.892616 -1.74719 0
M  V30 9224 O 855.229 -0.0915491 -2.16206 0
M  V30 9225 C 855.824 -3.23115 -1.01894 0
M  V30 9226 C 854.383 -3.44831 -1.50892 0
M  V30 9227 C 853.53 -2.73558 -0.454044 0
M  V30 9228 H 856.481 -1.57266 0.212843 0
M  V30 9229 H 856.502 -3.30493 -1.8856 0
M  V30 9230 H 856.014 -3.87798 -0.153175 0
M  V30 9231 H 854.115 -2.85345 -2.39602 0
M  V30 9232 H 854.228 -4.53485 -1.54559 0
M  V30 9233 H 852.592 -2.37787 -0.912666 0
M  V30 9234 H 853.375 -3.40932 0.402524 0
M  V30 9235 N 855.82 0.285905 -1.54985 0
M  V30 9236 C 856.783 1.33625 -1.86218 0
M  V30 9237 C 857.783 1.42971 -0.735936 0
M  V30 9238 O 858.973 1.42345 -1.00417 0
M  V30 9239 C 856.105 2.71926 -2.05595 0
M  V30 9240 H 857.298 1.07167 -2.80099 0
M  V30 9241 H 854.851 0.523335 -1.47278 0
M  V30 9242 H 855.586 3.03583 -1.14053 0
M  V30 9243 H 855.371 2.6653 -2.87583 0
M  V30 9244 H 856.861 3.47841 -2.31077 0
M  V30 9245 N 857.298 1.47698 0.54982 0
M  V30 9246 C 858.546 1.54397 1.30407 0
M  V30 9247 C 858.867 0.211026 1.93855 0
M  V30 9248 O 858.137 -0.765701 1.80316 0
M  V30 9249 H 856.717 0.568747 0.484289 0
M  V30 9250 H 859.379 1.84042 0.641444 0
M  V30 9251 H 858.475 2.31449 2.09375 0
M  V30 9252 N 858.776 -0.797141 1.35954 0
M  V30 9253 C 860.187 -1.37179 1.26644 0
M  V30 9254 C 860.538 -1.9596 -0.0971046 0
M  V30 9255 O 859.663 -1.91994 -0.998355 0
M  V30 9256 C 860.258 -2.49395 2.2932 0
M  V30 9257 C 858.817 -3.02697 2.23722 0
M  V30 9258 C 857.964 -1.75721 2.14517 0
M  V30 9259 H 860.915 -0.599407 1.46945 0
M  V30 9260 H 860.936 -3.28204 1.92515 0
M  V30 9261 H 860.448 -2.06584 3.2855 0
M  V30 9262 H 858.549 -3.49948 1.27934 0
M  V30 9263 H 858.662 -3.60036 3.16087 0
M  V30 9264 H 857.026 -1.97649 1.60646 0
M  V30 9265 H 857.809 -1.35049 3.15621 0
M  V30 9266 N 860.254 -1.20106 -1.0204 0
M  V30 9267 C 861.479 -1.0351 -1.79723 0
M  V30 9268 C 861.904 0.411328 -1.83548 0
M  V30 9269 O 861.262 1.29608 -1.26773 0
M  V30 9270 C 861.31 -1.61876 -3.22224 0
M  V30 9271 O 860.414 -0.853813 -4.03465 0
M  V30 9272 H 859.755 -0.365299 -0.554484 0
M  V30 9273 H 862.285 -1.59316 -1.28373 0
M  V30 9274 H 862.295 -1.65451 -3.72948 0
M  V30 9275 H 860.97 -2.67148 -3.18755 0
M  V30 9276 H 859.547 -0.891983 -3.62075 0
M  V30 9277 N 861.732 1.21287 -1.00634 0
M  V30 9278 C 862.695 2.21927 -0.572821 0
M  V30 9279 C 863.695 1.5691 0.351541 0
M  V30 9280 O 864.885 1.73623 0.141643 0
M  V30 9281 C 862.017 3.40501 0.164932 0
M  V30 9282 H 863.21 2.61795 -1.463 0
M  V30 9283 H 860.763 1.34571 -0.794998 0
M  V30 9284 H 861.498 3.06123 1.07049 0
M  V30 9285 H 861.283 3.88912 -0.498962 0
M  V30 9286 H 862.773 4.15103 0.455945 0
M  V30 9287 N 863.21 0.781244 1.36873 0
M  V30 9288 C 864.621 0.414093 1.8205 0
M  V30 9289 C 864.972 -1.06098 1.65039 0
M  V30 9290 O 864.097 -1.82251 1.16677 0
M  V30 9291 C 864.692 0.744837 3.30511 0
M  V30 9292 C 863.251 0.430621 3.73929 0
M  V30 9293 C 862.398 0.983746 2.59264 0
M  V30 9294 H 865.349 0.975091 1.2521 0
M  V30 9295 H 865.37 0.032936 3.80486 0
M  V30 9296 H 864.882 1.81847 3.42861 0
M  V30 9297 H 862.983 -0.635308 3.67144 0
M  V30 9298 H 863.096 0.945514 4.69677 0
M  V30 9299 H 861.46 0.407433 2.5142 0
M  V30 9300 H 862.243 2.06297 2.74402 0
M  V30 9301 N 864.689 -1.48329 0.532571 0
M  V30 9302 C 865.652 -2.2816 -0.218069 0
M  V30 9303 C 866.652 -1.35526 -0.865409 0
M  V30 9304 O 867.842 -1.58394 -0.725061 0
M  V30 9305 C 864.974 -3.1448 -1.31586 0
M  V30 9306 H 866.167 -2.95987 0.482865 0
M  V30 9307 H 863.72 -1.53612 0.288603 0
M  V30 9308 H 864.455 -2.5129 -2.04997 0
M  V30 9309 H 864.24 -3.82625 -0.856779 0
M  V30 9310 H 865.73 -3.74693 -1.84377 0
M  V30 9311 N 866.167 -0.267825 -1.55308 0
M  V30 9312 C 867.395 0.354587 -2.03839 0
M  V30 9313 C 867.81 1.50007 -1.14644 0
M  V30 9314 O 867.167 1.81752 -0.165055 0
M  V30 9315 C 867.218 0.84254 -3.51544 0
M  V30 9316 O 866.939 -0.257318 -4.37344 0
M  V30 9317 C 868.44 1.53351 -4.15931 0
M  V30 9318 H 865.66 0.0818131 -0.665994 0
M  V30 9319 H 868.204 -0.397795 -2.00594 0
M  V30 9320 H 866.359 1.54503 -3.55257 0
M  V30 9321 H 866.773 0.116593 -5.2437 0
M  V30 9322 H 868.247 1.82643 -5.20908 0
M  V30 9323 H 868.724 2.4626 -3.63666 0
M  V30 9324 H 869.33 0.87506 -4.162 0
M  V30 9325 N 867.645 1.57599 0.00500368 0
M  V30 9326 C 869.056 1.78462 0.54848 0
M  V30 9327 C 869.407 0.901869 1.74243 0
M  V30 9328 O 868.532 0.103014 2.16155 0
M  V30 9329 C 869.127 3.2365 1.00179 0
M  V30 9330 C 867.686 3.45627 1.49061 0
M  V30 9331 C 866.833 2.73794 0.439531 0
M  V30 9332 H 869.784 1.57151 -0.22118 0
M  V30 9333 H 869.805 3.31488 1.86805 0
M  V30 9334 H 869.317 3.87873 0.132607 0
M  V30 9335 H 867.418 2.86612 2.38085 0
M  V30 9336 H 867.531 4.54298 1.52152 0
M  V30 9337 H 865.895 2.38267 0.900043 0
M  V30 9338 H 866.678 3.40714 -0.420599 0
M  V30 9339 N 869.123 -0.277682 1.55134 0
M  V30 9340 C 870.539 -0.624625 1.46869 0
M  V30 9341 C 870.739 -1.89717 0.678958 0
M  V30 9342 O 869.795 -2.51739 0.195939 0
M  V30 9343 C 871.108 -0.755937 2.91043 0
M  V30 9344 C 872.656 -0.850299 3.01229 0
M  V30 9345 C 873.131 -1.01343 4.46647 0
M  V30 9346 N 874.622 -1.07906 4.50456 0
M  V30 9347 C 875.357 -1.224 5.60184 0
M  V30 9348 N 874.853 -1.33642 6.79788 0
M  V30 9349 N 876.646 -1.25473 5.47917 0
M  V30 9350 H 868.797 0.558102 2.04937 0
M  V30 9351 H 871.06 0.188228 0.929125 0
M  V30 9352 H 870.766 0.108593 3.51532 0
M  V30 9353 H 870.64 -1.6377 3.39793 0
M  V30 9354 H 873.027 -1.7053 2.40839 0
M  V30 9355 H 873.108 0.0559681 2.55739 0
M  V30 9356 H 872.752 -0.163102 5.07638 0
M  V30 9357 H 872.682 -1.93427 4.89789 0
M  V30 9358 H 875.173 -1.00477 3.64298 0
M  V30 9359 H 875.486 -1.44522 7.59166 0
M  V30 9360 H 873.831 -1.30655 6.82608 0
M  V30 9361 H 877.022 -1.16317 4.53418 0
M  V30 9362 H 877.195 -1.36424 6.33476 0
M  V30 9363 N 870.601 -1.47988 -0.541979 0
M  V30 9364 C 871.829 -1.59034 -1.32347 0
M  V30 9365 C 872.244 -0.246123 -1.87189 0
M  V30 9366 O 871.601 0.762889 -1.6579 0
M  V30 9367 C 871.652 -2.62759 -2.48274 0
M  V30 9368 O 871.373 -3.91963 -1.95695 0
M  V30 9369 C 872.874 -2.84133 -3.4027 0
M  V30 9370 H 870.094 -0.536574 -0.402901 0
M  V30 9371 H 872.638 -1.93725 -0.655045 0
M  V30 9372 H 870.793 -2.3096 -3.11025 0
M  V30 9373 H 871.207 -4.48769 -2.7149 0
M  V30 9374 H 872.681 -3.60538 -4.17991 0
M  V30 9375 H 873.158 -1.92512 -3.9476 0
M  V30 9376 H 873.764 -3.17188 -2.83322 0
M  V30 9377 N 872.079 0.78992 -1.36375 0
M  V30 9378 C 873.304 1.58389 -1.33895 0
M  V30 9379 C 873.729 1.8794 0.0774934 0
M  V30 9380 O 873.087 1.4785 1.0493 0
M  V30 9381 C 873.135 2.88201 -2.16732 0
M  V30 9382 O 872.239 3.81778 -1.55946 0
M  V30 9383 H 871.58 0.480471 -0.458305 0
M  V30 9384 H 874.11 0.979119 -1.79651 0
M  V30 9385 H 874.12 3.37475 -2.29292 0
M  V30 9386 H 872.795 2.66019 -3.19698 0
M  V30 9387 H 871.372 3.40371 -1.52323 0
M  V30 9388 N 873.557 1.20646 1.01402 0
M  V30 9389 C 874.487 0.98155 2.11867 0
M  V30 9390 C 875.468 -0.0903712 1.6986 0
M  V30 9391 O 876.653 0.0676586 1.94082 0
M  V30 9392 C 873.783 0.535636 3.43145 0
M  V30 9393 C 872.737 1.55109 3.98905 0
M  V30 9394 C 872.063 0.961725 5.2598 0
M  V30 9395 C 873.363 2.93552 4.32001 0
M  V30 9396 H 875.057 1.90544 2.3094 0
M  V30 9397 H 872.603 0.917554 1.10982 0
M  V30 9398 H 874.556 0.365512 4.19812 0
M  V30 9399 H 873.28 -0.423882 3.23838 0
M  V30 9400 H 871.939 1.70862 3.24348 0
M  V30 9401 H 871.587 -0.00580108 5.03 0
M  V30 9402 H 871.287 1.63993 5.64252 0
M  V30 9403 H 872.811 0.802726 6.053 0
M  V30 9404 H 874.225 2.81295 4.99546 0
M  V30 9405 H 872.622 3.58303 4.81393 0
M  V30 9406 H 873.692 3.4508 3.40658 0
M  V30 9407 N 875.035 -1.20752 1.01276 0
M  V30 9408 C 875.965 -2.25658 0.600064 0
M  V30 9409 C 876.946 -1.65733 -0.38298 0
M  V30 9410 O 878.131 -1.92324 -0.269256 0
M  V30 9411 C 875.261 -3.47237 -0.0663197 0
M  V30 9412 C 874.215 -4.1973 0.83731 0
M  V30 9413 C 873.541 -5.34687 0.0369102 0
M  V30 9414 C 874.841 -4.76286 2.14357 0
M  V30 9415 H 876.535 -2.60432 1.477 0
M  V30 9416 H 874.081 -1.25187 0.711634 0
M  V30 9417 H 876.034 -4.19803 -0.366563 0
M  V30 9418 H 874.758 -3.11615 -0.977944 0
M  V30 9419 H 873.417 -3.49024 1.1215 0
M  V30 9420 H 873.065 -4.95309 -0.876244 0
M  V30 9421 H 872.765 -5.84119 0.63865 0
M  V30 9422 H 874.289 -6.10059 -0.256968 0
M  V30 9423 H 875.703 -5.40691 1.90595 0
M  V30 9424 H 874.1 -5.36139 2.69583 0
M  V30 9425 H 875.17 -3.9524 2.80916 0
M  V30 9426 N 876.513 -0.788492 -1.36457 0
M  V30 9427 C 877.929 -0.470063 -1.52521 0
M  V30 9428 C 878.129 1.01176 -1.74258 0
M  V30 9429 O 877.185 1.79726 -1.77355 0
M  V30 9430 C 878.498 -1.2997 -2.71161 0
M  V30 9431 C 880.046 -1.2933 -2.85031 0
M  V30 9432 C 880.521 -2.10665 -4.06674 0
M  V30 9433 N 882.012 -2.08107 -4.13819 0
M  V30 9434 C 882.747 -2.6781 -5.07016 0
M  V30 9435 N 882.243 -3.36369 -6.05663 0
M  V30 9436 N 884.036 -2.57549 -4.99625 0
M  V30 9437 H 876.187 -1.7484 -1.20602 0
M  V30 9438 H 878.45 -0.743159 -0.588574 0
M  V30 9439 H 878.156 -2.35051 -2.61618 0
M  V30 9440 H 878.03 -0.940367 -3.6529 0
M  V30 9441 H 880.417 -0.250414 -2.94036 0
M  V30 9442 H 880.498 -1.69239 -1.91812 0
M  V30 9443 H 880.142 -3.14984 -3.98431 0
M  V30 9444 H 880.072 -1.68128 -4.9904 0
M  V30 9445 H 882.563 -1.58208 -3.43189 0
M  V30 9446 H 882.876 -3.79258 -6.73338 0
M  V30 9447 H 881.221 -3.40471 -6.05891 0
M  V30 9448 H 884.412 -2.0359 -4.21508 0
M  V30 9449 H 884.585 -3.0437 -5.72069 0
M  V30 9450 N 877.991 1.48044 -0.54043 0
M  V30 9451 C 878.921 2.32597 0.205178 0
M  V30 9452 C 879.902 1.42748 0.925041 0
M  V30 9453 O 881.087 1.71624 0.908784 0
M  V30 9454 C 878.217 3.24175 1.24612 0
M  V30 9455 C 877.171 4.23131 0.64376 0
M  V30 9456 C 876.497 5.03915 1.78812 0
M  V30 9457 C 877.797 5.20831 -0.39144 0
M  V30 9458 H 879.491 2.95184 -0.500676 0
M  V30 9459 H 877.037 1.41948 -0.242225 0
M  V30 9460 H 878.99 3.82158 1.77576 0
M  V30 9461 H 877.714 2.59608 1.98169 0
M  V30 9462 H 876.373 3.66349 0.135554 0
M  V30 9463 H 876.021 4.35765 2.51232 0
M  V30 9464 H 875.721 5.709 1.39094 0
M  V30 9465 H 877.245 5.64753 2.32134 0
M  V30 9466 H 878.659 5.73277 0.0515064 0
M  V30 9467 H 877.056 5.95926 -0.706569 0
M  V30 9468 H 878.126 4.6733 -1.29345 0
M  V30 9469 N 879.47 0.276058 1.55163 0
M  V30 9470 C 880.698 -0.343772 2.04024 0
M  V30 9471 C 881.113 -1.49397 1.15438 0
M  V30 9472 O 880.47 -1.81662 0.174692 0
M  V30 9473 C 880.521 -0.823885 3.51986 0
M  V30 9474 O 880.242 0.280507 4.37201 0
M  V30 9475 C 881.743 -1.51143 4.16738 0
M  V30 9476 H 878.963 -0.07828 0.666418 0
M  V30 9477 H 881.507 0.408427 2.0038 0
M  V30 9478 H 879.662 -1.52617 3.56071 0
M  V30 9479 H 880.076 -0.0887831 5.24425 0
M  V30 9480 H 881.55 -1.79878 5.2187 0
M  V30 9481 H 882.027 -2.44327 3.64967 0
M  V30 9482 H 882.633 -0.852975 4.16659 0
M  V30 9483 N 880.948 -1.576 0.00335426 0
M  V30 9484 C 881.858 -2.12067 -1.00322 0
M  V30 9485 C 882.874 -1.06672 -1.37467 0
M  V30 9486 O 884.05 -1.38592 -1.46131 0
M  V30 9487 C 881.115 -2.61593 -2.27531 0
M  V30 9488 C 880.176 -3.81602 -1.96668 0
M  V30 9489 C 879.409 -4.28756 -3.17811 0
M  V30 9490 O 879.632 -3.75222 -4.2961 0
M  V30 9491 O 878.566 -5.20877 -3.01613 0
M  V30 9492 H 882.392 -2.98299 -0.570199 0
M  V30 9493 H 879.977 -1.47835 -0.215682 0
M  V30 9494 H 881.859 -2.93631 -3.02256 0
M  V30 9495 H 880.534 -1.78457 -2.70065 0
M  V30 9496 H 879.441 -3.54531 -1.19408 0
M  V30 9497 H 880.774 -4.65822 -1.58968 0
M  V30 9498 N 882.426 0.269451 -1.5528 0
M  V30 9499 C 883.356 1.33729 -1.91413 0
M  V30 9500 C 884.337 1.51348 -0.776391 0
M  V30 9501 O 885.522 1.64332 -1.03482 0
M  V30 9502 C 882.652 2.69618 -2.18914 0
M  V30 9503 C 881.606 2.66725 -3.34726 0
M  V30 9504 C 880.932 4.06199 -3.47716 0
M  V30 9505 C 882.232 2.25684 -4.71025 0
M  V30 9506 H 883.926 1.03736 -2.80854 0
M  V30 9507 H 881.472 0.497579 -1.3513 0
M  V30 9508 H 883.425 3.44436 -2.42779 0
M  V30 9509 H 882.149 3.01201 -1.26275 0
M  V30 9510 H 880.808 1.94365 -3.10834 0
M  V30 9511 H 880.456 4.3501 -2.52537 0
M  V30 9512 H 880.156 4.05157 -4.25583 0
M  V30 9513 H 881.68 4.8275 -3.73877 0
M  V30 9514 H 883.094 2.90225 -4.94411 0
M  V30 9515 H 881.491 2.35797 -5.51833 0
M  V30 9516 H 882.561 1.20819 -4.69607 0
M  V30 9517 N 883.904 1.48273 0.534124 0
M  V30 9518 C 884.814 1.65162 1.66609 0
M  V30 9519 C 885.83 0.534177 1.65598 0
M  V30 9520 O 887.006 0.804715 1.84625 0
M  V30 9521 C 884.071 1.68354 3.03081 0
M  V30 9522 C 883.132 2.91696 3.1498 0
M  V30 9523 C 882.365 2.94725 4.44941 0
M  V30 9524 O 882.588 2.06285 5.31792 0
M  V30 9525 O 881.522 3.8685 4.61119 0
M  V30 9526 H 885.348 2.60991 1.55298 0
M  V30 9527 H 882.933 1.31626 0.706749 0
M  V30 9528 H 884.815 1.72998 3.84252 0
M  V30 9529 H 883.49 0.756978 3.14725 0
M  V30 9530 H 882.397 2.92586 2.33119 0
M  V30 9531 H 883.73 3.83722 3.0825 0
M  V30 9532 N 885.382 -0.782676 1.36792 0
M  V30 9533 C 886.607 -1.57676 1.34733 0
M  V30 9534 C 887.032 -1.87979 -0.0675253 0
M  V30 9535 O 886.39 -1.48404 -1.04144 0
M  V30 9536 C 886.438 -2.87047 2.18257 0
M  V30 9537 O 885.542 -3.80946 1.57969 0
M  V30 9538 H 884.883 -0.478034 0.460846 0
M  V30 9539 H 887.413 -0.969578 1.80168 0
M  V30 9540 H 887.423 -3.36254 2.31079 0
M  V30 9541 H 886.098 -2.64319 3.21104 0
M  V30 9542 H 884.675 -3.39558 1.54126 0
M  V30 9543 N 886.86 -1.21182 -1.00761 0
M  V30 9544 C 887.81 -0.936247 -2.0789 0
M  V30 9545 C 888.794 0.107482 -1.60541 0
M  V30 9546 O 889.986 -0.1011 -1.76711 0
M  V30 9547 C 887.115 -0.499949 -3.3964 0
M  V30 9548 C 886.201 -1.5776 -3.93666 0
M  V30 9549 N 886.592 -2.80208 -4.2109 0
M  V30 9550 C 884.89 -1.44586 -4.21913 0
M  V30 9551 C 885.591 -3.49787 -4.64784 0
M  V30 9552 N 884.567 -2.7722 -4.676 0
M  V30 9553 H 888.369 -1.86659 -2.27015 0
M  V30 9554 H 885.883 -1.10716 -1.1881 0
M  V30 9555 H 887.88 -0.283897 -4.15932 0
M  V30 9556 H 886.54 0.423659 -3.21924 0
M  V30 9557 H 887.551 -3.16776 -4.09724 0
M  V30 9558 H 884.228 -0.587346 -4.13348 0
M  V30 9559 H 885.618 -4.54615 -4.94747 0
M  V30 9560 N 888.338 1.20213 -1.01915 0
M  V30 9561 C 889.578 1.91354 -0.71853 0
M  V30 9562 C 889.942 1.77231 0.738466 0
M  V30 9563 O 891.143 2.42876 1.15172 0
M  V30 9564 C 889.414 3.38552 -1.14529 0
M  V30 9565 S 890.973 4.28011 -0.967037 0
M  V30 9566 H 887.791 0.661015 -0.261879 0
M  V30 9567 H 890.393 1.45394 -1.30694 0
M  V30 9568 H 889.097 3.46354 -2.20153 0
M  V30 9569 H 888.628 3.8954 -0.549766 0
M  V30 9570 H 890.643 4.96035 0.127974 0
M  V30 9571 O 889.855 0.931791 1.31909 0
M  V30 9572 H 890.546 0.55575 1.85556 0
M  V30 END ATOM
M  V30 BEGIN BOND
M  V30 END BOND
M  V30 END CTAB
M  END
$$$$
