drugbank_target|P62580 Chloramphenicol acetyltransferase (DB02703)
 OpenBabel12092120003D

  0  0  0     0  0            999 V3000
M  V30 BEGIN CTAB
M  V30 COUNTS 3519 3578 0 0 0
M  V30 BEGIN ATOM
M  V30 1 H -0.908 1.98254 -0.117106 0
M  V30 2 N 0 1.576 0 0
M  V30 3 C 0.933 2.03868 1.02534 0
M  V30 4 C 1.911 0.928543 1.3348 0
M  V30 5 O 3.095 1.19667 1.45644 0
M  V30 6 C 0.222 2.43627 2.35294 0
M  V30 7 C -0.732 3.65373 2.2001 0
M  V30 8 S 0.101 5.13292 1.52614 0
M  V30 9 C 1.257 5.56322 2.86805 0
M  V30 10 H 1.49 2.90518 0.631377 0
M  V30 11 H -0.977 1.52953 0.210867 0
M  V30 12 H 0.981 2.67203 3.11629 0
M  V30 13 H -0.358 1.57376 2.7183 0
M  V30 14 H -1.165 3.90944 3.18086 0
M  V30 15 H -1.563 3.418 1.51819 0
M  V30 16 H 0.729 5.58782 3.83104 0
M  V30 17 H 1.672 6.56266 2.65933 0
M  V30 18 H 2.08 4.83886 2.90714 0
M  V30 19 N 1.4781 -0.272755 1.55222 0
M  V30 20 C 2.3881 -1.35918 1.91216 0
M  V30 21 C 3.4041 -1.54026 0.809436 0
M  V30 22 O 4.5801 -1.68148 1.10852 0
M  V30 23 C 1.6451 -2.69834 2.17693 0
M  V30 24 C 0.7061 -2.6047 3.41253 0
M  V30 25 C -0.0609 -3.88 3.66458 0
M  V30 26 O 0.1621 -4.88693 2.94169 0
M  V30 27 O -0.9039 -3.88189 4.59992 0
M  V30 28 H 2.9221 -1.0839 2.83699 0
M  V30 29 H 0.5071 -0.471301 1.41771 0
M  V30 30 H 2.3891 -3.49017 2.36147 0
M  V30 31 H 1.0641 -2.97148 1.28392 0
M  V30 32 H -0.0289 -1.79663 3.28134 0
M  V30 33 H 1.3041 -2.38106 4.30774 0
M  V30 34 N 2.9562 -1.48159 -0.537278 0
M  V30 35 C 3.9032 -1.62138 -1.64256 0
M  V30 36 C 4.8732 -0.463668 -1.59497 0
M  V30 37 O 6.0582 -0.686241 -1.78032 0
M  V30 38 C 3.1982 -1.66028 -3.02537 0
M  V30 39 C 2.3112 -2.92855 -3.17585 0
M  V30 40 C 1.4462 -2.87952 -4.46382 0
M  V30 41 C 0.4852 -4.09516 -4.54932 0
M  V30 42 N -0.3778 -4.02733 -5.75109 0
M  V30 43 H 4.4622 -2.56529 -1.51647 0
M  V30 44 H 1.9992 -1.27224 -0.738414 0
M  V30 45 H 3.9572 -1.66265 -3.82638 0
M  V30 46 H 2.5872 -0.751331 -3.13934 0
M  V30 47 H 1.6392 -3.02395 -2.30784 0
M  V30 48 H 2.9512 -3.82822 -3.19764 0
M  V30 49 H 2.1052 -2.8655 -5.34765 0
M  V30 50 H 0.8442 -1.95702 -4.46712 0
M  V30 51 H -0.1508 -4.11201 -3.64957 0
M  V30 52 H 1.0742 -5.02917 -4.56346 0
M  V30 53 H -0.9798 -3.13299 -5.76351 0
M  V30 54 H -1.0628 -4.86397 -5.78752 0
M  V30 55 H 0.2052 -4.05379 -6.65799 0
M  V30 56 N 4.4343 0.785586 -1.36625 0
M  V30 57 C 5.3813 1.89838 -1.31264 0
M  V30 58 C 6.3513 1.65115 -0.180633 0
M  V30 59 O 7.5363 1.87222 -0.36777 0
M  V30 60 C 4.6763 3.26706 -1.11163 0
M  V30 61 C 3.7893 3.63476 -2.33472 0
M  V30 62 C 2.9243 4.89481 -2.06353 0
M  V30 63 C 1.9633 5.18941 -3.24602 0
M  V30 64 N 1.1003 6.36131 -2.97123 0
M  V30 65 H 5.9403 1.93756 -2.26413 0
M  V30 66 H 3.4773 0.947454 -1.12524 0
M  V30 67 H 5.4353 4.05639 -0.975337 0
M  V30 68 H 4.0653 3.222 -0.196674 0
M  V30 69 H 3.1173 2.79636 -2.57891 0
M  V30 70 H 4.4293 3.81193 -3.21704 0
M  V30 71 H 3.5833 5.76288 -1.89675 0
M  V30 72 H 2.3223 4.73841 -1.15437 0
M  V30 73 H 1.3273 4.30615 -3.41834 0
M  V30 74 H 2.5523 5.36498 -4.16349 0
M  V30 75 H 0.4983 6.21875 -2.08823 0
M  V30 76 H 0.4153 6.54198 -3.78894 0
M  V30 77 H 1.6833 7.2591 -2.84033 0
M  V30 78 N 5.9124 1.20967 1.01018 0
M  V30 79 C 7.1614 1.01796 1.74128 0
M  V30 80 C 7.4744 -0.449691 1.90361 0
M  V30 81 O 8.6804 -0.76068 2.60626 0
M  V30 82 C 7.1364 1.7727 3.13215 0
M  V30 83 C 6.7444 3.28171 3.04972 0
M  V30 84 C 8.4884 1.66489 3.90489 0
M  V30 85 C 6.3954 3.96156 4.39107 0
M  V30 86 H 5.3254 0.377276 0.652824 0
M  V30 87 H 7.9764 1.44651 1.12909 0
M  V30 88 H 6.3584 1.27205 3.75013 0
M  V30 89 H 7.5324 3.85499 2.52443 0
M  V30 90 H 5.8474 3.39437 2.41188 0
M  V30 91 H 8.4444 2.14617 4.89738 0
M  V30 92 H 8.7874 0.6222 4.11624 0
M  V30 93 H 9.3204 2.14003 3.35332 0
M  V30 94 H 6.0594 5.00604 4.23174 0
M  V30 95 H 5.5794 3.43617 4.91617 0
M  V30 96 H 7.2584 4.00774 5.07926 0
M  V30 97 N 7.3905 -1.2043 1.01659 0
M  V30 98 C 8.6185 -1.93777 0.725132 0
M  V30 99 C 9.0335 -1.74772 -0.714166 0
M  V30 100 O 8.3905 -1.06169 -1.4844 0
M  V30 101 C 8.4415 -3.45876 1.05129 0
M  V30 102 O 8.1625 -3.6426 2.43406 0
M  V30 103 C 9.6635 -4.36368 0.780891 0
M  V30 104 H 6.8835 -0.615901 0.266284 0
M  V30 105 H 9.4275 -1.52922 1.35776 0
M  V30 106 H 7.5825 -3.8461 0.464065 0
M  V30 107 H 7.9965 -4.58246 2.55169 0
M  V30 108 H 9.4705 -5.41743 1.05918 0
M  V30 109 H 9.9475 -4.38275 -0.284937 0
M  V30 110 H 10.5535 -4.03296 1.35027 0
M  V30 111 N 8.8686 -0.792821 -1.36206 0
M  V30 112 C 10.1166 -0.366062 -1.98757 0
M  V30 113 C 10.4376 1.0668 -1.63231 0
M  V30 114 O 9.7076 1.73587 -0.907978 0
M  V30 115 H 8.2876 -0.132364 -0.735179 0
M  V30 116 H 10.9496 -1.01562 -1.66347 0
M  V30 117 H 10.0456 -0.460638 -3.08682 0
M  V30 118 N 10.3467 1.47872 -0.545128 0
M  V30 119 C 11.5767 2.06589 -0.0210534 0
M  V30 120 C 11.9847 1.39997 1.27269 0
M  V30 121 O 11.3277 0.486421 1.77143 0
M  V30 122 C 11.3897 3.58574 0.257933 0
M  V30 123 C 11.0537 4.47132 -0.944573 0
M  V30 124 C 12.0507 4.85986 -1.84699 0
M  V30 125 C 9.7357 4.88821 -1.15584 0
M  V30 126 C 11.7297 5.65314 -2.94446 0
M  V30 127 C 9.4167 5.67916 -2.25642 0
M  V30 128 C 10.4147 6.06073 -3.14905 0
M  V30 129 O 10.1027 6.83578 -4.23057 0
M  V30 130 H 9.8347 0.674971 -0.0372899 0
M  V30 131 H 12.3887 1.91037 -0.754599 0
M  V30 132 H 10.6187 3.72295 1.04564 0
M  V30 133 H 12.3077 3.99356 0.72592 0
M  V30 134 H 13.0737 4.54388 -1.69577 0
M  V30 135 H 8.9527 4.58595 -0.470279 0
M  V30 136 H 12.4967 5.95016 -3.64145 0
M  V30 137 H 8.3937 5.98927 -2.40742 0
M  V30 138 H 9.1617 7.01954 -4.20954 0
M  V30 139 N 11.8248 0.280983 1.55075 0
M  V30 140 C 13.0528 -0.337293 2.04132 0
M  V30 141 C 13.4678 -1.4903 1.15912 0
M  V30 142 O 12.8248 -1.81606 0.180459 0
M  V30 143 C 12.8758 -0.812706 3.52246 0
M  V30 144 O 12.5968 0.294387 4.3711 0
M  V30 145 C 14.0978 -1.4982 4.17216 0
M  V30 146 H 11.3178 -0.0761638 0.666663 0
M  V30 147 H 13.8618 0.414787 2.00249 0
M  V30 148 H 12.0168 -1.51486 3.56554 0
M  V30 149 H 12.4308 -0.0721325 5.2445 0
M  V30 150 H 13.9048 -1.7822 5.22438 0
M  V30 151 H 14.3818 -2.43168 3.65741 0
M  V30 152 H 14.9878 -0.839742 4.16927 0
M  V30 153 N 13.3029 -1.57598 0.00835791 0
M  V30 154 C 14.5309 -1.95214 -0.68549 0
M  V30 155 C 14.9459 -0.883706 -1.66841 0
M  V30 156 O 14.3029 0.136565 -1.81988 0
M  V30 157 C 14.3539 -3.32865 -1.41007 0
M  V30 158 O 14.0749 -4.35609 -0.466552 0
M  V30 159 C 15.5759 -3.84991 -2.19765 0
M  V30 160 H 12.7959 -0.643422 -0.190392 0
M  V30 161 H 15.3399 -2.04406 0.0619607 0
M  V30 162 H 13.4949 -3.24956 -2.10908 0
M  V30 163 H 13.9089 -5.15288 -0.978699 0
M  V30 164 H 15.3829 -4.8371 -2.65948 0
M  V30 165 H 15.8599 -3.18137 -3.02796 0
M  V30 166 H 16.4659 -3.96103 -1.54864 0
M  V30 167 N 14.781 0.264519 -1.55364 0
M  V30 168 C 16.027 0.99646 -1.76631 0
M  V30 169 C 16.36 1.85632 -0.570478 0
M  V30 170 O 15.635 1.89647 0.43175 0
M  V30 171 C 15.918 1.87187 -3.07625 0
M  V30 172 C 15.771 1.04138 -4.37579 0
M  V30 173 C 17.09 2.85749 -3.34717 0
M  V30 174 H 14.209 0.360841 -0.642622 0
M  V30 175 H 16.851 0.268218 -1.88097 0
M  V30 176 H 15.001 2.49279 -2.9798 0
M  V30 177 H 16.673 0.440517 -4.59192 0
M  V30 178 H 14.916 0.345115 -4.32425 0
M  V30 179 H 15.587 1.68729 -5.2558 0
M  V30 180 H 18.063 2.33793 -3.4421 0
M  V30 181 H 16.939 3.44136 -4.27623 0
M  V30 182 H 17.2 3.61311 -2.54768 0
M  V30 183 N 16.2591 1.48442 0.529413 0
M  V30 184 C 17.5361 1.46978 1.29062 0
M  V30 185 C 17.9161 0.181769 2.10316 0
M  V30 186 O 17.2641 -0.836481 2.12639 0
M  V30 187 C 17.4741 2.7321 2.17157 0
M  V30 188 C 18.8221 3.21562 2.77278 0
M  V30 189 O 19.8461 2.74131 2.27444 0
M  V30 190 O 18.7051 4.04094 3.67927 0
M  V30 191 H 15.7991 0.587003 0.582543 0
M  V30 192 H 18.3451 1.60676 0.546021 0
M  V30 193 H 17.1171 3.58465 1.56903 0
M  V30 194 H 16.7401 2.62235 2.98862 0
M  V30 195 N 17.7372 -0.778329 1.37039 0
M  V30 196 C 18.9862 -1.53189 1.3121 0
M  V30 197 C 19.2992 -1.95328 -0.103095 0
M  V30 198 O 20.5052 -2.70012 -0.283826 0
M  V30 199 C 18.9612 -2.76591 2.30272 0
M  V30 200 C 18.5692 -2.41577 3.77286 0
M  V30 201 C 20.3132 -3.5455 2.33441 0
M  V30 202 C 18.2202 -3.61441 4.68096 0
M  V30 203 H 17.1502 -0.5751 0.487622 0
M  V30 204 H 19.8012 -0.853101 1.62464 0
M  V30 205 H 18.1832 -3.46326 1.92027 0
M  V30 206 H 19.3572 -1.79668 4.2433 0
M  V30 207 H 17.6722 -1.76806 3.76999 0
M  V30 208 H 20.2692 -4.43628 2.98493 0
M  V30 209 H 20.6122 -3.93936 1.34611 0
M  V30 210 H 21.1452 -2.91805 2.7036 0
M  V30 211 H 17.8842 -3.27142 5.6803 0
M  V30 212 H 17.4042 -4.22478 4.25761 0
M  V30 213 H 19.0832 -4.28335 4.8491 0
M  V30 214 N 19.2153 -1.21501 -1.00376 0
M  V30 215 C 20.4403 -1.05977 -1.78279 0
M  V30 216 C 20.8653 0.385994 -1.84097 0
M  V30 217 O 20.2233 1.27849 -1.28547 0
M  V30 218 C 20.2713 -1.66302 -3.19963 0
M  V30 219 O 19.3753 -0.909333 -4.0225 0
M  V30 220 H 18.7163 -0.372906 -0.549397 0
M  V30 221 H 21.2463 -1.6107 -1.26165 0
M  V30 222 H 21.2563 -1.70574 -3.70632 0
M  V30 223 H 19.9313 -2.71515 -3.15043 0
M  V30 224 H 18.5083 -0.941795 -3.60811 0
M  V30 225 N 20.6934 1.19889 -1.02296 0
M  V30 226 C 21.6254 2.22334 -0.556787 0
M  V30 227 C 22.6384 1.58674 0.364199 0
M  V30 228 O 23.8274 1.77768 0.161533 0
M  V30 229 C 20.9274 3.38257 0.208694 0
M  V30 230 C 20.1004 4.31504 -0.71577 0
M  V30 231 C 19.1594 5.262 0.00325597 0
M  V30 232 O 18.1854 5.65798 -0.621357 0
M  V30 233 N 19.3874 5.66303 1.27599 0
M  V30 234 H 22.1524 2.62957 -1.43784 0
M  V30 235 H 19.7134 1.34495 -0.901261 0
M  V30 236 H 21.7054 3.98616 0.699111 0
M  V30 237 H 20.2754 2.96472 0.991102 0
M  V30 238 H 19.4954 3.69016 -1.38638 0
M  V30 239 H 20.7834 4.9072 -1.34428 0
M  V30 240 H 20.1814 5.36155 1.80429 0
M  V30 241 H 18.7384 6.28942 1.71102 0
M  V30 242 N 22.1715 0.800033 1.35784 0
M  V30 243 C 23.4175 0.38701 1.99684 0
M  V30 244 C 23.7725 -1.03268 1.62338 0
M  V30 245 O 23.0655 -1.70543 0.87325 0
M  V30 246 C 23.2595 0.500276 3.53881 0
M  V30 247 C 23.0885 1.92942 4.06206 0
M  V30 248 C 21.8585 2.55637 4.35865 0
M  V30 249 C 24.0565 2.89307 4.25213 0
M  V30 250 N 22.0385 3.9003 4.74078 0
M  V30 251 C 23.4095 4.08556 4.66349 0
M  V30 252 C 25.4645 2.86225 4.07406 0
M  V30 253 C 24.1675 5.25146 4.91543 0
M  V30 254 C 26.1935 4.02011 4.33752 0
M  V30 255 C 25.5555 5.20007 4.75155 0
M  V30 256 H 21.6545 0.189252 0.758754 0
M  V30 257 H 24.2385 1.03988 1.64604 0
M  V30 258 H 22.4095 -0.122568 3.88207 0
M  V30 259 H 24.1415 0.0624733 4.04652 0
M  V30 260 H 20.8965 2.07039 4.25948 0
M  V30 261 H 21.3205 4.59205 4.97454 0
M  V30 262 H 25.9625 1.96154 3.74544 0
M  V30 263 H 23.6805 6.15794 5.23281 0
M  V30 264 H 27.2665 4.00999 4.21534 0
M  V30 265 H 26.1465 6.08113 4.95145 0
M  V30 266 N 23.6496 -1.47581 0.552962 0
M  V30 267 C 24.5996 -2.26961 -0.217423 0
M  V30 268 C 25.5836 -1.34099 -0.889168 0
M  V30 269 O 26.7756 -1.58483 -0.788176 0
M  V30 270 C 23.9046 -3.19756 -1.24944 0
M  V30 271 C 22.9906 -4.20097 -0.581327 0
M  V30 272 N 23.3816 -5.04614 0.346171 0
M  V30 273 C 21.6796 -4.38099 -0.835767 0
M  V30 274 C 22.3806 -5.77052 0.733854 0
M  V30 275 N 21.3566 -5.43526 0.0896567 0
M  V30 276 H 25.1586 -2.89688 0.495761 0
M  V30 277 H 22.6726 -1.58068 0.372597 0
M  V30 278 H 24.6696 -3.75305 -1.81527 0
M  V30 279 H 23.3296 -2.58585 -1.96376 0
M  V30 280 H 24.3406 -5.12869 0.720098 0
M  V30 281 H 21.0176 -3.88102 -1.53892 0
M  V30 282 H 22.4076 -6.5504 1.49574 0
M  V30 283 N 25.1277 -0.289203 -1.54924 0
M  V30 284 C 26.5437 0.0645403 -1.59469 0
M  V30 285 C 26.7437 1.53419 -1.30632 0
M  V30 286 O 25.7997 2.2852 -1.074 0
M  V30 287 C 27.1127 -0.32278 -2.98963 0
M  V30 288 C 28.6607 -0.270564 -3.11828 0
M  V30 289 C 29.1357 -0.632532 -4.53611 0
M  V30 290 N 30.6267 -0.584617 -4.59496 0
M  V30 291 C 31.3617 -0.837314 -5.67254 0
M  V30 292 N 30.8577 -1.15536 -6.83098 0
M  V30 293 N 32.6507 -0.765166 -5.56868 0
M  V30 294 H 24.8017 -1.24714 -1.71931 0
M  V30 295 H 27.0647 -0.504809 -0.802416 0
M  V30 296 H 26.7707 -1.34541 -3.24948 0
M  V30 297 H 26.6447 0.32944 -3.75759 0
M  V30 298 H 29.0317 0.742805 -2.85598 0
M  V30 299 H 29.1127 -0.957242 -2.37214 0
M  V30 300 H 28.7567 -1.64365 -4.80569 0
M  V30 301 H 28.6867 0.07609 -5.26545 0
M  V30 302 H 31.1777 -0.349248 -3.76283 0
M  V30 303 H 31.4907 -1.33447 -7.61191 0
M  V30 304 H 29.8357 -1.19328 -6.84679 0
M  V30 305 H 33.0267 -0.516432 -4.65243 0
M  V30 306 H 33.1997 -0.965477 -6.40767 0
M  V30 307 N 26.6058 1.57591 -0.0167156 0
M  V30 308 C 27.5528 2.09462 0.969251 0
M  V30 309 C 28.5228 0.99381 1.33089 0
M  V30 310 O 29.7078 1.26726 1.42636 0
M  V30 311 C 26.8478 2.61622 2.25051 0
M  V30 312 C 25.9608 3.85666 1.94642 0
M  V30 313 C 25.0958 4.26266 3.16972 0
M  V30 314 C 24.1348 5.43101 2.82326 0
M  V30 315 N 23.2718 5.78915 3.97243 0
M  V30 316 H 28.1118 2.93428 0.519997 0
M  V30 317 H 25.6488 1.45044 0.245087 0
M  V30 318 H 27.6068 2.89949 2.99976 0
M  V30 319 H 26.2368 1.80505 2.67615 0
M  V30 320 H 25.2888 3.64145 1.10013 0
M  V30 321 H 26.6008 4.70678 1.65117 0
M  V30 322 H 25.7548 4.55963 4.00228 0
M  V30 323 H 24.4938 3.39996 3.49648 0
M  V30 324 H 23.4988 5.1311 1.97479 0
M  V30 325 H 24.7238 6.3106 2.50879 0
M  V30 326 H 22.6698 4.95602 4.29785 0
M  V30 327 H 22.5868 6.58539 3.71299 0
M  V30 328 H 23.8548 6.13212 4.81239 0
M  V30 329 N 28.0839 -0.256276 1.55502 0
M  V30 330 C 28.9939 -1.33882 1.92647 0
M  V30 331 C 30.0099 -1.53159 0.825727 0
M  V30 332 O 31.1859 -1.66963 1.12629 0
M  V30 333 C 28.2509 -2.6751 2.20543 0
M  V30 334 C 27.3119 -2.56836 3.43997 0
M  V30 335 C 26.5449 -3.84092 3.70553 0
M  V30 336 O 26.7679 -4.85545 2.99336 0
M  V30 337 O 25.7019 -3.83288 4.64084 0
M  V30 338 H 29.5279 -1.05374 2.84833 0
M  V30 339 H 27.1129 -0.456237 1.42263 0
M  V30 340 H 28.9949 -3.46492 2.39835 0
M  V30 341 H 27.6699 -2.9577 1.31536 0
M  V30 342 H 26.5769 -1.76172 3.30021 0
M  V30 343 H 27.9099 -2.33523 4.33275 0
M  V30 344 N 29.562 -1.4872 -0.521534 0
M  V30 345 C 30.512 -1.60269 -1.62166 0
M  V30 346 C 31.496 -0.45935 -1.54204 0
M  V30 347 O 32.688 -0.711241 -1.62081 0
M  V30 348 C 29.817 -1.65344 -3.00859 0
M  V30 349 C 28.903 -2.85187 -3.13894 0
M  V30 350 N 29.294 -4.09509 -2.96877 0
M  V30 351 C 27.592 -2.82695 -3.44963 0
M  V30 352 C 28.293 -4.89959 -3.13552 0
M  V30 353 N 27.269 -4.22934 -3.41508 0
M  V30 354 H 31.071 -2.5413 -1.47632 0
M  V30 355 H 28.585 -1.45209 -0.727194 0
M  V30 356 H 30.582 -1.71713 -3.79895 0
M  V30 357 H 29.242 -0.726058 -3.16478 0
M  V30 358 H 30.253 -4.39814 -2.73467 0
M  V30 359 H 26.93 -1.99249 -3.66887 0
M  V30 360 H 28.32 -5.98654 -3.05061 0
M  V30 361 N 31.0401 0.771051 -1.3745 0
M  V30 362 C 32.2871 1.52963 -1.32697 0
M  V30 363 C 32.6151 1.94299 0.0883274 0
M  V30 364 O 31.8701 1.64397 1.0617 0
M  V30 365 C 32.1691 2.80676 -2.2126 0
M  V30 366 C 31.8351 2.58389 -3.69521 0
M  V30 367 C 30.4971 2.52019 -4.09927 0
M  V30 368 C 32.8491 2.38469 -4.63446 0
M  V30 369 C 30.1771 2.23721 -5.42371 0
M  V30 370 C 32.5291 2.11694 -5.96128 0
M  V30 371 C 31.1931 2.03769 -6.35637 0
M  V30 372 H 30.4631 0.559732 -0.485573 0
M  V30 373 H 33.1101 0.888083 -1.69662 0
M  V30 374 H 31.4151 3.49392 -1.77291 0
M  V30 375 H 33.1121 3.38557 -2.14895 0
M  V30 376 H 29.7021 2.6421 -3.37478 0
M  V30 377 H 33.8861 2.4238 -4.33089 0
M  V30 378 H 29.1421 2.16081 -5.71943 0
M  V30 379 H 33.3161 1.9528 -6.6846 0
M  V30 380 H 30.9431 1.81606 -7.38189 0
M  V30 381 N 32.5182 1.22032 0.997298 0
M  V30 382 C 33.4282 1.00271 2.12092 0
M  V30 383 C 34.4442 -0.047621 1.73935 0
M  V30 384 O 35.6202 0.144136 2.00884 0
M  V30 385 C 32.6852 0.578449 3.4184 0
M  V30 386 C 31.7462 1.70189 3.94125 0
M  V30 387 C 30.9792 1.29778 5.17681 0
M  V30 388 O 31.2022 0.174676 5.70132 0
M  V30 389 O 30.1362 2.11261 5.63607 0
M  V30 390 H 33.9622 1.94398 2.3333 0
M  V30 391 H 31.5472 1.00587 1.10465 0
M  V30 392 H 33.4292 0.351998 4.19927 0
M  V30 393 H 32.1042 -0.334019 3.21972 0
M  V30 394 H 31.0112 1.98282 3.1723 0
M  V30 395 H 32.3442 2.59206 4.18417 0
M  V30 396 N 33.9963 -1.19345 1.0293 0
M  V30 397 C 34.9593 -2.20793 0.615069 0
M  V30 398 C 35.9593 -1.57553 -0.321533 0
M  V30 399 O 37.1493 -1.73862 -0.108483 0
M  V30 400 C 34.2813 -3.40754 -0.0999222 0
M  V30 401 H 35.4743 -2.58955 1.51269 0
M  V30 402 H 33.0273 -1.3303 0.820534 0
M  V30 403 H 33.7623 -3.0811 -1.01187 0
M  V30 404 H 33.5473 -3.87889 0.57309 0
M  V30 405 H 35.0373 -4.15898 -0.376645 0
M  V30 406 N 35.4744 -0.807222 -1.35358 0
M  V30 407 C 36.7214 -0.387888 -1.9875 0
M  V30 408 C 37.0494 1.04509 -1.64037 0
M  V30 409 O 36.3044 1.73986 -0.895946 0
M  V30 410 C 36.6034 -0.519036 -3.53611 0
M  V30 411 C 36.2694 -1.91542 -4.08194 0
M  V30 412 C 34.9314 -2.29745 -4.22813 0
M  V30 413 C 37.2834 -2.82896 -4.37744 0
M  V30 414 C 34.6114 -3.58668 -4.643 0
M  V30 415 C 36.9634 -4.11265 -4.8067 0
M  V30 416 C 35.6274 -4.49466 -4.93494 0
M  V30 417 H 34.8974 -0.141938 -0.727279 0
M  V30 418 H 37.5444 -1.02814 -1.6156 0
M  V30 419 H 35.8494 0.204658 -3.91265 0
M  V30 420 H 37.5464 -0.175345 -4.00616 0
M  V30 421 H 34.1364 -1.60862 -3.97268 0
M  V30 422 H 38.3204 -2.54629 -4.26002 0
M  V30 423 H 33.5764 -3.88113 -4.72418 0
M  V30 424 H 37.7504 -4.82153 -5.02496 0
M  V30 425 H 35.3774 -5.49418 -5.25399 0
M  V30 426 N 36.9525 1.47285 -0.560781 0
M  V30 427 C 37.8845 2.28118 0.222438 0
M  V30 428 C 38.8975 1.37219 0.876056 0
M  V30 429 O 40.0865 1.62011 0.749307 0
M  V30 430 C 37.1865 3.1159 1.33285 0
M  V30 431 C 36.3595 4.30473 0.77534 0
M  V30 432 C 35.4185 4.95513 1.77069 0
M  V30 433 O 34.4445 5.53792 1.31539 0
M  V30 434 N 35.6465 4.90531 3.10418 0
M  V30 435 H 38.4115 2.95976 -0.470958 0
M  V30 436 H 35.9725 1.56955 -0.39709 0
M  V30 437 H 37.9645 3.51967 1.99752 0
M  V30 438 H 36.5345 2.45951 1.92943 0
M  V30 439 H 35.7545 3.94144 -0.0662113 0
M  V30 440 H 37.0425 5.07362 0.382272 0
M  V30 441 H 36.4405 4.44389 3.5005 0
M  V30 442 H 34.9975 5.34917 3.72434 0
M  V30 443 N 38.4306 0.297415 1.54768 0
M  V30 444 C 39.6556 -0.318435 2.04941 0
M  V30 445 C 40.0806 -1.4701 1.17345 0
M  V30 446 O 39.4386 -1.80436 0.176758 0
M  V30 447 C 39.4866 -0.755749 3.52592 0
M  V30 448 O 38.5906 -1.86088 3.68028 0
M  V30 449 H 37.9316 -0.062421 0.661059 0
M  V30 450 H 40.4616 0.438215 1.99852 0
M  V30 451 H 40.4716 -1.04552 3.94376 0
M  V30 452 H 39.1466 0.0867233 4.1581 0
M  V30 453 H 37.7236 -1.57193 3.38149 0
M  V30 454 N 39.9087 -1.5758 0.0250728 0
M  V30 455 C 41.1547 -1.91917 -0.655413 0
M  V30 456 C 41.4877 -0.901433 -1.72011 0
M  V30 457 O 40.7627 0.0764069 -1.9435 0
M  V30 458 C 41.0457 -3.36751 -1.27558 0
M  V30 459 C 40.8987 -4.49258 -0.220719 0
M  V30 460 C 42.2177 -3.81469 -2.19475 0
M  V30 461 H 39.3367 -0.697925 -0.23679 0
M  V30 462 H 41.9787 -1.89825 0.0815036 0
M  V30 463 H 40.1287 -3.38664 -1.90365 0
M  V30 464 H 41.8007 -4.59478 0.409601 0
M  V30 465 H 40.0437 -4.31415 0.454264 0
M  V30 466 H 40.7147 -5.47618 -0.694175 0
M  V30 467 H 43.1907 -3.81266 -1.66659 0
M  V30 468 H 42.0667 -4.83512 -2.59822 0
M  V30 469 H 42.3277 -3.16744 -3.08424 0
M  V30 470 N 41.3868 0.248026 -1.55636 0
M  V30 471 C 42.3498 1.29044 -1.89421 0
M  V30 472 C 43.3498 1.41134 -0.770581 0
M  V30 473 O 44.5398 1.39854 -1.03858 0
M  V30 474 C 41.6718 2.66831 -2.12165 0
M  V30 475 H 42.8648 1.00305 -2.82629 0
M  V30 476 H 40.4178 0.487265 -1.48511 0
M  V30 477 H 41.1528 3.00711 -1.21422 0
M  V30 478 H 40.9378 2.59438 -2.93997 0
M  V30 479 H 42.4278 3.42103 -2.3949 0
M  V30 480 N 42.8649 1.48995 0.513639 0
M  V30 481 C 43.7969 1.60836 1.63293 0
M  V30 482 C 44.8099 0.491701 1.55197 0
M  V30 483 O 45.9989 0.763238 1.6136 0
M  V30 484 C 43.0989 1.53731 3.02027 0
M  V30 485 C 42.2719 2.80715 3.35437 0
M  V30 486 C 41.3309 2.66837 4.53525 0
M  V30 487 O 40.3569 3.40753 4.55934 0
M  V30 488 N 41.5589 1.77539 5.52684 0
M  V30 489 H 44.3239 2.57366 1.53566 0
M  V30 490 H 41.8849 1.45925 0.701259 0
M  V30 491 H 43.8769 1.42118 3.78926 0
M  V30 492 H 42.4469 0.651092 3.05744 0
M  V30 493 H 41.6669 3.06772 2.47557 0
M  V30 494 H 42.9549 3.64927 3.54551 0
M  V30 495 H 42.3529 1.16719 5.53528 0
M  V30 496 H 40.9099 1.71856 6.28736 0
M  V30 497 N 44.343 -0.763751 1.37857 0
M  V30 498 C 45.583 -1.53551 1.34913 0
M  V30 499 C 45.947 -1.91895 -0.0635882 0
M  V30 500 O 47.148 -2.67916 -0.217825 0
M  V30 501 C 45.419 -2.76126 2.26912 0
M  V30 502 S 46.978 -3.66105 2.41893 0
M  V30 503 H 43.796 -0.52559 0.478828 0
M  V30 504 H 46.398 -0.897435 1.73685 0
M  V30 505 H 45.102 -2.4605 3.28463 0
M  V30 506 H 44.633 -3.44887 1.89253 0
M  V30 507 H 46.648 -4.68473 1.63545 0
M  V30 508 N 45.8211 -1.22559 -0.990812 0
M  V30 509 C 47.0491 -1.07779 -1.76611 0
M  V30 510 C 47.4641 0.371513 -1.85109 0
M  V30 511 O 46.8211 1.25737 -1.32274 0
M  V30 512 C 46.8721 -1.68512 -3.19822 0
M  V30 513 O 46.5931 -3.07774 -3.1178 0
M  V30 514 C 48.0941 -1.59035 -4.13791 0
M  V30 515 H 45.3141 -0.377729 -0.554583 0
M  V30 516 H 47.8581 -1.62195 -1.24551 0
M  V30 517 H 46.0131 -1.18154 -3.68942 0
M  V30 518 H 46.4271 -3.37062 -4.01858 0
M  V30 519 H 47.9011 -2.0625 -5.1202 0
M  V30 520 H 48.3781 -0.547273 -4.35777 0
M  V30 521 H 48.9841 -2.08709 -3.70568 0
M  V30 522 N 47.2992 1.18797 -1.03562 0
M  V30 523 C 48.5292 1.92319 -0.754773 0
M  V30 524 C 48.9372 1.7612 0.691248 0
M  V30 525 O 48.2802 1.08491 1.48241 0
M  V30 526 C 48.3422 3.44284 -1.03484 0
M  V30 527 C 48.0062 3.84258 -2.47376 0
M  V30 528 C 49.0032 3.88459 -3.45537 0
M  V30 529 C 46.6882 4.15701 -2.81954 0
M  V30 530 C 48.6822 4.23545 -4.76328 0
M  V30 531 C 46.3692 4.50458 -4.12954 0
M  V30 532 C 47.3672 4.54356 -5.09951 0
M  V30 533 O 47.0552 4.88305 -6.38603 0
M  V30 534 H 46.7872 0.617527 -0.275021 0
M  V30 535 H 49.3412 1.51683 -1.38497 0
M  V30 536 H 47.5712 3.85135 -0.347513 0
M  V30 537 H 49.2602 3.99049 -0.7426 0
M  V30 538 H 50.0262 3.6431 -3.20162 0
M  V30 539 H 45.9052 4.11847 -2.0713 0
M  V30 540 H 49.4492 4.26502 -5.52035 0
M  V30 541 H 45.3462 4.74067 -4.38099 0
M  V30 542 H 46.1142 5.06227 -6.43177 0
M  V30 543 N 48.7773 0.814389 1.34928 0
M  V30 544 C 49.7253 0.218424 2.31572 0
M  V30 545 C 50.7193 -0.636128 1.57002 0
M  V30 546 O 51.9253 -0.52842 1.72069 0
M  V30 547 H 48.3003 0.0518799 0.750208 0
M  V30 548 H 50.2713 1.04852 2.79372 0
M  V30 549 C 49.0203 -0.61207 3.4227 0
M  V30 550 H 48.3433 0.0361578 3.99784 0
M  V30 551 H 49.7833 -0.995317 4.12152 0
M  V30 552 C 48.2423 -1.78087 2.85984 0
M  V30 553 O 48.7723 -2.8787 2.80168 0
M  V30 554 N 46.9783 -1.59488 2.42924 0
M  V30 555 H 46.5253 -0.701874 2.47854 0
M  V30 556 H 46.4833 -2.37846 2.05613 0
M  V30 557 N 50.2554 -1.46986 0.568584 0
M  V30 558 C 51.1874 -2.28233 -0.210337 0
M  V30 559 C 52.2004 -1.37682 -0.868767 0
M  V30 560 O 53.3894 -1.62406 -0.740705 0
M  V30 561 C 50.4894 -3.12293 -1.3163 0
M  V30 562 C 49.6624 -4.30878 -0.7525 0
M  V30 563 C 48.7214 -4.96445 -1.74439 0
M  V30 564 O 47.7474 -5.54482 -1.286 0
M  V30 565 N 48.9494 -4.92171 -3.07812 0
M  V30 566 H 51.7144 -2.95723 0.486648 0
M  V30 567 H 49.2754 -1.56742 0.405409 0
M  V30 568 H 51.2674 -3.53022 -1.97883 0
M  V30 569 H 49.8374 -2.46971 -1.91636 0
M  V30 570 H 49.0574 -3.94104 0.0871128 0
M  V30 571 H 50.3454 -5.07558 -0.35536 0
M  V30 572 H 49.7434 -4.46239 -3.47688 0
M  V30 573 H 48.3004 -5.36884 -3.69592 0
M  V30 574 N 51.7335 -0.305618 -1.54608 0
M  V30 575 C 52.9615 0.304775 -2.04643 0
M  V30 576 C 53.3765 1.47167 -1.18268 0
M  V30 577 O 52.7335 1.81296 -0.209328 0
M  V30 578 C 52.7845 0.756564 -3.53495 0
M  V30 579 O 52.5055 -0.36389 -4.36586 0
M  V30 580 C 54.0065 1.43163 -4.19546 0
M  V30 581 H 51.2265 0.0655481 -0.667791 0
M  V30 582 H 53.7705 -0.446592 -1.99564 0
M  V30 583 H 51.9255 1.45794 -3.58919 0
M  V30 584 H 52.3395 -0.0113121 -5.24499 0
M  V30 585 H 53.8135 1.69886 -5.25207 0
M  V30 586 H 54.2905 2.37318 -3.69563 0
M  V30 587 H 54.8965 0.773307 -4.18211 0
M  V30 588 N 53.2116 1.57565 -0.0334293 0
M  V30 589 C 54.4576 1.92262 0.645226 0
M  V30 590 C 54.7906 0.910543 1.71531 0
M  V30 591 O 54.0656 -0.066099 1.94388 0
M  V30 592 C 54.3486 3.37422 1.2577 0
M  V30 593 C 54.2016 4.49369 0.196891 0
M  V30 594 C 55.5206 3.82628 2.17449 0
M  V30 595 H 52.6396 0.699171 0.233085 0
M  V30 596 H 55.2816 1.89779 -0.0915694 0
M  V30 597 H 53.4316 3.39669 1.88566 0
M  V30 598 H 55.1036 4.59254 -0.433962 0
M  V30 599 H 53.3466 4.31168 -0.477137 0
M  V30 600 H 54.0176 5.47978 0.665124 0
M  V30 601 H 56.4936 3.82145 1.64634 0
M  V30 602 H 55.3696 4.84883 2.57254 0
M  V30 603 H 55.6306 3.18376 3.0674 0
M  V30 604 N 54.6897 -0.239769 1.55765 0
M  V30 605 C 55.6217 -1.32001 1.87372 0
M  V30 606 C 56.6347 -1.43944 0.760522 0
M  V30 607 O 57.8237 -1.45167 1.0387 0
M  V30 608 C 54.9237 -2.69779 2.05115 0
M  V30 609 C 54.0967 -2.80014 3.36022 0
M  V30 610 C 53.1557 -3.98684 3.4342 0
M  V30 611 O 52.1817 -3.87877 4.16582 0
M  V30 612 N 53.3837 -5.12176 2.73232 0
M  V30 613 H 56.1487 -1.0522 2.80622 0
M  V30 614 H 53.7097 -0.429857 1.56089 0
M  V30 615 H 55.7017 -3.47517 2.07399 0
M  V30 616 H 54.2717 -2.89237 1.18577 0
M  V30 617 H 53.4917 -1.88896 3.45994 0
M  V30 618 H 54.7797 -2.83808 4.22292 0
M  V30 619 H 54.1777 -5.2385 2.13536 0
M  V30 620 H 52.7347 -5.88022 2.81199 0
M  V30 621 N 56.1678 -1.49265 -0.50573 0
M  V30 622 C 57.0978 -1.68495 -1.61653 0
M  V30 623 C 58.0788 -0.53366 -1.61512 0
M  V30 624 O 59.2638 -0.76897 -1.78327 0
M  V30 625 C 56.3938 -1.74709 -3.00157 0
M  V30 626 C 55.3478 -2.89581 -3.15162 0
M  V30 627 C 54.6738 -2.80903 -4.5497 0
M  V30 628 C 55.9738 -4.30578 -2.95634 0
M  V30 629 H 57.6678 -2.61493 -1.45814 0
M  V30 630 H 55.2138 -1.25838 -0.70005 0
M  V30 631 H 57.1668 -1.86748 -3.77761 0
M  V30 632 H 55.8908 -0.783067 -3.17074 0
M  V30 633 H 54.5498 -2.77136 -2.39982 0
M  V30 634 H 54.1978 -1.82419 -4.68756 0
M  V30 635 H 53.8978 -3.57999 -4.65951 0
M  V30 636 H 55.4218 -2.94944 -5.34641 0
M  V30 637 H 56.8358 -4.4373 -3.63011 0
M  V30 638 H 55.2328 -5.0886 -3.18091 0
M  V30 639 H 56.3028 -4.45352 -1.91806 0
M  V30 640 N 57.6459 0.756429 -1.3826 0
M  V30 641 C 58.9229 1.50584 -1.24835 0
M  V30 642 C 59.3029 2.10556 0.151485 0
M  V30 643 O 58.6509 1.96825 1.1607 0
M  V30 644 C 58.8609 2.57448 -2.3563 0
M  V30 645 C 60.2089 3.24429 -2.73917 0
M  V30 646 O 61.2329 2.67751 -2.34921 0
M  V30 647 O 60.0919 4.26937 -3.41156 0
M  V30 648 H 57.1859 0.667664 -0.48801 0
M  V30 649 H 59.7319 0.792083 -1.5008 0
M  V30 650 H 58.5039 2.11362 -3.29305 0
M  V30 651 H 58.1269 3.36408 -2.11933 0
M  V30 652 N 59.124 1.23083 0.984299 0
M  V30 653 C 60.373 1.05466 1.71929 0
M  V30 654 C 60.686 -0.409211 1.91272 0
M  V30 655 O 61.892 -0.705226 2.62181 0
M  V30 656 C 60.348 1.83874 3.09384 0
M  V30 657 C 59.956 3.34566 2.97943 0
M  V30 658 C 61.7 1.74734 3.8687 0
M  V30 659 C 59.607 4.05381 4.30605 0
M  V30 660 H 58.537 0.391039 0.644674 0
M  V30 661 H 61.188 1.47013 1.09815 0
M  V30 662 H 59.57 1.35131 3.72231 0
M  V30 663 H 60.744 3.90767 2.44209 0
M  V30 664 H 59.059 3.44476 2.33934 0
M  V30 665 H 61.656 2.24957 4.85076 0
M  V30 666 H 61.999 0.709372 4.10212 0
M  V30 667 H 62.532 2.21067 3.30717 0
M  V30 668 H 59.271 5.09467 4.1246 0
M  V30 669 H 58.791 3.53967 4.84218 0
M  V30 670 H 60.47 4.11458 4.99311 0
M  V30 671 N 60.6021 -1.18246 1.0419 0
M  V30 672 C 61.8301 -1.92195 0.766072 0
M  V30 673 C 62.2451 -1.76247 -0.676933 0
M  V30 674 O 61.6021 -1.09293 -1.46155 0
M  V30 675 C 61.6531 -3.43568 1.12442 0
M  V30 676 O 61.3741 -3.59015 2.51078 0
M  V30 677 C 62.8751 -4.34613 0.873275 0
M  V30 678 H 60.0951 -0.610114 0.279288 0
M  V30 679 H 62.6391 -1.50007 1.38989 0
M  V30 680 H 60.7941 -3.8354 0.545542 0
M  V30 681 H 61.2081 -4.5273 2.64831 0
M  V30 682 H 62.6821 -5.39374 1.17385 0
M  V30 683 H 63.1591 -4.38781 -0.191909 0
M  V30 684 H 63.7651 -4.00341 1.43551 0
M  V30 685 N 62.0802 -0.821533 -1.34494 0
M  V30 686 C 63.0432 -0.247847 -2.27856 0
M  V30 687 C 64.0432 0.573453 -1.50227 0
M  V30 688 O 65.2332 0.389759 -1.69784 0
M  V30 689 C 62.3652 0.652698 -3.34593 0
M  V30 690 H 63.5582 -1.07146 -2.80107 0
M  V30 691 H 61.1112 -0.593291 -1.44602 0
M  V30 692 H 61.8462 1.49943 -2.87555 0
M  V30 693 H 61.6312 0.065292 -3.92046 0
M  V30 694 H 63.1212 1.04793 -4.04238 0
M  V30 695 N 63.5583 1.46682 -0.576371 0
M  V30 696 C 64.8053 2.02412 -0.0595339 0
M  V30 697 C 65.1333 1.44859 1.29793 0
M  V30 698 O 64.3883 0.601099 1.8624 0
M  V30 699 C 64.6873 3.57345 0.062886 0
M  V30 700 C 64.3533 4.33908 -1.22616 0
M  V30 701 C 63.0153 4.54544 -1.57933 0
M  V30 702 C 65.3673 4.77919 -2.07948 0
M  V30 703 C 62.6953 5.16444 -2.78393 0
M  V30 704 C 65.0473 5.41149 -3.27629 0
M  V30 705 C 63.7113 5.60014 -3.63236 0
M  V30 706 H 62.9813 0.74068 -0.021785 0
M  V30 707 H 65.6283 1.76128 -0.751735 0
M  V30 708 H 63.9333 3.82729 0.838178 0
M  V30 709 H 65.6303 3.98136 0.478439 0
M  V30 710 H 62.2203 4.18138 -0.941202 0
M  V30 711 H 66.4043 4.61738 -1.81967 0
M  V30 712 H 61.6603 5.29242 -3.06126 0
M  V30 713 H 65.8343 5.74211 -3.94023 0
M  V30 714 H 63.4613 6.07748 -4.56669 0
M  V30 715 N 65.0364 0.313813 1.54444 0
M  V30 716 C 65.9664 -0.549454 2.26943 0
M  V30 717 C 66.9474 -1.12741 1.27372 0
M  V30 718 O 68.1324 -1.15436 1.56167 0
M  V30 719 C 65.2624 -1.71523 3.01989 0
M  V30 720 C 64.2164 -1.26703 4.08816 0
M  V30 721 C 63.5424 -2.51898 4.71647 0
M  V30 722 C 64.8424 -0.388962 5.2085 0
M  V30 723 H 66.5364 0.0552661 2.99349 0
M  V30 724 H 64.0824 0.0280207 1.43973 0
M  V30 725 H 66.0354 -2.32535 3.51433 0
M  V30 726 H 64.7594 -2.34639 2.27183 0
M  V30 727 H 63.4184 -0.679896 3.6024 0
M  V30 728 H 63.0664 -3.13356 3.93468 0
M  V30 729 H 62.7664 -2.22605 5.43802 0
M  V30 730 H 64.2904 -3.1369 5.23861 0
M  V30 731 H 65.7044 -0.905107 5.6611 0
M  V30 732 H 64.1014 -0.18924 5.99802 0
M  V30 733 H 65.1714 0.582699 4.81386 0
M  V30 734 N 66.5145 -1.57545 0.0417849 0
M  V30 735 C 67.4615 -2.10977 -0.935805 0
M  V30 736 C 68.4315 -1.01486 -1.31491 0
M  V30 737 O 69.6165 -1.2898 -1.40602 0
M  V30 738 C 66.7565 -2.65169 -2.2086 0
M  V30 739 C 65.8695 -3.88714 -1.88482 0
M  V30 740 C 65.0045 -4.31254 -3.1015 0
M  V30 741 C 64.0435 -5.47524 -2.7365 0
M  V30 742 N 63.1805 -5.85162 -3.87982 0
M  V30 743 H 68.0205 -2.94218 -0.473249 0
M  V30 744 H 65.5575 -1.45415 -0.221981 0
M  V30 745 H 67.5155 -2.94685 -2.95325 0
M  V30 746 H 66.1455 -1.8474 -2.64709 0
M  V30 747 H 65.1975 -3.65849 -1.04205 0
M  V30 748 H 66.5095 -4.73245 -1.57608 0
M  V30 749 H 65.6635 -4.62273 -3.92923 0
M  V30 750 H 64.4025 -3.45516 -3.44195 0
M  V30 751 H 63.4075 -5.16187 -1.89291 0
M  V30 752 H 64.6325 -6.34971 -2.40807 0
M  V30 753 H 62.5785 -5.02377 -4.21846 0
M  V30 754 H 62.4955 -6.64362 -3.60775 0
M  V30 755 H 63.7635 -6.20791 -4.71422 0
M  V30 756 N 67.9926 0.231505 -1.5589 0
M  V30 757 C 69.2206 0.974505 -1.82513 0
M  V30 758 C 69.6356 1.78344 -0.619591 0
M  V30 759 O 68.9926 1.77792 0.411848 0
M  V30 760 C 69.0436 1.90007 -3.07538 0
M  V30 761 O 68.7646 1.12385 -4.2344 0
M  V30 762 C 70.2656 2.75779 -3.47075 0
M  V30 763 H 67.4856 0.286065 -0.606966 0
M  V30 764 H 70.0296 0.249739 -2.02969 0
M  V30 765 H 68.1846 2.57891 -2.89086 0
M  V30 766 H 68.5986 1.75125 -4.944 0
M  V30 767 H 70.0726 3.36443 -4.37619 0
M  V30 768 H 70.5496 3.47672 -2.68367 0
M  V30 769 H 71.1556 2.13323 -3.67931 0
M  V30 770 N 69.4707 1.49531 0.497807 0
M  V30 771 C 70.7167 1.59415 1.25358 0
M  V30 772 C 71.0497 0.281422 1.9215 0
M  V30 773 O 70.3247 -0.715249 1.80871 0
M  V30 774 C 70.6077 2.75566 2.3181 0
M  V30 775 C 70.4607 4.16642 1.69498 0
M  V30 776 C 71.7797 2.87347 3.33346 0
M  V30 777 H 68.8987 0.580244 0.454408 0
M  V30 778 H 71.5407 1.81827 0.551262 0
M  V30 779 H 69.6907 2.56587 2.91711 0
M  V30 780 H 71.3627 4.47145 1.13399 0
M  V30 781 H 69.6057 4.22141 0.998978 0
M  V30 782 H 70.2767 4.93792 2.46725 0
M  V30 783 H 72.7527 3.04634 2.83438 0
M  V30 784 H 71.6287 3.70289 4.05188 0
M  V30 785 H 71.8897 1.96834 3.95865 0
M  V30 786 N 70.9488 -0.749086 1.3866 0
M  V30 787 C 71.8958 -1.86291 1.36251 0
M  V30 788 C 72.8658 -1.64578 0.224347 0
M  V30 789 O 74.0508 -1.86181 0.417279 0
M  V30 790 C 71.1908 -3.23644 1.19786 0
M  V30 791 C 70.3038 -3.57158 2.43027 0
M  V30 792 C 69.4388 -4.83838 2.19258 0
M  V30 793 C 68.4778 -5.10152 3.38247 0
M  V30 794 N 67.6148 -6.28029 3.13884 0
M  V30 795 H 72.4548 -1.87685 2.3147 0
M  V30 796 H 69.9918 -0.917287 1.14997 0
M  V30 797 H 71.9498 -4.0291 1.08254 0
M  V30 798 H 70.5798 -3.21566 0.282031 0
M  V30 799 H 69.6318 -2.72701 2.65214 0
M  V30 800 H 70.9438 -3.7253 3.31697 0
M  V30 801 H 70.0978 -5.71057 2.04888 0
M  V30 802 H 68.8368 -4.70614 1.2796 0
M  V30 803 H 67.8418 -4.21401 3.53131 0
M  V30 804 H 69.0668 -5.25271 4.30427 0
M  V30 805 H 67.0128 -6.1612 2.25238 0
M  V30 806 H 66.9298 -6.43922 3.96106 0
M  V30 807 H 68.1978 -7.18124 3.03179 0
M  V30 808 N 72.4269 -1.23603 -0.977757 0
M  V30 809 C 73.3739 -1.01954 -2.07061 0
M  V30 810 C 74.3439 0.0638697 -1.65977 0
M  V30 811 O 75.5289 -0.0887624 -1.90593 0
M  V30 812 C 72.6689 -0.619658 -3.39491 0
M  V30 813 C 71.7819 -1.77547 -3.93829 0
M  V30 814 C 70.9169 -1.32212 -5.14484 0
M  V30 815 C 69.9559 -2.44852 -5.60994 0
M  V30 816 N 69.0929 -2.00456 -6.72876 0
M  V30 817 H 73.9329 -1.95495 -2.24913 0
M  V30 818 H 71.4699 -0.973861 -1.10247 0
M  V30 819 H 73.4279 -0.368898 -4.15566 0
M  V30 820 H 72.0579 0.278752 -3.21594 0
M  V30 821 H 71.1099 -2.14016 -3.14486 0
M  V30 822 H 72.4219 -2.62219 -4.24314 0
M  V30 823 H 71.5759 -1.02965 -5.97899 0
M  V30 824 H 70.3149 -0.445808 -4.85658 0
M  V30 825 H 69.3199 -2.74871 -4.76157 0
M  V30 826 H 70.5449 -3.33024 -5.91837 0
M  V30 827 H 68.4909 -1.15208 -6.45804 0
M  V30 828 H 68.4079 -2.78687 -7.02759 0
M  V30 829 H 69.6759 -1.7432 -7.59758 0
M  V30 830 N 73.905 1.17692 -1.04816 0
M  V30 831 C 74.853 2.23632 -0.63966 0
M  V30 832 C 75.847 1.6601 0.337219 0
M  V30 833 O 77.053 1.78844 0.203693 0
M  V30 834 H 73.428 0.727949 -0.188665 0
M  V30 835 H 75.399 2.55387 -1.54337 0
M  V30 836 C 74.148 3.4769 -0.0264051 0
M  V30 837 H 73.471 3.92331 -0.769164 0
M  V30 838 H 74.911 4.23418 0.222098 0
M  V30 839 C 73.37 3.13807 1.22584 0
M  V30 840 O 73.9 3.28236 2.31569 0
M  V30 841 N 72.106 2.68065 1.12202 0
M  V30 842 H 71.653 2.56525 0.235133 0
M  V30 843 H 71.611 2.45767 1.96076 0
M  V30 844 N 75.3831 0.828654 1.34056 0
M  V30 845 C 76.3301 0.252567 2.29414 0
M  V30 846 C 77.3001 -0.62588 1.53857 0
M  V30 847 O 78.4851 -0.566312 1.82202 0
M  V30 848 C 75.6251 -0.574831 3.40279 0
M  V30 849 C 74.7381 0.326499 4.30764 0
M  V30 850 C 73.8731 -0.511016 5.28736 0
M  V30 851 C 72.9121 0.389342 6.1086 0
M  V30 852 N 72.0491 -0.409439 7.00905 0
M  V30 853 H 76.8891 1.07108 2.78086 0
M  V30 854 H 74.4261 0.539677 1.36843 0
M  V30 855 H 76.3841 -1.06992 4.03248 0
M  V30 856 H 75.0141 -1.35841 2.92826 0
M  V30 857 H 74.0661 0.939837 3.68607 0
M  V30 858 H 75.3781 1.01857 4.88289 0
M  V30 859 H 74.5321 -1.07035 5.97184 0
M  V30 860 H 73.2711 -1.23657 4.71763 0
M  V30 861 H 72.2761 0.960769 5.4134 0
M  V30 862 H 73.5011 1.1131 6.69916 0
M  V30 863 H 71.4471 -1.11856 6.46393 0
M  V30 864 H 71.3641 0.224126 7.55668 0
M  V30 865 H 72.6321 -0.951336 7.73673 0
M  V30 866 N 76.8612 -1.46375 0.584142 0
M  V30 867 C 77.8112 -2.27371 -0.169232 0
M  V30 868 C 78.7952 -1.35955 -0.860523 0
M  V30 869 O 79.9872 -1.60119 -0.754382 0
M  V30 870 C 77.1162 -3.22334 -1.18134 0
M  V30 871 C 76.2022 -4.21235 -0.492088 0
M  V30 872 N 76.5932 -5.03766 0.453129 0
M  V30 873 C 74.8912 -4.39773 -0.742652 0
M  V30 874 C 75.5922 -5.75366 0.85609 0
M  V30 875 N 74.5682 -5.43214 0.204926 0
M  V30 876 H 78.3702 -2.88572 0.557097 0
M  V30 877 H 75.8842 -1.57242 0.406042 0
M  V30 878 H 77.8812 -3.79071 -1.73525 0
M  V30 879 H 76.5412 -2.62693 -1.90847 0
M  V30 880 H 77.5522 -5.11227 0.828723 0
M  V30 881 H 74.2292 -3.91279 -1.45625 0
M  V30 882 H 75.6192 -6.5172 1.63434 0
M  V30 883 N 78.3393 -0.321999 -1.54275 0
M  V30 884 C 79.2863 0.544664 -2.24281 0
M  V30 885 C 80.2563 1.1129 -1.23303 0
M  V30 886 O 81.4413 1.15354 -1.51981 0
M  V30 887 C 78.5813 1.70045 -3.00298 0
M  V30 888 C 77.6943 1.16159 -4.1609 0
M  V30 889 C 76.8293 2.28293 -4.79641 0
M  V30 890 C 75.8683 1.71648 -5.8754 0
M  V30 891 N 75.0053 2.77438 -6.44959 0
M  V30 892 H 79.8453 -0.0588907 -2.97942 0
M  V30 893 H 77.3823 -0.0408345 -1.47043 0
M  V30 894 H 79.3403 2.38054 -3.42616 0
M  V30 895 H 77.9703 2.27531 -2.28975 0
M  V30 896 H 77.0223 0.373092 -3.78566 0
M  V30 897 H 78.3343 0.707087 -4.93763 0
M  V30 898 H 77.4883 3.0421 -5.2492 0
M  V30 899 H 76.2273 2.77079 -4.01346 0
M  V30 900 H 75.2323 0.942282 -5.41665 0
M  V30 901 H 76.4573 1.23741 -6.67731 0
M  V30 902 H 74.4033 3.25519 -5.69538 0
M  V30 903 H 74.3203 2.36547 -7.1804 0
M  V30 904 H 75.5883 3.53189 -6.94894 0
M  V30 905 N 79.8174 1.5752 -0.0501392 0
M  V30 906 C 81.0644 1.9265 0.623874 0
M  V30 907 C 81.3924 0.928411 1.70912 0
M  V30 908 O 80.6474 -0.0594525 1.9561 0
M  V30 909 C 80.9464 3.34467 1.25963 0
M  V30 910 C 80.6124 4.49883 0.302689 0
M  V30 911 C 79.2744 4.81184 0.0393636 0
M  V30 912 C 81.6264 5.20002 -0.353205 0
M  V30 913 C 78.9544 5.79951 -0.887308 0
M  V30 914 C 81.3064 6.1976 -1.26806 0
M  V30 915 C 79.9704 6.49491 -1.54007 0
M  V30 916 H 79.2404 0.704957 0.228292 0
M  V30 917 H 81.8874 1.91146 -0.116398 0
M  V30 918 H 80.1924 3.32333 2.07514 0
M  V30 919 H 81.8894 3.58928 1.78806 0
M  V30 920 H 78.4794 4.25457 0.518109 0
M  V30 921 H 82.6634 4.96033 -0.162854 0
M  V30 922 H 77.9194 6.01322 -1.10553 0
M  V30 923 H 82.0934 6.73205 -1.78236 0
M  V30 924 H 79.7204 7.25837 -2.25976 0
M  V30 925 N 81.2955 -0.223234 1.56011 0
M  V30 926 C 82.5255 -0.963413 1.82762 0
M  V30 927 C 82.9335 -1.78516 0.626804 0
M  V30 928 O 82.2765 -1.78974 -0.414014 0
M  V30 929 C 82.3385 -1.93126 3.0322 0
M  V30 930 C 82.0025 -1.2942 4.38291 0
M  V30 931 C 82.9995 -0.684916 5.15369 0
M  V30 932 C 80.6845 -1.30647 4.85012 0
M  V30 933 C 82.6785 -0.0963971 6.37327 0
M  V30 934 C 80.3655 -0.71411 6.06913 0
M  V30 935 C 81.3635 -0.110123 6.82911 0
M  V30 936 O 81.0515 0.47303 8.02507 0
M  V30 937 H 80.7835 -0.288011 0.611576 0
M  V30 938 H 83.3375 -0.244103 2.03944 0
M  V30 939 H 81.5675 -2.68952 2.77852 0
M  V30 940 H 83.2565 -2.53685 3.16857 0
M  V30 941 H 84.0225 -0.667774 4.80381 0
M  V30 942 H 79.9015 -1.76598 4.25833 0
M  V30 943 H 83.4455 0.375657 6.96588 0
M  V30 944 H 79.3425 -0.728659 6.41374 0
M  V30 945 H 80.1105 0.367186 8.17676 0
M  V30 946 N 82.7736 -1.49793 -0.48987 0
M  V30 947 C 84.1846 -1.52914 -1.07118 0
M  V30 948 C 84.5356 -0.321738 -1.93544 0
M  V30 949 O 83.6606 0.567338 -2.08831 0
M  V30 950 C 84.2556 -2.771 -1.94938 0
M  V30 951 C 82.8146 -2.82963 -2.48212 0
M  V30 952 C 81.9616 -2.46972 -1.26096 0
M  V30 953 H 84.9126 -1.56329 -0.273289 0
M  V30 954 H 84.9336 -2.57892 -2.79771 0
M  V30 955 H 84.4456 -3.64959 -1.32009 0
M  V30 956 H 82.5466 -1.99411 -3.14748 0
M  V30 957 H 82.6596 -3.85406 -2.84603 0
M  V30 958 H 81.0236 -1.98994 -1.58976 0
M  V30 959 H 81.8066 -3.37118 -0.648581 0
M  V30 960 N 84.2517 0.741722 -1.39055 0
M  V30 961 C 85.2147 1.83733 -1.37021 0
M  V30 962 C 86.2147 1.58542 -0.268534 0
M  V30 963 O 87.4047 1.66067 -0.526076 0
M  V30 964 C 84.5367 3.2141 -1.13617 0
M  V30 965 H 85.7297 1.86941 -2.34506 0
M  V30 966 H 83.2827 0.944676 -1.24521 0
M  V30 967 H 84.0177 3.23865 -0.167863 0
M  V30 968 H 83.8027 3.4109 -1.93391 0
M  V30 969 H 85.2927 4.01477 -1.14918 0
M  V30 970 N 85.7298 1.2412 0.971189 0
M  V30 971 C 86.9768 1.07881 1.71371 0
M  V30 972 C 87.3048 -0.382901 1.90694 0
M  V30 973 O 86.5598 -1.29945 1.46331 0
M  V30 974 C 86.8588 1.75983 3.11071 0
M  V30 975 C 86.5248 3.25909 3.11599 0
M  V30 976 C 85.1868 3.66813 3.11451 0
M  V30 977 C 87.5388 4.21771 3.062 0
M  V30 978 C 84.8668 5.02021 3.03631 0
M  V30 979 C 87.2188 5.56982 2.99923 0
M  V30 980 C 85.8828 5.97237 2.98102 0
M  V30 981 H 85.1528 0.394764 0.62709 0
M  V30 982 H 87.7998 1.54176 1.13587 0
M  V30 983 H 86.1048 1.22072 3.72298 0
M  V30 984 H 87.8018 1.60887 3.6731 0
M  V30 985 H 84.3918 2.93353 3.12477 0
M  V30 986 H 88.5758 3.91172 3.05447 0
M  V30 987 H 83.8318 5.32411 3.0058 0
M  V30 988 H 88.0058 6.30969 2.94704 0
M  V30 989 H 85.6328 7.01967 2.91798 0
M  V30 990 N 87.2079 -1.17134 1.05439 0
M  V30 991 C 88.4569 -1.86791 0.761049 0
M  V30 992 C 88.7699 -1.82072 -0.714795 0
M  V30 993 O 89.9759 -2.47223 -1.12218 0
M  V30 994 C 88.4319 -3.35166 1.31117 0
M  V30 995 C 88.0399 -3.48381 2.81664 0
M  V30 996 C 89.7839 -4.10134 1.09499 0
M  V30 997 C 87.6909 -4.90793 3.29964 0
M  V30 998 H 86.6209 -0.699681 0.281002 0
M  V30 999 H 89.2719 -1.3226 1.27199 0
M  V30 1000 H 87.6539 -3.8925 0.72803 0
M  V30 1001 H 88.8279 -3.04502 3.45855 0
M  V30 1002 H 87.1429 -2.86836 3.01851 0
M  V30 1003 H 89.7399 -5.152 1.43084 0
M  V30 1004 H 90.0829 -4.16287 0.0328772 0
M  V30 1005 H 90.6159 -3.62264 1.64346 0
M  V30 1006 H 87.3549 -4.89816 4.35616 0
M  V30 1007 H 86.8749 -5.35333 2.70516 0
M  V30 1008 H 88.5539 -5.59573 3.24787 0
M  V30 1009 N 88.686 -0.835752 -1.33615 0
M  V30 1010 C 89.636 -0.238856 -2.26745 0
M  V30 1011 C 90.62 0.604343 -1.49119 0
M  V30 1012 O 91.812 0.456822 -1.71003 0
M  V30 1013 C 88.941 0.587725 -3.38232 0
M  V30 1014 C 88.027 -0.266811 -4.2326 0
M  V30 1015 N 88.418 -1.34403 -4.87616 0
M  V30 1016 C 86.716 -0.0533131 -4.45968 0
M  V30 1017 C 87.417 -1.86819 -5.50884 0
M  V30 1018 N 86.393 -1.17013 -5.30857 0
M  V30 1019 H 90.195 -1.06266 -2.74016 0
M  V30 1020 H 87.709 -0.679881 -1.47483 0
M  V30 1021 H 89.706 1.03161 -4.03935 0
M  V30 1022 H 88.366 1.40954 -2.9251 0
M  V30 1023 H 89.377 -1.7269 -4.88261 0
M  V30 1024 H 86.054 0.735312 -4.10974 0
M  V30 1025 H 87.444 -2.7701 -6.1214 0
M  V30 1026 N 90.1641 1.46063 -0.591896 0
M  V30 1027 C 91.4131 2.01547 -0.0786637 0
M  V30 1028 C 91.7261 1.46796 1.29268 0
M  V30 1029 O 92.9321 1.94157 1.89777 0
M  V30 1030 C 91.3881 3.59787 -0.0900024 0
M  V30 1031 C 90.9961 4.23534 -1.46023 0
M  V30 1032 C 92.7401 4.22895 0.368806 0
M  V30 1033 C 90.6471 5.73881 -1.4288 0
M  V30 1034 H 89.5771 0.753564 -0.0256388 0
M  V30 1035 H 92.2281 1.677 -0.744905 0
M  V30 1036 H 90.6101 3.90752 0.642586 0
M  V30 1037 H 91.7841 4.04167 -2.21328 0
M  V30 1038 H 90.0991 3.72558 -1.85982 0
M  V30 1039 H 92.6961 5.33116 0.411258 0
M  V30 1040 H 93.0391 3.9247 1.38827 0
M  V30 1041 H 93.5721 3.9659 -0.31001 0
M  V30 1042 H 90.3111 6.0898 -2.42536 0
M  V30 1043 H 89.8311 5.95486 -0.718095 0
M  V30 1044 H 91.5101 6.36776 -1.14565 0
M  V30 1045 N 91.6422 0.330177 1.54103 0
M  V30 1046 C 92.5722 -0.525353 2.27513 0
M  V30 1047 C 93.5532 -1.11383 1.2856 0
M  V30 1048 O 94.7382 -1.13773 1.57383 0
M  V30 1049 C 91.8682 -1.6831 3.03791 0
M  V30 1050 C 90.8222 -1.2236 4.10137 0
M  V30 1051 C 90.1482 -2.46882 4.74293 0
M  V30 1052 C 91.4482 -0.333697 5.21233 0
M  V30 1053 H 93.1422 0.087013 2.99274 0
M  V30 1054 H 90.6882 0.0432893 1.43935 0
M  V30 1055 H 92.6412 -2.28795 3.5388 0
M  V30 1056 H 91.3652 -2.32216 2.29659 0
M  V30 1057 H 90.0242 -0.64165 3.60941 0
M  V30 1058 H 89.6722 -3.09165 3.96769 0
M  V30 1059 H 89.3722 -2.16825 5.46133 0
M  V30 1060 H 90.8962 -3.08117 5.27159 0
M  V30 1061 H 92.3102 -0.845013 5.67038 0
M  V30 1062 H 90.7072 -0.125612 5.99969 0
M  V30 1063 H 91.7772 0.633724 4.80741 0
M  V30 1064 N 93.1203 -1.57491 0.0584922 0
M  V30 1065 C 94.0833 -2.1085 -0.898617 0
M  V30 1066 C 95.0833 -1.02964 -1.23511 0
M  V30 1067 O 96.2733 -1.29007 -1.17059 0
M  V30 1068 C 93.4053 -2.59881 -2.20623 0
M  V30 1069 H 94.5983 -2.96715 -0.435936 0
M  V30 1070 H 92.1513 -1.55141 -0.190023 0
M  V30 1071 H 92.8863 -1.77431 -2.71457 0
M  V30 1072 H 92.6713 -3.38727 -1.97501 0
M  V30 1073 H 94.1613 -3.01285 -2.89166 0
M  V30 1074 N 94.5984 0.214957 -1.56127 0
M  V30 1075 C 96.0144 0.564948 -1.49267 0
M  V30 1076 C 96.2144 1.86827 -0.754838 0
M  V30 1077 O 95.2704 2.50745 -0.297198 0
M  V30 1078 C 96.5834 0.638071 -2.93852 0
M  V30 1079 C 98.1314 0.728253 -3.0441 0
M  V30 1080 C 98.6064 0.832663 -4.50367 0
M  V30 1081 N 100.097 0.896712 -4.54437 0
M  V30 1082 C 100.832 0.997324 -5.6466 0
M  V30 1083 N 100.328 1.06147 -6.8462 0
M  V30 1084 N 102.121 1.03297 -5.52527 0
M  V30 1085 H 94.2724 -0.640211 -2.02522 0
M  V30 1086 H 96.5354 -0.225507 -0.920788 0
M  V30 1087 H 96.2414 -0.250126 -3.50809 0
M  V30 1088 H 96.1154 1.49947 -3.46115 0
M  V30 1089 H 98.5024 1.60689 -2.47514 0
M  V30 1090 H 98.5834 -0.158952 -2.55306 0
M  V30 1091 H 98.2274 -0.0415417 -5.07883 0
M  V30 1092 H 98.1574 1.73538 -4.97184 0
M  V30 1093 H 100.648 0.857188 -3.6805 0
M  V30 1094 H 100.961 1.1382 -7.64372 0
M  V30 1095 H 99.3064 1.03049 -6.87318 0
M  V30 1096 H 102.497 0.979558 -4.57736 0
M  V30 1097 H 102.67 1.10793 -6.38458 0
M  V30 1098 N 96.0765 1.50051 0.48192 0
M  V30 1099 C 97.0065 1.71046 1.58951 0
M  V30 1100 C 97.9875 0.559288 1.60642 0
M  V30 1101 O 99.1725 0.797243 1.77081 0
M  V30 1102 C 96.3025 1.79462 2.97339 0
M  V30 1103 C 95.2565 2.94558 3.10515 0
M  V30 1104 C 94.5825 2.88105 4.50444 0
M  V30 1105 C 95.8825 4.35227 2.88747 0
M  V30 1106 H 97.5765 2.6378 1.41635 0
M  V30 1107 H 95.1225 1.26936 0.679942 0
M  V30 1108 H 97.0755 1.92734 3.74742 0
M  V30 1109 H 95.7995 0.833412 3.15788 0
M  V30 1110 H 94.4585 2.80918 2.35543 0
M  V30 1111 H 94.1065 1.89853 4.65795 0
M  V30 1112 H 93.8065 3.65366 4.60197 0
M  V30 1113 H 95.3305 3.03412 5.29881 0
M  V30 1114 H 96.7445 4.49449 3.55905 0
M  V30 1115 H 95.1415 5.13856 3.09955 0
M  V30 1116 H 96.2115 4.48347 1.84696 0
M  V30 1117 N 97.5546 -0.734337 1.39446 0
M  V30 1118 C 98.4876 -1.85715 1.32609 0
M  V30 1119 C 99.4656 -1.6137 0.199636 0
M  V30 1120 O 100.65 -1.84626 0.380195 0
M  V30 1121 C 97.7766 -3.21709 1.05929 0
M  V30 1122 C 96.8226 -3.64913 2.20773 0
M  V30 1123 S 97.6556 -3.74203 3.83056 0
M  V30 1124 C 98.8116 -5.12986 3.58603 0
M  V30 1125 H 99.0446 -1.91232 2.27635 0
M  V30 1126 H 96.5776 -0.899263 1.25509 0
M  V30 1127 H 98.5356 -4.00236 0.912203 0
M  V30 1128 H 97.1966 -3.13848 0.125883 0
M  V30 1129 H 96.3896 -4.63606 1.97699 0
M  V30 1130 H 95.9916 -2.93593 2.31688 0
M  V30 1131 H 98.2836 -5.99339 3.15909 0
M  V30 1132 H 99.2266 -5.41088 4.5676 0
M  V30 1133 H 99.6346 -4.82694 2.9269 0
M  V30 1134 N 99.0327 -1.24633 -0.964593 0
M  V30 1135 C 99.9807 -1.03917 -2.08096 0
M  V30 1136 C 100.975 0.0268581 -1.69379 0
M  V30 1137 O 102.181 -0.127952 -1.79545 0
M  V30 1138 H 98.5557 -0.319044 -0.680966 0
M  V30 1139 H 100.527 -1.98581 -2.22729 0
M  V30 1140 C 99.2757 -0.663983 -3.41301 0
M  V30 1141 H 98.5987 -1.47605 -3.71555 0
M  V30 1142 H 100.039 -0.558663 -4.20303 0
M  V30 1143 C 98.4977 0.629169 -3.30973 0
M  V30 1144 O 99.0277 1.67404 -3.65156 0
M  V30 1145 N 97.2337 0.611057 -2.84103 0
M  V30 1146 H 96.7807 -0.239593 -2.56483 0
M  V30 1147 H 96.7387 1.47647 -2.77575 0
M  V30 1148 N 100.511 1.16574 -1.06058 0
M  V30 1149 C 101.474 2.19085 -0.673392 0
M  V30 1150 C 102.474 1.5835 0.279648 0
M  V30 1151 O 103.664 1.74088 0.0623488 0
M  V30 1152 C 100.796 3.40899 0.00954234 0
M  V30 1153 H 101.989 2.54853 -1.58081 0
M  V30 1154 H 99.5418 1.30808 -0.855516 0
M  V30 1155 H 100.277 3.10684 0.929826 0
M  V30 1156 H 100.062 3.86233 -0.67573 0
M  V30 1157 H 101.552 4.1675 0.266245 0
M  V30 1158 N 101.989 0.842826 1.3317 0
M  V30 1159 C 102.939 0.250877 2.26616 0
M  V30 1160 C 103.923 -0.596427 1.49437 0
M  V30 1161 O 105.115 -0.447747 1.71243 0
M  V30 1162 C 102.244 -0.569779 3.38539 0
M  V30 1163 C 101.33 0.289254 4.23112 0
M  V30 1164 N 101.721 1.36987 4.86897 0
M  V30 1165 C 100.019 0.0769631 4.45934 0
M  V30 1166 C 100.72 1.89737 5.49886 0
M  V30 1167 N 99.6959 1.19827 5.30229 0
M  V30 1168 H 103.498 1.07718 2.73448 0
M  V30 1169 H 101.012 0.687693 1.47121 0
M  V30 1170 H 103.009 -1.01018 4.04476 0
M  V30 1171 H 101.669 -1.39401 2.93253 0
M  V30 1172 H 102.68 1.75277 4.87338 0
M  V30 1173 H 99.3569 -0.713507 4.11358 0
M  V30 1174 H 100.747 2.80253 6.10662 0
M  V30 1175 N 103.467 -1.45747 0.599634 0
M  V30 1176 C 104.878 -1.85853 0.177681 0
M  V30 1177 C 105.229 -1.50102 -1.26348 0
M  V30 1178 O 104.354 -0.923905 -1.95686 0
M  V30 1179 C 104.949 -3.37326 0.315688 0
M  V30 1180 C 103.508 -3.76365 -0.0515144 0
M  V30 1181 C 102.655 -2.69722 0.643822 0
M  V30 1182 H 105.606 -1.36661 0.806814 0
M  V30 1183 H 105.627 -3.77778 -0.454321 0
M  V30 1184 H 105.139 -3.63315 1.36468 0
M  V30 1185 H 103.24 -3.55993 -1.09999 0
M  V30 1186 H 103.353 -4.77916 0.336594 0
M  V30 1187 H 101.717 -2.54567 0.0822881 0
M  V30 1188 H 102.5 -2.98549 1.6948 0
M  V30 1189 N 104.945 -0.338344 -1.53925 0
M  V30 1190 C 105.855 0.529421 -2.28548 0
M  V30 1191 C 106.871 1.11645 -1.3346 0
M  V30 1192 O 108.047 1.13325 -1.66492 0
M  V30 1193 C 105.112 1.66713 -3.03987 0
M  V30 1194 C 104.173 1.11041 -4.14691 0
M  V30 1195 C 103.406 2.19389 -4.86522 0
M  V30 1196 O 103.629 3.40013 -4.57982 0
M  V30 1197 O 102.563 1.83976 -5.73094 0
M  V30 1198 H 106.389 -0.0770399 -3.03602 0
M  V30 1199 H 103.974 -0.103555 -1.49041 0
M  V30 1200 H 105.856 2.32918 -3.5118 0
M  V30 1201 H 104.531 2.25949 -2.31794 0
M  V30 1202 H 103.438 0.413024 -3.71813 0
M  V30 1203 H 104.771 0.562975 -4.8897 0
M  V30 1204 N 106.423 1.57458 -0.0668435 0
M  V30 1205 C 107.67 1.93301 0.603406 0
M  V30 1206 C 107.998 0.946486 1.69917 0
M  V30 1207 O 107.253 -0.0387021 1.95662 0
M  V30 1208 C 107.552 3.35784 1.22409 0
M  V30 1209 C 107.218 4.50179 0.254955 0
M  V30 1210 C 105.88 4.81199 -0.0116746 0
M  V30 1211 C 108.232 5.19598 -0.408338 0
M  V30 1212 C 105.56 5.78978 -0.94877 0
M  V30 1213 C 107.912 6.18381 -1.33372 0
M  V30 1214 C 106.576 6.47821 -1.60887 0
M  V30 1215 H 105.846 0.707338 0.220802 0
M  V30 1216 H 108.493 1.91012 -0.136665 0
M  V30 1217 H 106.798 3.34515 2.03978 0
M  V30 1218 H 108.495 3.60804 1.74989 0
M  V30 1219 H 105.085 4.25983 0.472954 0
M  V30 1220 H 109.269 4.95832 -0.215456 0
M  V30 1221 H 104.525 6.00115 -1.16925 0
M  V30 1222 H 108.699 6.71277 -1.85367 0
M  V30 1223 H 106.326 7.23399 -2.33661 0
M  V30 1224 N 107.901 -0.206675 1.56239 0
M  V30 1225 C 109.317 -0.557025 1.49564 0
M  V30 1226 C 109.517 -1.86424 0.764735 0
M  V30 1227 O 108.573 -2.50584 0.310491 0
M  V30 1228 C 109.886 -0.622478 2.94186 0
M  V30 1229 C 111.434 -0.712099 3.04792 0
M  V30 1230 C 111.909 -0.808767 4.50803 0
M  V30 1231 N 113.4 -0.8726 4.54907 0
M  V30 1232 C 114.135 -0.967365 5.65181 0
M  V30 1233 N 113.631 -1.02515 6.85173 0
M  V30 1234 N 115.424 -1.00366 5.53067 0
M  V30 1235 H 107.575 0.650943 2.02179 0
M  V30 1236 H 109.838 0.230387 0.919579 0
M  V30 1237 H 109.544 0.268727 3.50672 0
M  V30 1238 H 109.418 -1.4811 3.46905 0
M  V30 1239 H 111.805 -1.59374 2.48363 0
M  V30 1240 H 111.886 0.172489 2.55218 0
M  V30 1241 H 111.53 0.0684754 5.07854 0
M  V30 1242 H 111.46 -1.70899 4.98098 0
M  V30 1243 H 113.951 -0.837657 3.68499 0
M  V30 1244 H 114.264 -1.09765 7.64965 0
M  V30 1245 H 112.609 -0.994026 6.87855 0
M  V30 1246 H 115.8 -0.95527 4.58249 0
M  V30 1247 H 115.973 -1.07405 6.39037 0
M  V30 1248 N 109.379 -1.50304 -0.473955 0
M  V30 1249 C 110.312 -1.63595 -1.59097 0
M  V30 1250 C 111.29 -0.484142 -1.55225 0
M  V30 1251 O 112.474 -0.703271 -1.7489 0
M  V30 1252 C 109.601 -1.61589 -2.97669 0
M  V30 1253 C 108.647 -2.82295 -3.19705 0
M  V30 1254 S 109.48 -4.43635 -2.99913 0
M  V30 1255 C 110.636 -4.44317 -4.40832 0
M  V30 1256 H 110.869 -2.58082 -1.47583 0
M  V30 1257 H 108.402 -1.39531 -0.661087 0
M  V30 1258 H 110.36 -1.61116 -3.7756 0
M  V30 1259 H 109.021 -0.683421 -3.06575 0
M  V30 1260 H 108.214 -2.77188 -4.20931 0
M  V30 1261 H 107.816 -2.8032 -2.47582 0
M  V30 1262 H 110.108 -4.17703 -5.33414 0
M  V30 1263 H 111.051 -5.45911 -4.50984 0
M  V30 1264 H 111.459 -3.74059 -4.22777 0
M  V30 1265 N 110.857 0.726932 -1.39834 0
M  V30 1266 C 111.82 1.82269 -1.38962 0
M  V30 1267 C 112.82 1.58248 -0.285334 0
M  V30 1268 O 114.01 1.65499 -0.54366 0
M  V30 1269 C 111.142 3.20186 -1.17019 0
M  V30 1270 H 112.335 1.84443 -2.36476 0
M  V30 1271 H 109.888 0.931416 -1.25516 0
M  V30 1272 H 110.623 3.23669 -0.202204 0
M  V30 1273 H 110.408 3.3902 -1.96998 0
M  V30 1274 H 111.898 4.00235 -1.1917 0
M  V30 1275 N 112.336 1.25143 0.95797 0
M  V30 1276 C 113.269 0.995565 2.05338 0
M  V30 1277 C 114.247 -0.0740423 1.62431 0
M  V30 1278 O 115.431 0.0649212 1.88388 0
M  V30 1279 C 112.558 0.504298 3.34925 0
M  V30 1280 C 111.604 1.56393 3.96792 0
M  V30 1281 S 112.437 3.14815 4.33188 0
M  V30 1282 C 113.593 2.67415 5.65898 0
M  V30 1283 H 113.826 1.92309 2.26726 0
M  V30 1284 H 111.359 1.08635 1.09716 0
M  V30 1285 H 113.317 0.227497 4.09869 0
M  V30 1286 H 111.978 -0.402671 3.11508 0
M  V30 1287 H 111.171 1.17082 4.90212 0
M  V30 1288 H 110.773 1.79124 3.28315 0
M  V30 1289 H 113.065 2.10833 6.4386 0
M  V30 1290 H 114.008 3.59463 6.10076 0
M  V30 1291 H 114.416 2.07521 5.24972 0
M  V30 1292 N 113.814 -1.1601 1.06675 0
M  V30 1293 C 114.761 -2.20525 0.680967 0
M  V30 1294 C 115.731 -1.62904 -0.324283 0
M  V30 1295 O 116.916 -1.89615 -0.212294 0
M  V30 1296 C 114.056 -3.45013 0.0776551 0
M  V30 1297 C 113.169 -4.16863 1.13355 0
M  V30 1298 C 112.304 -5.2888 0.49597 0
M  V30 1299 C 111.343 -5.92537 1.53513 0
M  V30 1300 N 110.48 -6.96038 0.920631 0
M  V30 1301 H 115.32 -2.52876 1.57663 0
M  V30 1302 H 112.857 -1.24199 0.788223 0
M  V30 1303 H 114.815 -4.16193 -0.289704 0
M  V30 1304 H 113.445 -3.132 -0.781393 0
M  V30 1305 H 112.497 -3.44248 1.61857 0
M  V30 1306 H 113.809 -4.60294 1.92174 0
M  V30 1307 H 112.963 -6.06653 0.0758604 0
M  V30 1308 H 111.702 -4.86622 -0.324062 0
M  V30 1309 H 110.707 -5.13482 1.9651 0
M  V30 1310 H 111.932 -6.36873 2.35733 0
M  V30 1311 H 109.878 -6.55888 0.12138 0
M  V30 1312 H 109.795 -7.3786 1.64616 0
M  V30 1313 H 111.063 -7.77725 0.525795 0
M  V30 1314 N 115.292 -0.849877 -1.32721 0
M  V30 1315 C 116.569 -0.372405 -1.92022 0
M  V30 1316 C 116.949 1.1435 -1.77447 0
M  V30 1317 O 116.297 1.96296 -1.16962 0
M  V30 1318 C 116.507 -0.831482 -3.3895 0
M  V30 1319 C 117.855 -0.845882 -4.16089 0
M  V30 1320 O 118.879 -0.775806 -3.47649 0
M  V30 1321 O 117.738 -0.943753 -5.38289 0
M  V30 1322 H 114.832 -0.107667 -0.819961 0
M  V30 1323 H 117.378 -0.93646 -1.41522 0
M  V30 1324 H 116.15 -1.87448 -3.4348 0
M  V30 1325 H 115.773 -0.24461 -3.96847 0
M  V30 1326 N 116.77 1.45427 -0.607355 0
M  V30 1327 C 118.018 2.01841 -0.102253 0
M  V30 1328 C 118.339 1.47832 1.27164 0
M  V30 1329 O 117.609 0.672497 1.83995 0
M  V30 1330 H 116.189 0.746188 -0.0348101 0
M  V30 1331 H 118.851 1.78229 -0.7887 0
M  V30 1332 H 117.947 3.12057 -0.0518585 0
M  V30 1333 N 118.248 0.346503 1.53744 0
M  V30 1334 C 119.158 -0.517293 2.28826 0
M  V30 1335 C 120.174 -1.10935 1.3405 0
M  V30 1336 O 121.35 -1.1244 1.6709 0
M  V30 1337 C 118.415 -1.65098 3.04866 0
M  V30 1338 C 117.476 -1.0884 4.15274 0
M  V30 1339 C 116.709 -2.16806 4.87679 0
M  V30 1340 O 116.932 -3.3758 4.59778 0
M  V30 1341 O 115.866 -1.80934 5.74061 0
M  V30 1342 H 119.692 0.0931396 3.03557 0
M  V30 1343 H 117.277 0.111458 1.48984 0
M  V30 1344 H 119.159 -2.31053 3.5241 0
M  V30 1345 H 117.834 -2.24717 2.32989 0
M  V30 1346 H 116.741 -0.3933 3.72027 0
M  V30 1347 H 118.074 -0.537036 4.89261 0
M  V30 1348 N 119.726 -1.57421 0.075193 0
M  V30 1349 C 120.656 -2.15942 -0.888324 0
M  V30 1350 C 121.637 -1.08737 -1.30806 0
M  V30 1351 O 122.822 -1.36787 -1.37851 0
M  V30 1352 C 119.952 -2.72379 -2.1547 0
M  V30 1353 C 118.906 -3.8478 -1.87425 0
M  V30 1354 C 118.232 -4.27834 -3.20721 0
M  V30 1355 C 119.532 -5.08869 -1.17684 0
M  V30 1356 H 121.226 -2.96705 -0.400799 0
M  V30 1357 H 118.772 -1.42723 -0.191342 0
M  V30 1358 H 120.725 -3.11965 -2.83295 0
M  V30 1359 H 119.449 -1.88841 -2.6647 0
M  V30 1360 H 118.108 -3.45703 -1.22004 0
M  V30 1361 H 117.756 -3.41214 -3.6957 0
M  V30 1362 H 117.456 -5.03605 -3.02746 0
M  V30 1363 H 118.98 -4.70039 -3.89738 0
M  V30 1364 H 120.394 -5.4575 -1.75584 0
M  V30 1365 H 118.791 -5.8994 -1.09956 0
M  V30 1366 H 119.861 -4.84648 -0.156453 0
M  V30 1367 N 121.204 0.198386 -1.56346 0
M  V30 1368 C 122.45 0.920648 -1.80698 0
M  V30 1369 C 122.783 1.83045 -0.648697 0
M  V30 1370 O 122.058 1.91308 0.350925 0
M  V30 1371 C 122.341 1.73971 -3.15287 0
M  V30 1372 C 122.194 0.85485 -4.41602 0
M  V30 1373 C 123.513 2.71296 -3.46535 0
M  V30 1374 H 120.632 0.333261 -0.657348 0
M  V30 1375 H 123.274 0.188198 -1.89066 0
M  V30 1376 H 121.424 2.36416 -3.08285 0
M  V30 1377 H 123.096 0.245362 -4.60647 0
M  V30 1378 H 121.339 0.161398 -4.335 0
M  V30 1379 H 122.01 1.46286 -5.32264 0
M  V30 1380 H 124.486 2.18983 -3.53816 0
M  V30 1381 H 123.362 3.2569 -4.41834 0
M  V30 1382 H 123.623 3.5018 -2.69864 0
M  V30 1383 N 122.682 1.50554 0.465978 0
M  V30 1384 C 123.931 1.61038 1.21448 0
M  V30 1385 C 124.244 0.31865 1.92987 0
M  V30 1386 O 125.45 0.302469 2.6981 0
M  V30 1387 C 123.906 2.84283 2.20706 0
M  V30 1388 C 123.514 4.20352 1.54946 0
M  V30 1389 C 125.258 3.04115 2.96166 0
M  V30 1390 C 123.165 5.34778 2.5252 0
M  V30 1391 H 122.095 0.599718 0.457005 0
M  V30 1392 H 124.746 1.7699 0.484424 0
M  V30 1393 H 123.128 2.61901 2.97025 0
M  V30 1394 H 124.302 4.53008 0.843811 0
M  V30 1395 H 122.617 4.06167 0.917475 0
M  V30 1396 H 125.214 3.86774 3.69202 0
M  V30 1397 H 125.557 2.16045 3.55852 0
M  V30 1398 H 126.09 3.26702 2.26959 0
M  V30 1399 H 122.829 6.25018 1.97566 0
M  V30 1400 H 122.349 5.06534 3.21222 0
M  V30 1401 H 124.028 5.65561 3.14245 0
M  V30 1402 N 124.16 -0.719506 1.40217 0
M  V30 1403 C 125.406 -1.48034 1.39491 0
M  V30 1404 C 125.761 -1.92399 -0.00443536 0
M  V30 1405 O 125.054 -1.64993 -0.974061 0
M  V30 1406 C 125.248 -2.72271 2.31524 0
M  V30 1407 C 125.077 -2.40055 3.80268 0
M  V30 1408 C 123.847 -2.31588 4.49105 0
M  V30 1409 C 126.045 -2.04581 4.71859 0
M  V30 1410 N 124.027 -1.92006 5.83101 0
M  V30 1411 C 125.398 -1.75568 5.94623 0
M  V30 1412 C 127.453 -1.91183 4.59732 0
M  V30 1413 C 126.156 -1.34505 7.06612 0
M  V30 1414 C 128.182 -1.51524 5.71659 0
M  V30 1415 C 127.544 -1.23406 6.93506 0
M  V30 1416 H 123.643 -0.539927 0.565688 0
M  V30 1417 H 126.227 -0.834764 1.75897 0
M  V30 1418 H 124.398 -3.34584 1.97251 0
M  V30 1419 H 126.13 -3.38584 2.21682 0
M  V30 1420 H 122.885 -2.49199 4.02737 0
M  V30 1421 H 123.309 -1.74764 6.54054 0
M  V30 1422 H 127.951 -2.11584 3.66049 0
M  V30 1423 H 125.669 -1.12846 8.00182 0
M  V30 1424 H 129.255 -1.41741 5.6427 0
M  V30 1425 H 128.135 -0.931788 7.78645 0
M  V30 1426 N 125.638 -1.25649 -0.95132 0
M  V30 1427 C 126.915 -1.01361 -1.67288 0
M  V30 1428 C 127.295 0.459135 -2.06046 0
M  V30 1429 O 126.643 1.43723 -1.7764 0
M  V30 1430 C 126.853 -1.95256 -2.89268 0
M  V30 1431 C 128.201 -2.23289 -3.61147 0
M  V30 1432 O 129.225 -1.93041 -2.99355 0
M  V30 1433 O 128.084 -2.74741 -4.72419 0
M  V30 1434 H 125.178 -0.38464 -0.732107 0
M  V30 1435 H 127.724 -1.36817 -1.00395 0
M  V30 1436 H 126.496 -2.94685 -2.57442 0
M  V30 1437 H 126.119 -1.60218 -3.6389 0
M  V30 1438 N 127.117 1.15442 -1.07289 0
M  V30 1439 C 128.342 1.90638 -0.816828 0
M  V30 1440 C 128.767 1.77445 0.624083 0
M  V30 1441 O 128.125 1.10671 1.43602 0
M  V30 1442 C 128.173 3.39008 -1.22906 0
M  V30 1443 O 127.277 4.10701 -0.373975 0
M  V30 1444 H 126.618 0.593555 -0.297638 0
M  V30 1445 H 129.148 1.46198 -1.43134 0
M  V30 1446 H 129.158 3.89801 -1.20497 0
M  V30 1447 H 127.833 3.47929 -2.27856 0
M  V30 1448 H 126.41 3.70046 -0.460499 0
M  V30 1449 N 128.595 0.856903 1.32268 0
M  V30 1450 C 129.841 0.462069 1.97466 0
M  V30 1451 C 130.174 -0.980298 1.67642 0
M  V30 1452 O 129.449 -1.68824 0.965858 0
M  V30 1453 C 129.732 0.704336 3.53145 0
M  V30 1454 C 129.585 2.19529 3.9259 0
M  V30 1455 C 130.904 0.1622 4.39801 0
M  V30 1456 H 128.023 0.169357 0.717278 0
M  V30 1457 H 130.665 1.07574 1.56614 0
M  V30 1458 H 128.815 0.181999 3.88073 0
M  V30 1459 H 130.487 2.78387 3.67829 0
M  V30 1460 H 128.73 2.67292 3.41668 0
M  V30 1461 H 129.401 2.31549 5.01088 0
M  V30 1462 H 131.877 0.608905 4.11621 0
M  V30 1463 H 130.753 0.361265 5.4771 0
M  V30 1464 H 131.014 -0.935158 4.32096 0
M  V30 1465 N 130.073 -1.45103 0.615059 0
M  V30 1466 C 131.023 -2.27679 -0.120966 0
M  V30 1467 C 132.007 -1.3775 -0.831491 0
M  V30 1468 O 133.199 -1.61683 -0.720249 0
M  V30 1469 C 130.328 -3.24767 -1.1127 0
M  V30 1470 C 129.414 -4.22184 -0.402627 0
M  V30 1471 N 129.805 -5.02692 0.559884 0
M  V30 1472 C 128.103 -4.4125 -0.649202 0
M  V30 1473 C 128.804 -5.73421 0.977942 0
M  V30 1474 N 127.78 -5.42657 0.320104 0
M  V30 1475 H 131.582 -2.87325 0.618181 0
M  V30 1476 H 129.096 -1.56345 0.439304 0
M  V30 1477 H 131.093 -3.82666 -1.65446 0
M  V30 1478 H 129.753 -2.66682 -1.85232 0
M  V30 1479 H 130.764 -5.09354 0.936976 0
M  V30 1480 H 127.441 -3.9428 -1.37293 0
M  V30 1481 H 128.831 -6.48107 1.77222 0
M  V30 1482 N 131.551 -0.354651 -1.53558 0
M  V30 1483 C 132.962 0.126902 -1.86268 0
M  V30 1484 C 133.313 1.49075 -1.27558 0
M  V30 1485 O 132.438 2.08105 -0.5934 0
M  V30 1486 C 133.033 0.237046 -3.3797 0
M  V30 1487 C 131.592 0.662842 -3.70518 0
M  V30 1488 C 130.739 -0.196652 -2.76602 0
M  V30 1489 H 133.69 -0.573849 -1.47962 0
M  V30 1490 H 133.711 1.06259 -3.65362 0
M  V30 1491 H 133.223 -0.755725 -3.80671 0
M  V30 1492 H 131.324 1.66424 -3.33367 0
M  V30 1493 H 131.437 0.445034 -4.77029 0
M  V30 1494 H 129.801 0.332763 -2.52517 0
M  V30 1495 H 130.584 -1.18676 -3.22135 0
M  V30 1496 N 133.029 1.57378 -0.0835403 0
M  V30 1497 C 134.269 1.95808 0.586381 0
M  V30 1498 C 134.633 0.963706 1.66062 0
M  V30 1499 O 135.834 1.23608 2.38693 0
M  V30 1500 C 134.105 3.38808 1.13771 0
M  V30 1501 S 135.664 3.99225 1.82112 0
M  V30 1502 H 132.482 0.684675 0.191679 0
M  V30 1503 H 135.084 1.94843 -0.160194 0
M  V30 1504 H 133.788 4.08954 0.344197 0
M  V30 1505 H 133.319 3.43344 1.92038 0
M  V30 1506 H 135.334 3.87087 3.10449 0
M  V30 1507 N 134.507 -0.190092 1.56449 0
M  V30 1508 C 135.737 -0.92443 1.84764 0
M  V30 1509 C 136.145 -1.77146 0.664529 0
M  V30 1510 O 135.488 -1.79812 -0.375957 0
M  V30 1511 C 135.55 -1.86651 3.07248 0
M  V30 1512 C 135.214 -1.20094 4.40938 0
M  V30 1513 C 136.211 -0.575445 5.16706 0
M  V30 1514 C 133.896 -1.2033 4.87674 0
M  V30 1515 C 135.89 0.0388111 6.37388 0
M  V30 1516 C 133.577 -0.585214 6.08291 0
M  V30 1517 C 134.575 0.0347578 6.82991 0
M  V30 1518 O 134.263 0.643147 8.01323 0
M  V30 1519 H 133.995 -0.274974 0.617548 0
M  V30 1520 H 136.549 -0.200788 2.04416 0
M  V30 1521 H 134.779 -2.62998 2.83494 0
M  V30 1522 H 136.468 -2.46907 3.22167 0
M  V30 1523 H 137.234 -0.565728 4.81689 0
M  V30 1524 H 133.113 -1.67526 4.29484 0
M  V30 1525 H 136.657 0.523329 6.95634 0
M  V30 1526 H 132.554 -0.592451 6.42775 0
M  V30 1527 H 133.322 0.540545 8.16713 0
M  V30 1528 N 135.985 -1.50799 -0.457987 0
M  V30 1529 C 137.213 -1.66218 -1.23203 0
M  V30 1530 C 137.628 -0.350894 -1.85511 0
M  V30 1531 O 136.985 0.668546 -1.69814 0
M  V30 1532 C 137.036 -2.76291 -2.33121 0
M  V30 1533 O 136.757 -4.02338 -1.73366 0
M  V30 1534 C 138.258 -3.028 -3.2377 0
M  V30 1535 H 135.478 -0.558361 -0.372121 0
M  V30 1536 H 138.022 -1.97099 -0.545179 0
M  V30 1537 H 136.177 -2.48068 -2.97558 0
M  V30 1538 H 136.591 -4.63312 -2.4585 0
M  V30 1539 H 138.065 -3.8345 -3.97077 0
M  V30 1540 H 138.542 -2.14385 -3.83322 0
M  V30 1541 H 139.148 -3.32604 -2.65056 0
M  V30 1542 N 137.463 0.71206 -1.40597 0
M  V30 1543 C 138.709 1.47416 -1.39271 0
M  V30 1544 C 139.042 1.942 0.00388791 0
M  V30 1545 O 138.317 1.68403 0.973179 0
M  V30 1546 C 138.6 2.69774 -2.38525 0
M  V30 1547 C 138.453 2.28861 -3.87224 0
M  V30 1548 C 139.772 3.71939 -2.35264 0
M  V30 1549 H 136.891 0.534713 -0.5072 0
M  V30 1550 H 139.533 0.812375 -1.71757 0
M  V30 1551 H 137.683 3.26238 -2.10953 0
M  V30 1552 H 139.355 1.77852 -4.25636 0
M  V30 1553 H 137.598 1.60824 -4.02887 0
M  V30 1554 H 138.269 3.16584 -4.52193 0
M  V30 1555 H 140.745 3.25113 -2.59694 0
M  V30 1556 H 139.621 4.55186 -3.06753 0
M  V30 1557 H 139.882 4.20484 -1.36549 0
M  V30 1558 N 138.941 1.26152 0.944643 0
M  V30 1559 C 140.188 1.11492 1.69044 0
M  V30 1560 C 140.516 -0.342366 1.91463 0
M  V30 1561 O 139.771 -1.26812 1.49054 0
M  V30 1562 C 140.07 1.82541 3.07268 0
M  V30 1563 C 139.736 3.32445 3.04616 0
M  V30 1564 C 138.398 3.73337 3.036 0
M  V30 1565 C 140.75 4.28171 2.97185 0
M  V30 1566 C 138.078 5.08348 2.92915 0
M  V30 1567 C 140.43 5.63218 2.88041 0
M  V30 1568 C 139.094 6.03426 2.85366 0
M  V30 1569 H 138.364 0.407977 0.618576 0
M  V30 1570 H 141.011 1.56551 1.10291 0
M  V30 1571 H 139.316 1.29941 3.69625 0
M  V30 1572 H 141.013 1.68642 3.63815 0
M  V30 1573 H 137.603 2.99915 3.06185 0
M  V30 1574 H 141.787 3.97563 2.97081 0
M  V30 1575 H 137.043 5.38667 2.89219 0
M  V30 1576 H 141.217 6.37078 2.81254 0
M  V30 1577 H 138.844 7.07999 2.76842 0
M  V30 1578 N 140.419 -1.14872 1.07899 0
M  V30 1579 C 141.369 -2.17809 0.674027 0
M  V30 1580 C 142.353 -1.58008 -0.303699 0
M  V30 1581 O 143.545 -1.76616 -0.11654 0
M  V30 1582 C 140.674 -3.43208 0.0793318 0
M  V30 1583 C 139.76 -4.10051 1.08253 0
M  V30 1584 N 140.151 -4.52296 2.2641 0
M  V30 1585 C 138.449 -4.36469 0.917124 0
M  V30 1586 C 139.15 -5.04199 2.901 0
M  V30 1587 N 138.126 -4.98088 2.17736 0
M  V30 1588 H 141.928 -2.48207 1.57386 0
M  V30 1589 H 139.442 -1.315 0.952976 0
M  V30 1590 H 141.439 -4.16272 -0.228719 0
M  V30 1591 H 140.099 -3.14291 -0.815551 0
M  V30 1592 H 141.11 -4.45504 2.64096 0
M  V30 1593 H 137.787 -4.17432 0.0756078 0
M  V30 1594 H 139.177 -5.46802 3.90458 0
M  V30 1595 N 141.898 -0.863906 -1.31812 0
M  V30 1596 C 142.808 -0.318461 -2.32428 0
M  V30 1597 C 143.824 0.568496 -1.64451 0
M  V30 1598 O 145 0.46666 -1.95919 0
M  V30 1599 C 142.065 0.476355 -3.43412 0
M  V30 1600 C 141.126 -0.43784 -4.27061 0
M  V30 1601 C 140.359 0.319138 -5.32745 0
M  V30 1602 O 140.582 1.54799 -5.48993 0
M  V30 1603 O 139.516 -0.319861 -6.01049 0
M  V30 1604 H 143.342 -1.15229 -2.80991 0
M  V30 1605 H 140.927 -0.627103 -1.35602 0
M  V30 1606 H 142.809 0.927156 -4.11074 0
M  V30 1607 H 141.484 1.28683 -2.97022 0
M  V30 1608 H 140.391 -0.937013 -3.62175 0
M  V30 1609 H 141.724 -1.21375 -4.77 0
M  V30 1610 N 143.376 1.44774 -0.622745 0
M  V30 1611 C 144.308 2.28856 0.125485 0
M  V30 1612 C 145.321 1.40811 0.817069 0
M  V30 1613 O 146.51 1.65044 0.679918 0
M  V30 1614 C 143.61 3.16963 1.19949 0
M  V30 1615 C 142.783 4.33374 0.592064 0
M  V30 1616 C 141.842 5.02577 1.55893 0
M  V30 1617 O 140.868 5.58873 1.07933 0
M  V30 1618 N 142.07 5.03256 2.89334 0
M  V30 1619 H 144.835 2.93713 -0.596068 0
M  V30 1620 H 142.396 1.55129 -0.463303 0
M  V30 1621 H 144.388 3.60123 1.84644 0
M  V30 1622 H 142.958 2.53913 1.82337 0
M  V30 1623 H 142.178 3.93509 -0.233322 0
M  V30 1624 H 143.466 5.08527 0.166738 0
M  V30 1625 H 142.864 4.58836 3.30887 0
M  V30 1626 H 141.421 5.50232 3.49412 0
M  V30 1627 N 144.854 0.36279 1.53368 0
M  V30 1628 C 146.082 -0.228613 2.05633 0
M  V30 1629 C 146.497 -1.42676 1.23649 0
M  V30 1630 O 145.854 -1.80394 0.27647 0
M  V30 1631 C 145.905 -0.624845 3.56059 0
M  V30 1632 O 145.626 0.525675 4.34935 0
M  V30 1633 C 147.127 -1.27493 4.24571 0
M  V30 1634 H 144.347 -0.0407183 0.669763 0
M  V30 1635 H 146.891 0.520352 1.97769 0
M  V30 1636 H 145.046 -1.32373 3.64083 0
M  V30 1637 H 145.46 0.205969 5.24095 0
M  V30 1638 H 146.934 -1.50277 5.31151 0
M  V30 1639 H 147.411 -2.23439 3.78116 0
M  V30 1640 H 148.017 -0.617558 4.20792 0
M  V30 1641 N 146.332 -1.57332 0.0918853 0
M  V30 1642 C 147.242 -2.17368 -0.882505 0
M  V30 1643 C 148.258 -1.14226 -1.31257 0
M  V30 1644 O 149.434 -1.46582 -1.38115 0
M  V30 1645 C 146.499 -2.73962 -2.12476 0
M  V30 1646 C 145.56 -3.92048 -1.7492 0
M  V30 1647 C 144.793 -4.45933 -2.93223 0
M  V30 1648 O 145.016 -3.98764 -4.07852 0
M  V30 1649 O 143.95 -5.36999 -2.71875 0
M  V30 1650 H 147.776 -3.01031 -0.40172 0
M  V30 1651 H 145.361 -1.48813 -0.132291 0
M  V30 1652 H 147.243 -3.10147 -2.85283 0
M  V30 1653 H 145.918 -1.93347 -2.59613 0
M  V30 1654 H 144.825 -3.6068 -0.993025 0
M  V30 1655 H 146.158 -4.74017 -1.32548 0
M  V30 1656 N 147.81 0.181792 -1.56548 0
M  V30 1657 C 149.038 0.915947 -1.85521 0
M  V30 1658 C 149.453 1.76282 -0.676016 0
M  V30 1659 O 148.81 1.79012 0.355077 0
M  V30 1660 C 148.861 1.80126 -3.13427 0
M  V30 1661 O 148.582 0.988562 -4.26801 0
M  V30 1662 C 150.083 2.64597 -3.55673 0
M  V30 1663 H 147.303 0.26661 -0.61576 0
M  V30 1664 H 149.847 0.185039 -2.03661 0
M  V30 1665 H 148.002 2.48563 -2.97145 0
M  V30 1666 H 148.416 1.59308 -4.99721 0
M  V30 1667 H 149.89 3.2235 -4.48101 0
M  V30 1668 H 150.367 3.38958 -2.79292 0
M  V30 1669 H 150.973 2.0151 -3.74532 0
M  V30 1670 N 149.288 1.51039 0.449983 0
M  V30 1671 C 150.535 1.63081 1.20045 0
M  V30 1672 C 150.863 0.341024 1.91487 0
M  V30 1673 O 150.118 -0.674276 1.83717 0
M  V30 1674 C 150.417 2.77556 2.25161 0
M  V30 1675 C 150.083 4.17289 1.70823 0
M  V30 1676 C 148.745 4.55305 1.55725 0
M  V30 1677 C 151.097 5.04536 1.3074 0
M  V30 1678 C 148.425 5.78287 0.989999 0
M  V30 1679 C 150.777 6.28085 0.754482 0
M  V30 1680 C 149.441 6.64885 0.590308 0
M  V30 1681 H 148.711 0.596755 0.439277 0
M  V30 1682 H 151.358 1.85037 0.49333 0
M  V30 1683 H 149.663 2.49771 3.01863 0
M  V30 1684 H 151.36 2.84073 2.83026 0
M  V30 1685 H 147.95 3.8731 1.83546 0
M  V30 1686 H 152.134 4.75782 1.41229 0
M  V30 1687 H 147.39 6.05456 0.850451 0
M  V30 1688 H 151.564 6.95038 0.435324 0
M  V30 1689 H 149.191 7.60055 0.14862 0
M  V30 1690 N 150.766 -0.704594 1.40972 0
M  V30 1691 C 151.991 -1.49858 1.43378 0
M  V30 1692 C 152.416 -1.88061 0.038184 0
M  V30 1693 O 151.774 -1.5402 -0.956425 0
M  V30 1694 C 151.822 -2.74333 2.34038 0
M  V30 1695 O 150.926 -3.7147 1.7912 0
M  V30 1696 H 150.267 -0.45139 0.486974 0
M  V30 1697 H 152.797 -0.866832 1.8533 0
M  V30 1698 H 152.807 -3.22741 2.49604 0
M  V30 1699 H 151.482 -2.45863 3.35446 0
M  V30 1700 H 150.059 -3.30363 1.72958 0
M  V30 1701 N 152.244 -1.26651 -0.937939 0
M  V30 1702 C 153.469 -1.15279 -1.72411 0
M  V30 1703 C 153.894 0.287866 -1.85884 0
M  V30 1704 O 153.252 1.20855 -1.35143 0
M  V30 1705 C 153.3 -1.83028 -3.10698 0
M  V30 1706 O 152.404 -1.12128 -3.96864 0
M  V30 1707 H 151.745 -0.401504 -0.528858 0
M  V30 1708 H 154.275 -1.67531 -1.1745 0
M  V30 1709 H 154.285 -1.89981 -3.6107 0
M  V30 1710 H 152.96 -2.87833 -3.00208 0
M  V30 1711 H 151.537 -1.13173 -3.55312 0
M  V30 1712 N 153.722 1.14298 -1.08507 0
M  V30 1713 C 154.652 2.21542 -0.737646 0
M  V30 1714 C 155.633 1.67773 0.280377 0
M  V30 1715 O 156.818 1.93616 0.150521 0
M  V30 1716 C 153.948 3.46988 -0.147259 0
M  V30 1717 C 152.902 4.13789 -1.09374 0
M  V30 1718 C 152.228 5.33449 -0.365524 0
M  V30 1719 C 153.528 4.62208 -2.4323 0
M  V30 1720 H 155.222 2.5086 -1.6343 0
M  V30 1721 H 152.768 1.20576 -0.787243 0
M  V30 1722 H 154.721 4.21262 0.107808 0
M  V30 1723 H 153.445 3.17037 0.784538 0
M  V30 1724 H 152.104 3.4147 -1.33393 0
M  V30 1725 H 151.752 4.99759 0.57011 0
M  V30 1726 H 151.452 5.79088 -0.996512 0
M  V30 1727 H 152.976 6.10485 -0.118534 0
M  V30 1728 H 154.39 5.27952 -2.23472 0
M  V30 1729 H 152.787 5.18553 -3.02031 0
M  V30 1730 H 153.857 3.77224 -3.04681 0
M  V30 1731 N 155.201 0.870884 1.31352 0
M  V30 1732 C 156.447 0.492314 1.97352 0
M  V30 1733 C 156.802 -0.945174 1.67583 0
M  V30 1734 O 156.095 -1.65674 0.962423 0
M  V30 1735 C 156.289 0.687157 3.50732 0
M  V30 1736 C 156.118 2.14203 3.95407 0
M  V30 1737 C 154.888 2.78382 4.21701 0
M  V30 1738 C 157.086 3.1144 4.09279 0
M  V30 1739 N 155.068 4.14611 4.52737 0
M  V30 1740 C 156.439 4.32702 4.44037 0
M  V30 1741 C 158.494 3.07418 3.91661 0
M  V30 1742 C 157.197 5.50463 4.63015 0
M  V30 1743 C 159.223 4.24438 4.11833 0
M  V30 1744 C 158.585 5.44463 4.46923 0
M  V30 1745 H 154.684 0.229206 0.747655 0
M  V30 1746 H 157.268 1.12568 1.5886 0
M  V30 1747 H 155.439 0.083384 3.8831 0
M  V30 1748 H 157.171 0.276883 4.03752 0
M  V30 1749 H 153.926 2.29326 4.14375 0
M  V30 1750 H 154.35 4.84928 4.72413 0
M  V30 1751 H 158.992 2.15732 3.6362 0
M  V30 1752 H 156.71 6.42666 4.89904 0
M  V30 1753 H 160.296 4.2278 3.99685 0
M  V30 1754 H 159.176 6.33504 4.62214 0
M  V30 1755 N 156.679 -1.44442 0.630414 0
M  V30 1756 C 157.904 -2.06927 0.139944 0
M  V30 1757 C 158.329 -1.46795 -1.17613 0
M  V30 1758 O 157.687 -0.569144 -1.72135 0
M  V30 1759 C 157.735 -3.6058 0.0379581 0
M  V30 1760 O 156.839 -3.99937 -1.0062 0
M  V30 1761 H 156.18 -0.658608 0.0844483 0
M  V30 1762 H 158.71 -1.85327 0.866891 0
M  V30 1763 H 158.72 -4.07714 -0.152856 0
M  V30 1764 H 157.395 -4.03728 0.998809 0
M  V30 1765 H 155.972 -3.64436 -0.79001 0
M  V30 1766 N 158.157 -0.370918 -1.53173 0
M  V30 1767 C 159.067 0.480823 -2.2962 0
M  V30 1768 C 160.083 1.08789 -1.35798 0
M  V30 1769 O 161.259 1.09768 -1.68858 0
M  V30 1770 C 158.324 1.60227 -3.07454 0
M  V30 1771 C 157.385 1.0222 -4.16953 0
M  V30 1772 C 156.618 2.0902 -4.91066 0
M  V30 1773 O 156.841 3.30222 -4.65091 0
M  V30 1774 O 155.775 1.71778 -5.76867 0
M  V30 1775 H 159.601 -0.141421 -3.03371 0
M  V30 1776 H 157.186 -0.135146 -1.48787 0
M  V30 1777 H 159.068 2.25417 -3.56041 0
M  V30 1778 H 157.743 2.20982 -2.36535 0
M  V30 1779 H 156.65 0.334064 -3.72605 0
M  V30 1780 H 157.983 0.459131 -4.90054 0
M  V30 1781 N 159.635 1.57281 -0.100228 0
M  V30 1782 C 160.865 1.98591 0.569681 0
M  V30 1783 C 161.273 0.978315 1.61943 0
M  V30 1784 O 160.616 -0.0396108 1.83657 0
M  V30 1785 C 160.678 3.36282 1.271 0
M  V30 1786 C 160.342 4.55488 0.371409 0
M  V30 1787 C 161.339 5.18491 -0.382504 0
M  V30 1788 C 159.024 5.01474 0.287965 0
M  V30 1789 C 161.018 6.25852 -1.20779 0
M  V30 1790 C 158.705 6.08701 -0.540965 0
M  V30 1791 C 159.703 6.70755 -1.28749 0
M  V30 1792 O 159.391 7.75914 -2.10269 0
M  V30 1793 H 159.123 0.65752 0.156982 0
M  V30 1794 H 161.677 2.0463 -0.177734 0
M  V30 1795 H 159.907 3.26941 2.0651 0
M  V30 1796 H 161.596 3.62005 1.83595 0
M  V30 1797 H 162.362 4.83891 -0.3278 0
M  V30 1798 H 158.241 4.52932 0.858689 0
M  V30 1799 H 161.785 6.74218 -1.79096 0
M  V30 1800 H 157.682 6.42732 -0.597131 0
M  V30 1801 H 158.45 7.92925 -2.03007 0
M  V30 1802 N 161.113 -0.173488 1.56642 0
M  V30 1803 C 162.063 -1.21941 1.92651 0
M  V30 1804 C 163.047 -1.39912 0.794577 0
M  V30 1805 O 164.239 -1.41919 1.05773 0
M  V30 1806 C 161.368 -2.55935 2.28806 0
M  V30 1807 C 160.454 -2.41667 3.48508 0
M  V30 1808 N 160.845 -1.9711 4.65813 0
M  V30 1809 C 159.143 -2.72499 3.53072 0
M  V30 1810 C 159.844 -1.95253 5.47952 0
M  V30 1811 N 158.82 -2.37575 4.88937 0
M  V30 1812 H 162.622 -0.866581 2.80834 0
M  V30 1813 H 160.136 -0.381776 1.57849 0
M  V30 1814 H 162.133 -3.31511 2.52797 0
M  V30 1815 H 160.793 -2.92022 1.41961 0
M  V30 1816 H 161.804 -1.67481 4.90072 0
M  V30 1817 H 158.481 -3.12639 2.767 0
M  V30 1818 H 159.871 -1.6252 6.51948 0
M  V30 1819 N 162.591 -1.51276 -0.441967 0
M  V30 1820 C 163.868 -1.54252 -1.20273 0
M  V30 1821 C 164.248 -0.30408 -2.08898 0
M  V30 1822 O 163.596 0.711084 -2.17154 0
M  V30 1823 C 163.806 -2.85406 -2.00859 0
M  V30 1824 C 165.154 -3.37181 -2.58059 0
M  V30 1825 O 166.178 -2.86925 -2.11074 0
M  V30 1826 O 165.037 -4.24858 -3.43741 0
M  V30 1827 H 162.131 -0.619969 -0.547328 0
M  V30 1828 H 164.677 -1.63586 -0.451413 0
M  V30 1829 H 163.449 -3.67003 -1.35736 0
M  V30 1830 H 163.072 -2.79213 -2.83065 0
M  V30 1831 N 164.069 0.697108 -1.41344 0
M  V30 1832 C 165.346 1.45154 -1.31109 0
M  V30 1833 C 165.726 2.11009 0.0620449 0
M  V30 1834 O 165.074 2.01571 1.07618 0
M  V30 1835 C 165.284 2.47223 -2.46337 0
M  V30 1836 C 166.632 3.1252 -2.87431 0
M  V30 1837 O 167.656 2.57547 -2.46065 0
M  V30 1838 O 166.515 4.12083 -3.58957 0
M  V30 1839 H 163.609 0.646365 -0.515889 0
M  V30 1840 H 166.155 0.727716 -1.53305 0
M  V30 1841 H 164.927 1.97204 -3.37974 0
M  V30 1842 H 164.55 3.27116 -2.2601 0
M  V30 1843 N 165.547 1.27147 0.931209 0
M  V30 1844 C 166.794 1.13278 1.67852 0
M  V30 1845 C 167.122 -0.32204 1.91815 0
M  V30 1846 O 166.377 -1.25224 1.50391 0
M  V30 1847 C 166.676 1.8579 3.05314 0
M  V30 1848 C 166.342 3.35657 3.01073 0
M  V30 1849 C 165.004 3.76536 2.99623 0
M  V30 1850 C 167.356 4.31299 2.92627 0
M  V30 1851 C 164.684 5.11426 2.87506 0
M  V30 1852 C 167.036 5.66242 2.82051 0
M  V30 1853 C 165.7 6.06418 2.7895 0
M  V30 1854 H 164.97 0.414515 0.614214 0
M  V30 1855 H 167.617 1.57712 1.08624 0
M  V30 1856 H 165.922 1.33854 3.68226 0
M  V30 1857 H 167.619 1.72491 3.62005 0
M  V30 1858 H 164.209 3.03146 3.02986 0
M  V30 1859 H 168.393 4.00692 2.92848 0
M  V30 1860 H 163.649 5.41705 2.83489 0
M  V30 1861 H 167.823 6.40026 2.74481 0
M  V30 1862 H 165.45 7.10895 2.69318 0
M  V30 1863 N 167.025 -1.13721 1.09112 0
M  V30 1864 C 168.441 -1.36914 0.820174 0
M  V30 1865 C 168.641 -1.93356 -0.567079 0
M  V30 1866 O 167.697 -2.15093 -1.32255 0
M  V30 1867 C 169.01 -2.3235 1.90877 0
M  V30 1868 C 170.558 -2.45973 1.93562 0
M  V30 1869 C 171.033 -3.44714 3.01556 0
M  V30 1870 N 172.524 -3.52263 3.00775 0
M  V30 1871 C 173.259 -4.28536 3.80978 0
M  V30 1872 N 172.755 -5.07991 4.71081 0
M  V30 1873 N 174.548 -4.23804 3.69251 0
M  V30 1874 H 166.699 -0.754348 1.98553 0
M  V30 1875 H 168.962 -0.3944 0.862063 0
M  V30 1876 H 168.668 -1.98027 2.90651 0
M  V30 1877 H 168.542 -3.32332 1.78424 0
M  V30 1878 H 170.929 -2.79584 0.944286 0
M  V30 1879 H 171.01 -1.45926 2.10093 0
M  V30 1880 H 170.654 -3.11835 4.00901 0
M  V30 1881 H 170.584 -4.44558 2.82269 0
M  V30 1882 H 173.075 -2.95567 2.35475 0
M  V30 1883 H 173.388 -5.63487 5.28869 0
M  V30 1884 H 171.733 -5.07235 4.75119 0
M  V30 1885 H 174.924 -3.60806 2.98222 0
M  V30 1886 H 175.097 -4.82995 4.31995 0
M  V30 1887 N 168.503 -0.877838 -1.30888 0
M  V30 1888 C 169.435 -0.296607 -2.27273 0
M  V30 1889 C 170.448 0.544799 -1.53414 0
M  V30 1890 O 171.637 0.365511 -1.74718 0
M  V30 1891 C 168.737 0.597481 -3.33592 0
M  V30 1892 C 167.91 -0.213251 -4.3688 0
M  V30 1893 C 166.969 0.610208 -5.2265 0
M  V30 1894 O 165.995 0.035441 -5.69189 0
M  V30 1895 N 167.197 1.92071 -5.47804 0
M  V30 1896 H 169.962 -1.12492 -2.77787 0
M  V30 1897 H 167.523 -0.740105 -1.43993 0
M  V30 1898 H 169.515 1.15425 -3.87891 0
M  V30 1899 H 168.085 1.32647 -2.83061 0
M  V30 1900 H 167.305 -0.951466 -3.82545 0
M  V30 1901 H 168.593 -0.769262 -5.02951 0
M  V30 1902 H 167.991 2.4107 -5.11763 0
M  V30 1903 H 166.548 2.42508 -6.05007 0
M  V30 1904 N 169.982 1.44106 -0.638065 0
M  V30 1905 C 171.229 2.01978 -0.14533 0
M  V30 1906 C 171.557 1.50234 1.23532 0
M  V30 1907 O 170.812 0.679548 1.83523 0
M  V30 1908 C 171.111 3.5729 -0.0887327 0
M  V30 1909 C 170.777 4.28317 -1.40909 0
M  V30 1910 C 169.439 4.47437 -1.77069 0
M  V30 1911 C 171.791 4.6867 -2.28031 0
M  V30 1912 C 169.119 5.04171 -3.00047 0
M  V30 1913 C 171.471 5.26766 -3.50286 0
M  V30 1914 C 170.135 5.44104 -3.86661 0
M  V30 1915 H 169.405 0.739089 -0.0531801 0
M  V30 1916 H 172.052 1.72781 -0.825761 0
M  V30 1917 H 170.357 3.8594 0.675095 0
M  V30 1918 H 172.054 3.99807 0.309145 0
M  V30 1919 H 168.644 4.1377 -1.1177 0
M  V30 1920 H 172.828 4.53604 -2.01388 0
M  V30 1921 H 168.084 5.15782 -3.28298 0
M  V30 1922 H 172.258 5.56983 -4.18023 0
M  V30 1923 H 169.885 5.87832 -4.82034 0
M  V30 1924 N 171.46 0.379036 1.52974 0
M  V30 1925 C 172.39 -0.452706 2.29069 0
M  V30 1926 C 173.371 -1.07237 1.32039 0
M  V30 1927 O 174.556 -1.08708 1.60923 0
M  V30 1928 C 171.686 -1.5856 3.08992 0
M  V30 1929 C 170.64 -1.0925 4.13822 0
M  V30 1930 C 169.966 -2.31668 4.81907 0
M  V30 1931 C 171.266 -0.167702 5.22031 0
M  V30 1932 H 172.96 0.182181 2.98845 0
M  V30 1933 H 170.506 0.0890592 1.43724 0
M  V30 1934 H 172.459 -2.1742 3.6098 0
M  V30 1935 H 171.183 -2.24792 2.36931 0
M  V30 1936 H 169.842 -0.526494 3.628 0
M  V30 1937 H 169.49 -2.96386 4.06404 0
M  V30 1938 H 169.19 -1.9934 5.52754 0
M  V30 1939 H 170.714 -2.91189 5.36695 0
M  V30 1940 H 172.128 -0.664186 5.6944 0
M  V30 1941 H 170.525 0.0653265 6.00064 0
M  V30 1942 H 171.595 0.786347 4.78482 0
M  V30 1943 N 172.938 -1.57226 0.108567 0
M  V30 1944 C 173.888 -2.11305 -0.856396 0
M  V30 1945 C 174.872 -1.03129 -1.23504 0
M  V30 1946 O 176.064 -1.29381 -1.20787 0
M  V30 1947 C 173.193 -2.70771 -2.11041 0
M  V30 1948 C 172.279 -3.86011 -1.7566 0
M  V30 1949 N 172.67 -4.93492 -1.10902 0
M  V30 1950 C 170.968 -3.95999 -2.05185 0
M  V30 1951 C 171.669 -5.73984 -0.944308 0
M  V30 1952 N 170.645 -5.2346 -1.46596 0
M  V30 1953 H 174.447 -2.91784 -0.352002 0
M  V30 1954 H 171.961 -1.62126 -0.0942324 0
M  V30 1955 H 173.958 -3.07851 -2.81128 0
M  V30 1956 H 172.618 -1.91751 -2.62034 0
M  V30 1957 H 173.629 -5.1208 -0.774235 0
M  V30 1958 H 170.306 -3.28007 -2.58298 0
M  V30 1959 H 171.696 -6.70479 -0.436813 0
M  V30 1960 N 174.416 0.165178 -1.56732 0
M  V30 1961 C 175.665 0.879143 -1.81532 0
M  V30 1962 C 175.978 1.83144 -0.686842 0
M  V30 1963 O 177.184 2.58823 -0.819944 0
M  V30 1964 C 175.64 1.61388 -3.21686 0
M  V30 1965 C 175.248 0.704904 -4.4242 0
M  V30 1966 C 176.992 2.3157 -3.55774 0
M  V30 1967 C 174.899 1.44022 -5.73595 0
M  V30 1968 H 173.829 0.332033 -0.676957 0
M  V30 1969 H 176.48 0.132008 -1.83025 0
M  V30 1970 H 174.862 2.40599 -3.14529 0
M  V30 1971 H 176.036 -0.0506815 -4.60772 0
M  V30 1972 H 174.351 0.112419 -4.16248 0
M  V30 1973 H 176.948 2.8719 -4.51028 0
M  V30 1974 H 177.291 3.07201 -2.8095 0
M  V30 1975 H 177.824 1.59297 -3.64513 0
M  V30 1976 H 174.563 0.72612 -6.51466 0
M  V30 1977 H 174.083 2.16898 -5.5921 0
M  V30 1978 H 175.762 1.98606 -6.15764 0
M  V30 1979 N 175.894 1.51508 0.433938 0
M  V30 1980 C 177.124 1.67914 1.20369 0
M  V30 1981 C 177.532 0.377461 1.85397 0
M  V30 1982 O 176.875 -0.654255 1.71654 0
M  V30 1983 C 176.937 2.74045 2.32679 0
M  V30 1984 C 176.601 4.16543 1.87991 0
M  V30 1985 C 177.598 5.01211 1.38145 0
M  V30 1986 C 175.283 4.6266 1.95579 0
M  V30 1987 C 177.277 6.30056 0.964774 0
M  V30 1988 C 174.964 5.91501 1.53523 0
M  V30 1989 C 175.962 6.75027 1.04055 0
M  V30 1990 O 175.65 8.01459 0.625964 0
M  V30 1991 H 175.382 0.566578 0.368735 0
M  V30 1992 H 177.936 1.98709 0.51999 0
M  V30 1993 H 176.166 2.38572 3.04336 0
M  V30 1994 H 177.855 2.79295 2.94532 0
M  V30 1995 H 178.621 4.66783 1.31675 0
M  V30 1996 H 174.5 3.97767 2.33029 0
M  V30 1997 H 178.044 6.95202 0.57796 0
M  V30 1998 H 173.941 6.25442 1.59665 0
M  V30 1999 H 174.709 8.15043 0.751509 0
M  V30 2000 N 177.372 -0.689602 1.41712 0
M  V30 2001 C 178.597 -1.48329 1.44959 0
M  V30 2002 C 179.022 -1.8801 0.0581283 0
M  V30 2003 O 178.38 -1.55026 -0.940035 0
M  V30 2004 C 178.428 -2.71835 2.36935 0
M  V30 2005 O 177.532 -3.69549 1.8305 0
M  V30 2006 H 176.873 -0.446199 0.491734 0
M  V30 2007 H 179.403 -0.847127 1.86239 0
M  V30 2008 H 179.413 -3.20076 2.53013 0
M  V30 2009 H 178.088 -2.42291 3.38035 0
M  V30 2010 H 176.665 -3.2851 1.76452 0
M  V30 2011 N 178.85 -1.27639 -0.924453 0
M  V30 2012 C 179.782 -1.06442 -2.02985 0
M  V30 2013 C 180.795 -0.0194771 -1.62788 0
M  V30 2014 O 181.984 -0.261388 -1.76576 0
M  V30 2015 C 179.084 -0.59327 -3.33667 0
M  V30 2016 C 178.257 -1.71123 -4.02537 0
M  V30 2017 C 177.316 -1.23527 -5.11495 0
M  V30 2018 O 176.342 -1.93553 -5.35281 0
M  V30 2019 N 177.544 -0.0926678 -5.80426 0
M  V30 2020 H 180.309 -2.01633 -2.2173 0
M  V30 2021 H 177.87 -1.19248 -1.09505 0
M  V30 2022 H 179.862 -0.258686 -4.03872 0
M  V30 2023 H 178.432 0.265502 -3.1147 0
M  V30 2024 H 177.652 -2.21593 -3.26022 0
M  V30 2025 H 178.94 -2.46145 -4.45298 0
M  V30 2026 H 178.338 0.491741 -5.63559 0
M  V30 2027 H 176.895 0.182714 -6.51544 0
M  V30 2028 N 180.328 1.1314 -1.09713 0
M  V30 2029 C 181.605 1.80762 -0.747302 0
M  V30 2030 C 181.985 1.96663 0.767265 0
M  V30 2031 O 181.333 1.53706 1.69076 0
M  V30 2032 C 181.543 3.15606 -1.48975 0
M  V30 2033 C 182.891 3.90914 -1.65746 0
M  V30 2034 O 183.915 3.25239 -1.45251 0
M  V30 2035 O 182.774 5.08718 -1.9967 0
M  V30 2036 H 179.868 0.782103 -0.268782 0
M  V30 2037 H 182.414 1.20041 -1.19951 0
M  V30 2038 H 181.186 2.99278 -2.52088 0
M  V30 2039 H 180.809 3.84029 -1.02991 0
M  V30 2040 N 181.806 0.884767 1.30421 0
M  V30 2041 C 183.052 0.503851 1.96441 0
M  V30 2042 C 183.385 -0.944518 1.69684 0
M  V30 2043 O 182.66 -1.66737 1.00145 0
M  V30 2044 C 182.943 0.779085 3.51571 0
M  V30 2045 C 182.796 2.27807 3.87846 0
M  V30 2046 C 184.115 0.255452 4.39358 0
M  V30 2047 H 181.234 0.184533 0.713524 0
M  V30 2048 H 183.876 1.10872 1.54297 0
M  V30 2049 H 182.026 0.264274 3.876 0
M  V30 2050 H 183.698 2.86127 3.61841 0
M  V30 2051 H 181.941 2.74479 3.35922 0
M  V30 2052 H 182.612 2.42125 4.96064 0
M  V30 2053 H 185.088 0.696079 4.10236 0
M  V30 2054 H 183.964 0.477361 5.4682 0
M  V30 2055 H 184.225 -0.843293 4.33983 0
M  V30 2056 N 183.284 -1.43765 0.645699 0
M  V30 2057 C 184.247 -2.29163 -0.0409488 0
M  V30 2058 C 185.247 -1.41813 -0.757996 0
M  V30 2059 O 186.437 -1.63527 -0.600382 0
M  V30 2060 C 183.569 -3.23716 -1.06869 0
M  V30 2061 H 184.762 -2.91366 0.710345 0
M  V30 2062 H 182.315 -1.5092 0.406547 0
M  V30 2063 H 183.05 -2.66393 -1.84947 0
M  V30 2064 H 182.835 -3.88105 -0.558277 0
M  V30 2065 H 184.325 -3.87831 -1.54845 0
M  V30 2066 N 184.763 -0.387143 -1.52771 0
M  V30 2067 C 186.003 0.195537 -2.03463 0
M  V30 2068 C 186.367 1.44222 -1.26744 0
M  V30 2069 O 187.568 2.10192 -1.67549 0
M  V30 2070 C 185.839 0.459097 -3.54439 0
M  V30 2071 S 187.398 1.01237 -4.26962 0
M  V30 2072 H 184.216 0.0552675 -0.708849 0
M  V30 2073 H 186.818 -0.534992 -1.88037 0
M  V30 2074 H 185.522 -0.455382 -4.07866 0
M  V30 2075 H 185.053 1.21811 -3.74066 0
M  V30 2076 H 187.068 2.29492 -4.39941 0
M  V30 2077 N 186.241 1.57166 -0.116904 0
M  V30 2078 C 187.471 1.99184 0.548586 0
M  V30 2079 C 187.879 0.995436 1.60897 0
M  V30 2080 O 187.222 -0.0201293 1.83689 0
M  V30 2081 C 187.284 3.37611 1.23526 0
M  V30 2082 C 186.948 4.55857 0.323077 0
M  V30 2083 C 187.945 5.18056 -0.437476 0
M  V30 2084 C 185.63 5.01751 0.234761 0
M  V30 2085 C 187.624 6.24536 -1.2741 0
M  V30 2086 C 185.311 6.08093 -0.605496 0
M  V30 2087 C 186.309 6.69352 -1.35856 0
M  V30 2088 O 185.997 7.7364 -2.18487 0
M  V30 2089 H 185.729 0.659148 0.149999 0
M  V30 2090 H 188.283 2.0443 -0.199428 0
M  V30 2091 H 186.513 3.29113 2.0303 0
M  V30 2092 H 188.202 3.63932 1.79745 0
M  V30 2093 H 188.968 4.83516 -0.379105 0
M  V30 2094 H 184.847 4.53817 0.810601 0
M  V30 2095 H 188.391 6.72281 -1.86237 0
M  V30 2096 H 184.288 6.42063 -0.665268 0
M  V30 2097 H 185.056 7.90727 -2.11406 0
M  V30 2098 N 187.719 -0.156864 1.56817 0
M  V30 2099 C 188.967 -0.869404 1.82444 0
M  V30 2100 C 189.288 -1.82147 0.69623 0
M  V30 2101 O 188.558 -1.93847 -0.28287 0
M  V30 2102 H 187.138 -0.324043 0.673056 0
M  V30 2103 H 189.8 -0.153224 1.94297 0
M  V30 2104 H 188.896 -1.43761 2.77019 0
M  V30 2105 N 189.197 -1.51736 -0.425897 0
M  V30 2106 C 190.107 -1.76738 -1.54275 0
M  V30 2107 C 191.123 -0.65211 -1.61318 0
M  V30 2108 O 192.299 -0.935654 -1.78346 0
M  V30 2109 C 189.364 -1.89755 -2.90162 0
M  V30 2110 C 188.425 -3.13633 -2.93143 0
M  V30 2111 C 187.658 -3.2602 -4.22548 0
M  V30 2112 O 187.881 -2.44067 -5.15546 0
M  V30 2113 O 186.815 -4.19071 -4.32046 0
M  V30 2114 H 190.641 -2.71502 -1.36089 0
M  V30 2115 H 188.226 -1.36376 -0.610069 0
M  V30 2116 H 190.108 -2.00236 -3.70788 0
M  V30 2117 H 188.783 -0.981785 -3.08452 0
M  V30 2118 H 187.69 -3.08622 -2.11431 0
M  V30 2119 H 189.023 -4.04936 -2.798 0
M  V30 2120 N 190.675 0.682077 -1.42076 0
M  V30 2121 C 191.623 1.81707 -1.45208 0
M  V30 2122 C 192.617 1.66183 -0.328591 0
M  V30 2123 O 193.823 1.7288 -0.501264 0
M  V30 2124 H 190.198 0.599014 -0.454628 0
M  V30 2125 H 192.169 1.76183 -2.40836 0
M  V30 2126 C 190.918 3.19816 -1.36428 0
M  V30 2127 H 190.241 3.32385 -2.22171 0
M  V30 2128 H 191.681 3.99272 -1.42681 0
M  V30 2129 C 190.14 3.36809 -0.078191 0
M  V30 2130 O 190.67 3.92124 0.87188 0
M  V30 2131 N 188.876 2.906 0.00229266 0
M  V30 2132 H 188.423 2.45772 -0.771616 0
M  V30 2133 H 188.381 3.02347 0.862179 0
M  V30 2134 N 192.153 1.28127 0.917671 0
M  V30 2135 C 193.083 1.14248 2.03641 0
M  V30 2136 C 194.064 0.0412748 1.7005 0
M  V30 2137 O 195.249 0.217566 1.92977 0
M  V30 2138 C 192.379 0.799431 3.37974 0
M  V30 2139 C 191.333 1.85497 3.85713 0
M  V30 2140 C 190.659 1.36565 5.16966 0
M  V30 2141 C 191.959 3.26085 4.08002 0
M  V30 2142 H 193.653 2.07835 2.15511 0
M  V30 2143 H 191.199 1.00064 1.03553 0
M  V30 2144 H 193.152 0.689114 4.15727 0
M  V30 2145 H 191.876 -0.172145 3.26146 0
M  V30 2146 H 190.535 1.95437 3.10161 0
M  V30 2147 H 190.183 0.383253 5.01538 0
M  V30 2148 H 189.883 2.07143 5.49878 0
M  V30 2149 H 191.407 1.26848 5.97279 0
M  V30 2150 H 192.821 3.19089 4.76293 0
M  V30 2151 H 191.218 3.94462 4.52238 0
M  V30 2152 H 192.288 3.70394 3.12948 0
M  V30 2153 N 193.631 -1.12557 1.10312 0
M  V30 2154 C 194.594 -2.16434 0.75424 0
M  V30 2155 C 195.594 -1.59278 -0.220685 0
M  V30 2156 O 196.784 -1.742 0.00230591 0
M  V30 2157 C 193.916 -3.40699 0.116987 0
M  V30 2158 H 195.109 -2.48811 1.67431 0
M  V30 2159 H 192.662 -1.27542 0.903475 0
M  V30 2160 H 193.397 -3.13921 -0.813877 0
M  V30 2161 H 193.182 -3.83459 0.818613 0
M  V30 2162 H 194.672 -4.17451 -0.111387 0
M  V30 2163 N 195.109 -0.891671 -1.2995 0
M  V30 2164 C 196.339 -0.527893 -1.99742 0
M  V30 2165 C 196.747 0.88979 -1.66971 0
M  V30 2166 O 196.09 1.59766 -0.906667 0
M  V30 2167 C 196.152 -0.630804 -3.53922 0
M  V30 2168 C 195.816 -2.01401 -4.10228 0
M  V30 2169 C 196.813 -2.98422 -4.25724 0
M  V30 2170 C 194.498 -2.32121 -4.45449 0
M  V30 2171 C 196.492 -4.24293 -4.75662 0
M  V30 2172 C 194.179 -3.58237 -4.95086 0
M  V30 2173 C 195.177 -4.54137 -5.10146 0
M  V30 2174 O 194.865 -5.78014 -5.58708 0
M  V30 2175 H 194.597 -0.201953 -0.645129 0
M  V30 2176 H 197.151 -1.20076 -1.66646 0
M  V30 2177 H 195.381 0.0990616 -3.86573 0
M  V30 2178 H 197.07 -0.277338 -4.04951 0
M  V30 2179 H 197.836 -2.76001 -3.98809 0
M  V30 2180 H 193.715 -1.5824 -4.32991 0
M  V30 2181 H 197.259 -4.99153 -4.87332 0
M  V30 2182 H 193.156 -3.80491 -5.21437 0
M  V30 2183 H 193.924 -5.8049 -5.77039 0
M  V30 2184 N 196.587 1.43421 -0.653314 0
M  V30 2185 C 197.834 2.01812 -0.166745 0
M  V30 2186 C 198.162 1.51535 1.21931 0
M  V30 2187 O 197.417 0.698975 1.82792 0
M  V30 2188 C 197.716 3.57176 -0.126623 0
M  V30 2189 C 197.382 4.26798 -1.45444 0
M  V30 2190 C 196.044 4.45534 -1.81805 0
M  V30 2191 C 198.396 4.66225 -2.32989 0
M  V30 2192 C 195.724 5.00961 -3.05377 0
M  V30 2193 C 198.076 5.23021 -3.55853 0
M  V30 2194 C 196.74 5.39973 -3.9241 0
M  V30 2195 H 196.01 0.738484 -0.0610162 0
M  V30 2196 H 198.657 1.71896 -0.84404 0
M  V30 2197 H 196.962 3.86634 0.634123 0
M  V30 2198 H 198.659 4.00112 0.266723 0
M  V30 2199 H 195.249 4.12561 -1.16153 0
M  V30 2200 H 199.433 4.51443 -2.06187 0
M  V30 2201 H 194.689 5.12271 -3.3375 0
M  V30 2202 H 198.863 5.52518 -4.23907 0
M  V30 2203 H 196.49 5.82687 -4.88242 0
M  V30 2204 N 198.065 0.39524 1.52563 0
M  V30 2205 C 199.476 -0.0774719 1.86539 0
M  V30 2206 C 199.827 -1.45641 1.31466 0
M  V30 2207 O 198.952 -2.06459 0.648367 0
M  V30 2208 C 199.547 -0.147356 3.38479 0
M  V30 2209 C 198.106 -0.564373 3.72145 0
M  V30 2210 C 197.253 0.269919 2.75983 0
M  V30 2211 H 200.204 0.612876 1.46388 0
M  V30 2212 H 200.225 -0.965343 3.68051 0
M  V30 2213 H 199.737 0.856387 3.78534 0
M  V30 2214 H 197.838 -1.57527 3.37663 0
M  V30 2215 H 197.951 -0.318402 4.78041 0
M  V30 2216 H 196.315 -0.265696 2.5331 0
M  V30 2217 H 197.098 1.27175 3.18875 0
M  V30 2218 N 199.544 -1.57102 0.125237 0
M  V30 2219 C 200.491 -2.15641 -0.822655 0
M  V30 2220 C 201.461 -1.08313 -1.25927 0
M  V30 2221 O 202.646 -1.36251 -1.33567 0
M  V30 2222 C 199.786 -2.76504 -2.06494 0
M  V30 2223 C 198.899 -3.98158 -1.67612 0
M  V30 2224 C 198.034 -4.47088 -2.86854 0
M  V30 2225 C 197.073 -5.6126 -2.44242 0
M  V30 2226 N 196.21 -6.04905 -3.56419 0
M  V30 2227 H 201.05 -2.96313 -0.316625 0
M  V30 2228 H 198.587 -1.46388 -0.144588 0
M  V30 2229 H 200.545 -3.09925 -2.79289 0
M  V30 2230 H 199.175 -1.98512 -2.54545 0
M  V30 2231 H 198.227 -3.70858 -0.846661 0
M  V30 2232 H 199.539 -4.80934 -1.32301 0
M  V30 2233 H 198.693 -4.82451 -3.67867 0
M  V30 2234 H 197.432 -3.63275 -3.25396 0
M  V30 2235 H 196.437 -5.25495 -1.61663 0
M  V30 2236 H 197.662 -6.46843 -2.0681 0
M  V30 2237 H 195.608 -5.24032 -3.94623 0
M  V30 2238 H 195.525 -6.82552 -3.25051 0
M  V30 2239 H 196.793 -6.44907 -4.37853 0
M  V30 2240 N 201.022 0.148545 -1.56898 0
M  V30 2241 C 202.27 0.859717 -1.82902 0
M  V30 2242 C 202.591 1.81775 -0.70588 0
M  V30 2243 O 201.861 1.93994 0.272586 0
M  V30 2244 H 200.441 0.320469 -0.674766 0
M  V30 2245 H 203.103 0.142918 -1.94375 0
M  V30 2246 H 202.199 1.4229 -2.77777 0
M  V30 2247 N 202.5 1.5196 0.417844 0
M  V30 2248 C 203.747 1.65591 1.16559 0
M  V30 2249 C 204.075 0.381565 1.90721 0
M  V30 2250 O 203.33 -0.635156 1.85106 0
M  V30 2251 C 203.629 2.82269 2.19223 0
M  V30 2252 C 203.295 4.20819 1.61933 0
M  V30 2253 C 201.957 4.58506 1.46033 0
M  V30 2254 C 204.309 5.07196 1.20008 0
M  V30 2255 C 201.637 5.80257 0.867113 0
M  V30 2256 C 203.989 6.29544 0.621086 0
M  V30 2257 C 202.653 6.65987 0.449144 0
M  V30 2258 H 201.923 0.605939 0.42652 0
M  V30 2259 H 204.57 1.86041 0.45397 0
M  V30 2260 H 202.875 2.56118 2.96498 0
M  V30 2261 H 204.572 2.90012 2.76936 0
M  V30 2262 H 201.162 3.91116 1.7529 0
M  V30 2263 H 205.346 4.7867 1.31105 0
M  V30 2264 H 200.602 6.07124 0.721833 0
M  V30 2265 H 204.776 6.95805 0.287798 0
M  V30 2266 H 202.403 7.60199 -0.012632 0
M  V30 2267 N 203.978 -0.674533 1.42435 0
M  V30 2268 C 205.227 -1.43034 1.42212 0
M  V30 2269 C 205.54 -1.95555 0.0420788 0
M  V30 2270 O 206.746 -2.71374 -0.0827558 0
M  V30 2271 C 205.202 -2.58748 2.50155 0
M  V30 2272 C 204.81 -2.12925 3.94166 0
M  V30 2273 C 206.554 -3.36257 2.59098 0
M  V30 2274 C 204.461 -3.25723 4.93618 0
M  V30 2275 H 203.391 -0.537345 0.528939 0
M  V30 2276 H 206.042 -0.73024 1.68344 0
M  V30 2277 H 204.424 -3.31128 2.17188 0
M  V30 2278 H 205.598 -1.47697 4.36488 0
M  V30 2279 H 203.913 -1.48354 3.89076 0
M  V30 2280 H 206.51 -4.20264 3.30578 0
M  V30 2281 H 206.853 -3.82866 1.63461 0
M  V30 2282 H 207.386 -2.70947 2.9126 0
M  V30 2283 H 204.125 -2.84105 5.90732 0
M  V30 2284 H 203.645 -3.89732 4.55926 0
M  V30 2285 H 205.324 -3.91186 5.15347 0
M  V30 2286 N 205.456 -1.28612 -0.910864 0
M  V30 2287 C 206.366 -1.14643 -2.0468 0
M  V30 2288 C 207.382 -0.0723121 -1.7385 0
M  V30 2289 O 208.558 -0.282178 -1.99413 0
M  V30 2290 C 205.623 -0.812561 -3.37044 0
M  V30 2291 C 204.684 -1.96935 -3.81465 0
M  V30 2292 C 203.917 -1.65131 -5.07511 0
M  V30 2293 O 204.14 -0.567013 -5.67575 0
M  V30 2294 O 203.074 -2.49585 -5.47714 0
M  V30 2295 H 206.9 -2.1001 -2.19384 0
M  V30 2296 H 204.485 -1.07958 -1.03274 0
M  V30 2297 H 206.367 -0.640441 -4.16505 0
M  V30 2298 H 205.042 0.111426 -3.23508 0
M  V30 2299 H 203.949 -2.19664 -3.02818 0
M  V30 2300 H 205.282 -2.87414 -3.99567 0
M  V30 2301 N 206.934 1.1197 -1.10907 0
M  V30 2302 C 207.882 2.19927 -0.757303 0
M  V30 2303 C 208.876 1.67564 0.248747 0
M  V30 2304 O 210.082 1.79672 0.108605 0
M  V30 2305 H 206.457 0.716925 -0.226987 0
M  V30 2306 H 208.428 2.46847 -1.67658 0
M  V30 2307 C 207.177 3.47061 -0.210671 0
M  V30 2308 H 206.5 3.87703 -0.976049 0
M  V30 2309 H 207.94 4.24 -0.0026584 0
M  V30 2310 C 206.399 3.19864 1.05777 0
M  V30 2311 O 206.929 3.40049 2.13845 0
M  V30 2312 N 205.135 2.73636 0.978349 0
M  V30 2313 H 204.682 2.5741 0.0988246 0
M  V30 2314 H 204.64 2.55815 1.82773 0
M  V30 2315 N 208.412 0.89855 1.29475 0
M  V30 2316 C 209.345 0.319981 2.25945 0
M  V30 2317 C 210.323 -0.567189 1.52387 0
M  V30 2318 O 211.507 -0.514254 1.8135 0
M  V30 2319 C 208.634 -0.544013 3.34303 0
M  V30 2320 C 207.68 0.275682 4.25608 0
M  V30 2321 S 208.513 1.67272 5.08704 0
M  V30 2322 C 209.669 0.815621 6.20563 0
M  V30 2323 H 209.902 1.13767 2.74671 0
M  V30 2324 H 207.435 0.69882 1.3768 0
M  V30 2325 H 209.393 -1.03673 3.97193 0
M  V30 2326 H 208.054 -1.33593 2.84274 0
M  V30 2327 H 207.247 -0.384263 5.02533 0
M  V30 2328 H 206.849 0.701496 3.67362 0
M  V30 2329 H 209.141 0.0385042 6.77489 0
M  V30 2330 H 210.084 1.55691 6.90772 0
M  V30 2331 H 210.492 0.370516 5.63283 0
M  V30 2332 N 209.89 -1.43072 0.660911 0
M  V30 2333 C 211.137 -2.01721 0.177445 0
M  V30 2334 C 211.465 -1.5218 -1.21126 0
M  V30 2335 O 210.72 -0.708659 -1.82419 0
M  V30 2336 C 211.019 -3.57103 0.145563 0
M  V30 2337 C 210.685 -4.26021 1.47705 0
M  V30 2338 C 209.347 -4.44563 1.84165 0
M  V30 2339 C 211.699 -4.64983 2.35458 0
M  V30 2340 C 209.027 -4.99334 3.0803 0
M  V30 2341 C 211.379 -5.21127 3.58622 0
M  V30 2342 C 210.043 -5.37884 3.95268 0
M  V30 2343 H 209.313 -0.73815 0.0649317 0
M  V30 2344 H 211.96 -1.71446 0.853144 0
M  V30 2345 H 210.265 -3.86965 -0.61361 0
M  V30 2346 H 211.962 -4.00248 -0.2455 0
M  V30 2347 H 208.552 -4.11939 1.18339 0
M  V30 2348 H 212.736 -4.50343 2.08579 0
M  V30 2349 H 207.992 -5.10493 3.36462 0
M  V30 2350 H 212.166 -5.50262 4.26831 0
M  V30 2351 H 209.793 -5.80089 4.91325 0
M  V30 2352 N 211.368 -0.403325 -1.52352 0
M  V30 2353 C 212.615 0.174347 -2.01748 0
M  V30 2354 C 212.943 1.45636 -1.2892 0
M  V30 2355 O 212.198 1.9193 -0.382258 0
M  V30 2356 C 212.497 0.474665 -3.54234 0
M  V30 2357 C 212.163 -0.717458 -4.45155 0
M  V30 2358 C 210.825 -1.04447 -4.69728 0
M  V30 2359 C 213.177 -1.51432 -4.98716 0
M  V30 2360 C 210.505 -2.16963 -5.45109 0
M  V30 2361 C 212.857 -2.6302 -5.75329 0
M  V30 2362 C 211.521 -2.96213 -5.98175 0
M  V30 2363 H 210.791 0.0637981 -0.738248 0
M  V30 2364 H 213.438 -0.543553 -1.83624 0
M  V30 2365 H 211.743 1.27406 -3.70506 0
M  V30 2366 H 213.44 0.934496 -3.89959 0
M  V30 2367 H 210.03 -0.452596 -4.26204 0
M  V30 2368 H 214.214 -1.27491 -4.79645 0
M  V30 2369 H 209.47 -2.43034 -5.61021 0
M  V30 2370 H 213.644 -3.25158 -6.15829 0
M  V30 2371 H 211.271 -3.83516 -6.56368 0
M  V30 2372 N 212.846 1.57033 -0.133567 0
M  V30 2373 C 214.092 1.95976 0.521649 0
M  V30 2374 C 214.425 1.01779 1.65393 0
M  V30 2375 O 213.7 0.0576581 1.94415 0
M  V30 2376 C 213.983 3.44738 1.04057 0
M  V30 2377 C 213.836 4.49711 -0.0892897 0
M  V30 2378 C 215.155 3.95682 1.92675 0
M  V30 2379 H 212.274 0.712579 0.188149 0
M  V30 2380 H 214.916 1.88813 -0.212076 0
M  V30 2381 H 213.066 3.50973 1.66583 0
M  V30 2382 H 214.738 4.55565 -0.725152 0
M  V30 2383 H 212.981 4.27261 -0.750378 0
M  V30 2384 H 213.652 5.51099 0.315284 0
M  V30 2385 H 216.128 3.91841 1.39998 0
M  V30 2386 H 215.004 5.00262 2.25897 0
M  V30 2387 H 215.265 3.37239 2.85872 0
M  V30 2388 N 214.325 -0.140222 1.56975 0
M  V30 2389 C 215.55 -0.870414 1.88251 0
M  V30 2390 C 215.975 -1.73637 0.723312 0
M  V30 2391 O 215.333 -1.78329 -0.32689 0
M  V30 2392 C 215.381 -1.69737 3.18154 0
M  V30 2393 O 214.485 -2.80229 3.02565 0
M  V30 2394 H 213.826 -0.242025 0.61832 0
M  V30 2395 H 216.356 -0.128999 2.04193 0
M  V30 2396 H 216.366 -2.09099 3.50345 0
M  V30 2397 H 215.041 -1.06152 4.02125 0
M  V30 2398 H 213.618 -2.44224 2.81796 0
M  V30 2399 N 215.803 -1.52179 -0.40978 0
M  V30 2400 C 216.766 -1.74853 -1.48186 0
M  V30 2401 C 217.766 -0.618417 -1.48433 0
M  V30 2402 O 218.956 -0.886286 -1.49969 0
M  V30 2403 C 216.088 -1.8303 -2.87598 0
M  V30 2404 H 217.281 -2.70559 -1.29374 0
M  V30 2405 H 214.834 -1.42586 -0.640233 0
M  V30 2406 H 215.569 -0.89236 -3.11781 0
M  V30 2407 H 215.354 -2.65187 -2.88822 0
M  V30 2408 H 216.844 -2.02316 -3.65319 0
M  V30 2409 N 217.281 0.66697 -1.42791 0
M  V30 2410 C 218.229 1.80157 -1.47127 0
M  V30 2411 C 219.223 1.65825 -0.346199 0
M  V30 2412 O 220.429 1.72338 -0.519572 0
M  V30 2413 H 216.804 0.594158 -0.460956 0
M  V30 2414 H 218.775 1.73619 -2.42692 0
M  V30 2415 C 217.524 3.18351 -1.39813 0
M  V30 2416 H 216.847 3.3001 -2.25684 0
M  V30 2417 H 218.287 3.97736 -1.46908 0
M  V30 2418 C 216.746 3.36707 -0.11391 0
M  V30 2419 O 217.276 3.93027 0.830241 0
M  V30 2420 N 215.482 2.90586 -0.0285295 0
M  V30 2421 H 215.029 2.4494 -0.79764 0
M  V30 2422 H 214.987 3.03245 0.830063 0
M  V30 2423 N 218.759 1.29093 0.90403 0
M  V30 2424 C 220.17 1.15186 1.46932 0
M  V30 2425 C 220.521 -0.254587 1.94541 0
M  V30 2426 O 219.646 -1.14972 1.83332 0
M  V30 2427 C 220.241 2.08492 2.67051 0
M  V30 2428 C 218.8 1.98621 3.19729 0
M  V30 2429 C 217.947 1.9967 1.92425 0
M  V30 2430 H 220.898 1.41641 0.715789 0
M  V30 2431 H 220.919 1.65461 3.42641 0
M  V30 2432 H 220.431 3.10847 2.3237 0
M  V30 2433 H 218.532 0.993389 3.59114 0
M  V30 2434 H 218.645 2.86068 3.8432 0
M  V30 2435 H 217.009 1.44208 2.09943 0
M  V30 2436 H 217.792 3.03721 1.60026 0
M  V30 2437 N 220.237 -1.11381 1.11499 0
M  V30 2438 C 221.483 -1.83597 0.875423 0
M  V30 2439 C 221.838 -1.83048 -0.592555 0
M  V30 2440 O 221.131 -1.27304 -1.43193 0
M  V30 2441 C 221.325 -3.30026 1.37177 0
M  V30 2442 C 221.154 -3.44837 2.88647 0
M  V30 2443 C 219.924 -3.57825 3.56776 0
M  V30 2444 C 222.122 -3.3907 3.86699 0
M  V30 2445 N 220.104 -3.61113 4.96458 0
M  V30 2446 C 221.475 -3.48986 5.12454 0
M  V30 2447 C 223.53 -3.22605 3.7925 0
M  V30 2448 C 222.233 -3.44135 6.31636 0
M  V30 2449 C 224.259 -3.19072 4.97943 0
M  V30 2450 C 223.621 -3.29559 6.22551 0
M  V30 2451 H 219.72 -0.687044 0.37349 0
M  V30 2452 H 222.304 -1.33265 1.41946 0
M  V30 2453 H 220.475 -3.78874 0.854919 0
M  V30 2454 H 222.207 -3.90153 1.07529 0
M  V30 2455 H 218.962 -3.60414 3.07244 0
M  V30 2456 H 219.386 -3.66394 5.69284 0
M  V30 2457 H 224.028 -3.13382 2.83816 0
M  V30 2458 H 221.746 -3.52126 7.27347 0
M  V30 2459 H 225.332 -3.07498 4.93899 0
M  V30 2460 H 224.212 -3.26815 7.12855 0
M  V30 2461 N 221.715 -0.905404 -1.28997 0
M  V30 2462 C 222.961 -0.535039 -1.95615 0
M  V30 2463 C 223.294 0.917404 -1.71165 0
M  V30 2464 O 222.569 1.65123 -1.02785 0
M  V30 2465 C 222.852 -0.834918 -3.50287 0
M  V30 2466 C 222.705 -2.33948 -3.84172 0
M  V30 2467 C 224.024 -0.325318 -4.38896 0
M  V30 2468 H 221.143 -0.195861 -0.710498 0
M  V30 2469 H 223.785 -1.13313 -1.52513 0
M  V30 2470 H 221.935 -0.325904 -3.87131 0
M  V30 2471 H 223.607 -2.91847 -3.57243 0
M  V30 2472 H 221.85 -2.79789 -3.31513 0
M  V30 2473 H 222.521 -2.49987 -4.92149 0
M  V30 2474 H 224.997 -0.761256 -4.09077 0
M  V30 2475 H 223.873 -0.564295 -5.45992 0
M  V30 2476 H 224.134 0.774144 -4.35269 0
M  V30 2477 N 223.193 1.4272 -0.668489 0
M  V30 2478 C 224.418 2.06484 -0.194758 0
M  V30 2479 C 224.843 1.49862 1.13679 0
M  V30 2480 O 224.201 0.614582 1.70565 0
M  V30 2481 C 224.249 3.60353 -0.133546 0
M  V30 2482 O 223.353 4.02464 0.899806 0
M  V30 2483 H 222.694 0.656137 -0.10188 0
M  V30 2484 H 225.224 1.82964 -0.915722 0
M  V30 2485 H 225.234 4.07976 0.0447041 0
M  V30 2486 H 223.909 4.00938 -1.1055 0
M  V30 2487 H 222.486 3.66402 0.693109 0
M  V30 2488 N 224.671 0.411399 1.52136 0
M  V30 2489 C 225.918 -0.163645 2.01838 0
M  V30 2490 C 226.246 -1.4495 1.29691 0
M  V30 2491 O 225.501 -1.91725 0.392431 0
M  V30 2492 C 225.8 -0.455872 3.54481 0
M  V30 2493 C 225.466 0.741055 4.44769 0
M  V30 2494 C 224.128 1.06936 4.69167 0
M  V30 2495 C 226.48 1.54075 4.97906 0
M  V30 2496 C 223.808 2.19851 5.43951 0
M  V30 2497 C 226.16 2.66067 5.73926 0
M  V30 2498 C 224.824 2.99381 5.96596 0
M  V30 2499 H 224.094 -0.0598821 0.738576 0
M  V30 2500 H 226.741 0.553283 1.83333 0
M  V30 2501 H 225.046 -1.2544 3.71177 0
M  V30 2502 H 226.743 -0.913802 3.90449 0
M  V30 2503 H 223.333 0.475192 4.25958 0
M  V30 2504 H 227.517 1.30033 4.78963 0
M  V30 2505 H 222.773 2.46006 5.59724 0
M  V30 2506 H 226.947 3.28419 6.14096 0
M  V30 2507 H 224.574 3.86992 6.54325 0
M  V30 2508 N 226.149 -1.5696 0.141893 0
M  V30 2509 C 227.377 -2.00322 -0.517579 0
M  V30 2510 C 227.792 -1.02193 -1.58752 0
M  V30 2511 O 227.149 -0.0181619 -1.82491 0
M  V30 2512 C 227.2 -3.43618 -1.12289 0
M  V30 2513 O 226.921 -4.37995 -0.0956929 0
M  V30 2514 C 228.422 -4.02231 -1.86347 0
M  V30 2515 H 225.642 -0.657243 -0.135177 0
M  V30 2516 H 228.186 -2.03146 0.234973 0
M  V30 2517 H 226.341 -3.41662 -1.82609 0
M  V30 2518 H 226.755 -5.21729 -0.538469 0
M  V30 2519 H 228.229 -5.04509 -2.23997 0
M  V30 2520 H 228.706 -3.42655 -2.74744 0
M  V30 2521 H 229.312 -4.07802 -1.20737 0
M  V30 2522 N 227.627 0.131896 -1.57047 0
M  V30 2523 C 228.852 0.860418 -1.8871 0
M  V30 2524 C 229.277 1.73251 -0.73251 0
M  V30 2525 O 228.635 1.785 0.317429 0
M  V30 2526 C 228.683 1.68047 -3.19049 0
M  V30 2527 O 227.787 2.7862 -3.04047 0
M  V30 2528 H 227.128 0.238743 -0.619595 0
M  V30 2529 H 229.658 0.118169 -2.04258 0
M  V30 2530 H 229.668 2.07238 -3.51449 0
M  V30 2531 H 228.343 1.04018 -4.02682 0
M  V30 2532 H 226.92 2.42726 -2.83088 0
M  V30 2533 N 229.106 1.52395 0.401703 0
M  V30 2534 C 230.353 1.66817 1.14796 0
M  V30 2535 C 230.681 0.401772 1.90305 0
M  V30 2536 O 229.936 -0.615487 1.85769 0
M  V30 2537 C 230.235 2.84578 2.16217 0
M  V30 2538 C 229.901 4.22513 1.5746 0
M  V30 2539 C 228.563 4.60029 1.41161 0
M  V30 2540 C 230.915 5.0844 1.14622 0
M  V30 2541 C 228.243 5.81144 0.80552 0
M  V30 2542 C 230.595 6.30167 0.55428 0
M  V30 2543 C 229.259 6.66426 0.378482 0
M  V30 2544 H 228.529 0.610428 0.420069 0
M  V30 2545 H 231.176 1.86512 0.434212 0
M  V30 2546 H 229.481 2.59248 2.93764 0
M  V30 2547 H 231.178 2.92933 2.73845 0
M  V30 2548 H 227.768 3.92953 1.71132 0
M  V30 2549 H 231.952 4.80034 1.26021 0
M  V30 2550 H 227.208 6.07855 0.657399 0
M  V30 2551 H 231.382 6.96071 0.213983 0
M  V30 2552 H 229.009 7.60143 -0.0932606 0
M  V30 2553 N 230.584 -0.659388 1.43143 0
M  V30 2554 C 231.861 -1.41627 1.34912 0
M  V30 2555 C 232.241 -2.11099 -0.00607785 0
M  V30 2556 O 231.589 -2.04353 -1.02236 0
M  V30 2557 C 231.799 -2.40604 2.52805 0
M  V30 2558 C 233.147 -3.04789 2.95616 0
M  V30 2559 O 234.171 -2.50932 2.52807 0
M  V30 2560 O 233.03 -4.02421 3.69756 0
M  V30 2561 H 230.124 -0.63246 0.532844 0
M  V30 2562 H 232.67 -0.686814 1.5518 0
M  V30 2563 H 231.442 -1.88174 3.43083 0
M  V30 2564 H 231.065 -3.21009 2.34604 0
M  V30 2565 N 232.062 -1.29571 -0.897171 0
M  V30 2566 C 232.992 -1.17473 -2.01798 0
M  V30 2567 C 233.973 -0.068323 -1.69963 0
M  V30 2568 O 235.158 -0.248239 -1.92607 0
M  V30 2569 C 232.288 -0.853099 -3.36659 0
M  V30 2570 C 231.242 -1.9161 -3.82713 0
M  V30 2571 C 230.568 -1.44773 -5.14728 0
M  V30 2572 C 231.868 -3.32535 -4.02763 0
M  V30 2573 H 233.562 -2.11237 -2.12177 0
M  V30 2574 H 231.108 -1.01699 -1.01948 0
M  V30 2575 H 233.061 -0.755165 -4.14578 0
M  V30 2576 H 231.785 0.120236 -3.26379 0
M  V30 2577 H 230.444 -2.00346 -3.07013 0
M  V30 2578 H 230.092 -0.462995 -5.00865 0
M  V30 2579 H 229.792 -2.15865 -5.46513 0
M  V30 2580 H 231.316 -1.36334 -5.95185 0
M  V30 2581 H 232.73 -3.26626 -4.71156 0
M  V30 2582 H 231.127 -4.01607 -4.45905 0
M  V30 2583 H 232.197 -3.75326 -3.07016 0
M  V30 2584 N 233.54 1.10788 -1.12088 0
M  V30 2585 C 234.488 2.19111 -0.780587 0
M  V30 2586 C 235.482 1.67818 0.230961 0
M  V30 2587 O 236.688 1.79777 0.0895427 0
M  V30 2588 H 233.063 0.714477 -0.234578 0
M  V30 2589 H 235.034 2.45055 -1.70266 0
M  V30 2590 C 233.783 3.46818 -0.24747 0
M  V30 2591 H 233.106 3.86646 -1.01712 0
M  V30 2592 H 234.546 4.23973 -0.0476291 0
M  V30 2593 C 233.005 3.20968 1.02378 0
M  V30 2594 O 233.535 3.42298 2.10226 0
M  V30 2595 N 231.741 2.74658 0.949271 0
M  V30 2596 H 231.288 2.57501 0.0715173 0
M  V30 2597 H 231.246 2.57739 1.80049 0
M  V30 2598 N 235.018 0.912232 1.28515 0
M  V30 2599 C 236.264 0.545405 1.95328 0
M  V30 2600 C 236.597 -0.908313 1.71649 0
M  V30 2601 O 235.872 -1.64575 1.03659 0
M  V30 2602 C 236.155 0.853483 3.4984 0
M  V30 2603 C 236.008 2.35982 3.82926 0
M  V30 2604 C 237.327 0.348589 4.38717 0
M  V30 2605 H 234.446 0.199626 0.709449 0
M  V30 2606 H 237.088 1.1412 1.5191 0
M  V30 2607 H 235.238 0.34643 3.86952 0
M  V30 2608 H 236.91 2.93738 3.55691 0
M  V30 2609 H 235.153 2.81543 3.30024 0
M  V30 2610 H 235.824 2.52593 4.90816 0
M  V30 2611 H 238.3 0.78294 4.08668 0
M  V30 2612 H 237.176 0.593242 5.45685 0
M  V30 2613 H 237.437 -0.751049 4.35674 0
M  V30 2614 N 236.496 -1.42363 0.676048 0
M  V30 2615 C 237.459 -2.29199 0.00766941 0
M  V30 2616 C 238.459 -1.43389 -0.727745 0
M  V30 2617 O 239.649 -1.64764 -0.56556 0
M  V30 2618 C 236.781 -3.2591 -0.999785 0
M  V30 2619 H 237.974 -2.89794 0.771988 0
M  V30 2620 H 235.527 -1.50024 0.438468 0
M  V30 2621 H 236.262 -2.70256 -1.79255 0
M  V30 2622 H 236.047 -3.89202 -0.475829 0
M  V30 2623 H 237.537 -3.91028 -1.46583 0
M  V30 2624 N 237.974 -0.419461 -1.51915 0
M  V30 2625 C 238.922 0.415502 -2.28859 0
M  V30 2626 C 239.916 1.03674 -1.3397 0
M  V30 2627 O 241.122 0.973757 -1.51387 0
M  V30 2628 H 237.497 0.152786 -0.736315 0
M  V30 2629 H 239.468 -0.254531 -2.97312 0
M  V30 2630 C 238.217 1.51425 -3.12995 0
M  V30 2631 H 237.54 1.04556 -3.85886 0
M  V30 2632 H 238.98 2.07208 -3.6992 0
M  V30 2633 C 237.439 2.48745 -2.27217 0
M  V30 2634 O 237.969 3.52871 -1.9195 0
M  V30 2635 N 236.175 2.19202 -1.90785 0
M  V30 2636 H 235.722 1.34556 -2.19664 0
M  V30 2637 H 235.68 2.84561 -1.33687 0
M  V30 2638 N 239.452 1.56882 -0.150215 0
M  V30 2639 C 240.385 2.12712 0.826358 0
M  V30 2640 C 241.363 1.05154 1.24022 0
M  V30 2641 O 242.547 1.33004 1.33575 0
M  V30 2642 C 239.674 2.64945 2.11002 0
M  V30 2643 C 238.72 3.8468 1.84183 0
M  V30 2644 S 239.553 5.25502 1.02995 0
M  V30 2645 C 240.709 5.81125 2.32474 0
M  V30 2646 H 240.942 2.95214 0.351598 0
M  V30 2647 H 238.475 1.54267 0.0641211 0
M  V30 2648 H 240.433 2.95689 2.84742 0
M  V30 2649 H 239.094 1.82568 2.55593 0
M  V30 2650 H 238.287 4.19482 2.79375 0
M  V30 2651 H 237.889 3.54714 1.1855 0
M  V30 2652 H 240.181 5.92753 3.281 0
M  V30 2653 H 241.124 6.78625 2.02171 0
M  V30 2654 H 241.532 5.09392 2.43269 0
M  V30 2655 N 240.93 -0.123565 1.57115 0
M  V30 2656 C 242.207 -0.862196 1.75572 0
M  V30 2657 C 242.587 -1.98279 0.724475 0
M  V30 2658 O 241.935 -2.27102 -0.252407 0
M  V30 2659 C 242.145 -1.38309 3.20424 0
M  V30 2660 C 243.493 -1.83724 3.82793 0
M  V30 2661 O 244.517 -1.47999 3.23998 0
M  V30 2662 O 243.376 -2.49685 4.86127 0
M  V30 2663 H 240.47 -0.409113 0.718718 0
M  V30 2664 H 243.016 -0.107661 1.69358 0
M  V30 2665 H 241.788 -0.578889 3.86994 0
M  V30 2666 H 241.411 -2.20046 3.31158 0
M  V30 2667 N 242.408 -1.52605 -0.393616 0
M  V30 2668 C 243.356 -1.77688 -1.50099 0
M  V30 2669 C 244.35 -0.644615 -1.56656 0
M  V30 2670 O 245.556 -0.826997 -1.59877 0
M  V30 2671 H 241.931 -0.562159 -0.499481 0
M  V30 2672 H 243.902 -2.7043 -1.26135 0
M  V30 2673 C 242.651 -1.95858 -2.87289 0
M  V30 2674 H 241.974 -2.8241 -2.82992 0
M  V30 2675 H 243.414 -2.174 -3.64024 0
M  V30 2676 C 241.873 -0.729848 -3.28899 0
M  V30 2677 O 242.403 0.0949217 -4.01588 0
M  V30 2678 N 240.609 -0.561283 -2.85128 0
M  V30 2679 H 240.156 -1.23357 -2.26143 0
M  V30 2680 H 240.114 0.2595 -3.13327 0
M  V30 2681 N 243.887 0.651787 -1.4349 0
M  V30 2682 C 245.134 1.41167 -1.45183 0
M  V30 2683 C 245.462 1.94349 -0.0766601 0
M  V30 2684 O 244.717 1.72804 0.918555 0
M  V30 2685 C 245.016 2.60914 -2.44251 0
M  V30 2686 C 244.682 2.26142 -3.9009 0
M  V30 2687 C 243.344 2.16371 -4.2981 0
M  V30 2688 C 245.696 1.98334 -4.81989 0
M  V30 2689 C 243.024 1.7695 -5.5938 0
M  V30 2690 C 245.376 1.6041 -6.11924 0
M  V30 2691 C 244.04 1.49166 -6.5062 0
M  V30 2692 H 243.31 0.516566 -0.531263 0
M  V30 2693 H 245.957 0.741099 -1.76579 0
M  V30 2694 H 244.262 3.3311 -2.06265 0
M  V30 2695 H 245.959 3.19127 -2.42815 0
M  V30 2696 H 242.549 2.34658 -3.58655 0
M  V30 2697 H 246.733 2.04803 -4.52072 0
M  V30 2698 H 241.989 1.66831 -5.88198 0
M  V30 2699 H 246.163 1.37925 -6.82605 0
M  V30 2700 H 243.79 1.1839 -7.50925 0
M  V30 2701 N 245.365 1.30045 0.890287 0
M  V30 2702 C 246.612 1.18561 1.64163 0
M  V30 2703 C 246.94 -0.260852 1.92743 0
M  V30 2704 O 246.195 -1.20376 1.54299 0
M  V30 2705 C 246.494 1.95409 2.99249 0
M  V30 2706 C 246.16 3.45066 2.90242 0
M  V30 2707 C 244.822 3.85878 2.87492 0
M  V30 2708 C 247.174 4.4039 2.78758 0
M  V30 2709 C 244.502 5.20314 2.7109 0
M  V30 2710 C 246.854 5.74928 2.63894 0
M  V30 2711 C 245.518 6.14986 2.59516 0
M  V30 2712 H 244.788 0.433846 0.600715 0
M  V30 2713 H 247.435 1.61088 1.03552 0
M  V30 2714 H 245.74 1.45501 3.63781 0
M  V30 2715 H 247.437 1.8392 3.56334 0
M  V30 2716 H 244.027 3.12631 2.93189 0
M  V30 2717 H 248.211 4.09806 2.79952 0
M  V30 2718 H 243.467 5.50449 2.66112 0
M  V30 2719 H 247.641 6.48434 2.53981 0
M  V30 2720 H 245.268 7.19104 2.46565 0
M  V30 2721 N 246.843 -1.10192 1.12674 0
M  V30 2722 C 247.806 -2.14786 0.799979 0
M  V30 2723 C 248.806 -1.59711 -0.18685 0
M  V30 2724 O 249.996 -1.74156 0.0392558 0
M  V30 2725 C 247.128 -3.40374 0.189228 0
M  V30 2726 H 248.321 -2.45203 1.72671 0
M  V30 2727 H 245.874 -1.25597 0.930326 0
M  V30 2728 H 246.609 -3.15577 -0.747107 0
M  V30 2729 H 246.394 -3.81637 0.899766 0
M  V30 2730 H 247.884 -4.17594 -0.0228143 0
M  V30 2731 N 248.321 -0.919034 -1.28029 0
M  V30 2732 C 249.732 -0.600735 -1.76771 0
M  V30 2733 C 250.083 0.884024 -1.75156 0
M  V30 2734 O 249.208 1.69163 -1.34956 0
M  V30 2735 C 249.803 -1.08372 -3.21 0
M  V30 2736 C 248.362 -0.816248 -3.67443 0
M  V30 2737 C 247.509 -1.24742 -2.47658 0
M  V30 2738 H 250.46 -1.09974 -1.14418 0
M  V30 2739 H 250.481 -0.427512 -3.78091 0
M  V30 2740 H 249.993 -2.16437 -3.22144 0
M  V30 2741 H 248.094 0.250968 -3.71754 0
M  V30 2742 H 248.207 -1.4277 -4.57333 0
M  V30 2743 H 246.571 -0.666083 -2.45836 0
M  V30 2744 H 247.354 -2.33653 -2.51518 0
M  V30 2745 N 249.799 1.42003 -0.683588 0
M  V30 2746 C 251.045 2.01712 -0.209825 0
M  V30 2747 C 251.378 1.53968 1.18353 0
M  V30 2748 O 250.653 0.745661 1.79639 0
M  V30 2749 C 250.936 3.59202 -0.254197 0
M  V30 2750 C 250.789 4.17102 -1.68363 0
M  V30 2751 C 252.108 4.38344 0.392709 0
M  V30 2752 H 249.227 0.732891 -0.0777189 0
M  V30 2753 H 251.869 1.68909 -0.87004 0
M  V30 2754 H 250.019 3.87278 0.307954 0
M  V30 2755 H 251.691 3.99946 -2.29871 0
M  V30 2756 H 249.934 3.72597 -2.22157 0
M  V30 2757 H 250.605 5.26249 -1.6663 0
M  V30 2758 H 253.081 4.16011 -0.0859162 0
M  V30 2759 H 251.957 5.47901 0.331063 0
M  V30 2760 H 252.218 4.16887 1.47164 0
M  V30 2761 N 251.277 0.427512 1.51691 0
M  V30 2762 C 252.524 -0.142229 2.02 0
M  V30 2763 C 252.852 -1.43566 1.31221 0
M  V30 2764 O 252.107 -1.91298 0.412744 0
M  V30 2765 C 252.406 -0.418249 3.54944 0
M  V30 2766 C 252.072 0.788187 4.43958 0
M  V30 2767 C 250.734 1.11906 4.68007 0
M  V30 2768 C 253.086 1.59347 4.96244 0
M  V30 2769 C 250.414 2.25608 5.41588 0
M  V30 2770 C 252.766 2.7214 5.71072 0
M  V30 2771 C 251.43 3.05692 5.93387 0
M  V30 2772 H 250.7 -0.0520451 0.73917 0
M  V30 2773 H 253.347 0.572697 1.82736 0
M  V30 2774 H 251.652 -1.21496 3.72486 0
M  V30 2775 H 253.349 -0.872339 3.91397 0
M  V30 2776 H 249.939 0.520344 4.2543 0
M  V30 2777 H 254.123 1.35106 4.77556 0
M  V30 2778 H 249.379 2.51929 5.57083 0
M  V30 2779 H 253.553 3.34914 6.10578 0
M  V30 2780 H 251.18 3.9391 6.50184 0
M  V30 2781 N 252.755 -1.56801 0.158532 0
M  V30 2782 C 253.983 -2.00859 -0.496303 0
M  V30 2783 C 254.398 -1.03871 -1.57659 0
M  V30 2784 O 253.755 -0.0375165 -1.82461 0
M  V30 2785 C 253.806 -3.4479 -1.08638 0
M  V30 2786 O 253.527 -4.38072 -0.0492322 0
M  V30 2787 C 255.028 -4.04185 -1.8207 0
M  V30 2788 H 252.248 -0.65864 -0.128199 0
M  V30 2789 H 254.792 -2.02885 0.256506 0
M  V30 2790 H 252.947 -3.43579 -1.78975 0
M  V30 2791 H 253.361 -5.2227 -0.483102 0
M  V30 2792 H 254.835 -5.06857 -2.18633 0
M  V30 2793 H 255.312 -3.45549 -2.71095 0
M  V30 2794 H 255.918 -4.0906 -1.16405 0
M  V30 2795 N 254.233 0.115231 -1.57178 0
M  V30 2796 C 255.166 1.17166 -1.95825 0
M  V30 2797 C 256.144 1.39912 -0.828463 0
M  V30 2798 O 257.328 1.54004 -1.08697 0
M  V30 2799 C 254.455 2.52478 -2.25771 0
M  V30 2800 C 253.501 2.46136 -3.48309 0
M  V30 2801 S 254.334 1.89736 -5.0076 0
M  V30 2802 C 255.49 3.26713 -5.33863 0
M  V30 2803 H 255.723 0.842103 -2.85124 0
M  V30 2804 H 253.256 0.322136 -1.51002 0
M  V30 2805 H 255.214 3.30332 -2.43702 0
M  V30 2806 H 253.875 2.82609 -1.37079 0
M  V30 2807 H 253.068 3.45819 -3.66641 0
M  V30 2808 H 252.67 1.76404 -3.29784 0
M  V30 2809 H 254.962 4.22935 -5.29275 0
M  V30 2810 H 255.905 3.13205 -6.35065 0
M  V30 2811 H 256.313 3.25316 -4.61335 0
M  V30 2812 N 255.711 1.52812 0.385517 0
M  V30 2813 C 256.959 1.67694 1.12797 0
M  V30 2814 C 257.28 0.421115 1.90399 0
M  V30 2815 O 256.55 -0.564551 1.87589 0
M  V30 2816 H 255.13 0.618155 0.419396 0
M  V30 2817 H 257.792 1.89938 0.436972 0
M  V30 2818 H 256.888 2.52896 1.82894 0
M  V30 2819 N 257.189 -0.644168 1.43834 0
M  V30 2820 C 258.136 -1.75671 1.49694 0
M  V30 2821 C 259.106 -1.6246 0.345809 0
M  V30 2822 O 260.291 -1.82573 0.554234 0
M  V30 2823 C 257.431 -3.13867 1.43463 0
M  V30 2824 C 256.544 -3.38147 2.6885 0
M  V30 2825 C 255.679 -4.66241 2.54544 0
M  V30 2826 C 254.718 -4.83657 3.75157 0
M  V30 2827 N 253.855 -6.03016 3.59605 0
M  V30 2828 H 258.695 -1.69998 2.44754 0
M  V30 2829 H 256.232 -0.829458 1.21484 0
M  V30 2830 H 258.19 -3.9377 1.37843 0
M  V30 2831 H 256.82 -3.18588 0.519783 0
M  V30 2832 H 255.872 -2.52276 2.84712 0
M  V30 2833 H 257.184 -3.46899 3.58417 0
M  V30 2834 H 256.338 -5.54285 2.46683 0
M  V30 2835 H 255.077 -4.59826 1.62516 0
M  V30 2836 H 254.082 -3.94046 3.83416 0
M  V30 2837 H 255.307 -4.91896 4.68204 0
M  V30 2838 H 253.253 -5.97715 2.7032 0
M  V30 2839 H 253.17 -6.12766 4.42779 0
M  V30 2840 H 254.438 -6.93657 3.55613 0
M  V30 2841 N 258.668 -1.30515 -0.883378 0
M  V30 2842 C 259.898 -1.22182 -1.66599 0
M  V30 2843 C 260.306 0.217507 -1.87946 0
M  V30 2844 O 259.649 1.1554 -1.42815 0
M  V30 2845 C 259.711 -1.88146 -3.06335 0
M  V30 2846 C 259.375 -3.37476 -3.08154 0
M  V30 2847 C 260.372 -4.33443 -2.87094 0
M  V30 2848 C 258.057 -3.7895 -3.29701 0
M  V30 2849 C 260.051 -5.68858 -2.8754 0
M  V30 2850 C 257.738 -5.14482 -3.29776 0
M  V30 2851 C 258.736 -6.09246 -3.0872 0
M  V30 2852 O 258.424 -7.42302 -3.08615 0
M  V30 2853 H 258.156 -0.423898 -0.52658 0
M  V30 2854 H 260.71 -1.72703 -1.11188 0
M  V30 2855 H 258.94 -1.32157 -3.63416 0
M  V30 2856 H 260.629 -1.7391 -3.66756 0
M  V30 2857 H 261.395 -4.02733 -2.70243 0
M  V30 2858 H 257.274 -3.05631 -3.45124 0
M  V30 2859 H 260.818 -6.428 -2.71024 0
M  V30 2860 H 256.715 -5.44832 -3.46163 0
M  V30 2861 H 257.483 -7.5131 -3.24769 0
M  V30 2862 N 260.146 1.09593 -1.13257 0
M  V30 2863 C 261.376 1.85231 -0.915049 0
M  V30 2864 C 261.784 1.81345 0.539498 0
M  V30 2865 O 261.127 1.20664 1.38513 0
M  V30 2866 C 261.189 3.34275 -1.3229 0
M  V30 2867 C 260.853 3.6191 -2.79052 0
M  V30 2868 C 261.85 3.57777 -3.77216 0
M  V30 2869 C 259.535 3.90309 -3.16171 0
M  V30 2870 C 261.529 3.81652 -5.1051 0
M  V30 2871 C 259.216 4.13839 -4.49644 0
M  V30 2872 C 260.214 4.09502 -5.46623 0
M  V30 2873 O 259.902 4.32426 -6.77689 0
M  V30 2874 H 259.634 0.591997 -0.326367 0
M  V30 2875 H 262.188 1.394 -1.50854 0
M  V30 2876 H 260.418 3.80805 -0.672667 0
M  V30 2877 H 262.107 3.9132 -1.07812 0
M  V30 2878 H 262.873 3.35865 -3.49885 0
M  V30 2879 H 258.752 3.92811 -2.41289 0
M  V30 2880 H 262.296 3.78182 -5.86195 0
M  V30 2881 H 258.193 4.35232 -4.767 0
M  V30 2882 H 258.961 4.49896 -6.83766 0
M  V30 2883 N 261.624 0.925811 1.2754 0
M  V30 2884 C 262.852 0.581509 1.9856 0
M  V30 2885 C 263.267 -0.840041 1.69082 0
M  V30 2886 O 262.624 -1.55805 0.950312 0
M  V30 2887 C 262.675 0.795589 3.52637 0
M  V30 2888 O 262.396 2.16121 3.81082 0
M  V30 2889 C 263.897 0.459744 4.4091 0
M  V30 2890 H 261.117 0.220538 0.633722 0
M  V30 2891 H 263.661 1.24232 1.6244 0
M  V30 2892 H 261.816 0.18161 3.86974 0
M  V30 2893 H 262.23 2.2098 4.75676 0
M  V30 2894 H 263.704 0.660244 5.48037 0
M  V30 2895 H 264.181 -0.604625 4.35018 0
M  V30 2896 H 264.787 1.05178 4.12089 0
M  V30 2897 N 263.102 -1.41638 0.69111 0
M  V30 2898 C 264.034 -2.29194 -0.0161523 0
M  V30 2899 C 265.047 -1.44549 -0.748955 0
M  V30 2900 O 266.236 -1.681 -0.6004 0
M  V30 2901 C 263.336 -3.22325 -1.0469 0
M  V30 2902 C 262.509 -4.35706 -0.384621 0
M  V30 2903 C 261.568 -5.09443 -1.31737 0
M  V30 2904 O 260.594 -5.63386 -0.811451 0
M  V30 2905 N 261.796 -5.16487 -2.64993 0
M  V30 2906 H 264.561 -2.90534 0.735523 0
M  V30 2907 H 262.122 -1.52742 0.53679 0
M  V30 2908 H 264.114 -3.68522 -1.67252 0
M  V30 2909 H 262.684 -2.62323 -1.70015 0
M  V30 2910 H 261.904 -3.91948 0.420804 0
M  V30 2911 H 263.192 -5.08743 0.0760765 0
M  V30 2912 H 262.59 -4.741 -3.08619 0
M  V30 2913 H 261.147 -5.66276 -3.22761 0
M  V30 2914 N 264.58 -0.43555 -1.51462 0
M  V30 2915 C 265.828 0.131254 -2.01673 0
M  V30 2916 C 266.149 1.43368 -1.32177 0
M  V30 2917 O 265.419 1.90524 -0.455769 0
M  V30 2918 H 263.999 0.0514954 -0.745223 0
M  V30 2919 H 266.661 -0.577847 -1.86137 0
M  V30 2920 H 265.757 0.308446 -3.10572 0
M  V30 2921 N 266.058 1.56714 -0.166846 0
M  V30 2922 C 267.335 1.88412 0.525373 0
M  V30 2923 C 267.715 1.07602 1.81618 0
M  V30 2924 O 267.063 0.168621 2.27877 0
M  V30 2925 C 267.273 3.40363 0.771613 0
M  V30 2926 C 268.621 4.10007 1.1036 0
M  V30 2927 O 269.645 3.45655 0.860304 0
M  V30 2928 O 268.504 5.2369 1.56239 0
M  V30 2929 H 265.598 0.781587 0.270278 0
M  V30 2930 H 268.144 1.68458 -0.204946 0
M  V30 2931 H 266.916 3.91046 -0.141093 0
M  V30 2932 H 266.539 3.65914 1.55541 0
M  V30 2933 N 267.536 -0.106894 1.57237 0
M  V30 2934 C 268.483 -1.13049 2.01217 0
M  V30 2935 C 269.453 -1.40471 0.886403 0
M  V30 2936 O 270.638 -1.52133 1.15153 0
M  V30 2937 C 267.778 -2.4487 2.43172 0
M  V30 2938 C 266.891 -2.24281 3.69218 0
M  V30 2939 C 266.026 -3.49417 4.00101 0
M  V30 2940 C 265.065 -3.24038 5.19294 0
M  V30 2941 N 264.202 -4.41409 5.45988 0
M  V30 2942 H 269.042 -0.748456 2.88448 0
M  V30 2943 H 266.579 -0.358054 1.42676 0
M  V30 2944 H 268.537 -3.21786 2.65537 0
M  V30 2945 H 267.167 -2.80944 1.58967 0
M  V30 2946 H 266.219 -1.38224 3.54398 0
M  V30 2947 H 267.531 -2.01512 4.56283 0
M  V30 2948 H 266.685 -4.34746 4.2318 0
M  V30 2949 H 265.424 -3.75229 3.11535 0
M  V30 2950 H 264.429 -2.37102 4.96047 0
M  V30 2951 H 265.654 -2.99584 6.09447 0
M  V30 2952 H 263.6 -4.67319 4.60379 0
M  V30 2953 H 263.517 -4.21788 6.274 0
M  V30 2954 H 264.785 -5.27836 5.73593 0
M  V30 2955 N 269.014 -1.53014 -0.377408 0
M  V30 2956 C 270.26 -1.68872 -1.12294 0
M  V30 2957 C 270.593 -0.433224 -1.89306 0
M  V30 2958 O 269.868 0.569258 -1.85983 0
M  V30 2959 C 270.151 -2.93115 -2.09179 0
M  V30 2960 C 270.004 -4.28794 -1.35853 0
M  V30 2961 C 271.323 -3.12928 -3.09458 0
M  V30 2962 H 268.442 -0.614518 -0.406862 0
M  V30 2963 H 271.084 -1.85633 -0.40503 0
M  V30 2964 H 269.234 -2.78956 -2.70399 0
M  V30 2965 H 270.906 -4.54742 -0.775082 0
M  V30 2966 H 269.149 -4.28744 -0.660364 0
M  V30 2967 H 269.82 -5.11837 -2.06706 0
M  V30 2968 H 272.296 -3.26194 -2.58334 0
M  V30 2969 H 271.172 -4.01316 -3.74482 0
M  V30 2970 H 271.433 -2.27669 -3.78971 0
M  V30 2971 N 270.492 0.636531 -1.44174 0
M  V30 2972 C 271.422 1.76003 -1.53444 0
M  V30 2973 C 272.403 1.65619 -0.387841 0
M  V30 2974 O 273.588 1.84461 -0.607257 0
M  V30 2975 C 270.718 3.14511 -1.4731 0
M  V30 2976 C 269.672 3.39677 -2.60391 0
M  V30 2977 C 268.998 4.78159 -2.39308 0
M  V30 2978 C 270.298 3.32772 -4.02567 0
M  V30 2979 H 271.992 1.68501 -2.47483 0
M  V30 2980 H 269.538 0.809237 -1.19111 0
M  V30 2981 H 271.491 3.92878 -1.52397 0
M  V30 2982 H 270.215 3.22783 -0.49785 0
M  V30 2983 H 268.874 2.63688 -2.54684 0
M  V30 2984 H 268.522 4.83128 -1.39988 0
M  V30 2985 H 268.222 4.95956 -3.15122 0
M  V30 2986 H 269.746 5.58762 -2.46205 0
M  V30 2987 H 271.16 4.01051 -4.09672 0
M  V30 2988 H 269.557 3.62104 -4.7854 0
M  V30 2989 H 270.627 2.30669 -4.2652 0
M  V30 2990 N 271.97 1.30982 0.876444 0
M  V30 2991 C 272.903 1.12414 1.98591 0
M  V30 2992 C 273.881 0.0294078 1.62573 0
M  V30 2993 O 275.065 0.184598 1.87594 0
M  V30 2994 C 272.192 0.716276 3.3104 0
M  V30 2995 C 271.238 1.81311 3.86042 0
M  V30 2996 S 272.071 3.41727 4.1229 0
M  V30 2997 C 273.227 3.02863 5.47745 0
M  V30 2998 H 273.46 2.06338 2.14037 0
M  V30 2999 H 270.993 1.15393 1.02586 0
M  V30 3000 H 272.951 0.487697 4.07593 0
M  V30 3001 H 271.612 -0.203749 3.13438 0
M  V30 3002 H 270.805 1.48021 4.81774 0
M  V30 3003 H 270.407 1.99641 3.16259 0
M  V30 3004 H 272.699 2.51353 6.29148 0
M  V30 3005 H 273.642 3.97533 5.8598 0
M  V30 3006 H 274.05 2.40487 5.10711 0
M  V30 3007 N 273.449 -1.08991 1.13837 0
M  V30 3008 C 274.86 -1.62746 0.914917 0
M  V30 3009 C 275.211 -1.88403 -0.547594 0
M  V30 3010 O 274.336 -1.63706 -1.41525 0
M  V30 3011 C 274.931 -2.95662 1.65437 0
M  V30 3012 C 273.49 -3.46225 1.47666 0
M  V30 3013 C 272.637 -2.20562 1.6807 0
M  V30 3014 H 275.588 -0.922946 1.29102 0
M  V30 3015 H 275.609 -3.63825 1.11407 0
M  V30 3016 H 275.121 -2.76956 2.71877 0
M  V30 3017 H 273.222 -3.70046 0.435478 0
M  V30 3018 H 273.335 -4.23368 2.24268 0
M  V30 3019 H 271.699 -2.29439 1.10589 0
M  V30 3020 H 272.482 -2.0437 2.7584 0
M  V30 3021 N 274.927 -0.932562 -1.27047 0
M  V30 3022 C 275.857 -0.452902 -2.29066 0
M  V30 3023 C 276.838 0.489338 -1.62909 0
M  V30 3024 O 278.023 0.393046 -1.90181 0
M  V30 3025 C 275.153 0.290698 -3.46081 0
M  V30 3026 C 274.107 -0.564168 -4.24265 0
M  V30 3027 C 273.433 0.308886 -5.33807 0
M  V30 3028 C 274.733 -1.83112 -4.89149 0
M  V30 3029 H 276.427 -1.30552 -2.69437 0
M  V30 3030 H 273.973 -0.629201 -1.29526 0
M  V30 3031 H 275.926 0.637233 -4.16554 0
M  V30 3032 H 274.65 1.17738 -3.0464 0
M  V30 3033 H 273.309 -0.893477 -3.55545 0
M  V30 3034 H 272.957 1.19467 -4.88607 0
M  V30 3035 H 272.657 -0.259633 -5.87026 0
M  V30 3036 H 274.181 0.650884 -6.07121 0
M  V30 3037 H 275.595 -1.55236 -5.51883 0
M  V30 3038 H 273.992 -2.34353 -5.52448 0
M  V30 3039 H 275.062 -2.54772 -4.12576 0
M  V30 3040 N 276.405 1.4127 -0.698611 0
M  V30 3041 C 277.368 2.29158 -0.044132 0
M  V30 3042 C 278.368 1.44529 0.704841 0
M  V30 3043 O 279.558 1.65643 0.539276 0
M  V30 3044 C 276.69 3.27459 0.947809 0
M  V30 3045 H 277.883 2.88529 -0.817994 0
M  V30 3046 H 275.436 1.49307 -0.46228 0
M  V30 3047 H 276.171 2.73073 1.74933 0
M  V30 3048 H 275.956 3.8991 0.41385 0
M  V30 3049 H 277.446 3.93311 1.40344 0
M  V30 3050 N 277.883 0.443576 1.51229 0
M  V30 3051 C 279.132 -0.122332 2.01329 0
M  V30 3052 C 279.445 -1.43237 1.33201 0
M  V30 3053 O 280.651 -2.0816 1.74304 0
M  V30 3054 C 279.107 -0.268551 3.58897 0
M  V30 3055 C 278.715 1.03142 4.35965 0
M  V30 3056 C 280.459 -0.787894 4.17124 0
M  V30 3057 C 278.366 0.850504 5.85252 0
M  V30 3058 H 277.296 -0.0494929 0.752374 0
M  V30 3059 H 279.947 0.574289 1.74282 0
M  V30 3060 H 278.329 -1.02832 3.82415 0
M  V30 3061 H 279.503 1.80001 4.24189 0
M  V30 3062 H 277.818 1.47977 3.89219 0
M  V30 3063 H 280.415 -0.939841 5.26375 0
M  V30 3064 H 280.758 -1.77201 3.76703 0
M  V30 3065 H 281.291 -0.0862669 3.97706 0
M  V30 3066 H 278.03 1.80718 6.30096 0
M  V30 3067 H 277.55 0.121825 5.99676 0
M  V30 3068 H 279.229 0.506163 6.45017 0
M  V30 3069 N 279.361 -1.56624 0.175154 0
M  V30 3070 C 280.293 -2.15333 -0.785128 0
M  V30 3071 C 281.306 -1.1099 -1.19101 0
M  V30 3072 O 282.495 -1.38162 -1.13019 0
M  V30 3073 C 279.595 -2.68427 -2.06882 0
M  V30 3074 C 278.768 -3.97466 -1.8259 0
M  V30 3075 C 277.827 -4.35585 -2.95215 0
M  V30 3076 O 276.853 -5.03389 -2.65684 0
M  V30 3077 N 278.055 -3.97457 -4.23094 0
M  V30 3078 H 280.82 -2.98359 -0.283187 0
M  V30 3079 H 278.381 -1.61898 -0.00749817 0
M  V30 3080 H 280.373 -2.90924 -2.81328 0
M  V30 3081 H 278.943 -1.89968 -2.48256 0
M  V30 3082 H 278.163 -3.83307 -0.920287 0
M  V30 3083 H 279.451 -4.81736 -1.63733 0
M  V30 3084 H 278.849 -3.42878 -4.49945 0
M  V30 3085 H 277.406 -4.24947 -4.9423 0
M  V30 3086 N 280.839 0.0985539 -1.57292 0
M  V30 3087 C 282.085 0.803867 -1.86188 0
M  V30 3088 C 282.418 1.78549 -0.763794 0
M  V30 3089 O 281.693 1.93153 0.22855 0
M  V30 3090 C 281.976 1.53568 -3.25713 0
M  V30 3091 C 281.829 0.572277 -4.46145 0
M  V30 3092 C 283.148 2.48708 -3.63087 0
M  V30 3093 H 280.267 0.290781 -0.677211 0
M  V30 3094 H 282.909 0.0675783 -1.8988 0
M  V30 3095 H 281.059 2.16332 -3.22696 0
M  V30 3096 H 282.731 -0.0480894 -4.61275 0
M  V30 3097 H 280.974 -0.114618 -4.33649 0
M  V30 3098 H 281.645 1.12139 -5.40489 0
M  V30 3099 H 284.121 1.96039 -3.67026 0
M  V30 3100 H 282.997 2.96932 -4.61652 0
M  V30 3101 H 283.258 3.32309 -2.91588 0
M  V30 3102 N 282.317 1.53212 0.369288 0
M  V30 3103 C 283.267 1.75769 1.45222 0
M  V30 3104 C 284.251 0.612136 1.48801 0
M  V30 3105 O 285.443 0.870674 1.54105 0
M  V30 3106 C 282.572 1.94769 2.82701 0
M  V30 3107 C 281.658 3.15315 2.83615 0
M  V30 3108 N 282.049 4.37295 2.54178 0
M  V30 3109 C 280.347 3.15962 3.14776 0
M  V30 3110 C 281.048 5.19015 2.62675 0
M  V30 3111 N 280.024 4.55142 2.97232 0
M  V30 3112 H 283.826 2.67691 1.2132 0
M  V30 3113 H 281.34 1.51787 0.577438 0
M  V30 3114 H 283.337 2.09056 3.60696 0
M  V30 3115 H 281.997 1.04073 3.07569 0
M  V30 3116 H 283.008 4.65091 2.27839 0
M  V30 3117 H 279.685 2.35144 3.44983 0
M  V30 3118 H 281.075 6.26305 2.43294 0
M  V30 3119 N 283.795 -0.628877 1.44509 0
M  V30 3120 C 284.745 -1.7345 1.47983 0
M  V30 3121 C 285.729 -1.5715 0.345373 0
M  V30 3122 O 286.921 -1.66848 0.590829 0
M  V30 3123 C 284.05 -3.12143 1.42904 0
M  V30 3124 C 283.136 -3.33906 2.61472 0
M  V30 3125 N 283.527 -3.26024 3.86706 0
M  V30 3126 C 281.825 -3.64709 2.56716 0
M  V30 3127 C 282.526 -3.48536 4.65722 0
M  V30 3128 N 281.502 -3.71517 3.96832 0
M  V30 3129 H 285.304 -1.65818 2.42655 0
M  V30 3130 H 282.818 -0.831419 1.39503 0
M  V30 3131 H 284.815 -3.91433 1.43476 0
M  V30 3132 H 283.475 -3.2094 0.492717 0
M  V30 3133 H 284.486 -3.04893 4.18641 0
M  V30 3134 H 281.163 -3.80473 1.71891 0
M  V30 3135 H 282.553 -3.48016 5.74747 0
M  V30 3136 N 285.273 -1.31445 -0.869486 0
M  V30 3137 C 286.236 -1.19094 -1.9583 0
M  V30 3138 C 287.236 -0.117906 -1.60367 0
M  V30 3139 O 288.426 -0.367208 -1.70286 0
M  V30 3140 C 285.558 -0.828165 -3.30688 0
M  V30 3141 H 286.751 -2.15842 -2.08212 0
M  V30 3142 H 284.304 -1.15063 -1.05784 0
M  V30 3143 H 285.039 0.138142 -3.24006 0
M  V30 3144 H 284.824 -1.6038 -3.578 0
M  V30 3145 H 286.314 -0.765658 -4.10521 0
M  V30 3146 N 286.751 1.08385 -1.14413 0
M  V30 3147 C 287.997 1.81044 -0.913834 0
M  V30 3148 C 288.33 1.86004 0.558209 0
M  V30 3149 O 287.605 1.33606 1.4135 0
M  V30 3150 C 287.888 3.26648 -1.51569 0
M  V30 3151 C 287.741 3.29895 -3.0576 0
M  V30 3152 C 289.06 4.23629 -1.19273 0
M  V30 3153 H 286.179 0.65727 -0.333414 0
M  V30 3154 H 288.821 1.26896 -1.41412 0
M  V30 3155 H 286.971 3.72889 -1.09023 0
M  V30 3156 H 288.643 2.91977 -3.57137 0
M  V30 3157 H 286.886 2.69163 -3.40197 0
M  V30 3158 H 287.557 4.32516 -3.42977 0
M  V30 3159 H 290.033 3.85727 -1.56057 0
M  V30 3160 H 288.909 5.23822 -1.64017 0
M  V30 3161 H 289.17 4.41968 -0.108068 0
M  V30 3162 N 288.23 0.939286 1.26551 0
M  V30 3163 C 289.47 0.5933 1.956 0
M  V30 3164 C 289.834 -0.851515 1.72085 0
M  V30 3165 O 291.035 -1.30634 2.34921 0
M  V30 3166 C 289.306 0.923996 3.45249 0
M  V30 3167 S 290.865 0.688269 4.33369 0
M  V30 3168 H 287.683 0.218591 0.676564 0
M  V30 3169 H 290.285 1.2102 1.5354 0
M  V30 3170 H 288.989 1.97297 3.59864 0
M  V30 3171 H 288.52 0.296746 3.92279 0
M  V30 3172 H 290.535 -0.448434 4.9417 0
M  V30 3173 N 289.708 -1.40897 0.706093 0
M  V30 3174 C 290.985 -1.94868 0.169099 0
M  V30 3175 C 291.365 -1.64485 -1.32318 0
M  V30 3176 O 290.713 -0.95744 -2.07474 0
M  V30 3177 C 290.923 -3.45798 0.471654 0
M  V30 3178 C 292.271 -4.22663 0.405127 0
M  V30 3179 O 293.295 -3.53865 0.407168 0
M  V30 3180 O 292.154 -5.45216 0.374383 0
M  V30 3181 H 289.248 -0.82673 0.0211352 0
M  V30 3182 H 291.794 -1.50558 0.782976 0
M  V30 3183 H 290.566 -3.61235 1.50416 0
M  V30 3184 H 290.189 -3.97225 -0.172666 0
M  V30 3185 N 291.186 -0.45159 -1.50991 0
M  V30 3186 C 292.434 0.109857 -2.01801 0
M  V30 3187 C 292.755 1.41958 -1.3369 0
M  V30 3188 O 292.025 1.9003 -0.475951 0
M  V30 3189 H 290.605 0.0435884 -0.745727 0
M  V30 3190 H 293.267 -0.597557 -1.85514 0
M  V30 3191 H 292.363 0.275489 -3.10882 0
M  V30 3192 N 292.664 1.56529 -0.183458 0
M  V30 3193 C 293.911 1.97244 0.458357 0
M  V30 3194 C 294.239 1.06992 1.62428 0
M  V30 3195 O 293.494 0.106542 1.9541 0
M  V30 3196 C 293.793 3.43939 0.971637 0
M  V30 3197 C 293.459 4.5083 -0.0796784 0
M  V30 3198 C 292.121 4.79786 -0.368584 0
M  V30 3199 C 294.473 5.15138 -0.792638 0
M  V30 3200 C 291.801 5.70345 -1.37563 0
M  V30 3201 C 294.153 6.06784 -1.78875 0
M  V30 3202 C 292.817 6.34102 -2.08497 0
M  V30 3203 H 292.087 0.721768 0.167725 0
M  V30 3204 H 294.734 1.89472 -0.277976 0
M  V30 3205 H 293.039 3.48724 1.78602 0
M  V30 3206 H 294.736 3.72791 1.47744 0
M  V30 3207 H 291.326 4.28317 0.155668 0
M  V30 3208 H 295.51 4.92868 -0.582659 0
M  V30 3209 H 290.766 5.89789 -1.61118 0
M  V30 3210 H 294.94 6.55677 -2.3465 0
M  V30 3211 H 292.567 7.04074 -2.86678 0
M  V30 3212 N 294.142 -0.090211 1.57342 0
M  V30 3213 C 295.092 -1.11557 1.98844 0
M  V30 3214 C 296.076 -1.35503 0.867624 0
M  V30 3215 O 297.268 -1.36113 1.13148 0
M  V30 3216 C 294.397 -2.43446 2.42051 0
M  V30 3217 C 293.483 -2.22853 3.60828 0
M  V30 3218 N 293.874 -1.72141 4.75606 0
M  V30 3219 C 292.172 -2.53401 3.67021 0
M  V30 3220 C 292.873 -1.65932 5.57531 0
M  V30 3221 N 291.849 -2.11323 5.00843 0
M  V30 3222 H 295.651 -0.716499 2.85032 0
M  V30 3223 H 293.165 -0.297567 1.59651 0
M  V30 3224 H 295.162 -3.17644 2.70014 0
M  V30 3225 H 293.822 -2.84087 1.57241 0
M  V30 3226 H 294.833 -1.41268 4.98261 0
M  V30 3227 H 291.51 -2.97532 2.92884 0
M  V30 3228 H 292.9 -1.27733 6.59647 0
M  V30 3229 N 295.62 -1.53406 -0.361157 0
M  V30 3230 C 296.866 -1.70054 -1.10496 0
M  V30 3231 C 297.199 -0.453278 -1.88836 0
M  V30 3232 O 296.474 0.5495 -1.86576 0
M  V30 3233 C 296.757 -2.95317 -2.06058 0
M  V30 3234 C 296.61 -4.3021 -1.31298 0
M  V30 3235 C 297.929 -3.16193 -3.06121 0
M  V30 3236 H 295.048 -0.618799 -0.400321 0
M  V30 3237 H 297.69 -1.86052 -0.385318 0
M  V30 3238 H 295.84 -2.81809 -2.67425 0
M  V30 3239 H 297.512 -4.55538 -0.726807 0
M  V30 3240 H 295.755 -4.29421 -0.614853 0
M  V30 3241 H 296.426 -5.14 -2.01265 0
M  V30 3242 H 298.902 -3.28916 -2.5486 0
M  V30 3243 H 297.778 -4.05266 -3.70204 0
M  V30 3244 H 298.039 -2.31676 -3.76535 0
M  V30 3245 N 297.098 0.621204 -1.44841 0
M  V30 3246 C 298.346 1.37783 -1.47852 0
M  V30 3247 C 298.667 1.94653 -0.116224 0
M  V30 3248 O 297.937 1.76367 0.852737 0
M  V30 3249 H 296.517 0.511453 -0.544449 0
M  V30 3250 H 299.179 0.730446 -1.80694 0
M  V30 3251 H 298.275 2.20414 -2.20961 0
M  V30 3252 N 298.576 1.31904 0.862503 0
M  V30 3253 C 299.992 1.10724 1.14945 0
M  V30 3254 C 300.192 -0.117421 2.01158 0
M  V30 3255 O 299.248 -0.804595 2.39338 0
M  V30 3256 C 300.561 2.38267 1.83437 0
M  V30 3257 C 302.109 2.43949 1.96106 0
M  V30 3258 C 302.584 3.71394 2.68013 0
M  V30 3259 N 304.075 3.72331 2.75543 0
M  V30 3260 C 304.81 4.67641 3.31812 0
M  V30 3261 N 304.306 5.73313 3.88953 0
M  V30 3262 N 306.099 4.5515 3.29841 0
M  V30 3263 H 298.25 2.10436 0.288191 0
M  V30 3264 H 300.513 0.928705 0.190292 0
M  V30 3265 H 300.219 3.27759 1.27542 0
M  V30 3266 H 300.093 2.48633 2.83657 0
M  V30 3267 H 302.48 1.54922 2.51164 0
M  V30 3268 H 302.561 2.37543 0.949059 0
M  V30 3269 H 302.205 4.60791 2.13621 0
M  V30 3270 H 302.135 3.75069 3.69636 0
M  V30 3271 H 304.626 2.95947 2.34997 0
M  V30 3272 H 304.939 6.42107 4.30022 0
M  V30 3273 H 303.284 5.77077 3.87308 0
M  V30 3274 H 306.475 3.71766 2.84443 0
M  V30 3275 H 306.648 5.29604 3.73394 0
M  V30 3276 N 300.054 -1.07777 1.14986 0
M  V30 3277 C 300.987 -2.14228 0.786243 0
M  V30 3278 C 301.965 -1.60888 -0.235347 0
M  V30 3279 O 303.149 -1.88099 -0.122909 0
M  V30 3280 C 300.276 -3.38281 0.168433 0
M  V30 3281 C 299.322 -4.10387 1.16123 0
M  V30 3282 S 300.155 -4.62371 2.70135 0
M  V30 3283 C 301.311 -5.89704 2.09762 0
M  V30 3284 H 301.544 -2.44741 1.68787 0
M  V30 3285 H 299.077 -1.19984 0.971756 0
M  V30 3286 H 301.035 -4.10098 -0.181588 0
M  V30 3287 H 299.696 -3.05953 -0.710725 0
M  V30 3288 H 298.889 -4.99431 0.677086 0
M  V30 3289 H 298.491 -3.44513 1.45556 0
M  V30 3290 H 300.783 -6.61648 1.45701 0
M  V30 3291 H 301.726 -6.42824 2.96955 0
M  V30 3292 H 302.134 -5.4302 1.54239 0
M  V30 3293 N 301.532 -0.945985 -1.26051 0
M  V30 3294 C 302.462 -0.477172 -2.28572 0
M  V30 3295 C 303.443 0.472032 -1.63419 0
M  V30 3296 O 304.628 0.372853 -1.90587 0
M  V30 3297 C 301.758 0.253975 -3.4637 0
M  V30 3298 C 300.712 -0.609135 -4.23643 0
M  V30 3299 C 300.038 0.252252 -5.34105 0
M  V30 3300 C 301.338 -1.8829 -4.8718 0
M  V30 3301 H 303.032 -1.33402 -2.68038 0
M  V30 3302 H 300.578 -0.642904 -1.28852 0
M  V30 3303 H 302.531 0.593016 -4.17207 0
M  V30 3304 H 301.255 1.145 -3.05871 0
M  V30 3305 H 299.914 -0.931138 -3.54578 0
M  V30 3306 H 299.562 1.14278 -4.89846 0
M  V30 3307 H 299.262 -0.32188 -5.86718 0
M  V30 3308 H 300.786 0.586454 -6.07777 0
M  V30 3309 H 302.2 -1.61081 -5.50205 0
M  V30 3310 H 300.597 -2.40199 -5.49931 0
M  V30 3311 H 301.667 -2.59134 -4.09851 0
M  V30 3312 N 303.011 1.40521 -0.713556 0
M  V30 3313 C 303.959 2.32549 -0.0485227 0
M  V30 3314 C 304.953 1.51931 0.74922 0
M  V30 3315 O 306.159 1.67745 0.652816 0
M  V30 3316 H 302.534 0.751994 0.00311138 0
M  V30 3317 H 304.505 2.86291 -0.841443 0
M  V30 3318 C 303.254 3.36879 0.860687 0
M  V30 3319 H 302.577 3.98978 0.256246 0
M  V30 3320 H 304.017 4.03772 1.294 0
M  V30 3321 C 302.476 2.72197 1.9852 0
M  V30 3322 O 303.006 2.5837 3.07584 0
M  V30 3323 N 301.212 2.30612 1.76823 0
M  V30 3324 H 300.759 2.42059 0.881217 0
M  V30 3325 H 300.717 1.87672 2.52243 0
M  V30 3326 N 304.489 0.459591 1.5075 0
M  V30 3327 C 305.399 -0.34613 2.32033 0
M  V30 3328 C 306.415 -1.00686 1.41909 0
M  V30 3329 O 307.591 -0.997361 1.7497 0
M  V30 3330 C 304.656 -1.42029 3.16273 0
M  V30 3331 C 303.717 -0.777362 4.22203 0
M  V30 3332 C 302.95 -1.80034 5.02418 0
M  V30 3333 O 303.173 -3.02544 4.83553 0
M  V30 3334 O 302.107 -1.37853 5.85901 0
M  V30 3335 H 305.933 0.318054 3.0203 0
M  V30 3336 H 303.518 0.221663 1.47746 0
M  V30 3337 H 305.4 -2.04275 3.68578 0
M  V30 3338 H 304.075 -2.06815 2.49016 0
M  V30 3339 H 302.982 -0.116256 3.73919 0
M  V30 3340 H 304.315 -0.172634 4.91897 0
M  V30 3341 N 305.967 -1.56429 0.191757 0
M  V30 3342 C 306.897 -2.21937 -0.725696 0
M  V30 3343 C 307.878 -1.1814 -1.2238 0
M  V30 3344 O 309.063 -1.46636 -1.27325 0
M  V30 3345 C 306.193 -2.87611 -1.94672 0
M  V30 3346 C 305.147 -3.97623 -1.58366 0
M  V30 3347 C 304.473 -4.50446 -2.88102 0
M  V30 3348 C 305.773 -5.16197 -0.796133 0
M  V30 3349 H 307.467 -2.98861 -0.179606 0
M  V30 3350 H 305.013 -1.43749 -0.0849464 0
M  V30 3351 H 306.966 -3.3212 -2.59373 0
M  V30 3352 H 305.69 -2.08087 -2.51728 0
M  V30 3353 H 304.349 -3.53801 -0.960247 0
M  V30 3354 H 303.997 -3.67688 -3.43241 0
M  V30 3355 H 303.697 -5.24675 -2.64556 0
M  V30 3356 H 305.221 -4.97654 -3.53798 0
M  V30 3357 H 306.635 -5.57271 -1.34618 0
M  V30 3358 H 305.032 -5.96471 -0.658928 0
M  V30 3359 H 306.102 -4.84473 0.203478 0
M  V30 3360 N 307.445 0.0818655 -1.57387 0
M  V30 3361 C 308.377 1.12484 -1.997 0
M  V30 3362 C 309.39 1.35564 -0.90146 0
M  V30 3363 O 310.579 1.33982 -1.17945 0
M  V30 3364 C 307.679 2.47778 -2.31213 0
M  V30 3365 C 306.852 2.44793 -3.62485 0
M  V30 3366 C 305.911 3.62117 -3.81782 0
M  V30 3367 O 304.937 3.44005 -4.53486 0
M  V30 3368 N 306.139 4.82094 -3.23367 0
M  V30 3369 H 308.904 0.764585 -2.89783 0
M  V30 3370 H 306.465 0.270664 -1.59621 0
M  V30 3371 H 308.457 3.24891 -2.41304 0
M  V30 3372 H 307.027 2.75843 -1.4707 0
M  V30 3373 H 306.247 1.53134 -3.6324 0
M  V30 3374 H 307.535 2.39889 -4.48699 0
M  V30 3375 H 306.933 4.99713 -2.65148 0
M  V30 3376 H 305.49 5.56753 -3.38923 0
M  V30 3377 N 308.923 1.53595 0.353017 0
M  V30 3378 C 309.855 1.77219 1.45348 0
M  V30 3379 C 310.868 0.65324 1.49119 0
M  V30 3380 O 312.057 0.929775 1.52373 0
M  V30 3381 C 309.157 1.84841 2.84055 0
M  V30 3382 C 308.33 3.14649 3.03833 0
M  V30 3383 C 307.389 3.13351 4.22727 0
M  V30 3384 O 306.415 3.87107 4.17297 0
M  V30 3385 N 307.617 2.35052 5.30783 0
M  V30 3386 H 310.382 2.72178 1.25457 0
M  V30 3387 H 307.943 1.52528 0.542833 0
M  V30 3388 H 309.935 1.81435 3.61751 0
M  V30 3389 H 308.505 0.971114 2.97133 0
M  V30 3390 H 307.725 3.31256 2.13689 0
M  V30 3391 H 309.013 4.00411 3.13925 0
M  V30 3392 H 308.411 1.74663 5.38061 0
M  V30 3393 H 306.968 2.37453 6.07009 0
M  V30 3394 N 310.401 -0.613514 1.45168 0
M  V30 3395 C 311.631 -1.39743 1.52169 0
M  V30 3396 C 312.039 -1.88596 0.151086 0
M  V30 3397 O 311.382 -1.6251 -0.856521 0
M  V30 3398 C 311.444 -2.64035 2.43979 0
M  V30 3399 C 311.108 -2.36861 3.90827 0
M  V30 3400 C 312.105 -1.97591 4.80889 0
M  V30 3401 C 309.79 -2.49956 4.35692 0
M  V30 3402 C 311.784 -1.71768 6.1382 0
M  V30 3403 C 309.471 -2.23747 5.68665 0
M  V30 3404 C 310.469 -1.84714 6.57548 0
M  V30 3405 O 310.157 -1.58809 7.88058 0
M  V30 3406 H 309.889 -0.434382 0.517966 0
M  V30 3407 H 312.443 -0.75587 1.90986 0
M  V30 3408 H 310.673 -3.3089 2.00122 0
M  V30 3409 H 312.362 -3.26069 2.41731 0
M  V30 3410 H 313.128 -1.87015 4.47493 0
M  V30 3411 H 309.007 -2.79305 3.66756 0
M  V30 3412 H 312.551 -1.41227 6.83155 0
M  V30 3413 H 308.448 -2.33938 6.01617 0
M  V30 3414 H 309.216 -1.7291 8.00028 0
M  V30 3415 N 311.879 -1.3236 -0.855495 0
M  V30 3416 C 313.119 -1.24187 -1.62348 0
M  V30 3417 C 313.483 0.193597 -1.91021 0
M  V30 3418 O 314.684 0.39904 -2.65822 0
M  V30 3419 C 312.955 -2.07661 -2.90881 0
M  V30 3420 S 314.514 -2.16505 -3.81669 0
M  V30 3421 H 311.332 -0.442076 -0.556857 0
M  V30 3422 H 313.934 -1.67198 -1.01317 0
M  V30 3423 H 312.638 -3.11018 -2.67761 0
M  V30 3424 H 312.169 -1.65425 -3.56929 0
M  V30 3425 H 314.184 -1.31394 -4.78487 0
M  V30 3426 N 313.357 1.07166 -1.15556 0
M  V30 3427 C 314.634 1.76546 -0.842069 0
M  V30 3428 C 315.014 2.00453 0.661939 0
M  V30 3429 O 314.362 1.62452 1.60691 0
M  V30 3430 C 314.572 3.07266 -1.65495 0
M  V30 3431 C 315.92 3.81578 -1.86234 0
M  V30 3432 O 316.944 3.17083 -1.62287 0
M  V30 3433 O 315.803 4.97419 -2.26355 0
M  V30 3434 H 312.897 0.766756 -0.309862 0
M  V30 3435 H 315.443 1.13514 -1.26145 0
M  V30 3436 H 314.215 2.85494 -2.67598 0
M  V30 3437 H 313.838 3.7803 -1.23203 0
M  V30 3438 N 314.835 0.952656 1.25548 0
M  V30 3439 C 315.745 0.47782 2.29682 0
M  V30 3440 C 316.761 -0.453859 1.67977 0
M  V30 3441 O 317.937 -0.330587 1.98668 0
M  V30 3442 C 315.002 -0.238655 3.45878 0
M  V30 3443 C 314.063 0.730994 4.23031 0
M  V30 3444 C 313.296 0.0486165 5.33678 0
M  V30 3445 O 313.519 -1.16612 5.58353 0
M  V30 3446 O 312.453 0.733152 5.97418 0
M  V30 3447 H 316.279 1.34312 2.72386 0
M  V30 3448 H 313.864 0.719026 1.30959 0
M  V30 3449 H 315.746 -0.641774 4.16484 0
M  V30 3450 H 314.421 -1.07916 3.05181 0
M  V30 3451 H 313.328 1.18428 3.5486 0
M  V30 3452 H 314.661 1.53946 4.67506 0
M  V30 3453 N 316.313 -1.40141 0.720998 0
M  V30 3454 C 317.559 -2.01572 0.272075 0
M  V30 3455 C 317.914 -1.5616 -1.12391 0
M  V30 3456 O 317.207 -0.774198 -1.75262 0
M  V30 3457 C 317.401 -3.56165 0.296892 0
M  V30 3458 C 317.23 -4.16584 1.69375 0
M  V30 3459 C 316 -4.49783 2.30269 0
M  V30 3460 C 318.198 -4.41076 2.64493 0
M  V30 3461 N 316.18 -4.95626 3.62254 0
M  V30 3462 C 317.551 -4.88971 3.81192 0
M  V30 3463 C 319.606 -4.23122 2.62435 0
M  V30 3464 C 318.309 -5.20796 4.96149 0
M  V30 3465 C 320.335 -4.56052 3.76524 0
M  V30 3466 C 319.697 -5.04141 4.91956 0
M  V30 3467 H 315.796 -0.768343 0.145511 0
M  V30 3468 H 318.38 -1.70287 0.943959 0
M  V30 3469 H 316.551 -3.86868 -0.344578 0
M  V30 3470 H 318.283 -4.04346 -0.169254 0
M  V30 3471 H 315.038 -4.37101 1.82318 0
M  V30 3472 H 315.462 -5.22923 4.29977 0
M  V30 3473 H 320.104 -3.85158 1.74393 0
M  V30 3474 H 317.822 -5.57672 5.84831 0
M  V30 3475 H 321.408 -4.43796 3.76213 0
M  V30 3476 H 320.288 -5.29142 5.78774 0
M  V30 3477 N 317.792 -0.46758 -1.50504 0
M  V30 3478 C 318.724 0.364655 -2.26281 0
M  V30 3479 C 319.737 0.960151 -1.31472 0
M  V30 3480 O 320.926 0.849153 -1.57008 0
M  V30 3481 C 318.026 1.52509 -3.02645 0
M  V30 3482 C 317.199 1.04302 -4.24782 0
M  V30 3483 C 316.258 2.07709 -4.8347 0
M  V30 3484 O 315.284 1.65913 -5.44483 0
M  V30 3485 N 316.486 3.40485 -4.70159 0
M  V30 3486 H 319.251 -0.28495 -2.98342 0
M  V30 3487 H 316.812 -0.298163 -1.59131 0
M  V30 3488 H 318.804 2.21371 -3.38787 0
M  V30 3489 H 317.374 2.07945 -2.33404 0
M  V30 3490 H 316.594 0.180393 -3.93787 0
M  V30 3491 H 317.882 0.698798 -5.03978 0
M  V30 3492 H 317.28 3.77155 -4.21629 0
M  V30 3493 H 315.837 4.05156 -5.1058 0
M  V30 3494 N 319.27 1.56325 -0.20005 0
M  V30 3495 C 320.518 1.97329 0.436547 0
M  V30 3496 C 320.839 1.08826 1.61808 0
M  V30 3497 O 320.109 0.160604 1.95241 0
M  V30 3498 H 318.689 0.728714 0.164272 0
M  V30 3499 H 321.351 1.92761 -0.287937 0
M  V30 3500 H 320.447 3.02264 0.777353 0
M  V30 3501 N 320.748 -0.0735177 1.57428 0
M  V30 3502 C 321.996 -0.771472 1.86796 0
M  V30 3503 C 322.317 -1.78201 0.791804 0
M  V30 3504 O 321.587 -1.95074 -0.179718 0
M  V30 3505 H 320.167 -0.28791 0.689287 0
M  V30 3506 H 322.829 -0.0500161 1.94836 0
M  V30 3507 H 321.925 -1.28874 2.8425 0
M  V30 3508 N 322.226 -1.5378 -0.344866 0
M  V30 3509 C 323.189 -1.80981 -1.40637 0
M  V30 3510 C 324.189 -0.680816 -1.45676 0
M  V30 3511 O 325.379 -0.949095 -1.46075 0
M  V30 3512 C 322.511 -1.95063 -2.79577 0
M  V30 3513 H 323.704 -2.75803 -1.17783 0
M  V30 3514 H 321.257 -1.45173 -0.579181 0
M  V30 3515 H 321.992 -1.02379 -3.07716 0
M  V30 3516 H 321.777 -2.77198 -2.77315 0
M  V30 3517 H 323.267 -2.17629 -3.56409 0
M  V30 3518 O 323.743 0.490843 -1.5386 0
M  V30 3519 H 324.434 1.14557 -1.56193 0
M  V30 END ATOM
M  V30 BEGIN BOND
M  V30 END BOND
M  V30 END CTAB
M  END
$$$$
