drugbank_target|Q9H252 Potassium voltage-gated channel subfamily H member 6 (DB00321; DB00590; DB01118)
 OpenBabel12092119323D

  0  0  0     0  0            999 V3000
M  V30 BEGIN CTAB
M  V30 COUNTS 15415 15621 0 0 0
M  V30 BEGIN ATOM
M  V30 1 H -0.908 1.98254 -0.117106 0
M  V30 2 N 0 1.576 0 0
M  V30 3 C 0.933 2.03868 1.02534 0
M  V30 4 C 1.911 0.928543 1.3348 0
M  V30 5 O 3.095 1.19667 1.45644 0
M  V30 6 C 0.222 2.43627 2.35294 0
M  V30 7 C -0.732 3.65373 2.2001 0
M  V30 8 S 0.101 5.13292 1.52614 0
M  V30 9 C 1.257 5.56322 2.86805 0
M  V30 10 H 1.49 2.90518 0.631377 0
M  V30 11 H -0.977 1.52953 0.210867 0
M  V30 12 H 0.981 2.67203 3.11629 0
M  V30 13 H -0.358 1.57376 2.7183 0
M  V30 14 H -1.165 3.90944 3.18086 0
M  V30 15 H -1.563 3.418 1.51819 0
M  V30 16 H 0.729 5.58782 3.83104 0
M  V30 17 H 1.672 6.56266 2.65933 0
M  V30 18 H 2.08 4.83886 2.90714 0
M  V30 19 N 1.4781 -0.272755 1.55222 0
M  V30 20 C 2.8891 -0.84378 1.66545 0
M  V30 21 C 3.2401 -1.87035 0.592641 0
M  V30 22 O 2.3651 -2.14761 -0.265818 0
M  V30 23 C 2.9601 -1.53723 3.01918 0
M  V30 24 C 1.5191 -2.05628 3.15268 0
M  V30 25 C 0.6661 -0.898424 2.62343 0
M  V30 26 H 3.6171 -0.0490998 1.58624 0
M  V30 27 H 3.6381 -2.40421 2.94921 0
M  V30 28 H 3.1501 -0.78983 3.79978 0
M  V30 29 H 1.2511 -2.83329 2.41983 0
M  V30 30 H 1.3641 -2.27142 4.21833 0
M  V30 31 H -0.2719 -1.29186 2.19506 0
M  V30 32 H 0.5111 -0.164528 3.42906 0
M  V30 33 N 2.9562 -1.48159 -0.537278 0
M  V30 34 C 4.2022 -1.56035 -1.29541 0
M  V30 35 C 4.5352 -0.230377 -1.92829 0
M  V30 36 O 3.8102 0.762952 -1.78911 0
M  V30 37 C 4.0932 -2.69323 -2.39034 0
M  V30 38 C 3.9462 -4.12002 -1.80485 0
M  V30 39 C 5.2652 -2.78408 -3.40847 0
M  V30 40 H 2.3842 -0.567992 -0.469632 0
M  V30 41 H 5.0262 -1.80302 -0.599277 0
M  V30 42 H 3.1762 -2.48763 -2.98412 0
M  V30 43 H 4.8482 -4.43981 -1.25215 0
M  V30 44 H 3.0912 -4.19344 -1.11055 0
M  V30 45 H 3.7622 -4.87077 -2.59731 0
M  V30 46 H 6.2382 -2.97012 -2.91416 0
M  V30 47 H 5.1142 -3.59416 -4.14863 0
M  V30 48 H 5.3752 -1.86269 -4.00944 0
M  V30 49 N 4.4343 0.785586 -1.36625 0
M  V30 50 C 5.8503 1.08419 -1.17122 0
M  V30 51 C 6.0503 2.015 0.00208491 0
M  V30 52 O 5.1063 2.43551 0.666278 0
M  V30 53 C 6.4193 1.69498 -2.48377 0
M  V30 54 C 7.9673 1.81821 -2.54775 0
M  V30 55 C 8.4423 2.46315 -3.86126 0
M  V30 56 N 9.9333 2.53779 -3.87492 0
M  V30 57 C 10.6683 3.045 -4.85868 0
M  V30 58 N 10.1643 3.55499 -5.94637 0
M  V30 59 N 11.9573 3.03247 -4.73284 0
M  V30 60 H 4.1083 0.167264 -2.1174 0
M  V30 61 H 6.3713 0.13682 -0.938075 0
M  V30 62 H 6.0773 1.08571 -3.34522 0
M  V30 63 H 5.9513 2.6896 -2.64462 0
M  V30 64 H 8.3383 2.41884 -1.69045 0
M  V30 65 H 8.4193 0.811532 -2.42586 0
M  V30 66 H 8.0633 1.86895 -4.72263 0
M  V30 67 H 7.9933 3.47561 -3.95612 0
M  V30 68 H 10.4843 2.17672 -3.08913 0
M  V30 69 H 10.7973 3.92562 -6.65669 0
M  V30 70 H 9.1423 3.5364 -5.98301 0
M  V30 71 H 12.3333 2.62696 -3.87438 0
M  V30 72 H 12.5063 3.42467 -5.50109 0
M  V30 73 N 5.9124 1.20967 1.01018 0
M  V30 74 C 7.3284 0.965905 1.27053 0
M  V30 75 C 7.5284 -0.350785 1.98423 0
M  V30 76 O 6.5844 -1.07773 2.28344 0
M  V30 77 C 7.8974 2.15294 2.09926 0
M  V30 78 C 9.4454 2.19463 2.23171 0
M  V30 79 C 9.9204 3.3767 3.09424 0
M  V30 80 N 11.4114 3.37724 3.17012 0
M  V30 81 C 12.1464 4.25837 3.83993 0
M  V30 82 N 11.6424 5.24138 4.53047 0
M  V30 83 N 13.4354 4.1366 3.80581 0
M  V30 84 H 5.5864 2.0565 0.531194 0
M  V30 85 H 7.8494 0.90024 0.297106 0
M  V30 86 H 7.5554 3.10684 1.64828 0
M  V30 87 H 7.4294 2.13923 3.10672 0
M  V30 88 H 9.8164 1.24632 2.6749 0
M  V30 89 H 9.8974 2.2488 1.21912 0
M  V30 90 H 9.5414 4.32791 2.65808 0
M  V30 91 H 9.4714 3.29491 4.10784 0
M  V30 92 H 11.9624 2.6658 2.6785 0
M  V30 93 H 12.2754 5.87684 5.01844 0
M  V30 94 H 10.6204 5.28068 4.5185 0
M  V30 95 H 13.8114 3.36127 3.25785 0
M  V30 96 H 13.9844 4.82538 4.32505 0
M  V30 97 N 7.3905 -1.2043 1.01659 0
M  V30 98 C 8.6385 -1.89423 0.704522 0
M  V30 99 C 8.9595 -1.79231 -0.768197 0
M  V30 100 O 8.2295 -1.1947 -1.55254 0
M  V30 101 H 6.8095 -0.701178 0.257602 0
M  V30 102 H 9.4715 -1.4626 1.28818 0
M  V30 103 H 8.5675 -2.96052 0.987916 0
M  V30 104 N 8.8686 -0.792821 -1.36206 0
M  V30 105 C 9.8186 -0.166598 -2.27391 0
M  V30 106 C 10.8026 0.651479 -1.47121 0
M  V30 107 O 11.9946 0.510994 -1.69463 0
M  V30 108 C 9.1236 0.695033 -3.36191 0
M  V30 109 C 8.2096 -0.132019 -4.23894 0
M  V30 110 N 8.6006 -1.18822 -4.91645 0
M  V30 111 C 6.8986 0.0885952 -4.45912 0
M  V30 112 C 7.5996 -1.69198 -5.56549 0
M  V30 113 N 6.5756 -1.00065 -5.34311 0
M  V30 114 H 10.3776 -0.974947 -2.77258 0
M  V30 115 H 7.8916 -0.632616 -1.49572 0
M  V30 116 H 9.8886 1.1596 -4.00448 0
M  V30 117 H 8.5486 1.50189 -2.87877 0
M  V30 118 H 9.5596 -1.57069 -4.93507 0
M  V30 119 H 6.2366 0.865688 -4.08426 0
M  V30 120 H 7.6266 -2.57395 -6.20643 0
M  V30 121 N 10.3467 1.47872 -0.545128 0
M  V30 122 C 11.5927 2.02793 -0.0166104 0
M  V30 123 C 11.9257 1.41987 1.32489 0
M  V30 124 O 11.2007 0.571045 1.85928 0
M  V30 125 C 11.4837 3.59989 0.0893294 0
M  V30 126 C 11.3367 4.3125 -1.27841 0
M  V30 127 C 12.6557 4.32606 0.808724 0
M  V30 128 H 9.7747 0.736962 -0.00751035 0
M  V30 129 H 12.4167 1.76433 -0.705085 0
M  V30 130 H 10.5667 3.82579 0.675681 0
M  V30 131 H 12.2387 4.20035 -1.90704 0
M  V30 132 H 10.4817 3.92076 -1.85632 0
M  V30 133 H 11.1527 5.39736 -1.15713 0
M  V30 134 H 13.6287 4.14936 0.310992 0
M  V30 135 H 12.5047 5.42251 0.851782 0
M  V30 136 H 12.7657 4.00963 1.86229 0
M  V30 137 N 11.8248 0.280983 1.55075 0
M  V30 138 C 12.7878 -0.590896 2.21452 0
M  V30 139 C 13.7878 -1.07682 1.19421 0
M  V30 140 O 14.9778 -0.97605 1.44288 0
M  V30 141 C 12.1098 -1.81587 2.88511 0
M  V30 142 H 13.3028 -0.0112554 2.99898 0
M  V30 143 H 10.8558 0.0316438 1.56268 0
M  V30 144 H 11.5908 -2.43587 2.14093 0
M  V30 145 H 11.3758 -1.4753 3.63287 0
M  V30 146 H 12.8658 -2.43575 3.39206 0
M  V30 147 N 13.3029 -1.57598 0.00835791 0
M  V30 148 C 14.7139 -1.7892 -0.53333 0
M  V30 149 C 15.0649 -0.916609 -1.73473 0
M  V30 150 O 14.1899 -0.121336 -2.1606 0
M  V30 151 C 14.7849 -3.24488 -0.974313 0
M  V30 152 C 13.3439 -3.46878 -1.46125 0
M  V30 153 C 12.4909 -2.74157 -0.416302 0
M  V30 154 H 15.4419 -1.56958 0.234495 0
M  V30 155 H 15.4629 -3.3306 -1.83988 0
M  V30 156 H 14.9749 -3.87972 -0.099718 0
M  V30 157 H 13.0759 -2.8862 -2.35646 0
M  V30 158 H 13.1889 -4.55572 -1.48295 0
M  V30 159 H 11.5529 -2.39022 -0.87981 0
M  V30 160 H 12.3359 -3.40345 0.44947 0
M  V30 161 N 14.781 0.264519 -1.55364 0
M  V30 162 C 15.713 1.34965 -1.85248 0
M  V30 163 C 16.726 1.45136 -0.737525 0
M  V30 164 O 17.915 1.46801 -1.01547 0
M  V30 165 C 15.015 2.73008 -2.00797 0
M  V30 166 C 14.188 2.85324 -3.31525 0
M  V30 167 C 13.247 4.04097 -3.37034 0
M  V30 168 O 12.273 3.94455 -4.10358 0
M  V30 169 N 13.475 5.16458 -2.65049 0
M  V30 170 H 16.24 1.09672 -2.78913 0
M  V30 171 H 13.801 0.454635 -1.55386 0
M  V30 172 H 15.793 3.50772 -2.01844 0
M  V30 173 H 14.363 2.91087 -1.1396 0
M  V30 174 H 13.583 1.94377 -3.42945 0
M  V30 175 H 14.871 2.9049 -4.17724 0
M  V30 176 H 14.269 5.27181 -2.05175 0
M  V30 177 H 12.826 5.92422 -2.71809 0
M  V30 178 N 16.2591 1.48442 0.529413 0
M  V30 179 C 17.2071 1.63452 1.65487 0
M  V30 180 C 18.2011 0.500955 1.61823 0
M  V30 181 O 19.4071 0.679695 1.66674 0
M  V30 182 H 15.7821 0.514905 0.548066 0
M  V30 183 H 17.7531 2.57975 1.49971 0
M  V30 184 C 16.5021 1.69196 3.03756 0
M  V30 185 H 15.8251 2.55784 3.07269 0
M  V30 186 H 17.2651 1.83743 3.82119 0
M  V30 187 C 15.7241 0.430765 3.34135 0
M  V30 188 O 16.2541 -0.4561 3.99102 0
M  V30 189 N 14.4601 0.302293 2.89023 0
M  V30 190 H 14.0071 1.02496 2.36331 0
M  V30 191 H 13.9651 -0.540546 3.09718 0
M  V30 192 N 17.7372 -0.778329 1.37039 0
M  V30 193 C 18.9652 -1.56734 1.35063 0
M  V30 194 C 19.3802 -1.88686 -0.0655597 0
M  V30 195 O 18.7372 -1.5096 -1.02554 0
M  V30 196 C 18.7882 -2.88163 2.18276 0
M  V30 197 O 18.5092 -2.57583 3.54376 0
M  V30 198 C 20.0102 -3.82422 2.24206 0
M  V30 199 H 17.2302 -0.485778 0.462883 0
M  V30 200 H 19.7742 -0.965185 1.8029 0
M  V30 201 H 17.9292 -3.44818 1.76576 0
M  V30 202 H 18.3432 -3.41699 3.97922 0
M  V30 203 H 19.8172 -4.71667 2.86765 0
M  V30 204 H 20.2942 -4.21078 1.24861 0
M  V30 205 H 20.9002 -3.31697 2.6619 0
M  V30 206 N 19.2153 -1.21501 -1.00376 0
M  V30 207 C 20.4453 -1.05746 -1.77486 0
M  V30 208 C 20.8533 0.395655 -1.85017 0
M  V30 209 O 20.1963 1.28626 -1.31152 0
M  V30 210 C 20.2583 -1.58092 -3.22873 0
M  V30 211 C 19.9223 -3.06568 -3.38917 0
M  V30 212 C 20.9193 -4.04106 -3.271 0
M  V30 213 C 18.6043 -3.45799 -3.64319 0
M  V30 214 C 20.5983 -5.38862 -3.40451 0
M  V30 215 C 18.2853 -4.80707 -3.77311 0
M  V30 216 C 19.2833 -5.77047 -3.65384 0
M  V30 217 O 18.9713 -7.09507 -3.77961 0
M  V30 218 H 18.7033 -0.371778 -0.564586 0
M  V30 219 H 21.2573 -1.61319 -1.27143 0
M  V30 220 H 19.4873 -0.969163 -3.74358 0
M  V30 221 H 21.1763 -1.38162 -3.81662 0
M  V30 222 H 21.9423 -3.75141 -3.07399 0
M  V30 223 H 17.8213 -2.71344 -3.72684 0
M  V30 224 H 21.3653 -6.14041 -3.31058 0
M  V30 225 H 17.2623 -5.09357 -3.96517 0
M  V30 226 H 18.0303 -7.16935 -3.94901 0
M  V30 227 N 20.6934 1.19889 -1.02296 0
M  V30 228 C 21.6234 2.25141 -0.619174 0
M  V30 229 C 22.6044 1.66051 0.368915 0
M  V30 230 O 23.7894 1.92546 0.252941 0
M  V30 231 C 20.9194 3.4728 0.0368783 0
M  V30 232 C 19.8734 4.19005 -0.872865 0
M  V30 233 C 19.1994 5.34637 -0.0822402 0
M  V30 234 C 20.4994 4.74452 -2.18387 0
M  V30 235 H 22.1934 2.59171 -1.49903 0
M  V30 236 H 19.7394 1.24579 -0.722222 0
M  V30 237 H 21.6924 4.20098 0.330958 0
M  V30 238 H 20.4164 3.12433 0.95149 0
M  V30 239 H 19.0754 3.48061 -1.15105 0
M  V30 240 H 18.7234 4.96034 0.83422 0
M  V30 241 H 18.4234 5.83557 -0.688149 0
M  V30 242 H 19.9474 6.10255 0.205238 0
M  V30 243 H 21.3614 5.39055 -1.95172 0
M  V30 244 H 19.7584 5.33834 -2.74119 0
M  V30 245 H 20.8284 3.92844 -2.84257 0
M  V30 246 N 22.1715 0.800033 1.35784 0
M  V30 247 C 23.4485 0.30088 1.93272 0
M  V30 248 C 23.8285 -1.20857 1.73081 0
M  V30 249 O 23.1765 -2.00502 1.09596 0
M  V30 250 C 23.3865 0.70511 3.41803 0
M  V30 251 C 24.7345 0.690871 4.18942 0
M  V30 252 O 25.7585 0.646244 3.50289 0
M  V30 253 O 24.6175 0.74332 5.41421 0
M  V30 254 H 21.7115 0.0771605 0.823393 0
M  V30 255 H 24.2575 0.88329 1.449 0
M  V30 256 H 23.0295 1.74571 3.50201 0
M  V30 257 H 22.6525 0.0971541 3.97481 0
M  V30 258 N 23.6496 -1.47581 0.552962 0
M  V30 259 C 24.8776 -2.06875 0.0320556 0
M  V30 260 C 25.2926 -1.40625 -1.25976 0
M  V30 261 O 24.6496 -0.501349 -1.75479 0
M  V30 262 C 24.7006 -3.61092 -0.17167 0
M  V30 263 O 24.4216 -4.24858 1.06899 0
M  V30 264 C 25.9226 -4.37242 -0.730344 0
M  V30 265 H 23.1426 -0.669561 0.043915 0
M  V30 266 H 25.6866 -1.89646 0.765163 0
M  V30 267 H 23.8416 -3.7785 -0.854894 0
M  V30 268 H 24.2556 -5.17334 0.864059 0
M  V30 269 H 25.7296 -5.45842 -0.822203 0
M  V30 270 H 26.2066 -4.03235 -1.74064 0
M  V30 271 H 26.8126 -4.25219 -0.0829543 0
M  V30 272 N 25.1277 -0.289203 -1.54924 0
M  V30 273 C 26.3767 0.324231 -1.99077 0
M  V30 274 C 26.6897 1.5591 -1.18117 0
M  V30 275 O 27.8957 2.24637 -1.52481 0
M  V30 276 C 26.3517 0.628209 -3.54375 0
M  V30 277 C 25.9597 -0.587647 -4.44129 0
M  V30 278 C 27.7037 1.20349 -4.07083 0
M  V30 279 C 25.6107 -0.257475 -5.90839 0
M  V30 280 H 24.5407 0.124924 -0.743579 0
M  V30 281 H 27.1917 -0.396063 -1.79175 0
M  V30 282 H 25.5737 1.40778 -3.70132 0
M  V30 283 H 26.7477 -1.36418 -4.40144 0
M  V30 284 H 25.0627 -1.08074 -4.0213 0
M  V30 285 H 27.6597 1.46456 -5.14252 0
M  V30 286 H 28.0027 2.14195 -3.56968 0
M  V30 287 H 28.5357 0.485889 -3.94821 0
M  V30 288 H 25.2747 -1.16419 -6.45079 0
M  V30 289 H 24.7947 0.482018 -5.9786 0
M  V30 290 H 26.4737 0.145238 -6.46837 0
M  V30 291 N 26.6058 1.57591 -0.0167156 0
M  V30 292 C 27.8548 1.90461 0.663877 0
M  V30 293 C 28.1678 0.893515 1.73999 0
M  V30 294 O 29.3738 1.11302 2.47637 0
M  V30 295 C 27.8298 3.38155 1.23204 0
M  V30 296 C 27.4378 4.47597 0.189866 0
M  V30 297 C 29.1818 3.80111 1.88986 0
M  V30 298 C 27.0888 5.86379 0.768964 0
M  V30 299 H 26.0188 0.710738 0.251729 0
M  V30 300 H 28.6698 1.83326 -0.0799926 0
M  V30 301 H 27.0518 3.40182 2.02712 0
M  V30 302 H 28.2258 4.57112 -0.581846 0
M  V30 303 H 26.5408 4.14766 -0.368475 0
M  V30 304 H 29.1378 4.81145 2.33247 0
M  V30 305 H 29.4808 3.14511 2.72743 0
M  V30 306 H 30.0138 3.80454 1.16187 0
M  V30 307 H 26.7528 6.55493 -0.0301957 0
M  V30 308 H 26.2728 5.80496 1.50945 0
M  V30 309 H 27.9518 6.34563 1.26251 0
M  V30 310 N 28.0839 -0.256276 1.55502 0
M  V30 311 C 29.4999 -0.604325 1.47716 0
M  V30 312 C 29.6999 -1.88763 0.705039 0
M  V30 313 O 28.7559 -2.51445 0.230613 0
M  V30 314 C 30.0689 -0.715756 2.92057 0
M  V30 315 C 31.6169 -0.808706 3.02372 0
M  V30 316 C 32.0919 -0.951777 4.48001 0
M  V30 317 N 33.5829 -1.01688 4.519 0
M  V30 318 C 34.3179 -1.14668 5.61817 0
M  V30 319 N 33.8139 -1.24261 6.81565 0
M  V30 320 N 35.6069 -1.1791 5.49594 0
M  V30 321 H 27.7579 0.586291 2.04148 0
M  V30 322 H 30.0209 0.201015 0.926443 0
M  V30 323 H 29.7269 0.157027 3.51349 0
M  V30 324 H 29.6009 -1.59071 3.42018 0
M  V30 325 H 31.9879 -1.67195 2.43166 0
M  V30 326 H 32.0689 0.0912063 2.55637 0
M  V30 327 H 31.7129 -0.0931291 5.07815 0
M  V30 328 H 31.6429 -1.86659 4.92408 0
M  V30 329 H 34.1339 -0.954468 3.65648 0
M  V30 330 H 34.4469 -1.34046 7.61086 0
M  V30 331 H 32.7919 -1.21236 6.84344 0
M  V30 332 H 35.9829 -1.10057 4.54978 0
M  V30 333 H 36.1559 -1.27681 6.35296 0
M  V30 334 N 29.562 -1.4872 -0.521534 0
M  V30 335 C 30.509 -1.63871 -1.62527 0
M  V30 336 C 31.479 -0.480559 -1.58996 0
M  V30 337 O 32.664 -0.705085 -1.77294 0
M  V30 338 C 29.804 -1.69227 -3.00759 0
M  V30 339 C 28.917 -2.96207 -3.14461 0
M  V30 340 C 28.052 -2.92671 -4.43303 0
M  V30 341 C 27.091 -4.14318 -4.50563 0
M  V30 342 N 26.228 -4.0881 -5.70805 0
M  V30 343 H 31.068 -2.58123 -1.48918 0
M  V30 344 H 28.605 -1.28 -0.724878 0
M  V30 345 H 30.563 -1.70314 -3.80853 0
M  V30 346 H 29.193 -0.784586 -3.1312 0
M  V30 347 H 28.245 -3.04826 -2.27564 0
M  V30 348 H 29.557 -3.86192 -3.15686 0
M  V30 349 H 28.711 -2.92206 -5.31696 0
M  V30 350 H 27.45 -2.00429 -4.44612 0
M  V30 351 H 26.455 -4.15049 -3.60575 0
M  V30 352 H 27.68 -5.07729 -4.50986 0
M  V30 353 H 25.626 -3.19394 -5.72995 0
M  V30 354 H 25.543 -4.92509 -5.7356 0
M  V30 355 H 26.811 -4.12418 -6.61462 0
M  V30 356 N 31.0401 0.771051 -1.3745 0
M  V30 357 C 32.2871 1.52963 -1.32697 0
M  V30 358 C 32.6151 1.94299 0.0883274 0
M  V30 359 O 31.8701 1.64397 1.0617 0
M  V30 360 C 32.1691 2.80676 -2.2126 0
M  V30 361 C 31.8351 2.58389 -3.69521 0
M  V30 362 C 30.4971 2.52019 -4.09927 0
M  V30 363 C 32.8491 2.38469 -4.63446 0
M  V30 364 C 30.1771 2.23721 -5.42371 0
M  V30 365 C 32.5291 2.11694 -5.96128 0
M  V30 366 C 31.1931 2.03769 -6.35637 0
M  V30 367 H 30.4631 0.559732 -0.485573 0
M  V30 368 H 33.1101 0.888083 -1.69662 0
M  V30 369 H 31.4151 3.49392 -1.77291 0
M  V30 370 H 33.1121 3.38557 -2.14895 0
M  V30 371 H 29.7021 2.6421 -3.37478 0
M  V30 372 H 33.8861 2.4238 -4.33089 0
M  V30 373 H 29.1421 2.16081 -5.71943 0
M  V30 374 H 33.3161 1.9528 -6.6846 0
M  V30 375 H 30.9431 1.81606 -7.38189 0
M  V30 376 N 32.5182 1.22032 0.997298 0
M  V30 377 C 33.4282 1.00271 2.12092 0
M  V30 378 C 34.4442 -0.047621 1.73935 0
M  V30 379 O 35.6202 0.144136 2.00884 0
M  V30 380 C 32.6852 0.578449 3.4184 0
M  V30 381 C 31.7462 1.70189 3.94125 0
M  V30 382 C 30.9792 1.29778 5.17681 0
M  V30 383 O 31.2022 0.174676 5.70132 0
M  V30 384 O 30.1362 2.11261 5.63607 0
M  V30 385 H 33.9622 1.94398 2.3333 0
M  V30 386 H 31.5472 1.00587 1.10465 0
M  V30 387 H 33.4292 0.351998 4.19927 0
M  V30 388 H 32.1042 -0.334019 3.21972 0
M  V30 389 H 31.0112 1.98282 3.1723 0
M  V30 390 H 32.3442 2.59206 4.18417 0
M  V30 391 N 33.9963 -1.19345 1.0293 0
M  V30 392 C 35.2443 -1.88665 0.724574 0
M  V30 393 C 35.5653 -1.80036 -0.749144 0
M  V30 394 O 34.8353 -1.2111 -1.53978 0
M  V30 395 H 33.4153 -0.698406 0.265025 0
M  V30 396 H 36.0773 -1.44885 1.30362 0
M  V30 397 H 35.1733 -2.94987 1.01926 0
M  V30 398 N 35.4744 -0.807222 -1.35358 0
M  V30 399 C 36.4064 -0.175717 -2.28525 0
M  V30 400 C 37.4194 0.625354 -1.5031 0
M  V30 401 O 38.6084 0.457611 -1.72535 0
M  V30 402 C 35.7084 0.773471 -3.29956 0
M  V30 403 C 34.8814 0.0186296 -4.37396 0
M  V30 404 C 33.9404 0.886395 -5.18681 0
M  V30 405 O 32.9664 0.337106 -5.68201 0
M  V30 406 N 34.1684 2.20839 -5.36852 0
M  V30 407 H 36.9334 -0.976091 -2.83359 0
M  V30 408 H 34.4944 -0.662737 -1.47714 0
M  V30 409 H 36.4864 1.35824 -3.81227 0
M  V30 410 H 35.0564 1.47465 -2.75632 0
M  V30 411 H 34.2764 -0.747349 -3.87051 0
M  V30 412 H 35.5644 -0.501577 -5.06322 0
M  V30 413 H 34.9624 2.67858 -4.98265 0
M  V30 414 H 33.5194 2.74237 -5.91301 0
M  V30 415 N 36.9525 1.47285 -0.560781 0
M  V30 416 C 38.1775 2.07359 -0.0410566 0
M  V30 417 C 38.6025 1.41017 1.24483 0
M  V30 418 O 37.9605 0.486368 1.74654 0
M  V30 419 C 38.0085 3.6035 0.134123 0
M  V30 420 O 37.1125 3.94681 1.19587 0
M  V30 421 H 36.4535 0.661887 -0.0529291 0
M  V30 422 H 38.9835 1.89252 -0.777482 0
M  V30 423 H 38.9935 4.0652 0.347207 0
M  V30 424 H 37.6685 4.08034 -0.805047 0
M  V30 425 H 36.2455 3.60251 0.962987 0
M  V30 426 N 38.4306 0.297415 1.54768 0
M  V30 427 C 39.8466 -0.0560823 1.59501 0
M  V30 428 C 40.0466 -1.52725 1.31444 0
M  V30 429 O 39.1026 -2.27947 1.08611 0
M  V30 430 C 40.4156 0.338631 2.98787 0
M  V30 431 C 41.9636 0.287097 3.11681 0
M  V30 432 C 42.4386 0.656579 4.53269 0
M  V30 433 N 43.9296 0.608977 4.59179 0
M  V30 434 C 44.6646 0.867385 5.66802 0
M  V30 435 N 44.1606 1.19157 6.82476 0
M  V30 436 N 45.9536 0.794687 5.56454 0
M  V30 437 H 38.1046 1.25624 1.71267 0
M  V30 438 H 40.3676 0.509057 0.799728 0
M  V30 439 H 40.0736 1.36263 3.2423 0
M  V30 440 H 39.9476 -0.309508 3.75928 0
M  V30 441 H 42.3346 -0.727649 2.85988 0
M  V30 442 H 42.4156 0.969809 2.36703 0
M  V30 443 H 42.0596 1.66912 4.7969 0
M  V30 444 H 41.9896 -0.0481649 5.26578 0
M  V30 445 H 44.4806 0.369198 3.76092 0
M  V30 446 H 44.7936 1.37482 7.60473 0
M  V30 447 H 43.1386 1.22958 6.84037 0
M  V30 448 H 46.3296 0.541098 4.64962 0
M  V30 449 H 46.5026 0.999445 6.40246 0
M  V30 450 N 39.9087 -1.5758 0.0250728 0
M  V30 451 C 40.8557 -2.09973 -0.958129 0
M  V30 452 C 41.8257 -1.00085 -1.3256 0
M  V30 453 O 43.0107 -1.27481 -1.41962 0
M  V30 454 C 40.1507 -2.62812 -2.2366 0
M  V30 455 C 39.2637 -3.86693 -1.92594 0
M  V30 456 C 38.3987 -4.27941 -3.14707 0
M  V30 457 C 37.4377 -5.44591 -2.79442 0
M  V30 458 N 36.5747 -5.81014 -3.94167 0
M  V30 459 H 41.4147 -2.937 -0.504428 0
M  V30 460 H 38.9517 -1.45172 -0.237392 0
M  V30 461 H 40.9097 -2.91536 -2.98434 0
M  V30 462 H 39.5397 -1.81922 -2.66654 0
M  V30 463 H 38.5917 -3.64723 -1.0808 0
M  V30 464 H 39.9037 -4.71547 -1.62619 0
M  V30 465 H 39.0577 -4.58079 -3.97804 0
M  V30 466 H 37.7967 -3.41845 -3.4784 0
M  V30 467 H 36.8017 -5.1415 -1.94755 0
M  V30 468 H 38.0267 -6.32382 -2.47528 0
M  V30 469 H 35.9727 -4.97874 -4.2715 0
M  V30 470 H 35.8897 -6.60498 -3.67801 0
M  V30 471 H 37.1577 -6.15756 -4.7798 0
M  V30 472 N 41.3868 0.248026 -1.55636 0
M  V30 473 C 42.6338 0.976224 -1.77415 0
M  V30 474 C 42.9618 1.85361 -0.589193 0
M  V30 475 O 42.2168 1.90973 0.427529 0
M  V30 476 C 42.5158 1.86819 -3.04686 0
M  V30 477 C 42.1818 1.14625 -4.36087 0
M  V30 478 C 40.8438 0.946723 -4.71795 0
M  V30 479 C 43.1958 0.634463 -5.17324 0
M  V30 480 C 40.5238 0.223091 -5.86276 0
M  V30 481 C 42.8758 -0.0756959 -6.32555 0
M  V30 482 C 41.5398 -0.286711 -6.66884 0
M  V30 483 H 40.8098 0.357226 -0.649208 0
M  V30 484 H 43.4568 0.246415 -1.89908 0
M  V30 485 H 41.7618 2.66502 -2.872 0
M  V30 486 H 43.4588 2.43329 -3.18735 0
M  V30 487 H 40.0488 1.3117 -4.08035 0
M  V30 488 H 44.2328 0.77616 -4.90193 0
M  V30 489 H 39.4888 0.0491185 -6.1138 0
M  V30 490 H 43.6628 -0.479899 -6.94745 0
M  V30 491 H 41.2898 -0.849389 -7.5544 0
M  V30 492 N 42.8649 1.48995 0.513639 0
M  V30 493 C 43.7949 1.67636 1.62544 0
M  V30 494 C 44.7759 0.525087 1.61793 0
M  V30 495 O 45.9609 0.759502 1.78732 0
M  V30 496 C 43.0909 1.73114 3.01079 0
M  V30 497 C 42.0449 2.87905 3.16693 0
M  V30 498 C 41.3709 2.78486 4.56453 0
M  V30 499 C 42.6709 4.29005 2.97913 0
M  V30 500 H 44.3649 2.60716 1.47198 0
M  V30 501 H 41.9109 1.25465 0.706714 0
M  V30 502 H 43.8639 1.84742 3.78746 0
M  V30 503 H 42.5879 0.766241 3.17484 0
M  V30 504 H 41.2469 2.75859 2.41448 0
M  V30 505 H 40.8949 1.7993 4.69717 0
M  V30 506 H 40.5949 3.55523 4.67843 0
M  V30 507 H 42.1189 2.92104 5.36197 0
M  V30 508 H 43.5329 4.41798 3.65359 0
M  V30 509 H 41.9299 5.07166 3.20785 0
M  V30 510 H 42.9999 4.44329 1.94165 0
M  V30 511 N 44.343 -0.763751 1.37857 0
M  V30 512 C 45.592 -1.51789 1.32827 0
M  V30 513 C 45.905 -1.95426 -0.0823719 0
M  V30 514 O 47.111 -2.70298 -0.255172 0
M  V30 515 C 45.567 -2.74133 2.33193 0
M  V30 516 C 45.175 -2.37562 3.79827 0
M  V30 517 C 46.919 -3.52054 2.37188 0
M  V30 518 C 44.826 -3.56456 4.71904 0
M  V30 519 H 43.756 -0.569896 0.493695 0
M  V30 520 H 46.407 -0.835822 1.63359 0
M  V30 521 H 44.789 -3.4427 1.9569 0
M  V30 522 H 45.963 -1.75157 4.26212 0
M  V30 523 H 44.278 -1.72798 3.78853 0
M  V30 524 H 46.875 -4.40437 3.03182 0
M  V30 525 H 47.218 -3.92486 1.38782 0
M  V30 526 H 47.751 -2.88921 2.7344 0
M  V30 527 H 44.49 -3.21099 5.71468 0
M  V30 528 H 44.01 -4.17938 4.30218 0
M  V30 529 H 45.689 -4.23168 4.89426 0
M  V30 530 N 45.8211 -1.22559 -0.990812 0
M  V30 531 C 46.7841 -0.998863 -2.0629 0
M  V30 532 C 47.7841 0.0354834 -1.60761 0
M  V30 533 O 48.9741 -0.203231 -1.7301 0
M  V30 534 C 46.1061 -0.509203 -3.37076 0
M  V30 535 H 47.2991 -1.95014 -2.27837 0
M  V30 536 H 44.8521 -1.04456 -1.16269 0
M  V30 537 H 45.5871 0.446335 -3.21214 0
M  V30 538 H 45.3721 -1.25547 -3.71457 0
M  V30 539 H 46.8621 -0.370888 -4.1595 0
M  V30 540 N 47.2992 1.18797 -1.03562 0
M  V30 541 C 48.2472 2.24297 -0.615905 0
M  V30 542 C 49.2412 1.65643 0.354808 0
M  V30 543 O 50.4472 1.78618 0.22265 0
M  V30 544 H 46.8222 0.729909 -0.180934 0
M  V30 545 H 48.7932 2.5701 -1.5162 0
M  V30 546 C 47.5422 3.47698 0.0104735 0
M  V30 547 H 46.8652 3.93125 -0.727509 0
M  V30 548 H 48.3052 4.23159 0.266995 0
M  V30 549 C 46.7642 3.12489 1.25905 0
M  V30 550 O 47.2942 3.25761 2.35038 0
M  V30 551 N 45.5002 2.6686 1.15039 0
M  V30 552 H 45.0472 2.56261 0.262328 0
M  V30 553 H 45.0052 2.43674 1.98672 0
M  V30 554 N 48.7773 0.814389 1.34928 0
M  V30 555 C 49.7403 0.235759 2.27984 0
M  V30 556 C 50.7403 -0.581412 1.49921 0
M  V30 557 O 51.9303 -0.398758 1.69575 0
M  V30 558 C 49.0623 -0.670433 3.34242 0
M  V30 559 H 50.2553 1.05659 2.80671 0
M  V30 560 H 47.8083 0.585614 1.44915 0
M  V30 561 H 48.5433 -1.51466 2.86755 0
M  V30 562 H 48.3283 -0.0860822 3.92005 0
M  V30 563 H 49.8183 -1.06935 4.03676 0
M  V30 564 N 50.2554 -1.46986 0.568584 0
M  V30 565 C 51.1874 -2.28233 -0.210337 0
M  V30 566 C 52.2004 -1.37682 -0.868767 0
M  V30 567 O 53.3894 -1.62406 -0.740705 0
M  V30 568 C 50.4894 -3.12293 -1.3163 0
M  V30 569 C 49.6624 -4.30878 -0.7525 0
M  V30 570 C 48.7214 -4.96445 -1.74439 0
M  V30 571 O 47.7474 -5.54482 -1.286 0
M  V30 572 N 48.9494 -4.92171 -3.07812 0
M  V30 573 H 51.7144 -2.95723 0.486648 0
M  V30 574 H 49.2754 -1.56742 0.405409 0
M  V30 575 H 51.2674 -3.53022 -1.97883 0
M  V30 576 H 49.8374 -2.46971 -1.91636 0
M  V30 577 H 49.0574 -3.94104 0.0871128 0
M  V30 578 H 50.3454 -5.07558 -0.35536 0
M  V30 579 H 49.7434 -4.46239 -3.47688 0
M  V30 580 H 48.3004 -5.36884 -3.69592 0
M  V30 581 N 51.7335 -0.305618 -1.54608 0
M  V30 582 C 52.6665 0.610536 -2.19881 0
M  V30 583 C 53.6445 1.1294 -1.16976 0
M  V30 584 O 54.8285 1.19673 -1.45638 0
M  V30 585 C 51.9555 1.83583 -2.84631 0
M  V30 586 C 51.0015 1.4498 -4.01102 0
M  V30 587 S 51.8345 0.501793 -5.33144 0
M  V30 588 C 52.9905 1.73478 -6.01379 0
M  V30 589 H 53.2235 0.0560177 -2.97247 0
M  V30 590 H 50.7565 -0.0897434 -1.54139 0
M  V30 591 H 52.7145 2.53898 -3.22562 0
M  V30 592 H 51.3755 2.36152 -2.07102 0
M  V30 593 H 50.5685 2.36236 -4.45206 0
M  V30 594 H 50.1705 0.826553 -3.64752 0
M  V30 595 H 52.4625 2.67473 -6.22467 0
M  V30 596 H 53.4055 1.33622 -6.95378 0
M  V30 597 H 53.8135 1.9136 -5.31076 0
M  V30 598 N 53.2116 1.57565 -0.0334293 0
M  V30 599 C 54.1216 2.13943 0.962572 0
M  V30 600 C 55.1376 1.09276 1.35406 0
M  V30 601 O 56.3136 1.41355 1.4346 0
M  V30 602 C 53.3786 2.65887 2.22497 0
M  V30 603 C 52.4396 3.85286 1.8935 0
M  V30 604 C 51.6726 4.34743 3.09571 0
M  V30 605 O 51.8956 3.83352 4.22371 0
M  V30 606 O 50.8296 5.26538 2.91618 0
M  V30 607 H 54.6556 2.99333 0.513169 0
M  V30 608 H 52.2406 1.4822 0.18743 0
M  V30 609 H 54.1226 2.99346 2.96598 0
M  V30 610 H 52.7976 1.83578 2.6661 0
M  V30 611 H 51.7046 3.56746 1.1262 0
M  V30 612 H 53.0376 4.68771 1.5005 0
M  V30 613 N 54.6897 -0.239769 1.55765 0
M  V30 614 C 55.6377 -1.31668 1.91745 0
M  V30 615 C 56.6317 -1.49462 0.797338 0
M  V30 616 O 57.8377 -1.50852 0.982021 0
M  V30 617 H 54.2127 -0.441048 0.609082 0
M  V30 618 H 56.1837 -0.985923 2.81642 0
M  V30 619 C 54.9327 -2.66368 2.2348 0
M  V30 620 H 54.2557 -2.53478 3.09175 0
M  V30 621 H 55.6957 -3.40578 2.52553 0
M  V30 622 C 54.1547 -3.20002 1.05359 0
M  V30 623 O 54.6847 -4.00538 0.305261 0
M  V30 624 N 52.8907 -2.78126 0.842292 0
M  V30 625 H 52.4377 -2.12742 1.45253 0
M  V30 626 H 52.3957 -3.14354 0.053652 0
M  V30 627 N 56.1678 -1.49265 -0.50573 0
M  V30 628 C 57.4078 -1.60128 -1.27038 0
M  V30 629 C 57.7718 -0.279557 -1.89954 0
M  V30 630 O 58.9728 -0.263329 -2.67507 0
M  V30 631 C 57.2438 -2.72507 -2.31246 0
M  V30 632 S 58.8028 -3.0329 -3.17113 0
M  V30 633 H 55.6208 -0.564863 -0.4318 0
M  V30 634 H 58.2228 -1.86902 -0.573397 0
M  V30 635 H 56.9268 -3.67068 -1.83546 0
M  V30 636 H 56.4578 -2.4771 -3.05619 0
M  V30 637 H 58.4728 -2.44448 -4.31809 0
M  V30 638 N 57.6459 0.756429 -1.3826 0
M  V30 639 C 58.6089 1.85176 -1.35065 0
M  V30 640 C 59.6089 1.58818 -0.251703 0
M  V30 641 O 60.7989 1.66615 -0.508433 0
M  V30 642 C 57.9309 3.22596 -1.10201 0
M  V30 643 H 59.1239 1.89417 -2.3251 0
M  V30 644 H 56.6769 0.95783 -1.23512 0
M  V30 645 H 57.4119 3.24025 -0.133504 0
M  V30 646 H 57.1969 3.43122 -1.89762 0
M  V30 647 H 58.6869 4.02673 -1.10654 0
M  V30 648 N 59.124 1.23083 0.984299 0
M  V30 649 C 60.373 1.05466 1.71929 0
M  V30 650 C 60.686 -0.409211 1.91272 0
M  V30 651 O 61.892 -0.705226 2.62181 0
M  V30 652 C 60.348 1.83874 3.09384 0
M  V30 653 C 59.956 3.34566 2.97943 0
M  V30 654 C 61.7 1.74734 3.8687 0
M  V30 655 C 59.607 4.05381 4.30605 0
M  V30 656 H 58.537 0.391039 0.644674 0
M  V30 657 H 61.188 1.47013 1.09815 0
M  V30 658 H 59.57 1.35131 3.72231 0
M  V30 659 H 60.744 3.90767 2.44209 0
M  V30 660 H 59.059 3.44476 2.33934 0
M  V30 661 H 61.656 2.24957 4.85076 0
M  V30 662 H 61.999 0.709372 4.10212 0
M  V30 663 H 62.532 2.21067 3.30717 0
M  V30 664 H 59.271 5.09467 4.1246 0
M  V30 665 H 58.791 3.53967 4.84218 0
M  V30 666 H 60.47 4.11458 4.99311 0
M  V30 667 N 60.6021 -1.18246 1.0419 0
M  V30 668 C 61.8511 -1.87588 0.741194 0
M  V30 669 C 62.1641 -1.81303 -0.734066 0
M  V30 670 O 63.3701 -2.46019 -1.14834 0
M  V30 671 C 61.8261 -3.36538 1.27555 0
M  V30 672 C 61.4341 -3.51349 2.77953 0
M  V30 673 C 63.1781 -4.11273 1.05143 0
M  V30 674 C 61.0851 -4.94265 3.2474 0
M  V30 675 H 60.0151 -0.702622 0.273565 0
M  V30 676 H 62.6661 -1.33601 1.25789 0
M  V30 677 H 61.0481 -3.9 0.686703 0
M  V30 678 H 62.2221 -3.08153 3.42605 0
M  V30 679 H 60.5371 -2.90022 2.98791 0
M  V30 680 H 63.1341 -5.16689 1.37611 0
M  V30 681 H 63.4771 -4.16298 -0.0112774 0
M  V30 682 H 64.0101 -3.63987 1.60495 0
M  V30 683 H 60.7491 -4.94408 4.30396 0
M  V30 684 H 60.2691 -5.38172 2.64823 0
M  V30 685 H 61.9481 -5.62987 3.18834 0
M  V30 686 N 62.0802 -0.821533 -1.34494 0
M  V30 687 C 63.3102 -0.421272 -2.02259 0
M  V30 688 C 63.7182 0.977047 -1.6202 0
M  V30 689 O 63.0612 1.64348 -0.820703 0
M  V30 690 C 63.1232 -0.44231 -3.56769 0
M  V30 691 C 62.7872 -1.79372 -4.20327 0
M  V30 692 C 63.7842 -2.75435 -4.40944 0
M  V30 693 C 61.4692 -2.08182 -4.57127 0
M  V30 694 C 63.4632 -3.98482 -4.97484 0
M  V30 695 C 61.1502 -3.31489 -5.13379 0
M  V30 696 C 62.1482 -4.26457 -5.33501 0
M  V30 697 O 61.8362 -5.47585 -5.88562 0
M  V30 698 H 61.5682 -0.167473 -0.654927 0
M  V30 699 H 64.1222 -1.11073 -1.72777 0
M  V30 700 H 62.3522 0.303836 -3.85505 0
M  V30 701 H 64.0412 -0.0622925 -4.05852 0
M  V30 702 H 64.8072 -2.54473 -4.12878 0
M  V30 703 H 60.6862 -1.35066 -4.4077 0
M  V30 704 H 64.2302 -4.72618 -5.13106 0
M  V30 705 H 60.1272 -3.52316 -5.40873 0
M  V30 706 H 60.8952 -5.49086 -6.06998 0
M  V30 707 N 63.5583 1.46682 -0.576371 0
M  V30 708 C 64.7983 2.04306 -0.0621356 0
M  V30 709 C 65.1623 1.4389 1.2712 0
M  V30 710 O 66.3633 1.92675 1.87429 0
M  V30 711 C 64.6343 3.57399 0.00927922 0
M  V30 712 S 66.1933 4.36309 0.466859 0
M  V30 713 H 63.0113 0.710167 -0.0344016 0
M  V30 714 H 65.6133 1.79807 -0.767437 0
M  V30 715 H 64.3173 3.98889 -0.965178 0
M  V30 716 H 63.8483 3.86424 0.737547 0
M  V30 717 H 65.8633 4.6533 1.72287 0
M  V30 718 N 65.0364 0.313813 1.54444 0
M  V30 719 C 65.9844 -0.572171 2.25453 0
M  V30 720 C 66.9784 -1.12657 1.2651 0
M  V30 721 O 68.1844 -1.07573 1.44319 0
M  V30 722 H 64.5594 -0.203146 0.724041 0
M  V30 723 H 66.5304 0.0491145 2.9836 0
M  V30 724 C 65.2794 -1.72626 3.0182 0
M  V30 725 H 64.6024 -1.30891 3.77767 0
M  V30 726 H 66.0424 -2.32199 3.54767 0
M  V30 727 C 64.5014 -2.63806 2.09542 0
M  V30 728 O 65.0314 -3.65256 1.67185 0
M  V30 729 N 63.2374 -2.31824 1.75232 0
M  V30 730 H 62.7844 -1.49368 2.09873 0
M  V30 731 H 62.7424 -2.93095 1.13767 0
M  V30 732 N 66.5145 -1.57545 0.0417849 0
M  V30 733 C 67.7915 -1.83642 -0.673433 0
M  V30 734 C 68.1715 -0.928298 -1.89594 0
M  V30 735 O 67.5195 0.0129955 -2.28496 0
M  V30 736 C 67.7295 -3.33155 -1.03964 0
M  V30 737 C 69.0775 -3.99941 -1.42592 0
M  V30 738 O 70.1015 -3.37725 -1.13226 0
M  V30 739 O 68.9605 -5.09619 -1.9736 0
M  V30 740 H 66.0545 -0.757638 -0.331533 0
M  V30 741 H 68.6005 -1.69554 0.070433 0
M  V30 742 H 67.3725 -3.9093 -0.170098 0
M  V30 743 H 66.9955 -3.52396 -1.84126 0
M  V30 744 N 67.9926 0.231505 -1.5589 0
M  V30 745 C 69.2406 0.955461 -1.78088 0
M  V30 746 C 69.5616 1.85262 -0.608533 0
M  V30 747 O 68.8316 1.92277 0.375035 0
M  V30 748 H 67.4116 0.355787 -0.656829 0
M  V30 749 H 70.0736 0.245751 -1.93344 0
M  V30 750 H 69.1696 1.56814 -2.69844 0
M  V30 751 N 69.4707 1.49531 0.497807 0
M  V30 752 C 70.7177 1.59179 1.25173 0
M  V30 753 C 71.0457 0.279932 1.92475 0
M  V30 754 O 70.3007 -0.732383 1.81479 0
M  V30 755 C 70.5997 2.70252 2.33878 0
M  V30 756 C 70.2657 4.11644 1.84012 0
M  V30 757 C 68.9277 4.50121 1.70132 0
M  V30 758 C 71.2797 5.00121 1.46725 0
M  V30 759 C 68.6077 5.74845 1.17348 0
M  V30 760 C 70.9597 6.25366 0.95392 0
M  V30 761 C 69.6237 6.6267 0.801538 0
M  V30 762 H 68.8937 0.582478 0.45804 0
M  V30 763 H 71.5407 1.83373 0.551948 0
M  V30 764 H 69.8457 2.40041 3.09657 0
M  V30 765 H 71.5427 2.74925 2.9192 0
M  V30 766 H 68.1327 3.81274 1.95775 0
M  V30 767 H 72.3167 4.71048 1.56294 0
M  V30 768 H 67.5727 6.02444 1.04264 0
M  V30 769 H 71.7467 6.93301 0.656225 0
M  V30 770 H 69.3737 7.59197 0.390351 0
M  V30 771 N 70.9488 -0.749086 1.3866 0
M  V30 772 C 72.1888 -1.52112 1.36534 0
M  V30 773 C 72.5528 -1.91951 -0.0432316 0
M  V30 774 O 73.7538 -2.68132 -0.189396 0
M  V30 775 C 72.0248 -2.73704 2.29828 0
M  V30 776 S 73.5838 -3.63519 2.45763 0
M  V30 777 H 70.4018 -0.520482 0.484375 0
M  V30 778 H 73.0038 -0.878963 1.74627 0
M  V30 779 H 71.7078 -2.42552 3.31054 0
M  V30 780 H 71.2388 -3.4286 1.929 0
M  V30 781 H 73.2538 -4.66712 1.68505 0
M  V30 782 N 72.4269 -1.23603 -0.977757 0
M  V30 783 C 73.3369 -1.03632 -2.1047 0
M  V30 784 C 74.3529 0.0199435 -1.73989 0
M  V30 785 O 75.5289 -0.176076 -2.00629 0
M  V30 786 C 72.5939 -0.63276 -3.40877 0
M  V30 787 C 71.6549 -1.76437 -3.91367 0
M  V30 788 C 70.8879 -1.37997 -5.15551 0
M  V30 789 O 71.1109 -0.265357 -5.69782 0
M  V30 790 O 70.0449 -2.20201 -5.60174 0
M  V30 791 H 73.8709 -1.98086 -2.30208 0
M  V30 792 H 71.4559 -1.02332 -1.08851 0
M  V30 793 H 73.3379 -0.418761 -4.19314 0
M  V30 794 H 72.0129 0.282754 -3.22463 0
M  V30 795 H 70.9199 -2.03304 -3.14036 0
M  V30 796 H 72.2529 -2.6583 -4.14241 0
M  V30 797 N 73.905 1.17692 -1.04816 0
M  V30 798 C 74.835 2.23777 -0.666791 0
M  V30 799 C 75.816 1.66796 0.33361 0
M  V30 800 O 77.001 1.93039 0.212042 0
M  V30 801 C 74.131 3.47281 -0.0367933 0
M  V30 802 C 73.085 4.17059 -0.961546 0
M  V30 803 C 72.411 5.34342 -0.195626 0
M  V30 804 C 73.711 4.69713 -2.28402 0
M  V30 805 H 75.405 2.55933 -1.55367 0
M  V30 806 H 72.951 1.23019 -0.748484 0
M  V30 807 H 74.904 4.20706 0.241775 0
M  V30 808 H 73.628 3.14381 0.885004 0
M  V30 809 H 72.287 3.45541 -1.22462 0
M  V30 810 H 71.935 4.97692 0.728816 0
M  V30 811 H 71.635 5.81966 -0.811775 0
M  V30 812 H 73.159 6.10553 0.0757473 0
M  V30 813 H 74.573 5.34794 -2.06563 0
M  V30 814 H 72.97 5.279 -2.8538 0
M  V30 815 H 74.04 3.86726 -2.92525 0
M  V30 816 N 75.3831 0.828654 1.34056 0
M  V30 817 C 76.6301 0.419458 1.98108 0
M  V30 818 C 76.9581 -1.01886 1.65679 0
M  V30 819 O 76.2131 -1.72539 0.923512 0
M  V30 820 C 76.5121 0.575226 3.52741 0
M  V30 821 C 76.1781 1.98012 4.05095 0
M  V30 822 C 74.8401 2.36442 4.19104 0
M  V30 823 C 77.1921 2.89824 4.33188 0
M  V30 824 C 74.5201 3.66009 4.58535 0
M  V30 825 C 76.8721 4.1886 4.74066 0
M  V30 826 C 75.5361 4.5726 4.86281 0
M  V30 827 H 74.8061 0.153491 0.724929 0
M  V30 828 H 77.4531 1.05371 1.59904 0
M  V30 829 H 75.7581 -0.142385 3.91541 0
M  V30 830 H 77.4551 0.239057 4.00287 0
M  V30 831 H 74.0451 1.67162 3.94658 0
M  V30 832 H 78.2291 2.61375 4.21897 0
M  V30 833 H 73.4851 3.95579 4.66184 0
M  V30 834 H 77.6591 4.90086 4.94761 0
M  V30 835 H 75.2861 5.57707 5.16592 0
M  V30 836 N 76.8612 -1.46375 0.584142 0
M  V30 837 C 78.1092 -2.01978 0.0701287 0
M  V30 838 C 78.4302 -1.4579 -1.295 0
M  V30 839 O 77.7002 -0.64314 -1.85042 0
M  V30 840 H 76.2802 -0.746648 0.0229345 0
M  V30 841 H 78.9422 -1.79461 0.760245 0
M  V30 842 H 78.0382 -3.121 0.0022064 0
M  V30 843 N 78.3393 -0.321999 -1.54275 0
M  V30 844 C 79.5693 0.282642 -2.04658 0
M  V30 845 C 79.9773 1.46453 -1.19784 0
M  V30 846 O 79.3203 1.82367 -0.220932 0
M  V30 847 C 79.3823 0.781857 -3.50895 0
M  V30 848 C 79.0463 -0.277517 -4.56157 0
M  V30 849 C 80.0433 -1.11307 -5.07845 0
M  V30 850 C 77.7283 -0.425256 -5.00497 0
M  V30 851 C 79.7223 -2.08211 -6.02434 0
M  V30 852 C 77.4093 -1.39771 -5.94901 0
M  V30 853 C 78.4073 -2.2246 -6.45756 0
M  V30 854 O 78.0953 -3.18054 -7.38307 0
M  V30 855 H 77.8273 0.0622636 -0.673126 0
M  V30 856 H 80.3813 -0.465792 -2.00049 0
M  V30 857 H 78.6113 1.58118 -3.52896 0
M  V30 858 H 80.3003 1.30467 -3.84361 0
M  V30 859 H 81.0663 -1.00991 -4.74369 0
M  V30 860 H 76.9453 0.20847 -4.60528 0
M  V30 861 H 80.4893 -2.72791 -6.42052 0
M  V30 862 H 76.3863 -1.50152 -6.27794 0
M  V30 863 H 77.1543 -3.13275 -7.56175 0
M  V30 864 N 79.8174 1.5752 -0.0501392 0
M  V30 865 C 81.0424 1.97376 0.636997 0
M  V30 866 C 81.4674 0.927466 1.63645 0
M  V30 867 O 80.8254 -0.10941 1.8097 0
M  V30 868 C 80.8734 3.36304 1.30123 0
M  V30 869 O 79.9774 3.34156 2.41689 0
M  V30 870 H 79.3184 0.642998 0.165679 0
M  V30 871 H 81.8484 2.04258 -0.118233 0
M  V30 872 H 81.8584 3.73008 1.65315 0
M  V30 873 H 80.5334 4.11993 0.568746 0
M  V30 874 H 79.1104 3.09196 2.08451 0
M  V30 875 N 81.2955 -0.223234 1.56011 0
M  V30 876 C 82.7115 -0.572856 1.48965 0
M  V30 877 C 82.9115 -1.87225 0.74492 0
M  V30 878 O 81.9675 -2.50899 0.283896 0
M  V30 879 C 83.2805 -0.653646 2.9351 0
M  V30 880 C 84.8285 -0.744386 3.0402 0
M  V30 881 C 85.3035 -0.856535 4.49919 0
M  V30 882 N 86.7945 -0.9208 4.53955 0
M  V30 883 C 87.5295 -1.02726 5.64123 0
M  V30 884 N 87.0255 -1.09777 6.84047 0
M  V30 885 N 88.8185 -1.06226 5.51971 0
M  V30 886 H 80.9695 0.629462 2.02858 0
M  V30 887 H 83.2325 0.220621 0.921971 0
M  V30 888 H 82.9385 0.231518 3.50937 0
M  V30 889 H 82.8125 -1.51781 3.45315 0
M  V30 890 H 85.1995 -1.61999 2.46658 0
M  V30 891 H 85.2805 0.14541 2.55386 0
M  V30 892 H 84.9245 0.0146069 5.07898 0
M  V30 893 H 84.8545 -1.76172 4.96257 0
M  V30 894 H 87.3455 -0.876694 3.6759 0
M  V30 895 H 87.6585 -1.17872 7.63758 0
M  V30 896 H 86.0035 -1.06693 6.86762 0
M  V30 897 H 89.1945 -1.00382 4.5721 0
M  V30 898 H 89.3675 -1.14177 6.37862 0
M  V30 899 N 82.7736 -1.49793 -0.48987 0
M  V30 900 C 84.0196 -1.60078 -1.24511 0
M  V30 901 C 84.3526 -0.291608 -1.91998 0
M  V30 902 O 83.6276 0.705647 -1.81248 0
M  V30 903 C 83.9106 -2.76791 -2.30345 0
M  V30 904 C 83.7636 -4.17535 -1.67286 0
M  V30 905 C 85.0826 -2.89111 -3.31817 0
M  V30 906 H 82.2016 -0.582645 -0.451324 0
M  V30 907 H 84.8436 -1.82117 -0.541612 0
M  V30 908 H 82.9936 -2.5813 -2.90346 0
M  V30 909 H 84.6656 -4.4774 -1.11026 0
M  V30 910 H 82.9086 -4.22665 -0.976577 0
M  V30 911 H 83.5796 -4.95094 -2.44103 0
M  V30 912 H 86.0556 -3.06133 -2.81819 0
M  V30 913 H 84.9316 -3.72433 -4.03219 0
M  V30 914 H 85.1926 -1.9893 -3.94815 0
M  V30 915 N 84.2517 0.741722 -1.39055 0
M  V30 916 C 85.1617 1.88621 -1.39496 0
M  V30 917 C 86.1777 1.71557 -0.290578 0
M  V30 918 O 87.3537 1.94275 -0.530954 0
M  V30 919 C 84.4187 3.24134 -1.23037 0
M  V30 920 C 83.4797 3.5364 -2.43387 0
M  V30 921 C 82.7127 4.82687 -2.27703 0
M  V30 922 O 82.9357 5.55922 -1.27696 0
M  V30 923 O 81.8697 5.1194 -3.16545 0
M  V30 924 H 85.6957 1.91203 -2.35956 0
M  V30 925 H 83.2807 0.888625 -1.20099 0
M  V30 926 H 85.1627 4.0513 -1.15964 0
M  V30 927 H 83.8377 3.22337 -0.296691 0
M  V30 928 H 82.7447 2.72758 -2.56035 0
M  V30 929 H 84.0777 3.60209 -3.35425 0
M  V30 930 N 85.7298 1.2412 0.971189 0
M  V30 931 C 86.9758 1.08041 1.71625 0
M  V30 932 C 87.3088 -0.380407 1.90438 0
M  V30 933 O 86.5838 -1.28127 1.46334 0
M  V30 934 C 86.8668 1.81682 3.10908 0
M  V30 935 C 86.7198 3.35493 2.99608 0
M  V30 936 C 88.0388 1.58671 4.10501 0
M  V30 937 H 85.1578 0.39388 0.622919 0
M  V30 938 H 87.7998 1.52743 1.13003 0
M  V30 939 H 85.9498 1.43684 3.60953 0
M  V30 940 H 87.6218 3.83068 2.57015 0
M  V30 941 H 85.8648 3.64052 2.35899 0
M  V30 942 H 86.5358 3.82217 3.98264 0
M  V30 943 H 89.0118 1.91719 3.69301 0
M  V30 944 H 87.8878 2.1266 5.06031 0
M  V30 945 H 88.1488 0.524161 4.38982 0
M  V30 946 N 87.2079 -1.17134 1.05439 0
M  V30 947 C 88.1409 -2.2012 0.601855 0
M  V30 948 C 89.1189 -1.58314 -0.370854 0
M  V30 949 O 90.3029 -1.8638 -0.281882 0
M  V30 950 C 87.4299 -3.38491 -0.118868 0
M  V30 951 C 86.4759 -4.18752 0.809242 0
M  V30 952 S 87.3089 -4.83602 2.29977 0
M  V30 953 C 88.4649 -6.0536 1.59029 0
M  V30 954 H 88.6979 -2.58165 1.47438 0
M  V30 955 H 86.2309 -1.27788 0.866573 0
M  V30 956 H 88.1889 -4.07084 -0.528495 0
M  V30 957 H 86.8499 -2.98829 -0.967465 0
M  V30 958 H 86.0429 -5.03373 0.251379 0
M  V30 959 H 85.6449 -3.5561 1.15835 0
M  V30 960 H 87.9369 -6.71615 0.891017 0
M  V30 961 H 88.8799 -6.65679 2.41407 0
M  V30 962 H 89.2879 -5.54138 1.07663 0
M  V30 963 N 88.686 -0.835752 -1.33615 0
M  V30 964 C 89.618 -0.224151 -2.28101 0
M  V30 965 C 90.631 0.593331 -1.51603 0
M  V30 966 O 91.82 0.420911 -1.73466 0
M  V30 967 C 88.92 0.703309 -3.31522 0
M  V30 968 C 88.093 -0.0741528 -4.37337 0
M  V30 969 C 87.152 0.776176 -5.20444 0
M  V30 970 O 86.178 0.216506 -5.68788 0
M  V30 971 N 87.38 2.09401 -5.41416 0
M  V30 972 H 90.145 -1.03598 -2.81225 0
M  V30 973 H 87.706 -0.69392 -1.46275 0
M  V30 974 H 89.698 1.27707 -3.84022 0
M  V30 975 H 88.268 1.41585 -2.78698 0
M  V30 976 H 87.488 -0.82928 -3.85378 0
M  V30 977 H 88.776 -0.608863 -5.05144 0
M  V30 978 H 88.174 2.57229 -5.03835 0
M  V30 979 H 86.731 2.61633 -5.96985 0
M  V30 980 N 90.1641 1.46063 -0.591896 0
M  V30 981 C 91.0961 2.28539 0.174001 0
M  V30 982 C 92.1091 1.39047 0.846753 0
M  V30 983 O 93.2981 1.63564 0.714774 0
M  V30 984 C 90.3981 3.14347 1.26645 0
M  V30 985 C 89.5711 4.32021 0.683856 0
M  V30 986 C 88.6301 4.99157 1.66518 0
M  V30 987 O 87.6561 5.56458 1.19763 0
M  V30 988 N 88.8581 4.97005 2.99943 0
M  V30 989 H 91.6231 2.94911 -0.533633 0
M  V30 990 H 89.1841 1.56077 -0.430294 0
M  V30 991 H 91.1761 3.56125 1.92242 0
M  V30 992 H 89.7461 2.49988 1.87682 0
M  V30 993 H 88.9661 3.93915 -0.1498 0
M  V30 994 H 90.2541 5.08059 0.274567 0
M  V30 995 H 89.6521 4.51714 3.40545 0
M  V30 996 H 88.2091 5.42696 3.61004 0
M  V30 997 N 91.6422 0.330177 1.54103 0
M  V30 998 C 93.0532 -0.15652 1.86043 0
M  V30 999 C 93.4042 -1.51086 1.2517 0
M  V30 1000 O 92.5292 -2.09023 0.560217 0
M  V30 1001 C 93.1242 -0.290784 3.3755 0
M  V30 1002 C 91.6832 -0.721705 3.69416 0
M  V30 1003 C 90.8302 0.152622 2.7688 0
M  V30 1004 H 93.7812 0.550237 1.48856 0
M  V30 1005 H 93.8022 -1.12058 3.63625 0
M  V30 1006 H 93.3142 0.695068 3.81825 0
M  V30 1007 H 91.4152 -1.71706 3.30678 0
M  V30 1008 H 91.5282 -0.520869 4.7626 0
M  V30 1009 H 89.8922 -0.372894 2.51956 0
M  V30 1010 H 90.6752 1.13536 3.23982 0
M  V30 1011 N 93.1203 -1.57491 0.0584922 0
M  V30 1012 C 94.3603 -1.94851 -0.617458 0
M  V30 1013 C 94.7243 -0.937165 -1.67575 0
M  V30 1014 O 95.9253 -1.19795 -2.40629 0
M  V30 1015 C 94.1963 -3.36955 -1.19147 0
M  V30 1016 S 95.7553 -3.96277 -1.8844 0
M  V30 1017 H 92.5733 -0.681539 -0.202547 0
M  V30 1018 H 95.1753 -1.95073 0.129176 0
M  V30 1019 H 93.8793 -4.08355 -0.409215 0
M  V30 1020 H 93.4103 -3.40245 -1.97476 0
M  V30 1021 H 95.4253 -3.82099 -3.16568 0
M  V30 1022 N 94.5984 0.214957 -1.56127 0
M  V30 1023 C 95.8264 0.955092 -1.83536 0
M  V30 1024 C 96.2414 1.77677 -0.638472 0
M  V30 1025 O 95.5984 1.78219 0.392968 0
M  V30 1026 C 95.6494 1.86734 -3.09536 0
M  V30 1027 O 95.3704 1.07887 -4.24608 0
M  V30 1028 C 96.8714 2.72082 -3.4998 0
M  V30 1029 H 94.0914 0.279611 -0.609966 0
M  V30 1030 H 96.6354 0.228197 -2.03223 0
M  V30 1031 H 94.7904 2.5481 -2.91806 0
M  V30 1032 H 95.2044 1.69872 -4.9623 0
M  V30 1033 H 96.6784 3.31782 -4.41163 0
M  V30 1034 H 97.1554 3.44806 -2.7204 0
M  V30 1035 H 97.7614 2.09409 -3.70173 0
M  V30 1036 N 96.0765 1.50051 0.48192 0
M  V30 1037 C 97.3165 1.62128 1.24474 0
M  V30 1038 C 97.6805 0.309742 1.89485 0
M  V30 1039 O 98.8815 0.305854 2.67054 0
M  V30 1040 C 97.1525 2.76151 2.26882 0
M  V30 1041 S 98.7115 3.08297 3.12247 0
M  V30 1042 H 95.5295 0.571661 0.422759 0
M  V30 1043 H 98.1315 1.87791 0.54359 0
M  V30 1044 H 96.8355 3.69942 1.77683 0
M  V30 1045 H 96.3665 2.52541 3.0164 0
M  V30 1046 H 98.3815 2.51287 4.27866 0
M  V30 1047 N 97.5546 -0.734337 1.39446 0
M  V30 1048 C 98.8316 -1.48579 1.27215 0
M  V30 1049 C 99.2116 -2.1077 -0.117968 0
M  V30 1050 O 98.5596 -1.98646 -1.12924 0
M  V30 1051 C 98.7696 -2.53667 2.39696 0
M  V30 1052 C 100.118 -3.20031 2.79044 0
M  V30 1053 O 101.142 -2.6398 2.39151 0
M  V30 1054 O 100.001 -4.21455 3.47905 0
M  V30 1055 H 97.0946 -0.659816 0.49857 0
M  V30 1056 H 99.6406 -0.768106 1.51322 0
M  V30 1057 H 98.4126 -2.06096 3.32626 0
M  V30 1058 H 98.0356 -3.32994 2.17258 0
M  V30 1059 N 99.0327 -1.24633 -0.964593 0
M  V30 1060 C 100.28 -1.08788 -1.70796 0
M  V30 1061 C 100.608 0.372783 -1.90894 0
M  V30 1062 O 99.8627 1.29167 -1.47018 0
M  V30 1063 C 100.162 -1.7763 -3.10133 0
M  V30 1064 C 99.8277 -3.27557 -3.09866 0
M  V30 1065 C 98.4897 -3.6846 -3.09501 0
M  V30 1066 C 100.842 -4.23389 -3.03959 0
M  V30 1067 C 98.1697 -5.03624 -3.00965 0
M  V30 1068 C 100.522 -5.58565 -2.96965 0
M  V30 1069 C 99.1857 -5.98809 -2.9493 0
M  V30 1070 H 98.4557 -0.398084 -0.624988 0
M  V30 1071 H 101.103 -1.54777 -1.12767 0
M  V30 1072 H 99.4077 -1.24044 -3.71645 0
M  V30 1073 H 101.105 -1.62832 -3.66451 0
M  V30 1074 H 97.6947 -2.95006 -3.10917 0
M  V30 1075 H 101.879 -3.92787 -3.03368 0
M  V30 1076 H 97.1347 -5.33998 -2.97752 0
M  V30 1077 H 101.309 -6.32523 -2.91354 0
M  V30 1078 H 98.9357 -7.03505 -2.88071 0
M  V30 1079 N 100.511 1.16574 -1.06058 0
M  V30 1080 C 101.441 2.23057 -0.690488 0
M  V30 1081 C 102.422 1.67141 0.315901 0
M  V30 1082 O 103.607 1.93253 0.191556 0
M  V30 1083 C 100.737 3.47222 -0.073625 0
M  V30 1084 C 99.6908 4.16016 -1.00573 0
M  V30 1085 C 99.0168 5.34104 -0.252289 0
M  V30 1086 C 100.317 4.67264 -2.33371 0
M  V30 1087 H 102.011 2.54271 -1.58072 0
M  V30 1088 H 99.5568 1.22218 -0.76149 0
M  V30 1089 H 101.51 4.20939 0.19714 0
M  V30 1090 H 100.234 3.15302 0.85161 0
M  V30 1091 H 98.8928 3.44223 -1.2612 0
M  V30 1092 H 98.5408 4.98437 0.675988 0
M  V30 1093 H 98.2408 5.81072 -0.873455 0
M  V30 1094 H 99.7648 6.10599 0.0109857 0
M  V30 1095 H 101.179 5.32573 -2.12223 0
M  V30 1096 H 99.5758 5.24843 -2.90963 0
M  V30 1097 H 100.646 3.83602 -2.96611 0
M  V30 1098 N 101.989 0.842826 1.3317 0
M  V30 1099 C 103.217 0.454055 2.01856 0
M  V30 1100 C 103.632 -0.94587 1.63397 0
M  V30 1101 O 102.989 -1.61534 0.849302 0
M  V30 1102 C 103.04 0.569715 3.56982 0
M  V30 1103 O 102.761 1.91448 3.94055 0
M  V30 1104 C 104.262 0.178412 4.42941 0
M  V30 1105 H 101.482 0.17979 0.646465 0
M  V30 1106 H 104.026 1.1365 1.70012 0
M  V30 1107 H 102.181 -0.0648587 3.87346 0
M  V30 1108 H 102.595 1.90282 4.88767 0
M  V30 1109 H 104.069 0.310376 5.51127 0
M  V30 1110 H 104.546 -0.880056 4.30293 0
M  V30 1111 H 105.152 0.787579 4.17944 0
M  V30 1112 N 103.467 -1.45747 0.599634 0
M  V30 1113 C 104.715 -2.01893 0.0915472 0
M  V30 1114 C 105.036 -1.47155 -1.27946 0
M  V30 1115 O 104.306 -0.66273 -1.84349 0
M  V30 1116 H 102.886 -0.746363 0.0308524 0
M  V30 1117 H 105.548 -1.78645 0.779237 0
M  V30 1118 H 104.644 -3.1208 0.0353086 0
M  V30 1119 N 104.945 -0.338344 -1.53925 0
M  V30 1120 C 106.356 0.146651 -1.86123 0
M  V30 1121 C 106.707 1.5042 -1.2597 0
M  V30 1122 O 105.832 2.08723 -0.571294 0
M  V30 1123 C 106.427 0.272879 -3.37699 0
M  V30 1124 C 104.986 0.702103 -3.69794 0
M  V30 1125 C 104.133 -0.167304 -2.76795 0
M  V30 1126 H 107.084 -0.558123 -1.48562 0
M  V30 1127 H 107.105 1.10128 -3.64214 0
M  V30 1128 H 106.617 -0.715307 -3.81451 0
M  V30 1129 H 104.718 1.6995 -3.31584 0
M  V30 1130 H 104.831 0.495604 -4.7653 0
M  V30 1131 H 103.195 0.359527 -2.5215 0
M  V30 1132 H 103.978 -1.15253 -3.23375 0
M  V30 1133 N 106.423 1.57458 -0.0668435 0
M  V30 1134 C 107.371 2.13639 0.919851 0
M  V30 1135 C 108.365 1.07204 1.31163 0
M  V30 1136 O 109.571 1.25591 1.28945 0
M  V30 1137 H 105.946 0.683048 0.314562 0
M  V30 1138 H 107.917 2.95415 0.421047 0
M  V30 1139 C 106.666 2.70892 2.17975 0
M  V30 1140 H 105.989 3.5246 1.88711 0
M  V30 1141 H 107.429 3.13803 2.85138 0
M  V30 1142 C 105.888 1.65414 2.93496 0
M  V30 1143 O 106.418 1.07619 3.87015 0
M  V30 1144 N 104.624 1.36564 2.56512 0
M  V30 1145 H 104.171 1.83751 1.80536 0
M  V30 1146 H 104.129 0.66223 3.07347 0
M  V30 1147 N 107.901 -0.206675 1.56239 0
M  V30 1148 C 109.129 -0.945345 1.8404 0
M  V30 1149 C 109.544 -1.77336 0.647885 0
M  V30 1150 O 108.901 -1.78425 -0.383511 0
M  V30 1151 C 108.952 -1.8509 3.10522 0
M  V30 1152 O 108.673 -1.05634 4.25174 0
M  V30 1153 C 110.174 -2.70222 3.51418 0
M  V30 1154 H 107.394 -0.276372 0.61144 0
M  V30 1155 H 109.938 -0.217417 2.03341 0
M  V30 1156 H 108.093 -2.53259 2.93153 0
M  V30 1157 H 108.507 -1.67238 4.97124 0
M  V30 1158 H 109.981 -3.29438 4.42916 0
M  V30 1159 H 110.458 -3.43358 2.73864 0
M  V30 1160 H 111.064 -2.07443 3.71278 0
M  V30 1161 N 109.379 -1.50304 -0.473955 0
M  V30 1162 C 110.79 -1.54042 -1.0549 0
M  V30 1163 C 111.141 -0.342248 -1.93192 0
M  V30 1164 O 110.266 0.545157 -2.09421 0
M  V30 1165 C 110.861 -2.79152 -1.91989 0
M  V30 1166 C 109.42 -2.8558 -2.45196 0
M  V30 1167 C 108.567 -2.48295 -1.2347 0
M  V30 1168 H 111.518 -1.5661 -0.256693 0
M  V30 1169 H 111.539 -2.60845 -2.7702 0
M  V30 1170 H 111.051 -3.66339 -1.28131 0
M  V30 1171 H 109.152 -2.02738 -3.12615 0
M  V30 1172 H 109.265 -3.88403 -2.80499 0
M  V30 1173 H 107.629 -2.00669 -1.56856 0
M  V30 1174 H 108.412 -3.37787 -0.612789 0
M  V30 1175 N 110.857 0.726932 -1.39834 0
M  V30 1176 C 112.082 1.52121 -1.40976 0
M  V30 1177 C 112.507 1.88098 -0.00826029 0
M  V30 1178 O 111.865 1.52479 0.980807 0
M  V30 1179 C 111.913 2.78021 -2.29644 0
M  V30 1180 O 111.017 3.74272 -1.73188 0
M  V30 1181 H 110.358 0.45908 -0.479731 0
M  V30 1182 H 112.888 0.896207 -1.83927 0
M  V30 1183 H 112.898 3.26671 -2.44438 0
M  V30 1184 H 111.573 2.51169 -3.31492 0
M  V30 1185 H 110.15 3.33073 -1.6768 0
M  V30 1186 N 112.336 1.25143 0.95797 0
M  V30 1187 C 113.561 1.12521 1.74223 0
M  V30 1188 C 113.986 -0.317402 1.85403 0
M  V30 1189 O 113.344 -1.2299 1.33204 0
M  V30 1190 C 113.392 1.78062 3.1357 0
M  V30 1191 O 112.496 1.058 3.98598 0
M  V30 1192 H 111.837 0.39304 0.535178 0
M  V30 1193 H 114.367 1.65641 1.201 0
M  V30 1194 H 114.377 1.84213 3.64046 0
M  V30 1195 H 113.052 2.83021 3.04749 0
M  V30 1196 H 111.629 1.07506 3.57067 0
M  V30 1197 N 113.814 -1.1601 1.06675 0
M  V30 1198 C 114.777 -2.18724 0.685001 0
M  V30 1199 C 115.777 -1.58496 -0.271246 0
M  V30 1200 O 116.967 -1.74119 -0.0531156 0
M  V30 1201 C 114.099 -3.40899 0.00853648 0
M  V30 1202 H 115.292 -2.54011 1.59431 0
M  V30 1203 H 112.845 -1.30352 0.862441 0
M  V30 1204 H 113.58 -3.11173 -0.913337 0
M  V30 1205 H 113.365 -3.8587 0.696204 0
M  V30 1206 H 114.855 -4.16886 -0.24414 0
M  V30 1207 N 115.292 -0.849877 -1.32721 0
M  V30 1208 C 116.538 -0.451591 -1.97708 0
M  V30 1209 C 116.871 0.989175 -1.6712 0
M  V30 1210 O 116.146 1.69334 -0.956891 0
M  V30 1211 C 116.429 -0.685598 -3.53513 0
M  V30 1212 C 116.282 -2.17444 -3.93749 0
M  V30 1213 C 117.601 -0.138874 -4.39881 0
M  V30 1214 H 114.72 -0.16555 -0.718166 0
M  V30 1215 H 117.362 -1.06742 -1.57182 0
M  V30 1216 H 115.512 -0.161416 -3.88165 0
M  V30 1217 H 117.184 -2.76433 -3.693 0
M  V30 1218 H 115.427 -2.65476 -3.43081 0
M  V30 1219 H 116.098 -2.28888 -5.02309 0
M  V30 1220 H 118.574 -0.587068 -4.11938 0
M  V30 1221 H 117.45 -0.332213 -5.47894 0
M  V30 1222 H 117.711 0.95806 -4.31594 0
M  V30 1223 N 116.77 1.45427 -0.607355 0
M  V30 1224 C 117.995 2.07124 -0.107006 0
M  V30 1225 C 118.42 1.44906 1.19933 0
M  V30 1226 O 117.778 0.541687 1.73019 0
M  V30 1227 C 117.826 3.60595 0.0194119 0
M  V30 1228 O 116.93 3.98285 1.0697 0
M  V30 1229 H 116.271 0.659868 -0.0739597 0
M  V30 1230 H 118.801 1.86683 -0.837297 0
M  V30 1231 H 118.811 4.07419 0.2177 0
M  V30 1232 H 117.486 4.05266 -0.934453 0
M  V30 1233 H 116.063 3.63133 0.847889 0
M  V30 1234 N 118.248 0.346503 1.53744 0
M  V30 1235 C 119.664 -0.00530975 1.59599 0
M  V30 1236 C 119.864 -1.48465 1.36236 0
M  V30 1237 O 118.92 -2.24376 1.15808 0
M  V30 1238 C 120.233 0.433516 2.97559 0
M  V30 1239 C 121.781 0.386111 3.10609 0
M  V30 1240 C 122.256 0.800451 4.50951 0
M  V30 1241 N 123.747 0.754753 4.5701 0
M  V30 1242 C 124.482 1.04727 5.63755 0
M  V30 1243 N 123.978 1.4081 6.7834 0
M  V30 1244 N 125.771 0.971316 5.53644 0
M  V30 1245 H 117.922 1.31009 1.67184 0
M  V30 1246 H 120.185 0.534242 0.783128 0
M  V30 1247 H 119.891 1.46509 3.19731 0
M  V30 1248 H 119.765 -0.189753 3.76722 0
M  V30 1249 H 122.152 -0.636295 2.88158 0
M  V30 1250 H 122.233 1.04462 2.33498 0
M  V30 1251 H 121.877 1.82088 4.74137 0
M  V30 1252 H 121.807 0.119386 5.26465 0
M  V30 1253 H 124.298 0.488662 3.74727 0
M  V30 1254 H 124.611 1.61607 7.55714 0
M  V30 1255 H 122.956 1.44657 6.79779 0
M  V30 1256 H 126.147 0.688748 4.63005 0
M  V30 1257 H 126.32 1.20263 6.36742 0
M  V30 1258 N 119.726 -1.57421 0.075193 0
M  V30 1259 C 120.656 -2.15942 -0.888324 0
M  V30 1260 C 121.637 -1.08737 -1.30806 0
M  V30 1261 O 122.822 -1.36787 -1.37851 0
M  V30 1262 C 119.952 -2.72379 -2.1547 0
M  V30 1263 C 118.906 -3.8478 -1.87425 0
M  V30 1264 C 118.232 -4.27834 -3.20721 0
M  V30 1265 C 119.532 -5.08869 -1.17684 0
M  V30 1266 H 121.226 -2.96705 -0.400799 0
M  V30 1267 H 118.772 -1.42723 -0.191342 0
M  V30 1268 H 120.725 -3.11965 -2.83295 0
M  V30 1269 H 119.449 -1.88841 -2.6647 0
M  V30 1270 H 118.108 -3.45703 -1.22004 0
M  V30 1271 H 117.756 -3.41214 -3.6957 0
M  V30 1272 H 117.456 -5.03605 -3.02746 0
M  V30 1273 H 118.98 -4.70039 -3.89738 0
M  V30 1274 H 120.394 -5.4575 -1.75584 0
M  V30 1275 H 118.791 -5.8994 -1.09956 0
M  V30 1276 H 119.861 -4.84648 -0.156453 0
M  V30 1277 N 121.204 0.198386 -1.56346 0
M  V30 1278 C 122.167 1.22952 -1.93431 0
M  V30 1279 C 123.167 1.38611 -0.815092 0
M  V30 1280 O 124.357 1.36479 -1.08255 0
M  V30 1281 C 121.489 2.59946 -2.20546 0
M  V30 1282 H 122.682 0.912626 -2.85677 0
M  V30 1283 H 120.235 0.43977 -1.49986 0
M  V30 1284 H 120.97 2.96696 -1.30927 0
M  V30 1285 H 120.755 2.49953 -3.02102 0
M  V30 1286 H 122.245 3.3431 -2.50253 0
M  V30 1287 N 122.682 1.50554 0.465978 0
M  V30 1288 C 123.614 1.65949 1.58093 0
M  V30 1289 C 124.627 0.540827 1.53554 0
M  V30 1290 O 125.816 0.814187 1.5885 0
M  V30 1291 C 122.916 1.63261 2.96983 0
M  V30 1292 C 122.089 2.91245 3.26336 0
M  V30 1293 C 121.148 2.8113 4.44806 0
M  V30 1294 O 120.174 3.55086 4.44862 0
M  V30 1295 N 121.376 1.95032 5.46756 0
M  V30 1296 H 124.141 2.62122 1.45301 0
M  V30 1297 H 121.702 1.48082 0.65448 0
M  V30 1298 H 123.694 1.54101 3.74212 0
M  V30 1299 H 122.264 0.748032 3.03518 0
M  V30 1300 H 121.484 3.14493 2.37672 0
M  V30 1301 H 122.772 3.76022 3.42761 0
M  V30 1302 H 122.17 1.3427 5.49534 0
M  V30 1303 H 120.727 1.91772 6.2295 0
M  V30 1304 N 124.16 -0.719506 1.40217 0
M  V30 1305 C 125.123 -1.8153 1.39927 0
M  V30 1306 C 126.123 -1.58095 0.293723 0
M  V30 1307 O 127.313 -1.65209 0.552429 0
M  V30 1308 C 124.445 -3.19561 1.18716 0
M  V30 1309 H 125.638 -1.83186 2.37451 0
M  V30 1310 H 123.191 -0.924746 1.26008 0
M  V30 1311 H 123.926 -3.23557 0.219366 0
M  V30 1312 H 123.711 -3.3797 1.98793 0
M  V30 1313 H 125.201 -3.99598 1.21291 0
M  V30 1314 N 125.638 -1.25649 -0.95132 0
M  V30 1315 C 126.568 -1.08808 -2.06599 0
M  V30 1316 C 127.549 0.00382547 -1.701 0
M  V30 1317 O 128.734 -0.166325 -1.93486 0
M  V30 1318 C 125.864 -0.709542 -3.39975 0
M  V30 1319 C 124.818 -1.75206 -3.90496 0
M  V30 1320 C 124.144 -1.22811 -5.20405 0
M  V30 1321 C 125.444 -3.15153 -4.16504 0
M  V30 1322 H 127.138 -2.02048 -2.20946 0
M  V30 1323 H 124.684 -0.972835 -1.06169 0
M  V30 1324 H 126.637 -0.578649 -4.17408 0
M  V30 1325 H 125.361 0.258556 -3.25575 0
M  V30 1326 H 124.02 -1.87145 -3.15234 0
M  V30 1327 H 123.668 -0.250145 -5.02378 0
M  V30 1328 H 123.368 -1.92492 -5.55176 0
M  V30 1329 H 124.892 -1.10968 -6.00432 0
M  V30 1330 H 126.306 -3.06349 -4.84586 0
M  V30 1331 H 124.703 -3.82333 -4.62538 0
M  V30 1332 H 125.773 -3.61966 -3.22658 0
M  V30 1333 N 127.117 1.15442 -1.07289 0
M  V30 1334 C 128.047 2.22312 -0.714107 0
M  V30 1335 C 129.028 1.67467 0.298155 0
M  V30 1336 O 130.213 1.93445 0.171048 0
M  V30 1337 C 127.343 3.47124 -0.110448 0
M  V30 1338 C 126.297 4.14926 -1.04979 0
M  V30 1339 C 125.623 5.33807 -0.308924 0
M  V30 1340 C 126.923 4.64762 -2.38314 0
M  V30 1341 H 128.617 2.5258 -1.6076 0
M  V30 1342 H 126.163 1.21404 -0.77441 0
M  V30 1343 H 128.116 4.21124 0.152482 0
M  V30 1344 H 126.84 3.16187 0.81812 0
M  V30 1345 H 125.499 3.42866 -1.29764 0
M  V30 1346 H 125.147 4.99126 0.623084 0
M  V30 1347 H 124.847 5.80113 -0.935036 0
M  V30 1348 H 126.371 6.10576 -0.0537771 0
M  V30 1349 H 127.785 5.30292 -2.1786 0
M  V30 1350 H 126.182 5.21728 -2.96514 0
M  V30 1351 H 127.252 3.80434 -3.00663 0
M  V30 1352 N 128.595 0.856903 1.32268 0
M  V30 1353 C 129.843 0.460474 1.96784 0
M  V30 1354 C 130.164 -0.987701 1.68135 0
M  V30 1355 O 129.434 -1.69058 0.989765 0
M  V30 1356 H 128.014 0.167289 0.728027 0
M  V30 1357 H 130.676 1.09383 1.61312 0
M  V30 1358 H 129.772 0.60739 3.06133 0
M  V30 1359 N 130.073 -1.45103 0.615059 0
M  V30 1360 C 131.036 -2.29025 -0.0895485 0
M  V30 1361 C 132.036 -1.40174 -0.787906 0
M  V30 1362 O 133.226 -1.62217 -0.634933 0
M  V30 1363 C 130.358 -3.21376 -1.13711 0
M  V30 1364 H 131.551 -2.92807 0.648382 0
M  V30 1365 H 129.104 -1.51749 0.374444 0
M  V30 1366 H 129.839 -2.6241 -1.90556 0
M  V30 1367 H 129.624 -3.86834 -0.640475 0
M  V30 1368 H 131.114 -3.84459 -1.63036 0
M  V30 1369 N 131.551 -0.354651 -1.53558 0
M  V30 1370 C 132.461 0.50515 -2.29097 0
M  V30 1371 C 133.477 1.10223 -1.34636 0
M  V30 1372 O 134.653 1.11553 -1.67684 0
M  V30 1373 C 131.718 1.63479 -3.05738 0
M  V30 1374 C 130.779 1.06636 -4.15845 0
M  V30 1375 C 130.012 2.14217 -4.88822 0
M  V30 1376 O 130.235 3.35137 -4.61562 0
M  V30 1377 O 129.169 1.77887 -5.75013 0
M  V30 1378 H 132.995 -0.109237 -3.03503 0
M  V30 1379 H 130.58 -0.119357 -1.48922 0
M  V30 1380 H 132.462 2.2918 -3.5363 0
M  V30 1381 H 131.137 2.23478 -2.34178 0
M  V30 1382 H 130.044 0.373565 -3.7223 0
M  V30 1383 H 131.377 0.511081 -4.89539 0
M  V30 1384 N 133.029 1.57378 -0.0835403 0
M  V30 1385 C 133.939 2.16897 0.894021 0
M  V30 1386 C 134.955 1.13528 1.31861 0
M  V30 1387 O 136.131 1.45848 1.3889 0
M  V30 1388 C 133.196 2.72831 2.13925 0
M  V30 1389 C 132.257 3.91115 1.76997 0
M  V30 1390 C 131.49 4.44371 2.95584 0
M  V30 1391 O 131.713 3.96596 4.09961 0
M  V30 1392 O 130.647 5.35549 2.74719 0
M  V30 1393 H 134.473 3.00814 0.417679 0
M  V30 1394 H 132.058 1.48741 0.140181 0
M  V30 1395 H 133.94 3.0863 2.86924 0
M  V30 1396 H 132.615 1.91967 2.60635 0
M  V30 1397 H 131.522 3.60148 1.01214 0
M  V30 1398 H 132.855 4.73307 1.3506 0
M  V30 1399 N 134.507 -0.190092 1.56449 0
M  V30 1400 C 135.747 -0.916414 1.82705 0
M  V30 1401 C 136.111 -1.80235 0.661763 0
M  V30 1402 O 137.312 -2.56484 0.80433 0
M  V30 1403 C 135.583 -1.70691 3.14005 0
M  V30 1404 S 137.142 -2.48457 3.61683 0
M  V30 1405 H 133.96 -0.307281 0.64117 0
M  V30 1406 H 136.562 -0.179433 1.94675 0
M  V30 1407 H 135.266 -1.04677 3.96826 0
M  V30 1408 H 134.797 -2.48562 3.04927 0
M  V30 1409 H 136.812 -3.72756 3.27517 0
M  V30 1410 N 135.985 -1.50799 -0.457987 0
M  V30 1411 C 136.932 -1.70617 -1.5543 0
M  V30 1412 C 137.902 -0.547562 -1.56815 0
M  V30 1413 O 139.087 -0.779647 -1.74144 0
M  V30 1414 C 136.227 -1.81831 -2.93311 0
M  V30 1415 C 135.34 -3.09278 -3.01615 0
M  V30 1416 C 134.475 -3.11209 -4.30491 0
M  V30 1417 C 133.514 -4.33055 -4.32585 0
M  V30 1418 N 132.651 -4.32652 -5.52952 0
M  V30 1419 H 137.491 -2.64207 -1.37836 0
M  V30 1420 H 135.028 -1.30959 -0.669937 0
M  V30 1421 H 136.986 -1.86314 -3.73287 0
M  V30 1422 H 135.616 -0.916685 -3.0951 0
M  V30 1423 H 134.668 -3.14203 -2.1443 0
M  V30 1424 H 135.98 -3.99233 -2.99022 0
M  V30 1425 H 135.134 -3.14494 -5.18824 0
M  V30 1426 H 133.873 -2.19106 -4.35711 0
M  V30 1427 H 132.878 -4.29969 -3.42647 0
M  V30 1428 H 134.103 -5.264 -4.29046 0
M  V30 1429 H 132.049 -3.43409 -5.58933 0
M  V30 1430 H 131.966 -5.16392 -5.52155 0
M  V30 1431 H 133.234 -4.40101 -6.43375 0
M  V30 1432 N 137.463 0.71206 -1.40597 0
M  V30 1433 C 138.709 1.47416 -1.39271 0
M  V30 1434 C 139.042 1.942 0.00388791 0
M  V30 1435 O 138.317 1.68403 0.973179 0
M  V30 1436 C 138.6 2.69774 -2.38525 0
M  V30 1437 C 138.453 2.28861 -3.87224 0
M  V30 1438 C 139.772 3.71939 -2.35264 0
M  V30 1439 H 136.891 0.534713 -0.5072 0
M  V30 1440 H 139.533 0.812375 -1.71757 0
M  V30 1441 H 137.683 3.26238 -2.10953 0
M  V30 1442 H 139.355 1.77852 -4.25636 0
M  V30 1443 H 137.598 1.60824 -4.02887 0
M  V30 1444 H 138.269 3.16584 -4.52193 0
M  V30 1445 H 140.745 3.25113 -2.59694 0
M  V30 1446 H 139.621 4.55186 -3.06753 0
M  V30 1447 H 139.882 4.20484 -1.36549 0
M  V30 1448 N 138.941 1.26152 0.944643 0
M  V30 1449 C 140.218 1.02247 1.66748 0
M  V30 1450 C 140.598 -0.448202 2.06287 0
M  V30 1451 O 139.946 -1.42779 1.78399 0
M  V30 1452 C 140.156 1.96788 2.88228 0
M  V30 1453 C 141.504 2.25201 3.59958 0
M  V30 1454 O 142.528 1.94626 2.98327 0
M  V30 1455 O 141.387 2.77242 4.70956 0
M  V30 1456 H 138.481 0.388517 0.730057 0
M  V30 1457 H 141.027 1.37348 0.99668 0
M  V30 1458 H 139.799 2.96047 2.55875 0
M  V30 1459 H 139.422 1.62145 3.63035 0
M  V30 1460 N 140.419 -1.14872 1.07899 0
M  V30 1461 C 141.668 -1.85135 0.800499 0
M  V30 1462 C 141.981 -1.83547 -0.676014 0
M  V30 1463 O 143.187 -2.49548 -1.06948 0
M  V30 1464 C 141.643 -3.3231 1.38197 0
M  V30 1465 C 141.251 -3.42329 2.8899 0
M  V30 1466 C 142.995 -4.0772 1.18174 0
M  V30 1467 C 140.902 -4.83684 3.403 0
M  V30 1468 H 139.832 -0.693563 0.29578 0
M  V30 1469 H 142.483 -1.29532 1.29976 0
M  V30 1470 H 140.865 -3.87618 0.810431 0
M  V30 1471 H 142.039 -2.97097 3.52236 0
M  V30 1472 H 140.354 -2.80369 3.07867 0
M  V30 1473 H 142.951 -5.12049 1.5398 0
M  V30 1474 H 143.294 -4.16124 0.12117 0
M  V30 1475 H 143.827 -3.58696 1.71994 0
M  V30 1476 H 140.566 -4.80465 4.45907 0
M  V30 1477 H 140.086 -5.29474 2.81811 0
M  V30 1478 H 141.765 -5.52558 3.36584 0
M  V30 1479 N 141.898 -0.863906 -1.31812 0
M  V30 1480 C 142.828 -0.330843 -2.31144 0
M  V30 1481 C 143.809 0.575005 -1.60087 0
M  V30 1482 O 144.994 0.493304 -1.8783 0
M  V30 1483 C 142.124 0.47374 -3.44054 0
M  V30 1484 C 141.078 -0.338481 -4.26659 0
M  V30 1485 C 140.404 0.591412 -5.31419 0
M  V30 1486 C 141.704 -1.56926 -4.98168 0
M  V30 1487 H 143.398 -1.16086 -2.75979 0
M  V30 1488 H 140.944 -0.559657 -1.32679 0
M  V30 1489 H 142.897 0.857143 -4.12591 0
M  V30 1490 H 141.621 1.33721 -2.9797 0
M  V30 1491 H 140.28 -0.703754 -3.59782 0
M  V30 1492 H 139.928 1.45199 -4.81587 0
M  V30 1493 H 139.628 0.0519022 -5.87577 0
M  V30 1494 H 141.152 0.97179 -6.02817 0
M  V30 1495 H 142.566 -1.25764 -5.59336 0
M  V30 1496 H 140.963 -2.04739 -5.64094 0
M  V30 1497 H 142.033 -2.32544 -4.25501 0
M  V30 1498 N 143.376 1.44774 -0.622745 0
M  V30 1499 C 144.606 2.06187 -0.130532 0
M  V30 1500 C 145.014 1.46547 1.19669 0
M  V30 1501 O 144.357 0.579636 1.74316 0
M  V30 1502 C 144.419 3.59437 0.0674983 0
M  V30 1503 C 144.083 4.41496 -1.18026 0
M  V30 1504 C 145.08 4.75512 -2.102 0
M  V30 1505 C 142.765 4.82007 -1.41333 0
M  V30 1506 C 144.759 5.48912 -3.23998 0
M  V30 1507 C 142.446 5.55157 -2.55429 0
M  V30 1508 C 143.444 5.88528 -3.46589 0
M  V30 1509 O 143.132 6.60191 -4.58697 0
M  V30 1510 H 142.864 0.672045 -0.0730162 0
M  V30 1511 H 145.418 1.86768 -0.854802 0
M  V30 1512 H 143.648 3.77314 0.846825 0
M  V30 1513 H 145.337 4.02642 0.513209 0
M  V30 1514 H 146.103 4.4476 -1.93425 0
M  V30 1515 H 141.982 4.55457 -0.712709 0
M  V30 1516 H 145.526 5.74877 -3.95174 0
M  V30 1517 H 141.423 5.85324 -2.72151 0
M  V30 1518 H 142.191 6.78654 -4.57571 0
M  V30 1519 N 144.854 0.36279 1.53368 0
M  V30 1520 C 146.084 -0.228281 2.05335 0
M  V30 1521 C 146.492 -1.43226 1.23625 0
M  V30 1522 O 145.835 -1.81717 0.269206 0
M  V30 1523 C 145.897 -0.688549 3.52845 0
M  V30 1524 C 145.561 0.398362 4.5526 0
M  V30 1525 C 146.558 1.24732 5.04716 0
M  V30 1526 C 144.243 0.557805 4.99193 0
M  V30 1527 C 146.237 2.2411 5.96702 0
M  V30 1528 C 143.924 1.55495 5.90986 0
M  V30 1529 C 144.922 2.39503 6.39631 0
M  V30 1530 O 144.61 3.37517 7.29615 0
M  V30 1531 H 144.342 -0.044395 0.674541 0
M  V30 1532 H 146.896 0.518668 1.98744 0
M  V30 1533 H 145.126 -1.48706 3.56964 0
M  V30 1534 H 146.815 -1.20231 3.87685 0
M  V30 1535 H 147.581 1.13532 4.71525 0
M  V30 1536 H 143.46 -0.0862959 4.60919 0
M  V30 1537 H 147.004 2.89718 6.34594 0
M  V30 1538 H 142.901 1.66744 6.23592 0
M  V30 1539 H 143.669 3.33213 7.47604 0
M  V30 1540 N 146.332 -1.57332 0.0918853 0
M  V30 1541 C 147.748 -1.57389 -0.264766 0
M  V30 1542 C 147.948 -1.10281 -1.68643 0
M  V30 1543 O 147.004 -0.777801 -2.40222 0
M  V30 1544 C 148.317 -3.00648 -0.0561195 0
M  V30 1545 C 149.865 -3.12754 -0.124116 0
M  V30 1546 C 150.34 -4.57965 0.0564972 0
M  V30 1547 N 151.831 -4.632 0.00155611 0
M  V30 1548 C 152.566 -5.73281 0.116598 0
M  V30 1549 N 152.062 -6.92208 0.286294 0
M  V30 1550 N 153.855 -5.6207 0.0580973 0
M  V30 1551 H 146.006 -1.86262 1.02079 0
M  V30 1552 H 148.269 -0.859579 0.399786 0
M  V30 1553 H 147.975 -3.393 0.925669 0
M  V30 1554 H 147.849 -3.68623 -0.799823 0
M  V30 1555 H 150.236 -2.73976 -1.09641 0
M  V30 1556 H 150.317 -2.47377 0.651024 0
M  V30 1557 H 149.961 -4.97436 1.02564 0
M  V30 1558 H 149.891 -5.21399 -0.738297 0
M  V30 1559 H 152.382 -3.77686 -0.127192 0
M  V30 1560 H 152.695 -7.71934 0.365676 0
M  V30 1561 H 151.04 -6.94254 0.32192 0
M  V30 1562 H 154.231 -4.68043 -0.0733204 0
M  V30 1563 H 154.404 -6.47824 0.151203 0
M  V30 1564 N 147.81 0.181792 -1.56548 0
M  V30 1565 C 148.757 1.22521 -1.95595 0
M  V30 1566 C 149.727 1.4454 -0.818373 0
M  V30 1567 O 150.912 1.57454 -1.07763 0
M  V30 1568 C 148.052 2.56193 -2.31212 0
M  V30 1569 C 147.165 2.41641 -3.58097 0
M  V30 1570 C 146.3 3.68108 -3.82975 0
M  V30 1571 C 145.339 3.48445 -5.03242 0
M  V30 1572 N 144.476 4.66956 -5.24306 0
M  V30 1573 H 149.316 0.885226 -2.84548 0
M  V30 1574 H 146.853 0.425718 -1.40805 0
M  V30 1575 H 148.811 3.34088 -2.49882 0
M  V30 1576 H 147.441 2.88208 -1.45382 0
M  V30 1577 H 146.493 1.54976 -3.474 0
M  V30 1578 H 147.805 2.23052 -4.46149 0
M  V30 1579 H 146.959 4.54441 -4.01956 0
M  V30 1580 H 145.698 3.89666 -2.93278 0
M  V30 1581 H 144.703 2.60499 -4.8417 0
M  V30 1582 H 145.928 3.2832 -5.9446 0
M  V30 1583 H 143.874 4.88752 -4.37559 0
M  V30 1584 H 143.791 4.51242 -6.06561 0
M  V30 1585 H 145.059 5.54602 -5.47756 0
M  V30 1586 N 149.288 1.51039 0.449983 0
M  V30 1587 C 150.565 1.53612 1.21089 0
M  V30 1588 C 150.945 0.292997 2.09057 0
M  V30 1589 O 150.293 -0.72259 2.16774 0
M  V30 1590 C 150.503 2.84337 2.0237 0
M  V30 1591 C 151.851 3.35807 2.59843 0
M  V30 1592 O 152.875 2.85802 2.12593 0
M  V30 1593 O 151.734 4.23029 3.45989 0
M  V30 1594 H 148.828 0.617057 0.550608 0
M  V30 1595 H 151.374 1.63344 0.460082 0
M  V30 1596 H 150.146 3.66278 1.37681 0
M  V30 1597 H 149.769 2.77708 2.84542 0
M  V30 1598 N 150.766 -0.704594 1.40972 0
M  V30 1599 C 151.729 -1.80035 1.41845 0
M  V30 1600 C 152.729 -1.57774 0.310474 0
M  V30 1601 O 153.919 -1.64613 0.56992 0
M  V30 1602 C 151.051 -3.18284 1.22098 0
M  V30 1603 H 152.244 -1.80658 2.3938 0
M  V30 1604 H 149.797 -0.911329 1.26982 0
M  V30 1605 H 150.532 -3.23306 0.253672 0
M  V30 1606 H 150.317 -3.35843 2.02366 0
M  V30 1607 H 151.807 -3.98289 1.25522 0
M  V30 1608 N 152.244 -1.26651 -0.937939 0
M  V30 1609 C 153.469 -1.15279 -1.72411 0
M  V30 1610 C 153.894 0.287866 -1.85884 0
M  V30 1611 O 153.252 1.20855 -1.35143 0
M  V30 1612 C 153.3 -1.83028 -3.10698 0
M  V30 1613 O 152.404 -1.12128 -3.96864 0
M  V30 1614 H 151.745 -0.401504 -0.528858 0
M  V30 1615 H 154.275 -1.67531 -1.1745 0
M  V30 1616 H 154.285 -1.89981 -3.6107 0
M  V30 1617 H 152.96 -2.87833 -3.00208 0
M  V30 1618 H 151.537 -1.13173 -3.55312 0
M  V30 1619 N 153.722 1.14298 -1.08507 0
M  V30 1620 C 154.947 1.8976 -0.837001 0
M  V30 1621 C 155.372 1.78097 0.605228 0
M  V30 1622 O 154.73 1.12188 1.4242 0
M  V30 1623 C 154.778 3.37685 -1.26495 0
M  V30 1624 O 153.882 4.10281 -0.417514 0
M  V30 1625 H 153.223 0.590365 -0.303917 0
M  V30 1626 H 155.753 1.44672 -1.44676 0
M  V30 1627 H 155.763 3.88501 -1.24625 0
M  V30 1628 H 154.438 3.45492 -2.31534 0
M  V30 1629 H 153.015 3.69536 -0.499722 0
M  V30 1630 N 155.201 0.870884 1.31352 0
M  V30 1631 C 156.448 0.482273 1.96673 0
M  V30 1632 C 156.776 -0.965638 1.68836 0
M  V30 1633 O 156.031 -1.69514 0.977937 0
M  V30 1634 C 156.33 0.687157 3.50732 0
M  V30 1635 C 155.996 2.108 3.9859 0
M  V30 1636 C 154.658 2.49656 4.1137 0
M  V30 1637 C 157.01 3.03459 4.23748 0
M  V30 1638 C 154.338 3.80412 4.46659 0
M  V30 1639 C 156.69 4.3373 4.60501 0
M  V30 1640 C 155.354 4.725 4.71487 0
M  V30 1641 H 154.624 0.176476 0.719679 0
M  V30 1642 H 157.271 1.10405 1.56471 0
M  V30 1643 H 155.576 -0.0177476 3.91796 0
M  V30 1644 H 157.273 0.366284 3.99324 0
M  V30 1645 H 153.863 1.79633 3.8914 0
M  V30 1646 H 158.047 2.74665 4.13368 0
M  V30 1647 H 153.303 4.1021 4.53362 0
M  V30 1648 H 157.477 5.05578 4.78919 0
M  V30 1649 H 155.104 5.73859 4.98588 0
M  V30 1650 N 156.679 -1.44442 0.630414 0
M  V30 1651 C 158.095 -1.56832 0.295973 0
M  V30 1652 C 158.295 -1.61806 -1.20088 0
M  V30 1653 O 157.351 -1.5607 -1.9849 0
M  V30 1654 C 158.664 -2.84031 0.987264 0
M  V30 1655 C 160.212 -2.97742 0.96534 0
M  V30 1656 C 160.687 -4.27743 1.63708 0
M  V30 1657 N 162.178 -4.34555 1.60364 0
M  V30 1658 C 162.913 -5.33862 2.09234 0
M  V30 1659 N 162.409 -6.39578 2.66292 0
M  V30 1660 N 164.202 -5.25366 1.99867 0
M  V30 1661 H 156.353 -1.39457 1.60205 0
M  V30 1662 H 158.616 -0.668237 0.672431 0
M  V30 1663 H 158.322 -2.86338 2.04215 0
M  V30 1664 H 158.196 -3.73534 0.524588 0
M  V30 1665 H 160.583 -2.94989 -0.0810639 0
M  V30 1666 H 160.664 -2.09589 1.4665 0
M  V30 1667 H 160.308 -4.31255 2.68293 0
M  V30 1668 H 160.238 -5.14752 1.11076 0
M  V30 1669 H 162.729 -3.58772 1.18705 0
M  V30 1670 H 163.042 -7.11637 3.01317 0
M  V30 1671 H 161.387 -6.40265 2.70343 0
M  V30 1672 H 164.578 -4.41688 1.55013 0
M  V30 1673 H 164.751 -6.02606 2.38265 0
M  V30 1674 N 158.157 -0.370918 -1.53173 0
M  V30 1675 C 159.397 0.217106 -2.03244 0
M  V30 1676 C 159.761 1.45558 -1.25207 0
M  V30 1677 O 160.962 2.11957 -1.65311 0
M  V30 1678 C 159.233 0.496664 -3.53932 0
M  V30 1679 S 160.792 1.0576 -4.25864 0
M  V30 1680 H 157.61 0.0627827 -0.708223 0
M  V30 1681 H 160.212 -0.515019 -1.88594 0
M  V30 1682 H 158.916 -0.412096 -4.08326 0
M  V30 1683 H 158.447 1.25772 -3.72753 0
M  V30 1684 H 160.462 2.34145 -4.37482 0
M  V30 1685 N 159.635 1.57281 -0.100228 0
M  V30 1686 C 160.565 2.17328 0.853857 0
M  V30 1687 C 161.546 1.10804 1.2906 0
M  V30 1688 O 162.731 1.38963 1.35657 0
M  V30 1689 C 159.861 2.75772 2.11109 0
M  V30 1690 C 158.815 3.87713 1.81279 0
M  V30 1691 C 158.141 4.32882 3.13874 0
M  V30 1692 C 159.441 5.10677 1.09574 0
M  V30 1693 H 161.135 2.97305 0.353545 0
M  V30 1694 H 158.681 1.43009 0.168612 0
M  V30 1695 H 160.634 3.16433 2.78296 0
M  V30 1696 H 159.358 1.93057 2.63432 0
M  V30 1697 H 158.017 3.476 1.16489 0
M  V30 1698 H 157.665 3.47051 3.64095 0
M  V30 1699 H 157.365 5.08358 2.94696 0
M  V30 1700 H 158.889 4.7618 3.82211 0
M  V30 1701 H 160.303 5.48474 1.66879 0
M  V30 1702 H 158.7 5.91615 1.00557 0
M  V30 1703 H 159.77 4.84835 0.0793299 0
M  V30 1704 N 161.113 -0.173488 1.56642 0
M  V30 1705 C 162.359 -0.891784 1.8214 0
M  V30 1706 C 162.692 -1.8199 0.677736 0
M  V30 1707 O 161.967 -1.91842 -0.320446 0
M  V30 1708 C 162.25 -1.68933 3.18015 0
M  V30 1709 C 162.103 -0.784487 4.42906 0
M  V30 1710 C 163.422 -2.65748 3.50808 0
M  V30 1711 H 160.541 -0.322761 0.662567 0
M  V30 1712 H 163.183 -0.158095 1.89341 0
M  V30 1713 H 161.333 -2.31482 3.12007 0
M  V30 1714 H 163.005 -0.172046 4.60979 0
M  V30 1715 H 161.248 -0.0924117 4.33702 0
M  V30 1716 H 161.919 -1.37799 5.34524 0
M  V30 1717 H 164.395 -2.13327 3.57255 0
M  V30 1718 H 163.271 -3.18619 4.4696 0
M  V30 1719 H 163.532 -3.45842 2.75401 0
M  V30 1720 N 162.591 -1.51276 -0.441967 0
M  V30 1721 C 163.868 -1.54252 -1.20273 0
M  V30 1722 C 164.248 -0.30408 -2.08898 0
M  V30 1723 O 163.596 0.711084 -2.17154 0
M  V30 1724 C 163.806 -2.85406 -2.00859 0
M  V30 1725 C 165.154 -3.37181 -2.58059 0
M  V30 1726 O 166.178 -2.86925 -2.11074 0
M  V30 1727 O 165.037 -4.24858 -3.43741 0
M  V30 1728 H 162.131 -0.619969 -0.547328 0
M  V30 1729 H 164.677 -1.63586 -0.451413 0
M  V30 1730 H 163.449 -3.67003 -1.35736 0
M  V30 1731 H 163.072 -2.79213 -2.83065 0
M  V30 1732 N 164.069 0.697108 -1.41344 0
M  V30 1733 C 165.315 1.4593 -1.40827 0
M  V30 1734 C 165.648 1.94193 -0.0167098 0
M  V30 1735 O 164.923 1.69425 0.955263 0
M  V30 1736 C 165.206 2.67229 -2.41373 0
M  V30 1737 C 165.059 2.24741 -3.8963 0
M  V30 1738 C 166.378 3.69423 -2.39196 0
M  V30 1739 H 163.497 0.529303 -0.512842 0
M  V30 1740 H 166.139 0.794112 -1.72609 0
M  V30 1741 H 164.289 3.23982 -2.14401 0
M  V30 1742 H 165.961 1.73327 -4.27499 0
M  V30 1743 H 164.204 1.56542 -4.0457 0
M  V30 1744 H 164.875 3.1177 -4.55525 0
M  V30 1745 H 167.351 3.2234 -2.63128 0
M  V30 1746 H 166.227 4.51907 -3.11563 0
M  V30 1747 H 166.488 4.19012 -1.41001 0
M  V30 1748 N 165.547 1.27147 0.931209 0
M  V30 1749 C 166.793 1.13446 1.68101 0
M  V30 1750 C 167.126 -0.319628 1.91552 0
M  V30 1751 O 166.401 -1.23407 1.50336 0
M  V30 1752 C 166.684 1.91482 3.0497 0
M  V30 1753 C 166.537 3.44855 2.88782 0
M  V30 1754 C 167.856 1.71651 4.05246 0
M  V30 1755 H 164.975 0.413498 0.610072 0
M  V30 1756 H 167.617 1.56261 1.08086 0
M  V30 1757 H 165.767 1.55095 3.56199 0
M  V30 1758 H 167.439 3.9105 2.44698 0
M  V30 1759 H 165.682 3.71373 2.24198 0
M  V30 1760 H 166.353 3.94694 3.85902 0
M  V30 1761 H 168.829 2.0337 3.63015 0
M  V30 1762 H 167.705 2.28651 4.99009 0
M  V30 1763 H 167.966 0.663555 4.37092 0
M  V30 1764 N 167.025 -1.13721 1.09112 0
M  V30 1765 C 168.436 -1.6648 0.845068 0
M  V30 1766 C 168.787 -1.85911 -0.62701 0
M  V30 1767 O 167.912 -1.57556 -1.48341 0
M  V30 1768 C 168.507 -3.02413 1.52748 0
M  V30 1769 C 167.066 -3.52176 1.32849 0
M  V30 1770 C 166.213 -2.27492 1.58564 0
M  V30 1771 H 169.164 -0.976872 1.25072 0
M  V30 1772 H 169.185 -3.68223 0.958752 0
M  V30 1773 H 168.697 -2.88238 2.59885 0
M  V30 1774 H 166.798 -3.7156 0.278137 0
M  V30 1775 H 166.911 -4.32499 2.0611 0
M  V30 1776 H 165.275 -2.33923 1.00758 0
M  V30 1777 H 166.058 -2.15886 2.66924 0
M  V30 1778 N 168.503 -0.877838 -1.30888 0
M  V30 1779 C 169.749 -0.493426 -1.96706 0
M  V30 1780 C 170.082 0.953504 -1.6918 0
M  V30 1781 O 169.357 1.67266 -0.992594 0
M  V30 1782 C 169.64 -0.760429 -3.51979 0
M  V30 1783 C 169.493 -2.25747 -3.89048 0
M  V30 1784 C 170.812 -0.232148 -4.39487 0
M  V30 1785 H 167.931 -0.180746 -0.714493 0
M  V30 1786 H 170.573 -1.10052 -1.54882 0
M  V30 1787 H 168.723 -0.243715 -3.87735 0
M  V30 1788 H 170.395 -2.84204 -3.63354 0
M  V30 1789 H 168.638 -2.72694 -3.37373 0
M  V30 1790 H 169.309 -2.39491 -4.97341 0
M  V30 1791 H 171.785 -0.674314 -4.106 0
M  V30 1792 H 170.661 -0.448355 -5.47066 0
M  V30 1793 H 170.922 0.866297 -4.33529 0
M  V30 1794 N 169.982 1.44106 -0.638065 0
M  V30 1795 C 170.929 2.30715 0.062701 0
M  V30 1796 C 171.899 1.43882 0.829883 0
M  V30 1797 O 173.084 1.72775 0.809532 0
M  V30 1798 C 170.224 3.29258 1.03358 0
M  V30 1799 C 169.337 4.31192 0.26409 0
M  V30 1800 C 168.472 5.16825 1.22741 0
M  V30 1801 C 167.511 6.10462 0.447475 0
M  V30 1802 N 166.648 6.8877 1.36161 0
M  V30 1803 H 171.488 2.90096 -0.681781 0
M  V30 1804 H 169.025 1.42925 -0.347988 0
M  V30 1805 H 170.983 3.84886 1.60992 0
M  V30 1806 H 169.613 2.71562 1.74511 0
M  V30 1807 H 168.665 3.77981 -0.428295 0
M  V30 1808 H 169.977 4.97619 -0.343052 0
M  V30 1809 H 169.131 5.77004 1.87487 0
M  V30 1810 H 167.87 4.50488 1.86847 0
M  V30 1811 H 166.875 5.49386 -0.213433 0
M  V30 1812 H 168.1 6.78837 -0.188968 0
M  V30 1813 H 166.046 6.25096 1.98975 0
M  V30 1814 H 165.963 7.51663 0.808656 0
M  V30 1815 H 167.231 7.53467 1.99769 0
M  V30 1816 N 171.46 0.379036 1.52974 0
M  V30 1817 C 172.408 -0.476033 2.27677 0
M  V30 1818 C 173.402 -1.0719 1.31174 0
M  V30 1819 O 174.608 -1.01355 1.48752 0
M  V30 1820 H 170.983 -0.172255 0.732006 0
M  V30 1821 H 172.954 0.175615 2.97883 0
M  V30 1822 C 171.703 -1.5967 3.0887 0
M  V30 1823 H 171.026 -1.1475 3.82978 0
M  V30 1824 H 172.466 -2.16943 3.64296 0
M  V30 1825 C 170.925 -2.54682 2.20542 0
M  V30 1826 O 171.455 -3.57836 1.82527 0
M  V30 1827 N 169.661 -2.24183 1.84907 0
M  V30 1828 H 169.208 -1.40333 2.1602 0
M  V30 1829 H 169.166 -2.88006 1.26096 0
M  V30 1830 N 172.938 -1.57226 0.108567 0
M  V30 1831 C 173.848 -2.18292 -0.859401 0
M  V30 1832 C 174.864 -1.15612 -1.30038 0
M  V30 1833 O 176.04 -1.48039 -1.36552 0
M  V30 1834 C 173.105 -2.762 -2.09558 0
M  V30 1835 C 172.166 -3.93881 -1.70752 0
M  V30 1836 C 171.399 -4.49018 -2.88477 0
M  V30 1837 O 171.622 -4.03068 -4.036 0
M  V30 1838 O 170.556 -5.39852 -2.66164 0
M  V30 1839 H 174.382 -3.01441 -0.369769 0
M  V30 1840 H 171.967 -1.48945 -0.1165 0
M  V30 1841 H 173.849 -3.13156 -2.81978 0
M  V30 1842 H 172.524 -1.96089 -2.57548 0
M  V30 1843 H 171.431 -3.61713 -0.954714 0
M  V30 1844 H 172.764 -4.75396 -1.27513 0
M  V30 1845 N 174.416 0.165178 -1.56732 0
M  V30 1846 C 175.693 0.908443 -1.73224 0
M  V30 1847 C 176.073 2.0013 -0.67165 0
M  V30 1848 O 175.421 2.26353 0.31253 0
M  V30 1849 C 175.631 1.46756 -3.16644 0
M  V30 1850 C 176.979 1.93809 -3.77787 0
M  V30 1851 O 178.003 1.56537 -3.1996 0
M  V30 1852 O 176.862 2.62486 -4.79336 0
M  V30 1853 H 173.956 0.428025 -0.707618 0
M  V30 1854 H 176.502 0.152526 -1.69013 0
M  V30 1855 H 175.274 0.68129 -3.85323 0
M  V30 1856 H 174.897 2.28749 -3.25207 0
M  V30 1857 N 175.894 1.51508 0.433938 0
M  V30 1858 C 177.142 1.6402 1.18075 0
M  V30 1859 C 177.463 0.360328 1.91642 0
M  V30 1860 O 176.733 -0.623945 1.85698 0
M  V30 1861 H 175.313 0.6045 0.43885 0
M  V30 1862 H 177.975 1.88452 0.497178 0
M  V30 1863 H 177.071 2.46949 1.90847 0
M  V30 1864 N 177.372 -0.689602 1.41712 0
M  V30 1865 C 178.335 -1.78521 1.43746 0
M  V30 1866 C 179.335 -1.57436 0.327191 0
M  V30 1867 O 180.525 -1.64 0.587348 0
M  V30 1868 C 177.657 -3.16971 1.25467 0
M  V30 1869 H 178.85 -1.78108 2.41283 0
M  V30 1870 H 176.403 -0.89781 1.27942 0
M  V30 1871 H 177.138 -3.23019 0.287948 0
M  V30 1872 H 176.923 -3.33678 2.05917 0
M  V30 1873 H 178.413 -3.96935 1.2974 0
M  V30 1874 N 178.85 -1.27639 -0.924453 0
M  V30 1875 C 180.096 -1.14336 -1.67497 0
M  V30 1876 C 180.429 0.309465 -1.91718 0
M  V30 1877 O 179.704 1.22608 -1.50989 0
M  V30 1878 C 179.987 -1.93096 -3.0395 0
M  V30 1879 C 179.84 -3.46381 -2.8695 0
M  V30 1880 C 181.159 -1.73798 -4.0433 0
M  V30 1881 H 178.278 -0.416728 -0.607871 0
M  V30 1882 H 180.92 -1.56832 -1.07256 0
M  V30 1883 H 179.07 -1.56982 -3.55372 0
M  V30 1884 H 180.742 -3.92343 -2.42621 0
M  V30 1885 H 178.985 -3.72557 -2.22225 0
M  V30 1886 H 179.656 -3.96735 -3.83804 0
M  V30 1887 H 182.132 -2.05293 -3.61931 0
M  V30 1888 H 181.008 -2.31294 -4.97789 0
M  V30 1889 H 181.269 -0.686725 -4.36734 0
M  V30 1890 N 180.328 1.1314 -1.09713 0
M  V30 1891 C 181.577 1.83838 -0.829851 0
M  V30 1892 C 181.89 1.84599 0.646728 0
M  V30 1893 O 183.096 2.51218 1.02965 0
M  V30 1894 C 181.552 3.30069 -1.43466 0
M  V30 1895 C 181.16 3.37688 -2.94399 0
M  V30 1896 C 182.904 4.05788 -1.24645 0
M  V30 1897 C 180.811 4.78209 -3.47952 0
M  V30 1898 H 179.741 0.68877 -0.306777 0
M  V30 1899 H 182.392 1.27448 -1.3202 0
M  V30 1900 H 180.774 3.8628 -0.871996 0
M  V30 1901 H 181.948 2.91456 -3.56918 0
M  V30 1902 H 180.263 2.75436 -3.12289 0
M  V30 1903 H 182.86 5.09535 -1.62107 0
M  V30 1904 H 183.203 4.15878 -0.187357 0
M  V30 1905 H 183.736 3.55915 -1.77678 0
M  V30 1906 H 180.475 4.73311 -4.53495 0
M  V30 1907 H 179.995 5.24924 -2.90198 0
M  V30 1908 H 181.674 5.47133 -3.45332 0
M  V30 1909 N 181.806 0.884767 1.30421 0
M  V30 1910 C 182.739 0.295999 2.26272 0
M  V30 1911 C 183.717 -0.58332 1.51777 0
M  V30 1912 O 184.901 -0.53346 1.80794 0
M  V30 1913 C 182.028 -0.57944 3.33707 0
M  V30 1914 C 181.074 0.230525 4.25877 0
M  V30 1915 S 181.907 1.61867 5.1045 0
M  V30 1916 C 183.063 0.749756 6.21393 0
M  V30 1917 H 183.296 1.10848 2.75862 0
M  V30 1918 H 180.829 0.684178 1.38414 0
M  V30 1919 H 182.787 -1.07879 3.96071 0
M  V30 1920 H 181.448 -1.36601 2.82841 0
M  V30 1921 H 180.641 -0.437542 5.02097 0
M  V30 1922 H 180.243 0.662493 3.68086 0
M  V30 1923 H 182.535 -0.0333547 6.77492 0
M  V30 1924 H 183.478 1.48356 6.92384 0
M  V30 1925 H 183.886 0.310751 5.63644 0
M  V30 1926 N 183.284 -1.43765 0.645699 0
M  V30 1927 C 184.531 -2.01898 0.15604 0
M  V30 1928 C 184.859 -1.50887 -1.22733 0
M  V30 1929 O 184.114 -0.689271 -1.8316 0
M  V30 1930 C 184.413 -3.57238 0.107679 0
M  V30 1931 C 184.079 -4.27564 1.43178 0
M  V30 1932 C 182.741 -4.46492 1.7944 0
M  V30 1933 C 185.093 -4.67454 2.30513 0
M  V30 1934 C 182.421 -5.02573 3.02716 0
M  V30 1935 C 184.773 -5.24901 3.53074 0
M  V30 1936 C 183.437 -5.42046 3.89541 0
M  V30 1937 H 182.707 -0.738797 0.057099 0
M  V30 1938 H 185.354 -1.72341 0.834912 0
M  V30 1939 H 183.659 -3.86293 -0.654618 0
M  V30 1940 H 185.356 -3.99965 -0.287938 0
M  V30 1941 H 181.946 -4.13171 1.13963 0
M  V30 1942 H 186.13 -4.5253 2.0379 0
M  V30 1943 H 181.386 -5.14033 3.31028 0
M  V30 1944 H 185.56 -5.54758 4.20971 0
M  V30 1945 H 183.187 -5.85268 4.85145 0
M  V30 1946 N 184.763 -0.387143 -1.52771 0
M  V30 1947 C 186.012 0.19697 -2.00736 0
M  V30 1948 C 186.325 1.48082 -1.27793 0
M  V30 1949 O 187.531 2.14485 -1.66458 0
M  V30 1950 C 185.987 0.401568 -3.57653 0
M  V30 1951 C 185.595 -0.868907 -4.39493 0
M  V30 1952 C 187.339 0.942164 -4.13912 0
M  V30 1953 C 185.246 -0.632705 -5.88006 0
M  V30 1954 H 184.176 0.0773827 -0.750019 0
M  V30 1955 H 186.827 -0.50921 -1.76293 0
M  V30 1956 H 185.209 1.16954 -3.78335 0
M  V30 1957 H 186.383 -1.64133 -4.30577 0
M  V30 1958 H 184.698 -1.33429 -3.94443 0
M  V30 1959 H 187.295 1.13455 -5.22525 0
M  V30 1960 H 187.638 1.9106 -3.69867 0
M  V30 1961 H 188.171 0.233814 -3.97112 0
M  V30 1962 H 184.91 -1.57208 -6.36369 0
M  V30 1963 H 184.43 0.100825 -5.99715 0
M  V30 1964 H 186.109 -0.26642 -6.46451 0
M  V30 1965 N 186.241 1.57166 -0.116904 0
M  V30 1966 C 187.171 2.18222 0.830759 0
M  V30 1967 C 188.152 1.12167 1.27877 0
M  V30 1968 O 189.337 1.40394 1.34176 0
M  V30 1969 C 186.467 2.77996 2.08172 0
M  V30 1970 C 185.421 3.89614 1.77157 0
M  V30 1971 C 184.747 4.36187 3.09265 0
M  V30 1972 C 186.047 5.1181 1.04151 0
M  V30 1973 H 187.741 2.97664 0.321992 0
M  V30 1974 H 185.287 1.4318 0.153434 0
M  V30 1975 H 187.24 3.19366 2.74924 0
M  V30 1976 H 185.964 1.9584 2.6137 0
M  V30 1977 H 184.623 3.48816 1.12796 0
M  V30 1978 H 184.271 3.50893 3.60393 0
M  V30 1979 H 183.971 5.11455 2.89288 0
M  V30 1980 H 185.495 4.80207 3.77139 0
M  V30 1981 H 186.909 5.50214 1.61052 0
M  V30 1982 H 185.306 5.92648 0.942762 0
M  V30 1983 H 186.376 4.84892 0.0279022 0
M  V30 1984 N 187.719 -0.156864 1.56817 0
M  V30 1985 C 188.667 -1.21319 1.98455 0
M  V30 1986 C 189.661 -1.45025 0.875444 0
M  V30 1987 O 190.867 -1.45435 1.0606 0
M  V30 1988 H 187.242 -0.408142 0.631605 0
M  V30 1989 H 189.213 -0.835244 2.86472 0
M  V30 1990 C 187.962 -2.54148 2.37285 0
M  V30 1991 H 187.285 -2.36733 3.22176 0
M  V30 1992 H 188.725 -3.26712 2.70251 0
M  V30 1993 C 187.184 -3.13967 1.22173 0
M  V30 1994 O 187.714 -3.98357 0.517149 0
M  V30 1995 N 185.92 -2.7327 0.988536 0
M  V30 1996 H 185.467 -2.04744 1.56326 0
M  V30 1997 H 185.425 -3.13628 0.220209 0
M  V30 1998 N 189.197 -1.51736 -0.425897 0
M  V30 1999 C 190.444 -1.6497 -1.17436 0
M  V30 2000 C 190.772 -0.371445 -1.9092 0
M  V30 2001 O 190.027 0.644963 -1.84767 0
M  V30 2002 C 190.326 -2.81103 -2.20717 0
M  V30 2003 C 189.992 -4.19954 -1.64162 0
M  V30 2004 C 188.654 -4.57725 -1.48462 0
M  V30 2005 C 191.006 -5.06552 -1.22696 0
M  V30 2006 C 188.334 -5.79789 -0.897873 0
M  V30 2007 C 190.686 -6.29205 -0.654464 0
M  V30 2008 C 189.35 -6.6574 -0.484456 0
M  V30 2009 H 188.62 -0.603668 -0.429727 0
M  V30 2010 H 191.267 -1.85798 -0.463829 0
M  V30 2011 H 189.572 -2.54542 -2.97852 0
M  V30 2012 H 191.269 -2.8854 -2.78471 0
M  V30 2013 H 187.859 -3.90181 -1.77361 0
M  V30 2014 H 192.043 -4.77968 -1.33642 0
M  V30 2015 H 187.299 -6.06733 -0.75402 0
M  V30 2016 H 191.473 -6.95643 -0.324694 0
M  V30 2017 H 189.1 -7.60195 -0.0276833 0
M  V30 2018 N 190.675 0.682077 -1.42076 0
M  V30 2019 C 191.585 1.82535 -1.47371 0
M  V30 2020 C 192.601 1.7017 -0.363079 0
M  V30 2021 O 193.777 1.91848 -0.612875 0
M  V30 2022 C 190.842 3.18624 -1.36674 0
M  V30 2023 C 189.903 3.42999 -2.58167 0
M  V30 2024 C 189.136 4.72595 -2.4797 0
M  V30 2025 O 189.359 5.50006 -1.5116 0
M  V30 2026 O 188.293 4.98054 -3.37974 0
M  V30 2027 H 192.119 1.81023 -2.43853 0
M  V30 2028 H 189.704 0.836887 -1.2376 0
M  V30 2029 H 191.586 3.99847 -1.33043 0
M  V30 2030 H 190.261 3.20789 -0.433138 0
M  V30 2031 H 189.168 2.61653 -2.67373 0
M  V30 2032 H 190.501 3.45659 -3.50401 0
M  V30 2033 N 192.153 1.28127 0.917671 0
M  V30 2034 C 193.43 1.05761 1.64542 0
M  V30 2035 C 193.81 -0.404344 2.07191 0
M  V30 2036 O 193.158 -1.38963 1.81388 0
M  V30 2037 C 193.368 2.02857 2.83989 0
M  V30 2038 C 194.716 2.32786 3.551 0
M  V30 2039 O 195.74 2.0091 2.94132 0
M  V30 2040 O 194.599 2.87169 4.64969 0
M  V30 2041 H 191.693 0.403916 0.721652 0
M  V30 2042 H 194.239 1.39431 0.967322 0
M  V30 2043 H 193.011 3.01407 2.49538 0
M  V30 2044 H 192.634 1.69809 3.59514 0
M  V30 2045 N 193.631 -1.12557 1.10312 0
M  V30 2046 C 194.561 -2.20341 0.772798 0
M  V30 2047 C 195.542 -1.68198 -0.25365 0
M  V30 2048 O 196.727 -1.93831 -0.119699 0
M  V30 2049 C 193.857 -3.46709 0.202443 0
M  V30 2050 C 192.811 -4.11996 1.15943 0
M  V30 2051 C 192.137 -5.328 0.450345 0
M  V30 2052 C 193.437 -4.5828 2.50552 0
M  V30 2053 H 195.131 -2.48229 1.674 0
M  V30 2054 H 192.677 -1.19308 0.806326 0
M  V30 2055 H 194.63 -4.2138 -0.0407752 0
M  V30 2056 H 193.354 -3.18245 -0.734001 0
M  V30 2057 H 192.013 -3.39305 1.38808 0
M  V30 2058 H 191.661 -5.00602 -0.490531 0
M  V30 2059 H 191.361 -5.7743 1.08851 0
M  V30 2060 H 192.885 -6.10219 0.215642 0
M  V30 2061 H 194.299 -5.2433 2.31843 0
M  V30 2062 H 192.696 -5.13683 3.10242 0
M  V30 2063 H 193.766 -3.72329 3.10643 0
M  V30 2064 N 195.109 -0.891671 -1.2995 0
M  V30 2065 C 196.072 -0.36828 -2.26222 0
M  V30 2066 C 197.072 0.493014 -1.53056 0
M  V30 2067 O 198.262 0.299213 -1.71611 0
M  V30 2068 C 195.394 0.47442 -3.37583 0
M  V30 2069 H 196.587 -1.21844 -2.74033 0
M  V30 2070 H 194.14 -0.669107 -1.41254 0
M  V30 2071 H 194.875 1.34489 -2.95099 0
M  V30 2072 H 194.66 -0.142615 -3.91841 0
M  V30 2073 H 196.15 0.83218 -4.09224 0
M  V30 2074 N 196.587 1.43421 -0.653314 0
M  V30 2075 C 197.519 2.29071 0.0769134 0
M  V30 2076 C 198.532 1.42513 0.787017 0
M  V30 2077 O 199.721 1.66449 0.644757 0
M  V30 2078 C 196.821 3.19436 1.13199 0
M  V30 2079 C 195.994 4.34533 0.500006 0
M  V30 2080 C 195.053 5.05771 1.45198 0
M  V30 2081 O 194.079 5.61037 0.960538 0
M  V30 2082 N 195.281 5.0928 2.78594 0
M  V30 2083 H 198.046 2.92382 -0.658235 0
M  V30 2084 H 195.607 1.54112 -0.496104 0
M  V30 2085 H 197.599 3.63958 1.76964 0
M  V30 2086 H 196.169 2.57724 1.7691 0
M  V30 2087 H 195.389 3.92925 -0.316738 0
M  V30 2088 H 196.677 5.08766 0.0588345 0
M  V30 2089 H 196.075 4.65751 3.2108 0
M  V30 2090 H 194.632 5.57519 3.37662 0
M  V30 2091 N 198.065 0.39524 1.52563 0
M  V30 2092 C 198.995 -0.428384 2.29537 0
M  V30 2093 C 199.976 -1.05831 1.33169 0
M  V30 2094 O 201.161 -1.06995 1.62067 0
M  V30 2095 C 198.291 -1.55274 3.10656 0
M  V30 2096 C 197.245 -1.04855 4.14957 0
M  V30 2097 C 196.571 -2.26543 4.84337 0
M  V30 2098 C 197.871 -0.112324 5.22179 0
M  V30 2099 H 199.565 0.213867 2.98635 0
M  V30 2100 H 197.111 0.104298 1.43622 0
M  V30 2101 H 199.064 -2.1358 3.63265 0
M  V30 2102 H 197.788 -2.22266 2.39302 0
M  V30 2103 H 196.447 -0.487985 3.63338 0
M  V30 2104 H 196.095 -2.92059 4.09525 0
M  V30 2105 H 195.795 -1.93466 5.54837 0
M  V30 2106 H 197.319 -2.85481 5.39753 0
M  V30 2107 H 198.733 -0.603752 5.70112 0
M  V30 2108 H 197.13 0.128968 5.99961 0
M  V30 2109 H 198.2 0.837052 4.77621 0
M  V30 2110 N 199.544 -1.57102 0.125237 0
M  V30 2111 C 200.474 -2.18659 -0.819174 0
M  V30 2112 C 201.455 -1.12843 -1.27281 0
M  V30 2113 O 202.64 -1.41104 -1.33429 0
M  V30 2114 C 199.77 -2.79096 -2.06695 0
M  V30 2115 C 198.724 -3.90548 -1.75088 0
M  V30 2116 C 198.05 -4.37821 -3.06948 0
M  V30 2117 C 199.35 -5.12356 -1.01435 0
M  V30 2118 H 201.044 -2.9783 -0.306202 0
M  V30 2119 H 198.59 -1.4326 -0.145839 0
M  V30 2120 H 200.543 -3.2082 -2.73226 0
M  V30 2121 H 199.267 -1.97223 -2.60328 0
M  V30 2122 H 197.926 -3.49409 -1.10944 0
M  V30 2123 H 197.574 -3.52799 -3.58527 0
M  V30 2124 H 197.274 -5.12982 -2.86571 0
M  V30 2125 H 198.798 -4.822 -3.74587 0
M  V30 2126 H 200.212 -5.5106 -1.58132 0
M  V30 2127 H 198.609 -5.9314 -0.911319 0
M  V30 2128 H 199.679 -4.849 -0.00218681 0
M  V30 2129 N 201.022 0.148545 -1.56898 0
M  V30 2130 C 201.985 1.16736 -1.97244 0
M  V30 2131 C 202.985 1.35947 -0.858777 0
M  V30 2132 O 204.175 1.32966 -1.12542 0
M  V30 2133 C 201.307 2.52798 -2.28705 0
M  V30 2134 H 202.5 0.821279 -2.88435 0
M  V30 2135 H 200.053 0.391831 -1.51309 0
M  V30 2136 H 200.788 2.92381 -1.403 0
M  V30 2137 H 200.573 2.40216 -3.09901 0
M  V30 2138 H 202.063 3.26179 -2.60762 0
M  V30 2139 N 202.5 1.5196 0.417844 0
M  V30 2140 C 203.447 1.74678 1.50852 0
M  V30 2141 C 204.417 0.588947 1.55308 0
M  V30 2142 O 205.602 0.825544 1.72016 0
M  V30 2143 C 202.742 1.89544 2.88387 0
M  V30 2144 C 201.855 3.17166 2.93309 0
M  V30 2145 C 200.99 3.22513 4.22088 0
M  V30 2146 C 200.029 4.44372 4.20951 0
M  V30 2147 N 199.166 4.47161 5.41287 0
M  V30 2148 H 204.006 2.67768 1.30783 0
M  V30 2149 H 201.543 1.32689 0.63498 0
M  V30 2150 H 203.501 1.96146 3.68216 0
M  V30 2151 H 202.131 0.998424 3.06971 0
M  V30 2152 H 201.183 3.19778 2.06024 0
M  V30 2153 H 202.495 4.07021 2.88332 0
M  V30 2154 H 201.649 3.28139 5.10303 0
M  V30 2155 H 200.388 2.30581 4.29748 0
M  V30 2156 H 199.393 4.38902 3.31127 0
M  V30 2157 H 200.618 5.3759 4.14938 0
M  V30 2158 H 198.564 3.58108 5.49632 0
M  V30 2159 H 198.481 5.3085 5.3827 0
M  V30 2160 H 199.749 4.57005 6.3148 0
M  V30 2161 N 203.978 -0.674533 1.42435 0
M  V30 2162 C 205.218 -1.4466 1.44405 0
M  V30 2163 C 205.582 -1.91911 0.0585784 0
M  V30 2164 O 206.783 -2.68759 -0.0469991 0
M  V30 2165 C 205.054 -2.61136 2.44013 0
M  V30 2166 S 206.613 -3.49981 2.64687 0
M  V30 2167 H 203.431 -0.494074 0.511284 0
M  V30 2168 H 206.033 -0.785162 1.7904 0
M  V30 2169 H 204.737 -2.24662 3.43446 0
M  V30 2170 H 204.268 -3.32153 2.10803 0
M  V30 2171 H 206.283 -4.57124 1.93007 0
M  V30 2172 N 205.456 -1.28612 -0.910864 0
M  V30 2173 C 206.681 -1.1891 -1.69927 0
M  V30 2174 C 207.106 0.248372 -1.86453 0
M  V30 2175 O 206.464 1.17961 -1.37676 0
M  V30 2176 C 206.512 -1.89578 -3.06745 0
M  V30 2177 O 205.616 -1.20521 -3.94396 0
M  V30 2178 H 204.957 -0.412632 -0.520222 0
M  V30 2179 H 207.487 -1.69985 -1.1387 0
M  V30 2180 H 207.497 -1.97597 -3.56958 0
M  V30 2181 H 206.172 -2.94136 -2.94035 0
M  V30 2182 H 204.749 -1.20684 -3.52831 0
M  V30 2183 N 206.934 1.1197 -1.10907 0
M  V30 2184 C 208.159 1.87942 -0.877064 0
M  V30 2185 C 208.584 1.79341 0.567314 0
M  V30 2186 O 207.942 1.15184 1.40009 0
M  V30 2187 C 207.99 3.34926 -1.33629 0
M  V30 2188 O 207.094 4.09303 -0.504447 0
M  V30 2189 H 206.435 0.583785 -0.316371 0
M  V30 2190 H 208.965 1.4157 -1.47712 0
M  V30 2191 H 208.975 3.8577 -1.32837 0
M  V30 2192 H 207.65 3.40504 -2.3881 0
M  V30 2193 H 206.227 3.68393 -0.577993 0
M  V30 2194 N 208.412 0.89855 1.29475 0
M  V30 2195 C 209.828 0.594483 1.48115 0
M  V30 2196 C 210.028 -0.86431 1.82022 0
M  V30 2197 O 209.084 -1.64457 1.91599 0
M  V30 2198 C 210.397 1.51932 2.59494 0
M  V30 2199 C 211.945 1.5244 2.7337 0
M  V30 2200 C 212.42 2.43548 3.87877 0
M  V30 2201 N 213.911 2.41589 3.95208 0
M  V30 2202 C 214.646 3.08789 4.83153 0
M  V30 2203 N 214.142 3.85265 5.75798 0
M  V30 2204 N 215.935 2.97952 4.76635 0
M  V30 2205 H 208.086 1.84207 1.05742 0
M  V30 2206 H 210.349 0.789251 0.525154 0
M  V30 2207 H 210.055 2.55865 2.41301 0
M  V30 2208 H 209.929 1.23899 3.56271 0
M  V30 2209 H 212.316 0.492518 2.90961 0
M  V30 2210 H 212.397 1.8451 1.77172 0
M  V30 2211 H 212.041 3.46829 3.71041 0
M  V30 2212 H 211.971 2.08788 4.83441 0
M  V30 2213 H 214.462 1.86025 3.28943 0
M  V30 2214 H 214.775 4.33598 6.39697 0
M  V30 2215 H 213.12 3.89371 5.75687 0
M  V30 2216 H 216.311 2.37723 4.03244 0
M  V30 2217 H 216.484 3.50599 5.44962 0
M  V30 2218 N 209.89 -1.43072 0.660911 0
M  V30 2219 C 211.115 -2.06584 0.183805 0
M  V30 2220 C 211.54 -1.49257 -1.14472 0
M  V30 2221 O 210.898 -0.605528 -1.70889 0
M  V30 2222 C 210.946 -3.60418 0.114434 0
M  V30 2223 O 210.05 -4.01981 -0.921137 0
M  V30 2224 H 209.391 -0.656669 0.0983994 0
M  V30 2225 H 211.921 -1.83447 0.906006 0
M  V30 2226 H 211.931 -4.07946 -0.0663394 0
M  V30 2227 H 210.606 -4.01519 1.08422 0
M  V30 2228 H 209.183 -3.66029 -0.71253 0
M  V30 2229 N 211.368 -0.403325 -1.52352 0
M  V30 2230 C 212.298 0.416205 -2.29761 0
M  V30 2231 C 213.279 1.05123 -1.33728 0
M  V30 2232 O 214.464 1.06134 -1.62632 0
M  V30 2233 C 211.594 1.53624 -3.11475 0
M  V30 2234 C 210.548 1.02653 -4.15507 0
M  V30 2235 C 209.874 2.23971 -4.85532 0
M  V30 2236 C 211.174 0.08463 -5.22231 0
M  V30 2237 H 212.868 -0.229701 -2.98518 0
M  V30 2238 H 210.414 -0.111913 -1.43564 0
M  V30 2239 H 212.367 2.1165 -3.64393 0
M  V30 2240 H 211.091 2.20994 -2.40477 0
M  V30 2241 H 209.75 0.46871 -3.63591 0
M  V30 2242 H 209.398 2.89883 -4.11068 0
M  V30 2243 H 209.098 1.90521 -5.55856 0
M  V30 2244 H 210.622 2.82614 -5.41259 0
M  V30 2245 H 212.036 0.573509 -5.70424 0
M  V30 2246 H 210.433 -0.160783 -5.99885 0
M  V30 2247 H 211.503 -0.86237 -4.7717 0
M  V30 2248 N 212.846 1.57033 -0.133567 0
M  V30 2249 C 214.071 2.00475 0.531477 0
M  V30 2250 C 214.496 1.01291 1.58499 0
M  V30 2251 O 213.854 -0.0133279 1.81295 0
M  V30 2252 C 213.902 3.42729 1.12113 0
M  V30 2253 O 213.006 3.46498 2.23636 0
M  V30 2254 H 212.347 0.650876 0.131362 0
M  V30 2255 H 214.877 2.03344 -0.22634 0
M  V30 2256 H 214.887 3.81246 1.4531 0
M  V30 2257 H 213.562 4.14428 0.349557 0
M  V30 2258 H 212.139 3.19811 1.91769 0
M  V30 2259 N 214.325 -0.140222 1.56975 0
M  V30 2260 C 215.257 -1.19818 1.95388 0
M  V30 2261 C 216.27 -1.38816 0.850525 0
M  V30 2262 O 217.459 -1.38267 1.12891 0
M  V30 2263 C 214.559 -2.56189 2.21857 0
M  V30 2264 C 213.732 -2.58077 3.5315 0
M  V30 2265 C 212.791 -3.76037 3.6808 0
M  V30 2266 O 211.817 -3.60598 4.40406 0
M  V30 2267 N 213.019 -4.93763 3.05251 0
M  V30 2268 H 215.784 -0.871609 2.86746 0
M  V30 2269 H 213.345 -0.32972 1.58507 0
M  V30 2270 H 215.337 -3.33623 2.2908 0
M  V30 2271 H 213.907 -2.81111 1.36731 0
M  V30 2272 H 213.127 -1.6651 3.57307 0
M  V30 2273 H 214.415 -2.56377 4.39486 0
M  V30 2274 H 213.813 -5.09209 2.46419 0
M  V30 2275 H 212.37 -5.68949 3.18026 0
M  V30 2276 N 215.803 -1.52179 -0.40978 0
M  V30 2277 C 217.219 -1.40968 -0.74835 0
M  V30 2278 C 217.419 -0.513657 -1.94843 0
M  V30 2279 O 216.475 0.0208026 -2.52491 0
M  V30 2280 C 217.788 -2.83483 -1.0029 0
M  V30 2281 C 219.336 -2.92821 -1.10565 0
M  V30 2282 C 219.811 -4.36303 -1.39296 0
M  V30 2283 N 221.302 -4.39535 -1.46162 0
M  V30 2284 C 222.037 -5.47614 -1.70018 0
M  V30 2285 N 221.533 -6.65812 -1.91483 0
M  V30 2286 N 223.326 -5.35129 -1.72027 0
M  V30 2287 H 215.477 -2.0897 0.380186 0
M  V30 2288 H 217.74 -0.94185 0.107805 0
M  V30 2289 H 217.446 -3.51168 -0.193461 0
M  V30 2290 H 217.32 -3.24487 -1.92323 0
M  V30 2291 H 219.707 -2.25318 -1.90568 0
M  V30 2292 H 219.788 -2.55276 -0.16369 0
M  V30 2293 H 219.432 -5.04366 -0.598109 0
M  V30 2294 H 219.362 -4.71385 -2.34743 0
M  V30 2295 H 221.853 -3.54332 -1.31367 0
M  V30 2296 H 222.166 -7.43964 -2.09134 0
M  V30 2297 H 220.511 -6.68879 -1.88749 0
M  V30 2298 H 223.702 -4.41764 -1.54796 0
M  V30 2299 H 223.875 -6.19433 -1.9028 0
M  V30 2300 N 217.281 0.66697 -1.42791 0
M  V30 2301 C 218.211 1.79218 -1.49677 0
M  V30 2302 C 219.192 1.66405 -0.352623 0
M  V30 2303 O 220.377 1.85708 -0.567993 0
M  V30 2304 C 217.507 3.17565 -1.40605 0
M  V30 2305 C 216.461 3.45124 -2.53127 0
M  V30 2306 C 215.787 4.83127 -2.29112 0
M  V30 2307 C 217.087 3.41236 -3.95418 0
M  V30 2308 H 218.781 1.73713 -2.43853 0
M  V30 2309 H 216.327 0.83432 -1.17367 0
M  V30 2310 H 218.28 3.96022 -1.44029 0
M  V30 2311 H 217.004 3.23767 -0.429271 0
M  V30 2312 H 215.663 2.69031 -2.49034 0
M  V30 2313 H 215.311 4.85988 -1.29709 0
M  V30 2314 H 215.011 5.02528 -3.04531 0
M  V30 2315 H 216.535 5.63859 -2.34297 0
M  V30 2316 H 217.949 4.09651 -4.01073 0
M  V30 2317 H 216.346 3.72173 -4.70752 0
M  V30 2318 H 217.416 2.39665 -4.21532 0
M  V30 2319 N 218.759 1.29093 0.90403 0
M  V30 2320 C 219.689 1.16401 2.02418 0
M  V30 2321 C 220.67 0.0593085 1.69997 0
M  V30 2322 O 221.855 0.238021 1.92736 0
M  V30 2323 C 218.985 0.835233 3.37107 0
M  V30 2324 C 217.939 1.89578 3.83724 0
M  V30 2325 C 217.265 1.42041 5.15489 0
M  V30 2326 C 218.565 3.30394 4.04521 0
M  V30 2327 H 220.259 2.10109 2.13295 0
M  V30 2328 H 217.805 1.01157 1.02486 0
M  V30 2329 H 219.758 0.733169 4.14973 0
M  V30 2330 H 218.482 -0.137543 3.2631 0
M  V30 2331 H 217.141 1.98715 3.08071 0
M  V30 2332 H 216.789 0.436426 5.01103 0
M  V30 2333 H 216.489 2.12964 5.4765 0
M  V30 2334 H 218.013 1.33176 5.959 0
M  V30 2335 H 219.427 3.24123 4.72882 0
M  V30 2336 H 217.824 3.99237 4.48029 0
M  V30 2337 H 218.894 3.73692 3.09002 0
M  V30 2338 N 220.237 -1.11381 1.11499 0
M  V30 2339 C 221.462 -1.87475 0.887019 0
M  V30 2340 C 221.887 -1.79639 -0.557796 0
M  V30 2341 O 221.245 -1.15924 -1.39396 0
M  V30 2342 C 221.293 -3.34213 1.35403 0
M  V30 2343 O 220.397 -4.0903 0.526146 0
M  V30 2344 H 219.738 -0.582099 0.319463 0
M  V30 2345 H 222.268 -1.40785 1.48461 0
M  V30 2346 H 222.278 -3.8506 1.34881 0
M  V30 2347 H 220.953 -3.39232 2.40612 0
M  V30 2348 H 219.53 -3.68082 0.597522 0
M  V30 2349 N 221.715 -0.905404 -1.28997 0
M  V30 2350 C 222.647 -0.344748 -2.26592 0
M  V30 2351 C 223.66 0.512135 -1.54535 0
M  V30 2352 O 224.849 0.328368 -1.75454 0
M  V30 2353 C 221.949 0.526587 -3.34784 0
M  V30 2354 C 221.122 -0.305871 -4.36329 0
M  V30 2355 C 220.181 0.499209 -5.23827 0
M  V30 2356 O 219.207 -0.0853004 -5.69136 0
M  V30 2357 N 220.409 1.80408 -5.51755 0
M  V30 2358 H 223.174 -1.18359 -2.75338 0
M  V30 2359 H 220.735 -0.770481 -1.42391 0
M  V30 2360 H 222.727 1.07171 -3.90252 0
M  V30 2361 H 221.297 1.26613 -2.85811 0
M  V30 2362 H 220.517 -1.0324 -3.80441 0
M  V30 2363 H 221.805 -0.875773 -5.01206 0
M  V30 2364 H 221.203 2.3016 -5.16762 0
M  V30 2365 H 219.76 2.29621 -6.10014 0
M  V30 2366 N 223.193 1.4272 -0.668489 0
M  V30 2367 C 224.418 2.06484 -0.194758 0
M  V30 2368 C 224.843 1.49862 1.13679 0
M  V30 2369 O 224.201 0.614582 1.70565 0
M  V30 2370 C 224.249 3.60353 -0.133546 0
M  V30 2371 O 223.353 4.02464 0.899806 0
M  V30 2372 H 222.694 0.656137 -0.10188 0
M  V30 2373 H 225.224 1.82964 -0.915722 0
M  V30 2374 H 225.234 4.07976 0.0447041 0
M  V30 2375 H 223.909 4.00938 -1.1055 0
M  V30 2376 H 222.486 3.66402 0.693109 0
M  V30 2377 N 224.671 0.411399 1.52136 0
M  V30 2378 C 225.918 -0.163645 2.01838 0
M  V30 2379 C 226.246 -1.4495 1.29691 0
M  V30 2380 O 225.501 -1.91725 0.392431 0
M  V30 2381 C 225.8 -0.455872 3.54481 0
M  V30 2382 C 225.466 0.741055 4.44769 0
M  V30 2383 C 224.128 1.06936 4.69167 0
M  V30 2384 C 226.48 1.54075 4.97906 0
M  V30 2385 C 223.808 2.19851 5.43951 0
M  V30 2386 C 226.16 2.66067 5.73926 0
M  V30 2387 C 224.824 2.99381 5.96596 0
M  V30 2388 H 224.094 -0.0598821 0.738576 0
M  V30 2389 H 226.741 0.553283 1.83333 0
M  V30 2390 H 225.046 -1.2544 3.71177 0
M  V30 2391 H 226.743 -0.913802 3.90449 0
M  V30 2392 H 223.333 0.475192 4.25958 0
M  V30 2393 H 227.517 1.30033 4.78963 0
M  V30 2394 H 222.773 2.46006 5.59724 0
M  V30 2395 H 226.947 3.28419 6.14096 0
M  V30 2396 H 224.574 3.86992 6.54325 0
M  V30 2397 N 226.149 -1.5696 0.141893 0
M  V30 2398 C 227.079 -2.19516 -0.795936 0
M  V30 2399 C 228.06 -1.14187 -1.26077 0
M  V30 2400 O 229.245 -1.42511 -1.31925 0
M  V30 2401 C 226.375 -2.81272 -2.03723 0
M  V30 2402 C 225.329 -3.92384 -1.70936 0
M  V30 2403 C 224.655 -4.41052 -3.02287 0
M  V30 2404 C 225.955 -5.13403 -0.959954 0
M  V30 2405 H 227.649 -2.98138 -0.274596 0
M  V30 2406 H 225.195 -1.43406 -0.130636 0
M  V30 2407 H 227.148 -3.237 -2.69808 0
M  V30 2408 H 225.872 -1.99973 -2.58221 0
M  V30 2409 H 224.531 -3.50566 -1.07232 0
M  V30 2410 H 224.179 -3.56582 -3.54765 0
M  V30 2411 H 223.879 -5.15993 -2.81114 0
M  V30 2412 H 225.403 -4.86146 -3.69451 0
M  V30 2413 H 226.817 -5.52706 -1.52279 0
M  V30 2414 H 225.214 -5.94073 -0.848357 0
M  V30 2415 H 226.284 -4.84875 0.0492434 0
M  V30 2416 N 227.627 0.131896 -1.57047 0
M  V30 2417 C 228.875 0.840269 -1.83804 0
M  V30 2418 C 229.196 1.81017 -0.72512 0
M  V30 2419 O 228.466 1.94272 0.251995 0
M  V30 2420 H 227.046 0.313294 -0.678127 0
M  V30 2421 H 229.708 0.122294 -1.94516 0
M  V30 2422 H 228.804 1.39335 -2.79271 0
M  V30 2423 N 229.106 1.52395 0.401703 0
M  V30 2424 C 230.331 1.70972 1.17403 0
M  V30 2425 C 230.756 0.421615 1.83314 0
M  V30 2426 O 230.114 -0.621564 1.70312 0
M  V30 2427 C 230.162 2.85151 2.20728 0
M  V30 2428 O 229.266 2.51238 3.27037 0
M  V30 2429 H 228.607 0.568927 0.342372 0
M  V30 2430 H 231.137 1.99131 0.469891 0
M  V30 2431 H 231.147 3.10279 2.64936 0
M  V30 2432 H 229.822 3.78603 1.7214 0
M  V30 2433 H 228.399 2.36808 2.88057 0
M  V30 2434 N 230.584 -0.659388 1.43143 0
M  V30 2435 C 231.494 -1.80167 1.50256 0
M  V30 2436 C 232.51 -1.69571 0.390106 0
M  V30 2437 O 233.686 -1.90849 0.643319 0
M  V30 2438 C 230.751 -3.16409 1.41725 0
M  V30 2439 C 229.812 -3.38848 2.63591 0
M  V30 2440 C 229.045 -4.68591 2.55458 0
M  V30 2441 O 229.268 -5.47532 1.59891 0
M  V30 2442 O 228.202 -4.92614 3.45854 0
M  V30 2443 H 232.028 -1.77121 2.46702 0
M  V30 2444 H 229.613 -0.817092 1.25076 0
M  V30 2445 H 231.495 -3.9768 1.39387 0
M  V30 2446 H 230.17 -3.20059 0.484118 0
M  V30 2447 H 229.077 -2.57366 2.71502 0
M  V30 2448 H 230.41 -3.4004 3.55856 0
M  V30 2449 N 232.062 -1.29571 -0.897171 0
M  V30 2450 C 233.31 -1.17456 -1.64464 0
M  V30 2451 C 233.631 0.273698 -1.9307 0
M  V30 2452 O 232.901 1.18684 -1.55855 0
M  V30 2453 H 231.481 -0.431706 -0.609622 0
M  V30 2454 H 234.143 -1.62531 -1.07562 0
M  V30 2455 H 233.239 -1.72648 -2.59998 0
M  V30 2456 N 233.54 1.10788 -1.12088 0
M  V30 2457 C 234.765 1.87002 -0.896949 0
M  V30 2458 C 235.19 1.79933 0.548261 0
M  V30 2459 O 234.548 1.16662 1.38779 0
M  V30 2460 C 234.596 3.3349 -1.37174 0
M  V30 2461 O 233.7 4.08745 -0.547831 0
M  V30 2462 H 233.041 0.580397 -0.322545 0
M  V30 2463 H 235.571 1.39996 -1.49206 0
M  V30 2464 H 235.581 3.84339 -1.36922 0
M  V30 2465 H 234.256 3.37951 -2.42408 0
M  V30 2466 H 232.833 3.6776 -0.617034 0
M  V30 2467 N 235.018 0.912232 1.28515 0
M  V30 2468 C 235.968 0.370649 2.24967 0
M  V30 2469 C 236.952 -0.516375 1.52389 0
M  V30 2470 O 238.144 -0.356345 1.73376 0
M  V30 2471 C 235.273 -0.389526 3.41083 0
M  V30 2472 C 234.359 0.51313 4.20984 0
M  V30 2473 N 234.75 1.62604 4.78951 0
M  V30 2474 C 233.048 0.313235 4.44899 0
M  V30 2475 C 233.749 2.18619 5.39055 0
M  V30 2476 N 232.725 1.47765 5.23132 0
M  V30 2477 H 236.527 1.22061 2.67354 0
M  V30 2478 H 234.041 0.764712 1.43269 0
M  V30 2479 H 236.038 -0.794353 4.09262 0
M  V30 2480 H 234.698 -1.2366 3.0023 0
M  V30 2481 H 235.709 2.00864 4.77362 0
M  V30 2482 H 232.386 -0.494452 4.14562 0
M  V30 2483 H 233.776 3.12228 5.94948 0
M  V30 2484 N 236.496 -1.42363 0.676048 0
M  V30 2485 C 237.744 -2.01123 0.198437 0
M  V30 2486 C 238.065 -1.53731 -1.19966 0
M  V30 2487 O 237.335 -0.759518 -1.80577 0
M  V30 2488 H 235.915 -0.743678 0.0703721 0
M  V30 2489 H 238.577 -1.74263 0.872837 0
M  V30 2490 H 237.673 -3.11454 0.200686 0
M  V30 2491 N 237.974 -0.419461 -1.51915 0
M  V30 2492 C 239.39 -0.0708431 -1.59443 0
M  V30 2493 C 239.59 1.41796 -1.43164 0
M  V30 2494 O 238.646 2.18596 -1.26381 0
M  V30 2495 C 239.959 -0.574991 -2.95151 0
M  V30 2496 C 241.507 -0.533867 -3.08413 0
M  V30 2497 C 241.982 -1.01469 -4.46618 0
M  V30 2498 N 243.473 -0.971939 -4.52888 0
M  V30 2499 C 244.208 -1.31505 -5.58116 0
M  V30 2500 N 243.704 -1.73014 -6.70849 0
M  V30 2501 N 245.497 -1.23436 -5.48379 0
M  V30 2502 H 237.648 -1.38836 -1.60743 0
M  V30 2503 H 239.911 -0.570998 -0.756747 0
M  V30 2504 H 239.617 -1.61597 -3.12377 0
M  V30 2505 H 239.491 0.00979777 -3.77199 0
M  V30 2506 H 241.878 0.498086 -2.90866 0
M  V30 2507 H 241.959 -1.15484 -2.28248 0
M  V30 2508 H 241.603 -2.04502 -4.6491 0
M  V30 2509 H 241.533 -0.370433 -5.25295 0
M  V30 2510 H 244.024 -0.666893 -3.71969 0
M  V30 2511 H 244.337 -1.97479 -7.47143 0
M  V30 2512 H 242.682 -1.76926 -6.72103 0
M  V30 2513 H 245.873 -0.908869 -4.59192 0
M  V30 2514 H 246.046 -1.50506 -6.30279 0
M  V30 2515 N 239.452 1.56882 -0.150215 0
M  V30 2516 C 240.863 1.82995 0.370076 0
M  V30 2517 C 241.214 1.06907 1.64515 0
M  V30 2518 O 240.339 0.315369 2.1409 0
M  V30 2519 C 240.934 3.31942 0.678208 0
M  V30 2520 C 239.493 3.58625 1.14301 0
M  V30 2521 C 238.64 2.76792 0.167778 0
M  V30 2522 H 241.591 1.54209 -0.374858 0
M  V30 2523 H 241.612 3.48272 1.53254 0
M  V30 2524 H 241.124 3.87294 -0.249991 0
M  V30 2525 H 239.225 3.08664 2.08704 0
M  V30 2526 H 239.338 4.67073 1.06676 0
M  V30 2527 H 237.702 2.45972 0.661037 0
M  V30 2528 H 238.485 3.34916 -0.754069 0
M  V30 2529 N 240.93 -0.123565 1.57115 0
M  V30 2530 C 242.178 -0.83051 1.84247 0
M  V30 2531 C 242.499 -1.80629 0.73471 0
M  V30 2532 O 241.769 -1.94403 -0.241688 0
M  V30 2533 H 240.349 -0.309694 0.679778 0
M  V30 2534 H 243.011 -0.111976 1.94578 0
M  V30 2535 H 242.107 -1.37852 2.80006 0
M  V30 2536 N 242.408 -1.52605 -0.393616 0
M  V30 2537 C 243.656 -1.67093 -1.13685 0
M  V30 2538 C 243.977 -0.411011 -1.90619 0
M  V30 2539 O 243.247 0.574491 -1.87287 0
M  V30 2540 H 241.827 -0.615923 -0.422668 0
M  V30 2541 H 244.489 -1.89704 -0.447039 0
M  V30 2542 H 243.585 -2.51922 -1.84232 0
M  V30 2543 N 243.887 0.651787 -1.4349 0
M  V30 2544 C 245.298 1.233 -1.40193 0
M  V30 2545 C 245.649 1.9591 -0.106727 0
M  V30 2546 O 244.774 2.01316 0.793773 0
M  V30 2547 C 245.369 2.24257 -2.53957 0
M  V30 2548 C 243.928 2.77852 -2.5392 0
M  V30 2549 C 243.075 1.52517 -2.3159 0
M  V30 2550 H 246.026 0.443717 -1.52371 0
M  V30 2551 H 246.047 3.0646 -2.25528 0
M  V30 2552 H 245.559 1.71382 -3.4821 0
M  V30 2553 H 243.66 3.34786 -1.63551 0
M  V30 2554 H 243.773 3.25299 -3.51735 0
M  V30 2555 H 242.137 1.79915 -1.80285 0
M  V30 2556 H 242.92 1.01574 -3.27929 0
M  V30 2557 N 245.365 1.30045 0.890287 0
M  V30 2558 C 246.613 1.18327 1.63839 0
M  V30 2559 C 246.934 -0.263455 1.93212 0
M  V30 2560 O 246.204 -1.17856 1.56482 0
M  V30 2561 H 244.784 0.434933 0.607324 0
M  V30 2562 H 247.446 1.631 1.06698 0
M  V30 2563 H 246.542 1.74024 2.59079 0
M  V30 2564 N 246.843 -1.10192 1.12674 0
M  V30 2565 C 248.254 -1.63707 0.897604 0
M  V30 2566 C 248.605 -1.87812 -0.567546 0
M  V30 2567 O 247.73 -1.62196 -1.43253 0
M  V30 2568 C 248.325 -2.974 1.62292 0
M  V30 2569 C 246.884 -3.47772 1.43986 0
M  V30 2570 C 246.031 -2.22332 1.65722 0
M  V30 2571 H 248.982 -0.936587 1.28116 0
M  V30 2572 H 249.003 -3.64986 1.07541 0
M  V30 2573 H 248.515 -2.79824 2.68924 0
M  V30 2574 H 246.616 -3.70487 0.396206 0
M  V30 2575 H 246.729 -4.25723 2.19765 0
M  V30 2576 H 245.093 -2.30599 1.08149 0
M  V30 2577 H 245.876 -2.07285 2.73657 0
M  V30 2578 N 248.321 -0.919034 -1.28029 0
M  V30 2579 C 249.569 -0.553838 -1.94363 0
M  V30 2580 C 249.89 0.906357 -1.72656 0
M  V30 2581 O 249.16 1.64143 -1.0693 0
M  V30 2582 H 247.74 -0.201834 -0.719216 0
M  V30 2583 H 250.402 -1.16954 -1.55909 0
M  V30 2584 H 249.498 -0.752758 -3.02886 0
M  V30 2585 N 249.799 1.42003 -0.683588 0
M  V30 2586 C 251.027 2.05746 -0.218182 0
M  V30 2587 C 251.442 1.51396 1.12804 0
M  V30 2588 O 250.799 0.657303 1.70252 0
M  V30 2589 C 250.85 3.61171 -0.154131 0
M  V30 2590 O 250.571 4.13508 -1.44716 0
M  V30 2591 C 252.072 4.42042 0.333713 0
M  V30 2592 H 249.292 0.662888 -0.10402 0
M  V30 2593 H 251.836 1.81987 -0.9328 0
M  V30 2594 H 249.991 3.84012 0.511231 0
M  V30 2595 H 250.405 5.07453 -1.32632 0
M  V30 2596 H 251.879 5.51028 0.327423 0
M  V30 2597 H 252.356 4.17269 1.37053 0
M  V30 2598 H 252.962 4.24239 -0.300222 0
M  V30 2599 N 251.277 0.427512 1.51691 0
M  V30 2600 C 252.525 -0.141948 2.01601 0
M  V30 2601 C 252.846 -1.44067 1.31414 0
M  V30 2602 O 252.116 -1.90763 0.445658 0
M  V30 2603 H 250.696 -0.0554468 0.744939 0
M  V30 2604 H 253.358 0.567968 1.86441 0
M  V30 2605 H 252.454 -0.324913 3.10404 0
M  V30 2606 N 252.755 -1.56801 0.158532 0
M  V30 2607 C 254.171 -1.5837 -0.197774 0
M  V30 2608 C 254.371 -1.17334 -1.63814 0
M  V30 2609 O 253.427 -0.878988 -2.36707 0
M  V30 2610 C 254.74 -3.00615 0.0714459 0
M  V30 2611 C 256.288 -3.12999 0.00864533 0
M  V30 2612 C 256.763 -4.57313 0.250685 0
M  V30 2613 N 258.254 -4.62777 0.198014 0
M  V30 2614 C 258.989 -5.72271 0.359642 0
M  V30 2615 N 258.485 -6.90371 0.579625 0
M  V30 2616 N 260.278 -5.61318 0.296438 0
M  V30 2617 H 252.429 -1.81765 1.09887 0
M  V30 2618 H 254.692 -0.841849 0.435884 0
M  V30 2619 H 254.398 -3.35068 1.06874 0
M  V30 2620 H 254.272 -3.71683 -0.642757 0
M  V30 2621 H 256.659 -2.7838 -0.979217 0
M  V30 2622 H 256.74 -2.44393 0.755359 0
M  V30 2623 H 256.384 -4.92639 1.2357 0
M  V30 2624 H 256.314 -5.24061 -0.516489 0
M  V30 2625 H 258.805 -3.77885 0.0331115 0
M  V30 2626 H 259.118 -7.69689 0.69275 0
M  V30 2627 H 257.463 -6.92264 0.616087 0
M  V30 2628 H 260.654 -4.67932 0.125258 0
M  V30 2629 H 260.827 -6.46599 0.425831 0
M  V30 2630 N 254.233 0.115231 -1.57178 0
M  V30 2631 C 255.481 0.820727 -1.84685 0
M  V30 2632 C 255.802 1.80237 -0.744279 0
M  V30 2633 O 255.072 1.94529 0.231375 0
M  V30 2634 H 253.652 0.306084 -0.681411 0
M  V30 2635 H 256.314 0.101656 -1.94635 0
M  V30 2636 H 255.41 1.36366 -2.80733 0
M  V30 2637 N 255.711 1.52812 0.385517 0
M  V30 2638 C 256.658 1.77838 1.47113 0
M  V30 2639 C 257.628 0.621757 1.54024 0
M  V30 2640 O 258.813 0.861846 1.70226 0
M  V30 2641 C 255.953 1.95618 2.84302 0
M  V30 2642 C 255.066 3.23316 2.86515 0
M  V30 2643 C 254.201 3.31394 4.15152 0
M  V30 2644 C 253.24 4.53201 4.1143 0
M  V30 2645 N 252.377 4.58542 5.3168 0
M  V30 2646 H 257.217 2.70482 1.25073 0
M  V30 2647 H 254.754 1.34006 0.606692 0
M  V30 2648 H 256.712 2.03912 3.63972 0
M  V30 2649 H 255.342 1.06331 3.04784 0
M  V30 2650 H 254.394 3.24076 1.99195 0
M  V30 2651 H 255.706 4.13045 2.79634 0
M  V30 2652 H 254.86 3.3889 5.03228 0
M  V30 2653 H 253.599 2.39645 4.24761 0
M  V30 2654 H 252.604 4.45827 3.21742 0
M  V30 2655 H 253.829 5.46271 4.03442 0
M  V30 2656 H 251.775 3.69686 5.41912 0
M  V30 2657 H 251.692 5.42148 5.26889 0
M  V30 2658 H 252.96 4.70296 6.21644 0
M  V30 2659 N 257.189 -0.644168 1.43834 0
M  V30 2660 C 258.419 -1.42939 1.49171 0
M  V30 2661 C 258.827 -1.88874 0.111048 0
M  V30 2662 O 258.17 -1.60656 -0.8908 0
M  V30 2663 C 258.232 -2.69151 2.38324 0
M  V30 2664 C 257.896 -2.45097 3.85715 0
M  V30 2665 C 258.893 -2.07747 4.76589 0
M  V30 2666 C 256.578 -2.59141 4.30292 0
M  V30 2667 C 258.572 -1.8475 6.10038 0
M  V30 2668 C 256.259 -2.35759 5.63792 0
M  V30 2669 C 257.257 -1.9862 6.53482 0
M  V30 2670 O 256.945 -1.75489 7.84512 0
M  V30 2671 H 256.677 -0.445271 0.508635 0
M  V30 2672 H 259.231 -0.79621 1.8934 0
M  V30 2673 H 257.461 -3.3506 1.93058 0
M  V30 2674 H 259.15 -3.31123 2.3476 0
M  V30 2675 H 259.916 -1.96465 4.43426 0
M  V30 2676 H 255.795 -2.87022 3.60749 0
M  V30 2677 H 259.339 -1.55686 6.80006 0
M  V30 2678 H 255.236 -2.46646 5.9652 0
M  V30 2679 H 256.004 -1.89841 7.9618 0
M  V30 2680 N 258.668 -1.30515 -0.883378 0
M  V30 2681 C 260.084 -1.08881 -1.16692 0
M  V30 2682 C 260.284 0.149409 -2.00945 0
M  V30 2683 O 259.34 0.84257 -2.38027 0
M  V30 2684 C 260.653 -2.35319 -1.87204 0
M  V30 2685 C 262.201 -2.40799 -1.99962 0
M  V30 2686 C 262.676 -3.67083 -2.73887 0
M  V30 2687 N 264.167 -3.679 -2.81432 0
M  V30 2688 C 264.902 -4.62303 -3.3921 0
M  V30 2689 N 264.398 -5.67052 -3.98025 0
M  V30 2690 N 266.191 -4.49845 -3.3704 0
M  V30 2691 H 258.342 -2.09951 -0.321633 0
M  V30 2692 H 260.605 -0.92556 -0.205043 0
M  V30 2693 H 260.311 -3.25689 -1.3274 0
M  V30 2694 H 260.185 -2.44089 -2.87577 0
M  V30 2695 H 262.572 -1.50907 -2.53597 0
M  V30 2696 H 262.653 -2.36003 -0.98673 0
M  V30 2697 H 262.297 -4.57334 -2.20925 0
M  V30 2698 H 262.227 -3.69141 -3.75556 0
M  V30 2699 H 264.718 -2.92171 -2.39676 0
M  V30 2700 H 265.031 -6.35184 -4.40183 0
M  V30 2701 H 263.376 -5.70842 -3.96439 0
M  V30 2702 H 266.567 -3.67194 -2.90321 0
M  V30 2703 H 266.74 -5.23597 -3.81772 0
M  V30 2704 N 260.146 1.09593 -1.13257 0
M  V30 2705 C 261.374 1.855 -0.916378 0
M  V30 2706 C 261.789 1.81069 0.534738 0
M  V30 2707 O 261.146 1.20562 1.37007 0
M  V30 2708 C 261.197 3.33546 -1.39388 0
M  V30 2709 O 260.918 3.37927 -2.78813 0
M  V30 2710 C 262.419 4.26299 -1.21588 0
M  V30 2711 H 259.639 0.585991 -0.326887 0
M  V30 2712 H 262.183 1.38488 -1.5047 0
M  V30 2713 H 260.338 3.77992 -0.848597 0
M  V30 2714 H 260.752 4.30254 -2.9997 0
M  V30 2715 H 262.226 5.28341 -1.59876 0
M  V30 2716 H 262.703 4.38918 -0.157376 0
M  V30 2717 H 263.309 3.87668 -1.7491 0
M  V30 2718 N 261.624 0.925811 1.2754 0
M  V30 2719 C 262.873 0.561084 1.93739 0
M  V30 2720 C 263.186 -0.901685 1.73577 0
M  V30 2721 O 264.392 -1.37511 2.34101 0
M  V30 2722 C 262.848 0.952668 3.47062 0
M  V30 2723 C 262.456 2.43599 3.75983 0
M  V30 2724 C 264.2 0.659103 4.19352 0
M  V30 2725 C 262.107 2.76707 5.22673 0
M  V30 2726 H 261.037 0.206122 0.725279 0
M  V30 2727 H 263.688 1.12637 1.44863 0
M  V30 2728 H 262.07 0.316053 3.94737 0
M  V30 2729 H 263.244 3.12035 3.39073 0
M  V30 2730 H 261.559 2.70125 3.16893 0
M  V30 2731 H 264.156 0.882985 5.27359 0
M  V30 2732 H 264.499 -0.403607 4.14339 0
M  V30 2733 H 265.032 1.25473 3.77494 0
M  V30 2734 H 261.771 3.8188 5.32774 0
M  V30 2735 H 261.291 2.12919 5.60737 0
M  V30 2736 H 262.97 2.6435 5.90532 0
M  V30 2737 N 263.102 -1.41638 0.69111 0
M  V30 2738 C 264.327 -2.06148 0.227583 0
M  V30 2739 C 264.752 -1.51652 -1.11281 0
M  V30 2740 O 264.11 -0.64164 -1.69566 0
M  V30 2741 C 264.158 -3.60095 0.190858 0
M  V30 2742 O 263.262 -4.03845 -0.835664 0
M  V30 2743 H 262.603 -0.654434 0.112306 0
M  V30 2744 H 265.133 -1.81484 0.944714 0
M  V30 2745 H 265.143 -4.07995 0.020207 0
M  V30 2746 H 263.818 -3.99129 1.16915 0
M  V30 2747 H 262.395 -3.67458 -0.63473 0
M  V30 2748 N 264.58 -0.43555 -1.51462 0
M  V30 2749 C 265.512 0.41257 -2.25456 0
M  V30 2750 C 266.525 0.987822 -1.29406 0
M  V30 2751 O 267.714 0.882266 -1.55172 0
M  V30 2752 C 264.814 1.58894 -2.99342 0
M  V30 2753 C 263.987 1.13288 -4.22474 0
M  V30 2754 C 263.046 2.17917 -4.78956 0
M  V30 2755 O 262.072 1.77425 -5.40841 0
M  V30 2756 N 263.274 3.50382 -4.62832 0
M  V30 2757 H 266.039 -0.221603 -2.9888 0
M  V30 2758 H 263.6 -0.264342 -1.59727 0
M  V30 2759 H 265.592 2.28508 -3.34015 0
M  V30 2760 H 264.162 2.12849 -2.28941 0
M  V30 2761 H 263.382 0.263881 -3.93316 0
M  V30 2762 H 264.67 0.805542 -5.02383 0
M  V30 2763 H 264.068 3.86013 -4.13534 0
M  V30 2764 H 262.625 4.15895 -5.01871 0
M  V30 2765 N 266.058 1.56714 -0.166846 0
M  V30 2766 C 267.307 1.95922 0.479318 0
M  V30 2767 C 267.62 1.05529 1.6469 0
M  V30 2768 O 268.826 1.34399 2.35901 0
M  V30 2769 C 267.282 3.48359 0.90412 0
M  V30 2770 C 266.89 4.47369 -0.237621 0
M  V30 2771 C 268.634 3.96394 1.51896 0
M  V30 2772 C 266.541 5.91039 0.206561 0
M  V30 2773 H 265.471 0.731495 0.18284 0
M  V30 2774 H 268.122 1.81728 -0.254363 0
M  V30 2775 H 266.504 3.57955 1.69365 0
M  V30 2776 H 267.678 4.49485 -1.01489 0
M  V30 2777 H 265.993 4.09366 -0.762128 0
M  V30 2778 H 268.59 5.01186 1.86325 0
M  V30 2779 H 268.933 3.39075 2.41524 0
M  V30 2780 H 269.466 3.89796 0.79395 0
M  V30 2781 H 266.205 6.52221 -0.654834 0
M  V30 2782 H 265.725 5.9224 0.949282 0
M  V30 2783 H 267.404 6.43707 0.651939 0
M  V30 2784 N 267.536 -0.106894 1.57237 0
M  V30 2785 C 268.947 -0.662723 1.74542 0
M  V30 2786 C 269.298 -1.7971 0.787319 0
M  V30 2787 O 268.423 -2.16368 -0.0369636 0
M  V30 2788 C 269.018 -1.20896 3.16496 0
M  V30 2789 C 267.577 -1.71096 3.35266 0
M  V30 2790 C 266.724 -0.615642 2.7038 0
M  V30 2791 H 269.675 0.119106 1.58252 0
M  V30 2792 H 269.696 -2.07847 3.18716 0
M  V30 2793 H 269.208 -0.383122 3.86204 0
M  V30 2794 H 267.309 -2.56119 2.70618 0
M  V30 2795 H 267.422 -1.81208 4.43509 0
M  V30 2796 H 265.786 -1.05222 2.31949 0
M  V30 2797 H 266.569 0.199419 3.4272 0
M  V30 2798 N 269.014 -1.53014 -0.377408 0
M  V30 2799 C 269.946 -1.74884 -1.48149 0
M  V30 2800 C 270.959 -0.629433 -1.5014 0
M  V30 2801 O 272.148 -0.905416 -1.53833 0
M  V30 2802 C 269.248 -1.80299 -2.86959 0
M  V30 2803 C 268.421 -3.09776 -3.08801 0
M  V30 2804 C 267.48 -3.06586 -4.27658 0
M  V30 2805 O 266.506 -3.80419 -4.23403 0
M  V30 2806 N 267.708 -2.26578 -5.34455 0
M  V30 2807 H 270.473 -2.70147 -1.29771 0
M  V30 2808 H 268.034 -1.51646 -0.56703 0
M  V30 2809 H 270.026 -1.75657 -3.64591 0
M  V30 2810 H 268.596 -0.92372 -2.98641 0
M  V30 2811 H 267.816 -3.27815 -2.18931 0
M  V30 2812 H 269.104 -3.95366 -3.20255 0
M  V30 2813 H 268.502 -1.66081 -5.40771 0
M  V30 2814 H 267.059 -2.27766 -6.10709 0
M  V30 2815 N 270.492 0.636531 -1.44174 0
M  V30 2816 C 271.739 1.39619 -1.46672 0
M  V30 2817 C 272.067 1.94257 -0.0972691 0
M  V30 2818 O 271.322 1.73768 0.900175 0
M  V30 2819 C 271.621 2.58309 -2.47005 0
M  V30 2820 C 271.287 2.21992 -3.92467 0
M  V30 2821 C 269.949 2.118 -4.32081 0
M  V30 2822 C 272.301 1.9321 -4.84065 0
M  V30 2823 C 269.629 1.71007 -5.61225 0
M  V30 2824 C 271.981 1.53911 -6.13591 0
M  V30 2825 C 270.645 1.42257 -6.52165 0
M  V30 2826 H 269.915 0.510902 -0.536712 0
M  V30 2827 H 272.562 0.722328 -1.77355 0
M  V30 2828 H 270.867 3.30903 -2.09786 0
M  V30 2829 H 272.564 3.16533 -2.46186 0
M  V30 2830 H 269.154 2.30841 -3.61124 0
M  V30 2831 H 273.338 1.99997 -4.54219 0
M  V30 2832 H 268.594 1.60583 -5.89935 0
M  V30 2833 H 272.768 1.30677 -6.8403 0
M  V30 2834 H 270.395 1.10419 -7.52138 0
M  V30 2835 N 271.97 1.30982 0.876444 0
M  V30 2836 C 273.198 1.23242 1.6619 0
M  V30 2837 C 273.613 -0.203345 1.87702 0
M  V30 2838 O 272.97 -1.13317 1.43057 0
M  V30 2839 C 273.021 1.96623 3.03351 0
M  V30 2840 O 272.742 3.34594 2.82804 0
M  V30 2841 C 274.243 1.95644 3.97792 0
M  V30 2842 H 271.463 0.426126 0.518322 0
M  V30 2843 H 274.007 1.7275 1.09442 0
M  V30 2844 H 272.162 1.50892 3.56806 0
M  V30 2845 H 272.576 3.71873 3.69879 0
M  V30 2846 H 274.05 2.51511 4.91372 0
M  V30 2847 H 274.527 0.937395 4.2908 0
M  V30 2848 H 275.133 2.41225 3.50272 0
M  V30 2849 N 273.449 -1.08991 1.13837 0
M  V30 2850 C 274.379 -2.17771 0.842507 0
M  V30 2851 C 275.36 -1.6892 -0.20001 0
M  V30 2852 O 276.545 -1.94113 -0.0579731 0
M  V30 2853 C 273.675 -3.4589 0.312644 0
M  V30 2854 C 272.629 -4.08099 1.28992 0
M  V30 2855 C 271.955 -5.31098 0.619623 0
M  V30 2856 C 273.255 -4.50077 2.65005 0
M  V30 2857 H 274.949 -2.42777 1.75213 0
M  V30 2858 H 272.495 -1.16682 0.843875 0
M  V30 2859 H 274.448 -4.21297 0.0933043 0
M  V30 2860 H 273.172 -3.20419 -0.632382 0
M  V30 2861 H 271.831 -3.34717 1.49533 0
M  V30 2862 H 271.479 -5.0191 -0.33102 0
M  V30 2863 H 271.179 -5.73674 1.27167 0
M  V30 2864 H 272.703 -6.09224 0.409669 0
M  V30 2865 H 274.117 -5.16688 2.48407 0
M  V30 2866 H 272.514 -5.03553 3.26427 0
M  V30 2867 H 273.584 -3.62257 3.22332 0
M  V30 2868 N 274.927 -0.932562 -1.27047 0
M  V30 2869 C 275.875 -0.42603 -2.28665 0
M  V30 2870 C 276.869 0.49219 -1.62092 0
M  V30 2871 O 278.075 0.371355 -1.76128 0
M  V30 2872 H 274.45 -0.119213 -0.742491 0
M  V30 2873 H 276.421 -1.29579 -2.68797 0
M  V30 2874 C 275.17 0.301426 -3.46391 0
M  V30 2875 H 274.493 -0.39595 -3.97834 0
M  V30 2876 H 275.933 0.6202 -4.1944 0
M  V30 2877 C 274.392 1.51616 -3.00856 0
M  V30 2878 O 274.922 2.61476 -3.04948 0
M  V30 2879 N 273.128 1.36969 -2.56296 0
M  V30 2880 H 272.675 0.475873 -2.53166 0
M  V30 2881 H 272.633 2.18368 -2.26192 0
M  V30 2882 N 276.405 1.4127 -0.698611 0
M  V30 2883 C 277.652 2.0118 -0.230865 0
M  V30 2884 C 277.98 1.55338 1.17049 0
M  V30 2885 O 277.235 0.756775 1.80475 0
M  V30 2886 C 277.534 3.56592 -0.240192 0
M  V30 2887 C 277.2 4.21955 -1.58948 0
M  V30 2888 C 275.862 4.39524 -1.95887 0
M  V30 2889 C 278.214 4.58576 -2.47704 0
M  V30 2890 C 275.542 4.90992 -3.2116 0
M  V30 2891 C 277.894 5.11435 -3.72313 0
M  V30 2892 C 276.558 5.27215 -4.0939 0
M  V30 2893 H 275.828 0.736169 -0.0844796 0
M  V30 2894 H 278.475 1.69124 -0.8983 0
M  V30 2895 H 276.78 3.88456 0.510797 0
M  V30 2896 H 278.477 4.00758 0.139296 0
M  V30 2897 H 275.067 4.08657 -1.29219 0
M  V30 2898 H 279.251 4.44654 -2.20445 0
M  V30 2899 H 274.507 5.01393 -3.49878 0
M  V30 2900 H 278.681 5.38752 -4.4127 0
M  V30 2901 H 276.308 5.66859 -5.06533 0
M  V30 2902 N 277.883 0.443576 1.51229 0
M  V30 2903 C 279.129 -0.120975 2.02439 0
M  V30 2904 C 279.462 -1.41815 1.32674 0
M  V30 2905 O 278.737 -1.89373 0.443622 0
M  V30 2906 C 279.02 -0.333291 3.58554 0
M  V30 2907 C 278.873 0.982968 4.38928 0
M  V30 2908 C 280.192 -1.10028 4.26124 0
M  V30 2909 H 277.311 -0.0424923 0.735774 0
M  V30 2910 H 279.953 0.583794 1.80809 0
M  V30 2911 H 278.103 -0.933614 3.77115 0
M  V30 2912 H 279.775 1.61775 4.32003 0
M  V30 2913 H 278.018 1.58611 4.03763 0
M  V30 2914 H 278.689 0.788379 5.46341 0
M  V30 2915 H 281.165 -0.591711 4.11871 0
M  V30 2916 H 280.041 -1.21761 5.35225 0
M  V30 2917 H 280.302 -2.12996 3.87408 0
M  V30 2918 N 279.361 -1.56624 0.175154 0
M  V30 2919 C 280.271 -2.21741 -0.766042 0
M  V30 2920 C 281.287 -1.21023 -1.25018 0
M  V30 2921 O 282.463 -1.53697 -1.3015 0
M  V30 2922 C 279.528 -2.84839 -1.97655 0
M  V30 2923 C 278.589 -4.00769 -1.53892 0
M  V30 2924 C 277.822 -4.60849 -2.69173 0
M  V30 2925 O 278.045 -4.19823 -3.86141 0
M  V30 2926 O 276.979 -5.50655 -2.43028 0
M  V30 2927 H 280.805 -3.02738 -0.241585 0
M  V30 2928 H 278.39 -1.49305 -0.053222 0
M  V30 2929 H 280.272 -3.24834 -2.68442 0
M  V30 2930 H 278.947 -2.06836 -2.48999 0
M  V30 2931 H 277.854 -3.65436 -0.80044 0
M  V30 2932 H 279.187 -4.80376 -1.07236 0
M  V30 2933 N 280.839 0.0985539 -1.57292 0
M  V30 2934 C 282.086 0.802678 -1.85912 0
M  V30 2935 C 282.414 1.78901 -0.763186 0
M  V30 2936 O 281.669 1.94178 0.243559 0
M  V30 2937 C 281.968 1.56927 -3.21105 0
M  V30 2938 C 281.634 0.725376 -4.45027 0
M  V30 2939 C 280.296 0.492726 -4.78671 0
M  V30 2940 C 282.648 0.138493 -5.21016 0
M  V30 2941 C 279.976 -0.336727 -5.85733 0
M  V30 2942 C 282.328 -0.678264 -6.28953 0
M  V30 2943 C 280.992 -0.921039 -6.61115 0
M  V30 2944 H 280.262 0.293721 -0.680301 0
M  V30 2945 H 282.909 0.0642841 -1.91392 0
M  V30 2946 H 281.214 2.37914 -3.11294 0
M  V30 2947 H 282.911 2.11841 -3.40477 0
M  V30 2948 H 279.501 0.916815 -4.18679 0
M  V30 2949 H 283.685 0.305404 -4.95359 0
M  V30 2950 H 278.941 -0.533836 -6.09065 0
M  V30 2951 H 283.115 -1.1399 -6.87007 0
M  V30 2952 H 280.742 -1.56556 -7.43905 0
M  V30 2953 N 282.317 1.53212 0.369288 0
M  V30 2954 C 283.265 1.80054 1.47253 0
M  V30 2955 C 284.259 0.669456 1.55611 0
M  V30 2956 O 285.465 0.852328 1.58541 0
M  V30 2957 H 281.84 0.570034 0.490475 0
M  V30 2958 H 283.811 2.72403 1.21817 0
M  V30 2959 C 282.56 2.00403 2.84137 0
M  V30 2960 H 281.883 2.86876 2.78464 0
M  V30 2961 H 283.323 2.23164 3.60519 0
M  V30 2962 C 281.782 0.782081 3.27697 0
M  V30 2963 O 282.312 -0.0310205 4.01688 0
M  V30 2964 N 280.518 0.606573 2.84199 0
M  V30 2965 H 280.065 1.26939 2.24152 0
M  V30 2966 H 280.023 -0.20962 3.137 0
M  V30 2967 N 283.795 -0.628877 1.44509 0
M  V30 2968 C 284.725 -1.75187 1.54376 0
M  V30 2969 C 285.706 -1.65411 0.396618 0
M  V30 2970 O 286.891 -1.84137 0.617031 0
M  V30 2971 C 284.021 -3.13725 1.48976 0
M  V30 2972 C 282.975 -3.38291 2.62189 0
M  V30 2973 C 282.301 -4.76883 2.41841 0
M  V30 2974 C 283.601 -3.30632 4.04326 0
M  V30 2975 H 285.295 -1.67187 2.48373 0
M  V30 2976 H 282.841 -0.802909 1.19538 0
M  V30 2977 H 284.794 -3.92064 1.54478 0
M  V30 2978 H 283.518 -3.22515 0.514961 0
M  V30 2979 H 282.177 -2.62334 2.56079 0
M  V30 2980 H 281.825 -4.82378 1.42548 0
M  V30 2981 H 281.525 -4.94278 3.17747 0
M  V30 2982 H 283.049 -5.57449 2.49165 0
M  V30 2983 H 284.463 -3.98873 4.11793 0
M  V30 2984 H 282.86 -3.59561 4.80454 0
M  V30 2985 H 283.93 -2.28404 4.27738 0
M  V30 2986 N 285.273 -1.31445 -0.869486 0
M  V30 2987 C 286.183 -1.21097 -2.0093 0
M  V30 2988 C 287.199 -0.127584 -1.73532 0
M  V30 2989 O 288.375 -0.345477 -1.98415 0
M  V30 2990 C 285.44 -0.919378 -3.34288 0
M  V30 2991 C 284.501 -2.08971 -3.75006 0
M  V30 2992 C 283.734 -1.81194 -5.02001 0
M  V30 2993 O 283.957 -0.747296 -5.65484 0
M  V30 2994 O 282.891 -2.66883 -5.39497 0
M  V30 2995 H 286.717 -2.16883 -2.12592 0
M  V30 2996 H 284.302 -1.11189 -0.997868 0
M  V30 2997 H 286.184 -0.772625 -4.14257 0
M  V30 2998 H 284.859 0.00844772 -3.23699 0
M  V30 2999 H 283.766 -2.29187 -2.95676 0
M  V30 3000 H 285.099 -2.9998 -3.90221 0
M  V30 3001 N 286.751 1.08385 -1.14413 0
M  V30 3002 C 287.698 2.15311 -0.831265 0
M  V30 3003 C 288.668 1.64751 0.211292 0
M  V30 3004 O 289.853 1.90627 0.0811674 0
M  V30 3005 C 286.993 3.43658 -0.315143 0
M  V30 3006 C 286.106 4.08064 -1.41802 0
M  V30 3007 C 285.241 5.24207 -0.859126 0
M  V30 3008 C 284.28 5.80554 -1.93967 0
M  V30 3009 N 283.417 6.88042 -1.39793 0
M  V30 3010 H 288.257 2.41415 -1.74708 0
M  V30 3011 H 285.794 1.18474 -0.871909 0
M  V30 3012 H 287.752 4.172 0.00230884 0
M  V30 3013 H 286.382 3.17839 0.56378 0
M  V30 3014 H 285.434 3.3228 -1.85187 0
M  V30 3015 H 286.746 4.45962 -2.23427 0
M  V30 3016 H 285.9 6.04689 -0.49359 0
M  V30 3017 H 284.639 4.87699 -0.011932 0
M  V30 3018 H 283.644 4.98725 -2.31415 0
M  V30 3019 H 284.869 6.19121 -2.79046 0
M  V30 3020 H 282.815 6.53493 -0.572919 0
M  V30 3021 H 282.732 7.24767 -2.15054 0
M  V30 3022 H 284 7.72255 -1.0603 0
M  V30 3023 N 288.23 0.939286 1.26551 0
M  V30 3024 C 289.18 0.418284 2.2413 0
M  V30 3025 C 290.164 -0.483935 1.5345 0
M  V30 3026 O 291.356 -0.319489 1.74093 0
M  V30 3027 C 288.485 -0.31709 3.41832 0
M  V30 3028 C 287.571 0.602311 4.19801 0
M  V30 3029 N 287.962 1.72726 4.75394 0
M  V30 3030 C 286.26 0.407534 4.44134 0
M  V30 3031 C 286.961 2.30004 5.34297 0
M  V30 3032 N 285.937 1.58828 5.1988 0
M  V30 3033 H 289.739 1.27705 2.64705 0
M  V30 3034 H 287.253 0.794929 1.41614 0
M  V30 3035 H 289.25 -0.707364 4.10855 0
M  V30 3036 H 287.91 -1.17264 3.02786 0
M  V30 3037 H 288.921 2.10944 4.72994 0
M  V30 3038 H 285.598 -0.406406 4.15517 0
M  V30 3039 H 286.988 3.24778 5.88191 0
M  V30 3040 N 289.708 -1.40897 0.706093 0
M  V30 3041 C 291.124 -1.55042 0.37869 0
M  V30 3042 C 291.324 -1.67944 -1.11342 0
M  V30 3043 O 290.38 -1.66372 -1.89938 0
M  V30 3044 C 291.693 -2.78398 1.13643 0
M  V30 3045 C 293.241 -2.92206 1.12181 0
M  V30 3046 C 293.716 -4.18463 1.86152 0
M  V30 3047 N 295.207 -4.25443 1.83173 0
M  V30 3048 C 295.942 -5.2202 2.37239 0
M  V30 3049 N 295.438 -6.24563 2.99821 0
M  V30 3050 N 297.231 -5.14033 2.27435 0
M  V30 3051 H 289.382 -1.30769 1.67372 0
M  V30 3052 H 291.645 -0.631653 0.706907 0
M  V30 3053 H 291.351 -2.7511 2.19106 0
M  V30 3054 H 291.225 -3.70228 0.721853 0
M  V30 3055 H 293.612 -2.95004 0.0754171 0
M  V30 3056 H 293.693 -2.01521 1.57554 0
M  V30 3057 H 293.337 -4.16427 2.90776 0
M  V30 3058 H 293.267 -5.08141 1.38206 0
M  V30 3059 H 295.758 -3.51976 1.37556 0
M  V30 3060 H 296.071 -6.94665 3.38616 0
M  V30 3061 H 294.416 -6.25035 3.03902 0
M  V30 3062 H 297.607 -4.3285 1.78208 0
M  V30 3063 H 297.78 -5.89129 2.69873 0
M  V30 3064 N 291.186 -0.45159 -1.50991 0
M  V30 3065 C 292.411 0.110667 -2.07105 0
M  V30 3066 C 292.836 1.3446 -1.31538 0
M  V30 3067 O 292.194 1.77743 -0.357365 0
M  V30 3068 C 292.242 0.397238 -3.58405 0
M  V30 3069 O 291.346 1.48124 -3.84881 0
M  V30 3070 H 290.687 -0.00439271 -0.663985 0
M  V30 3071 H 293.217 -0.637026 -1.9443 0
M  V30 3072 H 293.227 0.64351 -4.02893 0
M  V30 3073 H 291.902 -0.504553 -4.12828 0
M  V30 3074 H 290.479 1.22381 -3.52246 0
M  V30 3075 N 292.664 1.56529 -0.183458 0
M  V30 3076 C 293.889 2.02064 0.467428 0
M  V30 3077 C 294.314 1.06282 1.55196 0
M  V30 3078 O 293.672 0.0443565 1.81246 0
M  V30 3079 C 293.72 3.46122 1.01153 0
M  V30 3080 O 292.824 3.53437 2.12499 0
M  V30 3081 H 292.165 0.654726 0.110588 0
M  V30 3082 H 294.695 2.02521 -0.290917 0
M  V30 3083 H 294.705 3.85676 1.33108 0
M  V30 3084 H 293.38 4.15331 0.217533 0
M  V30 3085 H 291.957 3.2575 1.81497 0
M  V30 3086 N 294.142 -0.090211 1.57342 0
M  V30 3087 C 295.367 -0.810082 1.90925 0
M  V30 3088 C 295.792 -1.71248 0.778187 0
M  V30 3089 O 295.15 -1.79278 -0.269991 0
M  V30 3090 C 295.198 -1.59529 3.23393 0
M  V30 3091 O 294.302 -2.70461 3.11327 0
M  V30 3092 H 293.643 -0.222231 0.625707 0
M  V30 3093 H 296.173 -0.0639716 2.045 0
M  V30 3094 H 296.183 -1.97847 3.5682 0
M  V30 3095 H 294.858 -0.933055 4.05299 0
M  V30 3096 H 293.435 -2.35135 2.89423 0
M  V30 3097 N 295.62 -1.53406 -0.361157 0
M  V30 3098 C 296.848 -1.73717 -1.12383 0
M  V30 3099 C 297.263 -0.468161 -1.82904 0
M  V30 3100 O 296.62 0.559198 -1.73722 0
M  V30 3101 C 296.671 -2.90558 -2.15078 0
M  V30 3102 O 296.392 -4.12549 -1.47428 0
M  V30 3103 C 297.893 -3.22777 -3.03858 0
M  V30 3104 H 295.113 -0.580896 -0.335858 0
M  V30 3105 H 297.657 -2.00167 -0.418728 0
M  V30 3106 H 295.812 -2.66489 -2.8118 0
M  V30 3107 H 296.226 -4.78009 -2.15887 0
M  V30 3108 H 297.7 -4.07927 -3.71887 0
M  V30 3109 H 298.177 -2.38329 -3.68912 0
M  V30 3110 H 298.783 -3.48787 -2.43367 0
M  V30 3111 N 297.098 0.621204 -1.44841 0
M  V30 3112 C 298.326 1.40752 -1.51646 0
M  V30 3113 C 298.741 1.88246 -0.144549 0
M  V30 3114 O 298.098 1.61422 0.851416 0
M  V30 3115 C 298.149 2.62119 -2.4895 0
M  V30 3116 O 297.87 2.16602 -3.80808 0
M  V30 3117 C 299.371 3.55135 -2.65319 0
M  V30 3118 H 296.591 0.431325 -0.514004 0
M  V30 3119 H 299.135 0.758835 -1.899 0
M  V30 3120 H 297.29 3.23058 -2.13805 0
M  V30 3121 H 297.704 2.95358 -4.33433 0
M  V30 3122 H 299.178 4.36874 -3.37409 0
M  V30 3123 H 299.655 4.04592 -1.70886 0
M  V30 3124 H 300.261 3.00058 -3.01405 0
M  V30 3125 N 298.576 1.31904 0.862503 0
M  V30 3126 C 299.486 1.22161 2.00285 0
M  V30 3127 C 300.502 0.136785 1.73462 0
M  V30 3128 O 301.678 0.355994 1.98229 0
M  V30 3129 C 298.743 0.937093 3.33796 0
M  V30 3130 C 297.804 2.10957 3.73893 0
M  V30 3131 C 297.037 1.83853 5.01033 0
M  V30 3132 O 297.26 0.777274 5.65079 0
M  V30 3133 O 296.194 2.69741 5.38074 0
M  V30 3134 H 300.02 2.18008 2.11439 0
M  V30 3135 H 297.605 1.11716 0.991957 0
M  V30 3136 H 299.487 0.794583 4.13841 0
M  V30 3137 H 298.162 0.00871894 3.23699 0
M  V30 3138 H 297.069 2.30752 2.94456 0
M  V30 3139 H 298.402 3.02046 3.88625 0
M  V30 3140 N 300.054 -1.07777 1.14986 0
M  V30 3141 C 301.303 -1.79669 0.916617 0
M  V30 3142 C 301.616 -1.87474 -0.557917 0
M  V30 3143 O 302.822 -2.55845 -0.908617 0
M  V30 3144 C 301.278 -3.22848 1.59051 0
M  V30 3145 C 300.886 -3.23257 3.10176 0
M  V30 3146 C 302.63 -3.99379 1.43864 0
M  V30 3147 C 300.537 -4.61063 3.70372 0
M  V30 3148 H 299.467 -0.673349 0.33929 0
M  V30 3149 H 302.118 -1.21003 1.37951 0
M  V30 3150 H 300.5 -3.8168 1.0553 0
M  V30 3151 H 301.674 -2.74095 3.70417 0
M  V30 3152 H 299.989 -2.60222 3.25074 0
M  V30 3153 H 302.586 -5.0122 1.86232 0
M  V30 3154 H 302.929 -4.14511 0.385564 0
M  V30 3155 H 303.462 -3.47032 1.94457 0
M  V30 3156 H 300.201 -4.51135 4.7556 0
M  V30 3157 H 299.721 -5.1048 3.14913 0
M  V30 3158 H 301.4 -5.30034 3.71043 0
M  V30 3159 N 301.532 -0.945985 -1.26051 0
M  V30 3160 C 302.442 -0.465633 -2.29933 0
M  V30 3161 C 303.458 0.462761 -1.67733 0
M  V30 3162 O 304.634 0.341118 -1.9849 0
M  V30 3163 C 301.699 0.256994 -3.45746 0
M  V30 3164 C 300.76 -0.708549 -4.23412 0
M  V30 3165 C 299.993 -0.0203135 -5.33696 0
M  V30 3166 O 300.216 1.19571 -5.57726 0
M  V30 3167 O 299.15 -0.701459 -5.97799 0
M  V30 3168 H 302.976 -1.32866 -2.73094 0
M  V30 3169 H 300.561 -0.712071 -1.31339 0
M  V30 3170 H 302.443 0.663852 -4.16138 0
M  V30 3171 H 301.118 1.09533 -3.04605 0
M  V30 3172 H 300.025 -1.16545 -3.55483 0
M  V30 3173 H 301.358 -1.51465 -4.68315 0
M  V30 3174 N 303.011 1.40521 -0.713556 0
M  V30 3175 C 304.26 2.00155 -0.249192 0
M  V30 3176 C 304.573 1.57224 1.16362 0
M  V30 3177 O 305.779 2.09542 1.72639 0
M  V30 3178 C 304.235 3.5773 -0.3946 0
M  V30 3179 C 303.843 4.09635 -1.81392 0
M  V30 3180 C 305.587 4.24499 0.00907364 0
M  V30 3181 C 303.494 5.59707 -1.91003 0
M  V30 3182 H 302.424 0.74868 -0.0894114 0
M  V30 3183 H 305.075 1.60784 -0.884352 0
M  V30 3184 H 303.457 3.94792 0.30911 0
M  V30 3185 H 304.631 3.83955 -2.54785 0
M  V30 3186 H 302.946 3.55456 -2.16888 0
M  V30 3187 H 305.543 5.34683 -0.0420404 0
M  V30 3188 H 305.886 4.02824 1.05065 0
M  V30 3189 H 306.419 3.92536 -0.645007 0
M  V30 3190 H 303.158 5.86234 -2.93275 0
M  V30 3191 H 302.678 5.87258 -1.22019 0
M  V30 3192 H 304.357 6.24776 -1.6812 0
M  V30 3193 N 304.489 0.459591 1.5075 0
M  V30 3194 C 305.738 -0.100971 2.01447 0
M  V30 3195 C 306.051 -1.41816 1.34713 0
M  V30 3196 O 307.257 -2.06299 1.76502 0
M  V30 3197 C 305.713 -0.23047 3.59161 0
M  V30 3198 C 305.321 1.0776 4.34847 0
M  V30 3199 C 307.065 -0.743608 4.17936 0
M  V30 3200 C 304.972 0.91253 5.84317 0
M  V30 3201 H 303.902 -0.0415102 0.752856 0
M  V30 3202 H 306.553 0.592742 1.73663 0
M  V30 3203 H 304.935 -0.987703 3.83485 0
M  V30 3204 H 306.109 1.8449 4.22256 0
M  V30 3205 H 304.424 1.52097 3.87628 0
M  V30 3206 H 307.021 -0.883959 5.27343 0
M  V30 3207 H 307.364 -1.73196 3.78562 0
M  V30 3208 H 307.897 -0.04408 3.97776 0
M  V30 3209 H 304.636 1.87391 6.28144 0
M  V30 3210 H 304.156 0.185422 5.99513 0
M  V30 3211 H 305.835 0.574547 6.44444 0
M  V30 3212 N 305.967 -1.56429 0.191757 0
M  V30 3213 C 306.93 -2.17707 -0.716688 0
M  V30 3214 C 307.93 -1.13061 -1.14341 0
M  V30 3215 O 309.12 -1.38464 -1.05704 0
M  V30 3216 C 306.252 -2.77644 -1.97804 0
M  V30 3217 H 307.445 -2.99342 -0.1829 0
M  V30 3218 H 304.998 -1.56193 -0.0578566 0
M  V30 3219 H 305.733 -1.99799 -2.55443 0
M  V30 3220 H 305.518 -3.54246 -1.68083 0
M  V30 3221 H 307.008 -3.24708 -2.62592 0
M  V30 3222 N 307.445 0.0818655 -1.57387 0
M  V30 3223 C 308.856 0.634871 -1.75574 0
M  V30 3224 C 309.207 1.78435 -0.815809 0
M  V30 3225 O 308.332 2.164 0.0025366 0
M  V30 3226 C 308.927 1.15845 -3.18379 0
M  V30 3227 C 307.486 1.65741 -3.37945 0
M  V30 3228 C 306.633 0.572549 -2.71325 0
M  V30 3229 H 309.584 -0.144268 -1.58043 0
M  V30 3230 H 309.605 2.02751 -3.21982 0
M  V30 3231 H 309.117 0.321631 -3.86765 0
M  V30 3232 H 307.218 2.51781 -2.74658 0
M  V30 3233 H 307.331 1.74129 -4.46336 0
M  V30 3234 H 305.695 1.01518 -2.33594 0
M  V30 3235 H 306.478 -0.253918 -3.4236 0
M  V30 3236 N 308.923 1.53595 0.353017 0
M  V30 3237 C 309.873 1.77299 1.43349 0
M  V30 3238 C 310.857 0.627884 1.48143 0
M  V30 3239 O 312.049 0.88697 1.53173 0
M  V30 3240 C 309.178 1.97757 2.80619 0
M  V30 3241 C 308.264 3.18305 2.80254 0
M  V30 3242 N 308.655 4.39967 2.49526 0
M  V30 3243 C 306.953 3.19283 3.11407 0
M  V30 3244 C 307.654 5.21772 2.57156 0
M  V30 3245 N 306.63 4.58269 2.92388 0
M  V30 3246 H 310.432 2.68963 1.18474 0
M  V30 3247 H 307.946 1.52391 0.561306 0
M  V30 3248 H 309.943 2.1287 3.58458 0
M  V30 3249 H 308.603 1.07329 3.06448 0
M  V30 3250 H 309.614 4.67482 2.22893 0
M  V30 3251 H 306.291 2.3879 3.4247 0
M  V30 3252 H 307.681 6.2885 2.36638 0
M  V30 3253 N 310.401 -0.613514 1.45168 0
M  V30 3254 C 311.348 -1.72456 1.53387 0
M  V30 3255 C 312.318 -1.6169 0.380191 0
M  V30 3256 O 313.503 -1.81356 0.592836 0
M  V30 3257 C 310.643 -3.10753 1.50088 0
M  V30 3258 C 309.756 -3.32368 2.75963 0
M  V30 3259 C 308.891 -4.60737 2.64376 0
M  V30 3260 C 307.93 -4.7559 3.85332 0
M  V30 3261 N 307.067 -5.95253 3.72315 0
M  V30 3262 H 311.907 -1.64768 2.48305 0
M  V30 3263 H 309.444 -0.803503 1.23216 0
M  V30 3264 H 311.402 -3.90758 1.46164 0
M  V30 3265 H 310.032 -3.17413 0.587243 0
M  V30 3266 H 309.084 -2.4618 2.89999 0
M  V30 3267 H 310.396 -3.39218 3.65695 0
M  V30 3268 H 309.55 -5.48928 2.58385 0
M  V30 3269 H 308.289 -4.56275 1.72233 0
M  V30 3270 H 307.294 -3.85824 3.91688 0
M  V30 3271 H 308.519 -4.81854 4.78533 0
M  V30 3272 H 306.465 -5.91847 2.82937 0
M  V30 3273 H 306.382 -6.03236 4.55677 0
M  V30 3274 H 307.65 -6.85958 3.70246 0
M  V30 3275 N 311.879 -1.3236 -0.855495 0
M  V30 3276 C 313.125 -1.23054 -1.612 0
M  V30 3277 C 313.458 0.207404 -1.93089 0
M  V30 3278 O 312.733 1.14432 -1.57275 0
M  V30 3279 C 313.016 -2.08937 -2.93287 0
M  V30 3280 C 312.869 -3.61105 -2.68185 0
M  V30 3281 C 314.188 -1.94986 -3.94549 0
M  V30 3282 H 311.307 -0.448364 -0.584926 0
M  V30 3283 H 313.949 -1.62297 -0.987917 0
M  V30 3284 H 312.099 -1.75599 -3.46551 0
M  V30 3285 H 313.771 -4.04652 -2.21483 0
M  V30 3286 H 312.014 -3.83813 -2.02164 0
M  V30 3287 H 312.685 -4.16522 -3.62234 0
M  V30 3288 H 315.161 -2.24189 -3.5054 0
M  V30 3289 H 314.037 -2.57356 -4.84829 0
M  V30 3290 H 314.298 -0.917263 -4.3248 0
M  V30 3291 N 313.357 1.07166 -1.15556 0
M  V30 3292 C 314.603 1.80065 -0.932984 0
M  V30 3293 C 314.936 1.86586 0.53845 0
M  V30 3294 O 314.211 1.35098 1.39924 0
M  V30 3295 C 314.494 3.25022 -1.55025 0
M  V30 3296 C 314.347 3.26634 -3.09242 0
M  V30 3297 C 315.666 4.22341 -1.2376 0
M  V30 3298 H 312.785 0.653697 -0.340366 0
M  V30 3299 H 315.427 1.25389 -1.4275 0
M  V30 3300 H 313.577 3.71712 -1.12972 0
M  V30 3301 H 315.249 2.88173 -3.60214 0
M  V30 3302 H 313.492 2.65539 -3.43033 0
M  V30 3303 H 314.163 4.28854 -3.47546 0
M  V30 3304 H 316.639 3.8405 -1.60139 0
M  V30 3305 H 315.515 5.22053 -1.69564 0
M  V30 3306 H 315.776 4.41828 -0.154938 0
M  V30 3307 N 314.835 0.952656 1.25548 0
M  V30 3308 C 315.745 0.47782 2.29682 0
M  V30 3309 C 316.761 -0.453859 1.67977 0
M  V30 3310 O 317.937 -0.330587 1.98668 0
M  V30 3311 C 315.002 -0.238655 3.45878 0
M  V30 3312 C 314.063 0.730994 4.23031 0
M  V30 3313 C 313.296 0.0486165 5.33678 0
M  V30 3314 O 313.519 -1.16612 5.58353 0
M  V30 3315 O 312.453 0.733152 5.97418 0
M  V30 3316 H 316.279 1.34312 2.72386 0
M  V30 3317 H 313.864 0.719026 1.30959 0
M  V30 3318 H 315.746 -0.641774 4.16484 0
M  V30 3319 H 314.421 -1.07916 3.05181 0
M  V30 3320 H 313.328 1.18428 3.5486 0
M  V30 3321 H 314.661 1.53946 4.67506 0
M  V30 3322 N 316.313 -1.40141 0.720998 0
M  V30 3323 C 317.729 -1.54632 0.395113 0
M  V30 3324 C 317.929 -1.69115 -1.09555 0
M  V30 3325 O 316.985 -1.68377 -1.88163 0
M  V30 3326 C 318.298 -2.77177 1.1659 0
M  V30 3327 C 319.846 -2.91 1.15274 0
M  V30 3328 C 320.321 -4.16465 1.90579 0
M  V30 3329 N 321.812 -4.23476 1.87675 0
M  V30 3330 C 322.547 -5.19475 2.42762 0
M  V30 3331 N 322.043 -6.21348 3.06428 0
M  V30 3332 N 323.836 -5.11592 2.32874 0
M  V30 3333 H 315.987 -1.28986 1.68749 0
M  V30 3334 H 318.25 -0.62412 0.713567 0
M  V30 3335 H 317.956 -2.72771 2.22011 0
M  V30 3336 H 317.83 -3.69442 0.76108 0
M  V30 3337 H 320.217 -2.94907 0.106702 0
M  V30 3338 H 320.298 -1.99838 1.59682 0
M  V30 3339 H 319.942 -4.1332 2.95176 0
M  V30 3340 H 319.872 -5.06646 1.43587 0
M  V30 3341 H 322.363 -3.50497 1.41281 0
M  V30 3342 H 322.676 -6.91034 3.45965 0
M  V30 3343 H 321.021 -6.21777 3.10514 0
M  V30 3344 H 324.212 -4.30936 1.82789 0
M  V30 3345 H 324.385 -5.86233 2.76106 0
M  V30 3346 N 317.792 -0.46758 -1.50504 0
M  V30 3347 C 319.02 0.0864133 -2.06719 0
M  V30 3348 C 319.435 1.33819 -1.33184 0
M  V30 3349 O 318.792 1.78061 -0.400083 0
M  V30 3350 C 318.843 0.378079 -3.59517 0
M  V30 3351 O 318.564 -0.824044 -4.3028 0
M  V30 3352 C 320.065 0.979426 -4.32345 0
M  V30 3353 H 317.285 -0.00551697 -0.670977 0
M  V30 3354 H 319.829 -0.655354 -1.93715 0
M  V30 3355 H 317.984 1.06977 -3.72337 0
M  V30 3356 H 318.398 -0.566518 -5.21432 0
M  V30 3357 H 319.872 1.1333 -5.40241 0
M  V30 3358 H 320.349 1.9686 -3.9261 0
M  V30 3359 H 320.955 0.326216 -4.24047 0
M  V30 3360 N 319.27 1.56325 -0.20005 0
M  V30 3361 C 320.202 2.16555 0.750771 0
M  V30 3362 C 321.215 1.12871 1.1732 0
M  V30 3363 O 322.404 1.39943 1.10807 0
M  V30 3364 C 319.504 2.71684 2.02586 0
M  V30 3365 C 318.677 4.00321 1.76244 0
M  V30 3366 C 317.736 4.40227 2.88248 0
M  V30 3367 O 316.762 5.07552 2.57642 0
M  V30 3368 N 317.964 4.04138 4.16717 0
M  V30 3369 H 320.729 2.98772 0.235685 0
M  V30 3370 H 318.29 1.6189 -0.0182594 0
M  V30 3371 H 320.282 2.95363 2.76664 0
M  V30 3372 H 318.852 1.93893 2.45202 0
M  V30 3373 H 318.072 3.84723 0.85919 0
M  V30 3374 H 319.36 4.84279 1.56048 0
M  V30 3375 H 318.758 3.49993 4.44434 0
M  V30 3376 H 317.315 4.32756 4.87407 0
M  V30 3377 N 320.748 -0.0735177 1.57428 0
M  V30 3378 C 321.696 -1.10628 2.04607 0
M  V30 3379 C 322.69 -1.40181 0.951088 0
M  V30 3380 O 323.896 -1.39608 1.1362 0
M  V30 3381 H 320.271 -0.374088 0.652351 0
M  V30 3382 H 322.242 -0.682218 2.90497 0
M  V30 3383 C 320.991 -2.41212 2.50423 0
M  V30 3384 H 320.314 -2.19322 3.34272 0
M  V30 3385 H 321.754 -3.11927 2.87189 0
M  V30 3386 C 320.213 -3.0705 1.38644 0
M  V30 3387 O 320.743 -3.95056 0.727582 0
M  V30 3388 N 318.949 -2.67645 1.132 0
M  V30 3389 H 318.496 -1.96169 1.66959 0
M  V30 3390 H 318.454 -3.1202 0.386147 0
M  V30 3391 N 322.226 -1.5378 -0.344866 0
M  V30 3392 C 323.472 -1.71216 -1.08687 0
M  V30 3393 C 323.805 -0.473281 -1.88345 0
M  V30 3394 O 323.08 0.52968 -1.87149 0
M  V30 3395 C 323.363 -2.97486 -2.02914 0
M  V30 3396 C 323.216 -4.31579 -1.26727 0
M  V30 3397 C 324.535 -3.19422 -3.0275 0
M  V30 3398 H 321.654 -0.62301 -0.393735 0
M  V30 3399 H 324.296 -1.8645 -0.365563 0
M  V30 3400 H 322.446 -2.84629 -2.64421 0
M  V30 3401 H 324.118 -4.56284 -0.67845 0
M  V30 3402 H 322.361 -4.30049 -0.569273 0
M  V30 3403 H 323.032 -5.16106 -1.95803 0
M  V30 3404 H 325.508 -3.316 -2.51357 0
M  V30 3405 H 324.384 -4.09169 -3.65885 0
M  V30 3406 H 324.645 -2.35656 -3.74057 0
M  V30 3407 N 323.704 0.605807 -1.45491 0
M  V30 3408 C 324.932 1.39136 -1.5313 0
M  V30 3409 C 325.347 1.88082 -0.164507 0
M  V30 3410 O 324.704 1.62316 0.834247 0
M  V30 3411 C 324.755 2.59463 -2.51716 0
M  V30 3412 O 324.476 2.12551 -3.83084 0
M  V30 3413 C 325.977 3.52301 -2.6907 0
M  V30 3414 H 323.197 0.425849 -0.51855 0
M  V30 3415 H 325.741 0.73865 -1.90694 0
M  V30 3416 H 323.896 3.20772 -2.17219 0
M  V30 3417 H 324.31 2.90744 -4.36541 0
M  V30 3418 H 325.784 4.33271 -3.42024 0
M  V30 3419 H 326.261 4.02757 -1.75167 0
M  V30 3420 H 326.867 2.96845 -3.04571 0
M  V30 3421 N 325.182 1.32811 0.848464 0
M  V30 3422 C 326.092 1.24278 1.98978 0
M  V30 3423 C 327.108 0.155176 1.73307 0
M  V30 3424 O 328.284 0.376999 1.9784 0
M  V30 3425 C 325.349 0.972444 3.32783 0
M  V30 3426 C 324.41 2.14911 3.71634 0
M  V30 3427 C 323.643 1.89157 4.99054 0
M  V30 3428 O 323.866 0.837165 5.64223 0
M  V30 3429 O 322.8 2.75433 5.35183 0
M  V30 3430 H 326.626 2.20238 2.09115 0
M  V30 3431 H 324.211 1.12762 0.980052 0
M  V30 3432 H 326.093 0.838432 4.12975 0
M  V30 3433 H 324.768 0.043051 3.23671 0
M  V30 3434 H 323.675 2.33862 2.91992 0
M  V30 3435 H 325.008 3.06151 3.85399 0
M  V30 3436 N 326.66 -1.06551 1.16123 0
M  V30 3437 C 327.607 -2.13961 0.865414 0
M  V30 3438 C 328.577 -1.65066 -0.185055 0
M  V30 3439 O 329.762 -1.90732 -0.05083 0
M  V30 3440 C 326.902 -3.43113 0.369776 0
M  V30 3441 C 326.015 -4.05756 1.48276 0
M  V30 3442 C 325.15 -5.22773 0.942414 0
M  V30 3443 C 324.189 -5.77395 2.03179 0
M  V30 3444 N 323.326 -6.85731 1.50721 0
M  V30 3445 H 328.166 -2.38605 1.78527 0
M  V30 3446 H 325.703 -1.17072 0.890646 0
M  V30 3447 H 327.661 -4.17151 0.0640643 0
M  V30 3448 H 326.291 -3.18695 -0.513143 0
M  V30 3449 H 325.343 -3.29292 1.9045 0
M  V30 3450 H 326.655 -4.42351 2.30493 0
M  V30 3451 H 325.809 -6.03827 0.589729 0
M  V30 3452 H 324.548 -4.87618 0.0895191 0
M  V30 3453 H 323.553 -4.94981 2.3932 0
M  V30 3454 H 324.778 -6.14603 2.8886 0
M  V30 3455 H 322.724 -6.52499 0.676811 0
M  V30 3456 H 322.641 -7.21254 2.26557 0
M  V30 3457 H 323.909 -7.7047 1.18303 0
M  V30 3458 N 328.138 -0.959301 -1.25041 0
M  V30 3459 C 329.384 -0.617525 -1.9317 0
M  V30 3460 C 329.717 0.843981 -1.74902 0
M  V30 3461 O 328.992 1.60615 -1.09696 0
M  V30 3462 C 329.275 -0.982736 -3.46431 0
M  V30 3463 C 329.128 -2.50032 -3.73904 0
M  V30 3464 C 330.447 -0.511176 -4.37121 0
M  V30 3465 H 327.566 -0.22582 -0.701552 0
M  V30 3466 H 330.208 -1.19679 -1.4757 0
M  V30 3467 H 328.358 -0.489806 -3.854 0
M  V30 3468 H 330.03 -3.06737 -3.44544 0
M  V30 3469 H 328.273 -2.93598 -3.19348 0
M  V30 3470 H 328.944 -2.70635 -4.81103 0
M  V30 3471 H 331.42 -0.934075 -4.0548 0
M  V30 3472 H 330.296 -0.795361 -5.43107 0
M  V30 3473 H 330.557 0.588834 -4.38161 0
M  V30 3474 N 329.616 1.39756 -0.72842 0
M  V30 3475 C 330.844 2.04948 -0.283528 0
M  V30 3476 C 331.259 1.54908 1.0793 0
M  V30 3477 O 330.616 0.711135 1.68075 0
M  V30 3478 C 330.667 3.60498 -0.268957 0
M  V30 3479 O 330.388 4.08695 -1.57798 0
M  V30 3480 C 331.889 4.4288 0.192912 0
M  V30 3481 H 329.109 0.659243 -0.125056 0
M  V30 3482 H 331.653 1.78927 -0.990226 0
M  V30 3483 H 329.808 3.85444 0.388801 0
M  V30 3484 H 330.222 5.02977 -1.48709 0
M  V30 3485 H 331.696 5.51791 0.151952 0
M  V30 3486 H 332.173 4.21418 1.23708 0
M  V30 3487 H 332.779 4.23069 -0.435039 0
M  V30 3488 N 331.094 0.475555 1.50254 0
M  V30 3489 C 332.026 -0.352649 2.26471 0
M  V30 3490 C 333.039 -0.953165 1.3198 0
M  V30 3491 O 334.228 -0.840815 1.57457 0
M  V30 3492 C 331.328 -1.50902 3.0345 0
M  V30 3493 C 330.501 -1.02047 4.25329 0
M  V30 3494 C 329.56 -2.05142 4.84565 0
M  V30 3495 O 328.586 -1.63023 5.45355 0
M  V30 3496 N 329.788 -3.37987 4.71959 0
M  V30 3497 H 332.553 0.300767 2.98187 0
M  V30 3498 H 330.114 0.306598 1.5897 0
M  V30 3499 H 332.106 -2.19572 3.39956 0
M  V30 3500 H 330.676 -2.06705 2.34504 0
M  V30 3501 H 329.896 -0.159507 3.93877 0
M  V30 3502 H 331.184 -0.672061 5.04342 0
M  V30 3503 H 330.582 -3.74913 4.23623 0
M  V30 3504 H 329.139 -4.02443 5.12721 0
M  V30 3505 N 332.573 -1.56217 0.208337 0
M  V30 3506 C 333.819 -1.98242 -0.427552 0
M  V30 3507 C 334.152 -1.09554 -1.60348 0
M  V30 3508 O 333.427 -0.15035 -1.93918 0
M  V30 3509 C 333.71 -3.4931 -0.874907 0
M  V30 3510 C 333.563 -4.48773 0.303751 0
M  V30 3511 C 334.882 -4.04424 -1.73577 0
M  V30 3512 H 332.001 -0.720744 -0.153936 0
M  V30 3513 H 334.643 -1.87586 0.30192 0
M  V30 3514 H 332.793 -3.58522 -1.49648 0
M  V30 3515 H 334.465 -4.51586 0.941682 0
M  V30 3516 H 332.708 -4.23194 0.953375 0
M  V30 3517 H 333.379 -5.51976 -0.0519883 0
M  V30 3518 H 335.855 -3.98075 -1.21143 0
M  V30 3519 H 334.731 -5.1047 -2.01771 0
M  V30 3520 H 334.992 -3.50494 -2.69456 0
M  V30 3521 N 334.051 0.0651679 -1.57465 0
M  V30 3522 C 334.981 1.07693 -2.07182 0
M  V30 3523 C 335.962 1.39962 -0.966673 0
M  V30 3524 O 337.147 1.49475 -1.2398 0
M  V30 3525 C 334.277 2.3885 -2.52127 0
M  V30 3526 C 333.231 2.20917 -3.66579 0
M  V30 3527 C 332.557 3.57515 -3.97601 0
M  V30 3528 C 333.857 1.62493 -4.9638 0
M  V30 3529 H 335.551 0.663199 -2.91962 0
M  V30 3530 H 333.097 0.317569 -1.40455 0
M  V30 3531 H 335.05 3.09928 -2.85522 0
M  V30 3532 H 333.774 2.82215 -1.64384 0
M  V30 3533 H 332.433 1.52279 -3.33477 0
M  V30 3534 H 332.081 3.98463 -3.06979 0
M  V30 3535 H 331.781 3.46353 -4.74672 0
M  V30 3536 H 333.305 4.30013 -4.33499 0
M  V30 3537 H 334.719 2.23445 -5.27963 0
M  V30 3538 H 333.116 1.62009 -5.77818 0
M  V30 3539 H 334.186 0.587041 -4.81333 0
M  V30 3540 N 335.529 1.53961 0.336706 0
M  V30 3541 C 336.754 1.75797 1.10046 0
M  V30 3542 C 337.179 0.498985 1.81361 0
M  V30 3543 O 336.537 -0.548769 1.72795 0
M  V30 3544 C 336.585 2.94257 2.08436 0
M  V30 3545 O 335.689 2.64883 3.16087 0
M  V30 3546 H 335.03 0.582936 0.317934 0
M  V30 3547 H 337.56 2.00945 0.38501 0
M  V30 3548 H 337.57 3.21237 2.51537 0
M  V30 3549 H 336.245 3.85564 1.55927 0
M  V30 3550 H 334.822 2.48812 2.77753 0
M  V30 3551 N 337.007 -0.598083 1.45811 0
M  V30 3552 C 337.937 -1.71873 1.58057 0
M  V30 3553 C 338.918 -1.64533 0.431615 0
M  V30 3554 O 340.103 -1.82787 0.65595 0
M  V30 3555 C 337.233 -3.10495 1.55597 0
M  V30 3556 C 336.187 -3.32654 2.69305 0
M  V30 3557 C 335.513 -4.71646 2.51902 0
M  V30 3558 C 336.813 -3.21981 4.11248 0
M  V30 3559 H 338.507 -1.61881 2.51863 0
M  V30 3560 H 336.053 -0.777372 1.21214 0
M  V30 3561 H 338.006 -3.88699 1.6276 0
M  V30 3562 H 336.73 -3.2135 0.583255 0
M  V30 3563 H 335.389 -2.56843 2.61586 0
M  V30 3564 H 335.037 -4.79246 1.52748 0
M  V30 3565 H 334.737 -4.87426 3.2816 0
M  V30 3566 H 336.261 -5.52038 2.60933 0
M  V30 3567 H 337.675 -3.90049 4.20161 0
M  V30 3568 H 336.072 -3.49289 4.87972 0
M  V30 3569 H 337.142 -2.1928 4.32486 0
M  V30 3570 N 338.485 -1.33259 -0.841409 0
M  V30 3571 C 339.733 -1.24326 -1.59334 0
M  V30 3572 C 340.054 0.191564 -1.94057 0
M  V30 3573 O 339.324 1.11967 -1.60749 0
M  V30 3574 H 337.904 -0.457174 -0.590763 0
M  V30 3575 H 340.566 -1.66947 -1.00571 0
M  V30 3576 H 339.662 -1.8352 -2.52442 0
M  V30 3577 N 339.963 1.05934 -1.16686 0
M  V30 3578 C 340.926 2.11669 -0.879144 0
M  V30 3579 C 341.926 1.60294 0.127445 0
M  V30 3580 O 343.116 1.7389 -0.103865 0
M  V30 3581 C 340.248 3.39438 -0.315425 0
M  V30 3582 H 341.441 2.38626 -1.81653 0
M  V30 3583 H 338.994 1.22058 -0.976299 0
M  V30 3584 H 339.729 3.18132 0.629468 0
M  V30 3585 H 339.514 3.78034 -1.04079 0
M  V30 3586 H 341.004 4.17391 -0.132189 0
M  V30 3587 N 341.441 0.965919 1.2453 0
M  V30 3588 C 342.718 0.543777 1.87889 0
M  V30 3589 C 343.098 -0.97909 1.87021 0
M  V30 3590 O 342.446 -1.84969 1.3416 0
M  V30 3591 C 342.656 1.13327 3.30088 0
M  V30 3592 C 344.004 1.21707 4.06783 0
M  V30 3593 O 345.028 1.08566 3.39252 0
M  V30 3594 O 343.887 1.42456 5.27606 0
M  V30 3595 H 340.981 0.181054 0.806938 0
M  V30 3596 H 343.527 1.06007 1.32516 0
M  V30 3597 H 342.299 2.17612 3.25209 0
M  V30 3598 H 341.922 0.600911 3.93033 0
M  V30 3599 N 342.919 -1.39368 0.735821 0
M  V30 3600 C 344.165 -2.00794 0.284544 0
M  V30 3601 C 344.498 -1.58255 -1.12557 0
M  V30 3602 O 343.773 -0.811819 -1.76748 0
M  V30 3603 C 344.056 -3.58011 0.387337 0
M  V30 3604 C 343.909 -4.10566 1.83728 0
M  V30 3605 C 345.228 -4.395 -0.22975 0
M  V30 3606 H 342.347 -0.729501 0.104866 0
M  V30 3607 H 344.989 -1.65564 0.93213 0
M  V30 3608 H 343.139 -3.88154 -0.164006 0
M  V30 3609 H 344.811 -3.91139 2.44556 0
M  V30 3610 H 343.054 -3.64095 2.35833 0
M  V30 3611 H 343.725 -5.19702 1.86047 0
M  V30 3612 H 346.201 -4.15406 0.240257 0
M  V30 3613 H 345.077 -5.48752 -0.127485 0
M  V30 3614 H 345.338 -4.22062 -1.3159 0
M  V30 3615 N 344.397 -0.483516 -1.5 0
M  V30 3616 C 345.327 0.293829 -2.31644 0
M  V30 3617 C 346.308 0.978864 -1.39112 0
M  V30 3618 O 347.493 0.973644 -1.68029 0
M  V30 3619 C 344.623 1.36897 -3.19181 0
M  V30 3620 C 343.577 0.804833 -4.20365 0
M  V30 3621 C 342.903 1.9792 -4.96721 0
M  V30 3622 C 344.203 -0.192313 -5.21946 0
M  V30 3623 H 345.897 -0.387616 -2.9688 0
M  V30 3624 H 343.443 -0.187856 -1.42769 0
M  V30 3625 H 345.396 1.92037 -3.751 0
M  V30 3626 H 344.12 2.07936 -2.51853 0
M  V30 3627 H 342.779 0.275319 -3.65565 0
M  V30 3628 H 342.427 2.67686 -4.25856 0
M  V30 3629 H 342.127 1.60789 -5.65173 0
M  V30 3630 H 343.651 2.53526 -5.55479 0
M  V30 3631 H 345.065 0.270333 -5.72662 0
M  V30 3632 H 343.462 -0.478543 -5.98189 0
M  V30 3633 H 344.532 -1.11409 -4.71928 0
M  V30 3634 N 345.875 1.56104 -0.216619 0
M  V30 3635 C 347.286 1.844 0.292128 0
M  V30 3636 C 347.637 1.13788 1.59833 0
M  V30 3637 O 346.762 0.405888 2.12559 0
M  V30 3638 C 347.357 3.3452 0.53681 0
M  V30 3639 C 345.916 3.63151 0.989876 0
M  V30 3640 C 345.063 2.77255 0.0502302 0
M  V30 3641 H 348.014 1.52481 -0.439926 0
M  V30 3642 H 348.035 3.54459 1.38345 0
M  V30 3643 H 347.547 3.85885 -0.414031 0
M  V30 3644 H 345.648 3.17238 1.95425 0
M  V30 3645 H 345.761 4.71177 0.867698 0
M  V30 3646 H 344.125 2.48555 0.556117 0
M  V30 3647 H 344.908 3.31416 -0.89544 0
M  V30 3648 N 347.353 -0.0568162 1.57498 0
M  V30 3649 C 348.263 -1.08346 2.08083 0
M  V30 3650 C 349.279 -1.41439 1.01346 0
M  V30 3651 O 350.455 -1.51316 1.32912 0
M  V30 3652 C 347.52 -2.37352 2.52715 0
M  V30 3653 C 346.581 -2.11093 3.73816 0
M  V30 3654 C 345.814 -3.33949 4.1631 0
M  V30 3655 O 346.037 -4.43622 3.58547 0
M  V30 3656 O 344.971 -3.21279 5.08983 0
M  V30 3657 H 348.797 -0.683667 2.95905 0
M  V30 3658 H 346.382 -0.271965 1.46904 0
M  V30 3659 H 348.264 -3.13246 2.81877 0
M  V30 3660 H 346.939 -2.76681 1.68016 0
M  V30 3661 H 345.846 -1.32856 3.49714 0
M  V30 3662 H 347.179 -1.76637 4.59413 0
M  V30 3663 N 348.832 -1.54138 -0.328536 0
M  V30 3664 C 350.062 -1.75807 -1.08516 0
M  V30 3665 C 350.47 -0.50428 -1.82356 0
M  V30 3666 O 349.813 0.534451 -1.75754 0
M  V30 3667 C 349.875 -2.89423 -2.13248 0
M  V30 3668 C 349.539 -4.28504 -1.5885 0
M  V30 3669 C 350.536 -5.09536 -1.03289 0
M  V30 3670 C 348.221 -4.75034 -1.63243 0
M  V30 3671 C 350.215 -6.35206 -0.52845 0
M  V30 3672 C 347.902 -6.00672 -1.12411 0
M  V30 3673 C 348.9 -6.80592 -0.573062 0
M  V30 3674 O 348.588 -8.03867 -0.0723692 0
M  V30 3675 H 348.32 -0.590633 -0.328829 0
M  V30 3676 H 350.874 -2.01819 -0.381868 0
M  V30 3677 H 349.104 -2.5897 -2.87178 0
M  V30 3678 H 350.793 -2.98921 -2.74592 0
M  V30 3679 H 351.559 -4.74745 -0.99206 0
M  V30 3680 H 347.438 -4.12875 -2.05074 0
M  V30 3681 H 350.982 -6.97532 -0.0976774 0
M  V30 3682 H 346.879 -6.34955 -1.162 0
M  V30 3683 H 347.647 -8.18283 -0.188258 0
M  V30 3684 N 350.31 0.590341 -1.46126 0
M  V30 3685 C 351.257 1.69994 -1.56111 0
M  V30 3686 C 352.227 1.61065 -0.405867 0
M  V30 3687 O 353.412 1.8039 -0.621613 0
M  V30 3688 C 350.552 3.08326 -1.55013 0
M  V30 3689 C 349.665 3.27936 -2.81215 0
M  V30 3690 C 348.8 4.56473 -2.71673 0
M  V30 3691 C 347.839 4.694 -3.92849 0
M  V30 3692 N 346.976 5.89254 -3.81738 0
M  V30 3693 H 351.816 1.60797 -2.50895 0
M  V30 3694 H 349.353 0.783799 -1.24479 0
M  V30 3695 H 351.311 3.88383 -1.52362 0
M  V30 3696 H 349.941 3.16439 -0.637667 0
M  V30 3697 H 348.993 2.41536 -2.93879 0
M  V30 3698 H 350.305 3.33357 -3.71045 0
M  V30 3699 H 349.459 5.44748 -2.67085 0
M  V30 3700 H 348.198 4.53477 -1.7947 0
M  V30 3701 H 347.203 3.79544 -3.97777 0
M  V30 3702 H 348.428 4.7418 -4.86138 0
M  V30 3703 H 346.374 5.87271 -2.92317 0
M  V30 3704 H 346.291 5.95911 -4.65217 0
M  V30 3705 H 347.559 6.79981 -3.81112 0
M  V30 3706 N 351.788 1.33704 0.83433 0
M  V30 3707 C 352.718 1.26967 1.95963 0
M  V30 3708 C 353.699 0.149337 1.69443 0
M  V30 3709 O 354.884 0.339852 1.91203 0
M  V30 3710 C 352.014 1.01275 3.32206 0
M  V30 3711 C 350.968 2.09652 3.73136 0
M  V30 3712 C 350.294 1.69166 5.07235 0
M  V30 3713 C 351.594 3.51372 3.86439 0
M  V30 3714 H 353.288 2.2112 2.01857 0
M  V30 3715 H 350.834 1.06447 0.969793 0
M  V30 3716 H 352.787 0.952106 4.10503 0
M  V30 3717 H 351.511 0.0356203 3.26581 0
M  V30 3718 H 350.17 2.14766 2.97104 0
M  V30 3719 H 349.818 0.701437 4.98085 0
M  V30 3720 H 349.518 2.41694 5.35591 0
M  V30 3721 H 351.042 1.64576 5.88003 0
M  V30 3722 H 352.456 3.48734 4.55036 0
M  V30 3723 H 350.853 4.22425 4.26236 0
M  V30 3724 H 351.923 3.89546 2.88759 0
M  V30 3725 N 353.266 -1.05314 1.17247 0
M  V30 3726 C 354.198 -2.13023 0.845812 0
M  V30 3727 C 355.211 -1.62096 -0.151246 0
M  V30 3728 O 356.4 -1.78343 0.0748818 0
M  V30 3729 C 353.5 -3.38047 0.240292 0
M  V30 3730 C 352.673 -4.18255 1.27991 0
M  V30 3731 C 351.732 -5.21625 0.692375 0
M  V30 3732 O 350.758 -5.52619 1.36385 0
M  V30 3733 N 351.96 -5.78201 -0.516178 0
M  V30 3734 H 354.725 -2.41642 1.77283 0
M  V30 3735 H 352.286 -1.21401 1.07115 0
M  V30 3736 H 354.278 -4.04359 -0.16603 0
M  V30 3737 H 352.848 -3.06972 -0.590487 0
M  V30 3738 H 352.068 -3.47451 1.86203 0
M  V30 3739 H 353.356 -4.68643 1.98119 0
M  V30 3740 H 352.754 -5.55301 -1.07969 0
M  V30 3741 H 351.311 -6.4604 -0.86458 0
M  V30 3742 N 354.744 -0.972509 -1.24016 0
M  V30 3743 C 355.707 -0.511403 -2.23422 0
M  V30 3744 C 356.707 0.394679 -1.55881 0
M  V30 3745 O 357.897 0.189469 -1.73167 0
M  V30 3746 C 355.029 0.258769 -3.39916 0
M  V30 3747 H 356.222 -1.39024 -2.6573 0
M  V30 3748 H 353.775 -0.757585 -1.36713 0
M  V30 3749 H 354.51 1.1545 -3.03054 0
M  V30 3750 H 354.295 -0.391522 -3.9014 0
M  V30 3751 H 355.785 0.570244 -4.13688 0
M  V30 3752 N 356.222 1.38976 -0.743202 0
M  V30 3753 C 357.633 1.83123 -0.363732 0
M  V30 3754 C 357.984 1.6205 1.10609 0
M  V30 3755 O 357.109 1.11606 1.854 0
M  V30 3756 C 357.704 3.32439 -0.653408 0
M  V30 3757 C 356.263 3.74974 -0.327338 0
M  V30 3758 C 355.41 2.61878 -0.911875 0
M  V30 3759 H 358.361 1.27852 -0.940191 0
M  V30 3760 H 358.382 3.80432 0.0720031 0
M  V30 3761 H 357.894 3.47745 -1.72323 0
M  V30 3762 H 355.995 3.65252 0.736314 0
M  V30 3763 H 356.108 4.72106 -0.815631 0
M  V30 3764 H 354.472 2.52448 -0.337944 0
M  V30 3765 H 355.255 2.79987 -1.98651 0
M  V30 3766 N 357.7 0.491464 1.49741 0
M  V30 3767 C 359.116 0.146835 1.58923 0
M  V30 3768 C 359.316 -1.34804 1.49767 0
M  V30 3769 O 358.372 -2.12317 1.36667 0
M  V30 3770 C 359.685 0.715157 2.92072 0
M  V30 3771 C 361.233 0.680407 3.05515 0
M  V30 3772 C 361.708 1.22663 4.41269 0
M  V30 3773 N 363.199 1.18691 4.47735 0
M  V30 3774 C 363.934 1.57984 5.51207 0
M  V30 3775 N 363.43 2.04824 6.6183 0
M  V30 3776 N 365.223 1.49459 5.41866 0
M  V30 3777 H 357.374 1.46347 1.53936 0
M  V30 3778 H 359.637 0.606453 0.728642 0
M  V30 3779 H 359.343 1.76317 3.04311 0
M  V30 3780 H 359.217 0.17018 3.76816 0
M  V30 3781 H 361.604 -0.358743 2.92911 0
M  V30 3782 H 361.685 1.26242 2.22478 0
M  V30 3783 H 361.329 2.26451 4.54623 0
M  V30 3784 H 361.259 0.620637 5.2293 0
M  V30 3785 H 363.75 0.843605 3.68364 0
M  V30 3786 H 364.063 2.32901 7.3687 0
M  V30 3787 H 362.408 2.08791 6.62896 0
M  V30 3788 H 365.599 1.12692 4.54333 0
M  V30 3789 H 365.772 1.80406 6.22381 0
M  V30 3790 N 359.178 -1.55987 0.224894 0
M  V30 3791 C 360.427 -1.97566 -0.406273 0
M  V30 3792 C 360.74 -1.11569 -1.6066 0
M  V30 3793 O 361.946 -1.43062 -2.3075 0
M  V30 3794 C 360.402 -3.51474 -0.774207 0
M  V30 3795 C 360.01 -4.46179 0.403496 0
M  V30 3796 C 361.754 -4.01758 -1.37079 0
M  V30 3797 C 359.661 -5.91399 0.0129412 0
M  V30 3798 H 358.591 -0.737777 -0.155565 0
M  V30 3799 H 361.242 -1.80659 0.321635 0
M  V30 3800 H 359.624 -3.63994 -1.55963 0
M  V30 3801 H 360.798 -4.45409 1.18101 0
M  V30 3802 H 359.113 -4.06255 0.913536 0
M  V30 3803 H 361.71 -5.07756 -1.67596 0
M  V30 3804 H 362.053 -3.47805 -2.28773 0
M  V30 3805 H 362.586 -3.92475 -0.648733 0
M  V30 3806 H 359.325 -6.49341 0.896451 0
M  V30 3807 H 358.845 -5.95356 -0.728821 0
M  V30 3808 H 360.524 -6.45683 -0.412582 0
M  V30 3809 N 360.656 0.0484629 -1.57525 0
M  V30 3810 C 361.606 1.06246 -2.01732 0
M  V30 3811 C 362.59 1.33155 -0.903245 0
M  V30 3812 O 363.782 1.33065 -1.16717 0
M  V30 3813 C 360.911 2.36943 -2.48421 0
M  V30 3814 C 359.997 2.13208 -3.6661 0
M  V30 3815 N 360.388 1.5947 -4.80003 0
M  V30 3816 C 358.686 2.43581 -3.7361 0
M  V30 3817 C 359.387 1.51092 -5.61735 0
M  V30 3818 N 358.363 1.9797 -5.0627 0
M  V30 3819 H 362.165 0.640675 -2.86832 0
M  V30 3820 H 359.679 0.255134 -1.60383 0
M  V30 3821 H 361.676 3.10374 -2.78341 0
M  V30 3822 H 360.336 2.79818 -1.64718 0
M  V30 3823 H 361.347 1.28008 -5.01831 0
M  V30 3824 H 358.024 2.89662 -3.00669 0
M  V30 3825 H 359.414 1.10199 -6.62801 0
M  V30 3826 N 362.134 1.5431 0.320358 0
M  V30 3827 C 363.55 1.45091 0.664889 0
M  V30 3828 C 363.75 0.626382 1.91517 0
M  V30 3829 O 362.806 0.126443 2.52183 0
M  V30 3830 C 364.119 2.88848 0.83591 0
M  V30 3831 C 365.667 2.9877 0.933046 0
M  V30 3832 C 366.142 4.43683 1.13621 0
M  V30 3833 N 367.633 4.47309 1.20287 0
M  V30 3834 C 368.368 5.56595 1.37801 0
M  V30 3835 N 367.864 6.75844 1.52338 0
M  V30 3836 N 369.657 5.44248 1.40535 0
M  V30 3837 H 361.808 2.06398 -0.501374 0
M  V30 3838 H 364.071 0.933963 -0.162534 0
M  V30 3839 H 363.777 3.51698 -0.0116092 0
M  V30 3840 H 363.651 3.35148 1.73078 0
M  V30 3841 H 366.038 2.36045 1.77107 0
M  V30 3842 H 366.119 2.55796 0.0145782 0
M  V30 3843 H 365.763 5.06995 0.303032 0
M  V30 3844 H 365.693 4.84269 2.0686 0
M  V30 3845 H 368.184 3.61388 1.10485 0
M  V30 3846 H 368.497 7.54892 1.65403 0
M  V30 3847 H 366.842 6.78746 1.4943 0
M  V30 3848 H 370.033 4.50038 1.28777 0
M  V30 3849 H 370.206 6.29473 1.53842 0
M  V30 3850 N 363.613 -0.582584 1.46437 0
M  V30 3851 C 364.859 -1.34064 1.52965 0
M  V30 3852 C 365.214 -1.91566 0.178968 0
M  V30 3853 O 364.507 -1.73526 -0.812365 0
M  V30 3854 C 364.701 -2.48964 2.56421 0
M  V30 3855 C 364.53 -2.02717 4.01417 0
M  V30 3856 C 363.3 -1.87728 4.69134 0
M  V30 3857 C 365.498 -1.58675 4.8921 0
M  V30 3858 N 363.48 -1.35554 5.98747 0
M  V30 3859 C 364.851 -1.18093 6.08649 0
M  V30 3860 C 366.906 -1.46494 4.75861 0
M  V30 3861 C 365.609 -0.665427 7.16215 0
M  V30 3862 C 367.635 -0.96347 5.83499 0
M  V30 3863 C 366.997 -0.567432 7.02111 0
M  V30 3864 H 363.096 -0.483551 0.614575 0
M  V30 3865 H 365.68 -0.663309 1.83053 0
M  V30 3866 H 363.851 -3.1426 2.28244 0
M  V30 3867 H 365.583 -3.15913 2.52944 0
M  V30 3868 H 362.338 -2.09678 4.24655 0
M  V30 3869 H 362.762 -1.11628 6.67734 0
M  V30 3870 H 367.404 -1.75731 3.8455 0
M  V30 3871 H 365.122 -0.360639 8.07295 0
M  V30 3872 H 368.708 -0.873129 5.75211 0
M  V30 3873 H 367.588 -0.185389 7.83981 0
M  V30 3874 N 365.091 -1.34144 -0.827227 0
M  V30 3875 C 366.319 -1.29325 -1.61501 0
M  V30 3876 C 366.734 0.13354 -1.88327 0
M  V30 3877 O 366.091 1.0793 -1.47164 0
M  V30 3878 C 366.142 -2.07746 -2.95844 0
M  V30 3879 O 365.863 -3.4486 -2.70191 0
M  V30 3880 C 367.364 -2.10273 -3.90256 0
M  V30 3881 H 364.584 -0.445069 -0.50215 0
M  V30 3882 H 367.128 -1.76693 -1.02955 0
M  V30 3883 H 365.283 -1.6403 -3.5096 0
M  V30 3884 H 365.697 -3.85345 -3.55822 0
M  V30 3885 H 367.171 -2.69575 -4.81698 0
M  V30 3886 H 367.648 -1.096 -4.25305 0
M  V30 3887 H 368.254 -2.54059 -3.41078 0
M  V30 3888 N 366.569 1.04691 -1.17803 0
M  V30 3889 C 367.818 1.77176 -0.963931 0
M  V30 3890 C 368.131 1.88888 0.508015 0
M  V30 3891 O 369.337 2.58164 0.840465 0
M  V30 3892 C 367.793 3.18518 -1.67555 0
M  V30 3893 C 367.401 3.14919 -3.18637 0
M  V30 3894 C 369.145 3.95424 -1.54402 0
M  V30 3895 C 367.052 4.51081 -3.82466 0
M  V30 3896 H 365.982 0.664116 -0.357023 0
M  V30 3897 H 368.633 1.17303 -1.4111 0
M  V30 3898 H 367.015 3.78748 -1.15613 0
M  V30 3899 H 368.189 2.64178 -3.77554 0
M  V30 3900 H 366.504 2.51512 -3.31859 0
M  V30 3901 H 369.101 4.96106 -1.99456 0
M  V30 3902 H 369.444 4.13343 -0.495329 0
M  V30 3903 H 369.977 3.41754 -2.0359 0
M  V30 3904 H 366.716 4.38368 -4.87354 0
M  V30 3905 H 366.236 5.01951 -3.28337 0
M  V30 3906 H 367.915 5.2001 -3.84965 0
M  V30 3907 N 368.047 0.979072 1.23499 0
M  V30 3908 C 368.977 0.537606 2.27227 0
M  V30 3909 C 369.958 -0.428539 1.64613 0
M  V30 3910 O 371.143 -0.322191 1.91509 0
M  V30 3911 C 368.273 -0.162052 3.46922 0
M  V30 3912 C 367.227 0.721242 4.21879 0
M  V30 3913 C 366.553 -0.110555 5.34586 0
M  V30 3914 C 367.853 2.01141 4.82016 0
M  V30 3915 H 369.547 1.40462 2.64406 0
M  V30 3916 H 367.093 0.67684 1.27102 0
M  V30 3917 H 369.046 -0.482192 4.18632 0
M  V30 3918 H 367.77 -1.06351 3.08799 0
M  V30 3919 H 366.429 1.02482 3.51984 0
M  V30 3920 H 366.077 -1.0125 4.92704 0
M  V30 3921 H 365.777 0.477325 5.85658 0
M  V30 3922 H 367.301 -0.425107 6.09118 0
M  V30 3923 H 368.715 1.75612 5.45741 0
M  V30 3924 H 367.112 2.54695 5.43369 0
M  V30 3925 H 368.182 2.69909 4.02836 0
M  V30 3926 N 369.525 -1.3858 0.750561 0
M  V30 3927 C 370.475 -2.27795 0.0965949 0
M  V30 3928 C 371.459 -1.45048 -0.696411 0
M  V30 3929 O 372.651 -1.67812 -0.562863 0
M  V30 3930 C 369.78 -3.33894 -0.798085 0
M  V30 3931 C 368.866 -4.241 0.0016067 0
M  V30 3932 N 369.257 -4.95067 1.03647 0
M  V30 3933 C 367.555 -4.45429 -0.225674 0
M  V30 3934 C 368.256 -5.61489 1.52004 0
M  V30 3935 N 367.232 -5.37135 0.835874 0
M  V30 3936 H 371.034 -2.80125 0.889228 0
M  V30 3937 H 368.548 -1.51446 0.586323 0
M  V30 3938 H 370.545 -3.96693 -1.28219 0
M  V30 3939 H 369.205 -2.83123 -1.5897 0
M  V30 3940 H 370.216 -4.98104 1.41819 0
M  V30 3941 H 366.893 -4.05571 -0.990872 0
M  V30 3942 H 368.283 -6.28264 2.38188 0
M  V30 3943 N 371.003 -0.499398 -1.49478 0
M  V30 3944 C 372.233 0.0424839 -2.06556 0
M  V30 3945 C 372.641 1.31514 -1.36018 0
M  V30 3946 O 371.984 1.78555 -0.431718 0
M  V30 3947 C 372.046 0.368074 -3.57611 0
M  V30 3948 C 371.71 -0.806631 -4.49825 0
M  V30 3949 C 372.707 -1.69667 -4.91436 0
M  V30 3950 C 370.392 -1.00498 -4.92144 0
M  V30 3951 C 372.386 -2.76923 -5.74101 0
M  V30 3952 C 370.073 -2.08072 -5.74586 0
M  V30 3953 C 371.071 -2.96119 -6.15469 0
M  V30 3954 O 370.759 -4.01836 -6.96264 0
M  V30 3955 H 370.491 -0.0165165 -0.675798 0
M  V30 3956 H 373.045 -0.695497 -1.93267 0
M  V30 3957 H 371.275 1.15963 -3.68903 0
M  V30 3958 H 372.964 0.848381 -3.96935 0
M  V30 3959 H 373.73 -1.55524 -4.59388 0
M  V30 3960 H 369.609 -0.329036 -4.59824 0
M  V30 3961 H 373.153 -3.45676 -6.05932 0
M  V30 3962 H 369.05 -2.22211 -6.06047 0
M  V30 3963 H 369.818 -3.9917 -7.14567 0
M  V30 3964 N 372.481 1.55866 -0.233164 0
M  V30 3965 C 373.706 2.03449 0.402906 0
M  V30 3966 C 374.131 1.11166 1.51736 0
M  V30 3967 O 373.489 0.101996 1.81013 0
M  V30 3968 C 373.537 3.49165 0.9009 0
M  V30 3969 O 372.641 3.60019 2.01147 0
M  V30 3970 H 371.982 0.657913 0.0897025 0
M  V30 3971 H 374.512 2.01493 -0.355201 0
M  V30 3972 H 374.522 3.89716 1.2077 0
M  V30 3973 H 373.197 4.15813 0.0852889 0
M  V30 3974 H 371.774 3.3136 1.71042 0
M  V30 3975 N 373.959 -0.0401083 1.57549 0
M  V30 3976 C 375.37 -0.588097 1.77196 0
M  V30 3977 C 375.721 -1.76209 0.862832 0
M  V30 3978 O 374.846 -2.16331 0.0548389 0
M  V30 3979 C 375.441 -1.07363 3.21339 0
M  V30 3980 C 374 -1.56723 3.42221 0
M  V30 3981 C 373.147 -0.50041 2.72747 0
M  V30 3982 H 376.098 0.186119 1.57605 0
M  V30 3983 H 376.119 -1.94143 3.27244 0
M  V30 3984 H 375.631 -0.218975 3.87482 0
M  V30 3985 H 373.732 -2.4441 2.81237 0
M  V30 3986 H 373.845 -1.62234 4.50796 0
M  V30 3987 H 372.209 -0.952894 2.36203 0
M  V30 3988 H 372.992 0.344599 3.41566 0
M  V30 3989 N 375.437 -1.54477 -0.31217 0
M  V30 3990 C 376.684 -1.73227 -1.04875 0
M  V30 3991 C 377.012 -0.512042 -1.87639 0
M  V30 3992 O 376.267 0.506131 -1.89042 0
M  V30 3993 C 376.566 -2.967 -1.99258 0
M  V30 3994 C 376.232 -4.30974 -1.32559 0
M  V30 3995 C 374.894 -4.67477 -1.141 0
M  V30 3996 C 377.246 -5.14258 -0.847835 0
M  V30 3997 C 374.574 -5.84852 -0.465326 0
M  V30 3998 C 376.926 -6.32327 -0.185931 0
M  V30 3999 C 375.59 -6.67499 0.0107077 0
M  V30 4000 H 374.86 -0.633881 -0.383765 0
M  V30 4001 H 377.507 -1.88727 -0.324731 0
M  V30 4002 H 375.812 -2.75935 -2.7815 0
M  V30 4003 H 377.509 -3.08401 -2.563 0
M  V30 4004 H 374.099 -4.02262 -1.4793 0
M  V30 4005 H 378.283 -4.86565 -0.978192 0
M  V30 4006 H 373.539 -6.10654 -0.301883 0
M  V30 4007 H 377.713 -6.96135 0.192211 0
M  V30 4008 H 375.34 -7.58306 0.536287 0
M  V30 4009 N 376.915 0.57481 -1.46744 0
M  V30 4010 C 377.862 1.68329 -1.57905 0
M  V30 4011 C 378.832 1.60625 -0.422927 0
M  V30 4012 O 380.017 1.79721 -0.640711 0
M  V30 4013 C 377.157 3.06665 -1.58274 0
M  V30 4014 C 376.27 3.24935 -2.84678 0
M  V30 4015 C 375.405 4.53566 -2.76499 0
M  V30 4016 C 374.444 4.65207 -3.97806 0
M  V30 4017 N 373.581 5.85172 -3.87967 0
M  V30 4018 H 378.421 1.58127 -2.52587 0
M  V30 4019 H 375.958 0.770552 -1.25303 0
M  V30 4020 H 377.916 3.86745 -1.56473 0
M  V30 4021 H 376.546 3.15745 -0.671194 0
M  V30 4022 H 375.598 2.38405 -2.96424 0
M  V30 4023 H 376.91 3.29403 -3.7456 0
M  V30 4024 H 376.064 5.41885 -2.72848 0
M  V30 4025 H 374.803 4.51548 -1.8427 0
M  V30 4026 H 373.808 3.75304 -4.0178 0
M  V30 4027 H 375.033 4.68997 -4.9114 0
M  V30 4028 H 372.979 5.84137 -2.98529 0
M  V30 4029 H 372.896 5.90943 -4.71511 0
M  V30 4030 H 374.164 6.759 -3.88303 0
M  V30 4031 N 378.394 1.34581 0.820102 0
M  V30 4032 C 379.357 1.2628 1.91275 0
M  V30 4033 C 380.357 0.177344 1.59819 0
M  V30 4034 O 381.547 0.430156 1.68806 0
M  V30 4035 C 378.679 0.950327 3.27386 0
M  V30 4036 H 379.872 2.23421 2.00057 0
M  V30 4037 H 377.425 1.1891 1.0144 0
M  V30 4038 H 378.16 -0.0177938 3.24295 0
M  V30 4039 H 377.945 1.73549 3.51601 0
M  V30 4040 H 379.435 0.917492 4.07396 0
M  V30 4041 N 379.872 -1.04064 1.18357 0
M  V30 4042 C 381.118 -1.77528 0.980397 0
M  V30 4043 C 381.451 -1.87948 -0.48879 0
M  V30 4044 O 380.726 -1.3876 -1.36293 0
M  V30 4045 C 381.009 -3.20797 1.63588 0
M  V30 4046 C 380.862 -3.1832 3.17793 0
M  V30 4047 C 382.181 -4.18911 1.34914 0
M  V30 4048 H 379.3 -0.644443 0.357578 0
M  V30 4049 H 381.942 -1.2156 1.46024 0
M  V30 4050 H 380.092 -3.68586 1.22788 0
M  V30 4051 H 381.764 -2.78521 3.67728 0
M  V30 4052 H 380.007 -2.56351 3.49952 0
M  V30 4053 H 380.678 -4.19489 3.58794 0
M  V30 4054 H 383.154 -3.7967 1.70265 0
M  V30 4055 H 382.03 -5.17374 1.83346 0
M  V30 4056 H 382.291 -4.41262 0.272027 0
M  V30 4057 N 381.35 -0.985608 -1.22978 0
M  V30 4058 C 382.596 -0.667998 -1.92118 0
M  V30 4059 C 382.951 0.790454 -1.75413 0
M  V30 4060 O 382.244 1.56336 -1.10768 0
M  V30 4061 C 382.438 -1.00014 -3.43121 0
M  V30 4062 C 382.267 -2.48933 -3.74516 0
M  V30 4063 C 381.037 -3.15218 -3.94925 0
M  V30 4064 C 383.235 -3.47024 -3.79577 0
M  V30 4065 N 381.217 -4.53689 -4.13569 0
M  V30 4066 C 382.588 -4.70923 -4.03276 0
M  V30 4067 C 384.643 -3.41432 -3.62393 0
M  V30 4068 C 383.346 -5.89914 -4.11574 0
M  V30 4069 C 385.372 -4.59793 -3.71947 0
M  V30 4070 C 384.734 -5.82489 -3.96088 0
M  V30 4071 H 380.833 -0.295589 -0.723983 0
M  V30 4072 H 383.417 -1.26413 -1.4808 0
M  V30 4073 H 381.588 -0.432655 -3.85983 0
M  V30 4074 H 383.32 -0.63927 -3.99619 0
M  V30 4075 H 380.075 -2.65702 -3.92045 0
M  V30 4076 H 380.499 -5.25492 -4.26834 0
M  V30 4077 H 385.141 -2.47594 -3.4272 0
M  V30 4078 H 382.859 -6.84164 -4.30053 0
M  V30 4079 H 386.445 -4.57048 -3.59998 0
M  V30 4080 H 385.325 -6.72546 -4.033 0
M  V30 4081 N 382.828 1.3818 -0.7579 0
M  V30 4082 C 384.105 1.94106 -0.241306 0
M  V30 4083 C 384.485 1.69282 1.26122 0
M  V30 4084 O 383.833 1.03378 2.03777 0
M  V30 4085 C 384.043 3.43809 -0.59967 0
M  V30 4086 C 385.391 4.20868 -0.561717 0
M  V30 4087 O 386.415 3.5211 -0.538222 0
M  V30 4088 O 385.274 5.43451 -0.576478 0
M  V30 4089 H 382.368 0.825376 -0.0518042 0
M  V30 4090 H 384.914 1.47548 -0.838315 0
M  V30 4091 H 383.686 3.55403 -1.6372 0
M  V30 4092 H 383.309 3.97592 0.0251197 0
M  V30 4093 N 384.306 0.507319 1.49211 0
M  V30 4094 C 385.552 -0.0269732 2.03382 0
M  V30 4095 C 385.907 -1.34111 1.37957 0
M  V30 4096 O 385.2 -1.84733 0.508351 0
M  V30 4097 C 385.394 -0.229513 3.56662 0
M  V30 4098 C 385.223 1.06344 4.36945 0
M  V30 4099 C 383.993 1.617 4.78729 0
M  V30 4100 C 386.191 1.96833 4.75143 0
M  V30 4101 N 384.173 2.8552 5.43463 0
M  V30 4102 C 385.544 3.0523 5.39661 0
M  V30 4103 C 387.599 1.97434 4.57082 0
M  V30 4104 C 386.302 4.14265 5.88028 0
M  V30 4105 C 388.328 3.05448 5.06414 0
M  V30 4106 C 387.69 4.12564 5.70938 0
M  V30 4107 H 383.789 0.0310673 0.781383 0
M  V30 4108 H 386.373 0.683579 1.82305 0
M  V30 4109 H 384.544 -0.909127 3.7761 0
M  V30 4110 H 386.276 -0.761377 3.97473 0
M  V30 4111 H 383.031 1.16132 4.59141 0
M  V30 4112 H 383.455 3.48499 5.80412 0
M  V30 4113 H 388.097 1.15924 4.06597 0
M  V30 4114 H 385.815 4.96569 6.3753 0
M  V30 4115 H 389.401 3.06941 4.94246 0
M  V30 4116 H 388.281 4.94767 6.0842 0
M  V30 4117 N 385.784 -1.5574 0.241426 0
M  V30 4118 C 386.714 -2.24133 -0.654722 0
M  V30 4119 C 387.695 -1.21974 -1.1856 0
M  V30 4120 O 388.88 -1.50612 -1.22595 0
M  V30 4121 C 386.01 -2.93659 -1.85423 0
M  V30 4122 C 384.964 -4.0246 -1.45636 0
M  V30 4123 C 384.29 -4.59383 -2.73626 0
M  V30 4124 C 385.59 -5.18468 -0.631506 0
M  V30 4125 H 387.284 -2.99281 -0.0844353 0
M  V30 4126 H 384.83 -1.43947 -0.0391707 0
M  V30 4127 H 386.783 -3.40203 -2.48676 0
M  V30 4128 H 385.507 -2.15991 -2.44981 0
M  V30 4129 H 384.166 -3.56676 -0.847202 0
M  V30 4130 H 383.814 -3.78422 -3.3137 0
M  V30 4131 H 383.514 -5.32826 -2.4773 0
M  V30 4132 H 385.038 -5.08658 -3.37786 0
M  V30 4133 H 386.452 -5.61272 -1.1682 0
M  V30 4134 H 384.849 -5.98266 -0.468831 0
M  V30 4135 H 385.919 -4.8358 0.357506 0
M  V30 4136 N 387.262 0.0317525 -1.57568 0
M  V30 4137 C 388.511 0.722131 -1.8833 0
M  V30 4138 C 388.824 1.76664 -0.839587 0
M  V30 4139 O 390.03 2.50942 -1.03635 0
M  V30 4140 C 388.486 1.33544 -3.34207 0
M  V30 4141 C 388.094 0.327415 -4.46802 0
M  V30 4142 C 389.838 2.00585 -3.7412 0
M  V30 4143 C 387.745 0.948915 -5.83738 0
M  V30 4144 H 386.675 0.273466 -0.702661 0
M  V30 4145 H 389.326 -0.0235811 -1.83485 0
M  V30 4146 H 387.708 2.13077 -3.33788 0
M  V30 4147 H 388.882 -0.441006 -4.58685 0
M  V30 4148 H 387.197 -0.240758 -4.15703 0
M  V30 4149 H 389.794 2.47932 -4.73744 0
M  V30 4150 H 390.137 2.82285 -3.05975 0
M  V30 4151 H 390.67 1.27831 -3.76702 0
M  V30 4152 H 387.409 0.171387 -6.55276 0
M  V30 4153 H 386.929 1.68724 -5.7558 0
M  V30 4154 H 388.608 1.45705 -6.3038 0
M  V30 4155 N 388.74 1.54641 0.303973 0
M  V30 4156 C 389.67 1.88386 1.3796 0
M  V30 4157 C 390.651 0.742485 1.5304 0
M  V30 4158 O 391.836 0.997959 1.66597 0
M  V30 4159 C 388.966 2.12854 2.74427 0
M  V30 4160 C 387.92 3.28702 2.74115 0
M  V30 4161 C 387.246 3.38582 4.13844 0
M  V30 4162 C 388.546 4.65881 2.3612 0
M  V30 4163 H 390.24 2.78474 1.09966 0
M  V30 4164 H 387.786 1.33988 0.527556 0
M  V30 4165 H 389.739 2.35047 3.49758 0
M  V30 4166 H 388.463 1.19535 3.03939 0
M  V30 4167 H 387.122 3.06428 2.0124 0
M  V30 4168 H 386.77 2.42784 4.40528 0
M  V30 4169 H 386.47 4.16453 4.14537 0
M  V30 4170 H 387.994 3.63031 4.90959 0
M  V30 4171 H 389.408 4.87823 3.01167 0
M  V30 4172 H 387.805 5.46444 2.48031 0
M  V30 4173 H 388.875 4.66799 1.3125 0
M  V30 4174 N 390.218 -0.567019 1.47046 0
M  V30 4175 C 391.148 -1.68482 1.61667 0
M  V30 4176 C 392.129 -1.6358 0.466418 0
M  V30 4177 O 393.314 -1.81354 0.694574 0
M  V30 4178 C 390.444 -3.07124 1.62148 0
M  V30 4179 C 389.398 -3.26867 2.76301 0
M  V30 4180 C 388.724 -4.66196 2.61849 0
M  V30 4181 C 390.024 -3.13186 4.17986 0
M  V30 4182 H 391.718 -1.56502 2.5524 0
M  V30 4183 H 389.264 -0.751486 1.22836 0
M  V30 4184 H 391.217 -3.8516 1.70968 0
M  V30 4185 H 389.941 -3.2004 0.651287 0
M  V30 4186 H 388.6 -2.51237 2.66975 0
M  V30 4187 H 388.248 -4.75898 1.62879 0
M  V30 4188 H 387.948 -4.80356 3.38425 0
M  V30 4189 H 389.472 -5.46379 2.72584 0
M  V30 4190 H 390.886 -3.81049 4.2834 0
M  V30 4191 H 389.283 -3.3886 4.95272 0
M  V30 4192 H 390.353 -2.10057 4.3704 0
M  V30 4193 N 391.696 -1.35014 -0.812953 0
M  V30 4194 C 392.626 -1.30069 -1.93919 0
M  V30 4195 C 393.607 -0.176275 -1.69184 0
M  V30 4196 O 394.792 -0.370227 -1.90638 0
M  V30 4197 C 391.922 -1.06547 -3.30552 0
M  V30 4198 C 390.876 -2.15561 -3.69753 0
M  V30 4199 C 390.202 -1.77214 -5.04479 0
M  V30 4200 C 391.502 -3.57476 -3.808 0
M  V30 4201 H 393.196 -2.24303 -1.98314 0
M  V30 4202 H 390.742 -1.07977 -0.952736 0
M  V30 4203 H 392.695 -1.01729 -4.08937 0
M  V30 4204 H 391.419 -0.0875719 -3.26483 0
M  V30 4205 H 390.078 -2.19466 -2.9365 0
M  V30 4206 H 389.726 -0.780589 -4.96906 0
M  V30 4207 H 389.426 -2.50184 -5.31678 0
M  V30 4208 H 390.95 -1.7391 -5.8531 0
M  V30 4209 H 392.364 -3.55929 -4.4943 0
M  V30 4210 H 390.761 -4.29152 -4.19462 0
M  V30 4211 H 391.831 -3.94091 -2.82525 0
M  V30 4212 N 393.175 1.03435 -1.18907 0
M  V30 4213 C 394.421 1.77005 -0.989798 0
M  V30 4214 C 394.754 1.88205 0.478816 0
M  V30 4215 O 394.029 1.39481 1.35556 0
M  V30 4216 C 394.312 3.19925 -1.65287 0
M  V30 4217 C 394.165 3.1663 -3.19477 0
M  V30 4218 C 395.484 4.18189 -1.37134 0
M  V30 4219 H 392.603 0.642538 -0.360991 0
M  V30 4220 H 395.245 1.20784 -1.46667 0
M  V30 4221 H 393.395 3.67929 -1.24741 0
M  V30 4222 H 395.067 2.76567 -3.692 0
M  V30 4223 H 393.31 2.54491 -3.51307 0
M  V30 4224 H 393.981 4.1758 -3.61013 0
M  V30 4225 H 396.457 3.78761 -1.72276 0
M  V30 4226 H 395.333 5.16394 -1.86087 0
M  V30 4227 H 395.594 4.41112 -0.295424 0
M  V30 4228 N 394.653 0.992116 1.22453 0
M  V30 4229 C 395.902 0.662992 1.90492 0
M  V30 4230 C 396.215 -0.808407 1.78113 0
M  V30 4231 O 397.421 -1.24908 2.41061 0
M  V30 4232 C 395.877 1.1353 3.41524 0
M  V30 4233 C 395.485 2.63187 3.62542 0
M  V30 4234 C 397.229 0.880465 4.15269 0
M  V30 4235 C 395.136 3.04024 5.0727 0
M  V30 4236 H 394.066 0.244278 0.713333 0
M  V30 4237 H 396.717 1.20157 1.38688 0
M  V30 4238 H 395.099 0.52485 3.92506 0
M  V30 4239 H 396.273 3.2957 3.22056 0
M  V30 4240 H 394.588 2.86543 3.02129 0
M  V30 4241 H 397.185 1.16128 5.21937 0
M  V30 4242 H 397.528 -0.183408 4.15896 0
M  V30 4243 H 398.061 1.45307 3.70312 0
M  V30 4244 H 394.8 4.09584 5.11782 0
M  V30 4245 H 394.32 2.42343 5.48662 0
M  V30 4246 H 395.999 2.95282 5.75689 0
M  V30 4247 N 396.131 -1.37776 0.765217 0
M  V30 4248 C 397.361 -2.03828 0.337277 0
M  V30 4249 C 397.769 -1.57841 -1.04321 0
M  V30 4250 O 397.112 -0.752043 -1.67601 0
M  V30 4251 C 397.174 -3.58292 0.294407 0
M  V30 4252 C 396.838 -4.27384 1.61838 0
M  V30 4253 C 397.835 -4.51956 2.56967 0
M  V30 4254 C 395.52 -4.65345 1.89102 0
M  V30 4255 C 397.514 -5.13536 3.77571 0
M  V30 4256 C 395.201 -5.26647 3.09978 0
M  V30 4257 C 396.199 -5.50679 4.04032 0
M  V30 4258 O 395.887 -6.10702 5.2278 0
M  V30 4259 H 395.619 -0.661292 0.140248 0
M  V30 4260 H 398.173 -1.77222 1.03834 0
M  V30 4261 H 396.403 -3.83918 -0.462983 0
M  V30 4262 H 398.092 -4.05763 -0.105581 0
M  V30 4263 H 398.858 -4.23048 2.37183 0
M  V30 4264 H 394.737 -4.45978 1.16725 0
M  V30 4265 H 398.281 -5.3221 4.50997 0
M  V30 4266 H 394.178 -5.54979 3.29649 0
M  V30 4267 H 394.946 -6.29183 5.23517 0
M  V30 4268 N 397.609 -0.515225 -1.4894 0
M  V30 4269 C 398.837 0.0206034 -2.0689 0
M  V30 4270 C 399.252 1.29514 -1.37374 0
M  V30 4271 O 398.609 1.76698 -0.456529 0
M  V30 4272 C 398.66 0.26351 -3.60538 0
M  V30 4273 O 398.381 -0.960517 -4.27441 0
M  V30 4274 C 399.882 0.841383 -4.35242 0
M  V30 4275 H 397.102 -0.0268608 -0.670462 0
M  V30 4276 H 399.646 -0.716651 -1.91532 0
M  V30 4277 H 397.801 0.950777 -3.75552 0
M  V30 4278 H 398.215 -0.73212 -5.19365 0
M  V30 4279 H 399.689 0.96085 -5.43573 0
M  V30 4280 H 400.166 1.8427 -3.98674 0
M  V30 4281 H 400.772 0.191143 -4.2487 0
M  V30 4282 N 399.087 1.5561 -0.249682 0
M  V30 4283 C 400.05 2.20217 0.635394 0
M  V30 4284 C 401.05 1.17227 1.10066 0
M  V30 4285 O 402.24 1.42292 1.00492 0
M  V30 4286 C 399.372 2.84794 1.87363 0
M  V30 4287 H 400.565 2.99814 0.0716752 0
M  V30 4288 H 398.118 1.563 -0.000153234 0
M  V30 4289 H 398.853 2.09142 2.47851 0
M  V30 4290 H 398.638 3.60241 1.5482 0
M  V30 4291 H 400.128 3.3423 2.5036 0
M  V30 4292 N 400.565 -0.0233959 1.57583 0
M  V30 4293 C 401.811 -0.714119 1.89811 0
M  V30 4294 C 402.144 -1.74702 0.848113 0
M  V30 4295 O 401.419 -1.94023 -0.136135 0
M  V30 4296 C 401.702 -1.37853 3.32669 0
M  V30 4297 C 401.555 -0.358764 4.48367 0
M  V30 4298 C 402.874 -2.31101 3.7454 0
M  V30 4299 H 399.993 -0.25814 0.690314 0
M  V30 4300 H 402.635 0.0230927 1.89986 0
M  V30 4301 H 400.785 -2.00689 3.3265 0
M  V30 4302 H 402.457 0.268115 4.6052 0
M  V30 4303 H 400.7 0.321387 4.32608 0
M  V30 4304 H 401.371 -0.862242 5.45224 0
M  V30 4305 H 403.847 -1.78304 3.75961 0
M  V30 4306 H 402.723 -2.74567 4.75294 0
M  V30 4307 H 402.984 -3.18018 3.0711 0
M  V30 4308 N 402.043 -1.548 -0.295768 0
M  V30 4309 C 403.29 -1.74329 -1.03032 0
M  V30 4310 C 403.618 -0.531915 -1.87085 0
M  V30 4311 O 402.873 0.486052 -1.89568 0
M  V30 4312 C 403.172 -2.98797 -1.961 0
M  V30 4313 C 402.838 -4.32356 -1.2798 0
M  V30 4314 C 401.5 -4.68661 -1.09135 0
M  V30 4315 C 403.852 -5.15128 -0.793243 0
M  V30 4316 C 401.18 -5.85312 -0.403269 0
M  V30 4317 C 403.532 -6.32488 -0.118854 0
M  V30 4318 C 402.196 -6.6745 0.0815043 0
M  V30 4319 H 401.466 -0.637916 -0.37702 0
M  V30 4320 H 404.113 -1.8906 -0.304696 0
M  V30 4321 H 402.418 -2.78869 -2.75207 0
M  V30 4322 H 404.115 -3.11102 -2.53015 0
M  V30 4323 H 400.705 -4.03808 -1.43655 0
M  V30 4324 H 404.889 -4.87575 -0.92653 0
M  V30 4325 H 400.145 -6.1094 -0.237098 0
M  V30 4326 H 404.319 -6.95892 0.266035 0
M  V30 4327 H 401.946 -7.57695 0.616685 0
M  V30 4328 N 403.521 0.559213 -1.47345 0
M  V30 4329 C 404.749 1.34194 -1.57479 0
M  V30 4330 C 405.164 1.87463 -0.224261 0
M  V30 4331 O 404.521 1.64888 0.782185 0
M  V30 4332 C 404.572 2.51324 -2.59843 0
M  V30 4333 O 404.293 2.00256 -3.89653 0
M  V30 4334 C 405.794 3.43563 -2.80142 0
M  V30 4335 H 403.014 0.409136 -0.531835 0
M  V30 4336 H 405.558 0.677609 -1.92947 0
M  V30 4337 H 403.713 3.13699 -2.27314 0
M  V30 4338 H 404.127 2.76708 -4.4557 0
M  V30 4339 H 405.601 4.2217 -3.55635 0
M  V30 4340 H 406.078 3.9698 -1.87892 0
M  V30 4341 H 406.684 2.87005 -3.1386 0
M  V30 4342 N 404.999 1.35443 0.805782 0
M  V30 4343 C 406.41 1.25768 1.37983 0
M  V30 4344 C 406.761 -0.10958 1.95894 0
M  V30 4345 O 405.886 -1.01056 1.91355 0
M  V30 4346 C 406.481 2.27727 2.5085 0
M  V30 4347 C 405.04 2.2179 3.04115 0
M  V30 4348 C 404.187 2.13393 1.77084 0
M  V30 4349 H 407.138 1.4656 0.608752 0
M  V30 4350 H 407.159 1.90422 3.29424 0
M  V30 4351 H 406.671 3.27227 2.08671 0
M  V30 4352 H 404.772 1.25703 3.50756 0
M  V30 4353 H 404.885 3.13788 3.62042 0
M  V30 4354 H 403.249 1.59384 1.98668 0
M  V30 4355 H 404.032 3.14755 1.37056 0
M  V30 4356 N 406.477 -1.02803 1.19454 0
M  V30 4357 C 407.707 -1.79581 1.02149 0
M  V30 4358 C 408.115 -1.84182 -0.432851 0
M  V30 4359 O 407.458 -1.28534 -1.31243 0
M  V30 4360 C 407.52 -3.25993 1.51554 0
M  V30 4361 C 407.184 -3.45025 2.99678 0
M  V30 4362 C 408.181 -3.35175 3.97434 0
M  V30 4363 C 405.866 -3.71212 3.38389 0
M  V30 4364 C 407.86 -3.51238 5.31893 0
M  V30 4365 C 405.547 -3.8692 4.73008 0
M  V30 4366 C 406.545 -3.76936 5.69569 0
M  V30 4367 O 406.233 -3.92179 7.01748 0
M  V30 4368 H 405.965 -0.571962 0.360327 0
M  V30 4369 H 408.519 -1.30367 1.58725 0
M  V30 4370 H 406.749 -3.76235 0.893543 0
M  V30 4371 H 408.438 -3.84368 1.30444 0
M  V30 4372 H 409.204 -3.14895 3.68872 0
M  V30 4373 H 405.083 -3.78075 2.6378 0
M  V30 4374 H 408.627 -3.43362 6.07247 0
M  V30 4375 H 404.524 -4.06699 5.01265 0
M  V30 4376 H 405.292 -4.09265 7.08833 0
M  V30 4377 N 407.956 -0.998596 -1.21925 0
M  V30 4378 C 409.181 -0.696015 -1.95372 0
M  V30 4379 C 409.606 0.733826 -1.73195 0
M  V30 4380 O 408.964 1.50242 -1.01474 0
M  V30 4381 C 409.012 -1.01466 -3.4603 0
M  V30 4382 O 408.116 -0.116415 -4.12236 0
M  V30 4383 H 407.457 -0.259938 -0.611006 0
M  V30 4384 H 409.987 -1.33711 -1.54863 0
M  V30 4385 H 409.997 -0.958855 -3.96573 0
M  V30 4386 H 408.672 -2.05653 -3.61497 0
M  V30 4387 H 407.249 -0.228193 -3.72201 0
M  V30 4388 N 409.434 1.37368 -0.772513 0
M  V30 4389 C 410.397 2.28601 -0.165541 0
M  V30 4390 C 411.397 1.48062 0.627238 0
M  V30 4391 O 412.587 1.68268 0.450715 0
M  V30 4392 C 409.719 3.32023 0.772897 0
M  V30 4393 H 410.912 2.83787 -0.969787 0
M  V30 4394 H 408.465 1.46647 -0.540775 0
M  V30 4395 H 409.2 2.81962 1.60212 0
M  V30 4396 H 408.985 3.91555 0.206585 0
M  V30 4397 H 410.475 4.00197 1.19298 0
M  V30 4398 N 410.912 0.523116 1.48665 0
M  V30 4399 C 411.875 -0.232592 2.28017 0
M  V30 4400 C 412.875 -0.874021 1.34972 0
M  V30 4401 O 414.065 -0.735132 1.57929 0
M  V30 4402 C 411.197 -1.33586 3.13636 0
M  V30 4403 H 412.39 0.464008 2.96289 0
M  V30 4404 H 409.943 0.278816 1.53793 0
M  V30 4405 H 410.678 -2.06593 2.4998 0
M  V30 4406 H 410.463 -0.881125 3.82071 0
M  V30 4407 H 411.953 -1.86759 3.73511 0
M  V30 4408 N 412.39 -1.55475 0.257931 0
M  V30 4409 C 413.637 -1.99207 -0.363728 0
M  V30 4410 C 413.965 -1.1462 -1.57139 0
M  V30 4411 O 413.22 -0.199653 -1.94679 0
M  V30 4412 C 413.519 -3.48183 -0.806433 0
M  V30 4413 C 413.185 -4.49936 0.294684 0
M  V30 4414 C 411.847 -4.77481 0.597076 0
M  V30 4415 C 414.199 -5.10769 1.03751 0
M  V30 4416 C 411.527 -5.63132 1.64618 0
M  V30 4417 C 413.879 -5.97558 2.07622 0
M  V30 4418 C 412.543 -6.23432 2.38514 0
M  V30 4419 H 411.813 -0.728949 -0.133097 0
M  V30 4420 H 414.46 -1.8793 0.368059 0
M  V30 4421 H 412.765 -3.56848 -1.61761 0
M  V30 4422 H 414.462 -3.79415 -1.29789 0
M  V30 4423 H 411.052 -4.28572 0.0488649 0
M  V30 4424 H 415.236 -4.89527 0.817149 0
M  V30 4425 H 410.492 -5.8143 1.89074 0
M  V30 4426 H 414.666 -6.43735 2.65666 0
M  V30 4427 H 412.293 -6.89594 3.19943 0
M  V30 4428 N 413.868 0.0150385 -1.57593 0
M  V30 4429 C 414.798 1.01047 -2.10503 0
M  V30 4430 C 415.779 1.36816 -1.01071 0
M  V30 4431 O 416.964 1.45455 -1.28672 0
M  V30 4432 C 414.094 2.30708 -2.59598 0
M  V30 4433 C 413.048 2.09142 -3.73421 0
M  V30 4434 C 412.374 3.44685 -4.08774 0
M  V30 4435 C 413.674 1.46619 -5.01298 0
M  V30 4436 H 415.368 0.569978 -2.93925 0
M  V30 4437 H 412.914 0.272724 -1.41394 0
M  V30 4438 H 414.867 3.00687 -2.95238 0
M  V30 4439 H 413.591 2.76843 -1.73279 0
M  V30 4440 H 412.25 1.41592 -3.38153 0
M  V30 4441 H 411.898 3.88495 -3.195 0
M  V30 4442 H 411.598 3.31077 -4.8545 0
M  V30 4443 H 413.122 4.16004 -4.4696 0
M  V30 4444 H 414.536 2.06535 -5.34805 0
M  V30 4445 H 412.933 1.43544 -5.82679 0
M  V30 4446 H 414.003 0.433611 -4.82957 0
M  V30 4447 N 415.346 1.54954 0.287554 0
M  V30 4448 C 416.276 1.89839 1.35954 0
M  V30 4449 C 417.257 0.758675 1.52244 0
M  V30 4450 O 418.442 1.01557 1.65529 0
M  V30 4451 C 415.572 2.15753 2.72154 0
M  V30 4452 C 414.526 3.3159 2.70614 0
M  V30 4453 C 413.852 3.42952 4.10229 0
M  V30 4454 C 415.152 4.68359 2.31165 0
M  V30 4455 H 416.846 2.79625 1.07007 0
M  V30 4456 H 414.392 1.3454 0.513316 0
M  V30 4457 H 416.345 2.38743 3.47246 0
M  V30 4458 H 415.069 1.22752 3.02654 0
M  V30 4459 H 413.728 3.08545 1.97979 0
M  V30 4460 H 413.376 2.47443 4.37928 0
M  V30 4461 H 413.076 4.20826 4.10097 0
M  V30 4462 H 414.6 3.68218 4.87081 0
M  V30 4463 H 416.014 4.9099 2.95976 0
M  V30 4464 H 414.411 5.49044 2.42221 0
M  V30 4465 H 415.481 4.68165 1.26291 0
M  V30 4466 N 416.824 -0.551391 1.4764 0
M  V30 4467 C 418.049 -1.33837 1.58437 0
M  V30 4468 C 418.474 -1.866 0.237063 0
M  V30 4469 O 417.832 -1.6328 -0.787994 0
M  V30 4470 C 417.88 -2.48014 2.61766 0
M  V30 4471 O 416.984 -3.50419 2.1744 0
M  V30 4472 H 416.325 -0.397299 0.532024 0
M  V30 4473 H 418.855 -0.665759 1.93465 0
M  V30 4474 H 418.865 -2.94503 2.82369 0
M  V30 4475 H 417.54 -2.08969 3.5959 0
M  V30 4476 H 416.117 -3.10196 2.06961 0
M  V30 4477 N 418.302 -1.35869 -0.798587 0
M  V30 4478 C 419.579 -1.20145 -1.54352 0
M  V30 4479 C 419.959 0.216161 -2.0999 0
M  V30 4480 O 419.307 1.22068 -1.93162 0
M  V30 4481 C 419.517 -2.27602 -2.64572 0
M  V30 4482 C 420.865 -2.63811 -3.32699 0
M  V30 4483 O 421.889 -2.26576 -2.74849 0
M  V30 4484 O 420.748 -3.27866 -4.37226 0
M  V30 4485 H 417.842 -0.467248 -0.682355 0
M  V30 4486 H 420.388 -1.47574 -0.837859 0
M  V30 4487 H 419.16 -3.2265 -2.21388 0
M  V30 4488 H 418.783 -2.01488 -3.42766 0
M  V30 4489 N 419.78 1.02168 -1.19998 0
M  V30 4490 C 420.712 2.10705 -0.901994 0
M  V30 4491 C 421.725 1.6244 0.108216 0
M  V30 4492 O 422.914 1.78082 -0.12214 0
M  V30 4493 C 420.014 3.37291 -0.329834 0
M  V30 4494 C 419.187 4.14714 -1.39035 0
M  V30 4495 C 418.246 5.19606 -0.830432 0
M  V30 4496 O 417.272 5.48809 -1.50989 0
M  V30 4497 N 418.474 5.79366 0.362696 0
M  V30 4498 H 421.239 2.36856 -1.83628 0
M  V30 4499 H 418.8 1.18518 -1.10296 0
M  V30 4500 H 420.792 4.04657 0.0587633 0
M  V30 4501 H 419.362 3.0843 0.508891 0
M  V30 4502 H 418.582 3.42392 -1.9535 0
M  V30 4503 H 419.87 4.63226 -2.10474 0
M  V30 4504 H 419.268 5.57968 0.932081 0
M  V30 4505 H 417.825 6.48106 0.69299 0
M  V30 4506 N 421.258 1.00505 1.21394 0
M  V30 4507 C 422.535 0.603277 1.86064 0
M  V30 4508 C 422.915 -0.919095 1.90042 0
M  V30 4509 O 422.263 -1.80607 1.39977 0
M  V30 4510 C 422.473 1.23772 3.26315 0
M  V30 4511 C 423.821 1.34586 4.02705 0
M  V30 4512 O 424.845 1.19304 3.35626 0
M  V30 4513 O 423.704 1.59169 5.22807 0
M  V30 4514 H 420.798 0.206634 0.800769 0
M  V30 4515 H 423.344 1.1017 1.29076 0
M  V30 4516 H 422.116 2.27848 3.18121 0
M  V30 4517 H 421.739 0.725648 3.90922 0
M  V30 4518 N 422.737 -1.36956 0.779787 0
M  V30 4519 C 423.647 -2.33965 0.172491 0
M  V30 4520 C 424.663 -1.60574 -0.670222 0
M  V30 4521 O 425.839 -1.92617 -0.588263 0
M  V30 4522 C 422.904 -3.39761 -0.690173 0
M  V30 4523 C 421.965 -4.28964 0.169924 0
M  V30 4524 C 421.198 -5.29707 -0.651662 0
M  V30 4525 O 421.421 -5.38238 -1.88827 0
M  V30 4526 O 420.355 -6.01873 -0.0566264 0
M  V30 4527 H 424.181 -2.87647 0.974321 0
M  V30 4528 H 421.766 -1.39258 0.541078 0
M  V30 4529 H 423.648 -4.04471 -1.1824 0
M  V30 4530 H 422.323 -2.88394 -1.47006 0
M  V30 4531 H 421.23 -3.67326 0.708696 0
M  V30 4532 H 422.563 -4.83656 0.913085 0
M  V30 4533 N 424.215 -0.530993 -1.48385 0
M  V30 4534 C 425.44 0.000729535 -2.074 0
M  V30 4535 C 425.865 1.27298 -1.3848 0
M  V30 4536 O 425.223 1.75599 -0.451081 0
M  V30 4537 C 425.271 0.206697 -3.60007 0
M  V30 4538 O 424.375 1.27514 -3.92191 0
M  V30 4539 H 423.716 -0.039583 -0.662819 0
M  V30 4540 H 426.246 -0.739194 -1.9078 0
M  V30 4541 H 426.256 0.42904 -4.05738 0
M  V30 4542 H 424.931 -0.722675 -4.09573 0
M  V30 4543 H 423.508 1.03537 -3.58238 0
M  V30 4544 N 425.693 1.55336 -0.266172 0
M  V30 4545 C 427.109 1.59356 0.0882065 0
M  V30 4546 C 427.309 1.2834 1.55342 0
M  V30 4547 O 426.365 1.03996 2.30089 0
M  V30 4548 C 427.678 2.99409 -0.278364 0
M  V30 4549 C 429.226 3.12196 -0.224243 0
M  V30 4550 C 429.701 4.545 -0.565123 0
M  V30 4551 N 431.192 4.60313 -0.51634 0
M  V30 4552 C 431.927 5.68434 -0.753013 0
M  V30 4553 N 431.423 6.84738 -1.05383 0
M  V30 4554 N 433.216 5.57942 -0.682414 0
M  V30 4555 H 425.367 1.73764 -1.22147 0
M  V30 4556 H 427.63 0.809822 -0.492841 0
M  V30 4557 H 427.336 3.2691 -1.29703 0
M  V30 4558 H 427.21 3.75228 0.385186 0
M  V30 4559 H 429.597 2.84464 0.78512 0
M  V30 4560 H 429.678 2.38609 -0.921922 0
M  V30 4561 H 429.322 4.82956 -1.57213 0
M  V30 4562 H 429.252 5.26374 0.154248 0
M  V30 4563 H 431.743 3.7676 -0.29335 0
M  V30 4564 H 432.056 7.63088 -1.22133 0
M  V30 4565 H 430.401 6.86375 -1.09151 0
M  V30 4566 H 433.592 4.65958 -0.44731 0
M  V30 4567 H 433.765 6.4213 -0.870248 0
M  V30 4568 N 427.171 -0.0066808 1.57599 0
M  V30 4569 C 428.587 -0.36267 1.55425 0
M  V30 4570 C 428.787 -1.75209 0.995187 0
M  V30 4571 O 427.843 -2.44616 0.626058 0
M  V30 4572 C 429.156 -0.244017 2.99708 0
M  V30 4573 C 430.704 -0.319451 3.11366 0
M  V30 4574 C 431.179 -0.229998 4.57422 0
M  V30 4575 N 432.67 -0.288105 4.62303 0
M  V30 4576 C 433.405 -0.242127 5.72889 0
M  V30 4577 N 432.901 -0.147133 6.92644 0
M  V30 4578 N 434.694 -0.293502 5.61333 0
M  V30 4579 H 426.845 0.902314 1.92281 0
M  V30 4580 H 429.108 0.34525 0.882896 0
M  V30 4581 H 428.814 0.711678 3.44424 0
M  V30 4582 H 428.688 -1.02877 3.629 0
M  V30 4583 H 431.075 -1.26559 2.66584 0
M  V30 4584 H 431.156 0.495055 2.50964 0
M  V30 4585 H 430.8 0.712566 5.02877 0
M  V30 4586 H 430.73 -1.0629 5.15761 0
M  V30 4587 H 433.221 -0.363126 3.76151 0
M  V30 4588 H 433.534 -0.117763 7.7271 0
M  V30 4589 H 431.879 -0.112857 6.94908 0
M  V30 4590 H 435.07 -0.365864 4.66668 0
M  V30 4591 H 435.243 -0.254204 6.47501 0
M  V30 4592 N 428.649 -1.55105 -0.279332 0
M  V30 4593 C 429.897 -1.75066 -1.00977 0
M  V30 4594 C 430.218 -0.551276 -1.87045 0
M  V30 4595 O 429.488 0.433984 -1.91032 0
M  V30 4596 H 428.068 -0.645578 -0.375816 0
M  V30 4597 H 430.73 -1.92497 -0.305089 0
M  V30 4598 H 429.826 -2.64894 -1.65038 0
M  V30 4599 N 430.127 0.543554 -1.4793 0
M  V30 4600 C 431.09 1.63156 -1.60975 0
M  V30 4601 C 432.09 1.53346 -0.483899 0
M  V30 4602 O 433.28 1.5726 -0.749339 0
M  V30 4603 C 430.412 3.02743 -1.56716 0
M  V30 4604 H 431.605 1.52934 -2.57975 0
M  V30 4605 H 429.158 0.764557 -1.36324 0
M  V30 4606 H 429.893 3.18484 -0.611418 0
M  V30 4607 H 429.678 3.11272 -2.38438 0
M  V30 4608 H 431.168 3.81871 -1.6901 0
M  V30 4609 N 431.605 1.3629 0.791371 0
M  V30 4610 C 432.845 1.31792 1.56238 0
M  V30 4611 C 433.209 -0.102237 1.91728 0
M  V30 4612 O 434.41 -0.271759 2.67423 0
M  V30 4613 C 432.681 2.21303 2.80642 0
M  V30 4614 S 434.24 2.34468 3.70904 0
M  V30 4615 H 431.058 0.468141 0.535131 0
M  V30 4616 H 433.66 1.71841 0.932246 0
M  V30 4617 H 432.364 3.23439 2.52617 0
M  V30 4618 H 431.895 1.82266 3.4863 0
M  V30 4619 H 433.91 1.54074 4.71673 0
M  V30 4620 N 433.083 -1.0153 1.20538 0
M  V30 4621 C 434.308 -1.79283 1.04271 0
M  V30 4622 C 434.733 -1.8372 -0.403544 0
M  V30 4623 O 434.091 -1.27321 -1.2907 0
M  V30 4624 C 434.139 -3.21535 1.63241 0
M  V30 4625 O 433.243 -4.03099 0.870908 0
M  V30 4626 H 432.584 -0.55293 0.367647 0
M  V30 4627 H 435.114 -1.27696 1.59859 0
M  V30 4628 H 435.124 -3.72243 1.6703 0
M  V30 4629 H 433.799 -3.1762 2.68497 0
M  V30 4630 H 432.376 -3.61693 0.907323 0
M  V30 4631 N 434.561 -1.01147 -1.20859 0
M  V30 4632 C 435.791 -0.715872 -1.93801 0
M  V30 4633 C 436.199 0.726592 -1.74692 0
M  V30 4634 O 435.542 1.50397 -1.05482 0
M  V30 4635 C 435.604 -0.965269 -3.46299 0
M  V30 4636 C 435.268 -2.39584 -3.89164 0
M  V30 4637 C 436.265 -3.3764 -3.95342 0
M  V30 4638 C 433.95 -2.73522 -4.21297 0
M  V30 4639 C 435.944 -4.67698 -4.33056 0
M  V30 4640 C 433.631 -4.03794 -4.58687 0
M  V30 4641 C 434.629 -5.00693 -4.64538 0
M  V30 4642 O 434.317 -6.28635 -5.01072 0
M  V30 4643 H 434.049 -0.262524 -0.622942 0
M  V30 4644 H 436.603 -1.35413 -1.54443 0
M  V30 4645 H 434.833 -0.269847 -3.85757 0
M  V30 4646 H 436.522 -0.662051 -4.00464 0
M  V30 4647 H 437.288 -3.12757 -3.70686 0
M  V30 4648 H 433.167 -1.9879 -4.15937 0
M  V30 4649 H 436.711 -5.4333 -4.37537 0
M  V30 4650 H 432.608 -4.28459 -4.82797 0
M  V30 4651 H 433.376 -6.32847 -5.19083 0
M  V30 4652 N 436.039 1.36541 -0.78704 0
M  V30 4653 C 437.267 2.03561 -0.370199 0
M  V30 4654 C 437.682 1.59347 1.01263 0
M  V30 4655 O 437.039 0.781781 1.64907 0
M  V30 4656 C 437.09 3.59033 -0.421614 0
M  V30 4657 O 436.811 4.01634 -1.7499 0
M  V30 4658 C 438.312 4.433 0.00489763 0
M  V30 4659 H 435.532 0.653346 -0.152904 0
M  V30 4660 H 438.076 1.74566 -1.06522 0
M  V30 4661 H 436.231 3.86746 0.224971 0
M  V30 4662 H 436.645 4.96217 -1.69909 0
M  V30 4663 H 438.119 5.51939 -0.0822184 0
M  V30 4664 H 438.596 4.26285 1.05723 0
M  V30 4665 H 439.202 4.20843 -0.614085 0
M  V30 4666 N 437.518 0.538854 1.48102 0
M  V30 4667 C 438.758 0.0101209 2.04397 0
M  V30 4668 C 439.122 -1.30741 1.40609 0
M  V30 4669 O 440.323 -1.92272 1.87843 0
M  V30 4670 C 438.594 -0.100232 3.57259 0
M  V30 4671 S 440.153 -0.577746 4.3498 0
M  V30 4672 H 436.971 0.0163171 0.710813 0
M  V30 4673 H 439.573 0.721429 1.81702 0
M  V30 4674 H 438.277 0.863351 4.01216 0
M  V30 4675 H 437.808 -0.835651 3.84422 0
M  V30 4676 H 439.823 -1.84073 4.60794 0
M  V30 4677 N 438.996 -1.55193 0.274407 0
M  V30 4678 C 440.221 -2.04446 -0.348824 0
M  V30 4679 C 440.646 -1.15149 -1.48735 0
M  V30 4680 O 440.004 -0.149952 -1.80679 0
M  V30 4681 C 440.052 -3.51431 -0.808009 0
M  V30 4682 O 439.156 -3.65225 -1.91531 0
M  V30 4683 H 438.497 -0.66006 -0.0722276 0
M  V30 4684 H 441.027 -2.00481 0.408498 0
M  V30 4685 H 441.037 -3.92781 -1.10395 0
M  V30 4686 H 439.712 -4.15892 0.0249865 0
M  V30 4687 H 438.289 -3.35778 -1.62196 0
M  V30 4688 N 440.474 -0.00167713 -1.576 0
M  V30 4689 C 441.885 0.54091 -1.78693 0
M  V30 4690 C 442.236 1.7386 -0.909247 0
M  V30 4691 O 441.361 2.16109 -0.112176 0
M  V30 4692 C 441.956 0.98806 -3.24072 0
M  V30 4693 C 440.515 1.47594 -3.46256 0
M  V30 4694 C 439.662 0.42792 -2.73978 0
M  V30 4695 H 442.613 -0.22784 -1.57056 0
M  V30 4696 H 442.634 1.85398 -3.32277 0
M  V30 4697 H 442.146 0.116164 -3.87926 0
M  V30 4698 H 440.247 2.36868 -2.87618 0
M  V30 4699 H 440.36 1.50225 -4.54939 0
M  V30 4700 H 438.724 0.889934 -2.38647 0
M  V30 4701 H 439.507 -0.435038 -3.40532 0
M  V30 4702 N 441.952 1.55251 0.271103 0
M  V30 4703 C 442.882 1.9127 1.33933 0
M  V30 4704 C 443.863 0.77478 1.5143 0
M  V30 4705 O 445.048 1.03307 1.64442 0
M  V30 4706 C 442.178 2.18627 2.69851 0
M  V30 4707 C 441.132 3.34442 2.67081 0
M  V30 4708 C 440.458 3.47284 4.06569 0
M  V30 4709 C 441.758 4.70784 2.26185 0
M  V30 4710 H 443.452 2.80744 1.04035 0
M  V30 4711 H 440.998 1.35077 0.499017 0
M  V30 4712 H 442.951 2.42413 3.44694 0
M  V30 4713 H 441.675 1.25955 3.01335 0
M  V30 4714 H 440.334 3.10627 1.94695 0
M  V30 4715 H 439.982 2.52074 4.35279 0
M  V30 4716 H 439.682 4.25152 4.0561 0
M  V30 4717 H 441.206 3.73363 4.83148 0
M  V30 4718 H 442.62 4.94102 2.90751 0
M  V30 4719 H 441.017 5.51582 2.36384 0
M  V30 4720 H 442.087 4.69478 1.21319 0
M  V30 4721 N 443.43 -0.535701 1.48216 0
M  V30 4722 C 444.658 -1.31671 1.59594 0
M  V30 4723 C 445.073 -1.87083 0.254056 0
M  V30 4724 O 444.43 -1.66112 -0.755854 0
M  V30 4725 C 444.481 -2.47158 2.63809 0
M  V30 4726 O 444.202 -1.94032 3.92789 0
M  V30 4727 C 445.703 -3.39062 2.85573 0
M  V30 4728 H 442.923 -0.400623 0.538277 0
M  V30 4729 H 445.467 -0.646827 1.94001 0
M  V30 4730 H 443.622 -3.10043 2.32276 0
M  V30 4731 H 444.036 -2.69585 4.49916 0
M  V30 4732 H 445.51 -4.16459 3.62306 0
M  V30 4733 H 445.987 -3.93941 1.94184 0
M  V30 4734 H 446.593 -2.81975 3.18387 0
M  V30 4735 N 444.908 -1.36708 -0.784132 0
M  V30 4736 C 446.154 -1.31426 -1.54451 0
M  V30 4737 C 446.487 0.10476 -1.93917 0
M  V30 4738 O 445.762 1.05934 -1.6312 0
M  V30 4739 C 446.045 -2.24189 -2.818 0
M  V30 4740 C 445.898 -3.74813 -2.48667 0
M  V30 4741 C 447.217 -2.15626 -3.83658 0
M  V30 4742 H 444.336 -0.478739 -0.560337 0
M  V30 4743 H 446.978 -1.67305 -0.900498 0
M  V30 4744 H 445.128 -1.93722 -3.36755 0
M  V30 4745 H 446.8 -4.15823 -1.99722 0
M  V30 4746 H 445.043 -3.93989 -1.81535 0
M  V30 4747 H 445.714 -4.35138 -3.39646 0
M  V30 4748 H 448.19 -2.42456 -3.38163 0
M  V30 4749 H 447.066 -2.82694 -4.70506 0
M  V30 4750 H 447.327 -1.14522 -4.27009 0
M  V30 4751 N 446.386 1.0089 -1.21074 0
M  V30 4752 C 447.632 1.74866 -1.02712 0
M  V30 4753 C 447.965 1.89178 0.438787 0
M  V30 4754 O 447.24 1.42325 1.32567 0
M  V30 4755 C 447.523 3.16347 -1.72036 0
M  V30 4756 C 447.376 3.09782 -3.26121 0
M  V30 4757 C 448.695 4.15187 -1.45973 0
M  V30 4758 H 445.814 0.634736 -0.374539 0
M  V30 4759 H 448.456 1.17646 -1.49196 0
M  V30 4760 H 446.606 3.65201 -1.32517 0
M  V30 4761 H 448.278 2.68673 -3.74983 0
M  V30 4762 H 446.521 2.46982 -3.56626 0
M  V30 4763 H 447.192 4.09829 -3.6979 0
M  V30 4764 H 449.668 3.75022 -1.80272 0
M  V30 4765 H 448.544 5.12331 -1.96999 0
M  V30 4766 H 448.805 4.40386 -0.388924 0
M  V30 4767 N 447.864 1.01787 1.20321 0
M  V30 4768 C 449.141 0.622978 1.85414 0
M  V30 4769 C 449.521 -0.898887 1.91006 0
M  V30 4770 O 448.869 -1.79112 1.41884 0
M  V30 4771 C 449.079 1.27226 3.24984 0
M  V30 4772 C 450.427 1.3885 4.01255 0
M  V30 4773 O 451.451 1.22857 3.34342 0
M  V30 4774 O 450.31 1.64705 5.2109 0
M  V30 4775 H 447.404 0.215116 0.798533 0
M  V30 4776 H 449.95 1.11533 1.27901 0
M  V30 4777 H 448.722 2.31209 3.15687 0
M  V30 4778 H 448.345 0.767069 3.90131 0
M  V30 4779 N 449.342 -1.36122 0.79427 0
M  V30 4780 C 450.272 -2.32551 0.210328 0
M  V30 4781 C 451.253 -1.56884 -0.657386 0
M  V30 4782 O 452.438 -1.85014 -0.590207 0
M  V30 4783 C 449.568 -3.41128 -0.651819 0
M  V30 4784 C 448.522 -4.27842 0.116395 0
M  V30 4785 C 447.848 -5.2763 -0.86666 0
M  V30 4786 C 449.148 -5.05647 1.30837 0
M  V30 4787 H 450.842 -2.81636 1.01594 0
M  V30 4788 H 448.388 -1.35407 0.489981 0
M  V30 4789 H 450.341 -4.07581 -1.07031 0
M  V30 4790 H 449.065 -2.90622 -1.49019 0
M  V30 4791 H 447.724 -3.62952 0.515915 0
M  V30 4792 H 447.372 -4.73395 -1.70019 0
M  V30 4793 H 447.072 -5.86514 -0.35705 0
M  V30 4794 H 448.596 -5.96955 -1.28361 0
M  V30 4795 H 450.01 -5.65113 0.965393 0
M  V30 4796 H 448.407 -5.73967 1.75161 0
M  V30 4797 H 449.477 -4.37006 2.10128 0
M  V30 4798 N 450.82 -0.546701 -1.47814 0
M  V30 4799 C 452.069 -0.0166497 -2.01693 0
M  V30 4800 C 452.382 1.33721 -1.42752 0
M  V30 4801 O 453.588 1.95658 -1.8823 0
M  V30 4802 C 452.044 0.0206769 -3.59894 0
M  V30 4803 C 451.652 -1.3293 -4.27824 0
M  V30 4804 C 453.396 0.498674 -4.21561 0
M  V30 4805 C 451.303 -1.25165 -5.78003 0
M  V30 4806 H 450.233 -0.0024541 -0.753996 0
M  V30 4807 H 452.884 -0.692984 -1.69912 0
M  V30 4808 H 451.266 0.76244 -3.88591 0
M  V30 4809 H 452.44 -2.08795 -4.10781 0
M  V30 4810 H 450.755 -1.74438 -3.78101 0
M  V30 4811 H 453.352 0.575 -5.31599 0
M  V30 4812 H 453.695 1.5083 -3.88016 0
M  V30 4813 H 454.228 -0.18791 -3.97356 0
M  V30 4814 H 450.967 -2.23695 -6.1615 0
M  V30 4815 H 450.487 -0.53464 -5.97412 0
M  V30 4816 H 452.166 -0.949299 -6.39998 0
M  V30 4817 N 452.299 1.55045 -0.282633 0
M  V30 4818 C 453.545 2.00056 0.332481 0
M  V30 4819 C 453.878 1.1708 1.54939 0
M  V30 4820 O 453.153 0.2427 1.9298 0
M  V30 4821 C 453.436 3.53086 0.70725 0
M  V30 4822 C 453.289 4.46813 -0.517521 0
M  V30 4823 C 454.608 4.12245 1.54084 0
M  V30 4824 H 451.727 0.727268 0.119373 0
M  V30 4825 H 454.369 1.85932 -0.391076 0
M  V30 4826 H 452.519 3.65253 1.32372 0
M  V30 4827 H 454.191 4.46579 -1.15607 0
M  V30 4828 H 452.434 4.18163 -1.1542 0
M  V30 4829 H 453.105 5.51595 -0.211426 0
M  V30 4830 H 455.581 4.03401 1.02013 0
M  V30 4831 H 454.457 5.19515 1.77186 0
M  V30 4832 H 454.718 3.62951 2.52427 0
M  V30 4833 N 453.777 0.010035 1.57597 0
M  V30 4834 C 455.054 -0.710296 1.82248 0
M  V30 4835 C 455.434 -1.91426 0.889911 0
M  V30 4836 O 454.782 -2.28424 -0.0590292 0
M  V30 4837 C 454.992 -1.10655 3.30993 0
M  V30 4838 C 456.34 -1.50621 3.96987 0
M  V30 4839 O 457.364 -1.20007 3.35375 0
M  V30 4840 O 456.223 -2.07587 5.05539 0
M  V30 4841 H 453.317 -0.34673 0.750804 0
M  V30 4842 H 455.863 0.0362578 1.69661 0
M  V30 4843 H 454.635 -0.248826 3.90508 0
M  V30 4844 H 454.258 -1.91189 3.48615 0
M  V30 4845 N 455.255 -1.55392 -0.262866 0
M  V30 4846 C 456.504 -1.75679 -0.990943 0
M  V30 4847 C 456.817 -0.57097 -1.87081 0
M  V30 4848 O 458.023 -0.656486 -2.63444 0
M  V30 4849 C 456.479 -3.10964 -1.81188 0
M  V30 4850 C 456.087 -4.37146 -0.980188 0
M  V30 4851 C 457.831 -3.40597 -2.53365 0
M  V30 4852 C 455.738 -5.63466 -1.7961 0
M  V30 4853 H 454.668 -0.654868 -0.373716 0
M  V30 4854 H 457.319 -1.81841 -0.246203 0
M  V30 4855 H 455.701 -2.98867 -2.59797 0
M  V30 4856 H 456.875 -4.60187 -0.237558 0
M  V30 4857 H 455.19 -4.14731 -0.372497 0
M  V30 4858 H 457.787 -4.32186 -3.14833 0
M  V30 4859 H 458.13 -2.6119 -3.24169 0
M  V30 4860 H 458.663 -3.53838 -1.81779 0
M  V30 4861 H 455.402 -6.4565 -1.13209 0
M  V30 4862 H 454.922 -5.44552 -2.51443 0
M  V30 4863 H 456.601 -6.02139 -2.36723 0
M  V30 4864 N 456.733 0.527833 -1.48498 0
M  V30 4865 C 457.666 1.64892 -1.57753 0
M  V30 4866 C 458.644 1.5687 -0.427867 0
M  V30 4867 O 459.828 1.77311 -0.639764 0
M  V30 4868 C 456.955 3.03301 -1.50752 0
M  V30 4869 C 456.001 3.29675 -2.70586 0
M  V30 4870 S 456.834 3.15712 -4.32535 0
M  V30 4871 C 457.99 4.56564 -4.28136 0
M  V30 4872 H 458.223 1.56792 -2.52594 0
M  V30 4873 H 455.756 0.710959 -1.37057 0
M  V30 4874 H 457.714 3.83123 -1.474 0
M  V30 4875 H 456.375 3.08839 -0.572454 0
M  V30 4876 H 455.568 4.3065 -2.61833 0
M  V30 4877 H 455.17 2.57526 -2.71212 0
M  V30 4878 H 457.462 5.48126 -3.98201 0
M  V30 4879 H 458.405 4.70371 -5.29298 0
M  V30 4880 H 458.813 4.35987 -3.58574 0
M  V30 4881 N 458.211 1.37122 0.776871 0
M  V30 4882 C 459.458 1.32047 1.53524 0
M  V30 4883 C 459.786 -0.0965631 1.9426 0
M  V30 4884 O 459.041 -1.06866 1.63945 0
M  V30 4885 C 459.34 2.20068 2.81611 0
M  V30 4886 C 459.006 3.68423 2.59953 0
M  V30 4887 C 457.668 4.08854 2.53755 0
M  V30 4888 C 460.02 4.62431 2.40431 0
M  V30 4889 C 457.348 5.41417 2.26018 0
M  V30 4890 C 459.7 5.95225 2.14219 0
M  V30 4891 C 458.364 6.34767 2.06462 0
M  V30 4892 H 457.634 0.483196 0.561785 0
M  V30 4893 H 460.281 1.69284 0.895268 0
M  V30 4894 H 458.586 1.75809 3.50141 0
M  V30 4895 H 460.283 2.13458 3.39465 0
M  V30 4896 H 456.873 3.36354 2.65638 0
M  V30 4897 H 461.057 4.32057 2.44213 0
M  V30 4898 H 456.313 5.71022 2.18504 0
M  V30 4899 H 460.487 6.67626 1.98112 0
M  V30 4900 H 458.114 7.37413 1.84733 0
M  V30 4901 N 459.689 -1.00246 1.21608 0
M  V30 4902 C 460.935 -1.74319 1.03638 0
M  V30 4903 C 461.268 -1.89408 -0.428749 0
M  V30 4904 O 460.543 -1.43026 -1.3181 0
M  V30 4905 C 460.826 -3.15431 1.73711 0
M  V30 4906 C 460.679 -3.08049 3.27759 0
M  V30 4907 C 461.998 -4.14407 1.48173 0
M  V30 4908 H 459.117 -0.632741 0.377899 0
M  V30 4909 H 461.759 -1.16853 1.49818 0
M  V30 4910 H 459.909 -3.64493 1.34452 0
M  V30 4911 H 461.581 -2.66681 3.76403 0
M  V30 4912 H 459.824 -2.45088 3.57931 0
M  V30 4913 H 460.495 -4.07862 3.71958 0
M  V30 4914 H 462.971 -3.74061 1.82258 0
M  V30 4915 H 461.847 -5.11279 1.99713 0
M  V30 4916 H 462.108 -4.40174 0.412273 0
M  V30 4917 N 461.167 -1.02423 -1.1978 0
M  V30 4918 C 462.413 -0.719051 -1.89625 0
M  V30 4919 C 462.746 0.750083 -1.7913 0
M  V30 4920 O 462.021 1.54574 -1.18056 0
M  V30 4921 C 462.304 -1.16499 -3.40735 0
M  V30 4922 C 462.157 -2.695 -3.60125 0
M  V30 4923 C 463.476 -0.742166 -4.33797 0
M  V30 4924 H 460.595 -0.26269 -0.688595 0
M  V30 4925 H 463.237 -1.27333 -1.41018 0
M  V30 4926 H 461.387 -0.69341 -3.82262 0
M  V30 4927 H 463.059 -3.24569 -3.278 0
M  V30 4928 H 461.302 -3.10113 -3.03336 0
M  V30 4929 H 461.973 -2.95757 -4.66081 0
M  V30 4930 H 464.449 -1.1477 -3.99959 0
M  V30 4931 H 463.325 -1.08213 -5.38127 0
M  V30 4932 H 463.586 0.355747 -4.40666 0
M  V30 4933 N 462.645 1.35699 -0.801477 0
M  V30 4934 C 463.922 1.9324 -0.302937 0
M  V30 4935 C 464.302 1.73209 1.20672 0
M  V30 4936 O 463.65 1.09809 2.00385 0
M  V30 4937 C 463.86 3.41728 -0.708747 0
M  V30 4938 C 465.208 4.18868 -0.695328 0
M  V30 4939 O 466.232 3.5022 -0.649971 0
M  V30 4940 O 465.091 5.41342 -0.749081 0
M  V30 4941 H 462.185 0.82331 -0.0780367 0
M  V30 4942 H 464.731 1.44806 -0.884832 0
M  V30 4943 H 463.503 3.50015 -1.74944 0
M  V30 4944 H 463.126 3.97471 -0.101384 0
M  V30 4945 N 464.123 0.554532 1.47522 0
M  V30 4946 C 465.372 0.0273458 2.01681 0
M  V30 4947 C 465.685 -1.32962 1.43459 0
M  V30 4948 O 466.891 -1.94657 1.89265 0
M  V30 4949 C 465.347 -0.00159057 3.599 0
M  V30 4950 C 464.955 1.35197 4.27113 0
M  V30 4951 C 466.699 -0.476311 4.21819 0
M  V30 4952 C 464.606 1.28229 5.77331 0
M  V30 4953 H 463.536 0.00645269 0.753972 0
M  V30 4954 H 466.187 0.701985 1.69542 0
M  V30 4955 H 464.569 -0.741821 3.8899 0
M  V30 4956 H 465.743 2.1097 4.09668 0
M  V30 4957 H 464.058 1.76441 3.77171 0
M  V30 4958 H 466.655 -0.5468 5.31897 0
M  V30 4959 H 466.998 -1.4877 3.8881 0
M  V30 4960 H 467.531 0.20898 3.97251 0
M  V30 4961 H 464.27 2.26959 6.14955 0
M  V30 4962 H 463.79 0.566314 5.97121 0
M  V30 4963 H 465.469 0.983226 6.39485 0
M  V30 4964 N 465.601 -1.54893 0.290851 0
M  V30 4965 C 466.847 -2.0023 -0.321867 0
M  V30 4966 C 467.18 -1.179 -1.54316 0
M  V30 4967 O 466.455 -0.25293 -1.92848 0
M  V30 4968 C 466.738 -3.53456 -0.688515 0
M  V30 4969 C 466.591 -4.46532 0.541209 0
M  V30 4970 C 467.91 -4.13057 -1.51895 0
M  V30 4971 H 465.029 -0.727891 -0.115515 0
M  V30 4972 H 467.671 -1.85722 0.400931 0
M  V30 4973 H 465.821 -3.6595 -1.30433 0
M  V30 4974 H 467.493 -4.4596 1.17973 0
M  V30 4975 H 465.736 -4.17545 1.17636 0
M  V30 4976 H 466.407 -5.51475 0.240675 0
M  V30 4977 H 468.883 -4.03937 -0.99872 0
M  V30 4978 H 467.759 -5.20448 -1.74429 0
M  V30 4979 H 468.02 -3.64284 -2.50498 0
M  V30 4980 N 467.08 -0.0183926 -1.57589 0
M  V30 4981 C 468.329 0.66185 -1.90532 0
M  V30 4982 C 468.642 1.73904 -0.895366 0
M  V30 4983 O 469.848 2.47518 -1.11566 0
M  V30 4984 C 468.304 1.22844 -3.38286 0
M  V30 4985 C 467.912 0.185103 -4.47617 0
M  V30 4986 C 469.656 1.88581 -3.80312 0
M  V30 4987 C 467.563 0.762723 -5.86461 0
M  V30 4988 H 466.493 0.250972 -0.711006 0
M  V30 4989 H 469.144 -0.0819435 -1.83317 0
M  V30 4990 H 467.526 2.0235 -3.40398 0
M  V30 4991 H 468.7 -0.58671 -4.5705 0
M  V30 4992 H 467.015 -0.372889 -4.14727 0
M  V30 4993 H 469.612 2.32735 -4.81392 0
M  V30 4994 H 469.955 2.72408 -3.14801 0
M  V30 4995 H 470.488 1.15782 -3.80578 0
M  V30 4996 H 467.227 -0.0371713 -6.55489 0
M  V30 4997 H 466.747 1.50327 -5.80656 0
M  V30 4998 H 468.426 1.25576 -6.34697 0
M  V30 4999 N 468.558 1.5553 0.254621 0
M  V30 5000 C 469.506 1.9048 1.33492 0
M  V30 5001 C 470.5 0.78304 1.50216 0
M  V30 5002 O 471.706 0.967582 1.51782 0
M  V30 5003 H 468.081 0.604846 0.44684 0
M  V30 5004 H 470.052 2.80688 1.01275 0
M  V30 5005 C 468.801 2.20928 2.68489 0
M  V30 5006 H 468.124 3.06742 2.56417 0
M  V30 5007 H 469.564 2.49291 3.42972 0
M  V30 5008 C 468.023 1.023 3.20993 0
M  V30 5009 O 468.553 0.267027 4.00811 0
M  V30 5010 N 466.759 0.815714 2.78917 0
M  V30 5011 H 466.306 1.43217 2.14119 0
M  V30 5012 H 466.264 0.0236532 3.14391 0
M  V30 5013 N 470.036 -0.519951 1.48776 0
M  V30 5014 C 471.283 -1.27522 1.57303 0
M  V30 5015 C 471.611 -1.92869 0.251328 0
M  V30 5016 O 470.866 -1.80372 -0.759243 0
M  V30 5017 C 471.165 -2.37864 2.6675 0
M  V30 5018 C 470.831 -1.90103 4.08867 0
M  V30 5019 C 469.493 -1.76795 4.47546 0
M  V30 5020 C 471.845 -1.54133 4.97888 0
M  V30 5021 C 469.173 -1.25868 5.73039 0
M  V30 5022 C 471.525 -1.04665 6.23881 0
M  V30 5023 C 470.189 -0.899823 6.61407 0
M  V30 5024 H 469.459 -0.466636 0.575614 0
M  V30 5025 H 472.106 -0.579109 1.82534 0
M  V30 5026 H 470.411 -3.13186 2.35418 0
M  V30 5027 H 472.108 -2.95969 2.70561 0
M  V30 5028 H 468.698 -2.01414 3.78326 0
M  V30 5029 H 472.882 -1.6327 4.68675 0
M  V30 5030 H 468.138 -1.13196 6.0083 0
M  V30 5031 H 472.312 -0.759074 6.92251 0
M  V30 5032 H 469.939 -0.503011 7.58534 0
M  V30 5033 N 471.514 -1.37532 -0.769588 0
M  V30 5034 C 472.93 -1.18379 -1.07045 0
M  V30 5035 C 473.13 -0.0214312 -2.01489 0
M  V30 5036 O 472.186 0.637809 -2.44312 0
M  V30 5037 C 473.499 -2.50338 -1.66588 0
M  V30 5038 C 475.047 -2.56879 -1.78835 0
M  V30 5039 C 475.522 -3.88974 -2.41792 0
M  V30 5040 N 477.013 -3.90428 -2.4924 0
M  V30 5041 C 477.748 -4.89388 -2.98809 0
M  V30 5042 N 477.244 -5.98745 -3.48535 0
M  V30 5043 N 479.037 -4.76791 -2.97703 0
M  V30 5044 H 471.188 -2.11921 -0.142541 0
M  V30 5045 H 473.451 -0.939608 -0.125863 0
M  V30 5046 H 473.157 -3.35767 -1.0466 0
M  V30 5047 H 473.031 -2.67583 -2.65856 0
M  V30 5048 H 475.418 -1.71856 -2.39895 0
M  V30 5049 H 475.499 -2.43516 -0.783166 0
M  V30 5050 H 475.143 -4.74412 -1.81371 0
M  V30 5051 H 475.073 -3.99641 -3.4292 0
M  V30 5052 H 477.564 -3.11433 -2.14052 0
M  V30 5053 H 477.877 -6.70205 -3.84767 0
M  V30 5054 H 476.222 -6.02387 -3.46634 0
M  V30 5055 H 479.413 -3.90478 -2.58157 0
M  V30 5056 H 479.586 -5.54069 -3.36024 0
M  V30 5057 N 472.992 0.995999 -1.22138 0
M  V30 5058 C 474.22 1.77066 -1.07029 0
M  V30 5059 C 474.635 1.8495 0.379357 0
M  V30 5060 O 473.992 1.3174 1.26297 0
M  V30 5061 C 474.043 3.20533 -1.67155 0
M  V30 5062 O 473.764 3.13082 -3.06449 0
M  V30 5063 C 475.265 4.14461 -1.5728 0
M  V30 5064 H 472.485 0.556179 -0.375374 0
M  V30 5065 H 475.029 1.25238 -1.61666 0
M  V30 5066 H 473.184 3.6944 -1.16589 0
M  V30 5067 H 473.598 4.03283 -3.35355 0
M  V30 5068 H 475.072 5.1289 -2.04078 0
M  V30 5069 H 475.549 4.36005 -0.528795 0
M  V30 5070 H 476.155 3.71449 -2.07136 0
M  V30 5071 N 474.47 1.03057 1.19235 0
M  V30 5072 C 475.698 0.747697 1.92917 0
M  V30 5073 C 476.113 -0.69372 1.75593 0
M  V30 5074 O 475.47 -1.47191 1.07894 0
M  V30 5075 C 475.521 1.09159 3.44625 0
M  V30 5076 O 475.242 2.47641 3.61394 0
M  V30 5077 C 476.743 0.831763 4.35427 0
M  V30 5078 H 473.963 0.273453 0.612751 0
M  V30 5079 H 476.507 1.37552 1.51327 0
M  V30 5080 H 474.662 0.508919 3.84043 0
M  V30 5081 H 475.076 2.60499 4.55237 0
M  V30 5082 H 476.55 1.12233 5.4047 0
M  V30 5083 H 477.027 -0.233769 4.38577 0
M  V30 5084 H 477.633 1.39725 4.01693 0
M  V30 5085 N 475.948 -1.35272 0.808662 0
M  V30 5086 C 477.178 -2.02652 0.401953 0
M  V30 5087 C 477.586 -1.6108 -0.992462 0
M  V30 5088 O 476.929 -0.804984 -1.65123 0
M  V30 5089 C 476.991 -3.57174 0.408246 0
M  V30 5090 C 476.655 -4.22019 1.75353 0
M  V30 5091 C 477.652 -4.43552 2.71215 0
M  V30 5092 C 475.337 -4.59093 2.03811 0
M  V30 5093 C 477.331 -5.01264 3.93717 0
M  V30 5094 C 475.018 -5.16519 3.26576 0
M  V30 5095 C 476.016 -5.37546 4.21347 0
M  V30 5096 O 475.704 -5.93761 5.41944 0
M  V30 5097 H 475.436 -0.656495 0.161216 0
M  V30 5098 H 477.99 -1.73829 1.0942 0
M  V30 5099 H 476.22 -3.85197 -0.340608 0
M  V30 5100 H 477.909 -4.05893 0.0235623 0
M  V30 5101 H 478.675 -4.15288 2.50522 0
M  V30 5102 H 474.554 -4.42039 1.30854 0
M  V30 5103 H 478.098 -5.17592 4.67701 0
M  V30 5104 H 473.995 -5.4421 3.47139 0
M  V30 5105 H 474.763 -6.1221 5.43269 0
M  V30 5106 N 477.426 -0.562348 -1.47226 0
M  V30 5107 C 478.672 -0.0402761 -2.0276 0
M  V30 5108 C 479.005 1.30823 -1.43523 0
M  V30 5109 O 478.28 1.85249 -0.592705 0
M  V30 5110 C 478.563 0.047311 -3.60069 0
M  V30 5111 C 478.416 -1.32865 -4.29729 0
M  V30 5112 C 479.735 0.758182 -4.3352 0
M  V30 5113 H 476.854 -0.0161105 -0.736824 0
M  V30 5114 H 479.496 -0.725628 -1.75598 0
M  V30 5115 H 477.646 0.630986 -3.83342 0
M  V30 5116 H 479.318 -1.95593 -4.17781 0
M  V30 5117 H 477.561 -1.90195 -3.89882 0
M  V30 5118 H 478.232 -1.22004 -5.38349 0
M  V30 5119 H 480.708 0.262546 -4.15271 0
M  V30 5120 H 479.584 0.78844 -5.43208 0
M  V30 5121 H 479.845 1.81537 -4.03109 0
M  V30 5122 N 478.904 1.54736 -0.299062 0
M  V30 5123 C 479.852 2.24897 0.593658 0
M  V30 5124 C 480.846 1.25429 1.13859 0
M  V30 5125 O 482.052 1.43286 1.08945 0
M  V30 5126 H 478.427 0.72207 0.210046 0
M  V30 5127 H 480.398 2.98393 -0.0206421 0
M  V30 5128 C 479.147 3.00159 1.75499 0
M  V30 5129 H 478.47 3.76501 1.34489 0
M  V30 5130 H 479.91 3.52535 2.35574 0
M  V30 5131 C 478.369 2.07015 2.65794 0
M  V30 5132 O 478.899 1.63692 3.66835 0
M  V30 5133 N 477.105 1.73012 2.33485 0
M  V30 5134 H 476.652 2.08439 1.51364 0
M  V30 5135 H 476.61 1.10965 2.94167 0
M  V30 5136 N 480.382 0.0267497 1.57577 0
M  V30 5137 C 481.61 -0.662661 1.96001 0
M  V30 5138 C 482.025 -1.65799 0.903117 0
M  V30 5139 O 481.382 -1.82135 -0.115317 0
M  V30 5140 C 481.433 -1.37112 3.34488 0
M  V30 5141 O 481.154 -0.415683 4.36123 0
M  V30 5142 C 482.655 -2.15257 3.8753 0
M  V30 5143 H 479.875 -0.18287 0.6456 0
M  V30 5144 H 482.419 0.0858116 2.0432 0
M  V30 5145 H 480.574 -2.07101 3.27395 0
M  V30 5146 H 480.988 -0.918496 5.16395 0
M  V30 5147 H 482.462 -2.60285 4.86781 0
M  V30 5148 H 482.939 -2.99063 3.21649 0
M  V30 5149 H 483.545 -1.50231 3.97883 0
M  V30 5150 N 481.861 -1.55662 -0.24637 0
M  V30 5151 C 482.809 -1.91186 -1.3248 0
M  V30 5152 C 483.803 -0.790996 -1.49799 0
M  V30 5153 O 485.009 -0.975617 -1.51267 0
M  V30 5154 H 481.384 -0.607207 -0.443626 0
M  V30 5155 H 483.355 -2.81221 -0.997853 0
M  V30 5156 C 482.104 -2.22349 -2.67313 0
M  V30 5157 H 481.427 -3.08097 -2.54786 0
M  V30 5158 H 482.867 -2.51107 -3.41645 0
M  V30 5159 C 481.326 -1.04001 -3.20446 0
M  V30 5160 O 481.856 -0.28828 -4.00664 0
M  V30 5161 N 480.062 -0.830494 -2.7848 0
M  V30 5162 H 479.609 -1.4435 -2.13356 0
M  V30 5163 H 479.567 -0.0403258 -3.14374 0
M  V30 5164 N 483.339 0.512053 -1.4905 0
M  V30 5165 C 484.616 1.27337 -1.48474 0
M  V30 5166 C 484.996 2.1009 -0.206301 0
M  V30 5167 O 484.344 2.136 0.811609 0
M  V30 5168 C 484.554 2.13954 -2.75726 0
M  V30 5169 C 485.902 2.73507 -3.24776 0
M  V30 5170 O 486.926 2.24229 -2.76767 0
M  V30 5171 O 485.785 3.63186 -4.08361 0
M  V30 5172 H 482.879 0.575652 -0.593762 0
M  V30 5173 H 485.425 0.527232 -1.61302 0
M  V30 5174 H 484.197 1.52709 -3.60272 0
M  V30 5175 H 483.82 2.95782 -2.65705 0
M  V30 5176 N 484.817 1.37938 0.762283 0
M  V30 5177 C 485.727 1.36681 1.90671 0
M  V30 5178 C 486.743 0.265078 1.71969 0
M  V30 5179 O 487.919 0.502055 1.95042 0
M  V30 5180 C 484.984 1.18211 3.25925 0
M  V30 5181 C 484.045 2.3811 3.57214 0
M  V30 5182 C 483.278 2.20512 4.86014 0
M  V30 5183 O 483.501 1.19429 5.57757 0
M  V30 5184 O 482.435 3.08911 5.16583 0
M  V30 5185 H 486.261 2.33091 1.94685 0
M  V30 5186 H 483.846 1.18767 0.906356 0
M  V30 5187 H 485.728 1.09937 4.06807 0
M  V30 5188 H 484.403 0.248807 3.22742 0
M  V30 5189 H 483.31 2.51958 2.76529 0
M  V30 5190 H 484.643 3.30041 3.65149 0
M  V30 5191 N 486.295 -0.989507 1.22664 0
M  V30 5192 C 487.541 -1.7321 1.05481 0
M  V30 5193 C 487.874 -1.89852 -0.408635 0
M  V30 5194 O 487.149 -1.44416 -1.30285 0
M  V30 5195 C 487.432 -3.1357 1.77047 0
M  V30 5196 C 487.285 -3.04555 3.31008 0
M  V30 5197 C 488.604 -4.12812 1.5256 0
M  V30 5198 H 485.723 -0.628697 0.384589 0
M  V30 5199 H 488.365 -1.15258 1.51049 0
M  V30 5200 H 486.515 -3.63046 1.3831 0
M  V30 5201 H 488.187 -2.62674 3.7921 0
M  V30 5202 H 486.43 -2.41278 3.6051 0
M  V30 5203 H 487.101 -4.03894 3.76263 0
M  V30 5204 H 489.577 -3.72106 1.86215 0
M  V30 5205 H 488.453 -5.09132 2.05124 0
M  V30 5206 H 488.714 -4.39711 0.458936 0
M  V30 5207 N 487.773 -1.03688 -1.18687 0
M  V30 5208 C 489.019 -0.739123 -1.88851 0
M  V30 5209 C 489.352 0.731042 -1.79915 0
M  V30 5210 O 488.627 1.53313 -1.19688 0
M  V30 5211 C 488.91 -1.20106 -3.3948 0
M  V30 5212 C 488.763 -2.73304 -3.57246 0
M  V30 5213 C 490.082 -0.788134 -4.32986 0
M  V30 5214 H 487.201 -0.269978 -0.68577 0
M  V30 5215 H 489.843 -1.28822 -1.3966 0
M  V30 5216 H 487.993 -0.733915 -3.81505 0
M  V30 5217 H 489.665 -3.28027 -3.24339 0
M  V30 5218 H 487.908 -3.13313 -3.00029 0
M  V30 5219 H 488.579 -3.00684 -4.62918 0
M  V30 5220 H 491.055 -1.19005 -3.98719 0
M  V30 5221 H 489.931 -1.13915 -5.36949 0
M  V30 5222 H 490.192 0.308988 -4.41019 0
M  V30 5223 N 489.251 1.34841 -0.815825 0
M  V30 5224 C 490.476 2.03261 -0.41226 0
M  V30 5225 C 490.901 1.61055 0.971751 0
M  V30 5226 O 490.259 0.7917 1.63101 0
M  V30 5227 C 490.307 3.56914 -0.514289 0
M  V30 5228 O 489.411 4.09728 0.468675 0
M  V30 5229 H 488.752 0.641664 -0.170771 0
M  V30 5230 H 491.282 1.72241 -1.10427 0
M  V30 5231 H 491.292 4.06156 -0.387457 0
M  V30 5232 H 489.967 3.86982 -1.52375 0
M  V30 5233 H 488.544 3.71681 0.301316 0
M  V30 5234 N 490.729 0.570148 1.46925 0
M  V30 5235 C 491.679 -0.190921 2.27199 0
M  V30 5236 C 492.663 -0.873457 1.35128 0
M  V30 5237 O 493.855 -0.769627 1.59392 0
M  V30 5238 C 490.984 -1.21204 3.21192 0
M  V30 5239 C 490.07 -0.532261 4.20747 0
M  V30 5240 N 490.461 0.405038 5.04176 0
M  V30 5241 C 488.759 -0.784582 4.39045 0
M  V30 5242 C 489.46 0.801149 5.76157 0
M  V30 5243 N 488.436 0.153082 5.43384 0
M  V30 5244 H 492.238 0.529535 2.8909 0
M  V30 5245 H 489.752 0.391019 1.57622 0
M  V30 5246 H 491.749 -1.77135 3.77398 0
M  V30 5247 H 490.409 -1.93345 2.6086 0
M  V30 5248 H 491.42 0.779903 5.11994 0
M  V30 5249 H 488.097 -1.49352 3.89872 0
M  V30 5250 H 489.487 1.57208 6.5325 0
M  V30 5251 N 492.207 -1.54576 0.307264 0
M  V30 5252 C 493.618 -1.8579 -0.184121 0
M  V30 5253 C 493.969 -1.22914 -1.52927 0
M  V30 5254 O 493.094 -0.529126 -2.09831 0
M  V30 5255 C 493.689 -3.37081 -0.340862 0
M  V30 5256 C 492.248 -3.68304 -0.776465 0
M  V30 5257 C 491.395 -2.77076 0.111503 0
M  V30 5258 H 494.346 -1.49656 0.528078 0
M  V30 5259 H 494.367 -3.61922 -1.17443 0
M  V30 5260 H 493.879 -3.82815 0.638309 0
M  V30 5261 H 491.98 -3.28092 -1.76596 0
M  V30 5262 H 492.093 -4.75434 -0.591512 0
M  V30 5263 H 490.457 -2.51374 -0.410256 0
M  V30 5264 H 491.24 -3.25632 1.08714 0
M  V30 5265 N 493.685 -0.035106 -1.57561 0
M  V30 5266 C 495.101 0.321334 -1.56332 0
M  V30 5267 C 495.301 1.72509 -1.04129 0
M  V30 5268 O 494.357 2.4287 -0.690694 0
M  V30 5269 C 495.67 0.164469 -3.0025 0
M  V30 5270 C 497.218 0.236786 -3.12103 0
M  V30 5271 C 497.693 0.10864 -4.57871 0
M  V30 5272 N 499.184 0.165433 -4.62904 0
M  V30 5273 C 499.919 0.0901506 -5.73329 0
M  V30 5274 N 499.415 -0.0365606 -6.9279 0
M  V30 5275 N 501.208 0.144572 -5.61914 0
M  V30 5276 H 493.359 -0.952976 -1.89821 0
M  V30 5277 H 495.622 -0.368537 -0.873432 0
M  V30 5278 H 495.328 -0.802746 -3.42416 0
M  V30 5279 H 495.202 0.932194 -3.655 0
M  V30 5280 H 497.589 1.19446 -2.69845 0
M  V30 5281 H 497.67 -0.561419 -2.49563 0
M  V30 5282 H 497.314 -0.845644 -5.00811 0
M  V30 5283 H 497.244 0.925786 -5.18398 0
M  V30 5284 H 499.735 0.263269 -3.76982 0
M  V30 5285 H 500.048 -0.0871487 -7.72751 0
M  V30 5286 H 498.393 -0.0714256 -6.94963 0
M  V30 5287 H 501.584 0.242006 -4.67474 0
M  V30 5288 H 501.757 0.0824413 -6.47948 0
M  V30 5289 N 495.163 1.55791 0.238111 0
M  V30 5290 C 496.579 1.48411 0.587045 0
M  V30 5291 C 496.779 0.72702 1.87927 0
M  V30 5292 O 495.835 0.259942 2.51158 0
M  V30 5293 C 497.148 2.92873 0.681623 0
M  V30 5294 C 498.696 3.03295 0.773363 0
M  V30 5295 C 499.171 4.49082 0.899428 0
M  V30 5296 N 500.662 4.53056 0.964075 0
M  V30 5297 C 501.397 5.63117 1.08104 0
M  V30 5298 N 500.893 6.82969 1.16299 0
M  V30 5299 N 502.686 5.50933 1.11488 0
M  V30 5300 H 494.837 2.0345 -0.610076 0
M  V30 5301 H 497.1 0.924034 -0.211813 0
M  V30 5302 H 496.806 3.51142 -0.19802 0
M  V30 5303 H 496.68 3.43851 1.55069 0
M  V30 5304 H 499.067 2.45101 1.64346 0
M  V30 5305 H 499.148 2.55513 -0.121034 0
M  V30 5306 H 498.792 5.07889 0.0338586 0
M  V30 5307 H 498.722 4.94553 1.809 0
M  V30 5308 H 501.213 3.66737 0.91173 0
M  V30 5309 H 501.526 7.62598 1.25155 0
M  V30 5310 H 499.871 6.85712 1.13241 0
M  V30 5311 H 503.062 4.56231 1.0474 0
M  V30 5312 H 503.235 6.36743 1.20259 0
M  V30 5313 N 496.642 -0.504142 1.49319 0
M  V30 5314 C 497.891 -1.25507 1.57895 0
M  V30 5315 C 498.204 -1.93735 0.269433 0
M  V30 5316 O 499.41 -2.70492 0.233706 0
M  V30 5317 C 497.866 -2.27869 2.78574 0
M  V30 5318 C 497.474 -1.65594 4.16272 0
M  V30 5319 C 499.218 -3.0381 2.96479 0
M  V30 5320 C 497.125 -2.66048 5.28178 0
M  V30 5321 H 496.055 -0.47212 0.587894 0
M  V30 5322 H 498.706 -0.52931 1.757 0
M  V30 5323 H 497.088 -3.03594 2.54257 0
M  V30 5324 H 498.262 -0.958826 4.50714 0
M  V30 5325 H 496.577 -1.02055 4.037 0
M  V30 5326 H 499.174 -3.78925 3.77253 0
M  V30 5327 H 499.517 -3.61235 2.06918 0
M  V30 5328 H 500.05 -2.352 3.20821 0
M  V30 5329 H 496.789 -2.13408 6.19788 0
M  V30 5330 H 496.309 -3.34009 4.98195 0
M  V30 5331 H 497.988 -3.28536 5.57381 0
M  V30 5332 N 498.12 -1.38341 -0.754957 0
M  V30 5333 C 499.083 -1.35262 -1.85032 0
M  V30 5334 C 500.083 -0.253393 -1.58791 0
M  V30 5335 O 501.273 -0.510205 -1.66561 0
M  V30 5336 C 498.405 -1.10544 -3.22479 0
M  V30 5337 H 499.598 -2.32712 -1.8917 0
M  V30 5338 H 497.151 -1.23614 -0.956515 0
M  V30 5339 H 497.886 -0.136952 -3.24011 0
M  V30 5340 H 497.671 -1.90127 -3.4292 0
M  V30 5341 H 499.161 -1.11082 -4.02555 0
M  V30 5342 N 499.598 0.982988 -1.23187 0
M  V30 5343 C 500.844 1.72648 -1.06398 0
M  V30 5344 C 501.177 1.90066 0.398561 0
M  V30 5345 O 500.452 1.45105 1.29518 0
M  V30 5346 C 500.735 3.12627 -1.78707 0
M  V30 5347 C 500.588 3.02795 -3.32618 0
M  V30 5348 C 501.907 4.11997 -1.54747 0
M  V30 5349 H 499.026 0.626649 -0.387918 0
M  V30 5350 H 501.668 1.14455 -1.51658 0
M  V30 5351 H 499.818 3.62308 -1.40234 0
M  V30 5352 H 501.49 2.60659 -3.80598 0
M  V30 5353 H 499.733 2.39362 -3.61785 0
M  V30 5354 H 500.404 4.01893 -3.78399 0
M  V30 5355 H 502.88 3.71114 -1.88186 0
M  V30 5356 H 501.756 5.08037 -2.07821 0
M  V30 5357 H 502.017 4.39462 -0.482249 0
M  V30 5358 N 501.076 1.04316 1.18135 0
M  V30 5359 C 502.026 0.606731 2.19779 0
M  V30 5360 C 503.01 -0.352144 1.56999 0
M  V30 5361 O 504.202 -0.170795 1.76174 0
M  V30 5362 C 501.331 -0.0262443 3.4329 0
M  V30 5363 C 500.417 0.955928 4.13186 0
M  V30 5364 N 500.808 2.12395 4.59045 0
M  V30 5365 C 499.106 0.782473 4.39082 0
M  V30 5366 C 499.807 2.74458 5.12882 0
M  V30 5367 N 498.783 2.02316 5.04548 0
M  V30 5368 H 502.585 1.49679 2.5293 0
M  V30 5369 H 500.099 0.912088 1.34368 0
M  V30 5370 H 502.096 -0.356617 4.15372 0
M  V30 5371 H 500.756 -0.911811 3.11635 0
M  V30 5372 H 501.767 2.50272 4.53414 0
M  V30 5373 H 498.444 -0.0527906 4.17467 0
M  V30 5374 H 499.834 3.73459 5.5855 0
M  V30 5375 N 502.554 -1.34406 0.822964 0
M  V30 5376 C 503.784 -2.02214 0.423424 0
M  V30 5377 C 504.192 -1.62124 -0.975322 0
M  V30 5378 O 503.535 -0.822452 -1.6426 0
M  V30 5379 C 503.597 -3.56721 0.446107 0
M  V30 5380 C 503.261 -4.20136 1.79819 0
M  V30 5381 C 504.258 -4.4065 2.75904 0
M  V30 5382 C 501.943 -4.56906 2.08669 0
M  V30 5383 C 503.937 -4.9706 3.99012 0
M  V30 5384 C 501.624 -5.13026 3.32036 0
M  V30 5385 C 502.622 -5.33047 4.27024 0
M  V30 5386 O 502.31 -5.87979 5.48211 0
M  V30 5387 H 502.042 -0.654748 0.168169 0
M  V30 5388 H 504.596 -1.72659 1.11257 0
M  V30 5389 H 502.826 -3.85537 -0.299734 0
M  V30 5390 H 504.515 -4.05845 0.0666114 0
M  V30 5391 H 505.281 -4.12607 2.54912 0
M  V30 5392 H 501.16 -4.40626 1.35535 0
M  V30 5393 H 504.704 -5.12603 4.73164 0
M  V30 5394 H 500.601 -5.40498 3.52891 0
M  V30 5395 H 501.369 -6.06413 5.49732 0
M  V30 5396 N 504.032 -0.577932 -1.46621 0
M  V30 5397 C 505.279 -0.0616879 -2.02406 0
M  V30 5398 C 505.607 1.29638 -1.44997 0
M  V30 5399 O 504.862 1.86176 -0.60308 0
M  V30 5400 C 505.161 0.0590832 -3.57351 0
M  V30 5401 C 504.827 -1.23077 -4.33777 0
M  V30 5402 C 503.489 -1.58416 -4.54376 0
M  V30 5403 C 505.841 -2.08457 -4.77698 0
M  V30 5404 C 503.169 -2.78943 -5.16147 0
M  V30 5405 C 505.521 -3.28204 -5.408 0
M  V30 5406 C 504.185 -3.63832 -5.59627 0
M  V30 5407 H 503.455 -0.0225732 -0.740656 0
M  V30 5408 H 506.102 -0.753609 -1.76048 0
M  V30 5409 H 504.407 0.834104 -3.82818 0
M  V30 5410 H 506.104 0.474202 -3.98186 0
M  V30 5411 H 502.694 -0.945652 -4.18038 0
M  V30 5412 H 506.878 -1.82459 -4.61544 0
M  V30 5413 H 502.134 -3.06689 -5.28916 0
M  V30 5414 H 506.308 -3.94634 -5.73792 0
M  V30 5415 H 503.935 -4.57315 -6.07262 0
M  V30 5416 N 505.51 1.54411 -0.315457 0
M  V30 5417 C 506.457 2.24048 0.554166 0
M  V30 5418 C 507.427 1.2283 1.11812 0
M  V30 5419 O 508.612 1.51491 1.15997 0
M  V30 5420 C 505.752 2.99574 1.71316 0
M  V30 5421 C 504.865 4.15594 1.17922 0
M  V30 5422 C 504 4.78669 2.30324 0
M  V30 5423 C 503.039 5.86807 1.74137 0
M  V30 5424 N 502.176 6.43777 2.8017 0
M  V30 5425 H 507.016 2.97964 -0.0462602 0
M  V30 5426 H 504.553 1.47059 -0.0346009 0
M  V30 5427 H 506.511 3.41604 2.39505 0
M  V30 5428 H 505.141 2.28008 2.285 0
M  V30 5429 H 504.193 3.78404 0.389136 0
M  V30 5430 H 505.505 4.93459 0.728012 0
M  V30 5431 H 504.659 5.23626 3.06433 0
M  V30 5432 H 503.398 4.00168 2.78778 0
M  V30 5433 H 502.403 5.41261 0.965236 0
M  V30 5434 H 503.628 6.67201 1.2657 0
M  V30 5435 H 501.574 5.68153 3.2793 0
M  V30 5436 H 501.491 7.17031 2.39588 0
M  V30 5437 H 502.759 6.9339 3.56132 0
M  V30 5438 N 506.988 0.0434614 1.5754 0
M  V30 5439 C 508.236 -0.630786 1.92004 0
M  V30 5440 C 508.557 -1.71836 0.921807 0
M  V30 5441 O 507.827 -1.9587 -0.034522 0
M  V30 5442 H 506.407 -0.235988 0.708745 0
M  V30 5443 H 509.069 0.0946462 1.9467 0
M  V30 5444 H 508.165 -1.07434 2.93026 0
M  V30 5445 N 508.466 -1.55915 -0.229846 0
M  V30 5446 C 509.712 -1.79718 -0.952517 0
M  V30 5447 C 510.067 -0.61514 -1.82301 0
M  V30 5448 O 509.36 0.391098 -1.87566 0
M  V30 5449 C 509.554 -3.06845 -1.8325 0
M  V30 5450 C 509.383 -4.37302 -1.04868 0
M  V30 5451 C 508.153 -4.99749 -0.746932 0
M  V30 5452 C 510.351 -5.12599 -0.417989 0
M  V30 5453 N 508.333 -6.13871 0.0591596 0
M  V30 5454 C 509.704 -6.19488 0.251879 0
M  V30 5455 C 511.759 -4.96804 -0.33018 0
M  V30 5456 C 510.462 -7.12299 1.00115 0
M  V30 5457 C 512.488 -5.90007 0.4056 0
M  V30 5458 C 511.85 -6.96317 1.06404 0
M  V30 5459 H 507.949 -0.709382 -0.329091 0
M  V30 5460 H 510.533 -1.93406 -0.224114 0
M  V30 5461 H 508.704 -2.94456 -2.53279 0
M  V30 5462 H 510.436 -3.18874 -2.49202 0
M  V30 5463 H 507.191 -4.61518 -1.06292 0
M  V30 5464 H 507.615 -6.75497 0.450798 0
M  V30 5465 H 512.257 -4.14675 -0.824898 0
M  V30 5466 H 509.975 -7.93916 1.50741 0
M  V30 5467 H 513.561 -5.79862 0.474436 0
M  V30 5468 H 512.441 -7.67194 1.62429 0
M  V30 5469 N 509.944 0.496216 -1.49584 0
M  V30 5470 C 511.191 1.25003 -1.59312 0
M  V30 5471 C 511.519 1.92445 -0.28198 0
M  V30 5472 O 510.774 1.81557 0.730452 0
M  V30 5473 C 511.073 2.3359 -2.705 0
M  V30 5474 C 510.739 1.83574 -4.11839 0
M  V30 5475 C 509.401 1.69653 -4.50302 0
M  V30 5476 C 511.753 1.46193 -5.00277 0
M  V30 5477 C 509.081 1.16736 -5.74969 0
M  V30 5478 C 511.433 0.947265 -6.25468 0
M  V30 5479 C 510.097 0.794485 -6.62755 0
M  V30 5480 H 509.367 0.45742 -0.582965 0
M  V30 5481 H 512.014 0.549996 -1.83432 0
M  V30 5482 H 510.319 3.09401 -2.40371 0
M  V30 5483 H 512.016 2.91627 -2.75235 0
M  V30 5484 H 508.606 1.9537 -3.81482 0
M  V30 5485 H 512.79 1.55793 -4.71214 0
M  V30 5486 H 508.046 1.03623 -6.02555 0
M  V30 5487 H 512.22 0.648846 -6.93371 0
M  V30 5488 H 509.847 0.382271 -7.59238 0
M  V30 5489 N 511.423 1.38739 0.74761 0
M  V30 5490 C 512.353 1.39173 1.87492 0
M  V30 5491 C 513.334 0.256794 1.6815 0
M  V30 5492 O 514.519 0.460762 1.88655 0
M  V30 5493 C 511.649 1.22197 3.25093 0
M  V30 5494 C 510.603 2.32957 3.59047 0
M  V30 5495 C 509.929 2.01082 4.95449 0
M  V30 5496 C 511.229 3.75237 3.6331 0
M  V30 5497 H 512.923 2.3351 1.87386 0
M  V30 5498 H 510.469 1.12399 0.900134 0
M  V30 5499 H 512.422 1.21124 4.03617 0
M  V30 5500 H 511.146 0.243241 3.25693 0
M  V30 5501 H 509.805 2.33226 2.82845 0
M  V30 5502 H 509.453 1.01678 4.92616 0
M  V30 5503 H 509.153 2.75267 5.19136 0
M  V30 5504 H 510.677 2.01638 5.76346 0
M  V30 5505 H 512.091 3.76966 4.31937 0
M  V30 5506 H 510.488 4.48677 3.98509 0
M  V30 5507 H 511.558 4.07122 2.634 0
M  V30 5508 N 512.901 -0.976442 1.23707 0
M  V30 5509 C 514.15 -1.71254 1.06559 0
M  V30 5510 C 514.463 -1.91528 -0.397024 0
M  V30 5511 O 515.669 -2.62625 -0.688518 0
M  V30 5512 C 514.125 -3.08207 1.8584 0
M  V30 5513 C 513.733 -2.95806 3.36456 0
M  V30 5514 C 515.477 -3.85749 1.77194 0
M  V30 5515 C 513.384 -4.28015 4.08114 0
M  V30 5516 H 512.314 -0.642171 0.395136 0
M  V30 5517 H 514.965 -1.08877 1.4771 0
M  V30 5518 H 513.347 -3.71363 1.37498 0
M  V30 5519 H 514.521 -2.41716 3.92314 0
M  V30 5520 H 512.836 -2.31736 3.45959 0
M  V30 5521 H 515.433 -4.83633 2.28041 0
M  V30 5522 H 515.776 -4.09752 0.735477 0
M  V30 5523 H 516.309 -3.29303 2.23169 0
M  V30 5524 H 513.048 -4.09208 5.12083 0
M  V30 5525 H 512.568 -4.81955 3.57043 0
M  V30 5526 H 514.247 -4.96681 4.14629 0
M  V30 5527 N 514.379 -1.04941 -1.1758 0
M  V30 5528 C 515.656 -0.671918 -1.83697 0
M  V30 5529 C 516.036 0.847929 -1.93322 0
M  V30 5530 O 515.384 1.75287 -1.46583 0
M  V30 5531 C 515.594 -1.35797 -3.21497 0
M  V30 5532 C 516.942 -1.4944 -3.97433 0
M  V30 5533 O 517.966 -1.31678 -3.30967 0
M  V30 5534 O 516.825 -1.78463 -5.1654 0
M  V30 5535 H 513.919 -0.236212 -0.792548 0
M  V30 5536 H 516.465 -1.14884 -1.24899 0
M  V30 5537 H 515.237 -2.39498 -3.09446 0
M  V30 5538 H 514.86 -0.870236 -3.8796 0
M  V30 5539 N 515.857 1.33968 -0.830081 0
M  V30 5540 C 516.79 2.27303 -0.202182 0
M  V30 5541 C 517.768 1.49235 0.645581 0
M  V30 5542 O 518.952 1.78433 0.607762 0
M  V30 5543 C 516.079 3.31025 0.716932 0
M  V30 5544 C 515.125 4.26466 -0.0542271 0
M  V30 5545 S 515.958 5.16707 -1.40622 0
M  V30 5546 C 517.114 6.23962 -0.492167 0
M  V30 5547 H 517.347 2.8021 -0.99346 0
M  V30 5548 H 514.88 1.41124 -0.626359 0
M  V30 5549 H 516.838 3.91271 1.24165 0
M  V30 5550 H 515.499 2.76951 1.4818 0
M  V30 5551 H 514.692 4.99858 0.644785 0
M  V30 5552 H 514.294 3.7051 -0.509722 0
M  V30 5553 H 516.586 6.76774 0.31347 0
M  V30 5554 H 517.529 6.97927 -1.19599 0
M  V30 5555 H 517.937 5.64447 -0.0774176 0
M  V30 5556 N 517.335 0.585699 1.46312 0
M  V30 5557 C 518.581 0.0725284 2.0267 0
M  V30 5558 C 518.914 -1.28523 1.45586 0
M  V30 5559 O 518.189 -1.84283 0.622101 0
M  V30 5560 C 518.472 0.0099788 3.60099 0
M  V30 5561 C 518.325 1.39685 4.27561 0
M  V30 5562 C 519.644 -0.689117 4.34671 0
M  V30 5563 H 516.763 0.0278307 0.736474 0
M  V30 5564 H 519.405 0.753472 1.74421 0
M  V30 5565 H 517.555 -0.56992 3.84297 0
M  V30 5566 H 519.227 2.02215 4.14617 0
M  V30 5567 H 517.47 1.96374 3.86807 0
M  V30 5568 H 518.141 1.30553 5.36339 0
M  V30 5569 H 520.617 -0.196446 4.15636 0
M  V30 5570 H 519.493 -0.701921 5.44393 0
M  V30 5571 H 519.754 -1.75101 4.05946 0
M  V30 5572 N 518.813 -1.54241 0.323641 0
M  V30 5573 C 519.776 -2.22997 -0.529602 0
M  V30 5574 C 520.776 -1.22345 -1.04347 0
M  V30 5575 O 521.966 -1.46924 -0.935889 0
M  V30 5576 C 519.098 -2.93409 -1.73562 0
M  V30 5577 H 520.291 -2.99815 0.0714518 0
M  V30 5578 H 517.844 -1.56121 0.0747258 0
M  V30 5579 H 518.579 -2.20729 -2.37591 0
M  V30 5580 H 518.364 -3.67217 -1.37456 0
M  V30 5581 H 519.854 -3.45794 -2.34128 0
M  V30 5582 N 520.291 -0.0518155 -1.57515 0
M  V30 5583 C 521.254 0.907547 -2.10467 0
M  V30 5584 C 522.254 1.23947 -1.02439 0
M  V30 5585 O 523.444 1.17604 -1.2851 0
M  V30 5586 C 520.576 2.21723 -2.58944 0
M  V30 5587 H 521.769 0.44851 -2.96527 0
M  V30 5588 H 519.322 0.196598 -1.55059 0
M  V30 5589 H 520.057 2.72206 -1.76279 0
M  V30 5590 H 519.842 1.98935 -3.37886 0
M  V30 5591 H 521.332 2.90441 -3.00056 0
M  V30 5592 N 521.769 1.56035 0.221574 0
M  V30 5593 C 523.018 1.78245 0.944016 0
M  V30 5594 C 523.331 0.620371 1.85501 0
M  V30 5595 O 524.537 0.726103 2.6161 0
M  V30 5596 C 522.993 3.15659 1.7288 0
M  V30 5597 C 522.601 4.39591 0.863942 0
M  V30 5598 C 524.345 3.47195 2.44246 0
M  V30 5599 C 522.252 5.6803 1.64607 0
M  V30 5600 H 521.182 0.664547 0.356222 0
M  V30 5601 H 523.833 1.8243 0.197904 0
M  V30 5602 H 522.215 3.0565 2.51781 0
M  V30 5603 H 523.389 4.60655 0.115464 0
M  V30 5604 H 521.704 4.15572 0.262407 0
M  V30 5605 H 524.301 4.40381 3.03263 0
M  V30 5606 H 524.644 2.69693 3.1713 0
M  V30 5607 H 525.177 3.58533 1.72334 0
M  V30 5608 H 521.916 6.48425 0.960507 0
M  V30 5609 H 521.436 5.51027 2.36917 0
M  V30 5610 H 523.115 6.08203 2.20675 0
M  V30 5611 N 523.247 -0.488276 1.49845 0
M  V30 5612 C 524.658 -1.06955 1.53028 0
M  V30 5613 C 525.009 -1.9351 0.323797 0
M  V30 5614 O 524.134 -2.08891 -0.565116 0
M  V30 5615 C 524.729 -1.94643 2.77307 0
M  V30 5616 C 523.288 -2.4791 2.83227 0
M  V30 5617 C 522.435 -1.25833 2.47106 0
M  V30 5618 H 525.386 -0.271626 1.56358 0
M  V30 5619 H 525.407 -2.79496 2.5819 0
M  V30 5620 H 524.919 -1.31621 3.65099 0
M  V30 5621 H 523.02 -3.14535 1.99745 0
M  V30 5622 H 523.133 -2.84193 3.85709 0
M  V30 5623 H 521.497 -1.58764 1.99163 0
M  V30 5624 H 522.28 -0.644993 3.37186 0
M  V30 5625 N 524.725 -1.39134 -0.740242 0
M  V30 5626 C 525.972 -1.36071 -1.49969 0
M  V30 5627 C 526.3 0.0450245 -1.94448 0
M  V30 5628 O 525.555 1.02482 -1.66721 0
M  V30 5629 C 525.854 -2.27457 -2.75678 0
M  V30 5630 C 525.52 -3.75185 -2.50094 0
M  V30 5631 C 524.182 -4.15439 -2.42825 0
M  V30 5632 C 526.534 -4.68643 -2.28086 0
M  V30 5633 C 523.862 -5.4722 -2.11584 0
M  V30 5634 C 526.214 -6.00695 -1.98363 0
M  V30 5635 C 524.878 -6.40018 -1.8956 0
M  V30 5636 H 524.148 -0.497921 -0.548777 0
M  V30 5637 H 526.795 -1.71599 -0.85007 0
M  V30 5638 H 525.1 -1.8503 -3.45356 0
M  V30 5639 H 526.797 -2.22384 -3.33686 0
M  V30 5640 H 523.387 -3.43279 -2.56627 0
M  V30 5641 H 527.571 -4.3838 -2.32672 0
M  V30 5642 H 522.827 -5.76615 -2.03287 0
M  V30 5643 H 527.001 -6.72644 -1.80341 0
M  V30 5644 H 524.628 -7.42051 -1.65117 0
M  V30 5645 N 526.204 0.969867 -1.24223 0
M  V30 5646 C 527.481 1.68774 -0.988664 0
M  V30 5647 C 527.861 2.05342 0.489673 0
M  V30 5648 O 527.209 1.75486 1.46345 0
M  V30 5649 C 527.419 2.92135 -1.90941 0
M  V30 5650 C 528.767 3.64422 -2.17903 0
M  V30 5651 O 529.791 3.02188 -1.88576 0
M  V30 5652 O 528.65 4.76446 -2.67697 0
M  V30 5653 H 525.744 0.737736 -0.37373 0
M  V30 5654 H 528.29 1.02415 -1.35312 0
M  V30 5655 H 527.062 2.61788 -2.90831 0
M  V30 5656 H 526.685 3.66228 -1.54798 0
M  V30 5657 N 527.682 1.05563 1.17022 0
M  V30 5658 C 528.612 0.681026 2.23348 0
M  V30 5659 C 529.593 -0.322983 1.67005 0
M  V30 5660 O 530.778 -0.199746 1.9317 0
M  V30 5661 C 527.908 0.0589053 3.4725 0
M  V30 5662 C 526.862 0.988082 4.16438 0
M  V30 5663 C 526.188 0.229646 5.34207 0
M  V30 5664 C 527.488 2.31388 4.68249 0
M  V30 5665 H 529.182 1.56993 2.54938 0
M  V30 5666 H 526.728 0.756302 1.2254 0
M  V30 5667 H 528.681 -0.214982 4.20851 0
M  V30 5668 H 527.405 -0.864968 3.14938 0
M  V30 5669 H 526.064 1.24659 3.44754 0
M  V30 5670 H 525.712 -0.697111 4.98146 0
M  V30 5671 H 525.412 0.848815 5.81437 0
M  V30 5672 H 526.936 -0.0368694 6.10589 0
M  V30 5673 H 528.35 2.09964 5.33468 0
M  V30 5674 H 526.747 2.88736 5.26072 0
M  V30 5675 H 527.817 2.94982 3.84855 0
M  V30 5676 N 529.16 -1.33526 0.837174 0
M  V30 5677 C 530.09 -2.31764 0.284206 0
M  V30 5678 C 531.071 -1.58896 -0.607142 0
M  V30 5679 O 532.256 -1.86798 -0.531047 0
M  V30 5680 C 529.386 -3.43029 -0.542962 0
M  V30 5681 C 528.34 -4.27255 0.252451 0
M  V30 5682 C 527.666 -5.3012 -0.69836 0
M  V30 5683 C 528.966 -5.01229 1.46858 0
M  V30 5684 H 530.66 -2.78262 1.10502 0
M  V30 5685 H 528.206 -1.3378 0.532812 0
M  V30 5686 H 530.159 -4.1078 -0.940096 0
M  V30 5687 H 528.883 -2.95216 -1.39697 0
M  V30 5688 H 527.542 -3.61127 0.631124 0
M  V30 5689 H 527.19 -4.78564 -1.54872 0
M  V30 5690 H 526.89 -5.87353 -0.170274 0
M  V30 5691 H 528.414 -6.00737 -1.09305 0
M  V30 5692 H 529.828 -5.61756 1.14469 0
M  V30 5693 H 528.225 -5.68104 1.93333 0
M  V30 5694 H 529.295 -4.301 2.23924 0
M  V30 5695 N 530.638 -0.59345 -1.46 0
M  V30 5696 C 531.887 -0.0808084 -2.01538 0
M  V30 5697 C 532.2 1.29112 -1.46934 0
M  V30 5698 O 533.406 1.8957 -1.94359 0
M  V30 5699 C 531.862 -0.0938311 -3.59778 0
M  V30 5700 C 531.47 -1.46474 -4.23379 0
M  V30 5701 C 533.214 0.364306 -4.22934 0
M  V30 5702 C 531.121 -1.4349 -5.73729 0
M  V30 5703 H 530.051 -0.0264407 -0.753536 0
M  V30 5704 H 532.702 -0.746689 -1.67621 0
M  V30 5705 H 531.084 0.638427 -3.9082 0
M  V30 5706 H 532.258 -2.21758 -4.03931 0
M  V30 5707 H 530.573 -1.86379 -3.7236 0
M  V30 5708 H 533.17 0.405584 -5.3316 0
M  V30 5709 H 533.513 1.38409 -3.92618 0
M  V30 5710 H 534.046 -0.31423 -3.96557 0
M  V30 5711 H 530.785 -2.43184 -6.08722 0
M  V30 5712 H 530.305 -0.724431 -5.95409 0
M  V30 5713 H 531.984 -1.15243 -6.36654 0
M  V30 5714 N 532.116 1.54067 -0.331816 0
M  V30 5715 C 533.363 2.00715 0.268269 0
M  V30 5716 C 533.691 1.21986 1.51491 0
M  V30 5717 O 532.946 0.292309 1.93505 0
M  V30 5718 C 533.245 3.51634 0.639392 0
M  V30 5719 C 532.911 4.48018 -0.509019 0
M  V30 5720 C 531.573 4.74089 -0.824209 0
M  V30 5721 C 533.925 5.05237 -1.28003 0
M  V30 5722 C 531.253 5.54637 -1.91298 0
M  V30 5723 C 533.605 5.86972 -2.35895 0
M  V30 5724 C 532.269 6.11342 -2.67987 0
M  V30 5725 H 531.539 0.734469 0.0981667 0
M  V30 5726 H 534.186 1.8596 -0.457304 0
M  V30 5727 H 532.491 3.6416 1.44551 0
M  V30 5728 H 534.188 3.85175 1.11539 0
M  V30 5729 H 530.778 4.27851 -0.253287 0
M  V30 5730 H 534.962 4.8507 -1.04978 0
M  V30 5731 H 530.218 5.71747 -2.16599 0
M  V30 5732 H 534.392 6.30327 -2.96076 0
M  V30 5733 H 532.019 6.73544 -3.5248 0
M  V30 5734 N 533.594 0.0601682 1.57485 0
M  V30 5735 C 535.01 -0.296422 1.56823 0
M  V30 5736 C 535.21 -1.70831 1.0686 0
M  V30 5737 O 534.266 -2.4174 0.729245 0
M  V30 5738 C 535.579 -0.116681 3.00474 0
M  V30 5739 C 537.127 -0.187103 3.1244 0
M  V30 5740 C 537.602 -0.035783 4.57986 0
M  V30 5741 N 539.093 -0.0917676 4.63109 0
M  V30 5742 C 539.828 0.00107251 5.734 0
M  V30 5743 N 539.324 0.146773 6.92645 0
M  V30 5744 N 541.117 -0.0551577 5.62073 0
M  V30 5745 H 533.268 0.983055 1.88281 0
M  V30 5746 H 535.531 0.382386 0.867459 0
M  V30 5747 H 535.237 0.85712 3.41096 0
M  V30 5748 H 535.111 -0.873929 3.66936 0
M  V30 5749 H 537.498 -1.15138 2.71712 0
M  V30 5750 H 537.579 0.601052 2.48638 0
M  V30 5751 H 537.223 0.925212 4.99402 0
M  V30 5752 H 537.153 -0.843196 5.19806 0
M  V30 5753 H 539.644 -0.203261 3.77353 0
M  V30 5754 H 539.957 0.210076 7.72514 0
M  V30 5755 H 538.302 0.181979 6.94762 0
M  V30 5756 H 541.493 -0.167605 4.678 0
M  V30 5757 H 541.666 0.020652 6.47997 0
M  V30 5758 N 535.072 -1.5615 -0.213296 0
M  V30 5759 C 536.3 -1.83638 -0.953139 0
M  V30 5760 C 536.715 -0.640362 -1.77609 0
M  V30 5761 O 536.072 0.391071 -1.78261 0
M  V30 5762 C 536.123 -3.09735 -1.86405 0
M  V30 5763 O 535.844 -4.24723 -1.07435 0
M  V30 5764 C 537.345 -3.5027 -2.71709 0
M  V30 5765 H 534.565 -0.610263 -0.278962 0
M  V30 5766 H 537.109 -2.03247 -0.226035 0
M  V30 5767 H 535.264 -2.92077 -2.545 0
M  V30 5768 H 535.678 -4.9641 -1.69343 0
M  V30 5769 H 537.152 -4.41515 -3.31313 0
M  V30 5770 H 537.629 -2.72406 -3.44516 0
M  V30 5771 H 538.235 -3.70396 -2.09015 0
M  V30 5772 N 536.55 0.480323 -1.50102 0
M  V30 5773 C 537.798 1.23063 -1.60312 0
M  V30 5774 C 538.119 1.92659 -0.301226 0
M  V30 5775 O 537.389 1.83691 0.680753 0
M  V30 5776 H 535.969 0.457231 -0.590719 0
M  V30 5777 H 538.631 0.554893 -1.86834 0
M  V30 5778 H 537.727 1.9835 -2.40964 0
M  V30 5779 N 538.028 1.39524 0.732853 0
M  V30 5780 C 539.253 1.40329 1.52717 0
M  V30 5781 C 539.678 0.000286574 1.881 0
M  V30 5782 O 539.036 -0.987262 1.52062 0
M  V30 5783 C 539.084 2.28464 2.78992 0
M  V30 5784 O 538.188 1.716 3.75003 0
M  V30 5785 H 537.529 0.47778 0.461109 0
M  V30 5786 H 540.059 1.83546 0.903996 0
M  V30 5787 H 540.069 2.43051 3.27705 0
M  V30 5788 H 538.744 3.30425 2.52572 0
M  V30 5789 H 537.321 1.66267 3.33781 0
M  V30 5790 N 539.506 -0.963266 1.24736 0
M  V30 5791 C 540.783 -1.68248 0.9976 0
M  V30 5792 C 541.163 -2.05599 -0.478776 0
M  V30 5793 O 540.511 -1.7626 -1.45412 0
M  V30 5794 C 540.721 -2.91118 1.92487 0
M  V30 5795 C 542.069 -3.63261 2.19833 0
M  V30 5796 O 543.093 -3.01184 1.90176 0
M  V30 5797 O 541.952 -4.75019 2.7022 0
M  V30 5798 H 539.046 -0.735744 0.377637 0
M  V30 5799 H 541.592 -1.01696 1.35853 0
M  V30 5800 H 540.364 -2.60242 2.92215 0
M  V30 5801 H 539.987 -3.65402 1.56738 0
M  V30 5802 N 540.985 -1.06182 -1.16461 0
M  V30 5803 C 541.895 -0.682671 -2.24448 0
M  V30 5804 C 542.911 0.30078 -1.71381 0
M  V30 5805 O 544.087 0.150376 -2.00838 0
M  V30 5806 C 541.152 -0.0737202 -3.46622 0
M  V30 5807 C 540.213 -1.10889 -4.14731 0
M  V30 5808 C 539.446 -0.528908 -5.31073 0
M  V30 5809 O 539.669 0.65868 -5.66584 0
M  V30 5810 O 538.603 -1.26805 -5.88391 0
M  V30 5811 H 542.429 -1.58291 -2.59187 0
M  V30 5812 H 540.014 -0.834013 -1.23954 0
M  V30 5813 H 541.896 0.264192 -4.20571 0
M  V30 5814 H 540.571 0.800015 -3.13658 0
M  V30 5815 H 539.478 -1.49896 -3.42756 0
M  V30 5816 H 540.811 -1.95412 -4.51747 0
M  V30 5817 N 542.463 1.3308 -0.844243 0
M  V30 5818 C 543.691 2.01808 -0.456203 0
M  V30 5819 C 544.106 1.63498 0.944131 0
M  V30 5820 O 543.463 0.85102 1.61443 0
M  V30 5821 C 543.514 3.56922 -0.573513 0
M  V30 5822 O 543.235 3.93851 -1.91868 0
M  V30 5823 C 544.736 4.42922 -0.183125 0
M  V30 5824 H 541.956 0.646273 -0.180477 0
M  V30 5825 H 544.5 1.69891 -1.1383 0
M  V30 5826 H 542.655 3.87352 0.0607367 0
M  V30 5827 H 543.069 4.88564 -1.90802 0
M  V30 5828 H 544.543 5.51093 -0.316241 0
M  V30 5829 H 545.02 4.30386 0.875477 0
M  V30 5830 H 545.626 4.1786 -0.792027 0
M  V30 5831 N 543.941 0.601185 1.45683 0
M  V30 5832 C 545.169 0.100054 2.06658 0
M  V30 5833 C 545.584 -1.21285 1.44691 0
M  V30 5834 O 544.941 -1.73735 0.558772 0
M  V30 5835 C 544.992 -0.0528579 3.61461 0
M  V30 5836 O 544.713 1.20809 4.21114 0
M  V30 5837 C 546.214 -0.586193 4.39407 0
M  V30 5838 H 543.434 0.065905 0.667756 0
M  V30 5839 H 545.978 0.827101 1.87028 0
M  V30 5840 H 544.133 -0.730203 3.80456 0
M  V30 5841 H 544.547 1.03368 5.14213 0
M  V30 5842 H 546.021 -0.642297 5.4825 0
M  V30 5843 H 546.498 -1.60713 4.0874 0
M  V30 5844 H 547.104 0.0568935 4.25262 0
M  V30 5845 N 545.419 -1.53889 0.339982 0
M  V30 5846 C 546.647 -2.05271 -0.259114 0
M  V30 5847 C 547.062 -1.21517 -1.44496 0
M  V30 5848 O 546.419 -0.24966 -1.80784 0
M  V30 5849 C 546.47 -3.55092 -0.677634 0
M  V30 5850 O 546.191 -4.35667 0.461051 0
M  V30 5851 C 547.692 -4.22631 -1.33782 0
M  V30 5852 H 544.912 -0.669085 -0.0506566 0
M  V30 5853 H 547.456 -1.9852 0.490935 0
M  V30 5854 H 545.611 -3.62077 -1.37763 0
M  V30 5855 H 546.025 -5.24343 0.128144 0
M  V30 5856 H 547.499 -5.28861 -1.58145 0
M  V30 5857 H 547.976 -3.74758 -2.29027 0
M  V30 5858 H 548.582 -4.19829 -0.679957 0
M  V30 5859 N 546.897 -0.0685191 -1.57451 0
M  V30 5860 C 547.827 0.89747 -2.15564 0
M  V30 5861 C 548.808 1.31266 -1.08181 0
M  V30 5862 O 549.993 1.38429 -1.36202 0
M  V30 5863 C 547.123 2.16623 -2.71463 0
M  V30 5864 C 546.077 1.89054 -3.83982 0
M  V30 5865 C 545.403 3.22532 -4.26471 0
M  V30 5866 C 546.703 1.1984 -5.08366 0
M  V30 5867 H 548.397 0.413373 -2.96533 0
M  V30 5868 H 545.943 0.197391 -1.42641 0
M  V30 5869 H 547.896 2.84614 -3.10761 0
M  V30 5870 H 546.62 2.67269 -1.8771 0
M  V30 5871 H 545.279 1.23469 -3.45183 0
M  V30 5872 H 544.927 3.71013 -3.39644 0
M  V30 5873 H 544.627 3.04879 -5.02317 0
M  V30 5874 H 546.151 3.91727 -4.68383 0
M  V30 5875 H 547.565 1.77896 -5.45001 0
M  V30 5876 H 545.962 1.12456 -5.89469 0
M  V30 5877 H 547.032 0.176996 -4.84577 0
M  V30 5878 N 548.375 1.56261 0.205012 0
M  V30 5879 C 549.624 1.79236 0.925058 0
M  V30 5880 C 549.937 0.640011 1.84833 0
M  V30 5881 O 551.143 0.753809 2.60826 0
M  V30 5882 C 549.599 3.17475 1.69522 0
M  V30 5883 C 549.207 4.40482 0.817269 0
M  V30 5884 C 550.951 3.49766 2.4055 0
M  V30 5885 C 548.858 5.69744 1.58573 0
M  V30 5886 H 547.788 0.668287 0.349153 0
M  V30 5887 H 550.439 1.82629 0.178544 0
M  V30 5888 H 548.821 3.08304 2.48526 0
M  V30 5889 H 549.995 4.60752 0.0665988 0
M  V30 5890 H 548.31 4.15827 0.218316 0
M  V30 5891 H 550.907 4.43573 2.98575 0
M  V30 5892 H 551.25 2.73041 3.14252 0
M  V30 5893 H 551.783 3.60341 1.68522 0
M  V30 5894 H 548.522 6.49407 0.891679 0
M  V30 5895 H 548.042 5.53509 2.31059 0
M  V30 5896 H 549.721 6.1051 2.14212 0
M  V30 5897 N 549.853 -0.472356 1.50355 0
M  V30 5898 C 551.101 -1.22211 1.60962 0
M  V30 5899 C 551.422 -1.92497 0.311439 0
M  V30 5900 O 550.692 -1.8405 -0.671002 0
M  V30 5901 H 549.272 -0.454092 0.593135 0
M  V30 5902 H 551.934 -0.544977 1.87126 0
M  V30 5903 H 551.03 -1.9707 2.42012 0
M  V30 5904 N 551.331 -1.39911 -0.725443 0
M  V30 5905 C 552.261 -1.42138 -1.85254 0
M  V30 5906 C 553.242 -0.283513 -1.67721 0
M  V30 5907 O 554.427 -0.490717 -1.87898 0
M  V30 5908 C 551.557 -1.27354 -3.23107 0
M  V30 5909 C 550.511 -2.3864 -3.55296 0
M  V30 5910 C 549.837 -2.08939 -4.92188 0
M  V30 5911 C 551.137 -3.8097 -3.57295 0
M  V30 5912 H 552.831 -2.36461 -1.83648 0
M  V30 5913 H 550.377 -1.13817 -0.882138 0
M  V30 5914 H 552.33 -1.2753 -4.01639 0
M  V30 5915 H 551.054 -0.295025 -3.25265 0
M  V30 5916 H 549.713 -2.37696 -2.79099 0
M  V30 5917 H 549.361 -1.09502 -4.90936 0
M  V30 5918 H 549.061 -2.83491 -5.14691 0
M  V30 5919 H 550.585 -2.10781 -5.73065 0
M  V30 5920 H 551.999 -3.8379 -4.25885 0
M  V30 5921 H 550.396 -4.5496 -3.9132 0
M  V30 5922 H 551.466 -4.11261 -2.5689 0
M  V30 5923 N 552.809 0.956637 -1.25245 0
M  V30 5924 C 553.739 2.07058 -1.07931 0
M  V30 5925 C 554.72 1.70096 0.0110361 0
M  V30 5926 O 555.905 1.93555 -0.158121 0
M  V30 5927 C 553.035 3.40272 -0.695124 0
M  V30 5928 C 551.989 3.91235 -1.73549 0
M  V30 5929 C 551.315 5.20921 -1.20604 0
M  V30 5930 C 552.615 4.17837 -3.13385 0
M  V30 5931 H 554.309 2.218 -2.01109 0
M  V30 5932 H 551.855 1.06581 -0.968326 0
M  V30 5933 H 553.808 4.1765 -0.560949 0
M  V30 5934 H 552.532 3.25462 0.272355 0
M  V30 5935 H 551.191 3.16025 -1.85807 0
M  V30 5936 H 550.839 5.02479 -0.228846 0
M  V30 5937 H 550.539 5.55987 -1.90136 0
M  V30 5938 H 552.063 6.00897 -1.08421 0
M  V30 5939 H 553.477 4.8588 -3.04292 0
M  V30 5940 H 551.874 4.64154 -3.80369 0
M  V30 5941 H 552.944 3.2419 -3.60595 0
M  V30 5942 N 554.287 1.06798 1.15896 0
M  V30 5943 C 555.234 0.683314 2.20453 0
M  V30 5944 C 556.204 -0.32255 1.62938 0
M  V30 5945 O 557.389 -0.210276 1.89638 0
M  V30 5946 C 554.529 0.0813266 3.45004 0
M  V30 5947 C 553.642 1.13799 4.16742 0
M  V30 5948 C 552.777 0.501598 5.28826 0
M  V30 5949 C 551.816 1.54144 5.92373 0
M  V30 5950 N 550.953 0.928038 6.9594 0
M  V30 5951 H 555.793 1.57932 2.52708 0
M  V30 5952 H 553.33 0.789544 1.24115 0
M  V30 5953 H 555.288 -0.285274 4.16224 0
M  V30 5954 H 553.918 -0.77806 3.13283 0
M  V30 5955 H 552.97 1.62223 3.44075 0
M  V30 5956 H 554.282 1.92664 4.60089 0
M  V30 5957 H 553.436 0.0823162 6.06644 0
M  V30 5958 H 552.175 -0.318883 4.86656 0
M  V30 5959 H 551.18 1.97056 5.13273 0
M  V30 5960 H 552.405 2.3641 6.36621 0
M  V30 5961 H 550.351 0.12836 6.55874 0
M  V30 5962 H 550.268 1.65401 7.37685 0
M  V30 5963 H 551.536 0.534071 7.77668 0
M  V30 5964 N 555.766 -1.3263 0.851289 0
M  V30 5965 C 556.994 -2.01563 0.466899 0
M  V30 5966 C 557.409 -1.63996 -0.935447 0
M  V30 5967 O 556.766 -0.85957 -1.6099 0
M  V30 5968 C 556.817 -3.56613 0.592433 0
M  V30 5969 O 556.538 -3.92828 1.93954 0
M  V30 5970 C 558.039 -4.42818 0.206612 0
M  V30 5971 H 555.259 -0.645307 0.183902 0
M  V30 5972 H 557.803 -1.69285 1.1473 0
M  V30 5973 H 555.958 -3.87379 -0.0401936 0
M  V30 5974 H 556.372 -4.87545 1.9339 0
M  V30 5975 H 557.846 -5.50918 0.345462 0
M  V30 5976 H 558.323 -4.30844 -0.85264 0
M  V30 5977 H 558.929 -4.17434 0.814176 0
M  V30 5978 N 557.244 -0.608902 -1.45362 0
M  V30 5979 C 558.207 0.0992563 -2.28985 0
M  V30 5980 C 559.207 0.793841 -1.39838 0
M  V30 5981 O 560.397 0.641804 -1.61946 0
M  V30 5982 C 557.529 1.15073 -3.20891 0
M  V30 5983 H 558.722 -0.635964 -2.93079 0
M  V30 5984 H 556.275 -0.368007 -1.51906 0
M  V30 5985 H 557.01 1.91667 -2.616 0
M  V30 5986 H 556.795 0.656867 -3.86559 0
M  V30 5987 H 558.285 1.64665 -3.83765 0
M  V30 5988 N 558.722 1.53707 -0.348139 0
M  V30 5989 C 560.138 1.596 0.00361134 0
M  V30 5990 C 560.338 1.36394 1.4832 0
M  V30 5991 O 559.394 1.16046 2.24253 0
M  V30 5992 C 560.707 2.97512 -0.436682 0
M  V30 5993 C 562.255 3.10568 -0.389416 0
M  V30 5994 C 562.73 4.50866 -0.805249 0
M  V30 5995 N 564.221 4.56929 -0.759616 0
M  V30 5996 C 564.956 5.63643 -1.05327 0
M  V30 5997 N 564.452 6.78189 -1.41531 0
M  V30 5998 N 566.245 5.5354 -0.977207 0
M  V30 5999 H 558.396 1.67044 -1.31187 0
M  V30 6000 H 560.659 0.782559 -0.535075 0
M  V30 6001 H 560.365 3.19575 -1.46849 0
M  V30 6002 H 560.239 3.76742 0.185744 0
M  V30 6003 H 562.626 2.88226 0.633228 0
M  V30 6004 H 562.707 2.33387 -1.04711 0
M  V30 6005 H 562.351 4.73943 -1.82593 0
M  V30 6006 H 562.281 5.26452 -0.124989 0
M  V30 6007 H 564.772 3.74675 -0.49265 0
M  V30 6008 H 565.085 7.55541 -1.62411 0
M  V30 6009 H 563.43 6.79624 -1.45381 0
M  V30 6010 H 566.621 4.62932 -0.693675 0
M  V30 6011 H 566.794 6.36614 -1.2094 0
M  V30 6012 N 560.2 0.0768682 1.57412 0
M  V30 6013 C 561.13 -0.886026 2.16037 0
M  V30 6014 C 562.111 -1.30691 1.08876 0
M  V30 6015 O 563.296 -1.37705 1.36934 0
M  V30 6016 C 560.426 -2.1518 2.72608 0
M  V30 6017 C 559.38 -1.87015 3.8498 0
M  V30 6018 C 558.706 -3.20266 4.28175 0
M  V30 6019 C 560.006 -1.17143 5.08994 0
M  V30 6020 H 561.7 -0.397642 2.96748 0
M  V30 6021 H 559.246 -0.189823 1.42743 0
M  V30 6022 H 561.199 -2.82962 3.12266 0
M  V30 6023 H 559.923 -2.66269 1.89125 0
M  V30 6024 H 558.582 -1.21636 3.45833 0
M  V30 6025 H 558.23 -3.69207 3.41607 0
M  V30 6026 H 557.93 -3.0221 5.03927 0
M  V30 6027 H 559.454 -3.89237 4.70454 0
M  V30 6028 H 560.868 -1.75003 5.45937 0
M  V30 6029 H 559.265 -1.09328 5.90057 0
M  V30 6030 H 560.335 -0.151295 4.84664 0
M  V30 6031 N 561.678 -1.56367 -0.196722 0
M  V30 6032 C 562.608 -1.97442 -1.24655 0
M  V30 6033 C 563.589 -0.846147 -1.47561 0
M  V30 6034 O 564.774 -1.11035 -1.59326 0
M  V30 6035 C 561.904 -2.31253 -2.59112 0
M  V30 6036 C 560.858 -3.46804 -2.50821 0
M  V30 6037 C 560.184 -3.66286 -3.89536 0
M  V30 6038 C 561.484 -4.8104 -2.03465 0
M  V30 6039 H 563.178 -2.85388 -0.905216 0
M  V30 6040 H 560.724 -1.37304 -0.434002 0
M  V30 6041 H 562.677 -2.58583 -3.32736 0
M  V30 6042 H 561.401 -1.40188 -2.94983 0
M  V30 6043 H 560.06 -3.19563 -1.79653 0
M  V30 6044 H 559.708 -2.72555 -4.22756 0
M  V30 6045 H 559.408 -4.4402 -3.84864 0
M  V30 6046 H 560.932 -3.9599 -4.64784 0
M  V30 6047 H 562.346 -5.07411 -2.66846 0
M  V30 6048 H 560.743 -5.62232 -2.09798 0
M  V30 6049 H 561.813 -4.74732 -0.98781 0
M  V30 6050 N 563.156 0.464375 -1.50603 0
M  V30 6051 C 564.572 0.798684 -1.38178 0
M  V30 6052 C 564.772 1.96568 -0.44308 0
M  V30 6053 O 563.828 2.52252 0.111814 0
M  V30 6054 C 565.141 1.10444 -2.79683 0
M  V30 6055 C 566.689 1.2105 -2.88645 0
M  V30 6056 C 567.164 1.54934 -4.30998 0
M  V30 6057 N 568.655 1.61913 -4.3398 0
M  V30 6058 C 569.39 1.8965 -5.41129 0
M  V30 6059 N 568.886 2.15361 -6.58477 0
M  V30 6060 N 570.679 1.91207 -5.28579 0
M  V30 6061 H 562.83 -0.304603 -2.10204 0
M  V30 6062 H 565.093 -0.0737804 -0.945125 0
M  V30 6063 H 564.799 0.319934 -3.50242 0
M  V30 6064 H 564.673 2.03896 -3.17342 0
M  V30 6065 H 567.06 1.98567 -2.18301 0
M  V30 6066 H 567.141 0.255613 -2.5452 0
M  V30 6067 H 566.785 0.779549 -5.01882 0
M  V30 6068 H 566.715 2.51584 -4.62615 0
M  V30 6069 H 569.206 1.44055 -3.49366 0
M  V30 6070 H 569.519 2.35818 -7.35941 0
M  V30 6071 H 567.864 2.1274 -6.6164 0
M  V30 6072 H 571.055 1.70622 -4.35897 0
M  V30 6073 H 571.228 2.12488 -6.12171 0
M  V30 6074 N 564.634 1.40294 0.718013 0
M  V30 6075 C 565.564 1.43118 1.84498 0
M  V30 6076 C 566.545 0.292403 1.67568 0
M  V30 6077 O 567.73 0.500675 1.87635 0
M  V30 6078 C 564.86 1.29065 3.22427 0
M  V30 6079 C 563.814 2.40521 3.54025 0
M  V30 6080 C 563.14 2.11546 4.91073 0
M  V30 6081 C 564.44 3.82859 3.55269 0
M  V30 6082 H 566.134 2.37432 1.82391 0
M  V30 6083 H 563.68 1.14283 0.87609 0
M  V30 6084 H 565.633 1.29658 4.00957 0
M  V30 6085 H 564.357 0.312271 3.25104 0
M  V30 6086 H 563.016 2.39173 2.77834 0
M  V30 6087 H 562.664 1.12104 4.90348 0
M  V30 6088 H 562.364 2.86216 5.1318 0
M  V30 6089 H 563.888 2.13817 5.71939 0
M  V30 6090 H 565.302 3.86044 4.23843 0
M  V30 6091 H 563.699 4.57029 3.88902 0
M  V30 6092 H 564.769 4.12617 2.54706 0
M  V30 6093 N 566.112 -0.949982 1.2575 0
M  V30 6094 C 567.358 -1.69766 1.10938 0
M  V30 6095 C 567.691 -1.91056 -0.348028 0
M  V30 6096 O 566.966 -1.48488 -1.25625 0
M  V30 6097 C 567.249 -3.07779 1.86933 0
M  V30 6098 C 567.102 -2.9387 3.4053 0
M  V30 6099 C 568.421 -4.07749 1.65616 0
M  V30 6100 H 565.54 -0.616144 0.404396 0
M  V30 6101 H 568.182 -1.10394 1.54639 0
M  V30 6102 H 566.332 -3.58462 1.4979 0
M  V30 6103 H 568.004 -2.50476 3.87375 0
M  V30 6104 H 566.247 -2.29686 3.68004 0
M  V30 6105 H 566.918 -3.91719 3.88922 0
M  V30 6106 H 569.394 -3.65994 1.97959 0
M  V30 6107 H 568.27 -5.02348 2.21218 0
M  V30 6108 H 568.531 -4.38029 0.598595 0
M  V30 6109 N 567.59 -1.07411 -1.15328 0
M  V30 6110 C 569.006 -0.799759 -1.38116 0
M  V30 6111 C 569.206 0.59572 -1.92493 0
M  V30 6112 O 568.262 1.35433 -2.13106 0
M  V30 6113 C 569.575 -1.87407 -2.35158 0
M  V30 6114 C 571.123 -1.89889 -2.48819 0
M  V30 6115 C 571.598 -2.96406 -3.49153 0
M  V30 6116 N 573.089 -2.95512 -3.56689 0
M  V30 6117 C 573.824 -3.74575 -4.34144 0
M  V30 6118 N 573.32 -4.63488 -5.14928 0
M  V30 6119 N 575.113 -3.62919 -4.29239 0
M  V30 6120 H 567.264 -1.97411 -0.78374 0
M  V30 6121 H 569.527 -0.856113 -0.407154 0
M  V30 6122 H 569.233 -2.8768 -2.0232 0
M  V30 6123 H 569.107 -1.73471 -3.34944 0
M  V30 6124 H 571.494 -0.902677 -2.80955 0
M  V30 6125 H 571.575 -2.07904 -1.49029 0
M  V30 6126 H 571.219 -3.96227 -3.17752 0
M  V30 6127 H 571.149 -2.75638 -4.48699 0
M  V30 6128 H 573.64 -2.31061 -2.99031 0
M  V30 6129 H 573.953 -5.20445 -5.71276 0
M  V30 6130 H 572.298 -4.67537 -5.14232 0
M  V30 6131 H 575.489 -2.92833 -3.65194 0
M  V30 6132 H 575.662 -4.24777 -4.89355 0
M  V30 6133 N 569.068 1.32177 -0.85831 0
M  V30 6134 C 570.314 1.97417 -0.46417 0
M  V30 6135 C 570.647 1.67746 0.978514 0
M  V30 6136 O 569.922 0.967654 1.68721 0
M  V30 6137 C 570.205 3.53069 -0.708094 0
M  V30 6138 C 570.058 3.92357 -2.19946 0
M  V30 6139 C 571.377 4.39783 -0.166881 0
M  V30 6140 H 568.496 0.717097 -0.17012 0
M  V30 6141 H 571.138 1.56499 -1.07741 0
M  V30 6142 H 569.288 3.88054 -0.186128 0
M  V30 6143 H 570.96 3.67533 -2.78779 0
M  V30 6144 H 569.203 3.41384 -2.67656 0
M  V30 6145 H 569.874 5.00841 -2.32082 0
M  V30 6146 H 572.35 4.11556 -0.613285 0
M  V30 6147 H 571.226 5.47671 -0.367093 0
M  V30 6148 H 571.487 4.32196 0.930559 0
M  V30 6149 N 570.547 0.616602 1.45037 0
M  V30 6150 C 571.51 -0.0871112 2.29034 0
M  V30 6151 C 572.51 -0.786414 1.40258 0
M  V30 6152 O 573.7 -0.633207 1.62284 0
M  V30 6153 C 570.832 -1.13369 3.21497 0
M  V30 6154 H 572.025 0.651497 2.92738 0
M  V30 6155 H 569.578 0.376058 1.51709 0
M  V30 6156 H 570.313 -1.90277 2.62612 0
M  V30 6157 H 570.098 -0.636358 3.86902 0
M  V30 6158 H 571.588 -1.62627 3.84633 0
M  V30 6159 N 572.025 -1.5352 0.356285 0
M  V30 6160 C 573.441 -1.59599 0.00485267 0
M  V30 6161 C 573.641 -1.37179 -1.47595 0
M  V30 6162 O 572.697 -1.17234 -2.23635 0
M  V30 6163 C 574.01 -2.97277 0.452454 0
M  V30 6164 C 575.558 -3.10357 0.405881 0
M  V30 6165 C 576.033 -4.50432 0.829148 0
M  V30 6166 N 577.524 -4.5652 0.783838 0
M  V30 6167 C 578.259 -5.63077 1.08315 0
M  V30 6168 N 577.755 -6.77429 1.45126 0
M  V30 6169 N 579.548 -5.53014 1.00655 0
M  V30 6170 H 571.699 -1.66346 1.32071 0
M  V30 6171 H 573.962 -0.77971 0.539218 0
M  V30 6172 H 573.668 -3.18792 1.48542 0
M  V30 6173 H 573.542 -3.76836 -0.165762 0
M  V30 6174 H 575.929 -2.88558 -0.617934 0
M  V30 6175 H 576.01 -2.32828 1.05947 0
M  V30 6176 H 575.654 -4.72968 1.85103 0
M  V30 6177 H 575.584 -5.26378 0.152906 0
M  V30 6178 H 578.075 -3.74408 0.512513 0
M  V30 6179 H 578.388 -7.54669 1.66415 0
M  V30 6180 H 576.733 -6.78844 1.48983 0
M  V30 6181 H 579.924 -4.62557 0.718215 0
M  V30 6182 H 580.097 -6.35964 1.24315 0
M  V30 6183 N 573.503 -0.0852151 -1.57369 0
M  V30 6184 C 574.45 0.877268 -2.13478 0
M  V30 6185 C 575.42 1.28642 -1.05073 0
M  V30 6186 O 576.605 1.36992 -1.32808 0
M  V30 6187 C 573.745 2.13464 -2.71159 0
M  V30 6188 C 572.858 1.77691 -3.93764 0
M  V30 6189 C 571.993 2.98139 -4.39643 0
M  V30 6190 C 571.032 2.58447 -5.54862 0
M  V30 6191 N 570.169 3.71698 -5.95639 0
M  V30 6192 H 575.009 0.391933 -2.95411 0
M  V30 6193 H 572.546 0.181796 -1.45972 0
M  V30 6194 H 574.504 2.87086 -3.02717 0
M  V30 6195 H 573.134 2.59514 -1.91969 0
M  V30 6196 H 572.186 0.940768 -3.68583 0
M  V30 6197 H 573.498 1.44497 -4.77412 0
M  V30 6198 H 572.652 3.80026 -4.72933 0
M  V30 6199 H 571.391 3.34536 -3.54876 0
M  V30 6200 H 570.396 1.74984 -5.21211 0
M  V30 6201 H 571.621 2.23205 -6.41371 0
M  V30 6202 H 569.567 4.07831 -5.13819 0
M  V30 6203 H 569.484 3.42317 -6.74059 0
M  V30 6204 H 570.752 4.54123 -6.33555 0
M  V30 6205 N 574.981 1.5647 0.188427 0
M  V30 6206 C 575.911 1.98101 1.23606 0
M  V30 6207 C 576.892 0.853961 1.47111 0
M  V30 6208 O 578.077 1.11879 1.58735 0
M  V30 6209 C 575.207 2.32624 2.57882 0
M  V30 6210 C 574.161 3.48129 2.48978 0
M  V30 6211 C 573.487 3.68347 3.87588 0
M  V30 6212 C 574.787 4.82112 2.00911 0
M  V30 6213 H 576.481 2.85864 0.890068 0
M  V30 6214 H 574.027 1.37532 0.426714 0
M  V30 6215 H 575.98 2.60343 3.3136 0
M  V30 6216 H 574.704 1.41751 2.94235 0
M  V30 6217 H 573.363 3.20511 1.77956 0
M  V30 6218 H 573.011 2.74793 4.21305 0
M  V30 6219 H 572.711 4.46055 3.82503 0
M  V30 6220 H 574.235 3.98449 4.62678 0
M  V30 6221 H 575.649 5.08819 2.64151 0
M  V30 6222 H 574.046 5.63337 2.06814 0
M  V30 6223 H 575.116 4.75249 0.96262 0
M  V30 6224 N 576.459 -0.456382 1.50847 0
M  V30 6225 C 577.736 -1.21739 1.53098 0
M  V30 6226 C 578.116 -2.09179 0.284132 0
M  V30 6227 O 577.464 -2.16466 -0.731773 0
M  V30 6228 C 577.674 -2.03573 2.83477 0
M  V30 6229 C 579.022 -2.61264 3.34703 0
M  V30 6230 O 580.046 -2.13802 2.84898 0
M  V30 6231 O 578.905 -3.47779 4.21559 0
M  V30 6232 H 575.999 -0.553219 0.614718 0
M  V30 6233 H 578.545 -0.467003 1.63148 0
M  V30 6234 H 577.317 -1.39232 3.65691 0
M  V30 6235 H 576.94 -2.85716 2.76499 0
M  V30 6236 N 577.937 -1.40673 -0.710563 0
M  V30 6237 C 579.353 -1.22813 -1.01928 0
M  V30 6238 C 579.553 -0.10687 -2.01216 0
M  V30 6239 O 578.609 0.533614 -2.46797 0
M  V30 6240 C 579.922 -2.57178 -1.5582 0
M  V30 6241 C 581.47 -2.64233 -1.67779 0
M  V30 6242 C 581.945 -3.98879 -2.25076 0
M  V30 6243 N 583.436 -4.00647 -2.32456 0
M  V30 6244 C 584.171 -5.01621 -2.77784 0
M  V30 6245 N 583.667 -6.12989 -3.22826 0
M  V30 6246 N 585.46 -4.88988 -2.77213 0
M  V30 6247 H 577.611 -2.12335 -0.05253 0
M  V30 6248 H 579.874 -0.9441 -0.085898 0
M  V30 6249 H 579.58 -3.39903 -0.903249 0
M  V30 6250 H 579.454 -2.78618 -2.54267 0
M  V30 6251 H 581.841 -1.81876 -2.3239 0
M  V30 6252 H 581.922 -2.46619 -0.679178 0
M  V30 6253 H 581.566 -4.81678 -1.61086 0
M  V30 6254 H 581.496 -4.13826 -3.25661 0
M  V30 6255 H 583.987 -3.20231 -2.0065 0
M  V30 6256 H 584.3 -6.85921 -3.55995 0
M  V30 6257 H 582.645 -6.16547 -3.20773 0
M  V30 6258 H 585.836 -4.01075 -2.41363 0
M  V30 6259 H 586.009 -5.67822 -3.12221 0
M  V30 6260 N 579.415 0.9433 -1.26252 0
M  V30 6261 C 580.645 1.72117 -1.14277 0
M  V30 6262 C 581.053 1.86726 0.304944 0
M  V30 6263 O 580.396 1.3727 1.22076 0
M  V30 6264 C 580.458 3.14778 -1.73651 0
M  V30 6265 C 580.122 3.23561 -3.22734 0
M  V30 6266 C 581.119 3.07001 -4.19579 0
M  V30 6267 C 578.804 3.47019 -3.63157 0
M  V30 6268 C 580.798 3.13763 -5.54826 0
M  V30 6269 C 578.485 3.53416 -4.98538 0
M  V30 6270 C 579.483 3.36804 -5.94182 0
M  V30 6271 O 579.171 3.42906 -7.27098 0
M  V30 6272 H 578.903 0.545781 -0.398873 0
M  V30 6273 H 581.457 1.19123 -1.67328 0
M  V30 6274 H 579.687 3.69186 -1.1506 0
M  V30 6275 H 581.376 3.74469 -1.56613 0
M  V30 6276 H 582.142 2.88736 -3.89688 0
M  V30 6277 H 578.021 3.59006 -2.89199 0
M  V30 6278 H 581.565 3.00714 -6.29458 0
M  V30 6279 H 577.462 3.71201 -5.28091 0
M  V30 6280 H 578.23 3.59463 -7.35342 0
M  V30 6281 N 580.893 1.08022 1.14757 0
M  V30 6282 C 582.118 0.82895 1.90114 0
M  V30 6283 C 582.543 -0.612772 1.77839 0
M  V30 6284 O 581.901 -1.42895 1.11583 0
M  V30 6285 C 581.949 1.25062 3.38219 0
M  V30 6286 O 581.053 0.400119 4.10454 0
M  V30 6287 H 580.394 0.301412 0.591648 0
M  V30 6288 H 582.924 1.44062 1.45284 0
M  V30 6289 H 582.934 1.22977 3.89025 0
M  V30 6290 H 581.609 2.30067 3.46471 0
M  V30 6291 H 580.186 0.484052 3.69745 0
M  V30 6292 N 582.371 -1.3172 0.865308 0
M  V30 6293 C 583.281 -2.32394 0.320935 0
M  V30 6294 C 584.297 -1.64511 -0.566746 0
M  V30 6295 O 585.473 -1.95969 -0.464575 0
M  V30 6296 C 582.538 -3.43462 -0.472701 0
M  V30 6297 C 581.599 -4.27015 0.442385 0
M  V30 6298 C 580.832 -5.32779 -0.313469 0
M  V30 6299 O 581.055 -5.49158 -1.54214 0
M  V30 6300 O 579.989 -6.01015 0.326257 0
M  V30 6301 H 583.815 -2.80868 1.15528 0
M  V30 6302 H 581.4 -1.35535 0.628545 0
M  V30 6303 H 583.282 -4.11172 -0.922781 0
M  V30 6304 H 581.957 -2.97159 -1.28367 0
M  V30 6305 H 580.864 -3.62075 0.940866 0
M  V30 6306 H 582.197 -4.76871 1.21882 0
M  V30 6307 N 583.85 -0.624285 -1.44708 0
M  V30 6308 C 585.08 -0.132726 -2.06173 0
M  V30 6309 C 585.488 1.19513 -1.46674 0
M  V30 6310 O 584.831 1.74254 -0.581491 0
M  V30 6311 C 584.893 0.0636732 -3.59444 0
M  V30 6312 C 584.557 -1.18496 -4.4137 0
M  V30 6313 C 585.553 -2.10706 -4.75288 0
M  V30 6314 C 583.239 -1.41846 -4.81856 0
M  V30 6315 C 585.233 -3.24582 -5.48567 0
M  V30 6316 C 582.92 -2.5602 -5.54885 0
M  V30 6317 C 583.918 -3.47215 -5.88159 0
M  V30 6318 O 583.606 -4.59399 -6.59703 0
M  V30 6319 H 583.338 -0.0737313 -0.671967 0
M  V30 6320 H 585.892 -0.856789 -1.86677 0
M  V30 6321 H 584.122 0.842809 -3.77404 0
M  V30 6322 H 585.811 0.508924 -4.02697 0
M  V30 6323 H 586.577 -1.93898 -4.44554 0
M  V30 6324 H 582.456 -0.717556 -4.55381 0
M  V30 6325 H 586 -3.95785 -5.74456 0
M  V30 6326 H 581.897 -2.72774 -5.85034 0
M  V30 6327 H 582.665 -4.58293 -6.78166 0
M  V30 6328 N 585.328 1.53329 -0.364422 0
M  V30 6329 C 586.576 2.00842 0.225189 0
M  V30 6330 C 586.897 1.25345 1.49378 0
M  V30 6331 O 586.167 0.366396 1.92443 0
M  V30 6332 H 584.747 0.742009 0.0862027 0
M  V30 6333 H 587.409 1.8863 -0.490389 0
M  V30 6334 H 586.505 3.08795 0.452987 0
M  V30 6335 N 586.806 0.0935595 1.57322 0
M  V30 6336 C 587.769 -0.851426 2.12799 0
M  V30 6337 C 588.769 -1.21187 1.0569 0
M  V30 6338 O 589.959 -1.14156 1.31583 0
M  V30 6339 C 587.091 -2.14779 2.64731 0
M  V30 6340 H 588.284 -0.369733 2.97612 0
M  V30 6341 H 585.837 -0.155417 1.55525 0
M  V30 6342 H 586.572 -2.67437 1.83434 0
M  V30 6343 H 586.357 -1.89907 3.43042 0
M  V30 6344 H 587.847 -2.82383 3.07651 0
M  V30 6345 N 588.284 -1.56567 -0.180126 0
M  V30 6346 C 589.247 -1.94852 -1.20686 0
M  V30 6347 C 590.247 -0.831212 -1.3765 0
M  V30 6348 O 591.437 -1.09841 -1.35206 0
M  V30 6349 C 588.569 -2.23565 -2.57355 0
M  V30 6350 H 589.762 -2.86722 -0.879225 0
M  V30 6351 H 587.315 -1.50489 -0.422237 0
M  V30 6352 H 588.05 -1.34381 -2.95148 0
M  V30 6353 H 587.835 -3.04999 -2.46411 0
M  V30 6354 H 589.325 -2.54137 -3.31367 0
M  V30 6355 N 589.762 0.448376 -1.51087 0
M  V30 6356 C 591.008 1.20049 -1.6345 0
M  V30 6357 C 591.341 1.91121 -0.344444 0
M  V30 6358 O 590.616 1.83125 0.655396 0
M  V30 6359 C 590.899 2.22624 -2.83038 0
M  V30 6360 C 590.752 1.55708 -4.21989 0
M  V30 6361 C 592.071 3.23718 -2.98152 0
M  V30 6362 H 589.19 0.435085 -0.59487 0
M  V30 6363 H 591.832 0.491183 -1.83541 0
M  V30 6364 H 589.982 2.83117 -2.66039 0
M  V30 6365 H 591.654 0.986367 -4.50631 0
M  V30 6366 H 589.897 0.859647 -4.25197 0
M  V30 6367 H 590.568 2.30357 -5.01637 0
M  V30 6368 H 593.044 2.73269 -3.13788 0
M  V30 6369 H 591.92 3.92795 -3.83411 0
M  V30 6370 H 592.181 3.89179 -2.09743 0
M  V30 6371 N 591.24 1.41047 0.703093 0
M  V30 6372 C 592.17 1.45067 1.82969 0
M  V30 6373 C 593.151 0.31016 1.67248 0
M  V30 6374 O 594.336 0.520548 1.87093 0
M  V30 6375 C 591.466 1.32478 3.2104 0
M  V30 6376 C 590.42 2.44262 3.51454 0
M  V30 6377 C 589.746 2.16742 4.88801 0
M  V30 6378 C 591.046 3.86606 3.51189 0
M  V30 6379 H 592.74 2.39353 1.79863 0
M  V30 6380 H 590.286 1.15206 0.863919 0
M  V30 6381 H 592.239 1.33904 3.99559 0
M  V30 6382 H 590.963 0.346735 3.24754 0
M  V30 6383 H 589.622 2.42107 2.75282 0
M  V30 6384 H 589.27 1.17299 4.89132 0
M  V30 6385 H 588.97 2.91643 5.10116 0
M  V30 6386 H 590.494 2.19872 5.69639 0
M  V30 6387 H 591.908 3.90517 4.19725 0
M  V30 6388 H 590.305 4.61128 3.84033 0
M  V30 6389 H 591.375 4.15296 2.50315 0
M  V30 6390 N 592.718 -0.936591 1.26751 0
M  V30 6391 C 593.965 -1.68331 1.12566 0
M  V30 6392 C 594.293 -1.91677 -0.330168 0
M  V30 6393 O 593.548 -1.49859 -1.2586 0
M  V30 6394 C 593.847 -3.06099 1.84494 0
M  V30 6395 C 593.513 -3.02493 3.34378 0
M  V30 6396 C 592.175 -3.01217 3.75262 0
M  V30 6397 C 594.527 -2.94453 4.30055 0
M  V30 6398 C 591.855 -2.89672 5.10203 0
M  V30 6399 C 594.207 -2.84449 5.65041 0
M  V30 6400 C 592.871 -2.81518 6.0523 0
M  V30 6401 H 592.141 -0.615965 0.411907 0
M  V30 6402 H 594.788 -1.09292 1.5725 0
M  V30 6403 H 593.093 -3.6879 1.32292 0
M  V30 6404 H 594.79 -3.62733 1.70955 0
M  V30 6405 H 591.38 -3.04269 3.01858 0
M  V30 6406 H 595.564 -2.94544 3.99447 0
M  V30 6407 H 590.82 -2.85783 5.40498 0
M  V30 6408 H 594.994 -2.77192 6.38856 0
M  V30 6409 H 592.621 -2.72329 7.09747 0
M  V30 6410 N 594.196 -1.08629 -1.14182 0
M  V30 6411 C 595.126 -0.740003 -2.21464 0
M  V30 6412 C 596.107 0.278591 -1.67803 0
M  V30 6413 O 597.292 0.148461 -1.93632 0
M  V30 6414 C 594.422 -0.150952 -3.46972 0
M  V30 6415 C 593.376 -1.09815 -4.13672 0
M  V30 6416 C 592.702 -0.3712 -5.3341 0
M  V30 6417 C 594.002 -2.43722 -4.61949 0
M  V30 6418 H 595.696 -1.63697 -2.50686 0
M  V30 6419 H 593.242 -0.788526 -1.20492 0
M  V30 6420 H 595.195 0.103325 -4.21273 0
M  V30 6421 H 593.919 0.781164 -3.1712 0
M  V30 6422 H 592.578 -1.33756 -3.41328 0
M  V30 6423 H 592.226 0.564792 -4.99819 0
M  V30 6424 H 591.926 -1.00267 -5.78982 0
M  V30 6425 H 593.45 -0.12503 -6.10472 0
M  V30 6426 H 594.864 -2.24034 -5.27714 0
M  V30 6427 H 593.261 -3.02582 -5.18232 0
M  V30 6428 H 594.331 -3.05082 -3.76899 0
M  V30 6429 N 595.674 1.31259 -0.872281 0
M  V30 6430 C 596.604 2.30929 -0.345554 0
M  V30 6431 C 597.585 1.60449 0.5648 0
M  V30 6432 O 598.77 1.8814 0.481335 0
M  V30 6433 C 595.9 3.44348 0.451823 0
M  V30 6434 C 594.854 4.26435 -0.365641 0
M  V30 6435 C 594.18 5.31785 0.557562 0
M  V30 6436 C 595.48 4.97159 -1.60095 0
M  V30 6437 H 597.174 2.75234 -1.17841 0
M  V30 6438 H 594.72 1.3232 -0.568094 0
M  V30 6439 H 596.673 4.13128 0.830854 0
M  V30 6440 H 595.397 2.98816 1.31821 0
M  V30 6441 H 594.056 3.59326 -0.726649 0
M  V30 6442 H 593.704 4.82502 1.4213 0
M  V30 6443 H 593.404 5.87598 0.0144878 0
M  V30 6444 H 594.928 6.03424 0.933387 0
M  V30 6445 H 596.342 5.58523 -1.29323 0
M  V30 6446 H 594.739 5.62779 -2.08327 0
M  V30 6447 H 595.809 4.24012 -2.35249 0
M  V30 6448 N 597.152 0.631951 1.44375 0
M  V30 6449 C 598.085 -0.121822 2.27875 0
M  V30 6450 C 599.063 -0.850457 1.38586 0
M  V30 6451 O 600.247 -0.854378 1.68026 0
M  V30 6452 C 597.374 -1.17859 3.17533 0
M  V30 6453 C 596.42 -0.550391 4.22934 0
M  V30 6454 S 597.253 0.660145 5.31415 0
M  V30 6455 C 598.409 -0.396613 6.24642 0
M  V30 6456 H 598.642 0.586537 2.91457 0
M  V30 6457 H 596.175 0.420146 1.48574 0
M  V30 6458 H 598.133 -1.78335 3.69739 0
M  V30 6459 H 596.794 -1.85915 2.53169 0
M  V30 6460 H 595.987 -1.34631 4.85685 0
M  V30 6461 H 595.589 -0.0202306 3.73995 0
M  V30 6462 H 597.881 -1.26893 6.65511 0
M  V30 6463 H 598.824 0.195345 7.0783 0
M  V30 6464 H 599.232 -0.72288 5.59852 0
M  V30 6465 N 598.631 -1.53133 0.372548 0
M  V30 6466 C 599.871 -2.03267 -0.214943 0
M  V30 6467 C 600.235 -1.25362 -1.45425 0
M  V30 6468 O 601.436 -1.65536 -2.11781 0
M  V30 6469 C 599.707 -3.53985 -0.492897 0
M  V30 6470 S 601.266 -4.25977 -1.05307 0
M  V30 6471 H 598.084 -0.708289 -0.062029 0
M  V30 6472 H 600.686 -1.88539 0.517025 0
M  V30 6473 H 599.39 -4.08282 0.416442 0
M  V30 6474 H 598.921 -3.72887 -1.25375 0
M  V30 6475 H 600.936 -4.37731 -2.33679 0
M  V30 6476 N 600.109 -0.101901 -1.5727 0
M  V30 6477 C 601.337 0.568392 -1.98939 0
M  V30 6478 C 601.752 1.61301 -0.981194 0
M  V30 6479 O 601.109 1.82478 0.0282869 0
M  V30 6480 C 601.16 1.20997 -3.40649 0
M  V30 6481 O 600.881 0.207129 -4.3761 0
M  V30 6482 C 602.382 1.96523 -3.97358 0
M  V30 6483 H 599.602 0.15186 -0.65359 0
M  V30 6484 H 602.146 -0.183198 -2.03678 0
M  V30 6485 H 600.301 1.91245 -3.36904 0
M  V30 6486 H 600.715 0.671071 -5.20189 0
M  V30 6487 H 602.189 2.36764 -4.98645 0
M  V30 6488 H 602.666 2.83376 -3.35552 0
M  V30 6489 H 603.272 1.31076 -4.04598 0
M  V30 6490 N 601.587 1.56661 0.17182 0
M  V30 6491 C 602.834 1.81965 0.888529 0
M  V30 6492 C 603.162 0.6789 1.82267 0
M  V30 6493 O 602.417 -0.333875 1.92831 0
M  V30 6494 C 602.716 3.13435 1.71736 0
M  V30 6495 C 602.382 4.41159 0.932184 0
M  V30 6496 C 601.044 4.75851 0.715481 0
M  V30 6497 C 603.396 5.19803 0.381387 0
M  V30 6498 C 600.724 5.86666 -0.063126 0
M  V30 6499 C 603.076 6.31433 -0.384129 0
M  V30 6500 C 601.74 6.64692 -0.611637 0
M  V30 6501 H 601.01 0.665859 0.325136 0
M  V30 6502 H 603.657 1.90884 0.153495 0
M  V30 6503 H 601.962 2.99857 2.52177 0
M  V30 6504 H 603.659 3.30224 2.27493 0
M  V30 6505 H 600.249 4.13947 1.11112 0
M  V30 6506 H 604.433 4.93396 0.536148 0
M  V30 6507 H 599.689 6.10892 -0.249136 0
M  V30 6508 H 603.863 6.91577 -0.818185 0
M  V30 6509 H 601.49 7.50398 -1.21684 0
M  V30 6510 N 603.065 -0.440357 1.51323 0
M  V30 6511 C 604.028 -1.51679 1.71832 0
M  V30 6512 C 605.028 -1.49648 0.588386 0
M  V30 6513 O 606.218 -1.51724 0.855891 0
M  V30 6514 C 603.35 -2.91228 1.77199 0
M  V30 6515 H 604.543 -1.34799 2.67898 0
M  V30 6516 H 602.096 -0.66883 1.41267 0
M  V30 6517 H 602.831 -3.13516 0.829363 0
M  V30 6518 H 602.616 -2.94107 2.59314 0
M  V30 6519 H 604.106 -3.69321 1.94915 0
M  V30 6520 N 604.543 -1.41418 -0.695603 0
M  V30 6521 C 605.473 -1.46035 -1.82197 0
M  V30 6522 C 606.454 -0.319025 -1.67082 0
M  V30 6523 O 607.639 -0.530462 -1.86815 0
M  V30 6524 C 604.769 -1.34179 -3.20333 0
M  V30 6525 C 603.723 -2.46123 -3.50154 0
M  V30 6526 C 603.049 -2.19332 -4.87645 0
M  V30 6527 C 604.349 -3.88463 -3.49133 0
M  V30 6528 H 606.043 -2.40303 -1.78591 0
M  V30 6529 H 603.589 -1.15663 -0.857797 0
M  V30 6530 H 605.542 -1.36021 -3.98844 0
M  V30 6531 H 604.266 -0.363952 -3.24566 0
M  V30 6532 H 602.925 -2.43563 -2.73994 0
M  V30 6533 H 602.573 -1.19891 -4.88503 0
M  V30 6534 H 602.273 -2.94344 -5.08562 0
M  V30 6535 H 603.797 -2.22889 -5.68465 0
M  V30 6536 H 605.211 -3.92738 -4.17648 0
M  V30 6537 H 603.608 -4.63158 -3.81582 0
M  V30 6538 H 604.678 -4.16617 -2.48109 0
M  V30 6539 N 606.021 0.929856 -1.27246 0
M  V30 6540 C 607.27 1.67182 -1.12842 0
M  V30 6541 C 607.583 1.9287 0.325666 0
M  V30 6542 O 608.789 2.64999 0.590572 0
M  V30 6543 C 607.245 3.01097 -1.97151 0
M  V30 6544 C 606.853 2.83115 -3.47203 0
M  V30 6545 C 608.597 3.78907 -1.91389 0
M  V30 6546 C 606.504 4.12573 -4.23719 0
M  V30 6547 H 605.434 0.627064 -0.418697 0
M  V30 6548 H 608.085 1.0332 -1.51649 0
M  V30 6549 H 606.467 3.66004 -1.51186 0
M  V30 6550 H 607.641 2.26989 -4.01015 0
M  V30 6551 H 605.956 2.18736 -3.54321 0
M  V30 6552 H 608.553 4.74837 -2.45834 0
M  V30 6553 H 608.896 4.0674 -0.887047 0
M  V30 6554 H 609.429 3.20794 -2.35237 0
M  V30 6555 H 606.168 3.8992 -5.26918 0
M  V30 6556 H 605.688 4.68371 -3.74685 0
M  V30 6557 H 607.367 4.8095 -4.32777 0
M  V30 6558 N 607.499 1.09233 1.13605 0
M  V30 6559 C 608.462 0.733553 2.17144 0
M  V30 6560 C 609.462 -0.235873 1.59061 0
M  V30 6561 O 610.652 -0.0143167 1.74194 0
M  V30 6562 C 607.784 0.084471 3.40795 0
M  V30 6563 H 608.977 1.65049 2.50397 0
M  V30 6564 H 606.53 0.891264 1.28399 0
M  V30 6565 H 607.265 -0.843795 3.1313 0
M  V30 6566 H 607.05 0.781985 3.84223 0
M  V30 6567 H 608.54 -0.151216 4.17326 0
M  V30 6568 N 608.977 -1.30795 0.87923 0
M  V30 6569 C 609.927 -2.25838 0.313276 0
M  V30 6570 C 610.911 -1.51025 -0.55499 0
M  V30 6571 O 612.103 -1.72413 -0.400353 0
M  V30 6572 C 609.232 -3.39981 -0.476204 0
M  V30 6573 C 608.318 -4.22154 0.405826 0
M  V30 6574 N 608.709 -4.82934 1.50362 0
M  V30 6575 C 607.007 -4.45552 0.199909 0
M  V30 6576 C 607.708 -5.44444 2.0483 0
M  V30 6577 N 606.684 -5.26723 1.34403 0
M  V30 6578 H 610.486 -2.70374 1.15218 0
M  V30 6579 H 608 -1.45168 0.728003 0
M  V30 6580 H 609.997 -4.07108 -0.898251 0
M  V30 6581 H 608.657 -2.96986 -1.31261 0
M  V30 6582 H 609.668 -4.82319 1.8865 0
M  V30 6583 H 606.345 -4.13169 -0.599795 0
M  V30 6584 H 607.735 -6.02701 2.96986 0
M  V30 6585 N 610.455 -0.639598 -1.44038 0
M  V30 6586 C 611.701 -0.156248 -2.02799 0
M  V30 6587 C 612.056 1.21145 -1.49471 0
M  V30 6588 O 611.349 1.79406 -0.672608 0
M  V30 6589 C 611.543 -0.0925348 -3.5728 0
M  V30 6590 C 611.372 -1.45252 -4.25596 0
M  V30 6591 C 610.142 -2.04145 -4.62226 0
M  V30 6592 C 612.34 -2.38812 -4.55492 0
M  V30 6593 N 610.322 -3.3329 -5.15549 0
M  V30 6594 C 611.693 -3.52578 -5.09989 0
M  V30 6595 C 613.748 -2.37785 -4.3745 0
M  V30 6596 C 612.451 -4.65525 -5.48342 0
M  V30 6597 C 614.477 -3.49802 -4.76857 0
M  V30 6598 C 613.839 -4.62292 -5.31475 0
M  V30 6599 H 609.938 -0.101292 -0.775412 0
M  V30 6600 H 612.522 -0.844938 -1.75411 0
M  V30 6601 H 610.693 0.565459 -3.84262 0
M  V30 6602 H 612.425 0.400426 -4.02714 0
M  V30 6603 H 609.18 -1.56999 -4.4682 0
M  V30 6604 H 609.604 -3.9934 -5.46678 0
M  V30 6605 H 614.246 -1.52061 -3.94509 0
M  V30 6606 H 611.964 -5.51951 -5.90233 0
M  V30 6607 H 615.55 -3.50193 -4.64603 0
M  V30 6608 H 614.43 -5.47536 -5.61403 0
M  V30 6609 N 611.933 1.52934 -0.380664 0
M  V30 6610 C 612.863 2.29118 0.450268 0
M  V30 6611 C 613.844 1.32153 1.07096 0
M  V30 6612 O 615.029 1.61038 1.08537 0
M  V30 6613 C 612.159 3.09161 1.58231 0
M  V30 6614 C 611.113 4.13938 1.0881 0
M  V30 6615 C 610.439 4.82153 2.31155 0
M  V30 6616 C 611.739 5.22048 0.162146 0
M  V30 6617 H 613.433 2.98826 -0.185361 0
M  V30 6618 H 610.979 1.43715 -0.0905886 0
M  V30 6619 H 612.932 3.61211 2.17036 0
M  V30 6620 H 611.656 2.3717 2.2454 0
M  V30 6621 H 610.315 3.62855 0.522633 0
M  V30 6622 H 609.963 4.06719 2.95953 0
M  V30 6623 H 609.663 5.52966 1.98752 0
M  V30 6624 H 611.187 5.37004 2.90618 0
M  V30 6625 H 612.601 5.6951 0.658126 0
M  V30 6626 H 610.998 6.00057 -0.0717122 0
M  V30 6627 H 612.068 4.78398 -0.791438 0
M  V30 6628 N 613.412 0.11024 1.57214 0
M  V30 6629 C 614.375 -0.828808 2.1369 0
M  V30 6630 C 615.375 -1.20059 1.06969 0
M  V30 6631 O 616.565 -1.12754 1.32786 0
M  V30 6632 C 613.697 -2.11959 2.66994 0
M  V30 6633 H 614.89 -0.338146 2.97988 0
M  V30 6634 H 612.443 -0.138913 1.55681 0
M  V30 6635 H 613.178 -2.65476 1.8626 0
M  V30 6636 H 612.963 -1.86258 3.45037 0
M  V30 6637 H 614.453 -2.79105 3.10629 0
M  V30 6638 N 614.89 -1.56749 -0.16351 0
M  V30 6639 C 616.13 -1.84234 -0.885271 0
M  V30 6640 C 616.494 -0.692259 -1.79086 0
M  V30 6641 O 617.695 -0.847747 -2.55082 0
M  V30 6642 C 615.966 -3.16857 -1.65337 0
M  V30 6643 S 617.525 -3.65848 -2.42282 0
M  V30 6644 H 614.343 -0.646293 -0.296354 0
M  V30 6645 H 616.945 -1.94951 -0.146365 0
M  V30 6646 H 615.649 -3.98546 -0.979266 0
M  V30 6647 H 615.18 -3.09102 -2.4335 0
M  V30 6648 H 617.195 -3.33796 -3.67143 0
M  V30 6649 N 616.368 0.432326 -1.51554 0
M  V30 6650 C 617.617 1.17831 -1.63703 0
M  V30 6651 C 617.93 1.92229 -0.36156 0
M  V30 6652 O 619.136 2.69069 -0.362495 0
M  V30 6653 C 617.592 2.14318 -2.89129 0
M  V30 6654 C 617.2 1.45544 -4.23699 0
M  V30 6655 C 618.944 2.89319 -3.10636 0
M  V30 6656 C 616.851 2.40545 -5.4027 0
M  V30 6657 H 615.781 0.443533 -0.60975 0
M  V30 6658 H 618.432 0.444878 -1.78026 0
M  V30 6659 H 616.814 2.91117 -2.68452 0
M  V30 6660 H 617.988 0.742693 -4.54775 0
M  V30 6661 H 616.303 0.826772 -4.0811 0
M  V30 6662 H 618.9 3.60495 -3.94902 0
M  V30 6663 H 619.243 3.50951 -2.23918 0
M  V30 6664 H 619.776 2.19625 -3.31677 0
M  V30 6665 H 616.515 1.83594 -6.29264 0
M  V30 6666 H 616.035 3.09859 -5.13563 0
M  V30 6667 H 617.714 3.01569 -5.72421 0
M  V30 6668 N 617.846 1.41785 0.688094 0
M  V30 6669 C 619.092 1.42753 1.4489 0
M  V30 6670 C 619.447 0.0384235 1.92362 0
M  V30 6671 O 618.74 -0.937066 1.67122 0
M  V30 6672 C 618.934 2.37532 2.67046 0
M  V30 6673 C 618.763 3.85521 2.31525 0
M  V30 6674 C 617.533 4.54152 2.21527 0
M  V30 6675 C 619.731 4.76299 1.94019 0
M  V30 6676 N 617.713 5.87233 1.78969 0
M  V30 6677 C 619.084 5.98386 1.62279 0
M  V30 6678 C 621.139 4.63877 1.80895 0
M  V30 6679 C 619.842 7.09433 1.18732 0
M  V30 6680 C 621.868 5.74893 1.38752 0
M  V30 6681 C 621.23 6.96083 1.07927 0
M  V30 6682 H 617.329 0.577575 0.527192 0
M  V30 6683 H 619.913 1.77713 0.795375 0
M  V30 6684 H 618.084 2.04656 3.30107 0
M  V30 6685 H 619.816 2.29169 3.33562 0
M  V30 6686 H 616.571 4.08188 2.40166 0
M  V30 6687 H 616.995 6.57785 1.60151 0
M  V30 6688 H 621.637 3.70671 2.03378 0
M  V30 6689 H 619.355 8.02497 0.949937 0
M  V30 6690 H 622.941 5.67287 1.29136 0
M  V30 6691 H 621.821 7.80527 0.758111 0
M  V30 6692 N 619.324 -0.923095 1.27737 0
M  V30 6693 C 620.554 -1.70277 1.17001 0
M  V30 6694 C 620.962 -1.87188 -0.275199 0
M  V30 6695 O 620.305 -1.39195 -1.19877 0
M  V30 6696 C 620.367 -3.11976 1.78637 0
M  V30 6697 C 620.031 -3.18386 3.27841 0
M  V30 6698 C 621.028 -3.00287 4.2441 0
M  V30 6699 C 618.713 -3.41198 3.68632 0
M  V30 6700 C 620.707 -3.04896 5.59747 0
M  V30 6701 C 618.394 -3.4544 5.04097 0
M  V30 6702 C 619.392 -3.27309 5.99465 0
M  V30 6703 O 619.08 -3.31295 7.32461 0
M  V30 6704 H 618.812 -0.539366 0.407505 0
M  V30 6705 H 621.366 -1.16446 1.69202 0
M  V30 6706 H 619.596 -3.67308 1.20919 0
M  V30 6707 H 621.285 -3.7193 1.6255 0
M  V30 6708 H 622.051 -2.825 3.94232 0
M  V30 6709 H 617.93 -3.54359 2.94873 0
M  V30 6710 H 621.474 -2.90662 6.34162 0
M  V30 6711 H 617.371 -3.62753 5.33929 0
M  V30 6712 H 618.139 -3.47719 7.40968 0
M  V30 6713 N 620.802 -1.09834 -1.13024 0
M  V30 6714 C 621.765 -0.745058 -2.16752 0
M  V30 6715 C 622.765 0.227435 -1.59183 0
M  V30 6716 O 623.955 0.0050786 -1.74199 0
M  V30 6717 C 621.087 -0.102543 -3.40746 0
M  V30 6718 H 622.28 -1.66375 -2.49518 0
M  V30 6719 H 619.833 -0.898061 -1.27924 0
M  V30 6720 H 620.568 0.827177 -3.13573 0
M  V30 6721 H 620.353 -0.80235 -3.83803 0
M  V30 6722 H 621.843 0.129082 -4.174 0
M  V30 6723 N 622.28 1.30327 -0.886154 0
M  V30 6724 C 623.529 1.95373 -0.501243 0
M  V30 6725 C 623.842 1.70722 0.954634 0
M  V30 6726 O 625.048 2.29761 1.44644 0
M  V30 6727 C 623.504 3.49828 -0.845493 0
M  V30 6728 C 623.112 3.83296 -2.31922 0
M  V30 6729 C 624.856 4.2118 -0.529838 0
M  V30 6730 C 622.763 5.30935 -2.60504 0
M  V30 6731 H 621.693 0.731274 -0.183722 0
M  V30 6732 H 624.344 1.48258 -1.08129 0
M  V30 6733 H 622.726 3.95522 -0.19452 0
M  V30 6734 H 623.9 3.48508 -3.01461 0
M  V30 6735 H 622.215 3.2505 -2.60253 0
M  V30 6736 H 624.812 5.29825 -0.720401 0
M  V30 6737 H 625.155 4.12902 0.530828 0
M  V30 6738 H 625.688 3.81173 -1.13806 0
M  V30 6739 H 622.427 5.44265 -3.65316 0
M  V30 6740 H 621.947 5.67019 -1.95575 0
M  V30 6741 H 623.626 5.98381 -2.46066 0
M  V30 6742 N 623.758 0.647228 1.43697 0
M  V30 6743 C 625.006 0.157876 2.01482 0
M  V30 6744 C 625.327 -1.23039 1.51282 0
M  V30 6745 O 624.597 -1.82071 0.722982 0
M  V30 6746 H 623.177 0.0553745 0.744945 0
M  V30 6747 H 625.839 0.83755 1.75986 0
M  V30 6748 H 624.935 0.137895 3.11795 0
M  V30 6749 N 625.236 -1.5273 0.388769 0
M  V30 6750 C 626.184 -2.27975 -0.461527 0
M  V30 6751 C 627.178 -1.31854 -1.06352 0
M  V30 6752 O 628.384 -1.49394 -1.00406 0
M  V30 6753 H 624.759 -0.733088 -0.16759 0
M  V30 6754 H 626.73 -2.97765 0.194579 0
M  V30 6755 C 625.479 -3.09881 -1.577 0
M  V30 6756 H 624.802 -3.83701 -1.12309 0
M  V30 6757 H 626.242 -3.6567 -2.14619 0
M  V30 6758 C 624.701 -2.22159 -2.53272 0
M  V30 6759 O 625.231 -1.84802 -3.56667 0
M  V30 6760 N 623.437 -1.8633 -2.23001 0
M  V30 6761 H 622.984 -2.16909 -1.38954 0
M  V30 6762 H 622.942 -1.27927 -2.87197 0
M  V30 6763 N 626.714 -0.118576 -1.57153 0
M  V30 6764 C 627.96 0.540326 -1.95469 0
M  V30 6765 C 628.293 1.66356 -1.00196 0
M  V30 6766 O 627.568 1.94461 -0.039104 0
M  V30 6767 C 627.851 1.07342 -3.43729 0
M  V30 6768 C 627.704 -0.0463732 -4.49776 0
M  V30 6769 C 629.023 1.96442 -3.93826 0
M  V30 6770 H 626.142 0.19494 -0.710751 0
M  V30 6771 H 628.784 -0.19405 -1.89006 0
M  V30 6772 H 626.934 1.69925 -3.49368 0
M  V30 6773 H 628.606 -0.681648 -4.56236 0
M  V30 6774 H 626.849 -0.709574 -4.27957 0
M  V30 6775 H 627.52 0.367856 -5.50773 0
M  V30 6776 H 629.996 1.43731 -3.90488 0
M  V30 6777 H 628.872 2.3066 -4.98084 0
M  V30 6778 H 629.133 2.89077 -3.34495 0
M  V30 6779 N 628.193 1.56834 0.155195 0
M  V30 6780 C 629.103 2.009 1.21146 0
M  V30 6781 C 630.119 0.923029 1.475 0
M  V30 6782 O 631.295 1.23189 1.59331 0
M  V30 6783 C 628.36 2.37378 2.52691 0
M  V30 6784 C 627.421 3.59883 2.34057 0
M  V30 6785 C 626.654 3.94612 3.59329 0
M  V30 6786 O 626.877 3.30104 4.65175 0
M  V30 6787 O 625.811 4.87895 3.52479 0
M  V30 6788 H 629.637 2.9105 0.867371 0
M  V30 6789 H 627.222 1.44916 0.363298 0
M  V30 6790 H 629.104 2.61737 3.3026 0
M  V30 6791 H 627.779 1.50385 2.86646 0
M  V30 6792 H 626.686 3.40722 1.54465 0
M  V30 6793 H 628.019 4.47468 2.0502 0
M  V30 6794 N 629.671 -0.424282 1.51781 0
M  V30 6795 C 631.087 -0.761768 1.40247 0
M  V30 6796 C 631.287 -1.95324 0.495041 0
M  V30 6797 O 630.343 -2.5246 -0.0448949 0
M  V30 6798 C 631.656 -1.0299 2.82513 0
M  V30 6799 C 633.204 -1.13354 2.91753 0
M  V30 6800 C 633.679 -1.43453 4.34954 0
M  V30 6801 N 635.17 -1.5035 4.3812 0
M  V30 6802 C 635.905 -1.75236 5.45967 0
M  V30 6803 N 635.401 -1.97827 6.63955 0
M  V30 6804 N 637.194 -1.77126 5.33463 0
M  V30 6805 H 629.345 0.360228 2.09323 0
M  V30 6806 H 631.608 0.0988128 0.942836 0
M  V30 6807 H 631.314 -0.226961 3.50967 0
M  V30 6808 H 631.188 -1.95411 3.22637 0
M  V30 6809 H 633.575 -1.92709 2.23489 0
M  V30 6810 H 633.656 -0.188041 2.55108 0
M  V30 6811 H 633.3 -0.646209 5.03772 0
M  V30 6812 H 633.23 -2.3923 4.69123 0
M  V30 6813 H 635.721 -1.34742 3.53062 0
M  V30 6814 H 636.034 -2.16223 7.41935 0
M  V30 6815 H 634.379 -1.95123 6.67047 0
M  V30 6816 H 637.57 -1.59005 4.40267 0
M  V30 6817 H 637.743 -1.96182 6.17589 0
M  V30 6818 N 631.149 -1.42148 -0.680565 0
M  V30 6819 C 632.56 -1.3768 -1.26099 0
M  V30 6820 C 632.911 -0.0672348 -1.96085 0
M  V30 6821 O 632.036 0.834172 -1.99676 0
M  V30 6822 C 632.631 -2.49387 -2.29328 0
M  V30 6823 C 631.19 -2.4827 -2.82911 0
M  V30 6824 C 630.337 -2.2847 -1.57152 0
M  V30 6825 H 633.288 -1.51446 -0.474326 0
M  V30 6826 H 633.309 -2.19307 -3.10941 0
M  V30 6827 H 632.821 -3.44686 -1.78363 0
M  V30 6828 H 630.922 -1.56773 -3.38013 0
M  V30 6829 H 631.035 -3.45109 -3.3232 0
M  V30 6830 H 629.399 -1.76623 -1.83511 0
M  V30 6831 H 630.182 -3.25816 -1.0816 0
M  V30 6832 N 632.627 0.916307 -1.28225 0
M  V30 6833 C 633.857 1.69654 -1.17902 0
M  V30 6834 C 634.265 1.87331 0.265268 0
M  V30 6835 O 633.608 1.39828 1.19137 0
M  V30 6836 C 633.67 3.11024 -1.80289 0
M  V30 6837 C 633.334 3.16643 -3.29525 0
M  V30 6838 C 634.331 2.98032 -4.25997 0
M  V30 6839 C 632.016 3.39238 -3.70436 0
M  V30 6840 C 634.01 3.01924 -5.61356 0
M  V30 6841 C 631.697 3.42762 -5.05922 0
M  V30 6842 C 632.695 3.24125 -6.01192 0
M  V30 6843 O 632.383 3.27406 -7.34208 0
M  V30 6844 H 632.115 0.537197 -0.41036 0
M  V30 6845 H 634.669 1.15547 -1.69817 0
M  V30 6846 H 632.899 3.66662 -1.22865 0
M  V30 6847 H 634.588 3.71063 -1.6452 0
M  V30 6848 H 635.354 2.80405 -3.95725 0
M  V30 6849 H 631.233 3.52791 -2.96749 0
M  V30 6850 H 634.777 2.87295 -6.35694 0
M  V30 6851 H 630.674 3.59916 -5.35846 0
M  V30 6852 H 631.442 3.43784 -7.42802 0
M  V30 6853 N 634.105 1.10431 1.1244 0
M  V30 6854 C 635.035 0.775143 2.20258 0
M  V30 6855 C 636.016 -0.25186 1.68225 0
M  V30 6856 O 637.201 -0.117637 1.93843 0
M  V30 6857 C 634.331 0.206133 3.46688 0
M  V30 6858 C 633.285 1.16382 4.11873 0
M  V30 6859 C 632.611 0.456014 5.32752 0
M  V30 6860 C 633.911 2.5104 4.58013 0
M  V30 6861 H 635.605 1.67665 2.4805 0
M  V30 6862 H 633.151 0.807595 1.19222 0
M  V30 6863 H 635.104 -0.036291 4.21384 0
M  V30 6864 H 633.828 -0.730614 3.18323 0
M  V30 6865 H 632.487 1.39169 3.39157 0
M  V30 6866 H 632.135 -0.485203 5.00654 0
M  V30 6867 H 631.835 1.09466 5.77314 0
M  V30 6868 H 633.359 0.222135 6.10196 0
M  V30 6869 H 634.773 2.32401 5.24083 0
M  V30 6870 H 633.17 3.10789 5.13352 0
M  V30 6871 H 634.24 3.11039 3.71998 0
M  V30 6872 N 635.583 -1.29855 0.893053 0
M  V30 6873 C 636.493 -2.31661 0.370157 0
M  V30 6874 C 637.509 -1.65677 -0.531723 0
M  V30 6875 O 638.685 -1.9691 -0.422902 0
M  V30 6876 C 635.75 -3.44388 -0.399741 0
M  V30 6877 C 634.811 -4.2598 0.532861 0
M  V30 6878 C 634.044 -5.33324 -0.200388 0
M  V30 6879 O 634.267 -5.52305 -1.42531 0
M  V30 6880 O 633.201 -6.00188 0.453668 0
M  V30 6881 H 637.027 -2.78354 1.2146 0
M  V30 6882 H 634.612 -1.34171 0.657153 0
M  V30 6883 H 636.494 -4.13037 -0.835358 0
M  V30 6884 H 635.169 -2.99815 -1.22035 0
M  V30 6885 H 634.076 -3.59998 1.01746 0
M  V30 6886 H 635.409 -4.74178 1.3197 0
M  V30 6887 N 637.061 -0.65484 -1.43351 0
M  V30 6888 C 638.011 0.0581325 -2.27926 0
M  V30 6889 C 638.995 0.793188 -1.3999 0
M  V30 6890 O 640.187 0.675387 -1.63608 0
M  V30 6891 C 637.316 1.02272 -3.27712 0
M  V30 6892 C 636.402 0.286048 -4.23134 0
M  V30 6893 N 636.793 -0.698298 -5.00957 0
M  V30 6894 C 635.091 0.527272 -4.42872 0
M  V30 6895 C 635.792 -1.1357 -5.70506 0
M  V30 6896 N 634.768 -0.469631 -5.41568 0
M  V30 6897 H 638.57 -0.697182 -2.85511 0
M  V30 6898 H 636.084 -0.482252 -1.55074 0
M  V30 6899 H 638.081 1.5483 -3.87083 0
M  V30 6900 H 636.741 1.77807 -2.71688 0
M  V30 6901 H 637.752 -1.07708 -5.06576 0
M  V30 6902 H 634.429 1.26367 -3.97916 0
M  V30 6903 H 635.819 -1.95027 -6.42973 0
M  V30 6904 N 638.539 1.52521 -0.396863 0
M  V30 6905 C 639.486 2.26671 0.434624 0
M  V30 6906 C 640.456 1.28584 1.05144 0
M  V30 6907 O 641.641 1.57426 1.07804 0
M  V30 6908 C 638.781 3.08234 1.55196 0
M  V30 6909 C 637.894 4.21261 0.957262 0
M  V30 6910 C 637.029 4.90205 2.04627 0
M  V30 6911 C 636.068 5.95213 1.42787 0
M  V30 6912 N 635.205 6.57723 2.45651 0
M  V30 6913 H 640.045 2.973 -0.204139 0
M  V30 6914 H 637.582 1.46669 -0.112505 0
M  V30 6915 H 639.54 3.53819 2.2106 0
M  V30 6916 H 638.17 2.398 2.16092 0
M  V30 6917 H 637.222 3.79935 0.188005 0
M  V30 6918 H 638.534 4.96624 0.465416 0
M  V30 6919 H 637.688 5.39133 2.78246 0
M  V30 6920 H 636.427 4.14383 2.57174 0
M  V30 6921 H 635.432 5.45616 0.676968 0
M  V30 6922 H 636.657 6.72972 0.910255 0
M  V30 6923 H 634.603 5.84737 2.97353 0
M  V30 6924 H 634.52 7.28723 2.01243 0
M  V30 6925 H 635.788 7.11293 3.18876 0
M  V30 6926 N 640.017 0.126909 1.57088 0
M  V30 6927 C 641.266 -0.529024 1.94639 0
M  V30 6928 C 641.579 -1.67323 1.01304 0
M  V30 6929 O 642.785 -2.39245 1.28352 0
M  V30 6930 C 641.241 -0.992483 3.45945 0
M  V30 6931 C 640.849 0.123691 4.47829 0
M  V30 6932 C 642.593 -1.61934 3.924 0
M  V30 6933 C 640.5 -0.356911 5.90322 0
M  V30 6934 H 639.43 -0.201397 0.726605 0
M  V30 6935 H 642.081 0.208032 1.82317 0
M  V30 6936 H 640.463 -1.7842 3.53528 0
M  V30 6937 H 641.637 0.900168 4.51922 0
M  V30 6938 H 639.952 0.657699 4.11173 0
M  V30 6939 H 642.549 -1.9902 4.96281 0
M  V30 6940 H 642.892 -2.50075 3.32819 0
M  V30 6941 H 643.425 -0.892894 3.8765 0
M  V30 6942 H 640.164 0.488636 6.53676 0
M  V30 6943 H 639.684 -1.0997 5.89633 0
M  V30 6944 H 641.363 -0.815547 6.41839 0
M  V30 6945 N 641.495 -1.56914 -0.146875 0
M  V30 6946 C 642.743 -1.82994 -0.85777 0
M  V30 6947 C 643.064 -0.707814 -1.817 0
M  V30 6948 O 642.334 0.270521 -1.94023 0
M  V30 6949 H 640.914 -0.675106 -0.319751 0
M  V30 6950 H 643.576 -1.9439 -0.140849 0
M  V30 6951 H 642.672 -2.77928 -1.41994 0
M  V30 6952 N 642.974 0.416227 -1.52004 0
M  V30 6953 C 644.22 1.16233 -1.66917 0
M  V30 6954 C 644.575 1.8839 -0.390763 0
M  V30 6955 O 643.868 1.81479 0.614478 0
M  V30 6956 C 644.062 2.18923 -2.82502 0
M  V30 6957 C 643.891 1.56849 -4.2146 0
M  V30 6958 C 642.661 1.34426 -4.87091 0
M  V30 6959 C 644.859 1.03322 -5.03815 0
M  V30 6960 N 642.841 0.681703 -6.10103 0
M  V30 6961 C 644.212 0.497165 -6.18003 0
M  V30 6962 C 646.267 0.926997 -4.89194 0
M  V30 6963 C 644.97 -0.134687 -7.19174 0
M  V30 6964 C 646.996 0.309009 -5.90592 0
M  V30 6965 C 646.358 -0.216399 -7.04068 0
M  V30 6966 H 642.457 0.412252 -0.664509 0
M  V30 6967 H 645.041 0.455758 -1.89291 0
M  V30 6968 H 643.212 2.86946 -2.61756 0
M  V30 6969 H 644.944 2.85844 -2.86488 0
M  V30 6970 H 641.699 1.61183 -4.45328 0
M  V30 6971 H 642.123 0.367256 -6.76003 0
M  V30 6972 H 646.765 1.31904 -4.01698 0
M  V30 6973 H 644.483 -0.538811 -8.06302 0
M  V30 6974 H 648.069 0.228438 -5.81351 0
M  V30 6975 H 646.949 -0.687064 -7.81184 0
M  V30 6976 N 644.452 1.42507 0.673017 0
M  V30 6977 C 645.382 1.48916 1.79851 0
M  V30 6978 C 646.363 0.345566 1.66553 0
M  V30 6979 O 647.548 0.560116 1.85947 0
M  V30 6980 C 644.678 1.39258 3.18158 0
M  V30 6981 C 643.632 2.51662 3.46194 0
M  V30 6982 C 642.958 2.27062 4.84094 0
M  V30 6983 C 644.258 3.93968 3.42909 0
M  V30 6984 H 645.952 2.43114 1.74745 0
M  V30 6985 H 643.498 1.17013 0.839288 0
M  V30 6986 H 645.451 1.42349 3.96629 0
M  V30 6987 H 644.175 0.415542 3.23946 0
M  V30 6988 H 642.834 2.47891 2.70084 0
M  V30 6989 H 642.482 1.27648 4.86534 0
M  V30 6990 H 642.182 3.02398 5.03815 0
M  V30 6991 H 643.706 2.31905 5.64847 0
M  V30 6992 H 645.12 3.99332 4.11347 0
M  V30 6993 H 643.517 4.6917 3.74165 0
M  V30 6994 H 644.587 4.20512 2.41449 0
M  V30 6995 N 645.93 -0.909495 1.28709 0
M  V30 6996 C 647.207 -1.63865 1.06806 0
M  V30 6997 C 647.587 -2.07445 -0.391143 0
M  V30 6998 O 646.935 -1.82269 -1.37805 0
M  V30 6999 C 647.145 -2.82692 2.04661 0
M  V30 7000 C 648.493 -3.5361 2.35042 0
M  V30 7001 O 649.517 -2.92847 2.02779 0
M  V30 7002 O 648.376 -4.63131 2.90124 0
M  V30 7003 H 645.47 -0.719065 0.408502 0
M  V30 7004 H 648.016 -0.958424 1.40044 0
M  V30 7005 H 646.788 -2.47614 3.0299 0
M  V30 7006 H 646.411 -3.58426 1.72095 0
M  V30 7007 N 647.408 -1.11026 -1.11852 0
M  V30 7008 C 648.633 -0.879064 -1.87849 0
M  V30 7009 C 649.058 0.565406 -1.79401 0
M  V30 7010 O 648.416 1.39886 -1.15333 0
M  V30 7011 C 648.464 -1.33985 -3.34784 0
M  V30 7012 O 647.568 -0.508803 -4.09249 0
M  V30 7013 H 646.909 -0.316992 -0.583448 0
M  V30 7014 H 649.439 -1.47863 -1.41413 0
M  V30 7015 H 649.449 -1.33248 -3.85628 0
M  V30 7016 H 648.124 -2.39172 -3.40249 0
M  V30 7017 H 646.701 -0.581913 -3.68332 0
M  V30 7018 N 648.886 1.2938 -0.899927 0
M  V30 7019 C 649.816 2.30144 -0.39446 0
M  V30 7020 C 650.797 1.61611 0.530639 0
M  V30 7021 O 651.982 1.89119 0.441319 0
M  V30 7022 C 649.112 3.45229 0.37868 0
M  V30 7023 C 648.066 4.25564 -0.456012 0
M  V30 7024 C 647.392 5.32848 0.444637 0
M  V30 7025 C 648.692 4.93651 -1.70605 0
M  V30 7026 H 650.386 2.72673 -1.23653 0
M  V30 7027 H 647.932 1.31086 -0.596034 0
M  V30 7028 H 649.885 4.14797 0.743037 0
M  V30 7029 H 648.609 3.01545 1.25453 0
M  V30 7030 H 647.268 3.57704 -0.802704 0
M  V30 7031 H 646.916 4.85408 1.31863 0
M  V30 7032 H 646.616 5.87497 -0.110154 0
M  V30 7033 H 648.14 6.05268 0.805182 0
M  V30 7034 H 649.554 5.55655 -1.41141 0
M  V30 7035 H 647.951 5.58233 -2.20217 0
M  V30 7036 H 649.021 4.18926 -2.4419 0
M  V30 7037 N 650.364 0.662433 1.43002 0
M  V30 7038 C 651.612 0.179237 2.01304 0
M  V30 7039 C 651.933 -1.21428 1.52579 0
M  V30 7040 O 651.203 -1.81294 0.742252 0
M  V30 7041 H 649.783 0.0632725 0.744316 0
M  V30 7042 H 652.445 0.856169 1.75088 0
M  V30 7043 H 651.541 0.170957 3.11631 0
M  V30 7044 N 651.842 -1.52309 0.404946 0
M  V30 7045 C 653.088 -2.02065 -0.172455 0
M  V30 7046 C 653.421 -1.29022 -1.45145 0
M  V30 7047 O 652.696 -0.395284 -1.90441 0
M  V30 7048 C 652.979 -3.5759 -0.424433 0
M  V30 7049 C 652.832 -4.41287 0.870945 0
M  V30 7050 C 654.151 -4.23186 -1.20837 0
M  V30 7051 H 651.27 -0.734454 -0.0612035 0
M  V30 7052 H 653.912 -1.82236 0.53759 0
M  V30 7053 H 652.062 -3.74617 -1.02929 0
M  V30 7054 H 653.734 -4.3598 1.50729 0
M  V30 7055 H 651.977 -4.07669 1.48284 0
M  V30 7056 H 652.648 -5.48171 0.649083 0
M  V30 7057 H 655.124 -4.10232 -0.696338 0
M  V30 7058 H 654 -5.31953 -1.35343 0
M  V30 7059 H 654.261 -3.81862 -2.22786 0
M  V30 7060 N 653.32 -0.135238 -1.57019 0
M  V30 7061 C 654.252 0.839675 -2.13265 0
M  V30 7062 C 655.265 1.21887 -1.07923 0
M  V30 7063 O 656.454 1.16499 -1.35241 0
M  V30 7064 C 653.554 2.13647 -2.63075 0
M  V30 7065 C 652.727 1.92646 -3.92691 0
M  V30 7066 C 651.786 3.06205 -4.27931 0
M  V30 7067 O 650.812 2.78409 -4.96465 0
M  V30 7068 N 652.014 4.33072 -3.86561 0
M  V30 7069 H 654.779 0.359026 -2.97542 0
M  V30 7070 H 652.34 0.0486979 -1.61827 0
M  V30 7071 H 654.332 2.88641 -2.8367 0
M  V30 7072 H 652.902 2.5301 -1.83588 0
M  V30 7073 H 652.122 1.01754 -3.80841 0
M  V30 7074 H 653.41 1.75939 -4.77413 0
M  V30 7075 H 652.808 4.58526 -3.31316 0
M  V30 7076 H 651.365 5.04885 -4.12231 0
M  V30 7077 N 654.798 1.5699 0.138552 0
M  V30 7078 C 655.728 2.01933 1.17241 0
M  V30 7079 C 656.709 0.90033 1.44319 0
M  V30 7080 O 657.894 1.16872 1.55095 0
M  V30 7081 C 655.024 2.40711 2.50351 0
M  V30 7082 C 653.978 3.55874 2.37776 0
M  V30 7083 C 653.304 3.80491 3.75674 0
M  V30 7084 C 654.604 4.8826 1.85472 0
M  V30 7085 H 656.298 2.88551 0.798672 0
M  V30 7086 H 653.844 1.3882 0.382743 0
M  V30 7087 H 655.797 2.70754 3.22909 0
M  V30 7088 H 654.521 1.5104 2.89576 0
M  V30 7089 H 653.18 3.2601 1.67669 0
M  V30 7090 H 652.828 2.88057 4.12349 0
M  V30 7091 H 652.528 4.57998 3.68119 0
M  V30 7092 H 654.052 4.12967 4.49767 0
M  V30 7093 H 655.466 5.16965 2.4783 0
M  V30 7094 H 653.863 5.69631 1.88787 0
M  V30 7095 H 654.933 4.78071 0.810935 0
M  V30 7096 N 656.276 -0.40816 1.52223 0
M  V30 7097 C 657.524 -1.15274 1.66001 0
M  V30 7098 C 657.845 -1.91003 0.392803 0
M  V30 7099 O 657.115 -1.8673 -0.592336 0
M  V30 7100 H 655.695 -0.428526 0.611861 0
M  V30 7101 H 658.357 -0.46512 1.89269 0
M  V30 7102 H 657.453 -1.86628 2.50153 0
M  V30 7103 N 657.755 -1.42862 -0.66545 0
M  V30 7104 C 658.702 -1.4707 -1.77874 0
M  V30 7105 C 659.672 -0.321654 -1.62956 0
M  V30 7106 O 660.857 -0.52707 -1.83376 0
M  V30 7107 C 657.997 -1.38788 -3.15962 0
M  V30 7108 C 657.11 -2.63801 -3.42101 0
M  V30 7109 C 656.245 -2.47594 -4.69969 0
M  V30 7110 C 655.284 -3.67936 -4.89172 0
M  V30 7111 N 654.421 -3.50614 -6.08288 0
M  V30 7112 H 659.261 -2.42204 -1.73613 0
M  V30 7113 H 656.798 -1.20239 -0.847401 0
M  V30 7114 H 658.756 -1.31982 -3.95773 0
M  V30 7115 H 657.386 -0.472431 -3.19324 0
M  V30 7116 H 656.438 -2.80935 -2.56475 0
M  V30 7117 H 657.75 -3.53228 -3.52181 0
M  V30 7118 H 656.904 -2.38427 -5.57886 0
M  V30 7119 H 655.643 -1.55672 -4.62188 0
M  V30 7120 H 654.648 -3.77525 -3.99694 0
M  V30 7121 H 655.873 -4.60851 -4.98792 0
M  V30 7122 H 653.819 -2.61417 -6.01662 0
M  V30 7123 H 653.736 -4.33634 -6.19272 0
M  V30 7124 H 655.004 -3.45276 -6.98859 0
M  V30 7125 N 659.233 0.902656 -1.29189 0
M  V30 7126 C 660.649 1.18296 -1.07137 0
M  V30 7127 C 660.849 2.00701 0.179223 0
M  V30 7128 O 659.905 2.3675 0.877812 0
M  V30 7129 C 661.218 1.90677 -2.32514 0
M  V30 7130 C 662.766 2.03515 -2.37804 0
M  V30 7131 C 663.241 2.79307 -3.62976 0
M  V30 7132 N 664.732 2.86862 -3.63681 0
M  V30 7133 C 665.467 3.46035 -4.57217 0
M  V30 7134 N 664.963 4.06399 -5.61081 0
M  V30 7135 N 666.756 3.43681 -4.44792 0
M  V30 7136 H 658.907 0.352765 -2.0945 0
M  V30 7137 H 661.17 0.21876 -0.922414 0
M  V30 7138 H 660.876 1.3756 -3.23682 0
M  V30 7139 H 660.75 2.91169 -2.39793 0
M  V30 7140 H 663.137 2.55809 -1.47125 0
M  V30 7141 H 663.218 1.02166 -2.34512 0
M  V30 7142 H 662.862 2.2769 -4.54004 0
M  V30 7143 H 662.792 3.80995 -3.63525 0
M  V30 7144 H 665.283 2.43987 -2.88581 0
M  V30 7145 H 665.596 4.49564 -6.2858 0
M  V30 7146 H 663.941 4.0487 -5.64894 0
M  V30 7147 H 667.132 2.9574 -3.62843 0
M  V30 7148 H 667.305 3.89503 -5.17872 0
M  V30 7149 N 660.711 1.11618 1.11262 0
M  V30 7150 C 661.941 0.88745 1.86569 0
M  V30 7151 C 662.349 -0.56636 1.80524 0
M  V30 7152 O 661.692 -1.40289 1.18594 0
M  V30 7153 C 661.754 1.27313 3.36202 0
M  V30 7154 C 661.418 2.73649 3.66013 0
M  V30 7155 C 662.415 3.71863 3.63337 0
M  V30 7156 C 660.1 3.10342 3.9496 0
M  V30 7157 C 662.094 5.04788 3.89188 0
M  V30 7158 C 659.781 4.43451 4.20469 0
M  V30 7159 C 660.779 5.40484 4.17572 0
M  V30 7160 O 660.467 6.71195 4.42439 0
M  V30 7161 H 660.199 0.317543 0.596777 0
M  V30 7162 H 662.753 1.48768 1.41624 0
M  V30 7163 H 660.983 0.616062 3.81761 0
M  V30 7164 H 662.672 1.01991 3.92877 0
M  V30 7165 H 663.438 3.44861 3.41022 0
M  V30 7166 H 659.317 2.35431 3.9635 0
M  V30 7167 H 662.861 5.80516 3.86842 0
M  V30 7168 H 658.758 4.70187 4.42261 0
M  V30 7169 H 659.526 6.77012 4.59997 0
M  V30 7170 N 662.189 -1.289 0.906776 0
M  V30 7171 C 663.137 -2.29477 0.379873 0
M  V30 7172 C 664.131 -1.61068 -0.524747 0
M  V30 7173 O 665.337 -1.75344 -0.406765 0
M  V30 7174 H 661.712 -0.744742 0.10423 0
M  V30 7175 H 663.683 -2.71353 1.24137 0
M  V30 7176 C 662.432 -3.45713 -0.371154 0
M  V30 7177 H 661.755 -3.98551 0.315716 0
M  V30 7178 H 663.195 -4.18105 -0.704581 0
M  V30 7179 C 661.654 -2.9774 -1.57646 0
M  V30 7180 O 662.184 -2.99618 -2.67567 0
M  V30 7181 N 660.39 -2.53485 -1.42105 0
M  V30 7182 H 659.937 -2.52156 -0.526783 0
M  V30 7183 H 659.895 -2.21747 -2.22881 0
M  V30 7184 N 663.667 -0.670007 -1.42649 0
M  V30 7185 C 664.915 -0.18991 -2.01206 0
M  V30 7186 C 665.236 1.20617 -1.53221 0
M  V30 7187 O 664.506 1.80898 -0.751856 0
M  V30 7188 H 663.086 -0.0672189 -0.743969 0
M  V30 7189 H 665.748 -0.865442 -1.74631 0
M  V30 7190 H 664.844 -0.187481 -3.11536 0
M  V30 7191 N 665.145 1.52092 -0.413018 0
M  V30 7192 C 666.37 2.06756 0.163338 0
M  V30 7193 C 666.795 1.28073 1.37764 0
M  V30 7194 O 666.153 0.312015 1.78595 0
M  V30 7195 C 666.201 3.57278 0.488322 0
M  V30 7196 O 665.305 3.80986 1.57871 0
M  V30 7197 H 664.646 0.663882 0.0125068 0
M  V30 7198 H 667.176 1.95988 -0.587339 0
M  V30 7199 H 667.186 4.01125 0.745836 0
M  V30 7200 H 665.861 4.13978 -0.399327 0
M  V30 7201 H 664.438 3.49017 1.31306 0
M  V30 7202 N 666.623 0.143563 1.56945 0
M  V30 7203 C 667.9 -0.553285 1.87612 0
M  V30 7204 C 668.28 -1.83195 1.04894 0
M  V30 7205 O 667.628 -2.28102 0.134773 0
M  V30 7206 C 667.838 -0.822055 3.3918 0
M  V30 7207 C 669.186 -1.16435 4.08324 0
M  V30 7208 O 670.21 -0.911522 3.4434 0
M  V30 7209 O 669.069 -1.63996 5.21313 0
M  V30 7210 H 666.163 -0.281851 0.777489 0
M  V30 7211 H 668.709 0.179916 1.68744 0
M  V30 7212 H 667.481 0.0830265 3.91212 0
M  V30 7213 H 667.104 -1.60956 3.63564 0
M  V30 7214 N 668.101 -1.57061 -0.130224 0
M  V30 7215 C 669.512 -1.73539 -0.68856 0
M  V30 7216 C 669.863 -0.760554 -1.80859 0
M  V30 7217 O 668.988 0.0690796 -2.1629 0
M  V30 7218 C 669.583 -3.14666 -1.25581 0
M  V30 7219 C 668.142 -3.32689 -1.76055 0
M  V30 7220 C 667.289 -2.69436 -0.655712 0
M  V30 7221 H 670.24 -1.58412 0.0956002 0
M  V30 7222 H 670.261 -3.15595 -2.12556 0
M  V30 7223 H 669.773 -3.85593 -0.440412 0
M  V30 7224 H 667.874 -2.66786 -2.60108 0
M  V30 7225 H 667.987 -4.4077 -1.87772 0
M  V30 7226 H 666.351 -2.30362 -1.08654 0
M  V30 7227 H 667.134 -3.42979 0.14852 0
M  V30 7228 N 669.579 0.400081 -1.52437 0
M  V30 7229 C 670.542 1.4707 -1.75793 0
M  V30 7230 C 671.542 1.48036 -0.627856 0
M  V30 7231 O 672.732 1.49401 -0.895817 0
M  V30 7232 C 669.864 2.86427 -1.84858 0
M  V30 7233 H 671.057 1.27649 -2.71377 0
M  V30 7234 H 668.61 0.631141 -1.42991 0
M  V30 7235 H 669.345 3.11207 -0.912194 0
M  V30 7236 H 669.13 2.87128 -2.6702 0
M  V30 7237 H 670.62 3.64023 -2.04638 0
M  V30 7238 N 671.057 1.43213 0.657864 0
M  V30 7239 C 672.282 1.48227 1.45064 0
M  V30 7240 C 672.707 0.0999939 1.87834 0
M  V30 7241 O 672.065 -0.905269 1.57081 0
M  V30 7242 C 672.113 2.42931 2.6649 0
M  V30 7243 O 671.217 1.91237 3.6538 0
M  V30 7244 H 670.558 0.501551 0.435135 0
M  V30 7245 H 673.088 1.8808 0.805431 0
M  V30 7246 H 673.098 2.6008 3.1436 0
M  V30 7247 H 671.773 3.43348 2.34701 0
M  V30 7248 H 670.35 1.83726 3.24498 0
M  V30 7249 N 672.536 -0.895792 1.29666 0
M  V30 7250 C 673.784 -1.64339 1.17631 0
M  V30 7251 C 674.105 -1.93099 -0.271643 0
M  V30 7252 O 673.375 -1.55981 -1.18518 0
M  V30 7253 H 671.955 -0.609162 0.432354 0
M  V30 7254 H 674.617 -1.07389 1.62646 0
M  V30 7255 H 673.713 -2.59815 1.72924 0
M  V30 7256 N 674.014 -1.12206 -1.10668 0
M  V30 7257 C 675.425 -0.890657 -1.64086 0
M  V30 7258 C 675.776 0.575502 -1.8757 0
M  V30 7259 O 674.901 1.4394 -1.61587 0
M  V30 7260 C 675.496 -1.61029 -2.98085 0
M  V30 7261 C 674.055 -1.4251 -3.48379 0
M  V30 7262 C 673.202 -1.64778 -2.23033 0
M  V30 7263 H 676.153 -1.27718 -0.94201 0
M  V30 7264 H 676.174 -1.05993 -3.65439 0
M  V30 7265 H 675.686 -2.67735 -2.80962 0
M  V30 7266 H 673.787 -0.380497 -3.70652 0
M  V30 7267 H 673.9 -2.17959 -4.26651 0
M  V30 7268 H 672.264 -1.07171 -2.31055 0
M  V30 7269 H 673.047 -2.72776 -2.08443 0
M  V30 7270 N 675.492 1.28418 -0.913599 0
M  V30 7271 C 676.717 1.99643 -0.561899 0
M  V30 7272 C 677.142 1.67819 0.849608 0
M  V30 7273 O 676.5 0.910503 1.56779 0
M  V30 7274 C 676.548 3.52116 -0.777622 0
M  V30 7275 O 675.652 4.12076 0.163457 0
M  V30 7276 H 674.993 0.627229 -0.217898 0
M  V30 7277 H 677.523 1.63575 -1.229 0
M  V30 7278 H 677.533 4.02163 -0.687666 0
M  V30 7279 H 676.208 3.74613 -1.8066 0
M  V30 7280 H 674.785 3.72892 0.0247827 0
M  V30 7281 N 676.97 0.677563 1.42291 0
M  V30 7282 C 678.216 0.201272 2.01799 0
M  V30 7283 C 678.549 -1.19004 1.53465 0
M  V30 7284 O 677.824 -1.79953 0.738039 0
M  V30 7285 C 678.107 0.238968 3.59306 0
M  V30 7286 C 677.96 1.66594 4.17812 0
M  V30 7287 C 679.279 -0.411287 4.38174 0
M  V30 7288 H 676.398 0.0746114 0.733214 0
M  V30 7289 H 679.04 0.862872 1.69276 0
M  V30 7290 H 677.19 -0.324368 3.87144 0
M  V30 7291 H 678.862 2.28173 4.00917 0
M  V30 7292 H 677.105 2.20576 3.73536 0
M  V30 7293 H 677.776 1.64398 5.26951 0
M  V30 7294 H 680.252 0.0682804 4.16044 0
M  V30 7295 H 679.128 -0.354286 5.47755 0
M  V30 7296 H 679.389 -1.4893 4.1626 0
M  V30 7297 N 678.448 -1.51871 0.421078 0
M  V30 7298 C 679.38 -2.25052 -0.434065 0
M  V30 7299 C 680.393 -1.28458 -1.00013 0
M  V30 7300 O 681.582 -1.54323 -0.897033 0
M  V30 7301 C 678.682 -2.97813 -1.61743 0
M  V30 7302 C 677.855 -4.21374 -1.17315 0
M  V30 7303 C 676.914 -4.76854 -2.22478 0
M  V30 7304 O 675.94 -5.39123 -1.82577 0
M  V30 7305 N 677.142 -4.59467 -3.54782 0
M  V30 7306 H 679.907 -2.99077 0.193073 0
M  V30 7307 H 677.468 -1.59972 0.249088 0
M  V30 7308 H 679.46 -3.3182 -2.31685 0
M  V30 7309 H 678.03 -2.26899 -2.15024 0
M  V30 7310 H 677.25 -3.93046 -0.3014 0
M  V30 7311 H 678.538 -5.01591 -0.853444 0
M  V30 7312 H 677.936 -4.09832 -3.89941 0
M  V30 7313 H 676.493 -4.9788 -4.20665 0
M  V30 7314 N 679.926 -0.151884 -1.56866 0
M  V30 7315 C 681.203 0.543328 -1.87902 0
M  V30 7316 C 681.583 1.82636 -1.05864 0
M  V30 7317 O 680.931 2.28028 -0.146868 0
M  V30 7318 C 681.141 0.804056 -3.39611 0
M  V30 7319 C 682.489 1.14267 -4.08935 0
M  V30 7320 O 683.513 0.893248 -3.44818 0
M  V30 7321 O 682.372 1.61229 -5.22176 0
M  V30 7322 H 679.466 0.277724 -0.778973 0
M  V30 7323 H 682.012 -0.188862 -1.68646 0
M  V30 7324 H 680.784 -0.103772 -3.91162 0
M  V30 7325 H 680.407 1.59025 -3.64413 0
M  V30 7326 N 681.404 1.57128 0.121893 0
M  V30 7327 C 682.351 2.0013 1.14964 0
M  V30 7328 C 683.321 0.872959 1.4131 0
M  V30 7329 O 684.506 1.13696 1.53225 0
M  V30 7330 C 681.646 2.40824 2.4718 0
M  V30 7331 C 680.759 3.67061 2.27794 0
M  V30 7332 C 679.894 3.96749 3.53219 0
M  V30 7333 C 678.933 5.16178 3.28978 0
M  V30 7334 N 678.07 5.41751 4.46599 0
M  V30 7335 H 682.91 2.8772 0.775947 0
M  V30 7336 H 680.447 1.42328 0.371652 0
M  V30 7337 H 682.405 2.62454 3.24305 0
M  V30 7338 H 681.035 1.56279 2.82448 0
M  V30 7339 H 680.087 3.53063 1.416 0
M  V30 7340 H 681.399 4.5434 2.05857 0
M  V30 7341 H 680.553 4.19012 4.38764 0
M  V30 7342 H 679.292 3.07941 3.78185 0
M  V30 7343 H 678.297 4.93762 2.41824 0
M  V30 7344 H 679.522 6.06561 3.05386 0
M  V30 7345 H 677.468 4.55899 4.71691 0
M  V30 7346 H 677.385 6.23347 4.27756 0
M  V30 7347 H 678.653 5.68531 5.33285 0
M  V30 7348 N 682.882 -0.391992 1.52647 0
M  V30 7349 C 684.112 -1.15692 1.71169 0
M  V30 7350 C 684.52 -1.84285 0.428444 0
M  V30 7351 O 683.863 -1.73393 -0.606669 0
M  V30 7352 C 683.925 -2.25033 2.80357 0
M  V30 7353 C 683.589 -1.76433 4.21569 0
M  V30 7354 C 684.586 -1.2427 5.0483 0
M  V30 7355 C 682.271 -1.82746 4.67877 0
M  V30 7356 C 684.265 -0.790657 6.32477 0
M  V30 7357 C 681.952 -1.37153 5.9551 0
M  V30 7358 C 682.95 -0.853997 6.7764 0
M  V30 7359 O 682.638 -0.404708 8.02881 0
M  V30 7360 H 682.37 -0.35297 0.576531 0
M  V30 7361 H 684.924 -0.464994 2.00067 0
M  V30 7362 H 683.154 -2.97641 2.46874 0
M  V30 7363 H 684.843 -2.86718 2.87311 0
M  V30 7364 H 685.609 -1.18752 4.70237 0
M  V30 7365 H 681.488 -2.21971 4.04042 0
M  V30 7366 H 685.032 -0.386024 6.96531 0
M  V30 7367 H 680.929 -1.42356 6.29607 0
M  V30 7368 H 681.697 -0.526459 8.16805 0
M  V30 7369 N 684.36 -1.4356 -0.65026 0
M  V30 7370 C 685.606 -1.45549 -1.41221 0
M  V30 7371 C 685.939 -0.0805472 -1.94033 0
M  V30 7372 O 685.214 0.899043 -1.72475 0
M  V30 7373 C 685.497 -2.50028 -2.59148 0
M  V30 7374 C 685.35 -3.96808 -2.1181 0
M  V30 7375 C 686.669 -2.51212 -3.61359 0
M  V30 7376 H 683.788 -0.529967 -0.512156 0
M  V30 7377 H 686.43 -1.75127 -0.736933 0
M  V30 7378 H 684.58 -2.24937 -3.16758 0
M  V30 7379 H 686.252 -4.32966 -1.59178 0
M  V30 7380 H 684.495 -4.09498 -1.43156 0
M  V30 7381 H 685.166 -4.6553 -2.96625 0
M  V30 7382 H 687.642 -2.73583 -3.13515 0
M  V30 7383 H 686.518 -3.26252 -4.41419 0
M  V30 7384 H 686.779 -1.54701 -4.1415 0
M  V30 7385 N 685.838 0.888903 -1.30139 0
M  V30 7386 C 687.066 1.67358 -1.21651 0
M  V30 7387 C 687.481 1.87499 0.221246 0
M  V30 7388 O 686.838 1.41969 1.14677 0
M  V30 7389 C 686.889 3.05213 -1.93719 0
M  V30 7390 O 686.61 2.85984 -3.31881 0
M  V30 7391 C 688.111 3.9964 -1.9184 0
M  V30 7392 H 685.331 0.522365 -0.42116 0
M  V30 7393 H 687.875 1.11086 -1.71698 0
M  V30 7394 H 686.03 3.5823 -1.4748 0
M  V30 7395 H 686.444 3.73411 -3.68327 0
M  V30 7396 H 687.918 4.93749 -2.46811 0
M  V30 7397 H 688.395 4.29955 -0.896409 0
M  V30 7398 H 689.001 3.52558 -2.37872 0
M  V30 7399 N 687.317 1.12792 1.10072 0
M  V30 7400 C 688.28 0.802264 2.14701 0
M  V30 7401 C 689.28 -0.18515 1.59731 0
M  V30 7402 O 690.47 0.041109 1.74151 0
M  V30 7403 C 687.602 0.19285 3.40354 0
M  V30 7404 H 688.795 1.72932 2.45019 0
M  V30 7405 H 686.348 0.931662 1.25498 0
M  V30 7406 H 687.083 -0.743748 3.15656 0
M  V30 7407 H 686.868 0.903827 3.81541 0
M  V30 7408 H 688.358 -0.0183704 4.17596 0
M  V30 7409 N 688.795 -1.27931 0.920396 0
M  V30 7410 C 689.725 -2.29487 0.431024 0
M  V30 7411 C 690.706 -1.62435 -0.504861 0
M  V30 7412 O 691.891 -1.89797 -0.411176 0
M  V30 7413 C 689.021 -3.45788 -0.323709 0
M  V30 7414 C 687.975 -4.24784 0.523658 0
M  V30 7415 C 687.301 -5.33488 -0.359809 0
M  V30 7416 C 688.601 -4.90874 1.78437 0
M  V30 7417 H 690.295 -2.70671 1.27975 0
M  V30 7418 H 687.841 -1.30121 0.616813 0
M  V30 7419 H 689.794 -4.15927 -0.676952 0
M  V30 7420 H 688.518 -3.03502 -1.2064 0
M  V30 7421 H 687.177 -3.56382 0.85951 0
M  V30 7422 H 686.825 -4.87445 -1.24124 0
M  V30 7423 H 686.525 -5.87247 0.203605 0
M  V30 7424 H 688.049 -6.06472 -0.708787 0
M  V30 7425 H 689.463 -5.53339 1.49963 0
M  V30 7426 H 687.86 -5.54659 2.29071 0
M  V30 7427 H 688.93 -4.14988 2.50824 0
M  V30 7428 N 690.273 -0.685099 -1.4193 0
M  V30 7429 C 691.503 -0.220052 -2.05425 0
M  V30 7430 C 691.911 1.13185 -1.51611 0
M  V30 7431 O 691.254 1.71631 -0.654875 0
M  V30 7432 C 691.316 -0.0888364 -3.5939 0
M  V30 7433 C 690.98 -1.37109 -4.35947 0
M  V30 7434 C 691.977 -2.30675 -4.65924 0
M  V30 7435 C 689.662 -1.62155 -4.75406 0
M  V30 7436 C 691.656 -3.47556 -5.34306 0
M  V30 7437 C 689.343 -2.79324 -5.43527 0
M  V30 7438 C 690.341 -3.71848 -5.72903 0
M  V30 7439 O 690.029 -4.86966 -6.39624 0
M  V30 7440 H 689.761 -0.102165 -0.668235 0
M  V30 7441 H 692.315 -0.935194 -1.82875 0
M  V30 7442 H 690.545 0.681981 -3.80639 0
M  V30 7443 H 692.234 0.337669 -4.04493 0
M  V30 7444 H 693 -2.12579 -4.3593 0
M  V30 7445 H 688.879 -0.910053 -4.51928 0
M  V30 7446 H 692.423 -4.19794 -5.57153 0
M  V30 7447 H 688.32 -2.97342 -5.72938 0
M  V30 7448 H 689.088 -4.86644 -6.58118 0
M  V30 7449 N 691.751 1.51645 -0.429126 0
M  V30 7450 C 692.998 2.02015 0.140079 0
M  V30 7451 C 693.326 1.31374 1.43427 0
M  V30 7452 O 692.581 0.414779 1.91254 0
M  V30 7453 C 692.88 3.54989 0.414472 0
M  V30 7454 C 692.546 4.43874 -0.792911 0
M  V30 7455 C 691.208 4.67887 -1.12404 0
M  V30 7456 C 693.56 4.96074 -1.59875 0
M  V30 7457 C 690.888 5.41348 -2.26184 0
M  V30 7458 C 693.24 5.70782 -2.72747 0
M  V30 7459 C 691.904 5.93062 -3.06324 0
M  V30 7460 H 691.174 0.739225 0.0512585 0
M  V30 7461 H 693.821 1.82675 -0.574641 0
M  V30 7462 H 692.126 3.72615 1.21099 0
M  V30 7463 H 693.823 3.91489 0.868173 0
M  V30 7464 H 690.413 4.25374 -0.524871 0
M  V30 7465 H 694.597 4.77412 -1.35614 0
M  V30 7466 H 689.853 5.56815 -2.52522 0
M  V30 7467 H 694.027 6.10221 -3.35564 0
M  V30 7468 H 691.654 6.49764 -3.94602 0
M  V30 7469 N 693.229 0.160201 1.56784 0
M  V30 7470 C 694.457 -0.494165 2.00912 0
M  V30 7471 C 694.872 -1.57548 1.04038 0
M  V30 7472 O 694.229 -1.82457 0.0394581 0
M  V30 7473 C 694.28 -1.08271 3.44905 0
M  V30 7474 O 694.001 -0.0445704 4.38077 0
M  V30 7475 C 695.502 -1.8164 4.04378 0
M  V30 7476 H 692.722 -0.127498 0.658776 0
M  V30 7477 H 695.266 0.258665 2.02858 0
M  V30 7478 H 693.421 -1.78609 3.4377 0
M  V30 7479 H 693.835 -0.477544 5.22322 0
M  V30 7480 H 695.309 -2.18094 5.07089 0
M  V30 7481 H 695.786 -2.70727 3.45838 0
M  V30 7482 H 696.392 -1.15969 4.09184 0
M  V30 7483 N 694.707 -1.5719 -0.113559 0
M  V30 7484 C 695.954 -1.85138 -0.820382 0
M  V30 7485 C 696.282 -0.74608 -1.79622 0
M  V30 7486 O 695.537 0.262077 -1.93937 0
M  V30 7487 C 695.836 -3.19593 -1.59984 0
M  V30 7488 C 695.502 -4.44315 -0.767809 0
M  V30 7489 C 694.164 -4.78179 -0.538379 0
M  V30 7490 C 696.516 -5.2086 -0.188203 0
M  V30 7491 C 693.844 -5.86028 0.28082 0
M  V30 7492 C 696.196 -6.29572 0.618217 0
M  V30 7493 C 694.86 -6.61964 0.857912 0
M  V30 7494 H 694.13 -0.677467 -0.300199 0
M  V30 7495 H 696.777 -1.91322 -0.0825443 0
M  V30 7496 H 695.082 -3.0901 -2.40874 0
M  V30 7497 H 696.779 -3.3844 -2.1508 0
M  V30 7498 H 693.369 -4.17786 -0.956724 0
M  V30 7499 H 697.553 -4.95045 -0.352658 0
M  V30 7500 H 692.809 -6.09547 0.475693 0
M  V30 7501 H 696.983 -6.88064 1.0743 0
M  V30 7502 H 694.61 -7.45365 1.49451 0
M  V30 7503 N 696.185 0.383891 -1.52853 0
M  V30 7504 C 697.41 1.154 -1.7233 0
M  V30 7505 C 697.835 1.82809 -0.44298 0
M  V30 7506 O 697.193 1.71026 0.601645 0
M  V30 7507 C 697.241 2.17386 -2.87708 0
M  V30 7508 O 696.345 3.24082 -2.55038 0
M  V30 7509 H 695.686 0.335709 -0.572883 0
M  V30 7510 H 698.216 0.44662 -1.99666 0
M  V30 7511 H 698.226 2.61296 -3.1335 0
M  V30 7512 H 696.901 1.6771 -3.80587 0
M  V30 7513 H 695.478 2.85273 -2.40153 0
M  V30 7514 N 697.663 1.43903 0.642637 0
M  V30 7515 C 698.888 1.49758 1.43483 0
M  V30 7516 C 699.313 0.119911 1.87717 0
M  V30 7517 O 698.671 -0.888558 1.58033 0
M  V30 7518 C 698.719 2.45744 2.63898 0
M  V30 7519 O 697.823 1.95101 3.63331 0
M  V30 7520 H 697.164 0.506138 0.429791 0
M  V30 7521 H 699.694 1.88923 0.785438 0
M  V30 7522 H 699.704 2.63399 3.11584 0
M  V30 7523 H 698.379 3.45818 2.31046 0
M  V30 7524 H 696.956 1.87158 3.22531 0
M  V30 7525 N 699.141 -0.881989 1.30609 0
M  V30 7526 C 700.071 -2.00413 1.1982 0
M  V30 7527 C 701.052 -1.69871 0.0881538 0
M  V30 7528 O 702.237 -1.92304 0.2707 0
M  V30 7529 C 699.367 -3.35641 0.89233 0
M  V30 7530 C 698.321 -3.80451 1.96064 0
M  V30 7531 C 697.647 -5.13003 1.5077 0
M  V30 7532 C 698.947 -3.98855 3.37213 0
M  V30 7533 H 700.641 -2.09698 2.13699 0
M  V30 7534 H 698.187 -1.00754 1.02882 0
M  V30 7535 H 700.14 -4.13669 0.803497 0
M  V30 7536 H 698.864 -3.26497 -0.0821381 0
M  V30 7537 H 697.523 -3.04654 2.03916 0
M  V30 7538 H 697.171 -5.0029 0.521417 0
M  V30 7539 H 696.871 -5.43956 2.22229 0
M  V30 7540 H 698.395 -5.93554 1.43271 0
M  V30 7541 H 699.809 -4.67312 3.32103 0
M  V30 7542 H 698.206 -4.41188 4.06784 0
M  V30 7543 H 699.276 -3.02614 3.78883 0
M  V30 7544 N 700.619 -1.13374 -1.09472 0
M  V30 7545 C 701.847 -0.918351 -1.85402 0
M  V30 7546 C 702.262 0.53281 -1.81126 0
M  V30 7547 O 701.619 1.36879 -1.20708 0
M  V30 7548 C 701.67 -1.39743 -3.33398 0
M  V30 7549 O 701.391 -2.79172 -3.37631 0
M  V30 7550 C 702.892 -1.22042 -4.2617 0
M  V30 7551 H 700.112 -0.327511 -0.585643 0
M  V30 7552 H 702.656 -1.50617 -1.38328 0
M  V30 7553 H 700.811 -0.852619 -3.77901 0
M  V30 7554 H 701.225 -3.00428 -4.29934 0
M  V30 7555 H 702.699 -1.60438 -5.2817 0
M  V30 7556 H 703.176 -0.162047 -4.38901 0
M  V30 7557 H 703.782 -1.75323 -3.87482 0
M  V30 7558 N 702.098 1.27442 -0.927168 0
M  V30 7559 C 703.323 1.99036 -0.583042 0
M  V30 7560 C 703.748 1.68711 0.83176 0
M  V30 7561 O 703.106 0.927081 1.55804 0
M  V30 7562 C 703.154 3.51271 -0.814925 0
M  V30 7563 O 702.258 4.12226 0.119742 0
M  V30 7564 H 701.599 0.624883 -0.224538 0
M  V30 7565 H 704.129 1.62263 -1.24628 0
M  V30 7566 H 704.139 4.01411 -0.730282 0
M  V30 7567 H 702.814 3.72676 -1.84623 0
M  V30 7568 H 701.391 3.72897 -0.0147688 0
M  V30 7569 N 703.576 0.692616 1.41565 0
M  V30 7570 C 704.822 0.222664 2.01574 0
M  V30 7571 C 705.155 -1.1737 1.54719 0
M  V30 7572 O 704.43 -1.79161 0.757084 0
M  V30 7573 C 704.713 0.277064 3.59033 0
M  V30 7574 C 704.566 1.71016 4.16021 0
M  V30 7575 C 705.885 -0.36479 4.38586 0
M  V30 7576 H 703.004 0.0823839 0.732381 0
M  V30 7577 H 705.646 0.880778 1.68352 0
M  V30 7578 H 703.796 -0.283288 3.87466 0
M  V30 7579 H 705.468 2.32413 3.98475 0
M  V30 7580 H 703.711 2.24525 3.71175 0
M  V30 7581 H 704.382 1.69978 5.25178 0
M  V30 7582 H 706.858 0.112404 4.15948 0
M  V30 7583 H 705.734 -0.296169 5.481 0
M  V30 7584 H 705.995 -1.44506 4.17816 0
M  V30 7585 N 705.054 -1.51416 0.437162 0
M  V30 7586 C 706.302 -2.01687 -0.129108 0
M  V30 7587 C 706.623 -1.32329 -1.43227 0
M  V30 7588 O 705.893 -0.457796 -1.90476 0
M  V30 7589 H 704.473 -0.745277 -0.0507023 0
M  V30 7590 H 707.135 -1.86075 0.579828 0
M  V30 7591 H 706.231 -3.10605 -0.305141 0
M  V30 7592 N 706.532 -0.168513 -1.56696 0
M  V30 7593 C 707.779 0.477158 -1.96798 0
M  V30 7594 C 708.107 1.63442 -1.05437 0
M  V30 7595 O 707.362 1.95503 -0.0878903 0
M  V30 7596 C 707.661 1.00441 -3.42996 0
M  V30 7597 C 707.327 -0.0366556 -4.50885 0
M  V30 7598 C 705.989 -0.322785 -4.80116 0
M  V30 7599 C 708.341 -0.743447 -5.1587 0
M  V30 7600 C 705.669 -1.32114 -5.71632 0
M  V30 7601 C 708.021 -1.73077 -6.08463 0
M  V30 7602 C 706.685 -2.02437 -6.36062 0
M  V30 7603 H 705.955 0.174604 -0.720135 0
M  V30 7604 H 708.602 -0.259884 -1.89728 0
M  V30 7605 H 706.907 1.81922 -3.47004 0
M  V30 7606 H 708.604 1.51294 -3.71364 0
M  V30 7607 H 705.194 0.196532 -4.28149 0
M  V30 7608 H 709.378 -0.535602 -4.93401 0
M  V30 7609 H 704.634 -1.55482 -5.913 0
M  V30 7610 H 708.808 -2.28382 -6.57886 0
M  V30 7611 H 706.435 -2.79946 -7.06777 0
M  V30 7612 N 708.01 1.57248 0.105221 0
M  V30 7613 C 709.258 1.85204 0.808951 0
M  V30 7614 C 709.579 0.75574 1.7976 0
M  V30 7615 O 708.849 -0.218984 1.94672 0
M  V30 7616 H 707.429 0.683346 0.301739 0
M  V30 7617 H 710.091 1.94695 0.0892605 0
M  V30 7618 H 709.187 2.81595 1.34575 0
M  V30 7619 N 709.488 -0.375779 1.53054 0
M  V30 7620 C 710.436 -1.48015 1.79428 0
M  V30 7621 C 711.43 -1.55893 0.662854 0
M  V30 7622 O 712.636 -1.58901 0.845599 0
M  V30 7623 H 709.011 -0.492887 0.56795 0
M  V30 7624 H 710.982 -1.22971 2.71884 0
M  V30 7625 C 709.731 -2.84984 1.99197 0
M  V30 7626 H 709.054 -2.79677 2.85693 0
M  V30 7627 H 710.494 -3.61462 2.21633 0
M  V30 7628 C 708.953 -3.28025 0.768183 0
M  V30 7629 O 709.483 -4.01671 -0.0480482 0
M  V30 7630 N 707.689 -2.84454 0.594521 0
M  V30 7631 H 707.236 -2.24688 1.25988 0
M  V30 7632 H 707.194 -3.13609 -0.222916 0
M  V30 7633 N 710.966 -1.44241 -0.634997 0
M  V30 7634 C 712.212 -1.47038 -1.39669 0
M  V30 7635 C 712.545 -0.101122 -1.93937 0
M  V30 7636 O 711.82 0.880699 -1.73418 0
M  V30 7637 C 712.103 -2.52763 -2.56482 0
M  V30 7638 C 711.956 -3.99032 -2.07589 0
M  V30 7639 C 713.275 -2.55031 -3.58674 0
M  V30 7640 H 710.394 -0.53537 -0.506506 0
M  V30 7641 H 713.036 -1.75898 -0.718317 0
M  V30 7642 H 711.186 -2.28284 -3.14354 0
M  V30 7643 H 712.858 -4.3463 -1.54577 0
M  V30 7644 H 711.101 -4.10994 -1.38804 0
M  V30 7645 H 711.772 -4.68649 -2.91671 0
M  V30 7646 H 714.248 -2.76893 -3.10595 0
M  V30 7647 H 713.124 -3.30916 -4.37934 0
M  V30 7648 H 713.385 -1.59085 -4.12486 0
M  V30 7649 N 712.444 0.87505 -1.31075 0
M  V30 7650 C 713.669 1.66583 -1.23551 0
M  V30 7651 C 714.094 1.87067 0.19686 0
M  V30 7652 O 713.452 1.40877 1.1412 0
M  V30 7653 C 713.5 3.01401 -1.97965 0
M  V30 7654 O 712.604 3.90923 -1.31351 0
M  V30 7655 H 711.945 0.508645 -0.426821 0
M  V30 7656 H 714.475 1.09139 -1.7306 0
M  V30 7657 H 714.485 3.51374 -2.07366 0
M  V30 7658 H 713.16 2.85812 -3.02133 0
M  V30 7659 H 711.737 3.49369 -1.30368 0
M  V30 7660 N 713.922 1.13953 1.08869 0
M  V30 7661 C 715.333 0.916649 1.62648 0
M  V30 7662 C 715.684 -0.545589 1.88462 0
M  V30 7663 O 714.809 -1.41351 1.63856 0
M  V30 7664 C 715.404 1.65751 2.95486 0
M  V30 7665 C 713.963 1.48034 3.46068 0
M  V30 7666 C 713.11 1.68305 2.20383 0
M  V30 7667 H 716.061 1.292 0.921572 0
M  V30 7668 H 716.082 1.11794 3.63707 0
M  V30 7669 H 715.594 2.72171 2.76667 0
M  V30 7670 H 713.695 0.439416 3.7 0
M  V30 7671 H 713.808 2.24719 4.23129 0
M  V30 7672 H 712.172 1.10833 2.29321 0
M  V30 7673 H 712.955 2.76057 2.04077 0
M  V30 7674 N 715.4 -1.26948 0.933913 0
M  V30 7675 C 716.348 -2.2862 0.428463 0
M  V30 7676 C 717.342 -1.62144 -0.490464 0
M  V30 7677 O 718.548 -1.76167 -0.36948 0
M  V30 7678 H 714.923 -0.742363 0.120003 0
M  V30 7679 H 716.894 -2.68659 1.29865 0
M  V30 7680 C 715.643 -3.46423 -0.29774 0
M  V30 7681 H 714.966 -3.97792 0.400183 0
M  V30 7682 H 716.406 -4.19505 -0.615736 0
M  V30 7683 C 714.865 -3.01017 -1.51295 0
M  V30 7684 O 715.395 -3.05226 -2.61151 0
M  V30 7685 N 713.601 -2.56442 -1.36696 0
M  V30 7686 H 713.148 -2.53217 -0.473178 0
M  V30 7687 H 713.106 -2.26424 -2.18127 0
M  V30 7688 N 716.879 -0.700114 -1.41195 0
M  V30 7689 C 718.107 -0.242179 -2.05478 0
M  V30 7690 C 718.522 1.11029 -1.52702 0
M  V30 7691 O 717.879 1.69473 -0.677127 0
M  V30 7692 C 717.93 -0.196271 -3.60967 0
M  V30 7693 O 717.651 -1.49532 -4.11791 0
M  V30 7694 C 719.152 0.282102 -4.42401 0
M  V30 7695 H 716.372 -0.111749 -0.661629 0
M  V30 7696 H 718.916 -0.953975 -1.80885 0
M  V30 7697 H 717.071 0.46638 -3.84582 0
M  V30 7698 H 717.485 -1.38545 -5.05871 0
M  V30 7699 H 718.959 0.263093 -5.51373 0
M  V30 7700 H 719.436 1.32174 -4.1884 0
M  V30 7701 H 720.042 -0.349712 -4.2386 0
M  V30 7702 N 718.357 1.51182 -0.445186 0
M  V30 7703 C 719.305 2.29531 0.376597 0
M  V30 7704 C 720.299 1.35711 1.01385 0
M  V30 7705 O 721.505 1.53018 0.947922 0
M  V30 7706 H 717.88 0.738803 0.140267 0
M  V30 7707 H 719.851 2.96838 -0.304958 0
M  V30 7708 C 718.6 3.1552 1.4609 0
M  V30 7709 H 717.923 3.87605 0.979912 0
M  V30 7710 H 719.363 3.73384 2.009 0
M  V30 7711 C 717.822 2.31406 2.44852 0
M  V30 7712 O 718.352 1.97912 3.49562 0
M  V30 7713 N 716.558 1.94478 2.15932 0
M  V30 7714 H 716.105 2.21917 1.30808 0
M  V30 7715 H 716.063 1.38498 2.82251 0
M  V30 7716 N 719.835 0.176821 1.56605 0
M  V30 7717 C 721.06 -0.47599 2.01864 0
M  V30 7718 C 721.485 -1.55645 1.05623 0
M  V30 7719 O 720.843 -1.81263 0.0366729 0
M  V30 7720 C 720.891 -1.02619 3.4569 0
M  V30 7721 O 719.995 -2.13996 3.52533 0
M  V30 7722 H 719.336 -0.113363 0.654251 0
M  V30 7723 H 721.866 0.28233 2.02643 0
M  V30 7724 H 721.876 -1.34742 3.85109 0
M  V30 7725 H 720.551 -0.235138 4.15235 0
M  V30 7726 H 719.128 -1.82876 3.24978 0
M  V30 7727 N 721.313 -1.57302 -0.09688 0
M  V30 7728 C 722.223 -2.05258 -1.13606 0
M  V30 7729 C 723.239 -0.977137 -1.43972 0
M  V30 7730 O 724.415 -1.29018 -1.54649 0
M  V30 7731 C 721.48 -2.46593 -2.43706 0
M  V30 7732 C 720.541 -3.68322 -2.20538 0
M  V30 7733 C 719.774 -4.07676 -3.44435 0
M  V30 7734 O 719.997 -3.47141 -4.52603 0
M  V30 7735 O 718.931 -5.00641 -3.34129 0
M  V30 7736 H 722.757 -2.94069 -0.758752 0
M  V30 7737 H 720.342 -1.46164 -0.309263 0
M  V30 7738 H 722.224 -2.73814 -3.20318 0
M  V30 7739 H 720.899 -1.6092 -2.80867 0
M  V30 7740 H 719.806 -3.4622 -1.41713 0
M  V30 7741 H 721.139 -4.54769 -1.88271 0
M  V30 7742 N 722.791 0.367657 -1.53252 0
M  V30 7743 C 723.738 1.45028 -1.79543 0
M  V30 7744 C 724.708 1.53288 -0.63969 0
M  V30 7745 O 725.893 1.69209 -0.881653 0
M  V30 7746 C 723.033 2.82 -1.98923 0
M  V30 7747 C 722.146 2.82722 -3.26638 0
M  V30 7748 C 721.281 4.11257 -3.36216 0
M  V30 7749 C 720.32 4.06113 -4.57972 0
M  V30 7750 N 719.457 5.26293 -4.64715 0
M  V30 7751 H 724.297 1.21908 -2.71923 0
M  V30 7752 H 721.834 0.591011 -1.34705 0
M  V30 7753 H 723.792 3.61568 -2.08146 0
M  V30 7754 H 722.422 3.03523 -1.09881 0
M  V30 7755 H 721.474 1.95399 -3.26379 0
M  V30 7756 H 722.786 2.74794 -4.16281 0
M  V30 7757 H 721.94 4.99239 -3.44739 0
M  V30 7758 H 720.679 4.21935 -2.44586 0
M  V30 7759 H 719.684 3.16517 -4.49552 0
M  V30 7760 H 720.909 3.97039 -5.50942 0
M  V30 7761 H 718.855 5.37561 -3.75985 0
M  V30 7762 H 718.772 5.20526 -5.4826 0
M  V30 7763 H 720.04 6.16113 -4.77519 0
M  V30 7764 N 724.269 1.44576 0.627338 0
M  V30 7765 C 725.515 1.47777 1.38888 0
M  V30 7766 C 725.848 0.111406 1.9388 0
M  V30 7767 O 725.123 -0.87149 1.73883 0
M  V30 7768 C 725.406 2.54119 2.55138 0
M  V30 7769 C 725.259 4.00128 2.0547 0
M  V30 7770 C 726.578 2.56929 3.57317 0
M  V30 7771 H 723.697 0.538048 0.50366 0
M  V30 7772 H 726.339 1.76277 0.708978 0
M  V30 7773 H 724.489 2.29948 3.13139 0
M  V30 7774 H 726.161 4.35444 1.5227 0
M  V30 7775 H 724.404 4.11724 1.36623 0
M  V30 7776 H 725.075 4.7019 2.89181 0
M  V30 7777 H 727.551 2.78536 3.09122 0
M  V30 7778 H 726.427 3.33234 4.36173 0
M  V30 7779 H 726.688 1.6127 4.11636 0
M  V30 7780 N 725.747 -0.868086 1.31537 0
M  V30 7781 C 726.994 -1.62127 1.2133 0
M  V30 7782 C 727.322 -1.93158 -0.2281 0
M  V30 7783 O 726.577 -1.5632 -1.1774 0
M  V30 7784 C 726.876 -2.95889 2.0046 0
M  V30 7785 C 726.542 -2.84343 3.49943 0
M  V30 7786 C 725.204 -2.80901 3.90702 0
M  V30 7787 C 727.556 -2.71243 4.45058 0
M  V30 7788 C 724.884 -2.6222 5.24841 0
M  V30 7789 C 727.236 -2.54098 5.79325 0
M  V30 7790 C 725.9 -2.4904 6.19302 0
M  V30 7791 H 725.17 -0.593265 0.443979 0
M  V30 7792 H 727.817 -1.00803 1.62822 0
M  V30 7793 H 726.122 -3.61259 1.51655 0
M  V30 7794 H 727.819 -3.53161 1.89942 0
M  V30 7795 H 724.409 -2.8784 3.17563 0
M  V30 7796 H 728.593 -2.72956 4.14498 0
M  V30 7797 H 723.849 -2.56731 5.54887 0
M  V30 7798 H 728.023 -2.42938 6.52652 0
M  V30 7799 H 725.65 -2.34324 7.23185 0
M  V30 7800 N 727.225 -1.14528 -1.08264 0
M  V30 7801 C 728.45 -0.938381 -1.84957 0
M  V30 7802 C 728.875 0.508044 -1.81109 0
M  V30 7803 O 728.233 1.36146 -1.19724 0
M  V30 7804 C 728.281 -1.44568 -3.30352 0
M  V30 7805 O 727.385 -0.638745 -4.07423 0
M  V30 7806 H 726.726 -0.335394 -0.573068 0
M  V30 7807 H 729.256 -1.52287 -1.36637 0
M  V30 7808 H 729.266 -1.45449 -3.81194 0
M  V30 7809 H 727.941 -2.49876 -3.32468 0
M  V30 7810 H 726.518 -0.698801 -3.66294 0
M  V30 7811 N 728.703 1.26451 -0.940633 0
M  V30 7812 C 729.952 1.93071 -0.583656 0
M  V30 7813 C 730.265 1.74618 0.881366 0
M  V30 7814 O 731.471 2.35689 1.34769 0
M  V30 7815 C 729.927 3.45927 -0.993106 0
M  V30 7816 C 729.535 3.73115 -2.4797 0
M  V30 7817 C 731.279 4.18554 -0.707998 0
M  V30 7818 C 729.186 5.19408 -2.82788 0
M  V30 7819 H 728.116 0.722824 -0.214572 0
M  V30 7820 H 730.767 1.43538 -1.1432 0
M  V30 7821 H 729.149 3.94341 -0.362099 0
M  V30 7822 H 730.323 3.35408 -3.15971 0
M  V30 7823 H 728.638 3.13719 -2.73805 0
M  V30 7824 H 731.235 5.26293 -0.94447 0
M  V30 7825 H 731.578 4.14782 0.355225 0
M  V30 7826 H 732.111 3.76003 -1.2987 0
M  V30 7827 H 728.85 5.28281 -3.88071 0
M  V30 7828 H 728.37 5.58214 -2.19449 0
M  V30 7829 H 730.049 5.87407 -2.71224 0
M  V30 7830 N 730.181 0.707592 1.40822 0
M  V30 7831 C 731.421 0.247986 2.0289 0
M  V30 7832 C 731.785 -1.13484 1.54872 0
M  V30 7833 O 732.986 -1.69098 2.08948 0
M  V30 7834 C 731.257 0.316326 3.55997 0
M  V30 7835 S 732.816 -0.0674698 4.38748 0
M  V30 7836 H 729.634 0.09895 0.704081 0
M  V30 7837 H 732.236 0.928039 1.72069 0
M  V30 7838 H 730.94 1.32453 3.88438 0
M  V30 7839 H 730.471 -0.382474 3.91536 0
M  V30 7840 H 732.486 -1.29182 4.79089 0
M  V30 7841 N 731.66 -1.50943 0.453197 0
M  V30 7842 C 732.906 -2.02512 -0.108082 0
M  V30 7843 C 733.239 -1.33574 -1.40967 0
M  V30 7844 O 732.514 -0.455671 -1.89087 0
M  V30 7845 C 732.797 -3.58759 -0.310453 0
M  V30 7846 C 732.65 -4.38293 1.0109 0
M  V30 7847 C 733.969 -4.26816 -1.07313 0
M  V30 7848 H 731.088 -0.73603 -0.0378064 0
M  V30 7849 H 733.73 -1.80433 0.595295 0
M  V30 7850 H 731.88 -3.77702 -0.909582 0
M  V30 7851 H 733.552 -4.30964 1.64523 0
M  V30 7852 H 731.795 -4.02745 1.61179 0
M  V30 7853 H 732.466 -5.45828 0.82315 0
M  V30 7854 H 734.942 -4.1224 -0.565473 0
M  V30 7855 H 733.818 -5.35989 -1.1835 0
M  V30 7856 H 734.079 -3.88757 -2.10525 0
M  V30 7857 N 733.138 -0.185124 -1.56509 0
M  V30 7858 C 734.071 0.77877 -2.145 0
M  V30 7859 C 735.049 1.21649 -1.07891 0
M  V30 7860 O 736.233 1.30579 -1.35946 0
M  V30 7861 C 733.36 2.05048 -2.69579 0
M  V30 7862 C 732.406 1.75569 -3.88687 0
M  V30 7863 S 733.239 0.912642 -5.27666 0
M  V30 7864 C 734.395 2.19471 -5.8616 0
M  V30 7865 H 734.628 0.285751 -2.95924 0
M  V30 7866 H 732.161 0.0297417 -1.54371 0
M  V30 7867 H 734.119 2.78085 -3.01958 0
M  V30 7868 H 732.78 2.51462 -1.88216 0
M  V30 7869 H 731.973 2.69962 -4.25601 0
M  V30 7870 H 731.575 1.10619 -3.57267 0
M  V30 7871 H 733.867 3.14815 -5.99915 0
M  V30 7872 H 734.81 1.87005 -6.8296 0
M  V30 7873 H 735.218 2.31862 -5.14685 0
M  V30 7874 N 734.616 1.57351 0.0885366 0
M  V30 7875 C 735.546 2.05561 1.10757 0
M  V30 7876 C 736.527 0.945789 1.41382 0
M  V30 7877 O 737.712 1.21747 1.51299 0
M  V30 7878 C 734.842 2.48554 2.42566 0
M  V30 7879 C 733.796 3.63259 2.26334 0
M  V30 7880 C 733.122 3.9225 3.63378 0
M  V30 7881 C 734.422 4.93913 1.69844 0
M  V30 7882 H 736.116 2.90946 0.706468 0
M  V30 7883 H 733.662 1.39968 0.338385 0
M  V30 7884 H 735.615 2.8089 3.14132 0
M  V30 7885 H 734.339 1.60176 2.84625 0
M  V30 7886 H 732.998 3.31179 1.57213 0
M  V30 7887 H 732.646 3.0103 4.02976 0
M  V30 7888 H 732.346 4.69478 3.53362 0
M  V30 7889 H 733.87 4.27067 4.36401 0
M  V30 7890 H 735.284 5.24588 2.31258 0
M  V30 7891 H 733.681 5.75349 1.70569 0
M  V30 7892 H 734.751 4.80409 0.65843 0
M  V30 7893 N 736.094 -0.359525 1.53444 0
M  V30 7894 C 737.343 -1.09886 1.69139 0
M  V30 7895 C 737.656 -1.90285 0.452863 0
M  V30 7896 O 738.862 -2.67033 0.490459 0
M  V30 7897 C 737.318 -2.0028 2.99025 0
M  V30 7898 C 736.926 -1.25164 4.30161 0
M  V30 7899 C 738.67 -2.74168 3.24086 0
M  V30 7900 C 736.577 -2.14494 5.51132 0
M  V30 7901 H 735.507 -0.413936 0.630217 0
M  V30 7902 H 738.158 -0.359434 1.79945 0
M  V30 7903 H 736.54 -2.77978 2.82036 0
M  V30 7904 H 737.714 -0.524867 4.57801 0
M  V30 7905 H 736.029 -0.631116 4.11589 0
M  V30 7906 H 738.626 -3.41243 4.11652 0
M  V30 7907 H 738.969 -3.39868 2.40407 0
M  V30 7908 H 739.502 -2.0355 3.41778 0
M  V30 7909 H 736.241 -1.53362 6.37307 0
M  V30 7910 H 735.761 -2.85004 5.27762 0
M  V30 7911 H 737.44 -2.73914 5.86157 0
M  V30 7912 N 737.572 -1.44907 -0.619662 0
M  V30 7913 C 738.82 -1.47999 -1.37625 0
M  V30 7914 C 739.141 -0.118295 -1.94641 0
M  V30 7915 O 738.411 0.85086 -1.76457 0
M  V30 7916 H 736.991 -0.544993 -0.510873 0
M  V30 7917 H 739.653 -1.80772 -0.728522 0
M  V30 7918 H 738.749 -2.21196 -2.20179 0
M  V30 7919 N 739.05 0.861098 -1.31996 0
M  V30 7920 C 740.275 1.65264 -1.2531 0
M  V30 7921 C 740.7 1.87265 0.177007 0
M  V30 7922 O 740.058 1.4208 1.12619 0
M  V30 7923 C 740.106 2.99284 -2.0115 0
M  V30 7924 O 739.21 3.89508 -1.3549 0
M  V30 7925 H 738.551 0.50409 -0.432192 0
M  V30 7926 H 741.081 1.07297 -1.74208 0
M  V30 7927 H 741.091 3.49154 -2.11081 0
M  V30 7928 H 739.766 2.82591 -3.05148 0
M  V30 7929 H 738.343 3.47966 -1.34066 0
M  V30 7930 N 740.528 1.15101 1.07655 0
M  V30 7931 C 741.458 0.867864 2.16773 0
M  V30 7932 C 742.439 -0.180283 1.69142 0
M  V30 7933 O 743.624 -0.0353152 1.94168 0
M  V30 7934 C 740.754 0.35299 3.45501 0
M  V30 7935 C 739.708 1.33746 4.06566 0
M  V30 7936 C 739.034 0.681562 5.30338 0
M  V30 7937 C 740.334 2.7024 4.46954 0
M  V30 7938 H 742.028 1.78034 2.40716 0
M  V30 7939 H 739.574 0.857435 1.15689 0
M  V30 7940 H 741.527 0.142465 4.21159 0
M  V30 7941 H 740.251 -0.594945 3.21135 0
M  V30 7942 H 738.91 1.53429 3.32949 0
M  V30 7943 H 738.558 -0.272422 5.02262 0
M  V30 7944 H 738.258 1.33853 5.72151 0
M  V30 7945 H 739.782 0.48074 6.08705 0
M  V30 7946 H 741.196 2.5442 5.13754 0
M  V30 7947 H 739.593 3.32282 4.99709 0
M  V30 7948 H 740.663 3.26537 3.58471 0
M  V30 7949 N 742.006 -1.2595 0.947325 0
M  V30 7950 C 742.939 -2.24559 0.406009 0
M  V30 7951 C 743.917 -1.54441 -0.508598 0
M  V30 7952 O 745.101 -1.83181 -0.444644 0
M  V30 7953 C 742.228 -3.36136 -0.415987 0
M  V30 7954 C 741.274 -4.24245 0.437969 0
M  V30 7955 S 742.107 -5.01948 1.86572 0
M  V30 7956 C 743.263 -6.16997 1.05194 0
M  V30 7957 H 743.496 -2.70128 1.24171 0
M  V30 7958 H 741.029 -1.34912 0.750874 0
M  V30 7959 H 742.987 -4.00861 -0.88433 0
M  V30 7960 H 741.648 -2.89167 -1.22643 0
M  V30 7961 H 740.841 -5.03634 -0.192127 0
M  V30 7962 H 740.443 -3.64416 0.841235 0
M  V30 7963 H 742.735 -6.76848 0.297126 0
M  V30 7964 H 743.678 -6.84324 1.8195 0
M  V30 7965 H 744.086 -5.61458 0.585294 0
M  V30 7966 N 743.484 -0.715051 -1.40445 0
M  V30 7967 C 744.714 -0.263576 -2.04912 0
M  V30 7968 C 745.122 1.09943 -1.53978 0
M  V30 7969 O 744.465 1.70203 -0.691133 0
M  V30 7970 C 744.527 -0.165048 -3.59121 0
M  V30 7971 C 744.191 -1.46325 -4.32941 0
M  V30 7972 C 745.188 -2.40506 -4.60926 0
M  V30 7973 C 742.873 -1.72203 -4.7186 0
M  V30 7974 C 744.867 -3.58812 -5.26814 0
M  V30 7975 C 742.554 -2.9079 -5.3748 0
M  V30 7976 C 743.552 -3.83917 -5.64887 0
M  V30 7977 O 743.24 -5.00424 -6.29151 0
M  V30 7978 H 742.972 -0.116317 -0.665918 0
M  V30 7979 H 745.526 -0.973774 -1.8085 0
M  V30 7980 H 743.756 0.601088 -3.82 0
M  V30 7981 H 745.445 0.251794 -4.05118 0
M  V30 7982 H 746.211 -2.21778 -4.31323 0
M  V30 7983 H 742.09 -1.00571 -4.49896 0
M  V30 7984 H 745.634 -4.31517 -5.48123 0
M  V30 7985 H 741.531 -3.09428 -5.66502 0
M  V30 7986 H 742.299 -5.00494 -6.47648 0
M  V30 7987 N 744.962 1.50701 -0.461195 0
M  V30 7988 C 745.925 2.2686 0.326679 0
M  V30 7989 C 746.925 1.31243 0.929085 0
M  V30 7990 O 748.115 1.54754 0.799807 0
M  V30 7991 C 745.247 3.07844 1.46441 0
M  V30 7992 H 746.44 2.97954 -0.341095 0
M  V30 7993 H 743.993 1.54814 -0.214984 0
M  V30 7994 H 744.728 2.41223 2.16753 0
M  V30 7995 H 744.513 3.78101 1.03836 0
M  V30 7996 H 746.003 3.65469 2.02044 0
M  V30 7997 N 746.441 0.193421 1.56409 0
M  V30 7998 C 747.666 -0.454552 2.02358 0
M  V30 7999 C 748.091 -1.54516 1.07268 0
M  V30 8000 O 747.449 -1.81214 0.0558962 0
M  V30 8001 C 747.497 -0.989469 3.46759 0
M  V30 8002 O 746.601 -2.10244 3.54783 0
M  V30 8003 H 745.942 -0.106417 0.655417 0
M  V30 8004 H 748.472 0.303807 2.02332 0
M  V30 8005 H 748.482 -1.30649 3.86516 0
M  V30 8006 H 747.157 -0.191083 4.15461 0
M  V30 8007 H 745.734 -1.79419 3.26899 0
M  V30 8008 N 747.919 -1.57396 -0.0801906 0
M  V30 8009 C 749.168 -1.8602 -0.779702 0
M  V30 8010 C 749.481 -0.784864 -1.79163 0
M  V30 8011 O 750.687 -0.958691 -2.54011 0
M  V30 8012 C 749.143 -3.29942 -1.43758 0
M  V30 8013 C 748.751 -4.45584 -0.464654 0
M  V30 8014 C 750.495 -3.67775 -2.11995 0
M  V30 8015 C 748.402 -5.80544 -1.12797 0
M  V30 8016 H 747.332 -0.69392 -0.294943 0
M  V30 8017 H 749.983 -1.83471 -0.0328527 0
M  V30 8018 H 748.365 -3.27078 -2.2324 0
M  V30 8019 H 749.539 -4.59824 0.299749 0
M  V30 8020 H 747.854 -4.16247 0.112813 0
M  V30 8021 H 750.451 -4.65896 -2.62383 0
M  V30 8022 H 750.794 -2.9715 -2.91561 0
M  V30 8023 H 751.327 -3.72593 -1.39354 0
M  V30 8024 H 748.066 -6.54439 -0.372807 0
M  V30 8025 H 747.586 -5.70119 -1.86344 0
M  V30 8026 H 749.265 -6.25602 -1.6502 0
M  V30 8027 N 749.397 0.351382 -1.53633 0
M  V30 8028 C 750.644 1.0925 -1.70502 0
M  V30 8029 C 750.972 1.88881 -0.464123 0
M  V30 8030 O 750.227 1.87693 0.554077 0
M  V30 8031 C 750.526 2.06744 -2.91533 0
M  V30 8032 C 750.192 1.43484 -4.27461 0
M  V30 8033 C 748.854 1.2596 -4.64422 0
M  V30 8034 C 751.206 0.978436 -5.11934 0
M  V30 8035 C 748.534 0.614017 -5.83478 0
M  V30 8036 C 750.886 0.346795 -6.31649 0
M  V30 8037 C 749.55 0.15917 -6.6731 0
M  V30 8038 H 748.82 0.399773 -0.623909 0
M  V30 8039 H 751.467 0.372656 -1.87839 0
M  V30 8040 H 749.772 2.85082 -2.68767 0
M  V30 8041 H 751.469 2.64066 -3.01778 0
M  V30 8042 H 748.059 1.5812 -3.98367 0
M  V30 8043 H 752.243 1.1017 -4.83918 0
M  V30 8044 H 747.499 0.457194 -6.09688 0
M  V30 8045 H 751.673 -0.0149864 -6.96398 0
M  V30 8046 H 749.3 -0.343129 -7.59425 0
M  V30 8047 N 750.875 1.45233 0.611969 0
M  V30 8048 C 752.123 1.48727 1.36838 0
M  V30 8049 C 752.444 0.128616 1.94575 0
M  V30 8050 O 751.714 -0.84149 1.76906 0
M  V30 8051 H 750.294 0.547695 0.507976 0
M  V30 8052 H 752.956 1.81156 0.718925 0
M  V30 8053 H 752.052 2.2236 2.19003 0
M  V30 8054 N 752.353 -0.854086 1.3245 0
M  V30 8055 C 753.301 -1.98411 1.21391 0
M  V30 8056 C 754.295 -1.68984 0.118586 0
M  V30 8057 O 755.501 -1.77784 0.281549 0
M  V30 8058 H 751.876 -0.651077 0.376301 0
M  V30 8059 H 753.847 -2.04867 2.16961 0
M  V30 8060 C 752.596 -3.34345 0.954407 0
M  V30 8061 H 751.919 -3.57518 1.78944 0
M  V30 8062 H 753.359 -4.13959 0.917269 0
M  V30 8063 C 751.818 -3.35151 -0.342838 0
M  V30 8064 O 752.348 -3.78174 -1.35452 0
M  V30 8065 N 750.554 -2.88298 -0.365012 0
M  V30 8066 H 750.101 -2.53481 0.4588 0
M  V30 8067 H 750.059 -2.8922 -1.23284 0
M  V30 8068 N 753.831 -1.1567 -1.07043 0
M  V30 8069 C 755.077 -0.9349 -1.79965 0
M  V30 8070 C 755.41 0.536464 -1.86643 0
M  V30 8071 O 754.685 1.39781 -1.35247 0
M  V30 8072 C 754.968 -1.55371 -3.24857 0
M  V30 8073 C 754.821 -3.09589 -3.26305 0
M  V30 8074 C 756.14 -1.24209 -4.22209 0
M  V30 8075 H 753.259 -0.341061 -0.653335 0
M  V30 8076 H 755.901 -1.42883 -1.25237 0
M  V30 8077 H 754.051 -1.13368 -3.71591 0
M  V30 8078 H 755.723 -3.60521 -2.87789 0
M  V30 8079 H 753.966 -3.43315 -2.65174 0
M  V30 8080 H 754.637 -3.48002 -4.28484 0
M  V30 8081 H 757.113 -1.60548 -3.8388 0
M  V30 8082 H 755.989 -1.70119 -5.21872 0
M  V30 8083 H 756.25 -0.15964 -4.41812 0
M  V30 8084 N 755.309 1.25446 -0.953992 0
M  V30 8085 C 756.534 1.97755 -0.625129 0
M  V30 8086 C 756.959 1.70437 0.795787 0
M  V30 8087 O 756.317 0.95992 1.53803 0
M  V30 8088 C 756.365 3.49463 -0.889251 0
M  V30 8089 O 755.469 4.12387 0.0322757 0
M  V30 8090 H 754.81 0.61998 -0.237742 0
M  V30 8091 H 757.34 1.59582 -1.28041 0
M  V30 8092 H 757.35 3.99772 -0.815263 0
M  V30 8093 H 756.025 3.68676 -1.92487 0
M  V30 8094 H 754.602 3.72782 -0.0938625 0
M  V30 8095 N 756.787 0.722489 1.40064 0
M  V30 8096 C 757.75 0.0830209 2.2905 0
M  V30 8097 C 758.75 -0.680208 1.45705 0
M  V30 8098 O 759.94 -0.511084 1.66534 0
M  V30 8099 C 757.072 -0.892092 3.29021 0
M  V30 8100 H 758.265 0.866848 2.87099 0
M  V30 8101 H 755.818 0.487556 1.48501 0
M  V30 8102 H 756.553 -1.70273 2.76003 0
M  V30 8103 H 756.338 -0.34761 3.90556 0
M  V30 8104 H 757.828 -1.33648 3.95636 0
M  V30 8105 N 758.265 -1.50454 0.469181 0
M  V30 8106 C 759.514 -2.01507 -0.0881425 0
M  V30 8107 C 759.827 -1.35613 -1.40956 0
M  V30 8108 O 761.033 -1.77812 -2.05171 0
M  V30 8109 C 759.489 -3.59301 -0.207596 0
M  V30 8110 C 759.097 -4.34152 1.10527 0
M  V30 8111 C 760.841 -4.18401 -0.716981 0
M  V30 8112 C 758.748 -5.83725 0.949717 0
M  V30 8113 H 757.678 -0.753106 -0.0367156 0
M  V30 8114 H 760.329 -1.73282 0.603788 0
M  V30 8115 H 758.711 -3.84106 -0.963265 0
M  V30 8116 H 759.885 -4.21073 1.87175 0
M  V30 8117 H 758.2 -3.86652 1.54562 0
M  V30 8118 H 760.797 -5.27895 -0.850363 0
M  V30 8119 H 761.14 -3.79657 -1.70782 0
M  V30 8120 H 761.673 -3.97796 -0.0187511 0
M  V30 8121 H 758.412 -6.26938 1.91387 0
M  V30 8122 H 757.932 -5.99383 0.223591 0
M  V30 8123 H 759.611 -6.44065 0.61557 0
M  V30 8124 N 759.743 -0.201713 -1.56304 0
M  V30 8125 C 760.992 0.435557 -1.96941 0
M  V30 8126 C 761.305 1.62299 -1.09172 0
M  V30 8127 O 762.511 2.32849 -1.3962 0
M  V30 8128 C 760.967 0.826298 -3.50286 0
M  V30 8129 C 760.575 -0.337216 -4.46729 0
M  V30 8130 C 762.319 1.43028 -3.99679 0
M  V30 8131 C 760.226 0.0748539 -5.91353 0
M  V30 8132 H 759.156 0.1665 -0.735387 0
M  V30 8133 H 761.807 -0.294781 -1.81117 0
M  V30 8134 H 760.189 1.61349 -3.61639 0
M  V30 8135 H 761.363 -1.11476 -4.47113 0
M  V30 8136 H 759.678 -0.853126 -4.07567 0
M  V30 8137 H 762.275 1.75115 -5.05212 0
M  V30 8138 H 762.618 2.33911 -3.44371 0
M  V30 8139 H 763.151 0.706924 -3.91468 0
M  V30 8140 H 759.89 -0.799957 -6.506 0
M  V30 8141 H 759.41 0.817122 -5.94208 0
M  V30 8142 H 761.089 0.508389 -6.45 0
M  V30 8143 N 761.222 1.57436 0.0718424 0
M  V30 8144 C 762.154 2.00412 1.1121 0
M  V30 8145 C 763.167 0.910074 1.34987 0
M  V30 8146 O 764.356 1.18796 1.33228 0
M  V30 8147 C 761.456 2.32786 2.46301 0
M  V30 8148 C 760.629 3.64036 2.4248 0
M  V30 8149 C 759.688 3.8408 3.59679 0
M  V30 8150 O 758.714 4.55667 3.4111 0
M  V30 8151 N 759.916 3.2643 4.80025 0
M  V30 8152 H 762.681 2.90264 0.746118 0
M  V30 8153 H 760.242 1.59791 0.260495 0
M  V30 8154 H 762.234 2.43368 3.23348 0
M  V30 8155 H 760.804 1.48824 2.74901 0
M  V30 8156 H 760.024 3.64208 1.50818 0
M  V30 8157 H 761.312 4.50217 2.37027 0
M  V30 8158 H 760.71 2.68325 4.98014 0
M  V30 8159 H 759.267 3.42461 5.54584 0
M  V30 8160 N 762.7 -0.34323 1.53817 0
M  V30 8161 C 764.116 -0.686355 1.44088 0
M  V30 8162 C 764.316 -1.92426 0.597882 0
M  V30 8163 O 763.372 -2.52343 0.0889918 0
M  V30 8164 C 764.685 -0.878698 2.87575 0
M  V30 8165 C 766.233 -0.977296 2.97352 0
M  V30 8166 C 766.708 -1.20195 4.41947 0
M  V30 8167 N 768.199 -1.26915 4.45474 0
M  V30 8168 C 768.934 -1.46049 5.54488 0
M  V30 8169 N 768.43 -1.62354 6.73508 0
M  V30 8170 N 770.223 -1.48599 5.42102 0
M  V30 8171 H 762.374 0.470679 2.07119 0
M  V30 8172 H 764.637 0.148652 0.936273 0
M  V30 8173 H 764.343 -0.040602 3.51677 0
M  V30 8174 H 764.217 -1.78034 3.32541 0
M  V30 8175 H 766.604 -1.80591 2.3339 0
M  V30 8176 H 766.685 -0.0525498 2.55746 0
M  V30 8177 H 766.329 -0.378262 5.06489 0
M  V30 8178 H 766.259 -2.14027 4.81145 0
M  V30 8179 H 768.75 -1.15837 3.59708 0
M  V30 8180 H 769.063 -1.76591 7.52353 0
M  V30 8181 H 767.408 -1.5949 6.76453 0
M  V30 8182 H 770.599 -1.35443 4.48077 0
M  V30 8183 H 770.772 -1.6317 6.2712 0
M  V30 8184 N 764.178 -1.45556 -0.604258 0
M  V30 8185 C 765.108 -1.57327 -1.72541 0
M  V30 8186 C 766.089 -0.424637 -1.64714 0
M  V30 8187 O 767.274 -0.648196 -1.83063 0
M  V30 8188 C 764.404 -1.54279 -3.11152 0
M  V30 8189 C 763.358 -2.67893 -3.33792 0
M  V30 8190 C 762.684 -2.499 -4.72709 0
M  V30 8191 C 763.984 -4.0988 -3.23722 0
M  V30 8192 H 765.678 -2.51175 -1.62947 0
M  V30 8193 H 763.224 -1.20884 -0.782504 0
M  V30 8194 H 765.177 -1.6111 -3.89386 0
M  V30 8195 H 763.901 -0.569627 -3.21594 0
M  V30 8196 H 762.56 -2.60495 -2.57949 0
M  V30 8197 H 762.208 -1.50715 -4.79889 0
M  V30 8198 H 761.908 -3.26091 -4.88813 0
M  V30 8199 H 763.432 -2.5859 -5.5314 0
M  V30 8200 H 764.846 -4.18503 -3.91826 0
M  V30 8201 H 763.243 -4.86487 -3.51355 0
M  V30 8202 H 764.313 -4.31553 -2.21111 0
M  V30 8203 N 765.656 0.84705 -1.32902 0
M  V30 8204 C 766.886 1.63166 -1.26729 0
M  V30 8205 C 767.294 1.88474 0.165595 0
M  V30 8206 O 766.637 1.45947 1.11558 0
M  V30 8207 C 766.699 3.0103 -1.96522 0
M  V30 8208 C 766.363 2.9873 -3.45846 0
M  V30 8209 C 767.36 2.75032 -4.41196 0
M  V30 8210 C 765.045 3.19125 -3.87898 0
M  V30 8211 C 767.039 2.71743 -5.76571 0
M  V30 8212 C 764.726 3.15462 -5.2338 0
M  V30 8213 C 765.724 2.91801 -6.17528 0
M  V30 8214 O 765.412 2.88027 -7.5053 0
M  V30 8215 H 765.144 0.51469 -0.438258 0
M  V30 8216 H 767.698 1.06383 -1.75704 0
M  V30 8217 H 765.928 3.59634 -1.42128 0
M  V30 8218 H 767.617 3.61821 -1.83958 0
M  V30 8219 H 768.383 2.59034 -4.10032 0
M  V30 8220 H 764.262 3.36565 -3.15032 0
M  V30 8221 H 767.806 2.53194 -6.5003 0
M  V30 8222 H 763.703 3.31006 -5.54171 0
M  V30 8223 H 764.471 3.03927 -7.59981 0
M  V30 8224 N 767.134 1.16236 1.06428 0
M  V30 8225 C 768.359 0.967688 1.83441 0
M  V30 8226 C 768.784 -0.479167 1.81894 0
M  V30 8227 O 768.142 -1.34224 1.21875 0
M  V30 8228 C 768.19 1.49806 3.2801 0
M  V30 8229 O 767.294 0.703481 4.06356 0
M  V30 8230 H 766.635 0.344468 0.56766 0
M  V30 8231 H 769.165 1.54442 1.34197 0
M  V30 8232 H 769.175 1.51495 3.78831 0
M  V30 8233 H 767.85 2.55133 3.2845 0
M  V30 8234 H 766.427 0.756986 3.65136 0
M  V30 8235 N 768.612 -1.24939 0.960631 0
M  V30 8236 C 769.86 -1.92437 0.617441 0
M  V30 8237 C 770.181 -1.75543 -0.849101 0
M  V30 8238 O 769.451 -1.12269 -1.60538 0
M  V30 8239 H 768.031 -0.712192 0.225371 0
M  V30 8240 H 770.693 -1.5198 1.22017 0
M  V30 8241 H 769.789 -3.00247 0.851933 0
M  V30 8242 N 770.09 -0.729906 -1.39679 0
M  V30 8243 C 771.318 -0.285709 -2.04918 0
M  V30 8244 C 771.733 1.07765 -1.55023 0
M  V30 8245 O 771.09 1.67999 -0.712923 0
M  V30 8246 C 771.141 -0.272793 -3.60469 0
M  V30 8247 O 770.862 -1.58233 -4.08527 0
M  V30 8248 C 772.363 0.188199 -4.429 0
M  V30 8249 H 769.583 -0.125758 -0.65911 0
M  V30 8250 H 772.127 -0.992129 -1.78821 0
M  V30 8251 H 770.282 0.384699 -3.85485 0
M  V30 8252 H 770.696 -1.49245 -5.02818 0
M  V30 8253 H 772.17 0.14608 -5.51807 0
M  V30 8254 H 772.647 1.2326 -4.21549 0
M  V30 8255 H 773.253 -0.439541 -4.23023 0
M  V30 8256 N 771.568 1.50203 -0.477153 0
M  V30 8257 C 772.531 2.27194 0.302599 0
M  V30 8258 C 773.531 1.32221 0.915112 0
M  V30 8259 O 774.721 1.55593 0.783348 0
M  V30 8260 C 771.853 3.0938 1.43167 0
M  V30 8261 H 773.046 2.97575 -0.372678 0
M  V30 8262 H 770.599 1.54578 -0.231392 0
M  V30 8263 H 771.334 2.43509 2.14182 0
M  V30 8264 H 771.119 3.79181 0.998197 0
M  V30 8265 H 772.609 3.67592 1.98157 0
M  V30 8266 N 773.046 0.209999 1.56195 0
M  V30 8267 C 774.462 -0.145598 1.58934 0
M  V30 8268 C 774.662 -1.59868 1.22656 0
M  V30 8269 O 773.718 -2.33689 0.956336 0
M  V30 8270 C 775.031 0.170243 3.00218 0
M  V30 8271 C 776.579 0.111548 3.12801 0
M  V30 8272 C 777.054 0.400904 4.56242 0
M  V30 8273 N 778.545 0.350058 4.61875 0
M  V30 8274 C 779.28 0.547598 5.70779 0
M  V30 8275 N 778.776 0.806291 6.88092 0
M  V30 8276 N 780.569 0.480827 5.6004 0
M  V30 8277 H 772.72 1.15804 1.78054 0
M  V30 8278 H 774.983 0.463326 0.827063 0
M  V30 8279 H 774.689 1.17833 3.31373 0
M  V30 8280 H 774.563 -0.520208 3.73596 0
M  V30 8281 H 776.95 -0.887162 2.81449 0
M  V30 8282 H 777.031 0.835302 2.41777 0
M  V30 8283 H 776.675 1.397 4.8831 0
M  V30 8284 H 776.605 -0.34391 5.25476 0
M  V30 8285 H 779.096 0.157334 3.77572 0
M  V30 8286 H 779.409 0.945433 7.66995 0
M  V30 8287 H 777.754 0.843355 6.89864 0
M  V30 8288 H 780.945 0.279037 4.67268 0
M  V30 8289 H 781.118 0.638189 6.4485 0
M  V30 8290 N 774.524 -1.57472 -0.0634922 0
M  V30 8291 C 775.754 -1.91608 -0.772645 0
M  V30 8292 C 776.162 -0.805019 -1.71219 0
M  V30 8293 O 775.505 0.229941 -1.82255 0
M  V30 8294 C 775.567 -3.21281 -1.61304 0
M  V30 8295 C 775.231 -4.49177 -0.841973 0
M  V30 8296 C 776.228 -5.19661 -0.157494 0
M  V30 8297 C 773.913 -4.9578 -0.80669 0
M  V30 8298 C 775.907 -6.35006 0.551948 0
M  V30 8299 C 773.594 -6.11028 -0.0934812 0
M  V30 8300 C 774.592 -6.80493 0.58463 0
M  V30 8301 O 774.28 -7.93542 1.28633 0
M  V30 8302 H 774.012 -0.637685 -0.224352 0
M  V30 8303 H 776.566 -2.05369 -0.0355279 0
M  V30 8304 H 774.796 -3.03752 -2.39315 0
M  V30 8305 H 776.485 -3.41003 -2.20162 0
M  V30 8306 H 777.251 -4.84681 -0.176006 0
M  V30 8307 H 773.13 -4.41579 -1.32397 0
M  V30 8308 H 776.674 -6.89161 1.0818 0
M  V30 8309 H 772.571 -6.45459 -0.0729258 0
M  V30 8310 H 773.339 -8.09708 1.19646 0
M  V30 8311 N 776.003 0.335068 -1.53997 0
M  V30 8312 C 776.953 1.4127 -1.7896 0
M  V30 8313 C 777.937 1.474 -0.64513 0
M  V30 8314 O 779.129 1.52127 -0.904785 0
M  V30 8315 C 776.258 2.78292 -2.01018 0
M  V30 8316 C 775.344 2.7652 -3.21555 0
M  V30 8317 N 775.735 2.44374 -4.42849 0
M  V30 8318 C 774.033 3.0766 -3.22895 0
M  V30 8319 C 774.734 2.51049 -5.24737 0
M  V30 8320 N 773.71 2.8702 -4.6165 0
M  V30 8321 H 777.512 1.15327 -2.70327 0
M  V30 8322 H 775.026 0.543483 -1.53036 0
M  V30 8323 H 777.023 3.55949 -2.17039 0
M  V30 8324 H 775.683 3.05175 -1.10898 0
M  V30 8325 H 776.694 2.17422 -4.70051 0
M  V30 8326 H 773.371 3.3966 -2.42771 0
M  V30 8327 H 774.761 2.29283 -6.31569 0
M  V30 8328 N 777.481 1.45874 0.596531 0
M  V30 8329 C 778.709 1.54013 1.38158 0
M  V30 8330 C 779.124 0.17648 1.87973 0
M  V30 8331 O 778.481 -0.823895 1.62844 0
M  V30 8332 C 778.532 2.53363 2.57855 0
M  V30 8333 O 778.253 3.8443 2.10108 0
M  V30 8334 C 779.754 2.71308 3.50581 0
M  V30 8335 H 776.974 0.521251 0.422538 0
M  V30 8336 H 779.518 1.9116 0.726493 0
M  V30 8337 H 777.673 2.19257 3.19382 0
M  V30 8338 H 778.087 4.38384 2.87958 0
M  V30 8339 H 779.561 3.44776 4.31084 0
M  V30 8340 H 780.038 1.77728 4.01633 0
M  V30 8341 H 780.644 3.06455 2.94899 0
M  V30 8342 N 778.959 -0.83999 1.33349 0
M  V30 8343 C 779.891 -1.95678 1.19344 0
M  V30 8344 C 780.904 -1.62322 0.124692 0
M  V30 8345 O 782.093 -1.74516 0.375012 0
M  V30 8346 C 779.193 -3.29133 0.807771 0
M  V30 8347 C 778.366 -3.9063 1.96792 0
M  V30 8348 C 777.425 -5.02438 1.56341 0
M  V30 8349 O 776.451 -5.21646 2.27759 0
M  V30 8350 N 777.653 -5.78612 0.467767 0
M  V30 8351 H 780.418 -2.08229 2.15548 0
M  V30 8352 H 777.979 -1.01566 1.26079 0
M  V30 8353 H 779.971 -4.01355 0.519282 0
M  V30 8354 H 778.541 -3.12535 -0.063555 0
M  V30 8355 H 777.761 -3.11011 2.4221 0
M  V30 8356 H 779.049 -4.2845 2.74422 0
M  V30 8357 H 778.447 -5.65559 -0.126324 0
M  V30 8358 H 777.004 -6.51362 0.238945 0
M  V30 8359 N 780.437 -1.16799 -1.0581 0
M  V30 8360 C 781.37 -0.822491 -2.12862 0
M  V30 8361 C 782.348 0.208006 -1.61264 0
M  V30 8362 O 783.532 0.0909652 -1.8828 0
M  V30 8363 C 780.659 -0.225826 -3.37946 0
M  V30 8364 C 779.705 -1.23071 -4.08357 0
M  V30 8365 S 780.538 -2.77944 -4.5772 0
M  V30 8366 C 781.694 -2.19741 -5.86059 0
M  V30 8367 H 781.927 -1.72917 -2.41841 0
M  V30 8368 H 779.46 -0.991982 -1.18318 0
M  V30 8369 H 781.418 0.111955 -4.10347 0
M  V30 8370 H 780.079 0.658692 -3.07116 0
M  V30 8371 H 779.272 -0.761758 -4.9821 0
M  V30 8372 H 778.874 -1.51383 -3.41993 0
M  V30 8373 H 781.166 -1.5691 -6.59079 0
M  V30 8374 H 782.109 -3.07823 -6.37692 0
M  V30 8375 H 782.517 -1.63433 -5.40324 0
M  V30 8376 N 781.915 1.24427 -0.967243 0
M  V30 8377 C 782.845 2.2773 -0.515899 0
M  V30 8378 C 783.826 1.64197 0.444227 0
M  V30 8379 O 785.011 1.91193 0.340451 0
M  V30 8380 C 782.141 3.46751 0.195149 0
M  V30 8381 C 781.095 4.22548 -0.680953 0
M  V30 8382 C 780.421 5.34456 0.161561 0
M  V30 8383 C 781.721 4.83914 -1.96532 0
M  V30 8384 H 783.415 2.65735 -1.37933 0
M  V30 8385 H 780.961 1.27742 -0.664681 0
M  V30 8386 H 782.914 4.18153 0.522117 0
M  V30 8387 H 781.638 3.07771 1.09292 0
M  V30 8388 H 780.297 3.52946 -0.991186 0
M  V30 8389 H 779.945 4.91716 1.05947 0
M  V30 8390 H 779.645 5.86087 -0.421418 0
M  V30 8391 H 781.169 6.08685 0.483211 0
M  V30 8392 H 782.583 5.47392 -1.70396 0
M  V30 8393 H 780.98 5.45775 -2.49499 0
M  V30 8394 H 782.05 4.05393 -2.66053 0
M  V30 8395 N 783.393 0.737304 1.3929 0
M  V30 8396 C 784.809 0.413132 1.5416 0
M  V30 8397 C 785.009 -1.07574 1.70382 0
M  V30 8398 O 784.065 -1.86185 1.70562 0
M  V30 8399 C 785.378 1.19817 2.75798 0
M  V30 8400 C 786.926 1.18662 2.89635 0
M  V30 8401 C 787.401 1.95427 4.14213 0
M  V30 8402 N 788.892 1.92605 4.21257 0
M  V30 8403 C 789.627 2.48808 5.16606 0
M  V30 8404 N 789.123 3.13659 6.1773 0
M  V30 8405 N 790.916 2.38829 5.08839 0
M  V30 8406 H 783.067 1.70243 1.27008 0
M  V30 8407 H 785.33 0.720802 0.61575 0
M  V30 8408 H 785.036 2.25179 2.70161 0
M  V30 8409 H 784.91 0.804144 3.68529 0
M  V30 8410 H 787.297 0.141112 2.94762 0
M  V30 8411 H 787.378 1.62003 1.97961 0
M  V30 8412 H 787.022 2.9998 4.09847 0
M  V30 8413 H 786.952 1.4949 5.04936 0
M  V30 8414 H 789.443 1.45362 3.48824 0
M  V30 8415 H 789.756 3.54006 6.8695 0
M  V30 8416 H 788.101 3.17749 6.1811 0
M  V30 8417 H 791.292 1.87806 4.28773 0
M  V30 8418 H 791.465 2.82929 5.82971 0
M  V30 8419 N 784.871 -1.49948 0.485112 0
M  V30 8420 C 786.117 -2.02695 -0.0651022 0
M  V30 8421 C 786.45 -1.36534 -1.38102 0
M  V30 8422 O 785.725 -0.495677 -1.88078 0
M  V30 8423 C 786.008 -3.59337 -0.234285 0
M  V30 8424 C 785.861 -4.3605 1.10364 0
M  V30 8425 C 787.18 -4.28996 -0.982351 0
M  V30 8426 H 784.299 -0.736666 -0.0221856 0
M  V30 8427 H 786.941 -1.7913 0.633433 0
M  V30 8428 H 785.091 -3.79546 -0.829262 0
M  V30 8429 H 786.763 -4.27377 1.73627 0
M  V30 8430 H 785.006 -3.99236 1.69686 0
M  V30 8431 H 785.677 -5.43959 0.938743 0
M  V30 8432 H 788.153 -4.13346 -0.477904 0
M  V30 8433 H 787.029 -5.38379 -1.06955 0
M  V30 8434 H 787.29 -3.93135 -2.02231 0
M  V30 8435 N 786.349 -0.21828 -1.56081 0
M  V30 8436 C 787.296 0.693189 -2.20144 0
M  V30 8437 C 788.266 1.19274 -1.15598 0
M  V30 8438 O 789.451 1.25243 -1.4394 0
M  V30 8439 C 786.591 1.89715 -2.88275 0
M  V30 8440 C 785.704 1.4368 -4.07407 0
M  V30 8441 C 784.839 2.59807 -4.63329 0
M  V30 8442 C 783.878 2.10492 -5.74769 0
M  V30 8443 N 783.015 3.1988 -6.24997 0
M  V30 8444 H 787.855 0.14016 -2.9767 0
M  V30 8445 H 785.392 0.0574292 -1.46988 0
M  V30 8446 H 787.35 2.60398 -3.25958 0
M  V30 8447 H 785.98 2.42311 -2.13273 0
M  V30 8448 H 785.032 0.625007 -3.7523 0
M  V30 8449 H 786.344 1.03517 -4.8794 0
M  V30 8450 H 785.498 3.38577 -5.03438 0
M  V30 8451 H 784.237 3.03256 -3.81951 0
M  V30 8452 H 783.242 1.30182 -5.34165 0
M  V30 8453 H 784.467 1.68045 -6.5798 0
M  V30 8454 H 782.413 3.62817 -5.46534 0
M  V30 8455 H 782.33 2.83958 -7.00645 0
M  V30 8456 H 783.598 3.98796 -6.69763 0
M  V30 8457 N 787.827 1.57504 0.0551401 0
M  V30 8458 C 788.737 2.08198 1.08124 0
M  V30 8459 C 789.753 1.01496 1.41331 0
M  V30 8460 O 790.929 1.33073 1.51174 0
M  V30 8461 C 787.994 2.52968 2.37083 0
M  V30 8462 C 787.055 3.7404 2.10696 0
M  V30 8463 C 786.288 4.16665 3.33505 0
M  V30 8464 O 786.511 3.59019 4.4324 0
M  V30 8465 O 785.445 5.09324 3.20737 0
M  V30 8466 H 789.271 2.95977 0.680518 0
M  V30 8467 H 786.856 1.46933 0.270401 0
M  V30 8468 H 788.738 2.82211 3.12946 0
M  V30 8469 H 787.413 1.6831 2.76502 0
M  V30 8470 H 786.32 3.49855 1.32484 0
M  V30 8471 H 787.653 4.59601 1.76148 0
M  V30 8472 N 789.305 -0.326896 1.54172 0
M  V30 8473 C 790.552 -1.06523 1.72218 0
M  V30 8474 C 790.88 -1.88119 0.494114 0
M  V30 8475 O 790.135 -1.8855 -0.524147 0
M  V30 8476 C 790.434 -2.0208 2.94785 0
M  V30 8477 C 790.1 -1.36665 4.2969 0
M  V30 8478 C 788.762 -1.18556 4.66367 0
M  V30 8479 C 791.114 -0.896868 5.13425 0
M  V30 8480 C 788.442 -0.521113 5.84381 0
M  V30 8481 C 790.794 -0.246261 6.3212 0
M  V30 8482 C 789.458 -0.052987 6.67479 0
M  V30 8483 H 788.728 -0.389796 0.63019 0
M  V30 8484 H 791.375 -0.342725 1.88408 0
M  V30 8485 H 789.68 -2.8077 2.73268 0
M  V30 8486 H 791.377 -2.59231 3.05941 0
M  V30 8487 H 787.967 -1.51762 4.00832 0
M  V30 8488 H 792.151 -1.02458 4.85609 0
M  V30 8489 H 787.407 -0.36014 6.10338 0
M  V30 8490 H 791.581 0.125775 6.96286 0
M  V30 8491 H 789.208 0.463903 7.58783 0
M  V30 8492 N 790.784 -1.46188 -0.588786 0
M  V30 8493 C 792.033 -1.50452 -1.34339 0
M  V30 8494 C 792.346 -0.158096 -1.9496 0
M  V30 8495 O 793.552 -0.0784918 -2.71387 0
M  V30 8496 C 792.008 -2.65074 -2.43441 0
M  V30 8497 C 791.616 -4.06111 -1.8915 0
M  V30 8498 C 793.36 -2.78603 -3.20282 0
M  V30 8499 C 791.267 -5.12084 -2.95845 0
M  V30 8500 H 790.197 -0.559905 -0.504997 0
M  V30 8501 H 792.848 -1.72382 -0.629014 0
M  V30 8502 H 791.23 -2.36462 -3.1765 0
M  V30 8503 H 792.404 -4.44487 -1.21524 0
M  V30 8504 H 790.719 -3.97197 -1.24995 0
M  V30 8505 H 793.316 -3.54944 -3.99898 0
M  V30 8506 H 793.659 -1.85902 -3.72486 0
M  V30 8507 H 794.192 -3.06832 -2.53178 0
M  V30 8508 H 790.931 -6.06556 -2.48535 0
M  V30 8509 H 790.451 -4.78259 -3.61979 0
M  V30 8510 H 792.13 -5.37661 -3.59902 0
M  V30 8511 N 792.262 0.832906 -1.33792 0
M  V30 8512 C 793.678 1.1245 -1.13257 0
M  V30 8513 C 793.878 2.01369 0.0725832 0
M  V30 8514 O 792.934 2.41071 0.751082 0
M  V30 8515 C 794.247 1.78084 -2.42294 0
M  V30 8516 C 795.795 1.90624 -2.48257 0
M  V30 8517 C 796.27 2.59673 -3.77271 0
M  V30 8518 N 797.761 2.67181 -3.78376 0
M  V30 8519 C 798.496 3.21313 -4.74916 0
M  V30 8520 N 797.992 3.76086 -5.81835 0
M  V30 8521 N 799.785 3.19621 -4.62384 0
M  V30 8522 H 791.936 0.241244 -2.11026 0
M  V30 8523 H 794.199 0.169557 -0.932713 0
M  V30 8524 H 793.905 1.20209 -3.30519 0
M  V30 8525 H 793.779 2.78049 -2.5489 0
M  V30 8526 H 796.166 2.4765 -1.60478 0
M  V30 8527 H 796.247 0.89591 -2.39598 0
M  V30 8528 H 795.891 2.03304 -4.65435 0
M  V30 8529 H 795.821 3.61189 -3.8321 0
M  V30 8530 H 798.312 2.28346 -3.01108 0
M  V30 8531 H 798.625 4.15612 -6.51526 0
M  V30 8532 H 796.97 3.74357 -5.85561 0
M  V30 8533 H 800.161 2.76091 -3.7801 0
M  V30 8534 H 800.334 3.61504 -5.37791 0
M  V30 8535 N 793.74 1.17359 1.05189 0
M  V30 8536 C 794.987 0.961987 1.78191 0
M  V30 8537 C 795.315 -0.509363 1.87712 0
M  V30 8538 O 794.57 -1.39425 1.37329 0
M  V30 8539 C 794.869 1.54821 3.22126 0
M  V30 8540 C 794.535 3.04378 3.32663 0
M  V30 8541 C 793.197 3.45201 3.35246 0
M  V30 8542 C 795.549 4.00387 3.33677 0
M  V30 8543 C 792.877 4.80629 3.36471 0
M  V30 8544 C 795.229 5.35715 3.36441 0
M  V30 8545 C 793.893 5.76002 3.37311 0
M  V30 8546 H 793.163 0.352016 0.652047 0
M  V30 8547 H 795.81 1.46249 1.23627 0
M  V30 8548 H 794.115 0.969432 3.79617 0
M  V30 8549 H 795.812 1.36004 3.77232 0
M  V30 8550 H 792.402 2.71836 3.31366 0
M  V30 8551 H 796.586 3.69906 3.30882 0
M  V30 8552 H 791.842 5.11155 3.35455 0
M  V30 8553 H 796.016 6.09886 3.36173 0
M  V30 8554 H 793.643 6.80919 3.38013 0
M  V30 8555 N 795.218 -1.23913 0.973828 0
M  V30 8556 C 796.168 -2.22892 0.479933 0
M  V30 8557 C 797.152 -1.54726 -0.441434 0
M  V30 8558 O 798.344 -1.74908 -0.271358 0
M  V30 8559 C 795.473 -3.42577 -0.222702 0
M  V30 8560 C 794.559 -4.17981 0.717851 0
M  V30 8561 N 794.95 -4.7045 1.8577 0
M  V30 8562 C 793.248 -4.42841 0.529858 0
M  V30 8563 C 793.949 -5.27751 2.44651 0
M  V30 8564 N 792.925 -5.15302 1.73104 0
M  V30 8565 H 796.727 -2.61083 1.34956 0
M  V30 8566 H 794.241 -1.39368 0.83368 0
M  V30 8567 H 796.238 -4.1265 -0.593793 0
M  V30 8568 H 794.898 -3.05904 -1.0887 0
M  V30 8569 H 795.909 -4.66997 2.23908 0
M  V30 8570 H 792.586 -4.1648 -0.291664 0
M  V30 8571 H 793.976 -5.79011 3.40875 0
M  V30 8572 N 796.696 -0.74468 -1.38897 0
M  V30 8573 C 797.628 -0.0713608 -2.29089 0
M  V30 8574 C 798.641 0.693224 -1.47303 0
M  V30 8575 O 799.83 0.535785 -1.70269 0
M  V30 8576 C 796.93 0.923078 -3.26087 0
M  V30 8577 C 796.103 0.217998 -4.36856 0
M  V30 8578 C 795.162 1.12192 -5.14101 0
M  V30 8579 O 794.188 0.595771 -5.66073 0
M  V30 8580 N 795.39 2.45082 -5.26227 0
M  V30 8581 H 798.155 -0.845906 -2.87514 0
M  V30 8582 H 795.716 -0.594712 -1.50581 0
M  V30 8583 H 797.708 1.53061 -3.74639 0
M  V30 8584 H 796.278 1.59876 -2.68623 0
M  V30 8585 H 795.498 -0.570134 -3.90055 0
M  V30 8586 H 796.786 -0.270248 -5.08082 0
M  V30 8587 H 796.184 2.90294 -4.85537 0
M  V30 8588 H 794.741 3.00907 -5.78185 0
M  V30 8589 N 798.174 1.49689 -0.493057 0
M  V30 8590 C 799.423 2.01622 0.0560733 0
M  V30 8591 C 799.736 1.37838 1.3878 0
M  V30 8592 O 800.942 1.81054 2.02316 0
M  V30 8593 C 799.398 3.59586 0.150409 0
M  V30 8594 C 799.006 4.32338 -1.1742 0
M  V30 8595 C 800.75 4.19489 0.650327 0
M  V30 8596 C 798.657 5.8214 -1.04246 0
M  V30 8597 H 797.587 0.753594 0.0247297 0
M  V30 8598 H 800.238 1.723 -0.631279 0
M  V30 8599 H 798.62 3.8559 0.902035 0
M  V30 8600 H 799.794 4.18042 -1.9385 0
M  V30 8601 H 798.109 3.84144 -1.60694 0
M  V30 8602 H 800.706 5.29181 0.766272 0
M  V30 8603 H 801.049 3.82326 1.6472 0
M  V30 8604 H 801.582 3.97775 -0.0445371 0
M  V30 8605 H 798.321 6.23814 -2.01336 0
M  V30 8606 H 797.841 5.98952 -0.31892 0
M  V30 8607 H 799.52 6.43004 -0.717957 0
M  V30 8608 N 799.652 0.226554 1.55963 0
M  V30 8609 C 801.063 -0.280381 1.84583 0
M  V30 8610 C 801.414 -1.59105 1.14804 0
M  V30 8611 O 800.539 -2.12297 0.419414 0
M  V30 8612 C 801.134 -0.515499 3.34855 0
M  V30 8613 C 799.693 -0.966733 3.63774 0
M  V30 8614 C 798.84 -0.0325753 2.77281 0
M  V30 8615 H 801.791 0.449626 1.52197 0
M  V30 8616 H 801.812 -1.36085 3.55332 0
M  V30 8617 H 801.324 0.438594 3.85614 0
M  V30 8618 H 799.425 -1.93401 3.18476 0
M  V30 8619 H 799.538 -0.837679 4.7172 0
M  V30 8620 H 797.902 -0.540279 2.48904 0
M  V30 8621 H 798.685 0.916524 3.30839 0
M  V30 8622 N 801.13 -1.57531 -0.0467866 0
M  V30 8623 C 802.078 -2.06455 -1.0714 0
M  V30 8624 C 803.072 -0.974744 -1.38546 0
M  V30 8625 O 804.278 -1.15974 -1.37659 0
M  V30 8626 H 800.653 -0.658607 -0.362962 0
M  V30 8627 H 802.624 -2.91613 -0.632813 0
M  V30 8628 C 801.373 -2.54481 -2.36927 0
M  V30 8629 H 800.696 -3.37946 -2.13617 0
M  V30 8630 H 802.136 -2.92442 -3.07007 0
M  V30 8631 C 800.595 -1.43836 -3.04652 0
M  V30 8632 O 801.125 -0.794531 -3.93764 0
M  V30 8633 N 799.331 -1.17727 -2.65686 0
M  V30 8634 H 798.878 -1.70265 -1.93307 0
M  V30 8635 H 798.836 -0.439051 -3.11319 0
M  V30 8636 N 802.608 0.318715 -1.54344 0
M  V30 8637 C 804.019 0.89285 -1.63967 0
M  V30 8638 C 804.37 1.88712 -0.536855 0
M  V30 8639 O 803.495 2.13877 0.329457 0
M  V30 8640 C 804.09 1.62618 -2.97222 0
M  V30 8641 C 802.649 2.14897 -3.09025 0
M  V30 8642 C 801.796 0.975909 -2.5956 0
M  V30 8643 H 804.747 0.0961687 -1.58408 0
M  V30 8644 H 804.768 2.4907 -2.87653 0
M  V30 8645 H 804.28 0.902286 -3.77466 0
M  V30 8646 H 802.381 2.90387 -2.33465 0
M  V30 8647 H 802.494 2.39565 -4.14904 0
M  V30 8648 H 800.858 1.35646 -2.15574 0
M  V30 8649 H 801.641 0.266253 -3.42266 0
M  V30 8650 N 804.086 1.46499 0.581025 0
M  V30 8651 C 805.016 1.60052 1.70017 0
M  V30 8652 C 805.997 0.450788 1.64018 0
M  V30 8653 O 807.182 0.677237 1.82009 0
M  V30 8654 C 804.312 1.5921 3.08658 0
M  V30 8655 C 803.266 2.73169 3.29488 0
M  V30 8656 C 802.592 2.57389 4.68674 0
M  V30 8657 C 803.892 4.14978 3.1716 0
M  V30 8658 H 805.586 2.53735 1.5893 0
M  V30 8659 H 803.132 1.22113 0.763173 0
M  V30 8660 H 805.085 1.67285 3.86773 0
M  V30 8661 H 803.809 0.620718 3.20647 0
M  V30 8662 H 802.468 2.64566 2.53773 0
M  V30 8663 H 802.116 1.58331 4.77431 0
M  V30 8664 H 801.816 3.33826 4.83564 0
M  V30 8665 H 803.34 2.67358 5.48956 0
M  V30 8666 H 804.754 4.24684 3.85119 0
M  V30 8667 H 803.151 4.92016 3.4357 0
M  V30 8668 H 804.221 4.35016 2.14218 0
M  V30 8669 N 805.565 -0.825799 1.34232 0
M  V30 8670 C 806.981 -1.11848 1.13851 0
M  V30 8671 C 807.181 -2.01405 -0.0619031 0
M  V30 8672 O 806.237 -2.41465 -0.738287 0
M  V30 8673 C 807.55 -1.76797 2.43235 0
M  V30 8674 C 809.098 -1.89304 2.49265 0
M  V30 8675 C 809.573 -2.57669 3.78643 0
M  V30 8676 N 811.064 -2.65171 3.79788 0
M  V30 8677 C 811.799 -3.1879 4.76614 0
M  V30 8678 N 811.295 -3.72995 5.83821 0
M  V30 8679 N 813.088 -3.17164 4.64073 0
M  V30 8680 H 805.239 -0.230049 2.11151 0
M  V30 8681 H 807.502 -0.164609 0.9336 0
M  V30 8682 H 807.208 -1.18455 3.31152 0
M  V30 8683 H 807.082 -2.76693 2.56361 0
M  V30 8684 H 809.469 -2.46796 1.6179 0
M  V30 8685 H 809.55 -0.883191 2.4007 0
M  V30 8686 H 809.194 -2.00833 4.66507 0
M  V30 8687 H 809.124 -3.59152 3.8512 0
M  V30 8688 H 811.615 -2.26746 3.02315 0
M  V30 8689 H 811.928 -4.12151 6.53721 0
M  V30 8690 H 810.273 -3.71246 5.87538 0
M  V30 8691 H 813.464 -2.74082 3.79469 0
M  V30 8692 H 813.637 -3.58647 5.397 0
M  V30 8693 N 807.043 -1.17915 -1.04565 0
M  V30 8694 C 807.975 -0.859359 -2.1248 0
M  V30 8695 C 808.988 0.140922 -1.62189 0
M  V30 8696 O 810.177 -0.0862361 -1.78292 0
M  V30 8697 C 807.277 -0.261811 -3.37887 0
M  V30 8698 C 806.45 -1.30651 -4.17431 0
M  V30 8699 C 805.509 -0.725575 -5.21174 0
M  V30 8700 O 804.535 -1.39901 -5.51739 0
M  V30 8701 N 805.737 0.479351 -5.78517 0
M  V30 8702 H 808.502 -1.78818 -2.40508 0
M  V30 8703 H 806.063 -1.07885 -1.20716 0
M  V30 8704 H 808.055 0.14028 -4.04457 0
M  V30 8705 H 806.625 0.570929 -3.07342 0
M  V30 8706 H 805.845 -1.88412 -3.46258 0
M  V30 8707 H 807.133 -2.01099 -4.67372 0
M  V30 8708 H 806.531 1.04431 -5.55977 0
M  V30 8709 H 805.088 0.823427 -6.46578 0
M  V30 8710 N 808.521 1.23394 -0.980386 0
M  V30 8711 C 809.937 1.43961 -0.689008 0
M  V30 8712 C 810.137 1.87229 0.744809 0
M  V30 8713 O 809.193 2.01831 1.51725 0
M  V30 8714 C 810.506 2.49128 -1.68392 0
M  V30 8715 C 812.054 2.62941 -1.69796 0
M  V30 8716 C 812.529 3.71317 -2.68118 0
M  V30 8717 N 814.02 3.7876 -2.66636 0
M  V30 8718 C 814.755 4.62176 -3.39383 0
M  V30 8719 N 814.251 5.49682 -4.21688 0
M  V30 8720 N 816.044 4.56372 -3.28147 0
M  V30 8721 H 808.195 0.936106 -1.90659 0
M  V30 8722 H 810.458 0.473023 -0.821555 0
M  V30 8723 H 810.164 2.24252 -2.70931 0
M  V30 8724 H 810.038 3.47514 -1.46675 0
M  V30 8725 H 812.425 2.87168 -0.679617 0
M  V30 8726 H 812.506 1.64871 -1.95579 0
M  V30 8727 H 812.15 3.4784 -3.70095 0
M  V30 8728 H 812.08 4.68929 -2.3961 0
M  V30 8729 H 814.571 3.16226 -2.06904 0
M  V30 8730 H 814.884 6.10323 -4.74053 0
M  V30 8731 H 813.229 5.49306 -4.25779 0
M  V30 8732 H 816.42 3.87029 -2.63299 0
M  V30 8733 H 816.593 5.21153 -3.85102 0
M  V30 8734 N 809.999 0.752036 1.385 0
M  V30 8735 C 810.929 0.138718 2.33088 0
M  V30 8736 C 811.91 -0.705318 1.54788 0
M  V30 8737 O 813.095 -0.646821 1.83112 0
M  V30 8738 C 810.225 -0.75641 3.38963 0
M  V30 8739 C 809.179 -0.0152239 4.27997 0
M  V30 8740 C 808.505 -1.0285 5.24715 0
M  V30 8741 C 809.805 1.15226 5.09431 0
M  V30 8742 H 811.499 0.928852 2.84627 0
M  V30 8743 H 809.045 0.448111 1.3685 0
M  V30 8744 H 810.998 -1.19513 4.04097 0
M  V30 8745 H 809.722 -1.57885 2.85902 0
M  V30 8746 H 808.381 0.404061 3.64366 0
M  V30 8747 H 808.029 -1.84496 4.67943 0
M  V30 8748 H 807.729 -0.537238 5.85139 0
M  V30 8749 H 809.253 -1.46657 5.92726 0
M  V30 8750 H 810.667 0.791161 5.67815 0
M  V30 8751 H 809.064 1.57428 5.79082 0
M  V30 8752 H 810.134 1.9659 4.43261 0
M  V30 8753 N 811.477 -1.49425 0.500989 0
M  V30 8754 C 812.387 -2.32899 -0.282011 0
M  V30 8755 C 813.403 -1.44632 -0.967346 0
M  V30 8756 O 814.579 -1.77654 -0.94873 0
M  V30 8757 C 811.644 -3.20069 -1.33253 0
M  V30 8758 C 810.705 -4.24186 -0.660636 0
M  V30 8759 C 809.938 -5.07191 -1.6611 0
M  V30 8760 O 810.161 -4.91712 -2.89094 0
M  V30 8761 O 809.095 -5.8948 -1.21643 0
M  V30 8762 H 812.921 -3.01038 0.401224 0
M  V30 8763 H 810.506 -1.47079 0.262323 0
M  V30 8764 H 812.388 -3.74071 -1.94033 0
M  V30 8765 H 811.063 -2.54625 -1.9987 0
M  V30 8766 H 809.97 -3.74098 -0.0130959 0
M  V30 8767 H 811.303 -4.92186 -0.0369179 0
M  V30 8768 N 812.955 -0.234822 -1.55841 0
M  V30 8769 C 813.865 0.680828 -2.24504 0
M  V30 8770 C 814.881 1.20306 -1.25708 0
M  V30 8771 O 816.057 1.24188 -1.58554 0
M  V30 8772 C 813.122 1.86636 -2.92178 0
M  V30 8773 C 812.183 1.3848 -4.06352 0
M  V30 8774 C 811.416 2.51382 -4.70789 0
M  V30 8775 O 811.639 3.69831 -4.34259 0
M  V30 8776 O 810.573 2.21828 -5.59532 0
M  V30 8777 H 814.399 0.12583 -3.03439 0
M  V30 8778 H 811.984 -0.00381817 -1.494 0
M  V30 8779 H 813.866 2.55845 -3.34845 0
M  V30 8780 H 812.541 2.40921 -2.16192 0
M  V30 8781 H 811.448 0.660341 -3.68226 0
M  V30 8782 H 812.781 0.888177 -4.8412 0
M  V30 8783 N 814.433 1.57553 0.0384317 0
M  V30 8784 C 815.663 1.92813 0.742064 0
M  V30 8785 C 816.071 0.832157 1.69917 0
M  V30 8786 O 815.414 -0.200917 1.82598 0
M  V30 8787 C 815.476 3.23806 1.56172 0
M  V30 8788 C 815.14 4.50459 0.770407 0
M  V30 8789 C 816.137 5.19846 0.0748006 0
M  V30 8790 C 813.822 4.97001 0.727714 0
M  V30 8791 C 815.816 6.34047 -0.652902 0
M  V30 8792 C 813.503 6.111 -0.00373992 0
M  V30 8793 C 814.501 6.79477 -0.692816 0
M  V30 8794 O 814.189 7.91395 -1.41241 0
M  V30 8795 H 813.921 0.641174 0.214179 0
M  V30 8796 H 816.475 2.054 0.00285095 0
M  V30 8797 H 814.705 3.0752 2.34453 0
M  V30 8798 H 816.394 3.44463 2.14709 0
M  V30 8799 H 817.16 4.84899 0.098875 0
M  V30 8800 H 813.039 4.43629 1.25355 0
M  V30 8801 H 816.583 6.87353 -1.1913 0
M  V30 8802 H 812.48 6.45493 -0.0297703 0
M  V30 8803 H 813.248 8.07702 -1.32512 0
M  V30 8804 N 815.911 -0.310526 1.54511 0
M  V30 8805 C 817.158 -1.04691 1.73338 0
M  V30 8806 C 817.486 -1.87584 0.514038 0
M  V30 8807 O 816.741 -1.89096 -0.504119 0
M  V30 8808 C 817.04 -1.98942 2.96912 0
M  V30 8809 C 816.706 -1.321 4.31115 0
M  V30 8810 C 815.368 -1.13603 4.67598 0
M  V30 8811 C 817.72 -0.842362 5.14348 0
M  V30 8812 C 815.048 -0.459102 5.84901 0
M  V30 8813 C 817.4 -0.179202 6.32346 0
M  V30 8814 C 816.064 0.0178111 6.67498 0
M  V30 8815 H 815.334 -0.38309 0.634289 0
M  V30 8816 H 817.981 -0.322723 1.88761 0
M  V30 8817 H 816.286 -2.77856 2.76231 0
M  V30 8818 H 817.983 -2.55972 3.08674 0
M  V30 8819 H 814.573 -1.47502 4.02419 0
M  V30 8820 H 818.757 -0.973013 4.86668 0
M  V30 8821 H 814.013 -0.295385 6.10686 0
M  V30 8822 H 818.187 0.199619 6.96114 0
M  V30 8823 H 815.814 0.544356 7.58249 0
M  V30 8824 N 817.389 -1.46805 -0.573248 0
M  V30 8825 C 818.321 -1.54127 -1.6964 0
M  V30 8826 C 819.334 -0.428778 -1.57052 0
M  V30 8827 O 820.523 -0.697612 -1.64303 0
M  V30 8828 C 817.623 -1.41438 -3.07975 0
M  V30 8829 C 816.796 -2.66974 -3.46474 0
M  V30 8830 C 815.855 -2.48349 -4.63906 0
M  V30 8831 O 814.881 -3.22109 -4.69292 0
M  V30 8832 N 816.083 -1.55129 -5.59388 0
M  V30 8833 H 818.848 -2.50971 -1.6381 0
M  V30 8834 H 816.409 -1.42981 -0.759479 0
M  V30 8835 H 818.401 -1.26737 -3.84343 0
M  V30 8836 H 816.971 -0.527388 -3.08119 0
M  V30 8837 H 816.191 -2.9655 -2.59715 0
M  V30 8838 H 817.479 -3.50347 -3.68964 0
M  V30 8839 H 816.877 -0.94324 -5.57781 0
M  V30 8840 H 815.434 -1.46387 -6.35149 0
M  V30 8841 N 818.867 0.818669 -1.34668 0
M  V30 8842 C 819.817 1.91882 -1.23147 0
M  V30 8843 C 820.801 1.60378 -0.129509 0
M  V30 8844 O 821.993 1.73309 -0.359581 0
M  V30 8845 C 819.122 3.28612 -0.993436 0
M  V30 8846 C 818.208 3.66221 -2.13876 0
M  V30 8847 N 818.599 3.75361 -3.39024 0
M  V30 8848 C 816.897 3.96098 -2.04994 0
M  V30 8849 C 817.598 4.0836 -4.14266 0
M  V30 8850 N 816.574 4.21806 -3.429 0
M  V30 8851 H 820.376 1.97133 -2.17981 0
M  V30 8852 H 817.89 1.01257 -1.26967 0
M  V30 8853 H 819.887 4.0725 -0.891797 0
M  V30 8854 H 818.547 3.24655 -0.053824 0
M  V30 8855 H 819.558 3.58747 -3.73525 0
M  V30 8856 H 816.235 4.00236 -1.18816 0
M  V30 8857 H 817.625 4.226 -5.22359 0
M  V30 8858 N 820.346 1.18468 1.03938 0
M  V30 8859 C 821.309 0.914944 2.10146 0
M  V30 8860 C 822.309 -0.10022 1.60487 0
M  V30 8861 O 823.499 0.133365 1.73689 0
M  V30 8862 C 820.631 0.372993 3.38853 0
M  V30 8863 H 821.824 1.85677 2.35508 0
M  V30 8864 H 819.377 0.996876 1.20383 0
M  V30 8865 H 820.112 -0.57538 3.19155 0
M  V30 8866 H 819.897 1.1048 3.76213 0
M  V30 8867 H 821.387 0.203014 4.17106 0
M  V30 8868 N 821.824 -1.22873 0.986916 0
M  V30 8869 C 823.07 -1.92047 0.670042 0
M  V30 8870 C 823.425 -1.75497 -0.788587 0
M  V30 8871 O 822.718 -1.10934 -1.56218 0
M  V30 8872 C 822.912 -3.43014 1.00379 0
M  V30 8873 C 822.741 -3.74251 2.49332 0
M  V30 8874 C 821.511 -3.94589 3.15638 0
M  V30 8875 C 823.709 -3.79208 3.47428 0
M  V30 8876 N 821.691 -4.13086 4.54129 0
M  V30 8877 C 823.062 -4.02775 4.71352 0
M  V30 8878 C 825.117 -3.62029 3.41818 0
M  V30 8879 C 823.82 -4.10946 5.90352 0
M  V30 8880 C 825.846 -3.71457 4.60189 0
M  V30 8881 C 825.208 -3.95468 5.82911 0
M  V30 8882 H 821.307 -0.723668 0.29636 0
M  V30 8883 H 823.891 -1.47946 1.26571 0
M  V30 8884 H 822.062 -3.85936 0.436762 0
M  V30 8885 H 823.794 -3.99551 0.643522 0
M  V30 8886 H 820.549 -3.91762 2.66119 0
M  V30 8887 H 820.973 -4.26275 5.25945 0
M  V30 8888 H 825.615 -3.42457 2.47958 0
M  V30 8889 H 823.333 -4.29324 6.84621 0
M  V30 8890 H 826.919 -3.59511 4.57431 0
M  V30 8891 H 825.799 -4.02584 6.72975 0
M  V30 8892 N 823.302 -0.75937 -1.38099 0
M  V30 8893 C 824.527 -0.327859 -2.04792 0
M  V30 8894 C 824.952 1.03752 -1.56899 0
M  V30 8895 O 824.31 1.66235 -0.723581 0
M  V30 8896 C 824.358 -0.366264 -3.58735 0
M  V30 8897 O 823.462 0.637697 -4.0744 0
M  V30 8898 H 822.803 -0.144092 -0.648177 0
M  V30 8899 H 825.333 -1.03211 -1.7666 0
M  V30 8900 H 825.343 -0.219179 -4.07411 0
M  V30 8901 H 824.018 -1.36243 -3.92951 0
M  V30 8902 H 822.595 0.454749 -3.70117 0
M  V30 8903 N 824.78 1.49157 -0.508906 0
M  V30 8904 C 826.01 2.06579 0.0293308 0
M  V30 8905 C 826.418 1.36852 1.30645 0
M  V30 8906 O 825.761 0.443079 1.78276 0
M  V30 8907 C 825.823 3.57838 0.345296 0
M  V30 8908 C 825.487 4.49302 -0.835256 0
M  V30 8909 C 826.484 4.90345 -1.72793 0
M  V30 8910 C 824.169 4.91494 -1.0363 0
M  V30 8911 C 826.163 5.72327 -2.80573 0
M  V30 8912 C 823.85 5.7325 -2.11726 0
M  V30 8913 C 824.848 6.13572 -3.00032 0
M  V30 8914 O 824.536 6.93691 -4.06261 0
M  V30 8915 H 824.268 0.675679 -0.0208193 0
M  V30 8916 H 826.822 1.9282 -0.707789 0
M  V30 8917 H 825.052 3.69634 1.13612 0
M  V30 8918 H 826.741 3.97467 0.823089 0
M  V30 8919 H 827.507 4.58388 -1.58446 0
M  V30 8920 H 823.386 4.59605 -0.358308 0
M  V30 8921 H 826.93 6.03719 -3.49527 0
M  V30 8922 H 822.827 6.0462 -2.26065 0
M  V30 8923 H 823.595 7.12011 -4.03711 0
M  V30 8924 N 826.258 0.243083 1.55714 0
M  V30 8925 C 827.486 -0.386971 2.03249 0
M  V30 8926 C 827.901 -1.51812 1.12243 0
M  V30 8927 O 827.258 -1.81992 0.136119 0
M  V30 8928 C 827.309 -0.898361 3.5016 0
M  V30 8929 O 827.03 0.187708 4.37698 0
M  V30 8930 C 828.531 -1.59949 4.13438 0
M  V30 8931 H 825.751 -0.0923981 0.664608 0
M  V30 8932 H 828.295 0.365832 2.01201 0
M  V30 8933 H 826.45 -1.60136 3.52754 0
M  V30 8934 H 826.864 -0.200001 5.24119 0
M  V30 8935 H 828.338 -1.90907 5.17937 0
M  V30 8936 H 828.815 -2.52014 3.59702 0
M  V30 8937 H 829.421 -0.941163 4.14756 0
M  V30 8938 N 827.736 -1.57571 -0.0300757 0
M  V30 8939 C 828.684 -2.0758 -1.04944 0
M  V30 8940 C 829.678 -0.989384 -1.37505 0
M  V30 8941 O 830.884 -1.17427 -1.36422 0
M  V30 8942 H 827.259 -0.662419 -0.355956 0
M  V30 8943 H 829.23 -2.92268 -0.601848 0
M  V30 8944 C 827.979 -2.5698 -2.34215 0
M  V30 8945 H 827.302 -3.40193 -2.10021 0
M  V30 8946 H 828.742 -2.95682 -3.03888 0
M  V30 8947 C 827.201 -1.47059 -3.03109 0
M  V30 8948 O 827.731 -0.83625 -3.92899 0
M  V30 8949 N 825.937 -1.20538 -2.64422 0
M  V30 8950 H 825.484 -1.72305 -1.9149 0
M  V30 8951 H 825.442 -0.472045 -3.10836 0
M  V30 8952 N 829.214 0.302327 -1.54673 0
M  V30 8953 C 830.462 1.03565 -1.73547 0
M  V30 8954 C 830.783 1.87843 -0.523448 0
M  V30 8955 O 830.053 1.90367 0.462295 0
M  V30 8956 H 828.633 0.385358 -0.639928 0
M  V30 8957 H 831.295 0.333632 -1.92023 0
M  V30 8958 H 830.391 1.68952 -2.62415 0
M  V30 8959 N 830.692 1.47107 0.565454 0
M  V30 8960 C 831.941 1.5257 1.31929 0
M  V30 8961 C 832.254 0.189092 1.94684 0
M  V30 8962 O 833.46 0.121657 2.71227 0
M  V30 8963 C 831.916 2.68914 2.39193 0
M  V30 8964 C 831.524 4.09069 1.82665 0
M  V30 8965 C 833.268 2.83663 3.1581 0
M  V30 8966 C 831.175 5.16726 2.87661 0
M  V30 8967 H 830.105 0.567869 0.496025 0
M  V30 8968 H 832.756 1.73361 0.60151 0
M  V30 8969 H 831.138 2.41486 3.13848 0
M  V30 8970 H 832.312 4.46364 1.14438 0
M  V30 8971 H 830.627 3.99135 1.1866 0
M  V30 8972 H 833.224 3.61261 3.94201 0
M  V30 8973 H 833.567 1.91804 3.69482 0
M  V30 8974 H 834.1 3.10821 2.48265 0
M  V30 8975 H 830.839 6.10433 2.38854 0
M  V30 8976 H 830.359 4.83957 3.54324 0
M  V30 8977 H 832.038 5.43319 3.51303 0
M  V30 8978 N 832.17 -0.811516 1.35101 0
M  V30 8979 C 833.447 -1.55491 1.18667 0
M  V30 8980 C 833.827 -2.09775 -0.236189 0
M  V30 8981 O 833.175 -1.91989 -1.23905 0
M  V30 8982 C 833.385 -2.66732 2.25067 0
M  V30 8983 C 834.733 -3.35201 2.60625 0
M  V30 8984 O 835.757 -2.76998 2.23943 0
M  V30 8985 O 834.616 -4.40334 3.23679 0
M  V30 8986 H 831.71 -0.686783 0.460716 0
M  V30 8987 H 834.256 -0.851903 1.46768 0
M  V30 8988 H 833.028 -2.24457 3.20523 0
M  V30 8989 H 832.651 -3.44673 1.98208 0
M  V30 8990 N 833.648 -1.19017 -1.03309 0
M  V30 8991 C 834.581 -0.867457 -2.1107 0
M  V30 8992 C 835.559 0.173752 -1.61669 0
M  V30 8993 O 836.743 0.0510077 -1.88431 0
M  V30 8994 C 833.87 -0.297459 -3.37391 0
M  V30 8995 C 832.916 -1.31706 -4.05655 0
M  V30 8996 S 833.749 -2.87591 -4.51721 0
M  V30 8997 C 834.905 -2.32122 -5.81266 0
M  V30 8998 H 835.138 -1.78008 -2.38119 0
M  V30 8999 H 832.671 -1.01686 -1.16187 0
M  V30 9000 H 834.629 0.0248889 -4.10492 0
M  V30 9001 H 833.29 0.5934 -3.08444 0
M  V30 9002 H 832.483 -0.867264 -4.96482 0
M  V30 9003 H 832.085 -1.58603 -3.38705 0
M  V30 9004 H 834.377 -1.70855 -6.55603 0
M  V30 9005 H 835.32 -3.2128 -6.31019 0
M  V30 9006 H 835.728 -1.74858 -5.36736 0
M  V30 9007 N 835.127 1.22348 -0.993418 0
M  V30 9008 C 836.075 2.26315 -0.537052 0
M  V30 9009 C 837.069 1.643 0.412545 0
M  V30 9010 O 838.275 1.77729 0.285008 0
M  V30 9011 H 834.65 0.735792 -0.155286 0
M  V30 9012 H 836.621 2.62157 -1.42535 0
M  V30 9013 C 835.37 3.47449 0.132118 0
M  V30 9014 H 834.693 3.9543 -0.589519 0
M  V30 9015 H 836.133 4.21965 0.414884 0
M  V30 9016 C 834.592 3.07893 1.36761 0
M  V30 9017 O 835.122 3.17338 2.46291 0
M  V30 9018 N 833.328 2.62672 1.24305 0
M  V30 9019 H 832.875 2.55186 0.351826 0
M  V30 9020 H 832.833 2.36574 2.07076 0
M  V30 9021 N 836.605 0.766683 1.37694 0
M  V30 9022 C 837.568 0.155849 2.2867 0
M  V30 9023 C 838.568 -0.633509 1.47795 0
M  V30 9024 O 839.758 -0.457844 1.68076 0
M  V30 9025 C 836.89 -0.786965 3.31692 0
M  V30 9026 H 838.083 0.957748 2.84196 0
M  V30 9027 H 835.636 0.534554 1.46875 0
M  V30 9028 H 836.371 -1.61406 2.8128 0
M  V30 9029 H 836.156 -0.223182 3.91464 0
M  V30 9030 H 837.646 -1.20994 3.99688 0
M  V30 9031 N 838.083 -1.48885 0.516809 0
M  V30 9032 C 839.329 -2.02788 -0.0220928 0
M  V30 9033 C 839.662 -1.39433 -1.35175 0
M  V30 9034 O 838.937 -0.535459 -1.86984 0
M  V30 9035 C 839.22 -3.59753 -0.158012 0
M  V30 9036 C 839.073 -4.33611 1.19588 0
M  V30 9037 C 840.392 -4.30984 -0.891133 0
M  V30 9038 H 837.511 -0.736971 -0.00655488 0
M  V30 9039 H 840.153 -1.77746 0.671287 0
M  V30 9040 H 838.303 -3.8122 -0.748568 0
M  V30 9041 H 839.975 -4.23598 1.82653 0
M  V30 9042 H 838.218 -3.95547 1.78116 0
M  V30 9043 H 838.889 -5.41846 1.05391 0
M  V30 9044 H 841.365 -4.14267 -0.39012 0
M  V30 9045 H 840.241 -5.40527 -0.955107 0
M  V30 9046 H 840.502 -3.97336 -1.93847 0
M  V30 9047 N 839.561 -0.251338 -1.55583 0
M  V30 9048 C 840.491 0.640437 -2.24545 0
M  V30 9049 C 841.472 1.17781 -1.22726 0
M  V30 9050 O 842.657 1.21633 -1.5139 0
M  V30 9051 C 839.787 1.8355 -2.94834 0
M  V30 9052 C 838.741 1.4307 -4.03379 0
M  V30 9053 C 838.067 2.70695 -4.61116 0
M  V30 9054 C 839.367 0.59848 -5.1886 0
M  V30 9055 H 841.061 0.0653772 -2.99329 0
M  V30 9056 H 838.607 0.0300042 -1.43969 0
M  V30 9057 H 840.56 2.46505 -3.4178 0
M  V30 9058 H 839.284 2.43601 -2.17546 0
M  V30 9059 H 837.943 0.824474 -3.57209 0
M  V30 9060 H 837.591 3.28954 -3.80524 0
M  V30 9061 H 837.291 2.44332 -5.34393 0
M  V30 9062 H 838.815 3.34541 -5.10798 0
M  V30 9063 H 840.229 1.13244 -5.62004 0
M  V30 9064 H 838.626 0.430728 -5.98552 0
M  V30 9065 H 839.696 -0.38829 -4.83343 0
M  V30 9066 N 841.039 1.57585 0.0217189 0
M  V30 9067 C 841.986 2.07036 1.02004 0
M  V30 9068 C 842.956 0.96106 1.35473 0
M  V30 9069 O 844.141 1.23211 1.45684 0
M  V30 9070 C 841.281 2.56056 2.31364 0
M  V30 9071 C 840.394 3.80805 2.03989 0
M  V30 9072 C 839.529 4.18409 3.27272 0
M  V30 9073 C 838.568 5.36055 2.95486 0
M  V30 9074 N 837.705 5.69056 4.11242 0
M  V30 9075 H 842.545 2.92073 0.591396 0
M  V30 9076 H 840.082 1.44403 0.280384 0
M  V30 9077 H 842.04 2.82548 3.06957 0
M  V30 9078 H 840.67 1.73925 2.71937 0
M  V30 9079 H 839.722 3.61354 1.1886 0
M  V30 9080 H 841.034 4.66512 1.76546 0
M  V30 9081 H 840.188 4.46068 4.11228 0
M  V30 9082 H 838.927 3.31369 3.57835 0
M  V30 9083 H 837.932 5.08142 2.09933 0
M  V30 9084 H 839.157 6.24755 2.66193 0
M  V30 9085 H 837.103 4.84974 4.41742 0
M  V30 9086 H 837.02 6.49288 3.87247 0
M  V30 9087 H 838.288 6.01295 4.96049 0
M  V30 9088 N 842.517 -0.29412 1.54831 0
M  V30 9089 C 843.765 -1.02643 1.74094 0
M  V30 9090 C 844.086 -1.87563 0.533402 0
M  V30 9091 O 843.356 -1.9061 -0.452192 0
M  V30 9092 H 841.936 -0.381959 0.641963 0
M  V30 9093 H 844.598 -0.323444 1.92197 0
M  V30 9094 H 843.694 -1.67558 2.63307 0
M  V30 9095 N 843.995 -1.47404 -0.557645 0
M  V30 9096 C 845.242 -1.54007 -1.31484 0
M  V30 9097 C 845.57 -0.202162 -1.93447 0
M  V30 9098 O 844.825 0.804901 -1.78381 0
M  V30 9099 C 845.124 -2.6061 -2.44575 0
M  V30 9100 C 844.79 -4.03896 -2.00446 0
M  V30 9101 C 843.452 -4.42901 -1.88127 0
M  V30 9102 C 845.804 -4.93804 -1.66754 0
M  V30 9103 C 843.132 -5.6965 -1.40411 0
M  V30 9104 C 845.484 -6.21016 -1.20509 0
M  V30 9105 C 844.148 -6.58903 -1.06786 0
M  V30 9106 H 843.418 -0.563552 -0.481134 0
M  V30 9107 H 846.065 -1.81001 -0.625375 0
M  V30 9108 H 844.37 -2.27371 -3.19076 0
M  V30 9109 H 846.067 -2.62941 -3.02759 0
M  V30 9110 H 842.657 -3.73077 -2.10977 0
M  V30 9111 H 846.841 -4.64369 -1.75144 0
M  V30 9112 H 842.097 -5.97755 -1.2845 0
M  V30 9113 H 846.271 -6.90095 -0.935001 0
M  V30 9114 H 843.898 -7.57008 -0.695891 0
M  V30 9115 N 845.473 0.80434 -1.35529 0
M  V30 9116 C 846.884 1.37849 -1.25915 0
M  V30 9117 C 847.235 1.95905 0.107495 0
M  V30 9118 O 846.36 1.91462 1.00852 0
M  V30 9119 C 846.955 2.50608 -2.27994 0
M  V30 9120 C 845.514 3.03879 -2.22114 0
M  V30 9121 C 844.661 1.76856 -2.13582 0
M  V30 9122 H 847.612 0.607192 -1.46625 0
M  V30 9123 H 847.633 3.29221 -1.90772 0
M  V30 9124 H 847.145 2.08323 -3.27449 0
M  V30 9125 H 845.246 3.50622 -1.26077 0
M  V30 9126 H 845.359 3.61707 -3.14173 0
M  V30 9127 H 843.723 1.98498 -1.59595 0
M  V30 9128 H 844.506 1.36721 -3.14901 0
M  V30 9129 N 846.951 1.19563 1.02676 0
M  V30 9130 C 847.861 0.950691 2.14474 0
M  V30 9131 C 848.877 -0.0900219 1.73767 0
M  V30 9132 O 850.053 0.0951063 2.01175 0
M  V30 9133 C 847.118 0.494917 3.43149 0
M  V30 9134 C 846.179 1.60527 3.98158 0
M  V30 9135 C 845.412 1.17115 5.20692 0
M  V30 9136 O 845.635 0.0355937 5.70389 0
M  V30 9137 O 844.569 1.97454 5.68591 0
M  V30 9138 H 848.395 1.88651 2.38001 0
M  V30 9139 H 845.98 0.978635 1.12885 0
M  V30 9140 H 847.862 0.249492 4.20661 0
M  V30 9141 H 846.537 -0.412434 3.21062 0
M  V30 9142 H 845.444 1.90487 3.21971 0
M  V30 9143 H 846.777 2.48925 4.24614 0
M  V30 9144 N 848.429 -1.21819 0.999893 0
M  V30 9145 C 849.669 -1.92473 0.687996 0
M  V30 9146 C 850.033 -1.76033 -0.766569 0
M  V30 9147 O 851.234 -2.41013 -1.19021 0
M  V30 9148 C 849.505 -3.40332 1.09129 0
M  V30 9149 S 851.064 -4.29496 0.898822 0
M  V30 9150 H 847.882 -0.665097 0.251329 0
M  V30 9151 H 850.484 -1.47454 1.28364 0
M  V30 9152 H 849.188 -3.49812 2.14615 0
M  V30 9153 H 848.719 -3.90365 0.487724 0
M  V30 9154 H 850.734 -4.95769 -0.206873 0
M  V30 9155 N 849.908 -0.773975 -1.37286 0
M  V30 9156 C 850.838 -0.175782 -2.32837 0
M  V30 9157 C 851.819 0.680603 -1.5589 0
M  V30 9158 O 853.004 0.617607 -1.84117 0
M  V30 9159 C 850.134 0.702388 -3.40123 0
M  V30 9160 C 849.088 -0.0528687 -4.27967 0
M  V30 9161 C 848.414 0.944891 -5.26285 0
M  V30 9162 C 849.714 -1.23316 -5.07534 0
M  V30 9163 H 851.408 -0.974016 -2.83114 0
M  V30 9164 H 848.954 -0.469826 -1.3612 0
M  V30 9165 H 850.907 1.13069 -4.05947 0
M  V30 9166 H 849.631 1.53316 -2.88378 0
M  V30 9167 H 848.29 -0.461978 -3.63678 0
M  V30 9168 H 847.938 1.77028 -4.70819 0
M  V30 9169 H 847.638 0.444079 -5.8592 0
M  V30 9170 H 849.162 1.37209 -5.94984 0
M  V30 9171 H 850.576 -0.881395 -5.66484 0
M  V30 9172 H 848.973 -1.66621 -5.76504 0
M  V30 9173 H 850.043 -2.03617 -4.40077 0
M  V30 9174 N 851.386 1.48609 -0.524698 0
M  V30 9175 C 852.318 2.27508 0.278 0
M  V30 9176 C 853.331 1.35042 0.909258 0
M  V30 9177 O 854.52 1.60136 0.788592 0
M  V30 9178 C 851.62 3.08247 1.40843 0
M  V30 9179 C 850.793 4.28455 0.880083 0
M  V30 9180 C 849.852 4.91048 1.891 0
M  V30 9181 O 848.878 5.5042 1.45005 0
M  V30 9182 N 850.08 4.82816 3.22288 0
M  V30 9183 H 852.845 2.97037 -0.398642 0
M  V30 9184 H 850.406 1.57876 -0.358698 0
M  V30 9185 H 852.398 3.46992 2.08276 0
M  V30 9186 H 850.968 2.41173 1.98883 0
M  V30 9187 H 850.188 3.94189 0.0299228 0
M  V30 9188 H 851.476 5.06279 0.505881 0
M  V30 9189 H 850.874 4.3572 3.60783 0
M  V30 9190 H 849.431 5.25676 3.85368 0
M  V30 9191 N 852.864 0.259585 1.55447 0
M  V30 9192 C 853.827 -0.621359 2.20617 0
M  V30 9193 C 854.827 -1.09317 1.17925 0
M  V30 9194 O 856.017 -0.995842 1.42929 0
M  V30 9195 C 853.149 -1.85546 2.85982 0
M  V30 9196 H 854.342 -0.0525833 2.99854 0
M  V30 9197 H 851.895 0.0101055 1.56297 0
M  V30 9198 H 852.63 -2.46515 2.10715 0
M  V30 9199 H 852.415 -1.52523 3.61219 0
M  V30 9200 H 853.905 -2.48227 3.35817 0
M  V30 9201 N 854.342 -1.57594 -0.0133615 0
M  V30 9202 C 855.619 -1.81173 -0.737273 0
M  V30 9203 C 855.999 -0.861395 -1.92726 0
M  V30 9204 O 855.347 0.0929324 -2.28311 0
M  V30 9205 C 855.557 -3.29314 -1.15557 0
M  V30 9206 C 856.905 -3.94707 -1.56498 0
M  V30 9207 O 857.929 -3.33557 -1.24973 0
M  V30 9208 O 856.788 -5.02402 -2.15069 0
M  V30 9209 H 853.882 -0.745575 -0.357837 0
M  V30 9210 H 856.428 -1.69696 0.0110674 0
M  V30 9211 H 855.2 -3.90096 -0.30677 0
M  V30 9212 H 854.823 -3.45739 -1.96343 0
M  V30 9213 N 855.82 0.285905 -1.54985 0
M  V30 9214 C 857.069 1.01691 -1.74189 0
M  V30 9215 C 857.382 1.87908 -0.543135 0
M  V30 9216 O 858.588 2.64389 -0.617305 0
M  V30 9217 C 857.044 1.85785 -3.0824 0
M  V30 9218 C 856.652 1.04497 -4.35642 0
M  V30 9219 C 858.396 2.58393 -3.36798 0
M  V30 9220 C 856.303 1.87955 -5.60738 0
M  V30 9221 H 855.233 0.383396 -0.649248 0
M  V30 9222 H 857.884 0.27317 -1.81455 0
M  V30 9223 H 856.266 2.64205 -2.94978 0
M  V30 9224 H 857.44 0.305847 -4.59784 0
M  V30 9225 H 855.755 0.434023 -4.14132 0
M  V30 9226 H 858.352 3.21214 -4.27464 0
M  V30 9227 H 858.695 3.28011 -2.56349 0
M  V30 9228 H 859.228 1.87012 -3.511 0
M  V30 9229 H 855.967 1.22781 -6.43898 0
M  V30 9230 H 855.487 2.59499 -5.40759 0
M  V30 9231 H 857.166 2.45636 -5.98558 0
M  V30 9232 N 857.298 1.47698 0.54982 0
M  V30 9233 C 858.538 1.56286 1.31735 0
M  V30 9234 C 858.902 0.223042 1.907 0
M  V30 9235 O 860.103 0.183798 2.68171 0
M  V30 9236 C 858.374 2.65522 2.39234 0
M  V30 9237 S 859.933 2.93742 3.25977 0
M  V30 9238 H 856.751 0.551795 0.448378 0
M  V30 9239 H 859.353 1.85118 0.628629 0
M  V30 9240 H 858.057 3.61457 1.94362 0
M  V30 9241 H 857.588 2.38528 3.12838 0
M  V30 9242 H 859.603 2.31522 4.38876 0
M  V30 9243 N 858.776 -0.797141 1.35954 0
M  V30 9244 C 859.706 -1.92387 1.32323 0
M  V30 9245 C 860.687 -1.68967 0.196007 0
M  V30 9246 O 861.872 -1.90193 0.39245 0
M  V30 9247 C 859.002 -3.29286 1.10398 0
M  V30 9248 C 857.956 -3.67212 2.19862 0
M  V30 9249 C 857.282 -5.02377 1.8309 0
M  V30 9250 C 858.582 -3.76602 3.61896 0
M  V30 9251 H 860.276 -1.95683 2.26602 0
M  V30 9252 H 857.822 -0.94007 1.09081 0
M  V30 9253 H 859.775 -4.07721 1.06495 0
M  V30 9254 H 858.499 -3.26358 0.125668 0
M  V30 9255 H 857.158 -2.91069 2.22878 0
M  V30 9256 H 856.806 -4.95961 0.838527 0
M  V30 9257 H 856.506 -5.28722 2.56372 0
M  V30 9258 H 858.03 -5.8324 1.80729 0
M  V30 9259 H 859.444 -4.45246 3.6115 0
M  V30 9260 H 857.841 -4.14425 4.34018 0
M  V30 9261 H 858.911 -2.77906 3.97361 0
M  V30 9262 N 860.254 -1.20106 -1.0204 0
M  V30 9263 C 861.204 -0.914145 -2.08872 0
M  V30 9264 C 862.188 0.124503 -1.60418 0
M  V30 9265 O 863.38 -0.0823521 -1.76808 0
M  V30 9266 C 860.509 -0.463897 -3.40151 0
M  V30 9267 C 859.595 -1.53576 -3.95317 0
M  V30 9268 N 859.986 -2.75726 -4.24038 0
M  V30 9269 C 858.284 -1.40103 -4.23423 0
M  V30 9270 C 858.985 -3.44838 -4.68468 0
M  V30 9271 N 857.961 -2.72245 -4.70514 0
M  V30 9272 H 861.763 -1.8424 -2.28982 0
M  V30 9273 H 859.277 -1.0945 -1.19977 0
M  V30 9274 H 861.274 -0.239766 -4.1621 0
M  V30 9275 H 859.934 0.457779 -3.21457 0
M  V30 9276 H 860.945 -3.12412 -4.13061 0
M  V30 9277 H 857.622 -0.543472 -4.13948 0
M  V30 9278 H 859.012 -4.49342 -4.99541 0
M  V30 9279 N 861.732 1.21287 -1.00634 0
M  V30 9280 C 862.662 2.25973 -0.588089 0
M  V30 9281 C 863.643 1.65527 0.391764 0
M  V30 9282 O 864.828 1.92179 0.279452 0
M  V30 9283 C 861.958 3.47197 0.0847336 0
M  V30 9284 C 860.912 4.20168 -0.815039 0
M  V30 9285 C 860.238 5.34699 -0.00855393 0
M  V30 9286 C 861.538 4.77416 -2.11828 0
M  V30 9287 H 863.232 2.61212 -1.46317 0
M  V30 9288 H 860.778 1.25563 -0.704985 0
M  V30 9289 H 862.731 4.19602 0.388821 0
M  V30 9290 H 861.455 3.11092 0.994456 0
M  V30 9291 H 860.114 3.49614 -1.10297 0
M  V30 9292 H 859.762 4.94837 0.902499 0
M  V30 9293 H 859.462 5.84449 -0.607664 0
M  V30 9294 H 860.986 6.09914 0.289317 0
M  V30 9295 H 862.4 5.41694 -1.87725 0
M  V30 9296 H 860.797 5.37561 -2.66736 0
M  V30 9297 H 861.867 3.96724 -2.78816 0
M  V30 9298 N 863.21 0.781244 1.36873 0
M  V30 9299 C 864.16 0.147313 2.27524 0
M  V30 9300 C 865.144 -0.663928 1.46563 0
M  V30 9301 O 866.336 -0.525343 1.69024 0
M  V30 9302 C 863.465 -0.723511 3.35589 0
M  V30 9303 C 862.551 0.0960763 4.23991 0
M  V30 9304 N 862.942 1.14649 4.92635 0
M  V30 9305 C 861.24 -0.126397 4.45821 0
M  V30 9306 C 861.941 1.64474 5.57964 0
M  V30 9307 N 860.917 0.955316 5.3514 0
M  V30 9308 H 864.719 0.951406 2.78075 0
M  V30 9309 H 862.233 0.619913 1.50103 0
M  V30 9310 H 864.23 -1.19351 3.99451 0
M  V30 9311 H 862.89 -1.52624 2.86594 0
M  V30 9312 H 863.901 1.5288 4.94821 0
M  V30 9313 H 860.578 -0.900284 4.07678 0
M  V30 9314 H 861.968 2.52124 6.22803 0
M  V30 9315 N 864.689 -1.48329 0.532571 0
M  V30 9316 C 866.105 -1.58458 0.190605 0
M  V30 9317 C 866.305 -1.53427 -1.30623 0
M  V30 9318 O 865.361 -1.4247 -2.08467 0
M  V30 9319 C 866.674 -2.89989 0.79543 0
M  V30 9320 C 868.222 -3.03523 0.7644 0
M  V30 9321 C 868.697 -4.37718 1.34785 0
M  V30 9322 N 870.188 -4.44292 1.30993 0
M  V30 9323 C 870.923 -5.4664 1.73124 0
M  V30 9324 N 870.419 -6.5593 2.22997 0
M  V30 9325 N 872.212 -5.37538 1.64346 0
M  V30 9326 H 864.363 -1.49842 1.50537 0
M  V30 9327 H 866.626 -0.71164 0.626316 0
M  V30 9328 H 866.332 -2.99333 1.84642 0
M  V30 9329 H 866.206 -3.76203 0.27403 0
M  V30 9330 H 868.593 -2.93789 -0.277831 0
M  V30 9331 H 868.674 -2.18912 1.3233 0
M  V30 9332 H 868.318 -4.48206 2.38902 0
M  V30 9333 H 868.248 -5.21019 0.764609 0
M  V30 9334 H 870.739 -3.65897 0.944868 0
M  V30 9335 H 871.052 -7.30167 2.53133 0
M  V30 9336 H 869.397 -6.56886 2.26992 0
M  V30 9337 H 872.588 -4.51052 1.25178 0
M  V30 9338 H 872.761 -6.17169 1.97501 0
M  V30 9339 N 866.167 -0.267825 -1.55308 0
M  V30 9340 C 867.13 0.60965 -2.20943 0
M  V30 9341 C 868.13 1.0869 -1.18504 0
M  V30 9342 O 869.32 0.988248 -1.43455 0
M  V30 9343 C 866.452 1.84027 -2.86961 0
M  V30 9344 H 867.645 0.0366806 -2.99878 0
M  V30 9345 H 865.198 -0.0183941 -1.56289 0
M  V30 9346 H 865.933 2.45394 -2.1202 0
M  V30 9347 H 865.718 1.50605 -3.62023 0
M  V30 9348 H 867.208 2.46442 -3.37129 0
M  V30 9349 N 867.645 1.57599 0.00500368 0
M  V30 9350 C 868.575 2.11143 0.99705 0
M  V30 9351 C 869.556 1.0194 1.3617 0
M  V30 9352 O 870.741 1.29596 1.44632 0
M  V30 9353 C 867.871 2.61062 2.2905 0
M  V30 9354 C 866.825 3.74745 2.0676 0
M  V30 9355 C 866.151 4.10961 3.42075 0
M  V30 9356 C 867.451 5.02222 1.43424 0
M  V30 9357 H 869.145 2.94281 0.551251 0
M  V30 9358 H 866.691 1.41565 0.263715 0
M  V30 9359 H 868.644 2.97146 2.98801 0
M  V30 9360 H 867.368 1.75038 2.75734 0
M  V30 9361 H 866.027 3.39047 1.39436 0
M  V30 9362 H 865.675 3.21968 3.86453 0
M  V30 9363 H 865.375 4.87549 3.27979 0
M  V30 9364 H 866.899 4.49599 4.1315 0
M  V30 9365 H 868.313 5.36109 2.03125 0
M  V30 9366 H 866.71 5.83581 1.39831 0
M  V30 9367 H 867.78 4.83224 0.40285 0
M  V30 9368 N 869.123 -0.277682 1.55134 0
M  V30 9369 C 870.053 -1.34742 1.90701 0
M  V30 9370 C 871.034 -1.51757 0.768354 0
M  V30 9371 O 872.219 -1.64879 1.02609 0
M  V30 9372 C 869.349 -2.70775 2.17481 0
M  V30 9373 C 868.303 -2.68497 3.33307 0
M  V30 9374 C 867.629 -4.08037 3.45557 0
M  V30 9375 C 868.929 -2.28178 4.69821 0
M  V30 9376 H 870.623 -1.05224 2.803 0
M  V30 9377 H 868.169 -0.504738 1.34864 0
M  V30 9378 H 870.122 -3.45719 2.40949 0
M  V30 9379 H 868.846 -3.01867 1.24676 0
M  V30 9380 H 867.505 -1.9601 3.09799 0
M  V30 9381 H 867.153 -4.36344 2.50226 0
M  V30 9382 H 866.853 -4.07409 4.23429 0
M  V30 9383 H 868.377 -4.84726 3.71312 0
M  V30 9384 H 869.791 -2.92843 4.92865 0
M  V30 9385 H 868.188 -2.3872 5.50575 0
M  V30 9386 H 869.258 -1.23308 4.6896 0
M  V30 9387 N 870.601 -1.47988 -0.541979 0
M  V30 9388 C 871.533 -1.5769 -1.66332 0
M  V30 9389 C 872.546 -0.461994 -1.56107 0
M  V30 9390 O 873.735 -0.732306 -1.62787 0
M  V30 9391 C 870.835 -1.47939 -3.04905 0
M  V30 9392 C 870.008 -2.74263 -3.40733 0
M  V30 9393 C 869.067 -2.58133 -4.58534 0
M  V30 9394 O 868.093 -3.31991 -4.62354 0
M  V30 9395 N 869.295 -1.6696 -5.55972 0
M  V30 9396 H 872.06 -2.54389 -1.5845 0
M  V30 9397 H 869.621 -1.4456 -0.728979 0
M  V30 9398 H 871.613 -1.34861 -3.81569 0
M  V30 9399 H 870.183 -0.592626 -3.06931 0
M  V30 9400 H 869.403 -3.01992 -2.53366 0
M  V30 9401 H 870.691 -3.58094 -3.6145 0
M  V30 9402 H 870.089 -1.06134 -5.55655 0
M  V30 9403 H 868.646 -1.59826 -6.31901 0
M  V30 9404 N 872.079 0.78992 -1.36375 0
M  V30 9405 C 873.029 1.89227 -1.27189 0
M  V30 9406 C 874.013 1.60067 -0.163498 0
M  V30 9407 O 875.205 1.72507 -0.396262 0
M  V30 9408 C 872.334 3.26431 -1.06292 0
M  V30 9409 C 871.42 3.61602 -2.21596 0
M  V30 9410 N 871.811 3.68086 -3.4691 0
M  V30 9411 C 870.109 3.9166 -2.1335 0
M  V30 9412 C 870.81 3.99481 -4.22835 0
M  V30 9413 N 869.786 4.14438 -3.5177 0
M  V30 9414 H 873.588 1.92465 -2.22113 0
M  V30 9415 H 871.102 0.985414 -1.29087 0
M  V30 9416 H 873.099 4.05267 -0.97798 0
M  V30 9417 H 871.759 3.24468 -0.122676 0
M  V30 9418 H 872.77 3.50743 -3.81051 0
M  V30 9419 H 869.447 3.97626 -1.27279 0
M  V30 9420 H 870.837 4.11425 -5.31205 0
M  V30 9421 N 873.557 1.20646 1.01402 0
M  V30 9422 C 874.797 1.02951 1.7658 0
M  V30 9423 C 875.161 -0.430522 1.87111 0
M  V30 9424 O 876.362 -0.727727 2.58762 0
M  V30 9425 C 874.633 1.69728 3.14527 0
M  V30 9426 S 876.192 1.6717 4.05709 0
M  V30 9427 H 873.01 0.36911 0.607683 0
M  V30 9428 H 875.612 1.53243 1.21395 0
M  V30 9429 H 874.316 2.75162 3.0449 0
M  V30 9430 H 873.847 1.19578 3.74786 0
M  V30 9431 H 875.862 0.706397 4.91146 0
M  V30 9432 N 875.035 -1.20752 1.01276 0
M  V30 9433 C 876.446 -1.7175 0.732033 0
M  V30 9434 C 876.797 -1.8131 -0.749733 0
M  V30 9435 O 875.922 -1.47301 -1.58529 0
M  V30 9436 C 876.517 -3.11936 1.32217 0
M  V30 9437 C 875.076 -3.6026 1.09039 0
M  V30 9438 C 874.223 -2.37571 1.43022 0
M  V30 9439 H 877.174 -1.0582 1.1827 0
M  V30 9440 H 877.195 -3.73802 0.710771 0
M  V30 9441 H 876.707 -3.04946 2.40061 0
M  V30 9442 H 874.808 -3.72588 0.0294464 0
M  V30 9443 H 874.921 -4.45295 1.76775 0
M  V30 9444 H 873.285 -2.40128 0.849159 0
M  V30 9445 H 874.068 -2.33225 2.51915 0
M  V30 9446 N 876.513 -0.788492 -1.36457 0
M  V30 9447 C 877.476 -0.192209 -2.28393 0
M  V30 9448 C 878.476 0.609916 -1.48784 0
M  V30 9449 O 879.666 0.431046 -1.68783 0
M  V30 9450 C 876.798 0.734096 -3.32902 0
M  V30 9451 H 877.991 -1.00284 -2.82636 0
M  V30 9452 H 875.544 -0.557852 -1.46006 0
M  V30 9453 H 876.279 1.5691 -2.83813 0
M  V30 9454 H 876.064 0.160875 -3.9177 0
M  V30 9455 H 877.554 1.1462 -4.01562 0
M  V30 9456 N 877.991 1.48044 -0.54043 0
M  V30 9457 C 879.238 2.02497 -0.0101567 0
M  V30 9458 C 879.566 1.41651 1.33286 0
M  V30 9459 O 878.821 0.555504 1.8765 0
M  V30 9460 C 879.12 3.57085 0.150008 0
M  V30 9461 C 878.786 4.36769 -1.11998 0
M  V30 9462 C 877.448 4.58261 -1.46801 0
M  V30 9463 C 879.8 4.82848 -1.96232 0
M  V30 9464 C 877.128 5.23079 -2.65717 0
M  V30 9465 C 879.48 5.48977 -3.14335 0
M  V30 9466 C 878.144 5.68705 -3.49472 0
M  V30 9467 H 877.414 0.740991 -0.00371661 0
M  V30 9468 H 880.061 1.77909 -0.708562 0
M  V30 9469 H 878.366 3.80572 0.931259 0
M  V30 9470 H 880.063 3.96851 0.575384 0
M  V30 9471 H 876.653 4.20309 -0.838957 0
M  V30 9472 H 880.837 4.66038 -1.70654 0
M  V30 9473 H 876.093 5.36549 -2.93129 0
M  V30 9474 H 880.267 5.83649 -3.79904 0
M  V30 9475 H 877.894 6.18703 -4.41713 0
M  V30 9476 N 879.47 0.276058 1.55163 0
M  V30 9477 C 880.695 -0.346648 2.04483 0
M  V30 9478 C 881.12 -1.48613 1.15308 0
M  V30 9479 O 880.478 -1.80663 0.151875 0
M  V30 9480 C 880.526 -0.804268 3.51517 0
M  V30 9481 O 879.63 -1.91143 3.65429 0
M  V30 9482 H 878.971 -0.0715251 0.660136 0
M  V30 9483 H 881.501 0.410631 2.00437 0
M  V30 9484 H 881.511 -1.09977 3.92898 0
M  V30 9485 H 880.186 0.0294123 4.1589 0
M  V30 9486 H 878.763 -1.61839 3.3595 0
M  V30 9487 N 880.948 -1.576 0.00335426 0
M  V30 9488 C 882.196 -1.90336 -0.679446 0
M  V30 9489 C 882.517 -0.877777 -1.74127 0
M  V30 9490 O 881.787 0.0843585 -1.95718 0
M  V30 9491 H 880.367 -0.702509 -0.253948 0
M  V30 9492 H 883.029 -1.94848 0.0450731 0
M  V30 9493 H 882.125 -2.90197 -1.14857 0
M  V30 9494 N 882.426 0.269451 -1.5528 0
M  V30 9495 C 883.389 1.31642 -1.87625 0
M  V30 9496 C 884.389 1.42182 -0.751058 0
M  V30 9497 O 885.579 1.41272 -1.01921 0
M  V30 9498 C 882.711 2.6973 -2.08467 0
M  V30 9499 H 883.904 1.0419 -2.81219 0
M  V30 9500 H 881.457 0.507685 -1.47825 0
M  V30 9501 H 882.192 3.02356 -1.17266 0
M  V30 9502 H 881.977 2.63465 -2.90394 0
M  V30 9503 H 883.467 3.4537 -2.34753 0
M  V30 9504 N 883.904 1.48273 0.534124 0
M  V30 9505 C 885.152 1.55771 1.28762 0
M  V30 9506 C 885.473 0.231575 1.9362 0
M  V30 9507 O 884.743 -0.746533 1.81118 0
M  V30 9508 H 883.323 0.573851 0.47823 0
M  V30 9509 H 885.985 1.84712 0.621888 0
M  V30 9510 H 885.081 2.33657 2.06908 0
M  V30 9511 N 885.382 -0.782676 1.36792 0
M  V30 9512 C 886.329 -1.89558 1.31667 0
M  V30 9513 C 887.299 -1.65076 0.184147 0
M  V30 9514 O 888.484 -1.87143 0.371753 0
M  V30 9515 C 885.624 -3.26469 1.11858 0
M  V30 9516 C 884.737 -3.62978 2.34245 0
M  V30 9517 C 883.872 -4.89041 2.07394 0
M  V30 9518 C 882.911 -5.18249 3.25706 0
M  V30 9519 N 882.048 -6.35497 2.98476 0
M  V30 9520 H 886.888 -1.93274 2.26824 0
M  V30 9521 H 884.425 -0.945057 1.12726 0
M  V30 9522 H 886.383 -4.05431 0.983968 0
M  V30 9523 H 885.013 -3.22158 0.203531 0
M  V30 9524 H 884.065 -2.79087 2.58485 0
M  V30 9525 H 885.377 -3.80507 3.22514 0
M  V30 9526 H 884.531 -5.75883 1.90901 0
M  V30 9527 H 883.27 -4.73594 1.16446 0
M  V30 9528 H 882.275 -4.29887 3.4275 0
M  V30 9529 H 883.5 -5.35611 4.1749 0
M  V30 9530 H 881.446 -6.21429 2.10146 0
M  V30 9531 H 881.363 -6.5339 3.80286 0
M  V30 9532 H 882.631 -7.25304 2.85577 0
M  V30 9533 N 886.86 -1.21182 -1.00761 0
M  V30 9534 C 888.108 -1.02543 -1.74153 0
M  V30 9535 C 888.429 0.442372 -1.89916 0
M  V30 9536 O 887.699 1.31927 -1.44818 0
M  V30 9537 H 886.279 -0.37644 -0.645214 0
M  V30 9538 H 888.941 -1.52446 -1.21434 0
M  V30 9539 H 888.037 -1.49122 -2.7417 0
M  V30 9540 N 888.338 1.20213 -1.01915 0
M  V30 9541 C 889.578 1.91354 -0.71853 0
M  V30 9542 C 889.942 1.77231 0.738466 0
M  V30 9543 O 891.143 2.42876 1.15172 0
M  V30 9544 C 889.414 3.38552 -1.14529 0
M  V30 9545 S 890.973 4.28011 -0.967037 0
M  V30 9546 H 887.791 0.661015 -0.261879 0
M  V30 9547 H 890.393 1.45394 -1.30694 0
M  V30 9548 H 889.097 3.46354 -2.20153 0
M  V30 9549 H 888.628 3.8954 -0.549766 0
M  V30 9550 H 890.643 4.96035 0.127974 0
M  V30 9551 N 889.816 0.795718 1.36037 0
M  V30 9552 C 890.746 0.212803 2.32528 0
M  V30 9553 C 891.727 -0.655716 1.56953 0
M  V30 9554 O 892.912 -0.588238 1.85077 0
M  V30 9555 C 890.042 -0.648189 3.41198 0
M  V30 9556 C 888.996 0.120948 4.27829 0
M  V30 9557 C 888.322 -0.861044 5.27722 0
M  V30 9558 C 889.622 1.31375 5.05508 0
M  V30 9559 H 891.316 1.01893 2.81528 0
M  V30 9560 H 888.862 0.491422 1.35355 0
M  V30 9561 H 890.815 -1.06597 4.07695 0
M  V30 9562 H 889.539 -1.48709 2.9078 0
M  V30 9563 H 888.198 0.519777 3.62897 0
M  V30 9564 H 887.846 -1.69515 4.73575 0
M  V30 9565 H 887.546 -0.350808 5.86552 0
M  V30 9566 H 889.07 -1.27726 5.97092 0
M  V30 9567 H 890.484 0.971406 5.6501 0
M  V30 9568 H 888.881 1.75772 5.73781 0
M  V30 9569 H 889.951 2.10593 4.36782 0
M  V30 9570 N 891.294 -1.47756 0.548274 0
M  V30 9571 C 892.71 -1.58247 0.207401 0
M  V30 9572 C 892.91 -1.54804 -1.28988 0
M  V30 9573 O 891.966 -1.44673 -2.06944 0
M  V30 9574 C 893.279 -2.89129 0.826142 0
M  V30 9575 C 894.827 -3.02695 0.79655 0
M  V30 9576 C 895.302 -4.36264 1.3942 0
M  V30 9577 N 896.793 -4.42877 1.35698 0
M  V30 9578 C 897.528 -5.44773 1.78913 0
M  V30 9579 N 897.024 -6.53528 2.29942 0
M  V30 9580 N 898.817 -5.35765 1.70038 0
M  V30 9581 H 890.968 -1.48236 1.52117 0
M  V30 9582 H 893.231 -0.704957 0.633829 0
M  V30 9583 H 892.937 -2.97358 1.87806 0
M  V30 9584 H 892.811 -3.75891 0.313916 0
M  V30 9585 H 895.198 -2.94067 -0.246655 0
M  V30 9586 H 895.279 -2.17496 1.34644 0
M  V30 9587 H 894.923 -4.45646 2.43642 0
M  V30 9588 H 894.853 -5.20179 0.819827 0
M  V30 9589 H 897.344 -3.64874 0.983623 0
M  V30 9590 H 897.657 -7.27441 2.60863 0
M  V30 9591 H 896.002 -6.54442 2.33947 0
M  V30 9592 H 899.193 -4.49699 1.29955 0
M  V30 9593 H 899.366 -6.1504 2.04035 0
M  V30 9594 N 892.772 -0.284283 -1.55015 0
M  V30 9595 C 893.735 0.586182 -2.21577 0
M  V30 9596 C 894.735 1.07427 -1.1965 0
M  V30 9597 O 895.925 0.972977 -1.44495 0
M  V30 9598 C 893.057 1.80973 -2.88897 0
M  V30 9599 H 894.25 0.00487253 -2.999 0
M  V30 9600 H 891.803 -0.0349696 -1.56261 0
M  V30 9601 H 892.538 2.43131 -2.14611 0
M  V30 9602 H 892.323 1.46757 -3.636 0
M  V30 9603 H 893.813 2.42853 -3.39724 0
M  V30 9604 N 894.251 1.57596 -0.0117121 0
M  V30 9605 C 895.181 2.12188 0.9746 0
M  V30 9606 C 896.162 1.03379 1.35081 0
M  V30 9607 O 897.347 1.31123 1.4325 0
M  V30 9608 C 894.477 2.63477 2.26268 0
M  V30 9609 C 893.431 3.76917 2.02774 0
M  V30 9610 C 892.757 4.14566 3.37697 0
M  V30 9611 C 894.057 5.03715 1.38089 0
M  V30 9612 H 895.751 2.9485 0.520007 0
M  V30 9613 H 893.297 1.41836 0.248685 0
M  V30 9614 H 895.25 3.00299 2.95633 0
M  V30 9615 H 893.974 1.77953 2.73862 0
M  V30 9616 H 892.633 3.40507 1.35832 0
M  V30 9617 H 892.281 3.26048 3.83016 0
M  V30 9618 H 891.981 4.91 3.22789 0
M  V30 9619 H 893.505 4.53956 4.08358 0
M  V30 9620 H 894.919 5.38233 1.97428 0
M  V30 9621 H 893.316 5.85032 1.33634 0
M  V30 9622 H 894.386 4.83624 0.351575 0
M  V30 9623 N 895.729 -0.261212 1.5542 0
M  V30 9624 C 896.692 -1.30645 1.8832 0
M  V30 9625 C 897.692 -1.41782 0.758588 0
M  V30 9626 O 898.882 -1.40729 1.02669 0
M  V30 9627 C 896.014 -2.6862 2.09895 0
M  V30 9628 H 897.207 -1.02698 2.81768 0
M  V30 9629 H 894.76 -0.499838 1.48092 0
M  V30 9630 H 895.495 -3.0173 1.18868 0
M  V30 9631 H 895.28 -2.61921 2.91787 0
M  V30 9632 H 896.77 -3.44121 2.36581 0
M  V30 9633 N 897.207 -1.48554 -0.526253 0
M  V30 9634 C 898.453 -1.56994 -1.28378 0
M  V30 9635 C 898.786 -0.244701 -1.92652 0
M  V30 9636 O 898.061 0.749636 -1.79473 0
M  V30 9637 C 898.344 -2.71092 -2.37026 0
M  V30 9638 C 898.197 -4.13331 -1.77418 0
M  V30 9639 C 899.516 -2.80934 -3.38769 0
M  V30 9640 H 896.635 -0.571466 -0.465398 0
M  V30 9641 H 899.277 -1.80742 -0.585861 0
M  V30 9642 H 897.427 -2.50973 -2.96555 0
M  V30 9643 H 899.099 -4.44899 -1.21912 0
M  V30 9644 H 897.342 -4.20158 -1.07936 0
M  V30 9645 H 898.013 -4.88994 -2.56104 0
M  V30 9646 H 900.489 -2.9917 -2.892 0
M  V30 9647 H 899.365 -3.62489 -4.12181 0
M  V30 9648 H 899.626 -1.89244 -3.99549 0
M  V30 9649 N 898.685 0.775411 -1.37205 0
M  V30 9650 C 899.632 1.88857 -1.32671 0
M  V30 9651 C 900.602 1.64976 -0.192899 0
M  V30 9652 O 901.787 1.86944 -0.381673 0
M  V30 9653 C 898.927 3.25871 -1.13588 0
M  V30 9654 C 898.04 3.61731 -2.36167 0
M  V30 9655 C 897.175 4.87934 -2.09985 0
M  V30 9656 C 896.214 5.16514 -3.2845 0
M  V30 9657 N 895.351 6.33905 -3.01842 0
M  V30 9658 H 900.191 1.92068 -2.27846 0
M  V30 9659 H 897.728 0.939066 -1.13225 0
M  V30 9660 H 899.686 4.04903 -1.00546 0
M  V30 9661 H 898.316 3.22045 -0.220613 0
M  V30 9662 H 897.368 2.77712 -2.59962 0
M  V30 9663 H 898.68 3.78792 -3.24528 0
M  V30 9664 H 897.834 5.74863 -1.93953 0
M  V30 9665 H 896.573 4.7297 -1.18956 0
M  V30 9666 H 895.578 4.28063 -3.45025 0
M  V30 9667 H 896.803 5.33389 -4.20325 0
M  V30 9668 H 894.749 6.20306 -2.13439 0
M  V30 9669 H 894.666 6.51364 -3.83746 0
M  V30 9670 H 895.934 7.23779 -2.8942 0
M  V30 9671 N 900.163 1.21714 1.00117 0
M  V30 9672 C 901.41 1.0367 1.73951 0
M  V30 9673 C 901.738 -0.429289 1.89703 0
M  V30 9674 O 900.993 -1.33475 1.43119 0
M  V30 9675 C 901.292 1.68345 3.15269 0
M  V30 9676 C 900.958 3.18214 3.19454 0
M  V30 9677 C 899.62 3.59109 3.20303 0
M  V30 9678 C 901.972 4.14179 3.16394 0
M  V30 9679 C 899.3 4.94467 3.15783 0
M  V30 9680 C 901.652 5.49502 3.13416 0
M  V30 9681 C 900.316 5.8979 3.12577 0
M  V30 9682 H 899.586 0.379355 0.63653 0
M  V30 9683 H 902.233 1.51361 1.17312 0
M  V30 9684 H 900.538 1.12957 3.75164 0
M  V30 9685 H 902.235 1.51882 3.71124 0
M  V30 9686 H 898.825 2.85646 3.19538 0
M  V30 9687 H 903.009 3.83607 3.14895 0
M  V30 9688 H 898.265 5.24923 3.13473 0
M  V30 9689 H 902.439 6.23595 3.10003 0
M  V30 9690 H 900.066 6.94643 3.08829 0
M  V30 9691 N 901.641 -1.19671 1.02551 0
M  V30 9692 C 902.588 -2.22773 0.603394 0
M  V30 9693 C 903.558 -1.61669 -0.381081 0
M  V30 9694 O 904.743 -1.88756 -0.278505 0
M  V30 9695 C 901.883 -3.45073 -0.0431034 0
M  V30 9696 C 900.996 -4.20574 0.987006 0
M  V30 9697 C 900.131 -5.30291 0.310626 0
M  V30 9698 C 899.17 -5.97545 1.32688 0
M  V30 9699 N 898.307 -6.98833 0.676542 0
M  V30 9700 H 903.147 -2.58238 1.48719 0
M  V30 9701 H 900.684 -1.26881 0.744286 0
M  V30 9702 H 902.642 -4.14925 -0.435141 0
M  V30 9703 H 901.272 -3.10274 -0.890495 0
M  V30 9704 H 900.324 -3.497 1.49713 0
M  V30 9705 H 901.636 -4.66736 1.75952 0
M  V30 9706 H 900.79 -6.06547 -0.136438 0
M  V30 9707 H 899.529 -4.8519 -0.49412 0
M  V30 9708 H 898.534 -5.20043 1.78424 0
M  V30 9709 H 899.759 -6.4473 2.13306 0
M  V30 9710 H 897.705 -6.55911 -0.108172 0
M  V30 9711 H 897.622 -7.43168 1.38699 0
M  V30 9712 H 898.89 -7.79088 0.253367 0
M  V30 9713 N 903.119 -0.802921 -1.35613 0
M  V30 9714 C 904.347 -0.39393 -2.03115 0
M  V30 9715 C 904.762 0.993961 -1.60517 0
M  V30 9716 O 904.119 1.63984 -0.800973 0
M  V30 9717 C 904.17 -0.463486 -3.58516 0
M  V30 9718 O 903.891 -1.79666 -3.99565 0
M  V30 9719 C 905.392 -0.0468377 -4.43275 0
M  V30 9720 H 902.612 -0.160519 -0.651517 0
M  V30 9721 H 905.156 -1.08552 -1.73311 0
M  V30 9722 H 903.311 0.179821 -3.86982 0
M  V30 9723 H 903.725 -1.75688 -4.942 0
M  V30 9724 H 905.199 -0.146626 -5.51805 0
M  V30 9725 H 905.676 1.00741 -4.2749 0
M  V30 9726 H 906.282 -0.663158 -4.20098 0
M  V30 9727 N 904.597 1.47463 -0.556102 0
M  V30 9728 C 905.825 2.06868 -0.0364585 0
M  V30 9729 C 906.24 1.40893 1.25677 0
M  V30 9730 O 905.597 0.505083 1.75371 0
M  V30 9731 C 905.648 3.61128 0.163984 0
M  V30 9732 O 905.369 4.24629 -1.07803 0
M  V30 9733 C 906.87 4.37397 0.721036 0
M  V30 9734 H 904.09 0.669466 -0.0453399 0
M  V30 9735 H 906.634 1.89482 -0.769198 0
M  V30 9736 H 904.789 3.78031 0.84685 0
M  V30 9737 H 905.203 5.17149 -0.875067 0
M  V30 9738 H 906.677 5.46016 0.810584 0
M  V30 9739 H 907.154 4.03604 1.73206 0
M  V30 9740 H 907.76 4.25236 0.073904 0
M  V30 9741 N 906.075 0.2925 1.54862 0
M  V30 9742 C 907.025 -0.60226 2.19902 0
M  V30 9743 C 908.009 -1.10535 1.16923 0
M  V30 9744 O 909.201 -1.04753 1.42674 0
M  V30 9745 C 906.33 -1.77774 2.93686 0
M  V30 9746 C 905.416 -1.29101 4.03972 0
M  V30 9747 N 905.807 -0.521671 5.03103 0
M  V30 9748 C 904.105 -1.57248 4.17359 0
M  V30 9749 C 904.806 -0.263545 5.81103 0
M  V30 9750 N 903.782 -0.840937 5.37056 0
M  V30 9751 H 907.584 -0.00682274 2.93899 0
M  V30 9752 H 905.098 0.0968604 1.62111 0
M  V30 9753 H 907.095 -2.43021 3.38743 0
M  V30 9754 H 905.755 -2.37696 2.21203 0
M  V30 9755 H 906.766 -0.167364 5.1763 0
M  V30 9756 H 903.443 -2.1798 3.56077 0
M  V30 9757 H 904.833 0.353783 6.70968 0
M  V30 9758 N 907.553 -1.57587 0.0200696 0
M  V30 9759 C 908.516 -2.08595 -0.949767 0
M  V30 9760 C 909.516 -0.999215 -1.25985 0
M  V30 9761 O 910.706 -1.26115 -1.2017 0
M  V30 9762 C 907.838 -2.54424 -2.26895 0
M  V30 9763 H 909.031 -2.95563 -0.508161 0
M  V30 9764 H 906.584 -1.54631 -0.227798 0
M  V30 9765 H 907.319 -1.70758 -2.75703 0
M  V30 9766 H 907.104 -3.3381 -2.05702 0
M  V30 9767 H 908.594 -2.94144 -2.96427 0
M  V30 9768 N 909.032 0.252966 -1.55557 0
M  V30 9769 C 910.443 0.822503 -1.67606 0
M  V30 9770 C 910.794 1.86265 -0.616411 0
M  V30 9771 O 909.919 2.15082 0.238447 0
M  V30 9772 C 910.514 1.49866 -3.03852 0
M  V30 9773 C 909.073 2.01597 -3.17861 0
M  V30 9774 C 908.22 0.864943 -2.63465 0
M  V30 9775 H 911.171 0.0288958 -1.58674 0
M  V30 9776 H 911.192 2.36646 -2.97958 0
M  V30 9777 H 910.704 0.741378 -3.80953 0
M  V30 9778 H 908.805 2.80224 -2.45571 0
M  V30 9779 H 908.918 2.21752 -4.24692 0
M  V30 9780 H 907.282 1.2638 -2.21134 0
M  V30 9781 H 908.065 0.120847 -3.43087 0
M  V30 9782 N 910.51 1.48831 0.518367 0
M  V30 9783 C 911.921 1.50842 1.10016 0
M  V30 9784 C 912.272 0.284744 1.94123 0
M  V30 9785 O 911.397 -0.607088 2.0771 0
M  V30 9786 C 911.992 2.73329 2.00191 0
M  V30 9787 C 910.551 2.78175 2.53566 0
M  V30 9788 C 909.698 2.4452 1.30786 0
M  V30 9789 H 912.649 1.55779 0.303073 0
M  V30 9790 H 912.67 2.52506 2.84642 0
M  V30 9791 H 912.182 3.62374 1.3895 0
M  V30 9792 H 910.283 1.93368 3.18496 0
M  V30 9793 H 910.396 3.79905 2.91906 0
M  V30 9794 H 908.76 1.95924 1.62744 0
M  V30 9795 H 909.543 3.35819 0.712797 0
M  V30 9796 N 911.988 -0.768124 1.37614 0
M  V30 9797 C 913.236 -1.52379 1.3276 0
M  V30 9798 C 913.557 -1.94809 -0.0863564 0
M  V30 9799 O 912.827 -1.66568 -1.03112 0
M  V30 9800 H 911.407 -0.565179 0.488448 0
M  V30 9801 H 914.069 -0.913974 1.72141 0
M  V30 9802 H 913.165 -2.4215 1.96901 0
M  V30 9803 N 913.466 -1.22244 -0.994698 0
M  V30 9804 C 914.743 -0.954459 -1.70732 0
M  V30 9805 C 915.123 0.530945 -2.04314 0
M  V30 9806 O 914.471 1.49851 -1.72502 0
M  V30 9807 C 914.681 -1.85016 -2.95922 0
M  V30 9808 C 916.029 -2.10517 -3.68738 0
M  V30 9809 O 917.053 -1.82449 -3.05926 0
M  V30 9810 O 915.912 -2.58044 -4.81742 0
M  V30 9811 H 913.006 -0.35879 -0.745116 0
M  V30 9812 H 915.552 -1.33221 -1.0512 0
M  V30 9813 H 914.324 -2.85498 -2.67594 0
M  V30 9814 H 913.947 -1.47388 -3.69273 0
M  V30 9815 N 914.944 1.19125 -1.03184 0
M  V30 9816 C 916.172 1.92838 -0.74975 0
M  V30 9817 C 916.587 1.75667 0.691851 0
M  V30 9818 O 915.944 1.0805 1.47076 0
M  V30 9819 C 915.995 3.44509 -1.09525 0
M  V30 9820 O 915.716 3.6113 -2.48025 0
M  V30 9821 C 917.217 4.35338 -0.836397 0
M  V30 9822 H 914.437 0.61246 -0.274105 0
M  V30 9823 H 916.981 1.5118 -1.37712 0
M  V30 9824 H 915.136 3.83988 -0.513006 0
M  V30 9825 H 915.55 4.54959 -2.60984 0
M  V30 9826 H 917.024 5.4035 -1.12808 0
M  V30 9827 H 917.501 4.38602 0.229102 0
M  V30 9828 H 918.107 4.01544 -1.40152 0
M  V30 9829 N 916.422 0.810101 1.35185 0
M  V30 9830 C 917.352 0.237453 2.32289 0
M  V30 9831 C 918.333 -0.639032 1.5764 0
M  V30 9832 O 919.518 -0.568575 1.8569 0
M  V30 9833 C 916.648 -0.611964 3.41866 0
M  V30 9834 C 915.602 0.166318 4.27677 0
M  V30 9835 C 914.928 -0.805024 5.28605 0
M  V30 9836 C 916.228 1.36729 5.04086 0
M  V30 9837 H 917.922 1.04874 2.80432 0
M  V30 9838 H 915.468 0.505751 1.34826 0
M  V30 9839 H 917.421 -1.02267 4.08802 0
M  V30 9840 H 916.145 -1.45617 2.92341 0
M  V30 9841 H 914.804 0.558238 3.62325 0
M  V30 9842 H 914.452 -1.64483 4.75347 0
M  V30 9843 H 914.152 -0.288577 5.86891 0
M  V30 9844 H 915.676 -1.21386 5.98413 0
M  V30 9845 H 917.09 1.03128 5.63948 0
M  V30 9846 H 915.487 1.81848 5.71884 0
M  V30 9847 H 916.557 2.15214 4.34524 0
M  V30 9848 N 917.9 -1.47166 0.563914 0
M  V30 9849 C 919.146 -2.02756 0.0424338 0
M  V30 9850 C 919.479 -1.43662 -1.3067 0
M  V30 9851 O 918.754 -0.594676 -1.85186 0
M  V30 9852 C 919.037 -3.60074 -0.0434793 0
M  V30 9853 C 918.89 -4.29587 1.33323 0
M  V30 9854 C 920.209 -4.336 -0.753568 0
M  V30 9855 H 917.328 -0.736806 0.0168946 0
M  V30 9856 H 919.97 -1.75521 0.727496 0
M  V30 9857 H 918.12 -3.83409 -0.626906 0
M  V30 9858 H 919.792 -4.17573 1.96037 0
M  V30 9859 H 918.035 -3.8968 1.9061 0
M  V30 9860 H 918.706 -5.38218 1.22576 0
M  V30 9861 H 921.182 -4.15299 -0.258126 0
M  V30 9862 H 920.058 -5.43291 -0.782659 0
M  V30 9863 H 920.319 -4.03302 -1.81108 0
M  V30 9864 N 919.378 -0.300708 -1.54705 0
M  V30 9865 C 920.328 0.590589 -2.20218 0
M  V30 9866 C 921.312 1.09913 -1.17507 0
M  V30 9867 O 922.504 1.03995 -1.43227 0
M  V30 9868 C 919.633 1.76214 -2.94625 0
M  V30 9869 C 918.719 1.26957 -4.04651 0
M  V30 9870 N 919.11 0.494982 -5.03372 0
M  V30 9871 C 917.408 1.55033 -4.18188 0
M  V30 9872 C 918.109 0.232724 -5.81234 0
M  V30 9873 N 917.085 0.812443 -5.37494 0
M  V30 9874 H 920.887 -0.00876354 -2.93899 0
M  V30 9875 H 918.401 -0.105456 -1.62057 0
M  V30 9876 H 920.398 2.41221 -3.40027 0
M  V30 9877 H 919.058 2.36519 -2.22461 0
M  V30 9878 H 920.069 0.13991 -5.17711 0
M  V30 9879 H 916.746 2.16089 -3.57228 0
M  V30 9880 H 918.136 -0.389362 -6.70771 0
M  V30 9881 N 920.856 1.57574 -0.0284266 0
M  V30 9882 C 921.786 2.1321 0.952039 0
M  V30 9883 C 922.767 1.04806 1.33977 0
M  V30 9884 O 923.952 1.32635 1.41851 0
M  V30 9885 C 921.082 2.65862 2.23461 0
M  V30 9886 C 920.036 3.79047 1.98765 0
M  V30 9887 C 919.362 4.18124 3.33281 0
M  V30 9888 C 920.662 5.05151 1.32739 0
M  V30 9889 H 922.356 2.95385 0.488705 0
M  V30 9890 H 919.902 1.42092 0.233628 0
M  V30 9891 H 921.855 3.03417 2.92431 0
M  V30 9892 H 920.579 1.80848 2.71959 0
M  V30 9893 H 919.238 3.41929 1.32213 0
M  V30 9894 H 918.886 3.30092 3.79537 0
M  V30 9895 H 918.586 4.94396 3.17563 0
M  V30 9896 H 920.11 4.58262 4.0352 0
M  V30 9897 H 921.524 5.40297 1.91708 0
M  V30 9898 H 919.921 5.86416 1.27421 0
M  V30 9899 H 920.991 4.83969 0.300261 0
M  V30 9900 N 922.334 -0.244713 1.55689 0
M  V30 9901 C 923.582 -0.970525 1.77272 0
M  V30 9902 C 923.903 -1.85771 0.592804 0
M  V30 9903 O 923.173 -1.91952 -0.391323 0
M  V30 9904 H 921.753 -0.361342 0.653789 0
M  V30 9905 H 924.415 -0.262134 1.93129 0
M  V30 9906 H 923.511 -1.59096 2.68505 0
M  V30 9907 N 923.813 -1.49104 -0.510467 0
M  V30 9908 C 925.09 -1.48609 -1.27179 0
M  V30 9909 C 925.47 -0.208537 -2.10067 0
M  V30 9910 O 924.818 0.809335 -2.13687 0
M  V30 9911 C 925.028 -2.75953 -2.1366 0
M  V30 9912 C 926.376 -3.25067 -2.73161 0
M  V30 9913 O 927.4 -2.77005 -2.23934 0
M  V30 9914 O 926.259 -4.08747 -3.62751 0
M  V30 9915 H 923.353 -0.594374 -0.57502 0
M  V30 9916 H 925.899 -1.61358 -0.525515 0
M  V30 9917 H 924.671 -3.60434 -1.52325 0
M  V30 9918 H 924.294 -2.66019 -2.95499 0
M  V30 9919 N 925.291 0.760815 -1.38019 0
M  V30 9920 C 926.537 1.52198 -1.34028 0
M  V30 9921 C 926.87 1.94067 0.0718309 0
M  V30 9922 O 926.145 1.64895 1.0315 0
M  V30 9923 C 926.428 2.77954 -2.2894 0
M  V30 9924 C 926.281 2.42269 -3.7898 0
M  V30 9925 C 927.6 3.79943 -2.22107 0
M  V30 9926 H 924.719 0.552131 -0.488181 0
M  V30 9927 H 927.361 0.871971 -1.6881 0
M  V30 9928 H 925.511 3.33419 -1.9941 0
M  V30 9929 H 927.183 1.92635 -4.19153 0
M  V30 9930 H 925.426 1.74822 -3.97014 0
M  V30 9931 H 926.097 3.32211 -4.4084 0
M  V30 9932 H 928.573 3.34 -2.4816 0
M  V30 9933 H 927.449 4.6564 -2.90639 0
M  V30 9934 H 927.71 4.25004 -1.21753 0
M  V30 9935 N 926.769 1.22769 0.988202 0
M  V30 9936 C 927.699 1.02627 2.09738 0
M  V30 9937 C 928.68 -0.0543211 1.70013 0
M  V30 9938 O 929.865 0.108811 1.93895 0
M  V30 9939 C 926.995 0.608302 3.41931 0
M  V30 9940 C 925.949 1.63536 3.95525 0
M  V30 9941 C 925.275 1.07308 5.23822 0
M  V30 9942 C 926.575 3.02649 4.25677 0
M  V30 9943 H 928.269 1.954 2.26847 0
M  V30 9944 H 925.815 0.940888 1.09011 0
M  V30 9945 H 927.768 0.454478 4.18942 0
M  V30 9946 H 926.492 -0.355095 3.24664 0
M  V30 9947 H 925.151 1.77704 3.20651 0
M  V30 9948 H 924.799 0.100894 5.02899 0
M  V30 9949 H 924.499 1.75925 5.60646 0
M  V30 9950 H 926.023 0.930938 6.03462 0
M  V30 9951 H 927.437 2.91828 4.93467 0
M  V30 9952 H 925.834 3.68434 4.73684 0
M  V30 9953 H 926.904 3.52228 3.33262 0
M  V30 9954 N 928.247 -1.18576 1.03814 0
M  V30 9955 C 929.472 -1.92978 0.759873 0
M  V30 9956 C 929.897 -1.75514 -0.676486 0
M  V30 9957 O 929.255 -1.06359 -1.46824 0
M  V30 9958 C 929.303 -3.42507 1.12788 0
M  V30 9959 O 928.407 -4.1163 0.251886 0
M  V30 9960 H 927.748 -0.602129 0.279886 0
M  V30 9961 H 930.278 -1.50383 1.3873 0
M  V30 9962 H 930.288 -3.93206 1.08872 0
M  V30 9963 H 928.963 -3.5454 2.17427 0
M  V30 9964 H 927.54 -3.7125 0.350441 0
M  V30 9965 N 929.725 -0.817259 -1.34754 0
M  V30 9966 C 930.953 -0.415451 -2.02686 0
M  V30 9967 C 931.368 0.97688 -1.61563 0
M  V30 9968 O 930.725 1.63125 -0.818321 0
M  V30 9969 C 930.776 -0.501486 -3.58005 0
M  V30 9970 O 930.497 -1.83893 -3.97637 0
M  V30 9971 C 931.998 -0.0938504 -4.43201 0
M  V30 9972 H 929.218 -0.16742 -0.649778 0
M  V30 9973 H 931.762 -1.10384 -1.7215 0
M  V30 9974 H 929.917 0.138766 -3.87151 0
M  V30 9975 H 930.331 -1.8092 -4.92309 0
M  V30 9976 H 931.805 -0.205145 -5.51619 0
M  V30 9977 H 932.282 0.962011 -4.28535 0
M  V30 9978 H 932.888 -0.707677 -4.19371 0
M  V30 9979 N 931.203 1.46865 -0.571711 0
M  V30 9980 C 932.133 2.3298 0.155795 0
M  V30 9981 C 933.114 1.44678 0.894553 0
M  V30 9982 O 934.299 1.73513 0.872176 0
M  V30 9983 C 931.429 3.26745 1.17708 0
M  V30 9984 C 930.383 4.24401 0.553863 0
M  V30 9985 C 929.709 5.07595 1.68083 0
M  V30 9986 C 931.009 5.19884 -0.501827 0
M  V30 9987 H 932.703 2.94056 -0.563176 0
M  V30 9988 H 930.249 1.41402 -0.27228 0
M  V30 9989 H 932.202 3.85838 1.6943 0
M  V30 9990 H 930.926 2.63753 1.92618 0
M  V30 9991 H 929.585 3.66554 0.057815 0
M  V30 9992 H 929.233 4.40996 2.41933 0
M  V30 9993 H 928.933 5.73722 1.26953 0
M  V30 9994 H 930.457 5.6955 2.20103 0
M  V30 9995 H 931.871 5.73257 -0.0701057 0
M  V30 9996 H 930.268 5.94293 -0.832815 0
M  V30 9997 H 931.338 4.64482 -1.39229 0
M  V30 9998 N 932.681 0.308908 1.54543 0
M  V30 9999 C 933.911 -0.299983 2.04411 0
M  V30 10000 C 934.319 -1.47463 1.18538 0
M  V30 10001 O 933.662 -1.82547 0.205463 0
M  V30 10002 C 933.724 -0.811579 3.50219 0
M  V30 10003 C 933.388 0.238834 4.56375 0
M  V30 10004 C 934.385 1.06997 5.08771 0
M  V30 10005 C 932.07 0.382808 5.00839 0
M  V30 10006 C 934.064 2.03096 6.04178 0
M  V30 10007 C 931.751 1.34723 5.96065 0
M  V30 10008 C 932.749 2.16978 6.47618 0
M  V30 10009 O 932.437 3.11783 7.40977 0
M  V30 10010 H 932.169 -0.0679682 0.672574 0
M  V30 10011 H 934.723 0.448815 2.00437 0
M  V30 10012 H 932.953 -1.61104 3.51543 0
M  V30 10013 H 934.642 -1.33721 3.83241 0
M  V30 10014 H 935.408 0.969654 4.75208 0
M  V30 10015 H 931.287 -0.247507 4.60335 0
M  V30 10016 H 934.831 2.67338 6.44342 0
M  V30 10017 H 930.728 1.44824 6.29044 0
M  V30 10018 H 931.496 3.06853 7.58804 0
M  V30 10019 N 934.159 -1.57557 0.0367827 0
M  V30 10020 C 935.406 -1.92114 -0.640185 0
M  V30 10021 C 935.734 -0.913887 -1.71693 0
M  V30 10022 O 934.989 0.0760343 -1.95552 0
M  V30 10023 C 935.288 -3.33387 -1.28794 0
M  V30 10024 C 934.954 -4.4961 -0.340819 0
M  V30 10025 C 933.616 -4.81133 -0.0801574 0
M  V30 10026 C 935.968 -5.20283 0.309106 0
M  V30 10027 C 933.296 -5.80683 0.838107 0
M  V30 10028 C 935.648 -6.20813 1.21547 0
M  V30 10029 C 934.312 -6.50773 1.48495 0
M  V30 10030 H 933.582 -0.702996 -0.23426 0
M  V30 10031 H 936.229 -1.91238 0.100188 0
M  V30 10032 H 934.534 -3.30561 -2.10324 0
M  V30 10033 H 936.231 -3.57399 -1.81843 0
M  V30 10034 H 932.821 -4.25002 -0.554161 0
M  V30 10035 H 937.005 -4.96153 0.120794 0
M  V30 10036 H 932.261 -6.02238 1.05451 0
M  V30 10037 H 936.435 -6.74692 1.72522 0
M  V30 10038 H 934.062 -7.27727 2.19814 0
M  V30 10039 N 935.637 0.236453 -1.55816 0
M  V30 10040 C 936.886 0.960981 -1.77336 0
M  V30 10041 C 937.199 1.86085 -0.602641 0
M  V30 10042 O 938.405 2.62291 -0.701106 0
M  V30 10043 C 936.861 1.75884 -3.13995 0
M  V30 10044 C 936.469 0.905849 -4.38746 0
M  V30 10045 C 938.213 2.47548 -3.44848 0
M  V30 10046 C 936.12 1.7002 -5.66434 0
M  V30 10047 H 935.05 0.362547 -0.661117 0
M  V30 10048 H 937.701 0.215303 -1.82233 0
M  V30 10049 H 936.083 2.54687 -3.03234 0
M  V30 10050 H 937.257 0.159415 -4.60524 0
M  V30 10051 H 935.572 0.30205 -4.15303 0
M  V30 10052 H 938.169 3.07452 -4.37467 0
M  V30 10053 H 938.512 3.19689 -2.66655 0
M  V30 10054 H 939.045 1.75747 -3.56872 0
M  V30 10055 H 935.784 1.02234 -6.47479 0
M  V30 10056 H 935.304 2.42164 -5.48741 0
M  V30 10057 H 936.983 2.26469 -6.0607 0
M  V30 10058 N 937.115 1.49373 0.502552 0
M  V30 10059 C 938.34 1.62752 1.28556 0
M  V30 10060 C 938.765 0.298285 1.8572 0
M  V30 10061 O 938.123 -0.733885 1.65782 0
M  V30 10062 C 938.171 2.69778 2.39274 0
M  V30 10063 O 937.275 2.28843 3.43081 0
M  V30 10064 H 936.616 0.544799 0.379592 0
M  V30 10065 H 939.146 1.9555 0.601792 0
M  V30 10066 H 939.156 2.91899 2.8506 0
M  V30 10067 H 937.831 3.66266 1.97033 0
M  V30 10068 H 936.408 2.17047 3.03224 0
M  V30 10069 N 938.594 -0.753485 1.38421 0
M  V30 10070 C 940.01 -1.05656 1.1962 0
M  V30 10071 C 940.21 -2.0145 0.0449443 0
M  V30 10072 O 939.266 -2.45039 -0.609253 0
M  V30 10073 C 940.579 -1.63655 2.52265 0
M  V30 10074 C 942.127 -1.75825 2.58949 0
M  V30 10075 C 942.602 -2.37236 3.91769 0
M  V30 10076 N 944.093 -2.44666 3.9331 0
M  V30 10077 C 944.828 -2.93077 4.92842 0
M  V30 10078 N 944.324 -3.41523 6.02772 0
M  V30 10079 N 946.117 -2.92118 4.80232 0
M  V30 10080 H 938.268 -0.117799 2.12073 0
M  V30 10081 H 940.531 -0.114889 0.941012 0
M  V30 10082 H 940.237 -1.00734 3.36965 0
M  V30 10083 H 940.111 -2.62715 2.70667 0
M  V30 10084 H 942.498 -2.37873 1.74644 0
M  V30 10085 H 942.579 -0.754693 2.44414 0
M  V30 10086 H 942.223 -1.75822 4.76497 0
M  V30 10087 H 942.153 -3.38233 4.03616 0
M  V30 10088 H 944.644 -2.10403 3.1391 0
M  V30 10089 H 944.957 -3.76919 6.74649 0
M  V30 10090 H 943.302 -3.3958 6.06391 0
M  V30 10091 H 946.493 -2.53582 3.93464 0
M  V30 10092 H 946.666 -3.29535 5.57952 0
M  V30 10093 N 940.072 -1.23292 -0.981677 0
M  V30 10094 C 941.32 -1.06214 -1.71939 0
M  V30 10095 C 941.641 0.401989 -1.90812 0
M  V30 10096 O 940.911 1.28825 -1.47584 0
M  V30 10097 H 939.491 -0.390042 -0.637084 0
M  V30 10098 H 942.153 -1.54988 -1.18173 0
M  V30 10099 H 941.249 -1.54904 -2.70945 0
M  V30 10100 N 941.55 1.18024 -1.04442 0
M  V30 10101 C 942.775 1.92573 -0.770097 0
M  V30 10102 C 943.2 1.75871 0.667169 0
M  V30 10103 O 942.558 1.07136 1.46258 0
M  V30 10104 C 942.606 3.41904 -1.14602 0
M  V30 10105 O 941.71 4.11491 -0.273712 0
M  V30 10106 H 941.051 0.600636 -0.283076 0
M  V30 10107 H 943.581 1.49645 -1.39526 0
M  V30 10108 H 943.591 3.92623 -1.10956 0
M  V30 10109 H 942.266 3.53382 -2.19304 0
M  V30 10110 H 940.843 3.71059 -0.370124 0
M  V30 10111 N 943.028 0.824394 1.34319 0
M  V30 10112 C 944.277 0.40956 1.97498 0
M  V30 10113 C 944.59 -1.03323 1.66083 0
M  V30 10114 O 945.796 -1.55205 2.22764 0
M  V30 10115 C 944.252 0.681384 3.53391 0
M  V30 10116 C 943.86 2.1379 3.93698 0
M  V30 10117 C 945.604 0.332788 4.23194 0
M  V30 10118 C 943.511 2.35453 5.42509 0
M  V30 10119 H 942.441 0.149409 0.739049 0
M  V30 10120 H 945.092 1.01095 1.5314 0
M  V30 10121 H 943.474 0.00980375 3.95999 0
M  V30 10122 H 944.648 2.84876 3.62191 0
M  V30 10123 H 942.963 2.44807 3.36836 0
M  V30 10124 H 945.56 0.472463 5.32609 0
M  V30 10125 H 945.903 -0.722862 4.09976 0
M  V30 10126 H 946.436 0.959005 3.86067 0
M  V30 10127 H 943.175 3.39529 5.60714 0
M  V30 10128 H 942.695 1.68912 5.75525 0
M  V30 10129 H 944.374 2.17885 6.09209 0
M  V30 10130 N 944.506 -1.46559 0.579492 0
M  V30 10131 C 945.416 -2.34066 -0.15816 0
M  V30 10132 C 946.432 -1.49556 -0.88932 0
M  V30 10133 O 947.608 -1.82434 -0.853226 0
M  V30 10134 C 944.673 -3.26683 -1.161 0
M  V30 10135 C 943.734 -4.27092 -0.434855 0
M  V30 10136 C 942.967 -5.15283 -1.38992 0
M  V30 10137 O 943.19 -5.06345 -2.62623 0
M  V30 10138 O 942.124 -5.95099 -0.902253 0
M  V30 10139 H 945.95 -2.98488 0.560234 0
M  V30 10140 H 943.535 -1.45482 0.339918 0
M  V30 10141 H 945.417 -3.8383 -1.73932 0
M  V30 10142 H 944.092 -2.64862 -1.86091 0
M  V30 10143 H 942.999 -3.73641 0.185224 0
M  V30 10144 H 944.332 -4.9169 0.224031 0
M  V30 10145 N 945.984 -0.3171 -1.54377 0
M  V30 10146 C 947.233 0.288271 -1.99629 0
M  V30 10147 C 947.546 1.53754 -1.2091 0
M  V30 10148 O 948.752 2.2185 -1.56508 0
M  V30 10149 C 947.208 0.564188 -3.5545 0
M  V30 10150 C 946.816 -0.667659 -4.42997 0
M  V30 10151 C 948.56 1.12987 -4.09187 0
M  V30 10152 C 946.467 -0.364003 -5.90279 0
M  V30 10153 H 945.397 0.111492 -0.745711 0
M  V30 10154 H 948.048 -0.428317 -1.78431 0
M  V30 10155 H 946.43 1.34079 -3.72611 0
M  V30 10156 H 947.604 -1.44335 -4.37612 0
M  V30 10157 H 945.919 -1.1531 -4.00116 0
M  V30 10158 H 948.516 1.37157 -5.1681 0
M  V30 10159 H 948.859 2.07722 -3.60773 0
M  V30 10160 H 949.392 0.414595 -3.95634 0
M  V30 10161 H 946.131 -1.28035 -6.42874 0
M  V30 10162 H 945.651 0.374102 -5.98632 0
M  V30 10163 H 947.33 0.0285433 -6.46994 0
M  V30 10164 N 947.462 1.57535 -0.0451378 0
M  V30 10165 C 948.392 2.14208 0.929372 0
M  V30 10166 C 949.373 1.06221 1.32858 0
M  V30 10167 O 950.558 1.34132 1.40436 0
M  V30 10168 C 947.688 2.68217 2.20629 0
M  V30 10169 C 946.642 3.81134 1.94734 0
M  V30 10170 C 945.968 4.21636 3.28828 0
M  V30 10171 C 947.268 5.06531 1.27374 0
M  V30 10172 H 948.962 2.95886 0.457348 0
M  V30 10173 H 946.508 1.42332 0.218544 0
M  V30 10174 H 948.461 3.06502 2.89196 0
M  V30 10175 H 947.185 1.83722 2.70026 0
M  V30 10176 H 945.844 3.43312 1.28579 0
M  V30 10177 H 945.492 3.34099 3.76014 0
M  V30 10178 H 945.192 4.97736 3.12302 0
M  V30 10179 H 946.716 4.62516 3.98637 0
M  V30 10180 H 948.13 5.423 1.85967 0
M  V30 10181 H 946.527 5.87735 1.21194 0
M  V30 10182 H 947.597 4.84261 0.248913 0
M  V30 10183 N 948.94 -0.228186 1.55939 0
M  V30 10184 C 950.356 -0.577583 1.48782 0
M  V30 10185 C 950.556 -1.87461 0.738972 0
M  V30 10186 O 949.612 -2.50988 0.275929 0
M  V30 10187 C 950.925 -0.662961 2.93301 0
M  V30 10188 C 952.473 -0.754035 3.03782 0
M  V30 10189 C 952.948 -0.870815 4.49645 0
M  V30 10190 N 954.439 -0.935208 4.53661 0
M  V30 10191 C 955.174 -1.04516 5.63794 0
M  V30 10192 N 954.67 -1.11948 6.83696 0
M  V30 10193 N 956.463 -1.07978 5.51631 0
M  V30 10194 H 948.614 0.623018 2.03057 0
M  V30 10195 H 950.877 0.217692 0.922667 0
M  V30 10196 H 950.583 0.220375 3.51009 0
M  V30 10197 H 950.457 -1.52876 3.44831 0
M  V30 10198 H 952.844 -1.62782 2.46143 0
M  V30 10199 H 952.925 0.137301 2.55431 0
M  V30 10200 H 952.569 -0.0015186 5.079 0
M  V30 10201 H 952.499 -1.77747 4.95695 0
M  V30 10202 H 954.99 -0.88836 3.6731 0
M  V30 10203 H 955.303 -1.20297 7.6338 0
M  V30 10204 H 953.648 -1.08873 6.8642 0
M  V30 10205 H 956.839 -1.01833 4.56889 0
M  V30 10206 H 957.012 -1.16202 6.37496 0
M  V30 10207 N 950.418 -1.49637 -0.494624 0
M  V30 10208 C 951.695 -1.4995 -1.25596 0
M  V30 10209 C 952.075 -0.230805 -2.09834 0
M  V30 10210 O 951.423 0.786625 -2.14533 0
M  V30 10211 C 951.633 -2.78204 -2.10721 0
M  V30 10212 C 952.981 -3.27946 -2.69698 0
M  V30 10213 O 954.005 -2.79365 -2.20984 0
M  V30 10214 O 952.864 -4.12571 -3.58395 0
M  V30 10215 H 949.958 -0.60044 -0.568684 0
M  V30 10216 H 952.504 -1.61906 -0.508371 0
M  V30 10217 H 951.276 -3.62029 -1.48494 0
M  V30 10218 H 950.899 -2.69139 -2.92661 0
M  V30 10219 N 951.896 0.746133 -1.38819 0
M  V30 10220 C 953.173 1.49652 -1.25951 0
M  V30 10221 C 953.553 2.10663 0.135833 0
M  V30 10222 O 952.901 1.97682 1.14604 0
M  V30 10223 C 953.111 2.5569 -2.37537 0
M  V30 10224 C 954.459 3.22385 -2.76321 0
M  V30 10225 O 955.483 2.65998 -2.36904 0
M  V30 10226 O 954.342 4.2439 -3.44319 0
M  V30 10227 H 951.436 0.664019 -0.492958 0
M  V30 10228 H 953.982 0.780908 -1.50665 0
M  V30 10229 H 952.754 2.08908 -3.30867 0
M  V30 10230 H 952.377 3.34823 -2.14427 0
M  V30 10231 N 953.375 1.23811 0.975125 0
M  V30 10232 C 954.621 1.07495 1.71967 0
M  V30 10233 C 954.954 -0.386451 1.90316 0
M  V30 10234 O 954.229 -1.28591 1.45927 0
M  V30 10235 C 954.512 1.80694 3.11483 0
M  V30 10236 C 954.365 3.3454 3.00671 0
M  V30 10237 C 955.684 1.57367 4.11003 0
M  V30 10238 H 952.803 0.3919 0.624166 0
M  V30 10239 H 955.445 1.52383 1.13487 0
M  V30 10240 H 953.595 1.42538 3.61407 0
M  V30 10241 H 955.267 3.8225 2.5823 0
M  V30 10242 H 953.51 3.63301 2.37054 0
M  V30 10243 H 954.181 3.80951 3.99475 0
M  V30 10244 H 956.657 1.90545 3.69908 0
M  V30 10245 H 955.533 2.11052 5.06703 0
M  V30 10246 H 955.794 0.510221 4.39146 0
M  V30 10247 N 954.853 -1.17469 1.05066 0
M  V30 10248 C 956.099 -1.87976 0.761113 0
M  V30 10249 C 956.432 -1.80756 -0.709995 0
M  V30 10250 O 955.707 -1.21469 -1.51906 0
M  V30 10251 C 955.99 -3.38055 1.2406 0
M  V30 10252 C 955.843 -3.54032 2.77455 0
M  V30 10253 C 957.162 -4.32036 0.838612 0
M  V30 10254 H 954.281 -0.682573 0.277963 0
M  V30 10255 H 956.923 -1.38147 1.30443 0
M  V30 10256 H 955.073 -3.80622 0.778388 0
M  V30 10257 H 956.745 -3.20489 3.3179 0
M  V30 10258 H 954.988 -2.96352 3.16793 0
M  V30 10259 H 955.659 -4.59377 3.06066 0
M  V30 10260 H 958.135 -3.97303 1.23651 0
M  V30 10261 H 957.011 -5.35583 1.20173 0
M  V30 10262 H 957.272 -4.41349 -0.257498 0
M  V30 10263 N 956.331 -0.831506 -1.3388 0
M  V30 10264 C 957.577 -0.424302 -1.98312 0
M  V30 10265 C 957.91 1.01211 -1.65741 0
M  V30 10266 O 957.185 1.70636 -0.933464 0
M  V30 10267 C 957.468 -0.636815 -3.54424 0
M  V30 10268 C 957.321 -2.11997 -3.96708 0
M  V30 10269 C 958.64 -0.0782411 -4.4003 0
M  V30 10270 H 955.759 -0.155637 -0.720379 0
M  V30 10271 H 958.401 -1.04566 -1.58638 0
M  V30 10272 H 956.551 -0.107907 -3.8835 0
M  V30 10273 H 958.223 -2.71317 -3.73075 0
M  V30 10274 H 956.466 -2.60723 -3.46707 0
M  V30 10275 H 957.137 -2.21944 -5.05416 0
M  V30 10276 H 959.613 -0.530243 -4.12708 0
M  V30 10277 H 958.489 -0.256676 -5.483 0
M  V30 10278 H 958.75 1.01745 -4.30233 0
M  V30 10279 N 957.809 1.4625 -0.587256 0
M  V30 10280 C 958.772 2.28812 0.133238 0
M  V30 10281 C 959.772 1.38645 0.814513 0
M  V30 10282 O 960.962 1.60975 0.665774 0
M  V30 10283 C 958.094 3.19147 1.19824 0
M  V30 10284 H 959.287 2.93991 -0.592386 0
M  V30 10285 H 956.84 1.52435 -0.345416 0
M  V30 10286 H 957.575 2.58725 1.95529 0
M  V30 10287 H 957.36 3.85541 0.71418 0
M  V30 10288 H 958.85 3.81278 1.70344 0
M  V30 10289 N 959.287 0.325282 1.54207 0
M  V30 10290 C 960.536 -0.27768 1.99779 0
M  V30 10291 C 960.849 -1.5311 1.21723 0
M  V30 10292 O 962.055 -2.21017 1.57682 0
M  V30 10293 C 960.511 -0.545329 3.55745 0
M  V30 10294 C 960.119 0.691143 4.42637 0
M  V30 10295 C 961.863 -1.10815 4.09781 0
M  V30 10296 C 959.77 0.395302 5.90077 0
M  V30 10297 H 958.7 -0.107536 0.746292 0
M  V30 10298 H 961.351 0.437773 1.78202 0
M  V30 10299 H 959.733 -1.32101 3.73317 0
M  V30 10300 H 960.907 1.46653 4.3684 0
M  V30 10301 H 959.222 1.1743 3.99499 0
M  V30 10302 H 961.819 -1.34414 5.1753 0
M  V30 10303 H 962.162 -2.05806 3.6187 0
M  V30 10304 H 962.695 -0.393608 3.95848 0
M  V30 10305 H 959.434 1.31443 6.42186 0
M  V30 10306 H 958.954 -0.34235 5.98822 0
M  V30 10307 H 960.633 0.00576877 6.47 0
M  V30 10308 N 960.765 -1.57509 0.0534917 0
M  V30 10309 C 961.695 -2.14698 -0.917999 0
M  V30 10310 C 962.676 -1.06924 -1.32292 0
M  V30 10311 O 963.861 -1.34875 -1.39723 0
M  V30 10312 C 960.991 -2.69383 -2.19203 0
M  V30 10313 C 959.945 -3.82161 -1.9271 0
M  V30 10314 C 959.271 -4.23373 -3.26587 0
M  V30 10315 C 960.571 -5.07199 -1.24686 0
M  V30 10316 H 962.265 -2.96125 -0.44165 0
M  V30 10317 H 959.811 -1.42446 -0.210993 0
M  V30 10318 H 961.764 -3.08031 -2.87567 0
M  V30 10319 H 960.488 -1.85151 -2.69048 0
M  V30 10320 H 959.147 -3.43989 -1.26757 0
M  V30 10321 H 958.795 -3.36089 -3.74237 0
M  V30 10322 H 958.495 -4.99385 -3.09658 0
M  V30 10323 H 960.019 -4.64623 -3.96178 0
M  V30 10324 H 961.433 -5.43279 -1.83088 0
M  V30 10325 H 959.83 -5.88369 -1.18076 0
M  V30 10326 H 960.9 -4.84386 -0.223227 0
M  V30 10327 N 962.243 0.219913 -1.56058 0
M  V30 10328 C 963.491 0.942199 -1.78793 0
M  V30 10329 C 963.812 1.84804 -0.622284 0
M  V30 10330 O 963.082 1.9255 0.360735 0
M  V30 10331 H 961.662 0.350895 -0.659455 0
M  V30 10332 H 964.324 0.231376 -1.93522 0
M  V30 10333 H 963.42 1.54804 -2.71002 0
M  V30 10334 N 963.721 1.49897 0.486681 0
M  V30 10335 C 964.668 1.67619 1.58658 0
M  V30 10336 C 965.638 0.517537 1.57831 0
M  V30 10337 O 966.823 0.746272 1.756 0
M  V30 10338 C 963.963 1.762 2.96728 0
M  V30 10339 C 963.076 3.03465 3.07462 0
M  V30 10340 C 962.211 3.02937 4.36351 0
M  V30 10341 C 961.25 4.24721 4.4077 0
M  V30 10342 N 960.387 4.22021 5.61108 0
M  V30 10343 H 965.227 2.61528 1.42853 0
M  V30 10344 H 962.764 1.29657 0.694807 0
M  V30 10345 H 964.722 1.79156 3.76774 0
M  V30 10346 H 963.352 0.857452 3.11203 0
M  V30 10347 H 962.404 3.10054 2.20387 0
M  V30 10348 H 963.716 3.93454 3.06586 0
M  V30 10349 H 962.87 3.04536 5.24731 0
M  V30 10350 H 961.609 2.10751 4.39813 0
M  V30 10351 H 960.614 4.23352 3.5079 0
M  V30 10352 H 961.839 5.18116 4.39013 0
M  V30 10353 H 959.785 3.3268 5.65385 0
M  V30 10354 H 959.702 5.05761 5.61909 0
M  V30 10355 H 960.97 4.27743 6.51656 0
M  V30 10356 N 965.199 -0.738761 1.39212 0
M  V30 10357 C 966.147 -1.8741 1.3777 0
M  V30 10358 C 967.141 -1.67371 0.261375 0
M  V30 10359 O 968.347 -1.74759 0.431209 0
M  V30 10360 H 964.722 -0.616843 0.430126 0
M  V30 10361 H 966.693 -1.85742 2.33543 0
M  V30 10362 C 965.442 -3.25053 1.23433 0
M  V30 10363 H 964.765 -3.41066 2.086 0
M  V30 10364 H 966.205 -4.04696 1.2648 0
M  V30 10365 C 964.664 -3.36851 -0.0575624 0
M  V30 10366 O 965.194 -3.88293 -1.02915 0
M  V30 10367 N 963.4 -2.90355 -0.119364 0
M  V30 10368 H 962.947 -2.48681 0.671976 0
M  V30 10369 H 962.905 -2.98628 -0.983286 0
M  V30 10370 N 966.677 -1.24326 -0.968545 0
M  V30 10371 C 967.954 -0.990459 -1.68669 0
M  V30 10372 C 968.334 0.487487 -2.05394 0
M  V30 10373 O 967.682 1.46158 -1.75642 0
M  V30 10374 C 967.892 -1.91251 -2.91931 0
M  V30 10375 C 969.24 -2.18291 -3.6419 0
M  V30 10376 O 970.264 -1.88897 -3.01987 0
M  V30 10377 O 969.123 -2.68204 -4.76161 0
M  V30 10378 H 966.217 -0.374515 -0.737338 0
M  V30 10379 H 968.763 -1.35421 -1.02271 0
M  V30 10380 H 967.535 -2.9111 -2.61478 0
M  V30 10381 H 967.158 -1.55188 -3.66064 0
M  V30 10382 N 968.156 1.1691 -1.05688 0
M  V30 10383 C 969.405 1.86629 -0.765022 0
M  V30 10384 C 969.718 1.82223 0.710918 0
M  V30 10385 O 970.924 2.47462 1.11691 0
M  V30 10386 C 969.38 3.34886 -1.3183 0
M  V30 10387 C 968.988 3.47781 -2.82404 0
M  V30 10388 C 970.732 4.099 -1.10372 0
M  V30 10389 C 968.639 4.9009 -3.31008 0
M  V30 10390 H 967.569 0.699082 -0.282491 0
M  V30 10391 H 970.22 1.31989 -1.27481 0
M  V30 10392 H 968.602 3.89094 -0.736312 0
M  V30 10393 H 969.776 3.03765 -3.46502 0
M  V30 10394 H 968.091 2.86193 -3.02461 0
M  V30 10395 H 970.688 5.14894 -1.4418 0
M  V30 10396 H 971.031 4.16279 -0.0417372 0
M  V30 10397 H 971.564 3.61913 -1.65117 0
M  V30 10398 H 968.303 4.88887 -4.36657 0
M  V30 10399 H 967.823 5.34756 -2.71655 0
M  V30 10400 H 969.502 5.58881 -3.25977 0
M  V30 10401 N 969.634 0.838594 1.33437 0
M  V30 10402 C 970.881 0.434169 1.97791 0
M  V30 10403 C 971.209 -1.00652 1.66431 0
M  V30 10404 O 970.464 -1.71848 0.936309 0
M  V30 10405 C 970.763 0.601425 3.52303 0
M  V30 10406 C 970.429 2.01017 4.03612 0
M  V30 10407 C 969.091 2.39551 4.17336 0
M  V30 10408 C 971.443 2.93035 4.31022 0
M  V30 10409 C 968.771 3.69406 4.55802 0
M  V30 10410 C 971.123 4.22372 4.7094 0
M  V30 10411 C 969.787 4.60862 4.82869 0
M  V30 10412 H 969.057 0.158874 0.723768 0
M  V30 10413 H 971.704 1.06556 1.59116 0
M  V30 10414 H 970.009 -0.113284 3.91636 0
M  V30 10415 H 971.706 0.268798 4.00098 0
M  V30 10416 H 968.296 1.7009 3.93405 0
M  V30 10417 H 972.48 2.64503 4.19943 0
M  V30 10418 H 967.736 3.99033 4.63231 0
M  V30 10419 H 971.91 4.93749 4.91106 0
M  V30 10420 H 969.537 5.6153 5.12433 0
M  V30 10421 N 971.112 -1.45937 0.595003 0
M  V30 10422 C 972.36 -2.01921 0.0851368 0
M  V30 10423 C 972.681 -1.46748 -1.28413 0
M  V30 10424 O 971.951 -0.656873 -1.84559 0
M  V30 10425 H 970.531 -0.746457 0.0284826 0
M  V30 10426 H 973.193 -1.78891 0.773561 0
M  V30 10427 H 972.289 -3.1209 0.0254002 0
M  V30 10428 N 972.59 -0.333456 -1.54032 0
M  V30 10429 C 973.5 0.536674 -2.28379 0
M  V30 10430 C 974.516 1.12068 -1.33104 0
M  V30 10431 O 975.692 1.13853 -1.66131 0
M  V30 10432 C 972.757 1.67677 -3.03456 0
M  V30 10433 C 971.818 1.12357 -4.14336 0
M  V30 10434 C 971.051 2.20933 -4.85823 0
M  V30 10435 O 971.274 3.41466 -4.569 0
M  V30 10436 O 970.208 1.85795 -5.72507 0
M  V30 10437 H 974.034 -0.0674003 -3.03625 0
M  V30 10438 H 971.619 -0.098823 -1.49073 0
M  V30 10439 H 973.501 2.34032 -3.50438 0
M  V30 10440 H 972.176 2.26684 -2.31076 0
M  V30 10441 H 971.083 0.424827 -3.7168 0
M  V30 10442 H 972.416 0.578497 -4.88789 0
M  V30 10443 N 974.068 1.57479 -0.061844 0
M  V30 10444 C 975.479 1.80627 0.472295 0
M  V30 10445 C 975.83 0.97496 1.70261 0
M  V30 10446 O 974.955 0.1946 2.15523 0
M  V30 10447 C 975.55 3.27608 0.863616 0
M  V30 10448 C 974.109 3.51638 1.34267 0
M  V30 10449 C 973.256 2.75412 0.323009 0
M  V30 10450 H 976.207 1.56072 -0.287634 0
M  V30 10451 H 976.228 3.39113 1.72577 0
M  V30 10452 H 975.74 3.88087 -0.0320226 0
M  V30 10453 H 973.841 2.96452 2.25714 0
M  V30 10454 H 973.954 4.60342 1.32747 0
M  V30 10455 H 972.318 2.4187 0.798175 0
M  V30 10456 H 973.101 3.38623 -0.564729 0
M  V30 10457 N 975.546 -0.211634 1.56173 0
M  V30 10458 C 976.792 -0.935935 1.79911 0
M  V30 10459 C 977.125 -1.83589 0.633155 0
M  V30 10460 O 976.4 -1.91004 -0.367132 0
M  V30 10461 C 976.683 -1.76638 3.13801 0
M  V30 10462 C 976.536 -0.892259 4.40861 0
M  V30 10463 C 977.855 -2.74224 3.44223 0
M  V30 10464 H 974.974 -0.338822 0.654499 0
M  V30 10465 H 977.616 -0.20422 1.88899 0
M  V30 10466 H 975.766 -2.39021 3.0627 0
M  V30 10467 H 977.438 -0.284407 4.60422 0
M  V30 10468 H 975.681 -0.198145 4.33347 0
M  V30 10469 H 976.352 -1.50793 5.31004 0
M  V30 10470 H 978.828 -2.21975 3.51946 0
M  V30 10471 H 977.704 -3.29424 4.39057 0
M  V30 10472 H 977.965 -3.52455 2.66885 0
M  V30 10473 N 977.024 -1.50153 -0.478725 0
M  V30 10474 C 978.249 -1.64776 -1.2595 0
M  V30 10475 C 978.674 -0.327794 -1.85222 0
M  V30 10476 O 978.032 0.707418 -1.66929 0
M  V30 10477 C 978.08 -2.73551 -2.34952 0
M  V30 10478 O 977.184 -2.34273 -3.39397 0
M  V30 10479 H 976.525 -0.550769 -0.370877 0
M  V30 10480 H 979.055 -1.96482 -0.570605 0
M  V30 10481 H 979.065 -2.96397 -2.8038 0
M  V30 10482 H 977.74 -3.69354 -1.91181 0
M  V30 10483 H 976.317 -2.21844 -2.99733 0
M  V30 10484 N 978.502 0.731368 -1.39602 0
M  V30 10485 C 979.432 1.85855 -1.41351 0
M  V30 10486 C 980.413 1.67839 -0.2764 0
M  V30 10487 O 981.598 1.88104 -0.482747 0
M  V30 10488 C 978.728 3.23644 -1.25983 0
M  V30 10489 C 977.682 3.56304 -2.37132 0
M  V30 10490 C 977.008 4.93069 -2.0685 0
M  V30 10491 C 978.308 3.58906 -3.79452 0
M  V30 10492 H 980.002 1.84648 -2.3568 0
M  V30 10493 H 977.548 0.886955 -1.13442 0
M  V30 10494 H 979.501 4.02176 -1.25826 0
M  V30 10495 H 978.225 3.25387 -0.281234 0
M  V30 10496 H 976.884 2.80104 -2.36511 0
M  V30 10497 H 976.532 4.91396 -1.0742 0
M  V30 10498 H 976.232 5.15888 -2.81306 0
M  V30 10499 H 977.756 5.73953 -2.0835 0
M  V30 10500 H 979.17 4.27508 -3.81982 0
M  V30 10501 H 977.567 3.93246 -4.53297 0
M  V30 10502 H 978.637 2.58631 -4.10168 0
M  V30 10503 N 979.98 1.24838 0.961938 0
M  V30 10504 C 980.93 1.01276 2.04272 0
M  V30 10505 C 981.914 -0.0478239 1.60829 0
M  V30 10506 O 983.106 0.166616 1.76214 0
M  V30 10507 C 980.235 0.625659 3.37551 0
M  V30 10508 C 979.321 1.72262 3.87539 0
M  V30 10509 N 979.712 2.95644 4.104 0
M  V30 10510 C 978.01 1.60146 4.16256 0
M  V30 10511 C 978.711 3.66796 4.51482 0
M  V30 10512 N 977.687 2.94383 4.56989 0
M  V30 10513 H 981.489 1.94956 2.19931 0
M  V30 10514 H 979.003 1.15049 1.14619 0
M  V30 10515 H 981 0.438072 4.14592 0
M  V30 10516 H 979.66 -0.303887 3.23275 0
M  V30 10517 H 980.671 3.31764 3.97685 0
M  V30 10518 H 977.348 0.740353 4.10883 0
M  V30 10519 H 978.738 4.72664 4.77534 0
M  V30 10520 N 981.458 -1.16348 1.06306 0
M  V30 10521 C 982.421 -2.18941 0.678053 0
M  V30 10522 C 983.421 -1.58409 -0.276277 0
M  V30 10523 O 984.611 -1.74101 -0.0586435 0
M  V30 10524 C 981.743 -3.409 -0.00228684 0
M  V30 10525 H 982.936 -2.54516 1.58624 0
M  V30 10526 H 980.489 -1.30625 0.858298 0
M  V30 10527 H 981.224 -3.10881 -0.923212 0
M  V30 10528 H 981.009 -3.86089 0.683949 0
M  V30 10529 H 982.499 -4.16806 -0.257374 0
M  V30 10530 N 982.937 -0.845659 -1.3299 0
M  V30 10531 C 983.869 -0.241097 -2.27928 0
M  V30 10532 C 984.882 0.582048 -1.5204 0
M  V30 10533 O 986.071 0.408008 -1.73774 0
M  V30 10534 C 983.171 0.678652 -3.32035 0
M  V30 10535 C 982.344 -0.106652 -4.3727 0
M  V30 10536 C 981.403 0.737478 -5.21006 0
M  V30 10537 O 980.429 0.174231 -5.68933 0
M  V30 10538 N 981.631 2.05372 -5.42957 0
M  V30 10539 H 984.396 -1.05685 -2.80448 0
M  V30 10540 H 981.957 -0.704771 -1.45755 0
M  V30 10541 H 983.949 1.24849 -3.84961 0
M  V30 10542 H 982.519 1.3951 -2.79742 0
M  V30 10543 H 981.739 -0.857897 -3.84752 0
M  V30 10544 H 983.027 -0.646386 -5.04677 0
M  V30 10545 H 982.425 2.53478 -5.05733 0
M  V30 10546 H 980.982 2.5719 -5.98913 0
M  V30 10547 N 984.415 1.45619 -0.602734 0
M  V30 10548 C 985.826 1.85814 -0.181636 0
M  V30 10549 C 986.177 1.5037 1.26029 0
M  V30 10550 O 985.302 0.928068 1.95489 0
M  V30 10551 C 985.897 3.37258 -0.322866 0
M  V30 10552 C 984.456 3.76375 0.043504 0
M  V30 10553 C 983.603 2.69585 -0.649561 0
M  V30 10554 H 986.554 1.36489 -0.809721 0
M  V30 10555 H 986.575 3.77874 0.446279 0
M  V30 10556 H 986.087 3.63024 -1.37241 0
M  V30 10557 H 984.188 3.56226 1.09241 0
M  V30 10558 H 984.301 4.77843 -0.346765 0
M  V30 10559 H 982.665 2.54549 -0.087706 0
M  V30 10560 H 983.448 2.98188 -1.70115 0
M  V30 10561 N 985.893 0.34162 1.53853 0
M  V30 10562 C 987.141 -0.254979 2.00485 0
M  V30 10563 C 987.462 -1.51222 1.23114 0
M  V30 10564 O 986.732 -1.92966 0.337787 0
M  V30 10565 H 985.312 -0.0972084 0.740648 0
M  V30 10566 H 987.974 0.462332 1.89337 0
M  V30 10567 H 987.07 -0.498778 3.08089 0
M  V30 10568 N 987.371 -1.57444 0.0701946 0
M  V30 10569 C 988.318 -2.12631 -0.897599 0
M  V30 10570 C 989.288 -1.03841 -1.29639 0
M  V30 10571 O 990.473 -1.31495 -1.38253 0
M  V30 10572 C 987.613 -2.6911 -2.16041 0
M  V30 10573 C 986.726 -3.9205 -1.8144 0
M  V30 10574 C 985.861 -4.36778 -3.02321 0
M  V30 10575 C 984.9 -5.52371 -2.63729 0
M  V30 10576 N 984.037 -5.92065 -3.77364 0
M  V30 10577 H 988.877 -2.95024 -0.420104 0
M  V30 10578 H 986.414 -1.45792 -0.195716 0
M  V30 10579 H 988.372 -2.99963 -2.89962 0
M  V30 10580 H 987.002 -1.89484 -2.61334 0
M  V30 10581 H 986.054 -3.67669 -0.975896 0
M  V30 10582 H 987.366 -4.76011 -1.49046 0
M  V30 10583 H 986.52 -4.69285 -3.84521 0
M  V30 10584 H 985.259 -3.51668 -3.37907 0
M  V30 10585 H 984.264 -5.19517 -1.7995 0
M  V30 10586 H 985.489 -6.39212 -2.29315 0
M  V30 10587 H 983.435 -5.09904 -4.12715 0
M  V30 10588 H 983.352 -6.70762 -3.48733 0
M  V30 10589 H 984.62 -6.29193 -4.60148 0
M  V30 10590 N 988.849 0.203349 -1.56283 0
M  V30 10591 C 990.074 0.945548 -1.84592 0
M  V30 10592 C 990.499 1.7641 -0.652772 0
M  V30 10593 O 989.857 1.76867 0.398468 0
M  V30 10594 C 989.905 1.82416 -3.11057 0
M  V30 10595 O 989.009 2.92191 -2.9103 0
M  V30 10596 H 988.35 0.266739 -0.608068 0
M  V30 10597 H 990.88 0.211158 -2.03507 0
M  V30 10598 H 990.89 2.23044 -3.41636 0
M  V30 10599 H 989.565 1.22267 -3.97522 0
M  V30 10600 H 988.142 2.55378 -2.71728 0
M  V30 10601 N 990.327 1.50405 0.470755 0
M  V30 10602 C 991.552 1.65442 1.25075 0
M  V30 10603 C 991.977 0.337612 1.85045 0
M  V30 10604 O 991.335 -0.698555 1.67302 0
M  V30 10605 C 991.383 2.74793 2.33498 0
M  V30 10606 O 990.487 2.36069 3.3815 0
M  V30 10607 H 989.828 0.552728 0.367951 0
M  V30 10608 H 992.358 1.96782 0.560177 0
M  V30 10609 H 992.368 2.97879 2.78804 0
M  V30 10610 H 991.043 3.70363 1.8922 0
M  V30 10611 H 989.62 2.2343 2.98552 0
M  V30 10612 N 991.805 -0.723954 1.39988 0
M  V30 10613 C 992.768 -1.81973 1.3935 0
M  V30 10614 C 993.768 -1.58187 0.288702 0
M  V30 10615 O 994.958 -1.65383 0.547181 0
M  V30 10616 C 992.09 -3.19937 1.177 0
M  V30 10617 H 993.283 -1.83939 2.36868 0
M  V30 10618 H 990.836 -0.928742 1.25714 0
M  V30 10619 H 991.571 -3.23625 0.209093 0
M  V30 10620 H 991.356 -3.386 1.97719 0
M  V30 10621 H 992.846 -3.99981 1.20022 0
M  V30 10622 N 993.283 -1.25346 -0.955304 0
M  V30 10623 C 994.56 -1.00829 -1.67609 0
M  V30 10624 C 994.94 0.465675 -2.059 0
M  V30 10625 O 994.288 1.44287 -1.77182 0
M  V30 10626 C 994.498 -1.94337 -2.89886 0
M  V30 10627 C 995.846 -2.22142 -3.61854 0
M  V30 10628 O 996.87 -1.9209 -2.99967 0
M  V30 10629 O 995.729 -2.73239 -4.73289 0
M  V30 10630 H 992.823 -0.382314 -0.733325 0
M  V30 10631 H 995.369 -1.36498 -1.00829 0
M  V30 10632 H 994.141 -2.93867 -2.58376 0
M  V30 10633 H 993.764 -1.59062 -3.64397 0
M  V30 10634 N 994.761 1.15782 -1.06922 0
M  V30 10635 C 996.007 1.86741 -0.790922 0
M  V30 10636 C 996.34 1.81863 0.681149 0
M  V30 10637 O 995.615 1.23871 1.49954 0
M  V30 10638 C 995.898 3.36038 -1.29422 0
M  V30 10639 C 995.751 3.49573 -2.83052 0
M  V30 10640 C 997.07 4.30647 -0.907239 0
M  V30 10641 H 994.189 0.678064 -0.288787 0
M  V30 10642 H 996.831 1.36054 -1.32624 0
M  V30 10643 H 994.981 3.79336 -0.838843 0
M  V30 10644 H 996.653 3.1517 -3.36847 0
M  V30 10645 H 994.896 2.91275 -3.21467 0
M  V30 10646 H 995.567 4.5445 -3.13335 0
M  V30 10647 H 998.043 3.95286 -1.29956 0
M  V30 10648 H 996.919 5.33604 -1.28679 0
M  V30 10649 H 997.18 4.41703 0.187251 0
M  V30 10650 N 996.239 0.8527 1.3254 0
M  V30 10651 C 997.655 0.542298 1.50104 0
M  V30 10652 C 997.855 -0.927465 1.78886 0
M  V30 10653 O 996.911 -1.7106 1.85728 0
M  V30 10654 C 998.224 1.4276 2.64651 0
M  V30 10655 C 999.772 1.42782 2.78536 0
M  V30 10656 C 1000.25 2.29828 3.9616 0
M  V30 10657 N 1001.74 2.27613 4.03418 0
M  V30 10658 C 1002.47 2.91696 4.93661 0
M  V30 10659 N 1001.97 3.64883 5.88925 0
M  V30 10660 N 1003.76 2.81094 4.86768 0
M  V30 10661 H 995.913 1.80395 1.12123 0
M  V30 10662 H 998.176 0.770394 0.552446 0
M  V30 10663 H 997.882 2.47266 2.50105 0
M  V30 10664 H 997.756 1.11358 3.60388 0
M  V30 10665 H 1000.14 0.390417 2.92506 0
M  V30 10666 H 1000.22 1.78198 1.83519 0
M  V30 10667 H 999.868 3.33635 3.82949 0
M  V30 10668 H 999.798 1.91746 4.9045 0
M  V30 10669 H 1002.29 1.74402 3.3525 0
M  V30 10670 H 1002.6 4.10952 6.54476 0
M  V30 10671 H 1000.95 3.68991 5.88957 0
M  V30 10672 H 1004.14 2.23469 4.11314 0
M  V30 10673 H 1004.31 3.31318 5.56895 0
M  V30 10674 N 997.718 -1.45297 0.610449 0
M  V30 10675 C 998.681 -2.28995 -0.0968194 0
M  V30 10676 C 999.681 -1.39923 -0.792353 0
M  V30 10677 O 1000.87 -1.62014 -0.64008 0
M  V30 10678 C 998.003 -3.21013 -1.14731 0
M  V30 10679 H 999.196 -2.93012 0.639082 0
M  V30 10680 H 996.749 -1.51867 0.369624 0
M  V30 10681 H 997.484 -2.61803 -1.91388 0
M  V30 10682 H 997.269 -3.86628 -0.652753 0
M  V30 10683 H 998.759 -3.8394 -1.64256 0
M  V30 10684 N 999.196 -0.349774 -1.5367 0
M  V30 10685 C 1000.13 0.496338 -2.28164 0
M  V30 10686 C 1001.11 1.09737 -1.29968 0
M  V30 10687 O 1002.29 1.11759 -1.58819 0
M  V30 10688 C 999.422 1.64428 -3.0591 0
M  V30 10689 C 998.376 1.17127 -4.11661 0
M  V30 10690 C 997.702 2.40822 -4.77398 0
M  V30 10691 C 999.002 0.267293 -5.21616 0
M  V30 10692 H 1000.7 -0.125117 -2.99138 0
M  V30 10693 H 998.242 -0.0616152 -1.43868 0
M  V30 10694 H 1000.19 2.2427 -3.56765 0
M  V30 10695 H 998.919 2.29272 -2.32598 0
M  V30 10696 H 997.578 0.595634 -3.61729 0
M  V30 10697 H 997.226 3.04088 -4.00674 0
M  V30 10698 H 996.926 2.09852 -5.48849 0
M  V30 10699 H 998.45 3.01378 -5.3104 0
M  V30 10700 H 999.864 0.772734 -5.68068 0
M  V30 10701 H 998.261 0.0491991 -6.0008 0
M  V30 10702 H 999.331 -0.694892 -4.79895 0
M  V30 10703 N 1000.67 1.57404 -0.0785433 0
M  V30 10704 C 1001.9 1.98074 0.597862 0
M  V30 10705 C 1002.32 0.95714 1.6274 0
M  V30 10706 O 1001.67 -0.0553728 1.82416 0
M  V30 10707 C 1001.72 3.38815 1.26041 0
M  V30 10708 O 1001.45 4.37254 0.27207 0
M  V30 10709 C 1002.95 3.94397 2.024 0
M  V30 10710 H 1000.17 0.651263 0.161546 0
M  V30 10711 H 1002.71 2.03927 -0.152941 0
M  V30 10712 H 1000.87 3.34028 1.96225 0
M  V30 10713 H 1001.28 5.19136 0.74822 0
M  V30 10714 H 1002.75 4.95075 2.4414 0
M  V30 10715 H 1003.23 3.31308 2.88326 0
M  V30 10716 H 1003.84 4.02607 1.37068 0
M  V30 10717 N 1002.15 -0.195058 1.56388 0
M  V30 10718 C 1003.38 -0.930291 1.8447 0
M  V30 10719 C 1003.79 -1.77356 0.658901 0
M  V30 10720 O 1003.13 -1.79691 -0.381664 0
M  V30 10721 C 1003.19 -1.87626 3.06654 0
M  V30 10722 C 1002.86 -1.21494 4.40555 0
M  V30 10723 C 1003.86 -0.591847 5.1652 0
M  V30 10724 C 1001.54 -1.21878 4.8729 0
M  V30 10725 C 1003.53 0.0185743 6.37397 0
M  V30 10726 C 1001.22 -0.604524 6.08103 0
M  V30 10727 C 1002.22 0.0130731 6.82999 0
M  V30 10728 O 1001.91 0.617703 8.01523 0
M  V30 10729 H 1001.64 -0.276933 0.616672 0
M  V30 10730 H 1004.19 -0.207277 2.04351 0
M  V30 10731 H 1002.42 -2.63897 2.82658 0
M  V30 10732 H 1004.11 -2.47929 3.21382 0
M  V30 10733 H 1004.88 -0.581018 4.81507 0
M  V30 10734 H 1000.76 -1.68888 4.2895 0
M  V30 10735 H 1004.3 0.50124 6.95797 0
M  V30 10736 H 1000.2 -0.612855 6.42584 0
M  V30 10737 H 1000.97 0.514612 8.16881 0
M  V30 10738 N 1003.63 -1.50653 -0.462772 0
M  V30 10739 C 1004.87 -1.637 -1.22399 0
M  V30 10740 C 1005.23 -0.333847 -1.89075 0
M  V30 10741 O 1006.43 -0.339837 -2.66643 0
M  V30 10742 C 1004.71 -2.79018 -2.23347 0
M  V30 10743 S 1006.26 -3.12248 -3.08296 0
M  V30 10744 H 1003.08 -0.576998 -0.415444 0
M  V30 10745 H 1005.68 -1.88468 -0.519631 0
M  V30 10746 H 1004.39 -3.72174 -1.72958 0
M  V30 10747 H 1003.92 -2.56362 -2.98399 0
M  V30 10748 H 1005.93 -2.56716 -4.24631 0
M  V30 10749 N 1005.11 0.71652 -1.4037 0
M  V30 10750 C 1006.39 1.46947 -1.29097 0
M  V30 10751 C 1006.77 2.10903 0.0911182 0
M  V30 10752 O 1006.11 2.00068 1.10385 0
M  V30 10753 C 1006.32 2.50594 -2.42907 0
M  V30 10754 C 1007.67 3.16451 -2.83097 0
M  V30 10755 O 1008.7 2.60913 -2.42493 0
M  V30 10756 O 1007.55 4.16991 -3.53244 0
M  V30 10757 H 1004.65 0.653413 -0.506932 0
M  V30 10758 H 1007.19 0.748774 -1.52287 0
M  V30 10759 H 1005.97 2.01843 -3.35224 0
M  V30 10760 H 1005.59 3.302 -2.21481 0
M  V30 10761 N 1006.59 1.25851 0.948643 0
M  V30 10762 C 1007.52 1.09248 2.06367 0
M  V30 10763 C 1008.5 -0.000205168 1.701 0
M  V30 10764 O 1009.68 0.170442 1.93451 0
M  V30 10765 C 1006.81 0.716777 3.39823 0
M  V30 10766 C 1005.77 1.76036 3.90122 0
M  V30 10767 C 1005.09 1.23918 5.20143 0
M  V30 10768 C 1006.39 3.16039 4.15833 0
M  V30 10769 H 1008.09 2.02518 2.20515 0
M  V30 10770 H 1005.63 0.975093 1.05962 0
M  V30 10771 H 1007.59 0.587531 4.17284 0
M  V30 10772 H 1006.31 -0.251626 3.25629 0
M  V30 10773 H 1004.97 1.87815 3.14835 0
M  V30 10774 H 1004.62 0.260836 5.02323 0
M  V30 10775 H 1004.32 1.93673 5.54765 0
M  V30 10776 H 1005.84 1.12245 6.00194 0
M  V30 10777 H 1007.25 3.0738 4.83933 0
M  V30 10778 H 1005.65 3.83317 4.61723 0
M  V30 10779 H 1006.72 3.62652 3.21887 0
M  V30 10780 N 1008.06 -1.15214 1.07534 0
M  V30 10781 C 1009.01 -2.18022 0.667108 0
M  V30 10782 C 1010 -1.57911 -0.308714 0
M  V30 10783 O 1011.19 -1.76578 -0.122147 0
M  V30 10784 C 1008.32 -3.43232 0.0684348 0
M  V30 10785 C 1007.41 -4.10393 1.06951 0
M  V30 10786 N 1007.8 -4.53013 2.24973 0
M  V30 10787 C 1006.09 -4.36758 0.903262 0
M  V30 10788 C 1006.8 -5.05118 2.88498 0
M  V30 10789 N 1005.77 -4.98777 2.16153 0
M  V30 10790 H 1009.57 -2.48706 1.56597 0
M  V30 10791 H 1007.09 -1.31801 0.948796 0
M  V30 10792 H 1009.08 -4.16197 -0.241934 0
M  V30 10793 H 1007.74 -3.14031 -0.825525 0
M  V30 10794 H 1008.76 -4.4634 2.6268 0
M  V30 10795 H 1005.43 -4.17453 0.0623543 0
M  V30 10796 H 1006.82 -5.48039 3.8872 0
M  V30 10797 N 1009.54 -0.859717 -1.32086 0
M  V30 10798 C 1010.49 -0.306042 -2.28762 0
M  V30 10799 C 1011.46 0.589801 -1.55276 0
M  V30 10800 O 1012.64 0.523633 -1.83474 0
M  V30 10801 C 1009.78 0.495256 -3.41528 0
M  V30 10802 C 1008.9 -0.426947 -4.29885 0
M  V30 10803 C 1008.03 0.387474 -5.29785 0
M  V30 10804 C 1007.07 -0.531807 -6.09785 0
M  V30 10805 N 1006.21 0.245741 -7.0167 0
M  V30 10806 H 1011.05 -1.1357 -2.7551 0
M  V30 10807 H 1008.59 -0.571468 -1.35546 0
M  V30 10808 H 1010.54 0.97551 -4.05635 0
M  V30 10809 H 1009.17 1.28969 -2.95917 0
M  V30 10810 H 1008.23 -1.02561 -3.66313 0
M  V30 10811 H 1009.54 -1.13226 -4.85779 0
M  V30 10812 H 1008.69 0.930677 -5.99519 0
M  V30 10813 H 1007.43 1.12612 -4.74521 0
M  V30 10814 H 1006.44 -1.08685 -5.3895 0
M  V30 10815 H 1007.66 -1.26915 -6.67135 0
M  V30 10816 H 1005.61 0.967391 -6.48828 0
M  V30 10817 H 1005.52 -0.400432 -7.54939 0
M  V30 10818 H 1006.79 0.770507 -7.75683 0
M  V30 10819 N 1011.02 1.44971 -0.618145 0
M  V30 10820 C 1012.27 2.01372 -0.115004 0
M  V30 10821 C 1012.58 1.49104 1.26599 0
M  V30 10822 O 1013.79 1.97549 1.86244 0
M  V30 10823 C 1012.24 3.59567 -0.154883 0
M  V30 10824 C 1011.85 4.20832 -1.53639 0
M  V30 10825 C 1013.6 4.23491 0.292468 0
M  V30 10826 C 1011.5 5.7121 -1.53208 0
M  V30 10827 H 1010.43 0.752979 -0.0392267 0
M  V30 10828 H 1013.08 1.66329 -0.775032 0
M  V30 10829 H 1011.47 3.91847 0.572001 0
M  V30 10830 H 1012.64 4.00109 -2.28582 0
M  V30 10831 H 1010.96 3.69143 -1.92672 0
M  V30 10832 H 1013.55 5.33771 0.315032 0
M  V30 10833 H 1013.9 3.9491 1.31725 0
M  V30 10834 H 1014.43 3.95967 -0.381493 0
M  V30 10835 H 1011.17 6.04506 -2.53481 0
M  V30 10836 H 1010.69 5.94094 -0.825387 0
M  V30 10837 H 1012.37 6.34606 -1.26032 0
M  V30 10838 N 1012.5 0.357919 1.53482 0
M  V30 10839 C 1013.43 -0.526753 2.23065 0
M  V30 10840 C 1014.44 -1.05239 1.24212 0
M  V30 10841 O 1015.63 -0.960078 1.50482 0
M  V30 10842 C 1012.73 -1.73919 2.9087 0
M  V30 10843 C 1011.91 -1.34638 4.16163 0
M  V30 10844 C 1010.96 -2.42005 4.67247 0
M  V30 10845 O 1009.99 -2.04714 5.31113 0
M  V30 10846 N 1011.19 -3.73478 4.44404 0
M  V30 10847 H 1013.96 0.0692386 2.9962 0
M  V30 10848 H 1011.52 0.182726 1.60866 0
M  V30 10849 H 1013.51 -2.45207 3.21956 0
M  V30 10850 H 1012.08 -2.24223 2.17814 0
M  V30 10851 H 1011.3 -0.463667 3.91464 0
M  V30 10852 H 1012.59 -1.06012 4.97633 0
M  V30 10853 H 1011.99 -4.06555 3.93357 0
M  V30 10854 H 1010.54 -4.40893 4.80059 0
M  V30 10855 N 1013.98 -1.5736 0.0868897 0
M  V30 10856 C 1015.39 -1.57304 -0.269762 0
M  V30 10857 C 1015.59 -1.09745 -1.68992 0
M  V30 10858 O 1014.65 -0.77017 -2.40468 0
M  V30 10859 C 1015.96 -3.00628 -0.0656646 0
M  V30 10860 C 1017.51 -3.12713 -0.134045 0
M  V30 10861 C 1017.98 -4.57981 0.0419569 0
M  V30 10862 N 1019.48 -4.63198 -0.0131501 0
M  V30 10863 C 1020.21 -5.73316 0.0983964 0
M  V30 10864 N 1019.71 -6.92296 0.264315 0
M  V30 10865 N 1021.5 -5.62086 0.0402517 0
M  V30 10866 H 1013.65 -1.86585 1.01487 0
M  V30 10867 H 1015.91 -0.860843 0.397055 0
M  V30 10868 H 1015.62 -3.39592 0.914891 0
M  V30 10869 H 1015.49 -3.68367 -0.811522 0
M  V30 10870 H 1017.88 -2.73627 -1.1051 0
M  V30 10871 H 1017.96 -2.47582 0.643167 0
M  V30 10872 H 1017.61 -4.9776 1.00984 0
M  V30 10873 H 1017.54 -5.21162 -0.754847 0
M  V30 10874 H 1020.03 -3.77644 -0.139183 0
M  V30 10875 H 1020.34 -7.72047 0.341165 0
M  V30 10876 H 1018.68 -6.94353 0.299876 0
M  V30 10877 H 1021.88 -4.68017 -0.0881801 0
M  V30 10878 H 1022.05 -6.47868 0.130635 0
M  V30 10879 N 1015.45 0.186762 -1.56489 0
M  V30 10880 C 1016.42 1.21511 -1.94339 0
M  V30 10881 C 1017.42 1.38001 -0.82537 0
M  V30 10882 O 1018.61 1.3567 -1.09266 0
M  V30 10883 C 1015.74 2.583 -2.22472 0
M  V30 10884 H 1016.93 0.891371 -2.86347 0
M  V30 10885 H 1014.49 0.428612 -1.50308 0
M  V30 10886 H 1015.22 2.95715 -1.33129 0
M  V30 10887 H 1015.01 2.47701 -3.03951 0
M  V30 10888 H 1016.5 3.32441 -2.5273 0
M  V30 10889 N 1016.93 1.50896 0.454776 0
M  V30 10890 C 1018.21 1.53227 1.21576 0
M  V30 10891 C 1018.59 0.286358 2.09149 0
M  V30 10892 O 1017.94 -0.729469 2.16543 0
M  V30 10893 C 1018.15 2.83693 2.03271 0
M  V30 10894 C 1019.5 3.34981 2.60908 0
M  V30 10895 O 1020.52 2.85126 2.13499 0
M  V30 10896 O 1019.38 4.21929 3.4733 0
M  V30 10897 H 1016.47 0.615306 0.552564 0
M  V30 10898 H 1019.02 1.63197 0.465266 0
M  V30 10899 H 1017.79 3.65839 1.38843 0
M  V30 10900 H 1017.41 2.76803 2.85422 0
M  V30 10901 N 1018.41 -0.709066 1.40748 0
M  V30 10902 C 1019.34 -1.83583 1.4429 0
M  V30 10903 C 1020.32 -1.67378 0.303067 0
M  V30 10904 O 1021.51 -1.87312 0.512612 0
M  V30 10905 C 1018.64 -3.21599 1.31116 0
M  V30 10906 C 1017.59 -3.52486 2.4277 0
M  V30 10907 C 1016.92 -4.89716 2.14668 0
M  V30 10908 C 1018.22 -3.52824 3.85113 0
M  V30 10909 H 1019.91 -1.80876 2.38588 0
M  V30 10910 H 1017.46 -0.868795 1.14839 0
M  V30 10911 H 1019.41 -4.00123 1.32209 0
M  V30 10912 H 1018.13 -3.24898 0.332965 0
M  V30 10913 H 1016.79 -2.76305 2.40937 0
M  V30 10914 H 1016.44 -4.89625 1.15224 0
M  V30 10915 H 1016.14 -5.11347 2.89478 0
M  V30 10916 H 1017.66 -5.70566 2.17455 0
M  V30 10917 H 1019.08 -4.21377 3.88734 0
M  V30 10918 H 1017.48 -3.85984 4.59496 0
M  V30 10919 H 1018.55 -2.52073 4.14231 0
M  V30 10920 N 1019.89 -1.26353 -0.941956 0
M  V30 10921 C 1020.82 -1.10341 -2.05784 0
M  V30 10922 C 1021.8 -0.00881565 -1.70098 0
M  V30 10923 O 1022.99 -0.180699 -1.93357 0
M  V30 10924 C 1020.12 -0.734788 -3.39438 0
M  V30 10925 C 1019.07 -1.78103 -3.89183 0
M  V30 10926 C 1018.4 -1.26675 -5.19478 0
M  V30 10927 C 1019.7 -3.1824 -4.14151 0
M  V30 10928 H 1021.39 -2.03684 -2.19438 0
M  V30 10929 H 1018.94 -0.980698 -1.05443 0
M  V30 10930 H 1020.89 -0.609653 -4.16967 0
M  V30 10931 H 1019.61 0.234354 -3.25758 0
M  V30 10932 H 1018.27 -1.89482 -3.13835 0
M  V30 10933 H 1017.92 -0.287472 -5.02178 0
M  V30 10934 H 1017.62 -1.96612 -5.53731 0
M  V30 10935 H 1019.14 -1.15427 -5.99591 0
M  V30 10936 H 1020.56 -3.09942 -4.82296 0
M  V30 10937 H 1018.95 -3.8576 -4.59684 0
M  V30 10938 H 1020.02 -3.64354 -3.19959 0
M  V30 10939 N 1021.37 1.14642 -1.08144 0
M  V30 10940 C 1022.28 2.23257 -0.720668 0
M  V30 10941 C 1023.29 1.71866 0.271648 0
M  V30 10942 O 1024.47 2.01064 0.116266 0
M  V30 10943 C 1021.53 3.46447 -0.132542 0
M  V30 10944 C 1020.6 4.12789 -1.17913 0
M  V30 10945 C 1019.83 5.30099 -0.618971 0
M  V30 10946 O 1020.05 5.6762 0.562418 0
M  V30 10947 O 1018.99 5.86154 -1.36774 0
M  V30 10948 H 1022.81 2.56463 -1.62667 0
M  V30 10949 H 1020.4 1.22521 -0.854932 0
M  V30 10950 H 1022.28 4.20959 0.19277 0
M  V30 10951 H 1020.95 3.14971 0.746662 0
M  V30 10952 H 1019.86 3.40163 -1.55693 0
M  V30 10953 H 1021.19 4.48365 -2.03051 0
M  V30 10954 N 1022.85 0.866709 1.31628 0
M  V30 10955 C 1024.09 0.476731 1.97117 0
M  V30 10956 C 1024.42 -0.967813 1.68366 0
M  V30 10957 O 1023.7 -1.68101 0.978377 0
M  V30 10958 C 1023.98 0.730561 3.52611 0
M  V30 10959 C 1023.84 2.2244 3.90948 0
M  V30 10960 C 1025.15 0.19488 4.39668 0
M  V30 10961 H 1022.27 0.174682 0.715999 0
M  V30 10962 H 1024.92 1.08735 1.5581 0
M  V30 10963 H 1023.07 0.210834 3.87927 0
M  V30 10964 H 1024.74 2.81113 3.6575 0
M  V30 10965 H 1022.98 2.69824 3.39673 0
M  V30 10966 H 1023.65 2.35266 4.99353 0
M  V30 10967 H 1026.13 0.639478 4.11157 0
M  V30 10968 H 1025 0.401958 5.47426 0
M  V30 10969 H 1025.26 -0.90302 4.32779 0
M  V30 10970 N 1024.32 -1.44642 0.625825 0
M  V30 10971 C 1025.25 -2.33397 -0.0692188 0
M  V30 10972 C 1026.23 -1.47898 -0.840241 0
M  V30 10973 O 1027.42 -1.7663 -0.807176 0
M  V30 10974 C 1024.55 -3.30888 -1.055 0
M  V30 10975 C 1023.5 -4.26164 -0.395968 0
M  V30 10976 C 1022.83 -5.13483 -1.49128 0
M  V30 10977 C 1024.13 -5.17663 0.694433 0
M  V30 10978 H 1025.82 -2.91763 0.671925 0
M  V30 10979 H 1023.37 -1.40294 0.324573 0
M  V30 10980 H 1025.32 -3.91861 -1.54993 0
M  V30 10981 H 1024.05 -2.7072 -1.82696 0
M  V30 10982 H 1022.71 -3.66516 0.0782691 0
M  V30 10983 H 1022.35 -4.49672 -2.25399 0
M  V30 10984 H 1022.05 -5.78038 -1.05573 0
M  V30 10985 H 1023.58 -5.77327 -1.98813 0
M  V30 10986 H 1024.99 -5.72602 0.282818 0
M  V30 10987 H 1023.39 -5.90793 1.05281 0
M  V30 10988 H 1024.46 -4.58994 1.56372 0
M  V30 10989 N 1025.8 -0.366053 -1.5329 0
M  V30 10990 C 1027.08 0.279902 -1.93587 0
M  V30 10991 C 1027.46 1.66352 -1.29963 0
M  V30 10992 O 1026.81 2.23845 -0.458895 0
M  V30 10993 C 1027.02 0.329634 -3.4744 0
M  V30 10994 C 1028.36 0.569754 -4.2076 0
M  V30 10995 O 1029.39 0.410823 -3.53823 0
M  V30 10996 O 1028.25 0.879262 -5.3938 0
M  V30 10997 H 1025.34 0.16802 -0.809752 0
M  V30 10998 H 1027.89 -0.418871 -1.64449 0
M  V30 10999 H 1026.66 -0.640434 -3.86023 0
M  V30 11000 H 1026.28 1.07428 -3.82812 0
M  V30 11001 N 1027.28 1.57312 -0.0952337 0
M  V30 11002 C 1028.21 2.09691 0.900274 0
M  V30 11003 C 1029.19 1.0075 1.27625 0
M  V30 11004 O 1030.37 1.28249 1.38147 0
M  V30 11005 C 1027.5 2.574 2.20142 0
M  V30 11006 C 1026.55 3.78 1.9753 0
M  V30 11007 S 1027.38 5.21577 1.21318 0
M  V30 11008 C 1028.54 5.72636 2.52663 0
M  V30 11009 H 1028.77 2.93803 0.45467 0
M  V30 11010 H 1026.3 1.53948 0.118056 0
M  V30 11011 H 1028.26 2.85546 2.94914 0
M  V30 11012 H 1026.92 1.73514 2.61824 0
M  V30 11013 H 1026.11 4.09451 2.93881 0
M  V30 11014 H 1025.72 3.50349 1.30888 0
M  V30 11015 H 1028.01 5.80911 3.48638 0
M  V30 11016 H 1028.95 6.71136 2.25791 0
M  V30 11017 H 1029.36 5.00569 2.60943 0
M  V30 11018 N 1028.76 -0.17846 1.56586 0
M  V30 11019 C 1029.99 -0.910674 1.85446 0
M  V30 11020 C 1030.4 -1.76647 0.677675 0
M  V30 11021 O 1029.74 -1.80086 -0.362584 0
M  V30 11022 C 1029.8 -1.84363 3.08627 0
M  V30 11023 C 1029.46 -1.16814 4.41818 0
M  V30 11024 C 1030.46 -0.53703 5.17119 0
M  V30 11025 C 1028.15 -1.16703 4.88555 0
M  V30 11026 C 1030.14 0.0861778 6.37342 0
M  V30 11027 C 1027.83 -0.539992 6.0871 0
M  V30 11028 C 1028.83 0.0855135 6.82946 0
M  V30 11029 O 1028.51 0.70268 8.00823 0
M  V30 11030 H 1028.25 -0.270377 0.619574 0
M  V30 11031 H 1030.8 -0.185591 2.0456 0
M  V30 11032 H 1029.03 -2.60884 2.85441 0
M  V30 11033 H 1030.72 -2.44506 3.23993 0
M  V30 11034 H 1031.48 -0.529915 4.82096 0
M  V30 11035 H 1027.36 -1.64329 4.30717 0
M  V30 11036 H 1030.91 0.575011 6.95226 0
M  V30 11037 H 1026.8 -0.544666 6.43198 0
M  V30 11038 H 1027.57 0.601224 8.16289 0
M  V30 11039 N 1030.24 -1.51135 -0.446768 0
M  V30 11040 C 1031.65 -1.55919 -1.02694 0
M  V30 11041 C 1032 -0.377038 -1.92543 0
M  V30 11042 O 1031.12 0.507295 -2.1037 0
M  V30 11043 C 1031.72 -2.8257 -1.86922 0
M  V30 11044 C 1030.28 -2.89956 -2.40005 0
M  V30 11045 C 1029.42 -2.50482 -1.18971 0
M  V30 11046 H 1032.37 -1.57048 -0.228403 0
M  V30 11047 H 1032.4 -2.65799 -2.7227 0
M  V30 11048 H 1031.91 -3.6859 -1.21502 0
M  V30 11049 H 1030.01 -2.08343 -3.08907 0
M  V30 11050 H 1030.12 -3.93399 -2.73448 0
M  V30 11051 H 1028.49 -2.03466 -1.53211 0
M  V30 11052 H 1029.27 -3.38837 -0.551762 0
M  V30 11053 N 1031.71 0.701592 -1.41122 0
M  V30 11054 C 1032.68 1.79733 -1.42227 0
M  V30 11055 C 1033.68 1.57708 -0.313831 0
M  V30 11056 O 1034.87 1.64492 -0.573423 0
M  V30 11057 C 1032 3.18024 -1.22775 0
M  V30 11058 H 1033.19 1.80148 -2.39764 0
M  V30 11059 H 1030.74 0.908624 -1.27176 0
M  V30 11060 H 1031.48 3.23252 -0.260552 0
M  V30 11061 H 1031.26 3.35411 -2.0308 0
M  V30 11062 H 1032.75 3.98021 -1.2637 0
M  V30 11063 N 1033.19 1.2685 0.935242 0
M  V30 11064 C 1034.44 1.12745 1.68211 0
M  V30 11065 C 1034.77 -0.328128 1.91712 0
M  V30 11066 O 1034.02 -1.25701 1.49993 0
M  V30 11067 C 1034.32 1.8482 3.05903 0
M  V30 11068 C 1033.99 3.347 3.02137 0
M  V30 11069 C 1032.65 3.75583 3.00817 0
M  V30 11070 C 1035 4.30368 2.93995 0
M  V30 11071 C 1032.33 5.10511 2.89129 0
M  V30 11072 C 1034.68 5.65343 2.83848 0
M  V30 11073 C 1033.34 6.0553 2.80874 0
M  V30 11074 H 1032.61 0.412563 0.615527 0
M  V30 11075 H 1035.26 1.57366 1.09124 0
M  V30 11076 H 1033.57 1.32685 3.68649 0
M  V30 11077 H 1035.26 1.71341 3.62551 0
M  V30 11078 H 1031.85 3.02182 3.03947 0
M  V30 11079 H 1036.04 3.9976 2.94118 0
M  V30 11080 H 1031.29 5.40802 2.85208 0
M  V30 11081 H 1035.47 6.39151 2.76512 0
M  V30 11082 H 1033.09 7.10037 2.71573 0
M  V30 11083 N 1034.67 -1.14067 1.0875 0
M  V30 11084 C 1035.63 -2.17453 0.724341 0
M  V30 11085 C 1036.63 -1.58959 -0.242614 0
M  V30 11086 O 1037.82 -1.74186 -0.0217008 0
M  V30 11087 C 1034.96 -3.40828 0.0700236 0
M  V30 11088 H 1036.15 -2.51094 1.63987 0
M  V30 11089 H 1033.7 -1.28775 0.885813 0
M  V30 11090 H 1034.44 -3.1277 -0.857061 0
M  V30 11091 H 1034.22 -3.84551 0.76569 0
M  V30 11092 H 1035.71 -4.17258 -0.168905 0
M  V30 11093 N 1036.15 -0.873678 -1.31166 0
M  V30 11094 C 1037.06 -0.335726 -2.32185 0
M  V30 11095 C 1038.07 0.556259 -1.64869 0
M  V30 11096 O 1039.25 0.452087 -1.9626 0
M  V30 11097 C 1036.32 0.450822 -3.43756 0
M  V30 11098 C 1035.38 -0.469565 -4.26724 0
M  V30 11099 C 1034.61 0.279538 -5.32967 0
M  V30 11100 O 1034.83 1.50715 -5.50128 0
M  V30 11101 O 1033.77 -0.36452 -6.00795 0
M  V30 11102 H 1037.59 -1.17314 -2.80127 0
M  V30 11103 H 1035.18 -0.637163 -1.35132 0
M  V30 11104 H 1037.06 0.896582 -4.11752 0
M  V30 11105 H 1035.73 1.26472 -2.9797 0
M  V30 11106 H 1034.64 -0.963902 -3.61469 0
M  V30 11107 H 1035.97 -1.24916 -4.76085 0
M  V30 11108 N 1037.63 1.44308 -0.633487 0
M  V30 11109 C 1038.85 2.06897 -0.144347 0
M  V30 11110 C 1039.28 1.47045 1.173 0
M  V30 11111 O 1038.63 0.572806 1.72013 0
M  V30 11112 C 1038.68 3.60571 -0.0456324 0
M  V30 11113 O 1037.79 4.0015 0.997682 0
M  V30 11114 H 1037.13 0.658427 -0.0858499 0
M  V30 11115 H 1039.66 1.85142 -0.870833 0
M  V30 11116 H 1039.67 4.07745 0.144178 0
M  V30 11117 H 1038.34 4.03515 -1.0074 0
M  V30 11118 H 1036.92 3.64603 0.782252 0
M  V30 11119 N 1039.1 0.374177 1.53094 0
M  V30 11120 C 1040.35 -0.212816 2.01379 0
M  V30 11121 C 1040.68 -1.48069 1.26118 0
M  V30 11122 O 1039.93 -1.92625 0.345561 0
M  V30 11123 C 1040.23 -0.542179 3.53264 0
M  V30 11124 C 1039.9 0.632375 4.46444 0
M  V30 11125 C 1038.56 0.954635 4.71636 0
M  V30 11126 C 1040.91 1.41887 5.01515 0
M  V30 11127 C 1038.24 2.06521 5.4915 0
M  V30 11128 C 1040.59 2.51993 5.80243 0
M  V30 11129 C 1039.26 2.84744 6.03719 0
M  V30 11130 H 1038.53 -0.0778749 0.736897 0
M  V30 11131 H 1041.17 0.508412 1.84628 0
M  V30 11132 H 1039.48 -1.34454 3.68007 0
M  V30 11133 H 1041.18 -1.00874 3.88105 0
M  V30 11134 H 1037.77 0.371179 4.2699 0
M  V30 11135 H 1041.95 1.18315 4.81991 0
M  V30 11136 H 1037.21 2.32284 5.65557 0
M  V30 11137 H 1041.38 3.13346 6.21922 0
M  V30 11138 H 1039.01 3.70921 6.63568 0
M  V30 11139 N 1040.58 -1.57259 0.103575 0
M  V30 11140 C 1041.83 -1.95744 -0.552781 0
M  V30 11141 C 1042.18 -0.985175 -1.65264 0
M  V30 11142 O 1041.48 -0.0125763 -1.91596 0
M  V30 11143 C 1041.67 -3.38549 -1.14538 0
M  V30 11144 C 1041.5 -4.49579 -0.104467 0
M  V30 11145 C 1040.27 -5.04273 0.321999 0
M  V30 11146 C 1042.47 -5.09909 0.670622 0
M  V30 11147 N 1040.45 -5.98866 1.3503 0
M  V30 11148 C 1041.82 -6.00299 1.55052 0
M  V30 11149 C 1043.88 -4.9262 0.723209 0
M  V30 11150 C 1042.58 -6.75254 2.4784 0
M  V30 11151 C 1044.6 -5.68243 1.63873 0
M  V30 11152 C 1043.97 -6.58306 2.50624 0
M  V30 11153 H 1040.07 -0.762769 -0.172359 0
M  V30 11154 H 1042.65 -1.93789 0.188113 0
M  V30 11155 H 1040.82 -3.41182 -1.85606 0
M  V30 11156 H 1042.55 -3.64194 -1.7648 0
M  V30 11157 H 1039.31 -4.73552 -0.0674026 0
M  V30 11158 H 1039.73 -6.50865 1.86291 0
M  V30 11159 H 1044.37 -4.22747 0.0666625 0
M  V30 11160 H 1042.09 -7.44383 3.14516 0
M  V30 11161 H 1045.68 -5.56876 1.68466 0
M  V30 11162 H 1044.56 -7.15799 3.20315 0
M  V30 11163 N 1042.06 0.170153 -1.56679 0
M  V30 11164 C 1043.29 0.90618 -1.86556 0
M  V30 11165 C 1043.71 1.74986 -0.690044 0
M  V30 11166 O 1043.07 1.77672 0.360862 0
M  V30 11167 C 1043.12 1.75777 -3.14857 0
M  V30 11168 O 1042.22 2.85952 -2.97162 0
M  V30 11169 H 1041.56 0.253781 -0.613589 0
M  V30 11170 H 1044.09 0.167943 -2.0391 0
M  V30 11171 H 1044.1 2.15747 -3.46291 0
M  V30 11172 H 1042.78 1.13807 -4.00026 0
M  V30 11173 H 1041.35 2.49557 -2.77084 0
M  V30 11174 N 1043.54 1.5137 0.438746 0
M  V30 11175 C 1044.49 1.72582 1.53245 0
M  V30 11176 C 1045.46 0.567488 1.56105 0
M  V30 11177 O 1046.64 0.80176 1.73137 0
M  V30 11178 C 1043.78 1.85551 2.90972 0
M  V30 11179 C 1042.89 3.13094 2.97652 0
M  V30 11180 C 1042.03 3.16666 4.26493 0
M  V30 11181 C 1041.07 4.38529 4.27035 0
M  V30 11182 N 1040.2 4.39659 5.47398 0
M  V30 11183 H 1045.04 2.65941 1.3446 0
M  V30 11184 H 1042.58 1.31801 0.653206 0
M  V30 11185 H 1044.54 1.91053 3.70884 0
M  V30 11186 H 1043.17 0.956025 3.08318 0
M  V30 11187 H 1042.22 3.16909 2.10412 0
M  V30 11188 H 1043.53 4.03009 2.93914 0
M  V30 11189 H 1042.69 3.21075 5.14777 0
M  V30 11190 H 1041.43 2.24637 4.32885 0
M  V30 11191 H 1040.43 4.34297 3.37144 0
M  V30 11192 H 1041.66 5.31821 4.22307 0
M  V30 11193 H 1039.6 3.50499 5.54514 0
M  V30 11194 H 1039.52 5.23382 5.45534 0
M  V30 11195 H 1040.79 4.48259 6.37718 0
M  V30 11196 N 1045.02 -0.694098 1.41492 0
M  V30 11197 C 1045.95 -1.82042 1.46229 0
M  V30 11198 C 1046.93 -1.67047 0.320803 0
M  V30 11199 O 1048.11 -1.86758 0.53245 0
M  V30 11200 C 1045.24 -3.2019 1.34519 0
M  V30 11201 C 1044.2 -3.49892 2.46495 0
M  V30 11202 C 1043.52 -4.87411 2.1985 0
M  V30 11203 C 1044.82 -3.4872 3.88834 0
M  V30 11204 H 1046.52 -1.78335 2.40493 0
M  V30 11205 H 1044.06 -0.856566 1.15754 0
M  V30 11206 H 1046.02 -3.98699 1.36445 0
M  V30 11207 H 1044.74 -3.24527 0.367406 0
M  V30 11208 H 1043.4 -2.73734 2.43854 0
M  V30 11209 H 1043.05 -4.88375 1.20411 0
M  V30 11210 H 1042.75 -5.08248 2.94885 0
M  V30 11211 H 1044.27 -5.68228 2.23494 0
M  V30 11212 H 1045.68 -4.1723 3.93182 0
M  V30 11213 H 1044.08 -3.81089 4.63564 0
M  V30 11214 H 1045.15 -2.47665 4.16881 0
M  V30 11215 N 1046.49 -1.27344 -0.928501 0
M  V30 11216 C 1047.4 -1.11812 -2.06241 0
M  V30 11217 C 1048.42 -0.048347 -1.73933 0
M  V30 11218 O 1049.6 -0.25467 -1.99783 0
M  V30 11219 C 1046.66 -0.766036 -3.38131 0
M  V30 11220 C 1045.72 -1.91659 -3.84142 0
M  V30 11221 C 1044.96 -1.58121 -5.09738 0
M  V30 11222 O 1045.18 -0.488742 -5.68302 0
M  V30 11223 O 1044.11 -2.42013 -5.51102 0
M  V30 11224 H 1047.94 -2.06967 -2.22258 0
M  V30 11225 H 1045.52 -1.06524 -1.04752 0
M  V30 11226 H 1047.41 -0.582982 -4.17348 0
M  V30 11227 H 1046.08 0.155998 -3.23324 0
M  V30 11228 H 1044.99 -2.1547 -3.05816 0
M  V30 11229 H 1046.32 -2.8188 -4.0349 0
M  V30 11230 N 1047.97 1.13488 -1.09353 0
M  V30 11231 C 1049.22 1.85022 -0.830354 0
M  V30 11232 C 1049.55 1.83266 0.64242 0
M  V30 11233 O 1048.83 1.27024 1.47293 0
M  V30 11234 C 1049.11 3.33218 -1.36521 0
M  V30 11235 C 1048.96 3.43491 -2.90404 0
M  V30 11236 C 1050.28 4.28626 -0.998381 0
M  V30 11237 H 1047.4 0.671786 -0.303105 0
M  V30 11238 H 1050.04 1.33211 -1.3548 0
M  V30 11239 H 1048.19 3.77471 -0.919117 0
M  V30 11240 H 1049.86 3.07954 -3.43456 0
M  V30 11241 H 1048.11 2.84391 -3.27573 0
M  V30 11242 H 1048.78 4.47702 -3.22905 0
M  V30 11243 H 1051.25 3.9244 -1.38311 0
M  V30 11244 H 1050.13 5.30754 -1.39968 0
M  V30 11245 H 1050.39 4.42001 0.093517 0
M  V30 11246 N 1049.45 0.880621 1.30701 0
M  V30 11247 C 1050.68 0.511682 2.00473 0
M  V30 11248 C 1051.09 -0.898684 1.6604 0
M  V30 11249 O 1050.45 -1.59035 0.895218 0
M  V30 11250 C 1050.5 0.671723 3.55204 0
M  V30 11251 O 1050.22 2.02656 3.8841 0
M  V30 11252 C 1051.72 0.3052 4.42248 0
M  V30 11253 H 1048.94 0.198231 0.64105 0
M  V30 11254 H 1051.49 1.18472 1.66687 0
M  V30 11255 H 1049.64 0.0461066 3.87373 0
M  V30 11256 H 1050.06 2.04202 4.83117 0
M  V30 11257 H 1051.53 0.468095 5.50012 0
M  V30 11258 H 1052.01 -0.756456 4.32637 0
M  V30 11259 H 1052.61 0.906959 4.15517 0
M  V30 11260 N 1050.93 -1.4397 0.641131 0
M  V30 11261 C 1052.18 -2.01946 0.149629 0
M  V30 11262 C 1052.5 -1.50496 -1.23212 0
M  V30 11263 O 1051.76 -0.683453 -1.83378 0
M  V30 11264 C 1052.06 -3.5727 0.0963368 0
M  V30 11265 C 1051.72 -4.28016 1.4182 0
M  V30 11266 C 1050.39 -4.47059 1.78021 0
M  V30 11267 C 1052.74 -4.68183 2.29028 0
M  V30 11268 C 1050.07 -5.03532 3.01119 0
M  V30 11269 C 1052.42 -5.26019 3.51406 0
M  V30 11270 C 1051.08 -5.4328 3.87818 0
M  V30 11271 H 1050.35 -0.738974 0.0547531 0
M  V30 11272 H 1053 -1.72605 0.829436 0
M  V30 11273 H 1051.3 -3.86083 -0.666879 0
M  V30 11274 H 1053 -3.99871 -0.300635 0
M  V30 11275 H 1049.59 -4.13531 1.12651 0
M  V30 11276 H 1053.78 -4.53175 2.02353 0
M  V30 11277 H 1049.03 -5.15082 3.29395 0
M  V30 11278 H 1053.21 -5.56092 4.19208 0
M  V30 11279 H 1050.83 -5.86805 4.83284 0
M  V30 11280 N 1052.41 -0.382291 -1.52893 0
M  V30 11281 C 1053.36 0.471187 -2.27778 0
M  V30 11282 C 1054.35 1.0691 -1.31402 0
M  V30 11283 O 1055.56 1.01038 -1.48967 0
M  V30 11284 H 1051.93 0.170696 -0.732371 0
M  V30 11285 H 1053.9 -0.181954 -2.97845 0
M  V30 11286 C 1052.65 1.59012 -3.09209 0
M  V30 11287 H 1051.97 1.13935 -3.83222 0
M  V30 11288 H 1053.41 2.16167 -3.64757 0
M  V30 11289 C 1051.87 2.54212 -2.21084 0
M  V30 11290 O 1052.4 3.57447 -1.83288 0
M  V30 11291 N 1050.61 2.23789 -1.85383 0
M  V30 11292 H 1050.16 1.39872 -2.16318 0
M  V30 11293 H 1050.11 2.87737 -1.26708 0
M  V30 11294 N 1053.89 1.57202 -0.111913 0
M  V30 11295 C 1054.82 2.17957 0.837683 0
M  V30 11296 C 1055.8 1.1176 1.28233 0
M  V30 11297 O 1056.98 1.39967 1.34621 0
M  V30 11298 C 1054.11 2.77333 2.09054 0
M  V30 11299 C 1053.07 3.8905 1.78393 0
M  V30 11300 C 1052.39 4.35203 3.10649 0
M  V30 11301 C 1053.69 5.11477 1.05775 0
M  V30 11302 H 1055.39 2.9756 0.331441 0
M  V30 11303 H 1052.93 1.43131 0.157979 0
M  V30 11304 H 1054.88 3.18492 2.75936 0
M  V30 11305 H 1053.61 1.95009 2.6199 0
M  V30 11306 H 1052.27 3.48456 1.13903 0
M  V30 11307 H 1051.92 3.49747 3.61506 0
M  V30 11308 H 1051.62 5.10534 2.9091 0
M  V30 11309 H 1053.14 4.79007 3.78661 0
M  V30 11310 H 1054.55 5.497 1.62798 0
M  V30 11311 H 1052.95 5.92346 0.961573 0
M  V30 11312 H 1054.02 4.84881 0.043297 0
M  V30 11313 N 1055.36 -0.161842 1.56767 0
M  V30 11314 C 1056.78 -0.51396 1.51098 0
M  V30 11315 C 1056.98 -1.84158 0.817815 0
M  V30 11316 O 1056.04 -2.49592 0.382133 0
M  V30 11317 C 1057.35 -0.537966 2.95849 0
M  V30 11318 C 1058.9 -0.624512 3.06706 0
M  V30 11319 C 1059.37 -0.679322 4.52934 0
M  V30 11320 N 1060.86 -0.741953 4.57219 0
M  V30 11321 C 1061.6 -0.805096 5.6772 0
M  V30 11322 N 1061.09 -0.828492 6.87828 0
M  V30 11323 N 1062.89 -0.844843 5.55715 0
M  V30 11324 H 1055.04 0.708581 2.00232 0
M  V30 11325 H 1057.3 0.25663 0.912603 0
M  V30 11326 H 1057.01 0.369052 3.49758 0
M  V30 11327 H 1056.88 -1.38113 3.51005 0
M  V30 11328 H 1059.27 -1.52195 2.52825 0
M  V30 11329 H 1059.35 0.245515 2.54619 0
M  V30 11330 H 1058.99 0.213901 5.07449 0
M  V30 11331 H 1058.92 -1.56563 5.02788 0
M  V30 11332 H 1061.41 -0.731772 3.70747 0
M  V30 11333 H 1061.73 -0.878109 7.67795 0
M  V30 11334 H 1060.07 -0.796612 6.9042 0
M  V30 11335 H 1063.26 -0.823632 4.60797 0
M  V30 11336 H 1063.44 -0.890588 6.41851 0
M  V30 11337 N 1056.84 -1.516 -0.430713 0
M  V30 11338 C 1058.12 -1.55142 -1.19123 0
M  V30 11339 C 1058.5 -0.319596 -2.08667 0
M  V30 11340 O 1057.85 0.694927 -2.17676 0
M  V30 11341 C 1058.06 -2.86891 -1.98732 0
M  V30 11342 C 1059.4 -3.39089 -2.55546 0
M  V30 11343 O 1060.43 -2.88486 -2.08936 0
M  V30 11344 O 1059.29 -4.27401 -3.40574 0
M  V30 11345 H 1056.38 -0.624019 -0.542705 0
M  V30 11346 H 1058.93 -1.63917 -0.439244 0
M  V30 11347 H 1057.7 -3.68002 -1.33005 0
M  V30 11348 H 1057.32 -2.81309 -2.80982 0
M  V30 11349 N 1058.32 0.686584 -1.41858 0
M  V30 11350 C 1059.28 1.78214 -1.44126 0
M  V30 11351 C 1060.28 1.57366 -0.330541 0
M  V30 11352 O 1061.47 1.63874 -0.590837 0
M  V30 11353 C 1058.6 3.16704 -1.26142 0
M  V30 11354 H 1059.8 1.77594 -2.41661 0
M  V30 11355 H 1057.35 0.895085 -1.28132 0
M  V30 11356 H 1058.09 3.22957 -0.294823 0
M  V30 11357 H 1057.87 3.33238 -2.06627 0
M  V30 11358 H 1059.36 3.96658 -1.30584 0
M  V30 11359 N 1059.8 1.27835 0.921735 0
M  V30 11360 C 1060.76 1.11108 2.00469 0
M  V30 11361 C 1061.76 0.053203 1.60712 0
M  V30 11362 O 1062.95 0.298308 1.71627 0
M  V30 11363 C 1060.08 0.694269 3.33755 0
M  V30 11364 H 1061.28 2.07279 2.16738 0
M  V30 11365 H 1058.83 1.10708 1.10333 0
M  V30 11366 H 1059.56 -0.268561 3.23186 0
M  V30 11367 H 1059.35 1.45836 3.6397 0
M  V30 11368 H 1060.84 0.59965 4.13272 0
M  V30 11369 N 1061.28 -1.12907 1.09954 0
M  V30 11370 C 1062.52 -1.83941 0.837255 0
M  V30 11371 C 1062.84 -1.84234 -0.638984 0
M  V30 11372 O 1062.11 -1.30193 -1.46378 0
M  V30 11373 H 1060.69 -0.681115 0.306743 0
M  V30 11374 H 1063.36 -1.36743 1.38879 0
M  V30 11375 H 1062.45 -2.88289 1.19565 0
M  V30 11376 N 1062.75 -0.88754 -1.30232 0
M  V30 11377 C 1064 -0.506277 -1.95656 0
M  V30 11378 C 1064.32 0.948191 -1.70395 0
M  V30 11379 O 1063.59 1.66701 -1.02895 0
M  V30 11380 H 1062.17 -0.184235 -0.723924 0
M  V30 11381 H 1064.83 -1.13118 -1.58715 0
M  V30 11382 H 1063.93 -0.678673 -3.04632 0
M  V30 11383 N 1064.23 1.43628 -0.648757 0
M  V30 11384 C 1065.16 2.33478 0.0320785 0
M  V30 11385 C 1066.14 1.49217 0.816605 0
M  V30 11386 O 1067.33 1.77892 0.778974 0
M  V30 11387 C 1064.46 3.32525 1.00222 0
M  V30 11388 C 1063.41 4.2674 0.328119 0
M  V30 11389 C 1062.74 5.15791 1.4094 0
M  V30 11390 C 1064.04 5.16493 -0.776701 0
M  V30 11391 H 1065.73 2.90657 -0.718257 0
M  V30 11392 H 1063.28 1.3976 -0.346852 0
M  V30 11393 H 1065.23 3.94277 1.4874 0
M  V30 11394 H 1063.96 2.73593 1.78366 0
M  V30 11395 H 1062.61 3.66346 -0.136569 0
M  V30 11396 H 1062.26 4.53201 2.18216 0
M  V30 11397 H 1061.96 5.79645 0.963631 0
M  V30 11398 H 1063.49 5.80416 1.89603 0
M  V30 11399 H 1064.9 5.7208 -0.373878 0
M  V30 11400 H 1063.3 5.89043 -1.14667 0
M  V30 11401 H 1064.37 4.56448 -1.63654 0
M  V30 11402 N 1065.71 0.390394 1.52688 0
M  V30 11403 C 1066.66 -0.461191 2.23287 0
M  V30 11404 C 1067.64 -1.02875 1.23716 0
M  V30 11405 O 1068.84 -0.954675 1.49047 0
M  V30 11406 C 1065.97 -1.58736 3.04397 0
M  V30 11407 C 1065.05 -1.03149 4.11365 0
M  V30 11408 N 1065.44 -0.20066 5.05402 0
M  V30 11409 C 1063.74 -1.30388 4.26515 0
M  V30 11410 C 1064.44 0.106548 5.81602 0
M  V30 11411 N 1063.42 -0.497687 5.41317 0
M  V30 11412 H 1067.22 0.1801 2.93348 0
M  V30 11413 H 1064.73 0.199761 1.61167 0
M  V30 11414 H 1066.73 -2.20986 3.53512 0
M  V30 11415 H 1065.39 -2.23147 2.35872 0
M  V30 11416 H 1066.4 0.162168 5.17646 0
M  V30 11417 H 1063.08 -1.94894 3.69219 0
M  V30 11418 H 1064.47 0.779778 6.6736 0
M  V30 11419 N 1067.19 -1.57141 0.120249 0
M  V30 11420 C 1068.41 -2.00017 -0.548454 0
M  V30 11421 C 1068.84 -0.999433 -1.59352 0
M  V30 11422 O 1068.2 0.0286978 -1.81277 0
M  V30 11423 C 1068.24 -3.41766 -1.15015 0
M  V30 11424 O 1067.35 -3.44589 -2.26566 0
M  V30 11425 H 1066.69 -0.649739 -0.136875 0
M  V30 11426 H 1069.22 -2.03529 0.209092 0
M  V30 11427 H 1069.23 -3.80001 -1.48537 0
M  V30 11428 H 1067.9 -4.14117 -0.384681 0
M  V30 11429 H 1066.48 -3.18174 -1.94473 0
M  V30 11430 N 1068.67 0.153526 -1.5685 0
M  V30 11431 C 1069.89 0.886343 -1.87507 0
M  V30 11432 C 1070.32 1.74244 -0.708565 0
M  V30 11433 O 1069.67 1.78045 0.341997 0
M  V30 11434 C 1069.72 1.72428 -3.16703 0
M  V30 11435 O 1068.83 2.82784 -3.00178 0
M  V30 11436 H 1068.17 0.247259 -0.616246 0
M  V30 11437 H 1070.7 0.146306 -2.04076 0
M  V30 11438 H 1070.71 2.12062 -3.4856 0
M  V30 11439 H 1069.38 1.09558 -4.01211 0
M  V30 11440 H 1067.96 2.46604 -2.79716 0
M  V30 11441 N 1070.14 1.51827 0.422667 0
M  V30 11442 C 1071.56 1.57533 1.00201 0
M  V30 11443 C 1071.91 0.407623 1.91919 0
M  V30 11444 O 1071.03 -0.473763 2.1115 0
M  V30 11445 C 1071.63 2.85508 1.82403 0
M  V30 11446 C 1070.19 2.93737 2.35362 0
M  V30 11447 C 1069.33 2.52343 1.14971 0
M  V30 11448 H 1072.28 1.57391 0.20339 0
M  V30 11449 H 1072.3 2.70097 2.68007 0
M  V30 11450 H 1071.82 3.70477 1.15623 0
M  V30 11451 H 1069.92 2.13231 3.05554 0
M  V30 11452 H 1070.03 3.977 2.67155 0
M  V30 11453 H 1068.39 2.05878 1.49955 0
M  V30 11454 H 1069.18 3.39672 0.497786 0
M  V30 11455 N 1071.62 -0.679052 1.4222 0
M  V30 11456 C 1073.04 -0.991665 1.25053 0
M  V30 11457 C 1073.24 -2.00928 0.151665 0
M  V30 11458 O 1072.29 -2.47925 -0.478507 0
M  V30 11459 C 1073.61 -1.50053 2.60585 0
M  V30 11460 C 1075.16 -1.61852 2.67905 0
M  V30 11461 C 1075.63 -2.16135 4.03794 0
M  V30 11462 N 1077.12 -2.23474 4.05726 0
M  V30 11463 C 1077.86 -2.66541 5.07685 0
M  V30 11464 N 1077.35 -3.09092 6.20028 0
M  V30 11465 N 1079.15 -2.66252 4.95042 0
M  V30 11466 H 1071.3 -0.00521851 2.12399 0
M  V30 11467 H 1073.56 -0.0648465 0.94578 0
M  V30 11468 H 1073.27 -0.82731 3.41831 0
M  V30 11469 H 1073.14 -2.47998 2.84213 0
M  V30 11470 H 1075.53 -2.28281 1.87008 0
M  V30 11471 H 1075.61 -0.624074 2.4807 0
M  V30 11472 H 1075.25 -1.50316 4.85147 0
M  V30 11473 H 1075.18 -3.16363 4.20978 0
M  V30 11474 H 1077.67 -1.93467 3.24621 0
M  V30 11475 H 1077.99 -3.40627 6.93681 0
M  V30 11476 H 1076.33 -3.06959 6.23539 0
M  V30 11477 H 1079.52 -2.32369 4.06352 0
M  V30 11478 H 1079.69 -2.99496 5.74636 0
M  V30 11479 N 1073.1 -1.28322 -0.914942 0
M  V30 11480 C 1074.03 -1.07947 -2.02188 0
M  V30 11481 C 1075.05 -0.0315743 -1.62769 0
M  V30 11482 O 1076.23 -0.274503 -1.76377 0
M  V30 11483 C 1073.33 -0.61805 -3.33217 0
M  V30 11484 C 1072.51 -1.74109 -4.01254 0
M  V30 11485 C 1071.57 -1.27325 -5.10563 0
M  V30 11486 O 1070.59 -1.97526 -5.33828 0
M  V30 11487 N 1071.79 -0.1358 -5.80341 0
M  V30 11488 H 1074.56 -2.03275 -2.20225 0
M  V30 11489 H 1072.12 -1.20059 -1.08616 0
M  V30 11490 H 1074.11 -0.288693 -4.03669 0
M  V30 11491 H 1072.68 0.242348 -3.11659 0
M  V30 11492 H 1071.9 -2.2401 -3.24366 0
M  V30 11493 H 1073.19 -2.49448 -4.43456 0
M  V30 11494 H 1072.59 0.449846 -5.63909 0
M  V30 11495 H 1071.15 0.134289 -6.51662 0
M  V30 11496 N 1074.58 1.12322 -1.10551 0
M  V30 11497 C 1075.54 2.16273 -0.758844 0
M  V30 11498 C 1076.54 1.59325 0.217294 0
M  V30 11499 O 1077.73 1.74199 -0.00601346 0
M  V30 11500 C 1074.86 3.40674 -0.124238 0
M  V30 11501 H 1076.06 2.48454 -1.6796 0
M  V30 11502 H 1073.61 1.2735 -0.906188 0
M  V30 11503 H 1074.34 3.14094 0.807194 0
M  V30 11504 H 1074.13 3.83284 -0.826772 0
M  V30 11505 H 1075.62 4.17474 0.102502 0
M  V30 11506 N 1076.06 0.894434 1.2976 0
M  V30 11507 C 1077.47 0.566892 1.77885 0
M  V30 11508 C 1077.82 -0.917289 1.73437 0
M  V30 11509 O 1076.94 -1.71707 1.31703 0
M  V30 11510 C 1077.54 1.02227 3.2301 0
M  V30 11511 C 1076.1 0.745978 3.68934 0
M  V30 11512 C 1075.24 1.19993 2.49994 0
M  V30 11513 H 1078.2 1.0777 1.16496 0
M  V30 11514 H 1078.22 0.355281 3.78838 0
M  V30 11515 H 1077.73 2.1025 3.26215 0
M  V30 11516 H 1075.83 -0.321866 3.71207 0
M  V30 11517 H 1075.94 1.34017 4.59974 0
M  V30 11518 H 1074.31 0.619047 2.47063 0
M  V30 11519 H 1075.09 2.28811 2.55931 0
M  V30 11520 N 1077.53 -1.43282 0.656365 0
M  V30 11521 C 1078.78 -2.01378 0.170702 0
M  V30 11522 C 1079.1 -1.52063 -1.22073 0
M  V30 11523 O 1078.37 -0.73456 -1.81607 0
M  V30 11524 H 1076.95 -0.744577 0.0601168 0
M  V30 11525 H 1079.62 -1.75449 0.848739 0
M  V30 11526 H 1078.71 -3.11701 0.157745 0
M  V30 11527 N 1079.01 -0.398486 -1.52479 0
M  V30 11528 C 1080.24 0.183059 -2.06591 0
M  V30 11529 C 1080.66 1.3898 -1.26753 0
M  V30 11530 O 1080.02 1.78885 -0.294959 0
M  V30 11531 C 1080.07 0.522392 -3.56796 0
M  V30 11532 O 1079.17 1.61499 -3.79462 0
M  V30 11533 H 1078.51 0.0188411 -0.663733 0
M  V30 11534 H 1081.04 -0.56861 -1.9654 0
M  V30 11535 H 1081.05 0.784078 -4.00395 0
M  V30 11536 H 1079.73 -0.359807 -4.14341 0
M  V30 11537 H 1078.31 1.3463 -3.47749 0
M  V30 11538 N 1080.49 1.57075 -0.12858 0
M  V30 11539 C 1081.42 2.12907 0.848708 0
M  V30 11540 C 1082.44 1.07406 1.22343 0
M  V30 11541 O 1083.63 1.34746 1.17071 0
M  V30 11542 C 1080.73 2.62167 2.1476 0
M  V30 11543 C 1079.9 3.91871 1.94309 0
M  V30 11544 C 1078.96 4.26629 3.08016 0
M  V30 11545 O 1077.98 4.9528 2.80511 0
M  V30 11546 N 1079.19 3.84721 4.34706 0
M  V30 11547 H 1081.95 2.97387 0.371636 0
M  V30 11548 H 1079.51 1.61805 0.0555574 0
M  V30 11549 H 1081.5 2.82444 2.89841 0
M  V30 11550 H 1080.07 1.82514 2.53786 0
M  V30 11551 H 1079.29 3.80406 1.03367 0
M  V30 11552 H 1080.58 4.76662 1.77962 0
M  V30 11553 H 1079.98 3.2937 4.59926 0
M  V30 11554 H 1078.54 4.10087 5.06628 0
M  V30 11555 N 1081.97 -0.145205 1.5693 0
M  V30 11556 C 1083.25 -0.88631 1.74367 0
M  V30 11557 C 1083.63 -1.99259 0.697081 0
M  V30 11558 O 1082.97 -2.26732 -0.28368 0
M  V30 11559 C 1083.18 -1.42712 3.18488 0
M  V30 11560 C 1084.53 -1.88982 3.80225 0
M  V30 11561 O 1085.56 -1.5245 3.21928 0
M  V30 11562 O 1084.42 -2.56361 4.8264 0
M  V30 11563 H 1081.51 -0.418979 0.713011 0
M  V30 11564 H 1084.06 -0.130991 1.69194 0
M  V30 11565 H 1082.83 -0.632165 3.8616 0
M  V30 11566 H 1082.45 -2.24589 3.28094 0
M  V30 11567 N 1083.45 -1.52049 -0.414609 0
M  V30 11568 C 1084.4 -1.7138 -1.50376 0
M  V30 11569 C 1085.38 -0.567692 -1.50553 0
M  V30 11570 O 1086.57 -0.824541 -1.56622 0
M  V30 11571 C 1083.7 -1.86291 -2.88358 0
M  V30 11572 C 1082.79 -3.06757 -2.9285 0
M  V30 11573 N 1083.18 -4.29557 -2.67048 0
M  V30 11574 C 1081.48 -3.06478 -3.24018 0
M  V30 11575 C 1082.18 -5.10988 -2.77968 0
M  V30 11576 N 1081.15 -4.46117 -3.10613 0
M  V30 11577 H 1084.96 -2.63972 -1.29213 0
M  V30 11578 H 1082.47 -1.50006 -0.622244 0
M  V30 11579 H 1084.47 -1.98256 -3.66743 0
M  V30 11580 H 1083.13 -0.948959 -3.10524 0
M  V30 11581 H 1084.14 -4.58122 -2.41546 0
M  V30 11582 H 1080.82 -2.24799 -3.51812 0
M  V30 11583 H 1082.21 -6.18806 -2.6178 0
M  V30 11584 N 1084.93 0.6715 -1.42579 0
M  V30 11585 C 1085.86 1.79703 -1.42266 0
M  V30 11586 C 1086.87 1.59599 -0.321268 0
M  V30 11587 O 1088.06 1.68657 -0.584564 0
M  V30 11588 C 1085.16 3.16859 -1.20224 0
M  V30 11589 C 1084.33 3.63783 -2.42859 0
M  V30 11590 C 1083.39 4.79683 -2.16312 0
M  V30 11591 O 1082.42 4.90058 -2.89537 0
M  V30 11592 N 1083.62 5.68622 -1.16831 0
M  V30 11593 H 1086.38 1.80455 -2.39282 0
M  V30 11594 H 1083.95 0.854708 -1.375 0
M  V30 11595 H 1085.94 3.92054 -1.00376 0
M  V30 11596 H 1084.51 3.10987 -0.317188 0
M  V30 11597 H 1083.73 2.7923 -2.78252 0
M  V30 11598 H 1085.02 3.91877 -3.24514 0
M  V30 11599 H 1084.41 5.62894 -0.562746 0
M  V30 11600 H 1082.97 6.43615 -1.0297 0
M  V30 11601 N 1086.4 1.28806 0.908124 0
M  V30 11602 C 1087.65 1.16058 1.65454 0
M  V30 11603 C 1087.97 -0.290057 1.92831 0
M  V30 11604 O 1087.24 -1.20001 1.54843 0
M  V30 11605 H 1085.82 0.426522 0.61326 0
M  V30 11606 H 1088.48 1.61614 1.08936 0
M  V30 11607 H 1087.58 1.70437 2.61453 0
M  V30 11608 N 1087.88 -1.11734 1.11145 0
M  V30 11609 C 1089.13 -1.83405 0.858413 0
M  V30 11610 C 1089.46 -1.84488 -0.615975 0
M  V30 11611 O 1088.71 -1.29123 -1.47057 0
M  V30 11612 C 1089.01 -3.3046 1.36129 0
M  V30 11613 C 1088.68 -3.4954 2.84837 0
M  V30 11614 C 1087.34 -3.54456 3.25445 0
M  V30 11615 C 1089.69 -3.56048 3.8063 0
M  V30 11616 C 1087.02 -3.63431 4.60581 0
M  V30 11617 C 1089.37 -3.66554 5.15579 0
M  V30 11618 C 1088.03 -3.69728 5.55749 0
M  V30 11619 H 1087.3 -0.671128 0.314115 0
M  V30 11620 H 1089.95 -1.31795 1.38933 0
M  V30 11621 H 1088.26 -3.84544 0.750547 0
M  V30 11622 H 1089.95 -3.84398 1.14188 0
M  V30 11623 H 1086.54 -3.46382 2.52423 0
M  V30 11624 H 1090.73 -3.51513 3.5036 0
M  V30 11625 H 1085.98 -3.64164 4.91116 0
M  V30 11626 H 1090.16 -3.70532 5.89643 0
M  V30 11627 H 1087.78 -3.76435 6.60455 0
M  V30 11628 N 1089.36 -0.901303 -1.29284 0
M  V30 11629 C 1090.61 -0.528043 -1.95494 0
M  V30 11630 C 1090.93 0.92597 -1.71044 0
M  V30 11631 O 1090.19 1.67185 -1.01723 0
M  V30 11632 C 1090.49 -0.768828 -3.49033 0
M  V30 11633 C 1090.15 -2.20045 -3.93562 0
M  V30 11634 C 1088.82 -2.59189 -4.05431 0
M  V30 11635 C 1091.17 -3.13266 -4.1655 0
M  V30 11636 C 1088.5 -3.90733 -4.37658 0
M  V30 11637 C 1090.85 -4.4436 -4.50252 0
M  V30 11638 C 1089.51 -4.83375 -4.60331 0
M  V30 11639 H 1088.78 -0.193225 -0.715364 0
M  V30 11640 H 1091.43 -1.14027 -1.53851 0
M  V30 11641 H 1089.73 -0.0736997 -3.91731 0
M  V30 11642 H 1091.43 -0.459384 -3.9836 0
M  V30 11643 H 1088.02 -1.88666 -3.84842 0
M  V30 11644 H 1092.21 -2.84237 -4.06845 0
M  V30 11645 H 1087.46 -4.2068 -4.43665 0
M  V30 11646 H 1091.64 -5.16618 -4.66989 0
M  V30 11647 H 1089.26 -5.8534 -4.85058 0
M  V30 11648 N 1090.84 1.42931 -0.663954 0
M  V30 11649 C 1091.77 2.33499 0.00731327 0
M  V30 11650 C 1092.75 1.50074 0.800733 0
M  V30 11651 O 1093.93 1.78708 0.760062 0
M  V30 11652 C 1091.06 3.33569 0.966897 0
M  V30 11653 C 1090.02 4.27064 0.282839 0
M  V30 11654 C 1089.34 5.17257 1.35461 0
M  V30 11655 C 1090.64 5.1564 -0.831438 0
M  V30 11656 H 1092.34 2.89879 -0.749044 0
M  V30 11657 H 1089.88 1.39385 -0.361656 0
M  V30 11658 H 1091.84 3.95833 1.44549 0
M  V30 11659 H 1090.56 2.75469 1.75455 0
M  V30 11660 H 1089.22 3.6618 -0.175417 0
M  V30 11661 H 1088.87 4.5549 2.13397 0
M  V30 11662 H 1088.57 5.80634 0.902098 0
M  V30 11663 H 1090.09 5.82395 1.83436 0
M  V30 11664 H 1091.51 5.71651 -0.434534 0
M  V30 11665 H 1089.9 5.87794 -1.20908 0
M  V30 11666 H 1090.97 4.54687 -1.68487 0
M  V30 11667 N 1092.32 0.406567 1.52266 0
M  V30 11668 C 1093.54 -0.172101 2.06685 0
M  V30 11669 C 1093.97 -1.38306 1.27488 0
M  V30 11670 O 1093.32 -1.78726 0.304441 0
M  V30 11671 C 1093.37 -0.503463 3.57068 0
M  V30 11672 O 1092.48 -1.59485 3.80314 0
M  V30 11673 H 1091.82 -0.0153209 0.663823 0
M  V30 11674 H 1094.35 0.579025 1.96236 0
M  V30 11675 H 1094.36 -0.762833 4.00805 0
M  V30 11676 H 1093.03 0.381775 4.14144 0
M  V30 11677 H 1091.61 -1.32784 3.48458 0
M  V30 11678 N 1093.79 -1.57004 0.136909 0
M  V30 11679 C 1095.07 -1.87375 -0.561233 0
M  V30 11680 C 1095.45 -1.04117 -1.83638 0
M  V30 11681 O 1094.8 -0.125103 -2.28157 0
M  V30 11682 C 1095.01 -3.38829 -0.836426 0
M  V30 11683 C 1096.36 -4.07826 -1.18164 0
M  V30 11684 O 1097.38 -3.4395 -0.92611 0
M  V30 11685 O 1096.24 -5.20614 -1.66204 0
M  V30 11686 H 1093.33 -0.776287 -0.285145 0
M  V30 11687 H 1095.88 -1.68818 0.172761 0
M  V30 11688 H 1094.65 -3.91244 0.066442 0
M  V30 11689 H 1094.28 -3.62879 -1.62496 0
M  V30 11690 N 1095.27 0.136881 -1.57004 0
M  V30 11691 C 1096.22 1.18782 -1.99984 0
M  V30 11692 C 1097.21 1.43899 -0.893841 0
M  V30 11693 O 1098.42 1.44072 -1.07904 0
M  V30 11694 H 1094.8 0.400065 -0.636751 0
M  V30 11695 H 1096.77 0.798696 -2.87512 0
M  V30 11696 C 1095.52 2.51105 -2.40502 0
M  V30 11697 H 1094.84 2.32611 -3.25165 0
M  V30 11698 H 1096.28 3.23244 -2.74389 0
M  V30 11699 C 1094.74 3.12386 -1.26161 0
M  V30 11700 O 1095.27 3.97666 -0.567836 0
M  V30 11701 N 1093.47 2.71989 -1.02326 0
M  V30 11702 H 1093.02 2.02736 -1.58921 0
M  V30 11703 H 1092.98 3.13322 -0.26013 0
M  V30 11704 N 1096.75 1.52266 0.40654 0
M  V30 11705 C 1097.68 1.72025 1.51459 0
M  V30 11706 C 1098.7 0.600667 1.51314 0
M  V30 11707 O 1099.88 0.875894 1.55532 0
M  V30 11708 C 1096.98 1.7479 2.90348 0
M  V30 11709 C 1096.16 3.03826 3.14656 0
M  V30 11710 C 1095.22 2.98369 4.33431 0
M  V30 11711 O 1094.24 3.7227 4.30586 0
M  V30 11712 N 1095.44 2.16338 5.38682 0
M  V30 11713 H 1098.21 2.67622 1.34903 0
M  V30 11714 H 1095.77 1.50536 0.595867 0
M  V30 11715 H 1097.76 1.68667 3.67877 0
M  V30 11716 H 1096.33 0.86656 3.00349 0
M  V30 11717 H 1095.55 3.23577 2.25148 0
M  V30 11718 H 1096.84 3.89182 3.27742 0
M  V30 11719 H 1096.24 1.55731 5.43842 0
M  V30 11720 H 1094.8 2.1607 6.14945 0
M  V30 11721 N 1098.23 -0.663929 1.42933 0
M  V30 11722 C 1099.45 -1.45691 1.47611 0
M  V30 11723 C 1099.88 -1.87875 0.0920305 0
M  V30 11724 O 1099.24 -1.56696 -0.91192 0
M  V30 11725 C 1099.28 -2.67517 2.41799 0
M  V30 11726 O 1098.39 -3.66187 1.89686 0
M  V30 11727 H 1097.73 -0.437257 0.499702 0
M  V30 11728 H 1100.26 -0.813397 1.87737 0
M  V30 11729 H 1100.27 -3.1546 2.58745 0
M  V30 11730 H 1098.94 -2.36155 3.4235 0
M  V30 11731 H 1097.52 -3.25274 1.82349 0
M  V30 11732 N 1099.71 -1.29285 -0.901281 0
M  V30 11733 C 1100.95 -1.16934 -1.64836 0
M  V30 11734 C 1101.28 0.279826 -1.92982 0
M  V30 11735 O 1100.55 1.19179 -1.55478 0
M  V30 11736 H 1099.13 -0.429768 -0.61099 0
M  V30 11737 H 1101.79 -1.62189 -1.08077 0
M  V30 11738 H 1100.88 -1.71821 -2.60545 0
M  V30 11739 N 1101.18 1.11143 -1.11736 0
M  V30 11740 C 1102.41 1.87285 -0.891007 0
M  V30 11741 C 1102.83 1.79758 0.553971 0
M  V30 11742 O 1102.19 1.16221 1.39149 0
M  V30 11743 C 1102.24 3.33924 -1.36114 0
M  V30 11744 O 1101.34 4.08917 -0.534851 0
M  V30 11745 H 1100.69 0.581418 -0.320701 0
M  V30 11746 H 1103.22 1.40469 -1.4876 0
M  V30 11747 H 1103.23 3.84772 -1.35701 0
M  V30 11748 H 1101.9 3.38719 -2.41334 0
M  V30 11749 H 1100.48 3.67954 -0.605355 0
M  V30 11750 N 1102.66 0.908147 1.28804 0
M  V30 11751 C 1104.07 0.585727 1.77274 0
M  V30 11752 C 1104.42 -0.898842 1.744 0
M  V30 11753 O 1103.55 -1.70301 1.33516 0
M  V30 11754 C 1104.14 1.05647 3.21907 0
M  V30 11755 C 1102.7 0.785066 3.68122 0
M  V30 11756 C 1101.85 1.22638 2.48707 0
M  V30 11757 H 1104.8 1.09 1.15346 0
M  V30 11758 H 1104.82 0.395442 3.7844 0
M  V30 11759 H 1104.33 2.13698 3.23967 0
M  V30 11760 H 1102.44 -0.282477 3.71528 0
M  V30 11761 H 1102.55 1.38888 4.58527 0
M  V30 11762 H 1100.91 0.645217 2.46392 0
M  V30 11763 H 1101.7 2.31512 2.5349 0
M  V30 11764 N 1104.14 -1.42577 0.671525 0
M  V30 11765 C 1105.09 -2.27978 -0.0315286 0
M  V30 11766 C 1106.07 -1.40907 -0.776796 0
M  V30 11767 O 1107.27 -1.64385 -0.656248 0
M  V30 11768 C 1104.4 -3.28884 -0.9844 0
M  V30 11769 C 1103.48 -4.23439 -0.236647 0
M  V30 11770 N 1103.87 -5.00107 0.756714 0
M  V30 11771 C 1102.17 -4.43457 -0.475551 0
M  V30 11772 C 1102.87 -5.69141 1.20221 0
M  V30 11773 N 1101.85 -5.40983 0.532802 0
M  V30 11774 H 1105.65 -2.84678 0.730455 0
M  V30 11775 H 1103.16 -1.54501 0.500317 0
M  V30 11776 H 1105.16 -3.88864 -1.50302 0
M  V30 11777 H 1103.82 -2.73745 -1.74625 0
M  V30 11778 H 1104.83 -5.05285 1.13613 0
M  V30 11779 H 1101.51 -3.99364 -1.21715 0
M  V30 11780 H 1102.9 -6.40653 2.02517 0
M  V30 11781 N 1105.62 -0.414636 -1.52048 0
M  V30 11782 C 1106.53 0.414861 -2.30903 0
M  V30 11783 C 1107.54 1.04855 -1.38858 0
M  V30 11784 O 1108.72 1.04886 -1.71933 0
M  V30 11785 C 1105.79 1.51356 -3.11917 0
M  V30 11786 C 1104.85 0.902359 -4.19709 0
M  V30 11787 C 1104.08 1.9487 -4.96852 0
M  V30 11788 O 1104.3 3.16766 -4.74358 0
M  V30 11789 O 1103.24 1.55186 -5.8155 0
M  V30 11790 H 1107.06 -0.228251 -3.02841 0
M  V30 11791 H 1104.65 -0.177704 -1.48339 0
M  V30 11792 H 1106.53 2.15127 -3.62351 0
M  V30 11793 H 1105.2 2.14117 -2.42767 0
M  V30 11794 H 1104.11 0.22721 -3.73409 0
M  V30 11795 H 1105.44 0.318587 -4.91168 0
M  V30 11796 N 1107.1 1.56929 -0.145233 0
M  V30 11797 C 1108.03 2.19685 0.791263 0
M  V30 11798 C 1109.01 1.14455 1.25833 0
M  V30 11799 O 1110.19 1.42791 1.31622 0
M  V30 11800 C 1107.32 2.81705 2.03124 0
M  V30 11801 C 1106.28 3.92746 1.70101 0
M  V30 11802 C 1105.6 4.41694 3.01347 0
M  V30 11803 C 1106.9 5.13606 0.949025 0
M  V30 11804 H 1108.6 2.98196 0.26825 0
M  V30 11805 H 1106.14 1.43434 0.127584 0
M  V30 11806 H 1108.1 3.24273 2.69119 0
M  V30 11807 H 1106.82 2.00523 2.57795 0
M  V30 11808 H 1105.48 3.50794 1.06486 0
M  V30 11809 H 1105.13 3.57336 3.54006 0
M  V30 11810 H 1104.83 5.1659 2.80016 0
M  V30 11811 H 1106.35 4.86931 3.68416 0
M  V30 11812 H 1107.76 5.53029 1.51102 0
M  V30 11813 H 1106.16 5.94252 0.835711 0
M  V30 11814 H 1107.23 4.84863 -0.0595631 0
M  V30 11815 N 1108.58 -0.128553 1.57075 0
M  V30 11816 C 1109.82 -0.836355 1.83982 0
M  V30 11817 C 1110.14 -1.80862 0.728971 0
M  V30 11818 O 1109.41 -1.94326 -0.247859 0
M  V30 11819 H 1107.99 -0.31185 0.678792 0
M  V30 11820 H 1110.66 -0.118153 1.94542 0
M  V30 11821 H 1109.75 -1.38741 2.79567 0
M  V30 11822 N 1110.05 -1.5248 -0.398459 0
M  V30 11823 C 1111.46 -1.59107 -0.976817 0
M  V30 11824 C 1111.82 -0.438104 -1.91246 0
M  V30 11825 O 1110.94 0.440111 -2.11877 0
M  V30 11826 C 1111.54 -2.88373 -1.77838 0
M  V30 11827 C 1110.09 -2.97445 -2.30659 0
M  V30 11828 C 1109.24 -2.5414 -1.10942 0
M  V30 11829 H 1112.19 -1.57695 -0.178324 0
M  V30 11830 H 1112.21 -2.74327 -2.63676 0
M  V30 11831 H 1111.73 -3.72269 -1.09714 0
M  V30 11832 H 1109.83 -2.18066 -3.02123 0
M  V30 11833 H 1109.94 -4.019 -2.60794 0
M  V30 11834 H 1108.3 -2.08237 -1.46661 0
M  V30 11835 H 1109.09 -3.40421 -0.443684 0
M  V30 11836 N 1111.53 0.65634 -1.43283 0
M  V30 11837 C 1112.46 1.78184 -1.44164 0
M  V30 11838 C 1113.48 1.59249 -0.338177 0
M  V30 11839 O 1114.67 1.68027 -0.60242 0
M  V30 11840 C 1111.77 3.15566 -1.23577 0
M  V30 11841 C 1110.94 3.61187 -2.46704 0
M  V30 11842 C 1110 4.77361 -2.21388 0
M  V30 11843 O 1109.02 4.8696 -2.94718 0
M  V30 11844 N 1110.23 5.67351 -1.22855 0
M  V30 11845 H 1112.99 1.77907 -2.41183 0
M  V30 11846 H 1110.55 0.840076 -1.38399 0
M  V30 11847 H 1112.54 3.90968 -1.04529 0
M  V30 11848 H 1111.11 3.10633 -0.350155 0
M  V30 11849 H 1110.33 2.76263 -2.81198 0
M  V30 11850 H 1111.62 3.88413 -3.28652 0
M  V30 11851 H 1111.02 5.62265 -0.622417 0
M  V30 11852 H 1109.58 6.42487 -1.09791 0
M  V30 11853 N 1113.01 1.29761 0.894412 0
M  V30 11854 C 1114.26 1.18039 1.64539 0
M  V30 11855 C 1114.58 -0.26697 1.92659 0
M  V30 11856 O 1113.84 -1.20865 1.53916 0
M  V30 11857 C 1114.14 1.94458 2.99868 0
M  V30 11858 C 1113.8 3.44143 2.91336 0
M  V30 11859 C 1112.47 3.84963 2.88716 0
M  V30 11860 C 1114.82 4.39503 2.80154 0
M  V30 11861 C 1112.15 5.19451 2.72741 0
M  V30 11862 C 1114.5 5.74088 2.65718 0
M  V30 11863 C 1113.16 6.14159 2.61467 0
M  V30 11864 H 1112.43 0.431936 0.60209 0
M  V30 11865 H 1115.08 1.60758 1.04063 0
M  V30 11866 H 1113.38 1.44346 3.64241 0
M  V30 11867 H 1115.08 1.82788 3.56917 0
M  V30 11868 H 1111.67 3.11699 2.9418 0
M  V30 11869 H 1115.86 4.08915 2.81251 0
M  V30 11870 H 1111.11 5.49602 2.67858 0
M  V30 11871 H 1115.29 6.47625 2.56038 0
M  V30 11872 H 1112.91 7.18317 2.48847 0
M  V30 11873 N 1114.49 -1.10549 1.12324 0
M  V30 11874 C 1115.9 -1.63991 0.892402 0
M  V30 11875 C 1116.25 -1.87631 -0.573506 0
M  V30 11876 O 1115.37 -1.6174 -1.43768 0
M  V30 11877 C 1115.97 -2.97914 1.61347 0
M  V30 11878 C 1114.53 -3.48227 1.42881 0
M  V30 11879 C 1113.68 -2.22857 1.65015 0
M  V30 11880 H 1116.63 -0.94065 1.27818 0
M  V30 11881 H 1116.65 -3.65326 1.06382 0
M  V30 11882 H 1116.16 -2.80677 2.68034 0
M  V30 11883 H 1114.26 -3.70611 0.384441 0
M  V30 11884 H 1114.37 -4.26419 2.18413 0
M  V30 11885 H 1112.74 -2.30941 1.07417 0
M  V30 11886 H 1113.52 -2.08152 2.72997 0
M  V30 11887 N 1115.97 -0.914965 -1.28321 0
M  V30 11888 C 1117.19 -0.564023 -1.99583 0
M  V30 11889 C 1117.62 0.847821 -1.6791 0
M  V30 11890 O 1116.97 1.56682 -0.912171 0
M  V30 11891 C 1117.02 -0.781368 -3.52033 0
M  V30 11892 O 1116.13 0.159072 -4.12093 0
M  V30 11893 H 1115.47 -0.218565 -0.626997 0
M  V30 11894 H 1118 -1.23074 -1.63444 0
M  V30 11895 H 1118.01 -0.691946 -4.0209 0
M  V30 11896 H 1116.68 -1.81059 -3.7442 0
M  V30 11897 H 1115.26 0.0208145 -3.72894 0
M  V30 11898 N 1117.44 1.42219 -0.679077 0
M  V30 11899 C 1118.39 2.308 -0.00340316 0
M  V30 11900 C 1119.36 1.462 0.788334 0
M  V30 11901 O 1120.55 1.75023 0.759716 0
M  V30 11902 C 1117.69 3.32084 0.938854 0
M  V30 11903 C 1116.8 4.31772 0.140485 0
M  V30 11904 C 1115.93 5.20128 1.07888 0
M  V30 11905 C 1114.97 6.11493 0.27245 0
M  V30 11906 N 1114.11 6.92388 1.16378 0
M  V30 11907 H 1118.95 2.88024 -0.764587 0
M  V30 11908 H 1116.49 1.41869 -0.38878 0
M  V30 11909 H 1118.44 3.89339 1.49903 0
M  V30 11910 H 1117.07 2.76448 1.66662 0
M  V30 11911 H 1116.13 3.76599 -0.536376 0
M  V30 11912 H 1117.44 4.96432 -0.485433 0
M  V30 11913 H 1116.59 5.82137 1.70884 0
M  V30 11914 H 1115.33 4.55655 1.73868 0
M  V30 11915 H 1114.34 5.48549 -0.370693 0
M  V30 11916 H 1115.56 6.78017 -0.383315 0
M  V30 11917 H 1113.51 6.30538 1.8099 0
M  V30 11918 H 1113.42 7.5367 0.593043 0
M  V30 11919 H 1114.69 7.58879 1.78107 0
M  V30 11920 N 1118.92 0.422693 1.51826 0
M  V30 11921 C 1120.17 -0.148348 2.01555 0
M  V30 11922 C 1120.49 -1.44483 1.30956 0
M  V30 11923 O 1119.76 -1.90904 0.439599 0
M  V30 11924 H 1118.34 -0.0578116 0.74476 0
M  V30 11925 H 1121 0.562046 1.8662 0
M  V30 11926 H 1120.1 -0.334766 3.10299 0
M  V30 11927 N 1120.4 -1.5685 0.153553 0
M  V30 11928 C 1121.63 -2.0041 -0.501949 0
M  V30 11929 C 1122.04 -1.03272 -1.58529 0
M  V30 11930 O 1121.38 -0.0227479 -1.83686 0
M  V30 11931 C 1121.44 -3.40402 -1.15613 0
M  V30 11932 C 1121.11 -4.56486 -0.216596 0
M  V30 11933 C 1122.1 -5.16894 0.558267 0
M  V30 11934 C 1119.79 -5.02162 -0.117592 0
M  V30 11935 C 1121.78 -6.21392 1.41951 0
M  V30 11936 C 1119.47 -6.06514 0.747255 0
M  V30 11937 C 1120.47 -6.65999 1.51441 0
M  V30 11938 O 1120.16 -7.6833 2.36483 0
M  V30 11939 H 1119.89 -0.66247 -0.134574 0
M  V30 11940 H 1122.44 -2.03908 0.247086 0
M  V30 11941 H 1120.67 -3.33762 -1.95294 0
M  V30 11942 H 1122.36 -3.68028 -1.71202 0
M  V30 11943 H 1123.13 -4.825 0.491851 0
M  V30 11944 H 1119.01 -4.55586 -0.704462 0
M  V30 11945 H 1122.55 -6.67751 2.01877 0
M  V30 11946 H 1118.45 -6.40335 0.81494 0
M  V30 11947 H 1119.21 -7.85578 2.29803 0
M  V30 11948 N 1121.88 0.120221 -1.57141 0
M  V30 11949 C 1123.1 0.84637 -1.89344 0
M  V30 11950 C 1123.53 1.72702 -0.745365 0
M  V30 11951 O 1122.89 1.7873 0.304155 0
M  V30 11952 C 1122.93 1.65671 -3.20289 0
M  V30 11953 O 1122.04 2.76353 -3.06109 0
M  V30 11954 H 1121.38 0.234132 -0.621352 0
M  V30 11955 H 1123.91 0.102986 -2.04341 0
M  V30 11956 H 1123.92 2.04621 -3.52979 0
M  V30 11957 H 1122.59 1.01023 -4.03444 0
M  V30 11958 H 1121.17 2.40615 -2.84884 0
M  V30 11959 N 1123.36 1.52689 0.390367 0
M  V30 11960 C 1124.29 1.80338 1.48325 0
M  V30 11961 C 1125.27 0.655338 1.56969 0
M  V30 11962 O 1126.45 0.902792 1.7194 0
M  V30 11963 C 1123.58 1.97101 2.85952 0
M  V30 11964 C 1122.54 3.12783 2.92148 0
M  V30 11965 C 1121.86 3.14798 4.32211 0
M  V30 11966 C 1123.16 4.5188 2.61919 0
M  V30 11967 H 1124.86 2.71857 1.25437 0
M  V30 11968 H 1122.4 1.30813 0.601995 0
M  V30 11969 H 1124.36 2.15027 3.62411 0
M  V30 11970 H 1123.08 1.02271 3.10174 0
M  V30 11971 H 1121.74 2.94638 2.18137 0
M  V30 11972 H 1121.39 2.17653 4.53471 0
M  V30 11973 H 1121.09 3.92507 4.37278 0
M  V30 11974 H 1122.61 3.34877 5.10578 0
M  V30 11975 H 1124.02 4.70134 3.28096 0
M  V30 11976 H 1122.42 5.31647 2.78337 0
M  V30 11977 H 1123.49 4.58689 1.57266 0
M  V30 11978 N 1124.83 -0.648732 1.43629 0
M  V30 11979 C 1125.76 -1.77298 1.51947 0
M  V30 11980 C 1126.75 -1.65942 0.373785 0
M  V30 11981 O 1127.93 -1.8497 0.591596 0
M  V30 11982 C 1125.06 -3.15749 1.44638 0
M  V30 11983 C 1124.01 -3.41872 2.57502 0
M  V30 11984 C 1123.34 -4.8017 2.35246 0
M  V30 11985 C 1124.64 -3.36173 3.99731 0
M  V30 11986 H 1126.33 -1.70594 2.46045 0
M  V30 11987 H 1123.88 -0.819306 1.1842 0
M  V30 11988 H 1125.83 -3.94156 1.4906 0
M  V30 11989 H 1124.56 -3.23194 0.470466 0
M  V30 11990 H 1123.22 -2.65838 2.5244 0
M  V30 11991 H 1122.86 -4.84297 1.35887 0
M  V30 11992 H 1122.56 -4.9861 3.10906 0
M  V30 11993 H 1124.09 -5.6083 2.41459 0
M  V30 11994 H 1125.5 -4.0451 4.06257 0
M  V30 11995 H 1123.9 -3.66148 4.75453 0
M  V30 11996 H 1124.97 -2.34277 4.24549 0
M  V30 11997 N 1126.31 -1.30234 -0.887518 0
M  V30 11998 C 1127.56 -1.18675 -1.63587 0
M  V30 11999 C 1127.88 0.259342 -1.93268 0
M  V30 12000 O 1127.15 1.17523 -1.56733 0
M  V30 12001 H 1125.73 -0.436224 -0.606397 0
M  V30 12002 H 1128.39 -1.63326 -1.06351 0
M  V30 12003 H 1127.49 -1.74575 -2.58708 0
M  V30 12004 N 1127.79 1.09952 -1.12909 0
M  V30 12005 C 1129.2 1.63516 -0.901087 0
M  V30 12006 C 1129.55 1.87932 0.563547 0
M  V30 12007 O 1128.68 1.625 1.42908 0
M  V30 12008 C 1129.27 2.97054 -1.62924 0
M  V30 12009 C 1127.83 3.47464 -1.44725 0
M  V30 12010 C 1126.98 2.21979 -1.66194 0
M  V30 12011 H 1129.93 0.933858 -1.28315 0
M  V30 12012 H 1129.95 3.64757 -1.08318 0
M  V30 12013 H 1129.46 2.79251 -2.69519 0
M  V30 12014 H 1127.56 3.70402 -0.40409 0
M  V30 12015 H 1127.68 4.25254 -2.20671 0
M  V30 12016 H 1126.04 2.30368 -1.0864 0
M  V30 12017 H 1126.82 2.06702 -2.74097 0
M  V30 12018 N 1129.27 0.921757 1.27833 0
M  V30 12019 C 1130.52 0.557974 1.94245 0
M  V30 12020 C 1130.84 -0.90268 1.72849 0
M  V30 12021 O 1130.11 -1.63915 1.07279 0
M  V30 12022 H 1128.69 0.203364 0.718785 0
M  V30 12023 H 1131.35 1.17286 1.5566 0
M  V30 12024 H 1130.45 0.759202 3.02725 0
M  V30 12025 N 1130.75 -1.41857 0.686609 0
M  V30 12026 C 1131.97 -2.06219 0.221037 0
M  V30 12027 C 1132.4 -1.51298 -1.11762 0
M  V30 12028 O 1131.75 -0.636253 -1.69769 0
M  V30 12029 C 1131.8 -3.60153 0.179425 0
M  V30 12030 O 1130.91 -4.03577 -0.848481 0
M  V30 12031 H 1130.25 -0.654787 0.110228 0
M  V30 12032 H 1132.78 -1.81783 0.938948 0
M  V30 12033 H 1132.79 -4.07999 0.00725332 0
M  V30 12034 H 1131.46 -3.99498 1.15647 0
M  V30 12035 H 1130.04 -3.67255 -0.646393 0
M  V30 12036 N 1132.22 -0.430739 -1.51599 0
M  V30 12037 C 1133.16 0.419726 -2.25324 0
M  V30 12038 C 1134.17 0.991925 -1.29092 0
M  V30 12039 O 1135.36 0.887188 -1.54891 0
M  V30 12040 C 1132.46 1.59844 -2.98836 0
M  V30 12041 C 1131.63 1.14629 -4.22112 0
M  V30 12042 C 1130.69 2.19437 -4.78261 0
M  V30 12043 O 1129.72 1.79141 -5.40275 0
M  V30 12044 N 1130.92 3.51849 -4.61717 0
M  V30 12045 H 1133.68 -0.212112 -2.98948 0
M  V30 12046 H 1131.24 -0.259269 -1.59811 0
M  V30 12047 H 1133.24 2.29567 -3.33288 0
M  V30 12048 H 1131.81 2.13575 -2.28264 0
M  V30 12049 H 1131.03 0.276367 -3.9323 0
M  V30 12050 H 1132.31 0.821488 -5.02124 0
M  V30 12051 H 1131.71 3.87324 -4.12306 0
M  V30 12052 H 1130.27 4.17486 -5.00548 0
M  V30 12053 N 1133.7 1.56767 -0.161869 0
M  V30 12054 C 1134.65 2.18807 0.789074 0
M  V30 12055 C 1135.64 1.14934 1.24445 0
M  V30 12056 O 1136.85 1.33154 1.2112 0
M  V30 12057 H 1133.23 0.700808 0.272713 0
M  V30 12058 H 1135.2 2.97419 0.241766 0
M  V30 12059 C 1133.95 2.83568 2.01207 0
M  V30 12060 H 1133.27 3.63219 1.67068 0
M  V30 12061 H 1134.71 3.3046 2.65654 0
M  V30 12062 C 1133.17 1.82846 2.82964 0
M  V30 12063 O 1133.7 1.30809 3.79805 0
M  V30 12064 N 1131.9 1.51815 2.47791 0
M  V30 12065 H 1131.45 1.94325 1.69103 0
M  V30 12066 H 1131.41 0.846742 3.02783 0
M  V30 12067 N 1135.18 -0.111886 1.57202 0
M  V30 12068 C 1136.41 -0.836317 1.89791 0
M  V30 12069 C 1136.83 -1.72304 0.754513 0
M  V30 12070 O 1136.19 -1.78889 -0.294672 0
M  V30 12071 C 1136.24 -1.63971 3.21164 0
M  V30 12072 O 1135.34 -2.74726 3.0757 0
M  V30 12073 H 1134.68 -0.230833 0.622585 0
M  V30 12074 H 1137.21 -0.0921478 2.04392 0
M  V30 12075 H 1137.22 -2.02746 3.54059 0
M  V30 12076 H 1135.9 -0.98882 4.03974 0
M  V30 12077 H 1134.47 -2.39101 2.86156 0
M  V30 12078 N 1136.66 -1.52894 -0.382264 0
M  V30 12079 C 1137.59 -1.7291 -1.48921 0
M  V30 12080 C 1138.57 -0.577056 -1.52016 0
M  V30 12081 O 1139.75 -0.807667 -1.7032 0
M  V30 12082 C 1136.88 -1.79281 -2.87361 0
M  V30 12083 C 1135.93 -3.01099 -3.02063 0
M  V30 12084 S 1136.76 -4.60947 -2.72558 0
M  V30 12085 C 1137.92 -4.70144 -4.13178 0
M  V30 12086 H 1138.15 -2.66529 -1.31718 0
M  V30 12087 H 1135.68 -1.43271 -0.575563 0
M  V30 12088 H 1137.64 -1.83637 -3.67134 0
M  V30 12089 H 1136.3 -0.867428 -3.01885 0
M  V30 12090 H 1135.49 -3.02117 -4.03412 0
M  V30 12091 H 1135.1 -2.94769 -2.3019 0
M  V30 12092 H 1137.39 -4.49173 -5.07198 0
M  V30 12093 H 1138.33 -5.72166 -4.17172 0
M  V30 12094 H 1138.74 -3.98923 -3.99401 0
M  V30 12095 N 1138.14 0.641106 -1.43971 0
M  V30 12096 C 1139.39 1.39807 -1.4594 0
M  V30 12097 C 1139.71 1.94795 -0.0893874 0
M  V30 12098 O 1138.98 1.75175 0.876962 0
M  V30 12099 H 1137.56 0.518908 -0.537349 0
M  V30 12100 H 1140.22 0.755278 -1.79671 0
M  V30 12101 H 1139.31 2.23439 -2.17903 0
M  V30 12102 N 1139.62 1.30703 0.880598 0
M  V30 12103 C 1140.58 1.17429 1.96832 0
M  V30 12104 C 1141.58 0.104305 1.60461 0
M  V30 12105 O 1142.77 0.352758 1.70591 0
M  V30 12106 C 1139.9 0.800099 3.31378 0
M  V30 12107 H 1141.09 2.14069 2.10034 0
M  V30 12108 H 1138.65 1.14162 1.06755 0
M  V30 12109 H 1139.38 -0.165606 3.23877 0
M  V30 12110 H 1139.17 1.57341 3.59146 0
M  V30 12111 H 1140.66 0.730826 4.11155 0
M  V30 12112 N 1141.09 -1.09351 1.1349 0
M  V30 12113 C 1142.34 -1.81185 0.89535 0
M  V30 12114 C 1142.66 -1.86173 -0.580048 0
M  V30 12115 O 1141.93 -1.34784 -1.42162 0
M  V30 12116 H 1140.51 -0.671011 0.328257 0
M  V30 12117 H 1143.17 -1.32255 1.43159 0
M  V30 12118 H 1142.27 -2.84339 1.28676 0
M  V30 12119 N 1142.57 -0.928524 -1.27343 0
M  V30 12120 C 1143.98 -0.613856 -1.7632 0
M  V30 12121 C 1144.33 0.870983 -1.75808 0
M  V30 12122 O 1143.46 1.68155 -1.36209 0
M  V30 12123 C 1144.05 -1.10755 -3.20186 0
M  V30 12124 C 1142.61 -0.843532 -3.66826 0
M  V30 12125 C 1141.76 -1.26579 -2.46724 0
M  V30 12126 H 1144.71 -1.10821 -1.13598 0
M  V30 12127 H 1144.73 -0.455598 -3.77763 0
M  V30 12128 H 1144.24 -2.18825 -3.20526 0
M  V30 12129 H 1142.34 0.223334 -3.7193 0
M  V30 12130 H 1142.46 -1.46165 -4.56259 0
M  V30 12131 H 1140.82 -0.684334 -2.45334 0
M  V30 12132 H 1141.6 -2.35516 -2.49774 0
M  V30 12133 N 1144.05 1.41491 -0.694123 0
M  V30 12134 C 1145.29 2.03117 -0.228614 0
M  V30 12135 C 1145.65 1.53782 1.14957 0
M  V30 12136 O 1146.85 2.07325 1.71084 0
M  V30 12137 C 1145.13 3.56283 -0.282341 0
M  V30 12138 S 1146.68 4.38664 0.109333 0
M  V30 12139 H 1143.5 0.704993 -0.092227 0
M  V30 12140 H 1146.1 1.72947 -0.911578 0
M  V30 12141 H 1144.81 3.89685 -1.2874 0
M  V30 12142 H 1144.34 3.91154 0.419818 0
M  V30 12143 H 1146.35 4.77835 1.33747 0
M  V30 12144 N 1145.53 0.438773 1.51369 0
M  V30 12145 C 1146.49 -0.36032 2.2635 0
M  V30 12146 C 1147.49 -0.948465 1.29849 0
M  V30 12147 O 1148.68 -0.822692 1.53549 0
M  V30 12148 C 1145.81 -1.50994 3.05636 0
M  V30 12149 H 1147.01 0.296826 2.98427 0
M  V30 12150 H 1144.56 0.191978 1.55117 0
M  V30 12151 H 1145.29 -2.2031 2.37979 0
M  V30 12152 H 1145.08 -1.09437 3.76518 0
M  V30 12153 H 1146.57 -2.07447 3.6243 0
M  V30 12154 N 1147.01 -1.56678 0.170181 0
M  V30 12155 C 1148.42 -1.83452 -0.346742 0
M  V30 12156 C 1148.77 -1.08993 -1.63141 0
M  V30 12157 O 1147.89 -0.342607 -2.13671 0
M  V30 12158 C 1148.49 -3.32779 -0.635882 0
M  V30 12159 C 1147.05 -3.60052 -1.09725 0
M  V30 12160 C 1146.19 -2.76983 -0.132516 0
M  V30 12161 H 1149.14 -1.53719 0.394465 0
M  V30 12162 H 1149.17 -3.50195 -1.48806 0
M  V30 12163 H 1148.68 -3.86944 0.299291 0
M  V30 12164 H 1146.78 -3.11297 -2.04756 0
M  V30 12165 H 1146.89 -4.68393 -1.00719 0
M  V30 12166 H 1145.26 -2.46794 -0.62966 0
M  V30 12167 H 1146.04 -3.33929 0.796658 0
M  V30 12168 N 1148.48 0.103547 -1.57259 0
M  V30 12169 C 1149.73 0.806979 -1.8529 0
M  V30 12170 C 1150.05 1.79679 -0.757653 0
M  V30 12171 O 1149.32 1.94695 0.216913 0
M  V30 12172 H 1147.9 0.301012 -0.683667 0
M  V30 12173 H 1150.56 0.0871886 -1.94705 0
M  V30 12174 H 1149.66 1.34275 -2.81738 0
M  V30 12175 N 1149.96 1.53094 0.37415 0
M  V30 12176 C 1150.91 1.75307 1.45779 0
M  V30 12177 C 1151.9 0.607409 1.48994 0
M  V30 12178 O 1153.09 0.865777 1.5438 0
M  V30 12179 C 1150.22 1.93871 2.83318 0
M  V30 12180 C 1149.3 3.14413 2.84614 0
M  V30 12181 N 1149.69 4.36486 2.55565 0
M  V30 12182 C 1147.99 3.14961 3.15778 0
M  V30 12183 C 1148.69 5.18178 2.64322 0
M  V30 12184 N 1147.67 4.54196 2.98675 0
M  V30 12185 H 1151.47 2.67305 1.22169 0
M  V30 12186 H 1148.98 1.51603 0.582254 0
M  V30 12187 H 1150.98 2.0791 3.61357 0
M  V30 12188 H 1149.64 1.03096 3.07898 0
M  V30 12189 H 1150.65 4.64366 2.29314 0
M  V30 12190 H 1147.33 2.34048 3.45728 0
M  V30 12191 H 1148.72 6.25529 2.45282 0
M  V30 12192 N 1151.44 -0.633461 1.44309 0
M  V30 12193 C 1152.85 -1.21504 1.41752 0
M  V30 12194 C 1153.2 -1.95758 0.131667 0
M  V30 12195 O 1152.33 -2.02311 -0.768072 0
M  V30 12196 C 1152.92 -2.21005 2.56792 0
M  V30 12197 C 1151.48 -2.74596 2.57438 0
M  V30 12198 C 1150.63 -1.49555 2.33513 0
M  V30 12199 H 1153.58 -0.424277 1.52923 0
M  V30 12200 H 1153.6 -3.03563 2.29412 0
M  V30 12201 H 1153.11 -1.66934 3.50364 0
M  V30 12202 H 1151.21 -3.32676 1.67801 0
M  V30 12203 H 1151.33 -3.20794 3.55849 0
M  V30 12204 H 1149.69 -1.77605 1.82561 0
M  V30 12205 H 1150.47 -0.973899 3.29196 0
M  V30 12206 N 1152.92 -1.31168 -0.873655 0
M  V30 12207 C 1154.2 -1.11285 -1.60857 0
M  V30 12208 C 1154.58 0.333788 -2.08444 0
M  V30 12209 O 1153.92 1.32726 -1.86 0
M  V30 12210 C 1154.13 -2.12379 -2.7694 0
M  V30 12211 C 1155.48 -2.44704 -3.46994 0
M  V30 12212 O 1156.51 -2.10778 -2.87143 0
M  V30 12213 O 1155.36 -3.02786 -4.54954 0
M  V30 12214 H 1152.46 -0.428177 -0.707526 0
M  V30 12215 H 1155 -1.42634 -0.91944 0
M  V30 12216 H 1153.78 -3.09703 -2.39164 0
M  V30 12217 H 1153.4 -1.81914 -3.53544 0
M  V30 12218 N 1154.4 1.08748 -1.14068 0
M  V30 12219 C 1155.36 2.1375 -0.827266 0
M  V30 12220 C 1156.36 1.59936 0.166496 0
M  V30 12221 O 1157.55 1.74092 -0.0614305 0
M  V30 12222 C 1154.68 3.40106 -0.232557 0
M  V30 12223 H 1155.87 2.42985 -1.7578 0
M  V30 12224 H 1153.43 1.24402 -0.946244 0
M  V30 12225 H 1154.16 3.16503 0.706859 0
M  V30 12226 H 1153.95 3.8046 -0.948293 0
M  V30 12227 H 1155.44 4.17589 -0.0303662 0
M  V30 12228 N 1155.87 0.935264 1.26849 0
M  V30 12229 C 1156.84 0.44485 2.24842 0
M  V30 12230 C 1157.84 -0.440781 1.54641 0
M  V30 12231 O 1159.03 -0.240793 1.72528 0
M  V30 12232 C 1156.16 -0.359566 3.38998 0
M  V30 12233 H 1157.35 1.31074 2.6974 0
M  V30 12234 H 1154.91 0.716665 1.38901 0
M  V30 12235 H 1155.64 -1.24396 2.99493 0
M  V30 12236 H 1155.43 0.275529 3.91131 0
M  V30 12237 H 1156.92 -0.692804 4.11813 0
M  V30 12238 N 1157.35 -1.41121 0.701616 0
M  V30 12239 C 1158.76 -1.84122 0.309208 0
M  V30 12240 C 1159.11 -1.58695 -1.15371 0
M  V30 12241 O 1158.24 -1.06053 -1.88631 0
M  V30 12242 C 1158.83 -3.34233 0.554429 0
M  V30 12243 C 1157.39 -3.7578 0.215876 0
M  V30 12244 C 1156.54 -2.6447 0.833729 0
M  V30 12245 H 1159.49 -1.30587 0.901822 0
M  V30 12246 H 1159.51 -3.8005 -0.18491 0
M  V30 12247 H 1159.02 -3.52707 1.61923 0
M  V30 12248 H 1157.13 -3.62905 -0.844421 0
M  V30 12249 H 1157.24 -4.74319 0.675118 0
M  V30 12250 H 1155.6 -2.5334 0.262851 0
M  V30 12251 H 1156.39 -2.85761 1.90252 0
M  V30 12252 N 1158.83 -0.446794 -1.51134 0
M  V30 12253 C 1160.24 0.0141132 -1.86695 0
M  V30 12254 C 1160.59 1.41095 -1.36333 0
M  V30 12255 O 1159.72 2.04139 -0.718068 0
M  V30 12256 C 1160.31 0.0323866 -3.38785 0
M  V30 12257 C 1158.87 0.437737 -3.73846 0
M  V30 12258 C 1158.02 -0.363436 -2.74908 0
M  V30 12259 H 1160.97 -0.66221 -1.44224 0
M  V30 12260 H 1160.99 0.839865 -3.71115 0
M  V30 12261 H 1160.5 -0.984374 -3.75409 0
M  V30 12262 H 1158.6 1.45975 -3.42815 0
M  V30 12263 H 1158.72 0.155964 -4.78846 0
M  V30 12264 H 1157.08 0.179566 -2.54066 0
M  V30 12265 H 1157.86 -1.37925 -3.14375 0
M  V30 12266 N 1160.31 1.56586 -0.178487 0
M  V30 12267 C 1161.24 2.21313 0.744486 0
M  V30 12268 C 1162.22 1.17098 1.23377 0
M  V30 12269 O 1163.4 1.45551 1.28563 0
M  V30 12270 C 1160.53 2.8595 1.97103 0
M  V30 12271 C 1159.49 3.96266 1.61732 0
M  V30 12272 C 1158.81 4.47987 2.91911 0
M  V30 12273 C 1160.11 5.15503 0.839868 0
M  V30 12274 H 1161.81 2.98698 0.204938 0
M  V30 12275 H 1159.35 1.43672 0.0971306 0
M  V30 12276 H 1161.31 3.29909 2.6218 0
M  V30 12277 H 1160.03 2.05946 2.53484 0
M  V30 12278 H 1158.69 3.52974 0.990208 0
M  V30 12279 H 1158.34 3.64765 3.46346 0
M  V30 12280 H 1158.04 5.22413 2.68995 0
M  V30 12281 H 1159.56 4.94637 3.58004 0
M  V30 12282 H 1160.98 5.5611 1.39337 0
M  V30 12283 H 1159.37 5.95891 0.709473 0
M  V30 12284 H 1160.44 4.84628 -0.162396 0
M  V30 12285 N 1161.79 -0.095206 1.57312 0
M  V30 12286 C 1163.01 -0.81614 1.90667 0
M  V30 12287 C 1163.44 -1.71494 0.772746 0
M  V30 12288 O 1162.79 -1.79192 -0.275682 0
M  V30 12289 C 1162.84 -1.60555 3.22885 0
M  V30 12290 O 1161.95 -2.71448 3.10467 0
M  V30 12291 H 1161.29 -0.224217 0.624998 0
M  V30 12292 H 1163.82 -0.070464 2.04479 0
M  V30 12293 H 1163.83 -1.98979 3.5619 0
M  V30 12294 H 1162.5 -0.945918 4.05 0
M  V30 12295 H 1161.08 -2.36053 2.88675 0
M  V30 12296 N 1163.26 -1.53291 -0.366026 0
M  V30 12297 C 1164.51 -1.68671 -1.10602 0
M  V30 12298 C 1164.83 -0.444793 -1.90476 0
M  V30 12299 O 1166.03 -0.479135 -2.67239 0
M  V30 12300 C 1164.49 -2.98174 -2.01545 0
M  V30 12301 C 1164.1 -4.29626 -1.26986 0
M  V30 12302 C 1165.84 -3.22921 -2.7554 0
M  V30 12303 C 1163.75 -5.50218 -2.16828 0
M  V30 12304 H 1162.68 -0.628456 -0.416604 0
M  V30 12305 H 1165.33 -1.79791 -0.367058 0
M  V30 12306 H 1163.71 -2.80855 -2.79171 0
M  V30 12307 H 1164.88 -4.57574 -0.544269 0
M  V30 12308 H 1163.2 -4.11318 -0.648558 0
M  V30 12309 H 1165.8 -4.10202 -3.42985 0
M  V30 12310 H 1166.14 -2.38964 -3.40884 0
M  V30 12311 H 1166.67 -3.40912 -2.04997 0
M  V30 12312 H 1163.41 -6.36651 -1.56063 0
M  V30 12313 H 1162.93 -5.26549 -2.87238 0
M  V30 12314 H 1164.61 -5.84991 -2.76396 0
M  V30 12315 N 1164.74 0.6258 -1.44643 0
M  V30 12316 C 1165.97 1.41726 -1.51422 0
M  V30 12317 C 1166.39 1.87565 -0.14181 0
M  V30 12318 O 1165.75 1.59059 0.870054 0
M  V30 12319 C 1165.8 2.61012 -2.48807 0
M  V30 12320 O 1164.9 3.61029 -1.99328 0
M  V30 12321 H 1164.24 0.423855 -0.511119 0
M  V30 12322 H 1166.77 0.763336 -1.89827 0
M  V30 12323 H 1166.78 3.08489 -2.67018 0
M  V30 12324 H 1165.46 2.26995 -3.48491 0
M  V30 12325 H 1164.04 3.20325 -1.90909 0
M  V30 12326 N 1166.22 1.31629 0.866686 0
M  V30 12327 C 1167.5 1.12136 1.60265 0
M  V30 12328 C 1167.88 -0.322729 2.08618 0
M  V30 12329 O 1167.23 -1.31738 1.86701 0
M  V30 12330 C 1167.44 2.13845 2.7581 0
M  V30 12331 C 1168.78 2.46541 3.45692 0
M  V30 12332 O 1169.81 2.12298 2.86021 0
M  V30 12333 O 1168.67 3.05194 4.53342 0
M  V30 12334 H 1165.76 0.431923 0.705246 0
M  V30 12335 H 1168.31 1.43119 0.911863 0
M  V30 12336 H 1167.08 3.10967 2.37518 0
M  V30 12337 H 1166.7 1.83786 3.52574 0
M  V30 12338 N 1167.7 -1.08142 1.14644 0
M  V30 12339 C 1168.66 -2.13308 0.83859 0
M  V30 12340 C 1169.66 -1.60022 -0.158012 0
M  V30 12341 O 1170.85 -1.74057 0.0706621 0
M  V30 12342 C 1167.98 -3.39978 0.250591 0
M  V30 12343 H 1169.18 -2.42049 1.77066 0
M  V30 12344 H 1166.73 -1.23899 0.952828 0
M  V30 12345 H 1167.47 -3.16873 -0.690064 0
M  V30 12346 H 1167.25 -3.79952 0.968456 0
M  V30 12347 H 1168.74 -4.17567 0.0525115 0
M  V30 12348 N 1169.18 -0.941978 -1.26351 0
M  V30 12349 C 1170.4 -0.606231 -1.98342 0
M  V30 12350 C 1170.83 0.812014 -1.6967 0
M  V30 12351 O 1170.19 1.54712 -0.9452 0
M  V30 12352 C 1170.23 -0.855864 -3.50296 0
M  V30 12353 O 1169.34 0.0716251 -4.12338 0
M  V30 12354 H 1168.68 -0.231815 -0.62222 0
M  V30 12355 H 1171.21 -1.26513 -1.60797 0
M  V30 12356 H 1171.22 -0.777079 -4.00531 0
M  V30 12357 H 1169.89 -1.8896 -3.70496 0
M  V30 12358 H 1168.47 -0.0582866 -3.72854 0
M  V30 12359 N 1170.66 1.40747 -0.709091 0
M  V30 12360 C 1171.9 2.00606 -0.245324 0
M  V30 12361 C 1172.22 1.56489 1.16346 0
M  V30 12362 O 1171.49 0.801456 1.78755 0
M  V30 12363 H 1170.07 0.741833 -0.0877098 0
M  V30 12364 H 1172.74 1.72178 -0.913271 0
M  V30 12365 H 1171.83 3.10901 -0.273322 0
M  V30 12366 N 1172.13 0.454803 1.50895 0
M  V30 12367 C 1173.06 -0.337982 2.31041 0
M  V30 12368 C 1174.04 -1.00523 1.37219 0
M  V30 12369 O 1175.23 -1.00553 1.66141 0
M  V30 12370 C 1172.36 -1.42964 3.1651 0
M  V30 12371 C 1171.31 -0.884907 4.18752 0
M  V30 12372 C 1170.64 -2.07363 4.92854 0
M  V30 12373 C 1171.94 0.0926716 5.22218 0
M  V30 12374 H 1173.63 0.33089 2.97566 0
M  V30 12375 H 1171.18 0.160577 1.43102 0
M  V30 12376 H 1173.13 -1.9916 3.71367 0
M  V30 12377 H 1171.86 -2.12705 2.47839 0
M  V30 12378 H 1170.52 -0.345031 3.64973 0
M  V30 12379 H 1170.16 -2.75764 4.2067 0
M  V30 12380 H 1169.86 -1.71545 5.62002 0
M  V30 12381 H 1171.39 -2.6408 5.5054 0
M  V30 12382 H 1172.8 -0.379568 5.72042 0
M  V30 12383 H 1171.2 0.3643 5.98993 0
M  V30 12384 H 1172.27 1.02383 4.73968 0
M  V30 12385 N 1173.61 -1.56489 0.186789 0
M  V30 12386 C 1174.86 -1.98399 -0.448244 0
M  V30 12387 C 1175.21 -1.07139 -1.59809 0
M  V30 12388 O 1174.51 -0.114119 -1.9126 0
M  V30 12389 C 1174.7 -3.44145 -0.964315 0
M  V30 12390 C 1174.53 -4.495 0.133992 0
M  V30 12391 C 1173.3 -5.01857 0.588851 0
M  V30 12392 C 1175.5 -5.05637 0.939971 0
M  V30 12393 N 1173.48 -5.90866 1.66585 0
M  V30 12394 C 1174.85 -5.91236 1.86655 0
M  V30 12395 C 1176.9 -4.88093 0.983319 0
M  V30 12396 C 1175.61 -6.61167 2.83286 0
M  V30 12397 C 1177.63 -5.58757 1.93764 0
M  V30 12398 C 1177 -6.44096 2.85167 0
M  V30 12399 H 1173.09 -0.770833 -0.131684 0
M  V30 12400 H 1175.68 -1.9252 0.290571 0
M  V30 12401 H 1173.85 -3.50541 -1.6726 0
M  V30 12402 H 1175.58 -3.73036 -1.56926 0
M  V30 12403 H 1172.34 -4.73244 0.183712 0
M  V30 12404 H 1172.76 -6.40075 2.2053 0
M  V30 12405 H 1177.4 -4.218 0.290658 0
M  V30 12406 H 1175.12 -7.26664 3.53532 0
M  V30 12407 H 1178.71 -5.47163 1.97748 0
M  V30 12408 H 1177.59 -6.97813 3.57808 0
M  V30 12409 N 1175.09 0.086862 -1.5736 0
M  V30 12410 C 1176.5 0.640442 -1.75372 0
M  V30 12411 C 1176.85 1.78693 -0.81014 0
M  V30 12412 O 1175.98 2.16398 0.00940712 0
M  V30 12413 C 1176.57 1.16856 -3.1801 0
M  V30 12414 C 1175.13 1.66813 -3.37417 0
M  V30 12415 C 1174.28 0.58116 -2.71142 0
M  V30 12416 H 1177.23 -0.139249 -1.58088 0
M  V30 12417 H 1177.25 2.03772 -3.21337 0
M  V30 12418 H 1176.76 0.333909 -3.86661 0
M  V30 12419 H 1174.86 2.52652 -2.73858 0
M  V30 12420 H 1174.98 1.75545 -4.45781 0
M  V30 12421 H 1173.34 1.0226 -2.3327 0
M  V30 12422 H 1174.12 -0.243047 -3.42439 0
M  V30 12423 N 1176.57 1.53483 0.357892 0
M  V30 12424 C 1177.48 1.83434 1.4625 0
M  V30 12425 C 1178.49 0.723313 1.58254 0
M  V30 12426 O 1179.67 1.01416 1.74002 0
M  V30 12427 C 1176.73 2.0249 2.81423 0
M  V30 12428 C 1175.8 3.26378 2.78883 0
M  V30 12429 C 1175.03 3.44516 4.07608 0
M  V30 12430 O 1175.25 2.66787 5.04163 0
M  V30 12431 O 1174.19 4.37898 4.12952 0
M  V30 12432 H 1178.01 2.77294 1.23861 0
M  V30 12433 H 1175.6 1.38958 0.548722 0
M  V30 12434 H 1177.48 2.16552 3.61501 0
M  V30 12435 H 1176.15 1.11819 3.03773 0
M  V30 12436 H 1175.06 3.17733 1.97475 0
M  V30 12437 H 1176.39 4.16996 2.61486 0
M  V30 12438 N 1178.05 -0.61812 1.44973 0
M  V30 12439 C 1178.98 -1.74035 1.55673 0
M  V30 12440 C 1179.96 -1.65112 0.4089 0
M  V30 12441 O 1181.14 -1.83673 0.630698 0
M  V30 12442 C 1178.27 -3.1261 1.51303 0
M  V30 12443 C 1177.23 -3.36334 2.64696 0
M  V30 12444 C 1176.55 -4.75072 2.45378 0
M  V30 12445 C 1177.85 -3.27618 4.06772 0
M  V30 12446 H 1179.55 -1.65336 2.49608 0
M  V30 12447 H 1177.09 -0.794003 1.20132 0
M  V30 12448 H 1179.04 -3.90906 1.57388 0
M  V30 12449 H 1177.77 -3.22123 0.538914 0
M  V30 12450 H 1176.43 -2.60423 2.58022 0
M  V30 12451 H 1176.08 -4.81306 1.46129 0
M  V30 12452 H 1175.78 -4.91903 3.21412 0
M  V30 12453 H 1177.3 -5.55582 2.53301 0
M  V30 12454 H 1178.71 -3.95802 4.14746 0
M  V30 12455 H 1177.11 -3.55981 4.83113 0
M  V30 12456 H 1178.18 -2.25219 4.29423 0
M  V30 12457 N 1179.52 -1.32087 -0.859693 0
M  V30 12458 C 1180.45 -1.23204 -1.98351 0
M  V30 12459 C 1181.43 -0.116974 -1.69697 0
M  V30 12460 O 1182.62 -0.303301 -1.91817 0
M  V30 12461 C 1179.75 -0.949171 -3.34078 0
M  V30 12462 C 1178.7 -2.02493 -3.77069 0
M  V30 12463 C 1178.03 -1.59455 -5.1037 0
M  V30 12464 C 1179.33 -3.43934 -3.93074 0
M  V30 12465 H 1181.02 -2.17227 -2.0604 0
M  V30 12466 H 1178.57 -1.04577 -0.989931 0
M  V30 12467 H 1180.52 -0.873594 -4.12245 0
M  V30 12468 H 1179.25 0.0267095 -3.26589 0
M  V30 12469 H 1177.91 -2.09057 -3.01149 0
M  V30 12470 H 1177.55 -0.606256 -4.99333 0
M  V30 12471 H 1177.25 -2.31429 -5.40106 0
M  V30 12472 H 1178.78 -1.53325 -5.91036 0
M  V30 12473 H 1180.19 -3.39986 -4.61608 0
M  V30 12474 H 1178.59 -4.14214 -4.3422 0
M  V30 12475 H 1179.66 -3.83965 -2.9614 0
M  V30 12476 N 1181 1.07532 -1.15215 0
M  V30 12477 C 1181.93 2.14598 -0.805006 0
M  V30 12478 C 1182.95 1.61778 0.182152 0
M  V30 12479 O 1184.14 1.78453 -0.040834 0
M  V30 12480 C 1181.24 3.38444 -0.175736 0
M  V30 12481 C 1180.41 4.20621 -1.19986 0
M  V30 12482 C 1179.47 5.22851 -0.592705 0
M  V30 12483 O 1178.49 5.55121 -1.25815 0
M  V30 12484 N 1179.7 5.7711 0.626425 0
M  V30 12485 H 1182.46 2.44981 -1.7264 0
M  V30 12486 H 1180.02 1.23423 -1.04778 0
M  V30 12487 H 1182.01 4.03969 0.243166 0
M  V30 12488 H 1180.58 3.0579 0.64896 0
M  V30 12489 H 1179.8 3.50941 -1.79539 0
M  V30 12490 H 1181.09 4.72339 -1.89139 0
M  V30 12491 H 1180.49 5.53139 1.18546 0
M  V30 12492 H 1179.05 6.44273 0.98771 0
M  V30 12493 N 1182.48 0.948665 1.2585 0
M  V30 12494 C 1183.39 0.470525 2.29833 0
M  V30 12495 C 1184.41 -0.45919 1.67832 0
M  V30 12496 O 1185.58 -0.336893 1.98562 0
M  V30 12497 C 1182.65 -0.249635 3.458 0
M  V30 12498 C 1181.71 0.717559 4.23261 0
M  V30 12499 C 1180.94 0.0316724 5.33691 0
M  V30 12500 O 1181.16 -1.18384 5.5798 0
M  V30 12501 O 1180.1 0.71418 5.97648 0
M  V30 12502 H 1183.92 1.33447 2.72811 0
M  V30 12503 H 1181.51 0.714864 1.31187 0
M  V30 12504 H 1183.39 -0.654993 4.16279 0
M  V30 12505 H 1182.07 -1.08885 3.04837 0
M  V30 12506 H 1180.97 1.17301 3.55234 0
M  V30 12507 H 1182.31 1.52461 4.67992 0
M  V30 12508 N 1183.96 -1.40369 0.716545 0
M  V30 12509 C 1184.89 -2.28196 0.013671 0
M  V30 12510 C 1185.87 -1.4339 -0.766685 0
M  V30 12511 O 1187.05 -1.72801 -0.753123 0
M  V30 12512 C 1184.18 -3.23969 -0.988006 0
M  V30 12513 C 1183.23 -4.25455 -0.298345 0
M  V30 12514 S 1184.06 -5.26559 0.974456 0
M  V30 12515 C 1185.22 -6.25895 -0.0250932 0
M  V30 12516 H 1185.45 -2.87461 0.758526 0
M  V30 12517 H 1182.98 -1.45817 0.507606 0
M  V30 12518 H 1184.94 -3.79674 -1.56071 0
M  V30 12519 H 1183.6 -2.63759 -1.70557 0
M  V30 12520 H 1182.79 -4.92821 -1.05561 0
M  V30 12521 H 1182.4 -3.73455 0.201828 0
M  V30 12522 H 1184.69 -6.7187 -0.871615 0
M  V30 12523 H 1185.63 -7.05422 0.615206 0
M  V30 12524 H 1186.04 -5.63156 -0.389248 0
M  V30 12525 N 1185.44 -0.462799 -1.50652 0
M  V30 12526 C 1186.85 -0.00568907 -1.86699 0
M  V30 12527 C 1187.2 1.39641 -1.37822 0
M  V30 12528 O 1186.32 2.03366 -0.739679 0
M  V30 12529 C 1186.92 -0.00354783 -3.388 0
M  V30 12530 C 1185.48 0.398061 -3.74289 0
M  V30 12531 C 1184.62 -0.392574 -2.74507 0
M  V30 12532 H 1187.58 -0.677469 -1.43513 0
M  V30 12533 H 1187.6 0.800456 -3.71985 0
M  V30 12534 H 1187.11 -1.02414 -3.74344 0
M  V30 12535 H 1185.21 1.42331 -3.44344 0
M  V30 12536 H 1185.32 0.105168 -4.78985 0
M  V30 12537 H 1183.69 0.152608 -2.54242 0
M  V30 12538 H 1184.47 -1.41252 -3.12894 0
M  V30 12539 N 1186.91 1.56388 -0.195085 0
M  V30 12540 C 1188.33 1.8398 0.317513 0
M  V30 12541 C 1188.68 1.11575 1.61386 0
M  V30 12542 O 1187.8 0.376557 2.13099 0
M  V30 12543 C 1188.4 3.33749 0.582859 0
M  V30 12544 C 1186.96 3.61752 1.03983 0
M  V30 12545 C 1186.1 2.77159 0.088434 0
M  V30 12546 H 1189.05 1.53072 -0.418871 0
M  V30 12547 H 1189.07 3.52519 1.43216 0
M  V30 12548 H 1188.59 3.86419 -0.360813 0
M  V30 12549 H 1186.69 3.14515 1.99778 0
M  V30 12550 H 1186.8 4.69937 0.932549 0
M  V30 12551 H 1185.16 2.47765 0.590317 0
M  V30 12552 H 1185.95 3.32619 -0.849682 0
M  V30 12553 N 1188.39 -0.0785156 1.57404 0
M  V30 12554 C 1189.81 -0.433143 1.5361 0
M  V30 12555 C 1190.01 -1.79564 0.914283 0
M  V30 12556 O 1189.06 -2.47215 0.513899 0
M  V30 12557 C 1190.38 -0.380387 2.98284 0
M  V30 12558 C 1191.93 -0.461056 3.09586 0
M  V30 12559 C 1192.4 -0.438276 4.55898 0
M  V30 12560 N 1193.89 -0.498548 4.60509 0
M  V30 12561 C 1194.63 -0.503028 5.71189 0
M  V30 12562 N 1194.12 -0.462724 6.91253 0
M  V30 12563 N 1195.92 -0.549083 5.59412 0
M  V30 12564 H 1188.07 0.813724 1.96195 0
M  V30 12565 H 1190.33 0.304644 0.897717 0
M  V30 12566 H 1190.04 0.553932 3.4731 0
M  V30 12567 H 1189.91 -1.19313 3.57833 0
M  V30 12568 H 1192.3 -1.3858 2.60537 0
M  V30 12569 H 1192.38 0.380138 2.5296 0
M  V30 12570 H 1192.02 0.482588 5.05602 0
M  V30 12571 H 1191.95 -1.29691 5.1038 0
M  V30 12572 H 1194.44 -0.534219 3.74105 0
M  V30 12573 H 1194.76 -0.469883 7.7137 0
M  V30 12574 H 1193.1 -0.429515 6.93672 0
M  V30 12575 H 1196.29 -0.578215 4.64515 0
M  V30 12576 H 1196.46 -0.549105 6.45669 0
M  V30 12577 N 1189.87 -1.5367 -0.349747 0
M  V30 12578 C 1190.82 -1.77604 -1.42972 0
M  V30 12579 C 1191.8 -0.631036 -1.48009 0
M  V30 12580 O 1193 -0.890228 -1.52983 0
M  V30 12581 C 1190.13 -1.98354 -2.80198 0
M  V30 12582 C 1189.21 -3.18901 -2.79576 0
M  V30 12583 N 1189.6 -4.40497 -2.48589 0
M  V30 12584 C 1187.9 -3.19945 -3.10727 0
M  V30 12585 C 1188.6 -5.22318 -2.56045 0
M  V30 12586 N 1187.58 -4.5889 -2.91412 0
M  V30 12587 H 1191.38 -2.69215 -1.17901 0
M  V30 12588 H 1188.89 -1.5251 -0.558062 0
M  V30 12589 H 1190.89 -2.13632 -3.58004 0
M  V30 12590 H 1189.55 -1.07981 -3.06219 0
M  V30 12591 H 1190.56 -4.67955 -2.21898 0
M  V30 12592 H 1187.24 -2.39519 -3.41961 0
M  V30 12593 H 1188.63 -6.29352 -2.35299 0
M  V30 12594 N 1191.35 0.610423 -1.45298 0
M  V30 12595 C 1192.57 1.40112 -1.52917 0
M  V30 12596 C 1193 1.87404 -0.161696 0
M  V30 12597 O 1192.36 1.59973 0.853135 0
M  V30 12598 C 1192.4 2.58359 -2.51561 0
M  V30 12599 O 1191.51 3.58895 -2.03146 0
M  V30 12600 H 1190.85 0.41841 -0.515586 0
M  V30 12601 H 1193.38 0.743159 -1.90626 0
M  V30 12602 H 1193.39 3.0564 -2.70275 0
M  V30 12603 H 1192.06 2.23286 -3.50879 0
M  V30 12604 H 1190.64 3.18282 -1.94296 0
M  V30 12605 N 1192.83 1.32541 0.852676 0
M  V30 12606 C 1194.24 1.20863 1.42299 0
M  V30 12607 C 1194.59 -0.178051 1.9539 0
M  V30 12608 O 1193.71 -1.07689 1.87702 0
M  V30 12609 C 1194.31 2.18811 2.58664 0
M  V30 12610 C 1192.87 2.11015 3.11689 0
M  V30 12611 C 1192.01 2.07067 1.84441 0
M  V30 12612 H 1194.97 1.44341 0.659657 0
M  V30 12613 H 1194.99 1.78779 3.35884 0
M  V30 12614 H 1194.5 3.19726 2.19993 0
M  V30 12615 H 1192.6 1.13354 3.54939 0
M  V30 12616 H 1192.71 3.00929 3.72799 0
M  V30 12617 H 1191.08 1.52335 2.04123 0
M  V30 12618 H 1191.86 3.09767 1.47984 0
M  V30 12619 N 1194.3 -1.0692 1.15784 0
M  V30 12620 C 1195.24 -2.14168 0.816375 0
M  V30 12621 C 1196.25 -1.61872 -0.17357 0
M  V30 12622 O 1197.44 -1.78429 0.0502973 0
M  V30 12623 C 1194.54 -3.38346 0.193682 0
M  V30 12624 C 1193.71 -4.19979 1.22215 0
M  V30 12625 C 1192.77 -5.2253 0.620424 0
M  V30 12626 O 1191.8 -5.54446 1.28757 0
M  V30 12627 N 1193 -5.77434 -0.595811 0
M  V30 12628 H 1195.76 -2.44062 1.73937 0
M  V30 12629 H 1193.32 -1.22865 1.05431 0
M  V30 12630 H 1195.32 -4.04092 -0.22174 0
M  V30 12631 H 1193.89 -3.06129 -0.632735 0
M  V30 12632 H 1193.11 -3.49984 1.81397 0
M  V30 12633 H 1194.39 -4.71329 1.91641 0
M  V30 12634 H 1193.79 -5.5376 -1.15611 0
M  V30 12635 H 1192.35 -6.44788 -0.953529 0
M  V30 12636 N 1195.78 -0.955326 -1.25345 0
M  V30 12637 C 1197.01 -0.627233 -1.97688 0
M  V30 12638 C 1197.43 0.793973 -1.70522 0
M  V30 12639 O 1196.79 1.537 -0.961556 0
M  V30 12640 C 1196.84 -0.892969 -3.49369 0
M  V30 12641 O 1195.94 0.0278871 -4.12391 0
M  V30 12642 H 1195.28 -0.238402 -0.619726 0
M  V30 12643 H 1197.81 -1.28211 -1.59446 0
M  V30 12644 H 1197.82 -0.819517 -3.99685 0
M  V30 12645 H 1196.5 -1.92879 -3.6847 0
M  V30 12646 H 1195.08 -0.0978295 -3.72772 0
M  V30 12647 N 1197.26 1.39987 -0.723979 0
M  V30 12648 C 1198.67 1.83606 -0.338461 0
M  V30 12649 C 1199.02 1.6051 1.12831 0
M  V30 12650 O 1198.15 1.09041 1.8692 0
M  V30 12651 C 1198.74 3.33308 -0.607533 0
M  V30 12652 C 1197.3 3.75389 -0.275632 0
M  V30 12653 C 1196.45 2.6311 -0.875699 0
M  V30 12654 H 1199.4 1.29135 -0.922483 0
M  V30 12655 H 1199.42 3.80297 0.124424 0
M  V30 12656 H 1198.93 3.50087 -1.67514 0
M  V30 12657 H 1197.03 3.64203 0.786579 0
M  V30 12658 H 1197.15 4.73185 -0.750492 0
M  V30 12659 H 1195.51 2.5289 -0.303122 0
M  V30 12660 H 1196.29 2.82698 -1.94774 0
M  V30 12661 N 1198.74 0.470782 1.50404 0
M  V30 12662 C 1199.67 -0.359838 2.26358 0
M  V30 12663 C 1200.68 -0.95735 1.31676 0
M  V30 12664 O 1201.87 -0.84581 1.57189 0
M  V30 12665 C 1198.97 -1.51864 3.02969 0
M  V30 12666 C 1198.15 -1.03397 4.25003 0
M  V30 12667 C 1197.21 -2.06679 4.83911 0
M  V30 12668 O 1196.23 -1.64754 5.44835 0
M  V30 12669 N 1197.43 -3.39484 4.70883 0
M  V30 12670 H 1200.2 0.291299 2.98281 0
M  V30 12671 H 1197.76 0.301549 1.59067 0
M  V30 12672 H 1199.75 -2.2065 3.39258 0
M  V30 12673 H 1198.32 -2.07448 2.33846 0
M  V30 12674 H 1197.54 -0.172012 3.93825 0
M  V30 12675 H 1198.83 -0.68807 5.04126 0
M  V30 12676 H 1198.23 -3.76256 4.22431 0
M  V30 12677 H 1196.78 -4.04068 5.11441 0
M  V30 12678 N 1200.22 -1.56282 0.203376 0
M  V30 12679 C 1201.13 -2.23086 -0.725922 0
M  V30 12680 C 1202.14 -1.23258 -1.22814 0
M  V30 12681 O 1203.32 -1.5602 -1.27357 0
M  V30 12682 C 1200.38 -2.88358 -1.92485 0
M  V30 12683 C 1199.45 -4.03479 -1.46639 0
M  V30 12684 C 1198.68 -4.65629 -2.60816 0
M  V30 12685 O 1198.9 -4.2672 -3.78506 0
M  V30 12686 O 1197.84 -5.54949 -2.33056 0
M  V30 12687 H 1201.66 -3.03124 -0.18694 0
M  V30 12688 H 1199.25 -1.49377 -0.0262829 0
M  V30 12689 H 1201.13 -3.29623 -2.62539 0
M  V30 12690 H 1199.8 -2.11294 -2.45228 0
M  V30 12691 H 1198.71 -3.66821 -0.734396 0
M  V30 12692 H 1200.04 -4.82232 -0.985535 0
M  V30 12693 N 1201.7 0.070167 -1.57444 0
M  V30 12694 C 1202.97 0.802108 -1.78397 0
M  V30 12695 C 1203.35 1.95706 -0.791356 0
M  V30 12696 O 1202.7 2.27827 0.17518 0
M  V30 12697 C 1202.91 1.27354 -3.24934 0
M  V30 12698 C 1204.26 1.70626 -3.88808 0
M  V30 12699 O 1205.28 1.36916 -3.28835 0
M  V30 12700 O 1204.14 2.33041 -4.94322 0
M  V30 12701 H 1201.24 0.384483 -0.73219 0
M  V30 12702 H 1203.78 0.0501168 -1.69626 0
M  V30 12703 H 1202.55 0.447204 -3.88736 0
M  V30 12704 H 1202.18 2.0868 -3.38435 0
M  V30 12705 N 1203.17 1.53854 0.341593 0
M  V30 12706 C 1204.58 1.62623 0.917093 0
M  V30 12707 C 1204.94 0.508781 1.89488 0
M  V30 12708 O 1204.06 -0.361171 2.13365 0
M  V30 12709 C 1204.66 2.94775 1.67012 0
M  V30 12710 C 1203.21 3.058 2.19461 0
M  V30 12711 C 1202.36 2.58082 1.01433 0
M  V30 12712 H 1205.31 1.58248 0.119674 0
M  V30 12713 H 1205.33 2.83924 2.53313 0
M  V30 12714 H 1204.85 3.76085 0.958221 0
M  V30 12715 H 1202.95 2.29128 2.93821 0
M  V30 12716 H 1203.06 4.11302 2.45698 0
M  V30 12717 H 1201.42 2.13537 1.38831 0
M  V30 12718 H 1202.21 3.41833 0.317033 0
M  V30 12719 N 1204.65 -0.602709 1.4562 0
M  V30 12720 C 1205.93 -1.36224 1.40366 0
M  V30 12721 C 1206.31 -2.1096 0.0767645 0
M  V30 12722 O 1205.66 -2.08207 -0.941378 0
M  V30 12723 C 1205.87 -2.30499 2.62052 0
M  V30 12724 C 1207.21 -2.92954 3.07348 0
M  V30 12725 O 1208.24 -2.40818 2.62459 0
M  V30 12726 O 1207.1 -3.87601 3.85263 0
M  V30 12727 H 1204.19 -0.611064 0.557253 0
M  V30 12728 H 1206.74 -0.625391 1.57756 0
M  V30 12729 H 1205.51 -1.74566 3.50203 0
M  V30 12730 H 1205.13 -3.11556 2.4702 0
M  V30 12731 N 1206.13 -1.32992 -0.845635 0
M  V30 12732 C 1207.37 -1.2539 -1.61421 0
M  V30 12733 C 1207.73 0.179395 -1.9116 0
M  V30 12734 O 1208.93 0.379275 -2.66111 0
M  V30 12735 C 1207.21 -2.09817 -2.8933 0
M  V30 12736 S 1208.76 -2.19335 -3.80049 0
M  V30 12737 H 1205.58 -0.446202 -0.553556 0
M  V30 12738 H 1208.18 -1.67946 -1.00072 0
M  V30 12739 H 1206.89 -3.12999 -2.65443 0
M  V30 12740 H 1206.42 -1.68073 -3.5569 0
M  V30 12741 H 1208.43 -1.34946 -4.77498 0
M  V30 12742 N 1207.61 1.06304 -1.1635 0
M  V30 12743 C 1208.85 1.79516 -0.956328 0
M  V30 12744 C 1209.21 1.85506 0.510438 0
M  V30 12745 O 1208.5 1.33556 1.37381 0
M  V30 12746 C 1208.7 3.23589 -1.51741 0
M  V30 12747 C 1208.52 3.31639 -3.0372 0
M  V30 12748 C 1207.29 3.41579 -3.7236 0
M  V30 12749 C 1209.49 3.2151 -4.01417 0
M  V30 12750 N 1207.47 3.38643 -5.12049 0
M  V30 12751 C 1208.85 3.25815 -5.27489 0
M  V30 12752 C 1210.9 3.05393 -3.93242 0
M  V30 12753 C 1209.6 3.1566 -6.46337 0
M  V30 12754 C 1211.63 2.96577 -5.1166 0
M  V30 12755 C 1210.99 3.01504 -6.36612 0
M  V30 12756 H 1207.09 0.669727 -0.40372 0
M  V30 12757 H 1209.67 1.2681 -1.4774 0
M  V30 12758 H 1207.85 3.7469 -1.02282 0
M  V30 12759 H 1209.58 3.84977 -1.248 0
M  V30 12760 H 1206.33 3.46371 -3.22992 0
M  V30 12761 H 1206.76 3.40674 -5.85038 0
M  V30 12762 H 1211.4 3.0043 -2.97492 0
M  V30 12763 H 1209.12 3.1938 -7.42308 0
M  V30 12764 H 1212.7 2.85195 -5.07105 0
M  V30 12765 H 1211.58 2.9474 -7.26704 0
M  V30 12766 N 1209.09 0.96196 1.24836 0
M  V30 12767 C 1210.5 0.660388 1.7463 0
M  V30 12768 C 1210.85 -0.824064 1.78055 0
M  V30 12769 O 1209.97 -1.64485 1.40619 0
M  V30 12770 C 1210.57 1.19205 3.17137 0
M  V30 12771 C 1209.13 0.940493 3.64461 0
M  V30 12772 C 1208.27 1.33076 2.43282 0
M  V30 12773 H 1211.22 1.13794 1.1062 0
M  V30 12774 H 1211.25 0.555595 3.76422 0
M  V30 12775 H 1210.76 2.27247 3.14612 0
M  V30 12776 H 1208.86 -0.124645 3.72391 0
M  V30 12777 H 1208.97 1.5821 4.52224 0
M  V30 12778 H 1207.34 0.749139 2.43434 0
M  V30 12779 H 1208.12 2.42055 2.43442 0
M  V30 12780 N 1210.56 -1.39601 0.731392 0
M  V30 12781 C 1211.49 -2.33268 0.1041 0
M  V30 12782 C 1212.47 -1.53724 -0.728219 0
M  V30 12783 O 1213.66 -1.82131 -0.673933 0
M  V30 12784 C 1210.79 -3.37802 -0.806646 0
M  V30 12785 C 1209.74 -4.27928 -0.0787588 0
M  V30 12786 C 1209.07 -5.23131 -1.10628 0
M  V30 12787 C 1210.37 -5.11086 1.07651 0
M  V30 12788 H 1212.06 -2.85975 0.886496 0
M  V30 12789 H 1209.61 -1.375 0.427746 0
M  V30 12790 H 1211.56 -4.02278 -1.25499 0
M  V30 12791 H 1210.29 -2.83527 -1.62112 0
M  V30 12792 H 1208.95 -3.64926 0.349926 0
M  V30 12793 H 1208.59 -4.65152 -1.91422 0
M  V30 12794 H 1208.29 -5.84277 -0.624043 0
M  V30 12795 H 1209.82 -5.90483 -1.5544 0
M  V30 12796 H 1211.23 -5.68927 0.706781 0
M  V30 12797 H 1209.63 -5.81356 1.48814 0
M  V30 12798 H 1210.7 -4.46131 1.89988 0
M  V30 12799 N 1212.04 -0.478751 -1.50152 0
M  V30 12800 C 1212.99 0.311426 -2.28689 0
M  V30 12801 C 1213.96 0.980375 -1.34082 0
M  V30 12802 O 1215.14 0.991337 -1.63025 0
M  V30 12803 C 1212.28 1.38302 -3.16175 0
M  V30 12804 C 1211.4 0.728084 -4.2582 0
M  V30 12805 C 1210.53 1.77822 -5.00552 0
M  V30 12806 C 1209.57 1.10395 -6.02063 0
M  V30 12807 N 1208.71 2.09728 -6.70044 0
M  V30 12808 H 1213.55 -0.364592 -2.95761 0
M  V30 12809 H 1211.09 -0.191645 -1.45846 0
M  V30 12810 H 1213.04 2.01606 -3.65255 0
M  V30 12811 H 1211.67 2.0281 -2.51133 0
M  V30 12812 H 1210.73 -0.0177026 -3.80396 0
M  V30 12813 H 1212.04 0.196209 -4.98414 0
M  V30 12814 H 1211.19 2.48687 -5.53389 0
M  V30 12815 H 1209.93 2.34392 -4.27682 0
M  V30 12816 H 1208.94 0.38096 -5.48479 0
M  V30 12817 H 1210.16 0.545045 -6.76909 0
M  V30 12818 H 1208.11 2.65301 -5.9996 0
M  V30 12819 H 1208.02 1.61546 -7.38538 0
M  V30 12820 H 1209.29 2.7995 -7.27495 0
M  V30 12821 N 1213.52 1.56172 -0.211661 0
M  V30 12822 C 1214.45 2.22843 0.697375 0
M  V30 12823 C 1215.43 1.19689 1.20866 0
M  V30 12824 O 1216.62 1.48245 1.25447 0
M  V30 12825 C 1213.75 2.90067 1.90993 0
M  V30 12826 C 1212.7 3.99608 1.5329 0
M  V30 12827 C 1212.03 4.54078 2.82343 0
M  V30 12828 C 1213.33 5.17169 0.730333 0
M  V30 12829 H 1215.02 2.99065 0.141533 0
M  V30 12830 H 1212.57 1.43846 0.0666337 0
M  V30 12831 H 1214.52 3.35396 2.55123 0
M  V30 12832 H 1213.24 2.11276 2.49058 0
M  V30 12833 H 1211.9 3.54995 0.915115 0
M  V30 12834 H 1211.55 3.72029 3.38531 0
M  V30 12835 H 1211.25 5.28001 2.57853 0
M  V30 12836 H 1212.77 5.02119 3.47432 0
M  V30 12837 H 1214.19 5.5894 1.2751 0
M  V30 12838 H 1212.59 5.97262 0.582916 0
M  V30 12839 H 1213.66 4.84174 -0.265157 0
M  V30 12840 N 1215 -0.0618163 1.57479 0
M  V30 12841 C 1216.25 -0.757569 1.87364 0
M  V30 12842 C 1216.57 -1.77607 0.805025 0
M  V30 12843 O 1215.84 -1.95202 -0.165216 0
M  V30 12844 H 1214.42 -0.28278 0.691408 0
M  V30 12845 H 1217.08 -0.0355354 1.94868 0
M  V30 12846 H 1216.18 -1.26758 2.85199 0
M  V30 12847 N 1216.48 -1.54033 -0.333429 0
M  V30 12848 C 1217.7 -1.76031 -1.09672 0
M  V30 12849 C 1218.13 -0.502844 -1.81254 0
M  V30 12850 O 1217.48 0.54509 -1.72912 0
M  V30 12851 C 1217.53 -2.947 -2.07809 0
M  V30 12852 O 1216.64 -2.65555 -3.15522 0
M  V30 12853 H 1215.98 -0.583611 -0.316692 0
M  V30 12854 H 1218.51 -2.01026 -0.380732 0
M  V30 12855 H 1218.52 -3.21771 -2.50853 0
M  V30 12856 H 1217.19 -3.85895 -1.55106 0
M  V30 12857 H 1215.77 -2.49403 -2.77223 0
M  V30 12858 N 1217.95 0.594978 -1.45938 0
M  V30 12859 C 1219.37 0.917069 -1.30622 0
M  V30 12860 C 1219.57 1.99702 -0.268554 0
M  V30 12861 O 1218.63 2.50293 0.333146 0
M  V30 12862 C 1219.94 1.34604 -2.68891 0
M  V30 12863 C 1221.49 1.45957 -2.76886 0
M  V30 12864 C 1221.96 1.92225 -4.15708 0
M  V30 12865 N 1223.45 1.99439 -4.18065 0
M  V30 12866 C 1224.19 2.36488 -5.22361 0
M  V30 12867 N 1223.68 2.72416 -6.36994 0
M  V30 12868 N 1225.48 2.36936 -5.09723 0
M  V30 12869 H 1217.63 -0.118625 -2.12068 0
M  V30 12870 H 1219.89 0.00959453 -0.947951 0
M  V30 12871 H 1219.6 0.626605 -3.46073 0
M  V30 12872 H 1219.47 2.31006 -2.98188 0
M  V30 12873 H 1221.86 2.16989 -1.99999 0
M  V30 12874 H 1221.94 0.47838 -2.51287 0
M  V30 12875 H 1221.58 1.21775 -4.93085 0
M  V30 12876 H 1221.51 2.9128 -4.38707 0
M  V30 12877 H 1224 1.74212 -3.35349 0
M  V30 12878 H 1224.32 2.99604 -7.1236 0
M  V30 12879 H 1222.66 2.70083 -6.40375 0
M  V30 12880 H 1225.85 2.08282 -4.19209 0
M  V30 12881 H 1226.03 2.65483 -5.9112 0
M  V30 12882 N 1219.43 1.33438 0.838571 0
M  V30 12883 C 1220.36 1.26344 1.96365 0
M  V30 12884 C 1221.34 0.143956 1.6949 0
M  V30 12885 O 1222.53 0.333779 1.9131 0
M  V30 12886 C 1219.66 1.0022 3.32526 0
M  V30 12887 C 1218.61 2.08466 3.73799 0
M  V30 12888 C 1217.94 1.67555 5.07769 0
M  V30 12889 C 1219.24 3.50144 3.87552 0
M  V30 12890 H 1220.93 2.20478 2.02558 0
M  V30 12891 H 1218.48 1.06139 0.973168 0
M  V30 12892 H 1220.43 0.939068 4.10803 0
M  V30 12893 H 1219.16 0.0252514 3.2659 0
M  V30 12894 H 1217.81 2.13822 2.97785 0
M  V30 12895 H 1217.46 0.685619 4.98305 0
M  V30 12896 H 1217.16 2.39993 5.36356 0
M  V30 12897 H 1218.69 1.62708 5.88522 0
M  V30 12898 H 1220.1 3.47287 4.56141 0
M  V30 12899 H 1218.5 4.21069 4.27575 0
M  V30 12900 H 1219.57 3.88628 2.89994 0
M  V30 12901 N 1220.91 -1.05686 1.16912 0
M  V30 12902 C 1221.82 -2.16824 0.8958 0
M  V30 12903 C 1222.84 -1.73482 -0.134215 0
M  V30 12904 O 1224.01 -2.01352 0.0438776 0
M  V30 12905 C 1221.08 -3.44298 0.407427 0
M  V30 12906 C 1220.14 -4.02114 1.50342 0
M  V30 12907 C 1219.37 -5.23503 1.03826 0
M  V30 12908 O 1219.59 -5.70295 -0.109579 0
M  V30 12909 O 1218.53 -5.73432 1.8292 0
M  V30 12910 H 1222.35 -2.42725 1.82533 0
M  V30 12911 H 1219.94 -1.15339 0.949589 0
M  V30 12912 H 1221.82 -4.21159 0.142356 0
M  V30 12913 H 1220.5 -3.19908 -0.494009 0
M  V30 12914 H 1219.4 -3.26715 1.82231 0
M  V30 12915 H 1220.74 -4.30811 2.38039 0
M  V30 12916 N 1222.39 -0.968567 -1.24324 0
M  V30 12917 C 1223.32 -0.457247 -2.24593 0
M  V30 12918 C 1224.33 0.434483 -1.56895 0
M  V30 12919 O 1225.52 0.240519 -1.76872 0
M  V30 12920 C 1222.62 0.359086 -3.36992 0
M  V30 12921 C 1221.8 -0.522945 -4.34263 0
M  V30 12922 C 1220.85 0.237528 -5.25664 0
M  V30 12923 O 1219.88 -0.368835 -5.68004 0
M  V30 12924 N 1221.08 1.52686 -5.6006 0
M  V30 12925 H 1223.85 -1.31934 -2.69098 0
M  V30 12926 H 1221.41 -0.840488 -1.38374 0
M  V30 12927 H 1223.4 0.87589 -3.95108 0
M  V30 12928 H 1221.97 1.12212 -2.91766 0
M  V30 12929 H 1221.19 -1.22071 -3.74823 0
M  V30 12930 H 1222.48 -1.12447 -4.96219 0
M  V30 12931 H 1221.88 2.0412 -5.2759 0
M  V30 12932 H 1220.43 1.98934 -6.207 0
M  V30 12933 N 1223.87 1.39211 -0.738786 0
M  V30 12934 C 1224.8 2.33209 -0.11647 0
M  V30 12935 C 1225.78 1.54108 0.720056 0
M  V30 12936 O 1226.96 1.82486 0.664264 0
M  V30 12937 C 1224.09 3.38226 0.78872 0
M  V30 12938 C 1223.05 4.27963 0.0560636 0
M  V30 12939 C 1222.37 5.2371 1.07852 0
M  V30 12940 C 1223.67 5.10508 -1.1036 0
M  V30 12941 H 1225.37 2.85501 -0.901649 0
M  V30 12942 H 1222.91 1.37272 -0.435032 0
M  V30 12943 H 1224.87 4.02938 1.23364 0
M  V30 12944 H 1223.59 2.84382 1.60606 0
M  V30 12945 H 1222.25 3.64735 -0.369274 0
M  V30 12946 H 1221.9 4.66161 1.88953 0
M  V30 12947 H 1221.6 5.846 0.593048 0
M  V30 12948 H 1223.12 5.91299 1.52307 0
M  V30 12949 H 1224.53 5.68544 -0.736943 0
M  V30 12950 H 1222.93 5.80558 -1.51895 0
M  V30 12951 H 1224 4.45117 -1.92352 0
M  V30 12952 N 1225.34 0.486708 1.49896 0
M  V30 12953 C 1226.28 -0.335809 2.26727 0
M  V30 12954 C 1227.29 -0.94333 1.32684 0
M  V30 12955 O 1228.48 -0.82909 1.58077 0
M  V30 12956 C 1225.58 -1.48642 3.04563 0
M  V30 12957 C 1224.75 -0.988837 4.26076 0
M  V30 12958 C 1223.81 -2.01535 4.86076 0
M  V30 12959 O 1222.84 -1.58966 5.46552 0
M  V30 12960 N 1224.04 -3.34471 4.74457 0
M  V30 12961 H 1226.8 0.322919 2.97955 0
M  V30 12962 H 1224.36 0.318403 1.58738 0
M  V30 12963 H 1226.36 -2.17039 3.41579 0
M  V30 12964 H 1224.93 -2.04956 2.36033 0
M  V30 12965 H 1224.15 -0.130232 3.93985 0
M  V30 12966 H 1225.43 -0.634562 5.04827 0
M  V30 12967 H 1224.83 -3.71755 4.26398 0
M  V30 12968 H 1223.39 -3.98621 5.15698 0
M  V30 12969 N 1226.82 -1.56058 0.219941 0
M  V30 12970 C 1227.79 -2.18964 -0.677303 0
M  V30 12971 C 1228.79 -1.15105 -1.12283 0
M  V30 12972 O 1229.98 -1.40348 -1.03189 0
M  V30 12973 C 1227.11 -2.81167 -1.92764 0
M  V30 12974 H 1228.3 -2.99623 -0.128877 0
M  V30 12975 H 1225.85 -1.56272 -0.0296744 0
M  V30 12976 H 1226.59 -2.04374 -2.51797 0
M  V30 12977 H 1226.37 -3.5722 -1.61666 0
M  V30 12978 H 1227.86 -3.29391 -2.56693 0
M  V30 12979 N 1228.3 0.053464 -1.57509 0
M  V30 12980 C 1229.23 1.08863 -2.01696 0
M  V30 12981 C 1230.25 1.33916 -0.925765 0
M  V30 12982 O 1231.44 1.31833 -1.20343 0
M  V30 12983 C 1228.54 2.43567 -2.35644 0
M  V30 12984 C 1227.71 2.38215 -3.66841 0
M  V30 12985 C 1226.77 3.55172 -3.88252 0
M  V30 12986 O 1225.79 3.35769 -4.59617 0
M  V30 12987 N 1227 4.76182 -3.3201 0
M  V30 12988 H 1229.76 0.712192 -2.91115 0
M  V30 12989 H 1227.32 0.241829 -1.60084 0
M  V30 12990 H 1229.31 3.20486 -2.47125 0
M  V30 12991 H 1227.88 2.73145 -1.52022 0
M  V30 12992 H 1227.1 1.46557 -3.65943 0
M  V30 12993 H 1228.39 2.31757 -4.52953 0
M  V30 12994 H 1227.79 4.94849 -2.74118 0
M  V30 12995 H 1226.35 5.5055 -3.4891 0
M  V30 12996 N 1229.78 1.54207 0.325255 0
M  V30 12997 C 1230.71 1.78318 1.42401 0
M  V30 12998 C 1231.69 0.633078 1.49769 0
M  V30 12999 O 1232.87 0.870324 1.67205 0
M  V30 13000 C 1230 1.89823 2.80509 0
M  V30 13001 C 1229.05 3.12102 2.9068 0
M  V30 13002 S 1229.88 4.70746 2.55262 0
M  V30 13003 C 1231.04 4.85154 3.95444 0
M  V30 13004 H 1231.27 2.71234 1.21736 0
M  V30 13005 H 1228.8 1.45309 0.521993 0
M  V30 13006 H 1230.76 1.97136 3.60066 0
M  V30 13007 H 1229.42 0.978873 2.98458 0
M  V30 13008 H 1228.61 3.16881 3.91921 0
M  V30 13009 H 1228.22 3.03109 2.19091 0
M  V30 13010 H 1230.51 4.67687 4.90178 0
M  V30 13011 H 1231.45 5.87254 3.95649 0
M  V30 13012 H 1231.86 4.13471 3.8432 0
M  V30 13013 N 1231.26 -0.58723 1.46251 0
M  V30 13014 C 1232.21 -1.71771 1.56836 0
M  V30 13015 C 1233.2 -1.63664 0.437096 0
M  V30 13016 O 1234.41 -1.69212 0.613797 0
M  V30 13017 H 1230.78 -0.567841 0.493012 0
M  V30 13018 H 1232.75 -1.59974 2.51895 0
M  V30 13019 C 1231.5 -3.10159 1.57152 0
M  V30 13020 H 1230.82 -3.17066 2.43535 0
M  V30 13021 H 1232.26 -3.89032 1.68613 0
M  V30 13022 C 1230.72 -3.35567 0.299374 0
M  V30 13023 O 1231.25 -3.97006 -0.612291 0
M  V30 13024 N 1229.46 -2.89987 0.188695 0
M  V30 13025 H 1229.01 -2.4017 0.93147 0
M  V30 13026 H 1228.96 -3.0736 -0.661612 0
M  V30 13027 N 1232.74 -1.33881 -0.831482 0
M  V30 13028 C 1234.15 -1.13376 -1.1233 0
M  V30 13029 C 1234.35 0.0704402 -2.01377 0
M  V30 13030 O 1233.41 0.748516 -2.4115 0
M  V30 13031 C 1234.72 -2.42484 -1.77826 0
M  V30 13032 C 1236.27 -2.4846 -1.90359 0
M  V30 13033 C 1236.74 -3.77548 -2.59272 0
M  V30 13034 N 1238.23 -3.7866 -2.66778 0
M  V30 13035 C 1238.97 -4.75258 -3.20807 0
M  V30 13036 N 1238.47 -5.82234 -3.75466 0
M  V30 13037 N 1240.26 -4.62724 -3.19128 0
M  V30 13038 H 1232.41 -2.11051 -0.238998 0
M  V30 13039 H 1234.67 -0.932893 -0.168565 0
M  V30 13040 H 1234.38 -3.30647 -1.19857 0
M  V30 13041 H 1234.25 -2.55186 -2.77777 0
M  V30 13042 H 1236.64 -1.60742 -2.47479 0
M  V30 13043 H 1236.72 -2.39693 -0.893359 0
M  V30 13044 H 1236.36 -4.65651 -2.02808 0
M  V30 13045 H 1236.29 -3.83594 -3.60781 0
M  V30 13046 H 1238.79 -3.01351 -2.28026 0
M  V30 13047 H 1239.1 -6.51968 -4.14918 0
M  V30 13048 H 1237.44 -5.85959 -3.73733 0
M  V30 13049 H 1240.63 -3.78303 -2.75688 0
M  V30 13050 H 1240.81 -5.38175 -3.60932 0
M  V30 13051 N 1234.21 1.05064 -1.1747 0
M  V30 13052 C 1235.14 2.14786 -0.915936 0
M  V30 13053 C 1236.12 1.69502 0.142561 0
M  V30 13054 O 1237.31 1.94198 -0.00794522 0
M  V30 13055 C 1234.44 3.44629 -0.429864 0
M  V30 13056 C 1233.39 4.03486 -1.42769 0
M  V30 13057 C 1232.72 5.28689 -0.799528 0
M  V30 13058 C 1234.02 4.40823 -2.80129 0
M  V30 13059 H 1235.71 2.3669 -1.83352 0
M  V30 13060 H 1233.26 1.13751 -0.882992 0
M  V30 13061 H 1235.21 4.20737 -0.236245 0
M  V30 13062 H 1233.94 3.22381 0.523263 0
M  V30 13063 H 1232.6 3.29449 -1.60808 0
M  V30 13064 H 1232.24 5.02744 0.160474 0
M  V30 13065 H 1231.94 5.69028 -1.46565 0
M  V30 13066 H 1233.47 6.07483 -0.616212 0
M  V30 13067 H 1234.88 5.07959 -2.65801 0
M  V30 13068 H 1233.28 4.92183 -3.43331 0
M  V30 13069 H 1234.35 3.51108 -3.34441 0
M  V30 13070 N 1235.69 0.975146 1.23809 0
M  V30 13071 C 1236.6 0.51917 2.28783 0
M  V30 13072 C 1237.62 -0.423487 1.68768 0
M  V30 13073 O 1238.79 -0.294699 1.99232 0
M  V30 13074 C 1235.86 -0.176229 3.46252 0
M  V30 13075 C 1234.92 0.807177 4.21643 0
M  V30 13076 C 1234.15 0.144869 5.33503 0
M  V30 13077 O 1234.38 -1.06522 5.60365 0
M  V30 13078 O 1233.31 0.84079 5.95999 0
M  V30 13079 H 1237.14 1.39204 2.69919 0
M  V30 13080 H 1234.72 0.74253 1.29641 0
M  V30 13081 H 1236.6 -0.566547 4.17574 0
M  V30 13082 H 1235.28 -1.02394 3.07078 0
M  V30 13083 H 1234.18 1.2481 3.52666 0
M  V30 13084 H 1235.52 1.62354 4.64653 0
M  V30 13085 N 1237.17 -1.38817 0.746158 0
M  V30 13086 C 1238.39 -2.05096 0.308302 0
M  V30 13087 C 1238.82 -1.55902 -1.05244 0
M  V30 13088 O 1238.18 -0.707685 -1.66918 0
M  V30 13089 C 1238.23 -3.59068 0.332016 0
M  V30 13090 O 1237.33 -4.06813 -0.676547 0
M  V30 13091 H 1236.67 -0.649523 0.1379 0
M  V30 13092 H 1239.2 -1.77637 1.0152 0
M  V30 13093 H 1239.21 -4.07601 0.180293 0
M  V30 13094 H 1237.89 -3.94234 1.32487 0
M  V30 13095 H 1236.46 -3.69666 -0.490046 0
M  V30 13096 N 1238.65 -0.49465 -1.49636 0
M  V30 13097 C 1240.06 -0.150217 -1.58892 0
M  V30 13098 C 1240.26 1.34485 -1.50053 0
M  V30 13099 O 1239.32 2.12026 -1.37118 0
M  V30 13100 C 1240.63 -0.721372 -2.91919 0
M  V30 13101 C 1242.18 -0.686908 -3.0537 0
M  V30 13102 C 1242.66 -1.23601 -4.41006 0
M  V30 13103 N 1244.15 -1.19644 -4.47481 0
M  V30 13104 C 1244.88 -1.59157 -5.50869 0
M  V30 13105 N 1244.38 -2.06232 -6.61393 0
M  V30 13106 N 1246.17 -1.50612 -5.41546 0
M  V30 13107 H 1238.32 -1.46675 -1.53624 0
M  V30 13108 H 1240.58 -0.608003 -0.727349 0
M  V30 13109 H 1240.29 -1.76964 -3.03935 0
M  V30 13110 H 1240.16 -0.178199 -3.76779 0
M  V30 13111 H 1242.55 0.352508 -2.92987 0
M  V30 13112 H 1242.63 -1.26716 -2.22209 0
M  V30 13113 H 1242.28 -2.27418 -4.5414 0
M  V30 13114 H 1242.21 -0.631765 -5.22797 0
M  V30 13115 H 1244.7 -0.851443 -3.68183 0
M  V30 13116 H 1245.01 -2.34469 -7.36372 0
M  V30 13117 H 1243.36 -2.10202 -6.6245 0
M  V30 13118 H 1246.55 -1.13659 -4.54092 0
M  V30 13119 H 1246.72 -1.8173 -6.21995 0
M  V30 13120 N 1240.13 1.55939 -0.228214 0
M  V30 13121 C 1241.37 1.9877 0.402272 0
M  V30 13122 C 1241.7 1.11587 1.5894 0
M  V30 13123 O 1240.98 0.175032 1.93711 0
M  V30 13124 C 1241.26 3.50396 0.830353 0
M  V30 13125 C 1241.12 4.4835 -0.360876 0
M  V30 13126 C 1242.43 4.06602 1.68413 0
M  V30 13127 H 1239.55 0.722646 0.144746 0
M  V30 13128 H 1242.2 1.87186 -0.325784 0
M  V30 13129 H 1240.35 3.60398 1.4507 0
M  V30 13130 H 1242.02 4.5035 -0.999113 0
M  V30 13131 H 1240.26 4.21946 -1.00719 0
M  V30 13132 H 1240.93 5.51997 -0.0183074 0
M  V30 13133 H 1243.41 3.99585 1.16064 0
M  V30 13134 H 1242.28 5.12998 1.95254 0
M  V30 13135 H 1242.54 3.53897 2.64971 0
M  V30 13136 N 1241.6 -0.0451101 1.57535 0
M  V30 13137 C 1242.83 -0.755068 1.93167 0
M  V30 13138 C 1243.25 -1.68949 0.826915 0
M  V30 13139 O 1242.61 -1.79978 -0.218534 0
M  V30 13140 C 1242.66 -1.50201 3.27829 0
M  V30 13141 O 1241.76 -2.61434 3.18945 0
M  V30 13142 H 1241.11 -0.204219 0.631815 0
M  V30 13143 H 1243.64 -0.00537504 2.04599 0
M  V30 13144 H 1243.65 -1.87547 3.6234 0
M  V30 13145 H 1242.32 -0.816591 4.07805 0
M  V30 13146 H 1240.9 -2.26749 2.96039 0
M  V30 13147 N 1243.08 -1.54377 -0.317073 0
M  V30 13148 C 1244.31 -1.77184 -1.07798 0
M  V30 13149 C 1244.73 -0.52204 -1.80711 0
M  V30 13150 O 1244.09 0.52672 -1.7348 0
M  V30 13151 C 1244.14 -2.96887 -2.04671 0
M  V30 13152 O 1243.24 -2.68887 -3.12688 0
M  V30 13153 H 1242.58 -0.586937 -0.310485 0
M  V30 13154 H 1245.11 -2.01419 -0.35939 0
M  V30 13155 H 1245.12 -3.24414 -2.47426 0
M  V30 13156 H 1243.8 -3.87518 -1.51005 0
M  V30 13157 H 1242.38 -2.52329 -2.74562 0
M  V30 13158 N 1244.56 0.579466 -1.4656 0
M  V30 13159 C 1245.84 1.33973 -1.42515 0
M  V30 13160 C 1246.22 2.10812 -0.110317 0
M  V30 13161 O 1245.57 2.09679 0.908135 0
M  V30 13162 C 1245.78 2.26301 -2.65686 0
M  V30 13163 C 1247.12 2.88027 -3.1197 0
M  V30 13164 O 1248.15 2.36612 -2.66257 0
M  V30 13165 O 1247.01 3.81423 -3.9138 0
M  V30 13166 H 1244.1 0.602121 -0.566903 0
M  V30 13167 H 1246.65 0.600214 -1.58731 0
M  V30 13168 H 1245.42 1.68973 -3.52936 0
M  V30 13169 H 1245.04 3.07586 -2.51945 0
M  V30 13170 N 1246.04 1.3432 0.824371 0
M  V30 13171 C 1246.97 1.2842 1.95014 0
M  V30 13172 C 1247.95 0.161925 1.69328 0
M  V30 13173 O 1249.13 0.354052 1.90945 0
M  V30 13174 C 1246.26 1.03741 3.31444 0
M  V30 13175 C 1245.22 2.12419 3.71567 0
M  V30 13176 C 1244.54 1.72931 5.05963 0
M  V30 13177 C 1245.84 3.54235 3.83817 0
M  V30 13178 H 1247.54 2.22614 2.00209 0
M  V30 13179 H 1245.08 1.07165 0.961856 0
M  V30 13180 H 1247.04 0.982586 4.09784 0
M  V30 13181 H 1245.76 0.0598892 3.26545 0
M  V30 13182 H 1244.42 2.16968 2.955 0
M  V30 13183 H 1244.07 0.738433 4.9755 0
M  V30 13184 H 1243.77 2.45668 5.3378 0
M  V30 13185 H 1245.29 1.68941 5.86763 0
M  V30 13186 H 1246.71 3.52106 4.52432 0
M  V30 13187 H 1245.1 4.25581 4.23085 0
M  V30 13188 H 1246.17 3.91682 2.85856 0
M  V30 13189 N 1247.52 -1.0444 1.18026 0
M  V30 13190 C 1248.74 -1.81772 0.998684 0
M  V30 13191 C 1249.17 -1.82682 -0.448225 0
M  V30 13192 O 1248.52 -1.24136 -1.32136 0
M  V30 13193 C 1248.57 -3.2542 1.55352 0
M  V30 13194 O 1247.68 -4.05103 0.772351 0
M  V30 13195 H 1247.02 -0.561731 0.354054 0
M  V30 13196 H 1249.55 -1.31557 1.56697 0
M  V30 13197 H 1249.56 -3.76206 1.57903 0
M  V30 13198 H 1248.23 -3.24073 2.60672 0
M  V30 13199 H 1246.81 -3.63798 0.818852 0
M  V30 13200 N 1248.99 -0.981699 -1.2329 0
M  V30 13201 C 1250.41 -0.690539 -1.43888 0
M  V30 13202 C 1250.61 0.742816 -1.87309 0
M  V30 13203 O 1249.67 1.5151 -2.01993 0
M  V30 13204 C 1250.98 -1.68657 -2.48948 0
M  V30 13205 C 1252.53 -1.70076 -2.62761 0
M  V30 13206 C 1253 -2.68513 -3.71032 0
M  V30 13207 N 1254.49 -2.67039 -3.78476 0
M  V30 13208 C 1255.23 -3.39874 -4.61815 0
M  V30 13209 N 1254.72 -4.22273 -5.49233 0
M  V30 13210 N 1256.52 -3.28633 -4.56023 0
M  V30 13211 H 1248.67 -1.90758 -0.934077 0
M  V30 13212 H 1250.93 -0.822058 -0.472149 0
M  V30 13213 H 1250.64 -2.7117 -2.23964 0
M  V30 13214 H 1250.51 -1.47045 -3.47358 0
M  V30 13215 H 1252.9 -0.682673 -2.87095 0
M  V30 13216 H 1252.98 -1.95754 -1.64663 0
M  V30 13217 H 1252.62 -3.70464 -3.47446 0
M  V30 13218 H 1252.55 -2.40109 -4.68674 0
M  V30 13219 H 1255.04 -2.07241 -3.16006 0
M  V30 13220 H 1255.36 -4.74702 -6.09818 0
M  V30 13221 H 1253.7 -4.26364 -5.48852 0
M  V30 13222 H 1256.89 -2.6371 -3.86749 0
M  V30 13223 H 1257.07 -3.85656 -5.20743 0
M  V30 13224 N 1250.47 1.3842 -0.753509 0
M  V30 13225 C 1251.72 1.99359 -0.306416 0
M  V30 13226 C 1252.03 1.60492 1.11811 0
M  V30 13227 O 1253.24 2.14401 1.66567 0
M  V30 13228 C 1251.7 3.56453 -0.496895 0
M  V30 13229 C 1251.3 4.04272 -1.9305 0
M  V30 13230 C 1253.05 4.24351 -0.11251 0
M  V30 13231 C 1250.96 5.54007 -2.06955 0
M  V30 13232 H 1249.89 0.745812 -0.110818 0
M  V30 13233 H 1252.54 1.58185 -0.930039 0
M  V30 13234 H 1250.92 3.95515 0.195912 0
M  V30 13235 H 1252.09 3.765 -2.65677 0
M  V30 13236 H 1250.41 3.49098 -2.26979 0
M  V30 13237 H 1253 5.34344 -0.195161 0
M  V30 13238 H 1253.35 4.05668 0.934849 0
M  V30 13239 H 1253.88 3.90528 -0.757168 0
M  V30 13240 H 1250.62 5.77594 -3.09944 0
M  V30 13241 H 1250.14 5.83522 -1.38788 0
M  V30 13242 H 1251.82 6.19704 -1.85945 0
M  V30 13243 N 1251.95 0.502579 1.49372 0
M  V30 13244 C 1252.88 -0.264307 2.31999 0
M  V30 13245 C 1253.86 -0.96107 1.40348 0
M  V30 13246 O 1255.05 -0.952167 1.69255 0
M  V30 13247 C 1252.18 -1.32822 3.20898 0
M  V30 13248 C 1251.13 -0.751236 4.21355 0
M  V30 13249 C 1250.46 -1.91578 4.99201 0
M  V30 13250 C 1251.76 0.258764 5.21659 0
M  V30 13251 H 1253.45 0.425391 2.96363 0
M  V30 13252 H 1251 0.206022 1.42519 0
M  V30 13253 H 1252.95 -1.87245 3.77515 0
M  V30 13254 H 1251.67 -2.04712 2.54481 0
M  V30 13255 H 1250.33 -0.228743 3.65886 0
M  V30 13256 H 1249.98 -2.62241 4.2923 0
M  V30 13257 H 1249.68 -1.53578 5.67175 0
M  V30 13258 H 1251.2 -2.46432 5.58663 0
M  V30 13259 H 1252.62 -0.197385 5.7296 0
M  V30 13260 H 1251.02 0.554681 5.97531 0
M  V30 13261 H 1252.09 1.1741 4.70471 0
M  V30 13262 N 1253.43 -1.55816 0.23648 0
M  V30 13263 C 1254.36 -2.18248 -0.700024 0
M  V30 13264 C 1255.37 -1.15579 -1.14654 0
M  V30 13265 O 1256.56 -1.42491 -1.07511 0
M  V30 13266 C 1253.66 -2.76338 -1.9619 0
M  V30 13267 C 1252.84 -4.04325 -1.66853 0
M  V30 13268 C 1251.89 -4.46834 -2.77895 0
M  V30 13269 O 1250.92 -5.13427 -2.45725 0
M  V30 13270 N 1252.12 -4.13753 -4.07171 0
M  V30 13271 H 1254.89 -2.99241 -0.16589 0
M  V30 13272 H 1252.45 -1.61803 0.0560383 0
M  V30 13273 H 1254.44 -3.01739 -2.69695 0
M  V30 13274 H 1253.01 -1.99563 -2.4061 0
M  V30 13275 H 1252.23 -3.86623 -0.769164 0
M  V30 13276 H 1253.52 -4.8779 -1.44703 0
M  V30 13277 H 1252.92 -3.60271 -4.36144 0
M  V30 13278 H 1251.47 -4.44014 -4.77174 0
M  V30 13279 N 1254.91 0.036755 -1.57557 0
M  V30 13280 C 1255.84 1.03939 -2.09091 0
M  V30 13281 C 1256.82 1.38196 -0.991761 0
M  V30 13282 O 1258 1.47214 -1.26656 0
M  V30 13283 C 1255.13 2.34263 -2.56394 0
M  V30 13284 C 1254.09 2.14269 -3.70504 0
M  V30 13285 C 1253.41 3.50286 -4.03985 0
M  V30 13286 C 1254.71 1.53514 -4.9923 0
M  V30 13287 H 1256.41 0.610429 -2.93111 0
M  V30 13288 H 1253.95 0.292183 -1.41005 0
M  V30 13289 H 1255.91 3.04727 -2.91066 0
M  V30 13290 H 1254.63 2.79205 -1.69447 0
M  V30 13291 H 1253.29 1.46239 -3.36169 0
M  V30 13292 H 1252.94 3.92861 -3.14116 0
M  V30 13293 H 1252.64 3.37735 -4.80842 0
M  V30 13294 H 1254.16 4.22124 -4.41184 0
M  V30 13295 H 1255.57 2.13885 -5.31908 0
M  V30 13296 H 1253.97 1.51561 -5.80646 0
M  V30 13297 H 1255.04 0.500126 -4.82314 0
M  V30 13298 N 1256.39 1.54543 0.308881 0
M  V30 13299 C 1257.32 1.87947 1.38557 0
M  V30 13300 C 1258.3 0.737622 1.53275 0
M  V30 13301 O 1259.48 0.992664 1.66913 0
M  V30 13302 C 1256.61 2.11982 2.75102 0
M  V30 13303 C 1255.57 3.2783 2.75158 0
M  V30 13304 C 1254.89 3.37266 4.14917 0
M  V30 13305 C 1256.19 4.65129 2.37598 0
M  V30 13306 H 1257.89 2.78123 1.1085 0
M  V30 13307 H 1255.43 1.3382 0.531808 0
M  V30 13308 H 1257.38 2.33935 3.50503 0
M  V30 13309 H 1256.11 1.18569 3.04317 0
M  V30 13310 H 1254.77 3.05787 2.02212 0
M  V30 13311 H 1254.42 2.41384 4.41296 0
M  V30 13312 H 1254.12 4.15135 4.15857 0
M  V30 13313 H 1255.64 3.61471 4.92109 0
M  V30 13314 H 1257.05 4.86865 3.02714 0
M  V30 13315 H 1255.45 5.45653 2.49765 0
M  V30 13316 H 1256.52 4.6638 1.32731 0
M  V30 13317 N 1257.86 -0.571685 1.46866 0
M  V30 13318 C 1258.8 -1.69475 1.54307 0
M  V30 13319 C 1259.81 -1.57006 0.430449 0
M  V30 13320 O 1261 -1.64229 0.69936 0
M  V30 13321 C 1258.1 -3.07824 1.41766 0
M  V30 13322 C 1257.27 -3.46189 2.67342 0
M  V30 13323 C 1256.33 -4.63642 2.48843 0
M  V30 13324 O 1255.36 -4.68949 3.22608 0
M  V30 13325 N 1256.56 -5.59223 1.55724 0
M  V30 13326 H 1259.32 -1.63543 2.51145 0
M  V30 13327 H 1256.88 -0.757957 1.43062 0
M  V30 13328 H 1258.88 -3.84208 1.27146 0
M  V30 13329 H 1257.45 -3.08063 0.530667 0
M  V30 13330 H 1256.67 -2.59399 2.96826 0
M  V30 13331 H 1257.95 -3.68591 3.50739 0
M  V30 13332 H 1257.35 -5.5768 0.949175 0
M  V30 13333 H 1255.91 -6.34993 1.47063 0
M  V30 13334 N 1259.34 -1.34755 -0.817236 0
M  V30 13335 C 1260.29 -1.26801 -1.92848 0
M  V30 13336 C 1261.26 -0.142077 -1.65491 0
M  V30 13337 O 1262.44 -0.324006 -1.88029 0
M  V30 13338 C 1259.58 -1.03513 -3.2921 0
M  V30 13339 C 1258.7 -2.24932 -3.68822 0
M  V30 13340 C 1257.83 -1.94881 -4.94161 0
M  V30 13341 C 1256.87 -3.12411 -5.2637 0
M  V30 13342 N 1256.01 -2.82207 -6.42887 0
M  V30 13343 H 1260.85 -2.21832 -1.98983 0
M  V30 13344 H 1258.38 -1.10284 -0.973439 0
M  V30 13345 H 1260.34 -0.88047 -4.07803 0
M  V30 13346 H 1258.97 -0.121478 -3.22571 0
M  V30 13347 H 1258.02 -2.51299 -2.85575 0
M  V30 13348 H 1259.34 -3.12726 -3.88592 0
M  V30 13349 H 1258.49 -1.76184 -5.80555 0
M  V30 13350 H 1257.23 -1.04355 -4.76405 0
M  V30 13351 H 1256.23 -3.31698 -4.3847 0
M  V30 13352 H 1257.46 -4.03724 -5.46062 0
M  V30 13353 H 1255.41 -1.94263 -6.26576 0
M  V30 13354 H 1255.32 -3.63534 -6.62857 0
M  V30 13355 H 1256.59 -2.67026 -7.32337 0
M  V30 13356 N 1260.82 1.03812 -1.18578 0
M  V30 13357 C 1262.23 1.58509 -0.986496 0
M  V30 13358 C 1262.58 1.90655 0.463136 0
M  V30 13359 O 1261.71 1.69847 1.34093 0
M  V30 13360 C 1262.3 2.88 -1.78441 0
M  V30 13361 C 1260.86 3.39304 -1.6294 0
M  V30 13362 C 1260.01 2.12857 -1.77727 0
M  V30 13363 H 1262.96 0.864528 -1.33085 0
M  V30 13364 H 1262.98 3.58502 -1.27501 0
M  V30 13365 H 1262.49 2.64572 -2.83942 0
M  V30 13366 H 1260.59 3.6774 -0.599864 0
M  V30 13367 H 1260.71 4.12959 -2.42902 0
M  V30 13368 H 1259.07 2.24285 -1.20699 0
M  V30 13369 H 1259.85 1.91882 -2.84669 0
M  V30 13370 N 1262.3 0.988223 1.22768 0
M  V30 13371 C 1263.23 0.47962 2.23103 0
M  V30 13372 C 1264.21 -0.457546 1.5603 0
M  V30 13373 O 1265.39 -0.384178 1.84544 0
M  V30 13374 C 1262.52 -0.305248 3.37322 0
M  V30 13375 C 1261.57 0.577215 4.22576 0
M  V30 13376 S 1262.4 2.02974 4.95542 0
M  V30 13377 C 1263.55 1.25423 6.13205 0
M  V30 13378 H 1263.79 1.32985 2.65899 0
M  V30 13379 H 1261.32 0.794824 1.3237 0
M  V30 13380 H 1263.28 -0.752057 4.03552 0
M  V30 13381 H 1261.94 -1.1307 2.93043 0
M  V30 13382 H 1261.13 -0.0264391 5.03993 0
M  V30 13383 H 1260.73 0.960593 3.61453 0
M  V30 13384 H 1263.03 0.519499 6.75505 0
M  V30 13385 H 1263.97 2.04351 6.77972 0
M  V30 13386 H 1264.38 0.769573 5.5923 0
M  V30 13387 N 1263.78 -1.38018 0.760839 0
M  V30 13388 C 1265.19 -1.82645 0.387022 0
M  V30 13389 C 1265.54 -1.63445 -1.08536 0
M  V30 13390 O 1264.66 -1.13958 -1.83963 0
M  V30 13391 C 1265.26 -3.3158 0.69569 0
M  V30 13392 C 1263.82 -3.74527 0.375063 0
M  V30 13393 C 1262.96 -2.60696 0.94515 0
M  V30 13394 H 1265.91 -1.26644 0.956396 0
M  V30 13395 H 1265.94 -3.80493 -0.0235511 0
M  V30 13396 H 1265.45 -3.45522 1.76737 0
M  V30 13397 H 1263.55 -3.6616 -0.689741 0
M  V30 13398 H 1263.66 -4.71029 0.875685 0
M  V30 13399 H 1262.03 -2.51997 0.370065 0
M  V30 13400 H 1262.81 -2.77434 2.02201 0
M  V30 13401 N 1265.25 -0.510493 -1.49103 0
M  V30 13402 C 1266.19 0.299697 -2.27232 0
M  V30 13403 C 1267.2 0.922102 -1.34168 0
M  V30 13404 O 1268.39 0.803836 -1.59376 0
M  V30 13405 C 1265.49 1.43778 -3.06889 0
M  V30 13406 C 1264.66 0.920927 -4.27595 0
M  V30 13407 C 1263.72 1.93777 -4.89221 0
M  V30 13408 O 1262.75 1.5025 -5.49011 0
M  V30 13409 N 1263.95 3.2688 -4.79718 0
M  V30 13410 H 1266.71 -0.37028 -2.97404 0
M  V30 13411 H 1264.27 -0.343617 -1.58212 0
M  V30 13412 H 1266.27 2.11577 -3.44988 0
M  V30 13413 H 1264.84 2.01175 -2.39264 0
M  V30 13414 H 1264.06 0.0675358 -3.94142 0
M  V30 13415 H 1265.34 0.554168 -5.05773 0
M  V30 13416 H 1264.74 3.64924 -4.32258 0
M  V30 13417 H 1263.3 3.90366 -5.21974 0
M  V30 13418 N 1266.73 1.55688 -0.24474 0
M  V30 13419 C 1267.98 1.98498 0.379852 0
M  V30 13420 C 1268.3 1.13416 1.58625 0
M  V30 13421 O 1267.57 0.216456 1.947 0
M  V30 13422 H 1266.15 0.73312 0.143334 0
M  V30 13423 H 1268.81 1.91858 -0.343027 0
M  V30 13424 H 1267.91 3.04367 0.690463 0
M  V30 13425 N 1268.21 -0.0283989 1.57574 0
M  V30 13426 C 1269.16 -1.03669 2.03069 0
M  V30 13427 C 1270.14 -1.31994 0.920129 0
M  V30 13428 O 1271.34 -1.31568 1.18402 0
M  V30 13429 C 1268.46 -2.3376 2.51418 0
M  V30 13430 C 1267.55 -2.08522 3.69296 0
M  V30 13431 N 1267.94 -1.53345 4.81995 0
M  V30 13432 C 1266.24 -2.38803 3.76682 0
M  V30 13433 C 1266.94 -1.43926 5.63613 0
M  V30 13434 N 1265.92 -1.91507 5.0875 0
M  V30 13435 H 1269.72 -0.604097 2.87625 0
M  V30 13436 H 1267.23 -0.234689 1.60695 0
M  V30 13437 H 1269.23 -3.06804 2.82271 0
M  V30 13438 H 1267.89 -2.77698 1.68268 0
M  V30 13439 H 1268.9 -1.21607 5.0342 0
M  V30 13440 H 1265.58 -2.8581 3.04333 0
M  V30 13441 H 1266.97 -1.0175 6.64151 0
M  V30 13442 N 1269.69 -1.54705 -0.300681 0
M  V30 13443 C 1270.65 -1.84934 -1.35395 0
M  V30 13444 C 1271.65 -0.72226 -1.43666 0
M  V30 13445 O 1272.84 -0.990543 -1.43296 0
M  V30 13446 C 1269.97 -2.02991 -2.73875 0
M  V30 13447 H 1271.17 -2.79063 -1.09835 0
M  V30 13448 H 1268.72 -1.46772 -0.537365 0
M  V30 13449 H 1269.45 -1.11151 -3.04657 0
M  V30 13450 H 1269.24 -2.85027 -2.69262 0
M  V30 13451 H 1270.73 -2.27747 -3.5003 0
M  V30 13452 N 1271.17 0.563888 -1.47167 0
M  V30 13453 C 1272.39 1.35176 -1.57297 0
M  V30 13454 C 1272.82 1.86794 -0.221235 0
M  V30 13455 O 1272.17 1.62606 0.801809 0
M  V30 13456 C 1272.22 2.50225 -2.59654 0
M  V30 13457 O 1271.33 3.5225 -2.14461 0
M  V30 13458 H 1270.67 0.401795 -0.528637 0
M  V30 13459 H 1273.2 0.682137 -1.92894 0
M  V30 13460 H 1273.21 2.96886 -2.79862 0
M  V30 13461 H 1271.88 2.1201 -3.57805 0
M  V30 13462 H 1270.46 3.1194 -2.04323 0
M  V30 13463 N 1272.64 1.35187 0.810078 0
M  V30 13464 C 1273.87 1.31181 1.59609 0
M  V30 13465 C 1274.28 -0.113556 1.88859 0
M  V30 13466 O 1273.63 -1.07491 1.48968 0
M  V30 13467 C 1273.69 2.04749 2.95496 0
M  V30 13468 C 1273.35 3.53952 2.89079 0
M  V30 13469 C 1274.35 4.48612 2.6276 0
M  V30 13470 C 1272.03 3.96551 3.08306 0
M  V30 13471 C 1274.03 5.83846 2.5574 0
M  V30 13472 C 1271.71 5.31881 3.00909 0
M  V30 13473 C 1272.71 6.2534 2.74661 0
M  V30 13474 O 1272.4 7.58188 2.6722 0
M  V30 13475 H 1272.13 0.452285 0.502408 0
M  V30 13476 H 1274.69 1.78571 1.01497 0
M  V30 13477 H 1272.92 1.51992 3.55577 0
M  V30 13478 H 1274.61 1.93866 3.5661 0
M  V30 13479 H 1275.37 4.1702 2.47628 0
M  V30 13480 H 1271.25 3.24194 3.27749 0
M  V30 13481 H 1274.79 6.56765 2.35172 0
M  V30 13482 H 1270.69 5.63088 3.15598 0
M  V30 13483 H 1271.46 7.68073 2.82853 0
M  V30 13484 N 1274.12 -1.03182 1.19127 0
M  V30 13485 C 1275.37 -1.75934 0.986415 0
M  V30 13486 C 1275.68 -1.89519 -0.48392 0
M  V30 13487 O 1276.89 -2.59213 -0.80752 0
M  V30 13488 C 1275.35 -3.16358 1.71597 0
M  V30 13489 C 1274.95 -3.10836 3.22622 0
M  V30 13490 C 1276.7 -3.93426 1.59425 0
M  V30 13491 C 1274.61 -4.46174 3.88179 0
M  V30 13492 H 1273.54 -0.659516 0.365451 0
M  V30 13493 H 1276.19 -1.15497 1.42593 0
M  V30 13494 H 1274.57 -3.77245 1.20426 0
M  V30 13495 H 1275.74 -2.59348 3.80887 0
M  V30 13496 H 1274.06 -2.47266 3.35035 0
M  V30 13497 H 1276.65 -4.93526 2.05757 0
M  V30 13498 H 1277 -4.12678 0.547926 0
M  V30 13499 H 1277.53 -3.39134 2.07925 0
M  V30 13500 H 1274.27 -4.32126 4.92897 0
M  V30 13501 H 1273.79 -4.97729 3.34702 0
M  V30 13502 H 1275.47 -5.15066 3.91556 0
M  V30 13503 N 1275.6 -0.99472 -1.22242 0
M  V30 13504 C 1276.53 -0.566499 -2.26524 0
M  V30 13505 C 1277.51 0.407541 -1.65146 0
M  V30 13506 O 1278.7 0.297777 -1.91903 0
M  V30 13507 C 1275.83 0.11786 -3.471 0
M  V30 13508 C 1274.78 -0.774908 -4.20927 0
M  V30 13509 C 1274.11 0.0424687 -5.34683 0
M  V30 13510 C 1275.41 -2.07263 -4.79416 0
M  V30 13511 H 1277.1 -1.43818 -2.62596 0
M  V30 13512 H 1274.65 -0.692971 -1.2623 0
M  V30 13513 H 1276.6 0.428842 -4.19212 0
M  V30 13514 H 1275.32 1.0241 -3.10129 0
M  V30 13515 H 1273.98 -1.06956 -3.50651 0
M  V30 13516 H 1273.63 0.949677 -4.93954 0
M  V30 13517 H 1273.33 -0.551867 -5.85003 0
M  V30 13518 H 1274.85 0.347504 -6.0961 0
M  V30 13519 H 1276.27 -1.82548 -5.4346 0
M  V30 13520 H 1274.67 -2.61594 -5.40082 0
M  V30 13521 H 1275.74 -2.75017 -3.99366 0
M  V30 13522 N 1277.08 1.37613 -0.768148 0
M  V30 13523 C 1277.99 2.34103 -0.152649 0
M  V30 13524 C 1279 1.6 0.683811 0
M  V30 13525 O 1280.18 1.92112 0.604572 0
M  V30 13526 C 1277.25 3.39164 0.718954 0
M  V30 13527 C 1276.31 4.29092 -0.13355 0
M  V30 13528 C 1275.54 5.29135 0.696547 0
M  V30 13529 O 1275.76 5.36618 1.93383 0
M  V30 13530 O 1274.7 6.01804 0.107652 0
M  V30 13531 H 1278.52 2.88462 -0.949899 0
M  V30 13532 H 1276.11 1.39711 -0.529252 0
M  V30 13533 H 1277.99 4.03454 1.21665 0
M  V30 13534 H 1276.66 2.87137 1.49445 0
M  V30 13535 H 1275.57 3.67914 -0.677528 0
M  V30 13536 H 1276.9 4.84413 -0.872048 0
M  V30 13537 N 1278.56 0.518393 1.4883 0
M  V30 13538 C 1279.52 -0.23983 2.27942 0
M  V30 13539 C 1280.52 -0.878302 1.34694 0
M  V30 13540 O 1281.71 -0.740142 1.57694 0
M  V30 13541 C 1278.84 -1.34581 3.1321 0
M  V30 13542 H 1280.03 0.454599 2.96434 0
M  V30 13543 H 1277.59 0.273932 1.53881 0
M  V30 13544 H 1278.32 -2.07385 2.49323 0
M  V30 13545 H 1278.11 -0.893251 3.8179 0
M  V30 13546 H 1279.6 -1.87944 3.72917 0
M  V30 13547 N 1280.03 -1.55556 0.252993 0
M  V30 13548 C 1281.45 -1.85032 -0.249011 0
M  V30 13549 C 1281.8 -1.17488 -1.57134 0
M  V30 13550 O 1280.92 -0.455387 -2.11554 0
M  V30 13551 C 1281.52 -3.35682 -0.458589 0
M  V30 13552 C 1280.08 -3.65362 -0.90485 0
M  V30 13553 C 1279.22 -2.77296 0.0144927 0
M  V30 13554 H 1282.17 -1.51412 0.475394 0
M  V30 13555 H 1282.19 -3.57591 -1.30034 0
M  V30 13556 H 1281.71 -3.84814 0.503981 0
M  V30 13557 H 1279.81 -3.21713 -1.87967 0
M  V30 13558 H 1279.92 -4.73074 -0.757492 0
M  V30 13559 H 1278.28 -2.49785 -0.497954 0
M  V30 13560 H 1279.07 -3.29236 0.972546 0
M  V30 13561 N 1281.51 0.0200419 -1.57587 0
M  V30 13562 C 1282.48 1.00255 -2.06111 0
M  V30 13563 C 1283.48 1.28488 -0.966829 0
M  V30 13564 O 1284.67 1.2334 -1.23015 0
M  V30 13565 C 1281.8 2.33296 -2.48567 0
M  V30 13566 H 1282.99 0.583216 -2.94174 0
M  V30 13567 H 1280.54 0.267077 -1.54001 0
M  V30 13568 H 1281.28 2.79959 -1.63687 0
M  V30 13569 H 1281.06 2.14131 -3.28467 0
M  V30 13570 H 1282.55 3.03817 -2.86505 0
M  V30 13571 N 1282.99 1.54862 0.292472 0
M  V30 13572 C 1284.22 1.78877 1.04966 0
M  V30 13573 C 1284.64 0.550724 1.79857 0
M  V30 13574 O 1284 -0.499054 1.74296 0
M  V30 13575 C 1284.05 3.00106 1.99922 0
M  V30 13576 O 1283.15 2.73827 3.0837 0
M  V30 13577 H 1282.49 0.591802 0.301108 0
M  V30 13578 H 1285.02 2.01965 0.3273 0
M  V30 13579 H 1285.03 3.28309 2.42233 0
M  V30 13580 H 1283.71 3.89872 1.44821 0
M  V30 13581 H 1282.28 2.56665 2.70513 0
M  V30 13582 N 1284.47 -0.556076 1.47464 0
M  V30 13583 C 1285.42 -1.68406 1.60444 0
M  V30 13584 C 1286.41 -1.627 0.471713 0
M  V30 13585 O 1287.62 -1.67871 0.649551 0
M  V30 13586 H 1283.99 -0.557255 0.504946 0
M  V30 13587 H 1285.96 -1.54595 2.55231 0
M  V30 13588 C 1284.71 -3.06756 1.63695 0
M  V30 13589 H 1284.03 -3.11829 2.50206 0
M  V30 13590 H 1285.47 -3.85368 1.76827 0
M  V30 13591 C 1283.93 -3.34857 0.370485 0
M  V30 13592 O 1284.46 -3.98216 -0.527942 0
M  V30 13593 N 1282.67 -2.89521 0.250163 0
M  V30 13594 H 1282.22 -2.3814 0.982204 0
M  V30 13595 H 1282.17 -3.08694 -0.596268 0
M  V30 13596 N 1285.95 -1.35615 -0.802897 0
M  V30 13597 C 1287.22 -1.19655 -1.54732 0
M  V30 13598 C 1287.6 0.222827 -2.09921 0
M  V30 13599 O 1286.95 1.2268 -1.92774 0
M  V30 13600 C 1287.16 -2.26761 -2.65293 0
M  V30 13601 C 1288.51 -2.62754 -3.33535 0
M  V30 13602 O 1289.53 -2.25702 -2.75567 0
M  V30 13603 O 1288.39 -3.26476 -4.38264 0
M  V30 13604 H 1285.49 -0.465079 -0.683835 0
M  V30 13605 H 1288.03 -1.47307 -0.84254 0
M  V30 13606 H 1286.81 -3.21946 -2.22411 0
M  V30 13607 H 1286.43 -2.00399 -3.43404 0
M  V30 13608 N 1287.43 1.02549 -1.19673 0
M  V30 13609 C 1288.36 2.12794 -0.961289 0
M  V30 13610 C 1289.34 1.69766 0.106575 0
M  V30 13611 O 1290.52 1.94138 -0.0491358 0
M  V30 13612 C 1287.65 3.4364 -0.502868 0
M  V30 13613 C 1286.61 4.00367 -1.51296 0
M  V30 13614 C 1285.93 5.26874 -0.911491 0
M  V30 13615 C 1287.23 4.34782 -2.89416 0
M  V30 13616 H 1288.93 2.32748 -1.88331 0
M  V30 13617 H 1286.47 1.11852 -0.906922 0
M  V30 13618 H 1288.42 4.20141 -0.325436 0
M  V30 13619 H 1287.15 3.23418 0.454764 0
M  V30 13620 H 1285.81 3.25964 -1.67759 0
M  V30 13621 H 1285.46 5.02971 0.0537982 0
M  V30 13622 H 1285.16 5.65791 -1.58602 0
M  V30 13623 H 1286.68 6.06039 -0.74493 0
M  V30 13624 H 1288.09 5.02207 -2.76516 0
M  V30 13625 H 1286.49 4.8479 -3.53693 0
M  V30 13626 H 1287.56 3.43935 -3.41814 0
M  V30 13627 N 1288.9 1.00119 1.21713 0
M  V30 13628 C 1289.87 0.563409 2.22167 0
M  V30 13629 C 1290.87 -0.35819 1.5676 0
M  V30 13630 O 1292.06 -0.149001 1.73562 0
M  V30 13631 C 1289.19 -0.179365 3.40428 0
M  V30 13632 H 1290.38 1.45189 2.62412 0
M  V30 13633 H 1287.93 0.789286 1.34907 0
M  V30 13634 H 1288.67 -1.08345 3.05666 0
M  V30 13635 H 1288.45 0.482471 3.8912 0
M  V30 13636 H 1289.94 -0.473537 4.14906 0
M  V30 13637 N 1290.38 -1.37203 0.775435 0
M  V30 13638 C 1291.31 -2.32819 0.17826 0
M  V30 13639 C 1292.29 -1.55963 -0.678944 0
M  V30 13640 O 1293.48 -1.84183 -0.615648 0
M  V30 13641 C 1290.61 -3.40198 -0.698768 0
M  V30 13642 C 1289.56 -4.27961 0.057423 0
M  V30 13643 C 1288.89 -5.26385 -0.93929 0
M  V30 13644 C 1290.19 -5.07402 1.23856 0
M  V30 13645 H 1291.88 -2.8301 0.977028 0
M  V30 13646 H 1289.43 -1.3607 0.471274 0
M  V30 13647 H 1291.38 -4.06067 -1.12637 0
M  V30 13648 H 1290.1 -2.88541 -1.53009 0
M  V30 13649 H 1288.76 -3.63628 0.465848 0
M  V30 13650 H 1288.41 -4.71007 -1.76527 0
M  V30 13651 H 1288.11 -5.85966 -0.437844 0
M  V30 13652 H 1289.64 -5.9513 -1.36576 0
M  V30 13653 H 1291.05 -5.6639 0.887423 0
M  V30 13654 H 1289.45 -5.76327 1.67234 0
M  V30 13655 H 1290.52 -4.3986 2.04085 0
M  V30 13656 N 1291.86 -0.526279 -1.48553 0
M  V30 13657 C 1293.11 0.00918008 -2.02798 0
M  V30 13658 C 1293.44 1.34284 -1.4029 0
M  V30 13659 O 1292.71 1.86639 -0.547355 0
M  V30 13660 C 1293 0.135102 -3.59846 0
M  V30 13661 C 1292.85 -1.22347 -4.32841 0
M  V30 13662 C 1294.17 0.863673 -4.31542 0
M  V30 13663 H 1291.29 0.00186216 -0.736998 0
M  V30 13664 H 1293.93 -0.682591 -1.77315 0
M  V30 13665 H 1292.08 0.724279 -3.81689 0
M  V30 13666 H 1293.75 -1.85347 -4.22427 0
M  V30 13667 H 1291.99 -1.80631 -3.94405 0
M  V30 13668 H 1292.67 -1.08839 -5.41164 0
M  V30 13669 H 1295.14 0.363734 -4.14507 0
M  V30 13670 H 1294.02 0.92067 -5.41124 0
M  V30 13671 H 1294.28 1.91313 -3.98562 0
M  V30 13672 N 1293.34 1.5542 -0.261239 0
M  V30 13673 C 1294.75 1.85161 0.239195 0
M  V30 13674 C 1295.1 1.18319 1.56509 0
M  V30 13675 O 1294.22 0.4666 2.1131 0
M  V30 13676 C 1294.82 3.3592 0.440781 0
M  V30 13677 C 1293.38 3.65837 0.885461 0
M  V30 13678 C 1292.53 2.77285 -0.0291982 0
M  V30 13679 H 1295.48 1.51158 -0.483417 0
M  V30 13680 H 1295.5 3.58276 1.28136 0
M  V30 13681 H 1295.01 3.84541 -0.524382 0
M  V30 13682 H 1293.11 3.22705 1.86259 0
M  V30 13683 H 1293.22 4.73469 0.732394 0
M  V30 13684 H 1291.59 2.50045 0.484701 0
M  V30 13685 H 1292.37 3.28716 -0.989992 0
M  V30 13686 N 1294.82 -0.0116844 1.57596 0
M  V30 13687 C 1296.06 -0.698089 1.89234 0
M  V30 13688 C 1296.38 -1.75581 0.862016 0
M  V30 13689 O 1297.58 -2.49602 1.06822 0
M  V30 13690 C 1296.04 -1.29277 3.3588 0
M  V30 13691 C 1295.65 -0.27049 4.47183 0
M  V30 13692 C 1297.39 -1.95805 3.76644 0
M  V30 13693 C 1295.3 -0.874502 5.84899 0
M  V30 13694 H 1294.23 -0.264495 0.706087 0
M  V30 13695 H 1296.88 0.0469451 1.8344 0
M  V30 13696 H 1295.26 -2.08809 3.36474 0
M  V30 13697 H 1296.44 0.499381 4.58086 0
M  V30 13698 H 1294.75 0.293676 4.15363 0
M  V30 13699 H 1297.35 -2.41879 4.76863 0
M  V30 13700 H 1297.69 -2.78366 3.09545 0
M  V30 13701 H 1298.22 -1.23023 3.78299 0
M  V30 13702 H 1294.96 -0.0879263 6.55441 0
M  V30 13703 H 1294.48 -1.61381 5.77682 0
M  V30 13704 H 1296.16 -1.37665 6.32185 0
M  V30 13705 N 1296.29 -1.55015 -0.284256 0
M  V30 13706 C 1297.26 -1.8636 -1.33426 0
M  V30 13707 C 1298.26 -0.737457 -1.42892 0
M  V30 13708 O 1299.45 -1.00569 -1.42238 0
M  V30 13709 C 1296.58 -2.05884 -2.71707 0
M  V30 13710 H 1297.77 -2.80212 -1.06869 0
M  V30 13711 H 1295.32 -1.47334 -0.521767 0
M  V30 13712 H 1296.06 -1.14376 -3.03461 0
M  V30 13713 H 1295.84 -2.87867 -2.66224 0
M  V30 13714 H 1297.33 -2.31447 -3.47595 0
M  V30 13715 N 1297.77 0.548248 -1.47757 0
M  V30 13716 C 1299 1.335 -1.58722 0
M  V30 13717 C 1299.42 1.86549 -0.241034 0
M  V30 13718 O 1298.78 1.63447 0.784517 0
M  V30 13719 C 1298.83 2.47457 -2.62293 0
M  V30 13720 O 1297.93 3.49956 -2.18185 0
M  V30 13721 H 1297.27 0.396166 -0.532868 0
M  V30 13722 H 1299.8 0.66164 -1.93607 0
M  V30 13723 H 1299.81 2.93901 -2.82995 0
M  V30 13724 H 1298.49 2.08203 -3.60034 0
M  V30 13725 H 1297.06 3.09755 -2.0762 0
M  V30 13726 N 1299.25 1.36039 0.795694 0
M  V30 13727 C 1300.16 1.31991 1.93948 0
M  V30 13728 C 1301.18 0.223064 1.72564 0
M  V30 13729 O 1302.35 0.454344 1.96208 0
M  V30 13730 C 1299.42 1.10228 3.28711 0
M  V30 13731 C 1298.48 2.29328 3.62914 0
M  V30 13732 C 1297.71 2.08595 4.91247 0
M  V30 13733 O 1297.93 1.05793 5.60503 0
M  V30 13734 O 1296.87 2.96222 5.23962 0
M  V30 13735 H 1300.69 2.28274 2.00311 0
M  V30 13736 H 1298.28 1.16521 0.935048 0
M  V30 13737 H 1300.16 0.999842 4.09367 0
M  V30 13738 H 1298.84 0.17003 3.23253 0
M  V30 13739 H 1297.74 2.4514 2.8259 0
M  V30 13740 H 1299.08 3.21038 3.73089 0
M  V30 13741 N 1300.73 -1.01913 1.20215 0
M  V30 13742 C 1301.96 -1.79076 1.03631 0
M  V30 13743 C 1302.37 -1.84192 -0.414583 0
M  V30 13744 O 1301.73 -1.29306 -1.28788 0
M  V30 13745 C 1301.78 -3.23665 1.61008 0
M  V30 13746 O 1301.5 -3.18873 3.00419 0
M  V30 13747 C 1303 -4.17387 1.49342 0
M  V30 13748 H 1300.22 -0.563241 0.364692 0
M  V30 13749 H 1302.77 -1.283 1.59246 0
M  V30 13750 H 1300.92 -3.71597 1.09518 0
M  V30 13751 H 1301.33 -4.09609 3.27598 0
M  V30 13752 H 1302.81 -5.16691 1.94253 0
M  V30 13753 H 1303.29 -4.36935 0.445493 0
M  V30 13754 H 1303.89 -3.75335 2.0001 0
M  V30 13755 N 1302.21 -1.00763 -1.2118 0
M  V30 13756 C 1303.43 -0.710746 -1.94309 0
M  V30 13757 C 1303.85 0.727103 -1.74237 0
M  V30 13758 O 1303.21 1.49223 -1.05065 0
M  V30 13759 C 1303.26 -1.02562 -3.46646 0
M  V30 13760 O 1302.98 -2.40699 -3.66054 0
M  V30 13761 C 1304.48 -0.748517 -4.36935 0
M  V30 13762 H 1301.7 -0.26171 -0.617858 0
M  V30 13763 H 1304.24 -1.34639 -1.53924 0
M  V30 13764 H 1302.4 -0.435537 -3.84944 0
M  V30 13765 H 1302.81 -2.51764 -4.60125 0
M  V30 13766 H 1304.29 -1.01899 -5.42513 0
M  V30 13767 H 1304.76 0.317423 -4.38051 0
M  V30 13768 H 1305.37 -1.32033 -4.04286 0
M  V30 13769 N 1303.68 1.3679 -0.7827 0
M  V30 13770 C 1304.91 2.04206 -0.362571 0
M  V30 13771 C 1305.33 1.58637 1.01074 0
M  V30 13772 O 1304.69 0.751692 1.64983 0
M  V30 13773 C 1304.74 3.58062 -0.4271 0
M  V30 13774 O 1303.84 4.08463 0.56845 0
M  V30 13775 H 1303.19 0.645638 -0.155073 0
M  V30 13776 H 1305.72 1.74883 -1.06194 0
M  V30 13777 H 1305.73 4.0698 -0.288298 0
M  V30 13778 H 1304.4 3.90582 -1.42893 0
M  V30 13779 H 1302.98 3.70835 0.391863 0
M  V30 13780 N 1305.16 0.53415 1.48272 0
M  V30 13781 C 1306.57 0.0947592 1.86459 0
M  V30 13782 C 1306.92 -1.32906 1.44328 0
M  V30 13783 O 1306.05 -1.99605 0.835866 0
M  V30 13784 C 1306.64 0.16519 3.38397 0
M  V30 13785 C 1305.2 -0.219029 3.75762 0
M  V30 13786 C 1304.35 0.523097 2.72321 0
M  V30 13787 H 1307.3 0.74517 1.40117 0
M  V30 13788 H 1307.32 -0.622065 3.75381 0
M  V30 13789 H 1306.83 1.20157 3.69031 0
M  V30 13790 H 1304.94 -1.2574 3.50742 0
M  V30 13791 H 1305.05 0.123482 4.78941 0
M  V30 13792 H 1303.41 -0.0311323 2.54681 0
M  V30 13793 H 1304.2 1.56019 3.05799 0
M  V30 13794 N 1306.64 -1.55279 0.269478 0
M  V30 13795 C 1307.89 -1.99077 -0.348224 0
M  V30 13796 C 1308.21 -1.15925 -1.568 0
M  V30 13797 O 1307.48 -0.247404 -1.94331 0
M  V30 13798 H 1306.06 -0.735307 -0.131653 0
M  V30 13799 H 1308.72 -1.91288 0.373506 0
M  V30 13800 H 1307.82 -3.05427 -0.641953 0
M  V30 13801 N 1308.12 0.00332656 -1.576 0
M  V30 13802 C 1309.53 0.546581 -1.7852 0
M  V30 13803 C 1309.88 1.74147 -0.903722 0
M  V30 13804 O 1309.01 2.16144 -0.105314 0
M  V30 13805 C 1309.6 0.998344 -3.23757 0
M  V30 13806 C 1308.16 1.48693 -3.45785 0
M  V30 13807 C 1307.31 0.436617 -2.73841 0
M  V30 13808 H 1310.26 -0.222852 -1.57128 0
M  V30 13809 H 1310.28 1.86452 -3.31686 0
M  V30 13810 H 1309.79 0.128479 -3.87887 0
M  V30 13811 H 1307.89 2.3778 -2.86865 0
M  V30 13812 H 1308 1.51668 -4.5446 0
M  V30 13813 H 1306.37 0.897506 -2.38363 0
M  V30 13814 H 1307.15 -0.424225 -3.40669 0
M  V30 13815 N 1309.6 1.55164 0.276031 0
M  V30 13816 C 1311.01 1.46936 0.623061 0
M  V30 13817 C 1311.21 0.680977 1.89644 0
M  V30 13818 O 1310.27 0.198618 2.51718 0
M  V30 13819 C 1311.58 2.91123 0.752839 0
M  V30 13820 C 1313.13 3.01319 0.847093 0
M  V30 13821 C 1313.6 4.46755 1.00867 0
M  V30 13822 N 1315.1 4.5057 1.07427 0
M  V30 13823 C 1315.83 5.60314 1.21804 0
M  V30 13824 N 1315.33 6.7993 1.32919 0
M  V30 13825 N 1317.12 5.4805 1.2489 0
M  V30 13826 H 1309.27 2.04877 -0.560282 0
M  V30 13827 H 1311.53 0.928925 -0.189217 0
M  V30 13828 H 1311.24 3.51521 -0.112333 0
M  V30 13829 H 1311.11 3.39967 1.63408 0
M  V30 13830 H 1313.5 2.41021 1.70274 0
M  V30 13831 H 1313.58 2.55733 -0.0586896 0
M  V30 13832 H 1313.23 5.07655 0.1577 0
M  V30 13833 H 1313.16 4.89995 1.92906 0
M  V30 13834 H 1315.65 3.64404 1.00089 0
M  V30 13835 H 1315.96 7.59319 1.43714 0
M  V30 13836 H 1314.3 6.82747 1.29929 0
M  V30 13837 H 1317.5 4.53542 1.15834 0
M  V30 13838 H 1317.67 6.33621 1.3575 0
M  V30 13839 N 1311.07 -0.540404 1.48045 0
M  V30 13840 C 1312 -1.65538 1.6468 0
M  V30 13841 C 1312.99 -1.62713 0.495847 0
M  V30 13842 O 1314.17 -1.80072 0.727172 0
M  V30 13843 C 1311.3 -3.0415 1.67661 0
M  V30 13844 C 1310.25 -3.2183 2.82152 0
M  V30 13845 C 1309.58 -4.61397 2.70216 0
M  V30 13846 C 1310.88 -3.05596 4.23567 0
M  V30 13847 H 1312.57 -1.51873 2.58021 0
M  V30 13848 H 1310.12 -0.729208 1.24171 0
M  V30 13849 H 1312.07 -3.82013 1.77887 0
M  V30 13850 H 1310.8 -3.18814 0.708907 0
M  V30 13851 H 1309.46 -2.4638 2.71463 0
M  V30 13852 H 1309.1 -4.72883 1.71437 0
M  V30 13853 H 1308.8 -4.74174 3.47035 0
M  V30 13854 H 1310.33 -5.41374 2.82395 0
M  V30 13855 H 1311.74 -3.73261 4.35143 0
M  V30 13856 H 1310.14 -3.29871 5.01303 0
M  V30 13857 H 1311.21 -2.0214 4.40758 0
M  V30 13858 N 1312.55 -1.36459 -0.788468 0
M  V30 13859 C 1313.96 -1.27515 -1.3637 0
M  V30 13860 C 1314.31 0.0846251 -1.96017 0
M  V30 13861 O 1313.44 0.98611 -1.92626 0
M  V30 13862 C 1314.03 -2.30903 -2.4793 0
M  V30 13863 C 1312.59 -2.25645 -3.01266 0
M  V30 13864 C 1311.74 -2.15631 -1.74352 0
M  V30 13865 H 1314.69 -1.47324 -0.590039 0
M  V30 13866 H 1314.71 -1.94601 -3.26972 0
M  V30 13867 H 1314.22 -3.29858 -2.04487 0
M  V30 13868 H 1312.33 -1.3016 -3.49126 0
M  V30 13869 H 1312.44 -3.18373 -3.58016 0
M  V30 13870 H 1310.8 -1.61901 -1.96622 0
M  V30 13871 H 1311.59 -3.16475 -1.33036 0
M  V30 13872 N 1314.03 1.01274 -1.20754 0
M  V30 13873 C 1314.96 2.10029 -0.917628 0
M  V30 13874 C 1315.98 1.62516 0.0961411 0
M  V30 13875 O 1317.16 1.77986 -0.135371 0
M  V30 13876 C 1314.26 3.37037 -0.354891 0
M  V30 13877 C 1313.44 4.1367 -1.42113 0
M  V30 13878 C 1312.5 5.18974 -0.869023 0
M  V30 13879 O 1311.52 5.47671 -1.55063 0
M  V30 13880 N 1312.72 5.79619 0.319631 0
M  V30 13881 H 1315.49 2.35485 -1.85383 0
M  V30 13882 H 1313.05 1.17695 -1.11173 0
M  V30 13883 H 1315.04 4.0469 0.0286895 0
M  V30 13884 H 1313.61 3.088 0.485956 0
M  V30 13885 H 1312.83 3.40931 -1.97889 0
M  V30 13886 H 1314.12 4.61649 -2.13911 0
M  V30 13887 H 1313.52 5.58646 0.89059 0
M  V30 13888 H 1312.08 6.48603 0.644807 0
M  V30 13889 N 1315.51 1.01404 1.20644 0
M  V30 13890 C 1316.76 0.700523 1.89571 0
M  V30 13891 C 1317.08 -0.771978 1.79068 0
M  V30 13892 O 1316.35 -1.55506 1.19142 0
M  V30 13893 H 1314.93 0.256122 0.70172 0
M  V30 13894 H 1317.59 1.28509 1.46531 0
M  V30 13895 H 1316.69 0.981665 2.9626 0
M  V30 13896 N 1316.99 -1.36373 0.789944 0
M  V30 13897 C 1318.23 -1.99227 0.362582 0
M  V30 13898 C 1318.56 -1.62694 -1.06587 0
M  V30 13899 O 1317.82 -0.873748 -1.75112 0
M  V30 13900 C 1318.12 -3.54243 0.474025 0
M  V30 13901 C 1317.78 -4.10597 1.86336 0
M  V30 13902 C 1316.44 -4.257 2.24349 0
M  V30 13903 C 1318.8 -4.41306 2.77306 0
M  V30 13904 C 1316.12 -4.68824 3.52734 0
M  V30 13905 C 1318.48 -4.85861 4.05119 0
M  V30 13906 C 1317.14 -4.9917 4.43154 0
M  V30 13907 H 1316.41 -0.729025 0.132678 0
M  V30 13908 H 1319.06 -1.62854 1.00751 0
M  V30 13909 H 1317.36 -3.90973 -0.254399 0
M  V30 13910 H 1319.06 -4.00807 0.124384 0
M  V30 13911 H 1315.65 -3.99281 1.55797 0
M  V30 13912 H 1319.83 -4.29205 2.49191 0
M  V30 13913 H 1315.09 -4.77315 3.82073 0
M  V30 13914 H 1319.26 -5.08587 4.75723 0
M  V30 13915 H 1316.89 -5.32344 5.42692 0
M  V30 13916 N 1318.47 -0.542005 -1.47987 0
M  V30 13917 C 1319.4 0.202703 -2.32618 0
M  V30 13918 C 1320.38 0.923521 -1.42846 0
M  V30 13919 O 1321.56 0.906957 -1.7172 0
M  V30 13920 C 1318.69 1.24267 -3.24307 0
M  V30 13921 C 1317.65 0.639257 -4.23199 0
M  V30 13922 C 1316.97 1.78275 -5.04105 0
M  V30 13923 C 1318.27 -0.396982 -5.20789 0
M  V30 13924 H 1319.97 -0.503817 -2.95131 0
M  V30 13925 H 1317.51 -0.243736 -1.41922 0
M  V30 13926 H 1319.46 1.7717 -3.82347 0
M  V30 13927 H 1318.19 1.97893 -2.59819 0
M  V30 13928 H 1316.85 0.131655 -3.66364 0
M  V30 13929 H 1316.5 2.50768 -4.36032 0
M  V30 13930 H 1316.2 1.38487 -5.71047 0
M  V30 13931 H 1317.72 2.31533 -5.65 0
M  V30 13932 H 1319.13 0.0454057 -5.73282 0
M  V30 13933 H 1317.53 -0.712911 -5.9585 0
M  V30 13934 H 1318.6 -1.29843 -4.67193 0
M  V30 13935 N 1319.94 1.55134 -0.277709 0
M  V30 13936 C 1321.35 1.85405 0.219543 0
M  V30 13937 C 1321.71 1.19973 1.55245 0
M  V30 13938 O 1320.83 0.488986 2.10803 0
M  V30 13939 C 1321.43 3.36369 0.405127 0
M  V30 13940 C 1319.98 3.66755 0.846609 0
M  V30 13941 C 1319.13 2.77238 -0.0586063 0
M  V30 13942 H 1322.08 1.50637 -0.499422 0
M  V30 13943 H 1322.1 3.59615 1.24329 0
M  V30 13944 H 1321.62 3.83963 -0.565138 0
M  V30 13945 H 1319.72 3.24662 1.82825 0
M  V30 13946 H 1319.83 4.74219 0.682135 0
M  V30 13947 H 1318.19 2.50546 0.458153 0
M  V30 13948 H 1318.98 3.27647 -1.0248 0
M  V30 13949 N 1321.42 0.00503138 1.57599 0
M  V30 13950 C 1322.83 -0.537106 1.78807 0
M  V30 13951 C 1323.18 -1.73666 0.912945 0
M  V30 13952 O 1322.31 -2.16085 0.116775 0
M  V30 13953 C 1322.9 -0.98116 3.24282 0
M  V30 13954 C 1321.46 -1.46857 3.46569 0
M  V30 13955 C 1320.61 -0.422088 2.74069 0
M  V30 13956 H 1323.56 0.231182 1.57007 0
M  V30 13957 H 1323.58 -1.8469 3.32671 0
M  V30 13958 H 1323.09 -0.107907 3.8795 0
M  V30 13959 H 1321.19 -2.36255 2.88122 0
M  V30 13960 H 1321.31 -1.49256 4.55258 0
M  V30 13961 H 1319.67 -0.884853 2.38836 0
M  V30 13962 H 1320.45 0.442285 3.40439 0
M  V30 13963 N 1322.9 -1.55308 -0.267798 0
M  V30 13964 C 1323.86 -1.87765 -1.31442 0
M  V30 13965 C 1324.86 -0.752571 -1.42102 0
M  V30 13966 O 1326.05 -1.02072 -1.41163 0
M  V30 13967 C 1323.18 -2.08754 -2.69508 0
M  V30 13968 H 1324.38 -2.8133 -1.03891 0
M  V30 13969 H 1321.93 -1.47879 -0.506111 0
M  V30 13970 H 1322.67 -1.17588 -3.02231 0
M  V30 13971 H 1322.45 -2.90674 -2.63156 0
M  V30 13972 H 1323.94 -2.3512 -3.4512 0
M  V30 13973 N 1324.38 0.532545 -1.4833 0
M  V30 13974 C 1325.31 1.65325 -1.58746 0
M  V30 13975 C 1326.32 1.5581 -0.471925 0
M  V30 13976 O 1327.51 1.62317 -0.742656 0
M  V30 13977 C 1324.61 3.03957 -1.49877 0
M  V30 13978 C 1323.78 3.38979 -2.76427 0
M  V30 13979 C 1322.84 4.56881 -2.61048 0
M  V30 13980 O 1321.87 4.6023 -3.34928 0
M  V30 13981 N 1323.07 5.54898 -1.70496 0
M  V30 13982 H 1325.84 1.56827 -2.55393 0
M  V30 13983 H 1323.4 0.71976 -1.45021 0
M  V30 13984 H 1325.39 3.80702 -1.37288 0
M  V30 13985 H 1323.96 3.06548 -0.612158 0
M  V30 13986 H 1323.18 2.51438 -3.03599 0
M  V30 13987 H 1324.47 3.59163 -3.60388 0
M  V30 13988 H 1323.87 5.54968 -1.0967 0
M  V30 13989 H 1322.42 6.3087 -1.63847 0
M  V30 13990 N 1325.86 1.36875 0.78122 0
M  V30 13991 C 1327.08 1.34732 1.57019 0
M  V30 13992 C 1327.5 -0.0695423 1.88672 0
M  V30 13993 O 1326.86 -1.02873 1.50743 0
M  V30 13994 C 1326.91 2.17668 2.88623 0
M  V30 13995 O 1326.63 3.53832 2.5833 0
M  V30 13996 C 1328.13 2.23398 3.82895 0
M  V30 13997 H 1325.35 0.461857 0.486754 0
M  V30 13998 H 1327.89 1.80086 0.968989 0
M  V30 13999 H 1326.05 1.75848 3.4519 0
M  V30 14000 H 1326.46 3.972 3.42538 0
M  V30 14001 H 1327.94 2.85769 4.72271 0
M  V30 14002 H 1328.41 1.23972 4.2134 0
M  V30 14003 H 1329.02 2.65489 3.32258 0
M  V30 14004 N 1327.33 -1.00632 1.21289 0
M  V30 14005 C 1328.74 -1.55838 1.02817 0
M  V30 14006 C 1329.1 -1.91816 -0.412425 0
M  V30 14007 O 1328.22 -1.73342 -1.29543 0
M  V30 14008 C 1328.82 -2.83168 1.86014 0
M  V30 14009 C 1327.37 -3.34865 1.71879 0
M  V30 14010 C 1326.52 -2.0807 1.83309 0
M  V30 14011 H 1329.47 -0.828939 1.3533 0
M  V30 14012 H 1329.49 -3.54996 1.36961 0
M  V30 14013 H 1329.01 -2.56951 2.90857 0
M  V30 14014 H 1327.11 -3.6602 0.697153 0
M  V30 14015 H 1327.22 -4.06374 2.53766 0
M  V30 14016 H 1325.58 -2.21006 1.26603 0
M  V30 14017 H 1326.37 -1.84267 2.89656 0
M  V30 14018 N 1328.81 -1.02043 -1.20104 0
M  V30 14019 C 1330.04 -0.731142 -1.94085 0
M  V30 14020 C 1330.46 0.702467 -1.74491 0
M  V30 14021 O 1329.82 1.48387 -1.04168 0
M  V30 14022 C 1329.87 -1.07691 -3.44144 0
M  V30 14023 O 1328.97 -0.190751 -4.11959 0
M  V30 14024 H 1328.31 -0.270917 -0.606218 0
M  V30 14025 H 1330.84 -1.36483 -1.52426 0
M  V30 14026 H 1330.85 -1.03023 -3.94779 0
M  V30 14027 H 1329.53 -2.1214 -3.57728 0
M  V30 14028 H 1328.1 -0.29529 -3.71729 0
M  V30 14029 N 1330.29 1.35952 -0.797165 0
M  V30 14030 C 1331.52 2.02986 -0.384758 0
M  V30 14031 C 1331.93 1.60233 1.00608 0
M  V30 14032 O 1331.27 0.790955 1.658 0
M  V30 14033 C 1331.33 3.57508 -0.37795 0
M  V30 14034 C 1331 4.23491 -1.71769 0
M  V30 14035 C 1331.99 4.45835 -2.67445 0
M  V30 14036 C 1329.68 4.60804 -1.99911 0
M  V30 14037 C 1331.67 5.04584 -3.89453 0
M  V30 14038 C 1329.36 5.19269 -3.22185 0
M  V30 14039 C 1330.36 5.41099 -4.16774 0
M  V30 14040 O 1330.05 5.98334 -5.36891 0
M  V30 14041 H 1329.78 0.657838 -0.155644 0
M  V30 14042 H 1332.33 1.7475 -1.07942 0
M  V30 14043 H 1330.56 3.84894 0.373253 0
M  V30 14044 H 1332.25 4.05899 0.0108505 0
M  V30 14045 H 1333.02 4.17397 -2.46992 0
M  V30 14046 H 1328.9 4.43132 -1.27102 0
M  V30 14047 H 1332.44 5.21539 -4.63296 0
M  V30 14048 H 1328.34 5.47134 -3.42512 0
M  V30 14049 H 1329.11 6.16794 -5.38059 0
M  V30 14050 N 1331.77 0.549846 1.47697 0
M  V30 14051 C 1333.02 0.0230048 2.02087 0
M  V30 14052 C 1333.34 -1.32865 1.4273 0
M  V30 14053 O 1332.61 -1.86492 0.59981 0
M  V30 14054 H 1331.19 0.00551514 0.74698 0
M  V30 14055 H 1333.85 0.718185 1.81185 0
M  V30 14056 H 1332.95 -0.0705813 3.1202 0
M  V30 14057 N 1333.25 -1.54984 0.285932 0
M  V30 14058 C 1334.52 -1.91872 -0.380083 0
M  V30 14059 C 1334.9 -1.21146 -1.72878 0
M  V30 14060 O 1334.25 -0.341999 -2.25926 0
M  V30 14061 C 1334.46 -3.45258 -0.509667 0
M  V30 14062 C 1335.81 -4.17232 -0.787549 0
M  V30 14063 O 1336.83 -3.51211 -0.594062 0
M  V30 14064 O 1335.69 -5.34085 -1.15826 0
M  V30 14065 H 1332.79 -0.799931 -0.209856 0
M  V30 14066 H 1335.33 -1.66403 0.332882 0
M  V30 14067 H 1334.1 -3.88829 0.439049 0
M  V30 14068 H 1333.73 -3.76715 -1.27168 0
M  V30 14069 N 1334.72 -0.0133892 -1.57594 0
M  V30 14070 C 1335.65 0.972341 -2.12292 0
M  V30 14071 C 1336.64 1.34971 -1.03522 0
M  V30 14072 O 1337.82 1.4311 -1.31275 0
M  V30 14073 C 1334.95 2.25988 -2.63717 0
M  V30 14074 C 1333.9 2.02373 -3.77133 0
M  V30 14075 C 1333.23 3.37256 -4.14925 0
M  V30 14076 C 1334.53 1.37553 -5.03861 0
M  V30 14077 H 1336.22 0.516869 -2.94905 0
M  V30 14078 H 1333.77 0.247176 -1.41863 0
M  V30 14079 H 1335.72 2.95313 -3.00613 0
M  V30 14080 H 1334.45 2.73672 -1.78244 0
M  V30 14081 H 1333.11 1.3547 -3.40651 0
M  V30 14082 H 1332.75 3.82669 -3.26456 0
M  V30 14083 H 1332.45 3.22267 -4.91343 0
M  V30 14084 H 1333.98 4.07875 -4.5439 0
M  V30 14085 H 1335.39 1.96855 -5.38443 0
M  V30 14086 H 1333.79 1.33011 -5.85174 0
M  V30 14087 H 1334.86 0.346429 -4.83661 0
M  V30 14088 N 1336.2 1.55448 0.259558 0
M  V30 14089 C 1337.48 1.6742 1.01143 0
M  V30 14090 C 1337.86 0.549525 2.03822 0
M  V30 14091 O 1337.21 -0.448699 2.24051 0
M  V30 14092 C 1337.42 3.07201 1.65616 0
M  V30 14093 C 1338.77 3.6539 2.16277 0
M  V30 14094 O 1339.79 3.0992 1.7558 0
M  V30 14095 O 1338.65 4.62604 2.90963 0
M  V30 14096 H 1335.74 0.680469 0.469991 0
M  V30 14097 H 1338.29 1.67783 0.254348 0
M  V30 14098 H 1337.06 3.80504 0.912819 0
M  V30 14099 H 1336.68 3.10794 2.47977 0
M  V30 14100 N 1337.68 -0.524672 1.4861 0
M  V30 14101 C 1338.96 -1.28592 1.47389 0
M  V30 14102 C 1339.34 -2.10257 0.188482 0
M  V30 14103 O 1338.69 -2.12905 -0.829689 0
M  V30 14104 C 1338.9 -2.16284 2.73902 0
M  V30 14105 C 1340.24 -2.7625 3.22445 0
M  V30 14106 O 1341.27 -2.26567 2.74856 0
M  V30 14107 O 1340.13 -3.66635 4.05267 0
M  V30 14108 H 1337.22 -0.580666 0.58886 0
M  V30 14109 H 1339.77 -0.540888 1.60849 0
M  V30 14110 H 1338.54 -1.55757 3.58964 0
M  V30 14111 H 1338.16 -2.98024 2.63188 0
M  V30 14112 N 1339.16 -1.37287 -0.77395 0
M  V30 14113 C 1340.4 -1.33771 -1.54547 0
M  V30 14114 C 1340.76 0.0778134 -1.91842 0
M  V30 14115 O 1341.96 0.237682 -2.67747 0
M  V30 14116 C 1340.23 -2.24859 -2.77801 0
M  V30 14117 S 1341.79 -2.39172 -3.67889 0
M  V30 14118 H 1338.61 -0.474918 -0.529126 0
M  V30 14119 H 1341.21 -1.73015 -0.910287 0
M  V30 14120 H 1339.92 -3.2663 -2.48478 0
M  V30 14121 H 1339.45 -1.86691 -3.4628 0
M  V30 14122 H 1341.46 -1.60068 -4.69673 0
M  V30 14123 N 1340.64 0.999871 -1.21821 0
M  V30 14124 C 1341.86 1.7794 -1.06546 0
M  V30 14125 C 1342.29 1.84219 0.380115 0
M  V30 14126 O 1341.64 1.28955 1.27438 0
M  V30 14127 C 1341.69 3.1943 -1.67322 0
M  V30 14128 O 1340.8 4.01957 -0.922171 0
M  V30 14129 H 1340.14 0.548204 -0.374658 0
M  V30 14130 H 1342.67 1.2565 -1.61472 0
M  V30 14131 H 1342.68 3.70086 -1.71757 0
M  V30 14132 H 1341.35 3.14175 -2.7252 0
M  V30 14133 H 1339.93 3.60509 -0.95331 0
M  V30 14134 N 1342.11 1.02678 1.19562 0
M  V30 14135 C 1343.53 0.752027 1.70884 0
M  V30 14136 C 1343.88 -0.728523 1.82173 0
M  V30 14137 O 1343 -1.56799 1.49141 0
M  V30 14138 C 1343.6 1.35848 3.10372 0
M  V30 14139 C 1342.16 1.13236 3.58963 0
M  V30 14140 C 1341.3 1.45785 2.35886 0
M  V30 14141 H 1344.25 1.19497 1.04432 0
M  V30 14142 H 1344.27 0.754347 3.72948 0
M  V30 14143 H 1343.79 2.43604 3.02124 0
M  V30 14144 H 1341.89 0.0729271 3.72529 0
M  V30 14145 H 1342 1.81959 4.43202 0
M  V30 14146 H 1340.36 0.877125 2.3912 0
M  V30 14147 H 1341.15 2.54619 2.30269 0
M  V30 14148 N 1343.59 -1.35528 0.804364 0
M  V30 14149 C 1344.54 -2.29832 0.211186 0
M  V30 14150 C 1345.51 -1.52704 -0.653503 0
M  V30 14151 O 1346.69 -1.81152 -0.599052 0
M  V30 14152 C 1343.83 -3.39188 -0.636054 0
M  V30 14153 C 1342.95 -4.31283 0.248824 0
M  V30 14154 C 1342.08 -5.2773 -0.60621 0
M  V30 14155 C 1341.12 -6.11463 0.279205 0
M  V30 14156 N 1340.26 -7.00054 -0.535672 0
M  V30 14157 H 1345.1 -2.79971 1.0208 0
M  V30 14158 H 1342.64 -1.37793 0.514931 0
M  V30 14159 H 1344.59 -4.01254 -1.14241 0
M  V30 14160 H 1343.22 -2.90331 -1.41095 0
M  V30 14161 H 1342.28 -3.70241 0.873263 0
M  V30 14162 H 1343.59 -4.90046 0.930417 0
M  V30 14163 H 1342.74 -5.95158 -1.17778 0
M  V30 14164 H 1341.48 -4.69458 -1.32138 0
M  V30 14165 H 1340.49 -5.42984 0.863066 0
M  V30 14166 H 1341.71 -6.71813 0.9922 0
M  V30 14167 H 1339.66 -6.44273 -1.23486 0
M  V30 14168 H 1339.57 -7.55949 0.0879213 0
M  V30 14169 H 1340.84 -7.71833 -1.09059 0
M  V30 14170 N 1345.07 -0.557671 -1.47404 0
M  V30 14171 C 1346.02 0.210176 -2.27029 0
M  V30 14172 C 1347.01 0.884882 -1.34382 0
M  V30 14173 O 1348.2 0.783112 -1.58734 0
M  V30 14174 C 1345.33 1.23923 -3.20153 0
M  V30 14175 C 1344.41 0.567913 -4.2028 0
M  V30 14176 N 1344.8 -0.362279 -5.04501 0
M  V30 14177 C 1343.1 0.821776 -4.38364 0
M  V30 14178 C 1343.8 -0.752273 -5.76815 0
M  V30 14179 N 1342.78 -0.107008 -5.43495 0
M  V30 14180 H 1346.58 -0.505007 -2.89529 0
M  V30 14181 H 1344.09 -0.377642 -1.57948 0
M  V30 14182 H 1346.09 1.80328 -3.75882 0
M  V30 14183 H 1344.75 1.9555 -2.59211 0
M  V30 14184 H 1345.76 -0.736468 -5.12637 0
M  V30 14185 H 1342.44 1.52652 -3.88592 0
M  V30 14186 H 1343.83 -1.51664 -6.54559 0
M  V30 14187 N 1346.55 1.54831 -0.294147 0
M  V30 14188 C 1347.97 1.59489 0.0594489 0
M  V30 14189 C 1348.17 1.31121 1.53002 0
M  V30 14190 O 1347.22 1.08129 2.28176 0
M  V30 14191 C 1348.53 2.98858 -0.332323 0
M  V30 14192 C 1350.08 3.1174 -0.280518 0
M  V30 14193 C 1350.56 4.53407 -0.64701 0
M  V30 14194 N 1352.05 4.59307 -0.599284 0
M  V30 14195 C 1352.78 5.66983 -0.85542 0
M  V30 14196 N 1352.28 6.82726 -1.17717 0
M  V30 14197 N 1354.07 5.56621 -0.78294 0
M  V30 14198 H 1346.22 1.71532 -1.25262 0
M  V30 14199 H 1348.49 0.800801 -0.507368 0
M  V30 14200 H 1348.19 3.24517 -1.35578 0
M  V30 14201 H 1348.07 3.75862 0.317443 0
M  V30 14202 H 1350.45 2.85834 0.733683 0
M  V30 14203 H 1350.53 2.36907 -0.96481 0
M  V30 14204 H 1350.18 4.80042 -1.65899 0
M  V30 14205 H 1350.11 5.26567 0.0592796 0
M  V30 14206 H 1352.6 3.76169 -0.361259 0
M  V30 14207 H 1352.91 7.60761 -1.35877 0
M  V30 14208 H 1351.26 6.84295 -1.21513 0
M  V30 14209 H 1354.45 4.65075 -0.531282 0
M  V30 14210 H 1354.62 6.40456 -0.985929 0
M  V30 14211 N 1348.03 0.0217466 1.57585 0
M  V30 14212 C 1348.98 -0.980624 2.10918 0
M  V30 14213 C 1349.97 -1.34178 1.03406 0
M  V30 14214 O 1351.18 -1.32487 1.21849 0
M  V30 14215 H 1347.55 -0.333984 0.673764 0
M  V30 14216 H 1349.52 -0.505431 2.94088 0
M  V30 14217 C 1348.27 -2.25639 2.64542 0
M  V30 14218 H 1347.59 -1.98722 3.46914 0
M  V30 14219 H 1349.03 -2.94003 3.05513 0
M  V30 14220 C 1347.49 -2.98111 1.56945 0
M  V30 14221 O 1348.02 -3.89937 0.964975 0
M  V30 14222 N 1346.23 -2.60316 1.29166 0
M  V30 14223 H 1345.78 -1.85722 1.78508 0
M  V30 14224 H 1345.73 -3.09116 0.573987 0
M  V30 14225 N 1349.51 -1.55583 -0.251311 0
M  V30 14226 C 1350.73 -1.81597 -1.00186 0
M  V30 14227 C 1351.16 -0.598216 -1.78334 0
M  V30 14228 O 1350.51 0.452667 -1.75558 0
M  V30 14229 C 1350.56 -3.05301 -1.91895 0
M  V30 14230 O 1349.67 -2.81907 -3.01002 0
M  V30 14231 H 1349.01 -0.599578 -0.285311 0
M  V30 14232 H 1351.54 -2.02762 -0.273638 0
M  V30 14233 H 1351.55 -3.34616 -2.33444 0
M  V30 14234 H 1350.22 -3.93574 -1.34433 0
M  V30 14235 H 1348.8 -2.63747 -2.63613 0
M  V30 14236 N 1350.98 0.516783 -1.48886 0
M  V30 14237 C 1352.21 1.30103 -1.61518 0
M  V30 14238 C 1352.63 1.85996 -0.28055 0
M  V30 14239 O 1351.99 1.65075 0.749671 0
M  V30 14240 C 1352.04 2.41837 -2.67483 0
M  V30 14241 O 1351.14 3.45249 -2.25559 0
M  V30 14242 H 1350.48 0.384774 -0.541152 0
M  V30 14243 H 1353.01 0.620424 -1.94966 0
M  V30 14244 H 1353.02 2.87832 -2.89165 0
M  V30 14245 H 1351.7 2.00519 -3.64369 0
M  V30 14246 H 1350.28 3.05281 -2.14144 0
M  V30 14247 N 1352.46 1.37696 0.766659 0
M  V30 14248 C 1353.87 1.29668 1.34324 0
M  V30 14249 C 1354.22 -0.0534297 1.96127 0
M  V30 14250 O 1353.35 -0.95534 1.94171 0
M  V30 14251 C 1353.94 2.34818 2.44225 0
M  V30 14252 C 1352.5 2.3041 2.97638 0
M  V30 14253 C 1351.65 2.18378 1.70899 0
M  V30 14254 H 1354.6 1.48244 0.566526 0
M  V30 14255 H 1354.62 1.99778 3.23835 0
M  V30 14256 H 1354.13 3.3307 1.99214 0
M  V30 14257 H 1352.23 1.35698 3.47011 0
M  V30 14258 H 1352.35 3.24028 3.52906 0
M  V30 14259 H 1350.71 1.65008 1.94021 0
M  V30 14260 H 1351.49 3.18551 1.27985 0
M  V30 14261 N 1353.94 -0.993397 1.22349 0
M  V30 14262 C 1355.36 -1.25708 0.983345 0
M  V30 14263 C 1355.56 -1.98888 -0.323372 0
M  V30 14264 O 1354.61 -2.2981 -1.04612 0
M  V30 14265 C 1355.92 -2.06935 2.1817 0
M  V30 14266 C 1357.47 -2.20121 2.22521 0
M  V30 14267 C 1357.95 -3.04735 3.41907 0
M  V30 14268 N 1359.44 -3.12322 3.42066 0
M  V30 14269 C 1360.17 -3.78081 4.31095 0
M  V30 14270 N 1359.67 -4.45771 5.3034 0
M  V30 14271 N 1361.46 -3.74837 4.18872 0
M  V30 14272 H 1353.61 -0.502767 2.06364 0
M  V30 14273 H 1355.88 -0.284656 0.904254 0
M  V30 14274 H 1355.58 -1.60525 3.12929 0
M  V30 14275 H 1355.46 -3.0769 2.18189 0
M  V30 14276 H 1357.84 -2.65745 1.28311 0
M  V30 14277 H 1357.92 -1.18798 2.26541 0
M  V30 14278 H 1357.57 -2.59811 4.36418 0
M  V30 14279 H 1357.5 -4.06198 3.35128 0
M  V30 14280 H 1359.99 -2.64146 2.7025 0
M  V30 14281 H 1360.3 -4.93687 5.94553 0
M  V30 14282 H 1358.65 -4.44521 5.34253 0
M  V30 14283 H 1361.84 -3.21116 3.40591 0
M  V30 14284 H 1362.01 -4.25806 4.8846 0
M  V30 14285 N 1355.42 -1.03311 -1.19015 0
M  V30 14286 C 1356.35 -0.562092 -2.21169 0
M  V30 14287 C 1357.33 0.399321 -1.5762 0
M  V30 14288 O 1358.51 0.315421 -1.85842 0
M  V30 14289 C 1355.64 0.179843 -3.38222 0
M  V30 14290 C 1354.69 -0.733653 -4.20143 0
M  V30 14291 S 1355.52 -2.21226 -4.87667 0
M  V30 14292 C 1356.67 -1.48095 -6.08127 0
M  V30 14293 H 1356.91 -1.42762 -2.6078 0
M  V30 14294 H 1354.44 -0.843405 -1.29329 0
M  V30 14295 H 1356.4 0.601764 -4.06065 0
M  V30 14296 H 1355.06 1.02116 -2.97037 0
M  V30 14297 H 1354.25 -0.160633 -5.03744 0
M  V30 14298 H 1353.85 -1.09408 -3.57639 0
M  V30 14299 H 1356.15 -0.76985 -6.73112 0
M  V30 14300 H 1357.09 -2.29372 -6.69921 0
M  V30 14301 H 1357.5 -0.976597 -5.55988 0
M  V30 14302 N 1356.9 1.35099 -0.81154 0
M  V30 14303 C 1358.31 1.81082 -0.454543 0
M  V30 14304 C 1358.66 1.67361 1.02395 0
M  V30 14305 O 1357.78 1.20707 1.79607 0
M  V30 14306 C 1358.38 3.2877 -0.818274 0
M  V30 14307 C 1356.94 3.72877 -0.513808 0
M  V30 14308 C 1356.08 2.57008 -1.04125 0
M  V30 14309 H 1359.03 1.23007 -1.00274 0
M  V30 14310 H 1359.06 3.80318 -0.117683 0
M  V30 14311 H 1358.57 3.38725 -1.89439 0
M  V30 14312 H 1356.67 3.68468 0.553368 0
M  V30 14313 H 1356.78 4.67455 -1.0499 0
M  V30 14314 H 1355.15 2.5045 -0.463337 0
M  V30 14315 H 1355.93 2.69738 -2.12358 0
M  V30 14316 N 1358.37 0.56548 1.47106 0
M  V30 14317 C 1359.32 -0.198133 2.27137 0
M  V30 14318 C 1360.31 -0.877743 1.3485 0
M  V30 14319 O 1361.5 -0.774683 1.59147 0
M  V30 14320 C 1358.63 -1.22223 3.20806 0
M  V30 14321 C 1357.71 -0.545616 4.20576 0
M  V30 14322 N 1358.11 0.389029 5.04302 0
M  V30 14323 C 1356.4 -0.798517 4.38793 0
M  V30 14324 C 1357.1 0.782852 5.76408 0
M  V30 14325 N 1356.08 0.13583 5.4343 0
M  V30 14326 H 1359.88 0.520354 2.89257 0
M  V30 14327 H 1357.4 0.386013 1.57746 0
M  V30 14328 H 1359.39 -1.78332 3.76833 0
M  V30 14329 H 1358.05 -1.94172 2.60244 0
M  V30 14330 H 1359.06 0.763644 5.12239 0
M  V30 14331 H 1355.74 -1.50589 3.89396 0
M  V30 14332 H 1357.13 1.55133 6.53746 0
M  V30 14333 N 1359.85 -1.54672 0.302354 0
M  V30 14334 C 1360.78 -2.2653 -0.566265 0
M  V30 14335 C 1361.76 -1.26532 -1.13682 0
M  V30 14336 O 1362.95 -1.55307 -1.1659 0
M  V30 14337 C 1360.08 -3.00709 -1.73757 0
M  V30 14338 C 1359.03 -4.07865 -1.29731 0
M  V30 14339 C 1358.36 -4.69767 -2.55388 0
M  V30 14340 C 1359.66 -5.20547 -0.427567 0
M  V30 14341 H 1361.35 -2.99382 0.033071 0
M  V30 14342 H 1358.9 -1.4399 0.0173458 0
M  V30 14343 H 1360.85 -3.497 -2.35134 0
M  V30 14344 H 1359.58 -2.25437 -2.36317 0
M  V30 14345 H 1358.23 -3.59726 -0.706586 0
M  V30 14346 H 1357.88 -3.91134 -3.16265 0
M  V30 14347 H 1357.58 -5.42137 -2.26631 0
M  V30 14348 H 1359.11 -5.21521 -3.17566 0
M  V30 14349 H 1360.52 -5.65424 -0.947053 0
M  V30 14350 H 1358.92 -5.99645 -0.233704 0
M  V30 14351 H 1359.99 -4.81805 0.546993 0
M  V30 14352 N 1361.33 -0.0301034 -1.57571 0
M  V30 14353 C 1362.29 0.936465 -2.09196 0
M  V30 14354 C 1363.29 1.25347 -1.00722 0
M  V30 14355 O 1364.48 1.19364 -1.26877 0
M  V30 14356 C 1361.62 2.2527 -2.55864 0
M  V30 14357 H 1362.81 0.489332 -2.95881 0
M  V30 14358 H 1360.36 0.217948 -1.54773 0
M  V30 14359 H 1361.1 2.7461 -1.72511 0
M  V30 14360 H 1360.88 2.03573 -3.35113 0
M  V30 14361 H 1362.37 2.94549 -2.96025 0
M  V30 14362 N 1362.81 1.55714 0.243056 0
M  V30 14363 C 1364.05 1.77989 0.971993 0
M  V30 14364 C 1364.39 0.596038 1.84827 0
M  V30 14365 O 1363.66 -0.40554 1.90225 0
M  V30 14366 C 1363.95 3.10178 1.82925 0
M  V30 14367 C 1363.8 4.38974 0.9809 0
M  V30 14368 C 1365.12 3.38628 2.81103 0
M  V30 14369 H 1362.24 0.64754 0.35194 0
M  V30 14370 H 1364.88 1.88449 0.242237 0
M  V30 14371 H 1363.03 3.01392 2.45143 0
M  V30 14372 H 1364.7 4.59756 0.377113 0
M  V30 14373 H 1362.94 4.3286 0.285414 0
M  V30 14374 H 1363.61 5.27858 1.61461 0
M  V30 14375 H 1366.09 3.47403 2.29021 0
M  V30 14376 H 1364.97 4.32331 3.38203 0
M  V30 14377 H 1365.23 2.5973 3.57761 0
M  V30 14378 N 1364.29 -0.50888 1.49158 0
M  V30 14379 C 1365.25 -1.59354 1.64739 0
M  V30 14380 C 1366.25 -1.52175 0.519557 0
M  V30 14381 O 1367.44 -1.55468 0.785838 0
M  V30 14382 C 1364.57 -2.99002 1.63739 0
M  V30 14383 H 1365.76 -1.46871 2.61474 0
M  V30 14384 H 1363.32 -0.732532 1.38071 0
M  V30 14385 H 1364.05 -3.1697 0.685583 0
M  V30 14386 H 1363.84 -3.05622 2.45637 0
M  V30 14387 H 1365.33 -3.77822 1.77877 0
M  V30 14388 N 1365.76 -1.381 -0.759346 0
M  V30 14389 C 1366.99 -1.37213 -1.54855 0
M  V30 14390 C 1367.41 0.0395175 -1.88759 0
M  V30 14391 O 1366.76 1.00462 -1.5236 0
M  V30 14392 C 1366.82 -2.22232 -2.85123 0
M  V30 14393 O 1366.54 -3.57897 -2.52668 0
M  V30 14394 C 1368.04 -2.29461 -3.79292 0
M  V30 14395 H 1365.26 -0.469542 -0.479345 0
M  V30 14396 H 1367.8 -1.81604 -0.940216 0
M  V30 14397 H 1365.96 -1.81317 -3.42349 0
M  V30 14398 H 1366.37 -4.02599 -3.36176 0
M  V30 14399 H 1367.84 -2.93246 -4.67665 0
M  V30 14400 H 1368.32 -1.3066 -4.19315 0
M  V30 14401 H 1368.93 -2.70741 -3.27993 0
M  V30 14402 N 1367.24 0.986894 -1.22875 0
M  V30 14403 C 1368.52 1.70121 -0.965311 0
M  V30 14404 C 1368.9 2.04648 0.517924 0
M  V30 14405 O 1368.25 1.73453 1.48749 0
M  V30 14406 C 1368.46 2.94738 -1.86897 0
M  V30 14407 C 1369.81 3.6739 -2.12861 0
M  V30 14408 O 1370.83 3.04758 -1.84394 0
M  V30 14409 O 1369.69 4.8009 -2.61106 0
M  V30 14410 H 1366.78 0.742817 -0.363527 0
M  V30 14411 H 1369.33 1.0427 -1.33887 0
M  V30 14412 H 1368.1 2.65771 -2.87196 0
M  V30 14413 H 1367.72 3.68327 -1.49736 0
M  V30 14414 N 1368.72 1.0394 1.18466 0
M  V30 14415 C 1369.67 0.629352 2.22054 0
M  V30 14416 C 1370.64 -0.362187 1.62103 0
M  V30 14417 O 1371.82 -0.256457 1.89069 0
M  V30 14418 C 1368.96 -0.00282888 3.451 0
M  V30 14419 C 1368.08 1.03602 4.19393 0
M  V30 14420 C 1367.21 0.372492 5.29892 0
M  V30 14421 C 1366.25 1.39652 5.95956 0
M  V30 14422 N 1365.39 0.758053 6.97996 0
M  V30 14423 H 1370.23 1.51722 2.56485 0
M  V30 14424 H 1367.76 0.759043 1.26004 0
M  V30 14425 H 1369.72 -0.386688 4.15404 0
M  V30 14426 H 1368.35 -0.854224 3.11292 0
M  V30 14427 H 1367.4 1.53784 3.47929 0
M  V30 14428 H 1368.72 1.81387 4.64651 0
M  V30 14429 H 1367.87 -0.065642 6.06664 0
M  V30 14430 H 1366.61 -0.437462 4.85734 0
M  V30 14431 H 1365.61 1.84481 5.17926 0
M  V30 14432 H 1366.84 2.20816 6.42197 0
M  V30 14433 H 1364.78 -0.0316173 6.55992 0
M  V30 14434 H 1364.7 1.47363 7.41499 0
M  V30 14435 H 1365.97 0.344273 7.78739 0
M  V30 14436 N 1370.2 -1.34667 0.818693 0
M  V30 14437 C 1371.43 -2.02642 0.417608 0
M  V30 14438 C 1371.84 -1.61667 -0.97516 0
M  V30 14439 O 1371.2 -0.820056 -1.63038 0
M  V30 14440 C 1371.25 -3.57951 0.505295 0
M  V30 14441 O 1370.97 -3.97441 1.84317 0
M  V30 14442 C 1372.47 -4.4319 0.0985667 0
M  V30 14443 H 1369.69 -0.6496 0.168111 0
M  V30 14444 H 1372.24 -1.72032 1.10568 0
M  V30 14445 H 1370.39 -3.87166 -0.134646 0
M  V30 14446 H 1370.8 -4.92116 1.81444 0
M  V30 14447 H 1372.28 -5.51597 0.211015 0
M  V30 14448 H 1372.76 -4.28637 -0.95745 0
M  V30 14449 H 1373.36 -4.19295 0.71214 0
M  V30 14450 N 1371.68 -0.573274 -1.46804 0
M  V30 14451 C 1372.61 0.153316 -2.32996 0
M  V30 14452 C 1373.59 0.893013 -1.44773 0
M  V30 14453 O 1374.77 0.870329 -1.73606 0
M  V30 14454 C 1371.9 1.1736 -3.2687 0
M  V30 14455 C 1370.86 0.549347 -4.2446 0
M  V30 14456 C 1370.18 1.67542 -5.07773 0
M  V30 14457 C 1371.48 -0.50736 -5.1983 0
M  V30 14458 H 1373.18 -0.566305 -2.93995 0
M  V30 14459 H 1370.72 -0.273785 -1.41373 0
M  V30 14460 H 1372.68 1.6902 -3.86019 0
M  V30 14461 H 1371.4 1.92337 -2.63958 0
M  V30 14462 H 1370.06 0.0539142 -3.6656 0
M  V30 14463 H 1369.71 2.41463 -4.41253 0
M  V30 14464 H 1369.41 1.26343 -5.73856 0
M  V30 14465 H 1370.93 2.19496 -5.69784 0
M  V30 14466 H 1372.34 -0.0762061 -5.73249 0
M  V30 14467 H 1370.74 -0.839139 -5.94204 0
M  V30 14468 H 1371.81 -1.39723 -4.64333 0
M  V30 14469 N 1373.15 1.5451 -0.310553 0
M  V30 14470 C 1374.12 2.2254 0.548489 0
M  V30 14471 C 1375.12 1.21456 1.05381 0
M  V30 14472 O 1376.31 1.46126 0.948311 0
M  V30 14473 C 1373.44 2.91927 1.76043 0
M  V30 14474 H 1374.63 2.99865 -0.0460306 0
M  V30 14475 H 1372.19 1.56179 -0.061487 0
M  V30 14476 H 1372.92 2.18706 2.39454 0
M  V30 14477 H 1372.71 3.66038 1.40564 0
M  V30 14478 H 1374.2 3.43797 2.37051 0
M  V30 14479 N 1374.63 0.0384594 1.57553 0
M  V30 14480 C 1376.04 -0.499057 1.79906 0
M  V30 14481 C 1376.4 -1.7169 0.949577 0
M  V30 14482 O 1375.52 -2.15788 0.162584 0
M  V30 14483 C 1376.12 -0.912155 3.2629 0
M  V30 14484 C 1374.67 -1.39473 3.49606 0
M  V30 14485 C 1373.82 -0.363859 2.74902 0
M  V30 14486 H 1376.77 0.264433 1.56481 0
M  V30 14487 H 1376.79 -1.77592 3.36513 0
M  V30 14488 H 1376.31 -0.0255928 3.88092 0
M  V30 14489 H 1374.41 -2.3009 2.93068 0
M  V30 14490 H 1374.52 -1.39566 4.58321 0
M  V30 14491 H 1372.88 -0.833993 2.40659 0
M  V30 14492 H 1373.67 0.514398 3.39424 0
M  V30 14493 N 1376.11 -1.55841 -0.234795 0
M  V30 14494 C 1377.34 -1.82649 -0.982547 0
M  V30 14495 C 1377.76 -0.617097 -1.77689 0
M  V30 14496 O 1377.12 0.434022 -1.76028 0
M  V30 14497 C 1377.17 -3.07319 -1.88646 0
M  V30 14498 O 1376.27 -2.85084 -2.97995 0
M  V30 14499 H 1375.61 -0.60257 -0.278936 0
M  V30 14500 H 1378.14 -2.03041 -0.252117 0
M  V30 14501 H 1378.15 -3.37073 -2.29882 0
M  V30 14502 H 1376.83 -3.94978 -1.30251 0
M  V30 14503 H 1375.4 -2.66528 -2.60801 0
M  V30 14504 N 1377.59 0.500963 -1.49426 0
M  V30 14505 C 1378.81 1.28383 -1.62888 0
M  V30 14506 C 1379.24 1.85688 -0.300262 0
M  V30 14507 O 1378.6 1.6586 0.73212 0
M  V30 14508 C 1378.65 2.38987 -2.70033 0
M  V30 14509 O 1377.75 3.42837 -2.29208 0
M  V30 14510 H 1377.09 0.379012 -0.545202 0
M  V30 14511 H 1379.62 0.59971 -1.95613 0
M  V30 14512 H 1379.63 2.84749 -2.92202 0
M  V30 14513 H 1378.31 1.96643 -3.66475 0
M  V30 14514 H 1376.88 3.02993 -2.1737 0
M  V30 14515 N 1379.07 1.38501 0.752011 0
M  V30 14516 C 1379.98 1.38094 1.8965 0
M  V30 14517 C 1380.99 0.277851 1.71767 0
M  V30 14518 O 1382.17 0.516536 1.94663 0
M  V30 14519 C 1379.23 1.2063 3.25037 0
M  V30 14520 C 1378.3 2.40758 3.55435 0
M  V30 14521 C 1377.53 2.24118 4.84362 0
M  V30 14522 O 1377.75 1.23571 5.56854 0
M  V30 14523 O 1376.69 3.12741 5.14273 0
M  V30 14524 H 1380.51 2.34532 1.92947 0
M  V30 14525 H 1378.1 1.19437 0.897504 0
M  V30 14526 H 1379.98 1.12957 4.05979 0
M  V30 14527 H 1378.65 0.272785 3.22549 0
M  V30 14528 H 1377.56 2.54006 2.74648 0
M  V30 14529 H 1378.89 3.32745 3.62686 0
M  V30 14530 N 1380.55 -0.980364 1.23396 0
M  V30 14531 C 1381.48 -2.07522 0.972991 0
M  V30 14532 C 1382.49 -1.62714 -0.0530191 0
M  V30 14533 O 1383.68 -1.77564 0.182513 0
M  V30 14534 C 1380.78 -3.35977 0.444126 0
M  V30 14535 C 1379.95 -4.09756 1.53031 0
M  V30 14536 C 1379.01 -5.16488 1.00631 0
M  V30 14537 O 1378.04 -5.43368 1.69529 0
M  V30 14538 N 1379.24 -5.80263 -0.165842 0
M  V30 14539 H 1382 -2.30487 1.91561 0
M  V30 14540 H 1379.57 -1.14706 1.14255 0
M  V30 14541 H 1381.56 -4.04624 0.078617 0
M  V30 14542 H 1380.13 -3.0998 -0.403912 0
M  V30 14543 H 1379.35 -3.35564 2.06858 0
M  V30 14544 H 1380.64 -4.55815 2.26076 0
M  V30 14545 H 1380.03 -5.60811 -0.742162 0
M  V30 14546 H 1378.59 -6.50084 -0.472614 0
M  V30 14547 N 1382.02 -1.04567 -1.17913 0
M  V30 14548 C 1382.93 -0.651674 -2.25367 0
M  V30 14549 C 1383.95 0.32437 -1.7095 0
M  V30 14550 O 1385.13 0.178039 -2.00612 0
M  V30 14551 C 1382.19 -0.0259452 -3.4669 0
M  V30 14552 C 1381.25 -1.05163 -4.1622 0
M  V30 14553 C 1380.48 -0.45567 -5.31751 0
M  V30 14554 O 1380.71 0.736698 -5.65623 0
M  V30 14555 O 1379.64 -1.18684 -5.90083 0
M  V30 14556 H 1383.47 -1.54704 -2.61344 0
M  V30 14557 H 1381.05 -0.816852 -1.25092 0
M  V30 14558 H 1382.93 0.322126 -4.20167 0
M  V30 14559 H 1381.61 0.843165 -3.12526 0
M  V30 14560 H 1380.52 -1.45159 -3.44789 0
M  V30 14561 H 1381.85 -1.89168 -4.54397 0
M  V30 14562 N 1383.5 1.34231 -0.825823 0
M  V30 14563 C 1384.43 2.28261 -0.207234 0
M  V30 14564 C 1385.45 1.51159 0.604554 0
M  V30 14565 O 1386.64 1.7315 0.43376 0
M  V30 14566 C 1383.74 3.30991 0.727868 0
M  V30 14567 C 1382.91 4.3738 -0.0417267 0
M  V30 14568 C 1381.97 5.19854 0.81474 0
M  V30 14569 O 1380.99 5.68612 0.25867 0
M  V30 14570 N 1382.2 5.39849 2.1341 0
M  V30 14571 H 1384.96 2.81986 -1.0151 0
M  V30 14572 H 1382.52 1.46785 -0.683056 0
M  V30 14573 H 1384.51 3.83065 1.3055 0
M  V30 14574 H 1383.08 2.7764 1.43647 0
M  V30 14575 H 1382.3 3.85983 -0.800686 0
M  V30 14576 H 1383.59 5.05581 -0.571395 0
M  V30 14577 H 1382.99 5.01914 2.60958 0
M  V30 14578 H 1381.55 5.95029 2.66052 0
M  V30 14579 N 1384.98 0.581051 1.46498 0
M  V30 14580 C 1386.39 0.154032 1.86064 0
M  V30 14581 C 1386.74 -1.28247 1.48483 0
M  V30 14582 O 1385.87 -1.96845 0.898945 0
M  V30 14583 C 1386.46 0.272764 3.377 0
M  V30 14584 C 1385.02 -0.0993724 3.76269 0
M  V30 14585 C 1384.17 0.60947 2.70519 0
M  V30 14586 H 1387.12 0.78937 1.37676 0
M  V30 14587 H 1387.14 -0.502326 3.7717 0
M  V30 14588 H 1386.65 1.31837 3.65021 0
M  V30 14589 H 1384.75 -1.14517 3.54565 0
M  V30 14590 H 1384.87 0.275791 4.78306 0
M  V30 14591 H 1383.23 0.0499083 2.54651 0
M  V30 14592 H 1384.01 1.65669 3.0068 0
M  V30 14593 N 1386.46 -1.54343 0.318742 0
M  V30 14594 C 1387.37 -2.27856 -0.558442 0
M  V30 14595 C 1388.38 -1.32029 -1.13333 0
M  V30 14596 O 1389.56 -1.65037 -1.15433 0
M  V30 14597 C 1386.62 -3.01842 -1.70565 0
M  V30 14598 C 1385.69 -4.13245 -1.16305 0
M  V30 14599 C 1384.92 -4.83693 -2.25559 0
M  V30 14600 O 1385.14 -4.53621 -3.4581 0
M  V30 14601 O 1384.08 -5.70708 -1.91249 0
M  V30 14602 H 1387.9 -3.03676 0.0384247 0
M  V30 14603 H 1385.49 -1.4916 0.0845936 0
M  V30 14604 H 1387.37 -3.48189 -2.37365 0
M  V30 14605 H 1386.04 -2.28902 -2.28879 0
M  V30 14606 H 1384.95 -3.71258 -0.460274 0
M  V30 14607 H 1386.28 -4.88214 -0.625111 0
M  V30 14608 N 1387.94 -0.0468143 -1.5753 0
M  V30 14609 C 1389.18 0.626699 -1.92138 0
M  V30 14610 C 1389.5 1.7164 -0.925463 0
M  V30 14611 O 1388.77 1.95876 0.0303531 0
M  V30 14612 H 1387.35 0.234479 -0.709245 0
M  V30 14613 H 1390.02 -0.0987892 -1.94649 0
M  V30 14614 H 1389.11 1.06811 -2.93254 0
M  V30 14615 N 1389.41 1.55964 0.226527 0
M  V30 14616 C 1390.34 1.95028 1.284 0
M  V30 14617 C 1391.33 0.817833 1.49149 0
M  V30 14618 O 1392.51 1.07975 1.61416 0
M  V30 14619 C 1389.64 2.26266 2.63478 0
M  V30 14620 C 1388.59 3.41954 2.57393 0
M  V30 14621 C 1387.92 3.58786 3.96456 0
M  V30 14622 C 1389.22 4.77069 2.12608 0
M  V30 14623 H 1390.91 2.83608 0.959513 0
M  V30 14624 H 1388.46 1.36451 0.460125 0
M  V30 14625 H 1390.41 2.52186 3.3761 0
M  V30 14626 H 1389.14 1.34533 2.97604 0
M  V30 14627 H 1387.8 3.16076 1.85719 0
M  V30 14628 H 1387.44 2.64437 4.27881 0
M  V30 14629 H 1387.14 4.36595 3.93267 0
M  V30 14630 H 1388.67 3.87048 4.72256 0
M  V30 14631 H 1390.08 5.02226 2.76481 0
M  V30 14632 H 1388.48 5.58126 2.2049 0
M  V30 14633 H 1389.55 4.7276 1.07823 0
M  V30 14634 N 1390.89 -0.493031 1.4969 0
M  V30 14635 C 1392.14 -1.24576 1.60787 0
M  V30 14636 C 1392.49 -1.90134 0.2944 0
M  V30 14637 O 1391.79 -1.78118 -0.706023 0
M  V30 14638 C 1391.98 -2.33014 2.70997 0
M  V30 14639 C 1391.81 -1.7809 4.12933 0
M  V30 14640 C 1390.58 -1.59036 4.7962 0
M  V30 14641 C 1392.78 -1.28823 4.97905 0
M  V30 14642 N 1390.76 -0.991255 6.05844 0
M  V30 14643 C 1392.13 -0.810976 6.14673 0
M  V30 14644 C 1394.19 -1.17471 4.83844 0
M  V30 14645 C 1392.89 -0.23142 7.18928 0
M  V30 14646 C 1394.91 -0.609116 5.88255 0
M  V30 14647 C 1394.28 -0.142128 7.04257 0
M  V30 14648 H 1390.38 -0.44553 0.642672 0
M  V30 14649 H 1392.96 -0.551483 1.86726 0
M  V30 14650 H 1391.13 -2.99893 2.46817 0
M  V30 14651 H 1392.86 -3.00051 2.71572 0
M  V30 14652 H 1389.62 -1.83634 4.3655 0
M  V30 14653 H 1390.04 -0.710746 6.73259 0
M  V30 14654 H 1394.68 -1.52173 3.94466 0
M  V30 14655 H 1392.4 0.127848 8.07999 0
M  V30 14656 H 1395.99 -0.523948 5.79436 0
M  V30 14657 H 1394.87 0.288689 7.83668 0
M  V30 14658 N 1392.37 -1.38898 -0.744656 0
M  V30 14659 C 1393.78 -1.31789 -1.32244 0
M  V30 14660 C 1394.13 0.0222208 -1.96187 0
M  V30 14661 O 1393.26 0.924328 -1.95666 0
M  V30 14662 C 1393.85 -2.38674 -2.40458 0
M  V30 14663 C 1392.41 -2.35116 -2.93935 0
M  V30 14664 C 1391.56 -2.21069 -1.67403 0
M  V30 14665 H 1394.51 -1.49126 -0.54287 0
M  V30 14666 H 1394.53 -2.04905 -3.20615 0
M  V30 14667 H 1394.04 -3.36197 -1.9389 0
M  V30 14668 H 1392.14 -1.41201 -3.44809 0
M  V30 14669 H 1392.26 -3.29602 -3.47706 0
M  V30 14670 H 1390.62 -1.68074 -1.91372 0
M  V30 14671 H 1391.4 -3.20547 -1.229 0
M  V30 14672 N 1393.85 0.973806 -1.23914 0
M  V30 14673 C 1395.26 1.53057 -1.06913 0
M  V30 14674 C 1395.61 1.92842 0.361423 0
M  V30 14675 O 1394.74 1.76716 1.24901 0
M  V30 14676 C 1395.33 2.78137 -1.93457 0
M  V30 14677 C 1393.89 3.3019 -1.80697 0
M  V30 14678 C 1393.04 2.03137 -1.88761 0
M  V30 14679 H 1395.99 0.792767 -1.37481 0
M  V30 14680 H 1396.01 3.5124 -1.46325 0
M  V30 14681 H 1395.52 2.49149 -2.97568 0
M  V30 14682 H 1393.62 3.64043 -0.793951 0
M  V30 14683 H 1393.73 3.99503 -2.64451 0
M  V30 14684 H 1392.1 2.17572 -1.32418 0
M  V30 14685 H 1392.88 1.76522 -2.9444 0
M  V30 14686 N 1395.33 1.05191 1.17357 0
M  V30 14687 C 1396.26 0.673931 2.23563 0
M  V30 14688 C 1397.24 -0.328284 1.66902 0
M  V30 14689 O 1398.42 -0.205878 1.93106 0
M  V30 14690 C 1395.55 0.0478801 3.47267 0
M  V30 14691 C 1394.51 0.974855 4.1675 0
M  V30 14692 C 1393.83 0.212684 5.34277 0
M  V30 14693 C 1395.13 2.299 4.68981 0
M  V30 14694 H 1396.83 1.56183 2.55436 0
M  V30 14695 H 1394.37 0.752408 1.2278 0
M  V30 14696 H 1396.33 -0.228343 4.20781 0
M  V30 14697 H 1395.05 -0.874963 3.14662 0
M  V30 14698 H 1393.71 1.23564 3.45148 0
M  V30 14699 H 1393.36 -0.712924 4.97922 0
M  V30 14700 H 1393.06 0.830351 5.81703 0
M  V30 14701 H 1394.58 -0.056255 6.10574 0
M  V30 14702 H 1395.99 2.08269 5.34132 0
M  V30 14703 H 1394.39 2.87064 5.26986 0
M  V30 14704 H 1395.46 2.93759 3.8579 0
M  V30 14705 N 1396.8 -1.33791 0.83293 0
M  V30 14706 C 1397.77 -2.27637 0.267196 0
M  V30 14707 C 1398.77 -1.50709 -0.560669 0
M  V30 14708 O 1399.96 -1.70109 -0.375321 0
M  V30 14709 C 1397.09 -3.35136 -0.624248 0
M  V30 14710 H 1398.28 -2.79186 1.09522 0
M  V30 14711 H 1395.84 -1.44093 0.605554 0
M  V30 14712 H 1396.57 -2.88818 -1.47494 0
M  V30 14713 H 1396.36 -3.92087 -0.0319827 0
M  V30 14714 H 1397.85 -4.05113 -1.01355 0
M  V30 14715 N 1398.28 -0.588812 -1.46187 0
M  V30 14716 C 1399.51 -0.0806571 -2.07243 0
M  V30 14717 C 1399.93 1.21766 -1.43369 0
M  V30 14718 O 1399.29 1.73694 -0.51964 0
M  V30 14719 C 1399.34 0.065267 -3.60541 0
M  V30 14720 O 1398.44 1.12026 -3.96893 0
M  V30 14721 H 1397.78 -0.0655622 -0.660755 0
M  V30 14722 H 1400.31 -0.813489 -1.87733 0
M  V30 14723 H 1400.32 0.269494 -4.07109 0
M  V30 14724 H 1399 -0.88284 -4.06422 0
M  V30 14725 H 1397.58 0.894 -3.62025 0
M  V30 14726 N 1399.76 1.54172 -0.326923 0
M  V30 14727 C 1401.17 1.86009 0.160446 0
M  V30 14728 C 1401.52 1.24851 1.51349 0
M  V30 14729 O 1400.65 0.555804 2.09141 0
M  V30 14730 C 1401.24 3.37488 0.297909 0
M  V30 14731 C 1399.8 3.69263 0.7295 0
M  V30 14732 C 1398.95 2.76911 -0.146778 0
M  V30 14733 H 1401.9 1.48972 -0.547093 0
M  V30 14734 H 1401.92 3.63388 1.12825 0
M  V30 14735 H 1401.43 3.81971 -0.687007 0
M  V30 14736 H 1399.53 3.30314 1.72404 0
M  V30 14737 H 1399.65 4.76149 0.53092 0
M  V30 14738 H 1398.01 2.51876 0.378212 0
M  V30 14739 H 1398.79 3.24221 -1.12852 0
M  V30 14740 N 1401.24 0.0551678 1.57503 0
M  V30 14741 C 1402.17 -0.915714 2.14795 0
M  V30 14742 C 1403.15 -1.32179 1.07065 0
M  V30 14743 O 1404.33 -1.39579 1.35023 0
M  V30 14744 C 1401.46 -2.18916 2.69616 0
M  V30 14745 C 1400.42 -1.92303 3.82366 0
M  V30 14746 C 1399.74 -3.26136 4.23721 0
M  V30 14747 C 1401.04 -1.24146 5.07331 0
M  V30 14748 H 1402.74 -0.438499 2.96171 0
M  V30 14749 H 1400.28 -0.209477 1.42468 0
M  V30 14750 H 1402.24 -2.87239 3.08337 0
M  V30 14751 H 1400.96 -2.6885 1.85437 0
M  V30 14752 H 1399.62 -1.26391 3.44123 0
M  V30 14753 H 1399.27 -3.73879 3.36487 0
M  V30 14754 H 1398.97 -3.09126 4.99715 0
M  V30 14755 H 1400.49 -3.95684 4.65045 0
M  V30 14756 H 1401.91 -1.8251 5.43473 0
M  V30 14757 H 1400.3 -1.17449 5.88494 0
M  V30 14758 H 1401.37 -0.218073 4.84409 0
M  V30 14759 N 1402.72 -1.56081 -0.218252 0
M  V30 14760 C 1403.67 -1.89082 -1.27405 0
M  V30 14761 C 1404.65 -0.754204 -1.42129 0
M  V30 14762 O 1405.84 -1.01668 -1.44888 0
M  V30 14763 C 1402.97 -2.21387 -2.62379 0
M  V30 14764 C 1402.06 -3.41448 -2.51543 0
M  V30 14765 N 1402.45 -4.5998 -2.10362 0
M  V30 14766 C 1400.75 -3.45128 -2.82494 0
M  V30 14767 C 1401.45 -5.42139 -2.10857 0
M  V30 14768 N 1400.42 -4.81936 -2.51472 0
M  V30 14769 H 1404.23 -2.78238 -0.946609 0
M  V30 14770 H 1401.74 -1.56691 -0.426801 0
M  V30 14771 H 1403.74 -2.43205 -3.38611 0
M  V30 14772 H 1402.4 -1.33545 -2.95966 0
M  V30 14773 H 1403.41 -4.85077 -1.8144 0
M  V30 14774 H 1400.08 -2.67638 -3.20431 0
M  V30 14775 H 1401.47 -6.47029 -1.81114 0
M  V30 14776 N 1404.2 0.485086 -1.49949 0
M  V30 14777 C 1405.61 1.06629 -1.53255 0
M  V30 14778 C 1405.96 1.9344 -0.327915 0
M  V30 14779 O 1405.08 2.09011 0.560669 0
M  V30 14780 C 1405.68 1.94053 -2.77721 0
M  V30 14781 C 1404.24 2.47307 -2.83754 0
M  V30 14782 C 1403.38 1.25307 -2.47373 0
M  V30 14783 H 1406.33 0.268297 -1.56416 0
M  V30 14784 H 1406.36 2.78946 -2.58784 0
M  V30 14785 H 1405.87 1.30843 -3.65379 0
M  V30 14786 H 1403.97 3.1411 -2.00414 0
M  V30 14787 H 1404.08 2.83371 -3.86313 0
M  V30 14788 H 1402.45 1.5834 -1.99501 0
M  V30 14789 H 1403.23 0.637815 -3.37323 0
M  V30 14790 N 1405.67 1.39291 0.737279 0
M  V30 14791 C 1406.6 1.40562 1.86452 0
M  V30 14792 C 1407.58 0.269283 1.67955 0
M  V30 14793 O 1408.77 0.474769 1.88307 0
M  V30 14794 C 1405.9 1.2461 3.24175 0
M  V30 14795 C 1404.85 2.35619 3.57306 0
M  V30 14796 C 1404.18 2.04758 4.93941 0
M  V30 14797 C 1405.48 3.77927 3.60512 0
M  V30 14798 H 1407.17 2.34896 1.85646 0
M  V30 14799 H 1404.72 1.13065 0.891756 0
M  V30 14800 H 1406.67 1.2412 4.02706 0
M  V30 14801 H 1405.4 0.267438 3.25503 0
M  V30 14802 H 1404.06 2.35322 2.81104 0
M  V30 14803 H 1403.7 1.05336 4.91847 0
M  V30 14804 H 1403.4 2.79117 5.17076 0
M  V30 14805 H 1404.93 2.05915 5.74832 0
M  V30 14806 H 1406.34 3.80166 4.29123 0
M  V30 14807 H 1404.74 4.51626 3.95164 0
M  V30 14808 H 1405.81 4.09068 2.60368 0
M  V30 14809 N 1407.15 -0.967221 1.24429 0
M  V30 14810 C 1408.06 -2.09582 1.05417 0
M  V30 14811 C 1409.08 -1.73999 -0.00516127 0
M  V30 14812 O 1410.25 -2.00472 0.193115 0
M  V30 14813 C 1407.32 -3.40327 0.661697 0
M  V30 14814 C 1406.38 -3.89854 1.79756 0
M  V30 14815 C 1405.61 -5.1436 1.42372 0
M  V30 14816 O 1405.84 -5.69536 0.313754 0
M  V30 14817 O 1404.77 -5.58283 2.24952 0
M  V30 14818 H 1408.6 -2.28517 2.00034 0
M  V30 14819 H 1406.18 -1.07978 1.03253 0
M  V30 14820 H 1408.06 -4.18943 0.454369 0
M  V30 14821 H 1406.74 -3.22691 -0.255348 0
M  V30 14822 H 1405.64 -3.12297 2.05964 0
M  V30 14823 H 1406.98 -4.11967 2.69339 0
M  V30 14824 N 1408.63 -1.05812 -1.16797 0
M  V30 14825 C 1409.88 -0.773066 -1.87487 0
M  V30 14826 C 1410.21 0.698471 -1.81204 0
M  V30 14827 O 1409.48 1.51129 -1.22434 0
M  V30 14828 C 1409.77 -1.2621 -3.37258 0
M  V30 14829 C 1409.62 -2.79704 -3.52258 0
M  V30 14830 C 1410.94 -0.866104 -4.31494 0
M  V30 14831 H 1408.06 -0.282304 -0.680789 0
M  V30 14832 H 1410.7 -1.3132 -1.37314 0
M  V30 14833 H 1408.85 -0.802608 -3.80119 0
M  V30 14834 H 1410.52 -3.33824 -3.1837 0
M  V30 14835 H 1408.76 -3.18673 -2.94329 0
M  V30 14836 H 1409.44 -3.08985 -4.57419 0
M  V30 14837 H 1411.91 -1.26178 -3.96508 0
M  V30 14838 H 1410.79 -1.23581 -5.34807 0
M  V30 14839 H 1411.05 0.229391 -4.41504 0
M  V30 14840 N 1410.11 1.33347 -0.840014 0
M  V30 14841 C 1411.04 2.28029 -0.231432 0
M  V30 14842 C 1412.05 1.51792 0.588488 0
M  V30 14843 O 1413.24 1.736 0.415371 0
M  V30 14844 C 1410.34 3.31745 0.692721 0
M  V30 14845 C 1409.51 4.37311 -0.0881144 0
M  V30 14846 C 1408.57 5.20689 0.759557 0
M  V30 14847 O 1407.6 5.68854 0.198347 0
M  V30 14848 N 1408.8 5.42082 2.07672 0
M  V30 14849 H 1411.57 2.80893 -1.04495 0
M  V30 14850 H 1409.13 1.46053 -0.698586 0
M  V30 14851 H 1411.12 3.84428 1.2648 0
M  V30 14852 H 1409.69 2.79148 1.40695 0
M  V30 14853 H 1408.91 3.85112 -0.841579 0
M  V30 14854 H 1410.2 5.04947 -0.624986 0
M  V30 14855 H 1409.6 5.04654 2.55619 0
M  V30 14856 H 1408.15 5.97817 2.59726 0
M  V30 14857 N 1411.59 0.596556 1.45873 0
M  V30 14858 C 1412.83 0.0872856 2.01911 0
M  V30 14859 C 1413.15 -1.28257 1.46885 0
M  V30 14860 O 1412.42 -1.84489 0.658837 0
M  V30 14861 H 1411 0.0292769 0.746426 0
M  V30 14862 H 1413.67 0.775464 1.78809 0
M  V30 14863 H 1412.76 0.0287213 3.12087 0
M  V30 14864 N 1413.06 -1.53996 0.335095 0
M  V30 14865 C 1413.99 -2.2768 -0.518087 0
M  V30 14866 C 1414.97 -1.28915 -1.10972 0
M  V30 14867 O 1416.16 -1.57745 -1.1327 0
M  V30 14868 C 1413.29 -3.04327 -1.67339 0
M  V30 14869 C 1412.24 -4.10525 -1.2105 0
M  V30 14870 C 1411.57 -4.75078 -2.45366 0
M  V30 14871 C 1412.87 -5.21337 -0.317055 0
M  V30 14872 H 1414.56 -2.99244 0.0965669 0
M  V30 14873 H 1412.11 -1.4392 0.0478842 0
M  V30 14874 H 1414.06 -3.54608 -2.27664 0
M  V30 14875 H 1412.79 -2.30399 -2.31481 0
M  V30 14876 H 1411.45 -3.61144 -0.630124 0
M  V30 14877 H 1411.09 -3.97754 -3.07897 0
M  V30 14878 H 1410.79 -5.46822 -2.1508 0
M  V30 14879 H 1412.32 -5.2814 -3.06432 0
M  V30 14880 H 1413.73 -5.67305 -0.826905 0
M  V30 14881 H 1412.13 -6.00006 -0.106458 0
M  V30 14882 H 1413.2 -4.80536 0.649068 0
M  V30 14883 N 1414.54 -0.0635198 -1.57472 0
M  V30 14884 C 1415.79 0.607008 -1.92349 0
M  V30 14885 C 1416.1 1.71268 -0.944806 0
M  V30 14886 O 1417.31 2.44221 -1.18609 0
M  V30 14887 C 1415.77 1.13105 -3.41666 0
M  V30 14888 C 1415.37 0.0568256 -4.47964 0
M  V30 14889 C 1417.12 1.77611 -3.85557 0
M  V30 14890 C 1415.02 0.594443 -5.88405 0
M  V30 14891 H 1413.95 0.230506 -0.717902 0
M  V30 14892 H 1416.61 -0.134413 -1.83007 0
M  V30 14893 H 1414.99 1.92517 -3.46054 0
M  V30 14894 H 1416.16 -0.717371 -4.55182 0
M  V30 14895 H 1414.48 -0.491517 -4.13489 0
M  V30 14896 H 1417.07 2.18852 -4.87861 0
M  V30 14897 H 1417.42 2.6328 -3.22474 0
M  V30 14898 H 1417.95 1.04834 -3.83738 0
M  V30 14899 H 1414.69 -0.224893 -6.55114 0
M  V30 14900 H 1414.21 1.33635 -5.84724 0
M  V30 14901 H 1415.89 1.07346 -6.38033 0
M  V30 14902 N 1416.02 1.56195 0.209972 0
M  V30 14903 C 1417.26 1.81525 0.939574 0
M  V30 14904 C 1417.62 0.638789 1.81062 0
M  V30 14905 O 1418.82 0.771648 2.57486 0
M  V30 14906 C 1417.1 3.11809 1.7467 0
M  V30 14907 S 1418.65 3.58494 2.53036 0
M  V30 14908 H 1415.47 0.637211 0.31541 0
M  V30 14909 H 1418.07 1.94431 0.204175 0
M  V30 14910 H 1416.78 3.95463 1.09715 0
M  V30 14911 H 1416.31 3.01742 2.52419 0
M  V30 14912 H 1418.32 3.2275 3.76891 0
M  V30 14913 N 1417.5 -0.477127 1.50204 0
M  V30 14914 C 1418.75 -1.22722 1.60573 0
M  V30 14915 C 1419.07 -1.92595 0.305326 0
M  V30 14916 O 1418.34 -1.83836 -0.676842 0
M  V30 14917 H 1416.92 -0.455973 0.591691 0
M  V30 14918 H 1419.58 -0.550915 1.86952 0
M  V30 14919 H 1418.67 -1.97837 2.41385 0
M  V30 14920 N 1418.98 -1.3968 -0.729882 0
M  V30 14921 C 1420.39 -1.33184 -1.30839 0
M  V30 14922 C 1420.74 0.00141129 -1.962 0
M  V30 14923 O 1419.86 0.903523 -1.96635 0
M  V30 14924 C 1420.46 -2.41211 -2.37913 0
M  V30 14925 C 1419.02 -2.3822 -2.91424 0
M  V30 14926 C 1418.16 -2.22832 -1.65049 0
M  V30 14927 H 1421.12 -1.49694 -0.527023 0
M  V30 14928 H 1421.14 -2.08294 -3.18424 0
M  V30 14929 H 1420.65 -3.38234 -1.90313 0
M  V30 14930 H 1418.75 -1.4485 -3.43292 0
M  V30 14931 H 1418.86 -3.33271 -3.44191 0
M  V30 14932 H 1417.23 -1.70095 -1.89578 0
M  V30 14933 H 1418.01 -3.21832 -1.19494 0
M  V30 14934 N 1420.45 0.960609 -1.2494 0
M  V30 14935 C 1421.69 1.71937 -1.10531 0
M  V30 14936 C 1422.06 1.88806 0.348766 0
M  V30 14937 O 1423.26 2.61681 0.614539 0
M  V30 14938 C 1421.53 3.0685 -1.83242 0
M  V30 14939 S 1423.09 3.98057 -1.84651 0
M  V30 14940 H 1419.91 0.591061 -0.395181 0
M  V30 14941 H 1422.51 1.14618 -1.58376 0
M  V30 14942 H 1421.21 2.92238 -2.8814 0
M  V30 14943 H 1420.74 3.69233 -1.35759 0
M  V30 14944 H 1422.76 4.8761 -0.919263 0
M  V30 14945 N 1421.93 1.0643 1.16234 0
M  V30 14946 C 1423.18 0.78184 1.86798 0
M  V30 14947 C 1423.51 -0.691734 1.81784 0
M  V30 14948 O 1422.76 -1.52271 1.22931 0
M  V30 14949 C 1423.06 1.22348 3.35806 0
M  V30 14950 C 1422.73 2.7014 3.61019 0
M  V30 14951 C 1421.39 3.1051 3.6761 0
M  V30 14952 C 1423.74 3.65582 3.71482 0
M  V30 14953 C 1421.07 4.45159 3.82165 0
M  V30 14954 C 1423.42 4.99981 3.87559 0
M  V30 14955 C 1422.09 5.39986 3.92392 0
M  V30 14956 H 1421.36 0.286096 0.683542 0
M  V30 14957 H 1424 1.33364 1.37427 0
M  V30 14958 H 1422.31 0.590896 3.87319 0
M  V30 14959 H 1424 0.981959 3.88791 0
M  V30 14960 H 1420.59 2.37884 3.56524 0
M  V30 14961 H 1424.78 3.35525 3.657 0
M  V30 14962 H 1420.03 4.75637 3.8416 0
M  V30 14963 H 1424.21 5.73817 3.94597 0
M  V30 14964 H 1421.84 6.44324 4.03423 0
M  V30 14965 N 1423.41 -1.329 0.847073 0
M  V30 14966 C 1424.64 -2.02244 0.459588 0
M  V30 14967 C 1425.06 -1.63279 -0.933897 0
M  V30 14968 O 1424.42 -0.829551 -1.61208 0
M  V30 14969 C 1424.47 -3.55616 0.59745 0
M  V30 14970 O 1423.57 -4.1071 -0.372919 0
M  V30 14971 H 1422.91 -0.637504 0.1857 0
M  V30 14972 H 1425.44 -1.69617 1.14417 0
M  V30 14973 H 1425.45 -4.05141 0.482145 0
M  V30 14974 H 1424.13 -3.8332 1.61365 0
M  V30 14975 H 1422.7 -3.72283 -0.214487 0
M  V30 14976 N 1424.89 -0.604284 -1.45555 0
M  V30 14977 C 1426.11 -0.102634 -2.07146 0
M  V30 14978 C 1426.54 1.20239 -1.44652 0
M  V30 14979 O 1425.9 1.73133 -0.538033 0
M  V30 14980 C 1425.94 0.0270231 -3.6059 0
M  V30 14981 O 1425.05 1.0781 -3.98059 0
M  V30 14982 H 1424.39 -0.0725667 -0.660023 0
M  V30 14983 H 1426.92 -0.833355 -1.86859 0
M  V30 14984 H 1426.93 0.226299 -4.07372 0
M  V30 14985 H 1425.6 -0.925896 -4.05463 0
M  V30 14986 H 1424.18 0.855552 -3.62953 0
M  V30 14987 N 1426.37 1.53816 -0.343257 0
M  V30 14988 C 1427.3 2.27951 0.506005 0
M  V30 14989 C 1428.28 1.29502 1.10287 0
M  V30 14990 O 1429.46 1.58344 1.12432 0
M  V30 14991 C 1426.59 3.0521 1.65723 0
M  V30 14992 C 1425.55 4.11161 1.18871 0
M  V30 14993 C 1424.87 4.76373 2.42843 0
M  V30 14994 C 1426.17 5.21498 0.289403 0
M  V30 14995 H 1427.87 2.99189 -0.112435 0
M  V30 14996 H 1425.41 1.43893 -0.055516 0
M  V30 14997 H 1427.37 3.55811 2.2578 0
M  V30 14998 H 1426.09 2.31624 2.30256 0
M  V30 14999 H 1424.75 3.61473 0.610962 0
M  V30 15000 H 1424.4 3.99381 3.05784 0
M  V30 15001 H 1424.1 5.47955 2.12177 0
M  V30 15002 H 1425.62 5.29758 3.03627 0
M  V30 15003 H 1427.03 5.67736 0.796808 0
M  V30 15004 H 1425.43 6.00054 0.0746366 0
M  V30 15005 H 1426.5 4.80185 -0.674543 0
M  V30 15006 N 1427.84 0.0718701 1.57436 0
M  V30 15007 C 1429.26 -0.460784 1.80924 0
M  V30 15008 C 1429.61 -1.69637 0.985781 0
M  V30 15009 O 1428.73 -2.15395 0.208319 0
M  V30 15010 C 1429.33 -0.842738 3.28151 0
M  V30 15011 C 1427.89 -1.32026 3.52486 0
M  V30 15012 C 1427.03 -0.305466 2.75612 0
M  V30 15013 H 1429.98 0.297566 1.55885 0
M  V30 15014 H 1430 -1.70414 3.40205 0
M  V30 15015 H 1429.52 0.056733 3.88059 0
M  V30 15016 H 1427.62 -2.23822 2.97883 0
M  V30 15017 H 1427.73 -1.29813 4.61178 0
M  V30 15018 H 1426.09 -0.782758 2.42374 0
M  V30 15019 H 1426.88 0.586279 3.38257 0
M  V30 15020 N 1429.32 -1.56304 -0.201686 0
M  V30 15021 C 1430.23 -1.97215 -1.27057 0
M  V30 15022 C 1431.25 -0.878834 -1.50175 0
M  V30 15023 O 1432.42 -1.18405 -1.62918 0
M  V30 15024 C 1429.49 -2.29772 -2.59626 0
M  V30 15025 C 1428.55 -3.52776 -2.44637 0
M  V30 15026 C 1427.78 -3.83771 -3.70885 0
M  V30 15027 O 1428.01 -3.16149 -4.7477 0
M  V30 15028 O 1426.94 -4.77216 -3.66808 0
M  V30 15029 H 1430.77 -2.88347 -0.953393 0
M  V30 15030 H 1428.35 -1.43773 -0.406158 0
M  V30 15031 H 1430.23 -2.51817 -3.37885 0
M  V30 15032 H 1428.91 -1.41809 -2.90984 0
M  V30 15033 H 1427.82 -3.35986 -1.64512 0
M  V30 15034 H 1429.15 -4.41184 -2.18214 0
M  V30 15035 N 1430.8 0.469154 -1.50455 0
M  V30 15036 C 1431.75 1.56456 -1.65848 0
M  V30 15037 C 1432.73 1.52501 -0.513048 0
M  V30 15038 O 1433.93 1.59492 -0.767542 0
M  V30 15039 C 1431.06 2.94887 -1.75774 0
M  V30 15040 C 1430.14 3.03719 -2.96 0
M  V30 15041 N 1430.53 2.8236 -4.1965 0
M  V30 15042 C 1428.83 3.34856 -2.94597 0
M  V30 15043 C 1429.53 2.96208 -5.00635 0
M  V30 15044 N 1428.51 3.26494 -4.3463 0
M  V30 15045 H 1432.31 1.38646 -2.59142 0
M  V30 15046 H 1429.82 0.675918 -1.47666 0
M  V30 15047 H 1431.82 3.73652 -1.84905 0
M  V30 15048 H 1430.48 3.13743 -0.836396 0
M  V30 15049 H 1431.49 2.57904 -4.49117 0
M  V30 15050 H 1428.17 3.59687 -2.1197 0
M  V30 15051 H 1429.56 2.83918 -6.08966 0
M  V30 15052 N 1432.28 1.40065 0.722464 0
M  V30 15053 C 1433.21 1.42532 1.84951 0
M  V30 15054 C 1434.19 0.287082 1.6766 0
M  V30 15055 O 1435.37 0.494715 1.87793 0
M  V30 15056 C 1432.5 1.28041 3.22836 0
M  V30 15057 C 1431.46 2.39396 3.54787 0
M  V30 15058 C 1430.78 2.09986 4.91742 0
M  V30 15059 C 1432.08 3.81729 3.56483 0
M  V30 15060 H 1433.78 2.36851 1.83144 0
M  V30 15061 H 1431.32 1.14005 0.879714 0
M  V30 15062 H 1433.28 1.28385 4.01367 0
M  V30 15063 H 1432 0.301947 3.25201 0
M  V30 15064 H 1430.66 2.3829 2.78592 0
M  V30 15065 H 1430.31 1.10547 4.90702 0
M  V30 15066 H 1430.01 2.84586 5.14086 0
M  V30 15067 H 1431.53 2.12 5.72615 0
M  V30 15068 H 1432.95 3.84696 4.25067 0
M  V30 15069 H 1431.34 4.55791 3.90351 0
M  V30 15070 H 1432.41 4.11807 2.56014 0
M  V30 15071 N 1433.76 -0.95397 1.25448 0
M  V30 15072 C 1435.01 -1.6953 1.10018 0
M  V30 15073 C 1435.33 -1.9166 -0.359385 0
M  V30 15074 O 1434.6 -1.50417 -1.25506 0
M  V30 15075 H 1433.18 -0.628238 0.404136 0
M  V30 15076 H 1435.84 -1.14691 1.57581 0
M  V30 15077 H 1434.93 -2.67427 1.60901 0
M  V30 15078 N 1435.24 -1.07045 -1.15668 0
M  V30 15079 C 1436.46 -0.812802 -1.9081 0
M  V30 15080 C 1436.89 0.627827 -1.77313 0
M  V30 15081 O 1436.24 1.43836 -1.10368 0
M  V30 15082 C 1436.29 -1.2219 -3.39267 0
M  V30 15083 O 1435.4 -0.365305 -4.10779 0
M  V30 15084 H 1434.74 -0.296385 -0.594182 0
M  V30 15085 H 1437.27 -1.42825 -1.465 0
M  V30 15086 H 1437.28 -1.19674 -3.90054 0
M  V30 15087 H 1435.95 -2.27121 -3.48409 0
M  V30 15088 H 1434.53 -0.452687 -3.70142 0
M  V30 15089 N 1436.71 1.32449 -0.85411 0
M  V30 15090 C 1437.96 1.97563 -0.4579 0
M  V30 15091 C 1438.29 1.67435 0.983835 0
M  V30 15092 O 1437.57 0.962292 1.69027 0
M  V30 15093 C 1437.85 3.53292 -0.69688 0
M  V30 15094 C 1437.7 3.93053 -2.18699 0
M  V30 15095 C 1439.02 4.39834 -0.152917 0
M  V30 15096 H 1436.14 0.717634 -0.167842 0
M  V30 15097 H 1438.78 1.5684 -1.07243 0
M  V30 15098 H 1436.93 3.88111 -0.173807 0
M  V30 15099 H 1438.61 3.68416 -2.7761 0
M  V30 15100 H 1436.85 3.42232 -2.6657 0
M  V30 15101 H 1437.52 5.01576 -2.3049 0
M  V30 15102 H 1440 4.11748 -0.600216 0
M  V30 15103 H 1438.87 5.47785 -0.349703 0
M  V30 15104 H 1439.13 4.31898 0.944276 0
M  V30 15105 N 1438.19 0.611994 1.45232 0
M  V30 15106 C 1439.6 0.193464 1.85695 0
M  V30 15107 C 1439.95 -1.25069 1.5117 0
M  V30 15108 O 1439.08 -1.94894 0.940497 0
M  V30 15109 C 1439.67 0.344334 3.37046 0
M  V30 15110 C 1438.23 -0.0195378 3.76395 0
M  V30 15111 C 1437.38 0.666714 2.69166 0
M  V30 15112 H 1440.33 0.818395 1.35971 0
M  V30 15113 H 1440.35 -0.422209 3.7815 0
M  V30 15114 H 1439.86 1.3955 3.62143 0
M  V30 15115 H 1437.96 -1.06971 3.56915 0
M  V30 15116 H 1438.08 0.377184 4.77613 0
M  V30 15117 H 1436.44 0.103912 2.54488 0
M  V30 15118 H 1437.22 1.7201 2.97099 0
M  V30 15119 N 1439.67 -1.53632 0.351409 0
M  V30 15120 C 1440.62 -2.25281 -0.501724 0
M  V30 15121 C 1441.59 -1.25406 -1.08915 0
M  V30 15122 O 1442.77 -1.54157 -1.1243 0
M  V30 15123 C 1439.91 -3.03491 -1.64278 0
M  V30 15124 C 1439.02 -4.18233 -1.0819 0
M  V30 15125 C 1438.16 -4.83914 -2.1909 0
M  V30 15126 C 1437.2 -5.90712 -1.60394 0
M  V30 15127 N 1436.34 -6.50141 -2.65068 0
M  V30 15128 H 1441.18 -2.97775 0.11579 0
M  V30 15129 H 1438.71 -1.46938 0.0689141 0
M  V30 15130 H 1440.67 -3.47101 -2.31467 0
M  V30 15131 H 1439.3 -2.33279 -2.23116 0
M  V30 15132 H 1438.35 -3.7921 -0.300713 0
M  V30 15133 H 1439.66 -4.95023 -0.612644 0
M  V30 15134 H 1438.82 -5.30635 -2.94128 0
M  V30 15135 H 1437.56 -4.06565 -2.69362 0
M  V30 15136 H 1436.56 -5.43366 -0.838646 0
M  V30 15137 H 1437.79 -6.69973 -1.10964 0
M  V30 15138 H 1435.73 -5.75652 -3.14581 0
M  V30 15139 H 1435.65 -7.22427 -2.22788 0
M  V30 15140 H 1436.92 -7.01513 -3.39852 0
M  V30 15141 N 1441.15 -0.0802183 -1.57396 0
M  V30 15142 C 1442.08 0.913777 -2.10197 0
M  V30 15143 C 1443.09 1.25588 -1.03593 0
M  V30 15144 O 1444.28 1.21159 -1.31083 0
M  V30 15145 C 1441.38 2.2272 -2.55439 0
M  V30 15146 C 1440.55 2.06268 -3.8571 0
M  V30 15147 C 1439.61 3.20989 -4.16956 0
M  V30 15148 O 1438.64 2.95608 -4.8642 0
M  V30 15149 N 1439.84 4.46331 -3.71172 0
M  V30 15150 H 1442.61 0.462908 -2.96103 0
M  V30 15151 H 1440.17 0.105287 -1.61557 0
M  V30 15152 H 1442.16 2.98389 -2.73397 0
M  V30 15153 H 1440.73 2.59278 -1.74624 0
M  V30 15154 H 1439.95 1.15016 -3.77048 0
M  V30 15155 H 1441.24 1.92535 -4.70965 0
M  V30 15156 H 1440.64 4.69837 -3.15071 0
M  V30 15157 H 1439.19 5.18999 -3.94314 0
M  V30 15158 N 1442.63 1.56409 0.193394 0
M  V30 15159 C 1443.56 1.97707 1.24234 0
M  V30 15160 C 1444.54 0.849286 1.47381 0
M  V30 15161 O 1445.72 1.11374 1.59089 0
M  V30 15162 C 1442.85 2.31804 2.5862 0
M  V30 15163 C 1441.81 3.47337 2.50082 0
M  V30 15164 C 1441.13 3.67114 3.88756 0
M  V30 15165 C 1442.43 4.81472 2.02441 0
M  V30 15166 H 1444.13 2.8558 0.89914 0
M  V30 15167 H 1441.67 1.37396 0.431078 0
M  V30 15168 H 1443.62 2.5929 3.32185 0
M  V30 15169 H 1442.35 1.40816 2.94684 0
M  V30 15170 H 1441.01 3.19944 1.78973 0
M  V30 15171 H 1440.66 2.73454 4.22175 0
M  V30 15172 H 1440.36 4.44838 3.83918 0
M  V30 15173 H 1441.88 3.96978 4.6394 0
M  V30 15174 H 1443.29 5.07978 2.65766 0
M  V30 15175 H 1441.69 5.62677 2.08601 0
M  V30 15176 H 1442.76 4.74941 0.977704 0
M  V30 15177 N 1444.1 -0.461169 1.50702 0
M  V30 15178 C 1445.38 -1.22225 1.52711 0
M  V30 15179 C 1445.76 -2.09268 0.27749 0
M  V30 15180 O 1445.11 -2.16232 -0.738642 0
M  V30 15181 C 1445.32 -2.04472 2.82829 0
M  V30 15182 C 1446.67 -2.62326 3.33872 0
M  V30 15183 O 1447.69 -2.14706 2.84218 0
M  V30 15184 O 1446.55 -3.49116 4.20453 0
M  V30 15185 H 1443.64 -0.555168 0.612958 0
M  V30 15186 H 1446.19 -0.47218 1.62999 0
M  V30 15187 H 1444.96 -1.40392 3.65247 0
M  V30 15188 H 1444.58 -2.86593 2.75591 0
M  V30 15189 N 1445.58 -1.40446 -0.715026 0
M  V30 15190 C 1446.83 -1.38754 -1.47491 0
M  V30 15191 C 1447.16 0.0099443 -1.94497 0
M  V30 15192 O 1446.41 0.99458 -1.68543 0
M  V30 15193 C 1446.71 -2.32392 -2.7153 0
M  V30 15194 C 1446.38 -3.79635 -2.43286 0
M  V30 15195 C 1445.04 -4.19751 -2.35293 0
M  V30 15196 C 1447.39 -4.72681 -2.19596 0
M  V30 15197 C 1444.72 -5.50947 -2.01679 0
M  V30 15198 C 1447.07 -6.04176 -1.87495 0
M  V30 15199 C 1445.73 -6.43333 -1.77985 0
M  V30 15200 H 1445 -0.507738 -0.539706 0
M  V30 15201 H 1447.65 -1.73104 -0.81898 0
M  V30 15202 H 1445.96 -1.91229 -3.41963 0
M  V30 15203 H 1447.65 -2.28366 -3.29621 0
M  V30 15204 H 1444.24 -3.47852 -2.50393 0
M  V30 15205 H 1448.43 -4.42506 -2.24727 0
M  V30 15206 H 1443.68 -5.80187 -1.92854 0
M  V30 15207 H 1447.86 -6.75788 -1.68179 0
M  V30 15208 H 1445.48 -7.44909 -1.51706 0
M  V30 15209 N 1447.06 0.947303 -1.25952 0
M  V30 15210 C 1447.99 2.0487 -1.02767 0
M  V30 15211 C 1449 1.62797 0.00985984 0
M  V30 15212 O 1450.19 1.77018 -0.229527 0
M  V30 15213 C 1447.29 3.34682 -0.533048 0
M  V30 15214 C 1446.47 4.05555 -1.63841 0
M  V30 15215 C 1445.53 5.13638 -1.1429 0
M  V30 15216 O 1444.55 5.38682 -1.83876 0
M  V30 15217 N 1445.75 5.80499 0.0119377 0
M  V30 15218 H 1448.52 2.25327 -1.97605 0
M  V30 15219 H 1446.08 1.11636 -1.17256 0
M  V30 15220 H 1448.07 4.04273 -0.185868 0
M  V30 15221 H 1446.64 3.10941 0.321585 0
M  V30 15222 H 1445.86 3.29962 -2.15683 0
M  V30 15223 H 1447.15 4.49661 -2.38081 0
M  V30 15224 H 1446.55 5.62581 0.593212 0
M  V30 15225 H 1445.1 6.51109 0.30009 0
M  V30 15226 N 1448.54 1.07657 1.15099 0
M  V30 15227 C 1449.95 0.802696 1.37945 0
M  V30 15228 C 1450.15 -0.591622 1.92619 0
M  V30 15229 O 1449.21 -1.34979 2.13394 0
M  V30 15230 C 1450.52 1.87907 2.34759 0
M  V30 15231 C 1452.07 1.90418 2.48415 0
M  V30 15232 C 1452.55 2.97148 3.48521 0
M  V30 15233 N 1454.04 2.96271 3.56059 0
M  V30 15234 C 1454.77 3.75498 4.33346 0
M  V30 15235 N 1454.27 4.64583 5.1394 0
M  V30 15236 N 1456.06 3.63831 4.28466 0
M  V30 15237 H 1448.21 1.97578 0.779537 0
M  V30 15238 H 1450.48 0.856978 0.405331 0
M  V30 15239 H 1450.18 2.8811 2.01707 0
M  V30 15240 H 1450.06 1.74183 3.34575 0
M  V30 15241 H 1452.44 0.908655 2.80762 0
M  V30 15242 H 1452.52 2.0822 1.48586 0
M  V30 15243 H 1452.17 3.96903 3.16908 0
M  V30 15244 H 1452.1 2.76593 4.48112 0
M  V30 15245 H 1454.59 2.31697 2.98538 0
M  V30 15246 H 1454.9 5.2166 5.70167 0
M  V30 15247 H 1453.25 4.6863 5.13236 0
M  V30 15248 H 1456.44 2.93609 3.6457 0
M  V30 15249 H 1456.61 4.25818 4.8845 0
M  V30 15250 N 1450.02 -1.31994 0.861122 0
M  V30 15251 C 1450.97 -2.26248 0.282123 0
M  V30 15252 C 1451.95 -1.50246 -0.57575 0
M  V30 15253 O 1453.14 -1.71845 -0.424075 0
M  V30 15254 C 1450.27 -3.39293 -0.523011 0
M  V30 15255 C 1449.36 -4.22673 0.34761 0
M  V30 15256 N 1449.75 -4.8496 1.43692 0
M  V30 15257 C 1448.05 -4.45785 0.138488 0
M  V30 15258 C 1448.75 -5.47215 1.97307 0
M  V30 15259 N 1447.72 -5.28525 1.27132 0
M  V30 15260 H 1451.53 -2.71936 1.11481 0
M  V30 15261 H 1449.04 -1.46158 0.707928 0
M  V30 15262 H 1451.04 -4.05832 -0.954269 0
M  V30 15263 H 1449.7 -2.95149 -1.35341 0
M  V30 15264 H 1450.71 -4.84873 1.81985 0
M  V30 15265 H 1447.38 -4.12303 -0.656677 0
M  V30 15266 H 1448.77 -6.06737 2.88652 0
M  V30 15267 N 1451.49 -0.619688 -1.44906 0
M  V30 15268 C 1452.74 -0.119397 -2.01747 0
M  V30 15269 C 1453.06 1.25904 -1.48907 0
M  V30 15270 O 1452.33 1.83417 -0.688104 0
M  V30 15271 H 1450.91 -0.0411482 -0.745866 0
M  V30 15272 H 1453.58 -0.803813 -1.77552 0
M  V30 15273 H 1452.67 -0.078368 -3.12002 0
M  V30 15274 N 1452.97 1.53444 -0.359552 0
M  V30 15275 C 1454.2 2.06058 0.235576 0
M  V30 15276 C 1454.62 1.23175 1.42161 0
M  V30 15277 O 1453.98 0.249338 1.79577 0
M  V30 15278 C 1454.03 3.55351 0.613025 0
M  V30 15279 O 1453.13 3.75229 1.71104 0
M  V30 15280 H 1452.47 0.663038 0.0357266 0
M  V30 15281 H 1455 1.97923 -0.518408 0
M  V30 15282 H 1455.01 3.9827 0.885722 0
M  V30 15283 H 1453.69 4.15122 -0.254243 0
M  V30 15284 H 1452.27 3.4421 1.43437 0
M  V30 15285 N 1454.45 0.0885642 1.57351 0
M  V30 15286 C 1455.73 -0.618587 1.85561 0
M  V30 15287 C 1456.11 -1.86753 0.984206 0
M  V30 15288 O 1455.46 -2.28434 0.0548839 0
M  V30 15289 C 1455.67 -0.940222 3.36096 0
M  V30 15290 C 1457.01 -1.30649 4.04 0
M  V30 15291 O 1458.04 -1.03144 3.4094 0
M  V30 15292 O 1456.9 -1.82135 5.15256 0
M  V30 15293 H 1453.99 -0.308881 0.767152 0
M  V30 15294 H 1456.54 0.120767 1.6927 0
M  V30 15295 H 1455.31 -0.0538991 3.91263 0
M  V30 15296 H 1454.93 -1.73577 3.5771 0
M  V30 15297 N 1455.93 -1.56509 -0.185096 0
M  V30 15298 C 1457.34 -1.71024 -0.748856 0
M  V30 15299 C 1457.69 -0.69681 -1.83409 0
M  V30 15300 O 1456.82 0.144711 -2.15916 0
M  V30 15301 C 1457.41 -3.1008 -1.36513 0
M  V30 15302 C 1455.97 -3.26325 -1.87587 0
M  V30 15303 C 1455.12 -2.66977 -0.749579 0
M  V30 15304 H 1458.07 -1.58649 0.0401175 0
M  V30 15305 H 1458.09 -3.07965 -2.23468 0
M  V30 15306 H 1457.6 -3.83816 -0.575051 0
M  V30 15307 H 1455.7 -2.57522 -2.69283 0
M  V30 15308 H 1455.81 -4.33931 -2.03078 0
M  V30 15309 H 1454.18 -2.26419 -1.16647 0
M  V30 15310 H 1454.96 -3.43288 0.0284301 0
M  V30 15311 N 1457.41 0.45317 -1.50944 0
M  V30 15312 C 1458.65 1.20151 -1.62506 0
M  V30 15313 C 1458.98 1.92085 -0.335927 0
M  V30 15314 O 1458.25 1.84889 0.64751 0
M  V30 15315 H 1456.83 0.446502 -0.59887 0
M  V30 15316 H 1459.49 0.521103 -1.87804 0
M  V30 15317 H 1458.58 1.93972 -2.44502 0
M  V30 15318 N 1458.88 1.40823 0.707568 0
M  V30 15319 C 1460.13 1.39535 1.46753 0
M  V30 15320 C 1460.46 0.000370511 1.945 0
M  V30 15321 O 1459.71 -0.985628 1.69068 0
M  V30 15322 C 1460.01 2.33829 2.70294 0
M  V30 15323 C 1459.68 3.8092 2.41269 0
M  V30 15324 C 1458.34 4.20993 2.33063 0
M  V30 15325 C 1460.69 4.73839 2.17086 0
M  V30 15326 C 1458.02 5.52009 1.98754 0
M  V30 15327 C 1460.37 6.05161 1.84289 0
M  V30 15328 C 1459.04 6.44268 1.74571 0
M  V30 15329 H 1458.31 0.510593 0.537006 0
M  V30 15330 H 1460.95 1.73536 0.809789 0
M  V30 15331 H 1459.26 1.9304 3.40944 0
M  V30 15332 H 1460.96 2.30111 3.28405 0
M  V30 15333 H 1457.55 3.49175 2.48545 0
M  V30 15334 H 1461.73 4.43691 2.22377 0
M  V30 15335 H 1456.99 5.81202 1.89774 0
M  V30 15336 H 1461.16 6.7667 1.64593 0
M  V30 15337 H 1458.79 7.45703 1.47753 0
M  V30 15338 N 1460.36 -0.94061 1.26453 0
M  V30 15339 C 1461.33 -2.02096 1.0812 0
M  V30 15340 C 1462.33 -1.60773 0.0293393 0
M  V30 15341 O 1463.52 -1.72051 0.272796 0
M  V30 15342 C 1460.65 -3.34749 0.644646 0
M  V30 15343 H 1461.84 -2.19792 2.04038 0
M  V30 15344 H 1459.39 -1.11965 1.09058 0
M  V30 15345 H 1460.13 -3.22752 -0.316509 0
M  V30 15346 H 1459.91 -3.66095 1.40416 0
M  V30 15347 H 1461.4 -4.14117 0.538233 0
M  V30 15348 N 1461.84 -1.08266 -1.14527 0
M  V30 15349 C 1463.09 -0.809856 -1.85164 0
M  V30 15350 C 1463.41 0.666263 -1.83265 0
M  V30 15351 O 1462.68 1.48295 -1.28006 0
M  V30 15352 H 1461.26 -0.296598 -0.685594 0
M  V30 15353 H 1463.92 -1.36834 -1.38789 0
M  V30 15354 H 1463.02 -1.15272 -2.90032 0
M  V30 15355 N 1463.32 1.31536 -0.86811 0
M  V30 15356 C 1464.54 2.01487 -0.491705 0
M  V30 15357 C 1464.97 1.64744 0.907803 0
M  V30 15358 O 1464.33 0.855093 1.59868 0
M  V30 15359 C 1464.38 3.54621 -0.65395 0
M  V30 15360 O 1463.48 4.11252 0.307532 0
M  V30 15361 H 1462.82 0.634469 -0.195819 0
M  V30 15362 H 1465.35 1.67775 -1.17101 0
M  V30 15363 H 1465.36 4.04323 -0.546539 0
M  V30 15364 H 1464.04 3.80704 -1.67443 0
M  V30 15365 H 1462.61 3.72577 0.155233 0
M  V30 15366 N 1464.8 0.627364 1.44575 0
M  V30 15367 C 1466.04 0.139049 2.02924 0
M  V30 15368 C 1466.4 -1.22408 1.48439 0
M  V30 15369 O 1465.69 -1.7997 0.657374 0
M  V30 15370 C 1465.89 0.0622409 3.57346 0
M  V30 15371 C 1465.71 1.41638 4.26812 0
M  V30 15372 C 1464.48 2.00219 4.6394 0
M  V30 15373 C 1466.68 2.34942 4.57501 0
M  V30 15374 N 1464.66 3.28907 5.18356 0
M  V30 15375 C 1466.04 3.48242 5.1296 0
M  V30 15376 C 1468.09 2.34068 4.3945 0
M  V30 15377 C 1466.79 4.60859 5.52269 0
M  V30 15378 C 1468.82 3.45746 4.79806 0
M  V30 15379 C 1468.18 4.5777 5.35375 0
M  V30 15380 H 1464.28 0.094714 0.776243 0
M  V30 15381 H 1466.86 0.830037 1.76121 0
M  V30 15382 H 1465.04 -0.598017 3.83769 0
M  V30 15383 H 1466.77 -0.434554 4.0236 0
M  V30 15384 H 1463.52 1.53205 4.48135 0
M  V30 15385 H 1463.95 3.94691 5.50044 0
M  V30 15386 H 1468.59 1.4871 3.95784 0
M  V30 15387 H 1466.31 5.46927 5.94892 0
M  V30 15388 H 1469.89 3.46241 4.67556 0
M  V30 15389 H 1468.77 5.42757 5.66025 0
M  V30 15390 N 1466.28 -1.53251 0.367684 0
M  V30 15391 C 1467.52 -2.00889 -0.220914 0
M  V30 15392 C 1467.84 -1.25662 -1.4911 0
M  V30 15393 O 1467.11 -0.370491 -1.92365 0
M  V30 15394 H 1465.69 -0.742191 -0.0846233 0
M  V30 15395 H 1468.36 -1.88525 0.494402 0
M  V30 15396 H 1467.45 -3.08891 -0.446414 0
M  V30 15397 N 1467.75 -0.0969077 -1.57302 0
M  V30 15398 C 1468.7 0.872039 -2.10664 0
M  V30 15399 C 1469.69 1.24265 -1.02211 0
M  V30 15400 O 1470.88 1.21743 -1.28482 0
M  V30 15401 C 1468.01 2.13042 -2.69199 0
M  V30 15402 C 1467.09 1.78517 -3.84698 0
M  V30 15403 N 1467.49 1.14558 -4.92656 0
M  V30 15404 C 1465.78 2.08115 -3.94467 0
M  V30 15405 C 1466.48 0.986837 -5.73268 0
M  V30 15406 N 1465.46 1.50473 -5.22359 0
M  V30 15407 H 1469.26 0.373625 -2.91515 0
M  V30 15408 H 1466.78 0.10625 -1.62052 0
M  V30 15409 H 1468.77 2.83403 -3.05759 0
M  V30 15410 H 1467.43 2.63448 -1.89803 0
M  V30 15411 H 1468.44 0.812179 -5.11492 0
M  V30 15412 H 1465.12 2.60722 -3.26083 0
M  V30 15413 H 1466.51 0.48651 -6.70136 0
M  V30 15414 O 1469.27 1.61443 0.0430754 0
M  V30 15415 H 1469.96 1.81912 0.665422 0
M  V30 END ATOM
M  V30 BEGIN BOND
M  V30 END BOND
M  V30 END CTAB
M  END
$$$$
