drugbank_target|P04083 Annexin A1 (DB00288; DB00591; DB00741; DB00959; DB01013; DB01222; DB01234; DB14538; DB14539; DB14540; DB14541; DB14542; DB14543; DB14544; DB14631; DB14649; DB14669)
 OpenBabel12092119313D

  0  0  0     0  0            999 V3000
M  V30 BEGIN CTAB
M  V30 COUNTS 5473 5509 0 0 0
M  V30 BEGIN ATOM
M  V30 1 H -0.908 1.98254 -0.117106 0
M  V30 2 N 0 1.576 0 0
M  V30 3 C 0.933 2.03868 1.02534 0
M  V30 4 C 1.911 0.928543 1.3348 0
M  V30 5 O 3.095 1.19667 1.45644 0
M  V30 6 C 0.222 2.43627 2.35294 0
M  V30 7 C -0.732 3.65373 2.2001 0
M  V30 8 S 0.101 5.13292 1.52614 0
M  V30 9 C 1.257 5.56322 2.86805 0
M  V30 10 H 1.49 2.90518 0.631377 0
M  V30 11 H -0.977 1.52953 0.210867 0
M  V30 12 H 0.981 2.67203 3.11629 0
M  V30 13 H -0.358 1.57376 2.7183 0
M  V30 14 H -1.165 3.90944 3.18086 0
M  V30 15 H -1.563 3.418 1.51819 0
M  V30 16 H 0.729 5.58782 3.83104 0
M  V30 17 H 1.672 6.56266 2.65933 0
M  V30 18 H 2.08 4.83886 2.90714 0
M  V30 19 N 1.4781 -0.272755 1.55222 0
M  V30 20 C 2.4411 -1.32041 1.87344 0
M  V30 21 C 3.4411 -1.42342 0.74803 0
M  V30 22 O 4.6311 -1.41488 1.0162 0
M  V30 23 C 1.7631 -2.70173 2.07893 0
M  V30 24 H 2.9561 -1.04789 2.80997 0
M  V30 25 H 0.5091 -0.51083 1.47717 0
M  V30 26 H 1.2441 -3.02605 1.16622 0
M  V30 27 H 1.0291 -2.64082 2.89833 0
M  V30 28 H 2.5191 -3.45869 2.34017 0
M  V30 29 N 2.9562 -1.48159 -0.537278 0
M  V30 30 C 3.8892 -1.567 -1.65893 0
M  V30 31 C 4.8672 -0.41787 -1.57139 0
M  V30 32 O 6.0512 -0.628461 -1.77715 0
M  V30 33 C 3.1782 -1.48818 -3.04255 0
M  V30 34 C 2.2242 -2.68482 -3.31391 0
M  V30 35 S 3.0572 -4.30516 -3.1846 0
M  V30 36 C 4.2132 -4.2522 -4.59281 0
M  V30 37 H 4.4462 -2.5159 -1.58397 0
M  V30 38 H 1.9792 -1.36602 -0.719672 0
M  V30 39 H 3.9372 -1.44958 -3.84054 0
M  V30 40 H 2.5982 -0.552777 -3.09198 0
M  V30 41 H 1.7912 -2.59085 -4.32309 0
M  V30 42 H 1.3932 -2.69567 -2.59248 0
M  V30 43 H 3.6852 -3.94703 -5.5065 0
M  V30 44 H 4.6282 -5.26292 -4.73732 0
M  V30 45 H 5.0362 -3.55791 -4.38261 0
M  V30 46 N 4.4343 0.785586 -1.36625 0
M  V30 47 C 5.6803 1.54591 -1.31261 0
M  V30 48 C 6.0133 1.93906 0.106823 0
M  V30 49 O 5.2883 1.63007 1.06108 0
M  V30 50 C 5.5713 2.82038 -2.23889 0
M  V30 51 C 5.4243 2.49066 -3.74548 0
M  V30 52 C 6.7433 3.83887 -2.15217 0
M  V30 53 H 3.8623 0.560846 -0.478143 0
M  V30 54 H 6.5043 0.902278 -1.67209 0
M  V30 55 H 4.6543 3.36961 -1.93363 0
M  V30 56 H 6.3263 2.00164 -4.15611 0
M  V30 57 H 4.5693 1.81954 -3.93796 0
M  V30 58 H 5.2403 3.40109 -4.34776 0
M  V30 59 H 7.7163 3.38421 -2.42096 0
M  V30 60 H 6.5923 4.70806 -2.82193 0
M  V30 61 H 6.8533 4.27131 -1.14068 0
M  V30 62 N 5.9124 1.20967 1.01018 0
M  V30 63 C 7.1374 1.0503 1.78839 0
M  V30 64 C 7.5624 -0.395752 1.8389 0
M  V30 65 O 6.9204 -1.28529 1.27867 0
M  V30 66 C 6.9684 1.64602 3.2084 0
M  V30 67 O 6.0724 0.887988 4.02726 0
M  V30 68 H 5.4134 0.369987 0.551367 0
M  V30 69 H 7.9434 1.60399 1.27018 0
M  V30 70 H 7.9534 1.68607 3.71532 0
M  V30 71 H 6.6284 2.69841 3.16479 0
M  V30 72 H 5.2054 0.922648 3.61305 0
M  V30 73 N 7.3905 -1.2043 1.01659 0
M  V30 74 C 8.3005 -2.2689 0.596484 0
M  V30 75 C 9.3165 -1.70107 -0.36599 0
M  V30 76 O 10.4925 -2.00117 -0.226942 0
M  V30 77 C 7.5575 -3.4665 -0.0586659 0
M  V30 78 C 6.6185 -4.18662 0.949751 0
M  V30 79 C 5.8515 -5.32705 0.32577 0
M  V30 80 O 6.0745 -5.63656 -0.874509 0
M  V30 81 O 5.0085 -5.92803 1.04249 0
M  V30 82 H 8.8345 -2.65041 1.4828 0
M  V30 83 H 6.4195 -1.27048 0.786082 0
M  V30 84 H 8.3015 -4.19256 -0.424564 0
M  V30 85 H 6.9765 -3.10375 -0.91918 0
M  V30 86 H 5.8835 -3.48229 1.36702 0
M  V30 87 H 7.2165 -4.58878 1.78023 0
M  V30 88 N 8.8686 -0.792821 -1.36206 0
M  V30 89 C 10.1156 -0.366786 -1.99151 0
M  V30 90 C 10.4436 1.06243 -1.62919 0
M  V30 91 O 9.6986 1.74927 -0.877442 0
M  V30 92 C 9.9976 -0.481501 -3.54142 0
M  V30 93 C 9.6636 -1.87202 -4.10203 0
M  V30 94 C 8.3256 -2.25248 -4.25226 0
M  V30 95 C 10.6776 -2.78237 -4.40719 0
M  V30 96 C 8.0056 -3.53723 -4.68078 0
M  V30 97 C 10.3576 -4.06144 -4.85005 0
M  V30 98 C 9.0216 -4.44207 -4.98234 0
M  V30 99 H 8.2916 -0.134217 -0.728743 0
M  V30 100 H 10.9386 -1.01094 -1.62641 0
M  V30 101 H 9.2436 0.246146 -3.91026 0
M  V30 102 H 10.9406 -0.132844 -4.0078 0
M  V30 103 H 7.5306 -1.56639 -3.98951 0
M  V30 104 H 11.7146 -2.50097 -4.28679 0
M  V30 105 H 6.9706 -3.8308 -4.76508 0
M  V30 106 H 11.1446 -4.76796 -5.07581 0
M  V30 107 H 8.7716 -5.43814 -5.31197 0
M  V30 108 N 10.3467 1.47872 -0.545128 0
M  V30 109 C 11.2767 2.32661 0.197793 0
M  V30 110 C 12.2577 1.43041 0.920504 0
M  V30 111 O 13.4427 1.71912 0.90333 0
M  V30 112 C 10.5727 3.24569 1.23582 0
M  V30 113 C 9.5267 4.23333 0.630323 0
M  V30 114 C 8.8527 5.0448 1.77211 0
M  V30 115 C 10.1527 5.20704 -0.407974 0
M  V30 116 H 11.8467 2.95024 -0.510045 0
M  V30 117 H 9.3927 1.4187 -0.246731 0
M  V30 118 H 11.3457 3.8272 1.76362 0
M  V30 119 H 10.0697 2.60236 1.97344 0
M  V30 120 H 8.7287 3.6639 0.123922 0
M  V30 121 H 8.3767 4.36561 2.49847 0
M  V30 122 H 8.0767 5.71339 1.37281 0
M  V30 123 H 9.6007 5.65487 2.3034 0
M  V30 124 H 11.0147 5.7329 0.033305 0
M  V30 125 H 9.4117 5.95699 -0.725486 0
M  V30 126 H 10.4817 4.66917 -1.30828 0
M  V30 127 N 11.8248 0.280983 1.55075 0
M  V30 128 C 12.7718 -0.603937 2.22758 0
M  V30 129 C 13.7418 -1.1452 1.20309 0
M  V30 130 O 14.9268 -1.19343 1.48869 0
M  V30 131 C 12.0668 -1.77947 2.95684 0
M  V30 132 C 11.1798 -1.2715 4.12864 0
M  V30 133 C 10.3148 -2.4093 4.7342 0
M  V30 134 C 9.3538 -1.87165 5.82783 0
M  V30 135 N 8.4908 -2.94441 6.37377 0
M  V30 136 H 13.3308 -0.020124 2.97993 0
M  V30 137 H 10.8678 0.00183425 1.471 0
M  V30 138 H 12.8258 -2.47055 3.36184 0
M  V30 139 H 11.4558 -2.33522 2.22861 0
M  V30 140 H 10.5078 -0.473331 3.77444 0
M  V30 141 H 11.8198 -0.837751 4.91715 0
M  V30 142 H 10.9738 -3.18021 5.1667 0
M  V30 143 H 9.7128 -2.87623 3.93859 0
M  V30 144 H 8.7178 -1.08556 5.38976 0
M  V30 145 H 9.9428 -1.41401 6.64216 0
M  V30 146 H 7.8888 -3.40505 5.60707 0
M  V30 147 H 7.8058 -2.55501 7.11516 0
M  V30 148 H 9.0738 -3.71489 6.85285 0
M  V30 149 N 13.3029 -1.57598 0.00835791 0
M  V30 150 C 14.2349 -2.05811 -1.00868 0
M  V30 151 C 15.2479 -0.977579 -1.30182 0
M  V30 152 O 16.4369 -1.25421 -1.27011 0
M  V30 153 C 13.5369 -2.45016 -2.34137 0
M  V30 154 C 12.7099 -3.75903 -2.23643 0
M  V30 155 C 11.7689 -4.01884 -3.3967 0
M  V30 156 O 10.7949 -4.72433 -3.17483 0
M  V30 157 N 11.9969 -3.50432 -4.62793 0
M  V30 158 H 14.7619 -2.93684 -0.597458 0
M  V30 159 H 12.3229 -1.60909 -0.178852 0
M  V30 160 H 14.3149 -2.59506 -3.10546 0
M  V30 161 H 12.8849 -1.62618 -2.66972 0
M  V30 162 H 12.1049 -3.7141 -1.32091 0
M  V30 163 H 13.3929 -4.61695 -2.13812 0
M  V30 164 H 12.7909 -2.93317 -4.83716 0
M  V30 165 H 11.3479 -3.70236 -5.3644 0
M  V30 166 N 14.781 0.264519 -1.55364 0
M  V30 167 C 15.744 1.31046 -1.88042 0
M  V30 168 C 16.744 1.41943 -0.755569 0
M  V30 169 O 17.934 1.40947 -1.02369 0
M  V30 170 C 15.066 2.69067 -2.09323 0
M  V30 171 H 16.259 1.03297 -2.81549 0
M  V30 172 H 13.812 0.502989 -1.47986 0
M  V30 173 H 14.547 3.01982 -1.18226 0
M  V30 174 H 14.332 2.62542 -2.91229 0
M  V30 175 H 15.822 3.44623 -2.35848 0
M  V30 176 N 16.2591 1.48442 0.529413 0
M  V30 177 C 17.5051 1.57699 1.28463 0
M  V30 178 C 17.8601 0.247913 1.90796 0
M  V30 179 O 17.1531 -0.749279 1.76342 0
M  V30 180 C 17.3471 2.6523 2.39558 0
M  V30 181 C 17.1761 4.08464 1.88114 0
M  V30 182 C 15.9461 4.75596 1.70693 0
M  V30 183 C 18.1441 4.94613 1.40935 0
M  V30 184 N 16.1261 6.03245 1.13881 0
M  V30 185 C 17.4971 6.12511 0.960734 0
M  V30 186 C 19.5521 4.80833 1.29243 0
M  V30 187 C 18.2551 7.18149 0.406792 0
M  V30 188 C 20.2811 5.86593 0.752487 0
M  V30 189 C 19.6431 7.037 0.313946 0
M  V30 190 H 15.7421 0.631608 0.46108 0
M  V30 191 H 18.3261 1.85325 0.596886 0
M  V30 192 H 16.4971 2.39425 3.05827 0
M  V30 193 H 18.2291 2.64169 3.06589 0
M  V30 194 H 14.9841 4.31938 1.94232 0
M  V30 195 H 15.4081 6.71324 0.874831 0
M  V30 196 H 20.0501 3.90635 1.61754 0
M  V30 197 H 17.7681 8.0807 0.0693671 0
M  V30 198 H 21.3541 5.77985 0.665192 0
M  V30 199 H 20.2341 7.8414 -0.0973632 0
M  V30 200 N 17.7372 -0.778329 1.37039 0
M  V30 201 C 18.9842 -1.53665 1.31884 0
M  V30 202 C 19.3122 -1.9425 -0.0986303 0
M  V30 203 O 18.5672 -1.63832 -1.07041 0
M  V30 204 C 18.8662 -2.81845 2.19768 0
M  V30 205 C 18.5322 -2.60345 3.68146 0
M  V30 206 C 17.1942 -2.5419 4.08584 0
M  V30 207 C 19.5462 -2.40923 4.62175 0
M  V30 208 C 16.8742 -2.26594 5.41177 0
M  V30 209 C 19.2262 -2.14852 5.94997 0
M  V30 210 C 17.8902 -2.07137 6.34547 0
M  V30 211 H 17.1602 -0.562299 0.482598 0
M  V30 212 H 19.8072 -0.897069 1.69189 0
M  V30 213 H 18.1122 -3.50328 1.75436 0
M  V30 214 H 19.8092 -3.39692 2.13097 0
M  V30 215 H 16.3992 -2.65996 3.36072 0
M  V30 216 H 20.5832 -2.44673 4.31797 0
M  V30 217 H 15.8392 -2.19111 5.70789 0
M  V30 218 H 20.0132 -1.98822 6.67415 0
M  V30 219 H 17.6402 -1.85518 7.37216 0
M  V30 220 N 19.2153 -1.21501 -1.00376 0
M  V30 221 C 20.4643 -1.02718 -1.73586 0
M  V30 222 C 20.7773 0.439589 -1.90596 0
M  V30 223 O 21.9833 0.746848 -2.61026 0
M  V30 224 C 20.4393 -1.78929 -3.1227 0
M  V30 225 C 20.0473 -3.29783 -3.03228 0
M  V30 226 C 21.7913 -1.68557 -3.89601 0
M  V30 227 C 19.6983 -3.98479 -4.36999 0
M  V30 228 H 18.6283 -0.380733 -0.650814 0
M  V30 229 H 21.2793 -1.45248 -1.1214 0
M  V30 230 H 19.6613 -1.29192 -3.74333 0
M  V30 231 H 20.8353 -3.86832 -2.50395 0
M  V30 232 H 19.1503 -3.40711 -2.39385 0
M  V30 233 H 21.7473 -2.17211 -4.88593 0
M  V30 234 H 22.0903 -0.644021 -4.11288 0
M  V30 235 H 22.6233 -2.15778 -3.34193 0
M  V30 236 H 19.3623 -5.02841 -4.20513 0
M  V30 237 H 18.8823 -3.46219 -4.89788 0
M  V30 238 H 20.5613 -4.03462 -5.05794 0
M  V30 239 N 20.6934 1.19889 -1.02296 0
M  V30 240 C 21.6034 2.26571 -0.608508 0
M  V30 241 C 22.6194 1.70299 0.356964 0
M  V30 242 O 23.7954 2.00235 0.216326 0
M  V30 243 C 20.8604 3.46677 0.0402814 0
M  V30 244 C 19.9214 4.18153 -0.97194 0
M  V30 245 C 19.1544 5.32525 -0.354016 0
M  V30 246 O 19.3774 5.64112 0.844604 0
M  V30 247 O 18.3114 5.92242 -1.07391 0
M  V30 248 H 22.1374 2.64251 -1.49684 0
M  V30 249 H 19.7224 1.26629 -0.792809 0
M  V30 250 H 21.6044 4.19475 0.402324 0
M  V30 251 H 20.2794 3.10858 0.902707 0
M  V30 252 H 19.1864 3.47499 -1.38546 0
M  V30 253 H 20.5194 4.57927 -1.80454 0
M  V30 254 N 22.1715 0.800033 1.35784 0
M  V30 255 C 23.1195 0.193851 2.31791 0
M  V30 256 C 24.1135 -0.652744 1.56319 0
M  V30 257 O 25.3195 -0.546641 1.71499 0
M  V30 258 H 21.6945 0.04392 0.750716 0
M  V30 259 H 23.6655 1.01883 2.80468 0
M  V30 260 C 22.4145 -0.648338 3.41602 0
M  V30 261 H 21.7375 -0.00624665 3.998 0
M  V30 262 H 23.1775 -1.03898 4.11073 0
M  V30 263 C 21.6365 -1.8111 2.84079 0
M  V30 264 O 22.1665 -2.90825 2.77099 0
M  V30 265 N 20.3725 -1.62056 2.41218 0
M  V30 266 H 19.9195 -0.728123 2.47095 0
M  V30 267 H 19.8775 -2.40013 2.03079 0
M  V30 268 N 23.6496 -1.47581 0.552962 0
M  V30 269 C 24.5596 -2.33743 -0.200353 0
M  V30 270 C 25.5756 -1.47928 -0.916151 0
M  V30 271 O 26.7516 -1.80865 -0.885993 0
M  V30 272 C 23.8166 -3.24536 -1.21973 0
M  V30 273 C 22.8776 -4.26238 -0.511819 0
M  V30 274 C 22.1106 -5.12693 -1.48263 0
M  V30 275 O 22.3336 -5.01525 -2.71714 0
M  V30 276 O 21.2676 -5.93375 -1.00945 0
M  V30 277 H 25.0936 -2.9945 0.506304 0
M  V30 278 H 22.6786 -1.46071 0.313622 0
M  V30 279 H 24.5606 -3.80631 -1.80827 0
M  V30 280 H 23.2356 -2.61462 -1.90839 0
M  V30 281 H 22.1426 -3.73914 0.117799 0
M  V30 282 H 23.4756 -4.92014 0.135308 0
M  V30 283 N 25.1277 -0.289203 -1.54924 0
M  V30 284 C 26.0377 0.601863 -2.26748 0
M  V30 285 C 27.0537 1.15834 -1.2984 0
M  V30 286 O 28.2297 1.18564 -1.62802 0
M  V30 287 C 25.2947 1.76299 -2.98529 0
M  V30 288 C 24.3557 1.24178 -4.10948 0
M  V30 289 C 23.5887 2.34757 -4.79296 0
M  V30 290 O 23.8117 3.54411 -4.46933 0
M  V30 291 O 22.7457 2.02115 -5.66951 0
M  V30 292 H 26.5717 0.0195879 -3.03694 0
M  V30 293 H 24.1567 -0.0560868 -1.49295 0
M  V30 294 H 26.0387 2.43973 -3.43592 0
M  V30 295 H 24.7137 2.33209 -2.24488 0
M  V30 296 H 23.6207 0.531104 -3.70311 0
M  V30 297 H 24.9537 0.718252 -4.86931 0
M  V30 298 N 26.6058 1.57591 -0.0167156 0
M  V30 299 C 27.5378 2.06343 0.997753 0
M  V30 300 C 28.5508 0.984469 1.29661 0
M  V30 301 O 29.7398 1.26093 1.26344 0
M  V30 302 C 26.8398 2.46255 2.32834 0
M  V30 303 C 26.0128 3.77083 2.21646 0
M  V30 304 C 25.0718 4.0368 3.37534 0
M  V30 305 O 24.0978 4.7411 3.14973 0
M  V30 306 N 25.2998 3.52881 4.60929 0
M  V30 307 H 28.0648 2.93997 0.581875 0
M  V30 308 H 25.6258 1.61002 0.170316 0
M  V30 309 H 27.6178 2.61149 3.09166 0
M  V30 310 H 26.1878 1.64032 2.66106 0
M  V30 311 H 25.4078 3.72106 1.30119 0
M  V30 312 H 26.6958 4.62822 2.11361 0
M  V30 313 H 26.0938 2.95878 4.82154 0
M  V30 314 H 24.6508 3.73076 5.34469 0
M  V30 315 N 28.0839 -0.256276 1.55502 0
M  V30 316 C 28.9939 -1.33882 1.92647 0
M  V30 317 C 30.0099 -1.53159 0.825727 0
M  V30 318 O 31.1859 -1.66963 1.12629 0
M  V30 319 C 28.2509 -2.6751 2.20543 0
M  V30 320 C 27.3119 -2.56836 3.43997 0
M  V30 321 C 26.5449 -3.84092 3.70553 0
M  V30 322 O 26.7679 -4.85545 2.99336 0
M  V30 323 O 25.7019 -3.83288 4.64084 0
M  V30 324 H 29.5279 -1.05374 2.84833 0
M  V30 325 H 27.1129 -0.456237 1.42263 0
M  V30 326 H 28.9949 -3.46492 2.39835 0
M  V30 327 H 27.6699 -2.9577 1.31536 0
M  V30 328 H 26.5769 -1.76172 3.30021 0
M  V30 329 H 27.9099 -2.33523 4.33275 0
M  V30 330 N 29.562 -1.4872 -0.521534 0
M  V30 331 C 30.792 -1.6061 -1.29954 0
M  V30 332 C 31.2 -0.268728 -1.87282 0
M  V30 333 O 30.543 0.753221 -1.67548 0
M  V30 334 C 30.605 -2.60013 -2.48261 0
M  V30 335 C 30.269 -4.04874 -2.11957 0
M  V30 336 C 31.266 -4.92304 -1.67132 0
M  V30 337 C 28.951 -4.5047 -2.22221 0
M  V30 338 C 30.945 -6.2336 -1.33047 0
M  V30 339 C 28.632 -5.81544 -1.87748 0
M  V30 340 C 29.63 -6.67812 -1.43234 0
M  V30 341 O 29.318 -7.96446 -1.09217 0
M  V30 342 H 29.05 -0.544116 -0.401141 0
M  V30 343 H 31.604 -1.95339 -0.634958 0
M  V30 344 H 29.834 -2.20422 -3.17728 0
M  V30 345 H 31.523 -2.61648 -3.10315 0
M  V30 346 H 32.289 -4.58312 -1.58665 0
M  V30 347 H 28.168 -3.83504 -2.55823 0
M  V30 348 H 31.712 -6.90649 -0.982299 0
M  V30 349 H 27.609 -6.15069 -1.95858 0
M  V30 350 H 28.377 -8.09275 -1.22542 0
M  V30 351 N 31.0401 0.771051 -1.3745 0
M  V30 352 C 32.2861 1.5319 -1.32894 0
M  V30 353 C 32.6191 1.94008 0.0862511 0
M  V30 354 O 31.8941 1.64124 1.04373 0
M  V30 355 C 32.1771 2.79648 -2.26868 0
M  V30 356 C 32.0301 2.45079 -3.77169 0
M  V30 357 C 33.3491 3.81583 -2.19277 0
M  V30 358 H 30.4681 0.555744 -0.484064 0
M  V30 359 H 33.1101 0.884492 -1.68157 0
M  V30 360 H 31.2601 3.34891 -1.96926 0
M  V30 361 H 32.9321 1.95745 -4.1771 0
M  V30 362 H 31.1751 1.77767 -3.95704 0
M  V30 363 H 31.8461 3.35478 -4.38359 0
M  V30 364 H 34.3221 3.35835 -2.45671 0
M  V30 365 H 33.1981 4.67787 -2.87171 0
M  V30 366 H 33.4591 4.25897 -1.18592 0
M  V30 367 N 32.5182 1.22032 0.997298 0
M  V30 368 C 33.4502 0.944263 2.08845 0
M  V30 369 C 34.4632 -0.0754663 1.62625 0
M  V30 370 O 35.6522 0.157994 1.77799 0
M  V30 371 C 32.7522 0.397723 3.36558 0
M  V30 372 C 31.9252 1.47362 4.11829 0
M  V30 373 C 30.9842 0.934951 5.17827 0
M  V30 374 O 30.0102 1.62016 5.45655 0
M  V30 375 N 31.2122 -0.245895 5.79979 0
M  V30 376 H 33.9772 1.88363 2.33109 0
M  V30 377 H 31.5382 1.12661 1.16272 0
M  V30 378 H 33.5302 0.0227771 4.04694 0
M  V30 379 H 32.1002 -0.446646 3.09393 0
M  V30 380 H 31.3202 2.02208 3.38386 0
M  V30 381 H 32.6082 2.19764 4.58891 0
M  V30 382 H 32.0062 -0.819475 5.59733 0
M  V30 383 H 30.5632 -0.562272 6.4937 0
M  V30 384 N 33.9963 -1.19345 1.0293 0
M  V30 385 C 35.2243 -1.92997 0.745644 0
M  V30 386 C 35.6393 -1.75519 -0.695589 0
M  V30 387 O 34.9963 -1.07737 -1.47306 0
M  V30 388 C 35.0473 -3.44741 1.08792 0
M  V30 389 O 34.7683 -3.61658 2.47256 0
M  V30 390 C 36.2693 -4.35515 0.827129 0
M  V30 391 H 33.4893 -0.613042 0.272801 0
M  V30 392 H 36.0333 -1.51473 1.3739 0
M  V30 393 H 34.1883 -3.84097 0.504832 0
M  V30 394 H 34.6023 -4.55514 2.60015 0
M  V30 395 H 36.0763 -5.40589 1.11658 0
M  V30 396 H 36.5533 -4.38552 -0.238436 0
M  V30 397 H 37.1593 -4.01841 1.39297 0
M  V30 398 N 35.4744 -0.807222 -1.35358 0
M  V30 399 C 36.7204 -0.388463 -1.99045 0
M  V30 400 C 37.0534 1.04184 -1.63888 0
M  V30 401 O 36.3284 1.72292 -0.902535 0
M  V30 402 C 36.6114 -0.572783 -3.55515 0
M  V30 403 C 36.4644 -2.04807 -4.00468 0
M  V30 404 C 37.7834 0.00114064 -4.401 0
M  V30 405 H 34.9024 -0.142619 -0.723069 0
M  V30 406 H 37.5444 -1.01687 -1.60498 0
M  V30 407 H 35.6944 -0.0378425 -3.88482 0
M  V30 408 H 37.3664 -2.64544 -3.77908 0
M  V30 409 H 35.6094 -2.54427 -3.51353 0
M  V30 410 H 36.2804 -2.12792 -5.09337 0
M  V30 411 H 38.7564 -0.455716 -4.13597 0
M  V30 412 H 37.6324 -0.157737 -5.48673 0
M  V30 413 H 37.8934 1.09488 -4.28328 0
M  V30 414 N 36.9525 1.47285 -0.560781 0
M  V30 415 C 37.8995 2.30058 0.18491 0
M  V30 416 C 38.8695 1.39281 0.904986 0
M  V30 417 O 40.0545 1.68241 0.899979 0
M  V30 418 C 37.1945 3.23317 1.20666 0
M  V30 419 C 36.3075 4.29186 0.492285 0
M  V30 420 C 35.4425 5.09592 1.49964 0
M  V30 421 C 34.4815 6.07232 0.770439 0
M  V30 422 N 33.6185 6.80584 1.72479 0
M  V30 423 H 38.4585 2.93302 -0.527048 0
M  V30 424 H 35.9955 1.44568 -0.271738 0
M  V30 425 H 37.9535 3.75811 1.81168 0
M  V30 426 H 36.5835 2.61929 1.88661 0
M  V30 427 H 35.6355 3.7972 -0.227333 0
M  V30 428 H 36.9475 4.98738 -0.0787929 0
M  V30 429 H 36.1015 5.66254 2.17809 0
M  V30 430 H 34.8405 4.3995 2.10464 0
M  V30 431 H 33.8455 5.49745 0.0780846 0
M  V30 432 H 35.0705 6.78884 0.171134 0
M  V30 433 H 33.0165 6.1367 2.3183 0
M  V30 434 H 32.9335 7.46319 1.20596 0
M  V30 435 H 34.2015 7.41818 2.39428 0
M  V30 436 N 38.4306 0.297415 1.54768 0
M  V30 437 C 39.6556 -0.318435 2.04941 0
M  V30 438 C 40.0806 -1.4701 1.17345 0
M  V30 439 O 39.4386 -1.80436 0.176758 0
M  V30 440 C 39.4866 -0.755749 3.52592 0
M  V30 441 O 38.5906 -1.86088 3.68028 0
M  V30 442 H 37.9316 -0.062421 0.661059 0
M  V30 443 H 40.4616 0.438215 1.99852 0
M  V30 444 H 40.4716 -1.04552 3.94376 0
M  V30 445 H 39.1466 0.0867233 4.1581 0
M  V30 446 H 37.7236 -1.57193 3.38149 0
M  V30 447 N 39.9087 -1.5758 0.0250728 0
M  V30 448 C 41.1337 -1.96337 -0.668317 0
M  V30 449 C 41.5587 -0.901314 -1.651 0
M  V30 450 O 40.9167 0.138187 -1.80773 0
M  V30 451 C 40.9647 -3.34191 -1.35457 0
M  V30 452 O 40.0687 -3.30269 -2.46974 0
M  V30 453 H 39.4097 -0.640281 -0.175887 0
M  V30 454 H 41.9397 -2.0442 0.0857224 0
M  V30 455 H 41.9497 -3.70331 -1.71228 0
M  V30 456 H 40.6247 -4.11036 -0.634218 0
M  V30 457 H 39.2017 -3.05841 -2.13344 0
M  V30 458 N 41.3868 0.248026 -1.55636 0
M  V30 459 C 42.3338 1.30707 -1.90222 0
M  V30 460 C 43.3038 1.47881 -0.756332 0
M  V30 461 O 44.4888 1.61883 -1.00988 0
M  V30 462 C 41.6288 2.65769 -2.20138 0
M  V30 463 C 40.7418 2.56612 -3.47526 0
M  V30 464 C 39.8768 3.8402 -3.67017 0
M  V30 465 C 38.9158 3.69476 -4.8801 0
M  V30 466 N 38.0528 4.88774 -5.04029 0
M  V30 467 H 42.8928 1.00512 -2.80538 0
M  V30 468 H 40.4298 0.485055 -1.38873 0
M  V30 469 H 42.3878 3.44386 -2.35487 0
M  V30 470 H 41.0178 2.94115 -1.33027 0
M  V30 471 H 40.0698 1.69571 -3.40514 0
M  V30 472 H 41.3818 2.41774 -4.36287 0
M  V30 473 H 40.5358 4.7108 -3.8232 0
M  V30 474 H 39.2748 4.01754 -2.76487 0
M  V30 475 H 38.2798 2.80799 -4.72686 0
M  V30 476 H 39.5048 3.53238 -5.8 0
M  V30 477 H 37.4508 5.0687 -4.16435 0
M  V30 478 H 37.3678 4.76562 -5.86877 0
M  V30 479 H 38.6358 5.77335 -5.23741 0
M  V30 480 N 42.8649 1.48995 0.513639 0
M  V30 481 C 44.1129 1.57531 1.26604 0
M  V30 482 C 44.4339 0.258236 1.93283 0
M  V30 483 O 43.7039 -0.721502 1.8213 0
M  V30 484 H 42.2839 0.580387 0.470276 0
M  V30 485 H 44.9459 1.85552 0.596373 0
M  V30 486 H 44.0419 2.36486 2.03669 0
M  V30 487 N 44.343 -0.763751 1.37857 0
M  V30 488 C 45.591 -1.51957 1.33243 0
M  V30 489 C 45.912 -1.94835 -0.0801709 0
M  V30 490 O 45.182 -1.66894 -1.02582 0
M  V30 491 H 43.762 -0.563626 0.49024 0
M  V30 492 H 46.424 -0.908504 1.7243 0
M  V30 493 H 45.52 -2.41523 1.97669 0
M  V30 494 N 45.8211 -1.22559 -0.990812 0
M  V30 495 C 47.2321 -1.04791 -1.54518 0
M  V30 496 C 47.5831 0.387998 -1.92325 0
M  V30 497 O 46.7081 1.27328 -1.74976 0
M  V30 498 C 47.3031 -1.896 -2.80779 0
M  V30 499 C 45.8621 -1.76124 -3.32652 0
M  V30 500 C 45.0091 -1.8594 -2.05722 0
M  V30 501 H 47.9601 -1.36374 -0.811662 0
M  V30 502 H 47.9811 -1.41464 -3.53225 0
M  V30 503 H 47.4931 -2.94101 -2.53231 0
M  V30 504 H 45.5941 -0.743643 -3.65104 0
M  V30 505 H 45.7071 -2.58913 -4.03114 0
M  V30 506 H 44.0711 -1.29403 -2.19379 0
M  V30 507 H 44.8541 -2.91976 -1.80568 0
M  V30 508 N 47.2992 1.18797 -1.03562 0
M  V30 509 C 48.5472 1.88278 -0.734569 0
M  V30 510 C 48.8682 1.8043 0.739586 0
M  V30 511 O 48.1382 1.21925 1.53333 0
M  V30 512 H 46.7182 0.696991 -0.268725 0
M  V30 513 H 49.3802 1.44192 -1.31129 0
M  V30 514 H 48.4762 2.94443 -1.03489 0
M  V30 515 N 48.7773 0.814389 1.34928 0
M  V30 516 C 50.0023 0.410097 2.03305 0
M  V30 517 C 50.4273 -0.973464 1.60951 0
M  V30 518 O 49.7853 -1.63185 0.789964 0
M  V30 519 C 49.8333 0.51049 3.56968 0
M  V30 520 O 48.9373 -0.473035 4.09678 0
M  V30 521 H 48.2783 0.170088 0.641846 0
M  V30 522 H 50.8083 1.10244 1.72358 0
M  V30 523 H 50.8183 0.383135 4.06197 0
M  V30 524 H 49.4933 1.51963 3.87144 0
M  V30 525 H 48.0703 -0.305272 3.71648 0
M  V30 526 N 50.2554 -1.46986 0.568584 0
M  V30 527 C 51.2184 -2.28624 -0.162366 0
M  V30 528 C 52.2184 -1.37596 -0.832103 0
M  V30 529 O 53.4084 -1.60115 -0.68622 0
M  V30 530 C 50.5404 -3.17596 -1.23878 0
M  V30 531 H 51.7334 -2.94722 0.554899 0
M  V30 532 H 49.2864 -1.52863 0.325976 0
M  V30 533 H 50.0214 -2.56214 -1.98808 0
M  V30 534 H 49.8064 -3.846 -0.763219 0
M  V30 535 H 51.2964 -3.79078 -1.75185 0
M  V30 536 N 51.7335 -0.305618 -1.54608 0
M  V30 537 C 52.9795 0.302746 -2.00528 0
M  V30 538 C 53.3125 1.53184 -1.19367 0
M  V30 539 O 52.5875 1.92598 -0.271321 0
M  V30 540 C 52.8705 0.654756 -3.54097 0
M  V30 541 C 52.7235 -0.583793 -4.45995 0
M  V30 542 C 54.0425 1.47947 -4.14487 0
M  V30 543 H 51.1615 0.108564 -0.72896 0
M  V30 544 H 53.8035 -0.418634 -1.85331 0
M  V30 545 H 51.9535 1.26935 -3.67178 0
M  V30 546 H 53.6255 -1.22224 -4.44814 0
M  V30 547 H 51.8685 -1.21615 -4.16404 0
M  V30 548 H 52.5395 -0.293287 -5.5122 0
M  V30 549 H 55.0155 0.96013 -4.04871 0
M  V30 550 H 53.8915 1.69454 -5.22088 0
M  V30 551 H 54.1525 2.47011 -3.66658 0
M  V30 552 N 53.2116 1.57565 -0.0334293 0
M  V30 553 C 54.4366 1.96689 0.657895 0
M  V30 554 C 54.8616 0.910057 1.64619 0
M  V30 555 O 54.2196 -0.128598 1.80843 0
M  V30 556 C 54.2676 3.34905 1.33683 0
M  V30 557 O 53.3716 3.31574 2.45219 0
M  V30 558 H 52.7126 0.641205 0.172489 0
M  V30 559 H 55.2426 2.04372 -0.0965621 0
M  V30 560 H 55.2526 3.71234 1.69262 0
M  V30 561 H 53.9276 4.11366 0.612411 0
M  V30 562 H 52.5046 3.06968 2.11719 0
M  V30 563 N 54.6897 -0.239769 1.55765 0
M  V30 564 C 56.1007 -0.808263 1.68297 0
M  V30 565 C 56.4517 -1.85736 0.632181 0
M  V30 566 O 55.5767 -2.15277 -0.220204 0
M  V30 567 C 56.1717 -1.47284 3.05111 0
M  V30 568 C 54.7307 -1.98895 3.19559 0
M  V30 569 C 53.8777 -0.842575 2.64189 0
M  V30 570 H 56.8287 -0.0154422 1.58692 0
M  V30 571 H 56.8497 -2.34111 2.99954 0
M  V30 572 H 56.3617 -0.709053 3.81568 0
M  V30 573 H 54.4627 -2.78132 2.47938 0
M  V30 574 H 54.5757 -2.18143 4.26556 0
M  V30 575 H 52.9397 -1.24501 2.22197 0
M  V30 576 H 53.7227 -0.0917552 3.43177 0
M  V30 577 N 56.1678 -1.49265 -0.50573 0
M  V30 578 C 57.3978 -1.61979 -1.28243 0
M  V30 579 C 57.8058 -0.288576 -1.86986 0
M  V30 580 O 57.1488 0.735408 -1.68337 0
M  V30 581 C 57.2108 -2.62632 -2.45489 0
M  V30 582 C 56.8748 -4.071 -2.07651 0
M  V30 583 C 57.8718 -4.94049 -1.61901 0
M  V30 584 C 55.5568 -4.52801 -2.17431 0
M  V30 585 C 57.5508 -6.24736 -1.26428 0
M  V30 586 C 55.2378 -5.83503 -1.8157 0
M  V30 587 C 56.2358 -6.69294 -1.36142 0
M  V30 588 O 55.9238 -7.9756 -1.00764 0
M  V30 589 H 55.6558 -0.54834 -0.395347 0
M  V30 590 H 58.2098 -1.96002 -0.614204 0
M  V30 591 H 56.4398 -2.2378 -3.15372 0
M  V30 592 H 58.1288 -2.64925 -3.07522 0
M  V30 593 H 58.8948 -4.5997 -1.53795 0
M  V30 594 H 54.7738 -3.86196 -2.51742 0
M  V30 595 H 58.3178 -6.91652 -0.908992 0
M  V30 596 H 54.2148 -6.17112 -1.89324 0
M  V30 597 H 54.9828 -8.10529 -1.13952 0
M  V30 598 N 57.6459 0.756429 -1.3826 0
M  V30 599 C 59.0569 1.33359 -1.30661 0
M  V30 600 C 59.4079 1.96161 0.0388875 0
M  V30 601 O 58.5329 1.94874 0.940918 0
M  V30 602 C 59.1279 2.42477 -2.36622 0
M  V30 603 C 57.6869 2.95922 -2.3261 0
M  V30 604 C 56.8339 1.69275 -2.19639 0
M  V30 605 H 59.7849 0.55552 -1.4866 0
M  V30 606 H 59.8059 3.22345 -2.02174 0
M  V30 607 H 59.3179 1.96739 -3.34538 0
M  V30 608 H 57.4189 3.45996 -1.38267 0
M  V30 609 H 57.5319 3.50494 -3.26636 0
M  V30 610 H 55.8959 1.92793 -1.66442 0
M  V30 611 H 56.6789 1.25619 -3.19491 0
M  V30 612 N 59.124 1.23083 0.984299 0
M  V30 613 C 60.352 1.08714 1.76037 0
M  V30 614 C 60.767 -0.361691 1.85303 0
M  V30 615 O 60.124 -1.25034 1.32939 0
M  V30 616 C 60.175 1.70206 3.18923 0
M  V30 617 O 59.896 3.09423 3.10144 0
M  V30 618 C 61.397 1.61227 4.12941 0
M  V30 619 H 58.617 0.380664 0.552572 0
M  V30 620 H 61.161 1.62853 1.23689 0
M  V30 621 H 59.316 1.20109 3.6831 0
M  V30 622 H 59.73 3.39188 4.00065 0
M  V30 623 H 61.204 2.08962 5.10919 0
M  V30 624 H 61.681 0.570375 4.35481 0
M  V30 625 H 62.287 2.10671 3.69456 0
M  V30 626 N 60.6021 -1.18246 1.0419 0
M  V30 627 C 61.8491 -1.88257 0.746017 0
M  V30 628 C 62.1771 -1.80429 -0.726331 0
M  V30 629 O 61.4321 -1.2 -1.54591 0
M  V30 630 C 61.7311 -3.38082 1.15911 0
M  V30 631 C 61.3971 -3.66114 2.63195 0
M  V30 632 C 60.0591 -3.73474 3.03432 0
M  V30 633 C 62.4111 -3.78398 3.5842 0
M  V30 634 C 59.7391 -3.90599 4.37778 0
M  V30 635 C 62.0911 -3.97039 4.92487 0
M  V30 636 C 60.7551 -4.02635 5.32392 0
M  V30 637 H 60.0251 -0.688883 0.272987 0
M  V30 638 H 62.6721 -1.3995 1.30715 0
M  V30 639 H 60.9771 -3.88377 0.516806 0
M  V30 640 H 62.6741 -3.90596 0.907516 0
M  V30 641 H 59.2641 -3.61003 2.3103 0
M  V30 642 H 63.4481 -3.72042 3.28479 0
M  V30 643 H 58.7041 -3.93175 4.68213 0
M  V30 644 H 62.8781 -4.05486 5.66175 0
M  V30 645 H 60.5051 -4.15657 6.36501 0
M  V30 646 N 62.0802 -0.821533 -1.34494 0
M  V30 647 C 63.0282 -0.230702 -2.31453 0
M  V30 648 C 64.0222 0.627793 -1.57338 0
M  V30 649 O 65.2282 0.519288 -1.72347 0
M  V30 650 H 61.6032 -0.0558577 -0.749923 0
M  V30 651 H 63.5742 -1.06332 -2.78812 0
M  V30 652 C 62.3232 0.59391 -3.4259 0
M  V30 653 H 61.6462 -0.0573588 -3.99759 0
M  V30 654 H 63.0862 0.973446 -4.12674 0
M  V30 655 C 61.5452 1.76568 -2.86924 0
M  V30 656 O 62.0752 2.8638 -2.81691 0
M  V30 657 N 60.2812 1.58198 -2.43766 0
M  V30 658 H 59.8282 0.68872 -2.48222 0
M  V30 659 H 59.7862 2.36752 -2.06871 0
M  V30 660 N 63.5583 1.46682 -0.576371 0
M  V30 661 C 64.9693 1.86112 -0.148091 0
M  V30 662 C 65.3203 1.48073 1.2872 0
M  V30 663 O 64.4453 0.892656 1.97131 0
M  V30 664 C 65.0403 3.37786 -0.261982 0
M  V30 665 C 63.5993 3.76235 0.111384 0
M  V30 666 C 62.7463 2.70713 -0.60083 0
M  V30 667 H 65.6973 1.37927 -0.78497 0
M  V30 668 H 65.7183 3.77007 0.514364 0
M  V30 669 H 65.2303 3.6544 -1.30671 0
M  V30 670 H 63.3313 3.54198 1.15649 0
M  V30 671 H 63.4443 4.78391 -0.26052 0
M  V30 672 H 61.8083 2.54666 -0.0417783 0
M  V30 673 H 62.5913 3.01208 -1.64708 0
M  V30 674 N 65.0364 0.313813 1.54444 0
M  V30 675 C 66.2614 -0.296681 2.05267 0
M  V30 676 C 66.6864 -1.45757 1.18897 0
M  V30 677 O 66.0444 -1.80239 0.195886 0
M  V30 678 C 66.0924 -0.71831 3.53373 0
M  V30 679 O 65.1964 -1.82175 3.69981 0
M  V30 680 H 64.5374 -0.0554061 0.661684 0
M  V30 681 H 67.0674 0.459387 1.99376 0
M  V30 682 H 67.0774 -1.00364 3.95463 0
M  V30 683 H 65.7524 0.130821 4.15694 0
M  V30 684 H 64.3294 -1.53598 3.39797 0
M  V30 685 N 66.5145 -1.57545 0.0417849 0
M  V30 686 C 67.7395 -1.97035 -0.647455 0
M  V30 687 C 68.1645 -0.918775 -1.64135 0
M  V30 688 O 67.5225 0.119006 -1.80909 0
M  V30 689 C 67.5705 -3.35609 -1.31905 0
M  V30 690 O 66.6745 -3.3287 -2.43457 0
M  V30 691 H 66.0155 -0.64211 -0.169086 0
M  V30 692 H 68.5455 -2.04318 0.107399 0
M  V30 693 H 68.5555 -3.72126 -1.67291 0
M  V30 694 H 67.2305 -4.11685 -0.590586 0
M  V30 695 H 65.8075 -3.08087 -2.10088 0
M  V30 696 N 67.9926 0.231505 -1.5589 0
M  V30 697 C 69.2696 0.981096 -1.69215 0
M  V30 698 C 69.6496 2.02799 -0.586164 0
M  V30 699 O 68.9976 2.24823 0.408253 0
M  V30 700 C 69.2076 1.60054 -3.10135 0
M  V30 701 C 70.5556 2.09658 -3.69227 0
M  V30 702 O 71.5796 1.69967 -3.13033 0
M  V30 703 O 70.4386 2.8258 -4.67772 0
M  V30 704 H 67.5326 0.457653 -0.688827 0
M  V30 705 H 70.0786 0.224073 -1.68214 0
M  V30 706 H 68.8506 0.844105 -3.82087 0
M  V30 707 H 68.4736 2.42336 -3.15212 0
M  V30 708 N 69.4707 1.49531 0.497807 0
M  V30 709 C 70.7167 1.59415 1.25358 0
M  V30 710 C 71.0497 0.281422 1.9215 0
M  V30 711 O 70.3247 -0.715249 1.80871 0
M  V30 712 C 70.6077 2.75566 2.3181 0
M  V30 713 C 70.4607 4.16642 1.69498 0
M  V30 714 C 71.7797 2.87347 3.33346 0
M  V30 715 H 68.8987 0.580244 0.454408 0
M  V30 716 H 71.5407 1.81827 0.551262 0
M  V30 717 H 69.6907 2.56587 2.91711 0
M  V30 718 H 71.3627 4.47145 1.13399 0
M  V30 719 H 69.6057 4.22141 0.998978 0
M  V30 720 H 70.2767 4.93792 2.46725 0
M  V30 721 H 72.7527 3.04634 2.83438 0
M  V30 722 H 71.6287 3.70289 4.05188 0
M  V30 723 H 71.8897 1.96834 3.95865 0
M  V30 724 N 70.9488 -0.749086 1.3866 0
M  V30 725 C 71.9118 -1.84457 1.36045 0
M  V30 726 C 72.9118 -1.58682 0.260122 0
M  V30 727 O 74.1018 -1.66343 0.517261 0
M  V30 728 C 71.2338 -3.22008 1.11911 0
M  V30 729 H 72.4268 -1.88182 2.33512 0
M  V30 730 H 69.9798 -0.951266 1.24019 0
M  V30 731 H 70.7148 -3.2395 0.150686 0
M  V30 732 H 70.4998 -3.42111 1.91579 0
M  V30 733 H 71.9898 -4.0208 1.12788 0
M  V30 734 N 72.4269 -1.23603 -0.977757 0
M  V30 735 C 73.3899 -1.02069 -2.05218 0
M  V30 736 C 74.3899 0.0184305 -1.60789 0
M  V30 737 O 75.5799 -0.221569 -1.72785 0
M  V30 738 C 72.7119 -0.544926 -3.36517 0
M  V30 739 H 73.9049 -1.9742 -2.25755 0
M  V30 740 H 71.4579 -1.05684 -1.15155 0
M  V30 741 H 72.1929 0.412241 -3.21669 0
M  V30 742 H 71.9779 -1.2948 -3.70105 0
M  V30 743 H 73.4679 -0.414985 -4.15533 0
M  V30 744 N 73.905 1.17692 -1.04816 0
M  V30 745 C 74.835 2.23777 -0.666791 0
M  V30 746 C 75.816 1.66796 0.33361 0
M  V30 747 O 77.001 1.93039 0.212042 0
M  V30 748 C 74.131 3.47281 -0.0367933 0
M  V30 749 C 73.085 4.17059 -0.961546 0
M  V30 750 C 72.411 5.34342 -0.195626 0
M  V30 751 C 73.711 4.69713 -2.28402 0
M  V30 752 H 75.405 2.55933 -1.55367 0
M  V30 753 H 72.951 1.23019 -0.748484 0
M  V30 754 H 74.904 4.20706 0.241775 0
M  V30 755 H 73.628 3.14381 0.885004 0
M  V30 756 H 72.287 3.45541 -1.22462 0
M  V30 757 H 71.935 4.97692 0.728816 0
M  V30 758 H 71.635 5.81966 -0.811775 0
M  V30 759 H 73.159 6.10553 0.0757473 0
M  V30 760 H 74.573 5.34794 -2.06563 0
M  V30 761 H 72.97 5.279 -2.8538 0
M  V30 762 H 74.04 3.86726 -2.92525 0
M  V30 763 N 75.3831 0.828654 1.34056 0
M  V30 764 C 76.3331 0.226828 2.26869 0
M  V30 765 C 77.3171 -0.612243 1.48796 0
M  V30 766 O 78.5091 -0.465884 1.70759 0
M  V30 767 C 75.6381 -0.605654 3.37915 0
M  V30 768 C 74.7241 0.244361 4.23395 0
M  V30 769 N 75.1151 1.31815 4.88322 0
M  V30 770 C 73.4131 0.0296616 4.4599 0
M  V30 771 C 74.1141 1.83895 5.51867 0
M  V30 772 N 73.0901 1.14196 5.3147 0
M  V30 773 H 76.8921 1.04811 2.74576 0
M  V30 774 H 74.4061 0.67205 1.47842 0
M  V30 775 H 76.4031 -1.05302 4.03382 0
M  V30 776 H 75.0631 -1.42504 2.91758 0
M  V30 777 H 76.0741 1.70099 4.8917 0
M  V30 778 H 72.7511 -0.757097 4.10578 0
M  V30 779 H 74.1411 2.7376 6.136 0
M  V30 780 N 76.8612 -1.46375 0.584142 0
M  V30 781 C 77.8082 -2.30323 -0.148286 0
M  V30 782 C 78.7782 -1.40703 -0.882713 0
M  V30 783 O 79.9632 -1.69651 -0.873099 0
M  V30 784 C 77.1032 -3.25196 -1.15507 0
M  V30 785 C 76.2162 -4.29915 -0.423943 0
M  V30 786 C 75.3512 -5.11914 -1.41838 0
M  V30 787 C 74.3902 -6.08381 -0.673736 0
M  V30 788 N 73.5272 -6.83242 -1.6163 0
M  V30 789 H 78.3672 -2.92427 0.573644 0
M  V30 790 H 75.9042 -1.44118 0.294703 0
M  V30 791 H 77.8622 -3.78646 -1.75166 0
M  V30 792 H 76.4922 -2.64898 -1.8447 0
M  V30 793 H 75.5442 -3.7931 0.287714 0
M  V30 794 H 76.8562 -4.98549 0.158128 0
M  V30 795 H 76.0102 -5.69648 -2.08773 0
M  V30 796 H 74.7492 -4.43243 -2.03438 0
M  V30 797 H 73.7542 -5.49799 0.00938483 0
M  V30 798 H 74.9792 -6.79071 -0.0631082 0
M  V30 799 H 72.9252 -6.1728 -2.22038 0
M  V30 800 H 72.8422 -7.48144 -1.08707 0
M  V30 801 H 74.1102 -7.45534 -2.27596 0
M  V30 802 N 78.3393 -0.321999 -1.54275 0
M  V30 803 C 79.3023 0.531975 -2.22941 0
M  V30 804 C 80.3023 1.04478 -1.22234 0
M  V30 805 O 81.4923 0.937452 -1.46825 0
M  V30 806 C 78.6243 1.73874 -2.93224 0
M  V30 807 H 79.8173 -0.0682612 -2.99822 0
M  V30 808 H 77.3703 -0.0730644 -1.56129 0
M  V30 809 H 78.1053 2.37825 -2.20476 0
M  V30 810 H 77.8903 1.37847 -3.6707 0
M  V30 811 H 79.3803 2.34496 -3.45545 0
M  V30 812 N 79.8174 1.5752 -0.0501392 0
M  V30 813 C 81.0664 1.91827 0.623328 0
M  V30 814 C 81.3794 0.930222 1.72065 0
M  V30 815 O 82.5854 1.1653 2.4522 0
M  V30 816 C 81.0414 3.40692 1.16003 0
M  V30 817 C 80.6494 4.479 0.0948811 0
M  V30 818 C 82.3934 3.84034 1.80881 0
M  V30 819 C 80.3004 5.87879 0.644411 0
M  V30 820 H 79.2304 0.715918 0.236596 0
M  V30 821 H 81.8814 1.83115 -0.118861 0
M  V30 822 H 80.2634 3.44405 1.9545 0
M  V30 823 H 81.4374 4.55775 -0.678675 0
M  V30 824 H 79.7524 4.13892 -0.45637 0
M  V30 825 H 82.3494 4.85984 2.22988 0
M  V30 826 H 82.6924 3.20225 2.6601 0
M  V30 827 H 83.2254 3.82833 1.0809 0
M  V30 828 H 79.9644 6.55282 -0.169229 0
M  V30 829 H 79.4844 5.83567 1.38598 0
M  V30 830 H 81.1634 6.37098 1.12763 0
M  V30 831 N 81.2955 -0.223234 1.56011 0
M  V30 832 C 82.2285 -1.30377 1.87289 0
M  V30 833 C 83.2065 -1.45286 0.730112 0
M  V30 834 O 84.3905 -1.61126 0.978302 0
M  V30 835 C 81.5175 -2.67431 2.07843 0
M  V30 836 C 80.5635 -2.69546 3.30526 0
M  V30 837 S 81.3965 -2.23781 4.865 0
M  V30 838 C 82.5525 -3.62714 5.10088 0
M  V30 839 H 82.7855 -1.03652 2.78646 0
M  V30 840 H 80.3185 -0.425393 1.48424 0
M  V30 841 H 82.2765 -3.46336 2.20368 0
M  V30 842 H 80.9375 -2.91381 1.17285 0
M  V30 843 H 80.1305 -3.70255 3.41947 0
M  V30 844 H 79.7325 -1.98703 3.16849 0
M  V30 845 H 82.0245 -4.58391 4.98883 0
M  V30 846 H 82.9675 -3.5621 6.11981 0
M  V30 847 H 83.3755 -3.56323 4.37829 0
M  V30 848 N 82.7736 -1.49793 -0.48987 0
M  V30 849 C 84.0196 -1.60078 -1.24511 0
M  V30 850 C 84.3526 -0.291608 -1.91998 0
M  V30 851 O 83.6276 0.705647 -1.81248 0
M  V30 852 C 83.9106 -2.76791 -2.30345 0
M  V30 853 C 83.7636 -4.17535 -1.67286 0
M  V30 854 C 85.0826 -2.89111 -3.31817 0
M  V30 855 H 82.2016 -0.582645 -0.451324 0
M  V30 856 H 84.8436 -1.82117 -0.541612 0
M  V30 857 H 82.9936 -2.5813 -2.90346 0
M  V30 858 H 84.6656 -4.4774 -1.11026 0
M  V30 859 H 82.9086 -4.22665 -0.976577 0
M  V30 860 H 83.5796 -4.95094 -2.44103 0
M  V30 861 H 86.0556 -3.06133 -2.81819 0
M  V30 862 H 84.9316 -3.72433 -4.03219 0
M  V30 863 H 85.1926 -1.9893 -3.94815 0
M  V30 864 N 84.2517 0.741722 -1.39055 0
M  V30 865 C 85.1987 1.85566 -1.37237 0
M  V30 866 C 86.1687 1.64457 -0.233072 0
M  V30 867 O 87.3537 1.85957 -0.427147 0
M  V30 868 C 84.4937 3.23004 -1.215 0
M  V30 869 C 83.6067 3.55864 -2.44918 0
M  V30 870 C 82.7417 4.82669 -2.21821 0
M  V30 871 C 81.7807 5.08351 -3.40948 0
M  V30 872 N 80.9177 6.26356 -3.17211 0
M  V30 873 H 85.7577 1.86455 -2.32462 0
M  V30 874 H 83.2947 0.911176 -1.15482 0
M  V30 875 H 85.2527 4.02331 -1.10389 0
M  V30 876 H 83.8827 3.21411 -0.29908 0
M  V30 877 H 82.9347 2.7129 -2.66657 0
M  V30 878 H 84.2467 3.70765 -3.33668 0
M  V30 879 H 83.4007 5.69962 -2.07914 0
M  V30 880 H 82.1397 4.69929 -1.30454 0
M  V30 881 H 81.1447 4.19522 -3.55361 0
M  V30 882 H 82.3697 5.22981 -4.33207 0
M  V30 883 H 80.3157 6.14917 -2.28502 0
M  V30 884 H 80.2327 6.41813 -3.99515 0
M  V30 885 H 81.5007 7.16506 -3.06984 0
M  V30 886 N 85.7298 1.2412 0.971189 0
M  V30 887 C 86.9778 1.07668 1.71032 0
M  V30 888 C 87.2988 -0.385797 1.91146 0
M  V30 889 O 86.5688 -1.27569 1.4867 0
M  V30 890 H 85.1488 0.395429 0.633755 0
M  V30 891 H 87.8108 1.55984 1.16855 0
M  V30 892 H 86.9068 1.57195 2.69622 0
M  V30 893 N 87.2079 -1.17134 1.05439 0
M  V30 894 C 88.4539 -1.87733 0.767077 0
M  V30 895 C 88.7869 -1.8098 -0.704253 0
M  V30 896 O 88.0619 -1.21951 -1.5152 0
M  V30 897 C 88.3449 -3.37659 1.25133 0
M  V30 898 C 88.1979 -3.53149 2.78578 0
M  V30 899 C 89.5169 -4.31768 0.852324 0
M  V30 900 H 86.6359 -0.681687 0.280129 0
M  V30 901 H 89.2779 -1.37732 1.30881 0
M  V30 902 H 87.4279 -3.80373 0.790469 0
M  V30 903 H 89.0999 -3.19434 3.32806 0
M  V30 904 H 87.3429 -2.95345 3.17732 0
M  V30 905 H 88.0139 -4.58403 3.07523 0
M  V30 906 H 90.4899 -3.96909 1.24911 0
M  V30 907 H 89.3659 -5.35199 1.21873 0
M  V30 908 H 89.6269 -4.41429 -0.243485 0
M  V30 909 N 88.686 -0.835752 -1.33615 0
M  V30 910 C 89.963 -0.352017 -1.92406 0
M  V30 911 C 90.343 1.16225 -1.76224 0
M  V30 912 O 89.691 1.97526 -1.14873 0
M  V30 913 C 89.901 -0.795485 -3.39813 0
M  V30 914 C 91.249 -0.801703 -4.16963 0
M  V30 915 O 92.273 -0.738889 -3.48452 0
M  V30 916 O 91.132 -0.886607 -5.3926 0
M  V30 917 H 88.226 -0.0989641 -0.821057 0
M  V30 918 H 90.772 -0.921397 -1.42507 0
M  V30 919 H 89.544 -1.83795 -3.45449 0
M  V30 920 H 89.167 -0.202505 -3.97084 0
M  V30 921 N 90.1641 1.46063 -0.591896 0
M  V30 922 C 91.0741 2.34192 0.13831 0
M  V30 923 C 92.0901 1.50305 0.876608 0
M  V30 924 O 93.2661 1.8315 0.837728 0
M  V30 925 C 90.3311 3.27656 1.13326 0
M  V30 926 C 89.3921 4.27445 0.39863 0
M  V30 927 C 88.6251 5.16443 1.34618 0
M  V30 928 O 88.8481 5.08553 2.58321 0
M  V30 929 O 87.7821 5.95843 0.851768 0
M  V30 930 H 91.6081 2.98002 -0.58552 0
M  V30 931 H 89.1931 1.45188 -0.352239 0
M  V30 932 H 91.0751 3.85291 1.70671 0
M  V30 933 H 89.7501 2.6643 1.83839 0
M  V30 934 H 88.6571 3.73471 -0.216895 0
M  V30 935 H 89.9901 4.91482 -0.265709 0
M  V30 936 N 91.6422 0.330177 1.54103 0
M  V30 937 C 92.6052 -0.520144 2.2322 0
M  V30 938 C 93.6052 -1.03828 1.22786 0
M  V30 939 O 94.7952 -0.929652 1.4732 0
M  V30 940 C 91.9272 -1.72317 2.94142 0
M  V30 941 H 93.1202 0.0841605 2.99782 0
M  V30 942 H 90.6732 0.0813433 1.56088 0
M  V30 943 H 91.4082 -2.36653 2.21734 0
M  V30 944 H 91.1932 -1.35898 3.67796 0
M  V30 945 H 92.6832 -2.3266 3.46784 0
M  V30 946 N 93.1203 -1.57491 0.0584922 0
M  V30 947 C 94.3483 -1.97296 -0.623037 0
M  V30 948 C 94.7633 -0.936338 -1.63946 0
M  V30 949 O 94.1203 0.0785981 -1.82331 0
M  V30 950 C 94.1713 -3.37183 -1.30345 0
M  V30 951 O 93.8923 -4.36872 -0.32773 0
M  V30 952 C 95.3933 -3.91788 -2.07406 0
M  V30 953 H 92.6133 -0.649153 -0.169826 0
M  V30 954 H 95.1573 -2.04106 0.12696 0
M  V30 955 H 93.3123 -3.31502 -2.00463 0
M  V30 956 H 93.7263 -5.18141 -0.814269 0
M  V30 957 H 95.2003 -4.91926 -2.50425 0
M  V30 958 H 95.6773 -3.27609 -2.92521 0
M  V30 959 H 96.2833 -4.00829 -1.42184 0
M  V30 960 N 94.5984 0.214957 -1.56127 0
M  V30 961 C 95.8474 0.936451 -1.78643 0
M  V30 962 C 96.1604 1.85237 -0.628229 0
M  V30 963 O 97.3664 2.613 -0.737186 0
M  V30 964 C 95.8224 1.7154 -3.16389 0
M  V30 965 C 95.4304 0.845299 -4.39953 0
M  V30 966 C 97.1744 2.42772 -3.48227 0
M  V30 967 C 95.0814 1.62198 -5.68723 0
M  V30 968 H 94.0114 0.353401 -0.666051 0
M  V30 969 H 96.6624 0.190169 -1.82512 0
M  V30 970 H 95.0444 2.50484 -3.06715 0
M  V30 971 H 96.2184 0.0959353 -4.607 0
M  V30 972 H 94.5334 0.244789 -4.1568 0
M  V30 973 H 97.1304 3.01394 -4.41663 0
M  V30 974 H 97.4734 3.15984 -2.71035 0
M  V30 975 H 98.0064 1.70813 -3.5926 0
M  V30 976 H 94.7454 0.933011 -6.48826 0
M  V30 977 H 94.2654 2.34579 -5.52026 0
M  V30 978 H 95.9444 2.18095 -6.09133 0
M  V30 979 N 96.0765 1.50051 0.48192 0
M  V30 980 C 97.3255 1.59741 1.23149 0
M  V30 981 C 97.6385 0.298163 1.93314 0
M  V30 982 O 98.8445 0.273835 2.70116 0
M  V30 983 C 97.3005 2.81926 2.23708 0
M  V30 984 C 96.9085 4.18685 1.59396 0
M  V30 985 C 98.6525 3.00956 2.99375 0
M  V30 986 C 96.5595 5.3207 2.58178 0
M  V30 987 H 95.4895 0.594838 0.46334 0
M  V30 988 H 98.1405 1.76467 0.503169 0
M  V30 989 H 96.5225 2.58736 2.99786 0
M  V30 990 H 97.6965 4.52088 0.891811 0
M  V30 991 H 96.0115 4.05171 0.960503 0
M  V30 992 H 98.6085 3.82836 3.73283 0
M  V30 993 H 98.9515 2.12258 3.58123 0
M  V30 994 H 99.4845 3.24277 2.30411 0
M  V30 995 H 96.2235 6.22888 2.04184 0
M  V30 996 H 95.7435 5.03098 3.26577 0
M  V30 997 H 97.4225 5.62196 3.20225 0
M  V30 998 N 97.5546 -0.734337 1.39446 0
M  V30 999 C 98.8316 -1.48579 1.27215 0
M  V30 1000 C 99.2116 -2.1077 -0.117968 0
M  V30 1001 O 98.5596 -1.98646 -1.12924 0
M  V30 1002 C 98.7696 -2.53667 2.39696 0
M  V30 1003 C 100.118 -3.20031 2.79044 0
M  V30 1004 O 101.142 -2.6398 2.39151 0
M  V30 1005 O 100.001 -4.21455 3.47905 0
M  V30 1006 H 97.0946 -0.659816 0.49857 0
M  V30 1007 H 99.6406 -0.768106 1.51322 0
M  V30 1008 H 98.4126 -2.06096 3.32626 0
M  V30 1009 H 98.0356 -3.32994 2.17258 0
M  V30 1010 N 99.0327 -1.24633 -0.964593 0
M  V30 1011 C 100.282 -1.08188 -1.7023 0
M  V30 1012 C 100.595 0.37873 -1.91898 0
M  V30 1013 O 101.801 0.663427 -2.6327 0
M  V30 1014 C 100.257 -1.88773 -3.06419 0
M  V30 1015 C 99.8647 -3.39263 -2.92582 0
M  V30 1016 C 101.609 -1.80867 -3.84041 0
M  V30 1017 C 99.5157 -4.1218 -4.24101 0
M  V30 1018 H 98.4457 -0.401245 -0.638372 0
M  V30 1019 H 101.097 -1.48742 -1.07462 0
M  V30 1020 H 99.4787 -1.41035 -3.70034 0
M  V30 1021 H 100.653 -3.94603 -2.37961 0
M  V30 1022 H 98.9677 -3.48154 -2.28424 0
M  V30 1023 H 101.565 -2.32646 -4.81435 0
M  V30 1024 H 101.908 -0.774543 -4.09031 0
M  V30 1025 H 102.441 -2.26301 -3.27159 0
M  V30 1026 H 99.1797 -5.15965 -4.04303 0
M  V30 1027 H 98.6997 -3.61626 -4.78526 0
M  V30 1028 H 100.379 -4.19349 -4.92702 0
M  V30 1029 N 100.511 1.16574 -1.06058 0
M  V30 1030 C 101.441 2.23057 -0.690488 0
M  V30 1031 C 102.422 1.67141 0.315901 0
M  V30 1032 O 103.607 1.93253 0.191556 0
M  V30 1033 C 100.737 3.47222 -0.073625 0
M  V30 1034 C 99.6908 4.16016 -1.00573 0
M  V30 1035 C 99.0168 5.34104 -0.252289 0
M  V30 1036 C 100.317 4.67264 -2.33371 0
M  V30 1037 H 102.011 2.54271 -1.58072 0
M  V30 1038 H 99.5568 1.22218 -0.76149 0
M  V30 1039 H 101.51 4.20939 0.19714 0
M  V30 1040 H 100.234 3.15302 0.85161 0
M  V30 1041 H 98.8928 3.44223 -1.2612 0
M  V30 1042 H 98.5408 4.98437 0.675988 0
M  V30 1043 H 98.2408 5.81072 -0.873455 0
M  V30 1044 H 99.7648 6.10599 0.0109857 0
M  V30 1045 H 101.179 5.32573 -2.12223 0
M  V30 1046 H 99.5758 5.24843 -2.90963 0
M  V30 1047 H 100.646 3.83602 -2.96611 0
M  V30 1048 N 101.989 0.842826 1.3317 0
M  V30 1049 C 103.217 0.454055 2.01856 0
M  V30 1050 C 103.632 -0.94587 1.63397 0
M  V30 1051 O 102.989 -1.61534 0.849302 0
M  V30 1052 C 103.04 0.569715 3.56982 0
M  V30 1053 O 102.761 1.91448 3.94055 0
M  V30 1054 C 104.262 0.178412 4.42941 0
M  V30 1055 H 101.482 0.17979 0.646465 0
M  V30 1056 H 104.026 1.1365 1.70012 0
M  V30 1057 H 102.181 -0.0648587 3.87346 0
M  V30 1058 H 102.595 1.90282 4.88767 0
M  V30 1059 H 104.069 0.310376 5.51127 0
M  V30 1060 H 104.546 -0.880056 4.30293 0
M  V30 1061 H 105.152 0.787579 4.17944 0
M  V30 1062 N 103.467 -1.45747 0.599634 0
M  V30 1063 C 104.414 -2.30467 -0.123849 0
M  V30 1064 C 105.384 -1.41632 -0.86774 0
M  V30 1065 O 106.569 -1.70568 -0.855056 0
M  V30 1066 C 103.709 -3.26402 -1.12051 0
M  V30 1067 C 102.822 -4.3034 -0.37832 0
M  V30 1068 C 101.957 -5.13389 -1.364 0
M  V30 1069 C 100.996 -6.09061 -0.609171 0
M  V30 1070 N 100.133 -6.84918 -1.54374 0
M  V30 1071 H 104.973 -2.91802 0.604627 0
M  V30 1072 H 102.51 -1.43797 0.309972 0
M  V30 1073 H 104.468 -3.80482 -1.7114 0
M  V30 1074 H 103.098 -2.66839 -1.8165 0
M  V30 1075 H 102.15 -3.78984 0.327929 0
M  V30 1076 H 103.462 -4.98354 0.210997 0
M  V30 1077 H 102.616 -5.7183 -2.02719 0
M  V30 1078 H 101.355 -4.45376 -1.98725 0
M  V30 1079 H 100.36 -5.49758 0.0676979 0
M  V30 1080 H 101.585 -6.79099 0.00891991 0
M  V30 1081 H 99.531 -6.19601 -2.15478 0
M  V30 1082 H 99.448 -7.49254 -1.00766 0
M  V30 1083 H 100.716 -7.47906 -2.19676 0
M  V30 1084 N 104.945 -0.338344 -1.53925 0
M  V30 1085 C 106.361 0.0137736 -1.59594 0
M  V30 1086 C 106.561 1.49186 -1.35447 0
M  V30 1087 O 105.617 2.24987 -1.14616 0
M  V30 1088 C 106.93 -0.41773 -2.97784 0
M  V30 1089 C 108.478 -0.369633 -3.1081 0
M  V30 1090 C 108.953 -0.776524 -4.51369 0
M  V30 1091 N 110.444 -0.730506 -4.57403 0
M  V30 1092 C 111.179 -1.01736 -5.64303 0
M  V30 1093 N 110.675 -1.3721 -6.79077 0
M  V30 1094 N 112.468 -0.941942 -5.54151 0
M  V30 1095 H 104.619 -1.3012 -1.67876 0
M  V30 1096 H 106.882 -0.530082 -0.78595 0
M  V30 1097 H 106.588 -1.44811 -3.20504 0
M  V30 1098 H 106.462 0.209729 -3.76616 0
M  V30 1099 H 108.849 0.651568 -2.87817 0
M  V30 1100 H 108.93 -1.03223 -2.34049 0
M  V30 1101 H 108.574 -1.79571 -4.75096 0
M  V30 1102 H 108.504 -0.0914649 -5.26521 0
M  V30 1103 H 110.995 -0.468783 -3.74981 0
M  V30 1104 H 111.308 -1.57597 -7.5656 0
M  V30 1105 H 109.653 -1.4105 -6.80536 0
M  V30 1106 H 112.844 -0.664184 -4.63364 0
M  V30 1107 H 113.017 -1.16884 -6.37371 0
M  V30 1108 N 106.423 1.57458 -0.0668435 0
M  V30 1109 C 107.371 2.13639 0.919851 0
M  V30 1110 C 108.365 1.07204 1.31163 0
M  V30 1111 O 109.571 1.25591 1.28945 0
M  V30 1112 H 105.946 0.683048 0.314562 0
M  V30 1113 H 107.917 2.95415 0.421047 0
M  V30 1114 C 106.666 2.70892 2.17975 0
M  V30 1115 H 105.989 3.5246 1.88711 0
M  V30 1116 H 107.429 3.13803 2.85138 0
M  V30 1117 C 105.888 1.65414 2.93496 0
M  V30 1118 O 106.418 1.07619 3.87015 0
M  V30 1119 N 104.624 1.36564 2.56512 0
M  V30 1120 H 104.171 1.83751 1.80536 0
M  V30 1121 H 104.129 0.66223 3.07347 0
M  V30 1122 N 107.901 -0.206675 1.56239 0
M  V30 1123 C 108.849 -1.27571 1.94495 0
M  V30 1124 C 109.843 -1.47737 0.828862 0
M  V30 1125 O 111.049 -1.48735 1.0138 0
M  V30 1126 H 107.424 -0.428029 0.6183 0
M  V30 1127 H 109.395 -0.925961 2.8367 0
M  V30 1128 C 108.144 -2.61568 2.29079 0
M  V30 1129 H 107.467 -2.46863 3.14482 0
M  V30 1130 H 108.907 -3.35144 2.5972 0
M  V30 1131 C 107.366 -3.17695 1.12123 0
M  V30 1132 O 107.896 -3.99801 0.390153 0
M  V30 1133 N 106.102 -2.76276 0.901097 0
M  V30 1134 H 105.649 -2.09613 1.49733 0
M  V30 1135 H 105.607 -3.1417 0.120319 0
M  V30 1136 N 109.379 -1.50304 -0.473955 0
M  V30 1137 C 110.342 -1.6841 -1.55469 0
M  V30 1138 C 111.342 -0.554905 -1.50922 0
M  V30 1139 O 112.532 -0.821882 -1.53593 0
M  V30 1140 C 109.664 -1.70667 -2.95102 0
M  V30 1141 H 110.857 -2.64828 -1.40733 0
M  V30 1142 H 108.41 -1.39742 -0.700132 0
M  V30 1143 H 109.145 -0.75932 -3.15285 0
M  V30 1144 H 108.93 -2.52698 -2.9981 0
M  V30 1145 H 110.42 -1.8664 -3.73571 0
M  V30 1146 N 110.857 0.726932 -1.39834 0
M  V30 1147 C 111.789 1.85147 -1.35104 0
M  V30 1148 C 112.802 1.60736 -0.258392 0
M  V30 1149 O 113.991 1.70821 -0.517931 0
M  V30 1150 C 111.091 3.21332 -1.07697 0
M  V30 1151 C 110.264 3.73033 -2.28396 0
M  V30 1152 C 109.323 4.87802 -1.97322 0
M  V30 1153 O 108.349 5.01043 -2.70083 0
M  V30 1154 N 109.551 5.72768 -0.944273 0
M  V30 1155 H 112.316 1.89706 -2.32017 0
M  V30 1156 H 109.877 0.908006 -1.3404 0
M  V30 1157 H 111.869 3.95691 -0.849144 0
M  V30 1158 H 110.439 3.11992 -0.194909 0
M  V30 1159 H 109.659 2.89934 -2.6708 0
M  V30 1160 H 110.947 4.0431 -3.08887 0
M  V30 1161 H 110.345 5.64669 -0.341427 0
M  V30 1162 H 108.902 6.4716 -0.776346 0
M  V30 1163 N 112.336 1.25143 0.95797 0
M  V30 1164 C 113.752 1.01892 1.22842 0
M  V30 1165 C 113.952 -0.266311 1.99732 0
M  V30 1166 O 113.008 -0.979913 2.3271 0
M  V30 1167 C 114.321 2.24004 2.00606 0
M  V30 1168 C 115.869 2.28731 2.13662 0
M  V30 1169 C 116.344 3.5049 2.94823 0
M  V30 1170 N 117.835 3.50866 3.02403 0
M  V30 1171 C 118.57 4.4174 3.65586 0
M  V30 1172 N 118.066 5.42882 4.30408 0
M  V30 1173 N 119.859 4.29429 3.62694 0
M  V30 1174 H 112.01 2.07718 0.443493 0
M  V30 1175 H 114.273 0.912031 0.258657 0
M  V30 1176 H 113.979 3.17395 1.51503 0
M  V30 1177 H 113.853 2.26907 3.01319 0
M  V30 1178 H 116.24 1.35865 2.61963 0
M  V30 1179 H 116.321 2.29848 1.12265 0
M  V30 1180 H 115.965 4.43676 2.47213 0
M  V30 1181 H 115.895 3.46617 3.96439 0
M  V30 1182 H 118.386 2.777 2.56302 0
M  V30 1183 H 118.699 6.0844 4.76467 0
M  V30 1184 H 117.044 5.46758 4.29047 0
M  V30 1185 H 120.235 3.49643 3.11236 0
M  V30 1186 H 120.408 5.00448 4.1165 0
M  V30 1187 N 113.814 -1.1601 1.06675 0
M  V30 1188 C 114.746 -2.20115 0.638921 0
M  V30 1189 C 115.759 -1.59916 -0.305057 0
M  V30 1190 O 116.948 -1.78245 -0.0954446 0
M  V30 1191 C 114.048 -3.38798 -0.0830083 0
M  V30 1192 C 113.221 -4.2855 0.875426 0
M  V30 1193 C 112.28 -5.25849 0.192042 0
M  V30 1194 O 111.306 -5.63102 0.830921 0
M  V30 1195 N 112.508 -5.70648 -1.06493 0
M  V30 1196 H 115.273 -2.57439 1.53444 0
M  V30 1197 H 112.834 -1.31057 0.950557 0
M  V30 1198 H 114.826 -4.00936 -0.550685 0
M  V30 1199 H 113.396 -2.99947 -0.880386 0
M  V30 1200 H 112.616 -3.63617 1.52238 0
M  V30 1201 H 113.904 -4.85393 1.52548 0
M  V30 1202 H 113.302 -5.42482 -1.60405 0
M  V30 1203 H 111.859 -6.34859 -1.47641 0
M  V30 1204 N 115.292 -0.849877 -1.32721 0
M  V30 1205 C 116.224 -0.248332 -2.27851 0
M  V30 1206 C 117.237 0.577218 -1.52224 0
M  V30 1207 O 118.426 0.402489 -1.73903 0
M  V30 1208 C 115.526 0.668107 -3.32249 0
M  V30 1209 C 114.699 -0.120534 -4.37234 0
M  V30 1210 C 113.758 0.720932 -5.21238 0
M  V30 1211 O 112.784 0.156166 -5.68986 0
M  V30 1212 N 113.986 2.03647 -5.43607 0
M  V30 1213 H 116.751 -1.06575 -2.80111 0
M  V30 1214 H 114.312 -0.709395 -1.45531 0
M  V30 1215 H 116.304 1.23627 -3.85355 0
M  V30 1216 H 114.874 1.38621 -2.80184 0
M  V30 1217 H 114.094 -0.870108 -3.84477 0
M  V30 1218 H 115.382 -0.662406 -5.0447 0
M  V30 1219 H 114.78 2.51871 -5.06535 0
M  V30 1220 H 113.337 2.55287 -5.99727 0
M  V30 1221 N 116.77 1.45427 -0.607355 0
M  V30 1222 C 118.019 2.01452 -0.100036 0
M  V30 1223 C 118.332 1.48159 1.27704 0
M  V30 1224 O 119.538 1.96159 1.87707 0
M  V30 1225 C 117.994 3.59672 -0.128158 0
M  V30 1226 C 117.602 4.21962 -1.50507 0
M  V30 1227 C 119.346 4.23262 0.323932 0
M  V30 1228 C 117.253 5.72333 -1.48959 0
M  V30 1229 H 116.183 0.75325 -0.0336299 0
M  V30 1230 H 118.834 1.66901 -0.76265 0
M  V30 1231 H 117.216 3.91411 0.601105 0
M  V30 1232 H 118.39 4.01796 -2.25602 0
M  V30 1233 H 116.705 3.70565 -1.89923 0
M  V30 1234 H 119.302 5.33522 0.354691 0
M  V30 1235 H 119.645 3.93921 1.34656 0
M  V30 1236 H 120.178 3.96239 -0.352056 0
M  V30 1237 H 116.917 6.06373 -2.48981 0
M  V30 1238 H 116.437 5.94691 -0.781214 0
M  V30 1239 H 118.116 6.35525 -1.21313 0
M  V30 1240 N 118.248 0.346503 1.53744 0
M  V30 1241 C 119.195 -0.508914 2.25119 0
M  V30 1242 C 120.165 -1.09315 1.25058 0
M  V30 1243 O 121.35 -1.12921 1.53797 0
M  V30 1244 C 118.49 -1.65246 3.02965 0
M  V30 1245 C 117.603 -1.09525 4.17886 0
M  V30 1246 C 116.738 -2.20634 4.83212 0
M  V30 1247 C 115.777 -1.62279 5.90196 0
M  V30 1248 N 114.914 -2.67143 6.49291 0
M  V30 1249 H 119.754 0.106283 2.9781 0
M  V30 1250 H 117.291 0.0642227 1.4696 0
M  V30 1251 H 119.249 -2.32574 3.4636 0
M  V30 1252 H 117.879 -2.2386 2.32565 0
M  V30 1253 H 116.931 -0.312818 3.79112 0
M  V30 1254 H 118.243 -0.628444 4.94825 0
M  V30 1255 H 117.397 -2.95821 5.29693 0
M  V30 1256 H 116.136 -2.70659 4.05703 0
M  V30 1257 H 115.141 -0.855989 5.43096 0
M  V30 1258 H 116.366 -1.13102 6.69615 0
M  V30 1259 H 114.312 -3.16417 5.74645 0
M  V30 1260 H 114.229 -2.25093 7.21713 0
M  V30 1261 H 115.497 -3.4209 7.00425 0
M  V30 1262 N 119.726 -1.57421 0.075193 0
M  V30 1263 C 120.689 -2.11791 -0.876203 0
M  V30 1264 C 121.689 -1.04268 -1.22412 0
M  V30 1265 O 122.879 -1.30242 -1.15684 0
M  V30 1266 C 120.011 -2.62207 -2.17854 0
M  V30 1267 H 121.204 -2.9716 -0.40444 0
M  V30 1268 H 118.757 -1.55333 -0.173557 0
M  V30 1269 H 119.492 -1.803 -2.6956 0
M  V30 1270 H 119.277 -3.40802 -1.93897 0
M  V30 1271 H 120.767 -3.04335 -2.85955 0
M  V30 1272 N 121.204 0.198386 -1.56346 0
M  V30 1273 C 122.167 1.22952 -1.93431 0
M  V30 1274 C 123.167 1.38611 -0.815092 0
M  V30 1275 O 124.357 1.36479 -1.08255 0
M  V30 1276 C 121.489 2.59946 -2.20546 0
M  V30 1277 H 122.682 0.912626 -2.85677 0
M  V30 1278 H 120.235 0.43977 -1.49986 0
M  V30 1279 H 120.97 2.96696 -1.30927 0
M  V30 1280 H 120.755 2.49953 -3.02102 0
M  V30 1281 H 122.245 3.3431 -2.50253 0
M  V30 1282 N 122.682 1.50554 0.465978 0
M  V30 1283 C 123.912 1.65323 1.23903 0
M  V30 1284 C 124.32 0.338051 1.86155 0
M  V30 1285 O 123.663 -0.690518 1.70228 0
M  V30 1286 C 123.725 2.69048 2.3844 0
M  V30 1287 C 123.389 4.12462 1.96784 0
M  V30 1288 C 124.386 4.98168 1.48745 0
M  V30 1289 C 122.071 4.58407 2.05349 0
M  V30 1290 C 124.065 6.27868 1.0982 0
M  V30 1291 C 121.752 5.88112 1.66035 0
M  V30 1292 C 122.75 6.72668 1.18349 0
M  V30 1293 O 122.438 7.99951 0.795825 0
M  V30 1294 H 122.17 0.558629 0.38067 0
M  V30 1295 H 124.724 1.97561 0.562022 0
M  V30 1296 H 122.954 2.32062 3.09328 0
M  V30 1297 H 124.643 2.72985 3.0039 0
M  V30 1298 H 125.409 4.63885 1.41546 0
M  V30 1299 H 121.288 3.92735 2.41414 0
M  V30 1300 H 124.832 6.93819 0.725293 0
M  V30 1301 H 120.729 6.21914 1.72895 0
M  V30 1302 H 121.497 8.13265 0.924222 0
M  V30 1303 N 124.16 -0.719506 1.40217 0
M  V30 1304 C 125.09 -1.8465 1.42922 0
M  V30 1305 C 126.071 -1.67599 0.29062 0
M  V30 1306 O 127.256 -1.87688 0.498677 0
M  V30 1307 C 124.386 -3.22565 1.28722 0
M  V30 1308 C 123.34 -3.54281 2.40144 0
M  V30 1309 C 122.666 -4.91298 2.11023 0
M  V30 1310 C 123.966 -3.55676 3.82481 0
M  V30 1311 H 125.66 -1.82644 2.37237 0
M  V30 1312 H 123.206 -0.877305 1.1419 0
M  V30 1313 H 125.159 -4.01095 1.29232 0
M  V30 1314 H 123.883 -3.25137 0.308811 0
M  V30 1315 H 122.542 -2.78088 2.38877 0
M  V30 1316 H 122.19 -4.90468 1.11582 0
M  V30 1317 H 121.89 -5.13485 2.8567 0
M  V30 1318 H 123.414 -5.72166 2.13209 0
M  V30 1319 H 124.828 -4.24254 3.85592 0
M  V30 1320 H 123.225 -3.89388 4.56614 0
M  V30 1321 H 124.295 -2.55144 4.12346 0
M  V30 1322 N 125.638 -1.25649 -0.95132 0
M  V30 1323 C 126.57 -1.02112 -2.05197 0
M  V30 1324 C 127.583 0.0150571 -1.62793 0
M  V30 1325 O 128.772 -0.223874 -1.77091 0
M  V30 1326 C 125.872 -0.522361 -3.3485 0
M  V30 1327 C 125.045 -1.62546 -4.06076 0
M  V30 1328 C 124.104 -1.12649 -5.14001 0
M  V30 1329 O 123.13 -1.82156 -5.39266 0
M  V30 1330 N 124.332 0.03047 -5.80492 0
M  V30 1331 H 127.097 -1.96885 -2.25957 0
M  V30 1332 H 124.658 -1.16899 -1.1201 0
M  V30 1333 H 126.65 -0.172961 -4.0433 0
M  V30 1334 H 125.22 0.33151 -3.10837 0
M  V30 1335 H 124.44 -2.14628 -3.30649 0
M  V30 1336 H 125.728 -2.36644 -4.50419 0
M  V30 1337 H 125.126 0.611169 -5.62389 0
M  V30 1338 H 123.683 0.320875 -6.5101 0
M  V30 1339 N 127.117 1.15442 -1.07289 0
M  V30 1340 C 128.027 2.23786 -0.704057 0
M  V30 1341 C 129.043 1.7166 0.284413 0
M  V30 1342 O 130.219 2.00972 0.131205 0
M  V30 1343 C 127.284 3.46535 -0.106792 0
M  V30 1344 C 126.345 4.13654 -1.14842 0
M  V30 1345 C 125.578 5.30544 -0.57956 0
M  V30 1346 O 125.801 5.67187 0.604585 0
M  V30 1347 O 124.735 5.87154 -1.32414 0
M  V30 1348 H 128.561 2.57664 -1.60757 0
M  V30 1349 H 126.146 1.23152 -0.845803 0
M  V30 1350 H 128.028 4.20804 0.224048 0
M  V30 1351 H 126.703 3.14407 0.770049 0
M  V30 1352 H 125.61 3.4131 -1.5316 0
M  V30 1353 H 126.943 4.49861 -1.99714 0
M  V30 1354 N 128.595 0.856903 1.32268 0
M  V30 1355 C 129.823 0.475439 2.01363 0
M  V30 1356 C 130.238 -0.928486 1.64392 0
M  V30 1357 O 129.595 -1.60624 0.866387 0
M  V30 1358 C 129.646 0.607545 3.56358 0
M  V30 1359 O 129.367 1.95617 3.92002 0
M  V30 1360 C 130.868 0.225382 4.42727 0
M  V30 1361 H 128.088 0.186636 0.644521 0
M  V30 1362 H 130.632 1.15446 1.68797 0
M  V30 1363 H 128.787 -0.0237719 3.87393 0
M  V30 1364 H 129.201 1.95455 4.86721 0
M  V30 1365 H 130.675 0.368813 5.50767 0
M  V30 1366 H 131.152 -0.834369 4.31202 0
M  V30 1367 H 131.758 0.831864 4.17085 0
M  V30 1368 N 130.073 -1.45103 0.615059 0
M  V30 1369 C 131.321 -2.01784 0.112955 0
M  V30 1370 C 131.642 -1.48504 -1.26378 0
M  V30 1371 O 130.912 -0.682245 -1.83636 0
M  V30 1372 H 129.492 -0.745993 0.0387668 0
M  V30 1373 H 132.154 -1.77808 0.798141 0
M  V30 1374 H 131.25 -3.12025 0.0684069 0
M  V30 1375 N 131.551 -0.354651 -1.53558 0
M  V30 1376 C 132.498 0.496968 -2.25386 0
M  V30 1377 C 133.468 1.0865 -1.25636 0
M  V30 1378 O 134.653 1.12104 -1.54394 0
M  V30 1379 C 131.793 1.63637 -3.03837 0
M  V30 1380 C 130.906 1.07307 -4.18461 0
M  V30 1381 C 130.041 2.18068 -4.84376 0
M  V30 1382 C 129.08 1.59147 -5.91049 0
M  V30 1383 N 128.217 2.63695 -6.50699 0
M  V30 1384 H 133.057 -0.122075 -2.9775 0
M  V30 1385 H 130.594 -0.0720154 -1.46924 0
M  V30 1386 H 132.552 2.30734 -3.47589 0
M  V30 1387 H 131.182 2.22623 -2.33749 0
M  V30 1388 H 130.234 0.292708 -3.79272 0
M  V30 1389 H 131.546 0.602193 -4.95152 0
M  V30 1390 H 130.7 2.93007 -5.31255 0
M  V30 1391 H 129.439 2.68504 -4.07133 0
M  V30 1392 H 128.444 0.827175 -5.43542 0
M  V30 1393 H 129.669 1.09549 -6.70206 0
M  V30 1394 H 127.615 3.13365 -5.76315 0
M  V30 1395 H 127.532 2.21263 -7.22896 0
M  V30 1396 H 128.8 3.3837 -7.02229 0
M  V30 1397 N 133.029 1.57378 -0.0835403 0
M  V30 1398 C 134.44 1.81261 0.447358 0
M  V30 1399 C 134.791 0.998331 1.68902 0
M  V30 1400 O 133.916 0.224282 2.15235 0
M  V30 1401 C 134.511 3.28767 0.818386 0
M  V30 1402 C 133.07 3.53455 1.29409 0
M  V30 1403 C 132.217 2.75831 0.285024 0
M  V30 1404 H 135.168 1.5566 -0.309115 0
M  V30 1405 H 135.189 3.41459 1.67887 0
M  V30 1406 H 134.701 3.88006 -0.0855019 0
M  V30 1407 H 132.802 2.99534 2.21608 0
M  V30 1408 H 132.915 4.62128 1.2639 0
M  V30 1409 H 131.279 2.42947 0.764767 0
M  V30 1410 H 132.062 3.37813 -0.611341 0
M  V30 1411 N 134.507 -0.190092 1.56449 0
M  V30 1412 C 135.437 -1.23816 1.97969 0
M  V30 1413 C 136.418 -1.47201 0.852395 0
M  V30 1414 O 137.603 -1.58854 1.1171 0
M  V30 1415 C 134.733 -2.5813 2.3235 0
M  V30 1416 C 133.687 -2.49348 3.47864 0
M  V30 1417 C 133.013 -3.8798 3.67934 0
M  V30 1418 C 134.313 -2.01424 4.81898 0
M  V30 1419 H 136.007 -0.89311 2.85769 0
M  V30 1420 H 133.553 -0.428177 1.37487 0
M  V30 1421 H 135.506 -3.31637 2.59991 0
M  V30 1422 H 134.23 -2.94386 1.41438 0
M  V30 1423 H 132.889 -1.78297 3.20321 0
M  V30 1424 H 132.537 -4.21597 2.74344 0
M  V30 1425 H 132.237 -3.82978 4.45648 0
M  V30 1426 H 133.761 -4.63101 3.97957 0
M  V30 1427 H 135.175 -2.64693 5.08538 0
M  V30 1428 H 133.572 -2.07413 5.63116 0
M  V30 1429 H 134.642 -0.967677 4.75146 0
M  V30 1430 N 135.985 -1.50799 -0.457987 0
M  V30 1431 C 137.262 -1.52968 -1.21902 0
M  V30 1432 C 137.642 -0.281906 -2.09209 0
M  V30 1433 O 136.99 0.734076 -2.16388 0
M  V30 1434 C 137.2 -2.8326 -2.03875 0
M  V30 1435 C 138.548 -3.34425 -2.6162 0
M  V30 1436 O 139.572 -2.8467 -2.14106 0
M  V30 1437 O 138.431 -4.21188 -3.48228 0
M  V30 1438 H 135.525 -0.614129 -0.553873 0
M  V30 1439 H 138.071 -1.63098 -0.468739 0
M  V30 1440 H 136.843 -3.65543 -1.39621 0
M  V30 1441 H 136.466 -2.76195 -2.8601 0
M  V30 1442 N 137.463 0.71206 -1.40597 0
M  V30 1443 C 138.373 1.8562 -1.43466 0
M  V30 1444 C 139.389 1.70902 -0.326902 0
M  V30 1445 O 140.565 1.93105 -0.572043 0
M  V30 1446 C 137.63 3.21451 -1.29884 0
M  V30 1447 C 136.691 3.48398 -2.50833 0
M  V30 1448 C 135.924 4.77749 -2.3789 0
M  V30 1449 O 136.147 5.53089 -1.39459 0
M  V30 1450 O 135.081 5.05111 -3.27333 0
M  V30 1451 H 138.907 1.86155 -2.39958 0
M  V30 1452 H 136.492 0.86295 -1.21957 0
M  V30 1453 H 138.374 4.02579 -1.24531 0
M  V30 1454 H 137.049 3.21636 -0.364997 0
M  V30 1455 H 135.956 2.67265 -2.61763 0
M  V30 1456 H 137.289 3.53014 -3.4299 0
M  V30 1457 N 138.941 1.26152 0.944643 0
M  V30 1458 C 140.169 1.14259 1.72489 0
M  V30 1459 C 140.584 -0.302555 1.8636 0
M  V30 1460 O 139.941 -1.20741 1.36849 0
M  V30 1461 C 139.992 1.80266 3.13347 0
M  V30 1462 O 139.713 3.19133 3.00143 0
M  V30 1463 C 141.214 1.74283 4.07603 0
M  V30 1464 H 138.434 0.398051 0.540181 0
M  V30 1465 H 140.978 1.66706 1.18446 0
M  V30 1466 H 139.133 1.31766 3.64303 0
M  V30 1467 H 139.547 3.51744 3.89071 0
M  V30 1468 H 141.021 2.25111 5.04013 0
M  V30 1469 H 141.498 0.708631 4.33446 0
M  V30 1470 H 142.104 2.22319 3.62567 0
M  V30 1471 N 140.419 -1.14872 1.07899 0
M  V30 1472 C 141.349 -2.2193 0.725887 0
M  V30 1473 C 142.33 -1.67622 -0.28927 0
M  V30 1474 O 143.515 -1.93533 -0.160787 0
M  V30 1475 C 140.645 -3.47061 0.128856 0
M  V30 1476 C 139.599 -4.14363 1.07178 0
M  V30 1477 C 138.925 -5.33636 0.337229 0
M  V30 1478 C 140.225 -4.63492 2.40775 0
M  V30 1479 H 141.919 -2.51724 1.62097 0
M  V30 1480 H 139.465 -1.20991 0.780838 0
M  V30 1481 H 141.418 -4.21199 -0.130147 0
M  V30 1482 H 140.142 -3.16617 -0.80134 0
M  V30 1483 H 138.801 -3.42173 1.3158 0
M  V30 1484 H 138.449 -4.99449 -0.596606 0
M  V30 1485 H 138.149 -5.79609 0.965788 0
M  V30 1486 H 139.673 -6.10539 0.0861567 0
M  V30 1487 H 141.087 -5.2913 2.20669 0
M  V30 1488 H 139.484 -5.20148 2.99276 0
M  V30 1489 H 140.554 -3.78834 3.02676 0
M  V30 1490 N 141.898 -0.863906 -1.31812 0
M  V30 1491 C 142.845 -0.313303 -2.28664 0
M  V30 1492 C 143.815 0.584868 -1.55462 0
M  V30 1493 O 145 0.517805 -1.83639 0
M  V30 1494 C 142.14 0.48441 -3.41683 0
M  V30 1495 C 141.253 -0.440594 -4.29747 0
M  V30 1496 C 140.388 0.370652 -5.29905 0
M  V30 1497 C 139.427 -0.551164 -6.09613 0
M  V30 1498 N 138.564 0.223462 -7.01744 0
M  V30 1499 H 143.404 -1.14444 -2.75148 0
M  V30 1500 H 140.941 -0.575769 -1.35364 0
M  V30 1501 H 142.899 0.962627 -4.05943 0
M  V30 1502 H 141.529 1.28029 -2.96325 0
M  V30 1503 H 140.581 -1.03724 -3.65986 0
M  V30 1504 H 141.893 -1.14767 -4.85417 0
M  V30 1505 H 141.047 0.911638 -5.99812 0
M  V30 1506 H 139.786 1.11105 -4.74876 0
M  V30 1507 H 138.791 -1.10396 -5.38603 0
M  V30 1508 H 140.016 -1.29032 -6.66729 0
M  V30 1509 H 137.962 0.946787 -6.49132 0
M  V30 1510 H 137.879 -0.424399 -7.54808 0
M  V30 1511 H 139.147 0.745876 -7.75923 0
M  V30 1512 N 143.376 1.44774 -0.622745 0
M  V30 1513 C 144.323 2.30635 0.0871679 0
M  V30 1514 C 145.293 1.42994 0.845097 0
M  V30 1515 O 146.478 1.71907 0.827812 0
M  V30 1516 C 143.618 3.28144 1.06844 0
M  V30 1517 C 142.731 4.30888 0.309809 0
M  V30 1518 C 141.866 5.15494 1.28215 0
M  V30 1519 C 140.905 6.09953 0.512198 0
M  V30 1520 N 140.042 6.87287 1.43458 0
M  V30 1521 H 144.882 2.90803 -0.650974 0
M  V30 1522 H 142.419 1.43286 -0.33281 0
M  V30 1523 H 144.377 3.83157 1.65066 0
M  V30 1524 H 143.007 2.69695 1.77382 0
M  V30 1525 H 142.059 3.78414 -0.388181 0
M  V30 1526 H 143.371 4.97955 -0.290254 0
M  V30 1527 H 142.525 5.74983 1.93596 0
M  V30 1528 H 141.264 4.48481 1.91614 0
M  V30 1529 H 140.269 5.49581 -0.155151 0
M  V30 1530 H 141.494 6.78999 -0.116958 0
M  V30 1531 H 139.44 6.2295 2.05594 0
M  V30 1532 H 139.357 7.50763 0.888335 0
M  V30 1533 H 140.625 7.51306 2.07749 0
M  V30 1534 N 144.854 0.36279 1.53368 0
M  V30 1535 C 145.817 -0.472679 2.24273 0
M  V30 1536 C 146.817 -1.012 1.24961 0
M  V30 1537 O 148.007 -0.898194 1.49259 0
M  V30 1538 C 145.139 -1.66039 2.97731 0
M  V30 1539 H 146.332 0.14773 2.99536 0
M  V30 1540 H 143.885 0.114434 1.55881 0
M  V30 1541 H 144.62 -2.31896 2.26704 0
M  V30 1542 H 144.405 -1.28066 3.70596 0
M  V30 1543 H 145.895 -2.25252 3.51641 0
M  V30 1544 N 146.332 -1.57332 0.0918853 0
M  V30 1545 C 147.262 -2.16872 -0.865371 0
M  V30 1546 C 148.243 -1.10118 -1.29646 0
M  V30 1547 O 149.428 -1.38242 -1.36392 0
M  V30 1548 C 146.558 -2.74649 -2.12569 0
M  V30 1549 C 145.512 -3.86747 -1.83333 0
M  V30 1550 C 144.838 -4.31212 -3.16166 0
M  V30 1551 C 146.138 -5.10089 -1.1228 0
M  V30 1552 H 147.832 -2.97114 -0.369307 0
M  V30 1553 H 145.378 -1.42918 -0.176194 0
M  V30 1554 H 147.331 -3.14952 -2.7997 0
M  V30 1555 H 146.055 -1.91657 -2.64452 0
M  V30 1556 H 144.714 -3.46978 -1.18331 0
M  V30 1557 H 144.362 -3.45115 -3.6593 0
M  V30 1558 H 144.062 -5.06788 -2.97388 0
M  V30 1559 H 145.586 -4.74146 -3.84731 0
M  V30 1560 H 147 -5.47582 -1.69785 0
M  V30 1561 H 145.397 -5.91073 -1.03693 0
M  V30 1562 H 146.467 -4.84786 -0.105041 0
M  V30 1563 N 147.81 0.181792 -1.56548 0
M  V30 1564 C 149.038 0.915947 -1.85521 0
M  V30 1565 C 149.453 1.76282 -0.676016 0
M  V30 1566 O 148.81 1.79012 0.355077 0
M  V30 1567 C 148.861 1.80126 -3.13427 0
M  V30 1568 O 148.582 0.988562 -4.26801 0
M  V30 1569 C 150.083 2.64597 -3.55673 0
M  V30 1570 H 147.303 0.26661 -0.61576 0
M  V30 1571 H 149.847 0.185039 -2.03661 0
M  V30 1572 H 148.002 2.48563 -2.97145 0
M  V30 1573 H 148.416 1.59308 -4.99721 0
M  V30 1574 H 149.89 3.2235 -4.48101 0
M  V30 1575 H 150.367 3.38958 -2.79292 0
M  V30 1576 H 150.973 2.0151 -3.74532 0
M  V30 1577 N 149.288 1.51039 0.449983 0
M  V30 1578 C 150.536 1.62759 1.19808 0
M  V30 1579 C 150.857 0.339981 1.92013 0
M  V30 1580 O 150.127 -0.643606 1.85026 0
M  V30 1581 H 148.707 0.599811 0.445237 0
M  V30 1582 H 151.369 1.87914 0.517138 0
M  V30 1583 H 150.465 2.44911 1.93455 0
M  V30 1584 N 150.766 -0.704594 1.40972 0
M  V30 1585 C 151.716 -1.81051 1.38581 0
M  V30 1586 C 152.7 -1.58759 0.261585 0
M  V30 1587 O 153.892 -1.69745 0.501556 0
M  V30 1588 C 151.021 -3.19279 1.26157 0
M  V30 1589 C 150.107 -3.47296 2.43405 0
M  V30 1590 N 150.498 -3.46064 3.68881 0
M  V30 1591 C 148.796 -3.77804 2.37023 0
M  V30 1592 C 149.497 -3.72733 4.46592 0
M  V30 1593 N 148.473 -3.9203 3.76581 0
M  V30 1594 H 152.275 -1.78448 2.33525 0
M  V30 1595 H 149.789 -0.904198 1.349 0
M  V30 1596 H 151.786 -3.98488 1.22526 0
M  V30 1597 H 150.446 -3.231 0.321902 0
M  V30 1598 H 151.457 -3.26656 4.01891 0
M  V30 1599 H 148.134 -3.8905 1.51481 0
M  V30 1600 H 149.524 -3.77993 5.55492 0
M  V30 1601 N 152.244 -1.26651 -0.937939 0
M  V30 1602 C 153.174 -1.10993 -2.05433 0
M  V30 1603 C 154.155 -0.0142161 -1.70094 0
M  V30 1604 O 155.34 -0.186837 -1.93299 0
M  V30 1605 C 152.47 -0.745561 -3.39203 0
M  V30 1606 C 151.424 -1.79337 -3.88616 0
M  V30 1607 C 150.75 -1.28324 -5.19073 0
M  V30 1608 C 152.05 -3.19553 -4.13138 0
M  V30 1609 H 153.744 -2.0438 -2.1879 0
M  V30 1610 H 151.29 -0.984041 -1.05131 0
M  V30 1611 H 153.243 -0.622888 -4.16771 0
M  V30 1612 H 151.967 0.22401 -3.25831 0
M  V30 1613 H 150.626 -1.90477 -3.13231 0
M  V30 1614 H 150.274 -0.303414 -5.02084 0
M  V30 1615 H 149.974 -1.98369 -5.53103 0
M  V30 1616 H 151.498 -1.1733 -5.99221 0
M  V30 1617 H 152.912 -3.11471 -4.81309 0
M  V30 1618 H 151.309 -3.87218 -4.58457 0
M  V30 1619 H 152.379 -3.65368 -3.18801 0
M  V30 1620 N 153.722 1.14298 -1.08507 0
M  V30 1621 C 154.632 2.23027 -0.727753 0
M  V30 1622 C 155.648 1.71952 0.26619 0
M  V30 1623 O 156.824 2.011 0.109882 0
M  V30 1624 C 153.889 3.46403 -0.143541 0
M  V30 1625 C 152.95 4.12413 -1.19223 0
M  V30 1626 C 152.183 5.29899 -0.635798 0
M  V30 1627 O 152.406 5.67796 0.544393 0
M  V30 1628 O 151.34 5.85717 -1.38634 0
M  V30 1629 H 155.166 2.55945 -1.63481 0
M  V30 1630 H 152.751 1.22248 -0.858817 0
M  V30 1631 H 154.633 4.21018 0.179404 0
M  V30 1632 H 153.308 3.15206 0.736659 0
M  V30 1633 H 152.215 3.39667 -1.56772 0
M  V30 1634 H 153.548 4.47718 -2.04474 0
M  V30 1635 N 155.201 0.870884 1.31352 0
M  V30 1636 C 156.111 0.330783 2.32256 0
M  V30 1637 C 157.127 -0.559767 1.6475 0
M  V30 1638 O 158.303 -0.456263 1.96164 0
M  V30 1639 C 155.368 -0.458137 3.4366 0
M  V30 1640 C 154.429 0.460482 4.26823 0
M  V30 1641 C 153.662 -0.290881 5.32907 0
M  V30 1642 O 153.885 -1.51885 5.49806 0
M  V30 1643 O 152.819 0.351732 6.00871 0
M  V30 1644 H 156.645 1.16718 2.80376 0
M  V30 1645 H 154.23 0.634285 1.35267 0
M  V30 1646 H 156.112 -0.905343 4.1156 0
M  V30 1647 H 154.787 -1.27106 2.97701 0
M  V30 1648 H 153.694 0.956207 3.61673 0
M  V30 1649 H 155.027 1.23903 4.7635 0
M  V30 1650 N 156.679 -1.44442 0.630414 0
M  V30 1651 C 157.925 -2.02351 0.134816 0
M  V30 1652 C 158.258 -1.4947 -1.23986 0
M  V30 1653 O 157.533 -0.678475 -1.82283 0
M  V30 1654 C 157.816 -3.59898 0.120707 0
M  V30 1655 C 157.669 -4.23063 1.52767 0
M  V30 1656 C 158.988 -4.36585 -0.555127 0
M  V30 1657 H 156.107 -0.73527 0.0504646 0
M  V30 1658 H 158.749 -1.72022 0.806751 0
M  V30 1659 H 156.899 -3.85868 -0.451477 0
M  V30 1660 H 158.571 -4.08202 2.14869 0
M  V30 1661 H 156.814 -3.80586 2.08175 0
M  V30 1662 H 157.485 -5.32071 1.46984 0
M  V30 1663 H 159.961 -4.16044 -0.0685429 0
M  V30 1664 H 158.837 -5.46294 -0.534185 0
M  V30 1665 H 159.098 -4.11138 -1.62535 0
M  V30 1666 N 158.157 -0.370918 -1.53173 0
M  V30 1667 C 159.403 0.217423 -2.01631 0
M  V30 1668 C 159.736 1.47983 -1.25756 0
M  V30 1669 O 159.011 1.91274 -0.352764 0
M  V30 1670 C 159.294 0.503982 -3.56556 0
M  V30 1671 C 159.147 -0.77243 -4.43118 0
M  V30 1672 C 160.466 1.30234 -4.20389 0
M  V30 1673 H 157.585 0.0775486 -0.732909 0
M  V30 1674 H 160.227 -0.496863 -1.83388 0
M  V30 1675 H 158.377 1.11248 -3.72231 0
M  V30 1676 H 160.049 -1.4098 -4.39229 0
M  V30 1677 H 158.292 -1.39167 -4.10871 0
M  V30 1678 H 158.963 -0.526815 -5.4948 0
M  V30 1679 H 161.439 0.787546 -4.08579 0
M  V30 1680 H 160.315 1.47158 -5.28806 0
M  V30 1681 H 160.576 2.31237 -3.76805 0
M  V30 1682 N 159.635 1.57281 -0.100228 0
M  V30 1683 C 160.565 2.17328 0.853857 0
M  V30 1684 C 161.546 1.10804 1.2906 0
M  V30 1685 O 162.731 1.38963 1.35657 0
M  V30 1686 C 159.861 2.75772 2.11109 0
M  V30 1687 C 158.815 3.87713 1.81279 0
M  V30 1688 C 158.141 4.32882 3.13874 0
M  V30 1689 C 159.441 5.10677 1.09574 0
M  V30 1690 H 161.135 2.97305 0.353545 0
M  V30 1691 H 158.681 1.43009 0.168612 0
M  V30 1692 H 160.634 3.16433 2.78296 0
M  V30 1693 H 159.358 1.93057 2.63432 0
M  V30 1694 H 158.017 3.476 1.16489 0
M  V30 1695 H 157.665 3.47051 3.64095 0
M  V30 1696 H 157.365 5.08358 2.94696 0
M  V30 1697 H 158.889 4.7618 3.82211 0
M  V30 1698 H 160.303 5.48474 1.66879 0
M  V30 1699 H 158.7 5.91615 1.00557 0
M  V30 1700 H 159.77 4.84835 0.0793299 0
M  V30 1701 N 161.113 -0.173488 1.56642 0
M  V30 1702 C 162.076 -1.19859 1.95362 0
M  V30 1703 C 163.076 -1.37296 0.83704 0
M  V30 1704 O 164.266 -1.34739 1.10413 0
M  V30 1705 C 161.398 -2.56405 2.24654 0
M  V30 1706 H 162.591 -0.867062 2.87092 0
M  V30 1707 H 160.144 -0.415853 1.50666 0
M  V30 1708 H 160.879 -2.94576 1.35631 0
M  V30 1709 H 160.664 -2.45115 3.06041 0
M  V30 1710 H 162.154 -3.30287 2.5554 0
M  V30 1711 N 162.591 -1.51276 -0.441967 0
M  V30 1712 C 163.521 -1.752 -1.54361 0
M  V30 1713 C 164.502 -0.601682 -1.59103 0
M  V30 1714 O 165.687 -0.843913 -1.74905 0
M  V30 1715 C 162.817 -1.87282 -2.92477 0
M  V30 1716 C 161.771 -3.02687 -3.02596 0
M  V30 1717 C 161.097 -2.99947 -4.42647 0
M  V30 1718 C 162.397 -4.4273 -2.77106 0
M  V30 1719 H 164.091 -2.67442 -1.34592 0
M  V30 1720 H 161.637 -1.28694 -0.646048 0
M  V30 1721 H 163.59 -2.02602 -3.695 0
M  V30 1722 H 162.314 -0.916844 -3.13467 0
M  V30 1723 H 160.973 -2.87065 -2.28012 0
M  V30 1724 H 160.621 -2.02136 -4.60597 0
M  V30 1725 H 160.321 -3.77439 -4.50348 0
M  V30 1726 H 161.845 -3.17354 -5.2165 0
M  V30 1727 H 163.259 -4.58727 -3.43864 0
M  V30 1728 H 161.656 -5.21893 -2.96222 0
M  V30 1729 H 162.726 -4.53087 -1.72744 0
M  V30 1730 N 164.069 0.697108 -1.41344 0
M  V30 1731 C 164.999 1.82353 -1.45841 0
M  V30 1732 C 165.98 1.67115 -0.317247 0
M  V30 1733 O 167.165 1.86871 -0.528474 0
M  V30 1734 C 164.295 3.20476 -1.33838 0
M  V30 1735 C 163.249 3.50415 -2.4575 0
M  V30 1736 C 162.575 4.87878 -2.18813 0
M  V30 1737 C 163.875 3.49546 -3.88091 0
M  V30 1738 H 165.569 1.78846 -2.40113 0
M  V30 1739 H 163.115 0.859028 -1.15571 0
M  V30 1740 H 165.068 3.98988 -1.35596 0
M  V30 1741 H 163.792 3.24604 -0.360498 0
M  V30 1742 H 162.451 2.74253 -2.43271 0
M  V30 1743 H 162.099 4.8863 -1.19371 0
M  V30 1744 H 161.799 5.08875 -2.93803 0
M  V30 1745 H 163.323 5.68702 -2.22284 0
M  V30 1746 H 164.737 4.18066 -3.92293 0
M  V30 1747 H 163.134 3.82075 -4.62751 0
M  V30 1748 H 164.204 2.48552 -4.16353 0
M  V30 1749 N 165.547 1.27147 0.931209 0
M  V30 1750 C 166.494 1.09568 2.03134 0
M  V30 1751 C 167.464 -0.00222433 1.661 0
M  V30 1752 O 168.649 0.159439 1.90133 0
M  V30 1753 C 165.789 0.745231 3.36957 0
M  V30 1754 C 164.902 1.92041 3.86968 0
M  V30 1755 C 164.037 1.51216 5.09222 0
M  V30 1756 C 163.076 2.65504 5.5152 0
M  V30 1757 N 162.213 2.25291 6.64972 0
M  V30 1758 H 167.053 2.03708 2.17502 0
M  V30 1759 H 164.59 1.01411 1.06556 0
M  V30 1760 H 166.548 0.522878 4.1391 0
M  V30 1761 H 165.178 -0.159202 3.22407 0
M  V30 1762 H 164.23 2.25541 3.06326 0
M  V30 1763 H 165.542 2.77787 4.1429 0
M  V30 1764 H 164.696 1.25084 5.93666 0
M  V30 1765 H 163.435 0.625749 4.83669 0
M  V30 1766 H 162.44 2.92354 4.65628 0
M  V30 1767 H 163.665 3.54761 5.7907 0
M  V30 1768 H 161.611 1.39098 6.41083 0
M  V30 1769 H 161.528 3.04577 6.91931 0
M  V30 1770 H 162.796 2.02398 7.52765 0
M  V30 1771 N 167.025 -1.13721 1.09112 0
M  V30 1772 C 168.253 -1.88773 0.846899 0
M  V30 1773 C 168.668 -1.7896 -0.601572 0
M  V30 1774 O 168.025 -1.15394 -1.41388 0
M  V30 1775 C 168.076 -3.3849 1.26913 0
M  V30 1776 O 167.797 -3.48043 2.66079 0
M  V30 1777 C 169.298 -4.30518 1.05682 0
M  V30 1778 H 166.518 -0.59772 0.304914 0
M  V30 1779 H 169.062 -1.43977 1.45227 0
M  V30 1780 H 167.217 -3.80881 0.707723 0
M  V30 1781 H 167.631 -4.4109 2.83795 0
M  V30 1782 H 169.105 -5.3391 1.40156 0
M  V30 1783 H 169.582 -4.392 -0.00563416 0
M  V30 1784 H 170.188 -3.93893 1.60402 0
M  V30 1785 N 168.503 -0.877838 -1.30888 0
M  V30 1786 C 169.914 -0.544193 -1.78593 0
M  V30 1787 C 170.265 0.939301 -1.72254 0
M  V30 1788 O 169.39 1.7337 -1.29505 0
M  V30 1789 C 169.985 -0.98105 -3.24285 0
M  V30 1790 C 168.544 -0.698935 -3.69854 0
M  V30 1791 C 167.691 -1.168 -2.51502 0
M  V30 1792 H 170.642 -1.06278 -1.17859 0
M  V30 1793 H 170.663 -0.307009 -3.79259 0
M  V30 1794 H 170.175 -2.06079 -3.28866 0
M  V30 1795 H 168.276 0.369112 -3.70767 0
M  V30 1796 H 168.389 -1.28148 -4.61644 0
M  V30 1797 H 166.753 -0.587535 -2.47831 0
M  V30 1798 H 167.536 -2.25533 -2.58824 0
M  V30 1799 N 169.982 1.44106 -0.638065 0
M  V30 1800 C 170.945 2.29138 0.0531013 0
M  V30 1801 C 171.945 1.41409 0.765506 0
M  V30 1802 O 173.135 1.63206 0.609046 0
M  V30 1803 C 170.267 3.23144 1.08584 0
M  V30 1804 H 171.46 2.91739 -0.694883 0
M  V30 1805 H 169.013 1.51134 -0.398538 0
M  V30 1806 H 169.748 2.65408 1.86357 0
M  V30 1807 H 169.533 3.87804 0.578852 0
M  V30 1808 H 171.023 3.87004 1.56899 0
M  V30 1809 N 171.46 0.379036 1.52974 0
M  V30 1810 C 172.392 -0.495963 2.2377 0
M  V30 1811 C 173.405 -1.03517 1.25651 0
M  V30 1812 O 174.594 -0.939249 1.51791 0
M  V30 1813 C 171.694 -1.69894 2.93239 0
M  V30 1814 C 170.867 -1.2889 4.17979 0
M  V30 1815 C 169.926 -2.35543 4.70538 0
M  V30 1816 O 168.952 -1.97375 5.33883 0
M  V30 1817 N 170.154 -3.67318 4.49508 0
M  V30 1818 H 172.919 0.110523 2.99496 0
M  V30 1819 H 170.48 0.204878 1.60598 0
M  V30 1820 H 172.472 -2.40747 3.25304 0
M  V30 1821 H 171.042 -2.212 2.20883 0
M  V30 1822 H 170.262 -0.409676 3.92065 0
M  V30 1823 H 171.55 -0.991443 4.99047 0
M  V30 1824 H 170.948 -4.01095 3.98923 0
M  V30 1825 H 169.505 -4.34235 4.8609 0
M  V30 1826 N 172.938 -1.57226 0.108567 0
M  V30 1827 C 174.185 -1.94833 -0.551943 0
M  V30 1828 C 174.513 -0.991204 -1.67348 0
M  V30 1829 O 173.768 -0.0131878 -1.95696 0
M  V30 1830 C 174.067 -3.38911 -1.13463 0
M  V30 1831 C 173.733 -4.50696 -0.135509 0
M  V30 1832 C 172.395 -4.80998 0.139252 0
M  V30 1833 C 174.747 -5.18333 0.545957 0
M  V30 1834 C 172.075 -5.76259 1.10194 0
M  V30 1835 C 174.427 -6.14627 1.49721 0
M  V30 1836 C 173.091 -6.43327 1.78006 0
M  V30 1837 H 172.361 -0.712944 -0.20197 0
M  V30 1838 H 175.008 -1.90582 0.18726 0
M  V30 1839 H 173.313 -3.39805 -1.95037 0
M  V30 1840 H 175.01 -3.65317 -1.65362 0
M  V30 1841 H 171.6 -4.27087 -0.359846 0
M  V30 1842 H 175.784 -4.95087 0.346842 0
M  V30 1843 H 171.04 -5.96804 1.32795 0
M  V30 1844 H 175.214 -6.66126 2.03099 0
M  V30 1845 H 172.841 -7.1695 2.52759 0
M  V30 1846 N 174.416 0.165178 -1.56732 0
M  V30 1847 C 175.693 0.908443 -1.73224 0
M  V30 1848 C 176.073 2.0013 -0.67165 0
M  V30 1849 O 175.421 2.26353 0.31253 0
M  V30 1850 C 175.631 1.46756 -3.16644 0
M  V30 1851 C 176.979 1.93809 -3.77787 0
M  V30 1852 O 178.003 1.56537 -3.1996 0
M  V30 1853 O 176.862 2.62486 -4.79336 0
M  V30 1854 H 173.956 0.428025 -0.707618 0
M  V30 1855 H 176.502 0.152526 -1.69013 0
M  V30 1856 H 175.274 0.68129 -3.85323 0
M  V30 1857 H 174.897 2.28749 -3.25207 0
M  V30 1858 N 175.894 1.51508 0.433938 0
M  V30 1859 C 176.857 1.72473 1.50949 0
M  V30 1860 C 177.857 0.594725 1.49398 0
M  V30 1861 O 179.047 0.862315 1.5136 0
M  V30 1862 C 176.179 1.78431 2.90474 0
M  V30 1863 H 177.372 2.68467 1.33662 0
M  V30 1864 H 174.925 1.41549 0.662836 0
M  V30 1865 H 175.66 0.842645 3.13161 0
M  V30 1866 H 175.445 2.60558 2.93005 0
M  V30 1867 H 176.935 1.96479 3.68491 0
M  V30 1868 N 177.372 -0.689602 1.41712 0
M  V30 1869 C 178.649 -1.44457 1.31877 0
M  V30 1870 C 179.029 -2.11039 -0.0508537 0
M  V30 1871 O 178.377 -2.02138 -1.06547 0
M  V30 1872 C 178.587 -2.45913 2.47645 0
M  V30 1873 C 179.935 -3.10991 2.89084 0
M  V30 1874 O 180.959 -2.56238 2.47428 0
M  V30 1875 O 179.818 -4.10174 3.61137 0
M  V30 1876 H 176.912 -0.64362 0.519309 0
M  V30 1877 H 179.458 -0.719576 1.53689 0
M  V30 1878 H 178.23 -1.95409 3.39015 0
M  V30 1879 H 177.853 -3.25913 2.27742 0
M  V30 1880 N 178.85 -1.27639 -0.924453 0
M  V30 1881 C 179.76 -1.12466 -2.05885 0
M  V30 1882 C 180.776 -0.053869 -1.73917 0
M  V30 1883 O 181.952 -0.261012 -1.99702 0
M  V30 1884 C 179.017 -0.776768 -3.37886 0
M  V30 1885 C 178.078 -1.92878 -3.83532 0
M  V30 1886 C 177.311 -1.59739 -5.09234 0
M  V30 1887 O 177.534 -0.506782 -5.68144 0
M  V30 1888 O 176.468 -2.43761 -5.50331 0
M  V30 1889 H 180.294 -2.07671 -2.21599 0
M  V30 1890 H 177.879 -1.06857 -1.04413 0
M  V30 1891 H 179.761 -0.596229 -4.17161 0
M  V30 1892 H 178.436 0.145732 -3.23372 0
M  V30 1893 H 177.343 -2.1644 -3.0513 0
M  V30 1894 H 178.676 -2.8316 -4.02593 0
M  V30 1895 N 180.328 1.1314 -1.09713 0
M  V30 1896 C 181.258 2.20748 -0.761102 0
M  V30 1897 C 182.239 1.68061 0.262566 0
M  V30 1898 O 183.424 1.93765 0.129977 0
M  V30 1899 C 180.554 3.46812 -0.184054 0
M  V30 1900 C 179.508 4.12606 -1.13757 0
M  V30 1901 C 178.834 5.33031 -0.422083 0
M  V30 1902 C 180.134 4.59603 -2.48118 0
M  V30 1903 H 181.828 2.49113 -1.66082 0
M  V30 1904 H 179.374 1.19734 -0.799987 0
M  V30 1905 H 181.327 4.21353 0.0631215 0
M  V30 1906 H 180.051 3.17851 0.750868 0
M  V30 1907 H 178.71 3.40036 -1.37007 0
M  V30 1908 H 178.358 5.00335 0.517072 0
M  V30 1909 H 178.058 5.77999 -1.05788 0
M  V30 1910 H 179.582 6.10325 -0.183277 0
M  V30 1911 H 180.996 5.25552 -2.29059 0
M  V30 1912 H 179.393 5.15321 -3.07514 0
M  V30 1913 H 180.463 3.73971 -3.08665 0
M  V30 1914 N 181.806 0.884767 1.30421 0
M  V30 1915 C 183.222 0.57874 1.48737 0
M  V30 1916 C 183.422 -0.883567 1.81095 0
M  V30 1917 O 182.478 -1.6648 1.89844 0
M  V30 1918 C 183.791 1.49171 2.61091 0
M  V30 1919 C 185.339 1.49532 2.74971 0
M  V30 1920 C 185.814 2.39421 3.90438 0
M  V30 1921 N 187.305 2.37383 3.97748 0
M  V30 1922 C 188.04 3.03647 4.86401 0
M  V30 1923 N 187.536 3.79136 5.79852 0
M  V30 1924 N 189.329 2.9288 4.79768 0
M  V30 1925 H 181.48 1.83075 1.0769 0
M  V30 1926 H 183.743 0.783637 0.533495 0
M  V30 1927 H 183.449 2.53291 2.44001 0
M  V30 1928 H 183.323 1.20113 3.57565 0
M  V30 1929 H 185.71 0.46163 2.91467 0
M  V30 1930 H 185.791 1.8262 1.79119 0
M  V30 1931 H 185.435 3.42874 3.74699 0
M  V30 1932 H 185.365 2.03649 4.85628 0
M  V30 1933 H 187.856 1.82525 3.30897 0
M  V30 1934 H 188.169 4.26789 6.4426 0
M  V30 1935 H 186.514 3.83243 5.79784 0
M  V30 1936 H 189.705 2.33433 4.05742 0
M  V30 1937 H 189.878 3.448 5.4865 0
M  V30 1938 N 183.284 -1.43765 0.645699 0
M  V30 1939 C 184.247 -2.29163 -0.0409488 0
M  V30 1940 C 185.247 -1.41813 -0.757996 0
M  V30 1941 O 186.437 -1.63527 -0.600382 0
M  V30 1942 C 183.569 -3.23716 -1.06869 0
M  V30 1943 H 184.762 -2.91366 0.710345 0
M  V30 1944 H 182.315 -1.5092 0.406547 0
M  V30 1945 H 183.05 -2.66393 -1.84947 0
M  V30 1946 H 182.835 -3.88105 -0.558277 0
M  V30 1947 H 184.325 -3.87831 -1.54845 0
M  V30 1948 N 184.763 -0.387143 -1.52771 0
M  V30 1949 C 185.726 0.436939 -2.24997 0
M  V30 1950 C 186.726 0.991991 -1.26555 0
M  V30 1951 O 187.916 0.874335 -1.50669 0
M  V30 1952 C 185.048 1.61281 -3.00335 0
M  V30 1953 H 186.241 -0.195365 -2.99263 0
M  V30 1954 H 183.794 -0.139218 -1.55679 0
M  V30 1955 H 184.529 2.2826 -2.30364 0
M  V30 1956 H 184.314 1.22154 -3.72587 0
M  V30 1957 H 185.804 2.19629 -3.5518 0
M  V30 1958 N 186.241 1.57166 -0.116904 0
M  V30 1959 C 187.174 2.10912 0.871291 0
M  V30 1960 C 188.152 1.025 1.26224 0
M  V30 1961 O 189.336 1.3014 1.36366 0
M  V30 1962 C 186.463 2.6041 2.16574 0
M  V30 1963 C 185.509 3.80687 1.92302 0
M  V30 1964 S 186.342 5.23199 1.14119 0
M  V30 1965 C 187.498 5.76064 2.44748 0
M  V30 1966 H 187.731 2.94401 0.414138 0
M  V30 1967 H 185.264 1.54096 0.096829 0
M  V30 1968 H 187.222 2.89583 2.9095 0
M  V30 1969 H 185.883 1.77106 2.59408 0
M  V30 1970 H 185.076 4.13462 2.8821 0
M  V30 1971 H 184.678 3.5212 1.26047 0
M  V30 1972 H 186.97 5.8566 3.406 0
M  V30 1973 H 187.913 6.74184 2.16521 0
M  V30 1974 H 188.321 5.04117 2.54019 0
M  V30 1975 N 187.719 -0.156864 1.56817 0
M  V30 1976 C 188.666 -1.19394 1.97519 0
M  V30 1977 C 189.636 -1.4322 0.841265 0
M  V30 1978 O 190.821 -1.55719 1.10255 0
M  V30 1979 C 187.961 -2.52483 2.35258 0
M  V30 1980 C 187.074 -2.35914 3.61896 0
M  V30 1981 C 186.209 -3.61969 3.88782 0
M  V30 1982 C 185.248 -3.40395 5.08722 0
M  V30 1983 N 184.385 -4.58556 5.31668 0
M  V30 1984 H 189.225 -0.839845 2.85921 0
M  V30 1985 H 186.762 -0.403264 1.41464 0
M  V30 1986 H 188.72 -3.30071 2.55165 0
M  V30 1987 H 187.35 -2.85859 1.49949 0
M  V30 1988 H 186.402 -1.49429 3.49821 0
M  V30 1989 H 187.714 -2.15926 4.49641 0
M  V30 1990 H 186.868 -4.47989 4.09135 0
M  V30 1991 H 185.607 -3.84951 2.9944 0
M  V30 1992 H 184.612 -2.52763 4.88253 0
M  V30 1993 H 185.837 -3.18822 5.99608 0
M  V30 1994 H 183.783 -4.81729 4.45279 0
M  V30 1995 H 183.7 -4.41535 6.13664 0
M  V30 1996 H 184.968 -5.45817 5.5651 0
M  V30 1997 N 189.197 -1.51736 -0.425897 0
M  V30 1998 C 190.445 -1.64644 -1.17204 0
M  V30 1999 C 190.766 -0.370486 -1.91448 0
M  V30 2000 O 190.036 0.614088 -1.86026 0
M  V30 2001 H 188.616 -0.606819 -0.435638 0
M  V30 2002 H 191.278 -1.88713 -0.487177 0
M  V30 2003 H 190.374 -2.47958 -1.89534 0
M  V30 2004 N 190.675 0.682077 -1.42076 0
M  V30 2005 C 191.605 1.80796 -1.47767 0
M  V30 2006 C 192.586 1.6677 -0.334954 0
M  V30 2007 O 193.771 1.863 -0.548264 0
M  V30 2008 C 190.901 3.19038 -1.37229 0
M  V30 2009 C 189.855 3.47789 -2.49453 0
M  V30 2010 C 189.181 4.8553 -2.23975 0
M  V30 2011 C 190.481 3.45411 -3.91776 0
M  V30 2012 H 192.175 1.7629 -2.41997 0
M  V30 2013 H 189.721 0.846721 -1.16476 0
M  V30 2014 H 191.674 3.97528 -1.39821 0
M  V30 2015 H 190.398 3.24204 -0.394907 0
M  V30 2016 H 189.057 2.71657 -2.46166 0
M  V30 2017 H 188.705 4.87337 -1.24547 0
M  V30 2018 H 188.405 5.0573 -2.99184 0
M  V30 2019 H 189.929 5.66312 -2.28304 0
M  V30 2020 H 191.343 4.13882 -3.96705 0
M  V30 2021 H 189.74 3.77145 -4.66778 0
M  V30 2022 H 190.81 2.44122 -4.18966 0
M  V30 2023 N 192.153 1.28127 0.917671 0
M  V30 2024 C 193.401 1.14825 1.66312 0
M  V30 2025 C 193.722 -0.304379 1.9261 0
M  V30 2026 O 192.992 -1.21149 1.53947 0
M  V30 2027 H 191.572 0.421953 0.616413 0
M  V30 2028 H 194.234 1.608 1.10134 0
M  V30 2029 H 193.33 1.68489 2.62712 0
M  V30 2030 N 193.631 -1.12557 1.10312 0
M  V30 2031 C 194.859 -1.87864 0.866873 0
M  V30 2032 C 195.274 -1.79588 -0.582557 0
M  V30 2033 O 194.631 -1.16887 -1.40156 0
M  V30 2034 C 194.682 -3.37125 1.30496 0
M  V30 2035 O 194.403 -3.45201 2.69755 0
M  V30 2036 C 195.904 -4.29373 1.10243 0
M  V30 2037 H 193.124 -0.594452 0.311236 0
M  V30 2038 H 195.668 -1.42429 1.46745 0
M  V30 2039 H 193.823 -3.80109 0.748081 0
M  V30 2040 H 194.237 -4.38056 2.88457 0
M  V30 2041 H 195.711 -5.32394 1.45811 0
M  V30 2042 H 196.188 -4.39181 0.0409492 0
M  V30 2043 H 196.794 -3.92169 1.64571 0
M  V30 2044 N 195.109 -0.891671 -1.2995 0
M  V30 2045 C 196.386 -0.433307 -1.9074 0
M  V30 2046 C 196.766 1.08646 -1.80995 0
M  V30 2047 O 196.114 1.92476 -1.23147 0
M  V30 2048 C 196.324 -0.938895 -3.36134 0
M  V30 2049 C 197.672 -0.977829 -4.13187 0
M  V30 2050 O 198.696 -0.886015 -3.45005 0
M  V30 2051 O 197.555 -1.11453 -5.35015 0
M  V30 2052 H 194.649 -0.133699 -0.816121 0
M  V30 2053 H 197.195 -0.981011 -1.38471 0
M  V30 2054 H 195.967 -1.98281 -3.37343 0
M  V30 2055 H 195.59 -0.37074 -3.95868 0
M  V30 2056 N 196.587 1.43421 -0.653314 0
M  V30 2057 C 197.497 2.34568 0.0388565 0
M  V30 2058 C 198.513 1.53888 0.81207 0
M  V30 2059 O 199.689 1.86539 0.759294 0
M  V30 2060 C 196.754 3.32167 0.993269 0
M  V30 2061 C 195.815 4.28751 0.216977 0
M  V30 2062 C 195.048 5.21688 1.12593 0
M  V30 2063 O 195.271 5.19052 2.36519 0
M  V30 2064 O 194.205 5.98919 0.598284 0
M  V30 2065 H 198.031 2.95251 -0.711386 0
M  V30 2066 H 195.616 1.43564 -0.413502 0
M  V30 2067 H 197.498 3.92183 1.54176 0
M  V30 2068 H 196.173 2.73987 1.72374 0
M  V30 2069 H 195.08 3.72215 -0.375101 0
M  V30 2070 H 196.413 4.89913 -0.473924 0
M  V30 2071 N 198.065 0.39524 1.52563 0
M  V30 2072 C 199.342 -0.242908 1.94086 0
M  V30 2073 C 199.722 -1.63841 1.33114 0
M  V30 2074 O 199.07 -2.22928 0.501529 0
M  V30 2075 C 199.28 -0.26327 3.48006 0
M  V30 2076 C 200.628 -0.489354 4.21771 0
M  V30 2077 O 201.652 -0.343226 3.54543 0
M  V30 2078 O 200.511 -0.776169 5.4096 0
M  V30 2079 H 197.605 -0.152536 0.812811 0
M  V30 2080 H 200.151 0.450178 1.6362 0
M  V30 2081 H 198.923 0.713985 3.84731 0
M  V30 2082 H 198.546 -1.00103 3.84792 0
M  V30 2083 N 199.544 -1.57102 0.125237 0
M  V30 2084 C 200.772 -1.99761 -0.538797 0
M  V30 2085 C 201.187 -1.00503 -1.59827 0
M  V30 2086 O 200.544 0.00119474 -1.825 0
M  V30 2087 C 200.595 -3.42408 -1.15927 0
M  V30 2088 O 200.316 -4.37869 -0.142143 0
M  V30 2089 C 201.817 -4.00232 -1.90602 0
M  V30 2090 H 199.037 -0.655772 -0.14214 0
M  V30 2091 H 201.581 -2.03383 0.213413 0
M  V30 2092 H 199.736 -3.39706 -1.86223 0
M  V30 2093 H 200.15 -5.21128 -0.593775 0
M  V30 2094 H 201.624 -5.02105 -2.29335 0
M  V30 2095 H 202.101 -3.39721 -2.78363 0
M  V30 2096 H 202.707 -4.06499 -1.25055 0
M  V30 2097 N 201.022 0.148545 -1.56898 0
M  V30 2098 C 201.952 1.18524 -2.01182 0
M  V30 2099 C 202.933 1.4489 -0.891123 0
M  V30 2100 O 204.118 1.55836 -1.15882 0
M  V30 2101 C 201.248 2.51879 -2.39112 0
M  V30 2102 C 200.202 2.40038 -3.54353 0
M  V30 2103 C 199.528 3.78089 -3.78091 0
M  V30 2104 C 200.828 1.88577 -4.87069 0
M  V30 2105 H 202.522 0.817029 -2.88036 0
M  V30 2106 H 200.068 0.391575 -1.38574 0
M  V30 2107 H 202.021 3.24627 -2.68692 0
M  V30 2108 H 200.745 2.90532 -1.49193 0
M  V30 2109 H 199.404 1.69742 -3.24936 0
M  V30 2110 H 199.052 4.14175 -2.85426 0
M  V30 2111 H 198.752 3.71028 -4.55645 0
M  V30 2112 H 200.276 4.52387 -4.10095 0
M  V30 2113 H 201.69 2.51117 -5.15377 0
M  V30 2114 H 200.087 1.9241 -5.68417 0
M  V30 2115 H 201.157 0.84136 -4.77545 0
M  V30 2116 N 202.5 1.5196 0.417844 0
M  V30 2117 C 203.749 1.6482 1.16264 0
M  V30 2118 C 204.062 0.379886 1.91876 0
M  V30 2119 O 205.268 0.388154 2.68711 0
M  V30 2120 C 203.724 2.91161 2.1155 0
M  V30 2121 C 203.332 4.25068 1.41495 0
M  V30 2122 C 205.076 3.13383 2.86341 0
M  V30 2123 C 202.983 5.42541 2.35379 0
M  V30 2124 H 201.913 0.613954 0.437694 0
M  V30 2125 H 204.564 1.78442 0.427871 0
M  V30 2126 H 202.946 2.71218 2.88543 0
M  V30 2127 H 204.12 4.55463 0.699263 0
M  V30 2128 H 202.435 4.0888 0.787792 0
M  V30 2129 H 205.032 3.98324 3.5671 0
M  V30 2130 H 205.375 2.27256 3.48798 0
M  V30 2131 H 205.908 3.33757 2.1645 0
M  V30 2132 H 202.647 6.30987 1.77582 0
M  V30 2133 H 202.167 5.16497 3.04945 0
M  V30 2134 H 203.846 5.75272 2.96093 0
M  V30 2135 N 203.978 -0.674533 1.42435 0
M  V30 2136 C 204.888 -1.81751 1.48337 0
M  V30 2137 C 205.904 -1.69975 0.372099 0
M  V30 2138 O 207.08 -1.91521 0.62304 0
M  V30 2139 C 204.145 -3.17895 1.38361 0
M  V30 2140 C 203.206 -3.41625 2.59982 0
M  V30 2141 C 202.439 -4.71274 2.50473 0
M  V30 2142 O 202.662 -5.49197 1.54075 0
M  V30 2143 O 201.596 -4.96254 3.4061 0
M  V30 2144 H 205.422 -1.79728 2.44809 0
M  V30 2145 H 203.007 -0.830312 1.24202 0
M  V30 2146 H 204.889 -3.99136 1.35161 0
M  V30 2147 H 203.564 -3.20555 0.450144 0
M  V30 2148 H 202.471 -2.60231 2.68757 0
M  V30 2149 H 203.804 -3.43796 3.52229 0
M  V30 2150 N 205.456 -1.28612 -0.910864 0
M  V30 2151 C 206.705 -1.15311 -1.65488 0
M  V30 2152 C 207.018 0.296999 -1.93332 0
M  V30 2153 O 208.224 0.551168 -2.65847 0
M  V30 2154 C 206.68 -2.01599 -2.98137 0
M  V30 2155 C 206.288 -3.51367 -2.7793 0
M  V30 2156 C 208.032 -1.96993 -3.76024 0
M  V30 2157 C 205.939 -4.29797 -4.06237 0
M  V30 2158 H 204.869 -0.42796 -0.620779 0
M  V30 2159 H 207.52 -1.53166 -1.01057 0
M  V30 2160 H 205.902 -1.56603 -3.63719 0
M  V30 2161 H 207.076 -4.0434 -2.21011 0
M  V30 2162 H 205.391 -3.57529 -2.13452 0
M  V30 2163 H 207.988 -2.52856 -4.71135 0
M  V30 2164 H 208.331 -0.94733 -4.05378 0
M  V30 2165 H 208.864 -2.39973 -3.17266 0
M  V30 2166 H 205.603 -5.32648 -3.82055 0
M  V30 2167 H 205.123 -3.81596 -4.62757 0
M  V30 2168 H 206.802 -4.39869 -4.74473 0
M  V30 2169 N 206.934 1.1197 -1.10907 0
M  V30 2170 C 207.864 2.19928 -0.784473 0
M  V30 2171 C 208.845 1.6833 0.244726 0
M  V30 2172 O 210.03 1.93892 0.109418 0
M  V30 2173 C 207.16 3.46597 -0.220827 0
M  V30 2174 C 206.114 4.11376 -1.18127 0
M  V30 2175 C 205.44 5.32554 -0.478594 0
M  V30 2176 C 206.74 4.56945 -2.52979 0
M  V30 2177 H 208.434 2.47337 -1.68715 0
M  V30 2178 H 205.98 1.18879 -0.812642 0
M  V30 2179 H 207.933 4.21396 0.0184278 0
M  V30 2180 H 206.657 3.1863 0.717113 0
M  V30 2181 H 205.316 3.38564 -1.40606 0
M  V30 2182 H 204.964 5.00856 0.463976 0
M  V30 2183 H 204.664 5.76844 -1.11912 0
M  V30 2184 H 206.188 6.10096 -0.248 0
M  V30 2185 H 207.602 5.23093 -2.3462 0
M  V30 2186 H 205.999 5.1203 -3.12962 0
M  V30 2187 H 207.069 3.70676 -3.12614 0
M  V30 2188 N 208.412 0.89855 1.29475 0
M  V30 2189 C 209.375 0.380272 2.26023 0
M  V30 2190 C 210.375 -0.484891 1.53315 0
M  V30 2191 O 211.565 -0.290108 1.71767 0
M  V30 2192 C 208.697 -0.45651 3.3783 0
M  V30 2193 H 209.89 1.23295 2.73383 0
M  V30 2194 H 207.443 0.676589 1.40897 0
M  V30 2195 H 208.178 -1.32922 2.95808 0
M  V30 2196 H 207.963 0.163393 3.91759 0
M  V30 2197 H 209.453 -0.810466 4.0966 0
M  V30 2198 N 209.89 -1.43072 0.660911 0
M  V30 2199 C 211.115 -2.06584 0.183805 0
M  V30 2200 C 211.54 -1.49257 -1.14472 0
M  V30 2201 O 210.898 -0.605528 -1.70889 0
M  V30 2202 C 210.946 -3.60418 0.114434 0
M  V30 2203 O 210.05 -4.01981 -0.921137 0
M  V30 2204 H 209.391 -0.656669 0.0983994 0
M  V30 2205 H 211.921 -1.83447 0.906006 0
M  V30 2206 H 211.931 -4.07946 -0.0663394 0
M  V30 2207 H 210.606 -4.01519 1.08422 0
M  V30 2208 H 209.183 -3.66029 -0.71253 0
M  V30 2209 N 211.368 -0.403325 -1.52352 0
M  V30 2210 C 212.784 -0.0539281 -1.59509 0
M  V30 2211 C 212.984 1.43307 -1.41652 0
M  V30 2212 O 212.04 2.19924 -1.24056 0
M  V30 2213 C 213.353 -0.543654 -2.95745 0
M  V30 2214 C 214.901 -0.501125 -3.08962 0
M  V30 2215 C 215.376 -0.967267 -4.47669 0
M  V30 2216 N 216.867 -0.923849 -4.53893 0
M  V30 2217 C 217.602 -1.25578 -5.5948 0
M  V30 2218 N 217.098 -1.65889 -6.72646 0
M  V30 2219 N 218.891 -1.17613 -5.49658 0
M  V30 2220 H 211.042 -1.37123 -1.62206 0
M  V30 2221 H 213.305 -0.56294 -0.76276 0
M  V30 2222 H 213.011 -1.58275 -3.14073 0
M  V30 2223 H 212.885 0.0498042 -3.77167 0
M  V30 2224 H 215.272 0.528909 -2.90321 0
M  V30 2225 H 215.353 -1.13056 -2.2946 0
M  V30 2226 H 214.997 -1.9956 -4.67053 0
M  V30 2227 H 214.927 -0.314698 -5.25659 0
M  V30 2228 H 217.418 -0.627403 -3.72655 0
M  V30 2229 H 217.731 -1.89543 -7.49195 0
M  V30 2230 H 216.076 -1.69787 -6.73942 0
M  V30 2231 H 219.267 -0.860115 -4.6013 0
M  V30 2232 H 219.44 -1.43812 -6.3184 0
M  V30 2233 N 212.846 1.57033 -0.133567 0
M  V30 2234 C 214.074 2.00044 0.528195 0
M  V30 2235 C 214.489 1.01349 1.59291 0
M  V30 2236 O 213.846 0.00848369 1.82498 0
M  V30 2237 C 213.897 3.43018 1.1411 0
M  V30 2238 O 213.618 4.37939 0.11892 0
M  V30 2239 C 215.119 4.01237 1.88477 0
M  V30 2240 H 212.339 0.656517 0.138661 0
M  V30 2241 H 214.883 2.03267 -0.224196 0
M  V30 2242 H 213.038 3.40688 1.84418 0
M  V30 2243 H 213.452 5.21436 0.56613 0
M  V30 2244 H 214.926 5.03314 2.26669 0
M  V30 2245 H 215.403 3.41193 2.76558 0
M  V30 2246 H 216.009 4.07156 1.22898 0
M  V30 2247 N 214.325 -0.140222 1.56975 0
M  V30 2248 C 215.273 -1.19207 1.99731 0
M  V30 2249 C 216.267 -1.44089 0.890777 0
M  V30 2250 O 217.473 -1.44301 1.07597 0
M  V30 2251 H 213.848 -0.40142 0.635898 0
M  V30 2252 H 215.819 -0.804813 2.87342 0
M  V30 2253 C 214.568 -2.51617 2.39967 0
M  V30 2254 H 213.891 -2.33303 3.24669 0
M  V30 2255 H 215.331 -3.23827 2.73701 0
M  V30 2256 C 213.79 -3.12654 1.25496 0
M  V30 2257 O 214.32 -3.97786 0.559371 0
M  V30 2258 N 212.526 -2.72206 1.01746 0
M  V30 2259 H 212.073 -2.03074 1.58489 0
M  V30 2260 H 212.031 -3.13377 0.253461 0
M  V30 2261 N 215.803 -1.52179 -0.40978 0
M  V30 2262 C 216.75 -1.75475 -1.49924 0
M  V30 2263 C 217.72 -0.597175 -1.54994 0
M  V30 2264 O 218.905 -0.834655 -1.71575 0
M  V30 2265 C 216.045 -1.9107 -2.87378 0
M  V30 2266 C 215.158 -3.18717 -2.91622 0
M  V30 2267 C 214.293 -3.24747 -4.20372 0
M  V30 2268 C 213.332 -4.46598 -4.18588 0
M  V30 2269 N 212.469 -4.50025 -5.38908 0
M  V30 2270 H 217.309 -2.68458 -1.29361 0
M  V30 2271 H 214.846 -1.33024 -0.627934 0
M  V30 2272 H 216.804 -1.98096 -3.6717 0
M  V30 2273 H 215.434 -1.01469 -3.06437 0
M  V30 2274 H 214.486 -3.20866 -2.04326 0
M  V30 2275 H 215.798 -4.08544 -2.86169 0
M  V30 2276 H 214.952 -3.30841 -5.08556 0
M  V30 2277 H 213.691 -2.32857 -4.28519 0
M  V30 2278 H 212.696 -4.40652 -3.28794 0
M  V30 2279 H 213.921 -5.39783 -4.12081 0
M  V30 2280 H 211.867 -3.61017 -5.47725 0
M  V30 2281 H 211.784 -5.33697 -5.35447 0
M  V30 2282 H 213.052 -4.60347 -6.29048 0
M  V30 2283 N 217.281 0.66697 -1.42791 0
M  V30 2284 C 218.191 1.80962 -1.49299 0
M  V30 2285 C 219.207 1.69775 -0.381108 0
M  V30 2286 O 220.383 1.91188 -0.633188 0
M  V30 2287 C 217.448 3.17156 -1.40045 0
M  V30 2288 C 216.509 3.40242 -2.6179 0
M  V30 2289 C 215.742 4.69939 -2.52969 0
M  V30 2290 O 215.965 5.48372 -1.56985 0
M  V30 2291 O 214.899 4.94441 -3.43237 0
M  V30 2292 H 218.725 1.78427 -2.45759 0
M  V30 2293 H 216.31 0.823713 -1.24641 0
M  V30 2294 H 218.192 3.98413 -1.37276 0
M  V30 2295 H 216.867 3.20312 -0.467138 0
M  V30 2296 H 215.774 2.58802 -2.70134 0
M  V30 2297 H 217.107 3.41923 -3.54047 0
M  V30 2298 N 218.759 1.29093 0.90403 0
M  V30 2299 C 220.008 1.16187 1.64874 0
M  V30 2300 C 220.321 -0.286742 1.93487 0
M  V30 2301 O 221.527 -0.537062 2.66135 0
M  V30 2302 C 219.983 2.03177 2.97064 0
M  V30 2303 C 219.591 3.52836 2.76062 0
M  V30 2304 C 221.335 1.98984 3.74974 0
M  V30 2305 C 219.242 4.31945 4.03952 0
M  V30 2306 H 218.172 0.431246 0.618501 0
M  V30 2307 H 220.823 1.53699 1.00243 0
M  V30 2308 H 219.205 1.5853 3.62883 0
M  V30 2309 H 220.379 4.05507 2.18863 0
M  V30 2310 H 218.694 3.58656 2.11553 0
M  V30 2311 H 221.291 2.55351 4.69787 0
M  V30 2312 H 221.634 0.968815 4.0487 0
M  V30 2313 H 222.167 2.41652 3.15989 0
M  V30 2314 H 218.906 5.34667 3.79225 0
M  V30 2315 H 218.426 3.84045 4.60727 0
M  V30 2316 H 220.105 4.42379 4.72133 0
M  V30 2317 N 220.237 -1.11381 1.11499 0
M  V30 2318 C 221.653 -1.35143 0.849031 0
M  V30 2319 C 221.853 -1.94515 -0.525938 0
M  V30 2320 O 220.909 -2.1785 -1.27662 0
M  V30 2321 C 222.222 -2.28249 1.95762 0
M  V30 2322 C 223.77 -2.41812 1.98736 0
M  V30 2323 C 224.245 -3.3824 3.088 0
M  V30 2324 N 225.736 -3.45803 3.08179 0
M  V30 2325 C 226.471 -4.20358 3.89982 0
M  V30 2326 N 225.967 -4.97884 4.8175 0
M  V30 2327 N 227.76 -4.15877 3.78157 0
M  V30 2328 H 219.911 -0.712062 2.00109 0
M  V30 2329 H 222.174 -0.376025 0.870235 0
M  V30 2330 H 221.88 -1.91817 2.94787 0
M  V30 2331 H 221.754 -3.28473 1.85433 0
M  V30 2332 H 224.141 -2.77518 1.00338 0
M  V30 2333 H 224.222 -1.41437 2.13141 0
M  V30 2334 H 223.866 -3.03261 4.07425 0
M  V30 2335 H 223.796 -4.38471 2.91635 0
M  V30 2336 H 226.287 -2.90506 2.41691 0
M  V30 2337 H 226.6 -5.52142 5.40702 0
M  V30 2338 H 224.945 -4.97043 4.85771 0
M  V30 2339 H 228.136 -3.544 3.05808 0
M  V30 2340 H 228.309 -4.73723 4.42143 0
M  V30 2341 N 221.715 -0.905404 -1.28997 0
M  V30 2342 C 222.992 -0.453513 -1.9027 0
M  V30 2343 C 223.372 1.06721 -1.82137 0
M  V30 2344 O 222.72 1.91159 -1.25182 0
M  V30 2345 C 222.93 -0.974494 -3.35119 0
M  V30 2346 C 224.278 -1.0216 -4.12127 0
M  V30 2347 O 225.302 -0.922557 -3.44046 0
M  V30 2348 O 224.161 -1.17121 -5.33802 0
M  V30 2349 H 221.255 -0.142347 -0.814657 0
M  V30 2350 H 223.801 -0.995642 -1.37423 0
M  V30 2351 H 222.573 -2.01848 -3.35221 0
M  V30 2352 H 222.196 -0.412706 -3.95452 0
M  V30 2353 N 223.193 1.4272 -0.668489 0
M  V30 2354 C 224.442 2.00846 -0.185389 0
M  V30 2355 C 224.755 1.53442 1.21305 0
M  V30 2356 O 225.961 2.03944 1.79218 0
M  V30 2357 C 224.417 3.58805 -0.280591 0
M  V30 2358 C 224.025 4.15198 -1.68268 0
M  V30 2359 C 225.769 4.24255 0.14412 0
M  V30 2360 C 223.676 5.655 -1.73099 0
M  V30 2361 H 222.606 0.751145 -0.0655475 0
M  V30 2362 H 225.257 1.63516 -0.832752 0
M  V30 2363 H 223.639 3.93608 0.434553 0
M  V30 2364 H 224.813 3.91866 -2.42441 0
M  V30 2365 H 223.128 3.62176 -2.05469 0
M  V30 2366 H 225.725 5.34547 0.128086 0
M  V30 2367 H 226.068 3.99277 1.17827 0
M  V30 2368 H 226.601 3.94389 -0.519798 0
M  V30 2369 H 223.34 5.95268 -2.74475 0
M  V30 2370 H 222.86 5.90842 -1.03274 0
M  V30 2371 H 224.539 6.29808 -1.48158 0
M  V30 2372 N 224.671 0.411399 1.52136 0
M  V30 2373 C 225.619 -0.427633 2.28635 0
M  V30 2374 C 226.613 -1.04383 1.33419 0
M  V30 2375 O 227.819 -0.981772 1.50868 0
M  V30 2376 H 224.194 -0.156689 0.735495 0
M  V30 2377 H 226.165 0.238761 2.97443 0
M  V30 2378 C 224.914 -1.53082 3.12188 0
M  V30 2379 H 224.237 -1.06601 3.85326 0
M  V30 2380 H 225.677 -2.09167 3.68816 0
M  V30 2381 C 224.136 -2.49946 2.25895 0
M  V30 2382 O 224.666 -3.53884 1.90076 0
M  V30 2383 N 222.872 -2.2021 1.8962 0
M  V30 2384 H 222.419 -1.35719 2.18948 0
M  V30 2385 H 222.377 -2.85266 1.32176 0
M  V30 2386 N 226.149 -1.5696 0.141893 0
M  V30 2387 C 227.565 -1.58151 -0.21456 0
M  V30 2388 C 227.765 -1.1559 -1.65049 0
M  V30 2389 O 226.821 -0.853832 -2.37626 0
M  V30 2390 C 228.134 -3.00674 0.0395576 0
M  V30 2391 C 229.682 -3.1299 -0.0245529 0
M  V30 2392 C 230.157 -4.57554 0.202167 0
M  V30 2393 N 231.648 -4.62961 0.148919 0
M  V30 2394 C 232.383 -5.7262 0.298924 0
M  V30 2395 N 231.879 -6.90947 0.50637 0
M  V30 2396 N 233.672 -5.61601 0.236886 0
M  V30 2397 H 225.823 -1.8292 1.07953 0
M  V30 2398 H 228.086 -0.846425 0.42693 0
M  V30 2399 H 227.792 -3.36183 1.03315 0
M  V30 2400 H 227.666 -3.70981 -0.682143 0
M  V30 2401 H 230.053 -2.77326 -1.00869 0
M  V30 2402 H 230.134 -2.4518 0.729396 0
M  V30 2403 H 229.778 -4.93922 1.18338 0
M  V30 2404 H 229.708 -5.23484 -0.572044 0
M  V30 2405 H 232.199 -3.77899 -0.00697015 0
M  V30 2406 H 232.512 -7.7038 0.611076 0
M  V30 2407 H 230.857 -6.92878 0.542628 0
M  V30 2408 H 234.048 -4.68039 0.0756209 0
M  V30 2409 H 234.221 -6.47015 0.357227 0
M  V30 2410 N 227.627 0.131896 -1.57047 0
M  V30 2411 C 228.873 0.843179 -1.84441 0
M  V30 2412 C 229.206 1.80129 -0.725749 0
M  V30 2413 O 228.481 1.92624 0.269469 0
M  V30 2414 C 228.764 1.60442 -3.22382 0
M  V30 2415 C 228.617 0.666782 -4.4483 0
M  V30 2416 C 229.936 2.56354 -3.5773 0
M  V30 2417 H 227.055 0.305081 -0.670891 0
M  V30 2418 H 229.697 0.107839 -1.89694 0
M  V30 2419 H 227.847 2.23128 -3.18035 0
M  V30 2420 H 229.519 0.0497646 -4.61273 0
M  V30 2421 H 227.762 -0.022609 -4.33794 0
M  V30 2422 H 228.433 1.23579 -5.37989 0
M  V30 2423 H 230.909 2.0378 -3.62785 0
M  V30 2424 H 229.785 3.06657 -4.5525 0
M  V30 2425 H 230.046 3.38419 -2.84473 0
M  V30 2426 N 229.106 1.52395 0.401703 0
M  V30 2427 C 230.336 1.70429 1.1678 0
M  V30 2428 C 230.744 0.416702 1.84554 0
M  V30 2429 O 230.087 -0.617697 1.73003 0
M  V30 2430 C 230.149 2.78919 2.26814 0
M  V30 2431 C 229.813 4.20437 1.79113 0
M  V30 2432 C 230.81 5.04028 1.27482 0
M  V30 2433 C 228.495 4.66704 1.85722 0
M  V30 2434 C 230.489 6.31961 0.830913 0
M  V30 2435 C 228.176 5.94625 1.40942 0
M  V30 2436 C 229.174 6.77082 0.897128 0
M  V30 2437 O 228.862 8.02607 0.455822 0
M  V30 2438 H 228.594 0.574272 0.356634 0
M  V30 2439 H 231.148 1.99767 0.477724 0
M  V30 2440 H 229.378 2.44973 2.99207 0
M  V30 2441 H 231.067 2.8548 2.88541 0
M  V30 2442 H 231.833 4.69471 1.21744 0
M  V30 2443 H 227.712 4.0262 2.24539 0
M  V30 2444 H 231.256 6.96271 0.430368 0
M  V30 2445 H 227.153 6.28688 1.46362 0
M  V30 2446 H 227.921 8.16453 0.578457 0
M  V30 2447 N 230.584 -0.659388 1.43143 0
M  V30 2448 C 232 -0.974337 1.26407 0
M  V30 2449 C 232.2 -2.007 0.179341 0
M  V30 2450 O 231.256 -2.4856 -0.444295 0
M  V30 2451 C 232.569 -1.46447 2.62628 0
M  V30 2452 C 234.117 -1.58144 2.7011 0
M  V30 2453 C 234.592 -2.1055 4.06734 0
M  V30 2454 N 236.083 -2.17861 4.08767 0
M  V30 2455 C 236.818 -2.59519 5.1131 0
M  V30 2456 N 236.314 -3.00518 6.24228 0
M  V30 2457 N 238.107 -2.59404 4.98664 0
M  V30 2458 H 230.258 0.0240528 2.12386 0
M  V30 2459 H 232.521 -0.0518065 0.946583 0
M  V30 2460 H 232.227 -0.780123 3.42939 0
M  V30 2461 H 232.101 -2.44058 2.87603 0
M  V30 2462 H 234.488 -2.25682 1.90136 0
M  V30 2463 H 234.569 -0.589828 2.48907 0
M  V30 2464 H 234.213 -1.43616 4.87172 0
M  V30 2465 H 234.143 -3.10531 4.25298 0
M  V30 2466 H 236.634 -1.88975 3.27257 0
M  V30 2467 H 236.947 -3.31036 6.98309 0
M  V30 2468 H 235.292 -2.98337 6.2771 0
M  V30 2469 H 238.483 -2.26747 4.09516 0
M  V30 2470 H 238.656 -2.91548 5.78709 0
M  V30 2471 N 232.062 -1.29571 -0.897171 0
M  V30 2472 C 232.972 -1.16808 -2.03453 0
M  V30 2473 C 233.988 -0.0907471 -1.73763 0
M  V30 2474 O 235.164 -0.303312 -1.99103 0
M  V30 2475 C 232.229 -0.848264 -3.36163 0
M  V30 2476 C 231.29 -2.0097 -3.79354 0
M  V30 2477 C 230.523 -1.70505 -5.05731 0
M  V30 2478 O 230.746 -0.62718 -5.66941 0
M  V30 2479 O 229.68 -2.5538 -5.45036 0
M  V30 2480 H 233.506 -2.12325 -2.17144 0
M  V30 2481 H 231.091 -1.09047 -1.02123 0
M  V30 2482 H 232.973 -0.684581 -4.15802 0
M  V30 2483 H 231.648 0.0771071 -3.23608 0
M  V30 2484 H 230.555 -2.22863 -3.00471 0
M  V30 2485 H 231.888 -2.91636 -3.96496 0
M  V30 2486 N 233.54 1.10788 -1.12088 0
M  V30 2487 C 234.45 2.20599 -0.798338 0
M  V30 2488 C 235.466 1.72712 0.21135 0
M  V30 2489 O 236.642 2.01348 0.0458477 0
M  V30 2490 C 233.707 3.45771 -0.253674 0
M  V30 2491 C 232.768 4.08411 -1.32283 0
M  V30 2492 C 232.001 5.27608 -0.80406 0
M  V30 2493 O 232.224 5.69241 0.363478 0
M  V30 2494 O 231.158 5.8101 -1.57198 0
M  V30 2495 H 234.984 2.50614 -1.7154 0
M  V30 2496 H 232.569 1.19454 -0.897275 0
M  V30 2497 H 234.451 4.21376 0.0453691 0
M  V30 2498 H 233.126 3.1739 0.636005 0
M  V30 2499 H 232.033 3.34507 -1.67499 0
M  V30 2500 H 233.366 4.40986 -2.18614 0
M  V30 2501 N 235.018 0.912232 1.28515 0
M  V30 2502 C 235.948 0.416403 2.29757 0
M  V30 2503 C 236.929 -0.515194 1.6211 0
M  V30 2504 O 238.114 -0.423253 1.89532 0
M  V30 2505 C 235.244 -0.34572 3.45575 0
M  V30 2506 C 234.198 0.496599 4.25109 0
M  V30 2507 C 233.524 -0.393771 5.33248 0
M  V30 2508 C 234.824 1.75307 4.92001 0
M  V30 2509 H 236.518 1.26249 2.7148 0
M  V30 2510 H 234.064 0.608515 1.30511 0
M  V30 2511 H 236.017 -0.703422 4.15488 0
M  V30 2512 H 234.741 -1.2257 3.02728 0
M  V30 2513 H 233.4 0.8368 3.56922 0
M  V30 2514 H 233.048 -1.27225 4.86644 0
M  V30 2515 H 232.748 0.166209 5.87365 0
M  V30 2516 H 234.272 -0.747389 6.06009 0
M  V30 2517 H 235.686 1.46437 5.54283 0
M  V30 2518 H 234.083 2.25534 5.56106 0
M  V30 2519 H 235.153 2.48176 4.16577 0
M  V30 2520 N 236.496 -1.42363 0.676048 0
M  V30 2521 C 237.443 -2.308 -0.00150904 0
M  V30 2522 C 238.413 -1.46032 -0.791444 0
M  V30 2523 O 239.598 -1.74861 -0.76344 0
M  V30 2524 C 236.738 -3.31883 -0.945919 0
M  V30 2525 C 235.851 -4.31741 -0.149675 0
M  V30 2526 C 234.986 -5.19898 -1.08995 0
M  V30 2527 C 234.025 -6.11434 -0.285465 0
M  V30 2528 N 233.162 -6.92138 -1.17851 0
M  V30 2529 H 238.002 -2.88187 0.758455 0
M  V30 2530 H 235.539 -1.41952 0.38576 0
M  V30 2531 H 237.497 -3.89019 -1.50731 0
M  V30 2532 H 236.127 -2.76093 -1.6725 0
M  V30 2533 H 235.179 -3.76713 0.528359 0
M  V30 2534 H 236.491 -4.96534 0.474866 0
M  V30 2535 H 235.645 -5.81772 -1.72123 0
M  V30 2536 H 234.384 -4.55284 -1.74837 0
M  V30 2537 H 233.389 -5.48627 0.359018 0
M  V30 2538 H 234.614 -6.78097 0.368883 0
M  V30 2539 H 232.56 -6.30152 -1.82332 0
M  V30 2540 H 232.477 -7.53542 -0.609082 0
M  V30 2541 H 233.745 -7.58499 -1.79722 0
M  V30 2542 N 237.974 -0.419461 -1.51915 0
M  V30 2543 C 239.39 -0.0708431 -1.59443 0
M  V30 2544 C 239.59 1.41796 -1.43164 0
M  V30 2545 O 238.646 2.18596 -1.26381 0
M  V30 2546 C 239.959 -0.574991 -2.95151 0
M  V30 2547 C 241.507 -0.533867 -3.08413 0
M  V30 2548 C 241.982 -1.01469 -4.46618 0
M  V30 2549 N 243.473 -0.971939 -4.52888 0
M  V30 2550 C 244.208 -1.31505 -5.58116 0
M  V30 2551 N 243.704 -1.73014 -6.70849 0
M  V30 2552 N 245.497 -1.23436 -5.48379 0
M  V30 2553 H 237.648 -1.38836 -1.60743 0
M  V30 2554 H 239.911 -0.570998 -0.756747 0
M  V30 2555 H 239.617 -1.61597 -3.12377 0
M  V30 2556 H 239.491 0.00979777 -3.77199 0
M  V30 2557 H 241.878 0.498086 -2.90866 0
M  V30 2558 H 241.959 -1.15484 -2.28248 0
M  V30 2559 H 241.603 -2.04502 -4.6491 0
M  V30 2560 H 241.533 -0.370433 -5.25295 0
M  V30 2561 H 244.024 -0.666893 -3.71969 0
M  V30 2562 H 244.337 -1.97479 -7.47143 0
M  V30 2563 H 242.682 -1.76926 -6.72103 0
M  V30 2564 H 245.873 -0.908869 -4.59192 0
M  V30 2565 H 246.046 -1.50506 -6.30279 0
M  V30 2566 N 239.452 1.56882 -0.150215 0
M  V30 2567 C 240.729 1.87844 0.545327 0
M  V30 2568 C 241.109 1.0567 1.82749 0
M  V30 2569 O 240.457 0.144442 2.28043 0
M  V30 2570 C 240.667 3.39526 0.80767 0
M  V30 2571 C 242.015 4.08814 1.14703 0
M  V30 2572 O 243.039 3.44723 0.896917 0
M  V30 2573 O 241.898 5.22004 1.61784 0
M  V30 2574 H 238.992 0.778677 0.278553 0
M  V30 2575 H 241.538 1.68666 -0.187068 0
M  V30 2576 H 240.31 3.91173 -0.0996096 0
M  V30 2577 H 239.933 3.64243 1.59413 0
M  V30 2578 N 240.93 -0.123565 1.57115 0
M  V30 2579 C 241.86 -1.15309 2.03042 0
M  V30 2580 C 242.841 -1.43454 0.914061 0
M  V30 2581 O 244.026 -1.53973 1.18347 0
M  V30 2582 C 241.156 -2.48043 2.43089 0
M  V30 2583 C 240.11 -2.3437 3.58127 0
M  V30 2584 C 239.436 -3.72026 3.84059 0
M  V30 2585 C 240.736 -1.80804 4.90007 0
M  V30 2586 H 242.43 -0.771102 2.893 0
M  V30 2587 H 239.976 -0.369479 1.39179 0
M  V30 2588 H 241.929 -3.20311 2.73823 0
M  V30 2589 H 240.653 -2.88122 1.53796 0
M  V30 2590 H 239.312 -1.64551 3.27595 0
M  V30 2591 H 238.96 -4.09582 2.91979 0
M  V30 2592 H 238.66 -3.63732 4.6149 0
M  V30 2593 H 240.184 -4.45806 4.1724 0
M  V30 2594 H 241.598 -2.42886 5.19307 0
M  V30 2595 H 239.995 -1.83343 5.71407 0
M  V30 2596 H 241.065 -0.76528 4.78823 0
M  V30 2597 N 242.408 -1.52605 -0.393616 0
M  V30 2598 C 243.371 -1.76415 -1.46323 0
M  V30 2599 C 244.371 -0.634126 -1.47768 0
M  V30 2600 O 245.561 -0.902142 -1.4902 0
M  V30 2601 C 242.693 -1.8607 -2.85641 0
M  V30 2602 H 243.886 -2.71916 -1.26498 0
M  V30 2603 H 241.439 -1.43257 -0.625073 0
M  V30 2604 H 242.174 -0.925378 -3.10817 0
M  V30 2605 H 241.959 -2.68235 -2.85993 0
M  V30 2606 H 243.449 -2.06179 -3.63153 0
M  V30 2607 N 243.887 0.651787 -1.4349 0
M  V30 2608 C 244.834 1.76462 -1.4876 0
M  V30 2609 C 245.804 1.62641 -0.337189 0
M  V30 2610 O 246.989 1.82864 -0.544544 0
M  V30 2611 C 244.129 3.14623 -1.41796 0
M  V30 2612 C 243.242 3.39568 -2.67053 0
M  V30 2613 C 242.377 4.67585 -2.52068 0
M  V30 2614 C 241.416 4.85639 -3.72587 0
M  V30 2615 N 240.553 6.04915 -3.56402 0
M  V30 2616 H 245.393 1.71293 -2.43849 0
M  V30 2617 H 242.93 0.835889 -1.21043 0
M  V30 2618 H 244.888 3.94496 -1.35753 0
M  V30 2619 H 243.518 3.18859 -0.50288 0
M  V30 2620 H 242.57 2.53783 -2.8337 0
M  V30 2621 H 243.882 3.48795 -3.56572 0
M  V30 2622 H 243.036 5.55586 -2.4374 0
M  V30 2623 H 241.775 4.60681 -1.60075 0
M  V30 2624 H 240.78 3.96073 -3.81321 0
M  V30 2625 H 242.005 4.94372 -4.65589 0
M  V30 2626 H 239.951 5.9914 -2.67146 0
M  V30 2627 H 239.868 6.15106 -4.39524 0
M  V30 2628 H 241.136 6.95533 -3.51929 0
M  V30 2629 N 245.365 1.30045 0.890287 0
M  V30 2630 C 246.642 1.09227 1.62262 0
M  V30 2631 C 247.022 -0.360305 2.08002 0
M  V30 2632 O 246.37 -1.35084 1.84295 0
M  V30 2633 C 246.58 2.08835 2.79623 0
M  V30 2634 C 247.928 2.40266 3.50082 0
M  V30 2635 O 248.952 2.07104 2.89804 0
M  V30 2636 O 247.811 2.96967 4.58773 0
M  V30 2637 H 244.905 0.419132 0.712922 0
M  V30 2638 H 247.451 1.41451 0.937529 0
M  V30 2639 H 246.223 3.06633 2.43089 0
M  V30 2640 H 245.846 1.77397 3.55832 0
M  V30 2641 N 246.843 -1.10192 1.12674 0
M  V30 2642 C 248.092 -1.81573 0.8783 0
M  V30 2643 C 248.405 -1.86249 -0.597557 0
M  V30 2644 O 249.611 -2.5386 -0.962681 0
M  V30 2645 C 248.067 -3.26149 1.52167 0
M  V30 2646 C 247.675 -3.29763 3.03249 0
M  V30 2647 C 249.419 -4.0234 1.3536 0
M  V30 2648 C 247.326 -4.68815 3.60508 0
M  V30 2649 H 246.256 -0.680394 0.324931 0
M  V30 2650 H 248.907 -1.23902 1.35353 0
M  V30 2651 H 247.289 -3.83832 0.974104 0
M  V30 2652 H 248.463 -2.8189 3.6452 0
M  V30 2653 H 246.778 -2.67059 3.19481 0
M  V30 2654 H 249.375 -5.05058 1.75559 0
M  V30 2655 H 249.718 -4.15235 0.297554 0
M  V30 2656 H 250.251 -3.51079 1.87052 0
M  V30 2657 H 246.99 -4.61121 4.65884 0
M  V30 2658 H 246.51 -5.17045 3.04014 0
M  V30 2659 H 248.189 -5.37785 3.59717 0
M  V30 2660 N 248.321 -0.919034 -1.28029 0
M  V30 2661 C 249.549 -0.570971 -1.98866 0
M  V30 2662 C 249.964 0.848996 -1.68634 0
M  V30 2663 O 249.321 1.56307 -0.942036 0
M  V30 2664 C 249.372 -0.776876 -3.53054 0
M  V30 2665 O 249.093 -2.14097 -3.82222 0
M  V30 2666 C 250.594 -0.436356 -4.41147 0
M  V30 2667 H 247.814 -0.217175 -0.634883 0
M  V30 2668 H 250.358 -1.23368 -1.63097 0
M  V30 2669 H 248.513 -0.161085 -3.87065 0
M  V30 2670 H 248.927 -2.18455 -4.76841 0
M  V30 2671 H 250.401 -0.63117 -5.4838 0
M  V30 2672 H 250.878 0.627686 -4.34692 0
M  V30 2673 H 251.484 -1.02991 -4.12641 0
M  V30 2674 N 249.799 1.42003 -0.683588 0
M  V30 2675 C 251.024 2.06265 -0.216647 0
M  V30 2676 C 251.449 1.51059 1.12083 0
M  V30 2677 O 250.807 0.632638 1.69904 0
M  V30 2678 C 250.855 3.60191 -0.171759 0
M  V30 2679 O 249.959 4.03396 0.857069 0
M  V30 2680 H 249.3 0.65502 -0.108834 0
M  V30 2681 H 251.83 1.81982 -0.935077 0
M  V30 2682 H 251.84 4.08 0.0014303 0
M  V30 2683 H 250.515 3.99743 -1.14796 0
M  V30 2684 H 249.092 3.67117 0.654208 0
M  V30 2685 N 251.277 0.427512 1.51691 0
M  V30 2686 C 252.554 -0.201684 1.94557 0
M  V30 2687 C 252.934 -1.60981 1.36559 0
M  V30 2688 O 252.282 -2.21814 0.548702 0
M  V30 2689 C 252.492 -0.189394 3.48486 0
M  V30 2690 C 253.84 -0.39978 4.22714 0
M  V30 2691 O 254.864 -0.267945 3.55191 0
M  V30 2692 O 253.723 -0.661249 5.42485 0
M  V30 2693 H 250.817 -0.135261 0.815864 0
M  V30 2694 H 253.363 0.484782 1.62628 0
M  V30 2695 H 252.135 0.795431 3.8313 0
M  V30 2696 H 251.758 -0.919187 3.86829 0
M  V30 2697 N 252.755 -1.56801 0.158532 0
M  V30 2698 C 253.983 -2.00859 -0.496303 0
M  V30 2699 C 254.398 -1.03871 -1.57659 0
M  V30 2700 O 253.755 -0.0375165 -1.82461 0
M  V30 2701 C 253.806 -3.4479 -1.08638 0
M  V30 2702 O 253.527 -4.38072 -0.0492322 0
M  V30 2703 C 255.028 -4.04185 -1.8207 0
M  V30 2704 H 252.248 -0.65864 -0.128199 0
M  V30 2705 H 254.792 -2.02885 0.256506 0
M  V30 2706 H 252.947 -3.43579 -1.78975 0
M  V30 2707 H 253.361 -5.2227 -0.483102 0
M  V30 2708 H 254.835 -5.06857 -2.18633 0
M  V30 2709 H 255.312 -3.45549 -2.71095 0
M  V30 2710 H 255.918 -4.0906 -1.16405 0
M  V30 2711 N 254.233 0.115231 -1.57178 0
M  V30 2712 C 255.458 0.840354 -1.89612 0
M  V30 2713 C 255.883 1.72464 -0.750845 0
M  V30 2714 O 255.241 1.78826 0.298478 0
M  V30 2715 C 255.289 1.64654 -3.20814 0
M  V30 2716 O 254.393 2.7538 -3.06985 0
M  V30 2717 H 253.734 0.232158 -0.622092 0
M  V30 2718 H 256.264 0.0964977 -2.04372 0
M  V30 2719 H 256.274 2.03499 -3.53627 0
M  V30 2720 H 254.949 0.997416 -4.03763 0
M  V30 2721 H 253.526 2.3971 -2.85646 0
M  V30 2722 N 255.711 1.52812 0.385517 0
M  V30 2723 C 256.959 1.67694 1.12797 0
M  V30 2724 C 257.28 0.421115 1.90399 0
M  V30 2725 O 256.55 -0.564551 1.87589 0
M  V30 2726 H 255.13 0.618155 0.419396 0
M  V30 2727 H 257.792 1.89938 0.436972 0
M  V30 2728 H 256.888 2.52896 1.82894 0
M  V30 2729 N 257.189 -0.644168 1.43834 0
M  V30 2730 C 258.466 -1.40188 1.36406 0
M  V30 2731 C 258.846 -2.11094 0.0163124 0
M  V30 2732 O 258.194 -2.05426 -1.00062 0
M  V30 2733 C 258.404 -2.3791 2.55343 0
M  V30 2734 C 259.752 -3.01637 2.98832 0
M  V30 2735 O 260.776 -2.48237 2.55455 0
M  V30 2736 O 259.635 -3.98477 3.74003 0
M  V30 2737 H 256.729 -0.626773 0.539523 0
M  V30 2738 H 259.275 -0.670317 1.559 0
M  V30 2739 H 258.047 -1.84525 3.4506 0
M  V30 2740 H 257.67 -3.18503 2.37995 0
M  V30 2741 N 258.668 -1.30515 -0.883378 0
M  V30 2742 C 259.915 -1.1943 -1.63532 0
M  V30 2743 C 260.243 0.250627 -1.92878 0
M  V30 2744 O 259.498 1.19556 -1.54935 0
M  V30 2745 C 259.797 -1.96994 -2.98209 0
M  V30 2746 C 259.463 -3.466 -2.88408 0
M  V30 2747 C 258.125 -3.87397 -2.85442 0
M  V30 2748 C 260.477 -4.41863 -2.76418 0
M  V30 2749 C 257.805 -5.21745 -2.68327 0
M  V30 2750 C 260.157 -5.7632 -2.60841 0
M  V30 2751 C 258.821 -6.16354 -2.56251 0
M  V30 2752 H 258.091 -0.437025 -0.598406 0
M  V30 2753 H 260.738 -1.61635 -1.02696 0
M  V30 2754 H 259.043 -1.47429 -3.63004 0
M  V30 2755 H 260.74 -1.85808 -3.55354 0
M  V30 2756 H 257.33 -3.14182 -2.91527 0
M  V30 2757 H 261.514 -4.11285 -2.77775 0
M  V30 2758 H 256.77 -5.51853 -2.63189 0
M  V30 2759 H 260.944 -6.49772 -2.50538 0
M  V30 2760 H 258.571 -7.20401 -2.42748 0
M  V30 2761 N 260.146 1.09593 -1.13257 0
M  V30 2762 C 261.562 1.33775 -0.870423 0
M  V30 2763 C 261.762 1.95327 0.494926 0
M  V30 2764 O 260.818 2.19853 1.2418 0
M  V30 2765 C 262.131 2.25106 -1.99369 0
M  V30 2766 C 263.679 2.3862 -2.02558 0
M  V30 2767 C 264.154 3.33285 -3.14142 0
M  V30 2768 N 265.645 3.40857 -3.13641 0
M  V30 2769 C 266.38 4.14101 -3.96621 0
M  V30 2770 N 265.876 4.90157 -4.8961 0
M  V30 2771 N 267.669 4.09808 -3.84726 0
M  V30 2772 H 259.82 0.680136 -2.01216 0
M  V30 2773 H 262.083 0.362133 -0.876107 0
M  V30 2774 H 261.789 1.87103 -2.97801 0
M  V30 2775 H 261.663 3.25481 -1.90635 0
M  V30 2776 H 264.05 2.75887 -1.0474 0
M  V30 2777 H 264.131 1.38028 -2.15364 0
M  V30 2778 H 263.775 2.96741 -4.12198 0
M  V30 2779 H 263.705 4.33776 -2.98574 0
M  V30 2780 H 266.196 2.86624 -2.46282 0
M  V30 2781 H 266.509 5.4347 -5.49418 0
M  V30 2782 H 264.854 4.89251 -4.93617 0
M  V30 2783 H 268.045 3.4949 -3.11408 0
M  V30 2784 H 268.218 4.66629 -4.49623 0
M  V30 2785 N 261.624 0.925811 1.2754 0
M  V30 2786 C 262.572 0.413897 2.28888 0
M  V30 2787 C 263.566 -0.500779 1.61829 0
M  V30 2788 O 264.772 -0.38069 1.75928 0
M  V30 2789 H 261.147 0.115274 0.743112 0
M  V30 2790 H 263.118 1.28151 2.69481 0
M  V30 2791 C 261.867 -0.319792 3.46226 0
M  V30 2792 H 261.19 0.374846 3.98039 0
M  V30 2793 H 262.63 -0.642435 4.19105 0
M  V30 2794 C 261.089 -1.53209 3.00048 0
M  V30 2795 O 261.619 -2.6309 3.03557 0
M  V30 2796 N 259.825 -1.38326 2.55566 0
M  V30 2797 H 259.372 -0.489292 2.5291 0
M  V30 2798 H 259.33 -2.19564 2.25031 0
M  V30 2799 N 263.102 -1.41638 0.69111 0
M  V30 2800 C 264.065 -2.29178 0.0319786 0
M  V30 2801 C 265.065 -1.44153 -0.712496 0
M  V30 2802 O 266.255 -1.65354 -0.548053 0
M  V30 2803 C 263.387 -3.26952 -0.965161 0
M  V30 2804 H 264.58 -2.88959 0.802681 0
M  V30 2805 H 262.133 -1.4955 0.454356 0
M  V30 2806 H 262.868 -2.72142 -1.76378 0
M  V30 2807 H 262.653 -3.89685 -0.434522 0
M  V30 2808 H 264.143 -3.92561 -1.42428 0
M  V30 2809 N 264.58 -0.43555 -1.51462 0
M  V30 2810 C 265.51 0.367376 -2.30592 0
M  V30 2811 C 266.491 1.02263 -1.35928 0
M  V30 2812 O 267.676 1.02661 -1.64847 0
M  V30 2813 C 264.806 1.46983 -3.14664 0
M  V30 2814 C 263.76 0.938161 -4.17591 0
M  V30 2815 C 263.086 2.13622 -4.90173 0
M  V30 2816 C 264.386 -0.0261621 -5.22293 0
M  V30 2817 H 266.08 -0.292969 -2.97963 0
M  V30 2818 H 263.626 -0.14234 -1.43295 0
M  V30 2819 H 265.579 2.03873 -3.688 0
M  V30 2820 H 264.303 2.15843 -2.4511 0
M  V30 2821 H 262.962 0.391481 -3.64504 0
M  V30 2822 H 262.61 2.81098 -4.17124 0
M  V30 2823 H 262.31 1.78688 -5.59772 0
M  V30 2824 H 263.834 2.7107 -5.47132 0
M  V30 2825 H 265.248 0.452384 -5.71512 0
M  V30 2826 H 263.645 -0.287992 -5.99409 0
M  V30 2827 H 264.715 -0.963391 -4.75233 0
M  V30 2828 N 266.058 1.56714 -0.166846 0
M  V30 2829 C 266.988 2.20754 0.760913 0
M  V30 2830 C 267.969 1.16178 1.24244 0
M  V30 2831 O 269.154 1.44592 1.29641 0
M  V30 2832 C 266.284 2.84478 1.99223 0
M  V30 2833 C 265.238 3.95053 1.64672 0
M  V30 2834 C 264.564 4.45805 2.95232 0
M  V30 2835 C 265.864 5.14865 0.878155 0
M  V30 2836 H 267.558 2.98537 0.22713 0
M  V30 2837 H 265.104 1.43596 0.107805 0
M  V30 2838 H 267.057 3.27951 2.64624 0
M  V30 2839 H 265.781 2.04056 2.55007 0
M  V30 2840 H 264.44 3.52228 1.01641 0
M  V30 2841 H 264.088 3.62181 3.49047 0
M  V30 2842 H 263.788 5.204 2.7287 0
M  V30 2843 H 265.312 4.91962 3.6167 0
M  V30 2844 H 266.726 5.55059 1.43466 0
M  V30 2845 H 265.123 5.95348 0.753738 0
M  V30 2846 H 266.193 4.84735 -0.126377 0
M  V30 2847 N 267.536 -0.106894 1.57237 0
M  V30 2848 C 268.761 -0.830287 1.90055 0
M  V30 2849 C 269.186 -1.72064 0.75998 0
M  V30 2850 O 268.544 -1.78982 -0.288991 0
M  V30 2851 C 268.592 -1.6295 3.21683 0
M  V30 2852 O 267.696 -2.73748 3.08441 0
M  V30 2853 H 267.037 -0.228855 0.623315 0
M  V30 2854 H 269.567 -0.085658 2.04421 0
M  V30 2855 H 269.577 -2.01621 3.54701 0
M  V30 2856 H 268.252 -0.975989 4.04286 0
M  V30 2857 H 266.829 -2.38192 2.86913 0
M  V30 2858 N 269.014 -1.53014 -0.377408 0
M  V30 2859 C 269.944 -1.81589 -1.46791 0
M  V30 2860 C 270.925 -0.668622 -1.56408 0
M  V30 2861 O 272.11 -0.917337 -1.71168 0
M  V30 2862 C 269.24 -1.99519 -2.8427 0
M  V30 2863 C 268.194 -3.15249 -2.89486 0
M  V30 2864 C 267.52 -3.18451 -4.29527 0
M  V30 2865 C 268.82 -4.54084 -2.58079 0
M  V30 2866 H 270.514 -2.7291 -1.23127 0
M  V30 2867 H 268.06 -1.31319 -0.590883 0
M  V30 2868 H 270.013 -2.18092 -3.60575 0
M  V30 2869 H 268.737 -1.04897 -3.09296 0
M  V30 2870 H 267.396 -2.96477 -2.15631 0
M  V30 2871 H 267.044 -2.2149 -4.5161 0
M  V30 2872 H 266.744 -3.962 -4.33934 0
M  V30 2873 H 268.268 -3.39193 -5.07721 0
M  V30 2874 H 269.682 -4.72899 -3.24098 0
M  V30 2875 H 268.079 -5.33987 -2.7382 0
M  V30 2876 H 269.149 -4.60006 -1.53372 0
M  V30 2877 N 270.492 0.636531 -1.44174 0
M  V30 2878 C 271.455 1.73063 -1.50273 0
M  V30 2879 C 272.455 1.56113 -0.385397 0
M  V30 2880 O 273.645 1.61707 -0.64781 0
M  V30 2881 C 270.777 3.12096 -1.37145 0
M  V30 2882 H 271.97 1.69031 -2.47727 0
M  V30 2883 H 269.523 0.849706 -1.31186 0
M  V30 2884 H 270.258 3.21728 -0.407636 0
M  V30 2885 H 270.043 3.25805 -2.18159 0
M  V30 2886 H 271.533 3.91846 -1.44382 0
M  V30 2887 N 271.97 1.30982 0.876444 0
M  V30 2888 C 272.917 1.18085 1.98304 0
M  V30 2889 C 273.887 0.0682263 1.6596 0
M  V30 2890 O 275.072 0.239937 1.89285 0
M  V30 2891 C 272.212 0.887475 3.33493 0
M  V30 2892 C 271.325 2.08281 3.78475 0
M  V30 2893 C 270.46 1.72678 5.0235 0
M  V30 2894 C 269.499 2.88657 5.39762 0
M  V30 2895 N 268.636 2.53292 6.54819 0
M  V30 2896 H 273.476 2.1275 2.08666 0
M  V30 2897 H 271.013 1.05839 1.02159 0
M  V30 2898 H 272.971 0.697961 4.1132 0
M  V30 2899 H 271.601 -0.022315 3.22792 0
M  V30 2900 H 270.653 2.3833 2.96484 0
M  V30 2901 H 271.965 2.95108 4.02135 0
M  V30 2902 H 271.119 1.50151 5.87826 0
M  V30 2903 H 269.858 0.830327 4.8058 0
M  V30 2904 H 268.863 3.1184 4.52809 0
M  V30 2905 H 270.088 3.79002 5.63502 0
M  V30 2906 H 268.034 1.66163 6.34607 0
M  V30 2907 H 267.951 3.3365 6.7839 0
M  V30 2908 H 269.219 2.34143 7.43503 0
M  V30 2909 N 273.449 -1.08991 1.13837 0
M  V30 2910 C 274.697 -1.80899 0.901098 0
M  V30 2911 C 275.018 -1.86356 -0.574134 0
M  V30 2912 O 274.288 -1.35235 -1.41733 0
M  V30 2913 H 272.868 -0.669966 0.330386 0
M  V30 2914 H 275.53 -1.318 1.43578 0
M  V30 2915 H 274.626 -2.83929 1.29578 0
M  V30 2916 N 274.927 -0.932562 -1.27047 0
M  V30 2917 C 276.204 -0.49377 -1.89265 0
M  V30 2918 C 276.584 1.02833 -1.8436 0
M  V30 2919 O 275.932 1.88461 -1.29209 0
M  V30 2920 C 276.142 -1.04536 -3.32976 0
M  V30 2921 C 277.49 -1.10879 -4.09867 0
M  V30 2922 O 278.514 -0.995327 -3.42011 0
M  V30 2923 O 277.373 -1.28417 -5.31198 0
M  V30 2924 H 274.467 -0.159596 -0.811454 0
M  V30 2925 H 277.013 -1.02457 -1.3528 0
M  V30 2926 H 275.785 -2.08913 -3.30864 0
M  V30 2927 H 275.408 -0.496494 -3.94488 0
M  V30 2928 N 276.405 1.4127 -0.698611 0
M  V30 2929 C 277.821 1.55241 -0.370462 0
M  V30 2930 C 278.021 1.67351 1.12231 0
M  V30 2931 O 277.077 1.65363 1.90818 0
M  V30 2932 C 278.39 2.78997 -1.12165 0
M  V30 2933 C 279.938 2.92797 -1.1063 0
M  V30 2934 C 280.413 4.19445 -1.8393 0
M  V30 2935 N 281.904 4.26409 -1.80914 0
M  V30 2936 C 282.639 5.23271 -2.34467 0
M  V30 2937 N 282.135 6.26145 -2.96504 0
M  V30 2938 N 283.928 5.15232 -2.24706 0
M  V30 2939 H 276.079 1.31654 -1.66676 0
M  V30 2940 H 278.342 0.635393 -0.703548 0
M  V30 2941 H 278.048 2.76268 -2.17644 0
M  V30 2942 H 277.922 3.70606 -0.702209 0
M  V30 2943 H 280.309 2.95039 -0.0597713 0
M  V30 2944 H 280.39 2.02353 -1.56483 0
M  V30 2945 H 280.034 4.17964 -2.88563 0
M  V30 2946 H 279.964 5.08866 -1.35509 0
M  V30 2947 H 282.455 3.527 -1.35687 0
M  V30 2948 H 282.768 6.96451 -3.34927 0
M  V30 2949 H 281.113 6.26638 -3.00583 0
M  V30 2950 H 284.304 4.33789 -1.7591 0
M  V30 2951 H 284.477 5.90552 -2.66745 0
M  V30 2952 N 277.883 0.443576 1.51229 0
M  V30 2953 C 279.108 -0.121648 2.07043 0
M  V30 2954 C 279.533 -1.35156 1.30823 0
M  V30 2955 O 278.891 -1.7793 0.347934 0
M  V30 2956 C 278.939 -0.41624 3.5819 0
M  V30 2957 O 278.043 -1.50163 3.8409 0
M  V30 2958 H 277.384 0.000871367 0.663999 0
M  V30 2959 H 279.914 0.626706 1.94765 0
M  V30 2960 H 279.924 -0.664867 4.02546 0
M  V30 2961 H 278.599 0.482653 4.1309 0
M  V30 2962 H 277.176 -1.24248 3.51592 0
M  V30 2963 N 279.361 -1.56624 0.175154 0
M  V30 2964 C 280.271 -2.21741 -0.766042 0
M  V30 2965 C 281.287 -1.21023 -1.25018 0
M  V30 2966 O 282.463 -1.53697 -1.3015 0
M  V30 2967 C 279.528 -2.84839 -1.97655 0
M  V30 2968 C 278.589 -4.00769 -1.53892 0
M  V30 2969 C 277.822 -4.60849 -2.69173 0
M  V30 2970 O 278.045 -4.19823 -3.86141 0
M  V30 2971 O 276.979 -5.50655 -2.43028 0
M  V30 2972 H 280.805 -3.02738 -0.241585 0
M  V30 2973 H 278.39 -1.49305 -0.053222 0
M  V30 2974 H 280.272 -3.24834 -2.68442 0
M  V30 2975 H 278.947 -2.06836 -2.48999 0
M  V30 2976 H 277.854 -3.65436 -0.80044 0
M  V30 2977 H 279.187 -4.80376 -1.07236 0
M  V30 2978 N 280.839 0.0985539 -1.57292 0
M  V30 2979 C 282.116 0.834155 -1.76921 0
M  V30 2980 C 282.496 1.97101 -0.755928 0
M  V30 2981 O 281.844 2.27474 0.216245 0
M  V30 2982 C 282.054 1.33194 -3.22584 0
M  V30 2983 C 283.402 1.77611 -3.85668 0
M  V30 2984 O 284.426 1.42825 -3.26312 0
M  V30 2985 O 283.285 2.4192 -4.90038 0
M  V30 2986 H 280.379 0.397628 -0.725135 0
M  V30 2987 H 282.925 0.0807044 -1.69508 0
M  V30 2988 H 281.697 0.517248 -3.87866 0
M  V30 2989 H 281.32 2.1475 -3.34616 0
M  V30 2990 N 282.317 1.53212 0.369288 0
M  V30 2991 C 283.564 1.69215 1.11232 0
M  V30 2992 C 283.892 0.442048 1.8941 0
M  V30 2993 O 283.147 -0.575944 1.87033 0
M  V30 2994 C 283.446 2.89101 2.10132 0
M  V30 2995 C 283.112 4.25758 1.48463 0
M  V30 2996 C 281.774 4.6292 1.31372 0
M  V30 2997 C 284.126 5.10757 1.03811 0
M  V30 2998 C 281.454 5.82722 0.68207 0
M  V30 2999 C 283.806 6.31201 0.420487 0
M  V30 3000 C 282.47 6.67079 0.237038 0
M  V30 3001 H 281.74 0.619201 0.407027 0
M  V30 3002 H 284.387 1.87391 0.394552 0
M  V30 3003 H 282.692 2.65421 2.88199 0
M  V30 3004 H 284.389 2.98676 2.6757 0
M  V30 3005 H 280.979 3.96494 1.62758 0
M  V30 3006 H 285.163 4.82599 1.1581 0
M  V30 3007 H 280.419 6.09113 0.528316 0
M  V30 3008 H 284.593 6.96368 0.0662874 0
M  V30 3009 H 282.22 7.59774 -0.254477 0
M  V30 3010 N 283.795 -0.628877 1.44509 0
M  V30 3011 C 285.043 -1.38565 1.4712 0
M  V30 3012 C 285.364 -1.94712 0.105899 0
M  V30 3013 O 284.634 -1.75912 -0.862079 0
M  V30 3014 H 283.214 -0.514333 0.541729 0
M  V30 3015 H 285.876 -0.740018 1.80305 0
M  V30 3016 H 284.972 -2.21583 2.19789 0
M  V30 3017 N 285.273 -1.31445 -0.869486 0
M  V30 3018 C 286.519 -1.21337 -1.62496 0
M  V30 3019 C 286.852 0.227872 -1.92858 0
M  V30 3020 O 286.127 1.16094 -1.56053 0
M  V30 3021 C 286.41 -2.05814 -2.95487 0
M  V30 3022 C 286.263 -3.5824 -2.72 0
M  V30 3023 C 287.582 -1.9079 -3.96594 0
M  V30 3024 H 284.701 -0.442135 -0.589649 0
M  V30 3025 H 287.343 -1.6124 -1.00507 0
M  V30 3026 H 285.493 -1.71913 -3.48394 0
M  V30 3027 H 287.165 -4.0228 -2.25762 0
M  V30 3028 H 285.408 -3.81647 -2.06224 0
M  V30 3029 H 286.079 -4.12657 -3.66631 0
M  V30 3030 H 288.555 -2.20459 -3.52898 0
M  V30 3031 H 287.431 -2.52199 -4.87531 0
M  V30 3032 H 287.692 -0.871341 -4.33428 0
M  V30 3033 N 286.751 1.08385 -1.14413 0
M  V30 3034 C 287.699 2.17406 -0.826888 0
M  V30 3035 C 288.693 1.6827 0.195312 0
M  V30 3036 O 289.899 1.79927 0.0513892 0
M  V30 3037 H 286.274 0.70934 -0.249681 0
M  V30 3038 H 288.245 2.41388 -1.75426 0
M  V30 3039 C 286.994 3.46215 -0.320979 0
M  V30 3040 H 286.317 3.84401 -1.0989 0
M  V30 3041 H 287.757 4.23777 -0.137549 0
M  V30 3042 C 286.216 3.23067 0.955472 0
M  V30 3043 O 286.746 3.4668 2.02918 0
M  V30 3044 N 284.952 2.7661 0.890798 0
M  V30 3045 H 284.499 2.57594 0.0168815 0
M  V30 3046 H 284.457 2.61501 1.74542 0
M  V30 3047 N 288.23 0.939286 1.26551 0
M  V30 3048 C 289.14 0.453432 2.30176 0
M  V30 3049 C 290.156 -0.471649 1.67486 0
M  V30 3050 O 291.332 -0.35164 1.98306 0
M  V30 3051 C 288.397 -0.275326 3.45605 0
M  V30 3052 C 287.458 0.686084 4.23782 0
M  V30 3053 C 286.691 -0.00798994 5.33699 0
M  V30 3054 O 286.914 -1.22528 5.57085 0
M  V30 3055 O 285.848 0.669746 5.98162 0
M  V30 3056 H 289.674 1.31416 2.73795 0
M  V30 3057 H 287.259 0.705095 1.31715 0
M  V30 3058 H 289.141 -0.685911 4.1578 0
M  V30 3059 H 287.816 -1.11147 3.0402 0
M  V30 3060 H 286.723 1.14658 3.56096 0
M  V30 3061 H 288.056 1.48979 4.69112 0
M  V30 3062 N 289.708 -1.40897 0.706093 0
M  V30 3063 C 290.985 -1.94868 0.169099 0
M  V30 3064 C 291.365 -1.64485 -1.32318 0
M  V30 3065 O 290.713 -0.95744 -2.07474 0
M  V30 3066 C 290.923 -3.45798 0.471654 0
M  V30 3067 C 292.271 -4.22663 0.405127 0
M  V30 3068 O 293.295 -3.53865 0.407168 0
M  V30 3069 O 292.154 -5.45216 0.374383 0
M  V30 3070 H 289.248 -0.82673 0.0211352 0
M  V30 3071 H 291.794 -1.50558 0.782976 0
M  V30 3072 H 290.566 -3.61235 1.50416 0
M  V30 3073 H 290.189 -3.97225 -0.172666 0
M  V30 3074 N 291.186 -0.45159 -1.50991 0
M  V30 3075 C 292.116 0.342898 -2.30969 0
M  V30 3076 C 293.097 1.00815 -1.37005 0
M  V30 3077 O 294.282 1.00907 -1.65926 0
M  V30 3078 C 291.412 1.43637 -3.16205 0
M  V30 3079 C 290.366 0.893818 -4.18563 0
M  V30 3080 C 289.692 2.08411 -4.92411 0
M  V30 3081 C 290.992 -0.0815568 -5.22236 0
M  V30 3082 H 292.686 -0.324556 -2.97636 0
M  V30 3083 H 290.232 -0.157531 -1.43136 0
M  V30 3084 H 292.185 1.9995 -3.70942 0
M  V30 3085 H 290.909 2.13232 -2.47386 0
M  V30 3086 H 289.568 0.352798 -3.64898 0
M  V30 3087 H 289.216 2.76658 -4.20082 0
M  V30 3088 H 288.916 1.72741 -5.61636 0
M  V30 3089 H 290.44 2.65251 -5.49976 0
M  V30 3090 H 291.854 0.391742 -5.7196 0
M  V30 3091 H 290.251 -0.351551 -5.99069 0
M  V30 3092 H 291.321 -1.01374 -4.74185 0
M  V30 3093 N 292.664 1.56529 -0.183458 0
M  V30 3094 C 293.627 2.17324 0.728223 0
M  V30 3095 C 294.627 1.12453 1.14939 0
M  V30 3096 O 295.817 1.37902 1.06437 0
M  V30 3097 C 292.949 2.76591 1.99274 0
M  V30 3098 H 294.142 2.99241 0.198772 0
M  V30 3099 H 291.695 1.5616 0.0661391 0
M  V30 3100 H 292.43 1.98441 2.56499 0
M  V30 3101 H 292.215 3.5335 1.69959 0
M  V30 3102 H 293.705 3.23311 2.6431 0
M  V30 3103 N 294.142 -0.090211 1.57342 0
M  V30 3104 C 295.419 -0.824761 1.77361 0
M  V30 3105 C 295.799 -1.96698 0.76637 0
M  V30 3106 O 295.147 -2.27586 -0.204179 0
M  V30 3107 C 295.357 -1.31481 3.23286 0
M  V30 3108 C 296.705 -1.75563 3.86604 0
M  V30 3109 O 297.729 -1.41093 3.27065 0
M  V30 3110 O 296.588 -2.39317 4.91314 0
M  V30 3111 H 293.682 -0.393776 0.727234 0
M  V30 3112 H 296.228 -0.0717138 1.69548 0
M  V30 3113 H 295 -0.496671 3.88135 0
M  V30 3114 H 294.623 -2.12973 3.35751 0
M  V30 3115 N 295.62 -1.53406 -0.361157 0
M  V30 3116 C 296.845 -1.74024 -1.12829 0
M  V30 3117 C 297.27 -0.470069 -1.82132 0
M  V30 3118 O 296.628 0.57619 -1.719 0
M  V30 3119 C 296.676 -2.90903 -2.13091 0
M  V30 3120 O 295.78 -2.59821 -3.20261 0
M  V30 3121 H 295.121 -0.577804 -0.327168 0
M  V30 3122 H 297.651 -2.00307 -0.41693 0
M  V30 3123 H 297.661 -3.17194 -2.56616 0
M  V30 3124 H 296.336 -3.83034 -1.62042 0
M  V30 3125 H 294.913 -2.44362 -2.81677 0
M  V30 3126 N 297.098 0.621204 -1.44841 0
M  V30 3127 C 298.375 1.38 -1.38619 0
M  V30 3128 C 298.755 2.11041 -0.0498935 0
M  V30 3129 O 298.103 2.06992 0.967816 0
M  V30 3130 C 298.313 2.33817 -2.59096 0
M  V30 3131 C 299.661 2.96844 -3.03593 0
M  V30 3132 O 300.685 2.44141 -2.59371 0
M  V30 3133 O 299.544 3.92476 -3.80296 0
M  V30 3134 H 296.638 0.61811 -0.549426 0
M  V30 3135 H 299.184 0.645429 -1.56947 0
M  V30 3136 H 297.956 1.79012 -3.47952 0
M  V30 3137 H 297.579 3.14676 -2.43032 0
M  V30 3138 N 298.576 1.31904 0.862503 0
M  V30 3139 C 299.539 1.20131 1.95195 0
M  V30 3140 C 300.539 0.126409 1.60302 0
M  V30 3141 O 301.729 0.376234 1.70089 0
M  V30 3142 C 298.861 0.845691 3.30244 0
M  V30 3143 H 300.054 2.16943 2.07064 0
M  V30 3144 H 297.607 1.15622 1.05172 0
M  V30 3145 H 298.342 -0.120957 3.24074 0
M  V30 3146 H 298.127 1.62276 3.56944 0
M  V30 3147 H 299.617 0.787418 4.10109 0
M  V30 3148 N 300.054 -1.07777 1.14986 0
M  V30 3149 C 301.47 -1.32373 0.891596 0
M  V30 3150 C 301.67 -1.9609 -0.463788 0
M  V30 3151 O 300.726 -2.21801 -1.20667 0
M  V30 3152 C 302.039 -2.21905 2.02925 0
M  V30 3153 C 303.587 -2.35367 2.06329 0
M  V30 3154 C 304.062 -3.28245 3.19405 0
M  V30 3155 N 305.553 -3.35824 3.19024 0
M  V30 3156 C 306.288 -4.07739 4.03158 0
M  V30 3157 N 305.784 -4.82306 4.97346 0
M  V30 3158 N 307.577 -4.03635 3.91197 0
M  V30 3159 H 299.728 -0.648039 2.02273 0
M  V30 3160 H 301.991 -0.348149 0.881757 0
M  V30 3161 H 301.697 -1.82342 3.0074 0
M  V30 3162 H 301.571 -3.22407 1.95789 0
M  V30 3163 H 303.958 -2.74186 1.09116 0
M  V30 3164 H 304.039 -1.34585 2.17533 0
M  V30 3165 H 303.683 -2.90146 4.16867 0
M  V30 3166 H 303.613 -4.28971 3.05437 0
M  V30 3167 H 306.104 -2.8267 2.50811 0
M  V30 3168 H 306.417 -5.34661 5.57994 0
M  V30 3169 H 304.762 -4.81337 5.01338 0
M  V30 3170 H 307.953 -3.44491 3.16928 0
M  V30 3171 H 308.126 -4.59417 4.5699 0
M  V30 3172 N 301.532 -0.945985 -1.26051 0
M  V30 3173 C 302.495 -0.463897 -2.24456 0
M  V30 3174 C 303.495 0.427655 -1.55009 0
M  V30 3175 O 304.685 0.226157 -1.72726 0
M  V30 3176 C 301.817 0.330812 -3.39291 0
M  V30 3177 H 303.01 -1.33357 -2.68619 0
M  V30 3178 H 300.563 -0.728416 -1.38289 0
M  V30 3179 H 301.298 1.21852 -3.00537 0
M  V30 3180 H 301.083 -0.308679 -3.90883 0
M  V30 3181 H 302.573 0.657865 -4.12386 0
M  V30 3182 N 303.011 1.40521 -0.713556 0
M  V30 3183 C 303.941 2.33381 -0.0743864 0
M  V30 3184 C 304.922 1.52784 0.747735 0
M  V30 3185 O 306.107 1.81258 0.697071 0
M  V30 3186 C 303.237 3.36748 0.849598 0
M  V30 3187 C 302.191 4.27793 0.133247 0
M  V30 3188 C 301.517 5.21679 1.17281 0
M  V30 3189 C 302.817 5.12415 -1.01134 0
M  V30 3190 H 304.511 2.87081 -0.850007 0
M  V30 3191 H 302.057 1.38034 -0.410201 0
M  V30 3192 H 304.01 4.00648 1.30612 0
M  V30 3193 H 302.734 2.81439 1.65709 0
M  V30 3194 H 301.393 3.65342 -0.303426 0
M  V30 3195 H 301.041 4.62677 1.9733 0
M  V30 3196 H 300.741 5.83435 0.698397 0
M  V30 3197 H 302.265 5.88456 1.62947 0
M  V30 3198 H 303.679 5.69781 -0.634274 0
M  V30 3199 H 302.076 5.83203 -1.41399 0
M  V30 3200 H 303.146 4.48514 -1.84292 0
M  V30 3201 N 304.489 0.459591 1.5075 0
M  V30 3202 C 305.719 -0.0972338 2.06371 0
M  V30 3203 C 306.127 -1.35074 1.32483 0
M  V30 3204 O 305.47 -1.79637 0.384226 0
M  V30 3205 C 305.532 -0.462759 3.56509 0
M  V30 3206 C 305.196 0.687084 4.51805 0
M  V30 3207 C 306.193 1.56578 4.95761 0
M  V30 3208 C 303.878 0.874144 4.94635 0
M  V30 3209 C 305.872 2.61604 5.81242 0
M  V30 3210 C 303.559 1.92765 5.79901 0
M  V30 3211 C 304.557 2.79697 6.23104 0
M  V30 3212 O 304.245 3.83235 7.06673 0
M  V30 3213 H 303.977 -0.00140687 0.675999 0
M  V30 3214 H 306.531 0.644011 1.95043 0
M  V30 3215 H 304.761 -1.25703 3.65699 0
M  V30 3216 H 306.45 -0.953323 3.94546 0
M  V30 3217 H 307.216 1.4329 4.6335 0
M  V30 3218 H 303.095 0.207006 4.60535 0
M  V30 3219 H 306.639 3.29489 6.14884 0
M  V30 3220 H 302.536 2.06064 6.11725 0
M  V30 3221 H 303.304 3.80084 7.24899 0
M  V30 3222 N 305.967 -1.56429 0.191757 0
M  V30 3223 C 306.877 -2.22541 -0.742481 0
M  V30 3224 C 307.893 -1.22342 -1.23727 0
M  V30 3225 O 309.069 -1.55069 -1.28513 0
M  V30 3226 C 306.134 -2.8692 -1.94623 0
M  V30 3227 C 305.195 -4.02378 -1.49633 0
M  V30 3228 C 304.428 -4.63678 -2.6427 0
M  V30 3229 O 304.651 -4.23895 -3.81666 0
M  V30 3230 O 303.585 -5.53202 -2.37174 0
M  V30 3231 H 307.411 -3.02977 -0.209462 0
M  V30 3232 H 304.996 -1.49353 -0.0373832 0
M  V30 3233 H 306.878 -3.27663 -2.64982 0
M  V30 3234 H 305.553 -2.09466 -2.46791 0
M  V30 3235 H 304.46 -3.66265 -0.761636 0
M  V30 3236 H 305.793 -4.81487 -1.02134 0
M  V30 3237 N 307.445 0.0818655 -1.57387 0
M  V30 3238 C 308.408 1.08265 -2.02018 0
M  V30 3239 C 309.408 1.32183 -0.915664 0
M  V30 3240 O 310.598 1.28073 -1.18081 0
M  V30 3241 C 307.73 2.42871 -2.39221 0
M  V30 3242 H 308.923 0.698204 -2.91659 0
M  V30 3243 H 306.476 0.327303 -1.52835 0
M  V30 3244 H 307.211 2.86167 -1.52575 0
M  V30 3245 H 306.996 2.26855 -3.19811 0
M  V30 3246 H 308.486 3.14826 -2.74362 0
M  V30 3247 N 308.923 1.53595 0.353017 0
M  V30 3248 C 310.171 1.70049 1.09215 0
M  V30 3249 C 310.492 0.461406 1.89463 0
M  V30 3250 O 309.762 -0.524633 1.88744 0
M  V30 3251 H 308.342 0.626912 0.40619 0
M  V30 3252 H 311.004 1.90822 0.396585 0
M  V30 3253 H 310.1 2.56718 1.77488 0
M  V30 3254 N 310.401 -0.613514 1.45168 0
M  V30 3255 C 311.311 -1.75296 1.55912 0
M  V30 3256 C 312.327 -1.68244 0.443856 0
M  V30 3257 O 313.503 -1.88706 0.70371 0
M  V30 3258 C 310.568 -3.1174 1.5172 0
M  V30 3259 C 309.629 -3.30291 2.74238 0
M  V30 3260 C 308.862 -4.60226 2.70236 0
M  V30 3261 O 309.085 -5.42168 1.77229 0
M  V30 3262 O 308.019 -4.81361 3.61352 0
M  V30 3263 H 311.845 -1.69183 2.52212 0
M  V30 3264 H 309.43 -0.776886 1.27612 0
M  V30 3265 H 311.312 -3.93044 1.51968 0
M  V30 3266 H 309.987 -3.18357 0.585697 0
M  V30 3267 H 308.894 -2.48598 2.79553 0
M  V30 3268 H 310.227 -3.28547 3.66494 0
M  V30 3269 N 311.879 -1.3236 -0.855495 0
M  V30 3270 C 313.295 -1.11332 -1.14356 0
M  V30 3271 C 313.495 0.106751 -2.01217 0
M  V30 3272 O 312.551 0.791891 -2.39761 0
M  V30 3273 C 313.864 -2.39237 -1.82171 0
M  V30 3274 C 315.412 -2.44986 -1.9481 0
M  V30 3275 C 315.887 -3.7281 -2.66039 0
M  V30 3276 N 317.378 -3.73787 -2.73565 0
M  V30 3277 C 318.113 -4.69394 -3.29327 0
M  V30 3278 N 317.609 -5.75367 -3.85907 0
M  V30 3279 N 319.402 -4.56893 -3.27423 0
M  V30 3280 H 311.553 -2.10586 -0.277027 0
M  V30 3281 H 313.816 -0.929701 -0.185364 0
M  V30 3282 H 313.522 -3.28431 -1.25802 0
M  V30 3283 H 313.396 -2.50134 -2.82335 0
M  V30 3284 H 315.783 -1.56252 -2.50338 0
M  V30 3285 H 315.864 -2.38043 -0.936448 0
M  V30 3286 H 315.508 -4.61918 -2.11174 0
M  V30 3287 H 315.438 -3.77024 -3.67642 0
M  V30 3288 H 317.929 -2.97189 -2.33424 0
M  V30 3289 H 318.242 -6.44378 -4.26611 0
M  V30 3290 H 316.587 -5.79123 -3.84242 0
M  V30 3291 H 319.778 -3.73269 -2.82467 0
M  V30 3292 H 319.951 -5.31577 -3.7058 0
M  V30 3293 N 313.357 1.07166 -1.15556 0
M  V30 3294 C 314.773 1.31899 -0.898603 0
M  V30 3295 C 314.973 1.96333 0.453383 0
M  V30 3296 O 314.029 2.22438 1.19489 0
M  V30 3297 C 315.342 2.20826 -2.04099 0
M  V30 3298 C 316.89 2.34269 -2.07574 0
M  V30 3299 C 317.365 3.26546 -3.21141 0
M  V30 3300 N 318.856 3.34127 -3.20801 0
M  V30 3301 C 319.591 4.05595 -4.05315 0
M  V30 3302 N 319.087 4.79661 -4.99897 0
M  V30 3303 N 320.88 4.01555 -3.93332 0
M  V30 3304 H 313.031 0.637302 -2.02613 0
M  V30 3305 H 315.294 0.343468 -0.883591 0
M  V30 3306 H 315 1.80744 -3.01703 0
M  V30 3307 H 314.874 3.21364 -1.97496 0
M  V30 3308 H 317.261 2.73603 -1.10568 0
M  V30 3309 H 317.342 1.33429 -2.18244 0
M  V30 3310 H 316.986 2.87931 -4.184 0
M  V30 3311 H 316.916 4.27345 -3.07708 0
M  V30 3312 H 319.407 2.81336 -2.52306 0
M  V30 3313 H 319.72 5.31694 -5.60822 0
M  V30 3314 H 318.065 4.78671 -5.03884 0
M  V30 3315 H 321.256 3.42806 -3.18751 0
M  V30 3316 H 321.429 4.56987 -4.5942 0
M  V30 3317 N 314.835 0.952656 1.25548 0
M  V30 3318 C 315.782 0.47008 2.25962 0
M  V30 3319 C 316.752 -0.476384 1.59122 0
M  V30 3320 O 317.937 -0.39007 1.8677 0
M  V30 3321 C 315.077 -0.247881 3.44209 0
M  V30 3322 C 314.19 0.735591 4.25691 0
M  V30 3323 C 313.325 -0.0047306 5.312 0
M  V30 3324 C 312.364 0.969805 6.04368 0
M  V30 3325 N 311.501 0.260486 7.01617 0
M  V30 3326 H 316.341 1.33126 2.66611 0
M  V30 3327 H 313.878 0.66765 1.31076 0
M  V30 3328 H 315.836 -0.680695 4.1161 0
M  V30 3329 H 314.466 -1.07312 3.0444 0
M  V30 3330 H 313.518 1.28689 3.57971 0
M  V30 3331 H 314.83 1.47934 4.76358 0
M  V30 3332 H 313.984 -0.496275 6.04667 0
M  V30 3333 H 312.723 -0.781282 4.81401 0
M  V30 3334 H 311.728 1.47237 5.29718 0
M  V30 3335 H 312.953 1.74655 6.56256 0
M  V30 3336 H 310.899 -0.497364 6.54112 0
M  V30 3337 H 310.816 0.943362 7.50091 0
M  V30 3338 H 312.084 -0.209587 7.79218 0
M  V30 3339 N 316.313 -1.40141 0.720998 0
M  V30 3340 C 317.561 -2.0039 0.262323 0
M  V30 3341 C 317.882 -1.57469 -1.15015 0
M  V30 3342 O 317.152 -0.816582 -1.78069 0
M  V30 3343 H 315.732 -0.741063 0.093996 0
M  V30 3344 H 318.394 -1.71398 0.927835 0
M  V30 3345 H 317.49 -3.10658 0.299671 0
M  V30 3346 N 317.792 -0.46758 -1.50504 0
M  V30 3347 C 319.02 0.0864133 -2.06719 0
M  V30 3348 C 319.435 1.33819 -1.33184 0
M  V30 3349 O 318.792 1.78061 -0.400083 0
M  V30 3350 C 318.843 0.378079 -3.59517 0
M  V30 3351 O 318.564 -0.824044 -4.3028 0
M  V30 3352 C 320.065 0.979426 -4.32345 0
M  V30 3353 H 317.285 -0.00551697 -0.670977 0
M  V30 3354 H 319.829 -0.655354 -1.93715 0
M  V30 3355 H 317.984 1.06977 -3.72337 0
M  V30 3356 H 318.398 -0.566518 -5.21432 0
M  V30 3357 H 319.872 1.1333 -5.40241 0
M  V30 3358 H 320.349 1.9686 -3.9261 0
M  V30 3359 H 320.955 0.326216 -4.24047 0
M  V30 3360 N 319.27 1.56325 -0.20005 0
M  V30 3361 C 320.547 1.89484 0.48529 0
M  V30 3362 C 320.927 1.1143 1.79294 0
M  V30 3363 O 320.275 0.216919 2.27468 0
M  V30 3364 C 320.485 3.41923 0.699243 0
M  V30 3365 C 321.833 4.12256 1.01638 0
M  V30 3366 O 322.857 3.47402 0.786792 0
M  V30 3367 O 321.716 5.26887 1.45095 0
M  V30 3368 H 318.81 0.787144 0.253639 0
M  V30 3369 H 321.356 1.67985 -0.240633 0
M  V30 3370 H 320.128 3.90658 -0.224008 0
M  V30 3371 H 319.751 3.69131 1.47744 0
M  V30 3372 N 320.748 -0.0735177 1.57428 0
M  V30 3373 C 321.994 -0.774145 1.87443 0
M  V30 3374 C 322.327 -1.77311 0.792103 0
M  V30 3375 O 321.602 -1.93492 -0.197793 0
M  V30 3376 C 321.885 -1.48367 3.28115 0
M  V30 3377 C 321.738 -0.501227 4.46999 0
M  V30 3378 C 323.057 -2.429 3.66998 0
M  V30 3379 H 320.176 -0.279971 0.681752 0
M  V30 3380 H 322.818 -0.0373616 1.89963 0
M  V30 3381 H 320.968 -2.11171 3.26097 0
M  V30 3382 H 322.64 0.121468 4.6114 0
M  V30 3383 H 320.883 0.183593 4.33411 0
M  V30 3384 H 321.554 -1.03526 5.42205 0
M  V30 3385 H 324.03 -1.90175 3.70098 0
M  V30 3386 H 322.906 -2.89549 4.66318 0
M  V30 3387 H 323.167 -3.27628 2.96837 0
M  V30 3388 N 322.226 -1.5378 -0.344866 0
M  V30 3389 C 323.174 -1.82373 -1.4437 0
M  V30 3390 C 324.168 -0.694128 -1.54526 0
M  V30 3391 O 325.374 -0.877442 -1.57165 0
M  V30 3392 H 321.749 -0.577765 -0.481344 0
M  V30 3393 H 323.72 -2.74306 -1.17468 0
M  V30 3394 C 322.469 -2.04898 -2.80913 0
M  V30 3395 H 321.792 -2.9127 -2.73865 0
M  V30 3396 H 323.232 -2.28871 -3.56923 0
M  V30 3397 C 321.691 -0.834116 -3.26411 0
M  V30 3398 O 322.221 -0.0328885 -4.01687 0
M  V30 3399 N 320.427 -0.65171 -2.83198 0
M  V30 3400 H 319.974 -1.30489 -2.22104 0
M  V30 3401 H 319.932 0.159686 -3.13994 0
M  V30 3402 N 323.704 0.605807 -1.45491 0
M  V30 3403 C 324.95 1.36679 -1.49823 0
M  V30 3404 C 325.283 1.93693 -0.140175 0
M  V30 3405 O 324.558 1.75158 0.845581 0
M  V30 3406 C 324.841 2.51337 -2.57879 0
M  V30 3407 C 324.694 1.99508 -4.03134 0
M  V30 3408 C 326.013 3.53463 -2.62205 0
M  V30 3409 H 323.132 0.495617 -0.545466 0
M  V30 3410 H 325.774 0.682732 -1.7731 0
M  V30 3411 H 323.924 3.09691 -2.34571 0
M  V30 3412 H 325.596 1.45789 -4.37656 0
M  V30 3413 H 323.839 1.30496 -4.13707 0
M  V30 3414 H 324.51 2.82169 -4.74431 0
M  V30 3415 H 326.986 3.04953 -2.83095 0
M  V30 3416 H 325.862 4.31178 -3.39672 0
M  V30 3417 H 326.123 4.09197 -1.67363 0
M  V30 3418 N 325.182 1.32811 0.848464 0
M  V30 3419 C 326.429 1.23724 1.60308 0
M  V30 3420 C 326.757 -0.1994 1.93475 0
M  V30 3421 O 326.012 -1.15406 1.5805 0
M  V30 3422 C 326.311 2.04831 2.92881 0
M  V30 3423 C 325.977 3.54125 2.79117 0
M  V30 3424 C 324.639 3.94829 2.7507 0
M  V30 3425 C 326.991 4.49036 2.64606 0
M  V30 3426 C 324.319 5.28675 2.544 0
M  V30 3427 C 326.671 5.83033 2.4547 0
M  V30 3428 C 325.335 6.22931 2.39819 0
M  V30 3429 H 324.605 0.452737 0.586609 0
M  V30 3430 H 327.252 1.64301 0.983743 0
M  V30 3431 H 325.557 1.57001 3.58968 0
M  V30 3432 H 327.254 1.95164 3.50303 0
M  V30 3433 H 323.844 3.21801 2.83094 0
M  V30 3434 H 328.028 4.18505 2.66772 0
M  V30 3435 H 323.284 5.58637 2.48465 0
M  V30 3436 H 327.458 6.56186 2.33222 0
M  V30 3437 H 325.085 7.26584 2.23562 0
M  V30 3438 N 326.66 -1.06551 1.16123 0
M  V30 3439 C 327.608 -2.16063 0.861371 0
M  V30 3440 C 328.602 -1.6856 -0.168517 0
M  V30 3441 O 329.808 -1.79986 -0.0227579 0
M  V30 3442 H 326.183 -0.705278 0.260934 0
M  V30 3443 H 328.154 -2.38567 1.79244 0
M  V30 3444 C 326.903 -3.45661 0.376018 0
M  V30 3445 H 326.226 -3.82604 1.15992 0
M  V30 3446 H 327.666 -4.23504 0.204951 0
M  V30 3447 C 326.125 -3.24546 -0.903954 0
M  V30 3448 O 326.655 -3.49865 -1.97377 0
M  V30 3449 N 324.861 -2.77992 -0.846679 0
M  V30 3450 H 324.408 -2.57589 0.0241017 0
M  V30 3451 H 324.366 -2.64244 -1.70359 0
M  V30 3452 N 328.138 -0.959301 -1.25041 0
M  V30 3453 C 329.366 -0.633949 -1.96948 0
M  V30 3454 C 329.781 0.794916 -1.7125 0
M  V30 3455 O 329.138 1.53231 -0.991287 0
M  V30 3456 C 329.189 -0.888805 -3.50403 0
M  V30 3457 O 328.91 -2.26149 -3.75218 0
M  V30 3458 C 330.411 -0.576482 -4.39536 0
M  V30 3459 H 327.631 -0.237263 -0.627652 0
M  V30 3460 H 330.175 -1.28495 -1.59089 0
M  V30 3461 H 328.33 -0.284145 -3.86357 0
M  V30 3462 H 328.744 -2.33514 -4.6965 0
M  V30 3463 H 330.218 -0.805314 -5.46094 0
M  V30 3464 H 330.695 0.489075 -4.36468 0
M  V30 3465 H 331.301 -1.16067 -4.09156 0
M  V30 3466 N 329.616 1.39756 -0.72842 0
M  V30 3467 C 330.865 1.99879 -0.270407 0
M  V30 3468 C 331.178 1.58449 1.14688 0
M  V30 3469 O 332.384 2.11362 1.70407 0
M  V30 3470 C 330.84 3.57292 -0.43252 0
M  V30 3471 C 330.448 4.07688 -1.85727 0
M  V30 3472 C 332.192 4.24485 -0.0359507 0
M  V30 3473 C 330.099 5.5765 -1.96928 0
M  V30 3474 H 329.029 0.747689 -0.0973472 0
M  V30 3475 H 331.68 1.59837 -0.901355 0
M  V30 3476 H 330.062 3.95097 0.267219 0
M  V30 3477 H 331.236 3.81231 -2.58843 0
M  V30 3478 H 329.551 3.53135 -2.20646 0
M  V30 3479 H 332.148 5.34609 -0.0987484 0
M  V30 3480 H 332.491 4.03915 1.00787 0
M  V30 3481 H 333.024 3.9183 -0.686604 0
M  V30 3482 H 329.763 5.8309 -2.99476 0
M  V30 3483 H 329.283 5.8593 -1.28241 0
M  V30 3484 H 330.962 6.22957 -1.74737 0
M  V30 3485 N 331.094 0.475555 1.50254 0
M  V30 3486 C 332.024 -0.30611 2.31485 0
M  V30 3487 C 333.005 -0.986228 1.38591 0
M  V30 3488 O 334.19 -0.982541 1.67511 0
M  V30 3489 C 331.32 -1.38588 3.1845 0
M  V30 3490 C 330.274 -0.827115 4.19932 0
M  V30 3491 C 329.6 -2.00551 4.95665 0
M  V30 3492 C 330.9 0.16463 5.2204 0
M  V30 3493 H 332.594 0.371866 2.97082 0
M  V30 3494 H 330.14 0.180282 1.42867 0
M  V30 3495 H 332.093 -1.94023 3.74076 0
M  V30 3496 H 330.817 -2.09269 2.50747 0
M  V30 3497 H 329.476 -0.294702 3.65414 0
M  V30 3498 H 329.124 -2.6994 4.2443 0
M  V30 3499 H 328.824 -1.63784 5.64313 0
M  V30 3500 H 330.348 -2.56468 5.54127 0
M  V30 3501 H 331.762 -0.300699 5.72511 0
M  V30 3502 H 330.159 0.446813 5.98434 0
M  V30 3503 H 331.229 1.08905 4.72512 0
M  V30 3504 N 332.573 -1.56217 0.208337 0
M  V30 3505 C 333.801 -2.02337 -0.43215 0
M  V30 3506 C 334.216 -1.08834 -1.54275 0
M  V30 3507 O 333.573 -0.0955462 -1.8225 0
M  V30 3508 C 333.624 -3.48072 -0.976138 0
M  V30 3509 O 333.345 -4.38007 0.0901621 0
M  V30 3510 C 334.846 -4.09773 -1.69119 0
M  V30 3511 H 332.066 -0.662385 -0.10718 0
M  V30 3512 H 334.61 -2.01966 0.320923 0
M  V30 3513 H 332.765 -3.49099 -1.67954 0
M  V30 3514 H 333.179 -5.23543 -0.316701 0
M  V30 3515 H 334.653 -5.13556 -2.02397 0
M  V30 3516 H 335.13 -3.53999 -2.59964 0
M  V30 3517 H 335.736 -4.12556 -1.03332 0
M  V30 3518 N 334.051 0.0651679 -1.57465 0
M  V30 3519 C 335.279 0.775808 -1.91804 0
M  V30 3520 C 335.694 1.70782 -0.804916 0
M  V30 3521 O 335.051 1.81153 0.221311 0
M  V30 3522 C 335.102 1.56381 -3.25925 0
M  V30 3523 O 334.823 0.669248 -4.32958 0
M  V30 3524 C 336.324 2.37485 -3.7432 0
M  V30 3525 H 333.544 0.2202 -0.63384 0
M  V30 3526 H 336.088 0.0334587 -2.04473 0
M  V30 3527 H 334.243 2.25837 -3.14764 0
M  V30 3528 H 334.657 1.21801 -5.10162 0
M  V30 3529 H 336.131 2.88223 -4.70778 0
M  V30 3530 H 336.608 3.17307 -3.03666 0
M  V30 3531 H 337.214 1.73173 -3.88447 0
M  V30 3532 N 335.529 1.53961 0.336706 0
M  V30 3533 C 336.945 1.44378 0.680241 0
M  V30 3534 C 337.145 0.606034 1.9217 0
M  V30 3535 O 336.201 0.099688 2.52303 0
M  V30 3536 C 337.514 2.87945 0.8665 0
M  V30 3537 C 339.062 2.97763 0.964682 0
M  V30 3538 C 339.537 4.42453 1.18321 0
M  V30 3539 N 341.028 4.46008 1.25025 0
M  V30 3540 C 341.763 5.55102 1.43697 0
M  V30 3541 N 341.259 6.7419 1.59498 0
M  V30 3542 N 343.052 5.42727 1.463 0
M  V30 3543 H 335.203 2.06918 -0.479455 0
M  V30 3544 H 337.466 0.935634 -0.152619 0
M  V30 3545 H 337.172 3.51691 0.0256937 0
M  V30 3546 H 337.046 3.33293 1.76623 0
M  V30 3547 H 339.433 2.34153 1.796 0
M  V30 3548 H 339.514 2.55766 0.041708 0
M  V30 3549 H 339.158 5.06645 0.356788 0
M  V30 3550 H 339.088 4.82048 2.11985 0
M  V30 3551 H 341.579 3.60196 1.14312 0
M  V30 3552 H 341.892 7.53095 1.734 0
M  V30 3553 H 340.237 6.77123 1.56621 0
M  V30 3554 H 343.428 4.48647 1.33543 0
M  V30 3555 H 343.601 6.27806 1.6051 0
M  V30 3556 N 337.007 -0.598083 1.45811 0
M  V30 3557 C 338.232 -1.3881 1.54099 0
M  V30 3558 C 338.657 -1.8726 0.177578 0
M  V30 3559 O 338.015 -1.6069 -0.839541 0
M  V30 3560 C 338.063 -2.56217 2.53743 0
M  V30 3561 O 337.167 -3.5716 2.06182 0
M  V30 3562 H 336.508 -0.414024 0.519115 0
M  V30 3563 H 339.038 -0.726971 1.91249 0
M  V30 3564 H 339.048 -3.03337 2.72856 0
M  V30 3565 H 337.723 -2.20303 3.5276 0
M  V30 3566 H 336.3 -3.16624 1.96987 0
M  V30 3567 N 338.485 -1.33259 -0.841409 0
M  V30 3568 C 339.715 -1.2742 -1.62628 0
M  V30 3569 C 340.123 0.157604 -1.88542 0
M  V30 3570 O 339.466 1.10938 -1.46419 0
M  V30 3571 C 339.528 -1.97797 -3.00194 0
M  V30 3572 C 339.192 -3.47109 -2.97261 0
M  V30 3573 C 340.189 -4.42358 -2.73159 0
M  V30 3574 C 337.874 -3.89247 -3.17478 0
M  V30 3575 C 339.868 -5.77718 -2.69296 0
M  V30 3576 C 337.555 -5.24713 -3.13241 0
M  V30 3577 C 338.553 -6.1876 -2.89181 0
M  V30 3578 O 338.241 -7.51745 -2.84843 0
M  V30 3579 H 337.973 -0.440436 -0.512827 0
M  V30 3580 H 340.527 -1.76153 -1.05638 0
M  V30 3581 H 338.757 -1.43652 -3.59028 0
M  V30 3582 H 340.446 -1.8549 -3.61038 0
M  V30 3583 H 341.212 -4.11127 -2.57294 0
M  V30 3584 H 337.091 -3.16456 -3.35226 0
M  V30 3585 H 340.635 -6.51097 -2.50436 0
M  V30 3586 H 336.532 -5.55569 -3.28654 0
M  V30 3587 H 337.3 -7.61262 -3.00702 0
M  V30 3588 N 339.963 1.05934 -1.16686 0
M  V30 3589 C 341.374 1.60263 -0.957745 0
M  V30 3590 C 341.725 1.89789 0.49745 0
M  V30 3591 O 340.85 1.67401 1.37135 0
M  V30 3592 C 341.445 2.91172 -1.73218 0
M  V30 3593 C 340.004 3.42188 -1.56794 0
M  V30 3594 C 339.151 2.16028 -1.73859 0
M  V30 3595 H 342.102 0.888392 -1.31504 0
M  V30 3596 H 342.123 3.60744 -1.21014 0
M  V30 3597 H 341.635 2.6965 -2.79124 0
M  V30 3598 H 339.736 3.68762 -0.533437 0
M  V30 3599 H 339.849 4.17273 -2.35414 0
M  V30 3600 H 338.213 2.26426 -1.16633 0
M  V30 3601 H 338.996 1.96985 -2.81161 0
M  V30 3602 N 341.441 0.965919 1.2453 0
M  V30 3603 C 342.373 0.452465 2.2469 0
M  V30 3604 C 343.386 -0.437821 1.56802 0
M  V30 3605 O 344.575 -0.244283 1.76821 0
M  V30 3606 C 341.675 -0.366258 3.36915 0
M  V30 3607 C 340.848 0.513701 4.34373 0
M  V30 3608 C 339.907 -0.248716 5.25612 0
M  V30 3609 O 338.933 0.356745 5.68081 0
M  V30 3610 N 340.135 -1.53877 5.59734 0
M  V30 3611 H 342.9 1.31361 2.69378 0
M  V30 3612 H 340.461 0.837541 1.38553 0
M  V30 3613 H 342.453 -0.884297 3.94921 0
M  V30 3614 H 341.023 -1.12832 2.91526 0
M  V30 3615 H 340.243 1.21273 3.75082 0
M  V30 3616 H 341.531 1.11391 4.96457 0
M  V30 3617 H 340.929 -2.05243 5.27154 0
M  V30 3618 H 339.486 -2.00254 6.20275 0
M  V30 3619 N 342.919 -1.39368 0.735821 0
M  V30 3620 C 343.849 -2.33234 0.111506 0
M  V30 3621 C 344.83 -1.53954 -0.723334 0
M  V30 3622 O 346.015 -1.82344 -0.668147 0
M  V30 3623 C 343.145 -3.38057 -0.795917 0
M  V30 3624 C 342.099 -4.2795 -0.065172 0
M  V30 3625 C 341.425 -5.23479 -1.08967 0
M  V30 3626 C 342.725 -5.10741 1.09273 0
M  V30 3627 H 344.419 -2.85692 0.895571 0
M  V30 3628 H 341.965 -1.37364 0.432109 0
M  V30 3629 H 343.918 -4.02675 -1.24221 0
M  V30 3630 H 342.642 -2.8404 -1.61211 0
M  V30 3631 H 341.301 -3.64813 0.361511 0
M  V30 3632 H 340.949 -4.65758 -1.89944 0
M  V30 3633 H 340.649 -5.84472 -0.605489 0
M  V30 3634 H 342.173 -5.90974 -1.53565 0
M  V30 3635 H 343.587 -5.68699 0.724841 0
M  V30 3636 H 341.984 -5.8088 1.50659 0
M  V30 3637 H 343.054 -4.45525 1.91404 0
M  V30 3638 N 344.397 -0.483516 -1.5 0
M  V30 3639 C 345.813 -0.138404 -1.58999 0
M  V30 3640 C 346.013 1.35597 -1.4905 0
M  V30 3641 O 345.069 2.13039 -1.35539 0
M  V30 3642 C 346.382 -0.699658 -2.92447 0
M  V30 3643 C 347.93 -0.664195 -3.05872 0
M  V30 3644 C 348.405 -1.20321 -4.41913 0
M  V30 3645 N 349.896 -1.16315 -4.48358 0
M  V30 3646 C 350.631 -1.55058 -5.52037 0
M  V30 3647 N 350.127 -2.01311 -6.62907 0
M  V30 3648 N 351.92 -1.46584 -5.42651 0
M  V30 3649 H 344.071 -1.45529 -1.5471 0
M  V30 3650 H 346.334 -0.60258 -0.731848 0
M  V30 3651 H 346.04 -1.747 -3.05242 0
M  V30 3652 H 345.914 -0.150194 -3.76901 0
M  V30 3653 H 348.301 0.374272 -2.92717 0
M  V30 3654 H 348.382 -1.25061 -2.23144 0
M  V30 3655 H 348.026 -2.24037 -4.55818 0
M  V30 3656 H 347.956 -0.592896 -5.23252 0
M  V30 3657 H 350.447 -0.824058 -3.68806 0
M  V30 3658 H 350.76 -2.2899 -7.38095 0
M  V30 3659 H 349.105 -2.05273 -6.63994 0
M  V30 3660 H 352.296 -1.10281 -4.54924 0
M  V30 3661 H 352.469 -1.77103 -6.23329 0
M  V30 3662 N 345.875 1.56104 -0.216619 0
M  V30 3663 C 347.291 1.58995 0.13886 0
M  V30 3664 C 347.491 1.23333 1.59346 0
M  V30 3665 O 346.547 0.966234 2.33281 0
M  V30 3666 C 347.86 3.00143 -0.182968 0
M  V30 3667 C 349.408 3.12751 -0.124807 0
M  V30 3668 C 349.883 4.56068 -0.420241 0
M  V30 3669 N 351.374 4.61723 -0.369634 0
M  V30 3670 C 352.109 5.70542 -0.571789 0
M  V30 3671 N 351.605 6.87744 -0.835453 0
M  V30 3672 N 353.398 5.59831 -0.504563 0
M  V30 3673 H 345.549 1.77562 -1.16557 0
M  V30 3674 H 347.812 0.825091 -0.466828 0
M  V30 3675 H 347.518 3.30871 -1.19237 0
M  V30 3676 H 347.392 3.73813 0.504367 0
M  V30 3677 H 349.779 2.81822 0.875223 0
M  V30 3678 H 349.86 2.41421 -0.845544 0
M  V30 3679 H 349.504 4.87713 -1.41769 0
M  V30 3680 H 349.434 5.25617 0.321631 0
M  V30 3681 H 351.925 3.77502 -0.173338 0
M  V30 3682 H 352.238 7.66587 -0.977938 0
M  V30 3683 H 350.583 6.895 -0.872592 0
M  V30 3684 H 353.774 4.67145 -0.298842 0
M  V30 3685 H 353.947 6.44573 -0.665519 0
M  V30 3686 N 347.353 -0.0568162 1.57498 0
M  V30 3687 C 348.599 -0.75422 1.88253 0
M  V30 3688 C 348.932 -1.76461 0.810865 0
M  V30 3689 O 348.207 -1.93691 -0.177259 0
M  V30 3690 C 348.49 -1.44878 3.2967 0
M  V30 3691 C 348.343 -0.453789 4.47505 0
M  V30 3692 C 349.662 -2.38994 3.69554 0
M  V30 3693 H 346.781 -0.272724 0.684683 0
M  V30 3694 H 349.423 -0.0172113 1.89992 0
M  V30 3695 H 347.573 -2.077 3.28318 0
M  V30 3696 H 349.245 0.170371 4.60985 0
M  V30 3697 H 347.488 0.229552 4.33192 0
M  V30 3698 H 348.159 -0.977699 5.43273 0
M  V30 3699 H 350.635 -1.86239 3.72095 0
M  V30 3700 H 349.511 -2.84587 4.69363 0
M  V30 3701 H 349.772 -3.24461 3.00296 0
M  V30 3702 N 348.832 -1.54138 -0.328536 0
M  V30 3703 C 350.079 -1.72105 -1.06706 0
M  V30 3704 C 350.407 -0.492111 -1.88171 0
M  V30 3705 O 349.662 0.526153 -1.88494 0
M  V30 3706 C 349.961 -2.9457 -2.02393 0
M  V30 3707 C 349.627 -4.29544 -1.37122 0
M  V30 3708 C 348.289 -4.6624 -1.19052 0
M  V30 3709 C 350.641 -5.1333 -0.902331 0
M  V30 3710 C 347.969 -5.84325 -0.527331 0
M  V30 3711 C 350.321 -6.32094 -0.252988 0
M  V30 3712 C 348.985 -6.67473 -0.0600901 0
M  V30 3713 H 348.255 -0.629775 -0.390466 0
M  V30 3714 H 350.902 -1.88372 -0.34473 0
M  V30 3715 H 349.207 -2.72969 -2.81061 0
M  V30 3716 H 350.904 -3.05665 -2.59557 0
M  V30 3717 H 347.494 -4.0067 -1.52188 0
M  V30 3718 H 351.678 -4.855 -1.02974 0
M  V30 3719 H 346.934 -6.103 -0.366634 0
M  V30 3720 H 351.108 -6.96299 0.118366 0
M  V30 3721 H 348.735 -7.58832 0.455828 0
M  V30 3722 N 350.31 0.590341 -1.46126 0
M  V30 3723 C 351.242 1.71427 -1.52136 0
M  V30 3724 C 352.255 1.57542 -0.41042 0
M  V30 3725 O 353.444 1.65106 -0.678389 0
M  V30 3726 C 350.544 3.09605 -1.37834 0
M  V30 3727 C 349.717 3.49566 -2.62912 0
M  V30 3728 C 348.776 4.66773 -2.42918 0
M  V30 3729 O 347.802 4.73019 -3.1661 0
M  V30 3730 N 349.004 5.61161 -1.4859 0
M  V30 3731 H 351.769 1.66728 -2.49042 0
M  V30 3732 H 349.33 0.776113 -1.42085 0
M  V30 3733 H 351.322 3.85796 -1.22243 0
M  V30 3734 H 349.892 3.08714 -0.491393 0
M  V30 3735 H 349.112 2.63158 -2.93499 0
M  V30 3736 H 350.4 3.73028 -3.46017 0
M  V30 3737 H 349.798 5.58844 -0.87808 0
M  V30 3738 H 348.355 6.36814 -1.38965 0
M  V30 3739 N 351.788 1.33704 0.83433 0
M  V30 3740 C 352.735 1.24335 1.94447 0
M  V30 3741 C 353.705 0.120991 1.65659 0
M  V30 3742 O 354.89 0.300035 1.88426 0
M  V30 3743 C 352.03 0.993124 3.30501 0
M  V30 3744 C 351.143 2.20217 3.71657 0
M  V30 3745 C 350.278 1.88572 4.96602 0
M  V30 3746 C 349.317 3.05683 5.30306 0
M  V30 3747 N 348.454 2.73997 6.46429 0
M  V30 3748 H 353.294 2.1928 2.01792 0
M  V30 3749 H 350.831 1.09035 0.987404 0
M  V30 3750 H 352.789 0.828467 4.08892 0
M  V30 3751 H 351.419 0.0803902 3.227 0
M  V30 3752 H 350.471 2.47642 2.88752 0
M  V30 3753 H 351.783 3.07752 3.92543 0
M  V30 3754 H 350.937 1.68776 5.82752 0
M  V30 3755 H 349.676 0.982799 4.77695 0
M  V30 3756 H 348.681 3.26088 4.42659 0
M  V30 3757 H 349.906 3.96737 5.51159 0
M  V30 3758 H 347.852 1.86268 6.28999 0
M  V30 3759 H 347.769 3.55064 6.67432 0
M  V30 3760 H 349.037 2.57679 7.35678 0
M  V30 3761 N 353.266 -1.05314 1.17247 0
M  V30 3762 C 354.496 -1.81707 0.983166 0
M  V30 3763 C 354.904 -1.83222 -0.471822 0
M  V30 3764 O 354.247 -1.25721 -1.3394 0
M  V30 3765 C 354.309 -3.29134 1.44606 0
M  V30 3766 C 353.973 -3.51304 2.92292 0
M  V30 3767 C 354.97 -3.4353 3.90235 0
M  V30 3768 C 352.655 -3.78306 3.30439 0
M  V30 3769 C 354.649 -3.62442 5.24323 0
M  V30 3770 C 352.336 -3.96866 4.64694 0
M  V30 3771 C 353.334 -3.88933 5.61445 0
M  V30 3772 O 353.022 -4.06976 6.93272 0
M  V30 3773 H 352.754 -0.579476 0.348114 0
M  V30 3774 H 355.308 -1.33705 1.55924 0
M  V30 3775 H 353.538 -3.78046 0.813537 0
M  V30 3776 H 355.227 -3.87049 1.22262 0
M  V30 3777 H 355.993 -3.22648 3.62109 0
M  V30 3778 H 351.872 -3.83585 2.55702 0
M  V30 3779 H 355.416 -3.56165 5.99827 0
M  V30 3780 H 351.313 -4.1724 4.92525 0
M  V30 3781 H 352.081 -4.24209 6.99992 0
M  V30 3782 N 354.744 -0.972509 -1.24016 0
M  V30 3783 C 355.972 -0.654803 -1.96265 0
M  V30 3784 C 356.387 0.776708 -1.72083 0
M  V30 3785 O 355.744 1.52171 -1.00748 0
M  V30 3786 C 355.795 -0.92592 -3.49441 0
M  V30 3787 O 355.516 -2.30116 -3.72798 0
M  V30 3788 C 357.017 -0.623068 -4.38899 0
M  V30 3789 H 354.237 -0.243907 -0.6251 0
M  V30 3790 H 356.781 -1.30175 -1.57717 0
M  V30 3791 H 354.936 -0.325108 -3.86033 0
M  V30 3792 H 355.35 -2.38483 -4.67147 0
M  V30 3793 H 356.824 -0.863189 -5.45209 0
M  V30 3794 H 357.301 0.442754 -4.36963 0
M  V30 3795 H 357.907 -1.204 -4.07902 0
M  V30 3796 N 356.222 1.38976 -0.743202 0
M  V30 3797 C 357.169 2.30544 -0.10861 0
M  V30 3798 C 358.139 1.49642 0.720869 0
M  V30 3799 O 359.324 1.78304 0.679142 0
M  V30 3800 C 356.464 3.36018 0.786496 0
M  V30 3801 C 355.577 4.31963 -0.0564849 0
M  V30 3802 C 354.712 5.24506 0.840657 0
M  V30 3803 C 353.751 6.121 -0.00658363 0
M  V30 3804 N 352.888 6.96973 0.846943 0
M  V30 3805 H 357.728 2.8424 -0.895088 0
M  V30 3806 H 355.265 1.3995 -0.453048 0
M  V30 3807 H 357.223 3.95768 1.31999 0
M  V30 3808 H 355.853 2.83758 1.53887 0
M  V30 3809 H 354.905 3.73763 -0.707492 0
M  V30 3810 H 356.217 4.93703 -0.711229 0
M  V30 3811 H 355.371 5.89322 1.4417 0
M  V30 3812 H 354.11 4.63107 1.52916 0
M  V30 3813 H 353.115 5.46289 -0.620366 0
M  V30 3814 H 354.34 6.75565 -0.691992 0
M  V30 3815 H 352.286 6.38133 1.52059 0
M  V30 3816 H 352.203 7.5559 0.248864 0
M  V30 3817 H 353.471 7.6621 1.43328 0
M  V30 3818 N 357.7 0.491464 1.49741 0
M  V30 3819 C 358.93 -0.0534375 2.06531 0
M  V30 3820 C 359.338 -1.32233 1.35318 0
M  V30 3821 O 358.681 -1.78781 0.422243 0
M  V30 3822 C 358.743 -0.387034 3.57411 0
M  V30 3823 C 358.407 0.782764 4.50246 0
M  V30 3824 C 359.404 1.67059 4.92329 0
M  V30 3825 C 357.089 0.978866 4.9267 0
M  V30 3826 C 359.083 2.73874 5.75562 0
M  V30 3827 C 356.77 2.05022 5.75682 0
M  V30 3828 C 357.768 2.92851 6.17031 0
M  V30 3829 O 357.456 3.98138 6.98385 0
M  V30 3830 H 357.188 0.0129324 0.675876 0
M  V30 3831 H 359.742 0.685238 1.93633 0
M  V30 3832 H 357.972 -1.17918 3.68283 0
M  V30 3833 H 359.661 -0.869419 3.96479 0
M  V30 3834 H 360.427 1.53086 4.60206 0
M  V30 3835 H 356.306 0.304646 4.59992 0
M  V30 3836 H 359.85 3.42458 6.07757 0
M  V30 3837 H 355.747 2.18993 6.07217 0
M  V30 3838 H 356.515 3.95374 7.16674 0
M  V30 3839 N 359.178 -1.55987 0.224894 0
M  V30 3840 C 360.403 -2.03232 -0.41369 0
M  V30 3841 C 360.828 -1.10359 -1.52323 0
M  V30 3842 O 360.186 -0.092395 -1.81064 0
M  V30 3843 C 360.234 -3.48682 -0.919405 0
M  V30 3844 O 359.338 -3.58947 -2.03054 0
M  V30 3845 H 358.679 -0.657428 -0.0931903 0
M  V30 3846 H 361.209 -2.01679 0.34451 0
M  V30 3847 H 361.219 -3.8907 -1.22835 0
M  V30 3848 H 359.894 -4.15761 -0.107339 0
M  V30 3849 H 358.471 -3.30448 -1.72796 0
M  V30 3850 N 360.656 0.0484629 -1.57525 0
M  V30 3851 C 361.603 1.05504 -2.05275 0
M  V30 3852 C 362.573 1.37084 -0.937927 0
M  V30 3853 O 363.758 1.47754 -1.2072 0
M  V30 3854 C 360.898 2.35676 -2.52093 0
M  V30 3855 C 360.011 2.10423 -3.77288 0
M  V30 3856 C 359.146 3.34327 -4.12794 0
M  V30 3857 C 358.185 3.04542 -5.30962 0
M  V30 3858 N 357.322 4.20841 -5.61994 0
M  V30 3859 H 362.162 0.640885 -2.91027 0
M  V30 3860 H 359.699 0.304854 -1.43906 0
M  V30 3861 H 361.657 3.11709 -2.77297 0
M  V30 3862 H 360.287 2.7485 -1.69285 0
M  V30 3863 H 359.339 1.24976 -3.59284 0
M  V30 3864 H 360.651 1.84438 -4.63448 0
M  V30 3865 H 359.805 4.1874 -4.39024 0
M  V30 3866 H 358.544 3.63408 -3.25247 0
M  V30 3867 H 357.549 2.18528 -5.04505 0
M  V30 3868 H 358.774 2.76758 -6.20146 0
M  V30 3869 H 356.72 4.4991 -4.77406 0
M  V30 3870 H 356.637 3.98212 -6.42622 0
M  V30 3871 H 357.905 5.06184 -5.92789 0
M  V30 3872 N 362.134 1.5431 0.320358 0
M  V30 3873 C 363.084 1.803 1.39556 0
M  V30 3874 C 364.068 0.659166 1.46778 0
M  V30 3875 O 365.26 0.91926 1.51257 0
M  V30 3876 C 362.389 2.03665 2.76361 0
M  V30 3877 C 361.475 3.24178 2.73439 0
M  V30 3878 N 361.866 4.4516 2.40137 0
M  V30 3879 C 360.164 3.25816 3.04565 0
M  V30 3880 C 360.865 5.27109 2.4603 0
M  V30 3881 N 359.841 4.64368 2.82601 0
M  V30 3882 H 363.643 2.71416 1.12742 0
M  V30 3883 H 361.157 1.53548 0.528856 0
M  V30 3884 H 363.154 2.20425 3.53862 0
M  V30 3885 H 361.814 1.13805 3.04103 0
M  V30 3886 H 362.825 4.72104 2.12927 0
M  V30 3887 H 359.502 2.46001 3.37328 0
M  V30 3888 H 360.892 6.33728 2.23246 0
M  V30 3889 N 363.613 -0.582584 1.46437 0
M  V30 3890 C 364.89 -1.34276 1.4223 0
M  V30 3891 C 365.27 -2.10835 0.10583 0
M  V30 3892 O 364.618 -2.09485 -0.912596 0
M  V30 3893 C 364.828 -2.26865 2.65204 0
M  V30 3894 C 366.176 -2.88691 3.11356 0
M  V30 3895 O 367.2 -2.37178 2.65753 0
M  V30 3896 O 366.059 -3.82255 3.90568 0
M  V30 3897 H 363.153 -0.603326 0.565621 0
M  V30 3898 H 365.699 -0.603591 1.58603 0
M  V30 3899 H 364.471 -1.69724 3.52576 0
M  V30 3900 H 364.094 -3.08122 2.5129 0
M  V30 3901 N 365.091 -1.34144 -0.827227 0
M  V30 3902 C 366.024 -1.19707 -1.94282 0
M  V30 3903 C 367.002 -0.0897256 -1.62352 0
M  V30 3904 O 368.186 -0.254095 -1.8678 0
M  V30 3905 C 365.313 -0.838646 -3.28153 0
M  V30 3906 C 364.359 -1.95514 -3.79047 0
M  V30 3907 S 365.192 -3.56793 -3.99323 0
M  V30 3908 C 366.348 -3.22983 -5.36127 0
M  V30 3909 H 366.581 -2.1414 -2.06231 0
M  V30 3910 H 364.114 -1.19121 -0.982321 0
M  V30 3911 H 366.072 -0.638637 -4.05502 0
M  V30 3912 H 364.733 0.0872776 -3.13979 0
M  V30 3913 H 363.926 -1.658 -4.75948 0
M  V30 3914 H 363.528 -2.11241 -3.08631 0
M  V30 3915 H 365.82 -2.74531 -6.19386 0
M  V30 3916 H 366.763 -4.19008 -5.70822 0
M  V30 3917 H 367.171 -2.59276 -5.01434 0
M  V30 3918 N 366.569 1.04691 -1.17803 0
M  V30 3919 C 367.517 2.14665 -0.895635 0
M  V30 3920 C 368.511 1.68806 0.141679 0
M  V30 3921 O 369.717 1.79999 -0.00587914 0
M  V30 3922 H 366.092 0.701038 -0.272121 0
M  V30 3923 H 368.063 2.35685 -1.83017 0
M  V30 3924 C 366.812 3.45019 -0.430962 0
M  V30 3925 H 366.135 3.8071 -1.22064 0
M  V30 3926 H 367.575 4.23125 -0.272301 0
M  V30 3927 C 366.034 3.25943 0.852207 0
M  V30 3928 O 366.564 3.5296 1.91786 0
M  V30 3929 N 364.77 2.79304 0.802346 0
M  V30 3930 H 364.317 2.57518 -0.0650788 0
M  V30 3931 H 364.275 2.66921 1.66134 0
M  V30 3932 N 368.047 0.979072 1.23499 0
M  V30 3933 C 368.994 0.517904 2.24914 0
M  V30 3934 C 369.964 -0.442525 1.60097 0
M  V30 3935 O 371.149 -0.350365 1.87556 0
M  V30 3936 C 368.289 -0.174813 3.44657 0
M  V30 3937 C 367.402 0.825721 4.24035 0
M  V30 3938 C 366.537 0.107946 5.3109 0
M  V30 3939 C 365.576 1.09778 6.02175 0
M  V30 3940 N 364.713 0.40925 7.00906 0
M  V30 3941 H 369.553 1.38751 2.63727 0
M  V30 3942 H 367.09 0.695303 1.2963 0
M  V30 3943 H 369.048 -0.593233 4.12961 0
M  V30 3944 H 367.678 -1.0083 3.06648 0
M  V30 3945 H 366.73 1.36253 3.55161 0
M  V30 3946 H 368.042 1.58005 4.73113 0
M  V30 3947 H 367.196 -0.367904 6.05583 0
M  V30 3948 H 365.935 -0.678994 4.8295 0
M  V30 3949 H 364.94 1.5844 5.26476 0
M  V30 3950 H 366.165 1.88536 6.52404 0
M  V30 3951 H 364.111 -0.358506 6.5502 0
M  V30 3952 H 364.028 1.10226 7.47921 0
M  V30 3953 H 365.296 -0.0442557 7.79487 0
M  V30 3954 N 369.525 -1.3858 0.750561 0
M  V30 3955 C 370.771 -2.00481 0.305825 0
M  V30 3956 C 371.104 -1.5944 -1.10872 0
M  V30 3957 O 370.379 -0.83052 -1.75877 0
M  V30 3958 C 370.662 -3.5758 0.425287 0
M  V30 3959 C 370.515 -4.08594 1.88072 0
M  V30 3960 C 371.834 -4.39719 -0.183122 0
M  V30 3961 H 368.953 -0.728348 0.112598 0
M  V30 3962 H 371.595 -1.64566 0.949638 0
M  V30 3963 H 369.745 -3.88306 -0.122828 0
M  V30 3964 H 371.417 -3.88523 2.48691 0
M  V30 3965 H 369.66 -3.61574 2.39681 0
M  V30 3966 H 370.331 -5.177 1.91548 0
M  V30 3967 H 372.807 -4.15128 0.284303 0
M  V30 3968 H 371.683 -5.48856 -0.0692757 0
M  V30 3969 H 371.944 -4.23434 -1.27106 0
M  V30 3970 N 371.003 -0.499398 -1.49478 0
M  V30 3971 C 371.933 0.269244 -2.31943 0
M  V30 3972 C 372.914 0.964054 -1.40143 0
M  V30 3973 O 374.099 0.955767 -1.69052 0
M  V30 3974 C 371.229 1.33504 -3.20615 0
M  V30 3975 C 370.183 0.760202 -4.21195 0
M  V30 3976 C 369.509 1.9264 -4.98792 0
M  V30 3977 C 370.809 -0.247661 -5.21712 0
M  V30 3978 H 372.503 -0.419082 -2.96452 0
M  V30 3979 H 370.049 -0.202988 -1.42562 0
M  V30 3980 H 372.002 1.88048 -3.77115 0
M  V30 3981 H 370.726 2.05253 -2.54045 0
M  V30 3982 H 369.385 0.23653 -3.65836 0
M  V30 3983 H 369.033 2.63154 -4.28671 0
M  V30 3984 H 368.733 1.54785 -5.66847 0
M  V30 3985 H 370.257 2.4762 -5.58137 0
M  V30 3986 H 371.671 0.209579 -5.72917 0
M  V30 3987 H 370.068 -0.541962 -5.97648 0
M  V30 3988 H 371.138 -1.16409 -4.7072 0
M  V30 3989 N 372.481 1.55866 -0.233164 0
M  V30 3990 C 373.758 1.90471 0.444988 0
M  V30 3991 C 374.138 1.15209 1.7689 0
M  V30 3992 O 373.486 0.265119 2.26957 0
M  V30 3993 C 373.696 3.4333 0.626559 0
M  V30 3994 C 375.044 4.14319 0.92871 0
M  V30 3995 O 376.068 3.48993 0.712926 0
M  V30 3996 O 374.927 5.29846 1.33887 0
M  V30 3997 H 372.021 0.792347 0.236885 0
M  V30 3998 H 374.567 1.67437 -0.276211 0
M  V30 3999 H 373.339 3.90095 -0.306822 0
M  V30 4000 H 372.962 3.72181 1.39881 0
M  V30 4001 N 373.959 -0.0401083 1.57549 0
M  V30 4002 C 374.889 -1.04384 2.08869 0
M  V30 4003 C 375.87 -1.38407 0.988817 0
M  V30 4004 O 377.055 -1.47483 1.26342 0
M  V30 4005 C 374.185 -2.34808 2.55895 0
M  V30 4006 C 373.139 -2.15057 3.70047 0
M  V30 4007 C 372.465 -3.51145 4.03239 0
M  V30 4008 C 373.765 -1.54576 4.98902 0
M  V30 4009 H 375.459 -0.616666 2.92981 0
M  V30 4010 H 373.005 -0.295184 1.40942 0
M  V30 4011 H 374.958 -3.05346 2.90417 0
M  V30 4012 H 373.682 -2.79565 1.68853 0
M  V30 4013 H 372.341 -1.46954 3.35857 0
M  V30 4014 H 371.989 -3.93529 3.13279 0
M  V30 4015 H 371.689 -3.38758 4.80122 0
M  V30 4016 H 373.213 -4.23062 4.40285 0
M  V30 4017 H 374.627 -2.15017 5.31451 0
M  V30 4018 H 373.024 -1.52796 5.80322 0
M  V30 4019 H 374.094 -0.51039 4.82206 0
M  V30 4020 N 375.437 -1.54477 -0.31217 0
M  V30 4021 C 376.347 -1.87695 -1.4074 0
M  V30 4022 C 377.363 -0.769975 -1.56036 0
M  V30 4023 O 378.539 -1.06537 -1.70915 0
M  V30 4024 C 375.604 -2.10755 -2.75287 0
M  V30 4025 C 374.665 -3.34514 -2.69071 0
M  V30 4026 C 373.898 -3.56465 -3.97201 0
M  V30 4027 O 374.121 -2.81637 -4.96021 0
M  V30 4028 O 373.055 -4.49964 -3.9977 0
M  V30 4029 H 376.881 -2.80849 -1.15574 0
M  V30 4030 H 374.466 -1.40526 -0.507228 0
M  V30 4031 H 376.348 -2.27188 -3.54913 0
M  V30 4032 H 375.023 -1.20788 -3.0032 0
M  V30 4033 H 373.93 -3.23456 -1.87955 0
M  V30 4034 H 375.263 -4.24575 -2.48992 0
M  V30 4035 N 376.915 0.57481 -1.46744 0
M  V30 4036 C 377.845 1.69337 -1.60771 0
M  V30 4037 C 378.826 1.63825 -0.457736 0
M  V30 4038 O 380.011 1.8172 -0.684947 0
M  V30 4039 C 377.141 3.0798 -1.60517 0
M  V30 4040 C 376.095 3.28327 -2.74564 0
M  V30 4041 C 375.421 4.67578 -2.59373 0
M  V30 4042 C 376.721 3.15398 -4.16319 0
M  V30 4043 H 378.415 1.57853 -2.54407 0
M  V30 4044 H 375.961 0.75799 -1.22436 0
M  V30 4045 H 377.914 3.86061 -1.68923 0
M  V30 4046 H 376.638 3.20381 -0.634305 0
M  V30 4047 H 375.297 2.52649 -2.65639 0
M  V30 4048 H 374.945 4.76755 -1.60353 0
M  V30 4049 H 374.645 4.82144 -3.35873 0
M  V30 4050 H 376.169 5.47817 -2.69682 0
M  V30 4051 H 377.583 3.83315 -4.26313 0
M  V30 4052 H 375.98 3.41482 -4.93468 0
M  V30 4053 H 377.05 2.12372 -4.3592 0
M  V30 4054 N 378.394 1.34581 0.820102 0
M  V30 4055 C 379.341 1.2639 1.93117 0
M  V30 4056 C 380.311 0.138554 1.65521 0
M  V30 4057 O 381.496 0.320004 1.88097 0
M  V30 4058 C 378.636 1.02812 3.29429 0
M  V30 4059 C 377.749 2.24146 3.693 0
M  V30 4060 C 376.884 1.93829 4.94574 0
M  V30 4061 C 375.923 3.1129 5.27034 0
M  V30 4062 N 375.06 2.80838 6.43486 0
M  V30 4063 H 379.9 2.21408 1.99455 0
M  V30 4064 H 377.437 1.10077 0.975784 0
M  V30 4065 H 379.395 0.871788 4.0799 0
M  V30 4066 H 378.025 0.114612 3.22596 0
M  V30 4067 H 377.077 2.50691 2.86109 0
M  V30 4068 H 378.389 3.11899 3.89257 0
M  V30 4069 H 377.543 1.74948 5.80929 0
M  V30 4070 H 376.282 1.03341 4.76626 0
M  V30 4071 H 375.287 3.30764 4.39175 0
M  V30 4072 H 376.512 4.02561 5.4692 0
M  V30 4073 H 374.458 1.92929 6.26988 0
M  V30 4074 H 374.375 3.62123 6.63629 0
M  V30 4075 H 375.643 2.65467 7.32903 0
M  V30 4076 N 379.872 -1.04064 1.18357 0
M  V30 4077 C 381.12 -1.76915 0.977013 0
M  V30 4078 C 381.441 -1.88624 -0.494577 0
M  V30 4079 O 380.711 -1.41125 -1.3587 0
M  V30 4080 H 379.291 -0.65535 0.358504 0
M  V30 4081 H 381.953 -1.25592 1.49039 0
M  V30 4082 H 381.049 -2.78178 1.41504 0
M  V30 4083 N 381.35 -0.985608 -1.22978 0
M  V30 4084 C 382.627 -0.573599 -1.87001 0
M  V30 4085 C 383.007 0.949213 -1.88555 0
M  V30 4086 O 382.355 1.82811 -1.37086 0
M  V30 4087 C 382.565 -1.18564 -3.28243 0
M  V30 4088 C 383.913 -1.28163 -4.04796 0
M  V30 4089 O 384.937 -1.13949 -3.37482 0
M  V30 4090 O 383.796 -1.50832 -5.25273 0
M  V30 4091 H 380.89 -0.193868 -0.803955 0
M  V30 4092 H 383.436 -1.08102 -1.30813 0
M  V30 4093 H 382.208 -2.22758 -3.21706 0
M  V30 4094 H 381.831 -0.663363 -3.92027 0
M  V30 4095 N 382.828 1.3818 -0.7579 0
M  V30 4096 C 384.077 1.99261 -0.312744 0
M  V30 4097 C 384.39 1.60846 1.11301 0
M  V30 4098 O 385.596 2.14929 1.65885 0
M  V30 4099 C 384.052 3.56294 -0.50821 0
M  V30 4100 C 383.66 4.03657 -1.94333 0
M  V30 4101 C 385.404 4.24313 -0.125982 0
M  V30 4102 C 383.311 5.53347 -2.08712 0
M  V30 4103 H 382.241 0.745456 -0.113185 0
M  V30 4104 H 384.892 1.57889 -0.935056 0
M  V30 4105 H 383.274 3.95575 0.183353 0
M  V30 4106 H 384.448 3.75655 -2.66871 0
M  V30 4107 H 382.763 3.48376 -2.28086 0
M  V30 4108 H 385.36 5.34279 -0.212125 0
M  V30 4109 H 385.703 4.05962 0.921964 0
M  V30 4110 H 386.236 3.90285 -0.769563 0
M  V30 4111 H 382.975 5.76607 -3.11777 0
M  V30 4112 H 382.495 5.83078 -1.4064 0
M  V30 4113 H 384.174 6.19111 -1.87912 0
M  V30 4114 N 384.306 0.507319 1.49211 0
M  V30 4115 C 385.216 -0.272136 2.33016 0
M  V30 4116 C 386.232 -0.961206 1.45041 0
M  V30 4117 O 387.408 -0.941191 1.78055 0
M  V30 4118 C 384.473 -1.31895 3.20631 0
M  V30 4119 C 383.534 -0.642648 4.24463 0
M  V30 4120 C 382.767 -1.63959 5.07891 0
M  V30 4121 O 382.99 -2.87007 4.92933 0
M  V30 4122 O 381.924 -1.19143 5.8999 0
M  V30 4123 H 385.75 0.413982 3.00865 0
M  V30 4124 H 383.335 0.268556 1.46966 0
M  V30 4125 H 385.217 -1.92446 3.7489 0
M  V30 4126 H 383.892 -1.98788 2.5547 0
M  V30 4127 H 382.799 0.00276252 3.741 0
M  V30 4128 H 384.132 -0.0160534 4.92197 0
M  V30 4129 N 385.784 -1.5574 0.241426 0
M  V30 4130 C 386.731 -2.21149 -0.660432 0
M  V30 4131 C 387.701 -1.17356 -1.17545 0
M  V30 4132 O 388.886 -1.45784 -1.23093 0
M  V30 4133 C 386.026 -2.91059 -1.85414 0
M  V30 4134 C 385.139 -4.09495 -1.37616 0
M  V30 4135 C 384.274 -4.67135 -2.529 0
M  V30 4136 C 383.313 -5.77831 -2.01936 0
M  V30 4137 N 382.45 -6.29677 -3.10566 0
M  V30 4138 H 387.29 -2.97845 -0.095955 0
M  V30 4139 H 384.827 -1.47057 -0.0356024 0
M  V30 4140 H 386.785 -3.29788 -2.5553 0
M  V30 4141 H 385.415 -2.16846 -2.39118 0
M  V30 4142 H 384.467 -3.76117 -0.569235 0
M  V30 4143 H 385.779 -4.89423 -0.962618 0
M  V30 4144 H 384.933 -5.08409 -3.31067 0
M  V30 4145 H 383.672 -3.86411 -2.97553 0
M  V30 4146 H 382.677 -5.36039 -1.22238 0
M  V30 4147 H 383.902 -6.60402 -1.58259 0
M  V30 4148 H 381.848 -5.5186 -3.54664 0
M  V30 4149 H 381.765 -7.04783 -2.73526 0
M  V30 4150 H 383.033 -6.75609 -3.88809 0
M  V30 4151 N 387.262 0.0317525 -1.57568 0
M  V30 4152 C 388.502 0.727979 -1.90997 0
M  V30 4153 C 388.866 1.72664 -0.839708 0
M  V30 4154 O 390.067 2.47092 -1.05825 0
M  V30 4155 C 388.338 1.38239 -3.29583 0
M  V30 4156 S 389.897 2.10814 -3.84841 0
M  V30 4157 H 386.715 0.241226 -0.668828 0
M  V30 4158 H 389.317 -0.0173037 -1.95492 0
M  V30 4159 H 388.021 0.642288 -4.05343 0
M  V30 4160 H 387.552 2.16628 -3.28384 0
M  V30 4161 H 389.567 3.3792 -3.63352 0
M  V30 4162 N 388.74 1.54641 0.303973 0
M  V30 4163 C 389.67 1.88386 1.3796 0
M  V30 4164 C 390.651 0.742485 1.5304 0
M  V30 4165 O 391.836 0.997959 1.66597 0
M  V30 4166 C 388.966 2.12854 2.74427 0
M  V30 4167 C 387.92 3.28702 2.74115 0
M  V30 4168 C 387.246 3.38582 4.13844 0
M  V30 4169 C 388.546 4.65881 2.3612 0
M  V30 4170 H 390.24 2.78474 1.09966 0
M  V30 4171 H 387.786 1.33988 0.527556 0
M  V30 4172 H 389.739 2.35047 3.49758 0
M  V30 4173 H 388.463 1.19535 3.03939 0
M  V30 4174 H 387.122 3.06428 2.0124 0
M  V30 4175 H 386.77 2.42784 4.40528 0
M  V30 4176 H 386.47 4.16453 4.14537 0
M  V30 4177 H 387.994 3.63031 4.90959 0
M  V30 4178 H 389.408 4.87823 3.01167 0
M  V30 4179 H 387.805 5.46444 2.48031 0
M  V30 4180 H 388.875 4.66799 1.3125 0
M  V30 4181 N 390.218 -0.567019 1.47046 0
M  V30 4182 C 391.446 -1.35027 1.56765 0
M  V30 4183 C 391.861 -1.8758 0.214316 0
M  V30 4184 O 391.218 -1.64471 -0.790919 0
M  V30 4185 C 391.269 -2.52698 2.58507 0
M  V30 4186 O 390.99 -2.0232 3.88585 0
M  V30 4187 C 392.491 -3.45043 2.78316 0
M  V30 4188 H 389.711 -0.41195 0.529658 0
M  V30 4189 H 392.255 -0.687832 1.92585 0
M  V30 4190 H 390.41 -3.149 2.25648 0
M  V30 4191 H 390.824 -2.79068 4.44096 0
M  V30 4192 H 392.298 -4.2405 3.53391 0
M  V30 4193 H 392.775 -3.97971 1.85784 0
M  V30 4194 H 393.381 -2.88665 3.12334 0
M  V30 4195 N 391.696 -1.35014 -0.812953 0
M  V30 4196 C 392.659 -1.27292 -1.90602 0
M  V30 4197 C 393.659 -0.185817 -1.59723 0
M  V30 4198 O 394.849 -0.439102 -1.68575 0
M  V30 4199 C 391.981 -0.967676 -3.26877 0
M  V30 4200 H 393.174 -2.24479 -1.9887 0
M  V30 4201 H 390.727 -1.19446 -1.00808 0
M  V30 4202 H 391.462 0.0005954 -3.243 0
M  V30 4203 H 391.247 -1.75412 -3.50675 0
M  V30 4204 H 392.737 -0.939085 -4.06904 0
M  V30 4205 N 393.175 1.03435 -1.18907 0
M  V30 4206 C 394.424 1.76143 -0.982669 0
M  V30 4207 C 394.737 1.89416 0.487953 0
M  V30 4208 O 395.943 2.59041 0.813036 0
M  V30 4209 C 394.399 3.16722 -1.70924 0
M  V30 4210 C 394.007 3.11522 -3.21959 0
M  V30 4211 C 395.751 3.93764 -1.58588 0
M  V30 4212 C 393.658 4.46999 -3.87228 0
M  V30 4213 H 392.588 0.660292 -0.364047 0
M  V30 4214 H 395.239 1.158 -1.42347 0
M  V30 4215 H 393.621 3.775 -1.19623 0
M  V30 4216 H 394.795 2.60158 -3.80335 0
M  V30 4217 H 393.11 2.47978 -3.34508 0
M  V30 4218 H 395.707 4.93963 -2.04707 0
M  V30 4219 H 396.05 4.12794 -0.539142 0
M  V30 4220 H 396.583 3.39576 -2.07203 0
M  V30 4221 H 393.322 4.33174 -4.91976 0
M  V30 4222 H 392.842 4.98441 -3.33642 0
M  V30 4223 H 394.521 5.15898 -3.90459 0
M  V30 4224 N 394.653 0.992116 1.22453 0
M  V30 4225 C 395.899 0.668523 1.91464 0
M  V30 4226 C 396.232 -0.797313 1.77078 0
M  V30 4227 O 395.507 -1.5765 1.13916 0
M  V30 4228 C 395.79 1.07424 3.43703 0
M  V30 4229 C 395.643 2.59857 3.67143 0
M  V30 4230 C 396.962 0.626891 4.35612 0
M  V30 4231 H 394.081 0.244341 0.695318 0
M  V30 4232 H 396.723 1.2355 1.44345 0
M  V30 4233 H 394.873 0.591816 3.83966 0
M  V30 4234 H 396.545 3.15764 3.3629 0
M  V30 4235 H 394.788 3.01961 3.11451 0
M  V30 4236 H 395.459 2.83296 4.73759 0
M  V30 4237 H 397.935 1.04125 4.02861 0
M  V30 4238 H 396.811 0.939076 5.40807 0
M  V30 4239 H 397.072 -0.472457 4.39568 0
M  V30 4240 N 396.131 -1.37776 0.765217 0
M  V30 4241 C 397.078 -2.30342 0.145274 0
M  V30 4242 C 398.048 -1.5077 -0.696971 0
M  V30 4243 O 399.233 -1.79362 -0.650689 0
M  V30 4244 C 396.373 -3.37227 -0.732939 0
M  V30 4245 C 395.486 -4.31819 0.125199 0
M  V30 4246 C 394.621 -5.25777 -0.757107 0
M  V30 4247 C 393.66 -6.12012 0.103963 0
M  V30 4248 N 392.797 -6.98232 -0.735953 0
M  V30 4249 H 397.637 -2.8278 0.940195 0
M  V30 4250 H 395.174 -1.39211 0.475255 0
M  V30 4251 H 397.132 -3.97818 -1.25686 0
M  V30 4252 H 395.762 -2.86171 -1.49353 0
M  V30 4253 H 394.814 -3.7259 0.766865 0
M  V30 4254 H 396.126 -4.92509 0.789683 0
M  V30 4255 H 395.28 -5.91541 -1.34776 0
M  V30 4256 H 394.019 -4.65481 -1.45529 0
M  V30 4257 H 393.024 -5.45233 0.707197 0
M  V30 4258 H 394.249 -6.74379 0.799381 0
M  V30 4259 H 392.195 -6.40472 -1.41887 0
M  V30 4260 H 392.112 -7.55891 -0.128624 0
M  V30 4261 H 393.38 -7.68393 -1.31121 0
M  V30 4262 N 397.609 -0.515225 -1.4894 0
M  V30 4263 C 398.849 0.0223983 -2.04388 0
M  V30 4264 C 399.213 1.32961 -1.38511 0
M  V30 4265 O 400.414 1.95236 -1.8476 0
M  V30 4266 C 398.685 0.157056 -3.57055 0
M  V30 4267 S 400.244 0.646875 -4.34006 0
M  V30 4268 H 397.062 -0.00500662 -0.710982 0
M  V30 4269 H 399.664 -0.69243 -1.82827 0
M  V30 4270 H 398.368 -0.799412 -4.02539 0
M  V30 4271 H 397.899 0.896704 -3.83044 0
M  V30 4272 H 399.914 1.91381 -4.57808 0
M  V30 4273 N 399.087 1.5561 -0.249682 0
M  V30 4274 C 400.05 2.20217 0.635394 0
M  V30 4275 C 401.05 1.17227 1.10066 0
M  V30 4276 O 402.24 1.42292 1.00492 0
M  V30 4277 C 399.372 2.84794 1.87363 0
M  V30 4278 H 400.565 2.99814 0.0716752 0
M  V30 4279 H 398.118 1.563 -0.000153234 0
M  V30 4280 H 398.853 2.09142 2.47851 0
M  V30 4281 H 398.638 3.60241 1.5482 0
M  V30 4282 H 400.128 3.3423 2.5036 0
M  V30 4283 N 400.565 -0.0233959 1.57583 0
M  V30 4284 C 401.793 -0.724682 1.93794 0
M  V30 4285 C 402.208 -1.68588 0.849912 0
M  V30 4286 O 401.565 -1.81676 -0.173204 0
M  V30 4287 C 401.616 -1.47684 3.29957 0
M  V30 4288 O 401.337 -0.554222 4.3458 0
M  V30 4289 C 402.838 -2.27477 3.80485 0
M  V30 4290 H 400.058 -0.203317 0.639455 0
M  V30 4291 H 402.602 0.0207653 2.04489 0
M  V30 4292 H 400.757 -2.17412 3.20641 0
M  V30 4293 H 401.171 -1.08232 5.13212 0
M  V30 4294 H 402.645 -2.7564 4.78254 0
M  V30 4295 H 403.122 -3.09144 3.11972 0
M  V30 4296 H 403.728 -1.62813 3.92902 0
M  V30 4297 N 402.043 -1.548 -0.295768 0
M  V30 4298 C 403.268 -1.78653 -1.05346 0
M  V30 4299 C 403.693 -0.546894 -1.79974 0
M  V30 4300 O 403.051 0.502763 -1.7419 0
M  V30 4301 C 403.099 -2.99679 -2.00561 0
M  V30 4302 O 402.203 -2.7317 -3.08953 0
M  V30 4303 H 401.544 -0.59116 -0.302367 0
M  V30 4304 H 404.074 -2.01895 -0.331598 0
M  V30 4305 H 404.084 -3.27793 -2.42932 0
M  V30 4306 H 402.759 -3.89562 -1.4565 0
M  V30 4307 H 401.336 -2.56089 -2.71059 0
M  V30 4308 N 403.521 0.559213 -1.47345 0
M  V30 4309 C 404.468 1.66645 -1.59682 0
M  V30 4310 C 405.438 1.60168 -0.43994 0
M  V30 4311 O 406.623 1.79031 -0.659736 0
M  V30 4312 C 403.763 3.04969 -1.61518 0
M  V30 4313 C 402.876 3.21897 -2.88108 0
M  V30 4314 C 402.011 4.50608 -2.81294 0
M  V30 4315 C 401.05 4.60961 -4.02717 0
M  V30 4316 N 400.187 5.81024 -3.94151 0
M  V30 4317 H 405.027 1.55439 -2.54249 0
M  V30 4318 H 402.564 0.757219 -1.26113 0
M  V30 4319 H 404.522 3.85064 -1.60566 0
M  V30 4320 H 403.152 3.15015 -0.704645 0
M  V30 4321 H 402.204 2.35248 -2.98936 0
M  V30 4322 H 403.516 3.25412 -3.78032 0
M  V30 4323 H 402.67 5.3896 -2.7858 0
M  V30 4324 H 401.409 4.49568 -1.89049 0
M  V30 4325 H 400.414 3.71021 -4.05738 0
M  V30 4326 H 401.639 4.63761 -4.96087 0
M  V30 4327 H 399.585 5.80938 -3.04708 0
M  V30 4328 H 399.502 5.85909 -4.77752 0
M  V30 4329 H 400.77 6.71744 -3.9545 0
M  V30 4330 N 404.999 1.35443 0.805782 0
M  V30 4331 C 406.41 1.25768 1.37983 0
M  V30 4332 C 406.761 -0.10958 1.95894 0
M  V30 4333 O 405.886 -1.01056 1.91355 0
M  V30 4334 C 406.481 2.27727 2.5085 0
M  V30 4335 C 405.04 2.2179 3.04115 0
M  V30 4336 C 404.187 2.13393 1.77084 0
M  V30 4337 H 407.138 1.4656 0.608752 0
M  V30 4338 H 407.159 1.90422 3.29424 0
M  V30 4339 H 406.671 3.27227 2.08671 0
M  V30 4340 H 404.772 1.25703 3.50756 0
M  V30 4341 H 404.885 3.13788 3.62042 0
M  V30 4342 H 403.249 1.59384 1.98668 0
M  V30 4343 H 404.032 3.14755 1.37056 0
M  V30 4344 N 406.477 -1.02803 1.19454 0
M  V30 4345 C 407.44 -2.09264 0.934955 0
M  V30 4346 C 408.44 -1.60576 -0.0849015 0
M  V30 4347 O 409.63 -1.73554 0.149933 0
M  V30 4348 C 406.762 -3.38482 0.40531 0
M  V30 4349 H 407.955 -2.33726 1.87916 0
M  V30 4350 H 405.508 -1.19426 1.00832 0
M  V30 4351 H 406.243 -3.19689 -0.544899 0
M  V30 4352 H 406.028 -3.75142 1.14065 0
M  V30 4353 H 407.518 -4.16894 0.242806 0
M  V30 4354 N 407.956 -0.998596 -1.21925 0
M  V30 4355 C 409.203 -0.677663 -1.90824 0
M  V30 4356 C 409.531 0.790905 -1.77693 0
M  V30 4357 O 408.786 1.58817 -1.14349 0
M  V30 4358 C 409.085 -1.03648 -3.42041 0
M  V30 4359 C 408.751 -2.49825 -3.75364 0
M  V30 4360 C 407.413 -2.8977 -3.8417 0
M  V30 4361 C 409.765 -3.44545 -3.91073 0
M  V30 4362 C 407.093 -4.23412 -4.06127 0
M  V30 4363 C 409.445 -4.77853 -4.14535 0
M  V30 4364 C 408.109 -5.17531 -4.21566 0
M  V30 4365 H 407.379 -0.247975 -0.698276 0
M  V30 4366 H 410.026 -1.25584 -1.44571 0
M  V30 4367 H 408.331 -0.376457 -3.89987 0
M  V30 4368 H 410.028 -0.766113 -3.93614 0
M  V30 4369 H 406.618 -2.17866 -3.69097 0
M  V30 4370 H 410.802 -3.14853 -3.83642 0
M  V30 4371 H 406.058 -4.53734 -4.09799 0
M  V30 4372 H 410.232 -5.51189 -4.25633 0
M  V30 4373 H 407.859 -6.21102 -4.38333 0
M  V30 4374 N 409.434 1.37368 -0.772513 0
M  V30 4375 C 410.681 1.99673 -0.337182 0
M  V30 4376 C 411.009 1.61324 1.0865 0
M  V30 4377 O 410.264 0.851377 1.7621 0
M  V30 4378 C 410.563 3.54817 -0.428876 0
M  V30 4379 C 410.229 4.12936 -1.81092 0
M  V30 4380 C 408.891 4.28523 -2.1891 0
M  V30 4381 C 411.243 4.44801 -2.71664 0
M  V30 4382 C 408.571 4.73277 -3.46735 0
M  V30 4383 C 410.923 4.90981 -3.98899 0
M  V30 4384 C 409.587 5.04773 -4.36761 0
M  V30 4385 H 408.857 0.730656 -0.123384 0
M  V30 4386 H 411.504 1.64124 -0.986686 0
M  V30 4387 H 409.809 3.90618 0.304167 0
M  V30 4388 H 411.506 4.00933 -0.0733334 0
M  V30 4389 H 408.096 4.01233 -1.50699 0
M  V30 4390 H 412.28 4.32344 -2.43706 0
M  V30 4391 H 407.536 4.82142 -3.75964 0
M  V30 4392 H 411.71 5.14603 -4.69208 0
M  V30 4393 H 409.337 5.39211 -5.35868 0
M  V30 4394 N 410.912 0.523116 1.48665 0
M  V30 4395 C 411.875 -0.232592 2.28017 0
M  V30 4396 C 412.875 -0.874021 1.34972 0
M  V30 4397 O 414.065 -0.735132 1.57929 0
M  V30 4398 C 411.197 -1.33586 3.13636 0
M  V30 4399 H 412.39 0.464008 2.96289 0
M  V30 4400 H 409.943 0.278816 1.53793 0
M  V30 4401 H 410.678 -2.06593 2.4998 0
M  V30 4402 H 410.463 -0.881125 3.82071 0
M  V30 4403 H 411.953 -1.86759 3.73511 0
M  V30 4404 N 412.39 -1.55475 0.257931 0
M  V30 4405 C 413.3 -2.2549 -0.647425 0
M  V30 4406 C 414.316 -1.2748 -1.18427 0
M  V30 4407 O 415.492 -1.6038 -1.2182 0
M  V30 4408 C 412.557 -2.94916 -1.82278 0
M  V30 4409 C 411.618 -4.08363 -1.32432 0
M  V30 4410 C 410.851 -4.74469 -2.44366 0
M  V30 4411 O 411.074 -4.39701 -3.63344 0
M  V30 4412 O 410.008 -5.62763 -2.13497 0
M  V30 4413 H 413.834 -3.03593 -0.0807707 0
M  V30 4414 H 411.419 -1.49377 0.0259962 0
M  V30 4415 H 413.301 -3.38606 -2.50846 0
M  V30 4416 H 411.976 -2.19744 -2.37685 0
M  V30 4417 H 410.883 -3.69166 -0.605605 0
M  V30 4418 H 412.216 -4.85385 -0.816211 0
M  V30 4419 N 413.868 0.0150385 -1.57593 0
M  V30 4420 C 414.815 1.01126 -2.07466 0
M  V30 4421 C 415.785 1.35064 -0.966794 0
M  V30 4422 O 416.97 1.4516 -1.23827 0
M  V30 4423 C 414.11 2.30276 -2.57035 0
M  V30 4424 C 413.223 2.02373 -3.81666 0
M  V30 4425 C 412.358 3.25496 -4.19793 0
M  V30 4426 C 411.397 2.93211 -5.37303 0
M  V30 4427 N 410.534 4.08826 -5.70794 0
M  V30 4428 H 415.374 0.57901 -2.92321 0
M  V30 4429 H 412.911 0.27426 -1.44521 0
M  V30 4430 H 414.869 3.05757 -2.83846 0
M  V30 4431 H 413.499 2.71197 -1.75077 0
M  V30 4432 H 412.551 1.17327 -3.61854 0
M  V30 4433 H 413.863 1.74567 -4.67256 0
M  V30 4434 H 413.017 4.09333 -4.47807 0
M  V30 4435 H 411.756 3.56428 -3.32882 0
M  V30 4436 H 410.761 2.07777 -5.09027 0
M  V30 4437 H 411.986 2.63542 -6.25877 0
M  V30 4438 H 409.932 4.39682 -4.86842 0
M  V30 4439 H 409.849 3.84491 -6.50924 0
M  V30 4440 H 411.117 4.93496 -6.03392 0
M  V30 4441 N 415.346 1.54954 0.287554 0
M  V30 4442 C 416.276 1.89839 1.35954 0
M  V30 4443 C 417.257 0.758675 1.52244 0
M  V30 4444 O 418.442 1.01557 1.65529 0
M  V30 4445 C 415.572 2.15753 2.72154 0
M  V30 4446 C 414.526 3.3159 2.70614 0
M  V30 4447 C 413.852 3.42952 4.10229 0
M  V30 4448 C 415.152 4.68359 2.31165 0
M  V30 4449 H 416.846 2.79625 1.07007 0
M  V30 4450 H 414.392 1.3454 0.513316 0
M  V30 4451 H 416.345 2.38743 3.47246 0
M  V30 4452 H 415.069 1.22752 3.02654 0
M  V30 4453 H 413.728 3.08545 1.97979 0
M  V30 4454 H 413.376 2.47443 4.37928 0
M  V30 4455 H 413.076 4.20826 4.10097 0
M  V30 4456 H 414.6 3.68218 4.87081 0
M  V30 4457 H 416.014 4.9099 2.95976 0
M  V30 4458 H 414.411 5.49044 2.42221 0
M  V30 4459 H 415.481 4.68165 1.26291 0
M  V30 4460 N 416.824 -0.551391 1.4764 0
M  V30 4461 C 417.774 -1.65362 1.56969 0
M  V30 4462 C 418.758 -1.55098 0.428189 0
M  V30 4463 O 419.95 -1.63481 0.678441 0
M  V30 4464 C 417.079 -3.04129 1.59249 0
M  V30 4465 C 416.165 -3.19576 2.78804 0
M  V30 4466 N 416.556 -3.05067 4.03445 0
M  V30 4467 C 414.854 -3.50588 2.75688 0
M  V30 4468 C 415.555 -3.2336 4.83543 0
M  V30 4469 N 414.531 -3.4996 4.15968 0
M  V30 4470 H 418.333 -1.52722 2.51104 0
M  V30 4471 H 415.847 -0.756303 1.43714 0
M  V30 4472 H 417.844 -3.83278 1.64024 0
M  V30 4473 H 416.504 -3.17877 0.662148 0
M  V30 4474 H 417.515 -2.82273 4.34215 0
M  V30 4475 H 414.192 -3.70827 1.91817 0
M  V30 4476 H 415.582 -3.17061 5.92387 0
M  V30 4477 N 418.302 -1.35869 -0.798587 0
M  V30 4478 C 419.234 -1.25305 -1.91915 0
M  V30 4479 C 420.247 -0.174548 -1.61862 0
M  V30 4480 O 421.436 -0.428499 -1.73281 0
M  V30 4481 C 418.536 -0.9086 -3.26493 0
M  V30 4482 C 417.709 -2.08711 -3.84394 0
M  V30 4483 C 416.768 -1.71717 -4.97393 0
M  V30 4484 O 415.794 -2.43692 -5.14396 0
M  V30 4485 N 416.996 -0.645473 -5.769 0
M  V30 4486 H 419.761 -2.21849 -2.01502 0
M  V30 4487 H 417.322 -1.29143 -0.976408 0
M  V30 4488 H 419.314 -0.642455 -3.99568 0
M  V30 4489 H 417.884 -0.0325815 -3.12583 0
M  V30 4490 H 417.104 -2.51659 -3.03416 0
M  V30 4491 H 418.392 -2.87468 -4.19809 0
M  V30 4492 H 417.79 -0.047648 -5.6568 0
M  V30 4493 H 416.347 -0.43913 -6.50319 0
M  V30 4494 N 419.78 1.02168 -1.19998 0
M  V30 4495 C 420.743 2.08765 -0.94604 0
M  V30 4496 C 421.743 1.60618 0.0763846 0
M  V30 4497 O 422.933 1.73472 -0.159135 0
M  V30 4498 C 420.065 3.38262 -0.423255 0
M  V30 4499 H 421.258 2.32726 -1.89153 0
M  V30 4500 H 418.811 1.1889 -1.01464 0
M  V30 4501 H 419.546 3.19974 0.527938 0
M  V30 4502 H 419.331 3.74532 -1.16053 0
M  V30 4503 H 420.821 4.16759 -0.264911 0
M  V30 4504 N 421.258 1.00505 1.21394 0
M  V30 4505 C 422.191 0.51032 2.22421 0
M  V30 4506 C 423.169 -0.436 1.56645 0
M  V30 4507 O 424.353 -0.358709 1.85055 0
M  V30 4508 C 421.48 -0.258733 3.3771 0
M  V30 4509 C 420.526 0.635395 4.2174 0
M  V30 4510 S 421.359 2.09783 4.92698 0
M  V30 4511 C 422.515 1.33862 6.11418 0
M  V30 4512 H 422.748 1.36637 2.64041 0
M  V30 4513 H 420.281 0.812991 1.31262 0
M  V30 4514 H 422.239 -0.696372 4.0455 0
M  V30 4515 H 420.9 -1.0902 2.94573 0
M  V30 4516 H 420.093 0.0430189 5.03982 0
M  V30 4517 H 419.695 1.01031 3.60095 0
M  V30 4518 H 421.987 0.612541 6.74725 0
M  V30 4519 H 422.93 2.13675 6.75092 0
M  V30 4520 H 423.338 0.846568 5.58116 0
M  V30 4521 N 422.737 -1.36956 0.779787 0
M  V30 4522 C 423.684 -2.30175 0.169697 0
M  V30 4523 C 424.654 -1.51501 -0.68094 0
M  V30 4524 O 425.839 -1.80042 -0.631629 0
M  V30 4525 C 422.979 -3.37985 -0.697131 0
M  V30 4526 C 422.092 -4.31661 0.170992 0
M  V30 4527 C 421.227 -5.2655 -0.701298 0
M  V30 4528 C 420.266 -6.11867 0.168869 0
M  V30 4529 N 419.403 -6.98973 -0.661855 0
M  V30 4530 H 424.243 -2.81767 0.970135 0
M  V30 4531 H 421.78 -1.38699 0.489994 0
M  V30 4532 H 423.738 -3.99128 -1.2146 0
M  V30 4533 H 422.368 -2.87739 -1.46309 0
M  V30 4534 H 421.42 -3.71756 0.80634 0
M  V30 4535 H 422.732 -4.91644 0.841875 0
M  V30 4536 H 421.886 -5.92937 -1.28494 0
M  V30 4537 H 420.625 -4.66998 -1.40584 0
M  V30 4538 H 419.63 -5.44452 0.764986 0
M  V30 4539 H 420.855 -6.73493 0.870863 0
M  V30 4540 H 418.801 -6.41941 -1.35086 0
M  V30 4541 H 418.718 -7.55984 -0.0484447 0
M  V30 4542 H 419.986 -7.6974 -1.22963 0
M  V30 4543 N 424.215 -0.530993 -1.48385 0
M  V30 4544 C 425.463 0.00273189 -2.021 0
M  V30 4545 C 425.784 1.34672 -1.41027 0
M  V30 4546 O 425.054 1.8724 -0.576012 0
M  V30 4547 H 423.634 0.00399774 -0.746989 0
M  V30 4548 H 426.296 -0.695054 -1.82085 0
M  V30 4549 H 425.392 0.11031 -3.11905 0
M  V30 4550 N 425.693 1.55336 -0.266172 0
M  V30 4551 C 426.939 1.99692 0.353681 0
M  V30 4552 C 427.272 1.1543 1.56172 0
M  V30 4553 O 426.547 0.222218 1.93226 0
M  V30 4554 C 426.83 3.52316 0.74466 0
M  V30 4555 C 426.683 4.47337 -0.470101 0
M  V30 4556 C 428.002 4.10588 1.58447 0
M  V30 4557 H 425.121 0.725961 0.12708 0
M  V30 4558 H 427.763 1.86336 -0.371333 0
M  V30 4559 H 425.913 3.63829 1.36239 0
M  V30 4560 H 427.585 4.4778 -1.10864 0
M  V30 4561 H 425.828 4.19364 -1.10978 0
M  V30 4562 H 426.499 5.51788 -0.15291 0
M  V30 4563 H 428.975 4.02297 1.06286 0
M  V30 4564 H 427.851 5.17607 1.82686 0
M  V30 4565 H 428.112 3.60253 2.56262 0
M  V30 4566 N 427.171 -0.0066808 1.57599 0
M  V30 4567 C 428.419 -0.691552 1.899 0
M  V30 4568 C 428.74 -1.74682 0.866672 0
M  V30 4569 O 428.01 -1.95661 -0.0968189 0
M  V30 4570 H 426.59 -0.258416 0.700878 0
M  V30 4571 H 429.252 0.0326655 1.94873 0
M  V30 4572 H 428.348 -1.16702 2.8946 0
M  V30 4573 N 428.649 -1.55105 -0.279332 0
M  V30 4574 C 429.877 -1.7943 -1.03017 0
M  V30 4575 C 430.292 -0.564456 -1.80165 0
M  V30 4576 O 429.649 0.466326 -1.76442 0
M  V30 4577 C 429.7 -3.0155 -1.99374 0
M  V30 4578 O 429.421 -4.19784 -1.25352 0
M  V30 4579 C 430.922 -3.3843 -2.86321 0
M  V30 4580 H 428.142 -0.597882 -0.304594 0
M  V30 4581 H 430.686 -2.02105 -0.312035 0
M  V30 4582 H 428.841 -2.81019 -2.66659 0
M  V30 4583 H 429.255 -4.88781 -1.90246 0
M  V30 4584 H 430.729 -4.27066 -3.49741 0
M  V30 4585 H 431.206 -2.57549 -3.5576 0
M  V30 4586 H 431.812 -3.61197 -2.24536 0
M  V30 4587 N 430.127 0.543554 -1.4793 0
M  V30 4588 C 431.543 0.870806 -1.3375 0
M  V30 4589 C 431.743 1.9864 -0.338261 0
M  V30 4590 O 430.799 2.51305 0.245371 0
M  V30 4591 C 432.112 1.25114 -2.73435 0
M  V30 4592 C 433.66 1.3618 -2.81823 0
M  V30 4593 C 434.135 1.77563 -4.22179 0
M  V30 4594 N 435.626 1.8469 -4.24787 0
M  V30 4595 C 436.361 2.18067 -5.30315 0
M  V30 4596 N 435.857 2.49963 -6.46135 0
M  V30 4597 N 437.65 2.18958 -5.17701 0
M  V30 4598 H 429.801 -0.19275 -2.11524 0
M  V30 4599 H 432.064 -0.0235777 -0.947707 0
M  V30 4600 H 431.77 0.50514 -3.48053 0
M  V30 4601 H 431.644 2.20431 -3.06088 0
M  V30 4602 H 434.031 2.09859 -2.07468 0
M  V30 4603 H 434.112 0.390169 -2.52807 0
M  V30 4604 H 433.756 1.04449 -4.97044 0
M  V30 4605 H 433.686 2.75753 -4.48629 0
M  V30 4606 H 436.177 1.62372 -3.41239 0
M  V30 4607 H 436.49 2.74497 -7.22406 0
M  V30 4608 H 434.835 2.47513 -6.49432 0
M  V30 4609 H 438.026 1.93488 -4.2624 0
M  V30 4610 H 438.199 2.44639 -6.00047 0
M  V30 4611 N 431.605 1.3629 0.791371 0
M  V30 4612 C 432.555 1.26988 1.89362 0
M  V30 4613 C 433.539 0.161795 1.60084 0
M  V30 4614 O 434.731 0.394426 1.72549 0
M  V30 4615 C 431.86 1.05944 3.26544 0
M  V30 4616 C 430.946 2.21211 3.61838 0
M  V30 4617 N 431.337 3.46518 3.68455 0
M  V30 4618 C 429.635 2.12933 3.91887 0
M  V30 4619 C 430.336 4.2241 3.99931 0
M  V30 4620 N 429.312 3.51329 4.14812 0
M  V30 4621 H 433.114 2.21908 1.92702 0
M  V30 4622 H 430.628 1.28982 0.986787 0
M  V30 4623 H 432.625 0.973666 4.05371 0
M  V30 4624 H 431.285 0.119223 3.24481 0
M  V30 4625 H 432.296 3.80677 3.51148 0
M  V30 4626 H 428.973 1.26855 3.97761 0
M  V30 4627 H 430.363 5.30767 4.1199 0
M  V30 4628 N 433.083 -1.0153 1.20538 0
M  V30 4629 C 434.03 -2.10098 0.955383 0
M  V30 4630 C 435 -1.65702 -0.114878 0
M  V30 4631 O 436.185 -1.90776 0.0301118 0
M  V30 4632 C 433.325 -3.41236 0.514969 0
M  V30 4633 C 432.438 -3.99102 1.65353 0
M  V30 4634 C 431.573 -5.18306 1.16329 0
M  V30 4635 C 430.612 -5.68258 2.27485 0
M  V30 4636 N 429.749 -6.78722 1.7967 0
M  V30 4637 H 434.589 -2.30818 1.88486 0
M  V30 4638 H 432.126 -1.13189 0.939499 0
M  V30 4639 H 434.084 -4.16504 0.240935 0
M  V30 4640 H 432.714 -3.20585 -0.377512 0
M  V30 4641 H 431.766 -3.20918 2.04245 0
M  V30 4642 H 433.078 -4.32177 2.49047 0
M  V30 4643 H 432.232 -6.00782 0.845302 0
M  V30 4644 H 430.971 -4.86799 0.296254 0
M  V30 4645 H 429.976 -4.84385 2.60099 0
M  V30 4646 H 431.201 -6.01798 3.14667 0
M  V30 4647 H 429.147 -6.49042 0.95295 0
M  V30 4648 H 429.064 -7.10996 2.56944 0
M  V30 4649 H 430.332 -7.64759 1.50875 0
M  V30 4650 N 434.561 -1.01147 -1.20859 0
M  V30 4651 C 435.524 -0.582224 -2.21682 0
M  V30 4652 C 436.524 0.344887 -1.57058 0
M  V30 4653 O 437.714 0.134281 -1.73682 0
M  V30 4654 C 434.846 0.150496 -3.40568 0
M  V30 4655 H 436.039 -1.47408 -2.61172 0
M  V30 4656 H 433.592 -0.800695 -1.34233 0
M  V30 4657 H 434.327 1.0575 -3.06574 0
M  V30 4658 H 434.112 -0.515444 -3.88697 0
M  V30 4659 H 435.602 0.438344 -4.15293 0
M  V30 4660 N 436.039 1.36541 -0.78704 0
M  V30 4661 C 436.969 2.32659 -0.197992 0
M  V30 4662 C 437.95 1.56533 0.665697 0
M  V30 4663 O 439.135 1.84698 0.60001 0
M  V30 4664 C 436.265 3.40778 0.669901 0
M  V30 4665 C 435.219 4.27897 -0.0937039 0
M  V30 4666 C 434.545 5.27163 0.894629 0
M  V30 4667 C 435.845 5.06334 -1.28154 0
M  V30 4668 H 437.539 2.82171 -1.00099 0
M  V30 4669 H 435.085 1.35665 -0.482793 0
M  V30 4670 H 437.038 4.07008 1.09191 0
M  V30 4671 H 435.762 2.89827 1.50558 0
M  V30 4672 H 434.421 3.6322 -0.49666 0
M  V30 4673 H 434.069 4.72486 1.72527 0
M  V30 4674 H 433.769 5.86317 0.388149 0
M  V30 4675 H 435.293 5.96266 1.31525 0
M  V30 4676 H 436.707 5.65617 -0.93541 0
M  V30 4677 H 435.104 5.74888 -1.72115 0
M  V30 4678 H 436.174 4.38114 -2.07807 0
M  V30 4679 N 437.518 0.538854 1.48102 0
M  V30 4680 C 438.767 0.0059532 2.01699 0
M  V30 4681 C 439.08 -1.34476 1.42041 0
M  V30 4682 O 440.286 -1.96653 1.87189 0
M  V30 4683 C 438.742 -0.0397627 3.59878 0
M  V30 4684 C 438.35 1.30659 4.28523 0
M  V30 4685 C 440.094 -0.521024 4.2129 0
M  V30 4686 C 438.001 1.22098 5.78659 0
M  V30 4687 H 436.931 -0.00154456 0.753998 0
M  V30 4688 H 439.582 0.683963 1.70277 0
M  V30 4689 H 437.964 -0.783037 3.88181 0
M  V30 4690 H 439.138 2.06613 4.11883 0
M  V30 4691 H 437.453 1.7243 3.79021 0
M  V30 4692 H 440.05 -0.603184 5.31287 0
M  V30 4693 H 440.393 -1.52885 3.8721 0
M  V30 4694 H 440.926 0.166834 3.9745 0
M  V30 4695 H 437.665 2.20424 6.17328 0
M  V30 4696 H 437.185 0.50295 5.97688 0
M  V30 4697 H 438.864 0.915345 6.40492 0
M  V30 4698 N 438.996 -1.55193 0.274407 0
M  V30 4699 C 440.412 -1.59401 -0.0797543 0
M  V30 4700 C 440.612 -1.29162 -1.54659 0
M  V30 4701 O 439.668 -1.05215 -2.29534 0
M  V30 4702 C 440.981 -2.99257 0.294238 0
M  V30 4703 C 442.529 -3.12072 0.240796 0
M  V30 4704 C 443.004 -4.54194 0.589218 0
M  V30 4705 N 444.495 -4.60033 0.540744 0
M  V30 4706 C 445.23 -5.68027 0.783147 0
M  V30 4707 N 444.726 -6.8417 1.09013 0
M  V30 4708 N 446.519 -5.57572 0.711993 0
M  V30 4709 H 438.67 -1.73113 1.23067 0
M  V30 4710 H 440.933 -0.807197 0.497129 0
M  V30 4711 H 440.639 -3.26217 1.31435 0
M  V30 4712 H 440.513 -3.75427 -0.365281 0
M  V30 4713 H 442.9 -2.84877 -0.770024 0
M  V30 4714 H 442.981 -2.38117 0.934563 0
M  V30 4715 H 442.625 -4.82115 1.59772 0
M  V30 4716 H 442.555 -5.26448 -0.126331 0
M  V30 4717 H 445.046 -3.76599 0.313327 0
M  V30 4718 H 445.359 -7.6243 1.26178 0
M  V30 4719 H 443.704 -6.85787 1.12789 0
M  V30 4720 H 446.895 -4.65714 0.472014 0
M  V30 4721 H 447.068 -6.41659 0.90429 0
M  V30 4722 N 440.474 -0.00167713 -1.576 0
M  V30 4723 C 441.723 0.682021 -1.89819 0
M  V30 4724 C 442.036 1.74844 -0.876871 0
M  V30 4725 O 443.242 2.48688 -1.08934 0
M  V30 4726 C 441.698 1.26425 -3.36964 0
M  V30 4727 C 441.306 0.232568 -4.47396 0
M  V30 4728 C 443.05 1.92604 -3.78291 0
M  V30 4729 C 440.957 0.824882 -5.85619 0
M  V30 4730 H 439.887 0.258499 -0.708304 0
M  V30 4731 H 442.538 -0.0624957 -1.83394 0
M  V30 4732 H 440.92 2.05949 -3.38232 0
M  V30 4733 H 442.094 -0.5382 -4.57646 0
M  V30 4734 H 440.409 -0.32888 -4.15099 0
M  V30 4735 H 443.006 2.37827 -4.78897 0
M  V30 4736 H 443.349 2.75732 -3.11894 0
M  V30 4737 H 443.882 1.19812 -3.79328 0
M  V30 4738 H 440.621 0.0323542 -6.55492 0
M  V30 4739 H 440.141 1.56477 -5.79029 0
M  V30 4740 H 441.82 1.32301 -6.33329 0
M  V30 4741 N 441.952 1.55251 0.271103 0
M  V30 4742 C 442.885 1.83191 1.36075 0
M  V30 4743 C 443.863 0.685091 1.47463 0
M  V30 4744 O 445.047 0.928292 1.64058 0
M  V30 4745 C 442.174 1.99521 2.73696 0
M  V30 4746 C 441.22 3.22081 2.79582 0
M  V30 4747 S 442.053 4.79388 2.38636 0
M  V30 4748 C 443.209 4.98693 3.78228 0
M  V30 4749 H 443.442 2.75327 1.12171 0
M  V30 4750 H 440.975 1.47046 0.470833 0
M  V30 4751 H 442.933 2.09613 3.52948 0
M  V30 4752 H 441.594 1.0827 2.9485 0
M  V30 4753 H 440.787 3.304 3.80594 0
M  V30 4754 H 440.389 3.10589 2.08352 0
M  V30 4755 H 442.681 4.84551 4.73515 0
M  V30 4756 H 443.624 6.00738 3.7486 0
M  V30 4757 H 444.032 4.26665 3.69618 0
M  V30 4758 N 443.43 -0.535701 1.48216 0
M  V30 4759 C 444.676 -1.29375 1.56173 0
M  V30 4760 C 445.009 -1.92804 0.232429 0
M  V30 4761 O 444.284 -1.78992 -0.761048 0
M  V30 4762 C 444.567 -2.38747 2.69577 0
M  V30 4763 C 444.42 -1.80046 4.12193 0
M  V30 4764 C 445.739 -3.40551 2.78771 0
M  V30 4765 H 442.858 -0.469027 0.568491 0
M  V30 4766 H 445.5 -0.597358 1.80365 0
M  V30 4767 H 443.65 -2.98147 2.4908 0
M  V30 4768 H 445.322 -1.24742 4.44114 0
M  V30 4769 H 443.565 -1.10609 4.19462 0
M  V30 4770 H 444.236 -2.59212 4.87353 0
M  V30 4771 H 446.712 -2.91099 2.97322 0
M  V30 4772 H 445.588 -4.1448 3.59857 0
M  V30 4773 H 445.849 -4.00746 1.86696 0
M  V30 4774 N 444.908 -1.36708 -0.784132 0
M  V30 4775 C 446.133 -1.34565 -1.5782 0
M  V30 4776 C 446.558 0.0695257 -1.87971 0
M  V30 4777 O 445.916 1.04302 -1.48293 0
M  V30 4778 C 445.964 -2.17952 -2.87279 0
M  V30 4779 O 445.068 -1.57563 -3.81114 0
M  V30 4780 H 444.409 -0.460337 -0.478524 0
M  V30 4781 H 446.939 -1.80064 -0.971495 0
M  V30 4782 H 446.949 -2.30721 -3.365 0
M  V30 4783 H 445.624 -3.20823 -2.64661 0
M  V30 4784 H 444.201 -1.53764 -3.39722 0
M  V30 4785 N 446.386 1.0089 -1.21074 0
M  V30 4786 C 447.802 1.2695 -0.967257 0
M  V30 4787 C 448.002 1.9846 0.348673 0
M  V30 4788 O 447.058 2.28459 1.0753 0
M  V30 4789 C 448.371 2.09697 -2.15517 0
M  V30 4790 C 449.919 2.22937 -2.197 0
M  V30 4791 C 450.394 3.09064 -3.37999 0
M  V30 4792 N 451.885 3.16653 -3.38061 0
M  V30 4793 C 452.62 3.8354 -4.26245 0
M  V30 4794 N 452.116 4.52488 -5.2462 0
M  V30 4795 N 453.909 3.80141 -4.14064 0
M  V30 4796 H 446.06 0.529005 -2.05707 0
M  V30 4797 H 448.323 0.296148 -0.900556 0
M  V30 4798 H 448.029 1.64497 -3.10859 0
M  V30 4799 H 447.903 3.10444 -2.14253 0
M  V30 4800 H 450.29 2.67357 -1.24916 0
M  V30 4801 H 450.371 1.21673 -2.2501 0
M  V30 4802 H 450.015 2.65347 -4.33074 0
M  V30 4803 H 449.945 4.10433 -3.29928 0
M  V30 4804 H 452.436 2.67566 -2.66865 0
M  V30 4805 H 452.749 5.01219 -5.88217 0
M  V30 4806 H 451.094 4.51288 -5.28549 0
M  V30 4807 H 454.285 3.25427 -3.36474 0
M  V30 4808 H 454.458 4.31992 -4.82998 0
M  V30 4809 N 447.864 1.01787 1.20321 0
M  V30 4810 C 449.089 0.727009 1.9424 0
M  V30 4811 C 449.514 -0.706179 1.74341 0
M  V30 4812 O 448.872 -1.48609 1.03852 0
M  V30 4813 C 448.92 1.06958 3.44372 0
M  V30 4814 O 448.024 0.181983 4.11998 0
M  V30 4815 H 447.365 0.269626 0.606793 0
M  V30 4816 H 449.895 1.36158 1.52716 0
M  V30 4817 H 449.905 1.02182 3.94997 0
M  V30 4818 H 448.58 2.11378 3.58179 0
M  V30 4819 H 447.157 0.287378 3.71791 0
M  V30 4820 N 449.342 -1.36122 0.79427 0
M  V30 4821 C 450.252 -2.33769 0.197296 0
M  V30 4822 C 451.268 -1.61276 -0.653153 0
M  V30 4823 O 452.444 -1.9323 -0.5678 0
M  V30 4824 C 449.509 -3.40474 -0.654098 0
M  V30 4825 C 448.57 -4.28759 0.215411 0
M  V30 4826 C 447.803 -5.30368 -0.595443 0
M  V30 4827 O 448.026 -5.40211 -1.83107 0
M  V30 4828 O 446.96 -6.019 0.00721351 0
M  V30 4829 H 450.786 -2.86597 1.00478 0
M  V30 4830 H 448.371 -1.38676 0.555818 0
M  V30 4831 H 450.253 -4.05703 -1.13944 0
M  V30 4832 H 448.928 -2.89937 -1.43938 0
M  V30 4833 H 447.835 -3.66554 0.747615 0
M  V30 4834 H 449.168 -4.82661 0.964332 0
M  V30 4835 N 450.82 -0.546701 -1.47814 0
M  V30 4836 C 452.069 -0.0166497 -2.01693 0
M  V30 4837 C 452.382 1.33721 -1.42752 0
M  V30 4838 O 453.588 1.95658 -1.8823 0
M  V30 4839 C 452.044 0.0206769 -3.59894 0
M  V30 4840 C 451.652 -1.3293 -4.27824 0
M  V30 4841 C 453.396 0.498674 -4.21561 0
M  V30 4842 C 451.303 -1.25165 -5.78003 0
M  V30 4843 H 450.233 -0.0024541 -0.753996 0
M  V30 4844 H 452.884 -0.692984 -1.69912 0
M  V30 4845 H 451.266 0.76244 -3.88591 0
M  V30 4846 H 452.44 -2.08795 -4.10781 0
M  V30 4847 H 450.755 -1.74438 -3.78101 0
M  V30 4848 H 453.352 0.575 -5.31599 0
M  V30 4849 H 453.695 1.5083 -3.88016 0
M  V30 4850 H 454.228 -0.18791 -3.97356 0
M  V30 4851 H 450.967 -2.23695 -6.1615 0
M  V30 4852 H 450.487 -0.53464 -5.97412 0
M  V30 4853 H 452.166 -0.949299 -6.39998 0
M  V30 4854 N 452.299 1.55045 -0.282633 0
M  V30 4855 C 453.576 1.9179 0.384166 0
M  V30 4856 C 453.956 1.20778 1.73136 0
M  V30 4857 O 453.304 0.33719 2.25998 0
M  V30 4858 C 453.514 3.45149 0.517014 0
M  V30 4859 C 454.862 4.17064 0.796427 0
M  V30 4860 O 455.886 3.51084 0.601535 0
M  V30 4861 O 454.745 5.33837 1.16962 0
M  V30 4862 H 451.839 0.799483 0.211558 0
M  V30 4863 H 454.385 1.66474 -0.32934 0
M  V30 4864 H 453.157 3.88922 -0.430772 0
M  V30 4865 H 452.78 3.76443 1.2797 0
M  V30 4866 N 453.777 0.010035 1.57597 0
M  V30 4867 C 454.71 -1.01234 2.04516 0
M  V30 4868 C 455.688 -1.32886 0.937024 0
M  V30 4869 O 456.872 -1.44879 1.20592 0
M  V30 4870 C 453.999 -2.33738 2.45121 0
M  V30 4871 C 453.045 -2.17679 3.66767 0
M  V30 4872 S 453.878 -1.49343 5.14254 0
M  V30 4873 C 455.034 -2.83256 5.58137 0
M  V30 4874 H 455.267 -0.612866 2.90914 0
M  V30 4875 H 452.8 -0.201124 1.53084 0
M  V30 4876 H 454.758 -3.09922 2.69182 0
M  V30 4877 H 453.419 -2.70823 1.59103 0
M  V30 4878 H 452.612 -3.1559 3.92962 0
M  V30 4879 H 452.214 -1.4964 3.42759 0
M  V30 4880 H 454.506 -3.79538 5.6121 0
M  V30 4881 H 455.449 -2.61749 6.57946 0
M  V30 4882 H 455.857 -2.87627 4.85727 0
M  V30 4883 N 455.255 -1.55392 -0.262866 0
M  V30 4884 C 456.203 -1.8977 -1.345 0
M  V30 4885 C 457.197 -0.775063 -1.50629 0
M  V30 4886 O 458.403 -0.959519 -1.52293 0
M  V30 4887 H 454.778 -0.602467 -0.450041 0
M  V30 4888 H 456.749 -2.80147 -1.02762 0
M  V30 4889 C 455.498 -2.19501 -2.69657 0
M  V30 4890 H 454.821 -3.05378 -2.5804 0
M  V30 4891 H 456.261 -2.47469 -3.44289 0
M  V30 4892 C 454.72 -1.00597 -3.21531 0
M  V30 4893 O 455.25 -0.245768 -4.00947 0
M  V30 4894 N 453.456 -0.800911 -2.79345 0
M  V30 4895 H 453.003 -1.42079 -2.14875 0
M  V30 4896 H 452.961 -0.00697996 -3.14399 0
M  V30 4897 N 456.733 0.527833 -1.48498 0
M  V30 4898 C 458.01 1.28905 -1.47115 0
M  V30 4899 C 458.39 2.10297 -0.184007 0
M  V30 4900 O 457.738 2.12728 0.834218 0
M  V30 4901 C 457.948 2.16866 -2.73441 0
M  V30 4902 C 459.296 2.76936 -3.21857 0
M  V30 4903 O 460.32 2.27152 -2.74373 0
M  V30 4904 O 459.179 3.67496 -4.04486 0
M  V30 4905 H 456.273 0.581918 -0.587623 0
M  V30 4906 H 458.819 0.544311 -1.60734 0
M  V30 4907 H 457.591 1.56521 -3.58632 0
M  V30 4908 H 457.214 2.98583 -2.62553 0
M  V30 4909 N 458.211 1.37122 0.776871 0
M  V30 4910 C 459.46 1.31373 1.53049 0
M  V30 4911 C 459.773 -0.101016 1.95339 0
M  V30 4912 O 460.979 -0.280953 2.70042 0
M  V30 4913 C 459.435 2.30567 2.76346 0
M  V30 4914 C 459.043 3.77543 2.41175 0
M  V30 4915 C 460.787 2.33818 3.54301 0
M  V30 4916 C 458.694 4.68481 3.60943 0
M  V30 4917 H 457.624 0.488234 0.574581 0
M  V30 4918 H 460.275 1.62554 0.851372 0
M  V30 4919 H 458.657 1.92396 3.46121 0
M  V30 4920 H 459.831 4.24521 1.79216 0
M  V30 4921 H 458.146 3.77187 1.76405 0
M  V30 4922 H 460.743 2.98965 4.4331 0
M  V30 4923 H 461.086 1.3503 3.93793 0
M  V30 4924 H 461.619 2.7067 2.91518 0
M  V30 4925 H 458.358 5.68378 3.26537 0
M  V30 4926 H 457.878 4.2621 4.22025 0
M  V30 4927 H 459.557 4.85366 4.27819 0
M  V30 4928 N 459.689 -1.00246 1.21608 0
M  V30 4929 C 460.636 -2.09073 0.977613 0
M  V30 4930 C 461.606 -1.65815 -0.097297 0
M  V30 4931 O 462.791 -1.90734 0.0503445 0
M  V30 4932 C 459.931 -3.40671 0.551133 0
M  V30 4933 C 459.044 -3.97326 1.69576 0
M  V30 4934 C 458.179 -5.17043 1.2182 0
M  V30 4935 C 457.218 -5.65813 2.335 0
M  V30 4936 N 456.355 -6.76778 1.86859 0
M  V30 4937 H 461.195 -2.28806 1.90924 0
M  V30 4938 H 458.732 -1.12186 0.951452 0
M  V30 4939 H 460.69 -4.16225 0.285097 0
M  V30 4940 H 459.32 -3.20967 -0.343489 0
M  V30 4941 H 458.372 -3.18734 2.07637 0
M  V30 4942 H 459.684 -4.29511 2.53617 0
M  V30 4943 H 458.838 -5.99852 0.908975 0
M  V30 4944 H 457.577 -4.86458 0.347869 0
M  V30 4945 H 456.582 -4.81599 2.65222 0
M  V30 4946 H 457.807 -5.98427 3.21033 0
M  V30 4947 H 455.753 -6.47994 1.02174 0
M  V30 4948 H 455.67 -7.08231 2.64471 0
M  V30 4949 H 456.938 -7.63116 1.58978 0
M  V30 4950 N 461.167 -1.02423 -1.1978 0
M  V30 4951 C 462.13 -0.605703 -2.21052 0
M  V30 4952 C 463.13 0.328209 -1.57415 0
M  V30 4953 O 464.32 0.115853 -1.73814 0
M  V30 4954 C 461.452 0.114366 -3.40708 0
M  V30 4955 H 462.645 -1.5017 -2.59594 0
M  V30 4956 H 460.198 -0.814888 -1.33376 0
M  V30 4957 H 460.933 1.02492 -3.07678 0
M  V30 4958 H 460.718 -0.556641 -3.88129 0
M  V30 4959 H 462.208 0.394272 -4.15735 0
M  V30 4960 N 462.645 1.35699 -0.801477 0
M  V30 4961 C 463.892 1.98913 -0.379459 0
M  V30 4962 C 464.22 1.63592 1.05204 0
M  V30 4963 O 463.475 0.888563 1.74365 0
M  V30 4964 C 463.774 3.53828 -0.504041 0
M  V30 4965 C 463.44 4.09002 -1.8981 0
M  V30 4966 C 462.102 4.23783 -2.27951 0
M  V30 4967 C 464.454 4.38939 -2.81038 0
M  V30 4968 C 461.782 4.65816 -3.56696 0
M  V30 4969 C 464.134 4.82409 -4.09224 0
M  V30 4970 C 462.798 4.95395 -4.4737 0
M  V30 4971 H 462.068 0.727874 -0.138854 0
M  V30 4972 H 464.715 1.61994 -1.02128 0
M  V30 4973 H 463.02 3.91175 0.221242 0
M  V30 4974 H 464.717 4.00687 -0.158361 0
M  V30 4975 H 461.307 3.97946 -1.59176 0
M  V30 4976 H 465.491 4.27077 -2.52821 0
M  V30 4977 H 460.747 4.74059 -3.86106 0
M  V30 4978 H 464.921 5.04535 -4.80018 0
M  V30 4979 H 462.548 5.27724 -5.47185 0
M  V30 4980 N 464.123 0.554532 1.47522 0
M  V30 4981 C 465.353 0.0342074 2.06572 0
M  V30 4982 C 465.761 -1.26375 1.40805 0
M  V30 4983 O 465.104 -1.7683 0.49769 0
M  V30 4984 C 465.166 -0.235096 3.5873 0
M  V30 4985 C 464.83 0.973024 4.46521 0
M  V30 4986 C 465.827 1.8779 4.848 0
M  V30 4987 C 463.512 1.18694 4.88075 0
M  V30 4988 C 465.506 2.98039 5.63428 0
M  V30 4989 C 463.193 2.29254 5.66468 0
M  V30 4990 C 464.191 3.18757 6.04055 0
M  V30 4991 O 463.879 4.27401 6.8087 0
M  V30 4992 H 463.611 0.041587 0.67472 0
M  V30 4993 H 466.165 0.766748 1.90552 0
M  V30 4994 H 464.395 -1.02191 3.72953 0
M  V30 4995 H 466.084 -0.700477 3.9981 0
M  V30 4996 H 466.85 1.72467 4.53299 0
M  V30 4997 H 462.729 0.49947 4.58286 0
M  V30 4998 H 466.273 3.67926 5.92685 0
M  V30 4999 H 462.17 2.4455 5.97382 0
M  V30 5000 H 462.938 4.25415 6.9926 0
M  V30 5001 N 465.601 -1.54893 0.290851 0
M  V30 5002 C 466.533 -2.20564 -0.623236 0
M  V30 5003 C 467.546 -1.19519 -1.1054 0
M  V30 5004 O 468.735 -1.46165 -1.02459 0
M  V30 5005 C 465.835 -2.83033 -1.86401 0
M  V30 5006 C 465.008 -4.09916 -1.52604 0
M  V30 5007 C 464.067 -4.56284 -2.62091 0
M  V30 5008 O 463.093 -5.2171 -2.27612 0
M  V30 5009 N 464.295 -4.27746 -3.92446 0
M  V30 5010 H 467.06 -2.99638 -0.0610915 0
M  V30 5011 H 464.621 -1.61508 0.112615 0
M  V30 5012 H 466.613 -3.1099 -2.58973 0
M  V30 5013 H 465.183 -2.0786 -2.33481 0
M  V30 5014 H 464.403 -3.89078 -0.633424 0
M  V30 5015 H 465.691 -4.92554 -1.27547 0
M  V30 5016 H 465.089 -3.7531 -4.23272 0
M  V30 5017 H 463.646 -4.60437 -4.61347 0
M  V30 5018 N 467.08 -0.0183926 -1.57589 0
M  V30 5019 C 468.027 0.967022 -2.09565 0
M  V30 5020 C 468.997 1.32983 -0.995225 0
M  V30 5021 O 470.182 1.42501 -1.26878 0
M  V30 5022 C 467.322 2.24772 -2.61861 0
M  V30 5023 C 466.435 1.94232 -3.85873 0
M  V30 5024 C 465.57 3.16518 -4.26603 0
M  V30 5025 C 464.609 2.81748 -5.43401 0
M  V30 5026 N 463.746 3.96626 -5.79338 0
M  V30 5027 H 468.586 0.516874 -2.93483 0
M  V30 5028 H 466.123 0.243544 -1.4507 0
M  V30 5029 H 468.081 2.99667 -2.90268 0
M  V30 5030 H 466.711 2.67423 -1.8079 0
M  V30 5031 H 465.763 1.09625 -3.64262 0
M  V30 5032 H 467.075 1.64616 -4.70853 0
M  V30 5033 H 466.229 3.99743 -4.56389 0
M  V30 5034 H 464.968 3.49286 -3.40368 0
M  V30 5035 H 463.973 1.96933 -5.1332 0
M  V30 5036 H 465.198 2.50207 -6.31327 0
M  V30 5037 H 463.144 4.29257 -4.96059 0
M  V30 5038 H 463.061 3.70598 -6.58933 0
M  V30 5039 H 464.329 4.80586 -6.13724 0
M  V30 5040 N 468.558 1.5553 0.254621 0
M  V30 5041 C 469.491 1.84624 1.34124 0
M  V30 5042 C 470.469 0.700693 1.46728 0
M  V30 5043 O 471.653 0.94564 1.63064 0
M  V30 5044 C 468.78 2.02412 2.71564 0
M  V30 5045 C 467.826 3.25028 2.7615 0
M  V30 5046 S 468.659 4.81893 2.33538 0
M  V30 5047 C 469.815 5.02677 3.72917 0
M  V30 5048 H 470.048 2.76501 1.09245 0
M  V30 5049 H 467.581 1.47537 0.455211 0
M  V30 5050 H 469.539 2.13345 3.50705 0
M  V30 5051 H 468.2 1.11391 2.93685 0
M  V30 5052 H 467.393 3.34418 3.77069 0
M  V30 5053 H 466.995 3.12781 2.05046 0
M  V30 5054 H 469.287 4.89546 4.68349 0
M  V30 5055 H 470.23 6.0468 3.68467 0
M  V30 5056 H 470.638 4.30561 3.65072 0
M  V30 5057 N 470.036 -0.519951 1.48776 0
M  V30 5058 C 471.266 -1.29783 1.60748 0
M  V30 5059 C 471.674 -1.87253 0.27072 0
M  V30 5060 O 471.017 -1.67628 -0.751438 0
M  V30 5061 C 471.079 -2.47984 2.60277 0
M  V30 5062 C 470.743 -2.11526 4.051 0
M  V30 5063 C 471.74 -1.66608 4.92481 0
M  V30 5064 C 469.425 -2.21742 4.50706 0
M  V30 5065 C 471.419 -1.32384 6.23501 0
M  V30 5066 C 469.106 -1.87129 5.81744 0
M  V30 5067 C 470.104 -1.42523 6.67964 0
M  V30 5068 O 469.792 -1.0837 7.96562 0
M  V30 5069 H 469.524 -0.400562 0.544542 0
M  V30 5070 H 472.078 -0.632879 1.95407 0
M  V30 5071 H 470.308 -3.17493 2.2076 0
M  V30 5072 H 471.997 -3.10036 2.61978 0
M  V30 5073 H 472.763 -1.58178 4.58481 0
M  V30 5074 H 468.642 -2.55415 3.83776 0
M  V30 5075 H 472.186 -0.974949 6.90754 0
M  V30 5076 H 468.083 -1.95204 6.15277 0
M  V30 5077 H 468.851 -1.21681 8.09405 0
M  V30 5078 N 471.514 -1.37532 -0.769588 0
M  V30 5079 C 472.762 -1.32597 -1.5252 0
M  V30 5080 C 473.083 0.0884294 -1.94799 0
M  V30 5081 O 472.353 1.03289 -1.66458 0
M  V30 5082 H 470.933 -0.487846 -0.565699 0
M  V30 5083 H 473.595 -1.72044 -0.915806 0
M  V30 5084 H 472.691 -1.96643 -2.42359 0
M  V30 5085 N 472.992 0.995999 -1.22138 0
M  V30 5086 C 474.241 1.72928 -1.03821 0
M  V30 5087 C 474.554 1.90872 0.427444 0
M  V30 5088 O 475.76 2.61496 0.730212 0
M  V30 5089 C 474.216 3.11124 -1.80913 0
M  V30 5090 C 473.824 3.01122 -3.31707 0
M  V30 5091 C 475.568 3.8852 -1.71035 0
M  V30 5092 C 473.475 4.34453 -4.01253 0
M  V30 5093 H 472.405 0.648376 -0.384869 0
M  V30 5094 H 475.056 1.11213 -1.45959 0
M  V30 5095 H 473.438 3.73503 -1.31573 0
M  V30 5096 H 474.612 2.47926 -3.88419 0
M  V30 5097 H 472.927 2.3721 -3.42228 0
M  V30 5098 H 475.524 4.872 -2.20318 0
M  V30 5099 H 475.867 4.1087 -0.670196 0
M  V30 5100 H 476.4 3.32812 -2.17902 0
M  V30 5101 H 473.139 4.17303 -5.05508 0
M  V30 5102 H 472.659 4.87574 -3.49331 0
M  V30 5103 H 474.338 5.03215 -4.06674 0
M  V30 5104 N 474.47 1.03057 1.19235 0
M  V30 5105 C 475.695 0.74757 1.93458 0
M  V30 5106 C 476.12 -0.687648 1.7508 0
M  V30 5107 O 475.478 -1.47499 1.05422 0
M  V30 5108 C 475.526 1.10604 3.43219 0
M  V30 5109 O 474.63 0.225671 4.11782 0
M  V30 5110 H 473.971 0.276047 0.603899 0
M  V30 5111 H 476.501 1.3777 1.51263 0
M  V30 5112 H 476.511 1.06366 3.93891 0
M  V30 5113 H 475.186 2.15165 3.55917 0
M  V30 5114 H 473.763 0.326795 3.71465 0
M  V30 5115 N 475.948 -1.35272 0.808662 0
M  V30 5116 C 476.878 -2.32315 0.234981 0
M  V30 5117 C 477.859 -1.57572 -0.64071 0
M  V30 5118 O 479.044 -1.8563 -0.570551 0
M  V30 5119 C 476.174 -3.41801 -0.615601 0
M  V30 5120 C 475.128 -4.27694 0.161767 0
M  V30 5121 C 474.454 -5.28519 -0.810649 0
M  V30 5122 C 475.754 -5.04231 1.36193 0
M  V30 5123 H 477.448 -2.80543 1.04575 0
M  V30 5124 H 474.994 -1.3488 0.504315 0
M  V30 5125 H 476.947 -4.08693 -1.02702 0
M  V30 5126 H 475.671 -2.92186 -1.45928 0
M  V30 5127 H 474.33 -3.62384 0.554382 0
M  V30 5128 H 473.978 -4.75171 -1.64988 0
M  V30 5129 H 473.678 -5.8686 -0.294822 0
M  V30 5130 H 475.202 -5.98283 -1.22023 0
M  V30 5131 H 476.616 -5.64058 1.02528 0
M  V30 5132 H 475.013 -5.72077 1.81239 0
M  V30 5133 H 476.083 -4.34753 2.14751 0
M  V30 5134 N 477.426 -0.562348 -1.47226 0
M  V30 5135 C 478.666 -0.0426374 -2.04356 0
M  V30 5136 C 479.03 1.28487 -1.42671 0
M  V30 5137 O 480.231 1.89259 -1.90878 0
M  V30 5138 C 478.502 0.0433826 -3.57374 0
M  V30 5139 S 480.061 0.508472 -4.35844 0
M  V30 5140 H 476.879 -0.0276234 -0.710463 0
M  V30 5141 H 479.481 -0.750245 -1.80531 0
M  V30 5142 H 478.185 -0.927072 -3.99792 0
M  V30 5143 H 477.716 0.774387 -3.85703 0
M  V30 5144 H 479.731 1.76719 -4.63665 0
M  V30 5145 N 478.904 1.54736 -0.299062 0
M  V30 5146 C 479.836 2.20891 0.61153 0
M  V30 5147 C 480.849 1.20104 1.09904 0
M  V30 5148 O 482.038 1.46707 1.01683 0
M  V30 5149 C 479.138 2.84018 1.84897 0
M  V30 5150 C 478.311 4.10719 1.50428 0
M  V30 5151 C 477.37 4.57667 2.59667 0
M  V30 5152 O 476.396 5.2291 2.24842 0
M  V30 5153 N 477.598 4.29821 3.90172 0
M  V30 5154 H 480.363 2.99666 0.0452001 0
M  V30 5155 H 477.924 1.61446 -0.121178 0
M  V30 5156 H 479.916 3.1236 2.5732 0
M  V30 5157 H 478.486 2.09095 2.32375 0
M  V30 5158 H 477.706 3.89408 0.612781 0
M  V30 5159 H 478.994 4.93223 1.24934 0
M  V30 5160 H 478.392 3.77549 4.21276 0
M  V30 5161 H 476.949 4.62877 4.58899 0
M  V30 5162 N 480.382 0.0267497 1.57577 0
M  V30 5163 C 481.345 -0.940916 2.08996 0
M  V30 5164 C 482.345 -1.25561 1.00455 0
M  V30 5165 O 483.535 -1.19634 1.26623 0
M  V30 5166 C 480.667 -2.25814 2.55384 0
M  V30 5167 H 481.86 -0.495628 2.95776 0
M  V30 5168 H 479.413 -0.221241 1.54726 0
M  V30 5169 H 480.148 -2.74976 1.71926 0
M  V30 5170 H 479.933 -2.04285 3.34679 0
M  V30 5171 H 481.423 -2.95178 2.95398 0
M  V30 5172 N 481.861 -1.55662 -0.24637 0
M  V30 5173 C 483.11 -1.7672 -0.972254 0
M  V30 5174 C 483.423 -0.59078 -1.86465 0
M  V30 5175 O 484.629 -0.684391 -2.62732 0
M  V30 5176 C 483.085 -3.12869 -1.7788 0
M  V30 5177 C 482.693 -4.38161 -0.933768 0
M  V30 5178 C 484.437 -3.43265 -2.49738 0
M  V30 5179 C 482.344 -5.6534 -1.73623 0
M  V30 5180 H 481.274 -0.658795 -0.366749 0
M  V30 5181 H 483.925 -1.82092 -0.226902 0
M  V30 5182 H 482.307 -3.01606 -2.56612 0
M  V30 5183 H 483.481 -4.60413 -0.188736 0
M  V30 5184 H 481.796 -4.15102 -0.328488 0
M  V30 5185 H 484.393 -4.35501 -3.10231 0
M  V30 5186 H 484.736 -2.64614 -3.2138 0
M  V30 5187 H 485.269 -3.55746 -1.78016 0
M  V30 5188 H 482.008 -6.46814 -1.06354 0
M  V30 5189 H 481.528 -5.47188 -2.45653 0
M  V30 5190 H 483.207 -6.04616 -2.30323 0
M  V30 5191 N 483.339 0.512053 -1.4905 0
M  V30 5192 C 484.269 1.62365 -1.67809 0
M  V30 5193 C 485.25 1.61737 -0.526809 0
M  V30 5194 O 486.435 1.78651 -0.761404 0
M  V30 5195 C 483.565 3.00895 -1.73435 0
M  V30 5196 C 482.519 3.16387 -2.88242 0
M  V30 5197 C 481.845 4.56157 -2.78971 0
M  V30 5198 C 483.145 2.97457 -4.29321 0
M  V30 5199 H 484.839 1.46921 -2.60873 0
M  V30 5200 H 482.385 0.705379 -1.2554 0
M  V30 5201 H 484.338 3.78549 -1.85145 0
M  V30 5202 H 483.062 3.17403 -0.769619 0
M  V30 5203 H 481.721 2.41155 -2.76116 0
M  V30 5204 H 481.369 4.69525 -1.8043 0
M  V30 5205 H 481.069 4.67465 -3.5602 0
M  V30 5206 H 482.593 5.35886 -2.92675 0
M  V30 5207 H 484.007 3.64888 -4.42187 0
M  V30 5208 H 482.404 3.20245 -5.07507 0
M  V30 5209 H 483.474 1.93692 -4.44535 0
M  V30 5210 N 484.817 1.37938 0.762283 0
M  V30 5211 C 486.094 1.24196 1.51112 0
M  V30 5212 C 486.474 -0.160409 2.1049 0
M  V30 5213 O 485.822 -1.16904 1.96331 0
M  V30 5214 C 486.032 2.34537 2.58445 0
M  V30 5215 C 487.38 2.7254 3.25588 0
M  V30 5216 O 488.404 2.33783 2.68745 0
M  V30 5217 O 487.263 3.39343 4.28379 0
M  V30 5218 H 484.357 0.485175 0.669727 0
M  V30 5219 H 486.903 1.49743 0.798438 0
M  V30 5220 H 485.675 3.28406 2.12756 0
M  V30 5221 H 485.298 2.10505 3.37303 0
M  V30 5222 N 486.295 -0.989507 1.22664 0
M  V30 5223 C 487.205 -2.11449 1.01619 0
M  V30 5224 C 488.221 -1.73962 -0.036545 0
M  V30 5225 O 489.397 -2.00788 0.156924 0
M  V30 5226 C 486.462 -3.41465 0.600204 0
M  V30 5227 C 485.523 -3.93033 1.72695 0
M  V30 5228 C 484.756 -5.16844 1.33071 0
M  V30 5229 O 484.979 -5.7001 0.210975 0
M  V30 5230 O 483.913 -5.6225 2.14845 0
M  V30 5231 H 487.739 -2.32088 1.9588 0
M  V30 5232 H 485.324 -1.09823 1.01289 0
M  V30 5233 H 487.206 -4.19695 0.37873 0
M  V30 5234 H 485.881 -3.22178 -0.313511 0
M  V30 5235 H 484.788 -3.15961 2.00298 0
M  V30 5236 H 486.121 -4.16758 2.61865 0
M  V30 5237 N 487.773 -1.03688 -1.18687 0
M  V30 5238 C 489.001 -0.757918 -1.92518 0
M  V30 5239 C 489.416 0.684398 -1.75959 0
M  V30 5240 O 488.773 1.46617 -1.08673 0
M  V30 5241 C 488.824 -1.10985 -3.44042 0
M  V30 5242 O 488.545 -2.49554 -3.60076 0
M  V30 5243 C 490.046 -0.854844 -4.3498 0
M  V30 5244 H 487.266 -0.276699 -0.611293 0
M  V30 5245 H 489.81 -1.38352 -1.50595 0
M  V30 5246 H 487.965 -0.529279 -3.83767 0
M  V30 5247 H 488.379 -2.6291 -4.53849 0
M  V30 5248 H 489.853 -1.15098 -5.39867 0
M  V30 5249 H 490.33 0.210507 -4.38695 0
M  V30 5250 H 490.936 -1.41853 -4.00946 0
M  V30 5251 N 489.251 1.34841 -0.815825 0
M  V30 5252 C 490.198 2.29644 -0.230664 0
M  V30 5253 C 491.168 1.53253 0.640533 0
M  V30 5254 O 492.353 1.81653 0.583672 0
M  V30 5255 C 489.493 3.39715 0.607275 0
M  V30 5256 C 488.606 4.31056 -0.28538 0
M  V30 5257 C 487.741 5.28225 0.561446 0
M  V30 5258 C 486.78 6.11204 -0.331035 0
M  V30 5259 N 485.917 7.00483 0.476302 0
M  V30 5260 H 490.757 2.79095 -1.0445 0
M  V30 5261 H 488.294 1.37351 -0.526595 0
M  V30 5262 H 490.252 4.02208 1.10835 0
M  V30 5263 H 488.882 2.91517 1.38629 0
M  V30 5264 H 487.934 3.69487 -0.904621 0
M  V30 5265 H 489.246 4.89239 -0.97193 0
M  V30 5266 H 488.4 5.96135 1.12728 0
M  V30 5267 H 487.139 4.70562 1.28153 0
M  V30 5268 H 486.144 5.42232 -0.909069 0
M  V30 5269 H 487.369 6.70947 -1.04912 0
M  V30 5270 H 485.315 6.45296 1.18019 0
M  V30 5271 H 485.232 7.55847 -0.152008 0
M  V30 5272 H 486.5 7.7273 1.02512 0
M  V30 5273 N 490.729 0.570148 1.46925 0
M  V30 5274 C 491.977 0.0508523 2.02036 0
M  V30 5275 C 492.298 -1.30885 1.44548 0
M  V30 5276 O 491.568 -1.85647 0.625453 0
M  V30 5277 H 490.148 0.0158088 0.746833 0
M  V30 5278 H 492.81 0.743086 1.80178 0
M  V30 5279 H 491.906 -0.027575 3.12088 0
M  V30 5280 N 492.207 -1.54576 0.307264 0
M  V30 5281 C 493.484 -1.92377 -0.353605 0
M  V30 5282 C 493.864 -1.23517 -1.71192 0
M  V30 5283 O 493.212 -0.373101 -2.25433 0
M  V30 5284 C 493.422 -3.45928 -0.462039 0
M  V30 5285 C 494.77 -4.18278 -0.729975 0
M  V30 5286 O 495.794 -3.51997 -0.545605 0
M  V30 5287 O 494.653 -5.3563 -1.08454 0
M  V30 5288 H 491.747 -0.802747 -0.198812 0
M  V30 5289 H 494.293 -1.65929 0.355783 0
M  V30 5290 H 493.065 -3.88187 0.492592 0
M  V30 5291 H 492.688 -3.78431 -1.21965 0
M  V30 5292 N 493.685 -0.035106 -1.57561 0
M  V30 5293 C 494.915 0.651312 -1.96065 0
M  V30 5294 C 495.323 1.6585 -0.910514 0
M  V30 5295 O 494.666 1.83336 0.11552 0
M  V30 5296 C 494.728 1.40897 -3.30739 0
M  V30 5297 C 494.392 0.559436 -4.53563 0
M  V30 5298 C 495.389 -0.16778 -5.19629 0
M  V30 5299 C 493.074 0.495079 -4.99854 0
M  V30 5300 C 495.068 -0.947963 -6.30311 0
M  V30 5301 C 492.755 -0.288804 -6.10417 0
M  V30 5302 C 493.753 -1.00903 -6.75505 0
M  V30 5303 O 493.441 -1.78005 -7.83945 0
M  V30 5304 H 493.173 0.184036 -0.650467 0
M  V30 5305 H 495.727 -0.0929677 -2.05189 0
M  V30 5306 H 493.957 2.19852 -3.18123 0
M  V30 5307 H 495.646 1.98407 -3.54104 0
M  V30 5308 H 496.412 -0.12743 -4.84833 0
M  V30 5309 H 492.291 1.04524 -4.48994 0
M  V30 5310 H 495.835 -1.51064 -6.81047 0
M  V30 5311 H 491.732 -0.33085 -6.44652 0
M  V30 5312 H 492.5 -1.70046 -8.00641 0
M  V30 5313 N 495.163 1.55791 0.238111 0
M  V30 5314 C 496.073 1.94196 1.31625 0
M  V30 5315 C 497.089 0.843545 1.52185 0
M  V30 5316 O 498.265 1.1457 1.65637 0
M  V30 5317 C 495.33 2.2365 2.64918 0
M  V30 5318 C 494.391 3.46971 2.52804 0
M  V30 5319 C 493.624 3.7501 3.79741 0
M  V30 5320 O 493.847 3.04982 4.82019 0
M  V30 5321 O 492.781 4.68525 3.77846 0
M  V30 5322 H 496.607 2.86044 1.02043 0
M  V30 5323 H 494.192 1.42786 0.439603 0
M  V30 5324 H 496.074 2.43863 3.4367 0
M  V30 5325 H 494.749 1.34979 2.94215 0
M  V30 5326 H 493.656 3.32055 1.72309 0
M  V30 5327 H 494.989 4.35971 2.28451 0
M  V30 5328 N 496.642 -0.504142 1.49319 0
M  V30 5329 C 497.589 -1.60603 1.65756 0
M  V30 5330 C 498.559 -1.58425 0.499082 0
M  V30 5331 O 499.744 -1.76459 0.725728 0
M  V30 5332 C 496.884 -2.98764 1.72726 0
M  V30 5333 C 495.997 -3.10982 2.99857 0
M  V30 5334 C 495.132 -4.39857 2.97824 0
M  V30 5335 C 494.171 -4.45697 4.19548 0
M  V30 5336 N 493.308 -5.65995 4.15444 0
M  V30 5337 H 498.148 -1.45895 2.59843 0
M  V30 5338 H 495.685 -0.709891 1.28837 0
M  V30 5339 H 497.643 -3.78839 1.74747 0
M  V30 5340 H 496.273 -3.12183 0.821075 0
M  V30 5341 H 495.325 -2.23991 3.07461 0
M  V30 5342 H 496.637 -3.11157 3.89849 0
M  V30 5343 H 495.791 -5.2825 2.98391 0
M  V30 5344 H 494.53 -4.42242 2.05604 0
M  V30 5345 H 493.535 -3.55707 4.19229 0
M  V30 5346 H 494.76 -4.4503 5.12957 0
M  V30 5347 H 492.706 -5.69229 3.26059 0
M  V30 5348 H 492.623 -5.67773 4.99169 0
M  V30 5349 H 493.891 -6.56604 4.20109 0
M  V30 5350 N 498.12 -1.38341 -0.754957 0
M  V30 5351 C 499.369 -1.33791 -1.5094 0
M  V30 5352 C 499.682 0.0699267 -1.95475 0
M  V30 5353 O 500.888 0.237956 -2.70455 0
M  V30 5354 C 499.344 -2.34934 -2.72643 0
M  V30 5355 C 498.952 -3.81332 -2.35138 0
M  V30 5356 C 500.696 -2.39425 -3.50536 0
M  V30 5357 C 498.603 -4.74164 -3.53444 0
M  V30 5358 H 497.533 -0.497314 -0.566741 0
M  V30 5359 H 500.184 -1.63888 -0.825403 0
M  V30 5360 H 498.566 -1.97878 -3.43017 0
M  V30 5361 H 499.74 -4.27319 -1.7244 0
M  V30 5362 H 498.055 -3.79946 -1.70382 0
M  V30 5363 H 500.652 -3.0598 -4.38498 0
M  V30 5364 H 500.995 -1.41278 -3.91594 0
M  V30 5365 H 501.528 -2.75274 -2.87174 0
M  V30 5366 H 498.267 -5.73501 -3.17453 0
M  V30 5367 H 497.787 -4.3287 -4.15191 0
M  V30 5368 H 499.466 -4.92111 -4.20043 0
M  V30 5369 N 499.598 0.982988 -1.23187 0
M  V30 5370 C 500.528 2.09301 -1.03515 0
M  V30 5371 C 501.509 1.70035 0.0471136 0
M  V30 5372 O 502.694 1.93847 -0.117029 0
M  V30 5373 C 499.824 3.4167 -0.622791 0
M  V30 5374 C 498.778 3.94828 -1.65211 0
M  V30 5375 C 498.104 5.23362 -1.09527 0
M  V30 5376 C 499.404 4.2439 -3.04451 0
M  V30 5377 H 501.098 2.26016 -1.96359 0
M  V30 5378 H 498.644 1.08611 -0.945501 0
M  V30 5379 H 500.597 4.18746 -0.472233 0
M  V30 5380 H 499.321 3.24811 0.341329 0
M  V30 5381 H 497.98 3.19895 -1.79061 0
M  V30 5382 H 497.628 5.02852 -0.122211 0
M  V30 5383 H 497.328 5.59895 -1.783 0
M  V30 5384 H 498.852 6.03062 -0.956511 0
M  V30 5385 H 500.266 4.92225 -2.93917 0
M  V30 5386 H 498.663 4.72118 -3.70438 0
M  V30 5387 H 499.733 3.31765 -3.53638 0
M  V30 5388 N 501.076 1.04316 1.18135 0
M  V30 5389 C 502.322 0.749128 1.88457 0
M  V30 5390 C 502.655 -0.72149 1.803 0
M  V30 5391 O 501.93 -1.52676 1.205 0
M  V30 5392 C 502.213 1.21905 3.38838 0
M  V30 5393 C 502.066 2.75195 3.55792 0
M  V30 5394 C 503.385 0.811085 4.32561 0
M  V30 5395 H 500.504 0.273611 0.684329 0
M  V30 5396 H 503.146 1.29561 1.38975 0
M  V30 5397 H 501.296 0.754137 3.8111 0
M  V30 5398 H 502.968 3.29743 3.22595 0
M  V30 5399 H 501.211 3.14899 2.98364 0
M  V30 5400 H 501.882 3.03135 4.61317 0
M  V30 5401 H 504.358 1.21118 3.98082 0
M  V30 5402 H 503.234 1.16761 5.36338 0
M  V30 5403 H 503.495 -0.285596 4.41177 0
M  V30 5404 N 502.554 -1.34406 0.822964 0
M  V30 5405 C 503.517 -2.2783 0.250271 0
M  V30 5406 C 504.517 -1.50288 -0.571854 0
M  V30 5407 O 505.707 -1.69825 -0.387952 0
M  V30 5408 C 502.839 -3.34663 -0.649137 0
M  V30 5409 H 504.032 -2.79992 1.07444 0
M  V30 5410 H 501.585 -1.44539 0.594829 0
M  V30 5411 H 502.32 -2.87714 -1.49637 0
M  V30 5412 H 502.105 -3.92052 -0.0611199 0
M  V30 5413 H 503.595 -4.04349 -1.04363 0
M  V30 5414 N 504.032 -0.577932 -1.46621 0
M  V30 5415 C 504.962 0.145917 -2.33044 0
M  V30 5416 C 505.943 0.888412 -1.45056 0
M  V30 5417 O 507.128 0.864812 -1.73881 0
M  V30 5418 C 504.258 1.16322 -3.27241 0
M  V30 5419 C 503.212 0.535868 -4.24632 0
M  V30 5420 C 502.538 1.65929 -5.08303 0
M  V30 5421 C 503.838 -0.523861 -5.19666 0
M  V30 5422 H 505.532 -0.575636 -2.93814 0
M  V30 5423 H 503.078 -0.278272 -1.41286 0
M  V30 5424 H 505.031 1.67793 -3.86553 0
M  V30 5425 H 503.755 1.91498 -2.64567 0
M  V30 5426 H 502.414 0.0422759 -3.66576 0
M  V30 5427 H 502.062 2.40061 -4.42018 0
M  V30 5428 H 501.762 1.2452 -5.74255 0
M  V30 5429 H 503.286 2.17686 -5.70478 0
M  V30 5430 H 504.7 -0.0944059 -5.73222 0
M  V30 5431 H 503.097 -0.858 -5.93935 0
M  V30 5432 H 504.167 -1.41197 -4.63887 0
M  V30 5433 N 505.51 1.54411 -0.315457 0
M  V30 5434 C 506.75 2.02329 0.290236 0
M  V30 5435 C 507.114 1.19878 1.49977 0
M  V30 5436 O 508.315 1.57562 2.17779 0
M  V30 5437 C 506.586 3.51912 0.623937 0
M  V30 5438 S 508.145 4.21775 1.21044 0
M  V30 5439 H 504.963 0.705499 0.0882739 0
M  V30 5440 H 507.565 1.90328 -0.446694 0
M  V30 5441 H 506.269 4.09546 -0.264624 0
M  V30 5442 H 505.8 3.67977 1.39128 0
M  V30 5443 H 507.815 4.28757 2.49764 0
M  V30 5444 N 506.988 0.0434614 1.5754 0
M  V30 5445 C 508.236 -0.630786 1.92004 0
M  V30 5446 C 508.557 -1.71836 0.921807 0
M  V30 5447 O 507.827 -1.9587 -0.034522 0
M  V30 5448 H 506.407 -0.235988 0.708745 0
M  V30 5449 H 509.069 0.0946462 1.9467 0
M  V30 5450 H 508.165 -1.07434 2.93026 0
M  V30 5451 N 508.466 -1.55915 -0.229846 0
M  V30 5452 C 509.714 -1.7819 -0.953565 0
M  V30 5453 C 510.035 -0.610504 -1.85197 0
M  V30 5454 O 509.305 0.372988 -1.92316 0
M  V30 5455 H 507.885 -0.657208 -0.355087 0
M  V30 5456 H 510.547 -1.9337 -0.243693 0
M  V30 5457 H 509.643 -2.70011 -1.56527 0
M  V30 5458 N 509.944 0.496216 -1.49584 0
M  V30 5459 C 510.892 1.61805 -1.67098 0
M  V30 5460 C 511.886 1.60667 -0.536877 0
M  V30 5461 O 513.092 1.65118 -0.716654 0
M  V30 5462 H 509.467 0.53646 -0.526986 0
M  V30 5463 H 511.438 1.44187 -2.61252 0
M  V30 5464 C 510.187 2.99912 -1.75921 0
M  V30 5465 H 509.51 3.01496 -2.62565 0
M  V30 5466 H 510.95 3.77931 -1.92209 0
M  V30 5467 C 509.409 3.33092 -0.505088 0
M  V30 5468 O 509.939 4.00019 0.367085 0
M  V30 5469 N 508.145 2.88278 -0.366599 0
M  V30 5470 H 507.692 2.33989 -1.07735 0
M  V30 5471 H 507.65 3.10846 0.47142 0
M  V30 5472 O 511.461 1.48211 0.641547 0
M  V30 5473 H 512.152 1.44016 1.29535 0
M  V30 END ATOM
M  V30 BEGIN BOND
M  V30 END BOND
M  V30 END CTAB
M  END
$$$$
