drugbank_target|Q6PHW0 Iodotyrosine deiodinase 1 (DB03374)
 OpenBabel12092120523D

  0  0  0     0  0            999 V3000
M  V30 BEGIN CTAB
M  V30 COUNTS 4740 4794 0 0 0
M  V30 BEGIN ATOM
M  V30 1 H -0.908 1.98254 -0.117106 0
M  V30 2 N 0 1.576 0 0
M  V30 3 C 0.933 2.03868 1.02534 0
M  V30 4 C 1.911 0.928543 1.3348 0
M  V30 5 O 3.095 1.19667 1.45644 0
M  V30 6 C 0.222 2.43627 2.35294 0
M  V30 7 C -0.732 3.65373 2.2001 0
M  V30 8 S 0.101 5.13292 1.52614 0
M  V30 9 C 1.257 5.56322 2.86805 0
M  V30 10 H 1.49 2.90518 0.631377 0
M  V30 11 H -0.977 1.52953 0.210867 0
M  V30 12 H 0.981 2.67203 3.11629 0
M  V30 13 H -0.358 1.57376 2.7183 0
M  V30 14 H -1.165 3.90944 3.18086 0
M  V30 15 H -1.563 3.418 1.51819 0
M  V30 16 H 0.729 5.58782 3.83104 0
M  V30 17 H 1.672 6.56266 2.65933 0
M  V30 18 H 2.08 4.83886 2.90714 0
M  V30 19 N 1.4781 -0.272755 1.55222 0
M  V30 20 C 2.7081 -1.02107 1.79604 0
M  V30 21 C 3.1161 -1.80419 0.569693 0
M  V30 22 O 2.4591 -1.77566 -0.470743 0
M  V30 23 C 2.5211 -2.02675 2.96922 0
M  V30 24 C 2.1851 -1.43299 4.33952 0
M  V30 25 C 3.1821 -0.84853 5.12929 0
M  V30 26 C 0.8671 -1.46012 4.8061 0
M  V30 27 C 2.8611 -0.299109 6.36698 0
M  V30 28 C 0.5481 -0.906833 6.04334 0
M  V30 29 C 1.5461 -0.32733 6.82215 0
M  V30 30 O 1.2341 0.217479 8.03606 0
M  V30 31 H 0.9661 -0.307322 0.602104 0
M  V30 32 H 3.5201 -0.308862 2.03065 0
M  V30 33 H 1.7501 -2.77656 2.69155 0
M  V30 34 H 3.4391 -2.63637 3.08626 0
M  V30 35 H 4.2051 -0.820265 4.78013 0
M  V30 36 H 0.0841 -1.90056 4.2 0
M  V30 37 H 3.6281 0.153852 6.9743 0
M  V30 38 H -0.4749 -0.932339 6.38731 0
M  V30 39 H 0.2931 0.106863 8.1843 0
M  V30 40 N 2.9562 -1.48159 -0.537278 0
M  V30 41 C 4.2032 -1.55804 -1.29349 0
M  V30 42 C 4.5312 -0.228802 -1.9315 0
M  V30 43 O 3.7862 0.780242 -1.79473 0
M  V30 44 C 4.0852 -2.63956 -2.40961 0
M  V30 45 C 3.7512 -4.0662 -1.94861 0
M  V30 46 C 2.4132 -4.45452 -1.82006 0
M  V30 47 C 4.7652 -4.96055 -1.59933 0
M  V30 48 C 2.0932 -5.71531 -1.32547 0
M  V30 49 C 4.4452 -6.22617 -1.11939 0
M  V30 50 C 3.1092 -6.60312 -0.976951 0
M  V30 51 H 2.3792 -0.570129 -0.473322 0
M  V30 52 H 5.0262 -1.81845 -0.600372 0
M  V30 53 H 3.3312 -2.31747 -3.15912 0
M  V30 54 H 5.0282 -2.67089 -2.99107 0
M  V30 55 H 1.6182 -3.75949 -2.05815 0
M  V30 56 H 5.8022 -4.66738 -1.68728 0
M  V30 57 H 1.0582 -5.99468 -1.202 0
M  V30 58 H 5.2322 -6.91318 -0.839811 0
M  V30 59 H 2.8592 -7.57895 -0.591501 0
M  V30 60 N 4.4343 0.785586 -1.36625 0
M  V30 61 C 5.3643 1.91259 -1.33949 0
M  V30 62 C 6.3453 1.68795 -0.210325 0
M  V30 63 O 7.5303 1.89854 -0.408561 0
M  V30 64 C 4.6603 3.28339 -1.13186 0
M  V30 65 C 3.6143 3.65335 -2.22967 0
M  V30 66 C 2.9403 5.00806 -1.87342 0
M  V30 67 C 4.2403 3.7352 -3.65075 0
M  V30 68 H 5.9343 1.93755 -2.28253 0
M  V30 69 H 3.4803 0.930788 -1.09874 0
M  V30 70 H 5.4333 4.06804 -1.09948 0
M  V30 71 H 4.1573 3.2624 -0.153332 0
M  V30 72 H 2.8163 2.89169 -2.25337 0
M  V30 73 H 2.4643 4.95233 -0.880545 0
M  V30 74 H 2.1643 5.26529 -2.60846 0
M  V30 75 H 3.6883 5.81687 -1.85667 0
M  V30 76 H 5.1023 4.42168 -3.64911 0
M  V30 77 H 3.4993 4.10731 -4.37516 0
M  V30 78 H 4.5693 2.74527 -3.99703 0
M  V30 79 N 5.9124 1.20967 1.01018 0
M  V30 80 C 7.1404 1.04956 1.78303 0
M  V30 81 C 7.5554 -0.400915 1.84494 0
M  V30 82 O 6.9124 -1.27826 1.30257 0
M  V30 83 C 6.9634 1.63403 3.22462 0
M  V30 84 O 6.6844 3.02775 3.16637 0
M  V30 85 C 8.1854 1.52432 4.16268 0
M  V30 86 H 5.4054 0.368858 0.560522 0
M  V30 87 H 7.9494 1.60193 1.27116 0
M  V30 88 H 6.1044 1.1227 3.70775 0
M  V30 89 H 6.5184 3.30626 4.07169 0
M  V30 90 H 7.9924 1.98078 5.15237 0
M  V30 91 H 8.4694 0.477875 4.36592 0
M  V30 92 H 9.0754 2.02787 3.73841 0
M  V30 93 N 7.3905 -1.2043 1.01659 0
M  V30 94 C 8.8015 -1.71517 0.737482 0
M  V30 95 C 9.1525 -1.81547 -0.743973 0
M  V30 96 O 8.2775 -1.47803 -1.58061 0
M  V30 97 C 8.8725 -3.11515 1.33206 0
M  V30 98 C 7.4315 -3.59912 1.10183 0
M  V30 99 C 6.5785 -2.37116 1.43776 0
M  V30 100 H 9.5295 -1.05444 1.18606 0
M  V30 101 H 9.5505 -3.73575 0.722636 0
M  V30 102 H 9.0625 -3.04182 2.41028 0
M  V30 103 H 7.1635 -3.72577 0.0412756 0
M  V30 104 H 7.2765 -4.44731 1.78188 0
M  V30 105 H 5.6405 -2.39857 0.856778 0
M  V30 106 H 6.4235 -2.32424 2.52654 0
M  V30 107 N 8.8686 -0.792821 -1.36206 0
M  V30 108 C 10.1176 -0.363353 -1.984 0
M  V30 109 C 10.4306 1.07172 -1.63626 0
M  V30 110 O 11.6366 1.60362 -2.19081 0
M  V30 111 C 10.0926 -0.59872 -3.54885 0
M  V30 112 C 9.7006 -2.04543 -3.9858 0
M  V30 113 C 11.4446 -0.233926 -4.23855 0
M  V30 114 C 9.3516 -2.22727 -5.47856 0
M  V30 115 H 8.2816 -0.13212 -0.742334 0
M  V30 116 H 10.9326 -0.974935 -1.55458 0
M  V30 117 H 9.3146 0.0826222 -3.95914 0
M  V30 118 H 10.4886 -2.76345 -3.68741 0
M  V30 119 H 8.8036 -2.36879 -3.42458 0
M  V30 120 H 11.4006 -0.348027 -5.33566 0
M  V30 121 H 11.7436 0.818351 -4.08177 0
M  V30 122 H 12.2766 -0.868639 -3.882 0
M  V30 123 H 9.0156 -3.2635 -5.68486 0
M  V30 124 H 8.5356 -1.55434 -5.7931 0
M  V30 125 H 10.2146 -2.03607 -6.14128 0
M  V30 126 N 10.3467 1.47872 -0.545128 0
M  V30 127 C 11.2767 2.32661 0.197793 0
M  V30 128 C 12.2577 1.43041 0.920504 0
M  V30 129 O 13.4427 1.71912 0.90333 0
M  V30 130 C 10.5727 3.24569 1.23582 0
M  V30 131 C 9.5267 4.23333 0.630323 0
M  V30 132 C 8.8527 5.0448 1.77211 0
M  V30 133 C 10.1527 5.20704 -0.407974 0
M  V30 134 H 11.8467 2.95024 -0.510045 0
M  V30 135 H 9.3927 1.4187 -0.246731 0
M  V30 136 H 11.3457 3.8272 1.76362 0
M  V30 137 H 10.0697 2.60236 1.97344 0
M  V30 138 H 8.7287 3.6639 0.123922 0
M  V30 139 H 8.3767 4.36561 2.49847 0
M  V30 140 H 8.0767 5.71339 1.37281 0
M  V30 141 H 9.6007 5.65487 2.3034 0
M  V30 142 H 11.0147 5.7329 0.033305 0
M  V30 143 H 9.4117 5.95699 -0.725486 0
M  V30 144 H 10.4817 4.66917 -1.30828 0
M  V30 145 N 11.8248 0.280983 1.55075 0
M  V30 146 C 13.0708 -0.33461 2.00021 0
M  V30 147 C 13.4038 -1.55063 1.16915 0
M  V30 148 O 12.6788 -1.93006 0.240646 0
M  V30 149 C 12.9618 -0.711007 3.53011 0
M  V30 150 C 12.8148 0.512766 4.46868 0
M  V30 151 C 14.1338 -1.54522 4.12081 0
M  V30 152 H 11.2528 -0.120147 0.727141 0
M  V30 153 H 13.8948 0.389097 1.85973 0
M  V30 154 H 12.0448 -1.32761 3.65112 0
M  V30 155 H 13.7168 1.15131 4.46702 0
M  V30 156 H 11.9598 1.14975 4.18286 0
M  V30 157 H 12.6308 0.205556 5.51617 0
M  V30 158 H 15.1068 -1.02442 4.03293 0
M  V30 159 H 13.9828 -1.77739 5.19327 0
M  V30 160 H 14.2438 -2.52813 3.62682 0
M  V30 161 N 13.3029 -1.57598 0.00835791 0
M  V30 162 C 14.2659 -2.07884 -0.965242 0
M  V30 163 C 15.2659 -0.989825 -1.26725 0
M  V30 164 O 16.4559 -1.25218 -1.21104 0
M  V30 165 C 13.5879 -2.52731 -2.28779 0
M  V30 166 H 14.7809 -2.95178 -0.530112 0
M  V30 167 H 12.3339 -1.54458 -0.239283 0
M  V30 168 H 13.0689 -1.68705 -2.76964 0
M  V30 169 H 12.8539 -3.32272 -2.08177 0
M  V30 170 H 14.3439 -2.91933 -2.98605 0
M  V30 171 N 14.781 0.264519 -1.55364 0
M  V30 172 C 16.03 0.992812 -1.75574 0
M  V30 173 C 16.343 1.87142 -0.568979 0
M  V30 174 O 17.549 2.63513 -0.653682 0
M  V30 175 C 16.005 1.81519 -3.10771 0
M  V30 176 C 15.613 0.984839 -4.37041 0
M  V30 177 C 17.357 2.53727 -3.40327 0
M  V30 178 C 15.264 1.80209 -5.63275 0
M  V30 179 H 14.194 0.374412 -0.65447 0
M  V30 180 H 16.845 0.248138 -1.81815 0
M  V30 181 H 15.227 2.60115 -2.98591 0
M  V30 182 H 16.401 0.242455 -4.60162 0
M  V30 183 H 14.716 0.37691 -4.14691 0
M  V30 184 H 17.313 3.15292 -4.3185 0
M  V30 185 H 17.656 3.24447 -2.60845 0
M  V30 186 H 18.189 1.82156 -3.53644 0
M  V30 187 H 14.928 1.13896 -6.45529 0
M  V30 188 H 14.448 2.52022 -5.44284 0
M  V30 189 H 16.127 2.37364 -6.01887 0
M  V30 190 N 16.2591 1.48442 0.529413 0
M  V30 191 C 17.1891 1.65902 1.64313 0
M  V30 192 C 18.1701 0.507897 1.6234 0
M  V30 193 O 19.3551 0.740503 1.79528 0
M  V30 194 C 16.4851 1.69911 3.02898 0
M  V30 195 C 15.4391 2.8453 3.19729 0
M  V30 196 C 14.7651 2.73629 4.59381 0
M  V30 197 C 16.0651 4.25821 3.02447 0
M  V30 198 H 17.7591 2.5914 1.49955 0
M  V30 199 H 15.3051 1.24709 0.719982 0
M  V30 200 H 17.2581 1.80715 3.80684 0
M  V30 201 H 15.9821 0.732524 3.18279 0
M  V30 202 H 14.6411 2.73283 2.44361 0
M  V30 203 H 14.2891 1.74938 4.71599 0
M  V30 204 H 13.9891 3.50541 4.71588 0
M  V30 205 H 15.5131 2.86401 5.39265 0
M  V30 206 H 16.9271 4.37898 3.70024 0
M  V30 207 H 15.3241 5.03735 3.26146 0
M  V30 208 H 16.3941 4.42244 1.98867 0
M  V30 209 N 17.7372 -0.778329 1.37039 0
M  V30 210 C 18.9772 -1.54973 1.33276 0
M  V30 211 C 19.3412 -1.91816 -0.0839376 0
M  V30 212 O 20.5422 -2.6767 -0.246228 0
M  V30 213 C 18.8132 -2.78517 2.23971 0
M  V30 214 S 20.3722 -3.6865 2.37997 0
M  V30 215 H 17.1902 -0.530639 0.473226 0
M  V30 216 H 19.7922 -0.915806 1.72723 0
M  V30 217 H 18.4962 -2.4952 3.25835 0
M  V30 218 H 18.0272 -3.46875 1.85584 0
M  V30 219 H 20.0422 -4.70182 1.58567 0
M  V30 220 N 19.2153 -1.21501 -1.00376 0
M  V30 221 C 20.4643 -1.02718 -1.73586 0
M  V30 222 C 20.7773 0.439589 -1.90596 0
M  V30 223 O 21.9833 0.746848 -2.61026 0
M  V30 224 C 20.4393 -1.78929 -3.1227 0
M  V30 225 C 20.0473 -3.29783 -3.03228 0
M  V30 226 C 21.7913 -1.68557 -3.89601 0
M  V30 227 C 19.6983 -3.98479 -4.36999 0
M  V30 228 H 18.6283 -0.380733 -0.650814 0
M  V30 229 H 21.2793 -1.45248 -1.1214 0
M  V30 230 H 19.6613 -1.29192 -3.74333 0
M  V30 231 H 20.8353 -3.86832 -2.50395 0
M  V30 232 H 19.1503 -3.40711 -2.39385 0
M  V30 233 H 21.7473 -2.17211 -4.88593 0
M  V30 234 H 22.0903 -0.644021 -4.11288 0
M  V30 235 H 22.6233 -2.15778 -3.34193 0
M  V30 236 H 19.3623 -5.02841 -4.20513 0
M  V30 237 H 18.8823 -3.46219 -4.89788 0
M  V30 238 H 20.5613 -4.03462 -5.05794 0
M  V30 239 N 20.6934 1.19889 -1.02296 0
M  V30 240 C 21.6234 2.25141 -0.619174 0
M  V30 241 C 22.6044 1.66051 0.368915 0
M  V30 242 O 23.7894 1.92546 0.252941 0
M  V30 243 C 20.9194 3.4728 0.0368783 0
M  V30 244 C 19.8734 4.19005 -0.872865 0
M  V30 245 C 19.1994 5.34637 -0.0822402 0
M  V30 246 C 20.4994 4.74452 -2.18387 0
M  V30 247 H 22.1934 2.59171 -1.49903 0
M  V30 248 H 19.7394 1.24579 -0.722222 0
M  V30 249 H 21.6924 4.20098 0.330958 0
M  V30 250 H 20.4164 3.12433 0.95149 0
M  V30 251 H 19.0754 3.48061 -1.15105 0
M  V30 252 H 18.7234 4.96034 0.83422 0
M  V30 253 H 18.4234 5.83557 -0.688149 0
M  V30 254 H 19.9474 6.10255 0.205238 0
M  V30 255 H 21.3614 5.39055 -1.95172 0
M  V30 256 H 19.7584 5.33834 -2.74119 0
M  V30 257 H 20.8284 3.92844 -2.84257 0
M  V30 258 N 22.1715 0.800033 1.35784 0
M  V30 259 C 23.4175 0.377901 1.99248 0
M  V30 260 C 23.7505 -1.05052 1.63333 0
M  V30 261 O 23.0255 -1.72768 0.893385 0
M  V30 262 C 23.3085 0.553922 3.55814 0
M  V30 263 C 23.1615 2.0268 4.01548 0
M  V30 264 C 24.4805 -0.0244802 4.40093 0
M  V30 265 H 21.5995 0.138782 0.723815 0
M  V30 266 H 24.2415 1.00835 1.61035 0
M  V30 267 H 22.3915 0.0172398 3.88496 0
M  V30 268 H 24.0635 2.62536 3.79305 0
M  V30 269 H 22.3065 2.5256 3.52698 0
M  V30 270 H 22.9775 2.10087 5.10458 0
M  V30 271 H 25.4535 0.433775 4.13833 0
M  V30 272 H 24.3295 0.128637 5.48749 0
M  V30 273 H 24.5905 -1.11758 4.27741 0
M  V30 274 N 23.6496 -1.47581 0.552962 0
M  V30 275 C 24.8956 -2.02782 0.0273648 0
M  V30 276 C 25.2286 -1.42687 -1.31734 0
M  V30 277 O 24.5036 -0.580897 -1.85623 0
M  V30 278 C 24.7866 -3.60031 -0.0702371 0
M  V30 279 C 24.6396 -4.30566 1.30126 0
M  V30 280 C 25.9586 -4.33028 -0.785771 0
M  V30 281 H 23.0776 -0.736912 0.0114185 0
M  V30 282 H 25.7196 -1.76056 0.714432 0
M  V30 283 H 23.8696 -3.82932 -0.655382 0
M  V30 284 H 25.5416 -4.19018 1.92929 0
M  V30 285 H 23.7846 -3.91086 1.87709 0
M  V30 286 H 24.4556 -5.39114 1.18573 0
M  V30 287 H 26.9316 -4.15095 -0.288982 0
M  V30 288 H 25.8076 -5.42695 -0.823013 0
M  V30 289 H 26.0686 -4.01945 -1.841 0
M  V30 290 N 25.1277 -0.289203 -1.54924 0
M  V30 291 C 26.3737 0.316922 -2.00916 0
M  V30 292 C 26.7287 1.52424 -1.17408 0
M  V30 293 O 26.0217 1.90097 -0.239536 0
M  V30 294 C 26.2157 0.736119 -3.49737 0
M  V30 295 C 26.0447 -0.429036 -4.47649 0
M  V30 296 C 24.8147 -0.917311 -4.96904 0
M  V30 297 C 27.0127 -1.27016 -4.98369 0
M  V30 298 N 24.9947 -2.05046 -5.78644 0
M  V30 299 C 26.3657 -2.25097 -5.77695 0
M  V30 300 C 28.4207 -1.30188 -4.80578 0
M  V30 301 C 27.1237 -3.26114 -6.41126 0
M  V30 302 C 29.1497 -2.30057 -5.44819 0
M  V30 303 C 28.5117 -3.2687 -6.23968 0
M  V30 304 H 24.6107 0.0807535 -0.777819 0
M  V30 305 H 27.1947 -0.416434 -1.90194 0
M  V30 306 H 25.3657 1.43867 -3.60773 0
M  V30 307 H 27.0977 1.32078 -3.82541 0
M  V30 308 H 23.8527 -0.494248 -4.71014 0
M  V30 309 H 24.2767 -2.62108 -6.24202 0
M  V30 310 H 28.9187 -0.567163 -4.18979 0
M  V30 311 H 26.6367 -4.00512 -7.01866 0
M  V30 312 H 30.2227 -2.33271 -5.32988 0
M  V30 313 H 29.1027 -4.02883 -6.72796 0
M  V30 314 N 26.6058 1.57591 -0.0167156 0
M  V30 315 C 27.8548 1.90461 0.663877 0
M  V30 316 C 28.1678 0.893515 1.73999 0
M  V30 317 O 29.3738 1.11302 2.47637 0
M  V30 318 C 27.8298 3.38155 1.23204 0
M  V30 319 C 27.4378 4.47597 0.189866 0
M  V30 320 C 29.1818 3.80111 1.88986 0
M  V30 321 C 27.0888 5.86379 0.768964 0
M  V30 322 H 26.0188 0.710738 0.251729 0
M  V30 323 H 28.6698 1.83326 -0.0799926 0
M  V30 324 H 27.0518 3.40182 2.02712 0
M  V30 325 H 28.2258 4.57112 -0.581846 0
M  V30 326 H 26.5408 4.14766 -0.368475 0
M  V30 327 H 29.1378 4.81145 2.33247 0
M  V30 328 H 29.4808 3.14511 2.72743 0
M  V30 329 H 30.0138 3.80454 1.16187 0
M  V30 330 H 26.7528 6.55493 -0.0301957 0
M  V30 331 H 26.2728 5.80496 1.50945 0
M  V30 332 H 27.9518 6.34563 1.26251 0
M  V30 333 N 28.0839 -0.256276 1.55502 0
M  V30 334 C 29.3309 -0.985619 1.76895 0
M  V30 335 C 29.6589 -1.85671 0.579355 0
M  V30 336 O 28.9139 -1.90744 -0.437651 0
M  V30 337 C 29.2129 -1.88432 3.03691 0
M  V30 338 C 28.8789 -1.16936 4.35473 0
M  V30 339 C 27.5409 -0.97173 4.71286 0
M  V30 340 C 29.8929 -0.661889 5.1698 0
M  V30 341 C 27.2209 -0.254179 5.86149 0
M  V30 342 C 29.5729 0.042149 6.32586 0
M  V30 343 C 28.2369 0.25134 6.67027 0
M  V30 344 H 27.5069 -0.360663 0.647304 0
M  V30 345 H 30.1539 -0.256483 1.89775 0
M  V30 346 H 28.4589 -2.68021 2.85783 0
M  V30 347 H 30.1559 -2.45015 3.1744 0
M  V30 348 H 26.7459 -1.33332 4.07333 0
M  V30 349 H 30.9299 -0.802145 4.89775 0
M  V30 350 H 26.1859 -0.0815408 6.11346 0
M  V30 351 H 30.3599 0.443049 6.94989 0
M  V30 352 H 27.9869 0.809314 7.5588 0
M  V30 353 N 29.562 -1.4872 -0.521534 0
M  V30 354 C 30.509 -1.63871 -1.62527 0
M  V30 355 C 31.479 -0.480559 -1.58996 0
M  V30 356 O 32.664 -0.705085 -1.77294 0
M  V30 357 C 29.804 -1.69227 -3.00759 0
M  V30 358 C 28.917 -2.96207 -3.14461 0
M  V30 359 C 28.052 -2.92671 -4.43303 0
M  V30 360 C 27.091 -4.14318 -4.50563 0
M  V30 361 N 26.228 -4.0881 -5.70805 0
M  V30 362 H 31.068 -2.58123 -1.48918 0
M  V30 363 H 28.605 -1.28 -0.724878 0
M  V30 364 H 30.563 -1.70314 -3.80853 0
M  V30 365 H 29.193 -0.784586 -3.1312 0
M  V30 366 H 28.245 -3.04826 -2.27564 0
M  V30 367 H 29.557 -3.86192 -3.15686 0
M  V30 368 H 28.711 -2.92206 -5.31696 0
M  V30 369 H 27.45 -2.00429 -4.44612 0
M  V30 370 H 26.455 -4.15049 -3.60575 0
M  V30 371 H 27.68 -5.07729 -4.50986 0
M  V30 372 H 25.626 -3.19394 -5.72995 0
M  V30 373 H 25.543 -4.92509 -5.7356 0
M  V30 374 H 26.811 -4.12418 -6.61462 0
M  V30 375 N 31.0401 0.771051 -1.3745 0
M  V30 376 C 31.9881 1.90574 -1.33358 0
M  V30 377 C 32.9821 1.67936 -0.22224 0
M  V30 378 O 34.1881 1.75717 -0.390304 0
M  V30 379 H 30.5631 0.626714 -0.415612 0
M  V30 380 H 32.5341 1.91142 -2.29144 0
M  V30 381 C 31.2831 3.27845 -1.15813 0
M  V30 382 H 30.6061 3.45842 -2.00583 0
M  V30 383 H 32.0461 4.07538 -1.17 0
M  V30 384 C 30.5051 3.36625 0.136165 0
M  V30 385 O 31.0351 3.85785 1.11949 0
M  V30 386 N 29.2411 2.89997 0.187099 0
M  V30 387 H 28.7881 2.50182 -0.613753 0
M  V30 388 H 28.7461 2.96252 1.05272 0
M  V30 389 N 32.5182 1.22032 0.997298 0
M  V30 390 C 33.4812 0.987909 2.06816 0
M  V30 391 C 34.4812 -0.0440084 1.6074 0
M  V30 392 O 35.6712 0.194053 1.73116 0
M  V30 393 C 32.8032 0.49132 3.37341 0
M  V30 394 H 33.9962 1.93803 2.28868 0
M  V30 395 H 31.5492 1.03838 1.16822 0
M  V30 396 H 32.2842 -0.463364 3.20973 0
M  V30 397 H 32.0692 1.23575 3.72118 0
M  V30 398 H 33.5592 0.348824 4.16141 0
M  V30 399 N 33.9963 -1.19345 1.0293 0
M  V30 400 C 35.2733 -1.84811 0.640642 0
M  V30 401 C 35.6533 -1.91855 -0.88062 0
M  V30 402 O 35.0013 -1.43587 -1.7775 0
M  V30 403 C 35.2113 -3.23755 1.30321 0
M  V30 404 C 36.5593 -3.99912 1.42673 0
M  V30 405 O 37.5833 -3.33155 1.26041 0
M  V30 406 O 36.4423 -5.19494 1.6967 0
M  V30 407 H 33.5363 -0.796443 0.222726 0
M  V30 408 H 36.0823 -1.26831 1.12748 0
M  V30 409 H 34.8543 -3.13466 2.34211 0
M  V30 410 H 34.4773 -3.89381 0.804261 0
M  V30 411 N 35.4744 -0.807222 -1.35358 0
M  V30 412 C 36.8904 -0.491038 -1.51858 0
M  V30 413 C 37.0904 0.987648 -1.75635 0
M  V30 414 O 36.1464 1.77265 -1.79815 0
M  V30 415 C 37.4594 -1.33695 -2.69344 0
M  V30 416 C 39.0074 -1.33246 -2.83222 0
M  V30 417 C 39.4824 -2.1625 -4.03733 0
M  V30 418 N 40.9734 -2.1379 -4.10911 0
M  V30 419 C 41.7084 -2.74772 -5.03277 0
M  V30 420 N 41.2044 -3.44684 -6.0097 0
M  V30 421 N 42.9974 -2.6441 -4.96028 0
M  V30 422 H 35.1484 -1.76485 -1.18181 0
M  V30 423 H 37.4114 -0.751199 -0.578276 0
M  V30 424 H 37.1174 -2.38634 -2.58354 0
M  V30 425 H 36.9914 -0.990618 -3.6396 0
M  V30 426 H 39.3784 -0.290911 -2.93663 0
M  V30 427 H 39.4594 -1.71866 -1.89461 0
M  V30 428 H 39.1034 -3.20445 -3.94052 0
M  V30 429 H 39.0334 -1.74989 -4.96675 0
M  V30 430 H 41.5244 -1.62923 -3.40976 0
M  V30 431 H 41.8374 -3.88501 -6.68047 0
M  V30 432 H 40.1824 -3.48788 -6.01142 0
M  V30 433 H 43.3734 -2.0938 -4.18662 0
M  V30 434 H 43.5464 -3.12225 -5.6782 0
M  V30 435 N 36.9525 1.47285 -0.560781 0
M  V30 436 C 38.1775 2.07359 -0.0410566 0
M  V30 437 C 38.6025 1.41017 1.24483 0
M  V30 438 O 37.9605 0.486368 1.74654 0
M  V30 439 C 38.0085 3.6035 0.134123 0
M  V30 440 O 37.1125 3.94681 1.19587 0
M  V30 441 H 36.4535 0.661887 -0.0529291 0
M  V30 442 H 38.9835 1.89252 -0.777482 0
M  V30 443 H 38.9935 4.0652 0.347207 0
M  V30 444 H 37.6685 4.08034 -0.805047 0
M  V30 445 H 36.2455 3.60251 0.962987 0
M  V30 446 N 38.4306 0.297415 1.54768 0
M  V30 447 C 39.3636 -0.622188 2.19554 0
M  V30 448 C 40.3416 -1.13558 1.16376 0
M  V30 449 O 41.5256 -1.20444 1.45002 0
M  V30 450 C 38.6526 -1.8509 2.83653 0
M  V30 451 C 37.6986 -1.47106 4.00328 0
M  V30 452 S 38.5316 -0.53006 5.3287 0
M  V30 453 C 39.6876 -1.76665 6.0045 0
M  V30 454 H 39.9206 -0.0717806 2.97213 0
M  V30 455 H 37.4536 0.0815678 1.54184 0
M  V30 456 H 39.4116 -2.55605 3.21211 0
M  V30 457 H 38.0726 -2.37247 2.05846 0
M  V30 458 H 37.2656 -2.38594 4.43947 0
M  V30 459 H 36.8676 -0.845885 3.64309 0
M  V30 460 H 39.1596 -2.7077 6.21039 0
M  V30 461 H 40.1026 -1.37308 6.9466 0
M  V30 462 H 40.5106 -1.94174 5.30054 0
M  V30 463 N 39.9087 -1.5758 0.0250728 0
M  V30 464 C 40.8187 -2.1343 -0.973905 0
M  V30 465 C 41.8347 -1.08556 -1.35984 0
M  V30 466 O 43.0107 -1.40592 -1.44207 0
M  V30 467 C 40.0757 -2.64703 -2.23904 0
M  V30 468 C 39.1367 -3.84276 -1.91391 0
M  V30 469 C 38.3697 -4.33095 -3.11873 0
M  V30 470 O 38.5927 -3.81107 -4.24398 0
M  V30 471 O 37.5267 -5.24984 -2.94406 0
M  V30 472 H 41.3527 -2.99057 -0.529036 0
M  V30 473 H 38.9377 -1.48118 -0.195288 0
M  V30 474 H 40.8197 -2.97769 -2.98181 0
M  V30 475 H 39.4947 -1.82161 -2.6758 0
M  V30 476 H 38.4017 -3.56143 -1.14511 0
M  V30 477 H 39.7347 -4.67968 -1.52534 0
M  V30 478 N 41.3868 0.248026 -1.55636 0
M  V30 479 C 42.3338 1.30707 -1.90222 0
M  V30 480 C 43.3038 1.47881 -0.756332 0
M  V30 481 O 44.4888 1.61883 -1.00988 0
M  V30 482 C 41.6288 2.65769 -2.20138 0
M  V30 483 C 40.7418 2.56612 -3.47526 0
M  V30 484 C 39.8768 3.8402 -3.67017 0
M  V30 485 C 38.9158 3.69476 -4.8801 0
M  V30 486 N 38.0528 4.88774 -5.04029 0
M  V30 487 H 42.8928 1.00512 -2.80538 0
M  V30 488 H 40.4298 0.485055 -1.38873 0
M  V30 489 H 42.3878 3.44386 -2.35487 0
M  V30 490 H 41.0178 2.94115 -1.33027 0
M  V30 491 H 40.0698 1.69571 -3.40514 0
M  V30 492 H 41.3818 2.41774 -4.36287 0
M  V30 493 H 40.5358 4.7108 -3.8232 0
M  V30 494 H 39.2748 4.01754 -2.76487 0
M  V30 495 H 38.2798 2.80799 -4.72686 0
M  V30 496 H 39.5048 3.53238 -5.8 0
M  V30 497 H 37.4508 5.0687 -4.16435 0
M  V30 498 H 37.3678 4.76562 -5.86877 0
M  V30 499 H 38.6358 5.77335 -5.23741 0
M  V30 500 N 42.8649 1.48995 0.513639 0
M  V30 501 C 43.8119 1.6473 1.61656 0
M  V30 502 C 44.7819 0.488984 1.58739 0
M  V30 503 O 45.9669 0.714478 1.76918 0
M  V30 504 C 43.1069 1.7082 2.99858 0
M  V30 505 C 42.2199 2.9787 3.12885 0
M  V30 506 C 41.3549 2.95017 4.41744 0
M  V30 507 C 40.3939 4.16702 4.48359 0
M  V30 508 N 39.5309 4.11832 5.68629 0
M  V30 509 H 44.3709 2.58909 1.47547 0
M  V30 510 H 41.9079 1.28382 0.71808 0
M  V30 511 H 43.8659 1.72331 3.79944 0
M  V30 512 H 42.4959 0.801181 3.12699 0
M  V30 513 H 41.5479 3.06029 2.25944 0
M  V30 514 H 42.8599 3.8786 3.13633 0
M  V30 515 H 42.0139 2.95021 5.30139 0
M  V30 516 H 40.7529 2.02784 4.43542 0
M  V30 517 H 39.7579 4.16955 3.58369 0
M  V30 518 H 40.9829 5.10113 4.48287 0
M  V30 519 H 38.9289 3.22428 5.71293 0
M  V30 520 H 38.8459 4.95543 5.7094 0
M  V30 521 H 40.1139 4.1592 6.59266 0
M  V30 522 N 44.343 -0.763751 1.37857 0
M  V30 523 C 45.29 -1.87726 1.34267 0
M  V30 524 C 46.26 -1.64807 0.206879 0
M  V30 525 O 47.445 -1.86613 0.397508 0
M  V30 526 C 44.585 -3.24896 1.16346 0
M  V30 527 C 43.698 -3.59716 2.39225 0
M  V30 528 C 42.833 -4.86137 2.14114 0
M  V30 529 C 41.872 -5.13711 3.32817 0
M  V30 530 N 41.009 -6.31323 3.07206 0
M  V30 531 H 45.849 -1.90129 2.29466 0
M  V30 532 H 43.386 -0.929433 1.14017 0
M  V30 533 H 45.344 -4.04036 1.03975 0
M  V30 534 H 43.974 -3.21847 0.247909 0
M  V30 535 H 43.026 -2.75498 2.62307 0
M  V30 536 H 44.338 -3.76027 3.27728 0
M  V30 537 H 43.492 -5.73198 1.9882 0
M  V30 538 H 42.231 -4.71945 1.22961 0
M  V30 539 H 41.236 -4.25123 3.48641 0
M  V30 540 H 42.461 -5.29807 4.24832 0
M  V30 541 H 40.407 -6.18474 2.1869 0
M  V30 542 H 40.324 -6.48087 3.89254 0
M  V30 543 H 41.592 -7.213 2.95546 0
M  V30 544 N 45.8211 -1.22559 -0.990812 0
M  V30 545 C 47.0691 -1.04933 -1.72724 0
M  V30 546 C 47.3901 0.416158 -1.90508 0
M  V30 547 O 46.6601 1.29918 -1.46622 0
M  V30 548 H 45.2401 -0.385296 -0.639965 0
M  V30 549 H 47.9021 -1.54105 -1.19322 0
M  V30 550 H 46.9981 -1.52886 -2.72089 0
M  V30 551 N 47.2992 1.18797 -1.03562 0
M  V30 552 C 48.2092 2.25913 -0.632505 0
M  V30 553 C 49.2252 1.70668 0.338882 0
M  V30 554 O 50.4012 2.00453 0.195076 0
M  V30 555 C 47.4662 3.467 0.00350942 0
M  V30 556 C 46.5272 4.17098 -1.01624 0
M  V30 557 C 45.7602 5.32119 -0.410478 0
M  V30 558 O 45.9832 5.64976 0.784725 0
M  V30 559 O 44.9172 5.9107 -1.13667 0
M  V30 560 H 48.7432 2.62648 -1.52478 0
M  V30 561 H 46.3282 1.25781 -0.806195 0
M  V30 562 H 48.2102 4.19878 0.35781 0
M  V30 563 H 46.8852 3.11798 0.869686 0
M  V30 564 H 45.7922 3.4601 -1.42224 0
M  V30 565 H 47.1252 4.55987 -1.85301 0
M  V30 566 N 48.7773 0.814389 1.34928 0
M  V30 567 C 50.1883 0.458364 1.80986 0
M  V30 568 C 50.5393 -1.02042 1.67577 0
M  V30 569 O 49.6643 -1.79352 1.21086 0
M  V30 570 C 50.2593 0.825212 3.28597 0
M  V30 571 C 48.8183 0.521677 3.72767 0
M  V30 572 C 47.9653 1.04668 2.56788 0
M  V30 573 H 50.9163 1.00533 1.22795 0
M  V30 574 H 50.9373 0.12571 3.80292 0
M  V30 575 H 50.4493 1.90154 3.38324 0
M  V30 576 H 48.5503 -0.545589 3.68584 0
M  V30 577 H 48.6633 1.05977 4.67232 0
M  V30 578 H 47.0273 0.468622 2.50352 0
M  V30 579 H 47.8103 2.12927 2.6929 0
M  V30 580 N 50.2554 -1.46986 0.568584 0
M  V30 581 C 51.6714 -1.57946 0.229189 0
M  V30 582 C 51.8714 -1.56567 -1.26843 0
M  V30 583 O 50.9274 -1.47511 -2.04931 0
M  V30 584 C 52.2404 -2.87963 0.865909 0
M  V30 585 C 53.7884 -3.01568 0.838188 0
M  V30 586 C 54.2634 -4.34301 1.45419 0
M  V30 587 N 55.7544 -4.40965 1.41788 0
M  V30 588 C 56.4894 -5.42256 1.86403 0
M  V30 589 N 55.9854 -6.50297 2.38926 0
M  V30 590 N 57.7784 -5.3337 1.77405 0
M  V30 591 H 49.9294 -1.46126 1.54146 0
M  V30 592 H 52.1924 -0.696156 0.643484 0
M  V30 593 H 51.8984 -2.94742 1.91886 0
M  V30 594 H 51.7724 -3.75423 0.365687 0
M  V30 595 H 54.1594 -2.94379 -0.206106 0
M  V30 596 H 54.2404 -2.1562 1.37629 0
M  V30 597 H 53.8844 -4.42247 2.49761 0
M  V30 598 H 53.8144 -5.19 0.891435 0
M  V30 599 H 56.3054 -3.63484 1.03381 0
M  V30 600 H 56.6184 -7.23777 2.70863 0
M  V30 601 H 54.9634 -6.51155 2.42944 0
M  V30 602 H 58.1544 -4.47865 1.3614 0
M  V30 603 H 58.3274 -6.12169 2.12492 0
M  V30 604 N 51.7335 -0.305618 -1.54608 0
M  V30 605 C 52.9615 0.304775 -2.04643 0
M  V30 606 C 53.3765 1.47167 -1.18268 0
M  V30 607 O 52.7335 1.81296 -0.209328 0
M  V30 608 C 52.7845 0.756564 -3.53495 0
M  V30 609 O 52.5055 -0.36389 -4.36586 0
M  V30 610 C 54.0065 1.43163 -4.19546 0
M  V30 611 H 51.2265 0.0655481 -0.667791 0
M  V30 612 H 53.7705 -0.446592 -1.99564 0
M  V30 613 H 51.9255 1.45794 -3.58919 0
M  V30 614 H 52.3395 -0.0113121 -5.24499 0
M  V30 615 H 53.8135 1.69886 -5.25207 0
M  V30 616 H 54.2905 2.37318 -3.69563 0
M  V30 617 H 54.8965 0.773307 -4.18211 0
M  V30 618 N 53.2116 1.57565 -0.0334293 0
M  V30 619 C 54.6276 1.56297 0.322997 0
M  V30 620 C 54.8276 1.03945 1.7262 0
M  V30 621 O 53.8836 0.688109 2.42943 0
M  V30 622 C 55.1966 3.00232 0.167664 0
M  V30 623 C 56.7446 3.12078 0.240107 0
M  V30 624 C 57.2196 4.57859 0.113513 0
M  V30 625 N 58.7106 4.62887 0.170359 0
M  V30 626 C 59.4456 5.73319 0.0962517 0
M  V30 627 N 58.9416 6.92794 -0.0291881 0
M  V30 628 N 60.7346 5.61898 0.150551 0
M  V30 629 H 52.8856 1.89923 -0.950956 0
M  V30 630 H 55.1486 0.873824 -0.367608 0
M  V30 631 H 54.8546 3.42501 -0.799102 0
M  V30 632 H 54.7286 3.654 0.936083 0
M  V30 633 H 57.1156 2.69718 1.19733 0
M  V30 634 H 57.1966 2.49623 -0.558763 0
M  V30 635 H 56.8406 5.009 -0.840314 0
M  V30 636 H 56.7706 5.18299 0.931302 0
M  V30 637 H 59.2616 3.76954 0.26728 0
M  V30 638 H 59.5746 7.7276 -0.0789252 0
M  V30 639 H 57.9196 6.94971 -0.0640299 0
M  V30 640 H 61.1106 4.67448 0.246981 0
M  V30 641 H 61.2836 6.47938 0.0893365 0
M  V30 642 N 54.6897 -0.239769 1.55765 0
M  V30 643 C 55.6527 -1.28038 1.90103 0
M  V30 644 C 56.6527 -1.40723 0.778055 0
M  V30 645 O 57.8427 -1.39301 1.04599 0
M  V30 646 C 54.9747 -2.65702 2.13577 0
M  V30 647 H 56.1677 -0.988048 2.83157 0
M  V30 648 H 53.7207 -0.479382 1.48767 0
M  V30 649 H 54.4557 -3.00063 1.23015 0
M  V30 650 H 54.2407 -2.57875 2.95369 0
M  V30 651 H 55.7307 -3.40828 2.41301 0
M  V30 652 N 56.1678 -1.49265 -0.50573 0
M  V30 653 C 57.0778 -1.68312 -1.63427 0
M  V30 654 C 58.0938 -0.565682 -1.64548 0
M  V30 655 O 59.2698 -0.839801 -1.83055 0
M  V30 656 C 56.3348 -1.74107 -2.99813 0
M  V30 657 C 55.3958 -2.97653 -3.09356 0
M  V30 658 C 54.6288 -3.03163 -4.39236 0
M  V30 659 O 54.8518 -2.16396 -5.27758 0
M  V30 660 O 53.7858 -3.9558 -4.53652 0
M  V30 661 H 57.6118 -2.63907 -1.50289 0
M  V30 662 H 55.1968 -1.32951 -0.681502 0
M  V30 663 H 57.0788 -1.803 -3.80881 0
M  V30 664 H 55.7538 -0.816901 -3.13223 0
M  V30 665 H 54.6608 -2.96981 -2.27493 0
M  V30 666 H 55.9938 -3.89535 -3.00871 0
M  V30 667 N 57.6459 0.756429 -1.3826 0
M  V30 668 C 58.6089 1.85176 -1.35065 0
M  V30 669 C 59.6089 1.58818 -0.251703 0
M  V30 670 O 60.7989 1.66615 -0.508433 0
M  V30 671 C 57.9309 3.22596 -1.10201 0
M  V30 672 H 59.1239 1.89417 -2.3251 0
M  V30 673 H 56.6769 0.95783 -1.23512 0
M  V30 674 H 57.4119 3.24025 -0.133504 0
M  V30 675 H 57.1969 3.43122 -1.89762 0
M  V30 676 H 58.6869 4.02673 -1.10654 0
M  V30 677 N 59.124 1.23083 0.984299 0
M  V30 678 C 60.54 0.992637 1.24975 0
M  V30 679 C 60.74 -0.308618 1.99123 0
M  V30 680 O 59.796 -1.02905 2.30579 0
M  V30 681 C 61.109 2.19698 2.05312 0
M  V30 682 C 62.657 2.24147 2.18465 0
M  V30 683 C 63.132 3.44157 3.02192 0
M  V30 684 N 64.623 3.44372 3.09777 0
M  V30 685 C 65.358 4.33886 3.74874 0
M  V30 686 N 64.854 5.3363 4.41827 0
M  V30 687 N 66.647 4.21639 3.71721 0
M  V30 688 H 58.798 2.06731 0.487453 0
M  V30 689 H 61.061 0.906339 0.277944 0
M  V30 690 H 60.767 3.1411 1.58201 0
M  V30 691 H 60.641 2.20465 3.06064 0
M  V30 692 H 63.028 1.30277 2.64786 0
M  V30 693 H 63.109 2.27415 1.17115 0
M  V30 694 H 62.753 4.38332 2.56568 0
M  V30 695 H 62.683 3.3813 4.03702 0
M  V30 696 H 65.174 2.72201 2.62135 0
M  V30 697 H 65.487 5.98196 4.89266 0
M  V30 698 H 63.832 5.37534 4.40548 0
M  V30 699 H 67.023 3.42962 3.18582 0
M  V30 700 H 67.196 4.91604 4.22173 0
M  V30 701 N 60.6021 -1.18246 1.0419 0
M  V30 702 C 62.0131 -1.69914 0.773698 0
M  V30 703 C 62.3641 -1.83085 -0.705297 0
M  V30 704 O 61.4891 -1.51123 -1.5489 0
M  V30 705 C 62.0841 -3.08619 1.39784 0
M  V30 706 C 60.6431 -3.57494 1.17792 0
M  V30 707 C 59.7901 -2.34013 1.48773 0
M  V30 708 H 62.7411 -1.02904 1.20816 0
M  V30 709 H 62.7621 -3.71958 0.801714 0
M  V30 710 H 62.2741 -2.99001 2.47426 0
M  V30 711 H 60.3751 -3.72406 0.120295 0
M  V30 712 H 60.4881 -4.40852 1.87581 0
M  V30 713 H 58.8521 -2.37986 0.907463 0
M  V30 714 H 59.6351 -2.27013 2.57527 0
M  V30 715 N 62.0802 -0.821533 -1.34494 0
M  V30 716 C 63.3262 -0.418729 -1.99043 0
M  V30 717 C 63.6812 1.00672 -1.6396 0
M  V30 718 O 62.9742 1.69132 -0.900271 0
M  V30 719 C 63.1682 -0.556512 -3.53041 0
M  V30 720 C 62.9972 -1.9938 -4.03085 0
M  V30 721 C 61.7672 -2.62539 -4.31742 0
M  V30 722 C 63.9652 -2.96035 -4.20556 0
M  V30 723 N 61.9472 -3.97523 -4.67813 0
M  V30 724 C 63.3182 -4.15924 -4.59791 0
M  V30 725 C 65.3732 -2.9267 -4.02801 0
M  V30 726 C 64.0762 -5.32899 -4.83126 0
M  V30 727 C 66.1022 -4.08861 -4.27302 0
M  V30 728 C 65.4642 -5.275 -4.66822 0
M  V30 729 H 61.5632 -0.201299 -0.755647 0
M  V30 730 H 64.1472 -1.06594 -1.62929 0
M  V30 731 H 62.3182 0.0607924 -3.88352 0
M  V30 732 H 64.0502 -0.126842 -4.04501 0
M  V30 733 H 60.8052 -2.13789 -4.22601 0
M  V30 734 H 61.2292 -4.67061 -4.90085 0
M  V30 735 H 65.8712 -2.02088 -3.71376 0
M  V30 736 H 63.5892 -6.24041 -5.13418 0
M  V30 737 H 67.1752 -4.07654 -4.15101 0
M  V30 738 H 66.0552 -6.15913 -4.85408 0
M  V30 739 N 63.5583 1.46682 -0.576371 0
M  V30 740 C 64.8043 2.02712 -0.0596221 0
M  V30 741 C 65.1373 1.44765 1.29448 0
M  V30 742 O 64.4123 0.610355 1.84675 0
M  V30 743 C 64.6953 3.60098 0.0129503 0
M  V30 744 C 64.5483 4.28441 -1.3696 0
M  V30 745 C 65.8673 4.34224 0.71678 0
M  V30 746 H 62.9863 0.736637 -0.0231407 0
M  V30 747 H 65.6283 1.74898 -0.742351 0
M  V30 748 H 63.7783 3.83926 0.594378 0
M  V30 749 H 65.4503 4.15896 -1.9957 0
M  V30 750 H 63.6933 3.8805 -1.93907 0
M  V30 751 H 64.3643 5.3716 -1.27135 0
M  V30 752 H 66.8403 4.15503 0.222908 0
M  V30 753 H 65.7163 5.43936 0.73657 0
M  V30 754 H 65.9773 4.04823 1.77682 0
M  V30 755 N 65.0364 0.313813 1.54444 0
M  V30 756 C 66.3134 -0.345447 1.92525 0
M  V30 757 C 66.6934 -1.70667 1.24242 0
M  V30 758 O 66.0414 -2.25273 0.382654 0
M  V30 759 C 66.2514 -0.44737 3.46121 0
M  V30 760 C 67.5994 -0.712238 4.18584 0
M  V30 761 O 68.6234 -0.530678 3.52225 0
M  V30 762 O 67.4824 -1.06183 5.36085 0
M  V30 763 H 64.5764 -0.195407 0.803583 0
M  V30 764 H 67.1224 0.362813 1.65776 0
M  V30 765 H 65.8944 0.509043 3.87975 0
M  V30 766 H 65.5174 -1.20359 3.78945 0
M  V30 767 N 66.5145 -1.57545 0.0417849 0
M  V30 768 C 67.4245 -2.14451 -0.951213 0
M  V30 769 C 68.4405 -1.09992 -1.34825 0
M  V30 770 O 69.6165 -1.42114 -1.42708 0
M  V30 771 C 66.6815 -2.67063 -2.21084 0
M  V30 772 C 65.7425 -3.86284 -1.87304 0
M  V30 773 C 64.9755 -4.36378 -3.07261 0
M  V30 774 O 65.1985 -3.85587 -4.20332 0
M  V30 775 O 64.1325 -5.28077 -2.88822 0
M  V30 776 H 67.9585 -2.99601 -0.497287 0
M  V30 777 H 65.5435 -1.48317 -0.179567 0
M  V30 778 H 67.4255 -3.00914 -2.95006 0
M  V30 779 H 66.1005 -1.84989 -2.65633 0
M  V30 780 H 65.0075 -3.57338 -1.10727 0
M  V30 781 H 66.3405 -4.6956 -1.47562 0
M  V30 782 N 67.9926 0.231505 -1.5589 0
M  V30 783 C 69.2696 0.981096 -1.69215 0
M  V30 784 C 69.6496 2.02799 -0.586164 0
M  V30 785 O 68.9976 2.24823 0.408253 0
M  V30 786 C 69.2076 1.60054 -3.10135 0
M  V30 787 C 70.5556 2.09658 -3.69227 0
M  V30 788 O 71.5796 1.69967 -3.13033 0
M  V30 789 O 70.4386 2.8258 -4.67772 0
M  V30 790 H 67.5326 0.457653 -0.688827 0
M  V30 791 H 70.0786 0.224073 -1.68214 0
M  V30 792 H 68.8506 0.844105 -3.82087 0
M  V30 793 H 68.4736 2.42336 -3.15212 0
M  V30 794 N 69.4707 1.49531 0.497807 0
M  V30 795 C 70.4007 1.6935 1.60757 0
M  V30 796 C 71.3817 0.542218 1.61227 0
M  V30 797 O 72.5667 0.778417 1.77917 0
M  V30 798 C 69.6967 1.76298 2.99226 0
M  V30 799 C 68.6507 2.91248 3.13622 0
M  V30 800 C 67.9767 2.83312 4.53474 0
M  V30 801 C 69.2767 4.3214 2.93346 0
M  V30 802 H 70.9707 2.62263 1.44425 0
M  V30 803 H 68.5167 1.26208 0.693367 0
M  V30 804 H 70.4697 1.88749 3.76765 0
M  V30 805 H 69.1937 0.799871 3.16654 0
M  V30 806 H 67.8527 2.78404 2.38509 0
M  V30 807 H 67.5007 1.84902 4.67782 0
M  V30 808 H 67.2007 3.60465 4.64046 0
M  V30 809 H 68.7247 2.97775 5.33069 0
M  V30 810 H 70.1387 4.45649 3.60652 0
M  V30 811 H 68.5357 5.1054 3.15387 0
M  V30 812 H 69.6057 4.46363 1.89441 0
M  V30 813 N 70.9488 -0.749086 1.3866 0
M  V30 814 C 71.8958 -1.86291 1.36251 0
M  V30 815 C 72.8658 -1.64578 0.224347 0
M  V30 816 O 74.0508 -1.86181 0.417279 0
M  V30 817 C 71.1908 -3.23644 1.19786 0
M  V30 818 C 70.3038 -3.57158 2.43027 0
M  V30 819 C 69.4388 -4.83838 2.19258 0
M  V30 820 C 68.4778 -5.10152 3.38247 0
M  V30 821 N 67.6148 -6.28029 3.13884 0
M  V30 822 H 72.4548 -1.87685 2.3147 0
M  V30 823 H 69.9918 -0.917287 1.14997 0
M  V30 824 H 71.9498 -4.0291 1.08254 0
M  V30 825 H 70.5798 -3.21566 0.282031 0
M  V30 826 H 69.6318 -2.72701 2.65214 0
M  V30 827 H 70.9438 -3.7253 3.31697 0
M  V30 828 H 70.0978 -5.71057 2.04888 0
M  V30 829 H 68.8368 -4.70614 1.2796 0
M  V30 830 H 67.8418 -4.21401 3.53131 0
M  V30 831 H 69.0668 -5.25271 4.30427 0
M  V30 832 H 67.0128 -6.1612 2.25238 0
M  V30 833 H 66.9298 -6.43922 3.96106 0
M  V30 834 H 68.1978 -7.18124 3.03179 0
M  V30 835 N 72.4269 -1.23603 -0.977757 0
M  V30 836 C 73.7039 -0.977897 -1.69401 0
M  V30 837 C 74.0839 0.502738 -2.05026 0
M  V30 838 O 73.4319 1.47459 -1.74551 0
M  V30 839 C 73.6419 -1.89077 -2.93345 0
M  V30 840 C 74.9899 -2.15579 -3.65802 0
M  V30 841 O 76.0139 -1.86648 -3.03383 0
M  V30 842 O 74.8729 -2.64658 -4.78141 0
M  V30 843 H 71.9669 -0.369025 -0.740101 0
M  V30 844 H 74.5129 -1.34657 -1.03274 0
M  V30 845 H 73.2849 -2.89158 -2.63634 0
M  V30 846 H 72.9079 -1.52463 -3.67207 0
M  V30 847 N 73.905 1.17692 -1.04816 0
M  V30 848 C 75.13 1.92327 -0.776207 0
M  V30 849 C 75.555 1.76082 0.661581 0
M  V30 850 O 74.913 1.076 1.45917 0
M  V30 851 C 74.961 3.41539 -1.15687 0
M  V30 852 O 74.065 4.11402 -0.286775 0
M  V30 853 H 73.406 0.599735 -0.284981 0
M  V30 854 H 75.936 1.49201 -1.4 0
M  V30 855 H 75.946 3.92269 -1.12202 0
M  V30 856 H 74.621 3.52684 -2.20425 0
M  V30 857 H 73.198 3.70939 -0.381903 0
M  V30 858 N 75.3831 0.828654 1.34056 0
M  V30 859 C 76.6081 0.431637 2.02859 0
M  V30 860 C 77.0331 -0.956339 1.61975 0
M  V30 861 O 76.3911 -1.62338 0.807228 0
M  V30 862 C 76.4391 0.548323 3.56407 0
M  V30 863 O 75.5431 -0.429556 4.10157 0
M  V30 864 H 74.8841 0.176886 0.640006 0
M  V30 865 H 77.4141 1.12066 1.71179 0
M  V30 866 H 77.4241 0.426196 4.05768 0
M  V30 867 H 76.0991 1.5606 3.8551 0
M  V30 868 H 74.6761 -0.265836 3.71951 0
M  V30 869 N 76.8612 -1.46375 0.584142 0
M  V30 870 C 78.1382 -1.956 0.0033388 0
M  V30 871 C 78.5182 -1.52679 -1.45782 0
M  V30 872 O 77.8662 -0.77816 -2.14842 0
M  V30 873 C 78.0762 -3.48551 0.176891 0
M  V30 874 C 79.4242 -4.24576 0.0454609 0
M  V30 875 O 80.4482 -3.56043 0.105801 0
M  V30 876 O 79.3072 -5.46427 -0.0890376 0
M  V30 877 H 76.4012 -0.825547 -0.0490066 0
M  V30 878 H 78.9472 -1.56652 0.65256 0
M  V30 879 H 77.7192 -3.72683 1.1926 0
M  V30 880 H 77.3422 -3.94332 -0.508695 0
M  V30 881 N 78.3393 -0.321999 -1.54275 0
M  V30 882 C 79.2693 0.537411 -2.27231 0
M  V30 883 C 80.2503 1.12064 -1.27968 0
M  V30 884 O 81.4353 1.14606 -1.56777 0
M  V30 885 C 78.5653 1.69919 -3.02894 0
M  V30 886 C 77.5193 1.24534 -4.09482 0
M  V30 887 C 76.8453 2.49394 -4.72977 0
M  V30 888 C 78.1453 0.361335 -5.21049 0
M  V30 889 H 79.8393 -0.0711406 -2.99315 0
M  V30 890 H 77.3853 -0.0356555 -1.43956 0
M  V30 891 H 79.3383 2.30668 -3.52662 0
M  V30 892 H 78.0623 2.33431 -2.28424 0
M  V30 893 H 76.7213 0.660782 -3.60596 0
M  V30 894 H 76.3693 3.11265 -3.95124 0
M  V30 895 H 76.0693 2.19718 -5.44975 0
M  V30 896 H 77.5933 3.10908 -5.25517 0
M  V30 897 H 79.0073 0.875072 -5.66582 0
M  V30 898 H 77.4043 0.157428 -5.99893 0
M  V30 899 H 78.4743 -0.60822 -4.8107 0
M  V30 900 N 79.8174 1.5752 -0.0501392 0
M  V30 901 C 80.7674 2.07981 0.934231 0
M  V30 902 C 81.7514 0.984745 1.27246 0
M  V30 903 O 82.9434 1.24809 1.25506 0
M  V30 904 C 80.0724 2.62751 2.20945 0
M  V30 905 C 79.1584 3.79225 1.89865 0
M  V30 906 N 79.5494 4.89036 1.29142 0
M  V30 907 C 77.8474 3.88111 2.19741 0
M  V30 908 C 78.5484 5.70084 1.15669 0
M  V30 909 N 77.5244 5.17659 1.65923 0
M  V30 910 H 81.3264 2.90277 0.460053 0
M  V30 911 H 78.8404 1.61665 0.15434 0
M  V30 912 H 80.8374 2.97205 2.9236 0
M  V30 913 H 79.4974 1.81894 2.6897 0
M  V30 914 H 80.5084 5.08854 0.963756 0
M  V30 915 H 77.1854 3.18194 2.70293 0
M  V30 916 H 78.5754 6.68395 0.685356 0
M  V30 917 N 81.2955 -0.223234 1.56011 0
M  V30 918 C 82.2275 -1.30006 1.88762 0
M  V30 919 C 83.2405 -1.43129 0.775746 0
M  V30 920 O 84.4295 -1.44057 1.05403 0
M  V30 921 C 81.5295 -2.67589 2.07965 0
M  V30 922 C 80.7025 -2.76434 3.38973 0
M  V30 923 C 79.7615 -3.95019 3.47629 0
M  V30 924 O 78.7875 -3.83436 4.20672 0
M  V30 925 N 79.9895 -5.09249 2.78649 0
M  V30 926 H 82.7545 -1.02238 2.81722 0
M  V30 927 H 80.3155 -0.413278 1.56536 0
M  V30 928 H 82.3075 -3.45297 2.11073 0
M  V30 929 H 80.8775 -2.87964 1.21638 0
M  V30 930 H 80.0975 -1.85216 3.47978 0
M  V30 931 H 81.3855 -2.79313 4.25278 0
M  V30 932 H 80.7835 -5.21556 2.19081 0
M  V30 933 H 79.3405 -5.85007 2.8742 0
M  V30 934 N 82.7736 -1.49793 -0.48987 0
M  V30 935 C 83.7366 -1.66752 -1.57246 0
M  V30 936 C 84.7366 -0.538867 -1.51502 0
M  V30 937 O 85.9266 -0.805545 -1.54456 0
M  V30 938 C 83.0586 -1.67528 -2.96896 0
M  V30 939 H 84.2516 -2.63321 -1.43534 0
M  V30 940 H 81.8046 -1.38992 -0.714914 0
M  V30 941 H 82.5396 -0.725837 -3.16073 0
M  V30 942 H 82.3246 -2.49504 -3.02473 0
M  V30 943 H 83.8146 -1.82667 -3.7553 0
M  V30 944 N 84.2517 0.741722 -1.39055 0
M  V30 945 C 85.1617 1.88621 -1.39496 0
M  V30 946 C 86.1777 1.71557 -0.290578 0
M  V30 947 O 87.3537 1.94275 -0.530954 0
M  V30 948 C 84.4187 3.24134 -1.23037 0
M  V30 949 C 83.4797 3.5364 -2.43387 0
M  V30 950 C 82.7127 4.82687 -2.27703 0
M  V30 951 O 82.9357 5.55922 -1.27696 0
M  V30 952 O 81.8697 5.1194 -3.16545 0
M  V30 953 H 85.6957 1.91203 -2.35956 0
M  V30 954 H 83.2807 0.888625 -1.20099 0
M  V30 955 H 85.1627 4.0513 -1.15964 0
M  V30 956 H 83.8377 3.22337 -0.296691 0
M  V30 957 H 82.7447 2.72758 -2.56035 0
M  V30 958 H 84.0777 3.60209 -3.35425 0
M  V30 959 N 85.7298 1.2412 0.971189 0
M  V30 960 C 86.6398 1.04747 2.09917 0
M  V30 961 C 87.6558 -0.0107162 1.73997 0
M  V30 962 O 88.8318 0.186714 2.00533 0
M  V30 963 C 85.8968 0.650828 3.40537 0
M  V30 964 C 84.9578 1.7851 3.90426 0
M  V30 965 C 84.1908 1.40729 5.14812 0
M  V30 966 O 84.4138 0.29557 5.69634 0
M  V30 967 O 83.3478 2.23168 5.58999 0
M  V30 968 H 87.1738 1.99304 2.29154 0
M  V30 969 H 84.7588 1.02908 1.08307 0
M  V30 970 H 86.6408 0.440992 4.19086 0
M  V30 971 H 85.3158 -0.265649 3.22608 0
M  V30 972 H 84.2228 2.04966 3.12953 0
M  V30 973 H 85.5558 2.68023 4.12825 0
M  V30 974 N 87.2079 -1.17134 1.05439 0
M  V30 975 C 88.4849 -1.83411 0.679699 0
M  V30 976 C 88.8649 -1.9368 -0.839726 0
M  V30 977 O 88.2129 -1.47325 -1.74664 0
M  V30 978 C 88.4229 -3.20918 1.37159 0
M  V30 979 C 89.7709 -3.96796 1.51123 0
M  V30 980 O 90.7949 -3.30406 1.3308 0
M  V30 981 O 89.6539 -5.15778 1.80651 0
M  V30 982 H 86.7479 -0.79154 0.239569 0
M  V30 983 H 89.2939 -1.24411 1.15413 0
M  V30 984 H 88.0659 -3.08428 2.40807 0
M  V30 985 H 87.6889 -3.87587 0.886674 0
M  V30 986 N 88.686 -0.835752 -1.33615 0
M  V30 987 C 89.649 -0.272 -2.2758 0
M  V30 988 C 90.649 0.557487 -1.50827 0
M  V30 989 O 91.839 0.37173 -1.70188 0
M  V30 990 C 88.971 0.617173 -3.35267 0
M  V30 991 H 90.164 -1.10111 -2.78954 0
M  V30 992 H 87.717 -0.608594 -1.43965 0
M  V30 993 H 88.452 1.46884 -2.89129 0
M  V30 994 H 88.237 0.0237066 -3.92093 0
M  V30 995 H 89.727 1.005 -4.05326 0
M  V30 996 N 90.1641 1.46063 -0.591896 0
M  V30 997 C 91.4411 1.95595 -0.0137119 0
M  V30 998 C 91.8211 1.5345 1.4497 0
M  V30 999 O 91.1691 0.789543 2.14426 0
M  V30 1000 C 91.3791 3.48453 -0.195373 0
M  V30 1001 C 92.7271 4.24546 -0.0679765 0
M  V30 1002 O 93.7511 3.55982 -0.124681 0
M  V30 1003 O 92.6101 5.46467 0.0600579 0
M  V30 1004 H 89.7041 0.825795 0.0446279 0
M  V30 1005 H 92.2501 1.56303 -0.660859 0
M  V30 1006 H 91.0221 3.72045 -1.21235 0
M  V30 1007 H 90.6451 3.94597 0.487775 0
M  V30 1008 N 91.6422 0.330177 1.54103 0
M  V30 1009 C 92.5522 -0.541534 2.28264 0
M  V30 1010 C 93.5682 -1.12351 1.32866 0
M  V30 1011 O 94.7442 -1.14206 1.65888 0
M  V30 1012 C 91.8092 -1.68322 3.03098 0
M  V30 1013 C 90.8702 -1.13238 4.14096 0
M  V30 1014 C 90.1032 -2.21966 4.85352 0
M  V30 1015 O 90.3262 -3.42437 4.56172 0
M  V30 1016 O 89.2602 -1.87013 5.7211 0
M  V30 1017 H 93.0862 0.060938 3.03639 0
M  V30 1018 H 90.6712 0.09565 1.49093 0
M  V30 1019 H 92.5532 -2.34777 3.49939 0
M  V30 1020 H 91.2282 -2.27176 2.30593 0
M  V30 1021 H 90.1352 -0.432736 3.71589 0
M  V30 1022 H 91.4682 -0.588898 4.88664 0
M  V30 1023 N 93.1203 -1.57491 0.0584922 0
M  V30 1024 C 94.3663 -1.94081 -0.608617 0
M  V30 1025 C 94.7213 -0.937438 -1.68017 0
M  V30 1026 O 94.0143 0.0423034 -1.91553 0
M  V30 1027 C 94.2083 -3.3513 -1.24188 0
M  V30 1028 C 94.0373 -4.49095 -0.233187 0
M  V30 1029 C 92.8073 -5.04988 0.177439 0
M  V30 1030 C 95.0053 -5.1162 0.524306 0
M  V30 1031 N 92.9873 -6.02487 1.17823 0
M  V30 1032 C 94.3583 -6.04493 1.37796 0
M  V30 1033 C 96.4133 -4.94489 0.581822 0
M  V30 1034 C 95.1163 -6.82075 2.28399 0
M  V30 1035 C 97.1423 -5.72703 1.47531 0
M  V30 1036 C 96.5043 -6.65214 2.31667 0
M  V30 1037 H 92.6033 -0.75752 -0.194134 0
M  V30 1038 H 95.1873 -1.94248 0.132533 0
M  V30 1039 H 93.3583 -3.35726 -1.95302 0
M  V30 1040 H 95.0903 -3.5899 -1.86838 0
M  V30 1041 H 91.8453 -4.73165 -0.203004 0
M  V30 1042 H 92.2693 -6.55933 1.67573 0
M  V30 1043 H 96.9113 -4.22765 -0.054443 0
M  V30 1044 H 94.6293 -7.53085 2.93067 0
M  V30 1045 H 98.2153 -5.61472 1.52448 0
M  V30 1046 H 97.0953 -7.24679 2.99683 0
M  V30 1047 N 94.5984 0.214957 -1.56127 0
M  V30 1048 C 95.5304 1.29004 -1.89448 0
M  V30 1049 C 96.5434 1.42716 -0.783326 0
M  V30 1050 O 97.7324 1.43496 -1.06166 0
M  V30 1051 C 94.8324 2.66482 -2.09381 0
M  V30 1052 C 94.0054 2.74633 -3.40434 0
M  V30 1053 C 93.0644 3.9317 -3.49719 0
M  V30 1054 O 92.0904 3.812 -4.227 0
M  V30 1055 N 93.2924 5.07765 -2.81346 0
M  V30 1056 H 96.0574 1.00743 -2.82261 0
M  V30 1057 H 93.6184 0.40497 -1.56753 0
M  V30 1058 H 95.6104 3.44173 -2.12901 0
M  V30 1059 H 94.1804 2.87314 -1.23163 0
M  V30 1060 H 93.4004 1.83368 -3.48955 0
M  V30 1061 H 94.6884 2.77054 -4.26754 0
M  V30 1062 H 94.0864 5.20386 -2.21843 0
M  V30 1063 H 92.6434 5.83474 -2.90519 0
M  V30 1064 N 96.0765 1.50051 0.48192 0
M  V30 1065 C 96.9865 1.7089 1.60728 0
M  V30 1066 C 98.0025 0.591788 1.63627 0
M  V30 1067 O 99.1785 0.868817 1.81696 0
M  V30 1068 C 96.2435 1.78855 2.97005 0
M  V30 1069 C 95.3045 3.02537 3.04581 0
M  V30 1070 C 94.5375 3.10112 4.34357 0
M  V30 1071 O 94.7605 2.24765 5.24249 0
M  V30 1072 O 93.6945 4.02747 4.47301 0
M  V30 1073 H 97.5205 2.66264 1.46072 0
M  V30 1074 H 95.1055 1.34018 0.660264 0
M  V30 1075 H 96.9875 1.86336 3.77964 0
M  V30 1076 H 95.6625 0.866628 3.11883 0
M  V30 1077 H 94.5695 3.00563 2.22739 0
M  V30 1078 H 95.9025 3.94272 2.94636 0
M  V30 1079 N 97.5546 -0.734337 1.39446 0
M  V30 1080 C 98.7796 -1.52866 1.40167 0
M  V30 1081 C 99.2046 -1.881 -0.00171513 0
M  V30 1082 O 98.5626 -1.51957 -0.988879 0
M  V30 1083 C 98.6106 -2.79235 2.28167 0
M  V30 1084 O 97.7146 -3.75185 1.71201 0
M  V30 1085 H 97.0556 -0.461618 0.477289 0
M  V30 1086 H 99.5856 -0.905949 1.8345 0
M  V30 1087 H 99.5956 -3.27963 2.42702 0
M  V30 1088 H 98.2706 -2.52923 3.30156 0
M  V30 1089 H 96.8476 -3.33958 1.65912 0
M  V30 1090 N 99.0327 -1.24633 -0.964593 0
M  V30 1091 C 99.9427 -1.05859 -2.09359 0
M  V30 1092 C 100.959 0.00148855 -1.74 0
M  V30 1093 O 102.135 -0.197346 -2.00431 0
M  V30 1094 C 99.1997 -0.668879 -3.40187 0
M  V30 1095 C 98.2607 -1.80578 -3.89474 0
M  V30 1096 C 97.4937 -1.43457 -5.14058 0
M  V30 1097 O 97.7167 -0.325775 -5.69469 0
M  V30 1098 O 96.6507 -2.2613 -5.57807 0
M  V30 1099 H 100.477 -2.00516 -2.28094 0
M  V30 1100 H 98.0617 -1.03481 -1.0776 0
M  V30 1101 H 99.9437 -0.463211 -4.18846 0
M  V30 1102 H 98.6187 0.248536 -3.22744 0
M  V30 1103 H 97.5257 -2.06623 -3.11862 0
M  V30 1104 H 98.8587 -2.70208 -4.11398 0
M  V30 1105 N 100.511 1.16574 -1.06058 0
M  V30 1106 C 101.421 2.2452 -0.680282 0
M  V30 1107 C 102.437 1.71348 0.302604 0
M  V30 1108 O 103.613 2.00822 0.152513 0
M  V30 1109 C 100.678 3.46629 -0.0700315 0
M  V30 1110 C 99.7388 4.14849 -1.10448 0
M  V30 1111 C 98.9718 5.31129 -0.523256 0
M  V30 1112 O 99.1948 5.66514 0.664709 0
M  V30 1113 O 98.1288 5.88526 -1.26179 0
M  V30 1114 H 101.955 2.59355 -1.58015 0
M  V30 1115 H 99.5398 1.24043 -0.832694 0
M  V30 1116 H 101.422 4.20543 0.268667 0
M  V30 1117 H 100.097 3.13573 0.803353 0
M  V30 1118 H 99.0038 3.42916 -1.49532 0
M  V30 1119 H 100.337 4.51954 -1.94931 0
M  V30 1120 N 101.989 0.842826 1.3317 0
M  V30 1121 C 102.937 0.267495 2.31057 0
M  V30 1122 C 103.931 -0.602682 1.58316 0
M  V30 1123 O 105.137 -0.491803 1.73151 0
M  V30 1124 H 101.512 0.0677813 0.748939 0
M  V30 1125 H 103.483 1.10754 2.77085 0
M  V30 1126 C 102.232 -0.539331 3.43492 0
M  V30 1127 H 101.555 0.12095 3.99617 0
M  V30 1128 H 102.995 -0.90767 4.14171 0
M  V30 1129 C 101.454 -1.71981 2.89697 0
M  V30 1130 O 101.984 -2.81862 2.86211 0
M  V30 1131 N 100.19 -1.54299 2.46252 0
M  V30 1132 H 99.7369 -0.649143 2.49287 0
M  V30 1133 H 99.6949 -2.33431 2.10612 0
M  V30 1134 N 103.467 -1.45747 0.599634 0
M  V30 1135 C 104.713 -2.02592 0.0918643 0
M  V30 1136 C 105.046 -1.46806 -1.27128 0
M  V30 1137 O 104.321 -0.639658 -1.83681 0
M  V30 1138 C 104.604 -3.60073 0.0443398 0
M  V30 1139 C 104.457 -4.26208 1.43759 0
M  V30 1140 C 105.776 -4.35309 -0.647608 0
M  V30 1141 H 102.895 -0.736175 0.034857 0
M  V30 1142 H 105.537 -1.73694 0.770081 0
M  V30 1143 H 103.687 -3.84823 -0.533224 0
M  V30 1144 H 105.359 -4.12668 2.06162 0
M  V30 1145 H 103.602 -3.84916 2.00056 0
M  V30 1146 H 104.273 -5.35069 1.35665 0
M  V30 1147 H 106.749 -4.15805 -0.156776 0
M  V30 1148 H 105.625 -5.45038 -0.649942 0
M  V30 1149 H 105.886 -4.07598 -1.71219 0
M  V30 1150 N 104.945 -0.338344 -1.53925 0
M  V30 1151 C 105.855 0.529421 -2.28548 0
M  V30 1152 C 106.871 1.11645 -1.3346 0
M  V30 1153 O 108.047 1.13325 -1.66492 0
M  V30 1154 C 105.112 1.66713 -3.03987 0
M  V30 1155 C 104.173 1.11041 -4.14691 0
M  V30 1156 C 103.406 2.19389 -4.86522 0
M  V30 1157 O 103.629 3.40013 -4.57982 0
M  V30 1158 O 102.563 1.83976 -5.73094 0
M  V30 1159 H 106.389 -0.0770399 -3.03602 0
M  V30 1160 H 103.974 -0.103555 -1.49041 0
M  V30 1161 H 105.856 2.32918 -3.5118 0
M  V30 1162 H 104.531 2.25949 -2.31794 0
M  V30 1163 H 103.438 0.413024 -3.71813 0
M  V30 1164 H 104.771 0.562975 -4.8897 0
M  V30 1165 N 106.423 1.57458 -0.0668435 0
M  V30 1166 C 107.373 2.0896 0.912119 0
M  V30 1167 C 108.357 0.998186 1.26195 0
M  V30 1168 O 109.549 1.26133 1.24175 0
M  V30 1169 C 106.678 2.6508 2.18145 0
M  V30 1170 C 105.764 3.81218 1.85832 0
M  V30 1171 N 106.155 4.90378 1.23948 0
M  V30 1172 C 104.453 3.9042 2.15612 0
M  V30 1173 C 105.154 5.71279 1.09616 0
M  V30 1174 N 104.13 5.19389 1.60423 0
M  V30 1175 H 107.932 2.90749 0.42924 0
M  V30 1176 H 105.446 1.6182 0.137184 0
M  V30 1177 H 107.443 3.0029 2.89192 0
M  V30 1178 H 106.103 1.84736 2.67025 0
M  V30 1179 H 107.114 5.09847 0.909731 0
M  V30 1180 H 103.791 3.21043 2.66903 0
M  V30 1181 H 105.181 6.69085 0.614425 0
M  V30 1182 N 107.901 -0.206675 1.56239 0
M  V30 1183 C 109.15 -0.926964 1.79138 0
M  V30 1184 C 109.463 -1.84901 0.638043 0
M  V30 1185 O 110.669 -2.60906 0.751033 0
M  V30 1186 C 109.125 -1.6986 3.17294 0
M  V30 1187 C 108.733 -0.821956 4.40395 0
M  V30 1188 C 110.477 -2.40922 3.4951 0
M  V30 1189 C 108.384 -1.59179 5.69575 0
M  V30 1190 H 107.314 -0.349864 0.667915 0
M  V30 1191 H 109.965 -0.180487 1.8261 0
M  V30 1192 H 108.347 -2.48853 3.08039 0
M  V30 1193 H 109.521 -0.0715019 4.60745 0
M  V30 1194 H 107.836 -0.222741 4.15804 0
M  V30 1195 H 110.433 -2.99047 4.43255 0
M  V30 1196 H 110.776 -3.14542 2.72707 0
M  V30 1197 H 111.309 -1.68905 3.60161 0
M  V30 1198 H 108.048 -0.898589 6.49312 0
M  V30 1199 H 107.568 -2.31648 5.53262 0
M  V30 1200 H 109.247 -2.14862 6.10281 0
M  V30 1201 N 109.379 -1.50304 -0.473955 0
M  V30 1202 C 110.79 -1.54042 -1.0549 0
M  V30 1203 C 111.141 -0.342248 -1.93192 0
M  V30 1204 O 110.266 0.545157 -2.09421 0
M  V30 1205 C 110.861 -2.79152 -1.91989 0
M  V30 1206 C 109.42 -2.8558 -2.45196 0
M  V30 1207 C 108.567 -2.48295 -1.2347 0
M  V30 1208 H 111.518 -1.5661 -0.256693 0
M  V30 1209 H 111.539 -2.60845 -2.7702 0
M  V30 1210 H 111.051 -3.66339 -1.28131 0
M  V30 1211 H 109.152 -2.02738 -3.12615 0
M  V30 1212 H 109.265 -3.88403 -2.80499 0
M  V30 1213 H 107.629 -2.00669 -1.56856 0
M  V30 1214 H 108.412 -3.37787 -0.612789 0
M  V30 1215 N 110.857 0.726932 -1.39834 0
M  V30 1216 C 112.104 1.48664 -1.37496 0
M  V30 1217 C 112.432 1.94482 0.0264678 0
M  V30 1218 O 111.687 1.67692 1.00886 0
M  V30 1219 C 111.986 2.73495 -2.30077 0
M  V30 1220 C 111.652 2.46502 -3.77555 0
M  V30 1221 C 110.314 2.3885 -4.17737 0
M  V30 1222 C 112.666 2.23604 -4.70798 0
M  V30 1223 C 109.994 2.06352 -5.49214 0
M  V30 1224 C 112.346 1.92622 -6.02561 0
M  V30 1225 C 111.01 1.83444 -6.41798 0
M  V30 1226 H 110.28 0.544001 -0.503135 0
M  V30 1227 H 112.927 0.833657 -1.72402 0
M  V30 1228 H 111.232 3.43575 -1.88317 0
M  V30 1229 H 112.929 3.31549 -2.25558 0
M  V30 1230 H 109.519 2.5334 -3.45712 0
M  V30 1231 H 113.703 2.28479 -4.40581 0
M  V30 1232 H 108.959 1.97776 -5.78528 0
M  V30 1233 H 113.133 1.73914 -6.74334 0
M  V30 1234 H 110.76 1.58029 -7.43593 0
M  V30 1235 N 112.336 1.25143 0.95797 0
M  V30 1236 C 113.561 1.12521 1.74223 0
M  V30 1237 C 113.986 -0.317402 1.85403 0
M  V30 1238 O 113.344 -1.2299 1.33204 0
M  V30 1239 C 113.392 1.78062 3.1357 0
M  V30 1240 O 112.496 1.058 3.98598 0
M  V30 1241 H 111.837 0.39304 0.535178 0
M  V30 1242 H 114.367 1.65641 1.201 0
M  V30 1243 H 114.377 1.84213 3.64046 0
M  V30 1244 H 113.052 2.83021 3.04749 0
M  V30 1245 H 111.629 1.07506 3.57067 0
M  V30 1246 N 113.814 -1.1601 1.06675 0
M  V30 1247 C 114.764 -2.18512 0.650888 0
M  V30 1248 C 115.748 -1.57677 -0.320441 0
M  V30 1249 O 116.94 -1.76482 -0.135266 0
M  V30 1250 C 114.069 -3.43273 0.0429255 0
M  V30 1251 C 113.155 -4.11176 1.03898 0
M  V30 1252 N 113.546 -4.54672 2.216 0
M  V30 1253 C 111.844 -4.37417 0.870779 0
M  V30 1254 C 112.545 -5.07248 2.84736 0
M  V30 1255 N 111.521 -5.0037 2.12441 0
M  V30 1256 H 115.323 -2.49863 1.54745 0
M  V30 1257 H 112.837 -1.32503 0.938975 0
M  V30 1258 H 114.834 -4.16006 -0.272857 0
M  V30 1259 H 113.494 -3.13408 -0.84884 0
M  V30 1260 H 114.505 -4.4828 2.59356 0
M  V30 1261 H 111.182 -4.17488 0.0313293 0
M  V30 1262 H 112.572 -5.50912 3.84636 0
M  V30 1263 N 115.292 -0.849877 -1.32721 0
M  V30 1264 C 116.24 -0.279745 -2.30912 0
M  V30 1265 C 117.234 0.594278 -1.58634 0
M  V30 1266 O 118.44 0.482613 -1.73409 0
M  V30 1267 H 114.815 -0.0717521 -0.748569 0
M  V30 1268 H 116.786 -1.12222 -2.76494 0
M  V30 1269 C 115.535 0.521108 -3.43773 0
M  V30 1270 H 114.858 -0.142141 -3.99547 0
M  V30 1271 H 116.298 0.885693 -4.14646 0
M  V30 1272 C 114.757 1.70442 -2.90605 0
M  V30 1273 O 115.287 2.8034 -2.87702 0
M  V30 1274 N 113.493 1.52991 -2.47067 0
M  V30 1275 H 113.04 0.635914 -2.49628 0
M  V30 1276 H 112.998 2.32311 -2.11847 0
M  V30 1277 N 116.77 1.45427 -0.607355 0
M  V30 1278 C 117.72 2.27612 0.133038 0
M  V30 1279 C 118.704 1.37307 0.838785 0
M  V30 1280 O 119.896 1.61299 0.728813 0
M  V30 1281 C 117.025 3.24173 1.12991 0
M  V30 1282 C 116.111 4.21965 0.425011 0
M  V30 1283 N 116.502 5.02982 -0.533217 0
M  V30 1284 C 114.8 4.40899 0.672593 0
M  V30 1285 C 115.501 5.73931 -0.947518 0
M  V30 1286 N 114.477 5.42819 -0.291321 0
M  V30 1287 H 118.279 2.87649 -0.602935 0
M  V30 1288 H 115.793 1.56576 -0.431006 0
M  V30 1289 H 117.79 3.81783 1.67473 0
M  V30 1290 H 116.45 2.65696 1.86644 0
M  V30 1291 H 117.461 5.09843 -0.90995 0
M  V30 1292 H 114.138 3.93547 1.39382 0
M  V30 1293 H 115.528 6.49037 -1.73782 0
M  V30 1294 N 118.248 0.346503 1.53744 0
M  V30 1295 C 119.478 -0.250047 2.05081 0
M  V30 1296 C 119.886 -1.44529 1.22098 0
M  V30 1297 O 119.229 -1.81992 0.249917 0
M  V30 1298 C 119.291 -0.725934 3.52094 0
M  V30 1299 C 118.955 0.350053 4.55657 0
M  V30 1300 C 119.952 1.19372 5.0601 0
M  V30 1301 C 117.637 0.504827 4.99757 0
M  V30 1302 C 119.631 2.17768 5.99046 0
M  V30 1303 C 117.318 1.49218 5.92602 0
M  V30 1304 C 118.316 2.32706 6.42135 0
M  V30 1305 O 118.004 3.2976 7.33153 0
M  V30 1306 H 117.736 -0.0515469 0.674032 0
M  V30 1307 H 120.29 0.497559 1.99282 0
M  V30 1308 H 118.52 -1.52483 3.55367 0
M  V30 1309 H 120.209 -1.24336 3.86388 0
M  V30 1310 H 120.975 1.08525 4.72702 0
M  V30 1311 H 116.854 -0.135178 4.60802 0
M  V30 1312 H 120.398 2.82971 6.37631 0
M  V30 1313 H 116.295 1.6012 6.25325 0
M  V30 1314 H 117.063 3.25265 7.51096 0
M  V30 1315 N 119.726 -1.57421 0.075193 0
M  V30 1316 C 121.137 -1.81021 -0.456964 0
M  V30 1317 C 121.488 -0.98936 -1.69429 0
M  V30 1318 O 120.613 -0.212865 -2.15351 0
M  V30 1319 C 121.208 -3.28329 -0.83581 0
M  V30 1320 C 119.767 -3.52764 -1.31281 0
M  V30 1321 C 118.914 -2.75676 -0.299648 0
M  V30 1322 H 121.865 -1.55822 0.300856 0
M  V30 1323 H 121.886 -3.40564 -1.69696 0
M  V30 1324 H 121.398 -3.88046 0.0649238 0
M  V30 1325 H 119.499 -2.98355 -2.23193 0
M  V30 1326 H 119.612 -4.61451 -1.28839 0
M  V30 1327 H 117.976 -2.42538 -0.777641 0
M  V30 1328 H 118.759 -3.38132 0.593417 0
M  V30 1329 N 121.204 0.198386 -1.56346 0
M  V30 1330 C 122.114 1.2664 -1.97483 0
M  V30 1331 C 123.13 1.49989 -0.882002 0
M  V30 1332 O 124.306 1.62668 -1.18748 0
M  V30 1333 C 121.371 2.59141 -2.30319 0
M  V30 1334 C 120.432 2.43892 -3.53292 0
M  V30 1335 C 119.665 3.70074 -3.84553 0
M  V30 1336 O 119.888 4.74101 -3.1715 0
M  V30 1337 O 118.822 3.658 -4.7799 0
M  V30 1338 H 122.648 0.947304 -2.88548 0
M  V30 1339 H 120.233 0.403123 -1.43859 0
M  V30 1340 H 122.115 3.37352 -2.5253 0
M  V30 1341 H 120.79 2.90684 -1.42423 0
M  V30 1342 H 119.697 1.63803 -3.36332 0
M  V30 1343 H 121.03 2.17282 -4.41644 0
M  V30 1344 N 122.682 1.50554 0.465978 0
M  V30 1345 C 123.629 1.6979 1.56333 0
M  V30 1346 C 124.599 0.539239 1.57103 0
M  V30 1347 O 125.784 0.770401 1.74555 0
M  V30 1348 C 122.924 1.80273 2.94271 0
M  V30 1349 C 122.037 3.07674 3.0325 0
M  V30 1350 C 121.172 3.08922 4.32135 0
M  V30 1351 C 120.211 4.30755 4.34875 0
M  V30 1352 N 119.348 4.29714 5.55239 0
M  V30 1353 H 124.188 2.63472 1.39235 0
M  V30 1354 H 121.725 1.30602 0.676873 0
M  V30 1355 H 123.683 1.84332 3.74269 0
M  V30 1356 H 122.313 0.900258 3.09992 0
M  V30 1357 H 121.365 3.13062 2.16094 0
M  V30 1358 H 122.677 3.97642 3.01135 0
M  V30 1359 H 121.831 3.11738 5.20485 0
M  V30 1360 H 120.57 2.16792 4.36866 0
M  V30 1361 H 119.575 4.28146 3.44922 0
M  V30 1362 H 120.8 5.24117 4.31831 0
M  V30 1363 H 118.746 3.4044 5.60746 0
M  V30 1364 H 118.663 5.13456 5.54886 0
M  V30 1365 H 119.931 4.36683 6.457 0
M  V30 1366 N 124.16 -0.719506 1.40217 0
M  V30 1367 C 125.07 -1.86378 1.42479 0
M  V30 1368 C 126.086 -1.71073 0.317834 0
M  V30 1369 O 127.262 -1.93406 0.561794 0
M  V30 1370 C 124.327 -3.22136 1.28178 0
M  V30 1371 C 123.388 -3.49723 2.48982 0
M  V30 1372 C 122.621 -4.79004 2.35353 0
M  V30 1373 O 122.844 -5.53821 1.36524 0
M  V30 1374 O 121.778 -5.06839 3.2465 0
M  V30 1375 H 125.604 -1.87425 2.38968 0
M  V30 1376 H 123.189 -0.869405 1.21498 0
M  V30 1377 H 125.071 -4.03234 1.22395 0
M  V30 1378 H 123.746 -3.21825 0.347934 0
M  V30 1379 H 122.653 -2.6865 2.60342 0
M  V30 1380 H 123.986 -3.54828 3.41113 0
M  V30 1381 N 125.638 -1.25649 -0.95132 0
M  V30 1382 C 126.571 -1.00644 -2.04807 0
M  V30 1383 C 127.549 0.0654271 -1.62468 0
M  V30 1384 O 128.733 -0.074911 -1.88351 0
M  V30 1385 C 125.86 -0.522052 -3.34653 0
M  V30 1386 C 124.906 -1.58495 -3.95957 0
M  V30 1387 S 125.739 -3.17108 -4.31512 0
M  V30 1388 C 126.895 -2.70412 -5.64471 0
M  V30 1389 H 127.128 -1.93508 -2.25703 0
M  V30 1390 H 124.661 -1.09216 -1.09139 0
M  V30 1391 H 126.619 -0.24923 -4.09743 0
M  V30 1392 H 125.28 0.386146 -3.11717 0
M  V30 1393 H 124.473 -1.1968 -4.89584 0
M  V30 1394 H 124.075 -1.80862 -3.2736 0
M  V30 1395 H 126.367 -2.14245 -6.42733 0
M  V30 1396 H 127.31 -3.62693 -6.08161 0
M  V30 1397 H 127.718 -2.10302 -5.23864 0
M  V30 1398 N 127.117 1.15442 -1.07289 0
M  V30 1399 C 128.363 1.86489 -0.796846 0
M  V30 1400 C 128.696 1.82078 0.675371 0
M  V30 1401 O 127.971 1.24346 1.4956 0
M  V30 1402 C 128.254 3.35626 -1.30489 0
M  V30 1403 C 128.107 3.48673 -2.84161 0
M  V30 1404 C 129.426 4.30357 -0.920907 0
M  V30 1405 H 126.545 0.677144 -0.290939 0
M  V30 1406 H 129.187 1.35633 -1.33056 0
M  V30 1407 H 127.337 3.79068 -0.850883 0
M  V30 1408 H 129.009 3.14099 -3.37846 0
M  V30 1409 H 127.252 2.90253 -3.22391 0
M  V30 1410 H 127.923 4.53453 -3.14777 0
M  V30 1411 H 130.399 3.94871 -1.3121 0
M  V30 1412 H 129.275 5.33193 -1.30372 0
M  V30 1413 H 129.536 4.4176 0.173226 0
M  V30 1414 N 128.595 0.856903 1.32268 0
M  V30 1415 C 129.542 0.301172 2.28827 0
M  V30 1416 C 130.512 -0.593104 1.5515 0
M  V30 1417 O 131.697 -0.527537 1.83362 0
M  V30 1418 C 128.837 -0.502523 3.41422 0
M  V30 1419 C 127.95 0.417797 4.29975 0
M  V30 1420 C 127.085 -0.398749 5.29701 0
M  V30 1421 C 126.124 0.518827 6.09897 0
M  V30 1422 N 125.261 -0.260674 7.01616 0
M  V30 1423 H 130.101 1.12983 2.75751 0
M  V30 1424 H 127.638 0.568582 1.35667 0
M  V30 1425 H 129.596 -0.984141 4.05426 0
M  V30 1426 H 128.226 -1.29599 2.95642 0
M  V30 1427 H 127.278 1.01781 3.66531 0
M  V30 1428 H 128.59 1.12191 4.86019 0
M  V30 1429 H 127.744 -0.943435 5.9932 0
M  V30 1430 H 126.483 -1.13622 4.7428 0
M  V30 1431 H 125.488 1.07538 5.39181 0
M  V30 1432 H 126.713 1.25495 6.67404 0
M  V30 1433 H 124.659 -0.981198 6.4862 0
M  V30 1434 H 124.576 0.384364 7.55022 0
M  V30 1435 H 125.844 -0.787014 7.75517 0
M  V30 1436 N 130.073 -1.45103 0.615059 0
M  V30 1437 C 131.489 -1.57137 0.279322 0
M  V30 1438 C 131.689 -1.60523 -1.21797 0
M  V30 1439 O 130.745 -1.53956 -2.00134 0
M  V30 1440 C 132.058 -2.85062 0.957083 0
M  V30 1441 C 133.606 -2.98749 0.933706 0
M  V30 1442 C 134.081 -4.29455 1.59162 0
M  V30 1443 N 135.572 -4.36231 1.55746 0
M  V30 1444 C 136.307 -5.36051 2.0356 0
M  V30 1445 N 135.803 -6.42367 2.59494 0
M  V30 1446 N 137.596 -5.27456 1.94284 0
M  V30 1447 H 129.747 -1.41148 1.58717 0
M  V30 1448 H 132.01 -0.675331 0.665306 0
M  V30 1449 H 131.716 -2.88488 2.01166 0
M  V30 1450 H 131.59 -3.7407 0.48494 0
M  V30 1451 H 133.977 -2.94886 -0.112347 0
M  V30 1452 H 134.058 -2.11132 1.44419 0
M  V30 1453 H 133.702 -4.34077 2.63704 0
M  V30 1454 H 133.632 -5.15901 1.0561 0
M  V30 1455 H 136.123 -3.60011 1.14893 0
M  V30 1456 H 136.436 -7.14793 2.93752 0
M  V30 1457 H 134.781 -6.43097 2.63537 0
M  V30 1458 H 137.972 -4.43308 1.5032 0
M  V30 1459 H 138.145 -6.05099 2.3186 0
M  V30 1460 N 131.551 -0.354651 -1.53558 0
M  V30 1461 C 132.776 0.242153 -2.05981 0
M  V30 1462 C 133.201 1.42553 -1.2272 0
M  V30 1463 O 132.559 1.79656 -0.243604 0
M  V30 1464 C 132.607 0.624367 -3.55154 0
M  V30 1465 O 131.711 1.72301 -3.74681 0
M  V30 1466 H 131.052 0.0378432 -0.662921 0
M  V30 1467 H 133.582 -0.512087 -1.98088 0
M  V30 1468 H 133.592 0.898433 -3.97985 0
M  V30 1469 H 132.267 -0.240989 -4.15201 0
M  V30 1470 H 130.844 1.44535 -3.4375 0
M  V30 1471 N 133.029 1.57378 -0.0835403 0
M  V30 1472 C 133.961 2.10389 0.909338 0
M  V30 1473 C 134.974 1.03858 1.25369 0
M  V30 1474 O 136.163 1.31338 1.20882 0
M  V30 1475 C 133.263 2.55908 2.2218 0
M  V30 1476 C 132.436 3.86145 2.05453 0
M  V30 1477 C 131.495 4.17633 3.20108 0
M  V30 1478 O 130.521 4.87043 2.94581 0
M  V30 1479 N 131.723 3.72113 4.45547 0
M  V30 1480 H 134.488 2.962 0.456657 0
M  V30 1481 H 132.049 1.61579 0.101877 0
M  V30 1482 H 134.041 2.74027 2.97811 0
M  V30 1483 H 132.611 1.75171 2.58909 0
M  V30 1484 H 131.831 3.7729 1.1422 0
M  V30 1485 H 133.119 4.7137 1.91541 0
M  V30 1486 H 132.517 3.16062 4.69171 0
M  V30 1487 H 131.074 3.95409 5.18165 0
M  V30 1488 N 134.507 -0.190092 1.56449 0
M  V30 1489 C 135.417 -1.25591 1.98152 0
M  V30 1490 C 136.433 -1.49519 0.889944 0
M  V30 1491 O 137.609 -1.62036 1.19609 0
M  V30 1492 C 134.674 -2.57916 2.3169 0
M  V30 1493 C 133.735 -2.42015 3.5458 0
M  V30 1494 C 132.968 -3.6803 3.8651 0
M  V30 1495 O 133.191 -4.72413 3.1966 0
M  V30 1496 O 132.125 -3.6326 4.79923 0
M  V30 1497 H 135.951 -0.931988 2.89046 0
M  V30 1498 H 133.536 -0.395488 1.4407 0
M  V30 1499 H 135.418 -3.36008 2.54316 0
M  V30 1500 H 134.093 -2.89925 1.43963 0
M  V30 1501 H 133 -1.62017 3.37196 0
M  V30 1502 H 134.333 -2.14937 4.4279 0
M  V30 1503 N 135.985 -1.50799 -0.457987 0
M  V30 1504 C 137.232 -1.62442 -1.20908 0
M  V30 1505 C 137.56 -0.330865 -1.91665 0
M  V30 1506 O 136.815 0.68401 -1.83357 0
M  V30 1507 C 137.114 -2.76358 -2.2663 0
M  V30 1508 C 136.78 -4.16378 -1.73033 0
M  V30 1509 C 135.442 -4.54473 -1.58138 0
M  V30 1510 C 137.794 -5.03836 -1.33413 0
M  V30 1511 C 135.122 -5.77754 -1.02065 0
M  V30 1512 C 137.474 -6.27676 -0.78778 0
M  V30 1513 C 136.138 -6.64562 -0.625561 0
M  V30 1514 H 135.408 -0.594417 -0.442435 0
M  V30 1515 H 138.055 -1.84772 -0.503136 0
M  V30 1516 H 136.36 -2.48167 -3.03184 0
M  V30 1517 H 138.057 -2.82568 -2.84528 0
M  V30 1518 H 134.647 -3.86331 -1.85598 0
M  V30 1519 H 138.831 -4.75026 -1.4375 0
M  V30 1520 H 134.087 -6.04997 -0.882547 0
M  V30 1521 H 138.261 -6.94797 -0.472177 0
M  V30 1522 H 135.888 -7.59965 -0.188926 0
M  V30 1523 N 137.463 0.71206 -1.40597 0
M  V30 1524 C 138.693 1.49894 -1.42181 0
M  V30 1525 C 139.101 1.89189 -0.0208078 0
M  V30 1526 O 138.444 1.56223 0.966436 0
M  V30 1527 C 138.506 2.80215 -2.25211 0
M  V30 1528 C 138.17 2.63221 -3.73582 0
M  V30 1529 C 139.167 2.30249 -4.66135 0
M  V30 1530 C 136.852 2.79376 -4.17438 0
M  V30 1531 C 138.846 2.13645 -6.00529 0
M  V30 1532 C 136.533 2.6239 -5.51901 0
M  V30 1533 C 137.531 2.29573 -6.43262 0
M  V30 1534 O 137.219 2.12719 -7.75246 0
M  V30 1535 H 136.951 0.469031 -0.486812 0
M  V30 1536 H 139.505 0.88564 -1.85326 0
M  V30 1537 H 137.735 3.4389 -1.76852 0
M  V30 1538 H 139.424 3.41947 -2.18694 0
M  V30 1539 H 140.19 2.17398 -4.33547 0
M  V30 1540 H 136.069 3.03906 -3.46644 0
M  V30 1541 H 139.613 1.87953 -6.71803 0
M  V30 1542 H 135.51 2.74826 -5.84073 0
M  V30 1543 H 136.278 2.27611 -7.86216 0
M  V30 1544 N 138.941 1.26152 0.944643 0
M  V30 1545 C 139.851 1.09176 2.07648 0
M  V30 1546 C 140.867 0.0261935 1.7398 0
M  V30 1547 O 142.043 0.229208 2.00091 0
M  V30 1548 C 139.108 0.722915 3.39079 0
M  V30 1549 C 138.169 1.86752 3.86552 0
M  V30 1550 C 137.402 1.51617 5.11711 0
M  V30 1551 O 137.625 0.416331 5.68879 0
M  V30 1552 O 136.559 2.34975 5.54139 0
M  V30 1553 H 140.385 2.0412 2.24875 0
M  V30 1554 H 137.97 1.05182 1.061 0
M  V30 1555 H 139.852 0.529787 4.18056 0
M  V30 1556 H 138.527 -0.197159 3.23099 0
M  V30 1557 H 137.434 2.11558 3.08535 0
M  V30 1558 H 138.767 2.76719 4.07047 0
M  V30 1559 N 140.419 -1.14872 1.07899 0
M  V30 1560 C 141.349 -2.2193 0.725887 0
M  V30 1561 C 142.33 -1.67622 -0.28927 0
M  V30 1562 O 143.515 -1.93533 -0.160787 0
M  V30 1563 C 140.645 -3.47061 0.128856 0
M  V30 1564 C 139.599 -4.14363 1.07178 0
M  V30 1565 C 138.925 -5.33636 0.337229 0
M  V30 1566 C 140.225 -4.63492 2.40775 0
M  V30 1567 H 141.919 -2.51724 1.62097 0
M  V30 1568 H 139.465 -1.20991 0.780838 0
M  V30 1569 H 141.418 -4.21199 -0.130147 0
M  V30 1570 H 140.142 -3.16617 -0.80134 0
M  V30 1571 H 138.801 -3.42173 1.3158 0
M  V30 1572 H 138.449 -4.99449 -0.596606 0
M  V30 1573 H 138.149 -5.79609 0.965788 0
M  V30 1574 H 139.673 -6.10539 0.0861567 0
M  V30 1575 H 141.087 -5.2913 2.20669 0
M  V30 1576 H 139.484 -5.20148 2.99276 0
M  V30 1577 H 140.554 -3.78834 3.02676 0
M  V30 1578 N 141.898 -0.863906 -1.31812 0
M  V30 1579 C 142.828 -0.330843 -2.31144 0
M  V30 1580 C 143.809 0.575005 -1.60087 0
M  V30 1581 O 144.994 0.493304 -1.8783 0
M  V30 1582 C 142.124 0.47374 -3.44054 0
M  V30 1583 C 141.078 -0.338481 -4.26659 0
M  V30 1584 C 140.404 0.591412 -5.31419 0
M  V30 1585 C 141.704 -1.56926 -4.98168 0
M  V30 1586 H 143.398 -1.16086 -2.75979 0
M  V30 1587 H 140.944 -0.559657 -1.32679 0
M  V30 1588 H 142.897 0.857143 -4.12591 0
M  V30 1589 H 141.621 1.33721 -2.9797 0
M  V30 1590 H 140.28 -0.703754 -3.59782 0
M  V30 1591 H 139.928 1.45199 -4.81587 0
M  V30 1592 H 139.628 0.0519022 -5.87577 0
M  V30 1593 H 141.152 0.97179 -6.02817 0
M  V30 1594 H 142.566 -1.25764 -5.59336 0
M  V30 1595 H 140.963 -2.04739 -5.64094 0
M  V30 1596 H 142.033 -2.32544 -4.25501 0
M  V30 1597 N 143.376 1.44774 -0.622745 0
M  V30 1598 C 144.324 2.32387 0.0994683 0
M  V30 1599 C 145.318 1.46859 0.844326 0
M  V30 1600 O 146.524 1.63254 0.758174 0
M  V30 1601 H 142.899 0.750273 0.0509291 0
M  V30 1602 H 144.87 2.91062 -0.65767 0
M  V30 1603 C 143.619 3.30723 1.07319 0
M  V30 1604 H 142.942 3.96541 0.509462 0
M  V30 1605 H 144.382 3.94725 1.54817 0
M  V30 1606 C 142.841 2.59021 2.15429 0
M  V30 1607 O 143.371 2.38286 3.23393 0
M  V30 1608 N 141.577 2.189 1.91131 0
M  V30 1609 H 141.124 2.35964 1.03337 0
M  V30 1610 H 141.082 1.71251 2.63668 0
M  V30 1611 N 144.854 0.36279 1.53368 0
M  V30 1612 C 145.801 -0.485008 2.25646 0
M  V30 1613 C 146.771 -1.07982 1.2621 0
M  V30 1614 O 147.956 -1.11284 1.54986 0
M  V30 1615 C 145.096 -1.62023 3.04701 0
M  V30 1616 C 144.209 -1.05086 4.19024 0
M  V30 1617 C 143.344 -2.15496 4.85525 0
M  V30 1618 C 142.383 -1.5601 5.91884 0
M  V30 1619 N 141.52 -2.60241 6.52088 0
M  V30 1620 H 146.36 0.137864 2.97681 0
M  V30 1621 H 143.897 0.0798061 1.46883 0
M  V30 1622 H 145.855 -2.28887 3.48807 0
M  V30 1623 H 144.485 -2.2138 2.34927 0
M  V30 1624 H 143.537 -0.27259 3.79422 0
M  V30 1625 H 144.849 -0.575926 4.95464 0
M  V30 1626 H 144.003 -2.90186 5.32801 0
M  V30 1627 H 142.742 -2.66341 4.08551 0
M  V30 1628 H 141.747 -0.798338 5.43973 0
M  V30 1629 H 142.972 -1.05994 6.70777 0
M  V30 1630 H 140.918 -3.10304 5.77968 0
M  V30 1631 H 140.835 -2.17426 7.24059 0
M  V30 1632 H 142.103 -3.34641 7.04014 0
M  V30 1633 N 146.332 -1.57332 0.0918853 0
M  V30 1634 C 147.748 -1.57389 -0.264766 0
M  V30 1635 C 147.948 -1.10281 -1.68643 0
M  V30 1636 O 147.004 -0.777801 -2.40222 0
M  V30 1637 C 148.317 -3.00648 -0.0561195 0
M  V30 1638 C 149.865 -3.12754 -0.124116 0
M  V30 1639 C 150.34 -4.57965 0.0564972 0
M  V30 1640 N 151.831 -4.632 0.00155611 0
M  V30 1641 C 152.566 -5.73281 0.116598 0
M  V30 1642 N 152.062 -6.92208 0.286294 0
M  V30 1643 N 153.855 -5.6207 0.0580973 0
M  V30 1644 H 146.006 -1.86262 1.02079 0
M  V30 1645 H 148.269 -0.859579 0.399786 0
M  V30 1646 H 147.975 -3.393 0.925669 0
M  V30 1647 H 147.849 -3.68623 -0.799823 0
M  V30 1648 H 150.236 -2.73976 -1.09641 0
M  V30 1649 H 150.317 -2.47377 0.651024 0
M  V30 1650 H 149.961 -4.97436 1.02564 0
M  V30 1651 H 149.891 -5.21399 -0.738297 0
M  V30 1652 H 152.382 -3.77686 -0.127192 0
M  V30 1653 H 152.695 -7.71934 0.365676 0
M  V30 1654 H 151.04 -6.94254 0.32192 0
M  V30 1655 H 154.231 -4.68043 -0.0733204 0
M  V30 1656 H 154.404 -6.47824 0.151203 0
M  V30 1657 N 147.81 0.181792 -1.56548 0
M  V30 1658 C 149.226 0.53316 -1.50431 0
M  V30 1659 C 149.426 1.85184 -0.794297 0
M  V30 1660 O 148.482 2.50058 -0.350318 0
M  V30 1661 C 149.795 0.575597 -2.9514 0
M  V30 1662 C 151.343 0.663519 -3.05886 0
M  V30 1663 C 151.818 0.736946 -4.52032 0
M  V30 1664 N 153.309 0.800118 -4.56237 0
M  V30 1665 C 154.044 0.877327 -5.66649 0
M  V30 1666 N 153.54 0.916016 -6.86718 0
M  V30 1667 N 155.333 0.915542 -5.54594 0
M  V30 1668 H 147.484 -0.683025 -2.01118 0
M  V30 1669 H 149.747 -0.244988 -0.915797 0
M  V30 1670 H 149.453 -0.324482 -3.502 0
M  V30 1671 H 149.327 1.42572 -3.49218 0
M  V30 1672 H 151.714 1.55403 -2.50867 0
M  V30 1673 H 151.795 -0.21307 -2.54911 0
M  V30 1674 H 151.439 -0.149262 -5.07681 0
M  V30 1675 H 151.369 1.62953 -5.00753 0
M  V30 1676 H 153.86 0.778926 -3.69785 0
M  V30 1677 H 154.173 0.975813 -7.66614 0
M  V30 1678 H 152.518 0.884469 -6.89349 0
M  V30 1679 H 155.709 0.882245 -4.59711 0
M  V30 1680 H 155.882 0.972253 -6.40665 0
M  V30 1681 N 149.288 1.51039 0.449983 0
M  V30 1682 C 150.513 1.6715 1.22783 0
M  V30 1683 C 150.938 0.363081 1.84563 0
M  V30 1684 O 150.296 -0.675433 1.68249 0
M  V30 1685 C 150.344 2.77985 2.29689 0
M  V30 1686 O 149.448 2.40707 3.34864 0
M  V30 1687 H 148.789 0.557746 0.360299 0
M  V30 1688 H 151.319 1.97535 0.533005 0
M  V30 1689 H 151.329 3.01693 2.74673 0
M  V30 1690 H 150.004 3.72935 1.84098 0
M  V30 1691 H 148.581 2.27523 2.95445 0
M  V30 1692 N 150.766 -0.704594 1.40972 0
M  V30 1693 C 152.012 -1.46675 1.40051 0
M  V30 1694 C 152.345 -1.94199 0.00641102 0
M  V30 1695 O 151.62 -1.68916 -0.964235 0
M  V30 1696 C 151.903 -2.68505 2.39952 0
M  V30 1697 C 151.756 -2.26805 3.88432 0
M  V30 1698 C 153.075 -3.70686 2.37233 0
M  V30 1699 H 150.194 -0.532015 0.510028 0
M  V30 1700 H 152.836 -0.803255 1.72185 0
M  V30 1701 H 150.986 -3.25114 2.1268 0
M  V30 1702 H 152.658 -1.75592 4.26574 0
M  V30 1703 H 150.901 -1.58685 4.03734 0
M  V30 1704 H 151.572 -3.14181 4.53866 0
M  V30 1705 H 154.048 -3.23731 2.61415 0
M  V30 1706 H 152.924 -4.53553 3.09162 0
M  V30 1707 H 153.185 -4.19754 1.38777 0
M  V30 1708 N 152.244 -1.26651 -0.937939 0
M  V30 1709 C 153.66 -1.03834 -1.21205 0
M  V30 1710 C 153.86 0.234502 -2.00131 0
M  V30 1711 O 152.916 0.942767 -2.3424 0
M  V30 1712 C 154.229 -2.27167 -1.97017 0
M  V30 1713 C 155.777 -2.32101 -2.09996 0
M  V30 1714 C 156.252 -3.55136 -2.8921 0
M  V30 1715 N 157.743 -3.55632 -2.96783 0
M  V30 1716 C 158.478 -4.475 -3.58512 0
M  V30 1717 N 157.974 -5.4966 -4.21717 0
M  V30 1718 N 159.767 -4.35145 -3.55816 0
M  V30 1719 H 151.918 -2.08398 -0.410391 0
M  V30 1720 H 154.181 -0.916031 -0.244114 0
M  V30 1721 H 153.887 -3.19765 -1.46434 0
M  V30 1722 H 153.761 -2.31672 -2.97671 0
M  V30 1723 H 156.148 -1.40015 -2.59769 0
M  V30 1724 H 156.229 -2.31605 -1.08594 0
M  V30 1725 H 155.873 -4.47553 -2.40123 0
M  V30 1726 H 155.803 -3.5288 -3.90875 0
M  V30 1727 H 158.294 -2.81743 -2.51852 0
M  V30 1728 H 158.607 -6.15943 -4.66727 0
M  V30 1729 H 156.952 -5.53514 -4.20294 0
M  V30 1730 H 160.143 -3.5455 -3.05634 0
M  V30 1731 H 160.316 -5.06934 -4.03636 0
M  V30 1732 N 153.722 1.14298 -1.08507 0
M  V30 1733 C 154.969 1.85359 -0.815373 0
M  V30 1734 C 155.297 1.83001 0.658865 0
M  V30 1735 O 154.552 1.25655 1.50031 0
M  V30 1736 C 154.851 3.33547 -1.28379 0
M  V30 1737 C 154.517 3.56093 -2.76602 0
M  V30 1738 C 153.179 3.61955 -3.17084 0
M  V30 1739 C 155.531 3.64834 -3.72217 0
M  V30 1740 C 152.859 3.74082 -4.51973 0
M  V30 1741 C 155.211 3.78487 -5.06883 0
M  V30 1742 C 153.875 3.82598 -5.46969 0
M  V30 1743 H 153.145 0.678276 -0.298366 0
M  V30 1744 H 155.792 1.35002 -1.35819 0
M  V30 1745 H 154.097 3.86191 -0.660593 0
M  V30 1746 H 155.794 3.86959 -1.05186 0
M  V30 1747 H 152.384 3.52179 -2.4427 0
M  V30 1748 H 156.568 3.59595 -3.42061 0
M  V30 1749 H 151.824 3.75527 -4.82483 0
M  V30 1750 H 155.998 3.84193 -5.80834 0
M  V30 1751 H 153.625 3.91747 -6.51489 0
M  V30 1752 N 155.201 0.870884 1.31352 0
M  V30 1753 C 156.45 0.478408 1.95944 0
M  V30 1754 C 156.763 -0.974493 1.69597 0
M  V30 1755 O 157.969 -1.47316 2.28058 0
M  V30 1756 C 156.425 0.804609 3.50791 0
M  V30 1757 C 156.033 2.27433 3.85977 0
M  V30 1758 C 157.777 0.480648 4.2177 0
M  V30 1759 C 155.684 2.5429 5.33939 0
M  V30 1760 H 154.614 0.175175 0.733369 0
M  V30 1761 H 157.265 1.06391 1.4951 0
M  V30 1762 H 155.647 0.148347 3.95722 0
M  V30 1763 H 156.821 2.97373 3.52002 0
M  V30 1764 H 155.136 2.56442 3.28065 0
M  V30 1765 H 157.733 0.658519 5.30629 0
M  V30 1766 H 158.076 -0.578979 4.12254 0
M  V30 1767 H 158.609 1.09349 3.82476 0
M  V30 1768 H 155.348 3.58939 5.48491 0
M  V30 1769 H 154.868 1.88945 5.69263 0
M  V30 1770 H 156.547 2.39066 6.01212 0
M  V30 1771 N 156.679 -1.44442 0.630414 0
M  V30 1772 C 157.904 -2.06927 0.139944 0
M  V30 1773 C 158.329 -1.46795 -1.17613 0
M  V30 1774 O 157.687 -0.569144 -1.72135 0
M  V30 1775 C 157.735 -3.6058 0.0379581 0
M  V30 1776 O 156.839 -3.99937 -1.0062 0
M  V30 1777 H 156.18 -0.658608 0.0844483 0
M  V30 1778 H 158.71 -1.85327 0.866891 0
M  V30 1779 H 158.72 -4.07714 -0.152856 0
M  V30 1780 H 157.395 -4.03728 0.998809 0
M  V30 1781 H 155.972 -3.64436 -0.79001 0
M  V30 1782 N 158.157 -0.370918 -1.53173 0
M  V30 1783 C 159.105 0.488101 -2.27421 0
M  V30 1784 C 160.099 1.07884 -1.30604 0
M  V30 1785 O 161.305 1.02143 -1.48212 0
M  V30 1786 H 157.68 0.176134 -0.731082 0
M  V30 1787 H 159.651 -0.159815 -2.97972 0
M  V30 1788 C 158.4 1.61306 -3.08019 0
M  V30 1789 H 157.723 1.1678 -3.82364 0
M  V30 1790 H 159.163 2.18872 -3.63141 0
M  V30 1791 C 157.622 2.55848 -2.19188 0
M  V30 1792 O 158.152 3.58799 -1.80626 0
M  V30 1793 N 156.358 2.2516 -1.83715 0
M  V30 1794 H 155.905 1.41476 -2.15273 0
M  V30 1795 H 155.863 2.8867 -1.24567 0
M  V30 1796 N 159.635 1.57281 -0.100228 0
M  V30 1797 C 160.545 2.17833 0.870965 0
M  V30 1798 C 161.561 1.14921 1.30649 0
M  V30 1799 O 162.737 1.47313 1.37335 0
M  V30 1800 C 159.802 2.75085 2.1102 0
M  V30 1801 C 158.863 3.9297 1.72838 0
M  V30 1802 C 158.096 4.47482 2.90854 0
M  V30 1803 O 158.319 4.00922 4.05731 0
M  V30 1804 O 157.253 5.38433 2.69023 0
M  V30 1805 H 161.079 3.0124 0.38575 0
M  V30 1806 H 158.664 1.48881 0.124397 0
M  V30 1807 H 160.546 3.11656 2.83634 0
M  V30 1808 H 159.221 1.94721 2.58584 0
M  V30 1809 H 158.128 3.61201 0.973883 0
M  V30 1810 H 159.461 4.74713 1.30033 0
M  V30 1811 N 161.113 -0.173488 1.56642 0
M  V30 1812 C 162.045 -1.23935 1.92802 0
M  V30 1813 C 163.058 -1.40589 0.820889 0
M  V30 1814 O 164.247 -1.40631 1.09933 0
M  V30 1815 C 161.347 -2.60837 2.16373 0
M  V30 1816 C 160.52 -2.6551 3.47596 0
M  V30 1817 C 159.579 -3.8376 3.60021 0
M  V30 1818 O 158.605 -3.69859 4.32658 0
M  V30 1819 N 159.807 -5.00127 2.94709 0
M  V30 1820 H 162.572 -0.932236 2.84832 0
M  V30 1821 H 160.133 -0.363268 1.57772 0
M  V30 1822 H 162.125 -3.38407 2.21952 0
M  V30 1823 H 160.695 -2.83948 1.30738 0
M  V30 1824 H 159.915 -1.74052 3.53694 0
M  V30 1825 H 161.203 -2.65641 4.33949 0
M  V30 1826 H 160.601 -5.14322 2.35563 0
M  V30 1827 H 159.158 -5.75567 3.05886 0
M  V30 1828 N 162.591 -1.51276 -0.441967 0
M  V30 1829 C 163.837 -1.63958 -1.19355 0
M  V30 1830 C 164.17 -0.352543 -1.90973 0
M  V30 1831 O 163.445 0.647627 -1.83401 0
M  V30 1832 C 163.728 -2.83979 -2.21422 0
M  V30 1833 C 163.581 -4.22646 -1.53918 0
M  V30 1834 C 164.9 -2.99521 -3.22451 0
M  V30 1835 H 162.019 -0.596709 -0.432559 0
M  V30 1836 H 164.661 -1.83748 -0.483398 0
M  V30 1837 H 162.811 -2.67237 -2.81987 0
M  V30 1838 H 164.483 -4.51045 -0.967256 0
M  V30 1839 H 162.726 -4.25558 -0.841615 0
M  V30 1840 H 163.397 -5.02609 -2.28229 0
M  V30 1841 H 165.873 -3.14944 -2.71937 0
M  V30 1842 H 164.749 -3.85072 -3.91166 0
M  V30 1843 H 165.01 -2.11391 -3.88287 0
M  V30 1844 N 164.069 0.697108 -1.41344 0
M  V30 1845 C 165.48 1.27697 -1.36199 0
M  V30 1846 C 165.831 1.9615 -0.0443463 0
M  V30 1847 O 164.956 1.98689 0.857419 0
M  V30 1848 C 165.551 2.32223 -2.46694 0
M  V30 1849 C 164.11 2.8579 -2.44952 0
M  V30 1850 C 163.257 1.59807 -2.26621 0
M  V30 1851 H 166.208 0.491968 -1.50882 0
M  V30 1852 H 166.229 3.1348 -2.15664 0
M  V30 1853 H 165.741 1.82373 -3.42581 0
M  V30 1854 H 163.842 3.3982 -1.52817 0
M  V30 1855 H 163.955 3.36325 -3.41207 0
M  V30 1856 H 162.319 1.8556 -1.7447 0
M  V30 1857 H 163.102 1.11956 -3.24532 0
M  V30 1858 N 165.547 1.27147 0.931209 0
M  V30 1859 C 166.48 1.0389 2.0318 0
M  V30 1860 C 167.458 -0.0395716 1.62552 0
M  V30 1861 O 168.642 0.104867 1.88208 0
M  V30 1862 C 165.769 0.575227 3.3378 0
M  V30 1863 C 164.815 1.64774 3.93385 0
M  V30 1864 S 165.648 3.23933 4.26413 0
M  V30 1865 C 166.804 2.79358 5.60098 0
M  V30 1866 H 167.037 1.97075 2.22596 0
M  V30 1867 H 164.57 1.10938 1.07387 0
M  V30 1868 H 166.528 0.314385 4.09294 0
M  V30 1869 H 165.189 -0.336505 3.12292 0
M  V30 1870 H 164.382 1.27454 4.87618 0
M  V30 1871 H 163.984 1.86048 3.24441 0
M  V30 1872 H 166.276 2.24443 6.39243 0
M  V30 1873 H 167.219 3.72322 6.02314 0
M  V30 1874 H 167.627 2.1861 5.20452 0
M  V30 1875 N 167.025 -1.13721 1.09112 0
M  V30 1876 C 167.935 -2.22638 0.73957 0
M  V30 1877 C 168.951 -1.72091 -0.257068 0
M  V30 1878 O 170.127 -2.01155 -0.0992154 0
M  V30 1879 C 167.192 -3.46322 0.16191 0
M  V30 1880 C 166.253 -4.11775 1.21408 0
M  V30 1881 C 165.486 -5.29555 0.663891 0
M  V30 1882 O 165.709 -5.68077 -0.514274 0
M  V30 1883 O 164.643 -5.84973 1.41738 0
M  V30 1884 H 168.469 -2.55074 1.64836 0
M  V30 1885 H 166.054 -1.21791 0.865289 0
M  V30 1886 H 167.936 -4.21107 -0.157073 0
M  V30 1887 H 166.611 -3.15593 -0.719932 0
M  V30 1888 H 165.518 -3.3883 1.58571 0
M  V30 1889 H 166.851 -4.46627 2.06845 0
M  V30 1890 N 168.503 -0.877838 -1.30888 0
M  V30 1891 C 169.749 -0.493426 -1.96706 0
M  V30 1892 C 170.082 0.953504 -1.6918 0
M  V30 1893 O 169.357 1.67266 -0.992594 0
M  V30 1894 C 169.64 -0.760429 -3.51979 0
M  V30 1895 C 169.493 -2.25747 -3.89048 0
M  V30 1896 C 170.812 -0.232148 -4.39487 0
M  V30 1897 H 167.931 -0.180746 -0.714493 0
M  V30 1898 H 170.573 -1.10052 -1.54882 0
M  V30 1899 H 168.723 -0.243715 -3.87735 0
M  V30 1900 H 170.395 -2.84204 -3.63354 0
M  V30 1901 H 168.638 -2.72694 -3.37373 0
M  V30 1902 H 169.309 -2.39491 -4.97341 0
M  V30 1903 H 171.785 -0.674314 -4.106 0
M  V30 1904 H 170.661 -0.448355 -5.47066 0
M  V30 1905 H 170.922 0.866297 -4.33529 0
M  V30 1906 N 169.982 1.44106 -0.638065 0
M  V30 1907 C 171.231 2.01194 -0.142744 0
M  V30 1908 C 171.544 1.50835 1.24532 0
M  V30 1909 O 172.75 2.00096 1.83504 0
M  V30 1910 C 171.206 3.59319 -0.20442 0
M  V30 1911 C 170.814 4.18674 -1.59423 0
M  V30 1912 C 172.558 4.23854 0.234079 0
M  V30 1913 C 170.465 5.69045 -1.61065 0
M  V30 1914 H 169.395 0.752367 -0.0495998 0
M  V30 1915 H 172.046 1.65246 -0.797881 0
M  V30 1916 H 170.428 3.92598 0.517946 0
M  V30 1917 H 171.602 3.96921 -2.34074 0
M  V30 1918 H 169.917 3.66453 -1.97741 0
M  V30 1919 H 172.514 5.34155 0.241443 0
M  V30 1920 H 172.857 3.96688 1.2627 0
M  V30 1921 H 173.39 3.95403 -0.436025 0
M  V30 1922 H 170.129 6.00956 -2.61787 0
M  V30 1923 H 169.649 5.929 -0.90718 0
M  V30 1924 H 171.328 6.32809 -1.34766 0
M  V30 1925 N 171.46 0.379036 1.52974 0
M  V30 1926 C 172.737 -0.263479 1.93817 0
M  V30 1927 C 173.117 -1.65244 1.31368 0
M  V30 1928 O 172.465 -2.23448 0.477856 0
M  V30 1929 C 172.675 -0.300166 3.47707 0
M  V30 1930 C 174.023 -0.534061 4.21228 0
M  V30 1931 O 175.047 -0.38081 3.54159 0
M  V30 1932 O 173.906 -0.833501 5.40106 0
M  V30 1933 H 171 -0.161149 0.811147 0
M  V30 1934 H 173.546 0.432798 1.64088 0
M  V30 1935 H 172.318 0.673138 3.85467 0
M  V30 1936 H 171.941 -1.04179 3.83709 0
M  V30 1937 N 172.938 -1.57226 0.108567 0
M  V30 1938 C 173.886 -2.16002 -0.862885 0
M  V30 1939 C 174.88 -1.10644 -1.28274 0
M  V30 1940 O 176.086 -1.28966 -1.2557 0
M  V30 1941 H 172.461 -0.691148 -0.296342 0
M  V30 1942 H 174.432 -2.96427 -0.342575 0
M  V30 1943 C 173.181 -2.76576 -2.10716 0
M  V30 1944 H 172.504 -3.5734 -1.793 0
M  V30 1945 H 173.944 -3.21253 -2.76717 0
M  V30 1946 C 172.403 -1.73137 -2.89007 0
M  V30 1947 O 172.933 -1.17842 -3.84026 0
M  V30 1948 N 171.139 -1.43317 -2.52801 0
M  V30 1949 H 170.686 -1.88473 -1.75601 0
M  V30 1950 H 170.644 -0.743485 -3.05483 0
M  V30 1951 N 174.416 0.165178 -1.56732 0
M  V30 1952 C 175.662 0.882112 -1.82611 0
M  V30 1953 C 175.995 1.81628 -0.687378 0
M  V30 1954 O 175.27 1.92009 0.310267 0
M  V30 1955 C 175.553 1.67245 -3.18906 0
M  V30 1956 C 175.406 0.760987 -4.43316 0
M  V30 1957 C 176.725 2.63884 -3.52212 0
M  V30 1958 H 173.844 0.319242 -0.664269 0
M  V30 1959 H 176.486 0.148052 -1.89422 0
M  V30 1960 H 174.636 2.29824 -3.1323 0
M  V30 1961 H 176.308 0.147596 -4.61064 0
M  V30 1962 H 174.551 0.0694102 -4.33744 0
M  V30 1963 H 175.222 1.34962 -5.35247 0
M  V30 1964 H 177.698 2.11429 -3.58381 0
M  V30 1965 H 176.574 3.16245 -4.48643 0
M  V30 1966 H 176.835 3.44377 -2.77231 0
M  V30 1967 N 175.894 1.51508 0.433938 0
M  V30 1968 C 177.143 1.63578 1.18005 0
M  V30 1969 C 177.456 0.359514 1.92268 0
M  V30 1970 O 178.662 0.359632 2.69108 0
M  V30 1971 C 177.118 2.88901 2.14626 0
M  V30 1972 C 176.726 4.23544 1.45995 0
M  V30 1973 C 178.47 3.10328 2.89649 0
M  V30 1974 C 176.377 5.40014 2.4112 0
M  V30 1975 H 175.307 0.609277 0.444182 0
M  V30 1976 H 177.958 1.77978 0.446773 0
M  V30 1977 H 176.34 2.68142 2.91403 0
M  V30 1978 H 177.514 4.54696 0.747532 0
M  V30 1979 H 175.829 4.08021 0.831115 0
M  V30 1980 H 178.426 3.94518 3.60915 0
M  V30 1981 H 178.769 2.23544 3.51189 0
M  V30 1982 H 179.302 3.31443 2.19978 0
M  V30 1983 H 176.041 6.29068 1.84264 0
M  V30 1984 H 175.561 5.13233 3.10406 0
M  V30 1985 H 177.24 5.72099 3.02177 0
M  V30 1986 N 177.372 -0.689602 1.41712 0
M  V30 1987 C 178.788 -1.00093 1.24312 0
M  V30 1988 C 178.988 -2.01036 0.136729 0
M  V30 1989 O 178.044 -2.47562 -0.496918 0
M  V30 1990 C 179.357 -1.51985 2.59463 0
M  V30 1991 C 180.905 -1.63838 2.66695 0
M  V30 1992 C 181.38 -2.1913 4.02177 0
M  V30 1993 N 182.871 -2.26483 4.04054 0
M  V30 1994 C 183.606 -2.70306 5.0569 0
M  V30 1995 N 183.102 -3.13691 6.17713 0
M  V30 1996 N 184.895 -2.69923 4.9305 0
M  V30 1997 H 177.046 -0.0210029 2.1239 0
M  V30 1998 H 179.309 -0.0718733 0.945272 0
M  V30 1999 H 179.015 -0.85269 3.41207 0
M  V30 2000 H 178.889 -2.50103 2.82362 0
M  V30 2001 H 181.276 -2.29664 1.85306 0
M  V30 2002 H 181.357 -0.642492 2.476 0
M  V30 2003 H 181.001 -1.53918 4.84016 0
M  V30 2004 H 180.931 -3.19482 4.18615 0
M  V30 2005 H 183.422 -1.95874 3.23174 0
M  V30 2006 H 183.735 -3.45773 6.9113 0
M  V30 2007 H 182.08 -3.11585 6.21241 0
M  V30 2008 H 185.271 -2.35382 4.04614 0
M  V30 2009 H 185.444 -3.03758 5.72394 0
M  V30 2010 N 178.85 -1.27639 -0.924453 0
M  V30 2011 C 180.078 -1.16989 -1.70649 0
M  V30 2012 C 180.493 0.272869 -1.86818 0
M  V30 2013 O 179.85 1.18549 -1.38753 0
M  V30 2014 C 179.901 -1.85229 -3.10439 0
M  V30 2015 O 179.622 -3.23868 -2.95028 0
M  V30 2016 C 181.123 -1.80746 -4.04779 0
M  V30 2017 H 178.343 -0.406595 -0.53378 0
M  V30 2018 H 180.887 -1.68569 -1.15778 0
M  V30 2019 H 179.042 -1.37545 -3.6216 0
M  V30 2020 H 179.456 -3.57889 -3.83426 0
M  V30 2021 H 180.93 -2.33101 -5.00368 0
M  V30 2022 H 181.407 -0.777499 -4.32263 0
M  V30 2023 H 182.013 -2.28059 -3.58984 0
M  V30 2024 N 180.328 1.1314 -1.09713 0
M  V30 2025 C 181.291 2.16831 -0.742751 0
M  V30 2026 C 182.291 1.59159 0.229129 0
M  V30 2027 O 183.481 1.74199 0.00693237 0
M  V30 2028 C 180.613 3.40756 -0.0989168 0
M  V30 2029 H 181.806 2.49695 -1.66109 0
M  V30 2030 H 179.359 1.2802 -0.896699 0
M  V30 2031 H 180.094 3.13485 0.830514 0
M  V30 2032 H 179.879 3.83888 -0.798265 0
M  V30 2033 H 181.369 4.17386 0.133524 0
M  V30 2034 N 181.806 0.884767 1.30421 0
M  V30 2035 C 183.054 0.502112 1.95763 0
M  V30 2036 C 183.375 -0.951815 1.70192 0
M  V30 2037 O 182.645 -1.6692 1.0254 0
M  V30 2038 H 181.225 0.182694 0.724315 0
M  V30 2039 H 183.887 1.1278 1.58955 0
M  V30 2040 H 182.983 0.672188 3.04775 0
M  V30 2041 N 183.284 -1.43765 0.645699 0
M  V30 2042 C 184.512 -2.06253 0.163556 0
M  V30 2043 C 184.927 -1.48352 -1.16778 0
M  V30 2044 O 184.284 -0.611932 -1.71935 0
M  V30 2045 C 184.335 -3.61453 0.0583186 0
M  V30 2046 O 184.056 -4.172 1.33702 0
M  V30 2047 C 185.557 -4.41002 -0.450795 0
M  V30 2048 H 182.777 -0.665413 0.0864077 0
M  V30 2049 H 185.321 -1.84396 0.884222 0
M  V30 2050 H 183.476 -3.82522 -0.612865 0
M  V30 2051 H 183.89 -5.10791 1.19131 0
M  V30 2052 H 185.364 -5.49966 -0.473403 0
M  V30 2053 H 185.841 -4.13488 -1.48068 0
M  V30 2054 H 186.447 -4.24886 0.187637 0
M  V30 2055 N 184.763 -0.387143 -1.52771 0
M  V30 2056 C 185.726 0.436939 -2.24997 0
M  V30 2057 C 186.726 0.991991 -1.26555 0
M  V30 2058 O 187.916 0.874335 -1.50669 0
M  V30 2059 C 185.048 1.61281 -3.00335 0
M  V30 2060 H 186.241 -0.195365 -2.99263 0
M  V30 2061 H 183.794 -0.139218 -1.55679 0
M  V30 2062 H 184.529 2.2826 -2.30364 0
M  V30 2063 H 184.314 1.22154 -3.72587 0
M  V30 2064 H 185.804 2.19629 -3.5518 0
M  V30 2065 N 186.241 1.57166 -0.116904 0
M  V30 2066 C 187.652 1.82169 0.408809 0
M  V30 2067 C 188.003 1.03393 1.66746 0
M  V30 2068 O 187.128 0.269886 2.1471 0
M  V30 2069 C 187.723 3.30429 0.748466 0
M  V30 2070 C 186.282 3.5612 1.21882 0
M  V30 2071 C 185.429 2.76374 0.226452 0
M  V30 2072 H 188.38 1.5497 -0.342063 0
M  V30 2073 H 188.401 3.44943 1.60607 0
M  V30 2074 H 187.913 3.87737 -0.167784 0
M  V30 2075 H 186.014 3.04168 2.15204 0
M  V30 2076 H 186.127 4.64705 1.16559 0
M  V30 2077 H 184.491 2.44515 0.713063 0
M  V30 2078 H 185.274 3.3644 -0.682859 0
M  V30 2079 N 187.719 -0.156864 1.56817 0
M  V30 2080 C 188.944 -0.890331 1.87318 0
M  V30 2081 C 189.369 -1.74394 0.704855 0
M  V30 2082 O 188.727 -1.77972 -0.345786 0
M  V30 2083 C 188.775 -1.73102 3.16336 0
M  V30 2084 O 187.879 -2.83422 2.99576 0
M  V30 2085 H 187.22 -0.24857 0.615718 0
M  V30 2086 H 189.75 -0.150649 2.04045 0
M  V30 2087 H 189.76 -2.12803 3.48107 0
M  V30 2088 H 188.435 -1.10412 4.00976 0
M  V30 2089 H 187.012 -2.47199 2.7919 0
M  V30 2090 N 189.197 -1.51736 -0.425897 0
M  V30 2091 C 190.445 -1.64644 -1.17204 0
M  V30 2092 C 190.766 -0.370486 -1.91448 0
M  V30 2093 O 190.036 0.614088 -1.86026 0
M  V30 2094 H 188.616 -0.606819 -0.435638 0
M  V30 2095 H 191.278 -1.88713 -0.487177 0
M  V30 2096 H 190.374 -2.47958 -1.89534 0
M  V30 2097 N 190.675 0.682077 -1.42076 0
M  V30 2098 C 191.638 1.77756 -1.44691 0
M  V30 2099 C 192.638 1.5726 -0.335535 0
M  V30 2100 O 193.828 1.63686 -0.596037 0
M  V30 2101 C 190.96 3.16301 -1.27146 0
M  V30 2102 H 192.153 1.76826 -2.42224 0
M  V30 2103 H 189.706 0.891012 -1.28416 0
M  V30 2104 H 190.441 3.22862 -0.305075 0
M  V30 2105 H 190.226 3.32581 -2.07683 0
M  V30 2106 H 191.716 3.96241 -1.31843 0
M  V30 2107 N 192.153 1.28127 0.917671 0
M  V30 2108 C 193.103 1.08361 2.00604 0
M  V30 2109 C 194.087 0.00847518 1.60898 0
M  V30 2110 O 195.279 0.228167 1.75523 0
M  V30 2111 C 192.408 0.743376 3.35155 0
M  V30 2112 C 191.494 1.85716 3.81275 0
M  V30 2113 N 191.885 3.09822 3.99805 0
M  V30 2114 C 190.183 1.74612 4.10398 0
M  V30 2115 C 190.884 3.82368 4.38372 0
M  V30 2116 N 189.86 3.10192 4.4641 0
M  V30 2117 H 193.662 2.02531 2.12975 0
M  V30 2118 H 191.176 1.18989 1.10523 0
M  V30 2119 H 193.173 0.582859 4.12805 0
M  V30 2120 H 191.833 -0.190595 3.2414 0
M  V30 2121 H 192.844 3.45475 3.85833 0
M  V30 2122 H 189.521 0.883657 4.08041 0
M  V30 2123 H 190.911 4.89082 4.60704 0
M  V30 2124 N 193.631 -1.12557 1.10312 0
M  V30 2125 C 194.859 -1.87864 0.866873 0
M  V30 2126 C 195.274 -1.79588 -0.582557 0
M  V30 2127 O 194.631 -1.16887 -1.40156 0
M  V30 2128 C 194.682 -3.37125 1.30496 0
M  V30 2129 O 194.403 -3.45201 2.69755 0
M  V30 2130 C 195.904 -4.29373 1.10243 0
M  V30 2131 H 193.124 -0.594452 0.311236 0
M  V30 2132 H 195.668 -1.42429 1.46745 0
M  V30 2133 H 193.823 -3.80109 0.748081 0
M  V30 2134 H 194.237 -4.38056 2.88457 0
M  V30 2135 H 195.711 -5.32394 1.45811 0
M  V30 2136 H 196.188 -4.39181 0.0409492 0
M  V30 2137 H 196.794 -3.92169 1.64571 0
M  V30 2138 N 195.109 -0.891671 -1.2995 0
M  V30 2139 C 196.019 -0.367691 -2.31701 0
M  V30 2140 C 197.035 0.533486 -1.6562 0
M  V30 2141 O 198.211 0.424997 -1.96865 0
M  V30 2142 C 195.276 0.403406 -3.44345 0
M  V30 2143 C 194.337 -0.528328 -4.26037 0
M  V30 2144 C 193.57 0.206063 -5.33302 0
M  V30 2145 O 193.793 1.43119 -5.52153 0
M  V30 2146 O 192.727 -0.447281 -6.00236 0
M  V30 2147 H 196.553 -1.21163 -2.78484 0
M  V30 2148 H 194.138 -0.655725 -1.34241 0
M  V30 2149 H 196.02 0.839753 -4.12948 0
M  V30 2150 H 194.695 1.22354 -2.99685 0
M  V30 2151 H 193.602 -1.01362 -3.60106 0
M  V30 2152 H 194.935 -1.31465 -4.74318 0
M  V30 2153 N 196.587 1.43421 -0.653314 0
M  V30 2154 C 197.998 1.85065 -0.246537 0
M  V30 2155 C 198.349 1.54688 1.2069 0
M  V30 2156 O 197.474 0.995896 1.92122 0
M  V30 2157 C 198.069 3.35922 -0.440666 0
M  V30 2158 C 196.628 3.76297 -0.0882064 0
M  V30 2159 C 195.775 2.67147 -0.743484 0
M  V30 2160 H 198.726 1.33572 -0.856979 0
M  V30 2161 H 198.747 3.79204 0.313798 0
M  V30 2162 H 198.259 3.58 -1.49858 0
M  V30 2163 H 196.36 3.5983 0.96711 0
M  V30 2164 H 196.473 4.76338 -0.513738 0
M  V30 2165 H 194.837 2.54086 -0.176712 0
M  V30 2166 H 195.62 2.92053 -1.80443 0
M  V30 2167 N 198.065 0.39524 1.52563 0
M  V30 2168 C 199.311 -0.177763 2.02622 0
M  V30 2169 C 199.666 -1.43974 1.27629 0
M  V30 2170 O 198.959 -1.87995 0.36992 0
M  V30 2171 C 199.153 -0.493444 3.53977 0
M  V30 2172 C 198.982 0.736392 4.4363 0
M  V30 2173 C 197.752 1.25744 4.89404 0
M  V30 2174 C 199.95 1.61046 4.88435 0
M  V30 2175 N 197.932 2.44421 5.63145 0
M  V30 2176 C 199.303 2.64359 5.60816 0
M  V30 2177 C 201.358 1.62985 4.70468 0
M  V30 2178 C 200.061 3.69505 6.17137 0
M  V30 2179 C 202.087 2.67042 5.27677 0
M  V30 2180 C 201.449 3.69077 5.99968 0
M  V30 2181 H 197.548 -0.0269794 0.781534 0
M  V30 2182 H 200.132 0.546466 1.86874 0
M  V30 2183 H 198.303 -1.18672 3.69826 0
M  V30 2184 H 200.035 -1.05412 3.90731 0
M  V30 2185 H 196.79 0.817546 4.6649 0
M  V30 2186 H 197.214 3.04485 6.04663 0
M  V30 2187 H 201.856 0.854442 4.14076 0
M  V30 2188 H 199.574 4.4791 6.72608 0
M  V30 2189 H 203.16 2.69433 5.15652 0
M  V30 2190 H 202.04 4.48273 6.43444 0
M  V30 2191 N 199.544 -1.57102 0.125237 0
M  V30 2192 C 200.772 -1.99761 -0.538797 0
M  V30 2193 C 201.187 -1.00503 -1.59827 0
M  V30 2194 O 200.544 0.00119474 -1.825 0
M  V30 2195 C 200.595 -3.42408 -1.15927 0
M  V30 2196 O 200.316 -4.37869 -0.142143 0
M  V30 2197 C 201.817 -4.00232 -1.90602 0
M  V30 2198 H 199.037 -0.655772 -0.14214 0
M  V30 2199 H 201.581 -2.03383 0.213413 0
M  V30 2200 H 199.736 -3.39706 -1.86223 0
M  V30 2201 H 200.15 -5.21128 -0.593775 0
M  V30 2202 H 201.624 -5.02105 -2.29335 0
M  V30 2203 H 202.101 -3.39721 -2.78363 0
M  V30 2204 H 202.707 -4.06499 -1.25055 0
M  V30 2205 N 201.022 0.148545 -1.56898 0
M  V30 2206 C 202.269 0.861418 -1.83264 0
M  V30 2207 C 202.597 1.81239 -0.705883 0
M  V30 2208 O 201.852 1.93305 0.305212 0
M  V30 2209 C 202.151 1.67064 -3.1595 0
M  V30 2210 C 201.817 0.866591 -4.42494 0
M  V30 2211 C 200.479 0.644762 -4.76861 0
M  V30 2212 C 202.831 0.30418 -5.20312 0
M  V30 2213 C 200.159 -0.15021 -5.86508 0
M  V30 2214 C 202.511 -0.477824 -6.30793 0
M  V30 2215 C 201.175 -0.710244 -6.63711 0
M  V30 2216 H 200.445 0.315215 -0.670612 0
M  V30 2217 H 203.092 0.125142 -1.91091 0
M  V30 2218 H 201.397 2.47698 -3.03567 0
M  V30 2219 H 203.094 2.22566 -3.33565 0
M  V30 2220 H 199.684 1.04955 -4.15551 0
M  V30 2221 H 203.868 0.462844 -4.94137 0
M  V30 2222 H 199.124 -0.339796 -6.10455 0
M  V30 2223 H 203.298 -0.92076 -6.90286 0
M  V30 2224 H 200.925 -1.3281 -7.48509 0
M  V30 2225 N 202.5 1.5196 0.417844 0
M  V30 2226 C 203.746 1.65836 1.16732 0
M  V30 2227 C 204.079 0.382881 1.90388 0
M  V30 2228 O 203.354 -0.618368 1.84408 0
M  V30 2229 C 203.637 2.87466 2.16876 0
M  V30 2230 C 203.49 4.25041 1.47174 0
M  V30 2231 C 204.809 3.04613 3.17646 0
M  V30 2232 H 201.928 0.603515 0.423011 0
M  V30 2233 H 204.57 1.84494 0.454105 0
M  V30 2234 H 202.72 2.71689 2.777 0
M  V30 2235 H 204.392 4.52527 0.895376 0
M  V30 2236 H 202.635 4.26843 0.773806 0
M  V30 2237 H 203.306 5.06176 2.20204 0
M  V30 2238 H 205.782 3.1923 2.66892 0
M  V30 2239 H 204.658 3.91247 3.8499 0
M  V30 2240 H 204.919 2.17541 3.84874 0
M  V30 2241 N 203.978 -0.674533 1.42435 0
M  V30 2242 C 205.224 -1.43671 1.43131 0
M  V30 2243 C 205.557 -1.94142 0.0476021 0
M  V30 2244 O 204.832 -1.70924 -0.928188 0
M  V30 2245 C 205.115 -2.63355 2.45594 0
M  V30 2246 C 204.968 -2.18514 3.93156 0
M  V30 2247 C 206.287 -3.65571 2.45043 0
M  V30 2248 H 203.406 -0.521077 0.521198 0
M  V30 2249 H 206.048 -0.766551 1.7385 0
M  V30 2250 H 204.198 -3.2053 2.19528 0
M  V30 2251 H 205.87 -1.66504 4.30202 0
M  V30 2252 H 204.113 -1.50086 4.07009 0
M  V30 2253 H 204.784 -3.04484 4.60428 0
M  V30 2254 H 207.26 -3.18113 2.68223 0
M  V30 2255 H 206.136 -4.46893 3.18713 0
M  V30 2256 H 206.397 -4.16716 1.47649 0
M  V30 2257 N 205.456 -1.28612 -0.910864 0
M  V30 2258 C 206.702 -1.16106 -1.66274 0
M  V30 2259 C 207.035 0.289113 -1.92036 0
M  V30 2260 O 206.31 1.21 -1.52281 0
M  V30 2261 C 206.593 -1.96309 -3.01885 0
M  V30 2262 C 206.446 -3.49405 -2.8326 0
M  V30 2263 C 207.765 -1.78076 -4.02463 0
M  V30 2264 H 204.884 -0.423152 -0.603417 0
M  V30 2265 H 207.526 -1.57961 -1.05586 0
M  V30 2266 H 205.676 -1.60742 -3.53687 0
M  V30 2267 H 207.348 -3.94894 -2.38446 0
M  V30 2268 H 205.591 -3.74893 -2.18261 0
M  V30 2269 H 206.262 -4.00784 -3.79574 0
M  V30 2270 H 208.738 -2.0912 -3.59733 0
M  V30 2271 H 207.614 -2.36561 -4.95308 0
M  V30 2272 H 207.875 -0.733008 -4.35981 0
M  V30 2273 N 206.934 1.1197 -1.10907 0
M  V30 2274 C 207.881 2.17846 -0.762345 0
M  V30 2275 C 208.851 1.63995 0.263599 0
M  V30 2276 O 210.036 1.90273 0.141773 0
M  V30 2277 C 207.176 3.44487 -0.205651 0
M  V30 2278 C 206.289 4.12369 -1.28748 0
M  V30 2279 C 205.424 5.26674 -0.691919 0
M  V30 2280 C 204.463 5.86431 -1.75399 0
M  V30 2281 N 203.6 6.92142 -1.17833 0
M  V30 2282 H 208.44 2.46851 -1.6694 0
M  V30 2283 H 205.977 1.21188 -0.833776 0
M  V30 2284 H 207.935 4.16981 0.135037 0
M  V30 2285 H 206.565 3.15884 0.664613 0
M  V30 2286 H 205.617 3.38003 -1.74522 0
M  V30 2287 H 206.929 4.52844 -2.09125 0
M  V30 2288 H 206.083 6.05953 -0.300963 0
M  V30 2289 H 204.822 4.8749 0.143232 0
M  V30 2290 H 203.827 5.05835 -2.15432 0
M  V30 2291 H 205.052 6.27685 -2.59208 0
M  V30 2292 H 202.998 6.54985 -0.364725 0
M  V30 2293 H 202.915 7.31242 -1.91887 0
M  V30 2294 H 204.183 7.75237 -0.81408 0
M  V30 2295 N 208.412 0.89855 1.29475 0
M  V30 2296 C 209.689 0.443416 1.90508 0
M  V30 2297 C 210.069 -1.07685 1.81569 0
M  V30 2298 O 209.417 -1.9182 1.24166 0
M  V30 2299 C 209.627 0.956708 3.35631 0
M  V30 2300 C 210.975 0.999728 4.12663 0
M  V30 2301 O 211.999 0.904299 3.4453 0
M  V30 2302 O 210.858 1.14289 5.34416 0
M  V30 2303 H 207.952 0.138025 0.815401 0
M  V30 2304 H 210.498 0.98834 1.37949 0
M  V30 2305 H 209.27 2.00067 3.36287 0
M  V30 2306 H 208.893 0.391728 3.95666 0
M  V30 2307 N 209.89 -1.43072 0.660911 0
M  V30 2308 C 211.301 -1.84932 0.256348 0
M  V30 2309 C 211.652 -1.55325 -1.19868 0
M  V30 2310 O 210.777 -1.00607 -1.91591 0
M  V30 2311 C 211.372 -3.35684 0.458475 0
M  V30 2312 C 209.931 -3.76245 0.108161 0
M  V30 2313 C 209.078 -2.66749 0.757641 0
M  V30 2314 H 212.029 -1.33116 0.864051 0
M  V30 2315 H 212.05 -3.79365 -0.293683 0
M  V30 2316 H 211.562 -3.572 1.51755 0
M  V30 2317 H 209.663 -3.60338 -0.948014 0
M  V30 2318 H 209.776 -4.76058 0.538992 0
M  V30 2319 H 208.14 -2.53989 0.190185 0
M  V30 2320 H 208.923 -2.91092 1.81989 0
M  V30 2321 N 211.368 -0.403325 -1.52352 0
M  V30 2322 C 212.645 0.232611 -1.94212 0
M  V30 2323 C 213.025 1.63133 -1.33981 0
M  V30 2324 O 212.373 2.22659 -0.513344 0
M  V30 2325 C 212.583 0.244811 -3.4814 0
M  V30 2326 C 213.931 0.46698 -4.22024 0
M  V30 2327 O 214.955 0.324419 -3.5472 0
M  V30 2328 O 213.814 0.74747 -5.41364 0
M  V30 2329 H 210.908 0.148223 -0.813609 0
M  V30 2330 H 213.454 -0.458848 -1.63379 0
M  V30 2331 H 212.226 -0.734378 -3.84347 0
M  V30 2332 H 211.849 0.980611 -3.85318 0
M  V30 2333 N 212.846 1.57033 -0.133567 0
M  V30 2334 C 214.092 1.95976 0.521649 0
M  V30 2335 C 214.425 1.01779 1.65393 0
M  V30 2336 O 213.7 0.0576581 1.94415 0
M  V30 2337 C 213.983 3.44738 1.04057 0
M  V30 2338 C 213.836 4.49711 -0.0892897 0
M  V30 2339 C 215.155 3.95682 1.92675 0
M  V30 2340 H 212.274 0.712579 0.188149 0
M  V30 2341 H 214.916 1.88813 -0.212076 0
M  V30 2342 H 213.066 3.50973 1.66583 0
M  V30 2343 H 214.738 4.55565 -0.725152 0
M  V30 2344 H 212.981 4.27261 -0.750378 0
M  V30 2345 H 213.652 5.51099 0.315284 0
M  V30 2346 H 216.128 3.91841 1.39998 0
M  V30 2347 H 215.004 5.00262 2.25897 0
M  V30 2348 H 215.265 3.37239 2.85872 0
M  V30 2349 N 214.325 -0.140222 1.56975 0
M  V30 2350 C 215.272 -1.17292 1.98774 0
M  V30 2351 C 216.242 -1.4232 0.856408 0
M  V30 2352 O 217.427 -1.54541 1.119 0
M  V30 2353 C 214.567 -2.49973 2.37923 0
M  V30 2354 C 213.68 -2.32062 3.64378 0
M  V30 2355 C 212.815 -3.57825 3.926 0
M  V30 2356 C 211.854 -3.3498 5.12303 0
M  V30 2357 N 210.991 -4.52891 5.36502 0
M  V30 2358 H 215.831 -0.809472 2.86795 0
M  V30 2359 H 213.368 -0.388237 1.41884 0
M  V30 2360 H 215.326 -3.27346 2.58652 0
M  V30 2361 H 213.956 -2.84252 1.52972 0
M  V30 2362 H 213.008 -1.45711 3.51387 0
M  V30 2363 H 214.32 -2.11145 4.51906 0
M  V30 2364 H 213.474 -4.43624 4.13863 0
M  V30 2365 H 212.213 -3.81753 3.03506 0
M  V30 2366 H 211.218 -2.4757 4.90906 0
M  V30 2367 H 212.443 -3.12444 6.02956 0
M  V30 2368 H 210.389 -4.76979 4.50363 0
M  V30 2369 H 210.306 -4.35001 6.18312 0
M  V30 2370 H 211.574 -5.39884 5.62268 0
M  V30 2371 N 215.803 -1.52179 -0.40978 0
M  V30 2372 C 216.753 -1.71857 -1.49831 0
M  V30 2373 C 217.737 -0.572469 -1.50372 0
M  V30 2374 O 218.929 -0.829509 -1.56359 0
M  V30 2375 C 216.058 -1.87206 -2.87765 0
M  V30 2376 C 215.144 -3.07685 -2.91875 0
M  V30 2377 N 215.535 -4.30403 -2.65683 0
M  V30 2378 C 213.833 -3.07505 -3.23043 0
M  V30 2379 C 214.534 -5.11868 -2.76344 0
M  V30 2380 N 213.51 -4.47101 -3.09195 0
M  V30 2381 H 217.312 -2.64381 -1.28375 0
M  V30 2382 H 214.826 -1.50203 -0.617479 0
M  V30 2383 H 216.823 -1.99419 -3.66111 0
M  V30 2384 H 215.483 -0.958814 -3.10221 0
M  V30 2385 H 216.494 -4.58887 -2.4009 0
M  V30 2386 H 213.171 -2.25915 -3.51096 0
M  V30 2387 H 214.561 -6.19634 -2.59814 0
M  V30 2388 N 217.281 0.66697 -1.42791 0
M  V30 2389 C 218.228 1.7803 -1.4688 0
M  V30 2390 C 219.198 1.6299 -0.319919 0
M  V30 2391 O 220.383 1.83432 -0.525118 0
M  V30 2392 C 217.523 3.1611 -1.38451 0
M  V30 2393 C 216.636 3.42381 -2.63437 0
M  V30 2394 C 215.771 4.70232 -2.47094 0
M  V30 2395 C 214.81 4.89564 -3.67415 0
M  V30 2396 N 213.947 6.08661 -3.49966 0
M  V30 2397 H 218.787 1.7387 -2.42019 0
M  V30 2398 H 216.324 0.84868 -1.20149 0
M  V30 2399 H 218.282 3.95914 -1.31561 0
M  V30 2400 H 216.912 3.19374 -0.469033 0
M  V30 2401 H 215.964 2.56774 -2.80662 0
M  V30 2402 H 217.276 3.52557 -3.52853 0
M  V30 2403 H 216.43 5.5814 -2.37834 0
M  V30 2404 H 215.169 4.62353 -1.5518 0
M  V30 2405 H 214.174 4.00096 -3.77099 0
M  V30 2406 H 215.399 4.99282 -4.6032 0
M  V30 2407 H 213.345 6.0194 -2.60776 0
M  V30 2408 H 213.262 6.19733 -4.32975 0
M  V30 2409 H 214.53 6.99226 -3.44532 0
M  V30 2410 N 218.759 1.29093 0.90403 0
M  V30 2411 C 220.008 1.16187 1.64874 0
M  V30 2412 C 220.321 -0.286742 1.93487 0
M  V30 2413 O 221.527 -0.537062 2.66135 0
M  V30 2414 C 219.983 2.03177 2.97064 0
M  V30 2415 C 219.591 3.52836 2.76062 0
M  V30 2416 C 221.335 1.98984 3.74974 0
M  V30 2417 C 219.242 4.31945 4.03952 0
M  V30 2418 H 218.172 0.431246 0.618501 0
M  V30 2419 H 220.823 1.53699 1.00243 0
M  V30 2420 H 219.205 1.5853 3.62883 0
M  V30 2421 H 220.379 4.05507 2.18863 0
M  V30 2422 H 218.694 3.58656 2.11553 0
M  V30 2423 H 221.291 2.55351 4.69787 0
M  V30 2424 H 221.634 0.968815 4.0487 0
M  V30 2425 H 222.167 2.41652 3.15989 0
M  V30 2426 H 218.906 5.34667 3.79225 0
M  V30 2427 H 218.426 3.84045 4.60727 0
M  V30 2428 H 220.105 4.42379 4.72133 0
M  V30 2429 N 220.237 -1.11381 1.11499 0
M  V30 2430 C 221.653 -1.35143 0.849031 0
M  V30 2431 C 221.853 -1.94515 -0.525938 0
M  V30 2432 O 220.909 -2.1785 -1.27662 0
M  V30 2433 C 222.222 -2.28249 1.95762 0
M  V30 2434 C 223.77 -2.41812 1.98736 0
M  V30 2435 C 224.245 -3.3824 3.088 0
M  V30 2436 N 225.736 -3.45803 3.08179 0
M  V30 2437 C 226.471 -4.20358 3.89982 0
M  V30 2438 N 225.967 -4.97884 4.8175 0
M  V30 2439 N 227.76 -4.15877 3.78157 0
M  V30 2440 H 219.911 -0.712062 2.00109 0
M  V30 2441 H 222.174 -0.376025 0.870235 0
M  V30 2442 H 221.88 -1.91817 2.94787 0
M  V30 2443 H 221.754 -3.28473 1.85433 0
M  V30 2444 H 224.141 -2.77518 1.00338 0
M  V30 2445 H 224.222 -1.41437 2.13141 0
M  V30 2446 H 223.866 -3.03261 4.07425 0
M  V30 2447 H 223.796 -4.38471 2.91635 0
M  V30 2448 H 226.287 -2.90506 2.41691 0
M  V30 2449 H 226.6 -5.52142 5.40702 0
M  V30 2450 H 224.945 -4.97043 4.85771 0
M  V30 2451 H 228.136 -3.544 3.05808 0
M  V30 2452 H 228.309 -4.73723 4.42143 0
M  V30 2453 N 221.715 -0.905404 -1.28997 0
M  V30 2454 C 222.662 -0.385892 -2.27551 0
M  V30 2455 C 223.632 0.535113 -1.57244 0
M  V30 2456 O 224.817 0.459119 -1.85194 0
M  V30 2457 C 221.957 0.375461 -3.43051 0
M  V30 2458 C 221.07 -0.577092 -4.28128 0
M  V30 2459 C 220.205 0.201879 -5.30816 0
M  V30 2460 C 219.244 -0.744829 -6.07551 0
M  V30 2461 N 218.381 9.42587e-05 -7.021 0
M  V30 2462 H 223.221 -1.23139 -2.71368 0
M  V30 2463 H 220.758 -0.618542 -1.33463 0
M  V30 2464 H 222.716 0.832992 -4.088 0
M  V30 2465 H 221.346 1.18537 -3.00248 0
M  V30 2466 H 220.398 -1.15315 -3.62501 0
M  V30 2467 H 221.71 -1.30152 -4.8152 0
M  V30 2468 H 220.864 0.720351 -6.02408 0
M  V30 2469 H 219.603 0.959413 -4.7817 0
M  V30 2470 H 218.608 -1.27475 -5.34818 0
M  V30 2471 H 219.833 -1.50178 -6.62286 0
M  V30 2472 H 217.779 0.739791 -6.51815 0
M  V30 2473 H 217.696 -0.664321 -7.53076 0
M  V30 2474 H 218.964 0.498644 -7.77903 0
M  V30 2475 N 223.193 1.4272 -0.668489 0
M  V30 2476 C 224.442 2.00846 -0.185389 0
M  V30 2477 C 224.755 1.53442 1.21305 0
M  V30 2478 O 225.961 2.03944 1.79218 0
M  V30 2479 C 224.417 3.58805 -0.280591 0
M  V30 2480 C 224.025 4.15198 -1.68268 0
M  V30 2481 C 225.769 4.24255 0.14412 0
M  V30 2482 C 223.676 5.655 -1.73099 0
M  V30 2483 H 222.606 0.751145 -0.0655475 0
M  V30 2484 H 225.257 1.63516 -0.832752 0
M  V30 2485 H 223.639 3.93608 0.434553 0
M  V30 2486 H 224.813 3.91866 -2.42441 0
M  V30 2487 H 223.128 3.62176 -2.05469 0
M  V30 2488 H 225.725 5.34547 0.128086 0
M  V30 2489 H 226.068 3.99277 1.17827 0
M  V30 2490 H 226.601 3.94389 -0.519798 0
M  V30 2491 H 223.34 5.95268 -2.74475 0
M  V30 2492 H 222.86 5.90842 -1.03274 0
M  V30 2493 H 224.539 6.29808 -1.48158 0
M  V30 2494 N 224.671 0.411399 1.52136 0
M  V30 2495 C 225.92 -0.165009 2.01024 0
M  V30 2496 C 226.233 -1.4603 1.30133 0
M  V30 2497 O 227.439 -2.1181 1.69849 0
M  V30 2498 C 225.895 -0.344618 3.58246 0
M  V30 2499 C 225.503 0.938716 4.38055 0
M  V30 2500 C 227.247 -0.876195 4.15359 0
M  V30 2501 C 225.154 0.726172 5.86925 0
M  V30 2502 H 224.084 -0.0654407 0.751155 0
M  V30 2503 H 226.735 0.537192 1.75461 0
M  V30 2504 H 225.117 -1.10921 3.80148 0
M  V30 2505 H 226.291 1.70963 4.27912 0
M  V30 2506 H 224.606 1.39688 3.92271 0
M  V30 2507 H 227.203 -1.05128 5.24263 0
M  V30 2508 H 227.546 -1.85152 3.7286 0
M  V30 2509 H 228.079 -0.170607 3.97434 0
M  V30 2510 H 224.818 1.67312 6.33788 0
M  V30 2511 H 224.338 -0.00540283 5.998 0
M  V30 2512 H 226.017 0.369231 6.45946 0
M  V30 2513 N 226.149 -1.5696 0.141893 0
M  V30 2514 C 227.059 -2.20066 -0.812905 0
M  V30 2515 C 228.075 -1.18344 -1.27557 0
M  V30 2516 O 229.251 -1.50902 -1.33381 0
M  V30 2517 C 226.316 -2.80583 -2.03652 0
M  V30 2518 C 225.377 -3.97414 -1.62359 0
M  V30 2519 C 224.61 -4.55036 -2.78887 0
M  V30 2520 O 224.833 -4.11538 -3.94959 0
M  V30 2521 O 223.767 -5.45376 -2.54653 0
M  V30 2522 H 227.593 -3.02157 -0.305746 0
M  V30 2523 H 225.178 -1.49159 -0.0848799 0
M  V30 2524 H 227.06 -3.19067 -2.75272 0
M  V30 2525 H 225.735 -2.01508 -2.5333 0
M  V30 2526 H 224.642 -3.63656 -0.877775 0
M  V30 2527 H 225.975 -4.77994 -1.17401 0
M  V30 2528 N 227.627 0.131896 -1.57047 0
M  V30 2529 C 228.537 1.1815 -2.02676 0
M  V30 2530 C 229.553 1.46113 -0.944824 0
M  V30 2531 O 230.729 1.57485 -1.25541 0
M  V30 2532 C 227.794 2.49139 -2.41103 0
M  V30 2533 C 226.855 2.28688 -3.63318 0
M  V30 2534 C 226.088 3.53431 -3.99903 0
M  V30 2535 O 226.311 4.60223 -3.36973 0
M  V30 2536 O 225.245 3.45198 -4.93074 0
M  V30 2537 H 229.071 0.824069 -2.92306 0
M  V30 2538 H 226.656 0.341745 -1.45439 0
M  V30 2539 H 228.538 3.26338 -2.66611 0
M  V30 2540 H 227.213 2.84382 -1.54624 0
M  V30 2541 H 226.12 1.4939 -3.42977 0
M  V30 2542 H 227.453 1.98355 -4.50462 0
M  V30 2543 N 229.106 1.52395 0.401703 0
M  V30 2544 C 230.016 1.7917 1.51444 0
M  V30 2545 C 231.032 0.677691 1.6026 0
M  V30 2546 O 232.208 0.963909 1.76835 0
M  V30 2547 C 229.273 1.94347 2.87107 0
M  V30 2548 C 228.334 3.18257 2.88116 0
M  V30 2549 C 227.567 3.32701 4.17308 0
M  V30 2550 O 227.79 2.52238 5.11598 0
M  V30 2551 O 226.724 4.25891 4.25324 0
M  V30 2552 H 230.55 2.73633 1.31752 0
M  V30 2553 H 228.135 1.3733 0.588296 0
M  V30 2554 H 230.017 2.06109 3.67555 0
M  V30 2555 H 228.692 1.03073 3.06851 0
M  V30 2556 H 227.599 3.11947 2.06494 0
M  V30 2557 H 228.932 4.09336 2.73322 0
M  V30 2558 N 230.584 -0.659388 1.43143 0
M  V30 2559 C 231.494 -1.80167 1.50256 0
M  V30 2560 C 232.51 -1.69571 0.390106 0
M  V30 2561 O 233.686 -1.90849 0.643319 0
M  V30 2562 C 230.751 -3.16409 1.41725 0
M  V30 2563 C 229.812 -3.38848 2.63591 0
M  V30 2564 C 229.045 -4.68591 2.55458 0
M  V30 2565 O 229.268 -5.47532 1.59891 0
M  V30 2566 O 228.202 -4.92614 3.45854 0
M  V30 2567 H 232.028 -1.77121 2.46702 0
M  V30 2568 H 229.613 -0.817092 1.25076 0
M  V30 2569 H 231.495 -3.9768 1.39387 0
M  V30 2570 H 230.17 -3.20059 0.484118 0
M  V30 2571 H 229.077 -2.57366 2.71502 0
M  V30 2572 H 230.41 -3.4004 3.55856 0
M  V30 2573 N 232.062 -1.29571 -0.897171 0
M  V30 2574 C 232.972 -1.16808 -2.03453 0
M  V30 2575 C 233.988 -0.0907471 -1.73763 0
M  V30 2576 O 235.164 -0.303312 -1.99103 0
M  V30 2577 C 232.229 -0.848264 -3.36163 0
M  V30 2578 C 231.29 -2.0097 -3.79354 0
M  V30 2579 C 230.523 -1.70505 -5.05731 0
M  V30 2580 O 230.746 -0.62718 -5.66941 0
M  V30 2581 O 229.68 -2.5538 -5.45036 0
M  V30 2582 H 233.506 -2.12325 -2.17144 0
M  V30 2583 H 231.091 -1.09047 -1.02123 0
M  V30 2584 H 232.973 -0.684581 -4.15802 0
M  V30 2585 H 231.648 0.0771071 -3.23608 0
M  V30 2586 H 230.555 -2.22863 -3.00471 0
M  V30 2587 H 231.888 -2.91636 -3.96496 0
M  V30 2588 N 233.54 1.10788 -1.12088 0
M  V30 2589 C 234.789 1.82036 -0.868659 0
M  V30 2590 C 235.102 1.85929 0.607426 0
M  V30 2591 O 236.308 2.53346 0.97613 0
M  V30 2592 C 234.764 3.26951 -1.50435 0
M  V30 2593 C 234.372 3.31367 -3.01496 0
M  V30 2594 C 236.116 4.03053 -1.33225 0
M  V30 2595 C 234.023 4.7072 -3.58017 0
M  V30 2596 H 232.953 0.682108 -0.321318 0
M  V30 2597 H 235.604 1.24618 -1.34694 0
M  V30 2598 H 233.986 3.84343 -0.953735 0
M  V30 2599 H 235.16 2.83819 -3.6302 0
M  V30 2600 H 233.475 2.6875 -3.18061 0
M  V30 2601 H 236.072 5.05981 -1.72878 0
M  V30 2602 H 236.415 4.15387 -0.275529 0
M  V30 2603 H 236.948 3.52066 -1.85188 0
M  V30 2604 H 233.687 4.63585 -4.63432 0
M  V30 2605 H 233.207 5.1865 -3.01268 0
M  V30 2606 H 234.886 5.39685 -3.56859 0
M  V30 2607 N 235.018 0.912232 1.28515 0
M  V30 2608 C 235.966 0.389597 2.29314 0
M  V30 2609 C 236.96 -0.517915 1.61289 0
M  V30 2610 O 238.166 -0.399328 1.75515 0
M  V30 2611 H 234.541 0.107386 0.744293 0
M  V30 2612 H 236.512 1.25286 2.70825 0
M  V30 2613 C 235.261 -0.356496 3.45868 0
M  V30 2614 H 234.584 0.332608 3.98414 0
M  V30 2615 H 236.024 -0.686851 4.184 0
M  V30 2616 C 234.483 -1.56383 2.98406 0
M  V30 2617 O 235.013 -2.66294 3.00749 0
M  V30 2618 N 233.219 -1.41029 2.54085 0
M  V30 2619 H 232.766 -0.516089 2.52377 0
M  V30 2620 H 232.724 -2.21939 2.22689 0
M  V30 2621 N 236.496 -1.42363 0.676048 0
M  V30 2622 C 237.726 -2.05561 0.206967 0
M  V30 2623 C 238.134 -1.50887 -1.14148 0
M  V30 2624 O 237.477 -0.643933 -1.72044 0
M  V30 2625 C 237.539 -3.5944 0.0659508 0
M  V30 2626 C 237.203 -4.36812 1.34331 0
M  V30 2627 C 238.2 -4.67383 2.27704 0
M  V30 2628 C 235.885 -4.76429 1.59125 0
M  V30 2629 C 237.879 -5.36509 3.44147 0
M  V30 2630 C 235.566 -5.45294 2.75857 0
M  V30 2631 C 236.564 -5.75259 3.68193 0
M  V30 2632 O 236.252 -6.42712 4.82883 0
M  V30 2633 H 235.984 -0.668872 0.0979084 0
M  V30 2634 H 238.538 -1.83467 0.923531 0
M  V30 2635 H 236.768 -3.80197 -0.706204 0
M  V30 2636 H 238.457 -4.0427 -0.363418 0
M  V30 2637 H 239.223 -4.37275 2.09799 0
M  V30 2638 H 235.102 -4.52498 0.881258 0
M  V30 2639 H 238.646 -5.59814 4.16238 0
M  V30 2640 H 234.543 -5.7482 2.93688 0
M  V30 2641 H 235.311 -6.61204 4.82444 0
M  V30 2642 N 237.974 -0.419461 -1.51915 0
M  V30 2643 C 238.907 0.445751 -2.23804 0
M  V30 2644 C 239.885 1.03951 -1.25031 0
M  V30 2645 O 241.069 1.08541 -1.54114 0
M  V30 2646 C 238.196 1.61964 -2.97465 0
M  V30 2647 C 237.242 1.14828 -4.10751 0
M  V30 2648 S 238.075 0.104938 -5.35397 0
M  V30 2649 C 239.231 1.28391 -6.1259 0
M  V30 2650 H 239.464 -0.164627 -2.96844 0
M  V30 2651 H 236.997 -0.203833 -1.53049 0
M  V30 2652 H 238.955 2.29271 -3.40507 0
M  V30 2653 H 237.616 2.20139 -2.24048 0
M  V30 2654 H 236.809 2.02561 -4.61503 0
M  V30 2655 H 236.411 0.553712 -3.69878 0
M  V30 2656 H 238.703 2.20563 -6.40592 0
M  V30 2657 H 239.646 0.816724 -7.03374 0
M  V30 2658 H 240.054 1.51439 -5.43807 0
M  V30 2659 N 239.452 1.56882 -0.150215 0
M  V30 2660 C 240.399 2.16922 0.788244 0
M  V30 2661 C 241.369 1.10303 1.24187 0
M  V30 2662 O 242.554 1.38359 1.31383 0
M  V30 2663 C 239.694 2.79754 2.02068 0
M  V30 2664 C 238.807 4.00775 1.61257 0
M  V30 2665 C 237.942 4.51595 2.79705 0
M  V30 2666 C 236.981 5.65074 2.35282 0
M  V30 2667 N 236.118 6.10499 3.4675 0
M  V30 2668 H 240.958 2.96779 0.269444 0
M  V30 2669 H 238.495 1.46599 0.12128 0
M  V30 2670 H 240.453 3.14329 2.74323 0
M  V30 2671 H 239.083 2.02536 2.51354 0
M  V30 2672 H 238.135 3.72158 0.787553 0
M  V30 2673 H 239.447 4.82978 1.24633 0
M  V30 2674 H 238.601 4.88242 3.60145 0
M  V30 2675 H 237.34 3.68406 3.19576 0
M  V30 2676 H 236.345 5.28 1.53283 0
M  V30 2677 H 237.57 6.50052 1.96493 0
M  V30 2678 H 235.516 5.30243 3.86236 0
M  V30 2679 H 235.433 6.87637 3.14152 0
M  V30 2680 H 236.701 6.51791 4.27537 0
M  V30 2681 N 240.93 -0.123565 1.57115 0
M  V30 2682 C 242.346 -0.476961 1.52306 0
M  V30 2683 C 242.546 -1.82109 0.86248 0
M  V30 2684 O 241.602 -2.48586 0.442884 0
M  V30 2685 C 242.915 -0.465661 2.97073 0
M  V30 2686 C 244.463 -0.549534 3.08138 0
M  V30 2687 C 244.938 -0.568669 4.54456 0
M  V30 2688 N 246.429 -0.630237 4.58892 0
M  V30 2689 C 247.164 -0.666415 5.69514 0
M  V30 2690 N 246.66 -0.660514 6.89644 0
M  V30 2691 N 248.453 -0.709077 5.5761 0
M  V30 2692 H 240.604 0.757198 1.98445 0
M  V30 2693 H 242.867 0.278808 0.906074 0
M  V30 2694 H 242.573 0.454232 3.48754 0
M  V30 2695 H 242.447 -1.29513 3.54269 0
M  V30 2696 H 244.834 -1.45985 2.56461 0
M  V30 2697 H 244.915 0.307532 2.53945 0
M  V30 2698 H 244.559 0.337581 5.06777 0
M  V30 2699 H 244.489 -1.44256 5.06456 0
M  V30 2700 H 246.98 -0.641146 3.72421 0
M  V30 2701 H 247.293 -0.690616 7.69708 0
M  V30 2702 H 245.638 -0.628012 6.92157 0
M  V30 2703 H 248.829 -0.711019 4.62668 0
M  V30 2704 H 249.002 -0.733804 6.43832 0
M  V30 2705 N 242.408 -1.52605 -0.393616 0
M  V30 2706 C 243.341 -1.71798 -1.50202 0
M  V30 2707 C 244.319 -0.565743 -1.52441 0
M  V30 2708 O 245.503 -0.794987 -1.70916 0
M  V30 2709 C 242.63 -1.7714 -2.88685 0
M  V30 2710 C 241.676 -2.98845 -3.04292 0
M  V30 2711 S 242.509 -4.58909 -2.75976 0
M  V30 2712 C 243.665 -4.6706 -4.1666 0
M  V30 2713 H 243.898 -2.65542 -1.33696 0
M  V30 2714 H 241.431 -1.42839 -0.586195 0
M  V30 2715 H 243.389 -1.80903 -3.68489 0
M  V30 2716 H 242.05 -0.844969 -3.02521 0
M  V30 2717 H 241.243 -2.99111 -4.05646 0
M  V30 2718 H 240.845 -2.9305 -2.32374 0
M  V30 2719 H 243.137 -4.45391 -5.10523 0
M  V30 2720 H 244.08 -5.6905 -4.21412 0
M  V30 2721 H 244.488 -3.95944 -4.02354 0
M  V30 2722 N 243.887 0.651787 -1.4349 0
M  V30 2723 C 245.135 1.40888 -1.44897 0
M  V30 2724 C 245.456 1.94856 -0.0749086 0
M  V30 2725 O 244.726 1.74518 0.889956 0
M  V30 2726 H 243.306 0.522887 -0.533478 0
M  V30 2727 H 245.968 0.768609 -1.79104 0
M  V30 2728 H 245.064 2.25052 -2.16236 0
M  V30 2729 N 245.365 1.30045 0.890287 0
M  V30 2730 C 246.315 1.12592 1.9826 0
M  V30 2731 C 247.299 0.0426021 1.60844 0
M  V30 2732 O 248.491 0.265346 1.75 0
M  V30 2733 C 245.62 0.814301 3.33503 0
M  V30 2734 C 244.706 1.93761 3.7725 0
M  V30 2735 N 245.097 3.18232 3.93143 0
M  V30 2736 C 243.395 1.83277 4.06602 0
M  V30 2737 C 244.096 3.9158 4.30163 0
M  V30 2738 N 243.072 3.19591 4.3973 0
M  V30 2739 H 246.874 2.07003 2.08631 0
M  V30 2740 H 244.388 1.21307 1.07974 0
M  V30 2741 H 246.385 0.67029 4.11476 0
M  V30 2742 H 245.045 -0.121797 3.24471 0
M  V30 2743 H 246.056 3.53581 3.78419 0
M  V30 2744 H 242.733 0.97001 4.06075 0
M  V30 2745 H 244.123 4.98744 4.50226 0
M  V30 2746 N 246.843 -1.10192 1.12674 0
M  V30 2747 C 248.259 -1.34235 0.863317 0
M  V30 2748 C 248.459 -1.95062 -0.505277 0
M  V30 2749 O 247.515 -2.19192 -1.25345 0
M  V30 2750 C 248.828 -2.2616 1.98172 0
M  V30 2751 C 250.376 -2.3969 2.0129 0
M  V30 2752 C 250.851 -3.34946 3.1237 0
M  V30 2753 N 252.342 -3.42515 3.11829 0
M  V30 2754 C 253.077 -4.16199 3.94419 0
M  V30 2755 N 252.573 -4.92747 4.87004 0
M  V30 2756 N 254.366 -4.11843 3.82547 0
M  V30 2757 H 246.517 -0.690798 2.00853 0
M  V30 2758 H 248.78 -0.366774 0.874174 0
M  V30 2759 H 248.486 -1.8868 2.96804 0
M  V30 2760 H 248.36 -3.26488 1.88906 0
M  V30 2761 H 250.747 -2.76438 1.03276 0
M  V30 2762 H 250.828 -1.39169 2.14629 0
M  V30 2763 H 250.472 -2.98923 4.10619 0
M  V30 2764 H 250.402 -4.35353 2.96269 0
M  V30 2765 H 252.893 -2.87926 2.44759 0
M  V30 2766 H 253.206 -5.46376 5.46528 0
M  V30 2767 H 251.551 -4.91862 4.91016 0
M  V30 2768 H 254.742 -3.51136 3.0955 0
M  V30 2769 H 254.915 -4.69007 4.47142 0
M  V30 2770 N 248.321 -0.919034 -1.28029 0
M  V30 2771 C 249.567 -0.565221 -1.95389 0
M  V30 2772 C 249.922 0.882325 -1.70976 0
M  V30 2773 O 249.215 1.61988 -1.02325 0
M  V30 2774 C 249.409 -0.816855 -3.4794 0
M  V30 2775 C 249.238 -2.28731 -3.87185 0
M  V30 2776 C 248.008 -2.93841 -4.11079 0
M  V30 2777 C 250.206 -3.26415 -3.97439 0
M  V30 2778 N 248.188 -4.31129 -4.37037 0
M  V30 2779 C 249.559 -4.48884 -4.27672 0
M  V30 2780 C 251.614 -3.21742 -3.79982 0
M  V30 2781 C 250.317 -5.67268 -4.42266 0
M  V30 2782 C 252.343 -4.39431 -3.95796 0
M  V30 2783 C 251.705 -5.60675 -4.26407 0
M  V30 2784 H 247.804 -0.256797 -0.738633 0
M  V30 2785 H 250.388 -1.18386 -1.54573 0
M  V30 2786 H 248.559 -0.227445 -3.87733 0
M  V30 2787 H 250.291 -0.426542 -4.02446 0
M  V30 2788 H 247.046 -2.44547 -4.05578 0
M  V30 2789 H 247.47 -5.02127 -4.5409 0
M  V30 2790 H 252.112 -2.29079 -3.55363 0
M  V30 2791 H 249.83 -6.60406 -4.65714 0
M  V30 2792 H 253.416 -4.37323 -3.83719 0
M  V30 2793 H 252.296 -6.50223 -4.38383 0
M  V30 2794 N 249.799 1.42003 -0.683588 0
M  V30 2795 C 251.045 2.01712 -0.209825 0
M  V30 2796 C 251.378 1.53968 1.18353 0
M  V30 2797 O 250.653 0.745661 1.79639 0
M  V30 2798 C 250.936 3.59202 -0.254197 0
M  V30 2799 C 250.789 4.17102 -1.68363 0
M  V30 2800 C 252.108 4.38344 0.392709 0
M  V30 2801 H 249.227 0.732891 -0.0777189 0
M  V30 2802 H 251.869 1.68909 -0.87004 0
M  V30 2803 H 250.019 3.87278 0.307954 0
M  V30 2804 H 251.691 3.99946 -2.29871 0
M  V30 2805 H 249.934 3.72597 -2.22157 0
M  V30 2806 H 250.605 5.26249 -1.6663 0
M  V30 2807 H 253.081 4.16011 -0.0859162 0
M  V30 2808 H 251.957 5.47901 0.331063 0
M  V30 2809 H 252.218 4.16887 1.47164 0
M  V30 2810 N 251.277 0.427512 1.51691 0
M  V30 2811 C 252.505 -0.141191 2.06418 0
M  V30 2812 C 252.92 -1.37303 1.29589 0
M  V30 2813 O 252.277 -1.79059 0.352732 0
M  V30 2814 C 252.328 -0.473266 3.58389 0
M  V30 2815 O 252.049 0.709673 4.32314 0
M  V30 2816 C 253.55 -1.09371 4.29596 0
M  V30 2817 H 250.77 -0.0122747 0.670888 0
M  V30 2818 H 253.314 0.603764 1.95384 0
M  V30 2819 H 251.469 -1.16812 3.69369 0
M  V30 2820 H 251.883 0.42807 5.2275 0
M  V30 2821 H 253.357 -1.27613 5.37046 0
M  V30 2822 H 253.834 -2.072 3.87253 0
M  V30 2823 H 254.44 -0.43853 4.23033 0
M  V30 2824 N 252.755 -1.56801 0.158532 0
M  V30 2825 C 254.032 -1.88131 -0.535357 0
M  V30 2826 C 254.412 -1.06638 -1.82186 0
M  V30 2827 O 253.76 -0.156533 -2.27963 0
M  V30 2828 C 253.97 -3.39949 -0.789653 0
M  V30 2829 C 255.318 -4.09416 -1.12533 0
M  V30 2830 O 256.342 -3.45194 -0.878622 0
M  V30 2831 O 255.201 -5.22855 -1.59014 0
M  V30 2832 H 252.295 -0.780143 -0.27442 0
M  V30 2833 H 254.841 -1.68564 0.19601 0
M  V30 2834 H 253.613 -3.91115 0.120353 0
M  V30 2835 H 253.236 -3.65084 -1.57479 0
M  V30 2836 N 254.233 0.115231 -1.57178 0
M  V30 2837 C 255.163 1.1423 -2.03651 0
M  V30 2838 C 256.144 1.42967 -0.921655 0
M  V30 2839 O 257.329 1.53343 -1.19162 0
M  V30 2840 C 254.459 2.4675 -2.44401 0
M  V30 2841 C 253.413 2.32467 -3.59365 0
M  V30 2842 C 252.739 3.69984 -3.86026 0
M  V30 2843 C 254.039 1.78203 -4.90959 0
M  V30 2844 H 255.733 0.755749 -2.89705 0
M  V30 2845 H 253.279 0.362093 -1.39373 0
M  V30 2846 H 255.232 3.18854 -2.75517 0
M  V30 2847 H 253.956 2.87302 -1.55322 0
M  V30 2848 H 252.615 1.62811 -3.28463 0
M  V30 2849 H 252.263 4.08028 -2.94147 0
M  V30 2850 H 251.963 3.61279 -4.63412 0
M  V30 2851 H 253.487 4.43587 -4.19599 0
M  V30 2852 H 254.901 2.40128 -5.20587 0
M  V30 2853 H 253.298 1.8031 -5.72371 0
M  V30 2854 H 254.368 0.739876 -4.79222 0
M  V30 2855 N 255.711 1.52812 0.385517 0
M  V30 2856 C 256.658 1.77838 1.47113 0
M  V30 2857 C 257.628 0.621757 1.54024 0
M  V30 2858 O 258.813 0.861846 1.70226 0
M  V30 2859 C 255.953 1.95618 2.84302 0
M  V30 2860 C 255.066 3.23316 2.86515 0
M  V30 2861 C 254.201 3.31394 4.15152 0
M  V30 2862 C 253.24 4.53201 4.1143 0
M  V30 2863 N 252.377 4.58542 5.3168 0
M  V30 2864 H 257.217 2.70482 1.25073 0
M  V30 2865 H 254.754 1.34006 0.606692 0
M  V30 2866 H 256.712 2.03912 3.63972 0
M  V30 2867 H 255.342 1.06331 3.04784 0
M  V30 2868 H 254.394 3.24076 1.99195 0
M  V30 2869 H 255.706 4.13045 2.79634 0
M  V30 2870 H 254.86 3.3889 5.03228 0
M  V30 2871 H 253.599 2.39645 4.24761 0
M  V30 2872 H 252.604 4.45827 3.21742 0
M  V30 2873 H 253.829 5.46271 4.03442 0
M  V30 2874 H 251.775 3.69686 5.41912 0
M  V30 2875 H 251.692 5.42148 5.26889 0
M  V30 2876 H 252.96 4.70296 6.21644 0
M  V30 2877 N 257.189 -0.644168 1.43834 0
M  V30 2878 C 258.136 -1.75671 1.49694 0
M  V30 2879 C 259.106 -1.6246 0.345809 0
M  V30 2880 O 260.291 -1.82573 0.554234 0
M  V30 2881 C 257.431 -3.13867 1.43463 0
M  V30 2882 C 256.544 -3.38147 2.6885 0
M  V30 2883 C 255.679 -4.66241 2.54544 0
M  V30 2884 C 254.718 -4.83657 3.75157 0
M  V30 2885 N 253.855 -6.03016 3.59605 0
M  V30 2886 H 258.695 -1.69998 2.44754 0
M  V30 2887 H 256.232 -0.829458 1.21484 0
M  V30 2888 H 258.19 -3.9377 1.37843 0
M  V30 2889 H 256.82 -3.18588 0.519783 0
M  V30 2890 H 255.872 -2.52276 2.84712 0
M  V30 2891 H 257.184 -3.46899 3.58417 0
M  V30 2892 H 256.338 -5.54285 2.46683 0
M  V30 2893 H 255.077 -4.59826 1.62516 0
M  V30 2894 H 254.082 -3.94046 3.83416 0
M  V30 2895 H 255.307 -4.91896 4.68204 0
M  V30 2896 H 253.253 -5.97715 2.7032 0
M  V30 2897 H 253.17 -6.12766 4.42779 0
M  V30 2898 H 254.438 -6.93657 3.55613 0
M  V30 2899 N 258.668 -1.30515 -0.883378 0
M  V30 2900 C 259.598 -1.19607 -2.00541 0
M  V30 2901 C 260.579 -0.086346 -1.69881 0
M  V30 2902 O 261.764 -0.268654 -1.92333 0
M  V30 2903 C 258.894 -0.888758 -3.35736 0
M  V30 2904 C 257.848 -1.95659 -3.8066 0
M  V30 2905 C 257.174 -1.50224 -5.13164 0
M  V30 2906 C 258.474 -3.36788 -3.99213 0
M  V30 2907 H 260.168 -2.13476 -2.09925 0
M  V30 2908 H 257.714 -1.02775 -1.00863 0
M  V30 2909 H 259.667 -0.799094 -4.13754 0
M  V30 2910 H 258.391 0.0856125 -3.26488 0
M  V30 2911 H 257.05 -2.03591 -3.04871 0
M  V30 2912 H 256.698 -0.516092 -5.00345 0
M  V30 2913 H 256.398 -2.2165 -5.44192 0
M  V30 2914 H 257.922 -1.42639 -5.93706 0
M  V30 2915 H 259.336 -3.31605 -4.67665 0
M  V30 2916 H 257.733 -4.06314 -4.41621 0
M  V30 2917 H 258.803 -3.78561 -3.03017 0
M  V30 2918 N 260.146 1.09593 -1.13257 0
M  V30 2919 C 261.562 1.33775 -0.870423 0
M  V30 2920 C 261.762 1.95327 0.494926 0
M  V30 2921 O 260.818 2.19853 1.2418 0
M  V30 2922 C 262.131 2.25106 -1.99369 0
M  V30 2923 C 263.679 2.3862 -2.02558 0
M  V30 2924 C 264.154 3.33285 -3.14142 0
M  V30 2925 N 265.645 3.40857 -3.13641 0
M  V30 2926 C 266.38 4.14101 -3.96621 0
M  V30 2927 N 265.876 4.90157 -4.8961 0
M  V30 2928 N 267.669 4.09808 -3.84726 0
M  V30 2929 H 259.82 0.680136 -2.01216 0
M  V30 2930 H 262.083 0.362133 -0.876107 0
M  V30 2931 H 261.789 1.87103 -2.97801 0
M  V30 2932 H 261.663 3.25481 -1.90635 0
M  V30 2933 H 264.05 2.75887 -1.0474 0
M  V30 2934 H 264.131 1.38028 -2.15364 0
M  V30 2935 H 263.775 2.96741 -4.12198 0
M  V30 2936 H 263.705 4.33776 -2.98574 0
M  V30 2937 H 266.196 2.86624 -2.46282 0
M  V30 2938 H 266.509 5.4347 -5.49418 0
M  V30 2939 H 264.854 4.89251 -4.93617 0
M  V30 2940 H 268.045 3.4949 -3.11408 0
M  V30 2941 H 268.218 4.66629 -4.49623 0
M  V30 2942 N 261.624 0.925811 1.2754 0
M  V30 2943 C 262.852 0.581509 1.9856 0
M  V30 2944 C 263.267 -0.840041 1.69082 0
M  V30 2945 O 262.624 -1.55805 0.950312 0
M  V30 2946 C 262.675 0.795589 3.52637 0
M  V30 2947 O 262.396 2.16121 3.81082 0
M  V30 2948 C 263.897 0.459744 4.4091 0
M  V30 2949 H 261.117 0.220538 0.633722 0
M  V30 2950 H 263.661 1.24232 1.6244 0
M  V30 2951 H 261.816 0.18161 3.86974 0
M  V30 2952 H 262.23 2.2098 4.75676 0
M  V30 2953 H 263.704 0.660244 5.48037 0
M  V30 2954 H 264.181 -0.604625 4.35018 0
M  V30 2955 H 264.787 1.05178 4.12089 0
M  V30 2956 N 263.102 -1.41638 0.69111 0
M  V30 2957 C 264.05 -2.32597 0.0115199 0
M  V30 2958 C 265.044 -1.5072 -0.773296 0
M  V30 2959 O 266.25 -1.66685 -0.67942 0
M  V30 2960 H 262.625 -0.751849 -0.0150746 0
M  V30 2961 H 264.596 -2.87593 0.795791 0
M  V30 2962 C 263.345 -3.35467 -0.914172 0
M  V30 2963 H 262.668 -3.9852 -0.319687 0
M  V30 2964 H 264.108 -4.01662 -1.35808 0
M  V30 2965 C 262.567 -2.69004 -2.02826 0
M  V30 2966 O 263.097 -2.53444 -3.11655 0
M  V30 2967 N 261.303 -2.2777 -1.80469 0
M  V30 2968 H 260.85 -2.40626 -0.919615 0
M  V30 2969 H 260.808 -1.83635 -2.55197 0
M  V30 2970 N 264.58 -0.43555 -1.51462 0
M  V30 2971 C 265.826 0.123979 -2.03022 0
M  V30 2972 C 266.181 1.4054 -1.31401 0
M  V30 2973 O 265.474 1.86948 -0.419634 0
M  V30 2974 C 265.668 0.39942 -3.55161 0
M  V30 2975 C 265.497 -0.853754 -4.41521 0
M  V30 2976 C 264.267 -1.38675 -4.85898 0
M  V30 2977 C 266.465 -1.73939 -4.83994 0
M  V30 2978 N 264.447 -2.59265 -5.56466 0
M  V30 2979 C 265.818 -2.79135 -5.5361 0
M  V30 2980 C 267.873 -1.75402 -4.65981 0
M  V30 2981 C 266.576 -3.85737 -6.07124 0
M  V30 2982 C 268.602 -2.80938 -5.20411 0
M  V30 2983 C 267.964 -3.84854 -5.89972 0
M  V30 2984 H 264.063 0.00624887 -0.781975 0
M  V30 2985 H 266.647 -0.59582 -1.85359 0
M  V30 2986 H 264.818 1.08825 -3.72843 0
M  V30 2987 H 266.55 0.95015 -3.93388 0
M  V30 2988 H 263.305 -0.94094 -4.64159 0
M  V30 2989 H 263.729 -3.2041 -5.96378 0
M  V30 2990 H 268.371 -0.963926 -4.11665 0
M  V30 2991 H 266.089 -4.65586 -6.60496 0
M  V30 2992 H 269.675 -2.8301 -5.08327 0
M  V30 2993 H 268.555 -4.65176 -6.31333 0
M  V30 2994 N 266.058 1.56714 -0.166846 0
M  V30 2995 C 267.307 1.95922 0.479318 0
M  V30 2996 C 267.62 1.05529 1.6469 0
M  V30 2997 O 268.826 1.34399 2.35901 0
M  V30 2998 C 267.282 3.48359 0.90412 0
M  V30 2999 C 266.89 4.47369 -0.237621 0
M  V30 3000 C 268.634 3.96394 1.51896 0
M  V30 3001 C 266.541 5.91039 0.206561 0
M  V30 3002 H 265.471 0.731495 0.18284 0
M  V30 3003 H 268.122 1.81728 -0.254363 0
M  V30 3004 H 266.504 3.57955 1.69365 0
M  V30 3005 H 267.678 4.49485 -1.01489 0
M  V30 3006 H 265.993 4.09366 -0.762128 0
M  V30 3007 H 268.59 5.01186 1.86325 0
M  V30 3008 H 268.933 3.39075 2.41524 0
M  V30 3009 H 269.466 3.89796 0.79395 0
M  V30 3010 H 266.205 6.52221 -0.654834 0
M  V30 3011 H 265.725 5.9224 0.949282 0
M  V30 3012 H 267.404 6.43707 0.651939 0
M  V30 3013 N 267.536 -0.106894 1.57237 0
M  V30 3014 C 268.483 -1.13049 2.01217 0
M  V30 3015 C 269.453 -1.40471 0.886403 0
M  V30 3016 O 270.638 -1.52133 1.15153 0
M  V30 3017 C 267.778 -2.4487 2.43172 0
M  V30 3018 C 266.891 -2.24281 3.69218 0
M  V30 3019 C 266.026 -3.49417 4.00101 0
M  V30 3020 C 265.065 -3.24038 5.19294 0
M  V30 3021 N 264.202 -4.41409 5.45988 0
M  V30 3022 H 269.042 -0.748456 2.88448 0
M  V30 3023 H 266.579 -0.358054 1.42676 0
M  V30 3024 H 268.537 -3.21786 2.65537 0
M  V30 3025 H 267.167 -2.80944 1.58967 0
M  V30 3026 H 266.219 -1.38224 3.54398 0
M  V30 3027 H 267.531 -2.01512 4.56283 0
M  V30 3028 H 266.685 -4.34746 4.2318 0
M  V30 3029 H 265.424 -3.75229 3.11535 0
M  V30 3030 H 264.429 -2.37102 4.96047 0
M  V30 3031 H 265.654 -2.99584 6.09447 0
M  V30 3032 H 263.6 -4.67319 4.60379 0
M  V30 3033 H 263.517 -4.21788 6.274 0
M  V30 3034 H 264.785 -5.27836 5.73593 0
M  V30 3035 N 269.014 -1.53014 -0.377408 0
M  V30 3036 C 269.924 -1.81557 -1.48574 0
M  V30 3037 C 270.94 -0.703102 -1.59162 0
M  V30 3038 O 272.116 -0.99192 -1.75279 0
M  V30 3039 C 269.181 -1.9889 -2.83978 0
M  V30 3040 C 268.242 -3.22801 -2.83016 0
M  V30 3041 C 267.475 -3.39298 -4.11962 0
M  V30 3042 O 267.698 -2.60345 -5.0752 0
M  V30 3043 O 266.632 -4.32604 -4.18494 0
M  V30 3044 H 270.458 -2.75695 -1.27382 0
M  V30 3045 H 268.043 -1.38248 -0.566373 0
M  V30 3046 H 269.925 -2.11931 -3.6423 0
M  V30 3047 H 268.6 -1.07942 -3.05172 0
M  V30 3048 H 267.507 -3.15193 -2.01505 0
M  V30 3049 H 268.84 -4.13632 -2.66775 0
M  V30 3050 N 270.492 0.636531 -1.44174 0
M  V30 3051 C 271.722 1.42146 -1.49927 0
M  V30 3052 C 272.13 1.88812 -0.121063 0
M  V30 3053 O 271.473 1.61126 0.882267 0
M  V30 3054 C 271.535 2.67883 -2.39748 0
M  V30 3055 C 271.199 2.43048 -3.8701 0
M  V30 3056 C 272.196 2.05216 -4.77684 0
M  V30 3057 C 269.881 2.56856 -4.3166 0
M  V30 3058 C 271.875 1.81512 -6.11009 0
M  V30 3059 C 269.562 2.32766 -5.65034 0
M  V30 3060 C 270.56 1.95152 -6.54526 0
M  V30 3061 O 270.248 1.71326 -7.85431 0
M  V30 3062 H 269.98 0.442567 -0.51099 0
M  V30 3063 H 272.534 0.786158 -1.8976 0
M  V30 3064 H 270.764 3.34032 -1.94832 0
M  V30 3065 H 272.453 3.29874 -2.36513 0
M  V30 3066 H 273.219 1.94111 -4.44462 0
M  V30 3067 H 269.098 2.85104 -3.62266 0
M  V30 3068 H 272.642 1.52077 -6.80822 0
M  V30 3069 H 268.539 2.43479 -5.97819 0
M  V30 3070 H 269.307 1.85616 -7.97176 0
M  V30 3071 N 271.97 1.30982 0.876444 0
M  V30 3072 C 272.9 1.20668 1.99903 0
M  V30 3073 C 273.881 0.095354 1.69833 0
M  V30 3074 O 275.066 0.27885 1.92188 0
M  V30 3075 C 272.196 0.90655 3.3526 0
M  V30 3076 C 271.15 1.97675 3.79617 0
M  V30 3077 C 270.476 1.52943 5.1236 0
M  V30 3078 C 271.776 3.389 3.97422 0
M  V30 3079 H 273.47 2.14586 2.0879 0
M  V30 3080 H 271.016 1.03308 1.00317 0
M  V30 3081 H 272.969 0.821025 4.13324 0
M  V30 3082 H 271.693 -0.0682969 3.26529 0
M  V30 3083 H 270.352 2.05205 3.03787 0
M  V30 3084 H 270 0.54262 5.00065 0
M  V30 3085 H 269.7 2.24532 5.43009 0
M  V30 3086 H 271.224 1.45786 5.92941 0
M  V30 3087 H 272.638 3.34081 4.659 0
M  V30 3088 H 271.035 4.0865 4.3946 0
M  V30 3089 H 272.105 3.80163 3.01006 0
M  V30 3090 N 273.449 -1.08991 1.13837 0
M  V30 3091 C 274.726 -1.77863 0.813876 0
M  V30 3092 C 275.106 -1.99375 -0.693746 0
M  V30 3093 O 274.454 -1.59875 -1.63255 0
M  V30 3094 C 274.664 -3.0986 1.60586 0
M  V30 3095 C 276.012 -3.84493 1.8014 0
M  V30 3096 O 277.036 -3.19624 1.57222 0
M  V30 3097 O 275.895 -5.00957 2.18413 0
M  V30 3098 H 272.989 -0.771589 0.297624 0
M  V30 3099 H 275.535 -1.15507 1.24323 0
M  V30 3100 H 274.307 -2.89715 2.63022 0
M  V30 3101 H 273.93 -3.79942 1.17173 0
M  V30 3102 N 274.927 -0.932562 -1.27047 0
M  V30 3103 C 276.155 -0.592031 -1.98249 0
M  V30 3104 C 276.57 0.831062 -1.69525 0
M  V30 3105 O 275.927 1.55299 -0.958561 0
M  V30 3106 C 275.978 -0.814279 -3.5221 0
M  V30 3107 O 275.699 -2.18139 -3.7993 0
M  V30 3108 C 277.2 -0.483121 -4.4066 0
M  V30 3109 H 274.42 -0.223896 -0.632544 0
M  V30 3110 H 276.964 -1.25091 -1.61779 0
M  V30 3111 H 275.119 -0.20213 -3.86872 0
M  V30 3112 H 275.533 -2.235 -4.74498 0
M  V30 3113 H 277.007 -0.689298 -5.47679 0
M  V30 3114 H 277.484 0.581546 -4.35333 0
M  V30 3115 H 278.09 -1.07362 -4.11526 0
M  V30 3116 N 276.405 1.4127 -0.698611 0
M  V30 3117 C 277.368 2.29158 -0.044132 0
M  V30 3118 C 278.368 1.44529 0.704841 0
M  V30 3119 O 279.558 1.65643 0.539276 0
M  V30 3120 C 276.69 3.27459 0.947809 0
M  V30 3121 H 277.883 2.88529 -0.817994 0
M  V30 3122 H 275.436 1.49307 -0.46228 0
M  V30 3123 H 276.171 2.73073 1.74933 0
M  V30 3124 H 275.956 3.8991 0.41385 0
M  V30 3125 H 277.446 3.93311 1.40344 0
M  V30 3126 N 277.883 0.443576 1.51229 0
M  V30 3127 C 279.294 -0.0180867 1.86691 0
M  V30 3128 C 279.645 -1.41384 1.36033 0
M  V30 3129 O 278.77 -2.04291 0.713722 0
M  V30 3130 C 279.365 -0.039597 3.38777 0
M  V30 3131 C 277.924 -0.445692 3.73752 0
M  V30 3132 C 277.071 0.357584 2.74985 0
M  V30 3133 H 280.022 0.659138 1.44364 0
M  V30 3134 H 280.043 -0.847761 3.70936 0
M  V30 3135 H 279.555 0.976382 3.75617 0
M  V30 3136 H 277.656 -1.46704 3.42503 0
M  V30 3137 H 277.769 -0.166155 4.78812 0
M  V30 3138 H 276.133 -0.184973 2.54027 0
M  V30 3139 H 276.916 1.37256 3.14668 0
M  V30 3140 N 279.361 -1.56624 0.175154 0
M  V30 3141 C 280.61 -1.96173 -0.468921 0
M  V30 3142 C 280.923 -1.06401 -1.64128 0
M  V30 3143 O 282.129 -1.35648 -2.35185 0
M  V30 3144 C 280.585 -3.48833 -0.885633 0
M  V30 3145 C 280.193 -4.47237 0.261343 0
M  V30 3146 C 281.937 -3.97194 -1.49791 0
M  V30 3147 C 279.844 -5.9114 -0.175214 0
M  V30 3148 H 278.774 -0.732455 -0.178958 0
M  V30 3149 H 281.425 -1.81591 0.263997 0
M  V30 3150 H 279.807 -3.58848 -1.67464 0
M  V30 3151 H 280.981 -4.4894 1.03871 0
M  V30 3152 H 279.296 -4.08956 0.783827 0
M  V30 3153 H 281.893 -5.02167 -1.83665 0
M  V30 3154 H 282.236 -3.40351 -2.39722 0
M  V30 3155 H 282.769 -3.90212 -0.773267 0
M  V30 3156 H 279.508 -6.51865 0.689414 0
M  V30 3157 H 279.028 -5.92735 -0.91786 0
M  V30 3158 H 280.707 -6.44044 -0.617792 0
M  V30 3159 N 280.839 0.0985539 -1.57292 0
M  V30 3160 C 281.769 1.12064 -2.04851 0
M  V30 3161 C 282.75 1.41981 -0.936767 0
M  V30 3162 O 283.935 1.52071 -1.20781 0
M  V30 3163 C 281.065 2.44144 -2.47004 0
M  V30 3164 C 280.019 2.28643 -3.6181 0
M  V30 3165 C 279.345 3.65869 -3.89929 0
M  V30 3166 C 280.645 1.72986 -4.92822 0
M  V30 3167 H 282.339 0.724979 -2.9049 0
M  V30 3168 H 279.885 0.34729 -1.39749 0
M  V30 3169 H 281.838 3.15914 -2.78884 0
M  V30 3170 H 280.562 2.85639 -1.5836 0
M  V30 3171 H 279.221 1.59318 -3.30172 0
M  V30 3172 H 278.869 4.04885 -2.98458 0
M  V30 3173 H 278.569 3.56344 -4.67218 0
M  V30 3174 H 280.093 4.39112 -4.2428 0
M  V30 3175 H 281.507 2.34593 -5.23105 0
M  V30 3176 H 279.904 1.74229 -5.74251 0
M  V30 3177 H 280.974 0.689007 -4.7998 0
M  V30 3178 N 282.317 1.53212 0.369288 0
M  V30 3179 C 283.566 1.68436 1.10961 0
M  V30 3180 C 283.879 0.440738 1.9057 0
M  V30 3181 O 285.085 0.473446 2.6734 0
M  V30 3182 C 283.541 2.97744 2.0218 0
M  V30 3183 C 283.149 4.29355 1.279 0
M  V30 3184 C 284.893 3.22334 2.76226 0
M  V30 3185 C 282.8 5.49755 2.17999 0
M  V30 3186 H 281.73 0.627568 0.41794 0
M  V30 3187 H 284.381 1.79713 0.370884 0
M  V30 3188 H 282.763 2.8026 2.79768 0
M  V30 3189 H 283.937 4.57458 0.554007 0
M  V30 3190 H 282.252 4.11179 0.657311 0
M  V30 3191 H 284.849 4.09471 3.43857 0
M  V30 3192 H 285.192 2.38238 3.41392 0
M  V30 3193 H 285.725 3.40475 2.05723 0
M  V30 3194 H 282.464 6.36318 1.57417 0
M  V30 3195 H 281.984 5.25937 2.88359 0
M  V30 3196 H 283.663 5.84401 2.77641 0
M  V30 3197 N 283.795 -0.628877 1.44509 0
M  V30 3198 C 284.725 -1.75187 1.54376 0
M  V30 3199 C 285.706 -1.65411 0.396618 0
M  V30 3200 O 286.891 -1.84137 0.617031 0
M  V30 3201 C 284.021 -3.13725 1.48976 0
M  V30 3202 C 282.975 -3.38291 2.62189 0
M  V30 3203 C 282.301 -4.76883 2.41841 0
M  V30 3204 C 283.601 -3.30632 4.04326 0
M  V30 3205 H 285.295 -1.67187 2.48373 0
M  V30 3206 H 282.841 -0.802909 1.19538 0
M  V30 3207 H 284.794 -3.92064 1.54478 0
M  V30 3208 H 283.518 -3.22515 0.514961 0
M  V30 3209 H 282.177 -2.62334 2.56079 0
M  V30 3210 H 281.825 -4.82378 1.42548 0
M  V30 3211 H 281.525 -4.94278 3.17747 0
M  V30 3212 H 283.049 -5.57449 2.49165 0
M  V30 3213 H 284.463 -3.98873 4.11793 0
M  V30 3214 H 282.86 -3.59561 4.80454 0
M  V30 3215 H 283.93 -2.28404 4.27738 0
M  V30 3216 N 285.273 -1.31445 -0.869486 0
M  V30 3217 C 286.522 -1.20517 -1.61736 0
M  V30 3218 C 286.835 0.235341 -1.94179 0
M  V30 3219 O 288.041 0.466312 -2.67465 0
M  V30 3220 C 286.497 -2.10982 -2.91573 0
M  V30 3221 C 286.105 -3.60032 -2.66611 0
M  V30 3222 C 287.849 -2.08856 -3.69567 0
M  V30 3223 C 285.756 -4.42503 -3.92358 0
M  V30 3224 H 284.686 -0.447493 -0.606849 0
M  V30 3225 H 287.337 -1.56303 -0.96133 0
M  V30 3226 H 285.719 -1.68095 -3.58553 0
M  V30 3227 H 286.893 -4.11167 -2.08035 0
M  V30 3228 H 285.208 -3.64139 -2.0197 0
M  V30 3229 H 287.805 -2.67716 -4.62852 0
M  V30 3230 H 288.148 -1.07582 -4.02159 0
M  V30 3231 H 288.681 -2.49945 -3.09471 0
M  V30 3232 H 285.42 -5.44533 -3.64916 0
M  V30 3233 H 284.94 -3.96125 -4.50383 0
M  V30 3234 H 286.619 -4.54741 -4.60238 0
M  V30 3235 N 286.751 1.08385 -1.14413 0
M  V30 3236 C 287.998 1.80776 -0.912482 0
M  V30 3237 C 288.326 1.86236 0.560934 0
M  V30 3238 O 287.581 1.33431 1.43159 0
M  V30 3239 C 287.88 3.26273 -1.45879 0
M  V30 3240 C 287.546 3.4093 -2.95089 0
M  V30 3241 C 286.208 3.44638 -3.35824 0
M  V30 3242 C 288.56 3.44591 -3.91033 0
M  V30 3243 C 285.888 3.49597 -4.71167 0
M  V30 3244 C 288.24 3.51086 -5.26233 0
M  V30 3245 C 286.904 3.53067 -5.6648 0
M  V30 3246 H 286.174 0.661507 -0.333901 0
M  V30 3247 H 288.821 1.27613 -1.42784 0
M  V30 3248 H 287.126 3.82146 -0.864376 0
M  V30 3249 H 288.823 3.80839 -1.2555 0
M  V30 3250 H 285.413 3.38736 -2.62594 0
M  V30 3251 H 289.597 3.40957 -3.60641 0
M  V30 3252 H 284.853 3.49424 -5.0171 0
M  V30 3253 H 289.027 3.52864 -6.00383 0
M  V30 3254 H 286.654 3.56662 -6.71339 0
M  V30 3255 N 288.23 0.939286 1.26551 0
M  V30 3256 C 289.177 0.446088 2.26448 0
M  V30 3257 C 290.147 -0.493234 1.58608 0
M  V30 3258 O 291.332 -0.409857 1.86346 0
M  V30 3259 C 288.472 -0.284375 3.43926 0
M  V30 3260 C 287.585 0.690399 4.26448 0
M  V30 3261 C 286.72 -0.0610712 5.31165 0
M  V30 3262 C 285.759 0.905649 6.05363 0
M  V30 3263 N 284.896 0.186055 7.01853 0
M  V30 3264 H 289.736 1.30291 2.68008 0
M  V30 3265 H 287.273 0.65371 1.31776 0
M  V30 3266 H 289.231 -0.724313 4.10864 0
M  V30 3267 H 287.861 -1.10535 3.03285 0
M  V30 3268 H 286.913 1.24885 3.59316 0
M  V30 3269 H 288.225 1.42873 4.779 0
M  V30 3270 H 287.379 -0.56038 6.04106 0
M  V30 3271 H 286.118 -0.832297 4.80546 0
M  V30 3272 H 285.123 1.4161 5.3125 0
M  V30 3273 H 286.348 1.67685 6.58072 0
M  V30 3274 H 284.294 -0.566714 6.53548 0
M  V30 3275 H 284.211 0.863752 7.51049 0
M  V30 3276 H 285.479 -0.292221 7.78952 0
M  V30 3277 N 289.708 -1.40897 0.706093 0
M  V30 3278 C 290.64 -2.29199 0.00815776 0
M  V30 3279 C 291.653 -1.45336 -0.733582 0
M  V30 3280 O 292.842 -1.68727 -0.582537 0
M  V30 3281 C 289.942 -3.23417 -1.01265 0
M  V30 3282 C 289.115 -4.36089 -0.338387 0
M  V30 3283 C 288.174 -5.10811 -1.26326 0
M  V30 3284 O 287.2 -5.64215 -0.751651 0
M  V30 3285 N 288.402 -5.19269 -2.595 0
M  V30 3286 H 291.167 -2.89738 0.766297 0
M  V30 3287 H 288.728 -1.52164 0.55296 0
M  V30 3288 H 290.72 -3.70276 -1.63334 0
M  V30 3289 H 289.29 -2.64112 -1.67223 0
M  V30 3290 H 288.51 -3.91479 0.462352 0
M  V30 3291 H 289.798 -5.08634 0.130031 0
M  V30 3292 H 289.196 -4.77347 -3.03573 0
M  V30 3293 H 287.753 -5.69667 -3.16737 0
M  V30 3294 N 291.186 -0.45159 -1.50991 0
M  V30 3295 C 292.432 0.110237 -2.025 0
M  V30 3296 C 292.765 1.41109 -1.33424 0
M  V30 3297 O 292.04 1.89135 -0.453659 0
M  V30 3298 C 292.323 0.314271 -3.58726 0
M  V30 3299 C 292.176 -1.00623 -4.38401 0
M  V30 3300 C 293.495 1.07767 -4.26702 0
M  V30 3301 H 290.614 0.0385897 -0.735989 0
M  V30 3302 H 293.256 -0.593374 -1.80497 0
M  V30 3303 H 291.406 0.913601 -3.77605 0
M  V30 3304 H 293.078 -1.64064 -4.31139 0
M  V30 3305 H 291.321 -1.6075 -4.02917 0
M  V30 3306 H 291.992 -0.817341 -5.45915 0
M  V30 3307 H 294.468 0.56986 -4.12179 0
M  V30 3308 H 293.344 1.18921 -5.35863 0
M  V30 3309 H 293.605 2.10939 -3.88532 0
M  V30 3310 N 292.664 1.56529 -0.183458 0
M  V30 3311 C 293.614 2.1515 0.754605 0
M  V30 3312 C 294.598 1.08904 1.18443 0
M  V30 3313 O 295.79 1.34997 1.14476 0
M  V30 3314 C 292.919 2.80531 1.97881 0
M  V30 3315 C 292.005 3.93952 1.57043 0
M  V30 3316 N 292.396 4.98221 0.87231 0
M  V30 3317 C 290.694 4.05338 1.86057 0
M  V30 3318 C 291.395 5.77836 0.669377 0
M  V30 3319 N 290.371 5.29858 1.21454 0
M  V30 3320 H 294.173 2.93132 0.212387 0
M  V30 3321 H 291.687 1.62391 0.0167725 0
M  V30 3322 H 293.684 3.20914 2.6612 0
M  V30 3323 H 292.344 2.04035 2.52586 0
M  V30 3324 H 293.355 5.15191 0.529033 0
M  V30 3325 H 290.032 3.39957 2.42354 0
M  V30 3326 H 291.422 6.71799 0.116422 0
M  V30 3327 N 294.142 -0.090211 1.57342 0
M  V30 3328 C 295.39 -0.791241 1.85967 0
M  V30 3329 C 295.711 -1.7903 0.772859 0
M  V30 3330 O 294.981 -1.94872 -0.200398 0
M  V30 3331 H 293.561 -0.295205 0.686195 0
M  V30 3332 H 296.223 -0.0706782 1.94772 0
M  V30 3333 H 295.319 -1.31882 2.82867 0
M  V30 3334 N 295.62 -1.53406 -0.361157 0
M  V30 3335 C 296.867 -1.69802 -1.10333 0
M  V30 3336 C 297.195 -0.452087 -1.89173 0
M  V30 3337 O 296.45 0.566017 -1.87336 0
M  V30 3338 C 296.749 -2.90211 -2.08596 0
M  V30 3339 C 296.415 -4.26539 -1.46203 0
M  V30 3340 C 295.077 -4.6361 -1.28915 0
M  V30 3341 C 297.429 -5.113 -1.01101 0
M  V30 3342 C 294.757 -5.83075 -0.651157 0
M  V30 3343 C 297.109 -6.31415 -0.387007 0
M  V30 3344 C 295.773 -6.67195 -0.201657 0
M  V30 3345 H 295.043 -0.621351 -0.403737 0
M  V30 3346 H 297.69 -1.87598 -0.384609 0
M  V30 3347 H 295.995 -2.66946 -2.86788 0
M  V30 3348 H 297.692 -3.00091 -2.65982 0
M  V30 3349 H 294.282 -3.97352 -1.60653 0
M  V30 3350 H 298.466 -4.83206 -1.13249 0
M  V30 3351 H 293.722 -6.09385 -0.496006 0
M  V30 3352 H 297.896 -6.96394 -0.0293563 0
M  V30 3353 H 295.523 -7.59628 0.294766 0
M  V30 3354 N 297.098 0.621204 -1.44841 0
M  V30 3355 C 298.061 1.71459 -1.521 0
M  V30 3356 C 299.061 1.55696 -0.401933 0
M  V30 3357 O 300.251 1.61011 -0.664925 0
M  V30 3358 C 297.383 3.10624 -1.40447 0
M  V30 3359 H 298.576 1.66394 -2.49506 0
M  V30 3360 H 296.129 0.835745 -1.3208 0
M  V30 3361 H 296.864 3.21277 -0.441737 0
M  V30 3362 H 296.649 3.23473 -2.21602 0
M  V30 3363 H 298.139 3.90293 -1.4853 0
M  V30 3364 N 298.576 1.31904 0.862503 0
M  V30 3365 C 299.539 1.20131 1.95195 0
M  V30 3366 C 300.539 0.126409 1.60302 0
M  V30 3367 O 301.729 0.376234 1.70089 0
M  V30 3368 C 298.861 0.845691 3.30244 0
M  V30 3369 H 300.054 2.16943 2.07064 0
M  V30 3370 H 297.607 1.15622 1.05172 0
M  V30 3371 H 298.342 -0.120957 3.24074 0
M  V30 3372 H 298.127 1.62276 3.56944 0
M  V30 3373 H 299.617 0.787418 4.10109 0
M  V30 3374 N 300.054 -1.07777 1.14986 0
M  V30 3375 C 301.002 -2.16964 0.838406 0
M  V30 3376 C 301.996 -1.68372 -0.186386 0
M  V30 3377 O 303.202 -1.79951 -0.0418465 0
M  V30 3378 H 299.577 -0.708006 0.253439 0
M  V30 3379 H 301.548 -2.40454 1.76704 0
M  V30 3380 C 300.297 -3.4604 0.339335 0
M  V30 3381 H 299.62 -3.83813 1.11927 0
M  V30 3382 H 301.06 -4.23698 0.160021 0
M  V30 3383 C 299.519 -3.23569 -0.938325 0
M  V30 3384 O 300.049 -3.47752 -2.01077 0
M  V30 3385 N 298.255 -2.77079 -0.876117 0
M  V30 3386 H 297.802 -2.576 -0.00322037 0
M  V30 3387 H 297.76 -2.62422 -1.73153 0
M  V30 3388 N 301.532 -0.945985 -1.26051 0
M  V30 3389 C 302.78 -0.594941 -1.93145 0
M  V30 3390 C 303.101 0.86953 -1.7454 0
M  V30 3391 O 302.371 1.61838 -1.10387 0
M  V30 3392 H 300.951 -0.217044 -0.714773 0
M  V30 3393 H 303.613 -1.20235 -1.53393 0
M  V30 3394 H 302.709 -0.816835 -3.01221 0
M  V30 3395 N 303.011 1.40521 -0.713556 0
M  V30 3396 C 303.958 2.30723 -0.059684 0
M  V30 3397 C 304.928 1.48079 0.752448 0
M  V30 3398 O 306.113 1.76823 0.71681 0
M  V30 3399 C 303.253 3.34274 0.857594 0
M  V30 3400 C 302.366 4.31986 0.0351536 0
M  V30 3401 C 301.501 5.22605 0.951724 0
M  V30 3402 C 300.54 6.11976 0.123253 0
M  V30 3403 N 299.677 6.9502 0.99459 0
M  V30 3404 H 304.517 2.86074 -0.834596 0
M  V30 3405 H 302.054 1.40879 -0.42326 0
M  V30 3406 H 304.012 3.92879 1.40364 0
M  V30 3407 H 302.642 2.8043 1.59871 0
M  V30 3408 H 301.694 3.7518 -0.628052 0
M  V30 3409 H 303.006 4.95101 -0.606347 0
M  V30 3410 H 302.16 5.86131 1.56638 0
M  V30 3411 H 300.899 4.59759 1.62705 0
M  V30 3412 H 299.904 5.47482 -0.50435 0
M  V30 3413 H 301.129 6.76881 -0.548539 0
M  V30 3414 H 299.075 6.34764 1.6556 0
M  V30 3415 H 298.992 7.54892 0.40908 0
M  V30 3416 H 300.26 7.62997 1.59549 0
M  V30 3417 N 304.489 0.459591 1.5075 0
M  V30 3418 C 305.436 -0.340524 2.28274 0
M  V30 3419 C 306.406 -0.997371 1.32822 0
M  V30 3420 O 307.591 -1.01202 1.61749 0
M  V30 3421 C 304.731 -1.42317 3.14388 0
M  V30 3422 C 303.844 -0.782251 4.24859 0
M  V30 3423 C 302.979 -1.84182 4.98247 0
M  V30 3424 C 302.018 -1.18053 6.00608 0
M  V30 3425 N 301.155 -2.18244 6.67319 0
M  V30 3426 H 305.995 0.326899 2.96202 0
M  V30 3427 H 303.532 0.173057 1.46078 0
M  V30 3428 H 305.49 -2.06241 3.62658 0
M  V30 3429 H 304.12 -2.05992 2.4853 0
M  V30 3430 H 303.172 -0.0307404 3.80388 0
M  V30 3431 H 304.484 -0.259663 4.98124 0
M  V30 3432 H 303.638 -2.55714 5.50177 0
M  V30 3433 H 302.377 -2.39819 4.24662 0
M  V30 3434 H 301.382 -0.450776 5.47949 0
M  V30 3435 H 302.607 -0.631202 6.7616 0
M  V30 3436 H 300.553 -2.72919 5.96533 0
M  V30 3437 H 300.47 -1.70938 7.36421 0
M  V30 3438 H 301.738 -2.89191 7.23871 0
M  V30 3439 N 305.967 -1.56429 0.191757 0
M  V30 3440 C 306.914 -2.18936 -0.730454 0
M  V30 3441 C 307.884 -1.13557 -1.21219 0
M  V30 3442 O 309.069 -1.41794 -1.27668 0
M  V30 3443 C 306.209 -2.85013 -1.9458 0
M  V30 3444 C 305.322 -4.04909 -1.50574 0
M  V30 3445 C 304.457 -4.58853 -2.67634 0
M  V30 3446 C 303.496 -5.71114 -2.20217 0
M  V30 3447 N 302.633 -6.19478 -3.30442 0
M  V30 3448 H 307.473 -2.97389 -0.190664 0
M  V30 3449 H 305.01 -1.46869 -0.0823694 0
M  V30 3450 H 306.968 -3.21492 -2.65893 0
M  V30 3451 H 305.598 -2.09129 -2.45896 0
M  V30 3452 H 304.65 -3.74115 -0.688605 0
M  V30 3453 H 305.962 -4.86113 -1.11784 0
M  V30 3454 H 305.116 -4.97619 -3.47074 0
M  V30 3455 H 303.855 -3.76749 -3.09696 0
M  V30 3456 H 302.86 -5.31879 -1.3923 0
M  V30 3457 H 304.085 -6.55033 -1.79189 0
M  V30 3458 H 302.031 -5.40297 -3.72041 0
M  V30 3459 H 301.948 -6.95725 -2.9581 0
M  V30 3460 H 303.216 -6.62898 -4.10106 0
M  V30 3461 N 307.445 0.0818655 -1.57387 0
M  V30 3462 C 308.691 0.784074 -1.8703 0
M  V30 3463 C 309.024 1.77729 -0.782689 0
M  V30 3464 O 308.299 1.93384 0.208051 0
M  V30 3465 C 308.582 1.50105 -3.27323 0
M  V30 3466 C 308.435 0.524925 -4.46727 0
M  V30 3467 C 309.754 2.44843 -3.65705 0
M  V30 3468 H 306.873 0.283582 -0.680257 0
M  V30 3469 H 309.515 0.0474352 -1.89941 0
M  V30 3470 H 307.665 2.12897 -3.24972 0
M  V30 3471 H 309.337 -0.0970111 -4.61198 0
M  V30 3472 H 307.58 -0.160606 -4.33503 0
M  V30 3473 H 308.251 1.064 -5.41648 0
M  V30 3474 H 310.727 1.92135 -3.69085 0
M  V30 3475 H 309.603 2.92018 -4.64776 0
M  V30 3476 H 309.864 3.29197 -2.95096 0
M  V30 3477 N 308.923 1.53595 0.353017 0
M  V30 3478 C 309.873 1.77299 1.43349 0
M  V30 3479 C 310.857 0.627884 1.48143 0
M  V30 3480 O 312.049 0.88697 1.53173 0
M  V30 3481 C 309.178 1.97757 2.80619 0
M  V30 3482 C 308.264 3.18305 2.80254 0
M  V30 3483 N 308.655 4.39967 2.49526 0
M  V30 3484 C 306.953 3.19283 3.11407 0
M  V30 3485 C 307.654 5.21772 2.57156 0
M  V30 3486 N 306.63 4.58269 2.92388 0
M  V30 3487 H 310.432 2.68963 1.18474 0
M  V30 3488 H 307.946 1.52391 0.561306 0
M  V30 3489 H 309.943 2.1287 3.58458 0
M  V30 3490 H 308.603 1.07329 3.06448 0
M  V30 3491 H 309.614 4.67482 2.22893 0
M  V30 3492 H 306.291 2.3879 3.4247 0
M  V30 3493 H 307.681 6.2885 2.36638 0
M  V30 3494 N 310.401 -0.613514 1.45168 0
M  V30 3495 C 311.631 -1.39743 1.52169 0
M  V30 3496 C 312.039 -1.88596 0.151086 0
M  V30 3497 O 311.382 -1.6251 -0.856521 0
M  V30 3498 C 311.444 -2.64035 2.43979 0
M  V30 3499 C 311.108 -2.36861 3.90827 0
M  V30 3500 C 312.105 -1.97591 4.80889 0
M  V30 3501 C 309.79 -2.49956 4.35692 0
M  V30 3502 C 311.784 -1.71768 6.1382 0
M  V30 3503 C 309.471 -2.23747 5.68665 0
M  V30 3504 C 310.469 -1.84714 6.57548 0
M  V30 3505 O 310.157 -1.58809 7.88058 0
M  V30 3506 H 309.889 -0.434382 0.517966 0
M  V30 3507 H 312.443 -0.75587 1.90986 0
M  V30 3508 H 310.673 -3.3089 2.00122 0
M  V30 3509 H 312.362 -3.26069 2.41731 0
M  V30 3510 H 313.128 -1.87015 4.47493 0
M  V30 3511 H 309.007 -2.79305 3.66756 0
M  V30 3512 H 312.551 -1.41227 6.83155 0
M  V30 3513 H 308.448 -2.33938 6.01617 0
M  V30 3514 H 309.216 -1.7291 8.00028 0
M  V30 3515 N 311.879 -1.3236 -0.855495 0
M  V30 3516 C 313.109 -1.25688 -1.6397 0
M  V30 3517 C 313.517 0.177592 -1.88365 0
M  V30 3518 O 312.86 1.12485 -1.45234 0
M  V30 3519 C 312.922 -1.94602 -3.02275 0
M  V30 3520 C 312.586 -3.43937 -3.00926 0
M  V30 3521 C 313.583 -4.39435 -2.77835 0
M  V30 3522 C 311.268 -3.85858 -3.21588 0
M  V30 3523 C 313.262 -5.74829 -2.75409 0
M  V30 3524 C 310.949 -5.21361 -3.18789 0
M  V30 3525 C 311.947 -6.15658 -2.95727 0
M  V30 3526 O 311.635 -7.48681 -2.928 0
M  V30 3527 H 311.367 -0.434972 -0.51747 0
M  V30 3528 H 313.921 -1.75023 -1.075 0
M  V30 3529 H 312.151 -1.39836 -3.60531 0
M  V30 3530 H 313.84 -1.81651 -3.62985 0
M  V30 3531 H 314.606 -4.08374 -2.6164 0
M  V30 3532 H 310.485 -3.12883 -3.38564 0
M  V30 3533 H 314.029 -6.48404 -2.57328 0
M  V30 3534 H 309.926 -5.52052 -3.34528 0
M  V30 3535 H 310.694 -7.5803 -3.0876 0
M  V30 3536 N 313.357 1.07166 -1.15556 0
M  V30 3537 C 314.305 2.16517 -0.8499 0
M  V30 3538 C 315.299 1.68468 0.177454 0
M  V30 3539 O 316.505 1.79971 0.0323026 0
M  V30 3540 H 312.88 0.706652 -0.25719 0
M  V30 3541 H 314.851 2.39514 -1.77976 0
M  V30 3542 C 313.6 3.45855 -0.357682 0
M  V30 3543 H 312.923 3.83214 -1.13961 0
M  V30 3544 H 314.363 4.23607 -0.182489 0
M  V30 3545 C 312.822 3.24062 0.921152 0
M  V30 3546 O 313.352 3.48813 1.9923 0
M  V30 3547 N 311.558 2.77539 0.86141 0
M  V30 3548 H 311.105 2.57598 -0.0104408 0
M  V30 3549 H 311.063 2.63337 1.71758 0
M  V30 3550 N 314.835 0.952656 1.25548 0
M  V30 3551 C 315.745 0.47782 2.29682 0
M  V30 3552 C 316.761 -0.453859 1.67977 0
M  V30 3553 O 317.937 -0.330587 1.98668 0
M  V30 3554 C 315.002 -0.238655 3.45878 0
M  V30 3555 C 314.063 0.730994 4.23031 0
M  V30 3556 C 313.296 0.0486165 5.33678 0
M  V30 3557 O 313.519 -1.16612 5.58353 0
M  V30 3558 O 312.453 0.733152 5.97418 0
M  V30 3559 H 316.279 1.34312 2.72386 0
M  V30 3560 H 313.864 0.719026 1.30959 0
M  V30 3561 H 315.746 -0.641774 4.16484 0
M  V30 3562 H 314.421 -1.07916 3.05181 0
M  V30 3563 H 313.328 1.18428 3.5486 0
M  V30 3564 H 314.661 1.53946 4.67506 0
M  V30 3565 N 316.313 -1.40141 0.720998 0
M  V30 3566 C 317.562 -2.0002 0.259804 0
M  V30 3567 C 317.875 -1.57839 -1.15526 0
M  V30 3568 O 319.081 -2.10455 -1.71525 0
M  V30 3569 C 317.537 -3.57516 0.413566 0
M  V30 3570 C 317.145 -4.08667 1.83562 0
M  V30 3571 C 318.889 -4.24498 0.0134387 0
M  V30 3572 C 316.796 -5.58686 1.93968 0
M  V30 3573 H 315.726 -0.748195 0.0933806 0
M  V30 3574 H 318.377 -1.60313 0.892866 0
M  V30 3575 H 316.759 -3.9495 -0.288169 0
M  V30 3576 H 317.933 -3.82598 2.56817 0
M  V30 3577 H 316.248 -3.543 2.1877 0
M  V30 3578 H 318.845 -5.34654 0.0703954 0
M  V30 3579 H 319.188 -4.03375 -1.02927 0
M  V30 3580 H 319.721 -3.92188 0.665815 0
M  V30 3581 H 316.46 -5.8467 2.96379 0
M  V30 3582 H 315.98 -5.86602 1.25131 0
M  V30 3583 H 317.659 -6.23875 1.71431 0
M  V30 3584 N 317.792 -0.46758 -1.50504 0
M  V30 3585 C 319.017 0.0886943 -2.0721 0
M  V30 3586 C 319.442 1.33057 -1.32956 0
M  V30 3587 O 318.8 1.77354 -0.376197 0
M  V30 3588 C 318.848 0.359202 -3.58806 0
M  V30 3589 O 317.952 1.44034 -3.8643 0
M  V30 3590 H 317.293 -0.0114349 -0.663902 0
M  V30 3591 H 319.823 -0.657613 -1.93744 0
M  V30 3592 H 319.833 0.600742 -4.03553 0
M  V30 3593 H 318.508 -0.548311 -4.1227 0
M  V30 3594 H 317.085 1.18638 -3.53524 0
M  V30 3595 N 319.27 1.56325 -0.20005 0
M  V30 3596 C 320.516 1.98012 0.438059 0
M  V30 3597 C 320.849 1.08702 1.60927 0
M  V30 3598 O 320.124 0.140064 1.93995 0
M  V30 3599 C 320.407 3.48841 0.893419 0
M  V30 3600 C 320.26 4.48928 -0.279947 0
M  V30 3601 C 321.579 4.03498 1.75719 0
M  V30 3602 H 318.698 0.719918 0.157757 0
M  V30 3603 H 321.34 1.87743 -0.291968 0
M  V30 3604 H 319.49 3.57723 1.51547 0
M  V30 3605 H 321.162 4.52079 -0.91772 0
M  V30 3606 H 319.405 4.23694 -0.930919 0
M  V30 3607 H 320.076 5.5194 0.0812601 0
M  V30 3608 H 322.552 3.97427 1.23253 0
M  V30 3609 H 321.428 5.09393 2.04476 0
M  V30 3610 H 321.689 3.4906 2.71311 0
M  V30 3611 N 320.748 -0.0735177 1.57428 0
M  V30 3612 C 321.973 -0.789787 1.91774 0
M  V30 3613 C 322.398 -1.70413 0.796306 0
M  V30 3614 O 321.756 -1.79555 -0.250961 0
M  V30 3615 C 321.804 -1.5609 3.25067 0
M  V30 3616 O 320.908 -2.67144 3.14178 0
M  V30 3617 H 320.249 -0.215582 0.628029 0
M  V30 3618 H 322.779 -0.0422781 2.04556 0
M  V30 3619 H 322.789 -1.94052 3.58898 0
M  V30 3620 H 321.464 -0.890015 4.06265 0
M  V30 3621 H 320.041 -2.32052 2.91901 0
M  V30 3622 N 322.226 -1.5378 -0.344866 0
M  V30 3623 C 323.475 -1.7018 -1.08267 0
M  V30 3624 C 323.788 -0.471 -1.89845 0
M  V30 3625 O 324.994 -0.515917 -2.66553 0
M  V30 3626 C 323.45 -3.00923 -1.97417 0
M  V30 3627 C 323.058 -4.31335 -1.21053 0
M  V30 3628 C 324.802 -3.26688 -2.71063 0
M  V30 3629 C 322.709 -5.53153 -2.09225 0
M  V30 3630 H 321.639 -0.634138 -0.407903 0
M  V30 3631 H 324.29 -1.8028 -0.342246 0
M  V30 3632 H 322.672 -2.84676 -2.75274 0
M  V30 3633 H 323.846 -4.58281 -0.481159 0
M  V30 3634 H 322.161 -4.12173 -0.591813 0
M  V30 3635 H 324.758 -4.1489 -3.37299 0
M  V30 3636 H 325.101 -2.43639 -3.37558 0
M  V30 3637 H 325.634 -3.43705 -2.0028 0
M  V30 3638 H 322.373 -6.38741 -1.47274 0
M  V30 3639 H 321.893 -5.30458 -2.79955 0
M  V30 3640 H 323.572 -5.88744 -2.68308 0
M  V30 3641 N 323.704 0.605807 -1.45491 0
M  V30 3642 C 324.667 1.69836 -1.5391 0
M  V30 3643 C 325.667 1.55261 -0.418424 0
M  V30 3644 O 326.857 1.60296 -0.681965 0
M  V30 3645 C 323.989 3.09117 -1.43734 0
M  V30 3646 H 325.182 1.63738 -2.51257 0
M  V30 3647 H 322.735 0.821689 -1.32959 0
M  V30 3648 H 323.47 3.20791 -0.475788 0
M  V30 3649 H 323.255 3.21104 -2.25021 0
M  V30 3650 H 324.745 3.88696 -1.52661 0
M  V30 3651 N 325.182 1.32811 0.848464 0
M  V30 3652 C 326.422 1.25046 1.61687 0
M  V30 3653 C 326.786 -0.183464 1.91121 0
M  V30 3654 O 327.987 -0.384937 2.66029 0
M  V30 3655 C 326.258 2.09201 2.89775 0
M  V30 3656 S 327.817 2.18526 3.80515 0
M  V30 3657 H 324.635 0.445023 0.554505 0
M  V30 3658 H 327.237 1.67733 1.00429 0
M  V30 3659 H 325.941 3.12433 2.66108 0
M  V30 3660 H 325.472 1.67315 3.56047 0
M  V30 3661 H 327.487 1.3393 4.77784 0
M  V30 3662 N 326.66 -1.06551 1.16123 0
M  V30 3663 C 327.908 -1.78947 0.939267 0
M  V30 3664 C 328.229 -1.87532 -0.534476 0
M  V30 3665 O 327.499 -1.38211 -1.38833 0
M  V30 3666 H 326.079 -0.662807 0.344523 0
M  V30 3667 H 328.741 -1.28725 1.46342 0
M  V30 3668 H 327.837 -2.81117 1.35572 0
M  V30 3669 N 328.138 -0.959301 -1.25041 0
M  V30 3670 C 329.387 -0.612254 -1.92183 0
M  V30 3671 C 329.7 0.855347 -1.75907 0
M  V30 3672 O 330.906 1.31256 -2.37664 0
M  V30 3673 C 329.362 -1.04435 -3.44414 0
M  V30 3674 C 328.97 -2.53482 -3.69393 0
M  V30 3675 C 330.714 -0.770055 -4.17457 0
M  V30 3676 C 328.621 -2.90468 -5.15153 0
M  V30 3677 H 327.551 -0.225279 -0.719559 0
M  V30 3678 H 330.202 -1.16438 -1.41825 0
M  V30 3679 H 328.584 -0.4206 -3.9376 0
M  V30 3680 H 329.758 -3.20916 -3.30681 0
M  V30 3681 H 328.073 -2.78432 -3.0962 0
M  V30 3682 H 330.67 -1.02249 -5.24832 0
M  V30 3683 H 331.013 0.293611 -4.15263 0
M  V30 3684 H 331.546 -1.35437 -3.74034 0
M  V30 3685 H 328.285 -3.95871 -5.22462 0
M  V30 3686 H 327.805 -2.27711 -5.54894 0
M  V30 3687 H 329.484 -2.79914 -5.83315 0
M  V30 3688 N 329.616 1.39756 -0.72842 0
M  V30 3689 C 330.546 2.33289 -0.0991354 0
M  V30 3690 C 331.527 1.53568 0.731489 0
M  V30 3691 O 332.712 1.81987 0.677807 0
M  V30 3692 C 329.842 3.3763 0.813834 0
M  V30 3693 C 328.796 4.2791 0.0878663 0
M  V30 3694 C 328.122 5.22894 1.11741 0
M  V30 3695 C 329.422 5.11314 -1.06563 0
M  V30 3696 H 331.116 2.86163 -0.880408 0
M  V30 3697 H 328.662 1.37591 -0.424819 0
M  V30 3698 H 330.615 4.0201 1.26355 0
M  V30 3699 H 329.339 2.83181 1.62715 0
M  V30 3700 H 327.998 3.65 -0.342159 0
M  V30 3701 H 327.646 4.64744 1.92412 0
M  V30 3702 H 327.346 5.84143 0.636477 0
M  V30 3703 H 328.87 5.90151 1.56697 0
M  V30 3704 H 330.284 5.69076 -0.694671 0
M  V30 3705 H 328.681 5.81671 -1.47577 0
M  V30 3706 H 329.751 4.46534 -1.89038 0
M  V30 3707 N 331.094 0.475555 1.50254 0
M  V30 3708 C 332.024 -0.30611 2.31485 0
M  V30 3709 C 333.005 -0.986228 1.38591 0
M  V30 3710 O 334.19 -0.982541 1.67511 0
M  V30 3711 C 331.32 -1.38588 3.1845 0
M  V30 3712 C 330.274 -0.827115 4.19932 0
M  V30 3713 C 329.6 -2.00551 4.95665 0
M  V30 3714 C 330.9 0.16463 5.2204 0
M  V30 3715 H 332.594 0.371866 2.97082 0
M  V30 3716 H 330.14 0.180282 1.42867 0
M  V30 3717 H 332.093 -1.94023 3.74076 0
M  V30 3718 H 330.817 -2.09269 2.50747 0
M  V30 3719 H 329.476 -0.294702 3.65414 0
M  V30 3720 H 329.124 -2.6994 4.2443 0
M  V30 3721 H 328.824 -1.63784 5.64313 0
M  V30 3722 H 330.348 -2.56468 5.54127 0
M  V30 3723 H 331.762 -0.300699 5.72511 0
M  V30 3724 H 330.159 0.446813 5.98434 0
M  V30 3725 H 331.229 1.08905 4.72512 0
M  V30 3726 N 332.573 -1.56217 0.208337 0
M  V30 3727 C 333.536 -2.18455 -0.693557 0
M  V30 3728 C 334.536 -1.14268 -1.13135 0
M  V30 3729 O 335.726 -1.39577 -1.0423 0
M  V30 3730 C 332.858 -2.79727 -1.94848 0
M  V30 3731 H 334.051 -2.99519 -0.15114 0
M  V30 3732 H 331.604 -1.56245 -0.041287 0
M  V30 3733 H 332.339 -2.02497 -2.53309 0
M  V30 3734 H 332.124 -3.56009 -1.64316 0
M  V30 3735 H 333.614 -3.27475 -2.59133 0
M  V30 3736 N 334.051 0.0651679 -1.57465 0
M  V30 3737 C 335.014 1.06117 -2.03155 0
M  V30 3738 C 336.014 1.31204 -0.929632 0
M  V30 3739 O 337.204 1.26813 -1.19432 0
M  V30 3740 C 334.336 2.4032 -2.41783 0
M  V30 3741 H 335.529 0.667231 -2.92383 0
M  V30 3742 H 333.082 0.311075 -1.53173 0
M  V30 3743 H 333.817 2.84532 -1.55601 0
M  V30 3744 H 333.602 2.23451 -3.22199 0
M  V30 3745 H 335.092 3.11898 -2.77685 0
M  V30 3746 N 335.529 1.53961 0.336706 0
M  V30 3747 C 336.459 1.85417 1.41925 0
M  V30 3748 C 337.44 0.709856 1.5458 0
M  V30 3749 O 338.625 0.962396 1.68676 0
M  V30 3750 C 335.755 2.06985 2.78881 0
M  V30 3751 C 334.709 3.22813 2.81026 0
M  V30 3752 C 334.035 3.29727 4.20932 0
M  V30 3753 C 335.335 4.60767 2.45949 0
M  V30 3754 H 337.029 2.76079 1.15848 0
M  V30 3755 H 334.575 1.32839 0.555859 0
M  V30 3756 H 336.528 2.27575 3.54665 0
M  V30 3757 H 335.252 1.13061 3.06406 0
M  V30 3758 H 333.911 3.0209 2.07695 0
M  V30 3759 H 333.559 2.33385 4.45579 0
M  V30 3760 H 333.259 4.07566 4.23277 0
M  V30 3761 H 334.783 3.52536 4.98549 0
M  V30 3762 H 336.197 4.81325 3.11446 0
M  V30 3763 H 334.594 5.4106 2.59566 0
M  V30 3764 H 335.664 4.6391 1.41122 0
M  V30 3765 N 337.007 -0.598083 1.45811 0
M  V30 3766 C 337.939 -1.72231 1.51225 0
M  V30 3767 C 338.952 -1.57757 0.402059 0
M  V30 3768 O 340.141 -1.65464 0.669624 0
M  V30 3769 C 337.241 -3.10331 1.3619 0
M  V30 3770 C 336.414 -3.50955 2.61054 0
M  V30 3771 C 335.473 -4.68055 2.40439 0
M  V30 3772 O 334.499 -4.74691 3.14097 0
M  V30 3773 N 335.701 -5.61941 1.45612 0
M  V30 3774 H 338.466 -1.68046 2.48154 0
M  V30 3775 H 336.027 -0.783637 1.41671 0
M  V30 3776 H 338.019 -3.86439 1.20195 0
M  V30 3777 H 336.589 -3.0897 0.475015 0
M  V30 3778 H 335.809 -2.64711 2.92099 0
M  V30 3779 H 337.097 -3.74858 3.44034 0
M  V30 3780 H 336.495 -5.59301 0.848431 0
M  V30 3781 H 335.052 -6.37542 1.35585 0
M  V30 3782 N 338.485 -1.33259 -0.841409 0
M  V30 3783 C 339.433 -1.23279 -1.97244 0
M  V30 3784 C 340.427 -0.134706 -1.68864 0
M  V30 3785 O 341.633 -0.298501 -1.77508 0
M  V30 3786 H 338.008 -0.382497 -0.647457 0
M  V30 3787 H 339.979 -2.18906 -2.02787 0
M  V30 3788 C 338.728 -0.986268 -3.33419 0
M  V30 3789 H 338.051 -1.82347 -3.55794 0
M  V30 3790 H 339.491 -0.956728 -4.13065 0
M  V30 3791 C 337.95 0.310842 -3.35463 0
M  V30 3792 O 338.48 1.31838 -3.79449 0
M  V30 3793 N 336.686 0.337485 -2.88634 0
M  V30 3794 H 336.233 -0.482967 -2.53032 0
M  V30 3795 H 336.191 1.20518 -2.90384 0
M  V30 3796 N 339.963 1.05934 -1.16686 0
M  V30 3797 C 340.926 2.11669 -0.879144 0
M  V30 3798 C 341.926 1.60294 0.127445 0
M  V30 3799 O 343.116 1.7389 -0.103865 0
M  V30 3800 C 340.248 3.39438 -0.315425 0
M  V30 3801 H 341.441 2.38626 -1.81653 0
M  V30 3802 H 338.994 1.22058 -0.976299 0
M  V30 3803 H 339.729 3.18132 0.629468 0
M  V30 3804 H 339.514 3.78034 -1.04079 0
M  V30 3805 H 341.004 4.17391 -0.132189 0
M  V30 3806 N 341.441 0.965919 1.2453 0
M  V30 3807 C 342.689 0.625593 1.92174 0
M  V30 3808 C 343.01 -0.841652 1.75901 0
M  V30 3809 O 342.28 -1.60061 1.12948 0
M  V30 3810 H 340.86 0.228388 0.71123 0
M  V30 3811 H 343.522 1.2266 1.51461 0
M  V30 3812 H 342.618 0.864653 2.99884 0
M  V30 3813 N 342.919 -1.39368 0.735821 0
M  V30 3814 C 343.849 -2.33234 0.111506 0
M  V30 3815 C 344.83 -1.53954 -0.723334 0
M  V30 3816 O 346.015 -1.82344 -0.668147 0
M  V30 3817 C 343.145 -3.38057 -0.795917 0
M  V30 3818 C 342.099 -4.2795 -0.065172 0
M  V30 3819 C 341.425 -5.23479 -1.08967 0
M  V30 3820 C 342.725 -5.10741 1.09273 0
M  V30 3821 H 344.419 -2.85692 0.895571 0
M  V30 3822 H 341.965 -1.37364 0.432109 0
M  V30 3823 H 343.918 -4.02675 -1.24221 0
M  V30 3824 H 342.642 -2.8404 -1.61211 0
M  V30 3825 H 341.301 -3.64813 0.361511 0
M  V30 3826 H 340.949 -4.65758 -1.89944 0
M  V30 3827 H 340.649 -5.84472 -0.605489 0
M  V30 3828 H 342.173 -5.90974 -1.53565 0
M  V30 3829 H 343.587 -5.68699 0.724841 0
M  V30 3830 H 341.984 -5.8088 1.50659 0
M  V30 3831 H 343.054 -4.45525 1.91404 0
M  V30 3832 N 344.397 -0.483516 -1.5 0
M  V30 3833 C 345.643 0.0672592 -2.02688 0
M  V30 3834 C 345.976 1.38247 -1.36387 0
M  V30 3835 O 345.251 1.88131 -0.493675 0
M  V30 3836 C 345.534 0.238109 -3.59312 0
M  V30 3837 C 345.387 -1.099 -4.36168 0
M  V30 3838 C 346.706 0.986916 -4.28892 0
M  V30 3839 H 343.825 0.0229696 -0.736642 0
M  V30 3840 H 346.467 -0.631527 -1.79197 0
M  V30 3841 H 344.617 0.8333 -3.79458 0
M  V30 3842 H 346.289 -1.73172 -4.27562 0
M  V30 3843 H 344.532 -1.69261 -3.99416 0
M  V30 3844 H 345.203 -0.932954 -5.44059 0
M  V30 3845 H 347.679 0.482302 -4.13295 0
M  V30 3846 H 346.555 1.07527 -5.38265 0
M  V30 3847 H 346.816 2.0265 -3.92919 0
M  V30 3848 N 345.875 1.56104 -0.216619 0
M  V30 3849 C 347.103 2.02563 0.421413 0
M  V30 3850 C 347.518 1.0965 1.53695 0
M  V30 3851 O 346.875 0.10521 1.82196 0
M  V30 3852 C 346.926 3.48584 0.957665 0
M  V30 3853 O 346.647 4.37953 -0.113389 0
M  V30 3854 C 348.148 4.10664 1.66943 0
M  V30 3855 H 345.368 0.662944 0.103665 0
M  V30 3856 H 347.912 2.01793 -0.331629 0
M  V30 3857 H 346.067 3.49985 1.661 0
M  V30 3858 H 346.481 5.23704 0.288932 0
M  V30 3859 H 347.955 5.14622 1.99671 0
M  V30 3860 H 348.432 3.55373 2.58083 0
M  V30 3861 H 349.038 4.13098 1.01142 0
M  V30 3862 N 347.353 -0.0568162 1.57498 0
M  V30 3863 C 348.599 -0.75422 1.88253 0
M  V30 3864 C 348.932 -1.76461 0.810865 0
M  V30 3865 O 348.207 -1.93691 -0.177259 0
M  V30 3866 C 348.49 -1.44878 3.2967 0
M  V30 3867 C 348.343 -0.453789 4.47505 0
M  V30 3868 C 349.662 -2.38994 3.69554 0
M  V30 3869 H 346.781 -0.272724 0.684683 0
M  V30 3870 H 349.423 -0.0172113 1.89992 0
M  V30 3871 H 347.573 -2.077 3.28318 0
M  V30 3872 H 349.245 0.170371 4.60985 0
M  V30 3873 H 347.488 0.229552 4.33192 0
M  V30 3874 H 348.159 -0.977699 5.43273 0
M  V30 3875 H 350.635 -1.86239 3.72095 0
M  V30 3876 H 349.511 -2.84587 4.69363 0
M  V30 3877 H 349.772 -3.24461 3.00296 0
M  V30 3878 N 348.832 -1.54138 -0.328536 0
M  V30 3879 C 350.06 -1.76062 -1.08673 0
M  V30 3880 C 350.475 -0.506852 -1.81869 0
M  V30 3881 O 349.832 0.522223 -1.74869 0
M  V30 3882 C 349.883 -2.95054 -2.08866 0
M  V30 3883 O 349.604 -4.15583 -1.38644 0
M  V30 3884 C 351.105 -3.2915 -2.96943 0
M  V30 3885 H 348.325 -0.587889 -0.323461 0
M  V30 3886 H 350.869 -2.0101 -0.376175 0
M  V30 3887 H 349.024 -2.72394 -2.75464 0
M  V30 3888 H 349.438 -4.82481 -2.05699 0
M  V30 3889 H 350.912 -4.15723 -3.63151 0
M  V30 3890 H 351.389 -2.461 -3.63774 0
M  V30 3891 H 351.995 -3.53871 -2.35914 0
M  V30 3892 N 350.31 0.590341 -1.46126 0
M  V30 3893 C 351.538 1.37504 -1.54597 0
M  V30 3894 C 351.953 1.87897 -0.184447 0
M  V30 3895 O 351.31 1.63192 0.816984 0
M  V30 3896 C 351.361 2.56779 -2.54454 0
M  V30 3897 O 351.082 2.08476 -3.85317 0
M  V30 3898 C 352.583 3.49427 -2.72792 0
M  V30 3899 H 349.803 0.420325 -0.523037 0
M  V30 3900 H 352.347 0.718383 -1.91467 0
M  V30 3901 H 350.502 3.1845 -2.20609 0
M  V30 3902 H 350.916 2.86097 -4.396 0
M  V30 3903 H 352.39 4.29619 -3.466 0
M  V30 3904 H 352.867 4.00876 -1.79429 0
M  V30 3905 H 353.473 2.93598 -3.07702 0
M  V30 3906 N 351.788 1.33704 0.83433 0
M  V30 3907 C 353.016 1.28467 1.62185 0
M  V30 3908 C 353.431 -0.143526 1.88254 0
M  V30 3909 O 352.788 -1.08709 1.4659 0
M  V30 3910 C 352.839 2.06174 2.96942 0
M  V30 3911 O 352.56 3.43422 2.72016 0
M  V30 3912 C 354.061 2.08201 3.91366 0
M  V30 3913 H 351.281 0.4424 0.504503 0
M  V30 3914 H 353.825 1.76145 1.03891 0
M  V30 3915 H 351.98 1.62167 3.51825 0
M  V30 3916 H 352.394 3.83453 3.57861 0
M  V30 3917 H 353.868 2.67017 4.83121 0
M  V30 3918 H 354.345 1.07343 4.2588 0
M  V30 3919 H 354.951 2.52246 3.42421 0
M  V30 3920 N 353.266 -1.05314 1.17247 0
M  V30 3921 C 354.677 -1.59753 0.96623 0
M  V30 3922 C 355.028 -1.9005 -0.487378 0
M  V30 3923 O 354.153 -1.68126 -1.36245 0
M  V30 3924 C 354.748 -2.90249 1.74759 0
M  V30 3925 C 353.307 -3.41352 1.58606 0
M  V30 3926 C 352.454 -2.15103 1.75002 0
M  V30 3927 H 355.405 -0.881406 1.31973 0
M  V30 3928 H 355.426 -3.60097 1.22925 0
M  V30 3929 H 354.938 -2.68166 2.8055 0
M  V30 3930 H 353.039 -3.68474 0.552985 0
M  V30 3931 H 353.152 -4.16019 2.37624 0
M  V30 3932 H 351.516 -2.25804 1.17833 0
M  V30 3933 H 352.299 -1.95491 2.82202 0
M  V30 3934 N 354.744 -0.972509 -1.24016 0
M  V30 3935 C 355.674 -0.525548 -2.27509 0
M  V30 3936 C 356.655 0.437262 -1.64384 0
M  V30 3937 O 357.84 0.332343 -1.91335 0
M  V30 3938 C 354.97 0.180448 -3.46831 0
M  V30 3939 C 353.924 -0.698859 -4.22256 0
M  V30 3940 C 353.25 0.138903 -5.3452 0
M  V30 3941 C 354.55 -1.98582 -4.83076 0
M  V30 3942 H 356.244 -1.39058 -2.65148 0
M  V30 3943 H 353.79 -0.67009 -1.27459 0
M  V30 3944 H 355.743 0.504387 -4.18371 0
M  V30 3945 H 354.467 1.07987 -3.08231 0
M  V30 3946 H 353.126 -1.00614 -3.52523 0
M  V30 3947 H 352.774 1.03862 -4.9216 0
M  V30 3948 H 352.474 -0.446259 -5.85903 0
M  V30 3949 H 353.998 0.457404 -6.08884 0
M  V30 3950 H 355.412 -1.72715 -5.46665 0
M  V30 3951 H 353.809 -2.5181 -5.44713 0
M  V30 3952 H 354.879 -2.67769 -4.04262 0
M  V30 3953 N 356.222 1.38976 -0.743202 0
M  V30 3954 C 357.17 2.32394 -0.0978389 0
M  V30 3955 C 358.164 1.53486 0.716824 0
M  V30 3956 O 359.37 1.69092 0.617088 0
M  V30 3957 H 355.745 0.75189 -0.0128402 0
M  V30 3958 H 357.716 2.84441 -0.901981 0
M  V30 3959 C 356.465 3.38629 0.789036 0
M  V30 3960 H 355.788 3.99432 0.171559 0
M  V30 3961 H 357.228 4.06426 1.20807 0
M  V30 3962 C 355.687 2.76347 1.92702 0
M  V30 3963 O 356.217 2.64836 3.02034 0
M  V30 3964 N 354.423 2.34311 1.71891 0
M  V30 3965 H 353.97 2.43873 0.829675 0
M  V30 3966 H 353.928 1.9298 2.48205 0
M  V30 3967 N 357.7 0.491464 1.49741 0
M  V30 3968 C 358.94 -0.0549118 2.04326 0
M  V30 3969 C 359.304 -1.35148 1.36378 0
M  V30 3970 O 360.505 -1.9815 1.81631 0
M  V30 3971 C 358.776 -0.213841 3.5676 0
M  V30 3972 S 360.335 -0.715839 4.32922 0
M  V30 3973 H 357.153 -0.00630513 0.710972 0
M  V30 3974 H 359.755 0.663257 1.83905 0
M  V30 3975 H 358.459 0.73527 4.0376 0
M  V30 3976 H 357.99 -0.957529 3.81569 0
M  V30 3977 H 360.005 -1.9864 4.54705 0
M  V30 3978 N 359.178 -1.55987 0.224894 0
M  V30 3979 C 360.426 -1.97998 -0.405099 0
M  V30 3980 C 360.747 -1.11387 -1.60056 0
M  V30 3981 O 360.017 -0.191645 -1.9496 0
M  V30 3982 H 358.597 -0.731235 -0.152658 0
M  V30 3983 H 361.259 -1.92279 0.318567 0
M  V30 3984 H 360.355 -3.03463 -0.729167 0
M  V30 3985 N 360.656 0.0484629 -1.57525 0
M  V30 3986 C 362.067 0.597486 -1.76881 0
M  V30 3987 C 362.418 1.76664 -0.853475 0
M  V30 3988 O 361.543 2.16357 -0.0433656 0
M  V30 3989 C 362.138 1.09066 -3.20765 0
M  V30 3990 C 360.697 1.58535 -3.41385 0
M  V30 3991 C 359.844 0.514868 -2.72478 0
M  V30 3992 H 362.795 -0.177758 -1.57701 0
M  V30 3993 H 362.816 1.95875 -3.2621 0
M  V30 3994 H 362.328 0.239521 -3.8736 0
M  V30 3995 H 360.429 2.45898 -2.79937 0
M  V30 3996 H 360.542 1.64622 -4.49929 0
M  V30 3997 H 358.906 0.965407 -2.35695 0
M  V30 3998 H 359.689 -0.32648 -3.41744 0
M  V30 3999 N 362.134 1.5431 0.320358 0
M  V30 4000 C 363.55 1.45091 0.664889 0
M  V30 4001 C 363.75 0.626382 1.91517 0
M  V30 4002 O 362.806 0.126443 2.52183 0
M  V30 4003 C 364.119 2.88848 0.83591 0
M  V30 4004 C 365.667 2.9877 0.933046 0
M  V30 4005 C 366.142 4.43683 1.13621 0
M  V30 4006 N 367.633 4.47309 1.20287 0
M  V30 4007 C 368.368 5.56595 1.37801 0
M  V30 4008 N 367.864 6.75844 1.52338 0
M  V30 4009 N 369.657 5.44248 1.40535 0
M  V30 4010 H 361.808 2.06398 -0.501374 0
M  V30 4011 H 364.071 0.933963 -0.162534 0
M  V30 4012 H 363.777 3.51698 -0.0116092 0
M  V30 4013 H 363.651 3.35148 1.73078 0
M  V30 4014 H 366.038 2.36045 1.77107 0
M  V30 4015 H 366.119 2.55796 0.0145782 0
M  V30 4016 H 365.763 5.06995 0.303032 0
M  V30 4017 H 365.693 4.84269 2.0686 0
M  V30 4018 H 368.184 3.61388 1.10485 0
M  V30 4019 H 368.497 7.54892 1.65403 0
M  V30 4020 H 366.842 6.78746 1.4943 0
M  V30 4021 H 370.033 4.50038 1.28777 0
M  V30 4022 H 370.206 6.29473 1.53842 0
M  V30 4023 N 363.613 -0.582584 1.46437 0
M  V30 4024 C 364.543 -1.70187 1.59871 0
M  V30 4025 C 365.524 -1.64066 0.449042 0
M  V30 4026 O 366.709 -1.82081 0.6753 0
M  V30 4027 C 363.839 -3.08827 1.58881 0
M  V30 4028 C 362.793 -3.29779 2.72819 0
M  V30 4029 C 362.119 -4.68947 2.5689 0
M  V30 4030 C 363.419 -3.17601 4.1464 0
M  V30 4031 H 365.113 -1.592 2.53566 0
M  V30 4032 H 362.659 -0.764472 1.22032 0
M  V30 4033 H 364.612 -3.86951 1.66873 0
M  V30 4034 H 363.336 -3.20713 0.617306 0
M  V30 4035 H 361.995 -2.54054 2.64296 0
M  V30 4036 H 361.643 -4.77599 1.57823 0
M  V30 4037 H 361.343 -4.83919 3.33312 0
M  V30 4038 H 362.867 -5.4924 2.66773 0
M  V30 4039 H 364.281 -3.8557 4.24274 0
M  V30 4040 H 362.678 -3.44094 4.9165 0
M  V30 4041 H 363.748 -2.14681 4.34788 0
M  V30 4042 N 365.091 -1.34144 -0.827227 0
M  V30 4043 C 366.507 -1.13732 -1.11969 0
M  V30 4044 C 366.707 0.0640463 -2.01398 0
M  V30 4045 O 365.763 0.740856 -2.41387 0
M  V30 4046 C 367.076 -2.43047 -1.77055 0
M  V30 4047 C 368.624 -2.49063 -1.89569 0
M  V30 4048 C 369.099 -3.78369 -2.58072 0
M  V30 4049 N 370.59 -3.79505 -2.65575 0
M  V30 4050 C 371.325 -4.76274 -3.19297 0
M  V30 4051 N 370.821 -5.83424 -3.73616 0
M  V30 4052 N 372.614 -4.63735 -3.17658 0
M  V30 4053 H 364.765 -2.11126 -0.232296 0
M  V30 4054 H 367.028 -0.933424 -0.165602 0
M  V30 4055 H 366.734 -3.31025 -1.18807 0
M  V30 4056 H 366.608 -2.56066 -2.76966 0
M  V30 4057 H 368.995 -1.61527 -2.46968 0
M  V30 4058 H 369.076 -2.39975 -0.885745 0
M  V30 4059 H 368.72 -4.66293 -2.01329 0
M  V30 4060 H 368.65 -3.84737 -3.59562 0
M  V30 4061 H 371.141 -3.02074 -2.27068 0
M  V30 4062 H 371.454 -6.53282 -4.12846 0
M  V30 4063 H 369.799 -5.87143 -3.71871 0
M  V30 4064 H 372.99 -3.79177 -2.74486 0
M  V30 4065 H 373.163 -5.39318 -3.59221 0
M  V30 4066 N 366.569 1.04691 -1.17803 0
M  V30 4067 C 367.815 1.78045 -0.970969 0
M  V30 4068 C 368.148 1.87686 0.498751 0
M  V30 4069 O 367.423 1.38035 1.37027 0
M  V30 4070 C 367.706 3.2166 -1.61884 0
M  V30 4071 C 367.559 3.20001 -3.161 0
M  V30 4072 C 368.878 4.1962 -1.3269 0
M  V30 4073 H 365.997 0.64633 -0.354155 0
M  V30 4074 H 368.639 1.22333 -1.45378 0
M  V30 4075 H 366.789 3.69232 -1.20831 0
M  V30 4076 H 368.461 2.80467 -3.66246 0
M  V30 4077 H 366.704 2.58203 -3.48588 0
M  V30 4078 H 367.375 4.21386 -3.56564 0
M  V30 4079 H 369.851 3.80567 -1.68249 0
M  V30 4080 H 368.727 5.18339 -1.80599 0
M  V30 4081 H 368.988 4.414 -0.248622 0
M  V30 4082 N 368.047 0.979072 1.23499 0
M  V30 4083 C 368.977 0.537606 2.27227 0
M  V30 4084 C 369.958 -0.428539 1.64613 0
M  V30 4085 O 371.143 -0.322191 1.91509 0
M  V30 4086 C 368.273 -0.162052 3.46922 0
M  V30 4087 C 367.227 0.721242 4.21879 0
M  V30 4088 C 366.553 -0.110555 5.34586 0
M  V30 4089 C 367.853 2.01141 4.82016 0
M  V30 4090 H 369.547 1.40462 2.64406 0
M  V30 4091 H 367.093 0.67684 1.27102 0
M  V30 4092 H 369.046 -0.482192 4.18632 0
M  V30 4093 H 367.77 -1.06351 3.08799 0
M  V30 4094 H 366.429 1.02482 3.51984 0
M  V30 4095 H 366.077 -1.0125 4.92704 0
M  V30 4096 H 365.777 0.477325 5.85658 0
M  V30 4097 H 367.301 -0.425107 6.09118 0
M  V30 4098 H 368.715 1.75612 5.45741 0
M  V30 4099 H 367.112 2.54695 5.43369 0
M  V30 4100 H 368.182 2.69909 4.02836 0
M  V30 4101 N 369.525 -1.3858 0.750561 0
M  V30 4102 C 370.455 -2.33102 0.136237 0
M  V30 4103 C 371.436 -1.54713 -0.706965 0
M  V30 4104 O 372.621 -1.83043 -0.648769 0
M  V30 4105 C 369.751 -3.38882 -0.760017 0
M  V30 4106 C 368.705 -4.27995 -0.0197785 0
M  V30 4107 C 368.031 -5.24605 -1.03408 0
M  V30 4108 C 369.331 -5.09554 1.14684 0
M  V30 4109 H 371.025 -2.84726 0.925822 0
M  V30 4110 H 368.571 -1.36898 0.446654 0
M  V30 4111 H 370.524 -4.0397 -1.19943 0
M  V30 4112 H 369.248 -2.85734 -1.58189 0
M  V30 4113 H 367.907 -3.64409 0.400184 0
M  V30 4114 H 367.555 -4.67746 -1.84994 0
M  V30 4115 H 367.255 -5.85081 -0.543464 0
M  V30 4116 H 368.779 -5.9257 -1.47288 0
M  V30 4117 H 370.193 -5.67899 0.785118 0
M  V30 4118 H 368.59 -5.7925 1.56812 0
M  V30 4119 H 369.66 -4.4347 1.96118 0
M  V30 4120 N 371.003 -0.499398 -1.49478 0
M  V30 4121 C 372.251 0.0455996 -2.02049 0
M  V30 4122 C 372.572 1.37633 -1.38138 0
M  V30 4123 O 371.842 1.8842 -0.536166 0
M  V30 4124 H 370.422 0.0198416 -0.746736 0
M  V30 4125 H 373.084 -0.656274 -1.83519 0
M  V30 4126 H 372.18 0.176445 -3.11601 0
M  V30 4127 N 372.481 1.55866 -0.233164 0
M  V30 4128 C 373.897 1.59133 0.121988 0
M  V30 4129 C 374.097 1.25016 1.58029 0
M  V30 4130 O 373.153 0.990922 2.32243 0
M  V30 4131 C 374.466 2.99932 -0.214792 0
M  V30 4132 C 376.014 3.12601 -0.157971 0
M  V30 4133 C 376.489 4.55597 -0.46859 0
M  V30 4134 N 377.98 4.61305 -0.418585 0
M  V30 4135 C 378.715 5.69903 -0.63227 0
M  V30 4136 N 378.211 6.86819 -0.90835 0
M  V30 4137 N 380.004 5.59264 -0.563913 0
M  V30 4138 H 372.155 1.76315 -1.18434 0
M  V30 4139 H 374.418 0.820093 -0.475553 0
M  V30 4140 H 374.124 3.29588 -1.22739 0
M  V30 4141 H 373.998 3.74327 0.464691 0
M  V30 4142 H 376.385 2.82735 0.845283 0
M  V30 4143 H 376.466 2.40511 -0.871102 0
M  V30 4144 H 376.11 4.86182 -1.46934 0
M  V30 4145 H 376.04 5.25928 0.265865 0
M  V30 4146 H 378.531 3.77297 -0.213368 0
M  V30 4147 H 378.844 7.65507 -1.05919 0
M  V30 4148 H 377.189 6.88536 -0.945673 0
M  V30 4149 H 380.38 4.66802 -0.348372 0
M  V30 4150 H 380.553 6.43831 -0.733847 0
M  V30 4151 N 373.959 -0.0401083 1.57549 0
M  V30 4152 C 375.37 -0.588097 1.77196 0
M  V30 4153 C 375.721 -1.76209 0.862832 0
M  V30 4154 O 374.846 -2.16331 0.0548389 0
M  V30 4155 C 375.441 -1.07363 3.21339 0
M  V30 4156 C 374 -1.56723 3.42221 0
M  V30 4157 C 373.147 -0.50041 2.72747 0
M  V30 4158 H 376.098 0.186119 1.57605 0
M  V30 4159 H 376.119 -1.94143 3.27244 0
M  V30 4160 H 375.631 -0.218975 3.87482 0
M  V30 4161 H 373.732 -2.4441 2.81237 0
M  V30 4162 H 373.845 -1.62234 4.50796 0
M  V30 4163 H 372.209 -0.952894 2.36203 0
M  V30 4164 H 372.992 0.344599 3.41566 0
M  V30 4165 N 375.437 -1.54477 -0.31217 0
M  V30 4166 C 376.4 -1.83923 -1.36766 0
M  V30 4167 C 377.4 -0.711563 -1.44199 0
M  V30 4168 O 378.59 -0.979866 -1.44029 0
M  V30 4169 C 375.722 -2.0095 -2.75376 0
M  V30 4170 H 376.915 -2.78239 -1.11906 0
M  V30 4171 H 374.468 -1.46369 -0.548257 0
M  V30 4172 H 375.203 -1.08883 -3.05475 0
M  V30 4173 H 374.988 -2.83018 -2.71373 0
M  V30 4174 H 376.478 -2.2514 -3.51713 0
M  V30 4175 N 376.915 0.57481 -1.46744 0
M  V30 4176 C 377.865 1.67838 -1.54319 0
M  V30 4177 C 378.849 1.55759 -0.40346 0
M  V30 4178 O 380.041 1.6454 -0.652347 0
M  V30 4179 C 377.17 3.06624 -1.5439 0
M  V30 4180 C 376.256 3.23971 -2.73685 0
M  V30 4181 N 376.647 3.11447 -3.9854 0
M  V30 4182 C 374.945 3.5493 -2.70075 0
M  V30 4183 C 375.646 3.31011 -4.78337 0
M  V30 4184 N 374.622 3.56533 -4.10348 0
M  V30 4185 H 378.424 1.56698 -2.48642 0
M  V30 4186 H 375.938 0.779071 -1.42493 0
M  V30 4187 H 377.935 3.85839 -1.57905 0
M  V30 4188 H 376.595 3.1889 -0.611493 0
M  V30 4189 H 377.606 2.89145 -4.29669 0
M  V30 4190 H 374.283 3.73832 -1.85893 0
M  V30 4191 H 375.673 3.26445 -5.87268 0
M  V30 4192 N 378.394 1.34581 0.820102 0
M  V30 4193 C 379.304 1.28471 1.96297 0
M  V30 4194 C 380.32 0.191902 1.72939 0
M  V30 4195 O 381.496 0.418879 1.96996 0
M  V30 4196 C 378.561 1.04281 3.30645 0
M  V30 4197 C 377.622 2.22745 3.66992 0
M  V30 4198 C 376.855 1.997 4.9493 0
M  V30 4199 O 377.078 0.956656 5.6232 0
M  V30 4200 O 376.012 2.86723 5.2922 0
M  V30 4201 H 379.838 2.24624 2.04396 0
M  V30 4202 H 377.423 1.14816 0.955913 0
M  V30 4203 H 379.305 0.925841 4.11104 0
M  V30 4204 H 377.98 0.111697 3.23507 0
M  V30 4205 H 376.887 2.40003 2.86966 0
M  V30 4206 H 378.22 3.14257 3.78819 0
M  V30 4207 N 379.872 -1.04064 1.18357 0
M  V30 4208 C 380.819 -2.12077 0.910603 0
M  V30 4209 C 381.789 -1.65421 -0.15 0
M  V30 4210 O 382.974 -1.90797 -0.0103614 0
M  V30 4211 C 380.114 -3.42252 0.442472 0
M  V30 4212 C 379.227 -4.0252 1.5685 0
M  V30 4213 C 378.362 -5.20657 1.05309 0
M  V30 4214 C 377.401 -5.72955 2.1538 0
M  V30 4215 N 376.538 -6.8238 1.65233 0
M  V30 4216 H 381.378 -2.34764 1.83548 0
M  V30 4217 H 378.915 -1.15157 0.915279 0
M  V30 4218 H 380.873 -4.16921 0.152534 0
M  V30 4219 H 379.503 -3.19712 -0.445428 0
M  V30 4220 H 378.555 -3.25178 1.97391 0
M  V30 4221 H 379.867 -4.37362 2.39824 0
M  V30 4222 H 379.021 -6.0244 0.717677 0
M  V30 4223 H 377.76 -4.87318 0.19293 0
M  V30 4224 H 376.765 -4.89793 2.49766 0
M  V30 4225 H 377.99 -6.08337 3.01832 0
M  V30 4226 H 375.936 -6.50917 0.815064 0
M  V30 4227 H 375.853 -7.16286 2.41805 0
M  V30 4228 H 377.121 -7.67788 1.34619 0
M  V30 4229 N 381.35 -0.985608 -1.22978 0
M  V30 4230 C 382.28 -0.549649 -2.26939 0
M  V30 4231 C 383.261 0.419803 -1.64838 0
M  V30 4232 O 384.446 0.31203 -1.91677 0
M  V30 4233 C 381.576 0.143652 -3.47003 0
M  V30 4234 C 380.53 -0.743606 -4.21491 0
M  V30 4235 C 379.856 0.0822027 -5.34637 0
M  V30 4236 C 381.156 -2.03694 -4.80943 0
M  V30 4237 H 382.85 -1.41862 -2.63658 0
M  V30 4238 H 380.396 -0.683571 -1.26741 0
M  V30 4239 H 382.349 0.459985 -4.18882 0
M  V30 4240 H 381.073 1.04711 -3.09359 0
M  V30 4241 H 379.732 -1.04347 -3.51436 0
M  V30 4242 H 379.38 0.986359 -4.93234 0
M  V30 4243 H 379.08 -0.508377 -5.85397 0
M  V30 4244 H 380.604 0.392797 -6.09335 0
M  V30 4245 H 382.018 -1.78504 -5.44802 0
M  V30 4246 H 380.415 -2.57573 -5.42011 0
M  V30 4247 H 381.485 -2.72042 -4.01399 0
M  V30 4248 N 382.828 1.3818 -0.7579 0
M  V30 4249 C 383.758 2.33027 -0.148597 0
M  V30 4250 C 384.739 1.55085 0.69875 0
M  V30 4251 O 385.924 1.83384 0.639053 0
M  V30 4252 C 383.054 3.3928 0.742034 0
M  V30 4253 C 382.008 4.28 -0.00291946 0
M  V30 4254 C 381.334 5.25146 1.00625 0
M  V30 4255 C 382.634 5.08938 -1.17385 0
M  V30 4256 H 384.328 2.84231 -0.940909 0
M  V30 4257 H 381.874 1.36659 -0.453908 0
M  V30 4258 H 383.827 4.046 1.17799 0
M  V30 4259 H 382.551 2.86569 1.56671 0
M  V30 4260 H 381.21 3.64192 -0.419504 0
M  V30 4261 H 380.858 4.68721 1.8251 0
M  V30 4262 H 380.558 5.85361 0.512428 0
M  V30 4263 H 382.082 5.93342 1.44143 0
M  V30 4264 H 383.496 5.67474 -0.815224 0
M  V30 4265 H 381.893 5.7841 -1.59882 0
M  V30 4266 H 382.963 4.42424 -1.98468 0
M  V30 4267 N 384.306 0.507319 1.49211 0
M  V30 4268 C 385.239 -0.314509 2.26022 0
M  V30 4269 C 386.217 -0.964849 1.30879 0
M  V30 4270 O 387.401 -0.993707 1.6018 0
M  V30 4271 C 384.528 -1.44346 3.06402 0
M  V30 4272 C 383.574 -0.90685 4.16748 0
M  V30 4273 S 384.407 0.207392 5.35098 0
M  V30 4274 C 385.563 -0.924573 6.19033 0
M  V30 4275 H 385.796 0.337416 2.95379 0
M  V30 4276 H 383.329 0.292718 1.516 0
M  V30 4277 H 385.287 -2.09029 3.53295 0
M  V30 4278 H 383.948 -2.06702 2.36502 0
M  V30 4279 H 383.141 -1.75309 4.72528 0
M  V30 4280 H 382.743 -0.33712 3.72478 0
M  V30 4281 H 385.035 -1.82839 6.52362 0
M  V30 4282 H 385.978 -0.405248 7.06939 0
M  V30 4283 H 386.386 -1.19476 5.51712 0
M  V30 4284 N 385.784 -1.5574 0.241426 0
M  V30 4285 C 386.714 -2.24133 -0.654722 0
M  V30 4286 C 387.695 -1.21974 -1.1856 0
M  V30 4287 O 388.88 -1.50612 -1.22595 0
M  V30 4288 C 386.01 -2.93659 -1.85423 0
M  V30 4289 C 384.964 -4.0246 -1.45636 0
M  V30 4290 C 384.29 -4.59383 -2.73626 0
M  V30 4291 C 385.59 -5.18468 -0.631506 0
M  V30 4292 H 387.284 -2.99281 -0.0844353 0
M  V30 4293 H 384.83 -1.43947 -0.0391707 0
M  V30 4294 H 386.783 -3.40203 -2.48676 0
M  V30 4295 H 385.507 -2.15991 -2.44981 0
M  V30 4296 H 384.166 -3.56676 -0.847202 0
M  V30 4297 H 383.814 -3.78422 -3.3137 0
M  V30 4298 H 383.514 -5.32826 -2.4773 0
M  V30 4299 H 385.038 -5.08658 -3.37786 0
M  V30 4300 H 386.452 -5.61272 -1.1682 0
M  V30 4301 H 384.849 -5.98266 -0.468831 0
M  V30 4302 H 385.919 -4.8358 0.357506 0
M  V30 4303 N 387.262 0.0317525 -1.57568 0
M  V30 4304 C 388.192 1.03274 -2.0942 0
M  V30 4305 C 389.173 1.3788 -0.996143 0
M  V30 4306 O 390.358 1.46811 -1.27122 0
M  V30 4307 C 387.488 2.33448 -2.57137 0
M  V30 4308 C 386.442 2.13091 -3.71182 0
M  V30 4309 C 385.768 3.49001 -4.05095 0
M  V30 4310 C 387.068 1.51928 -4.99715 0
M  V30 4311 H 388.762 0.60112 -2.93303 0
M  V30 4312 H 386.308 0.287705 -1.41097 0
M  V30 4313 H 388.261 3.03802 -2.92032 0
M  V30 4314 H 386.985 2.78665 -1.70333 0
M  V30 4315 H 385.644 1.45171 -3.36632 0
M  V30 4316 H 385.292 3.91862 -3.15362 0
M  V30 4317 H 384.992 3.36207 -4.81911 0
M  V30 4318 H 386.516 4.20721 -4.42522 0
M  V30 4319 H 387.93 2.12196 -5.32584 0
M  V30 4320 H 386.327 1.49716 -5.81124 0
M  V30 4321 H 387.397 0.484811 -4.8247 0
M  V30 4322 N 388.74 1.54641 0.303973 0
M  V30 4323 C 390.151 1.64811 0.877163 0
M  V30 4324 C 390.502 0.554838 1.88191 0
M  V30 4325 O 389.627 -0.309033 2.14182 0
M  V30 4326 C 390.222 2.9876 1.59775 0
M  V30 4327 C 388.781 3.11061 2.11938 0
M  V30 4328 C 387.928 2.60479 0.951097 0
M  V30 4329 H 390.879 1.58493 0.0810486 0
M  V30 4330 H 390.9 2.90017 2.46314 0
M  V30 4331 H 390.412 3.7831 0.866226 0
M  V30 4332 H 388.513 2.36225 2.88146 0
M  V30 4333 H 388.626 4.17171 2.35595 0
M  V30 4334 H 386.99 2.16859 1.33583 0
M  V30 4335 H 387.773 3.42504 0.233581 0
M  V30 4336 N 390.218 -0.567019 1.47046 0
M  V30 4337 C 391.464 -1.32658 1.53394 0
M  V30 4338 C 391.797 -1.93254 0.19148 0
M  V30 4339 O 391.072 -1.77338 -0.798844 0
M  V30 4340 C 391.355 -2.44412 2.64452 0
M  V30 4341 C 391.208 -1.88749 4.08282 0
M  V30 4342 C 392.527 -3.46387 2.71485 0
M  V30 4343 H 389.646 -0.48098 0.558415 0
M  V30 4344 H 392.288 -0.635481 1.79058 0
M  V30 4345 H 390.438 -3.03363 2.427 0
M  V30 4346 H 392.11 -1.34134 4.41368 0
M  V30 4347 H 390.353 -1.19481 4.17021 0
M  V30 4348 H 391.024 -2.69491 4.81745 0
M  V30 4349 H 393.5 -2.9734 2.91081 0
M  V30 4350 H 392.376 -4.2202 3.50985 0
M  V30 4351 H 392.637 -4.04616 1.78153 0
M  V30 4352 N 391.696 -1.35014 -0.812953 0
M  V30 4353 C 392.944 -1.27678 -1.56661 0
M  V30 4354 C 393.265 0.150359 -1.94419 0
M  V30 4355 O 392.535 1.08532 -1.63088 0
M  V30 4356 H 391.115 -0.469602 -0.580933 0
M  V30 4357 H 393.777 -1.69043 -0.970076 0
M  V30 4358 H 392.873 -1.88833 -2.48492 0
M  V30 4359 N 393.175 1.03435 -1.18907 0
M  V30 4360 C 394.405 1.8012 -1.01195 0
M  V30 4361 C 394.813 1.8395 0.442613 0
M  V30 4362 O 394.156 1.27836 1.31923 0
M  V30 4363 C 394.218 3.26792 -1.49823 0
M  V30 4364 C 393.882 3.46609 -2.97844 0
M  V30 4365 C 394.879 3.37278 -3.95651 0
M  V30 4366 C 392.564 3.73001 -3.36416 0
M  V30 4367 C 394.558 3.54054 -5.30023 0
M  V30 4368 C 392.245 3.89423 -4.70949 0
M  V30 4369 C 393.243 3.79951 -5.67562 0
M  V30 4370 O 392.931 3.95895 -6.99659 0
M  V30 4371 H 392.663 0.573865 -0.357289 0
M  V30 4372 H 395.217 1.31207 -1.58031 0
M  V30 4373 H 393.447 3.76703 -0.873578 0
M  V30 4374 H 395.136 3.85055 -1.28404 0
M  V30 4375 H 395.902 3.16846 -3.67197 0
M  V30 4376 H 391.781 3.79469 -2.61772 0
M  V30 4377 H 395.325 3.46577 -6.05417 0
M  V30 4378 H 391.222 4.09351 -4.99101 0
M  V30 4379 H 391.99 4.13019 -7.06653 0
M  V30 4380 N 394.653 0.992116 1.22453 0
M  V30 4381 C 396.064 0.702776 1.72968 0
M  V30 4382 C 396.415 -0.780399 1.80012 0
M  V30 4383 O 395.54 -1.61007 1.44589 0
M  V30 4384 C 396.135 1.26903 3.14135 0
M  V30 4385 C 394.694 1.02909 3.62059 0
M  V30 4386 C 393.841 1.38969 2.39964 0
M  V30 4387 H 396.792 1.16457 1.07812 0
M  V30 4388 H 396.813 0.647223 3.74955 0
M  V30 4389 H 396.325 2.34851 3.08977 0
M  V30 4390 H 394.426 -0.0337979 3.72585 0
M  V30 4391 H 394.539 1.69191 4.48231 0
M  V30 4392 H 392.903 0.808279 2.41535 0
M  V30 4393 H 393.686 2.4792 2.37467 0
M  V30 4394 N 396.131 -1.37776 0.765217 0
M  V30 4395 C 397.356 -2.04651 0.336537 0
M  V30 4396 C 397.781 -1.57337 -1.03086 0
M  V30 4397 O 397.139 -0.730621 -1.65927 0
M  V30 4398 C 397.187 -3.58577 0.381468 0
M  V30 4399 O 396.291 -4.07706 -0.62042 0
M  V30 4400 H 395.632 -0.64756 0.146838 0
M  V30 4401 H 398.162 -1.76221 1.03959 0
M  V30 4402 H 398.172 -4.07314 0.236448 0
M  V30 4403 H 396.847 -3.9237 1.37907 0
M  V30 4404 H 395.424 -3.70306 -0.439056 0
M  V30 4405 N 397.609 -0.515225 -1.4894 0
M  V30 4406 C 398.556 0.255567 -2.29381 0
M  V30 4407 C 399.526 0.947387 -1.36432 0
M  V30 4408 O 400.711 0.951288 -1.65394 0
M  V30 4409 C 397.851 1.30551 -3.19453 0
M  V30 4410 C 396.964 0.624029 -4.27469 0
M  V30 4411 C 396.099 1.65563 -5.0474 0
M  V30 4412 C 395.138 0.956802 -6.04576 0
M  V30 4413 N 394.275 1.93326 -6.74959 0
M  V30 4414 H 399.115 -0.436607 -2.94784 0
M  V30 4415 H 396.652 -0.227154 -1.45336 0
M  V30 4416 H 398.61 1.92639 -3.70062 0
M  V30 4417 H 397.24 1.96626 -2.56004 0
M  V30 4418 H 396.292 -0.110459 -3.8024 0
M  V30 4419 H 397.604 0.0746092 -4.98744 0
M  V30 4420 H 396.758 2.35119 -5.59289 0
M  V30 4421 H 395.497 2.23893 -4.3327 0
M  V30 4422 H 394.502 0.247097 -5.49244 0
M  V30 4423 H 395.727 0.379814 -6.78037 0
M  V30 4424 H 393.673 2.50591 -6.06251 0
M  V30 4425 H 393.59 1.43489 -7.42258 0
M  V30 4426 H 394.858 2.62126 -7.34105 0
M  V30 4427 N 399.087 1.5561 -0.249682 0
M  V30 4428 C 399.997 2.25143 0.659375 0
M  V30 4429 C 401.013 1.2685 1.19101 0
M  V30 4430 O 402.189 1.59732 1.22669 0
M  V30 4431 C 399.254 2.93945 1.8384 0
M  V30 4432 C 398.315 4.07655 1.34596 0
M  V30 4433 C 397.548 4.73167 2.46878 0
M  V30 4434 O 397.771 4.37768 3.65671 0
M  V30 4435 O 396.705 5.61623 2.16478 0
M  V30 4436 H 400.531 3.03545 0.0968698 0
M  V30 4437 H 398.116 1.49389 -0.018074 0
M  V30 4438 H 399.998 3.37271 2.52638 0
M  V30 4439 H 398.673 2.18481 2.38847 0
M  V30 4440 H 397.58 3.68839 0.625174 0
M  V30 4441 H 398.913 4.84946 0.841941 0
M  V30 4442 N 400.565 -0.0233959 1.57583 0
M  V30 4443 C 401.528 -1.00693 2.05897 0
M  V30 4444 C 402.528 -1.28693 0.964092 0
M  V30 4445 O 403.718 -1.23602 1.22753 0
M  V30 4446 C 400.85 -2.33825 2.4807 0
M  V30 4447 H 402.043 -0.589476 2.9405 0
M  V30 4448 H 399.596 -0.270354 1.53944 0
M  V30 4449 H 400.331 -2.80307 1.6309 0
M  V30 4450 H 400.116 -2.1483 3.2801 0
M  V30 4451 H 401.606 -3.04426 2.85857 0
M  V30 4452 N 402.043 -1.548 -0.295768 0
M  V30 4453 C 403.271 -1.78327 -1.04914 0
M  V30 4454 C 403.686 -0.545316 -1.80753 0
M  V30 4455 O 403.043 0.485013 -1.75937 0
M  V30 4456 C 403.094 -2.99418 -2.02561 0
M  V30 4457 O 402.815 -4.18431 -1.29798 0
M  V30 4458 C 404.316 -3.35375 -2.89895 0
M  V30 4459 H 401.536 -0.594618 -0.310918 0
M  V30 4460 H 404.08 -2.01763 -0.333454 0
M  V30 4461 H 402.235 -2.78175 -2.69624 0
M  V30 4462 H 402.649 -4.86736 -1.95419 0
M  V30 4463 H 404.123 -4.23332 -3.54251 0
M  V30 4464 H 404.6 -2.53761 -3.58472 0
M  V30 4465 H 405.206 -3.58796 -2.28355 0
M  V30 4466 N 403.521 0.559213 -1.47345 0
M  V30 4467 C 404.767 1.31843 -1.54095 0
M  V30 4468 C 405.1 1.93149 -0.201726 0
M  V30 4469 O 404.375 1.77759 0.789428 0
M  V30 4470 C 404.658 2.43006 -2.65744 0
M  V30 4471 C 404.511 1.86581 -4.09277 0
M  V30 4472 C 405.83 3.44943 -2.73318 0
M  V30 4473 H 402.949 0.478012 -0.560957 0
M  V30 4474 H 405.591 0.625977 -1.79392 0
M  V30 4475 H 403.741 3.02072 -2.44305 0
M  V30 4476 H 405.413 1.31792 -4.42073 0
M  V30 4477 H 403.656 1.17268 -4.17649 0
M  V30 4478 H 404.327 2.66933 -4.83168 0
M  V30 4479 H 406.803 2.95793 -2.92653 0
M  V30 4480 H 405.679 4.20153 -3.53218 0
M  V30 4481 H 405.94 4.03665 -1.80296 0
M  V30 4482 N 404.999 1.35443 0.805782 0
M  V30 4483 C 406.41 1.25768 1.37983 0
M  V30 4484 C 406.761 -0.10958 1.95894 0
M  V30 4485 O 405.886 -1.01056 1.91355 0
M  V30 4486 C 406.481 2.27727 2.5085 0
M  V30 4487 C 405.04 2.2179 3.04115 0
M  V30 4488 C 404.187 2.13393 1.77084 0
M  V30 4489 H 407.138 1.4656 0.608752 0
M  V30 4490 H 407.159 1.90422 3.29424 0
M  V30 4491 H 406.671 3.27227 2.08671 0
M  V30 4492 H 404.772 1.25703 3.50756 0
M  V30 4493 H 404.885 3.13788 3.62042 0
M  V30 4494 H 403.249 1.59384 1.98668 0
M  V30 4495 H 404.032 3.14755 1.37056 0
M  V30 4496 N 406.477 -1.02803 1.19454 0
M  V30 4497 C 407.754 -1.73299 0.907013 0
M  V30 4498 C 408.134 -2.02772 -0.587086 0
M  V30 4499 O 407.482 -1.68304 -1.54551 0
M  V30 4500 C 407.692 -3.00912 1.76785 0
M  V30 4501 C 409.04 -3.74403 2.00268 0
M  V30 4502 O 410.064 -3.10841 1.73943 0
M  V30 4503 O 408.923 -4.88675 2.4466 0
M  V30 4504 H 406.017 -0.754727 0.338106 0
M  V30 4505 H 408.563 -1.08754 1.30271 0
M  V30 4506 H 407.335 -2.75366 2.7801 0
M  V30 4507 H 406.958 -3.73197 1.37149 0
M  V30 4508 N 407.956 -0.998596 -1.21925 0
M  V30 4509 C 408.886 -0.573688 -2.26343 0
M  V30 4510 C 409.867 0.402296 -1.65274 0
M  V30 4511 O 411.052 0.291683 -1.91997 0
M  V30 4512 C 408.182 0.106839 -3.47136 0
M  V30 4513 C 407.136 -0.788269 -4.20678 0
M  V30 4514 C 406.462 0.0254927 -5.34694 0
M  V30 4515 C 407.762 -2.08784 -4.78755 0
M  V30 4516 H 409.456 -1.44651 -2.62138 0
M  V30 4517 H 407.002 -0.696975 -1.26009 0
M  V30 4518 H 408.955 0.415531 -4.19346 0
M  V30 4519 H 407.679 1.01424 -3.10452 0
M  V30 4520 H 406.338 -1.08069 -3.50309 0
M  V30 4521 H 405.986 0.933989 -4.94253 0
M  V30 4522 H 405.686 -0.570437 -5.84825 0
M  V30 4523 H 407.21 0.328147 -6.09718 0
M  V30 4524 H 408.624 -1.84272 -5.42878 0
M  V30 4525 H 407.021 -2.63307 -5.39249 0
M  V30 4526 H 408.091 -2.76284 -3.98491 0
M  V30 4527 N 409.434 1.37368 -0.772513 0
M  V30 4528 C 410.381 2.30262 -0.157488 0
M  V30 4529 C 411.351 1.51137 0.688965 0
M  V30 4530 O 412.536 1.79704 0.641168 0
M  V30 4531 C 409.676 3.37611 0.715045 0
M  V30 4532 C 408.789 4.31746 -0.148098 0
M  V30 4533 C 407.924 5.26171 0.729213 0
M  V30 4534 C 406.963 6.11948 -0.136418 0
M  V30 4535 N 406.1 6.98613 0.698914 0
M  V30 4536 H 410.94 2.82277 -0.955179 0
M  V30 4537 H 408.477 1.38957 -0.482631 0
M  V30 4538 H 410.435 3.98479 1.23575 0
M  V30 4539 H 409.065 2.86959 1.47833 0
M  V30 4540 H 408.117 3.72178 -0.786613 0
M  V30 4541 H 409.429 4.92084 -0.81579 0
M  V30 4542 H 408.583 5.92247 1.31637 0
M  V30 4543 H 407.322 4.66246 1.43059 0
M  V30 4544 H 406.327 5.4485 -0.736102 0
M  V30 4545 H 407.552 6.73945 -0.835134 0
M  V30 4546 H 405.498 6.41215 1.38489 0
M  V30 4547 H 405.415 7.55948 0.0885358 0
M  V30 4548 H 406.683 7.69077 1.27044 0
M  V30 4549 N 410.912 0.523116 1.48665 0
M  V30 4550 C 412.328 0.180511 1.58576 0
M  V30 4551 C 412.528 -1.31597 1.52592 0
M  V30 4552 O 411.584 -2.0937 1.4114 0
M  V30 4553 C 412.897 0.776949 2.90489 0
M  V30 4554 C 414.445 0.745058 3.04003 0
M  V30 4555 C 414.92 1.31995 4.38567 0
M  V30 4556 N 416.411 1.28162 4.45117 0
M  V30 4557 C 417.146 1.6964 5.47731 0
M  V30 4558 N 416.642 2.18816 6.57337 0
M  V30 4559 N 418.435 1.6092 5.38573 0
M  V30 4560 H 410.586 1.4958 1.50797 0
M  V30 4561 H 412.849 0.621772 0.715614 0
M  V30 4562 H 412.555 1.82732 3.00503 0
M  V30 4563 H 412.429 0.25007 3.7637 0
M  V30 4564 H 414.816 -0.296532 2.93606 0
M  V30 4565 H 414.897 1.30933 2.1975 0
M  V30 4566 H 414.541 2.36043 4.49718 0
M  V30 4567 H 414.471 0.731418 5.21496 0
M  V30 4568 H 416.962 0.92155 3.66491 0
M  V30 4569 H 417.275 2.48478 7.31764 0
M  V30 4570 H 415.62 2.22805 6.58318 0
M  V30 4571 H 418.811 1.22304 4.5184 0
M  V30 4572 H 418.984 1.93567 6.18414 0
M  V30 4573 N 412.39 -1.55475 0.257931 0
M  V30 4574 C 413.337 -2.21837 -0.636939 0
M  V30 4575 C 414.307 -1.18596 -1.16294 0
M  V30 4576 O 415.492 -1.47081 -1.21539 0
M  V30 4577 C 412.632 -2.9301 -1.82317 0
M  V30 4578 C 411.745 -4.10931 -1.33265 0
M  V30 4579 C 410.88 -4.69791 -2.47931 0
M  V30 4580 C 409.919 -5.7994 -1.95796 0
M  V30 4581 N 409.056 -6.32935 -3.0387 0
M  V30 4582 H 413.896 -2.9793 -0.0643591 0
M  V30 4583 H 411.433 -1.47086 -0.0200031 0
M  V30 4584 H 413.391 -3.3248 -2.52018 0
M  V30 4585 H 412.021 -2.1937 -2.36805 0
M  V30 4586 H 411.073 -3.76699 -0.52931 0
M  V30 4587 H 412.385 -4.90417 -0.910654 0
M  V30 4588 H 411.539 -5.11892 -3.25656 0
M  V30 4589 H 410.278 -3.89545 -2.93438 0
M  V30 4590 H 409.283 -5.37305 -1.16546 0
M  V30 4591 H 410.508 -6.62043 -1.51246 0
M  V30 4592 H 408.454 -5.55591 -3.48791 0
M  V30 4593 H 408.371 -7.07645 -2.66035 0
M  V30 4594 H 409.639 -6.79695 -3.81621 0
M  V30 4595 N 413.868 0.0150385 -1.57593 0
M  V30 4596 C 415.279 0.559832 -1.78109 0
M  V30 4597 C 415.63 1.74814 -0.890756 0
M  V30 4598 O 414.755 2.16216 -0.0892482 0
M  V30 4599 C 415.35 1.02238 -3.23006 0
M  V30 4600 C 413.909 1.51258 -3.44671 0
M  V30 4601 C 413.056 0.456955 -2.73509 0
M  V30 4602 H 416.007 -0.211169 -1.57289 0
M  V30 4603 H 416.028 1.88912 -3.30292 0
M  V30 4604 H 415.54 0.157302 -3.87781 0
M  V30 4605 H 413.641 2.39905 -2.8509 0
M  V30 4606 H 413.754 1.55042 -4.5332 0
M  V30 4607 H 412.118 0.915196 -2.37689 0
M  V30 4608 H 412.901 -0.398896 -3.40975 0
M  V30 4609 N 415.346 1.54954 0.287554 0
M  V30 4610 C 416.276 1.89839 1.35954 0
M  V30 4611 C 417.257 0.758675 1.52244 0
M  V30 4612 O 418.442 1.01557 1.65529 0
M  V30 4613 C 415.572 2.15753 2.72154 0
M  V30 4614 C 414.526 3.3159 2.70614 0
M  V30 4615 C 413.852 3.42952 4.10229 0
M  V30 4616 C 415.152 4.68359 2.31165 0
M  V30 4617 H 416.846 2.79625 1.07007 0
M  V30 4618 H 414.392 1.3454 0.513316 0
M  V30 4619 H 416.345 2.38743 3.47246 0
M  V30 4620 H 415.069 1.22752 3.02654 0
M  V30 4621 H 413.728 3.08545 1.97979 0
M  V30 4622 H 413.376 2.47443 4.37928 0
M  V30 4623 H 413.076 4.20826 4.10097 0
M  V30 4624 H 414.6 3.68218 4.87081 0
M  V30 4625 H 416.014 4.9099 2.95976 0
M  V30 4626 H 414.411 5.49044 2.42221 0
M  V30 4627 H 415.481 4.68165 1.26291 0
M  V30 4628 N 416.824 -0.551391 1.4764 0
M  V30 4629 C 418.101 -1.31229 1.45046 0
M  V30 4630 C 418.481 -2.10563 0.150527 0
M  V30 4631 O 417.829 -2.11374 -0.867956 0
M  V30 4632 C 418.039 -2.21189 2.69956 0
M  V30 4633 C 419.387 -2.82021 3.1741 0
M  V30 4634 O 420.411 -2.31488 2.70724 0
M  V30 4635 O 419.27 -3.73885 3.98588 0
M  V30 4636 H 416.364 -0.591193 0.578291 0
M  V30 4637 H 418.91 -0.569813 1.59847 0
M  V30 4638 H 417.682 -1.62207 3.56096 0
M  V30 4639 H 417.305 -3.02722 2.57769 0
M  V30 4640 N 418.302 -1.35869 -0.798587 0
M  V30 4641 C 419.234 -1.25305 -1.91915 0
M  V30 4642 C 420.247 -0.174548 -1.61862 0
M  V30 4643 O 421.436 -0.428499 -1.73281 0
M  V30 4644 C 418.536 -0.9086 -3.26493 0
M  V30 4645 C 417.709 -2.08711 -3.84394 0
M  V30 4646 C 416.768 -1.71717 -4.97393 0
M  V30 4647 O 415.794 -2.43692 -5.14396 0
M  V30 4648 N 416.996 -0.645473 -5.769 0
M  V30 4649 H 419.761 -2.21849 -2.01502 0
M  V30 4650 H 417.322 -1.29143 -0.976408 0
M  V30 4651 H 419.314 -0.642455 -3.99568 0
M  V30 4652 H 417.884 -0.0325815 -3.12583 0
M  V30 4653 H 417.104 -2.51659 -3.03416 0
M  V30 4654 H 418.392 -2.87468 -4.19809 0
M  V30 4655 H 417.79 -0.047648 -5.6568 0
M  V30 4656 H 416.347 -0.43913 -6.50319 0
M  V30 4657 N 419.78 1.02168 -1.19998 0
M  V30 4658 C 421.029 1.75091 -1.0013 0
M  V30 4659 C 421.342 1.89923 0.467835 0
M  V30 4660 O 422.548 2.59888 0.785515 0
M  V30 4661 C 421.004 3.14892 -1.74273 0
M  V30 4662 C 420.612 3.0809 -3.25245 0
M  V30 4663 C 422.356 3.9206 -1.62755 0
M  V30 4664 C 420.263 4.42867 -3.91948 0
M  V30 4665 H 419.193 0.656394 -0.37103 0
M  V30 4666 H 421.844 1.14284 -1.43567 0
M  V30 4667 H 420.226 3.7621 -1.2362 0
M  V30 4668 H 421.4 2.5611 -3.83072 0
M  V30 4669 H 419.715 2.44416 -3.3712 0
M  V30 4670 H 422.312 4.91764 -2.09934 0
M  V30 4671 H 422.655 4.12199 -0.582894 0
M  V30 4672 H 423.188 3.37359 -2.10793 0
M  V30 4673 H 419.927 4.27931 -4.96543 0
M  V30 4674 H 419.447 4.94874 -3.3891 0
M  V30 4675 H 421.126 5.11728 -3.95909 0
M  V30 4676 N 421.258 1.00505 1.21394 0
M  V30 4677 C 422.191 0.51032 2.22421 0
M  V30 4678 C 423.169 -0.436 1.56645 0
M  V30 4679 O 424.353 -0.358709 1.85055 0
M  V30 4680 C 421.48 -0.258733 3.3771 0
M  V30 4681 C 420.526 0.635395 4.2174 0
M  V30 4682 S 421.359 2.09783 4.92698 0
M  V30 4683 C 422.515 1.33862 6.11418 0
M  V30 4684 H 422.748 1.36637 2.64041 0
M  V30 4685 H 420.281 0.812991 1.31262 0
M  V30 4686 H 422.239 -0.696372 4.0455 0
M  V30 4687 H 420.9 -1.0902 2.94573 0
M  V30 4688 H 420.093 0.0430189 5.03982 0
M  V30 4689 H 419.695 1.01031 3.60095 0
M  V30 4690 H 421.987 0.612541 6.74725 0
M  V30 4691 H 422.93 2.13675 6.75092 0
M  V30 4692 H 423.338 0.846568 5.58116 0
M  V30 4693 N 422.737 -1.36956 0.779787 0
M  V30 4694 C 423.983 -1.99787 0.348281 0
M  V30 4695 C 424.316 -1.61756 -1.07465 0
M  V30 4696 O 423.591 -0.867639 -1.74075 0
M  V30 4697 C 423.874 -3.56597 0.50104 0
M  V30 4698 C 423.727 -4.04513 1.96697 0
M  V30 4699 C 425.046 -4.40008 -0.0898097 0
M  V30 4700 H 422.165 -0.725796 0.128022 0
M  V30 4701 H 424.807 -1.62514 0.984331 0
M  V30 4702 H 422.957 -3.88479 -0.0404347 0
M  V30 4703 H 424.629 -3.83161 2.56876 0
M  V30 4704 H 422.872 -3.56408 2.47297 0
M  V30 4705 H 423.543 -5.1352 2.02486 0
M  V30 4706 H 426.019 -4.14431 0.372293 0
M  V30 4707 H 424.895 -5.4888 0.0471605 0
M  V30 4708 H 425.156 -4.26035 -1.18096 0
M  V30 4709 N 424.215 -0.530993 -1.48385 0
M  V30 4710 C 425.443 -0.00134122 -2.069 0
M  V30 4711 C 425.858 1.2805 -1.3874 0
M  V30 4712 O 425.215 1.76204 -0.475244 0
M  V30 4713 C 425.266 0.225256 -3.60798 0
M  V30 4714 O 424.987 -1.0058 -4.26398 0
M  V30 4715 C 426.488 0.795172 -4.3611 0
M  V30 4716 H 423.708 -0.0339704 -0.67014 0
M  V30 4717 H 426.252 -0.736926 -1.90761 0
M  V30 4718 H 424.407 0.910891 -3.76539 0
M  V30 4719 H 424.821 -0.787165 -5.1856 0
M  V30 4720 H 426.295 0.903143 -5.44562 0
M  V30 4721 H 426.772 1.80031 -4.00606 0
M  V30 4722 H 427.378 0.146069 -4.25049 0
M  V30 4723 N 425.693 1.55336 -0.266172 0
M  V30 4724 C 426.939 1.99692 0.353681 0
M  V30 4725 C 427.272 1.1543 1.56172 0
M  V30 4726 O 426.547 0.222218 1.93226 0
M  V30 4727 C 426.83 3.52316 0.74466 0
M  V30 4728 C 426.683 4.47337 -0.470101 0
M  V30 4729 C 428.002 4.10588 1.58447 0
M  V30 4730 H 425.121 0.725961 0.12708 0
M  V30 4731 H 427.763 1.86336 -0.371333 0
M  V30 4732 H 425.913 3.63829 1.36239 0
M  V30 4733 H 427.585 4.4778 -1.10864 0
M  V30 4734 H 425.828 4.19364 -1.10978 0
M  V30 4735 H 426.499 5.51788 -0.15291 0
M  V30 4736 H 428.975 4.02297 1.06286 0
M  V30 4737 H 427.851 5.17607 1.82686 0
M  V30 4738 H 428.112 3.60253 2.56262 0
M  V30 4739 O 427.21 0.131478 1.60964 0
M  V30 4740 H 427.901 -0.465131 1.88033 0
M  V30 END ATOM
M  V30 BEGIN BOND
M  V30 END BOND
M  V30 END CTAB
M  END
$$$$
