drugbank_target|P19571 Glucan 1,4-alpha-maltohexaosidase (DB01841; DB02120; DB02379)
 OpenBabel12092119533D

  0  0  0     0  0            999 V3000
M  V30 BEGIN CTAB
M  V30 COUNTS 8109 8234 0 0 0
M  V30 BEGIN ATOM
M  V30 1 H -0.908 1.98254 -0.117106 0
M  V30 2 N 0 1.576 0 0
M  V30 3 C 0.933 2.03868 1.02534 0
M  V30 4 C 1.911 0.928543 1.3348 0
M  V30 5 O 3.095 1.19667 1.45644 0
M  V30 6 C 0.222 2.43627 2.35294 0
M  V30 7 C -0.732 3.65373 2.2001 0
M  V30 8 S 0.101 5.13292 1.52614 0
M  V30 9 C 1.257 5.56322 2.86805 0
M  V30 10 H 1.49 2.90518 0.631377 0
M  V30 11 H -0.977 1.52953 0.210867 0
M  V30 12 H 0.981 2.67203 3.11629 0
M  V30 13 H -0.358 1.57376 2.7183 0
M  V30 14 H -1.165 3.90944 3.18086 0
M  V30 15 H -1.563 3.418 1.51819 0
M  V30 16 H 0.729 5.58782 3.83104 0
M  V30 17 H 1.672 6.56266 2.65933 0
M  V30 18 H 2.08 4.83886 2.90714 0
M  V30 19 N 1.4781 -0.272755 1.55222 0
M  V30 20 C 2.4251 -1.33716 1.88119 0
M  V30 21 C 3.3951 -1.49066 0.73271 0
M  V30 22 O 4.5801 -1.63469 0.984002 0
M  V30 23 C 1.7201 -2.69238 2.15882 0
M  V30 24 C 0.8331 -2.62108 3.43399 0
M  V30 25 C -0.0319 -3.89811 3.60861 0
M  V30 26 C -0.9929 -3.77193 4.8207 0
M  V30 27 N -1.8559 -4.9673 4.96189 0
M  V30 28 H 2.9841 -1.04962 2.78903 0
M  V30 29 H 0.5211 -0.507088 1.38083 0
M  V30 30 H 2.4791 -3.48089 2.29978 0
M  V30 31 H 1.1091 -2.96194 1.28331 0
M  V30 32 H 0.1611 -1.74967 3.37773 0
M  V30 33 H 1.4731 -2.48685 4.32386 0
M  V30 34 H 0.6271 -4.77103 3.74777 0
M  V30 35 H -0.6339 -4.06102 2.7006 0
M  V30 36 H -1.6289 -2.88284 4.68159 0
M  V30 37 H -0.4039 -3.62421 5.74307 0
M  V30 38 H -2.4579 -5.13431 4.08319 0
M  V30 39 H -2.5409 -4.85839 5.79221 0
M  V30 40 H -1.2729 -5.85594 5.1449 0
M  V30 41 N 2.9562 -1.48159 -0.537278 0
M  V30 42 C 3.8892 -1.567 -1.65893 0
M  V30 43 C 4.8672 -0.41787 -1.57139 0
M  V30 44 O 6.0512 -0.628461 -1.77715 0
M  V30 45 C 3.1782 -1.48818 -3.04255 0
M  V30 46 C 2.2242 -2.68482 -3.31391 0
M  V30 47 S 3.0572 -4.30516 -3.1846 0
M  V30 48 C 4.2132 -4.2522 -4.59281 0
M  V30 49 H 4.4462 -2.5159 -1.58397 0
M  V30 50 H 1.9792 -1.36602 -0.719672 0
M  V30 51 H 3.9372 -1.44958 -3.84054 0
M  V30 52 H 2.5982 -0.552777 -3.09198 0
M  V30 53 H 1.7912 -2.59085 -4.32309 0
M  V30 54 H 1.3932 -2.69567 -2.59248 0
M  V30 55 H 3.6852 -3.94703 -5.5065 0
M  V30 56 H 4.6282 -5.26292 -4.73732 0
M  V30 57 H 5.0362 -3.55791 -4.38261 0
M  V30 58 N 4.4343 0.785586 -1.36625 0
M  V30 59 C 5.8503 1.08419 -1.17122 0
M  V30 60 C 6.0503 2.015 0.00208491 0
M  V30 61 O 5.1063 2.43551 0.666278 0
M  V30 62 C 6.4193 1.69498 -2.48377 0
M  V30 63 C 7.9673 1.81821 -2.54775 0
M  V30 64 C 8.4423 2.46315 -3.86126 0
M  V30 65 N 9.9333 2.53779 -3.87492 0
M  V30 66 C 10.6683 3.045 -4.85868 0
M  V30 67 N 10.1643 3.55499 -5.94637 0
M  V30 68 N 11.9573 3.03247 -4.73284 0
M  V30 69 H 4.1083 0.167264 -2.1174 0
M  V30 70 H 6.3713 0.13682 -0.938075 0
M  V30 71 H 6.0773 1.08571 -3.34522 0
M  V30 72 H 5.9513 2.6896 -2.64462 0
M  V30 73 H 8.3383 2.41884 -1.69045 0
M  V30 74 H 8.4193 0.811532 -2.42586 0
M  V30 75 H 8.0633 1.86895 -4.72263 0
M  V30 76 H 7.9933 3.47561 -3.95612 0
M  V30 77 H 10.4843 2.17672 -3.08913 0
M  V30 78 H 10.7973 3.92562 -6.65669 0
M  V30 79 H 9.1423 3.5364 -5.98301 0
M  V30 80 H 12.3333 2.62696 -3.87438 0
M  V30 81 H 12.5063 3.42467 -5.50109 0
M  V30 82 N 5.9124 1.20967 1.01018 0
M  V30 83 C 7.1404 1.04956 1.78303 0
M  V30 84 C 7.5554 -0.400915 1.84494 0
M  V30 85 O 6.9124 -1.27826 1.30257 0
M  V30 86 C 6.9634 1.63403 3.22462 0
M  V30 87 O 6.6844 3.02775 3.16637 0
M  V30 88 C 8.1854 1.52432 4.16268 0
M  V30 89 H 5.4054 0.368858 0.560522 0
M  V30 90 H 7.9494 1.60193 1.27116 0
M  V30 91 H 6.1044 1.1227 3.70775 0
M  V30 92 H 6.5184 3.30626 4.07169 0
M  V30 93 H 7.9924 1.98078 5.15237 0
M  V30 94 H 8.4694 0.477875 4.36592 0
M  V30 95 H 9.0754 2.02787 3.73841 0
M  V30 96 N 7.3905 -1.2043 1.01659 0
M  V30 97 C 8.6385 -1.89423 0.704522 0
M  V30 98 C 8.9595 -1.79231 -0.768197 0
M  V30 99 O 8.2295 -1.1947 -1.55254 0
M  V30 100 H 6.8095 -0.701178 0.257602 0
M  V30 101 H 9.4715 -1.4626 1.28818 0
M  V30 102 H 8.5675 -2.96052 0.987916 0
M  V30 103 N 8.8686 -0.792821 -1.36206 0
M  V30 104 C 9.8156 -0.191653 -2.30003 0
M  V30 105 C 10.7856 0.666453 -1.52143 0
M  V30 106 O 11.9706 0.61442 -1.80636 0
M  V30 107 C 9.1106 0.664848 -3.38635 0
M  V30 108 C 8.2236 -0.212175 -4.31479 0
M  V30 109 C 7.3586 0.651022 -5.27196 0
M  V30 110 C 6.3976 -0.227247 -6.11678 0
M  V30 111 N 5.5346 0.595127 -6.99573 0
M  V30 112 H 10.3746 -0.996978 -2.80828 0
M  V30 113 H 7.9116 -0.503206 -1.38225 0
M  V30 114 H 9.8696 1.17645 -4.00269 0
M  V30 115 H 8.4996 1.43557 -2.89122 0
M  V30 116 H 7.5516 -0.841777 -3.70969 0
M  V30 117 H 8.8636 -0.888751 -4.90818 0
M  V30 118 H 8.0176 1.2283 -5.94136 0
M  V30 119 H 6.7566 1.36121 -4.68319 0
M  V30 120 H 5.7616 -0.816904 -5.43697 0
M  V30 121 H 6.9866 -0.93509 -6.72631 0
M  V30 122 H 4.9326 1.28955 -6.432 0
M  V30 123 H 4.8496 -0.0236952 -7.55996 0
M  V30 124 H 6.1176 1.15613 -7.70879 0
M  V30 125 N 10.3467 1.47872 -0.545128 0
M  V30 126 C 11.2937 2.29849 0.2093 0
M  V30 127 C 12.2637 1.38313 0.919707 0
M  V30 128 O 13.4487 1.67277 0.917772 0
M  V30 129 C 10.5887 3.22019 1.24088 0
M  V30 130 C 9.7017 4.2864 0.537778 0
M  V30 131 C 8.8367 5.07973 1.5536 0
M  V30 132 C 7.8757 6.06381 0.8348 0
M  V30 133 N 7.0127 6.78717 1.79688 0
M  V30 134 H 11.8527 2.93845 -0.49591 0
M  V30 135 H 9.3897 1.44848 -0.256389 0
M  V30 136 H 11.3477 3.73868 1.85144 0
M  V30 137 H 9.9777 2.59914 1.91428 0
M  V30 138 H 9.0297 3.7994 -0.187046 0
M  V30 139 H 10.3417 4.98793 -0.0258907 0
M  V30 140 H 9.4957 5.63912 2.23803 0
M  V30 141 H 8.2347 4.37693 2.15118 0
M  V30 142 H 7.2397 5.49631 0.136388 0
M  V30 143 H 8.4647 6.78665 0.24313 0
M  V30 144 H 6.4107 6.11177 2.38326 0
M  V30 145 H 6.3277 7.44998 1.28505 0
M  V30 146 H 7.5957 7.39237 2.47282 0
M  V30 147 N 11.8248 0.280983 1.55075 0
M  V30 148 C 13.0728 -0.333455 1.9933 0
M  V30 149 C 13.3938 -1.55937 1.17085 0
M  V30 150 O 12.6638 -1.94143 0.261805 0
M  V30 151 H 11.2438 -0.126197 0.736263 0
M  V30 152 H 13.9058 0.387678 1.91005 0
M  V30 153 H 13.0018 -0.619292 3.05894 0
M  V30 154 N 13.3029 -1.57598 0.00835791 0
M  V30 155 C 14.5499 -1.90928 -0.674732 0
M  V30 156 C 14.8779 -0.88277 -1.73313 0
M  V30 157 O 14.1329 0.111294 -1.95383 0
M  V30 158 C 14.4319 -3.3101 -1.34787 0
M  V30 159 C 14.0979 -4.48922 -0.421861 0
M  V30 160 C 12.7599 -4.8091 -0.166927 0
M  V30 161 C 15.1119 -5.20755 0.215211 0
M  V30 162 C 12.4399 -5.821 0.733232 0
M  V30 163 C 14.7919 -6.22905 1.1033 0
M  V30 164 C 13.4559 -6.53346 1.36733 0
M  V30 165 H 12.7259 -0.698656 -0.246902 0
M  V30 166 H 15.3729 -1.91387 0.0656779 0
M  V30 167 H 13.6779 -3.26714 -2.16253 0
M  V30 168 H 15.3749 -3.54061 -1.8826 0
M  V30 169 H 11.9649 -4.23934 -0.630729 0
M  V30 170 H 16.1489 -4.9629 0.0312829 0
M  V30 171 H 11.4049 -6.04042 0.945712 0
M  V30 172 H 15.5789 -6.77694 1.60325 0
M  V30 173 H 13.2059 -7.31573 2.06652 0
M  V30 174 N 14.781 0.264519 -1.55364 0
M  V30 175 C 15.711 1.33121 -1.91836 0
M  V30 176 C 16.692 1.51101 -0.781192 0
M  V30 177 O 17.877 1.64003 -1.04003 0
M  V30 178 C 15.007 2.68921 -2.19769 0
M  V30 179 C 13.961 2.65661 -3.35571 0
M  V30 180 C 13.287 4.05093 -3.49004 0
M  V30 181 C 14.587 2.24187 -4.71739 0
M  V30 182 H 16.281 1.02844 -2.81182 0
M  V30 183 H 13.827 0.493286 -1.35287 0
M  V30 184 H 15.78 3.43663 -2.43872 0
M  V30 185 H 14.504 3.00799 -1.27231 0
M  V30 186 H 13.163 1.93377 -3.1145 0
M  V30 187 H 12.811 4.34206 -2.53917 0
M  V30 188 H 12.511 4.03804 -4.26868 0
M  V30 189 H 14.035 4.81561 -3.75408 0
M  V30 190 H 15.449 2.88654 -4.9533 0
M  V30 191 H 13.846 2.34044 -5.52579 0
M  V30 192 H 14.916 1.19327 -4.69988 0
M  V30 193 N 16.2591 1.48442 0.529413 0
M  V30 194 C 17.4841 1.60406 1.31471 0
M  V30 195 C 17.9091 0.264738 1.86228 0
M  V30 196 O 17.2671 -0.763668 1.64432 0
M  V30 197 C 17.3151 2.65419 2.44101 0
M  V30 198 O 16.4191 2.22618 3.47153 0
M  V30 199 H 15.7601 0.537863 0.389357 0
M  V30 200 H 18.2901 1.94432 0.636965 0
M  V30 201 H 18.3001 2.86709 2.90279 0
M  V30 202 H 16.9751 3.62652 2.03608 0
M  V30 203 H 15.5521 2.11543 3.0709 0
M  V30 204 N 17.7372 -0.778329 1.37039 0
M  V30 205 C 18.9862 -1.53189 1.3121 0
M  V30 206 C 19.2992 -1.95328 -0.103095 0
M  V30 207 O 20.5052 -2.70012 -0.283826 0
M  V30 208 C 18.9612 -2.76591 2.30272 0
M  V30 209 C 18.5692 -2.41577 3.77286 0
M  V30 210 C 20.3132 -3.5455 2.33441 0
M  V30 211 C 18.2202 -3.61441 4.68096 0
M  V30 212 H 17.1502 -0.5751 0.487622 0
M  V30 213 H 19.8012 -0.853101 1.62464 0
M  V30 214 H 18.1832 -3.46326 1.92027 0
M  V30 215 H 19.3572 -1.79668 4.2433 0
M  V30 216 H 17.6722 -1.76806 3.76999 0
M  V30 217 H 20.2692 -4.43628 2.98493 0
M  V30 218 H 20.6122 -3.93936 1.34611 0
M  V30 219 H 21.1452 -2.91805 2.7036 0
M  V30 220 H 17.8842 -3.27142 5.6803 0
M  V30 221 H 17.4042 -4.22478 4.25761 0
M  V30 222 H 19.0832 -4.28335 4.8491 0
M  V30 223 N 19.2153 -1.21501 -1.00376 0
M  V30 224 C 20.1453 -0.999478 -2.11028 0
M  V30 225 C 21.1263 0.0759671 -1.6993 0
M  V30 226 O 22.3113 -0.0841106 -1.94018 0
M  V30 227 C 19.4413 -0.564709 -3.42678 0
M  V30 228 C 18.3953 -1.58486 -3.97576 0
M  V30 229 C 17.7213 -1.00628 -5.25146 0
M  V30 230 C 19.0213 -2.97204 -4.29496 0
M  V30 231 H 20.7153 -1.92495 -2.29317 0
M  V30 232 H 18.2613 -0.92693 -1.102 0
M  V30 233 H 20.2143 -0.401091 -4.19487 0
M  V30 234 H 18.9383 0.396411 -3.24185 0
M  V30 235 H 17.5973 -1.73606 -3.22888 0
M  V30 236 H 17.2453 -0.0368439 -5.02987 0
M  V30 237 H 16.9453 -1.68771 -5.62841 0
M  V30 238 H 18.4693 -0.854015 -6.04598 0
M  V30 239 H 19.8833 -2.8552 -4.97143 0
M  V30 240 H 18.2803 -3.62372 -4.78338 0
M  V30 241 H 19.3503 -3.47956 -3.3772 0
M  V30 242 N 20.6934 1.19889 -1.02296 0
M  V30 243 C 21.6234 2.25141 -0.619174 0
M  V30 244 C 22.6044 1.66051 0.368915 0
M  V30 245 O 23.7894 1.92546 0.252941 0
M  V30 246 C 20.9194 3.4728 0.0368783 0
M  V30 247 C 19.8734 4.19005 -0.872865 0
M  V30 248 C 19.1994 5.34637 -0.0822402 0
M  V30 249 C 20.4994 4.74452 -2.18387 0
M  V30 250 H 22.1934 2.59171 -1.49903 0
M  V30 251 H 19.7394 1.24579 -0.722222 0
M  V30 252 H 21.6924 4.20098 0.330958 0
M  V30 253 H 20.4164 3.12433 0.95149 0
M  V30 254 H 19.0754 3.48061 -1.15105 0
M  V30 255 H 18.7234 4.96034 0.83422 0
M  V30 256 H 18.4234 5.83557 -0.688149 0
M  V30 257 H 19.9474 6.10255 0.205238 0
M  V30 258 H 21.3614 5.39055 -1.95172 0
M  V30 259 H 19.7584 5.33834 -2.74119 0
M  V30 260 H 20.8284 3.92844 -2.84257 0
M  V30 261 N 22.1715 0.800033 1.35784 0
M  V30 262 C 23.1345 0.211565 2.28221 0
M  V30 263 C 24.1345 -0.59728 1.49296 0
M  V30 264 O 25.3245 -0.416721 1.69142 0
M  V30 265 C 22.4565 -0.705846 3.33513 0
M  V30 266 H 23.6495 1.02677 2.81776 0
M  V30 267 H 21.2025 0.570211 1.45528 0
M  V30 268 H 21.9375 -1.54498 2.85133 0
M  V30 269 H 21.7225 -0.127655 3.91892 0
M  V30 270 H 23.2125 -1.11211 4.02519 0
M  V30 271 N 23.6496 -1.47581 0.552962 0
M  V30 272 C 24.8966 -2.02482 0.0273243 0
M  V30 273 C 25.2246 -1.42776 -1.32081 0
M  V30 274 O 24.4796 -0.571393 -1.87173 0
M  V30 275 C 24.7786 -3.57199 -0.119728 0
M  V30 276 C 24.4446 -4.35804 1.15697 0
M  V30 277 C 23.1066 -4.57 1.50681 0
M  V30 278 C 25.4586 -4.81167 2.00319 0
M  V30 279 C 22.7866 -5.20807 2.70142 0
M  V30 280 C 25.1386 -5.46293 3.18978 0
M  V30 281 C 23.8026 -5.65722 3.54281 0
M  V30 282 H 23.0726 -0.740933 0.00999866 0
M  V30 283 H 25.7196 -1.77302 0.72362 0
M  V30 284 H 24.0246 -3.81348 -0.89896 0
M  V30 285 H 25.7216 -3.97324 -0.541718 0
M  V30 286 H 22.3116 -4.19582 0.874561 0
M  V30 287 H 26.4956 -4.64574 1.74599 0
M  V30 288 H 21.7516 -5.34045 2.97668 0
M  V30 289 H 25.9256 -5.80407 3.84838 0
M  V30 290 H 23.5526 -6.14936 4.46942 0
M  V30 291 N 25.1277 -0.289203 -1.54924 0
M  V30 292 C 26.0577 0.58549 -2.2604 0
M  V30 293 C 27.0387 1.14753 -1.25562 0
M  V30 294 O 28.2237 1.17906 -1.54311 0
M  V30 295 C 25.3537 1.76305 -2.99222 0
M  V30 296 C 24.3077 1.33191 -4.06748 0
M  V30 297 C 23.6337 2.5937 -4.6758 0
M  V30 298 C 24.9337 0.471775 -5.20165 0
M  V30 299 H 26.6277 -0.00763532 -2.99399 0
M  V30 300 H 24.1737 -0.00511229 -1.43999 0
M  V30 301 H 26.1267 2.38097 -3.47689 0
M  V30 302 H 24.8507 2.38223 -2.23422 0
M  V30 303 H 23.5097 0.737121 -3.59113 0
M  V30 304 H 23.1577 3.19576 -3.88433 0
M  V30 305 H 22.8577 2.31228 -5.40192 0
M  V30 306 H 24.3817 3.21985 -5.18804 0
M  V30 307 H 25.7957 0.995056 -5.64599 0
M  V30 308 H 24.1927 0.284639 -5.99425 0
M  V30 309 H 25.2627 -0.506041 -4.82252 0
M  V30 310 N 26.6058 1.57591 -0.0167156 0
M  V30 311 C 27.5358 2.12496 0.967858 0
M  V30 312 C 28.5168 1.03807 1.34752 0
M  V30 313 O 29.7018 1.31577 1.42833 0
M  V30 314 C 26.8318 2.64194 2.25431 0
M  V30 315 C 25.7858 3.77559 2.01576 0
M  V30 316 C 25.1118 4.15636 3.36379 0
M  V30 317 C 26.4118 5.04151 1.36489 0
M  V30 318 H 28.1058 2.95013 0.510643 0
M  V30 319 H 25.6518 1.41915 0.244181 0
M  V30 320 H 27.6048 3.01236 2.94678 0
M  V30 321 H 26.3288 1.78821 2.73296 0
M  V30 322 H 24.9878 3.40937 1.34751 0
M  V30 323 H 24.6358 3.27263 3.81979 0
M  V30 324 H 24.3358 4.92022 3.21229 0
M  V30 325 H 25.8598 4.5525 4.06915 0
M  V30 326 H 27.2738 5.38857 1.95718 0
M  V30 327 H 25.6708 5.85453 1.31776 0
M  V30 328 H 26.7408 4.83733 0.336219 0
M  V30 329 N 28.0839 -0.256276 1.55502 0
M  V30 330 C 29.3299 -0.987079 1.77157 0
M  V30 331 C 29.6629 -1.85327 0.580315 0
M  V30 332 O 28.9379 -1.89874 -0.421686 0
M  V30 333 C 29.2209 -1.85553 3.08613 0
M  V30 334 C 29.0739 -1.01816 4.38125 0
M  V30 335 C 30.3929 -2.8397 3.36228 0
M  V30 336 H 27.5119 -0.357428 0.644526 0
M  V30 337 H 30.1539 -0.258239 1.88237 0
M  V30 338 H 28.3039 -2.47695 2.99298 0
M  V30 339 H 29.9759 -0.416159 4.59419 0
M  V30 340 H 28.2189 -0.322178 4.32602 0
M  V30 341 H 28.8899 -1.65939 5.26468 0
M  V30 342 H 31.3659 -2.31964 3.45445 0
M  V30 343 H 30.2419 -3.41864 4.29442 0
M  V30 344 H 30.5029 -3.59955 2.56681 0
M  V30 345 N 29.562 -1.4872 -0.521534 0
M  V30 346 C 30.811 -1.56419 -1.27341 0
M  V30 347 C 31.124 -0.246805 -1.94037 0
M  V30 348 O 32.33 -0.202122 -2.70747 0
M  V30 349 C 30.786 -2.75896 -2.31105 0
M  V30 350 C 30.394 -4.14311 -1.70441 0
M  V30 351 C 32.138 -2.92913 -3.07249 0
M  V30 352 C 30.045 -5.25038 -2.72194 0
M  V30 353 H 28.975 -0.582344 -0.478949 0
M  V30 354 H 31.626 -1.75071 -0.549779 0
M  V30 355 H 30.008 -2.50697 -3.06541 0
M  V30 356 H 31.182 -4.49564 -1.01136 0
M  V30 357 H 29.497 -4.02482 -1.06759 0
M  V30 358 H 32.094 -3.72805 -3.83302 0
M  V30 359 H 32.437 -2.02689 -3.63625 0
M  V30 360 H 32.97 -3.18054 -2.38928 0
M  V30 361 H 29.709 -6.17255 -2.20627 0
M  V30 362 H 29.229 -4.94263 -3.39801 0
M  V30 363 H 30.908 -5.53508 -3.35019 0
M  V30 364 N 31.0401 0.771051 -1.3745 0
M  V30 365 C 32.2681 1.56015 -1.35893 0
M  V30 366 C 32.6831 1.88718 0.0555523 0
M  V30 367 O 32.0401 1.51502 1.01752 0
M  V30 368 C 32.0911 2.87001 -2.19801 0
M  V30 369 O 31.8121 2.557 -3.55738 0
M  V30 370 C 33.3131 3.81228 -2.26231 0
M  V30 371 H 30.5331 0.483317 -0.465453 0
M  V30 372 H 33.0771 0.955611 -1.80799 0
M  V30 373 H 31.2321 3.43877 -1.78402 0
M  V30 374 H 31.6461 3.39584 -3.99729 0
M  V30 375 H 33.1201 4.70139 -2.89263 0
M  V30 376 H 33.5971 4.20409 -1.27093 0
M  V30 377 H 34.2031 3.30281 -2.67945 0
M  V30 378 N 32.5182 1.22032 0.997298 0
M  V30 379 C 33.7432 1.06921 1.77715 0
M  V30 380 C 34.1682 -0.376226 1.84299 0
M  V30 381 O 33.5262 -1.27165 1.29223 0
M  V30 382 C 33.5742 1.67996 3.19076 0
M  V30 383 O 32.6782 0.930653 4.01762 0
M  V30 384 H 32.0192 0.375814 0.547412 0
M  V30 385 H 34.5492 1.61737 1.25309 0
M  V30 386 H 34.5592 1.72538 3.69723 0
M  V30 387 H 33.2342 2.73182 3.13599 0
M  V30 388 H 31.8112 0.960917 3.60307 0
M  V30 389 N 33.9963 -1.19345 1.0293 0
M  V30 390 C 35.2453 -1.88363 0.721256 0
M  V30 391 C 35.5583 -1.80514 -0.753254 0
M  V30 392 O 36.7643 -2.44788 -1.17436 0
M  V30 393 C 35.2203 -3.37872 1.23978 0
M  V30 394 C 34.8283 -3.54278 2.74211 0
M  V30 395 C 36.5723 -4.12365 1.00775 0
M  V30 396 C 34.4793 -4.97682 3.19479 0
M  V30 397 H 33.4093 -0.705484 0.266098 0
M  V30 398 H 36.0603 -1.34928 1.24365 0
M  V30 399 H 34.4423 -3.90707 0.6453 0
M  V30 400 H 35.6163 -3.11769 3.39318 0
M  V30 401 H 33.9313 -2.93174 2.95699 0
M  V30 402 H 36.5283 -5.18119 1.32123 0
M  V30 403 H 36.8713 -4.16263 -0.0554308 0
M  V30 404 H 37.4043 -3.65668 1.56625 0
M  V30 405 H 34.1433 -4.98945 4.25128 0
M  V30 406 H 33.6633 -5.4095 2.591 0
M  V30 407 H 35.3423 -5.66337 3.12845 0
M  V30 408 N 35.4744 -0.807222 -1.35358 0
M  V30 409 C 36.8854 -0.44876 -1.81226 0
M  V30 410 C 37.2364 1.02929 -1.67033 0
M  V30 411 O 36.3614 1.79991 -1.20133 0
M  V30 412 C 36.9564 -0.807774 -3.2903 0
M  V30 413 C 35.5154 -0.501901 -3.73039 0
M  V30 414 C 34.6624 -1.03304 -2.57339 0
M  V30 415 H 37.6134 -0.998808 -1.23327 0
M  V30 416 H 37.6344 -0.10554 -3.80354 0
M  V30 417 H 37.1464 -1.88357 -3.39328 0
M  V30 418 H 35.2474 0.565128 -3.68289 0
M  V30 419 H 35.3604 -1.03497 -4.67787 0
M  V30 420 H 33.7244 -0.455339 -2.50597 0
M  V30 421 H 34.5074 -2.11496 -2.70415 0
M  V30 422 N 36.9525 1.47285 -0.560781 0
M  V30 423 C 38.1995 2.02464 -0.038062 0
M  V30 424 C 38.5275 1.43474 1.31322 0
M  V30 425 O 37.7825 0.581311 1.86867 0
M  V30 426 C 38.0815 3.57258 0.100784 0
M  V30 427 C 37.7475 4.35184 -1.18007 0
M  V30 428 C 36.4095 4.56194 -1.53103 0
M  V30 429 C 38.7615 4.80098 -2.02867 0
M  V30 430 C 36.0895 5.19367 -2.729 0
M  V30 431 C 38.4415 5.44593 -3.21871 0
M  V30 432 C 37.1055 5.63835 -3.57276 0
M  V30 433 H 36.3755 0.740869 -0.0139279 0
M  V30 434 H 39.0225 1.76916 -0.733012 0
M  V30 435 H 37.3275 3.81819 0.878724 0
M  V30 436 H 39.0245 3.97606 0.520639 0
M  V30 437 H 35.6145 4.19113 -0.8968 0
M  V30 438 H 39.7985 4.63642 -1.7706 0
M  V30 439 H 35.0545 5.32459 -3.00496 0
M  V30 440 H 39.2285 5.78358 -3.87911 0
M  V30 441 H 36.8555 6.12557 -4.50197 0
M  V30 442 N 38.4306 0.297415 1.54768 0
M  V30 443 C 39.6586 -0.315623 2.04478 0
M  V30 444 C 40.0736 -1.47792 1.17486 0
M  V30 445 O 39.4306 -1.81404 0.19971 0
M  V30 446 C 39.4816 -0.7753 3.53088 0
M  V30 447 O 39.2026 0.340732 4.36773 0
M  V30 448 C 40.7036 -1.45386 4.18781 0
M  V30 449 H 37.9236 -0.0690887 0.667434 0
M  V30 450 H 40.4676 0.436003 1.99798 0
M  V30 451 H 38.6226 -1.47696 3.58141 0
M  V30 452 H 39.0366 -0.0165035 5.24497 0
M  V30 453 H 40.5106 -1.72669 5.24299 0
M  V30 454 H 40.9876 -2.39275 3.68299 0
M  V30 455 H 41.5936 -0.795475 4.17795 0
M  V30 456 N 39.9087 -1.5758 0.0250728 0
M  V30 457 C 40.8387 -2.13007 -0.956575 0
M  V30 458 C 41.8197 -1.0452 -1.342 0
M  V30 459 O 43.0047 -1.32332 -1.42133 0
M  V30 460 C 40.1347 -2.65386 -2.24026 0
M  V30 461 C 39.0887 -3.78623 -1.99571 0
M  V30 462 C 38.4147 -4.17414 -3.3417 0
M  V30 463 C 39.7147 -5.04867 -1.33814 0
M  V30 464 H 41.4087 -2.9528 -0.494991 0
M  V30 465 H 38.9547 -1.42042 -0.236651 0
M  V30 466 H 40.9077 -3.02794 -2.93076 0
M  V30 467 H 39.6317 -1.80268 -2.72343 0
M  V30 468 H 38.2907 -3.41646 -1.32941 0
M  V30 469 H 37.9387 -3.29284 -3.80238 0
M  V30 470 H 37.6387 -4.93719 -3.18615 0
M  V30 471 H 39.1627 -4.57402 -4.04495 0
M  V30 472 H 40.5767 -5.39888 -1.92857 0
M  V30 473 H 38.9737 -5.86144 -1.28669 0
M  V30 474 H 40.0437 -4.83904 -0.310561 0
M  V30 475 N 41.3868 0.248026 -1.55636 0
M  V30 476 C 42.6328 0.97767 -1.77678 0
M  V30 477 C 42.9658 1.85016 -0.590135 0
M  V30 478 O 42.2408 1.90095 0.411611 0
M  V30 479 C 42.5238 1.83914 -3.09593 0
M  V30 480 C 42.3768 0.99491 -4.38659 0
M  V30 481 C 43.6958 2.82183 -3.37729 0
M  V30 482 H 40.8148 0.354005 -0.646413 0
M  V30 483 H 43.4568 0.248253 -1.88371 0
M  V30 484 H 41.6068 2.46104 -3.00608 0
M  V30 485 H 43.2788 0.391789 -4.59633 0
M  V30 486 H 41.5218 0.299231 -4.32767 0
M  V30 487 H 42.1928 1.63145 -5.2734 0
M  V30 488 H 44.6688 2.30129 -3.4667 0
M  V30 489 H 43.5448 3.39582 -4.31249 0
M  V30 490 H 43.8058 3.58588 -2.58586 0
M  V30 491 N 42.8649 1.48995 0.513639 0
M  V30 492 C 44.1419 1.48338 1.27495 0
M  V30 493 C 44.5219 0.204065 2.10111 0
M  V30 494 O 43.8699 -0.813881 2.13514 0
M  V30 495 C 44.0799 2.75498 2.14247 0
M  V30 496 C 45.4279 3.24484 2.73852 0
M  V30 497 O 46.4519 2.76528 2.24523 0
M  V30 498 O 45.3109 4.07974 3.6362 0
M  V30 499 H 42.4049 0.593149 0.576284 0
M  V30 500 H 44.9509 1.61246 0.528948 0
M  V30 501 H 43.7229 3.60109 1.53092 0
M  V30 502 H 43.3459 2.6539 2.96064 0
M  V30 503 N 44.343 -0.763751 1.37857 0
M  V30 504 C 45.589 -1.52483 1.33704 0
M  V30 505 C 45.922 -1.94051 -0.0759612 0
M  V30 506 O 45.197 -1.64675 -1.03501 0
M  V30 507 C 45.48 -2.78441 2.28348 0
M  V30 508 C 45.333 -2.43075 3.78463 0
M  V30 509 C 46.652 -3.80415 2.21298 0
M  V30 510 H 43.771 -0.553169 0.487005 0
M  V30 511 H 46.413 -0.875562 1.68624 0
M  V30 512 H 44.563 -3.33842 1.987 0
M  V30 513 H 46.235 -1.93527 4.18742 0
M  V30 514 H 44.478 -1.75666 3.96641 0
M  V30 515 H 45.149 -3.33149 4.40132 0
M  V30 516 H 47.625 -3.34527 2.47449 0
M  V30 517 H 46.501 -4.66257 2.89647 0
M  V30 518 H 46.762 -4.25262 1.20849 0
M  V30 519 N 45.8211 -1.22559 -0.990812 0
M  V30 520 C 46.7311 -1.01394 -2.11557 0
M  V30 521 C 47.7471 0.0383962 -1.73958 0
M  V30 522 O 48.9231 -0.154787 -2.00804 0
M  V30 523 C 45.9881 -0.596569 -3.41529 0
M  V30 524 C 45.0491 -1.72276 -3.93217 0
M  V30 525 C 44.2821 -1.32521 -5.16985 0
M  V30 526 O 44.5051 -0.204909 -5.70032 0
M  V30 527 O 43.4391 -2.14247 -5.62478 0
M  V30 528 H 47.2651 -1.95633 -2.32296 0
M  V30 529 H 44.8501 -1.01172 -1.0993 0
M  V30 530 H 46.7321 -0.374263 -4.19735 0
M  V30 531 H 45.4071 0.316939 -3.22145 0
M  V30 532 H 44.3141 -1.99961 -3.16174 0
M  V30 533 H 45.6471 -2.61421 -4.17037 0
M  V30 534 N 47.2992 1.18797 -1.03562 0
M  V30 535 C 48.2622 2.20464 -0.626769 0
M  V30 536 C 49.2622 1.57721 0.313173 0
M  V30 537 O 50.4522 1.73917 0.0992615 0
M  V30 538 C 47.5842 3.40802 0.0818498 0
M  V30 539 H 48.7772 2.58149 -1.5264 0
M  V30 540 H 46.3302 1.32593 -0.827578 0
M  V30 541 H 47.0652 3.08642 0.995518 0
M  V30 542 H 46.8502 3.8758 -0.593652 0
M  V30 543 H 48.3402 4.16092 0.354584 0
M  V30 544 N 48.7773 0.814389 1.34928 0
M  V30 545 C 49.7273 0.202752 2.27097 0
M  V30 546 C 50.7113 -0.62799 1.48139 0
M  V30 547 O 51.9033 -0.483969 1.70255 0
M  V30 548 C 49.0323 -0.64146 3.37254 0
M  V30 549 C 48.1183 0.19944 4.23631 0
M  V30 550 N 48.5093 1.26628 4.89693 0
M  V30 551 C 46.8073 -0.0176433 4.45997 0
M  V30 552 C 47.5083 1.78031 5.53787 0
M  V30 553 N 46.4843 1.08553 5.32651 0
M  V30 554 H 50.2863 1.01893 2.75672 0
M  V30 555 H 47.8003 0.656332 1.48546 0
M  V30 556 H 49.7973 -1.09575 4.02243 0
M  V30 557 H 48.4573 -1.4559 2.9023 0
M  V30 558 H 49.4683 1.64901 4.90946 0
M  V30 559 H 46.1453 -0.800601 4.09752 0
M  V30 560 H 47.5353 2.67236 6.16469 0
M  V30 561 N 50.2554 -1.46986 0.568584 0
M  V30 562 C 51.2054 -2.27179 -0.193339 0
M  V30 563 C 52.1894 -1.35035 -0.874895 0
M  V30 564 O 53.3814 -1.5931 -0.771322 0
M  V30 565 C 50.5104 -3.21063 -1.21546 0
M  V30 566 C 49.5964 -4.2069 -0.536738 0
M  V30 567 N 49.9874 -5.04218 0.399673 0
M  V30 568 C 48.2854 -4.38961 -0.789254 0
M  V30 569 C 48.9864 -5.76242 0.795017 0
M  V30 570 N 47.9624 -5.434 0.1473 0
M  V30 571 H 51.7644 -2.89146 0.526458 0
M  V30 572 H 49.2784 -1.57664 0.389342 0
M  V30 573 H 51.2754 -3.77209 -1.77536 0
M  V30 574 H 49.9354 -2.60654 -1.93623 0
M  V30 575 H 50.9464 -5.12077 0.774454 0
M  V30 576 H 47.6234 -3.89713 -1.49767 0
M  V30 577 H 49.0134 -6.53417 1.56513 0
M  V30 578 N 51.7335 -0.305618 -1.54608 0
M  V30 579 C 52.6815 0.584119 -2.25146 0
M  V30 580 C 53.6755 1.13326 -1.25911 0
M  V30 581 O 54.8815 1.08337 -1.43747 0
M  V30 582 H 51.2565 0.206983 -0.722954 0
M  V30 583 H 53.2275 -0.033291 -2.98381 0
M  V30 584 C 51.9765 1.74225 -3.009 0
M  V30 585 H 51.2995 1.32892 -3.77067 0
M  V30 586 H 52.7395 2.34077 -3.53531 0
M  V30 587 C 51.1985 2.64914 -2.0814 0
M  V30 588 O 51.7285 3.66137 -1.65246 0
M  V30 589 N 49.9345 2.3275 -1.74 0
M  V30 590 H 49.4815 1.50479 -2.09078 0
M  V30 591 H 49.4395 2.93694 -1.12211 0
M  V30 592 N 53.2116 1.57565 -0.0334293 0
M  V30 593 C 54.4596 1.91598 0.642999 0
M  V30 594 C 54.7806 0.910847 1.7242 0
M  V30 595 O 54.0506 -0.0469931 1.95844 0
M  V30 596 H 52.6306 0.707228 0.240496 0
M  V30 597 H 55.2926 1.94726 -0.0822488 0
M  V30 598 H 54.3886 2.92336 1.09298 0
M  V30 599 N 54.6897 -0.239769 1.55765 0
M  V30 600 C 55.9177 -0.98417 1.81994 0
M  V30 601 C 56.3327 -1.7867 0.610124 0
M  V30 602 O 55.6897 -1.77571 -0.421271 0
M  V30 603 C 55.7407 -1.91635 3.06526 0
M  V30 604 O 55.4617 -1.14629 4.22838 0
M  V30 605 C 56.9627 -2.77616 3.45607 0
M  V30 606 H 54.1827 -0.28928 0.605441 0
M  V30 607 H 56.7267 -0.260499 2.02834 0
M  V30 608 H 54.8817 -2.5942 2.87715 0
M  V30 609 H 55.2957 -1.77745 4.93464 0
M  V30 610 H 56.7697 -3.38759 4.35828 0
M  V30 611 H 57.2467 -3.4909 2.6652 0
M  V30 612 H 57.8527 -2.15271 3.66795 0
M  V30 613 N 56.1678 -1.49265 -0.50573 0
M  V30 614 C 57.1158 -1.66065 -1.62866 0
M  V30 615 C 58.1098 -0.526636 -1.61006 0
M  V30 616 O 59.3158 -0.706126 -1.65571 0
M  V30 617 H 55.6908 -0.52356 -0.539805 0
M  V30 618 H 57.6618 -2.60329 -1.45848 0
M  V30 619 C 56.4108 -1.74008 -3.01026 0
M  V30 620 H 55.7338 -2.6064 -3.03161 0
M  V30 621 H 57.1738 -1.89798 -3.79147 0
M  V30 622 C 55.6328 -0.483868 -3.33407 0
M  V30 623 O 56.1628 0.392548 -3.99777 0
M  V30 624 N 54.3688 -0.348236 -2.88506 0
M  V30 625 H 53.9158 -1.06242 -2.34671 0
M  V30 626 H 53.8738 0.491204 -3.10539 0
M  V30 627 N 57.6459 0.756429 -1.3826 0
M  V30 628 C 58.8939 1.51248 -1.34047 0
M  V30 629 C 59.2149 1.94875 0.0698372 0
M  V30 630 O 58.4849 1.67436 1.01696 0
M  V30 631 H 57.0649 0.561018 -0.493222 0
M  V30 632 H 59.7269 0.899347 -1.7291 0
M  V30 633 H 58.8229 2.40472 -1.98947 0
M  V30 634 N 59.124 1.23083 0.984299 0
M  V30 635 C 60.352 1.08714 1.76037 0
M  V30 636 C 60.767 -0.361691 1.85303 0
M  V30 637 O 60.124 -1.25034 1.32939 0
M  V30 638 C 60.175 1.70206 3.18923 0
M  V30 639 O 59.896 3.09423 3.10144 0
M  V30 640 C 61.397 1.61227 4.12941 0
M  V30 641 H 58.617 0.380664 0.552572 0
M  V30 642 H 61.161 1.62853 1.23689 0
M  V30 643 H 59.316 1.20109 3.6831 0
M  V30 644 H 59.73 3.39188 4.00065 0
M  V30 645 H 61.204 2.08962 5.10919 0
M  V30 646 H 61.681 0.570375 4.35481 0
M  V30 647 H 62.287 2.10671 3.69456 0
M  V30 648 N 60.6021 -1.18246 1.0419 0
M  V30 649 C 61.5351 -2.20746 0.578474 0
M  V30 650 C 62.5131 -1.57912 -0.387624 0
M  V30 651 O 63.6971 -1.86071 -0.301634 0
M  V30 652 C 60.8241 -3.38346 -0.154762 0
M  V30 653 C 59.8701 -4.19587 0.764782 0
M  V30 654 S 60.7031 -4.86014 2.24835 0
M  V30 655 C 61.8591 -6.07012 1.526 0
M  V30 656 H 62.0921 -2.59715 1.44691 0
M  V30 657 H 59.6251 -1.287 0.85297 0
M  V30 658 H 61.5831 -4.065 -0.571641 0
M  V30 659 H 60.2441 -2.97786 -0.999105 0
M  V30 660 H 59.4371 -5.03611 0.197976 0
M  V30 661 H 59.0391 -3.56818 1.12057 0
M  V30 662 H 61.3311 -6.72523 0.819733 0
M  V30 663 H 62.2741 -6.68202 2.34333 0
M  V30 664 H 62.6821 -5.55249 1.01779 0
M  V30 665 N 62.0802 -0.821533 -1.34494 0
M  V30 666 C 63.0132 -0.187704 -2.27427 0
M  V30 667 C 63.9912 0.65507 -1.48821 0
M  V30 668 O 65.1752 0.619111 -1.78043 0
M  V30 669 C 62.3022 0.737996 -3.30562 0
M  V30 670 C 61.3482 -0.0270713 -4.26491 0
M  V30 671 S 62.1812 -1.37329 -5.17592 0
M  V30 672 C 63.3372 -0.452427 -6.24263 0
M  V30 673 H 63.5702 -0.975598 -2.80837 0
M  V30 674 H 61.1032 -0.61736 -1.4152 0
M  V30 675 H 63.0612 1.26654 -3.90473 0
M  V30 676 H 61.7222 1.4994 -2.76001 0
M  V30 677 H 60.9152 0.6766 -4.99438 0
M  V30 678 H 60.5172 -0.48612 -3.70827 0
M  V30 679 H 62.8092 0.356557 -6.76561 0
M  V30 680 H 63.7522 -1.15153 -6.98674 0
M  V30 681 H 64.1602 -0.0414755 -5.64485 0
M  V30 682 N 63.5583 1.46682 -0.576371 0
M  V30 683 C 64.4903 2.28341 0.198231 0
M  V30 684 C 65.5033 1.38141 0.861453 0
M  V30 685 O 66.6923 1.62797 0.732082 0
M  V30 686 C 63.7923 3.12986 1.29972 0
M  V30 687 C 62.9653 4.31271 0.729639 0
M  V30 688 C 62.0243 4.97363 1.71803 0
M  V30 689 O 61.0503 5.55156 1.25658 0
M  V30 690 N 62.2523 4.93796 3.05198 0
M  V30 691 H 65.0173 2.9546 -0.502324 0
M  V30 692 H 62.5783 1.56525 -0.413715 0
M  V30 693 H 64.5703 3.54066 1.96008 0
M  V30 694 H 63.1403 2.47984 1.90323 0
M  V30 695 H 62.3603 3.94052 -0.108012 0
M  V30 696 H 63.6483 5.07739 0.328438 0
M  V30 697 H 63.0463 4.48077 3.45317 0
M  V30 698 H 61.6033 5.38837 3.6674 0
M  V30 699 N 65.0364 0.313813 1.54444 0
M  V30 700 C 66.2664 -0.293491 2.04505 0
M  V30 701 C 66.6744 -1.47086 1.19005 0
M  V30 702 O 66.0174 -1.82481 0.211257 0
M  V30 703 C 66.0794 -0.800455 3.50475 0
M  V30 704 C 65.7434 0.253322 4.56297 0
M  V30 705 C 66.7404 1.08612 5.08428 0
M  V30 706 C 64.4254 0.398708 5.00715 0
M  V30 707 C 66.4194 2.05013 6.0353 0
M  V30 708 C 64.1064 1.36614 5.95634 0
M  V30 709 C 65.1044 2.19033 6.46926 0
M  V30 710 O 64.7924 3.14134 7.39983 0
M  V30 711 H 64.5244 -0.0658325 0.672787 0
M  V30 712 H 67.0784 0.455177 2.00293 0
M  V30 713 H 65.3084 -1.59987 3.52053 0
M  V30 714 H 66.9974 -1.32504 3.83663 0
M  V30 715 H 67.7634 0.984736 4.74898 0
M  V30 716 H 63.6424 -0.23289 4.60411 0
M  V30 717 H 67.1864 2.69382 6.4349 0
M  V30 718 H 63.0834 1.4682 6.28581 0
M  V30 719 H 63.8514 3.0926 7.57826 0
M  V30 720 N 66.5145 -1.57545 0.0417849 0
M  V30 721 C 67.7615 -1.92317 -0.634082 0
M  V30 722 C 68.0895 -0.919334 -1.71402 0
M  V30 723 O 67.3445 0.0698253 -1.95575 0
M  V30 724 C 67.6435 -3.33794 -1.27735 0
M  V30 725 C 67.3095 -4.49716 -0.326543 0
M  V30 726 C 65.9715 -4.81156 -0.0648814 0
M  V30 727 C 68.3235 -5.20182 0.325623 0
M  V30 728 C 65.6515 -5.80414 0.856539 0
M  V30 729 C 68.0035 -6.20424 1.23518 0
M  V30 730 C 66.6675 -6.50298 1.5056 0
M  V30 731 H 65.9375 -0.703736 -0.232027 0
M  V30 732 H 68.5845 -1.91205 0.106259 0
M  V30 733 H 66.8895 -3.31228 -2.09274 0
M  V30 734 H 68.5865 -3.57975 -1.80707 0
M  V30 735 H 65.1765 -4.25176 -0.540665 0
M  V30 736 H 69.3605 -4.96112 0.136546 0
M  V30 737 H 64.6165 -6.019 1.07363 0
M  V30 738 H 68.7905 -6.74141 1.74664 0
M  V30 739 H 66.4175 -7.27025 2.22123 0
M  V30 740 N 67.9926 0.231505 -1.5589 0
M  V30 741 C 68.9026 1.308 -1.94752 0
M  V30 742 C 69.9186 1.51826 -0.849989 0
M  V30 743 O 71.0946 1.6515 -1.15271 0
M  V30 744 C 68.1596 2.63968 -2.24771 0
M  V30 745 C 67.2206 2.51331 -3.48039 0
M  V30 746 C 66.4536 3.78148 -3.76616 0
M  V30 747 O 66.6766 4.80722 -3.07022 0
M  V30 748 O 65.6106 3.75857 -4.70123 0
M  V30 749 H 69.4366 1.0083 -2.86474 0
M  V30 750 H 67.0216 0.433547 -1.42971 0
M  V30 751 H 68.9036 3.42633 -2.45318 0
M  V30 752 H 67.5786 2.9364 -1.36225 0
M  V30 753 H 66.4856 1.709 -3.32782 0
M  V30 754 H 67.8186 2.26601 -4.36936 0
M  V30 755 N 69.4707 1.49531 0.497807 0
M  V30 756 C 70.7167 1.60388 1.25089 0
M  V30 757 C 71.0717 0.288328 1.90227 0
M  V30 758 O 70.3647 -0.711706 1.77891 0
M  V30 759 C 70.5587 2.70252 2.33878 0
M  V30 760 C 70.3877 4.12363 1.79408 0
M  V30 761 C 69.1577 4.7911 1.60566 0
M  V30 762 C 71.3557 4.97491 1.30412 0
M  V30 763 N 69.3377 6.05525 1.01059 0
M  V30 764 C 70.7087 6.14411 0.830595 0
M  V30 765 C 72.7637 4.83466 1.19015 0
M  V30 766 C 71.4667 7.1885 0.254371 0
M  V30 767 C 73.4927 5.88057 0.627892 0
M  V30 768 C 72.8547 7.04208 0.16461 0
M  V30 769 H 68.9537 0.641246 0.447579 0
M  V30 770 H 71.5377 1.86549 0.557441 0
M  V30 771 H 69.7087 2.45858 3.0068 0
M  V30 772 H 71.4407 2.70613 3.00917 0
M  V30 773 H 68.1957 4.35961 1.85026 0
M  V30 774 H 68.6197 6.73028 0.732236 0
M  V30 775 H 73.2617 3.93978 1.53431 0
M  V30 776 H 70.9797 8.08036 -0.102052 0
M  V30 777 H 74.5657 5.79266 0.542444 0
M  V30 778 H 73.4457 7.83757 -0.263669 0
M  V30 779 N 70.9488 -0.749086 1.3866 0
M  V30 780 C 72.1788 -1.53611 1.38157 0
M  V30 781 C 72.5868 -1.89177 -0.0293595 0
M  V30 782 O 71.9298 -1.53606 -1.00752 0
M  V30 783 C 71.9918 -2.86087 2.17702 0
M  V30 784 C 71.6558 -2.73034 3.66472 0
M  V30 785 C 72.6528 -2.42526 4.59866 0
M  V30 786 C 70.3378 -2.90345 4.09884 0
M  V30 787 C 72.3318 -2.29492 5.94653 0
M  V30 788 C 70.0188 -2.7693 5.4475 0
M  V30 789 C 71.0168 -2.46547 6.36949 0
M  V30 790 O 70.7048 -2.33199 7.69333 0
M  V30 791 H 70.4368 -0.481773 0.474205 0
M  V30 792 H 72.9908 -0.934465 1.82912 0
M  V30 793 H 71.2208 -3.48458 1.67672 0
M  V30 794 H 72.9098 -3.47625 2.09551 0
M  V30 795 H 73.6758 -2.28816 4.27631 0
M  V30 796 H 69.5548 -3.1299 3.38464 0
M  V30 797 H 73.0988 -2.05698 6.66584 0
M  V30 798 H 68.9958 -2.90215 5.76581 0
M  V30 799 H 69.7638 -2.48376 7.79905 0
M  V30 800 N 72.4269 -1.23603 -0.977757 0
M  V30 801 C 73.3569 -1.04401 -2.0886 0
M  V30 802 C 74.3379 0.0399052 -1.70053 0
M  V30 803 O 75.5229 -0.125246 -1.93796 0
M  V30 804 C 72.6529 -0.637269 -3.41403 0
M  V30 805 C 71.6069 -1.66883 -3.94124 0
M  V30 806 C 70.9329 -1.11745 -5.22893 0
M  V30 807 C 72.2329 -3.06247 -4.23096 0
M  V30 808 H 73.9269 -1.97316 -2.25182 0
M  V30 809 H 71.4729 -0.950096 -1.08209 0
M  V30 810 H 73.4259 -0.48998 -4.18542 0
M  V30 811 H 72.1499 0.327557 -3.24953 0
M  V30 812 H 70.8089 -1.80416 -3.19133 0
M  V30 813 H 70.4569 -0.143527 -5.02795 0
M  V30 814 H 70.1569 -1.80672 -5.59134 0
M  V30 815 H 71.6809 -0.982067 -6.02651 0
M  V30 816 H 73.0949 -2.96001 -4.90975 0
M  V30 817 H 71.4919 -3.72436 -4.70544 0
M  V30 818 H 72.5619 -3.55041 -3.30263 0
M  V30 819 N 73.905 1.17692 -1.04816 0
M  V30 820 C 75.316 1.69501 -0.782698 0
M  V30 821 C 75.667 1.83456 0.695577 0
M  V30 822 O 74.792 1.51942 1.54086 0
M  V30 823 C 75.387 3.07874 -1.41419 0
M  V30 824 C 73.946 3.56864 -1.19686 0
M  V30 825 C 73.093 2.3322 -1.50012 0
M  V30 826 H 76.044 1.02262 -1.2136 0
M  V30 827 H 76.065 3.71528 -0.821428 0
M  V30 828 H 75.577 2.97685 -2.49009 0
M  V30 829 H 73.678 3.72337 -0.140043 0
M  V30 830 H 73.791 4.39851 -1.89916 0
M  V30 831 H 72.155 2.37501 -0.920071 0
M  V30 832 H 72.938 2.25644 -2.58727 0
M  V30 833 N 75.3831 0.828654 1.34056 0
M  V30 834 C 76.3311 0.242973 2.31327 0
M  V30 835 C 77.3251 -0.61944 1.57668 0
M  V30 836 O 78.5311 -0.51014 1.7262 0
M  V30 837 H 74.9061 0.059834 0.749616 0
M  V30 838 H 76.8771 1.07809 2.78244 0
M  V30 839 C 75.6261 -0.575733 3.429 0
M  V30 840 H 74.9491 0.0785582 3.99723 0
M  V30 841 H 76.3891 -0.951547 4.13185 0
M  V30 842 C 74.8481 -1.75044 2.87856 0
M  V30 843 O 75.3781 -2.84882 2.83205 0
M  V30 844 N 73.5841 -1.56903 2.44602 0
M  V30 845 H 73.1311 -0.675547 2.48584 0
M  V30 846 H 73.0891 -2.35652 2.08124 0
M  V30 847 N 76.8612 -1.46375 0.584142 0
M  V30 848 C 78.1382 -1.956 0.0033388 0
M  V30 849 C 78.5182 -1.52679 -1.45782 0
M  V30 850 O 77.8662 -0.77816 -2.14842 0
M  V30 851 C 78.0762 -3.48551 0.176891 0
M  V30 852 C 79.4242 -4.24576 0.0454609 0
M  V30 853 O 80.4482 -3.56043 0.105801 0
M  V30 854 O 79.3072 -5.46427 -0.0890376 0
M  V30 855 H 76.4012 -0.825547 -0.0490066 0
M  V30 856 H 78.9472 -1.56652 0.65256 0
M  V30 857 H 77.7192 -3.72683 1.1926 0
M  V30 858 H 77.3422 -3.94332 -0.508695 0
M  V30 859 N 78.3393 -0.321999 -1.54275 0
M  V30 860 C 79.5873 0.280489 -2.00144 0
M  V30 861 C 79.9083 1.52777 -1.21178 0
M  V30 862 O 79.1783 1.9338 -0.313187 0
M  V30 863 H 77.7583 0.106632 -0.73935 0
M  V30 864 H 80.4203 -0.438184 -1.8991 0
M  V30 865 H 79.5163 0.537972 -3.07428 0
M  V30 866 N 79.8174 1.5752 -0.0501392 0
M  V30 867 C 80.7654 2.12651 0.942459 0
M  V30 868 C 81.7594 1.05807 1.32292 0
M  V30 869 O 82.9654 1.24217 1.3027 0
M  V30 870 H 79.3404 0.679673 0.321789 0
M  V30 871 H 81.3114 2.94951 0.452356 0
M  V30 872 C 80.0604 2.68565 2.20836 0
M  V30 873 H 79.3834 3.50439 1.92439 0
M  V30 874 H 80.8234 3.10761 2.8845 0
M  V30 875 C 79.2824 1.62291 2.95234 0
M  V30 876 O 79.8124 1.03508 3.88135 0
M  V30 877 N 78.0184 1.33836 2.57946 0
M  V30 878 H 77.5654 1.81826 1.82475 0
M  V30 879 H 77.5234 0.629595 3.08032 0
M  V30 880 N 81.2955 -0.223234 1.56011 0
M  V30 881 C 82.2455 -1.28008 1.88674 0
M  V30 882 C 83.2295 -1.42369 0.749663 0
M  V30 883 O 84.4215 -1.45212 1.01205 0
M  V30 884 C 81.5505 -2.63084 2.20548 0
M  V30 885 C 80.6365 -2.52632 3.40643 0
M  V30 886 N 81.0275 -2.11829 4.59306 0
M  V30 887 C 79.3255 -2.83594 3.44224 0
M  V30 888 C 80.0265 -2.12587 5.41463 0
M  V30 889 N 79.0025 -2.5301 4.81131 0
M  V30 890 H 82.8045 -0.955487 2.77935 0
M  V30 891 H 80.3185 -0.431801 1.56554 0
M  V30 892 H 82.3155 -3.39385 2.42122 0
M  V30 893 H 80.9755 -2.96391 1.32599 0
M  V30 894 H 81.9865 -1.82988 4.84496 0
M  V30 895 H 78.6635 -3.21284 2.66614 0
M  V30 896 H 80.0535 -1.83179 6.46448 0
M  V30 897 N 82.7736 -1.49793 -0.48987 0
M  V30 898 C 84.0196 -1.61049 -1.24236 0
M  V30 899 C 84.3746 -0.298412 -1.90072 0
M  V30 900 O 83.6676 0.702262 -1.78266 0
M  V30 901 C 83.8616 -2.71488 -2.32441 0
M  V30 902 C 83.6906 -4.13308 -1.77218 0
M  V30 903 C 82.4606 -4.79955 -1.58023 0
M  V30 904 C 84.6586 -4.98176 -1.27772 0
M  V30 905 N 82.6406 -6.06052 -0.978465 0
M  V30 906 C 84.0116 -6.14843 -0.798 0
M  V30 907 C 86.0666 -4.84091 -1.16449 0
M  V30 908 C 84.7696 -7.18975 -0.216245 0
M  V30 909 C 86.7956 -5.88382 -0.596698 0
M  V30 910 C 86.1576 -7.04285 -0.127262 0
M  V30 911 H 82.2566 -0.643611 -0.444172 0
M  V30 912 H 84.8406 -1.86842 -0.54754 0
M  V30 913 H 83.0116 -2.47449 -2.99372 0
M  V30 914 H 84.7436 -2.72205 -2.99477 0
M  V30 915 H 81.4986 -4.36936 -1.82712 0
M  V30 916 H 81.9226 -6.73407 -0.696534 0
M  V30 917 H 86.5646 -3.94786 -1.5134 0
M  V30 918 H 84.2826 -8.0797 0.144903 0
M  V30 919 H 87.8686 -5.79545 -0.511716 0
M  V30 920 H 86.7486 -7.83606 0.30523 0
M  V30 921 N 84.2517 0.741722 -1.39055 0
M  V30 922 C 85.1997 1.87702 -1.3737 0
M  V30 923 C 86.1937 1.67427 -0.257812 0
M  V30 924 O 87.3997 1.7485 -0.427489 0
M  V30 925 H 83.7747 0.617757 -0.428812 0
M  V30 926 H 85.7457 1.86239 -2.33147 0
M  V30 927 C 84.4947 3.25315 -1.22741 0
M  V30 928 H 83.8177 3.41509 -2.07873 0
M  V30 929 H 85.2577 4.04964 -1.25618 0
M  V30 930 C 83.7167 3.36838 0.0647316 0
M  V30 931 O 84.2467 3.88073 1.03741 0
M  V30 932 N 82.4527 2.90329 0.125544 0
M  V30 933 H 81.9997 2.48823 -0.666682 0
M  V30 934 H 81.9577 2.98418 0.989639 0
M  V30 935 N 85.7298 1.2412 0.971189 0
M  V30 936 C 87.1458 1.00584 1.23916 0
M  V30 937 C 87.3458 -0.287481 1.99439 0
M  V30 938 O 86.4018 -1.00454 2.31658 0
M  V30 939 C 87.7148 2.21864 2.0297 0
M  V30 940 C 89.2628 2.26452 2.16076 0
M  V30 941 C 89.7378 3.47343 2.98524 0
M  V30 942 N 91.2288 3.47639 3.06107 0
M  V30 943 C 91.9638 4.37837 3.70251 0
M  V30 944 N 91.4598 5.38286 4.36142 0
M  V30 945 N 93.2528 4.25558 3.67228 0
M  V30 946 H 85.4038 2.07236 0.465499 0
M  V30 947 H 87.6668 0.909236 0.268315 0
M  V30 948 H 87.3728 3.15771 1.54861 0
M  V30 949 H 87.2468 2.23698 3.03709 0
M  V30 950 H 89.6338 1.33078 2.6339 0
M  V30 951 H 89.7148 2.28645 1.14696 0
M  V30 952 H 89.3588 4.41029 2.51905 0
M  V30 953 H 89.2888 3.42393 4.00093 0
M  V30 954 H 91.7798 2.74966 2.59233 0
M  V30 955 H 92.0928 6.03352 4.82894 0
M  V30 956 H 90.4378 5.42176 4.34822 0
M  V30 957 H 93.6288 3.46322 3.14927 0
M  V30 958 H 93.8018 4.96054 4.16935 0
M  V30 959 N 87.2079 -1.17134 1.05439 0
M  V30 960 C 88.1379 -2.2342 0.678649 0
M  V30 961 C 89.1189 -1.66971 -0.32476 0
M  V30 962 O 90.3039 -1.93149 -0.201802 0
M  V30 963 C 87.4339 -3.47256 0.0552099 0
M  V30 964 C 86.3879 -4.16543 0.98365 0
M  V30 965 C 85.7139 -5.34231 0.223961 0
M  V30 966 C 87.0139 -4.68495 2.3089 0
M  V30 967 H 88.7079 -2.55105 1.56722 0
M  V30 968 H 86.2539 -1.2262 0.754998 0
M  V30 969 H 88.2069 -4.20828 -0.21946 0
M  V30 970 H 86.9309 -3.14846 -0.868319 0
M  V30 971 H 85.5899 -3.44887 1.24293 0
M  V30 972 H 85.2379 -4.98071 -0.702412 0
M  V30 973 H 84.9379 -5.81527 0.842627 0
M  V30 974 H 86.4619 -6.10585 -0.0433671 0
M  V30 975 H 87.8759 -5.33691 2.09396 0
M  V30 976 H 86.2729 -5.26379 2.88176 0
M  V30 977 H 87.3429 -3.85169 2.94572 0
M  V30 978 N 88.686 -0.835752 -1.33615 0
M  V30 979 C 89.634 -0.255238 -2.31195 0
M  V30 980 C 90.628 0.61107 -1.57995 0
M  V30 981 O 91.834 0.500979 -1.72888 0
M  V30 982 H 88.209 -0.0638085 -0.749288 0
M  V30 983 H 90.18 -1.09283 -2.77669 0
M  V30 984 C 88.929 0.55754 -3.43201 0
M  V30 985 H 88.252 -0.0997553 -3.99676 0
M  V30 986 H 89.692 0.929622 -4.13683 0
M  V30 987 C 88.151 1.73515 -2.88781 0
M  V30 988 O 88.681 2.83376 -2.84712 0
M  V30 989 N 86.887 1.55603 -2.4543 0
M  V30 990 H 86.434 0.662354 -2.48939 0
M  V30 991 H 86.392 2.34545 -2.09371 0
M  V30 992 N 90.1641 1.46063 -0.591896 0
M  V30 993 C 91.3891 2.07226 -0.0850314 0
M  V30 994 C 91.8141 1.43625 1.21463 0
M  V30 995 O 91.1721 0.523305 1.73583 0
M  V30 996 C 91.2201 3.60554 0.0576567 0
M  V30 997 O 90.3241 3.97128 1.11188 0
M  V30 998 H 89.6651 0.660615 -0.0669568 0
M  V30 999 H 92.1951 1.8756 -0.81745 0
M  V30 1000 H 92.2051 4.07165 0.2609 0
M  V30 1001 H 90.8801 4.06235 -0.891416 0
M  V30 1002 H 89.4571 3.62213 0.886356 0
M  V30 1003 N 91.6422 0.330177 1.54103 0
M  V30 1004 C 92.9192 -0.325007 1.92881 0
M  V30 1005 C 93.2992 -1.6934 1.26045 0
M  V30 1006 O 92.6472 -2.24855 0.406526 0
M  V30 1007 C 92.8572 -0.410634 3.46576 0
M  V30 1008 C 94.2052 -0.667801 4.19316 0
M  V30 1009 O 95.2292 -0.49329 3.52768 0
M  V30 1010 O 94.0882 -1.00491 5.37181 0
M  V30 1011 H 91.1822 -0.186873 0.80561 0
M  V30 1012 H 93.7282 0.380376 1.65382 0
M  V30 1013 H 92.5002 0.550164 3.87413 0
M  V30 1014 H 92.1232 -1.16333 3.802 0
M  V30 1015 N 93.1203 -1.57491 0.0584922 0
M  V30 1016 C 94.0833 -2.1085 -0.898617 0
M  V30 1017 C 95.0833 -1.02964 -1.23511 0
M  V30 1018 O 96.2733 -1.29007 -1.17059 0
M  V30 1019 C 93.4053 -2.59881 -2.20623 0
M  V30 1020 H 94.5983 -2.96715 -0.435936 0
M  V30 1021 H 92.1513 -1.55141 -0.190023 0
M  V30 1022 H 92.8863 -1.77431 -2.71457 0
M  V30 1023 H 92.6713 -3.38727 -1.97501 0
M  V30 1024 H 94.1613 -3.01285 -2.89166 0
M  V30 1025 N 94.5984 0.214957 -1.56127 0
M  V30 1026 C 95.8234 0.95924 -1.83884 0
M  V30 1027 C 96.2484 1.7689 -0.639644 0
M  V30 1028 O 95.6064 1.76566 0.411601 0
M  V30 1029 C 95.6544 1.84723 -3.09693 0
M  V30 1030 O 94.7584 2.94346 -2.8885 0
M  V30 1031 H 94.0994 0.27125 -0.606069 0
M  V30 1032 H 96.6294 0.226276 -2.03345 0
M  V30 1033 H 96.6394 2.25576 -3.39969 0
M  V30 1034 H 95.3144 1.25218 -3.96602 0
M  V30 1035 H 93.8914 2.57391 -2.69823 0
M  V30 1036 N 96.0765 1.50051 0.48192 0
M  V30 1037 C 97.0245 1.68635 1.60203 0
M  V30 1038 C 98.0185 0.552184 1.60148 0
M  V30 1039 O 99.2245 0.732377 1.64427 0
M  V30 1040 H 95.5995 0.532081 0.531407 0
M  V30 1041 H 97.5705 2.62616 1.41688 0
M  V30 1042 C 96.3195 1.78775 2.9822 0
M  V30 1043 H 95.6425 2.6543 2.98976 0
M  V30 1044 H 97.0825 1.95806 3.7608 0
M  V30 1045 C 95.5415 0.536849 3.32595 0
M  V30 1046 O 96.0715 -0.328897 4.00351 0
M  V30 1047 N 94.2775 0.394091 2.87915 0
M  V30 1048 H 93.8245 1.09962 2.32951 0
M  V30 1049 H 93.7825 -0.441737 3.11281 0
M  V30 1050 N 97.5546 -0.734337 1.39446 0
M  V30 1051 C 98.4846 -1.86155 1.40955 0
M  V30 1052 C 99.4656 -1.67898 0.272827 0
M  V30 1053 O 100.651 -1.88207 0.478743 0
M  V30 1054 C 97.7806 -3.23912 1.25294 0
M  V30 1055 C 96.7346 -3.56808 2.36373 0
M  V30 1056 C 96.0606 -4.93508 2.058 0
M  V30 1057 C 97.3606 -3.59713 3.78687 0
M  V30 1058 H 99.0546 -1.8515 2.35287 0
M  V30 1059 H 96.6006 -0.889367 1.13253 0
M  V30 1060 H 98.5536 -4.02443 1.2497 0
M  V30 1061 H 97.2776 -3.25446 0.274308 0
M  V30 1062 H 95.9366 -2.80606 2.35914 0
M  V30 1063 H 95.5846 -4.91623 1.06374 0
M  V30 1064 H 95.2846 -5.16486 2.80208 0
M  V30 1065 H 96.8086 -5.74396 2.07128 0
M  V30 1066 H 98.2226 -4.2832 3.81071 0
M  V30 1067 H 96.6196 -3.94209 4.52459 0
M  V30 1068 H 97.6896 -2.59504 4.09617 0
M  V30 1069 N 99.0327 -1.24633 -0.964593 0
M  V30 1070 C 99.9797 -1.04144 -2.05968 0
M  V30 1071 C 100.95 0.046262 -1.66036 0
M  V30 1072 O 102.135 -0.108972 -1.90489 0
M  V30 1073 C 99.2747 -0.65563 -3.38815 0
M  V30 1074 C 98.3877 -1.81714 -3.91923 0
M  V30 1075 C 97.5227 -1.37662 -5.13052 0
M  V30 1076 C 96.5617 -2.50788 -5.58365 0
M  V30 1077 N 95.6987 -2.07582 -6.70712 0
M  V30 1078 H 100.539 -1.9787 -2.22827 0
M  V30 1079 H 98.0757 -0.9855 -1.09208 0
M  V30 1080 H 100.034 -0.412954 -4.15151 0
M  V30 1081 H 98.6637 0.244627 -3.21872 0
M  V30 1082 H 97.7157 -2.1734 -3.12198 0
M  V30 1083 H 99.0277 -2.66705 -4.21509 0
M  V30 1084 H 98.1817 -1.093 -5.96773 0
M  V30 1085 H 96.9207 -0.497293 -4.85158 0
M  V30 1086 H 95.9257 -2.79906 -4.73215 0
M  V30 1087 H 97.1507 -3.39283 -5.88272 0
M  V30 1088 H 95.0967 -1.22051 -6.44546 0
M  V30 1089 H 95.0137 -2.86125 -6.99763 0
M  V30 1090 H 96.2817 -1.82369 -7.57867 0
M  V30 1091 N 100.511 1.16574 -1.06058 0
M  V30 1092 C 101.736 1.91493 -0.796562 0
M  V30 1093 C 102.161 1.76773 0.642868 0
M  V30 1094 O 101.519 1.09142 1.44768 0
M  V30 1095 C 101.567 3.40293 -1.19303 0
M  V30 1096 O 100.671 4.11074 -0.330394 0
M  V30 1097 H 100.012 0.596678 -0.291326 0
M  V30 1098 H 102.542 1.47708 -1.41575 0
M  V30 1099 H 102.552 3.91057 -1.16356 0
M  V30 1100 H 101.227 3.50326 -2.24153 0
M  V30 1101 H 99.8038 3.70513 -0.421225 0
M  V30 1102 N 101.989 0.842826 1.3317 0
M  V30 1103 C 102.936 0.276885 2.29133 0
M  V30 1104 C 103.906 -0.609527 1.54512 0
M  V30 1105 O 105.091 -0.546955 1.82792 0
M  V30 1106 C 102.231 -0.538707 3.40869 0
M  V30 1107 C 101.344 0.372169 4.30394 0
M  V30 1108 C 100.479 -0.454908 5.29249 0
M  V30 1109 C 99.5179 0.45411 6.10413 0
M  V30 1110 N 98.6549 -0.335075 7.013 0
M  V30 1111 H 103.495 1.10052 2.76934 0
M  V30 1112 H 101.032 0.554161 1.36262 0
M  V30 1113 H 102.99 -1.02709 4.0436 0
M  V30 1114 H 101.62 -1.32727 2.9425 0
M  V30 1115 H 100.672 0.97888 3.6759 0
M  V30 1116 H 101.984 1.0703 4.87182 0
M  V30 1117 H 101.138 -1.00695 5.98285 0
M  V30 1118 H 99.8769 -1.18646 4.73048 0
M  V30 1119 H 98.8819 1.01813 5.40291 0
M  V30 1120 H 100.107 1.18409 6.68697 0
M  V30 1121 H 98.0529 -1.04994 6.47543 0
M  V30 1122 H 97.9699 0.304262 7.55387 0
M  V30 1123 H 99.2379 -0.869224 7.74638 0
M  V30 1124 N 103.467 -1.45747 0.599634 0
M  V30 1125 C 104.715 -2.01893 0.0915472 0
M  V30 1126 C 105.036 -1.47155 -1.27946 0
M  V30 1127 O 104.306 -0.66273 -1.84349 0
M  V30 1128 H 102.886 -0.746363 0.0308524 0
M  V30 1129 H 105.548 -1.78645 0.779237 0
M  V30 1130 H 104.644 -3.1208 0.0353086 0
M  V30 1131 N 104.945 -0.338344 -1.53925 0
M  V30 1132 C 106.194 0.260732 -2.00008 0
M  V30 1133 C 106.507 1.52073 -1.23017 0
M  V30 1134 O 107.713 2.19672 -1.5955 0
M  V30 1135 C 106.169 0.51515 -3.56194 0
M  V30 1136 C 105.777 -0.728645 -4.42035 0
M  V30 1137 C 107.521 1.07337 -4.10706 0
M  V30 1138 C 105.428 -0.445315 -5.89721 0
M  V30 1139 H 104.358 0.101205 -0.747177 0
M  V30 1140 H 107.009 -0.452866 -1.77824 0
M  V30 1141 H 105.391 1.28932 -3.74423 0
M  V30 1142 H 106.565 -1.50352 -4.35581 0
M  V30 1143 H 104.88 -1.20813 -3.98489 0
M  V30 1144 H 107.477 1.30022 -5.18651 0
M  V30 1145 H 107.82 2.0273 -3.63602 0
M  V30 1146 H 108.353 0.360034 -3.96167 0
M  V30 1147 H 105.092 -1.36883 -6.41049 0
M  V30 1148 H 104.612 0.291569 -5.99091 0
M  V30 1149 H 106.291 -0.0606218 -6.46972 0
M  V30 1150 N 106.423 1.57458 -0.0668435 0
M  V30 1151 C 107.651 1.97624 0.612565 0
M  V30 1152 C 108.066 0.94502 1.63447 0
M  V30 1153 O 107.423 -0.0689276 1.8237 0
M  V30 1154 C 107.474 3.37869 1.28555 0
M  V30 1155 O 107.195 4.3704 0.304557 0
M  V30 1156 C 108.696 3.92882 2.05325 0
M  V30 1157 H 105.916 0.650045 0.166381 0
M  V30 1158 H 108.46 2.04035 -0.137782 0
M  V30 1159 H 106.615 3.3256 1.98702 0
M  V30 1160 H 107.029 5.18565 0.786779 0
M  V30 1161 H 108.503 4.93247 2.47812 0
M  V30 1162 H 108.98 3.29156 2.9078 0
M  V30 1163 H 109.586 4.01577 1.40056 0
M  V30 1164 N 107.901 -0.206675 1.56239 0
M  V30 1165 C 108.864 -1.23976 1.92776 0
M  V30 1166 C 109.864 -1.39041 0.807729 0
M  V30 1167 O 111.054 -1.37051 1.0753 0
M  V30 1168 C 108.186 -2.61112 2.19165 0
M  V30 1169 H 109.379 -0.927764 2.85189 0
M  V30 1170 H 106.932 -0.447718 1.4975 0
M  V30 1171 H 107.667 -2.97386 1.29352 0
M  V30 1172 H 107.452 -2.51552 3.00772 0
M  V30 1173 H 108.942 -3.35633 2.48476 0
M  V30 1174 N 109.379 -1.50304 -0.473955 0
M  V30 1175 C 110.625 -1.61389 -1.22806 0
M  V30 1176 C 110.958 -0.311955 -1.91678 0
M  V30 1177 O 110.233 0.686384 -1.81986 0
M  V30 1178 C 110.516 -2.79219 -2.27396 0
M  V30 1179 C 110.369 -4.19286 -1.62848 0
M  V30 1180 C 111.688 -2.92614 -3.28732 0
M  V30 1181 H 108.807 -0.587399 -0.445119 0
M  V30 1182 H 111.449 -1.82681 -0.522265 0
M  V30 1183 H 109.599 -2.61195 -2.87592 0
M  V30 1184 H 111.271 -4.48892 -1.06271 0
M  V30 1185 H 109.514 -4.23677 -0.931693 0
M  V30 1186 H 110.185 -4.97655 -2.38838 0
M  V30 1187 H 112.661 -3.09105 -2.78556 0
M  V30 1188 H 111.537 -3.76688 -3.99246 0
M  V30 1189 H 111.798 -2.03107 -3.92683 0
M  V30 1190 N 110.857 0.726932 -1.39834 0
M  V30 1191 C 112.103 1.48771 -1.38704 0
M  V30 1192 C 112.458 1.92394 0.0146387 0
M  V30 1193 O 111.751 1.64474 0.982797 0
M  V30 1194 C 111.945 2.73495 -2.30077 0
M  V30 1195 C 111.774 2.42068 -3.78989 0
M  V30 1196 C 110.544 2.33966 -4.4787 0
M  V30 1197 C 112.742 2.0708 -4.70768 0
M  V30 1198 N 110.724 1.95095 -5.82075 0
M  V30 1199 C 112.095 1.78719 -5.93683 0
M  V30 1200 C 114.15 1.93618 -4.58712 0
M  V30 1201 C 112.853 1.3825 -7.05889 0
M  V30 1202 C 114.879 1.54553 -5.70848 0
M  V30 1203 C 114.241 1.27082 -6.92842 0
M  V30 1204 H 110.34 0.542919 -0.562817 0
M  V30 1205 H 112.924 0.84408 -1.75452 0
M  V30 1206 H 111.095 3.35625 -1.95474 0
M  V30 1207 H 112.827 3.39755 -2.19883 0
M  V30 1208 H 109.582 2.51331 -4.0141 0
M  V30 1209 H 110.006 1.7823 -6.53118 0
M  V30 1210 H 114.648 2.13522 -3.64922 0
M  V30 1211 H 112.366 1.17088 -7.99572 0
M  V30 1212 H 115.952 1.44731 -5.6351 0
M  V30 1213 H 114.832 0.973069 -7.78139 0
M  V30 1214 N 112.336 1.25143 0.95797 0
M  V30 1215 C 113.585 1.0909 1.69654 0
M  V30 1216 C 113.898 -0.368548 1.92097 0
M  V30 1217 O 115.104 -0.649455 2.63618 0
M  V30 1218 C 113.56 1.90395 3.05414 0
M  V30 1219 C 113.168 3.4081 2.90779 0
M  V30 1220 C 114.912 1.82901 3.83076 0
M  V30 1221 C 112.819 4.14423 4.21909 0
M  V30 1222 H 111.749 0.404625 0.636235 0
M  V30 1223 H 114.4 1.4931 1.06672 0
M  V30 1224 H 112.782 1.42996 3.69281 0
M  V30 1225 H 113.956 3.95859 2.35865 0
M  V30 1226 H 112.271 3.49361 2.26575 0
M  V30 1227 H 114.868 2.35196 4.80195 0
M  V30 1228 H 115.211 0.796224 4.08615 0
M  V30 1229 H 115.744 2.28033 3.25954 0
M  V30 1230 H 112.483 5.18102 4.01561 0
M  V30 1231 H 112.003 3.64159 4.76601 0
M  V30 1232 H 113.682 4.21956 4.90471 0
M  V30 1233 N 113.814 -1.1601 1.06675 0
M  V30 1234 C 115.225 -1.68235 0.809565 0
M  V30 1235 C 115.576 -1.8454 -0.666303 0
M  V30 1236 O 114.701 -1.54374 -1.5165 0
M  V30 1237 C 115.296 -3.05585 1.46299 0
M  V30 1238 C 113.855 -3.54915 1.25349 0
M  V30 1239 C 113.002 -2.30804 1.53703 0
M  V30 1240 H 115.953 -1.00318 1.22971 0
M  V30 1241 H 115.974 -3.70174 0.880431 0
M  V30 1242 H 115.486 -2.93686 2.53713 0
M  V30 1243 H 113.587 -3.72067 0.199261 0
M  V30 1244 H 113.7 -4.36774 1.9689 0
M  V30 1245 H 112.064 -2.36007 0.957739 0
M  V30 1246 H 112.847 -2.21499 2.62284 0
M  V30 1247 N 115.292 -0.849877 -1.32721 0
M  V30 1248 C 116.703 -0.506188 -1.79707 0
M  V30 1249 C 117.054 0.975627 -1.70223 0
M  V30 1250 O 116.179 1.76078 -1.25799 0
M  V30 1251 C 116.774 -0.912044 -3.26293 0
M  V30 1252 C 115.333 -0.620326 -3.71253 0
M  V30 1253 C 114.48 -1.11439 -2.53922 0
M  V30 1254 H 117.431 -1.03754 -1.20087 0
M  V30 1255 H 117.452 -0.226493 -3.79825 0
M  V30 1256 H 116.964 -1.99057 -3.33164 0
M  V30 1257 H 115.065 0.447674 -3.69901 0
M  V30 1258 H 115.178 -1.18327 -4.64258 0
M  V30 1259 H 113.542 -0.534834 -2.49021 0
M  V30 1260 H 114.325 -2.19992 -2.6355 0
M  V30 1261 N 116.77 1.45427 -0.607355 0
M  V30 1262 C 117.733 2.28974 0.101693 0
M  V30 1263 C 118.733 1.39754 0.795329 0
M  V30 1264 O 119.923 1.61878 0.643527 0
M  V30 1265 C 117.055 3.20768 1.15414 0
M  V30 1266 H 118.248 2.93147 -0.632844 0
M  V30 1267 H 115.801 1.51945 -0.366391 0
M  V30 1268 H 116.536 2.61395 1.91945 0
M  V30 1269 H 116.321 3.86489 0.66098 0
M  V30 1270 H 117.811 3.83589 1.65073 0
M  V30 1271 N 118.248 0.346503 1.53744 0
M  V30 1272 C 119.494 -0.242135 2.01954 0
M  V30 1273 C 119.849 -1.47962 1.22984 0
M  V30 1274 O 119.142 -1.89077 0.309924 0
M  V30 1275 C 119.336 -0.605809 3.52228 0
M  V30 1276 C 119.165 0.594882 4.45748 0
M  V30 1277 C 117.935 1.1011 4.93157 0
M  V30 1278 C 120.133 1.45425 4.93311 0
M  V30 1279 N 118.115 2.26381 5.70636 0
M  V30 1280 C 119.486 2.46383 5.68942 0
M  V30 1281 C 121.541 1.47935 4.75415 0
M  V30 1282 C 120.244 3.49684 6.28581 0
M  V30 1283 C 122.27 2.50119 5.35905 0
M  V30 1284 C 121.632 3.49803 6.11406 0
M  V30 1285 H 117.731 -0.0518296 0.780281 0
M  V30 1286 H 120.315 0.486736 1.88518 0
M  V30 1287 H 118.486 -1.30378 3.65864 0
M  V30 1288 H 120.218 -1.17789 3.87179 0
M  V30 1289 H 116.973 0.668721 4.68855 0
M  V30 1290 H 117.397 2.85094 6.14044 0
M  V30 1291 H 122.039 0.722274 4.16585 0
M  V30 1292 H 119.757 4.26285 6.86518 0
M  V30 1293 H 123.343 2.52892 5.23963 0
M  V30 1294 H 122.223 4.27576 6.5738 0
M  V30 1295 N 119.726 -1.57421 0.075193 0
M  V30 1296 C 120.673 -2.12915 -0.890843 0
M  V30 1297 C 121.643 -1.04252 -1.29309 0
M  V30 1298 O 122.828 -1.31933 -1.37834 0
M  V30 1299 C 119.968 -2.69795 -2.15186 0
M  V30 1300 C 119.081 -3.92624 -1.80194 0
M  V30 1301 C 118.216 -4.37736 -3.00933 0
M  V30 1302 C 117.255 -5.53205 -2.61974 0
M  V30 1303 N 116.392 -5.9326 -3.75483 0
M  V30 1304 H 121.232 -2.95156 -0.410735 0
M  V30 1305 H 118.769 -1.45854 -0.191086 0
M  V30 1306 H 120.727 -3.00883 -2.89008 0
M  V30 1307 H 119.357 -1.90313 -2.60731 0
M  V30 1308 H 118.409 -3.67977 -0.964218 0
M  V30 1309 H 119.721 -4.76482 -1.47534 0
M  V30 1310 H 118.875 -4.70503 -3.8303 0
M  V30 1311 H 117.614 -3.52739 -3.36789 0
M  V30 1312 H 116.619 -5.20086 -1.783 0
M  V30 1313 H 117.844 -6.39936 -2.27284 0
M  V30 1314 H 115.79 -5.11212 -4.11094 0
M  V30 1315 H 115.707 -6.71865 -3.46602 0
M  V30 1316 H 116.975 -6.30651 -4.58148 0
M  V30 1317 N 121.204 0.198386 -1.56346 0
M  V30 1318 C 122.452 0.91747 -1.80075 0
M  V30 1319 C 122.773 1.83929 -0.647692 0
M  V30 1320 O 122.043 1.93029 0.334166 0
M  V30 1321 H 120.623 0.341774 -0.664228 0
M  V30 1322 H 123.285 0.204684 -1.93822 0
M  V30 1323 H 122.381 1.51055 -2.7311 0
M  V30 1324 N 122.682 1.50554 0.465978 0
M  V30 1325 C 123.645 1.69233 1.54574 0
M  V30 1326 C 124.645 0.562901 1.50626 0
M  V30 1327 O 125.835 0.830016 1.53155 0
M  V30 1328 C 122.967 1.7223 2.94193 0
M  V30 1329 H 124.16 2.65571 1.39327 0
M  V30 1330 H 121.713 1.40111 0.692711 0
M  V30 1331 H 122.448 0.77603 3.14878 0
M  V30 1332 H 122.233 2.54285 2.98466 0
M  V30 1333 H 123.723 1.88618 3.72576 0
M  V30 1334 N 124.16 -0.719506 1.40217 0
M  V30 1335 C 125.385 -1.51371 1.4178 0
M  V30 1336 C 125.81 -1.88091 0.0182355 0
M  V30 1337 O 125.168 -1.52997 -0.972707 0
M  V30 1338 C 125.216 -2.768 2.31115 0
M  V30 1339 O 124.32 -3.73349 1.7517 0
M  V30 1340 H 123.661 -0.456529 0.482159 0
M  V30 1341 H 126.191 -0.88644 1.844 0
M  V30 1342 H 126.201 -3.25371 2.46167 0
M  V30 1343 H 124.876 -2.49407 3.3282 0
M  V30 1344 H 123.453 -3.32179 1.69444 0
M  V30 1345 N 125.638 -1.25649 -0.95132 0
M  V30 1346 C 126.57 -1.02112 -2.05197 0
M  V30 1347 C 127.583 0.0150571 -1.62793 0
M  V30 1348 O 128.772 -0.223874 -1.77091 0
M  V30 1349 C 125.872 -0.522361 -3.3485 0
M  V30 1350 C 125.045 -1.62546 -4.06076 0
M  V30 1351 C 124.104 -1.12649 -5.14001 0
M  V30 1352 O 123.13 -1.82156 -5.39266 0
M  V30 1353 N 124.332 0.03047 -5.80492 0
M  V30 1354 H 127.097 -1.96885 -2.25957 0
M  V30 1355 H 124.658 -1.16899 -1.1201 0
M  V30 1356 H 126.65 -0.172961 -4.0433 0
M  V30 1357 H 125.22 0.33151 -3.10837 0
M  V30 1358 H 124.44 -2.14628 -3.30649 0
M  V30 1359 H 125.728 -2.36644 -4.50419 0
M  V30 1360 H 125.126 0.611169 -5.62389 0
M  V30 1361 H 123.683 0.320875 -6.5101 0
M  V30 1362 N 127.117 1.15442 -1.07289 0
M  V30 1363 C 128.065 2.22225 -0.686952 0
M  V30 1364 C 129.059 1.66688 0.30193 0
M  V30 1365 O 130.265 1.79236 0.165712 0
M  V30 1366 H 126.64 0.723783 -0.204064 0
M  V30 1367 H 128.611 2.52056 -1.5972 0
M  V30 1368 C 127.36 3.47556 -0.100149 0
M  V30 1369 H 126.683 3.90612 -0.852211 0
M  V30 1370 H 128.123 4.23794 0.132235 0
M  V30 1371 C 126.582 3.16337 1.159 0
M  V30 1372 O 127.112 3.33074 2.24555 0
M  V30 1373 N 125.318 2.70385 1.06491 0
M  V30 1374 H 124.865 2.56966 0.180668 0
M  V30 1375 H 124.823 2.49871 1.90819 0
M  V30 1376 N 128.595 0.856903 1.32268 0
M  V30 1377 C 129.872 0.382583 1.91822 0
M  V30 1378 C 130.252 -1.13407 1.78051 0
M  V30 1379 O 129.6 -1.95673 1.18001 0
M  V30 1380 C 129.81 0.849446 3.38505 0
M  V30 1381 C 131.158 0.867936 4.15634 0
M  V30 1382 O 132.182 0.794232 3.47232 0
M  V30 1383 O 131.041 0.972286 5.37781 0
M  V30 1384 H 128.135 0.112014 0.819379 0
M  V30 1385 H 130.681 0.943952 1.41024 0
M  V30 1386 H 129.453 1.89267 3.42482 0
M  V30 1387 H 129.076 0.265652 3.96712 0
M  V30 1388 N 130.073 -1.45103 0.615059 0
M  V30 1389 C 131.319 -2.02483 0.113347 0
M  V30 1390 C 131.652 -1.48146 -1.25564 0
M  V30 1391 O 130.927 -0.659104 -1.82992 0
M  V30 1392 C 131.21 -3.60005 0.0825278 0
M  V30 1393 C 131.063 -4.2466 1.48271 0
M  V30 1394 C 132.382 -4.35972 -0.601401 0
M  V30 1395 H 129.501 -0.735764 0.0426632 0
M  V30 1396 H 132.143 -1.72868 0.788461 0
M  V30 1397 H 130.293 -3.85367 -0.492378 0
M  V30 1398 H 131.965 -4.10458 2.10527 0
M  V30 1399 H 130.208 -3.82772 2.04127 0
M  V30 1400 H 130.879 -5.336 1.41332 0
M  V30 1401 H 133.355 -4.15947 -0.112666 0
M  V30 1402 H 132.231 -5.45697 -0.592097 0
M  V30 1403 H 132.492 -4.09391 -1.66887 0
M  V30 1404 N 131.551 -0.354651 -1.53558 0
M  V30 1405 C 132.799 0.237972 -2.00694 0
M  V30 1406 C 133.12 1.50173 -1.24391 0
M  V30 1407 O 132.39 1.92673 -0.354135 0
M  V30 1408 H 130.97 0.0909256 -0.741446 0
M  V30 1409 H 133.632 -0.478368 -1.88938 0
M  V30 1410 H 132.728 0.47264 -3.085 0
M  V30 1411 N 133.029 1.57378 -0.0835403 0
M  V30 1412 C 134.259 1.97975 0.590713 0
M  V30 1413 C 134.667 0.961083 1.62972 0
M  V30 1414 O 134.01 -0.0590879 1.83605 0
M  V30 1415 C 134.072 3.34915 1.3066 0
M  V30 1416 C 133.736 4.55069 0.419698 0
M  V30 1417 C 134.733 5.18868 -0.32749 0
M  V30 1418 C 132.418 5.0114 0.341137 0
M  V30 1419 C 134.412 6.27098 -1.14134 0
M  V30 1420 C 132.099 6.0924 -0.476374 0
M  V30 1421 C 133.097 6.72083 -1.21627 0
M  V30 1422 O 132.785 7.781 -2.02028 0
M  V30 1423 H 132.517 0.655818 0.163947 0
M  V30 1424 H 135.071 2.04807 -0.156021 0
M  V30 1425 H 133.301 3.24733 2.09966 0
M  V30 1426 H 134.99 3.60037 1.87424 0
M  V30 1427 H 135.756 4.84211 -0.276459 0
M  V30 1428 H 131.635 4.51996 0.90668 0
M  V30 1429 H 135.179 6.7608 -1.71935 0
M  V30 1430 H 131.076 6.43329 -0.528927 0
M  V30 1431 H 131.844 7.95034 -1.94586 0
M  V30 1432 N 134.507 -0.190092 1.56449 0
M  V30 1433 C 135.755 -0.907908 1.80559 0
M  V30 1434 C 136.076 -1.83583 0.657438 0
M  V30 1435 O 135.346 -1.93203 -0.323924 0
M  V30 1436 H 133.926 -0.338247 0.666032 0
M  V30 1437 H 136.588 -0.194403 1.93928 0
M  V30 1438 H 135.684 -1.49604 2.73907 0
M  V30 1439 N 135.985 -1.50799 -0.457987 0
M  V30 1440 C 136.948 -1.7005 -1.53674 0
M  V30 1441 C 137.948 -0.570881 -1.50325 0
M  V30 1442 O 139.138 -0.838126 -1.52712 0
M  V30 1443 C 136.27 -1.73788 -2.93276 0
M  V30 1444 H 137.463 -2.66306 -1.37917 0
M  V30 1445 H 135.016 -1.40477 -0.685271 0
M  V30 1446 H 135.751 -0.792717 -3.14462 0
M  V30 1447 H 135.536 -2.55864 -2.97113 0
M  V30 1448 H 137.026 -1.90591 -3.71571 0
M  V30 1449 N 137.463 0.71206 -1.40597 0
M  V30 1450 C 138.693 1.49894 -1.42181 0
M  V30 1451 C 139.101 1.89189 -0.0208078 0
M  V30 1452 O 138.444 1.56223 0.966436 0
M  V30 1453 C 138.506 2.80215 -2.25211 0
M  V30 1454 C 138.17 2.63221 -3.73582 0
M  V30 1455 C 139.167 2.30249 -4.66135 0
M  V30 1456 C 136.852 2.79376 -4.17438 0
M  V30 1457 C 138.846 2.13645 -6.00529 0
M  V30 1458 C 136.533 2.6239 -5.51901 0
M  V30 1459 C 137.531 2.29573 -6.43262 0
M  V30 1460 O 137.219 2.12719 -7.75246 0
M  V30 1461 H 136.951 0.469031 -0.486812 0
M  V30 1462 H 139.505 0.88564 -1.85326 0
M  V30 1463 H 137.735 3.4389 -1.76852 0
M  V30 1464 H 139.424 3.41947 -2.18694 0
M  V30 1465 H 140.19 2.17398 -4.33547 0
M  V30 1466 H 136.069 3.03906 -3.46644 0
M  V30 1467 H 139.613 1.87953 -6.71803 0
M  V30 1468 H 135.51 2.74826 -5.84073 0
M  V30 1469 H 136.278 2.27611 -7.86216 0
M  V30 1470 N 138.941 1.26152 0.944643 0
M  V30 1471 C 140.218 1.02247 1.66748 0
M  V30 1472 C 140.598 -0.448202 2.06287 0
M  V30 1473 O 139.946 -1.42779 1.78399 0
M  V30 1474 C 140.156 1.96788 2.88228 0
M  V30 1475 C 141.504 2.25201 3.59958 0
M  V30 1476 O 142.528 1.94626 2.98327 0
M  V30 1477 O 141.387 2.77242 4.70956 0
M  V30 1478 H 138.481 0.388517 0.730057 0
M  V30 1479 H 141.027 1.37348 0.99668 0
M  V30 1480 H 139.799 2.96047 2.55875 0
M  V30 1481 H 139.422 1.62145 3.63035 0
M  V30 1482 N 140.419 -1.14872 1.07899 0
M  V30 1483 C 141.349 -2.2193 0.725887 0
M  V30 1484 C 142.33 -1.67622 -0.28927 0
M  V30 1485 O 143.515 -1.93533 -0.160787 0
M  V30 1486 C 140.645 -3.47061 0.128856 0
M  V30 1487 C 139.599 -4.14363 1.07178 0
M  V30 1488 C 138.925 -5.33636 0.337229 0
M  V30 1489 C 140.225 -4.63492 2.40775 0
M  V30 1490 H 141.919 -2.51724 1.62097 0
M  V30 1491 H 139.465 -1.20991 0.780838 0
M  V30 1492 H 141.418 -4.21199 -0.130147 0
M  V30 1493 H 140.142 -3.16617 -0.80134 0
M  V30 1494 H 138.801 -3.42173 1.3158 0
M  V30 1495 H 138.449 -4.99449 -0.596606 0
M  V30 1496 H 138.149 -5.79609 0.965788 0
M  V30 1497 H 139.673 -6.10539 0.0861567 0
M  V30 1498 H 141.087 -5.2913 2.20669 0
M  V30 1499 H 139.484 -5.20148 2.99276 0
M  V30 1500 H 140.554 -3.78834 3.02676 0
M  V30 1501 N 141.898 -0.863906 -1.31812 0
M  V30 1502 C 143.128 -0.485406 -2.00817 0
M  V30 1503 C 143.536 0.925007 -1.65046 0
M  V30 1504 O 142.879 1.61653 -0.872574 0
M  V30 1505 C 142.941 -0.555589 -3.55181 0
M  V30 1506 C 142.605 -1.92654 -4.14407 0
M  V30 1507 C 143.602 -2.89324 -4.31958 0
M  V30 1508 C 141.287 -2.2262 -4.50273 0
M  V30 1509 C 143.281 -4.14108 -4.84555 0
M  V30 1510 C 140.968 -3.47654 -5.02573 0
M  V30 1511 C 141.966 -4.43214 -5.19664 0
M  V30 1512 O 141.654 -5.66033 -5.70843 0
M  V30 1513 H 141.386 -0.188224 -0.649267 0
M  V30 1514 H 143.94 -1.16514 -1.69156 0
M  V30 1515 H 142.17 0.181037 -3.86276 0
M  V30 1516 H 143.859 -0.19138 -4.05449 0
M  V30 1517 H 144.625 -2.6748 -4.04573 0
M  V30 1518 H 140.504 -1.4902 -4.3625 0
M  V30 1519 H 144.048 -4.88703 -4.9781 0
M  V30 1520 H 139.945 -3.69345 -5.29391 0
M  V30 1521 H 140.713 -5.6812 -5.89222 0
M  V30 1522 N 143.376 1.44774 -0.622745 0
M  V30 1523 C 144.653 1.95522 -0.0551974 0
M  V30 1524 C 145.033 1.5649 1.41683 0
M  V30 1525 O 144.381 0.834848 2.12703 0
M  V30 1526 C 144.591 3.4796 -0.269242 0
M  V30 1527 C 145.939 4.24306 -0.158014 0
M  V30 1528 O 146.963 3.55637 -0.200162 0
M  V30 1529 O 145.822 5.46471 -0.0558693 0
M  V30 1530 H 142.916 0.826556 0.0271015 0
M  V30 1531 H 145.462 1.54866 -0.693864 0
M  V30 1532 H 144.234 3.6939 -1.29099 0
M  V30 1533 H 143.857 3.95543 0.403966 0
M  V30 1534 N 144.854 0.36279 1.53368 0
M  V30 1535 C 145.784 -0.476976 2.28576 0
M  V30 1536 C 146.765 -1.08631 1.30894 0
M  V30 1537 O 147.95 -1.10409 1.59761 0
M  V30 1538 C 145.08 -1.61828 3.07293 0
M  V30 1539 C 144.034 -1.13633 4.1264 0
M  V30 1540 C 143.36 -2.36766 4.79423 0
M  V30 1541 C 144.66 -0.223061 5.21823 0
M  V30 1542 H 146.354 0.150474 2.99022 0
M  V30 1543 H 143.9 0.0738103 1.43811 0
M  V30 1544 H 145.853 -2.21237 3.58653 0
M  V30 1545 H 144.577 -2.27292 2.34533 0
M  V30 1546 H 143.236 -0.564945 3.62221 0
M  V30 1547 H 142.884 -3.0068 4.03238 0
M  V30 1548 H 142.584 -2.05192 5.50609 0
M  V30 1549 H 144.108 -2.96865 5.33576 0
M  V30 1550 H 145.522 -0.724545 5.68703 0
M  V30 1551 H 143.919 0.001678 6.001 0
M  V30 1552 H 144.989 0.735553 4.79289 0
M  V30 1553 N 146.332 -1.57332 0.0918853 0
M  V30 1554 C 147.58 -1.93853 -0.571446 0
M  V30 1555 C 147.901 -0.974212 -1.6892 0
M  V30 1556 O 147.171 -0.0257254 -1.95883 0
M  V30 1557 H 145.751 -0.715666 -0.214082 0
M  V30 1558 H 148.413 -1.94287 0.154464 0
M  V30 1559 H 147.509 -2.96191 -0.983729 0
M  V30 1560 N 147.81 0.181792 -1.56548 0
M  V30 1561 C 148.72 1.24538 -1.98815 0
M  V30 1562 C 149.736 1.49045 -0.897861 0
M  V30 1563 O 150.912 1.61399 -1.20467 0
M  V30 1564 C 147.977 2.56683 -2.33055 0
M  V30 1565 C 147.038 2.40131 -3.55859 0
M  V30 1566 C 146.271 3.65975 -3.88456 0
M  V30 1567 O 146.494 4.70711 -3.22161 0
M  V30 1568 O 145.428 3.6071 -4.81842 0
M  V30 1569 H 149.254 0.916647 -2.89536 0
M  V30 1570 H 146.839 0.387842 -1.44278 0
M  V30 1571 H 148.721 3.34655 -2.56094 0
M  V30 1572 H 147.396 2.89157 -1.45498 0
M  V30 1573 H 146.303 1.60226 -3.38051 0
M  V30 1574 H 147.636 2.12585 -4.43924 0
M  V30 1575 N 149.288 1.51039 0.449983 0
M  V30 1576 C 150.535 1.63081 1.20045 0
M  V30 1577 C 150.863 0.341024 1.91487 0
M  V30 1578 O 150.118 -0.674276 1.83717 0
M  V30 1579 C 150.417 2.77556 2.25161 0
M  V30 1580 C 150.083 4.17289 1.70823 0
M  V30 1581 C 148.745 4.55305 1.55725 0
M  V30 1582 C 151.097 5.04536 1.3074 0
M  V30 1583 C 148.425 5.78287 0.989999 0
M  V30 1584 C 150.777 6.28085 0.754482 0
M  V30 1585 C 149.441 6.64885 0.590308 0
M  V30 1586 H 148.711 0.596755 0.439277 0
M  V30 1587 H 151.358 1.85037 0.49333 0
M  V30 1588 H 149.663 2.49771 3.01863 0
M  V30 1589 H 151.36 2.84073 2.83026 0
M  V30 1590 H 147.95 3.8731 1.83546 0
M  V30 1591 H 152.134 4.75782 1.41229 0
M  V30 1592 H 147.39 6.05456 0.850451 0
M  V30 1593 H 151.564 6.95038 0.435324 0
M  V30 1594 H 149.191 7.60055 0.14862 0
M  V30 1595 N 150.766 -0.704594 1.40972 0
M  V30 1596 C 151.714 -1.83994 1.42299 0
M  V30 1597 C 152.708 -1.66684 0.302111 0
M  V30 1598 O 153.914 -1.73655 0.473697 0
M  V30 1599 H 150.289 -0.606171 0.44504 0
M  V30 1600 H 152.26 -1.79992 2.38003 0
M  V30 1601 C 151.009 -3.21946 1.31323 0
M  V30 1602 H 150.332 -3.35878 2.16855 0
M  V30 1603 H 151.772 -4.01491 1.36311 0
M  V30 1604 C 150.231 -3.36891 0.0245977 0
M  V30 1605 O 150.761 -3.90687 -0.934153 0
M  V30 1606 N 148.967 -2.90559 -0.0485243 0
M  V30 1607 H 148.514 -2.46968 0.732419 0
M  V30 1608 H 148.472 -3.00937 -0.910171 0
M  V30 1609 N 152.244 -1.26651 -0.937939 0
M  V30 1610 C 153.176 -1.04283 -2.04102 0
M  V30 1611 C 154.189 -0.00221014 -1.628 0
M  V30 1612 O 155.378 -0.242645 -1.76843 0
M  V30 1613 C 152.478 -0.557846 -3.34277 0
M  V30 1614 C 151.651 -1.66843 -4.04329 0
M  V30 1615 C 150.71 -1.18095 -5.12777 0
M  V30 1616 O 149.736 -1.87865 -5.37304 0
M  V30 1617 N 150.938 -0.0311006 -5.80492 0
M  V30 1618 H 153.703 -1.9927 -2.23856 0
M  V30 1619 H 151.264 -1.1808 -1.10764 0
M  V30 1620 H 153.256 -0.215836 -4.04124 0
M  V30 1621 H 151.826 0.298523 -3.11171 0
M  V30 1622 H 151.046 -2.18123 -3.28353 0
M  V30 1623 H 152.334 -2.41408 -4.47883 0
M  V30 1624 H 151.732 0.551486 -5.63005 0
M  V30 1625 H 150.289 0.251809 -6.51313 0
M  V30 1626 N 153.722 1.14298 -1.08507 0
M  V30 1627 C 154.669 2.19414 -0.715965 0
M  V30 1628 C 155.639 1.63399 0.298326 0
M  V30 1629 O 156.824 1.89929 0.182101 0
M  V30 1630 C 153.964 3.44845 -0.132534 0
M  V30 1631 C 153.077 4.15007 -1.19973 0
M  V30 1632 C 152.212 5.28024 -0.580048 0
M  V30 1633 C 151.251 5.9002 -1.62921 0
M  V30 1634 N 150.388 6.94485 -1.03125 0
M  V30 1635 H 155.228 2.50336 -1.61666 0
M  V30 1636 H 152.765 1.2293 -0.807882 0
M  V30 1637 H 154.723 4.16601 0.223454 0
M  V30 1638 H 153.353 3.14403 0.731467 0
M  V30 1639 H 152.405 3.41629 -1.67313 0
M  V30 1640 H 153.717 4.57178 -1.99473 0
M  V30 1641 H 152.871 6.06455 -0.172364 0
M  V30 1642 H 151.61 4.87076 0.246603 0
M  V30 1643 H 150.615 5.10291 -2.04654 0
M  V30 1644 H 151.84 6.33042 -2.45835 0
M  V30 1645 H 149.786 6.55612 -0.225711 0
M  V30 1646 H 149.703 7.35148 -1.76334 0
M  V30 1647 H 150.971 7.7679 -0.649458 0
M  V30 1648 N 155.201 0.870884 1.31352 0
M  V30 1649 C 156.449 0.48132 1.96285 0
M  V30 1650 C 156.77 -0.969813 1.69173 0
M  V30 1651 O 156.04 -1.67998 1.00764 0
M  V30 1652 H 154.62 0.175002 0.726212 0
M  V30 1653 H 157.282 1.11087 1.60143 0
M  V30 1654 H 156.378 0.639825 3.05471 0
M  V30 1655 N 156.679 -1.44442 0.630414 0
M  V30 1656 C 157.907 -2.06414 0.141671 0
M  V30 1657 C 158.322 -1.47105 -1.18345 0
M  V30 1658 O 157.679 -0.593662 -1.72574 0
M  V30 1659 C 157.73 -3.61494 0.0199784 0
M  V30 1660 O 157.451 -4.18594 1.29269 0
M  V30 1661 C 158.952 -4.40499 -0.497544 0
M  V30 1662 H 156.172 -0.666292 0.0793452 0
M  V30 1663 H 158.716 -1.85323 0.864614 0
M  V30 1664 H 156.871 -3.8185 -0.653402 0
M  V30 1665 H 157.285 -5.12026 1.13707 0
M  V30 1666 H 158.759 -5.49433 -0.531708 0
M  V30 1667 H 159.236 -4.11895 -1.52445 0
M  V30 1668 H 159.842 -4.25061 0.142562 0
M  V30 1669 N 158.157 -0.370918 -1.53173 0
M  V30 1670 C 159.403 0.217423 -2.01631 0
M  V30 1671 C 159.736 1.47983 -1.25756 0
M  V30 1672 O 159.011 1.91274 -0.352764 0
M  V30 1673 C 159.294 0.503982 -3.56556 0
M  V30 1674 C 159.147 -0.77243 -4.43118 0
M  V30 1675 C 160.466 1.30234 -4.20389 0
M  V30 1676 H 157.585 0.0775486 -0.732909 0
M  V30 1677 H 160.227 -0.496863 -1.83388 0
M  V30 1678 H 158.377 1.11248 -3.72231 0
M  V30 1679 H 160.049 -1.4098 -4.39229 0
M  V30 1680 H 158.292 -1.39167 -4.10871 0
M  V30 1681 H 158.963 -0.526815 -5.4948 0
M  V30 1682 H 161.439 0.787546 -4.08579 0
M  V30 1683 H 160.315 1.47158 -5.28806 0
M  V30 1684 H 160.576 2.31237 -3.76805 0
M  V30 1685 N 159.635 1.57281 -0.100228 0
M  V30 1686 C 161.051 1.57527 0.256416 0
M  V30 1687 C 161.251 1.11173 1.68056 0
M  V30 1688 O 160.307 0.79053 2.39806 0
M  V30 1689 C 161.62 3.00673 0.0401747 0
M  V30 1690 C 163.168 3.12815 0.107528 0
M  V30 1691 C 163.643 4.57929 -0.0807834 0
M  V30 1692 N 165.134 4.63193 -0.0261207 0
M  V30 1693 C 165.869 5.73212 -0.146999 0
M  V30 1694 N 165.365 6.92047 -0.322999 0
M  V30 1695 N 167.158 5.62031 -0.0879044 0
M  V30 1696 H 159.309 1.85718 -1.03065 0
M  V30 1697 H 161.572 0.857446 -0.404339 0
M  V30 1698 H 161.278 3.38804 -0.943649 0
M  V30 1699 H 161.152 3.69042 0.780262 0
M  V30 1700 H 163.539 2.74554 1.08186 0
M  V30 1701 H 163.62 2.47028 -0.664134 0
M  V30 1702 H 163.264 4.96886 -1.05201 0
M  V30 1703 H 163.194 5.21783 0.710635 0
M  V30 1704 H 165.685 3.77748 0.107161 0
M  V30 1705 H 165.998 7.7173 -0.406608 0
M  V30 1706 H 164.343 6.94074 -0.358733 0
M  V30 1707 H 167.534 4.68075 0.048498 0
M  V30 1708 H 167.707 6.47734 -0.185557 0
M  V30 1709 N 161.113 -0.173488 1.56642 0
M  V30 1710 C 162.341 -0.906095 1.86004 0
M  V30 1711 C 162.756 -1.75921 0.685355 0
M  V30 1712 O 162.113 -1.79198 -0.345578 0
M  V30 1713 C 162.164 -1.78462 3.14378 0
M  V30 1714 O 161.885 -0.965914 4.27319 0
M  V30 1715 C 163.386 -2.62707 3.57071 0
M  V30 1716 H 160.606 -0.263341 0.617165 0
M  V30 1717 H 163.15 -0.174236 2.03756 0
M  V30 1718 H 161.305 -2.46984 2.98459 0
M  V30 1719 H 161.719 -1.56655 5.00559 0
M  V30 1720 H 163.193 -3.19969 4.49804 0
M  V30 1721 H 163.67 -3.37472 2.81086 0
M  V30 1722 H 164.276 -1.99521 3.75595 0
M  V30 1723 N 162.591 -1.51276 -0.441967 0
M  V30 1724 C 163.538 -1.72256 -1.53612 0
M  V30 1725 C 164.508 -0.564164 -1.56225 0
M  V30 1726 O 165.693 -0.798074 -1.73307 0
M  V30 1727 C 162.833 -1.84932 -2.91366 0
M  V30 1728 C 161.946 -3.12459 -2.98317 0
M  V30 1729 C 161.081 -3.15758 -4.27166 0
M  V30 1730 C 160.12 -4.37619 -4.27967 0
M  V30 1731 N 159.257 -4.38493 -5.48333 0
M  V30 1732 H 164.097 -2.65654 -1.35026 0
M  V30 1733 H 161.634 -1.31662 -0.656009 0
M  V30 1734 H 163.592 -1.90263 -3.7129 0
M  V30 1735 H 162.222 -0.949461 -3.08521 0
M  V30 1736 H 161.274 -3.1646 -2.11086 0
M  V30 1737 H 162.586 -4.02382 -2.94771 0
M  V30 1738 H 161.74 -3.19979 -5.15459 0
M  V30 1739 H 160.479 -2.23715 -4.33362 0
M  V30 1740 H 159.484 -4.33579 -3.38067 0
M  V30 1741 H 160.709 -5.30921 -4.23438 0
M  V30 1742 H 158.655 -3.49318 -5.55259 0
M  V30 1743 H 158.572 -5.22219 -5.46647 0
M  V30 1744 H 159.84 -4.469 -6.38671 0
M  V30 1745 N 164.069 0.697108 -1.41344 0
M  V30 1746 C 165.299 1.48377 -1.43763 0
M  V30 1747 C 165.707 1.89156 -0.0408726 0
M  V30 1748 O 165.05 1.57239 0.949812 0
M  V30 1749 C 165.112 2.7781 -2.2817 0
M  V30 1750 C 164.776 2.59244 -3.76353 0
M  V30 1751 C 165.773 2.25292 -4.68551 0
M  V30 1752 C 163.458 2.74933 -4.20378 0
M  V30 1753 C 165.452 2.07264 -6.02761 0
M  V30 1754 C 163.139 2.56521 -5.54653 0
M  V30 1755 C 164.137 2.22737 -6.4566 0
M  V30 1756 O 163.825 2.04485 -7.77458 0
M  V30 1757 H 163.557 0.463842 -0.491759 0
M  V30 1758 H 166.111 0.865934 -1.86255 0
M  V30 1759 H 164.341 3.41995 -1.8049 0
M  V30 1760 H 166.03 3.39608 -2.22309 0
M  V30 1761 H 166.796 2.12787 -4.35829 0
M  V30 1762 H 162.675 3.00213 -3.49848 0
M  V30 1763 H 166.219 1.80817 -6.73759 0
M  V30 1764 H 162.116 2.68616 -5.86955 0
M  V30 1765 H 162.884 2.1926 -7.88586 0
M  V30 1766 N 165.547 1.27147 0.931209 0
M  V30 1767 C 166.795 1.13055 1.6752 0
M  V30 1768 C 167.116 -0.324791 1.92276 0
M  V30 1769 O 166.386 -1.22775 1.52654 0
M  V30 1770 H 164.966 0.415391 0.620854 0
M  V30 1771 H 167.628 1.59623 1.11833 0
M  V30 1772 H 166.724 1.65694 2.64485 0
M  V30 1773 N 167.025 -1.13721 1.09112 0
M  V30 1774 C 168.253 -1.88773 0.846899 0
M  V30 1775 C 168.668 -1.7896 -0.601572 0
M  V30 1776 O 168.025 -1.15394 -1.41388 0
M  V30 1777 C 168.076 -3.3849 1.26913 0
M  V30 1778 O 167.797 -3.48043 2.66079 0
M  V30 1779 C 169.298 -4.30518 1.05682 0
M  V30 1780 H 166.518 -0.59772 0.304914 0
M  V30 1781 H 169.062 -1.43977 1.45227 0
M  V30 1782 H 167.217 -3.80881 0.707723 0
M  V30 1783 H 167.631 -4.4109 2.83795 0
M  V30 1784 H 169.105 -5.3391 1.40156 0
M  V30 1785 H 169.582 -4.392 -0.00563416 0
M  V30 1786 H 170.188 -3.93893 1.60402 0
M  V30 1787 N 168.503 -0.877838 -1.30888 0
M  V30 1788 C 169.919 -0.570844 -1.49042 0
M  V30 1789 C 170.119 0.893159 -1.80624 0
M  V30 1790 O 169.175 1.67485 -1.88958 0
M  V30 1791 C 170.488 -1.47784 -2.61878 0
M  V30 1792 C 172.036 -1.48071 -2.75761 0
M  V30 1793 C 172.511 -2.37347 -3.91702 0
M  V30 1794 N 174.002 -2.35271 -3.99001 0
M  V30 1795 C 174.737 -3.01063 -4.88004 0
M  V30 1796 N 174.233 -3.76055 -5.81854 0
M  V30 1797 N 176.026 -2.90332 -4.81315 0
M  V30 1798 H 168.177 -1.82502 -1.0866 0
M  V30 1799 H 170.44 -0.780797 -0.537644 0
M  V30 1800 H 170.146 -2.51993 -2.45341 0
M  V30 1801 H 170.02 -1.18215 -3.58197 0
M  V30 1802 H 172.407 -0.446166 -2.91708 0
M  V30 1803 H 172.488 -1.81668 -1.80085 0
M  V30 1804 H 172.132 -3.40883 -3.76512 0
M  V30 1805 H 172.062 -2.01071 -4.86701 0
M  V30 1806 H 174.553 -1.80768 -3.3186 0
M  V30 1807 H 174.866 -4.23366 -6.46514 0
M  V30 1808 H 173.211 -3.80163 -5.81808 0
M  V30 1809 H 176.402 -2.31278 -4.06974 0
M  V30 1810 H 176.575 -3.41885 -5.50471 0
M  V30 1811 N 169.982 1.44106 -0.638065 0
M  V30 1812 C 171.207 2.0685 -0.150916 0
M  V30 1813 C 171.632 1.47417 1.16833 0
M  V30 1814 O 170.99 0.578264 1.71831 0
M  V30 1815 C 171.038 3.60555 -0.05708 0
M  V30 1816 O 170.142 4.00465 0.984972 0
M  V30 1817 H 169.483 0.658151 -0.0879399 0
M  V30 1818 H 172.013 1.84865 -0.876707 0
M  V30 1819 H 172.023 4.07789 0.131232 0
M  V30 1820 H 170.698 4.03193 -1.02021 0
M  V30 1821 H 169.275 3.64849 0.770672 0
M  V30 1822 N 171.46 0.379036 1.52974 0
M  V30 1823 C 172.392 -0.495963 2.2377 0
M  V30 1824 C 173.405 -1.03517 1.25651 0
M  V30 1825 O 174.594 -0.939249 1.51791 0
M  V30 1826 C 171.694 -1.69894 2.93239 0
M  V30 1827 C 170.867 -1.2889 4.17979 0
M  V30 1828 C 169.926 -2.35543 4.70538 0
M  V30 1829 O 168.952 -1.97375 5.33883 0
M  V30 1830 N 170.154 -3.67318 4.49508 0
M  V30 1831 H 172.919 0.110523 2.99496 0
M  V30 1832 H 170.48 0.204878 1.60598 0
M  V30 1833 H 172.472 -2.40747 3.25304 0
M  V30 1834 H 171.042 -2.212 2.20883 0
M  V30 1835 H 170.262 -0.409676 3.92065 0
M  V30 1836 H 171.55 -0.991443 4.99047 0
M  V30 1837 H 170.948 -4.01095 3.98923 0
M  V30 1838 H 169.505 -4.34235 4.8609 0
M  V30 1839 N 172.938 -1.57226 0.108567 0
M  V30 1840 C 173.868 -2.17778 -0.84232 0
M  V30 1841 C 174.849 -1.11487 -1.2847 0
M  V30 1842 O 176.034 -1.39681 -1.34918 0
M  V30 1843 C 173.164 -2.76888 -2.09644 0
M  V30 1844 C 172.118 -3.88669 -1.79221 0
M  V30 1845 C 171.444 -4.34541 -3.11574 0
M  V30 1846 C 172.744 -5.11251 -1.06864 0
M  V30 1847 H 174.438 -2.97489 -0.337774 0
M  V30 1848 H 171.984 -1.43097 -0.161025 0
M  V30 1849 H 173.937 -3.17904 -2.76614 0
M  V30 1850 H 172.661 -1.94451 -2.62405 0
M  V30 1851 H 171.32 -3.48213 -1.14644 0
M  V30 1852 H 170.968 -3.48977 -3.62249 0
M  V30 1853 H 170.668 -5.09914 -2.91996 0
M  V30 1854 H 172.192 -4.782 -3.7968 0
M  V30 1855 H 173.606 -5.49352 -1.63968 0
M  V30 1856 H 172.003 -5.9214 -0.974178 0
M  V30 1857 H 173.073 -4.8487 -0.0536168 0
M  V30 1858 N 174.416 0.165178 -1.56732 0
M  V30 1859 C 175.348 1.22911 -1.93457 0
M  V30 1860 C 176.361 1.40152 -0.828333 0
M  V30 1861 O 177.55 1.40046 -1.10677 0
M  V30 1862 C 174.65 2.59686 -2.17753 0
M  V30 1863 C 173.823 2.63663 -3.48999 0
M  V30 1864 C 172.882 3.81845 -3.62051 0
M  V30 1865 O 171.908 3.67559 -4.34613 0
M  V30 1866 N 173.11 4.98557 -2.97357 0
M  V30 1867 H 175.875 0.917118 -2.85323 0
M  V30 1868 H 173.436 0.354895 -1.57962 0
M  V30 1869 H 175.428 3.37225 -2.23743 0
M  V30 1870 H 173.998 2.83251 -1.32242 0
M  V30 1871 H 173.218 1.72173 -3.54612 0
M  V30 1872 H 174.506 2.63336 -4.35352 0
M  V30 1873 H 173.904 5.13065 -2.38287 0
M  V30 1874 H 172.461 5.73936 -3.08934 0
M  V30 1875 N 175.894 1.51508 0.433938 0
M  V30 1876 C 176.857 1.72473 1.50949 0
M  V30 1877 C 177.857 0.594725 1.49398 0
M  V30 1878 O 179.047 0.862315 1.5136 0
M  V30 1879 C 176.179 1.78431 2.90474 0
M  V30 1880 H 177.372 2.68467 1.33662 0
M  V30 1881 H 174.925 1.41549 0.662836 0
M  V30 1882 H 175.66 0.842645 3.13161 0
M  V30 1883 H 175.445 2.60558 2.93005 0
M  V30 1884 H 176.935 1.96479 3.68491 0
M  V30 1885 N 177.372 -0.689602 1.41712 0
M  V30 1886 C 178.335 -1.78521 1.43746 0
M  V30 1887 C 179.335 -1.57436 0.327191 0
M  V30 1888 O 180.525 -1.64 0.587348 0
M  V30 1889 C 177.657 -3.16971 1.25467 0
M  V30 1890 H 178.85 -1.78108 2.41283 0
M  V30 1891 H 176.403 -0.89781 1.27942 0
M  V30 1892 H 177.138 -3.23019 0.287948 0
M  V30 1893 H 176.923 -3.33678 2.05917 0
M  V30 1894 H 178.413 -3.96935 1.2974 0
M  V30 1895 N 178.85 -1.27639 -0.924453 0
M  V30 1896 C 180.096 -1.14336 -1.67497 0
M  V30 1897 C 180.429 0.309465 -1.91718 0
M  V30 1898 O 179.704 1.22608 -1.50989 0
M  V30 1899 C 179.987 -1.93096 -3.0395 0
M  V30 1900 C 179.84 -3.46381 -2.8695 0
M  V30 1901 C 181.159 -1.73798 -4.0433 0
M  V30 1902 H 178.278 -0.416728 -0.607871 0
M  V30 1903 H 180.92 -1.56832 -1.07256 0
M  V30 1904 H 179.07 -1.56982 -3.55372 0
M  V30 1905 H 180.742 -3.92343 -2.42621 0
M  V30 1906 H 178.985 -3.72557 -2.22225 0
M  V30 1907 H 179.656 -3.96735 -3.83804 0
M  V30 1908 H 182.132 -2.05293 -3.61931 0
M  V30 1909 H 181.008 -2.31294 -4.97789 0
M  V30 1910 H 181.269 -0.686725 -4.36734 0
M  V30 1911 N 180.328 1.1314 -1.09713 0
M  V30 1912 C 181.556 1.88321 -0.856898 0
M  V30 1913 C 181.971 1.79276 0.592073 0
M  V30 1914 O 181.328 1.16142 1.40774 0
M  V30 1915 C 181.379 3.37812 -1.28706 0
M  V30 1916 O 181.1 3.46627 -2.67921 0
M  V30 1917 C 182.601 4.29952 -1.07964 0
M  V30 1918 H 179.821 0.596094 -0.308079 0
M  V30 1919 H 182.365 1.43205 -1.45988 0
M  V30 1920 H 180.52 3.805 -0.727912 0
M  V30 1921 H 180.934 4.39579 -2.8613 0
M  V30 1922 H 182.408 5.33159 -1.42986 0
M  V30 1923 H 182.885 4.39196 -0.0176577 0
M  V30 1924 H 183.491 3.93036 -1.62489 0
M  V30 1925 N 181.806 0.884767 1.30421 0
M  V30 1926 C 183.031 0.517288 2.00845 0
M  V30 1927 C 183.456 -0.886779 1.65885 0
M  V30 1928 O 182.814 -1.58768 0.875354 0
M  V30 1929 C 182.862 0.698994 3.5376 0
M  V30 1930 O 181.966 -0.255208 4.1161 0
M  V30 1931 H 181.307 0.203872 0.631927 0
M  V30 1932 H 183.837 1.19225 1.66272 0
M  V30 1933 H 183.847 0.597912 4.03595 0
M  V30 1934 H 182.522 1.72271 3.78544 0
M  V30 1935 H 181.099 -0.10784 3.72744 0
M  V30 1936 N 183.284 -1.43765 0.645699 0
M  V30 1937 C 184.214 -2.33471 -0.0370477 0
M  V30 1938 C 185.195 -1.49042 -0.819779 0
M  V30 1939 O 186.38 -1.77726 -0.782758 0
M  V30 1940 C 183.51 -3.32311 -1.0093 0
M  V30 1941 C 182.464 -4.2667 -0.337201 0
M  V30 1942 C 181.79 -5.1549 -1.42037 0
M  V30 1943 C 183.09 -5.16657 0.765706 0
M  V30 1944 H 184.784 -2.90809 0.712069 0
M  V30 1945 H 182.33 -1.39834 0.343876 0
M  V30 1946 H 184.283 -3.9396 -1.49578 0
M  V30 1947 H 183.007 -2.73213 -1.78948 0
M  V30 1948 H 181.666 -3.66374 0.128771 0
M  V30 1949 H 181.314 -4.52735 -2.1918 0
M  V30 1950 H 181.014 -5.79438 -0.975966 0
M  V30 1951 H 182.538 -5.80012 -1.90838 0
M  V30 1952 H 183.952 -5.72158 0.361702 0
M  V30 1953 H 182.349 -5.89286 1.13413 0
M  V30 1954 H 183.419 -4.56796 1.62683 0
M  V30 1955 N 184.763 -0.387143 -1.52771 0
M  V30 1956 C 185.71 0.449048 -2.26389 0
M  V30 1957 C 186.68 1.05961 -1.27912 0
M  V30 1958 O 187.865 1.08804 -1.56737 0
M  V30 1959 C 185.005 1.57155 -3.0724 0
M  V30 1960 C 184.118 0.984066 -4.20643 0
M  V30 1961 C 183.253 2.07745 -4.88892 0
M  V30 1962 C 182.292 1.46574 -5.94292 0
M  V30 1963 N 181.429 2.49834 -6.56146 0
M  V30 1964 H 186.269 -0.185205 -2.97424 0
M  V30 1965 H 183.806 -0.103164 -1.46738 0
M  V30 1966 H 185.764 2.23309 -3.52405 0
M  V30 1967 H 184.394 2.17615 -2.38419 0
M  V30 1968 H 183.446 0.212193 -3.79808 0
M  V30 1969 H 184.758 0.497029 -4.96318 0
M  V30 1970 H 183.912 2.81673 -5.3735 0
M  V30 1971 H 182.651 2.59807 -4.12737 0
M  V30 1972 H 181.656 0.711696 -5.45174 0
M  V30 1973 H 182.881 0.953088 -6.72379 0
M  V30 1974 H 180.827 3.0107 -5.82832 0
M  V30 1975 H 180.744 2.05879 -7.27427 0
M  V30 1976 H 182.012 3.23399 -7.09249 0
M  V30 1977 N 186.241 1.57166 -0.116904 0
M  V30 1978 C 187.189 2.16457 0.851418 0
M  V30 1979 C 188.183 1.11323 1.27686 0
M  V30 1980 O 189.389 1.2963 1.24884 0
M  V30 1981 H 185.764 0.69271 0.292672 0
M  V30 1982 H 187.735 2.96605 0.32685 0
M  V30 1983 C 186.484 2.77689 2.09246 0
M  V30 1984 H 185.807 3.58285 1.77402 0
M  V30 1985 H 187.247 3.22716 2.7501 0
M  V30 1986 C 185.706 1.74667 2.88085 0
M  V30 1987 O 186.236 1.19877 3.83396 0
M  V30 1988 N 184.442 1.44656 2.52038 0
M  V30 1989 H 183.989 1.89402 1.74599 0
M  V30 1990 H 183.947 0.759675 3.05084 0
M  V30 1991 N 187.719 -0.156864 1.56817 0
M  V30 1992 C 188.667 -1.21319 1.98455 0
M  V30 1993 C 189.661 -1.45025 0.875444 0
M  V30 1994 O 190.867 -1.45435 1.0606 0
M  V30 1995 H 187.242 -0.408142 0.631605 0
M  V30 1996 H 189.213 -0.835244 2.86472 0
M  V30 1997 C 187.962 -2.54148 2.37285 0
M  V30 1998 H 187.285 -2.36733 3.22176 0
M  V30 1999 H 188.725 -3.26712 2.70251 0
M  V30 2000 C 187.184 -3.13967 1.22173 0
M  V30 2001 O 187.714 -3.98357 0.517149 0
M  V30 2002 N 185.92 -2.7327 0.988536 0
M  V30 2003 H 185.467 -2.04744 1.56326 0
M  V30 2004 H 185.425 -3.13628 0.220209 0
M  V30 2005 N 189.197 -1.51736 -0.425897 0
M  V30 2006 C 190.445 -1.64644 -1.17204 0
M  V30 2007 C 190.766 -0.370486 -1.91448 0
M  V30 2008 O 190.036 0.614088 -1.86026 0
M  V30 2009 H 188.616 -0.606819 -0.435638 0
M  V30 2010 H 191.278 -1.88713 -0.487177 0
M  V30 2011 H 190.374 -2.47958 -1.89534 0
M  V30 2012 N 190.675 0.682077 -1.42076 0
M  V30 2013 C 191.924 1.43786 -1.41451 0
M  V30 2014 C 192.237 1.95574 -0.0317074 0
M  V30 2015 O 193.443 2.71326 0.0971462 0
M  V30 2016 C 191.899 2.60071 -2.48779 0
M  V30 2017 C 191.507 2.15013 -3.93031 0
M  V30 2018 C 193.251 3.37626 -2.57311 0
M  V30 2019 C 191.158 3.28336 -4.91883 0
M  V30 2020 H 190.088 0.540143 -0.526082 0
M  V30 2021 H 192.739 0.739157 -1.67955 0
M  V30 2022 H 191.121 3.32275 -2.15429 0
M  V30 2023 H 192.295 1.5001 -4.35699 0
M  V30 2024 H 190.61 1.50416 -3.88284 0
M  V30 2025 H 193.207 4.22012 -3.28345 0
M  V30 2026 H 193.55 3.83727 -1.61429 0
M  V30 2027 H 194.083 2.72488 -2.89819 0
M  V30 2028 H 190.822 2.87234 -5.89217 0
M  V30 2029 H 190.342 3.92145 -4.53853 0
M  V30 2030 H 192.021 3.93913 -5.13265 0
M  V30 2031 N 192.153 1.28127 0.917671 0
M  V30 2032 C 193.085 1.07517 2.02417 0
M  V30 2033 C 194.098 0.0281099 1.62776 0
M  V30 2034 O 195.287 0.270748 1.76435 0
M  V30 2035 C 192.387 0.610957 3.33347 0
M  V30 2036 C 191.56 1.73255 4.01624 0
M  V30 2037 C 190.619 1.26238 5.10833 0
M  V30 2038 O 189.645 1.96389 5.34247 0
M  V30 2039 N 190.847 0.123448 5.80369 0
M  V30 2040 H 193.612 2.02806 2.20658 0
M  V30 2041 H 191.173 1.19827 1.08871 0
M  V30 2042 H 193.165 0.280101 4.0373 0
M  V30 2043 H 191.735 -0.24898 3.11607 0
M  V30 2044 H 190.955 2.23319 3.24842 0
M  V30 2045 H 192.243 2.48503 4.43986 0
M  V30 2046 H 191.641 -0.461847 5.63812 0
M  V30 2047 H 190.198 -0.148158 6.51632 0
M  V30 2048 N 193.631 -1.12557 1.10312 0
M  V30 2049 C 194.877 -1.84311 0.846011 0
M  V30 2050 C 195.21 -1.83805 -0.626859 0
M  V30 2051 O 194.485 -1.28268 -1.46211 0
M  V30 2052 C 194.768 -3.32048 1.39341 0
M  V30 2053 C 194.621 -3.41016 2.93305 0
M  V30 2054 C 195.94 -4.27764 1.03468 0
M  V30 2055 H 193.059 -0.669192 0.30879 0
M  V30 2056 H 195.701 -1.32057 1.36605 0
M  V30 2057 H 193.851 -3.76678 0.951087 0
M  V30 2058 H 195.523 -3.05031 3.46055 0
M  V30 2059 H 193.766 -2.81603 3.29973 0
M  V30 2060 H 194.437 -4.44948 3.26689 0
M  V30 2061 H 196.913 -3.91253 1.41633 0
M  V30 2062 H 195.789 -5.29549 1.44463 0
M  V30 2063 H 196.05 -4.42064 -0.0560404 0
M  V30 2064 N 195.109 -0.891671 -1.2995 0
M  V30 2065 C 196.339 -0.527893 -1.99742 0
M  V30 2066 C 196.747 0.88979 -1.66971 0
M  V30 2067 O 196.09 1.59766 -0.906667 0
M  V30 2068 C 196.152 -0.630804 -3.53922 0
M  V30 2069 C 195.816 -2.01401 -4.10228 0
M  V30 2070 C 196.813 -2.98422 -4.25724 0
M  V30 2071 C 194.498 -2.32121 -4.45449 0
M  V30 2072 C 196.492 -4.24293 -4.75662 0
M  V30 2073 C 194.179 -3.58237 -4.95086 0
M  V30 2074 C 195.177 -4.54137 -5.10146 0
M  V30 2075 O 194.865 -5.78014 -5.58708 0
M  V30 2076 H 194.597 -0.201953 -0.645129 0
M  V30 2077 H 197.151 -1.20076 -1.66646 0
M  V30 2078 H 195.381 0.0990616 -3.86573 0
M  V30 2079 H 197.07 -0.277338 -4.04951 0
M  V30 2080 H 197.836 -2.76001 -3.98809 0
M  V30 2081 H 193.715 -1.5824 -4.32991 0
M  V30 2082 H 197.259 -4.99153 -4.87332 0
M  V30 2083 H 193.156 -3.80491 -5.21437 0
M  V30 2084 H 193.924 -5.8049 -5.77039 0
M  V30 2085 N 196.587 1.43421 -0.653314 0
M  V30 2086 C 197.835 2.01414 -0.166415 0
M  V30 2087 C 198.156 1.51803 1.22397 0
M  V30 2088 O 197.426 0.730693 1.81763 0
M  V30 2089 H 196.006 0.744703 -0.0585319 0
M  V30 2090 H 198.668 1.75629 -0.845003 0
M  V30 2091 H 197.764 3.11734 -0.151111 0
M  V30 2092 N 198.065 0.39524 1.52563 0
M  V30 2093 C 199.342 -0.242908 1.94086 0
M  V30 2094 C 199.722 -1.63841 1.33114 0
M  V30 2095 O 199.07 -2.22928 0.501529 0
M  V30 2096 C 199.28 -0.26327 3.48006 0
M  V30 2097 C 200.628 -0.489354 4.21771 0
M  V30 2098 O 201.652 -0.343226 3.54543 0
M  V30 2099 O 200.511 -0.776169 5.4096 0
M  V30 2100 H 197.605 -0.152536 0.812811 0
M  V30 2101 H 200.151 0.450178 1.6362 0
M  V30 2102 H 198.923 0.713985 3.84731 0
M  V30 2103 H 198.546 -1.00103 3.84792 0
M  V30 2104 N 199.544 -1.57102 0.125237 0
M  V30 2105 C 200.79 -1.95697 -0.532035 0
M  V30 2106 C 201.123 -1.009 -1.6593 0
M  V30 2107 O 200.398 -0.047347 -1.94442 0
M  V30 2108 C 200.681 -3.44181 -1.05884 0
M  V30 2109 C 200.534 -4.49752 0.0654392 0
M  V30 2110 C 201.853 -3.94655 -1.9477 0
M  V30 2111 H 198.972 -0.711571 -0.191925 0
M  V30 2112 H 201.614 -1.88923 0.20206 0
M  V30 2113 H 199.764 -3.50085 -1.68442 0
M  V30 2114 H 201.436 -4.55943 0.700982 0
M  V30 2115 H 199.679 -4.27653 0.727709 0
M  V30 2116 H 200.35 -5.50924 -0.344505 0
M  V30 2117 H 202.826 -3.91094 -1.42074 0
M  V30 2118 H 201.702 -4.99057 -2.28546 0
M  V30 2119 H 201.963 -3.35718 -2.87656 0
M  V30 2120 N 201.022 0.148545 -1.56898 0
M  V30 2121 C 202.268 0.862694 -1.83536 0
M  V30 2122 C 202.601 1.80889 -0.706604 0
M  V30 2123 O 201.876 1.92328 0.289885 0
M  V30 2124 C 202.159 1.63853 -3.20662 0
M  V30 2125 C 202.012 0.713925 -4.44098 0
M  V30 2126 C 203.331 2.60133 -3.54991 0
M  V30 2127 H 200.45 0.312179 -0.667618 0
M  V30 2128 H 203.092 0.127953 -1.89569 0
M  V30 2129 H 201.242 2.26489 -3.1565 0
M  V30 2130 H 202.914 0.098686 -4.61194 0
M  V30 2131 H 201.157 0.0234019 -4.33794 0
M  V30 2132 H 201.828 1.29278 -5.36648 0
M  V30 2133 H 204.304 2.07616 -3.60603 0
M  V30 2134 H 203.18 3.11468 -4.51972 0
M  V30 2135 H 203.441 3.41417 -2.80868 0
M  V30 2136 N 202.5 1.5196 0.417844 0
M  V30 2137 C 203.433 1.69387 1.52916 0
M  V30 2138 C 204.411 0.541419 1.53321 0
M  V30 2139 O 205.595 0.767695 1.72159 0
M  V30 2140 C 202.722 1.72525 2.91467 0
M  V30 2141 C 201.768 2.93967 3.09008 0
M  V30 2142 S 202.601 4.54461 2.83242 0
M  V30 2143 C 203.757 4.60372 4.24038 0
M  V30 2144 H 203.99 2.63382 1.37903 0
M  V30 2145 H 201.523 1.41889 0.608845 0
M  V30 2146 H 203.481 1.75018 3.7132 0
M  V30 2147 H 202.142 0.796733 3.03827 0
M  V30 2148 H 201.335 2.92619 4.10353 0
M  V30 2149 H 200.937 2.89316 2.37007 0
M  V30 2150 H 203.229 4.37213 5.17544 0
M  V30 2151 H 204.172 5.62273 4.30412 0
M  V30 2152 H 204.58 3.89492 4.08602 0
M  V30 2153 N 203.978 -0.674533 1.42435 0
M  V30 2154 C 204.926 -1.80934 1.46169 0
M  V30 2155 C 205.92 -1.66006 0.3374 0
M  V30 2156 O 207.126 -1.72611 0.510425 0
M  V30 2157 H 203.501 -0.596594 0.457798 0
M  V30 2158 H 205.472 -1.74903 2.41767 0
M  V30 2159 C 204.221 -3.19088 1.38123 0
M  V30 2160 H 203.544 -3.31203 2.23931 0
M  V30 2161 H 204.984 -3.9851 1.44797 0
M  V30 2162 C 203.443 -3.36763 0.0960517 0
M  V30 2163 O 203.973 -3.92581 -0.851073 0
M  V30 2164 N 202.179 -2.90597 0.0131186 0
M  V30 2165 H 201.726 -2.45359 0.784639 0
M  V30 2166 H 201.684 -3.028 -0.846133 0
M  V30 2167 N 205.456 -1.28612 -0.910864 0
M  V30 2168 C 206.406 -1.09423 -2.00026 0
M  V30 2169 C 207.39 -0.0170079 -1.60891 0
M  V30 2170 O 208.582 -0.237472 -1.754 0
M  V30 2171 C 205.711 -0.76114 -3.34756 0
M  V30 2172 C 204.797 -1.87735 -3.80285 0
M  V30 2173 N 205.188 -3.11938 -3.98156 0
M  V30 2174 C 203.486 -1.76786 -4.09467 0
M  V30 2175 C 204.187 -3.84687 -4.36338 0
M  V30 2176 N 203.163 -3.12555 -4.44759 0
M  V30 2177 H 206.965 -2.03658 -2.11898 0
M  V30 2178 H 204.479 -1.19573 -1.09891 0
M  V30 2179 H 206.476 -0.604743 -4.12491 0
M  V30 2180 H 205.136 0.173403 -3.24237 0
M  V30 2181 H 206.147 -3.47516 -3.83996 0
M  V30 2182 H 202.824 -0.905284 -4.07567 0
M  V30 2183 H 204.214 -4.91518 -4.58104 0
M  V30 2184 N 206.934 1.1197 -1.10907 0
M  V30 2185 C 207.881 2.17846 -0.762345 0
M  V30 2186 C 208.851 1.63995 0.263599 0
M  V30 2187 O 210.036 1.90273 0.141773 0
M  V30 2188 C 207.176 3.44487 -0.205651 0
M  V30 2189 C 206.289 4.12369 -1.28748 0
M  V30 2190 C 205.424 5.26674 -0.691919 0
M  V30 2191 C 204.463 5.86431 -1.75399 0
M  V30 2192 N 203.6 6.92142 -1.17833 0
M  V30 2193 H 208.44 2.46851 -1.6694 0
M  V30 2194 H 205.977 1.21188 -0.833776 0
M  V30 2195 H 207.935 4.16981 0.135037 0
M  V30 2196 H 206.565 3.15884 0.664613 0
M  V30 2197 H 205.617 3.38003 -1.74522 0
M  V30 2198 H 206.929 4.52844 -2.09125 0
M  V30 2199 H 206.083 6.05953 -0.300963 0
M  V30 2200 H 204.822 4.8749 0.143232 0
M  V30 2201 H 203.827 5.05835 -2.15432 0
M  V30 2202 H 205.052 6.27685 -2.59208 0
M  V30 2203 H 202.998 6.54985 -0.364725 0
M  V30 2204 H 202.915 7.31242 -1.91887 0
M  V30 2205 H 204.183 7.75237 -0.81408 0
M  V30 2206 N 208.412 0.89855 1.29475 0
M  V30 2207 C 209.66 0.522847 1.9522 0
M  V30 2208 C 209.981 -0.93371 1.71192 0
M  V30 2209 O 209.251 -1.65823 1.04305 0
M  V30 2210 H 207.831 0.190366 0.722336 0
M  V30 2211 H 210.493 1.14459 1.5775 0
M  V30 2212 H 209.589 0.704476 3.04045 0
M  V30 2213 N 209.89 -1.43072 0.660911 0
M  V30 2214 C 211.138 -2.01323 0.177094 0
M  V30 2215 C 211.459 -1.5245 -1.2159 0
M  V30 2216 O 210.729 -0.740322 -1.81373 0
M  V30 2217 H 209.309 -0.744382 0.0624804 0
M  V30 2218 H 211.971 -1.75179 0.854305 0
M  V30 2219 H 211.067 -3.11649 0.167641 0
M  V30 2220 N 211.368 -0.403325 -1.52352 0
M  V30 2221 C 212.331 0.413051 -2.25447 0
M  V30 2222 C 213.331 0.978513 -1.276 0
M  V30 2223 O 214.521 0.858305 -1.51587 0
M  V30 2224 C 211.653 1.58087 -3.02029 0
M  V30 2225 H 212.846 -0.227094 -2.99039 0
M  V30 2226 H 210.399 -0.155722 -1.55522 0
M  V30 2227 H 211.134 2.25804 -2.32772 0
M  V30 2228 H 210.919 1.18195 -3.73861 0
M  V30 2229 H 212.409 2.1585 -3.57489 0
M  V30 2230 N 212.846 1.57033 -0.133567 0
M  V30 2231 C 214.123 1.87256 0.56522 0
M  V30 2232 C 214.503 1.03726 1.83859 0
M  V30 2233 O 213.851 0.120247 2.28183 0
M  V30 2234 C 214.061 3.3865 0.843636 0
M  V30 2235 C 215.409 4.07574 1.19032 0
M  V30 2236 O 216.433 3.43752 0.933429 0
M  V30 2237 O 215.292 5.20259 1.67312 0
M  V30 2238 H 212.386 0.775678 0.286796 0
M  V30 2239 H 214.932 1.68855 -0.169168 0
M  V30 2240 H 213.704 3.91257 -0.0581149 0
M  V30 2241 H 213.327 3.62532 1.63268 0
M  V30 2242 N 214.325 -0.140222 1.56975 0
M  V30 2243 C 215.288 -1.15689 1.97861 0
M  V30 2244 C 216.288 -1.3549 0.865974 0
M  V30 2245 O 217.478 -1.32367 1.13246 0
M  V30 2246 C 214.61 -2.51582 2.30042 0
M  V30 2247 H 215.803 -0.805971 2.88867 0
M  V30 2248 H 213.356 -0.383801 1.51515 0
M  V30 2249 H 214.091 -2.91632 1.41849 0
M  V30 2250 H 213.876 -2.38569 3.11171 0
M  V30 2251 H 215.366 -3.24792 2.62488 0
M  V30 2252 N 215.803 -1.52179 -0.40978 0
M  V30 2253 C 217.031 -1.70054 -1.17853 0
M  V30 2254 C 217.446 -0.409735 -1.843 0
M  V30 2255 O 216.803 0.614183 -1.71855 0
M  V30 2256 C 216.854 -2.83568 -2.24213 0
M  V30 2257 O 216.575 -4.0765 -1.60478 0
M  V30 2258 C 218.076 -3.12947 -3.13973 0
M  V30 2259 H 215.296 -0.569917 -0.354169 0
M  V30 2260 H 217.84 -1.98734 -0.482198 0
M  V30 2261 H 215.995 -2.57409 -2.89516 0
M  V30 2262 H 216.409 -4.70899 -2.30986 0
M  V30 2263 H 217.883 -3.95889 -3.84677 0
M  V30 2264 H 218.36 -2.26472 -3.76307 0
M  V30 2265 H 218.966 -3.40868 -2.5434 0
M  V30 2266 N 217.281 0.66697 -1.42791 0
M  V30 2267 C 218.191 1.80962 -1.49299 0
M  V30 2268 C 219.207 1.69775 -0.381108 0
M  V30 2269 O 220.383 1.91188 -0.633188 0
M  V30 2270 C 217.448 3.17156 -1.40045 0
M  V30 2271 C 216.509 3.40242 -2.6179 0
M  V30 2272 C 215.742 4.69939 -2.52969 0
M  V30 2273 O 215.965 5.48372 -1.56985 0
M  V30 2274 O 214.899 4.94441 -3.43237 0
M  V30 2275 H 218.725 1.78427 -2.45759 0
M  V30 2276 H 216.31 0.823713 -1.24641 0
M  V30 2277 H 218.192 3.98413 -1.37276 0
M  V30 2278 H 216.867 3.20312 -0.467138 0
M  V30 2279 H 215.774 2.58802 -2.70134 0
M  V30 2280 H 217.107 3.41923 -3.54047 0
M  V30 2281 N 218.759 1.29093 0.90403 0
M  V30 2282 C 219.692 1.08176 2.00931 0
M  V30 2283 C 220.67 -0.005083 1.62599 0
M  V30 2284 O 221.854 0.144765 1.87943 0
M  V30 2285 C 218.981 0.645897 3.32484 0
M  V30 2286 C 218.027 1.73081 3.89801 0
M  V30 2287 S 218.86 3.32905 4.19446 0
M  V30 2288 C 220.016 2.91176 5.54046 0
M  V30 2289 H 220.249 2.01752 2.18365 0
M  V30 2290 H 217.782 1.13191 1.0501 0
M  V30 2291 H 219.74 0.401131 4.08535 0
M  V30 2292 H 218.401 -0.270188 3.12936 0
M  V30 2293 H 217.594 1.37768 4.84805 0
M  V30 2294 H 217.196 1.92888 3.20422 0
M  V30 2295 H 219.488 2.37952 6.34338 0
M  V30 2296 H 220.431 3.85014 5.94281 0
M  V30 2297 H 220.839 2.296 5.15698 0
M  V30 2298 N 220.237 -1.11381 1.11499 0
M  V30 2299 C 221.483 -1.83403 0.865512 0
M  V30 2300 C 221.816 -1.84459 -0.607329 0
M  V30 2301 O 221.091 -1.29811 -1.44842 0
M  V30 2302 C 221.374 -3.30552 1.42855 0
M  V30 2303 C 221.227 -3.37886 2.96906 0
M  V30 2304 C 222.546 -4.26643 1.08 0
M  V30 2305 H 219.665 -0.665879 0.31587 0
M  V30 2306 H 222.307 -1.30601 1.37998 0
M  V30 2307 H 220.457 -3.75648 0.990985 0
M  V30 2308 H 222.129 -3.01343 3.49271 0
M  V30 2309 H 220.372 -2.78088 3.32941 0
M  V30 2310 H 221.043 -4.41458 3.31389 0
M  V30 2311 H 223.519 -3.89729 1.45775 0
M  V30 2312 H 222.395 -5.27986 1.50072 0
M  V30 2313 H 222.656 -4.42099 -0.00915037 0
M  V30 2314 N 221.715 -0.905404 -1.28997 0
M  V30 2315 C 223.131 -0.60233 -1.47798 0
M  V30 2316 C 223.331 0.854645 -1.82478 0
M  V30 2317 O 222.387 1.63439 -1.92468 0
M  V30 2318 C 223.7 -1.53306 -2.58685 0
M  V30 2319 C 225.248 -1.53887 -2.72558 0
M  V30 2320 C 225.723 -2.45602 -3.86579 0
M  V30 2321 N 227.214 -2.43681 -3.93921 0
M  V30 2322 C 227.949 -3.11347 -4.81509 0
M  V30 2323 N 227.445 -3.88313 -5.73746 0
M  V30 2324 N 229.238 -3.00476 -4.75048 0
M  V30 2325 H 221.389 -1.84765 -1.04764 0
M  V30 2326 H 223.652 -0.792025 -0.520961 0
M  V30 2327 H 223.358 -2.57141 -2.39941 0
M  V30 2328 H 223.232 -1.25787 -3.55609 0
M  V30 2329 H 225.619 -0.507941 -2.90696 0
M  V30 2330 H 225.7 -1.85447 -1.76191 0
M  V30 2331 H 225.344 -3.48792 -3.69197 0
M  V30 2332 H 225.274 -2.11349 -4.82327 0
M  V30 2333 H 227.765 -1.87767 -3.27951 0
M  V30 2334 H 228.078 -4.36985 -6.37389 0
M  V30 2335 H 226.423 -3.92419 -5.73614 0
M  V30 2336 H 229.614 -2.39858 -4.01977 0
M  V30 2337 H 229.787 -3.53485 -5.43095 0
M  V30 2338 N 223.193 1.4272 -0.668489 0
M  V30 2339 C 224.156 2.292 0.00448567 0
M  V30 2340 C 225.156 1.43001 0.735339 0
M  V30 2341 O 226.346 1.64461 0.57429 0
M  V30 2342 C 223.478 3.25375 1.01705 0
M  V30 2343 H 224.671 2.90199 -0.756608 0
M  V30 2344 H 222.224 1.50254 -0.430506 0
M  V30 2345 H 222.959 2.69301 1.80686 0
M  V30 2346 H 222.744 3.88944 0.496463 0
M  V30 2347 H 224.234 3.90245 1.48655 0
M  V30 2348 N 224.671 0.411399 1.52136 0
M  V30 2349 C 225.917 -0.163888 2.02137 0
M  V30 2350 C 226.25 -1.44597 1.29636 0
M  V30 2351 O 225.525 -1.90272 0.403353 0
M  V30 2352 C 225.808 -0.40927 3.57767 0
M  V30 2353 C 225.661 0.889643 4.40914 0
M  V30 2354 C 226.98 -1.19042 4.23694 0
M  V30 2355 H 224.099 -0.0580896 0.734707 0
M  V30 2356 H 226.741 0.54531 1.82007 0
M  V30 2357 H 224.891 -1.0134 3.7505 0
M  V30 2358 H 226.563 1.52575 4.35337 0
M  V30 2359 H 224.806 1.50011 4.07037 0
M  V30 2360 H 225.477 0.672314 5.4789 0
M  V30 2361 H 227.953 -0.678942 4.10524 0
M  V30 2362 H 226.829 -1.33086 5.32522 0
M  V30 2363 H 227.09 -2.21166 3.82803 0
M  V30 2364 N 226.149 -1.5696 0.141893 0
M  V30 2365 C 227.059 -2.20066 -0.812905 0
M  V30 2366 C 228.075 -1.18344 -1.27557 0
M  V30 2367 O 229.251 -1.50902 -1.33381 0
M  V30 2368 C 226.316 -2.80583 -2.03652 0
M  V30 2369 C 225.377 -3.97414 -1.62359 0
M  V30 2370 C 224.61 -4.55036 -2.78887 0
M  V30 2371 O 224.833 -4.11538 -3.94959 0
M  V30 2372 O 223.767 -5.45376 -2.54653 0
M  V30 2373 H 227.593 -3.02157 -0.305746 0
M  V30 2374 H 225.178 -1.49159 -0.0848799 0
M  V30 2375 H 227.06 -3.19067 -2.75272 0
M  V30 2376 H 225.735 -2.01508 -2.5333 0
M  V30 2377 H 224.642 -3.63656 -0.877775 0
M  V30 2378 H 225.975 -4.77994 -1.17401 0
M  V30 2379 N 227.627 0.131896 -1.57047 0
M  V30 2380 C 228.873 0.843179 -1.84441 0
M  V30 2381 C 229.206 1.80129 -0.725749 0
M  V30 2382 O 228.481 1.92624 0.269469 0
M  V30 2383 C 228.764 1.60442 -3.22382 0
M  V30 2384 C 228.617 0.666782 -4.4483 0
M  V30 2385 C 229.936 2.56354 -3.5773 0
M  V30 2386 H 227.055 0.305081 -0.670891 0
M  V30 2387 H 229.697 0.107839 -1.89694 0
M  V30 2388 H 227.847 2.23128 -3.18035 0
M  V30 2389 H 229.519 0.0497646 -4.61273 0
M  V30 2390 H 227.762 -0.022609 -4.33794 0
M  V30 2391 H 228.433 1.23579 -5.37989 0
M  V30 2392 H 230.909 2.0378 -3.62785 0
M  V30 2393 H 229.785 3.06657 -4.5525 0
M  V30 2394 H 230.046 3.38419 -2.84473 0
M  V30 2395 N 229.106 1.52395 0.401703 0
M  V30 2396 C 230.054 1.7689 1.51039 0
M  V30 2397 C 231.048 0.636298 1.56996 0
M  V30 2398 O 232.254 0.818507 1.60314 0
M  V30 2399 H 228.629 0.559502 0.502456 0
M  V30 2400 H 230.6 2.69757 1.27568 0
M  V30 2401 C 229.349 1.94331 2.88324 0
M  V30 2402 H 228.672 2.80905 2.84486 0
M  V30 2403 H 230.112 2.15466 3.65172 0
M  V30 2404 C 228.571 0.712396 3.29282 0
M  V30 2405 O 229.101 -0.116218 4.01532 0
M  V30 2406 N 227.307 0.546154 2.85422 0
M  V30 2407 H 226.854 1.22156 2.26794 0
M  V30 2408 H 226.812 -0.276113 3.13185 0
M  V30 2409 N 230.584 -0.659388 1.43143 0
M  V30 2410 C 231.995 -1.24041 1.39537 0
M  V30 2411 C 232.346 -1.95963 0.0963364 0
M  V30 2412 O 231.471 -2.00892 -0.804438 0
M  V30 2413 C 232.066 -2.25601 2.52764 0
M  V30 2414 C 230.625 -2.79195 2.52443 0
M  V30 2415 C 229.772 -1.53743 2.30778 0
M  V30 2416 H 232.723 -0.451792 1.52133 0
M  V30 2417 H 232.744 -3.07651 2.23899 0
M  V30 2418 H 232.256 -1.73226 3.47296 0
M  V30 2419 H 230.357 -3.35649 1.61773 0
M  V30 2420 H 230.47 -3.2716 3.50004 0
M  V30 2421 H 228.834 -1.80869 1.79328 0
M  V30 2422 H 229.617 -1.03312 3.27386 0
M  V30 2423 N 232.062 -1.29571 -0.897171 0
M  V30 2424 C 233.01 -1.14802 -2.02295 0
M  V30 2425 C 234.004 -0.0629637 -1.69283 0
M  V30 2426 O 235.21 -0.222945 -1.78614 0
M  V30 2427 H 231.585 -0.354692 -0.663097 0
M  V30 2428 H 233.556 -2.10108 -2.11889 0
M  V30 2429 C 232.305 -0.843966 -3.37302 0
M  V30 2430 H 231.628 -1.67093 -3.63208 0
M  V30 2431 H 233.068 -0.780672 -4.16751 0
M  V30 2432 C 231.527 0.452843 -3.33843 0
M  V30 2433 O 232.057 1.47813 -3.73516 0
M  V30 2434 N 230.263 0.459601 -2.86943 0
M  V30 2435 H 229.81 -0.375213 -2.54853 0
M  V30 2436 H 229.768 1.32726 -2.85011 0
M  V30 2437 N 233.54 1.10788 -1.12088 0
M  V30 2438 C 234.488 2.19111 -0.780587 0
M  V30 2439 C 235.482 1.67818 0.230961 0
M  V30 2440 O 236.688 1.79777 0.0895427 0
M  V30 2441 H 233.063 0.714477 -0.234578 0
M  V30 2442 H 235.034 2.45055 -1.70266 0
M  V30 2443 C 233.783 3.46818 -0.24747 0
M  V30 2444 H 233.106 3.86646 -1.01712 0
M  V30 2445 H 234.546 4.23973 -0.0476291 0
M  V30 2446 C 233.005 3.20968 1.02378 0
M  V30 2447 O 233.535 3.42298 2.10226 0
M  V30 2448 N 231.741 2.74658 0.949271 0
M  V30 2449 H 231.288 2.57501 0.0715173 0
M  V30 2450 H 231.246 2.57739 1.80049 0
M  V30 2451 N 235.018 0.912232 1.28515 0
M  V30 2452 C 236.434 0.610159 1.47476 0
M  V30 2453 C 236.634 -0.844955 1.82928 0
M  V30 2454 O 235.69 -1.62416 1.93332 0
M  V30 2455 C 237.003 1.54675 2.57868 0
M  V30 2456 C 238.551 1.55331 2.71738 0
M  V30 2457 C 239.026 2.47649 3.85272 0
M  V30 2458 N 240.517 2.45767 3.92623 0
M  V30 2459 C 241.252 3.13896 4.79851 0
M  V30 2460 N 240.748 3.9135 5.71679 0
M  V30 2461 N 242.541 3.02991 4.73448 0
M  V30 2462 H 234.692 1.85318 1.03783 0
M  V30 2463 H 236.955 0.794777 0.516753 0
M  V30 2464 H 236.661 2.5841 2.38574 0
M  V30 2465 H 236.535 1.27671 3.54937 0
M  V30 2466 H 238.922 0.52335 2.90422 0
M  V30 2467 H 239.003 1.86378 1.75205 0
M  V30 2468 H 238.647 3.50745 3.67342 0
M  V30 2469 H 238.577 2.13904 4.81199 0
M  V30 2470 H 241.068 1.89503 3.26951 0
M  V30 2471 H 241.381 4.40359 6.35062 0
M  V30 2472 H 239.726 3.95455 5.71524 0
M  V30 2473 H 242.917 2.41987 4.007 0
M  V30 2474 H 243.09 3.5636 5.41213 0
M  V30 2475 N 236.496 -1.42363 0.676048 0
M  V30 2476 C 237.444 -2.32596 -0.0131507 0
M  V30 2477 C 238.438 -1.49891 -0.789238 0
M  V30 2478 O 239.644 -1.65955 -0.697061 0
M  V30 2479 H 236.019 -0.751647 -0.0230481 0
M  V30 2480 H 237.99 -2.88421 0.765243 0
M  V30 2481 C 236.739 -3.34479 -0.949702 0
M  V30 2482 H 236.062 -3.98158 -0.361938 0
M  V30 2483 H 237.502 -4.00199 -1.4006 0
M  V30 2484 C 235.961 -2.66838 -2.05667 0
M  V30 2485 O 236.491 -2.50124 -3.14326 0
M  V30 2486 N 234.697 -2.25843 -1.82875 0
M  V30 2487 H 234.244 -2.39637 -0.945085 0
M  V30 2488 H 234.202 -1.80918 -2.5713 0
M  V30 2489 N 237.974 -0.419461 -1.51915 0
M  V30 2490 C 238.906 0.43646 -2.25006 0
M  V30 2491 C 239.919 1.00149 -1.28351 0
M  V30 2492 O 241.108 0.898674 -1.54227 0
M  V30 2493 C 238.208 1.6206 -2.9764 0
M  V30 2494 C 237.381 1.17763 -4.21249 0
M  V30 2495 C 236.44 2.22985 -4.76617 0
M  V30 2496 O 235.466 1.83151 -5.38929 0
M  V30 2497 N 236.668 3.55271 -4.59089 0
M  V30 2498 H 239.433 -0.18989 -2.99098 0
M  V30 2499 H 236.994 -0.247386 -1.59999 0
M  V30 2500 H 238.986 2.32038 -3.31573 0
M  V30 2501 H 237.556 2.15266 -2.2667 0
M  V30 2502 H 236.776 0.305582 -3.93014 0
M  V30 2503 H 238.064 0.858781 -5.015 0
M  V30 2504 H 237.462 3.90377 -4.09417 0
M  V30 2505 H 236.019 4.21195 -4.97432 0
M  V30 2506 N 239.452 1.56882 -0.150215 0
M  V30 2507 C 240.362 2.20494 0.801222 0
M  V30 2508 C 241.378 1.19019 1.26927 0
M  V30 2509 O 242.554 1.51607 1.32579 0
M  V30 2510 C 239.619 2.81659 2.02161 0
M  V30 2511 C 238.68 3.9827 1.60249 0
M  V30 2512 C 237.913 4.56508 2.7647 0
M  V30 2513 O 238.136 4.13627 3.92771 0
M  V30 2514 O 237.07 5.46719 2.51757 0
M  V30 2515 H 240.896 3.02315 0.289717 0
M  V30 2516 H 238.481 1.49202 0.0769684 0
M  V30 2517 H 240.363 3.20522 2.73576 0
M  V30 2518 H 239.038 2.02849 2.52258 0
M  V30 2519 H 237.945 3.64117 0.858477 0
M  V30 2520 H 239.278 4.78609 1.14864 0
M  V30 2521 N 240.93 -0.123565 1.57115 0
M  V30 2522 C 242.176 -0.833386 1.84885 0
M  V30 2523 C 242.509 -1.79742 0.735292 0
M  V30 2524 O 241.784 -1.92764 -0.25925 0
M  V30 2525 C 242.067 -1.5873 3.23228 0
M  V30 2526 C 241.92 -0.643183 4.45178 0
M  V30 2527 C 243.239 -2.54453 3.59085 0
M  V30 2528 H 240.358 -0.301518 0.6725 0
M  V30 2529 H 243 -0.097778 1.89748 0
M  V30 2530 H 241.15 -2.21438 3.19214 0
M  V30 2531 H 242.822 -0.0253015 4.61293 0
M  V30 2532 H 241.065 0.0456139 4.33776 0
M  V30 2533 H 241.736 -1.20724 5.38637 0
M  V30 2534 H 244.212 -2.01853 3.63861 0
M  V30 2535 H 243.088 -3.04238 4.5687 0
M  V30 2536 H 243.349 -3.36906 2.86264 0
M  V30 2537 N 242.408 -1.52605 -0.393616 0
M  V30 2538 C 243.636 -1.71294 -1.16043 0
M  V30 2539 C 244.051 -0.429259 -1.83855 0
M  V30 2540 O 243.408 0.595921 -1.72496 0
M  V30 2541 C 243.459 -2.8593 -2.21193 0
M  V30 2542 O 243.18 -4.09329 -1.56146 0
M  V30 2543 C 244.681 -3.16259 -3.10636 0
M  V30 2544 H 241.901 -0.573641 -0.348104 0
M  V30 2545 H 244.445 -1.99234 -0.461092 0
M  V30 2546 H 242.6 -2.60465 -2.86769 0
M  V30 2547 H 243.014 -4.73323 -2.25978 0
M  V30 2548 H 244.488 -3.99946 -3.80456 0
M  V30 2549 H 244.965 -2.3045 -3.73884 0
M  V30 2550 H 245.571 -3.43547 -2.50711 0
M  V30 2551 N 243.887 0.651787 -1.4349 0
M  V30 2552 C 245.135 1.40888 -1.44897 0
M  V30 2553 C 245.456 1.94856 -0.0749086 0
M  V30 2554 O 244.726 1.74518 0.889956 0
M  V30 2555 H 243.306 0.522887 -0.533478 0
M  V30 2556 H 245.968 0.768609 -1.79104 0
M  V30 2557 H 245.064 2.25052 -2.16236 0
M  V30 2558 N 245.365 1.30045 0.890287 0
M  V30 2559 C 246.275 1.17885 2.02831 0
M  V30 2560 C 247.291 0.0999609 1.73713 0
M  V30 2561 O 248.467 0.313867 1.98939 0
M  V30 2562 C 245.532 0.866079 3.35708 0
M  V30 2563 C 244.593 2.02979 3.78283 0
M  V30 2564 C 243.826 1.73184 5.0482 0
M  V30 2565 O 244.049 0.657237 5.66601 0
M  V30 2566 O 242.983 2.58267 5.43674 0
M  V30 2567 H 246.809 2.13474 2.16015 0
M  V30 2568 H 244.394 1.09587 1.01543 0
M  V30 2569 H 246.276 0.706623 4.15433 0
M  V30 2570 H 244.951 -0.0599443 3.23644 0
M  V30 2571 H 243.858 2.24454 2.99285 0
M  V30 2572 H 245.191 2.93734 3.94944 0
M  V30 2573 N 246.843 -1.10192 1.12674 0
M  V30 2574 C 248.073 -1.85713 0.905213 0
M  V30 2575 C 248.481 -1.81056 -0.549108 0
M  V30 2576 O 247.824 -1.19927 -1.39151 0
M  V30 2577 C 247.886 -3.34972 1.30516 0
M  V30 2578 C 247.55 -3.63385 2.77129 0
M  V30 2579 C 248.547 -3.59772 3.75313 0
M  V30 2580 C 246.232 -3.91981 3.14096 0
M  V30 2581 C 248.226 -3.84354 5.08479 0
M  V30 2582 C 245.913 -4.16218 4.47443 0
M  V30 2583 C 246.911 -4.12395 5.44444 0
M  V30 2584 O 246.599 -4.36014 6.75387 0
M  V30 2585 H 246.331 -0.593719 0.323223 0
M  V30 2586 H 248.885 -1.40198 1.50112 0
M  V30 2587 H 247.115 -3.81156 0.652463 0
M  V30 2588 H 248.804 -3.91886 1.05736 0
M  V30 2589 H 249.57 -3.37716 3.48099 0
M  V30 2590 H 245.449 -3.94085 2.39202 0
M  V30 2591 H 248.993 -3.81285 5.84181 0
M  V30 2592 H 244.89 -4.37754 4.74386 0
M  V30 2593 H 245.658 -4.53516 6.8137 0
M  V30 2594 N 248.321 -0.919034 -1.28029 0
M  V30 2595 C 249.549 -0.570971 -1.98866 0
M  V30 2596 C 249.964 0.848996 -1.68634 0
M  V30 2597 O 249.321 1.56307 -0.942036 0
M  V30 2598 C 249.372 -0.776876 -3.53054 0
M  V30 2599 O 249.093 -2.14097 -3.82222 0
M  V30 2600 C 250.594 -0.436356 -4.41147 0
M  V30 2601 H 247.814 -0.217175 -0.634883 0
M  V30 2602 H 250.358 -1.23368 -1.63097 0
M  V30 2603 H 248.513 -0.161085 -3.87065 0
M  V30 2604 H 248.927 -2.18455 -4.76841 0
M  V30 2605 H 250.401 -0.63117 -5.4838 0
M  V30 2606 H 250.878 0.627686 -4.34692 0
M  V30 2607 H 251.484 -1.02991 -4.12641 0
M  V30 2608 N 249.799 1.42003 -0.683588 0
M  V30 2609 C 251.048 2.00638 -0.206681 0
M  V30 2610 C 251.361 1.5472 1.19671 0
M  V30 2611 O 252.567 2.05833 1.77045 0
M  V30 2612 C 251.023 3.58487 -0.318632 0
M  V30 2613 C 250.631 4.1339 -1.72663 0
M  V30 2614 C 252.375 4.24384 0.0991141 0
M  V30 2615 C 250.282 5.63633 -1.79087 0
M  V30 2616 H 249.212 0.750408 -0.0735107 0
M  V30 2617 H 251.863 1.62624 -0.850048 0
M  V30 2618 H 250.245 3.94047 0.392781 0
M  V30 2619 H 251.419 3.89273 -2.46583 0
M  V30 2620 H 249.734 3.59976 -2.09299 0
M  V30 2621 H 252.331 5.34652 0.0713833 0
M  V30 2622 H 252.674 4.00505 1.13586 0
M  V30 2623 H 253.207 3.93816 -0.561599 0
M  V30 2624 H 249.946 5.92323 -2.80774 0
M  V30 2625 H 249.466 5.89714 -1.09535 0
M  V30 2626 H 251.145 6.28201 -1.5483 0
M  V30 2627 N 251.277 0.427512 1.51691 0
M  V30 2628 C 252.187 -0.39527 2.31246 0
M  V30 2629 C 253.203 -1.03674 1.39742 0
M  V30 2630 O 254.379 -1.03425 1.72816 0
M  V30 2631 C 251.444 -1.48706 3.13189 0
M  V30 2632 C 250.505 -0.866743 4.20459 0
M  V30 2633 C 249.738 -1.90651 4.98486 0
M  V30 2634 O 249.961 -3.12733 4.77026 0
M  V30 2635 O 248.895 -1.5025 5.82845 0
M  V30 2636 H 252.721 0.253918 3.02637 0
M  V30 2637 H 250.306 0.190274 1.48183 0
M  V30 2638 H 252.188 -2.12047 3.64162 0
M  V30 2639 H 250.863 -2.12051 2.44573 0
M  V30 2640 H 249.77 -0.195544 3.73589 0
M  V30 2641 H 251.103 -0.276934 4.9142 0
M  V30 2642 N 252.755 -1.56801 0.158532 0
M  V30 2643 C 253.718 -2.16138 -0.762705 0
M  V30 2644 C 254.718 -1.1061 -1.16713 0
M  V30 2645 O 255.908 -1.36191 -1.08617 0
M  V30 2646 C 253.04 -2.73386 -2.03649 0
M  V30 2647 H 254.233 -2.98886 -0.246354 0
M  V30 2648 H 251.786 -1.56035 -0.0909744 0
M  V30 2649 H 252.521 -1.94335 -2.59623 0
M  V30 2650 H 252.306 -3.50601 -1.75559 0
M  V30 2651 H 253.796 -3.19065 -2.6942 0
M  V30 2652 N 254.233 0.115231 -1.57178 0
M  V30 2653 C 255.479 0.818565 -1.86202 0
M  V30 2654 C 255.834 1.77316 -0.746785 0
M  V30 2655 O 255.127 1.89923 0.25291 0
M  V30 2656 C 255.321 1.60324 -3.19423 0
M  V30 2657 C 255.15 0.726138 -4.43799 0
M  V30 2658 C 253.92 0.379535 -5.03873 0
M  V30 2659 C 256.118 0.0420774 -5.14283 0
M  V30 2660 N 254.1 -0.507841 -6.11796 0
M  V30 2661 C 255.471 -0.704152 -6.15988 0
M  V30 2662 C 257.526 -0.0339486 -4.97888 0
M  V30 2663 C 256.229 -1.51927 -7.03072 0
M  V30 2664 C 258.255 -0.835906 -5.85463 0
M  V30 2665 C 257.617 -1.57031 -6.86673 0
M  V30 2666 H 253.716 0.276343 -0.731545 0
M  V30 2667 H 256.3 0.0821032 -1.94527 0
M  V30 2668 H 254.471 2.31072 -3.12186 0
M  V30 2669 H 256.203 2.2522 -3.36241 0
M  V30 2670 H 252.958 0.722634 -4.68054 0
M  V30 2671 H 253.382 -0.94349 -6.70393 0
M  V30 2672 H 258.024 0.519496 -4.19596 0
M  V30 2673 H 255.742 -2.08386 -7.80769 0
M  V30 2674 H 259.328 -0.89714 -5.74841 0
M  V30 2675 H 258.208 -2.18088 -7.53264 0
M  V30 2676 N 255.711 1.52812 0.385517 0
M  V30 2677 C 256.939 1.71907 1.15133 0
M  V30 2678 C 257.354 0.439004 1.83625 0
M  V30 2679 O 256.711 -0.586765 1.7281 0
M  V30 2680 C 256.762 2.87099 2.19673 0
M  V30 2681 O 256.483 4.10151 1.53973 0
M  V30 2682 C 257.984 3.17902 3.08955 0
M  V30 2683 H 255.204 0.575479 0.345057 0
M  V30 2684 H 257.748 1.99476 0.45052 0
M  V30 2685 H 255.903 2.61982 2.85384 0
M  V30 2686 H 256.317 4.74514 2.23465 0
M  V30 2687 H 257.791 4.01959 3.7833 0
M  V30 2688 H 258.268 2.3243 3.72657 0
M  V30 2689 H 258.874 3.44871 2.48885 0
M  V30 2690 N 257.189 -0.644168 1.43834 0
M  V30 2691 C 258.605 -0.960875 1.27434 0
M  V30 2692 C 258.805 -2.00499 0.200618 0
M  V30 2693 O 257.861 -2.49018 -0.417906 0
M  V30 2694 C 259.174 -1.43653 2.64167 0
M  V30 2695 C 260.722 -1.55271 2.71772 0
M  V30 2696 C 261.197 -2.06224 4.08944 0
M  V30 2697 N 262.688 -2.13513 4.11055 0
M  V30 2698 C 263.423 -2.54081 5.14033 0
M  V30 2699 N 262.919 -2.9388 6.27381 0
M  V30 2700 N 264.712 -2.54101 5.01387 0
M  V30 2701 H 256.863 0.0465779 2.12349 0
M  V30 2702 H 259.126 -0.0417638 0.94708 0
M  V30 2703 H 258.832 -0.743706 3.43747 0
M  V30 2704 H 258.706 -2.40993 2.90176 0
M  V30 2705 H 261.093 -2.23653 1.92519 0
M  V30 2706 H 261.174 -0.563395 2.49519 0
M  V30 2707 H 260.818 -1.38441 4.88668 0
M  V30 2708 H 260.748 -3.06003 4.28567 0
M  V30 2709 H 263.239 -1.85493 3.29242 0
M  V30 2710 H 263.552 -3.2361 7.01781 0
M  V30 2711 H 261.897 -2.91663 6.30839 0
M  V30 2712 H 265.088 -2.22391 4.11898 0
M  V30 2713 H 265.261 -2.85394 5.81768 0
M  V30 2714 N 258.668 -1.30515 -0.883378 0
M  V30 2715 C 259.915 -1.1943 -1.63532 0
M  V30 2716 C 260.243 0.250627 -1.92878 0
M  V30 2717 O 259.498 1.19556 -1.54935 0
M  V30 2718 C 259.797 -1.96994 -2.98209 0
M  V30 2719 C 259.463 -3.466 -2.88408 0
M  V30 2720 C 258.125 -3.87397 -2.85442 0
M  V30 2721 C 260.477 -4.41863 -2.76418 0
M  V30 2722 C 257.805 -5.21745 -2.68327 0
M  V30 2723 C 260.157 -5.7632 -2.60841 0
M  V30 2724 C 258.821 -6.16354 -2.56251 0
M  V30 2725 H 258.091 -0.437025 -0.598406 0
M  V30 2726 H 260.738 -1.61635 -1.02696 0
M  V30 2727 H 259.043 -1.47429 -3.63004 0
M  V30 2728 H 260.74 -1.85808 -3.55354 0
M  V30 2729 H 257.33 -3.14182 -2.91527 0
M  V30 2730 H 261.514 -4.11285 -2.77775 0
M  V30 2731 H 256.77 -5.51853 -2.63189 0
M  V30 2732 H 260.944 -6.49772 -2.50538 0
M  V30 2733 H 258.571 -7.20401 -2.42748 0
M  V30 2734 N 260.146 1.09593 -1.13257 0
M  V30 2735 C 261.423 1.78293 -0.804432 0
M  V30 2736 C 261.803 1.99004 0.70431 0
M  V30 2737 O 261.151 1.59007 1.641 0
M  V30 2738 C 261.361 3.10707 -1.5894 0
M  V30 2739 C 262.709 3.85443 -1.78099 0
M  V30 2740 O 263.733 3.20454 -1.55525 0
M  V30 2741 O 262.592 5.02108 -2.15753 0
M  V30 2742 H 259.686 0.773156 -0.293528 0
M  V30 2743 H 262.232 1.16164 -1.23709 0
M  V30 2744 H 261.004 2.91106 -2.61482 0
M  V30 2745 H 260.627 3.80558 -1.15157 0
M  V30 2746 N 261.624 0.925811 1.2754 0
M  V30 2747 C 262.871 0.565255 1.94451 0
M  V30 2748 C 263.199 -0.89316 1.7278 0
M  V30 2749 O 262.454 -1.65213 1.04895 0
M  V30 2750 C 262.753 0.835296 3.47502 0
M  V30 2751 C 262.419 2.27515 3.89291 0
M  V30 2752 C 261.081 2.66879 4.00411 0
M  V30 2753 C 263.433 3.21158 4.10496 0
M  V30 2754 C 260.761 3.99014 4.30122 0
M  V30 2755 C 263.113 4.52871 4.4169 0
M  V30 2756 C 261.777 4.92072 4.51023 0
M  V30 2757 H 261.047 0.206841 0.711546 0
M  V30 2758 H 263.694 1.16942 1.51647 0
M  V30 2759 H 261.999 0.148442 3.91519 0
M  V30 2760 H 263.696 0.535322 3.97411 0
M  V30 2761 H 260.286 1.95976 3.81171 0
M  V30 2762 H 264.47 2.9195 4.01346 0
M  V30 2763 H 259.726 4.2907 4.35556 0
M  V30 2764 H 263.9 5.25436 4.57045 0
M  V30 2765 H 261.527 5.9449 4.738 0
M  V30 2766 N 263.102 -1.41638 0.69111 0
M  V30 2767 C 264.513 -1.84346 0.295517 0
M  V30 2768 C 264.864 -1.57833 -1.16547 0
M  V30 2769 O 263.989 -1.04648 -1.89414 0
M  V30 2770 C 264.584 -3.34636 0.529575 0
M  V30 2771 C 263.143 -3.7593 0.187944 0
M  V30 2772 C 262.29 -2.65082 0.814052 0
M  V30 2773 H 265.241 -1.31253 0.892092 0
M  V30 2774 H 265.262 -3.79903 -0.213148 0
M  V30 2775 H 264.774 -3.53901 1.59297 0
M  V30 2776 H 262.875 -3.62268 -0.871367 0
M  V30 2777 H 262.988 -4.74808 0.63985 0
M  V30 2778 H 261.352 -2.53528 0.244017 0
M  V30 2779 H 262.135 -2.87167 1.88123 0
M  V30 2780 N 264.58 -0.43555 -1.51462 0
M  V30 2781 C 265.828 0.131254 -2.01673 0
M  V30 2782 C 266.149 1.43368 -1.32177 0
M  V30 2783 O 265.419 1.90524 -0.455769 0
M  V30 2784 H 263.999 0.0514954 -0.745223 0
M  V30 2785 H 266.661 -0.577847 -1.86137 0
M  V30 2786 H 265.757 0.308446 -3.10572 0
M  V30 2787 N 266.058 1.56714 -0.166846 0
M  V30 2788 C 267.474 1.58473 0.189372 0
M  V30 2789 C 267.674 1.18201 1.63189 0
M  V30 2790 O 266.73 0.891528 2.36237 0
M  V30 2791 C 268.043 3.00573 -0.0873872 0
M  V30 2792 C 269.591 3.1299 -0.0252443 0
M  V30 2793 C 270.066 4.57174 -0.274934 0
M  V30 2794 N 271.557 4.62665 -0.222553 0
M  V30 2795 C 272.292 5.72072 -0.389985 0
M  V30 2796 N 271.788 6.90054 -0.616229 0
M  V30 2797 N 273.581 5.61153 -0.326202 0
M  V30 2798 H 265.732 1.8118 -1.10849 0
M  V30 2799 H 267.995 0.839525 -0.440342 0
M  V30 2800 H 267.701 3.34497 -1.0865 0
M  V30 2801 H 267.575 3.72019 0.623037 0
M  V30 2802 H 269.962 2.78895 0.96444 0
M  V30 2803 H 270.043 2.43989 -0.768309 0
M  V30 2804 H 269.687 4.91976 -1.26181 0
M  V30 2805 H 269.617 5.24328 0.48869 0
M  V30 2806 H 272.108 3.77863 -0.0531512 0
M  V30 2807 H 272.421 7.69311 -0.733559 0
M  V30 2808 H 270.766 6.91927 -0.652791 0
M  V30 2809 H 273.957 4.67859 -0.150072 0
M  V30 2810 H 274.13 6.46364 -0.460116 0
M  V30 2811 N 267.536 -0.106894 1.57237 0
M  V30 2812 C 268.784 -0.810921 1.85117 0
M  V30 2813 C 269.105 -1.7984 0.753827 0
M  V30 2814 O 268.375 -1.94649 -0.221056 0
M  V30 2815 H 266.955 -0.302466 0.683025 0
M  V30 2816 H 269.617 -0.0913324 1.94686 0
M  V30 2817 H 268.713 -1.34875 2.81452 0
M  V30 2818 N 269.014 -1.53014 -0.377408 0
M  V30 2819 C 269.962 -1.7927 -1.48206 0
M  V30 2820 C 270.956 -0.661195 -1.55963 0
M  V30 2821 O 272.162 -0.843908 -1.58991 0
M  V30 2822 H 268.537 -0.567425 -0.493491 0
M  V30 2823 H 270.508 -2.71753 -1.2326 0
M  V30 2824 C 269.257 -1.98894 -2.85196 0
M  V30 2825 H 268.58 -2.85395 -2.79981 0
M  V30 2826 H 270.02 -2.21249 -3.61698 0
M  V30 2827 C 268.479 -0.764691 -3.28107 0
M  V30 2828 O 269.009 0.0523226 -4.01666 0
M  V30 2829 N 267.215 -0.591493 -2.84517 0
M  V30 2830 H 266.762 -1.25749 -2.24822 0
M  V30 2831 H 266.72 0.226253 -3.13585 0
M  V30 2832 N 270.492 0.636531 -1.44174 0
M  V30 2833 C 271.72 1.42353 -1.50144 0
M  V30 2834 C 272.135 1.88389 -0.124575 0
M  V30 2835 O 271.492 1.6051 0.868489 0
M  V30 2836 C 271.543 2.64744 -2.46156 0
M  V30 2837 O 271.264 2.20629 -3.7849 0
M  V30 2838 C 272.765 3.57929 -2.61537 0
M  V30 2839 H 269.985 0.436752 -0.5094 0
M  V30 2840 H 272.529 0.778933 -1.89084 0
M  V30 2841 H 270.684 3.25307 -2.10366 0
M  V30 2842 H 271.098 2.99938 -4.30276 0
M  V30 2843 H 272.572 4.40428 -3.32757 0
M  V30 2844 H 273.049 4.06382 -1.66585 0
M  V30 2845 H 273.655 3.03238 -2.98206 0
M  V30 2846 N 271.97 1.30982 0.876444 0
M  V30 2847 C 272.92 1.14688 1.97055 0
M  V30 2848 C 273.904 0.0596593 1.60789 0
M  V30 2849 O 275.096 0.283892 1.74708 0
M  V30 2850 C 272.225 0.849627 3.3262 0
M  V30 2851 C 271.311 1.97752 3.75173 0
M  V30 2852 N 271.702 3.22384 3.89746 0
M  V30 2853 C 270 1.8758 4.04635 0
M  V30 2854 C 270.701 3.96121 4.25985 0
M  V30 2855 N 269.677 3.24237 4.36315 0
M  V30 2856 H 273.479 2.09204 2.06424 0
M  V30 2857 H 270.993 1.22445 1.06682 0
M  V30 2858 H 272.99 0.713895 4.10742 0
M  V30 2859 H 271.65 -0.087376 3.24582 0
M  V30 2860 H 272.661 3.57575 3.74647 0
M  V30 2861 H 269.338 1.01303 4.05024 0
M  V30 2862 H 270.728 5.03491 4.44911 0
M  V30 2863 N 273.449 -1.08991 1.13837 0
M  V30 2864 C 274.674 -1.85551 0.926585 0
M  V30 2865 C 275.099 -1.80782 -0.519566 0
M  V30 2866 O 274.457 -1.18855 -1.36906 0
M  V30 2867 C 274.505 -3.31266 1.42462 0
M  V30 2868 O 273.609 -4.07822 0.612789 0
M  V30 2869 H 272.95 -0.575192 0.331738 0
M  V30 2870 H 275.48 -1.37604 1.51414 0
M  V30 2871 H 275.49 -3.82112 1.43019 0
M  V30 2872 H 274.165 -3.34052 2.47754 0
M  V30 2873 H 272.742 -3.66731 0.675463 0
M  V30 2874 N 274.927 -0.932562 -1.27047 0
M  V30 2875 C 276.152 -0.591474 -1.98787 0
M  V30 2876 C 276.577 0.824601 -1.69062 0
M  V30 2877 O 275.935 1.5541 -0.933677 0
M  V30 2878 C 275.983 -0.829808 -3.50922 0
M  V30 2879 O 275.087 0.102266 -4.12273 0
M  V30 2880 H 274.428 -0.227185 -0.623926 0
M  V30 2881 H 276.958 -1.25314 -1.61733 0
M  V30 2882 H 276.968 -0.747292 -4.01098 0
M  V30 2883 H 275.643 -1.86201 -3.7189 0
M  V30 2884 H 274.22 -0.0305761 -3.72887 0
M  V30 2885 N 276.405 1.4127 -0.698611 0
M  V30 2886 C 277.652 2.0118 -0.230865 0
M  V30 2887 C 277.98 1.55338 1.17049 0
M  V30 2888 O 277.235 0.756775 1.80475 0
M  V30 2889 C 277.534 3.56592 -0.240192 0
M  V30 2890 C 277.2 4.21955 -1.58948 0
M  V30 2891 C 275.862 4.39524 -1.95887 0
M  V30 2892 C 278.214 4.58576 -2.47704 0
M  V30 2893 C 275.542 4.90992 -3.2116 0
M  V30 2894 C 277.894 5.11435 -3.72313 0
M  V30 2895 C 276.558 5.27215 -4.0939 0
M  V30 2896 H 275.828 0.736169 -0.0844796 0
M  V30 2897 H 278.475 1.69124 -0.8983 0
M  V30 2898 H 276.78 3.88456 0.510797 0
M  V30 2899 H 278.477 4.00758 0.139296 0
M  V30 2900 H 275.067 4.08657 -1.29219 0
M  V30 2901 H 279.251 4.44654 -2.20445 0
M  V30 2902 H 274.507 5.01393 -3.49878 0
M  V30 2903 H 278.681 5.38752 -4.4127 0
M  V30 2904 H 276.308 5.66859 -5.06533 0
M  V30 2905 N 277.883 0.443576 1.51229 0
M  V30 2906 C 278.83 -0.364716 2.279 0
M  V30 2907 C 279.8 -1.0114 1.31757 0
M  V30 2908 O 280.985 -1.02912 1.60667 0
M  V30 2909 C 278.125 -1.45644 3.12861 0
M  V30 2910 C 277.238 -0.827269 4.24005 0
M  V30 2911 C 276.373 -1.89456 4.96266 0
M  V30 2912 C 275.412 -1.24416 5.99322 0
M  V30 2913 N 274.549 -2.25309 6.64966 0
M  V30 2914 H 279.389 0.295464 2.96532 0
M  V30 2915 H 276.926 0.157554 1.46254 0
M  V30 2916 H 278.884 -2.10076 3.6045 0
M  V30 2917 H 277.514 -2.08616 2.46331 0
M  V30 2918 H 276.566 -0.0710839 3.80334 0
M  V30 2919 H 277.878 -0.312481 4.9782 0
M  V30 2920 H 277.032 -2.61535 5.47434 0
M  V30 2921 H 275.771 -2.4431 4.22095 0
M  V30 2922 H 274.776 -0.508868 5.4744 0
M  V30 2923 H 276.001 -0.702882 6.75453 0
M  V30 2924 H 273.947 -2.79231 5.93604 0
M  V30 2925 H 273.864 -1.78739 7.34567 0
M  V30 2926 H 275.132 -2.96853 7.20763 0
M  V30 2927 N 279.361 -1.56624 0.175154 0
M  V30 2928 C 280.607 -1.98061 -0.462976 0
M  V30 2929 C 280.962 -1.05949 -1.60601 0
M  V30 2930 O 280.255 -0.0999027 -1.91339 0
M  V30 2931 C 280.449 -3.43419 -0.989864 0
M  V30 2932 C 280.278 -4.49587 0.100583 0
M  V30 2933 C 279.048 -5.02281 0.551539 0
M  V30 2934 C 281.246 -5.06322 0.902369 0
M  V30 2935 N 279.228 -5.92088 1.62189 0
M  V30 2936 C 280.599 -5.92607 1.82256 0
M  V30 2937 C 282.654 -4.88811 0.947019 0
M  V30 2938 C 281.357 -6.63254 2.78364 0
M  V30 2939 C 283.383 -5.60182 1.89606 0
M  V30 2940 C 282.745 -6.46197 2.80372 0
M  V30 2941 H 278.844 -0.769833 -0.137409 0
M  V30 2942 H 281.428 -1.9273 0.276256 0
M  V30 2943 H 279.599 -3.49288 -1.6986 0
M  V30 2944 H 281.331 -3.7186 -1.59694 0
M  V30 2945 H 278.086 -4.73367 0.148537 0
M  V30 2946 H 278.51 -6.41696 2.15767 0
M  V30 2947 H 283.152 -4.22004 0.259304 0
M  V30 2948 H 280.87 -7.29271 3.48122 0
M  V30 2949 H 284.456 -5.48617 1.93676 0
M  V30 2950 H 283.336 -7.00453 3.52612 0
M  V30 2951 N 280.839 0.0985539 -1.57292 0
M  V30 2952 C 282.255 0.45267 -1.53046 0
M  V30 2953 C 282.455 1.80713 -0.891342 0
M  V30 2954 O 281.511 2.4785 -0.482375 0
M  V30 2955 C 282.824 0.418341 -2.97776 0
M  V30 2956 C 284.372 0.500443 -3.08973 0
M  V30 2957 C 284.847 0.496297 -4.55303 0
M  V30 2958 N 286.338 0.557151 -4.59837 0
M  V30 2959 C 287.073 0.575726 -5.70502 0
M  V30 2960 N 286.569 0.550714 -6.90608 0
M  V30 2961 N 288.362 0.620277 -5.58667 0
M  V30 2962 H 280.513 -0.788673 -1.97215 0
M  V30 2963 H 282.776 -0.293188 -0.901524 0
M  V30 2964 H 282.482 -0.509659 -3.47988 0
M  V30 2965 H 282.356 1.2386 -3.56284 0
M  V30 2966 H 284.743 1.41886 -2.58751 0
M  V30 2967 H 284.824 -0.347894 -2.53423 0
M  V30 2968 H 284.468 -0.418162 -5.06176 0
M  V30 2969 H 284.398 1.3618 -5.08687 0
M  V30 2970 H 286.889 0.581816 -3.73394 0
M  V30 2971 H 287.202 0.568075 -7.70709 0
M  V30 2972 H 285.547 0.517816 -6.93068 0
M  V30 2973 H 288.738 0.637322 -4.63741 0
M  V30 2974 H 288.911 0.631283 -6.44918 0
M  V30 2975 N 282.317 1.53212 0.369288 0
M  V30 2976 C 283.563 1.70413 1.11046 0
M  V30 2977 C 283.918 0.448509 1.87099 0
M  V30 2978 O 283.211 -0.558382 1.83283 0
M  V30 2979 C 283.405 2.89101 2.10132 0
M  V30 2980 C 283.234 4.26084 1.43814 0
M  V30 2981 C 282.004 4.90994 1.19384 0
M  V30 2982 C 284.202 5.06754 0.877802 0
M  V30 2983 N 282.184 6.11911 0.49377 0
M  V30 2984 C 283.555 6.1924 0.306891 0
M  V30 2985 C 285.61 4.91814 0.776129 0
M  V30 2986 C 284.313 7.1842 -0.355774 0
M  V30 2987 C 286.339 5.91263 0.127252 0
M  V30 2988 C 285.701 7.03069 -0.432801 0
M  V30 2989 H 281.8 0.676872 0.391623 0
M  V30 2990 H 284.384 1.90603 0.397334 0
M  V30 2991 H 282.555 2.70456 2.78761 0
M  V30 2992 H 284.287 2.95142 2.76899 0
M  V30 2993 H 281.042 4.50074 1.47413 0
M  V30 2994 H 281.466 6.76813 0.159207 0
M  V30 2995 H 286.108 4.05564 1.19489 0
M  V30 2996 H 283.826 8.04264 -0.786499 0
M  V30 2997 H 287.412 5.81779 0.0495613 0
M  V30 2998 H 286.292 7.78702 -0.926958 0
M  V30 2999 N 283.795 -0.628877 1.44509 0
M  V30 3000 C 285.025 -1.41349 1.50678 0
M  V30 3001 C 285.433 -1.88745 0.131075 0
M  V30 3002 O 284.776 -1.61592 -0.87371 0
M  V30 3003 C 284.838 -2.66608 2.41165 0
M  V30 3004 C 284.502 -2.40993 3.88293 0
M  V30 3005 C 285.499 -2.0268 4.78766 0
M  V30 3006 C 283.184 -2.54563 4.33016 0
M  V30 3007 C 285.178 -1.78269 6.11963 0
M  V30 3008 C 282.865 -2.29766 5.6626 0
M  V30 3009 C 283.863 -1.91678 6.55552 0
M  V30 3010 O 283.551 -1.67158 7.86329 0
M  V30 3011 H 283.283 -0.439851 0.51333 0
M  V30 3012 H 285.837 -0.776084 1.90174 0
M  V30 3013 H 284.067 -3.32994 1.96601 0
M  V30 3014 H 285.756 -3.28615 2.38259 0
M  V30 3015 H 286.522 -1.91751 4.45485 0
M  V30 3016 H 282.401 -2.83179 3.63773 0
M  V30 3017 H 285.945 -1.48465 6.81619 0
M  V30 3018 H 281.842 -2.40306 5.99102 0
M  V30 3019 H 282.61 -1.81386 7.98149 0
M  V30 3020 N 285.273 -1.31445 -0.869486 0
M  V30 3021 C 286.223 -1.15731 -1.96444 0
M  V30 3022 C 287.207 -0.0681855 -1.60755 0
M  V30 3023 O 288.399 -0.293154 -1.74555 0
M  V30 3024 C 285.528 -0.867255 -3.32165 0
M  V30 3025 C 284.614 -1.99738 -3.74119 0
M  V30 3026 N 285.005 -3.24447 -3.88031 0
M  V30 3027 C 283.303 -1.89723 -4.03635 0
M  V30 3028 C 284.004 -3.98374 -4.23879 0
M  V30 3029 N 282.98 -3.26547 -4.3459 0
M  V30 3030 H 286.782 -2.10296 -2.05312 0
M  V30 3031 H 284.296 -1.23009 -1.06031 0
M  V30 3032 H 286.293 -0.735668 -4.10358 0
M  V30 3033 H 284.953 0.0701614 -3.24624 0
M  V30 3034 H 285.964 -3.59557 -3.72746 0
M  V30 3035 H 282.641 -1.03449 -4.04481 0
M  V30 3036 H 284.031 -5.05844 -4.42235 0
M  V30 3037 N 286.751 1.08385 -1.14413 0
M  V30 3038 C 287.998 1.80776 -0.912482 0
M  V30 3039 C 288.326 1.86236 0.560934 0
M  V30 3040 O 287.581 1.33431 1.43159 0
M  V30 3041 C 287.88 3.26273 -1.45879 0
M  V30 3042 C 287.546 3.4093 -2.95089 0
M  V30 3043 C 286.208 3.44638 -3.35824 0
M  V30 3044 C 288.56 3.44591 -3.91033 0
M  V30 3045 C 285.888 3.49597 -4.71167 0
M  V30 3046 C 288.24 3.51086 -5.26233 0
M  V30 3047 C 286.904 3.53067 -5.6648 0
M  V30 3048 H 286.174 0.661507 -0.333901 0
M  V30 3049 H 288.821 1.27613 -1.42784 0
M  V30 3050 H 287.126 3.82146 -0.864376 0
M  V30 3051 H 288.823 3.80839 -1.2555 0
M  V30 3052 H 285.413 3.38736 -2.62594 0
M  V30 3053 H 289.597 3.40957 -3.60641 0
M  V30 3054 H 284.853 3.49424 -5.0171 0
M  V30 3055 H 289.027 3.52864 -6.00383 0
M  V30 3056 H 286.654 3.56662 -6.71339 0
M  V30 3057 N 288.23 0.939286 1.26551 0
M  V30 3058 C 289.507 0.5038 1.89001 0
M  V30 3059 C 289.887 -1.01854 1.84903 0
M  V30 3060 O 289.235 -1.87773 1.30206 0
M  V30 3061 C 289.445 1.063 3.32417 0
M  V30 3062 C 290.793 1.13051 4.09273 0
M  V30 3063 O 291.817 1.01345 3.41479 0
M  V30 3064 O 290.676 1.31233 5.30509 0
M  V30 3065 H 287.77 0.163897 0.810597 0
M  V30 3066 H 290.316 1.03173 1.34735 0
M  V30 3067 H 289.088 2.10665 3.29752 0
M  V30 3068 H 288.711 0.517408 3.94219 0
M  V30 3069 N 289.708 -1.40897 0.706093 0
M  V30 3070 C 290.956 -2.00657 0.241054 0
M  V30 3071 C 291.277 -1.56241 -1.16678 0
M  V30 3072 O 290.547 -0.79765 -1.78926 0
M  V30 3073 H 289.127 -0.742018 0.0861308 0
M  V30 3074 H 291.789 -1.72372 0.909604 0
M  V30 3075 H 290.885 -3.10958 0.266705 0
M  V30 3076 N 291.186 -0.45159 -1.50991 0
M  V30 3077 C 292.432 0.110237 -2.025 0
M  V30 3078 C 292.765 1.41109 -1.33424 0
M  V30 3079 O 292.04 1.89135 -0.453659 0
M  V30 3080 C 292.323 0.314271 -3.58726 0
M  V30 3081 C 292.176 -1.00623 -4.38401 0
M  V30 3082 C 293.495 1.07767 -4.26702 0
M  V30 3083 H 290.614 0.0385897 -0.735989 0
M  V30 3084 H 293.256 -0.593374 -1.80497 0
M  V30 3085 H 291.406 0.913601 -3.77605 0
M  V30 3086 H 293.078 -1.64064 -4.31139 0
M  V30 3087 H 291.321 -1.6075 -4.02917 0
M  V30 3088 H 291.992 -0.817341 -5.45915 0
M  V30 3089 H 294.468 0.56986 -4.12179 0
M  V30 3090 H 293.344 1.18921 -5.35863 0
M  V30 3091 H 293.605 2.10939 -3.88532 0
M  V30 3092 N 292.664 1.56529 -0.183458 0
M  V30 3093 C 293.941 1.88959 0.50536 0
M  V30 3094 C 294.321 1.09523 1.80466 0
M  V30 3095 O 293.669 0.19278 2.27685 0
M  V30 3096 C 293.879 3.41162 0.73547 0
M  V30 3097 C 295.227 4.11155 1.06005 0
M  V30 3098 O 296.251 3.46548 0.823594 0
M  V30 3099 O 295.11 5.25318 1.50675 0
M  V30 3100 H 292.204 0.78441 0.261973 0
M  V30 3101 H 294.75 1.68231 -0.222802 0
M  V30 3102 H 293.522 3.90874 -0.182561 0
M  V30 3103 H 293.145 3.67543 1.51651 0
M  V30 3104 N 294.142 -0.090211 1.57342 0
M  V30 3105 C 295.388 -0.788838 1.8748 0
M  V30 3106 C 295.743 -1.76105 0.7749 0
M  V30 3107 O 295.036 -1.90302 -0.222663 0
M  V30 3108 C 295.23 -1.55222 3.21933 0
M  V30 3109 C 295.059 -0.655441 4.44898 0
M  V30 3110 C 293.829 -0.299325 5.04413 0
M  V30 3111 C 296.027 0.0397458 5.14285 0
M  V30 3112 N 294.009 0.605108 6.10911 0
M  V30 3113 C 295.38 0.802061 6.1479 0
M  V30 3114 C 297.435 0.113154 4.97771 0
M  V30 3115 C 296.138 1.63093 7.00566 0
M  V30 3116 C 298.164 0.928942 5.84059 0
M  V30 3117 C 297.526 1.67936 6.84088 0
M  V30 3118 H 293.625 -0.26467 0.735849 0
M  V30 3119 H 296.209 -0.0511453 1.94633 0
M  V30 3120 H 294.38 -2.26076 3.15823 0
M  V30 3121 H 296.112 -2.19843 3.39781 0
M  V30 3122 H 292.867 -0.648079 4.69145 0
M  V30 3123 H 293.291 1.05002 6.68808 0
M  V30 3124 H 297.933 -0.452676 4.2037 0
M  V30 3125 H 295.651 2.20781 7.77355 0
M  V30 3126 H 299.237 0.988478 5.73341 0
M  V30 3127 H 298.117 2.30044 7.49699 0
M  V30 3128 N 295.62 -1.53406 -0.361157 0
M  V30 3129 C 296.897 -1.60411 -1.11927 0
M  V30 3130 C 297.277 -0.414385 -2.06993 0
M  V30 3131 O 296.625 0.594976 -2.20618 0
M  V30 3132 C 296.835 -2.95652 -1.85448 0
M  V30 3133 C 298.183 -3.50386 -2.39823 0
M  V30 3134 O 299.207 -2.97711 -1.95568 0
M  V30 3135 O 298.066 -4.42482 -3.20737 0
M  V30 3136 H 295.16 -0.64811 -0.513695 0
M  V30 3137 H 297.706 -1.65749 -0.364065 0
M  V30 3138 H 296.478 -3.73682 -1.16091 0
M  V30 3139 H 296.101 -2.93825 -2.67866 0
M  V30 3140 N 297.098 0.621204 -1.44841 0
M  V30 3141 C 298.03 1.74615 -1.48466 0
M  V30 3142 C 299.043 1.58377 -0.37691 0
M  V30 3143 O 300.232 1.66508 -0.643215 0
M  V30 3144 C 297.332 3.12459 -1.31236 0
M  V30 3145 C 296.505 3.55064 -2.55438 0
M  V30 3146 C 295.564 4.71821 -2.32963 0
M  V30 3147 O 294.59 4.79628 -3.06505 0
M  V30 3148 N 295.792 5.64186 -1.36654 0
M  V30 3149 H 298.557 1.71973 -2.45449 0
M  V30 3150 H 296.118 0.806077 -1.40407 0
M  V30 3151 H 298.11 3.88302 -1.14032 0
M  V30 3152 H 296.68 3.09686 -0.4258 0
M  V30 3153 H 295.9 2.69324 -2.87851 0
M  V30 3154 H 297.188 3.80284 -3.38026 0
M  V30 3155 H 296.586 5.6058 -0.759344 0
M  V30 3156 H 295.143 6.39618 -1.25425 0
M  V30 3157 N 298.576 1.31904 0.862503 0
M  V30 3158 C 299.801 1.25135 1.65397 0
M  V30 3159 C 300.226 -0.179 1.87246 0
M  V30 3160 O 299.584 -1.1277 1.4196 0
M  V30 3161 C 299.632 2.00832 2.99498 0
M  V30 3162 O 298.736 1.35075 3.89652 0
M  V30 3163 H 298.077 0.431655 0.504549 0
M  V30 3164 H 300.607 1.74094 1.07483 0
M  V30 3165 H 300.617 2.10709 3.49379 0
M  V30 3166 H 299.292 3.04847 2.82916 0
M  V30 3167 H 297.869 1.33696 3.48109 0
M  V30 3168 N 300.054 -1.07777 1.14986 0
M  V30 3169 C 301.47 -1.32373 0.891596 0
M  V30 3170 C 301.67 -1.9609 -0.463788 0
M  V30 3171 O 300.726 -2.21801 -1.20667 0
M  V30 3172 C 302.039 -2.21905 2.02925 0
M  V30 3173 C 303.587 -2.35367 2.06329 0
M  V30 3174 C 304.062 -3.28245 3.19405 0
M  V30 3175 N 305.553 -3.35824 3.19024 0
M  V30 3176 C 306.288 -4.07739 4.03158 0
M  V30 3177 N 305.784 -4.82306 4.97346 0
M  V30 3178 N 307.577 -4.03635 3.91197 0
M  V30 3179 H 299.728 -0.648039 2.02273 0
M  V30 3180 H 301.991 -0.348149 0.881757 0
M  V30 3181 H 301.697 -1.82342 3.0074 0
M  V30 3182 H 301.571 -3.22407 1.95789 0
M  V30 3183 H 303.958 -2.74186 1.09116 0
M  V30 3184 H 304.039 -1.34585 2.17533 0
M  V30 3185 H 303.683 -2.90146 4.16867 0
M  V30 3186 H 303.613 -4.28971 3.05437 0
M  V30 3187 H 306.104 -2.8267 2.50811 0
M  V30 3188 H 306.417 -5.34661 5.57994 0
M  V30 3189 H 304.762 -4.81337 5.01338 0
M  V30 3190 H 307.953 -3.44491 3.16928 0
M  V30 3191 H 308.126 -4.59417 4.5699 0
M  V30 3192 N 301.532 -0.945985 -1.26051 0
M  V30 3193 C 302.948 -0.649045 -1.45807 0
M  V30 3194 C 303.148 0.796158 -1.85104 0
M  V30 3195 O 302.204 1.57233 -1.97571 0
M  V30 3196 C 303.517 -1.61458 -2.53677 0
M  V30 3197 C 305.065 -1.62481 -2.67524 0
M  V30 3198 C 305.54 -2.57776 -3.7857 0
M  V30 3199 N 307.031 -2.5609 -3.85969 0
M  V30 3200 C 307.766 -3.26508 -4.7136 0
M  V30 3201 N 307.262 -4.0637 -5.61102 0
M  V30 3202 N 309.055 -3.15437 -4.65248 0
M  V30 3203 H 301.206 -1.88005 -0.988328 0
M  V30 3204 H 303.469 -0.808198 -0.4955 0
M  V30 3205 H 303.175 -2.64644 -2.31638 0
M  V30 3206 H 303.049 -1.37036 -3.51427 0
M  V30 3207 H 305.436 -0.600167 -2.88933 0
M  V30 3208 H 305.517 -1.90958 -1.70202 0
M  V30 3209 H 305.161 -3.60361 -3.57913 0
M  V30 3210 H 305.091 -2.26587 -4.75359 0
M  V30 3211 H 307.582 -1.98105 -3.21812 0
M  V30 3212 H 307.895 -4.57042 -6.23164 0
M  V30 3213 H 306.24 -4.10469 -5.60839 0
M  V30 3214 H 309.431 -2.52525 -3.94143 0
M  V30 3215 H 309.604 -3.70584 -5.31575 0
M  V30 3216 N 303.011 1.40521 -0.713556 0
M  V30 3217 C 303.941 2.33381 -0.0743864 0
M  V30 3218 C 304.922 1.52784 0.747735 0
M  V30 3219 O 306.107 1.81258 0.697071 0
M  V30 3220 C 303.237 3.36748 0.849598 0
M  V30 3221 C 302.191 4.27793 0.133247 0
M  V30 3222 C 301.517 5.21679 1.17281 0
M  V30 3223 C 302.817 5.12415 -1.01134 0
M  V30 3224 H 304.511 2.87081 -0.850007 0
M  V30 3225 H 302.057 1.38034 -0.410201 0
M  V30 3226 H 304.01 4.00648 1.30612 0
M  V30 3227 H 302.734 2.81439 1.65709 0
M  V30 3228 H 301.393 3.65342 -0.303426 0
M  V30 3229 H 301.041 4.62677 1.9733 0
M  V30 3230 H 300.741 5.83435 0.698397 0
M  V30 3231 H 302.265 5.88456 1.62947 0
M  V30 3232 H 303.679 5.69781 -0.634274 0
M  V30 3233 H 302.076 5.83203 -1.41399 0
M  V30 3234 H 303.146 4.48514 -1.84292 0
M  V30 3235 N 304.489 0.459591 1.5075 0
M  V30 3236 C 305.437 -0.354678 2.2988 0
M  V30 3237 C 306.431 -1.00086 1.36672 0
M  V30 3238 O 307.637 -0.933277 1.53915 0
M  V30 3239 H 304.012 -0.13321 0.740107 0
M  V30 3240 H 305.983 0.333269 2.96533 0
M  V30 3241 C 304.732 -1.43073 3.169 0
M  V30 3242 H 304.055 -0.942882 3.88523 0
M  V30 3243 H 305.495 -1.97328 3.75284 0
M  V30 3244 C 303.954 -2.42633 2.33732 0
M  V30 3245 O 304.484 -3.47658 2.01238 0
M  V30 3246 N 302.69 -2.14066 1.9653 0
M  V30 3247 H 302.237 -1.28685 2.23155 0
M  V30 3248 H 302.195 -2.80917 1.41185 0
M  V30 3249 N 305.967 -1.56429 0.191757 0
M  V30 3250 C 306.915 -2.20273 -0.747174 0
M  V30 3251 C 307.909 -1.17288 -1.22229 0
M  V30 3252 O 309.115 -1.35441 -1.18557 0
M  V30 3253 H 305.49 -0.705885 -0.259289 0
M  V30 3254 H 307.461 -2.97826 -0.184963 0
M  V30 3255 C 306.21 -2.87356 -1.95759 0
M  V30 3256 H 305.533 -3.66341 -1.60106 0
M  V30 3257 H 306.973 -3.3547 -2.59299 0
M  V30 3258 C 305.432 -1.88213 -2.79423 0
M  V30 3259 O 305.962 -1.38033 -3.7724 0
M  V30 3260 N 304.168 -1.56516 -2.44849 0
M  V30 3261 H 303.715 -1.97516 -1.65364 0
M  V30 3262 H 303.673 -0.904369 -3.01112 0
M  V30 3263 N 307.445 0.0818655 -1.57387 0
M  V30 3264 C 308.861 0.436412 -1.53517 0
M  V30 3265 C 309.061 1.79758 -0.910459 0
M  V30 3266 O 308.117 2.47324 -0.508636 0
M  V30 3267 C 309.43 0.386734 -2.98203 0
M  V30 3268 C 310.978 0.467644 -3.09487 0
M  V30 3269 C 311.453 0.447978 -4.55804 0
M  V30 3270 N 312.944 0.508348 -4.60402 0
M  V30 3271 C 313.679 0.515184 -5.71081 0
M  V30 3272 N 313.175 0.477435 -6.91153 0
M  V30 3273 N 314.968 0.560988 -5.59294 0
M  V30 3274 H 307.119 -0.809546 -1.96367 0
M  V30 3275 H 309.382 -0.302733 -0.898363 0
M  V30 3276 H 309.088 -0.546539 -3.47427 0
M  V30 3277 H 308.962 1.20075 -3.57578 0
M  V30 3278 H 311.349 1.39134 -2.60242 0
M  V30 3279 H 311.43 -0.374753 -2.5304 0
M  V30 3280 H 311.074 -0.471826 -5.05704 0
M  V30 3281 H 311.004 1.30777 -5.10103 0
M  V30 3282 H 313.495 0.54218 -3.7399 0
M  V30 3283 H 313.808 0.486299 -7.71268 0
M  V30 3284 H 312.153 0.444278 -6.93579 0
M  V30 3285 H 315.344 0.5881 -4.64391 0
M  V30 3286 H 315.517 0.562846 -6.45551 0
M  V30 3287 N 308.923 1.53595 0.353017 0
M  V30 3288 C 310.172 1.69603 1.09168 0
M  V30 3289 C 310.485 0.460925 1.90092 0
M  V30 3290 O 311.691 0.501774 2.66823 0
M  V30 3291 C 310.147 2.99872 1.9901 0
M  V30 3292 C 309.755 4.30687 1.23339 0
M  V30 3293 C 311.499 3.25246 2.72792 0
M  V30 3294 C 309.406 5.52036 2.12156 0
M  V30 3295 H 308.336 0.631966 0.411261 0
M  V30 3296 H 310.987 1.80096 0.351802 0
M  V30 3297 H 309.369 2.83212 2.7678 0
M  V30 3298 H 310.543 4.58019 0.505456 0
M  V30 3299 H 308.858 4.11853 0.613663 0
M  V30 3300 H 311.455 4.13095 3.39495 0
M  V30 3301 H 311.798 2.41846 3.38846 0
M  V30 3302 H 312.331 3.42638 2.021 0
M  V30 3303 H 309.07 6.37951 1.50659 0
M  V30 3304 H 308.59 5.28966 2.82764 0
M  V30 3305 H 310.269 5.87313 2.71427 0
M  V30 3306 N 310.401 -0.613514 1.45168 0
M  V30 3307 C 311.631 -1.39743 1.52169 0
M  V30 3308 C 312.039 -1.88596 0.151086 0
M  V30 3309 O 311.382 -1.6251 -0.856521 0
M  V30 3310 C 311.444 -2.64035 2.43979 0
M  V30 3311 C 311.108 -2.36861 3.90827 0
M  V30 3312 C 312.105 -1.97591 4.80889 0
M  V30 3313 C 309.79 -2.49956 4.35692 0
M  V30 3314 C 311.784 -1.71768 6.1382 0
M  V30 3315 C 309.471 -2.23747 5.68665 0
M  V30 3316 C 310.469 -1.84714 6.57548 0
M  V30 3317 O 310.157 -1.58809 7.88058 0
M  V30 3318 H 309.889 -0.434382 0.517966 0
M  V30 3319 H 312.443 -0.75587 1.90986 0
M  V30 3320 H 310.673 -3.3089 2.00122 0
M  V30 3321 H 312.362 -3.26069 2.41731 0
M  V30 3322 H 313.128 -1.87015 4.47493 0
M  V30 3323 H 309.007 -2.79305 3.66756 0
M  V30 3324 H 312.551 -1.41227 6.83155 0
M  V30 3325 H 308.448 -2.33938 6.01617 0
M  V30 3326 H 309.216 -1.7291 8.00028 0
M  V30 3327 N 311.879 -1.3236 -0.855495 0
M  V30 3328 C 312.826 -1.21225 -1.964 0
M  V30 3329 C 313.796 -0.0946204 -1.6583 0
M  V30 3330 O 314.981 -0.27002 -1.8888 0
M  V30 3331 C 312.121 -0.940419 -3.32039 0
M  V30 3332 C 311.234 -2.14276 -3.75113 0
M  V30 3333 C 310.369 -1.80648 -4.9954 0
M  V30 3334 C 309.408 -2.97208 -5.35102 0
M  V30 3335 N 308.545 -2.63678 -6.50706 0
M  V30 3336 H 313.385 -2.16042 -2.05255 0
M  V30 3337 H 310.922 -1.07451 -1.00463 0
M  V30 3338 H 312.88 -0.763311 -4.10158 0
M  V30 3339 H 311.51 -0.0290413 -3.22787 0
M  V30 3340 H 310.562 -2.43017 -2.92655 0
M  V30 3341 H 311.874 -3.01468 -3.97389 0
M  V30 3342 H 311.028 -1.59484 -5.85363 0
M  V30 3343 H 309.767 -0.906678 -4.79198 0
M  V30 3344 H 308.772 -3.19004 -4.47791 0
M  V30 3345 H 309.997 -3.87918 -5.57401 0
M  V30 3346 H 307.943 -1.76238 -6.31883 0
M  V30 3347 H 307.86 -3.444 -6.72997 0
M  V30 3348 H 309.128 -2.45942 -7.39684 0
M  V30 3349 N 313.357 1.07166 -1.15556 0
M  V30 3350 C 314.604 1.79798 -0.931604 0
M  V30 3351 C 314.932 1.8682 0.54115 0
M  V30 3352 O 314.187 1.34942 1.41736 0
M  V30 3353 C 314.486 3.24707 -1.49332 0
M  V30 3354 C 314.152 3.37781 -2.98688 0
M  V30 3355 C 312.814 3.41057 -3.39461 0
M  V30 3356 C 315.166 3.40424 -3.94665 0
M  V30 3357 C 312.494 3.4458 -4.74849 0
M  V30 3358 C 314.846 3.45485 -5.29927 0
M  V30 3359 C 313.51 3.47039 -5.70193 0
M  V30 3360 H 312.78 0.657928 -0.340898 0
M  V30 3361 H 315.427 1.26091 -1.44129 0
M  V30 3362 H 313.732 3.81208 -0.904859 0
M  V30 3363 H 315.429 3.79486 -1.29582 0
M  V30 3364 H 312.019 3.35932 -2.66172 0
M  V30 3365 H 316.203 3.37113 -3.64237 0
M  V30 3366 H 311.459 3.44083 -5.05388 0
M  V30 3367 H 315.633 3.46476 -6.04092 0
M  V30 3368 H 313.26 3.49522 -6.75084 0
M  V30 3369 N 314.835 0.952656 1.25548 0
M  V30 3370 C 316.251 0.656769 1.4546 0
M  V30 3371 C 316.451 -0.78633 1.85524 0
M  V30 3372 O 315.507 -1.56183 1.98402 0
M  V30 3373 C 316.82 1.62801 2.52817 0
M  V30 3374 C 318.368 1.63897 2.66659 0
M  V30 3375 C 318.843 2.5978 3.77198 0
M  V30 3376 N 320.334 2.58133 3.84606 0
M  V30 3377 C 321.069 3.29003 4.69621 0
M  V30 3378 N 320.565 4.09339 5.58939 0
M  V30 3379 N 322.358 3.179 4.63569 0
M  V30 3380 H 314.509 1.88526 0.978344 0
M  V30 3381 H 316.772 0.810815 0.491206 0
M  V30 3382 H 316.478 2.65869 2.30232 0
M  V30 3383 H 316.352 1.38898 3.50695 0
M  V30 3384 H 318.739 0.615481 2.8861 0
M  V30 3385 H 318.82 1.91858 1.69187 0
M  V30 3386 H 318.464 3.62254 3.55997 0
M  V30 3387 H 318.394 2.29105 4.7415 0
M  V30 3388 H 320.885 1.99809 3.20757 0
M  V30 3389 H 321.198 4.6034 6.20731 0
M  V30 3390 H 319.543 4.13438 5.58654 0
M  V30 3391 H 322.734 2.54612 3.92798 0
M  V30 3392 H 322.907 3.73398 5.29602 0
M  V30 3393 N 316.313 -1.40141 0.720998 0
M  V30 3394 C 317.561 -2.0039 0.262323 0
M  V30 3395 C 317.882 -1.57469 -1.15015 0
M  V30 3396 O 317.152 -0.816582 -1.78069 0
M  V30 3397 H 315.732 -0.741063 0.093996 0
M  V30 3398 H 318.394 -1.71398 0.927835 0
M  V30 3399 H 317.49 -3.10658 0.299671 0
M  V30 3400 N 317.792 -0.46758 -1.50504 0
M  V30 3401 C 318.742 0.34698 -2.25344 0
M  V30 3402 C 319.726 0.964469 -1.2879 0
M  V30 3403 O 320.918 0.8776 -1.53711 0
M  V30 3404 C 318.047 1.43042 -3.1208 0
M  V30 3405 C 317.133 0.82084 -4.16081 0
M  V30 3406 N 317.524 -0.0567602 -5.05768 0
M  V30 3407 C 315.822 1.08517 -4.32597 0
M  V30 3408 C 316.523 -0.402343 -5.80307 0
M  V30 3409 N 315.499 0.221607 -5.43148 0
M  V30 3410 H 319.301 -0.329129 -2.92051 0
M  V30 3411 H 316.815 -0.281508 -1.59942 0
M  V30 3412 H 318.812 2.02712 -3.64299 0
M  V30 3413 H 317.472 2.10856 -2.46921 0
M  V30 3414 H 318.483 -0.425349 -5.1615 0
M  V30 3415 H 315.16 1.75855 -3.78657 0
M  V30 3416 H 316.55 -1.11834 -6.62528 0
M  V30 3417 N 319.27 1.56325 -0.20005 0
M  V30 3418 C 320.518 1.97329 0.436547 0
M  V30 3419 C 320.839 1.08826 1.61808 0
M  V30 3420 O 320.109 0.160604 1.95241 0
M  V30 3421 H 318.689 0.728714 0.164272 0
M  V30 3422 H 321.351 1.92761 -0.287937 0
M  V30 3423 H 320.447 3.02264 0.777353 0
M  V30 3424 N 320.748 -0.0735177 1.57428 0
M  V30 3425 C 321.695 -1.08756 2.0357 0
M  V30 3426 C 322.665 -1.38559 0.916 0
M  V30 3427 O 323.85 -1.49656 1.18354 0
M  V30 3428 C 320.99 -2.39657 2.48311 0
M  V30 3429 C 320.103 -2.16399 3.73892 0
M  V30 3430 C 319.238 -3.40852 4.07423 0
M  V30 3431 C 318.277 -3.1295 5.2605 0
M  V30 3432 N 317.414 -4.29729 5.55228 0
M  V30 3433 H 322.254 -0.687104 2.8997 0
M  V30 3434 H 319.791 -0.327709 1.43403 0
M  V30 3435 H 321.749 -3.16081 2.72303 0
M  V30 3436 H 320.379 -2.77508 1.64891 0
M  V30 3437 H 319.431 -1.30676 3.57251 0
M  V30 3438 H 320.743 -1.91788 4.60455 0
M  V30 3439 H 319.897 -4.25671 4.32306 0
M  V30 3440 H 318.636 -3.68537 3.19425 0
M  V30 3441 H 317.641 -2.26526 5.00965 0
M  V30 3442 H 318.866 -2.86589 6.15665 0
M  V30 3443 H 316.812 -4.57448 4.70188 0
M  V30 3444 H 316.729 -4.08385 6.36206 0
M  V30 3445 H 317.997 -5.1555 5.84661 0
M  V30 3446 N 322.226 -1.5378 -0.344866 0
M  V30 3447 C 323.189 -1.80981 -1.40637 0
M  V30 3448 C 324.189 -0.680816 -1.45676 0
M  V30 3449 O 325.379 -0.949095 -1.46075 0
M  V30 3450 C 322.511 -1.95063 -2.79577 0
M  V30 3451 H 323.704 -2.75803 -1.17783 0
M  V30 3452 H 321.257 -1.45173 -0.579181 0
M  V30 3453 H 321.992 -1.02379 -3.07716 0
M  V30 3454 H 321.777 -2.77198 -2.77315 0
M  V30 3455 H 323.267 -2.17629 -3.56409 0
M  V30 3456 N 323.704 0.605807 -1.45491 0
M  V30 3457 C 324.95 1.36481 -1.50813 0
M  V30 3458 C 325.305 1.91826 -0.148469 0
M  V30 3459 O 324.598 1.72211 0.839869 0
M  V30 3460 C 324.792 2.53012 -2.52428 0
M  V30 3461 C 324.621 2.09078 -3.98141 0
M  V30 3462 C 323.391 1.95167 -4.66088 0
M  V30 3463 C 325.589 1.66438 -4.86624 0
M  V30 3464 N 323.571 1.45062 -5.96515 0
M  V30 3465 C 324.942 1.27761 -6.06694 0
M  V30 3466 C 326.997 1.54046 -4.7347 0
M  V30 3467 C 325.7 0.779286 -7.15066 0
M  V30 3468 C 327.726 1.05618 -5.81892 0
M  V30 3469 C 327.088 0.67906 -7.01119 0
M  V30 3470 H 323.187 0.493267 -0.606805 0
M  V30 3471 H 325.771 0.692347 -1.81974 0
M  V30 3472 H 323.942 3.17851 -2.23215 0
M  V30 3473 H 325.674 3.19897 -2.47887 0
M  V30 3474 H 322.429 2.16407 -4.21266 0
M  V30 3475 H 322.853 1.22237 -6.65873 0
M  V30 3476 H 327.495 1.81827 -3.81705 0
M  V30 3477 H 325.213 0.489026 -8.06619 0
M  V30 3478 H 328.799 0.964529 -5.73749 0
M  V30 3479 H 327.679 0.310091 -7.83587 0
M  V30 3480 N 325.182 1.32811 0.848464 0
M  V30 3481 C 326.459 1.14334 1.58704 0
M  V30 3482 C 326.839 -0.293948 2.09043 0
M  V30 3483 O 326.187 -1.29153 1.88499 0
M  V30 3484 C 326.397 2.17626 2.72837 0
M  V30 3485 C 327.745 2.51282 3.42261 0
M  V30 3486 O 328.769 2.16219 2.83068 0
M  V30 3487 O 327.628 3.11413 4.49093 0
M  V30 3488 H 324.722 0.441601 0.699226 0
M  V30 3489 H 327.268 1.44362 0.892053 0
M  V30 3490 H 326.04 3.14211 2.3321 0
M  V30 3491 H 325.663 1.88628 3.50008 0
M  V30 3492 N 326.66 -1.06551 1.16123 0
M  V30 3493 C 327.906 -1.79719 0.952505 0
M  V30 3494 C 328.261 -1.85396 -0.514385 0
M  V30 3495 O 327.554 -1.33263 -1.37665 0
M  V30 3496 C 327.748 -3.23911 1.51052 0
M  V30 3497 C 327.577 -3.32284 3.03013 0
M  V30 3498 C 326.347 -3.42371 3.71632 0
M  V30 3499 C 328.545 -3.22363 4.00732 0
M  V30 3500 N 326.527 -3.39732 5.11327 0
M  V30 3501 C 327.898 -3.26937 5.26794 0
M  V30 3502 C 329.953 -3.0623 3.92591 0
M  V30 3503 C 328.656 -3.17035 6.45663 0
M  V30 3504 C 330.682 -2.97665 5.11028 0
M  V30 3505 C 330.044 -3.02858 6.35969 0
M  V30 3506 H 326.143 -0.670585 0.402293 0
M  V30 3507 H 328.727 -1.27125 1.4747 0
M  V30 3508 H 326.898 -3.74907 1.01484 0
M  V30 3509 H 328.63 -3.85242 1.2398 0
M  V30 3510 H 325.385 -3.47058 3.22254 0
M  V30 3511 H 325.809 -3.41919 5.84312 0
M  V30 3512 H 330.451 -3.01063 2.96852 0
M  V30 3513 H 328.169 -3.2096 7.41627 0
M  V30 3514 H 331.755 -2.86273 5.06497 0
M  V30 3515 H 330.635 -2.96286 7.26075 0
M  V30 3516 N 328.138 -0.959301 -1.25041 0
M  V30 3517 C 329.048 -0.489994 -2.29426 0
M  V30 3518 C 330.064 0.444944 -1.68215 0
M  V30 3519 O 331.24 0.320046 -1.98841 0
M  V30 3520 C 328.305 0.220309 -3.45999 0
M  V30 3521 C 327.366 -0.753418 -4.22637 0
M  V30 3522 C 326.599 -0.076918 -5.33645 0
M  V30 3523 O 326.822 1.13649 -5.58963 0
M  V30 3524 O 325.756 -0.764824 -5.97021 0
M  V30 3525 H 329.582 -1.35755 -2.71669 0
M  V30 3526 H 327.167 -0.725961 -1.30576 0
M  V30 3527 H 329.049 0.619677 -4.16819 0
M  V30 3528 H 327.724 1.06296 -3.0575 0
M  V30 3529 H 326.631 -1.20308 -3.54227 0
M  V30 3530 H 327.964 -1.56423 -4.66683 0
M  V30 3531 N 329.616 1.39756 -0.72842 0
M  V30 3532 C 330.862 2.00942 -0.273892 0
M  V30 3533 C 331.195 1.57656 1.13394 0
M  V30 3534 O 330.47 0.802434 1.77176 0
M  V30 3535 C 330.753 3.58211 -0.368346 0
M  V30 3536 C 330.606 4.11534 -1.81548 0
M  V30 3537 C 331.925 4.39372 0.253054 0
M  V30 3538 H 329.044 0.730047 -0.100996 0
M  V30 3539 H 331.686 1.66056 -0.923337 0
M  V30 3540 H 329.836 3.88061 0.184588 0
M  V30 3541 H 331.508 3.92431 -2.42478 0
M  V30 3542 H 329.751 3.65341 -2.33898 0
M  V30 3543 H 330.422 5.20682 -1.83288 0
M  V30 3544 H 332.898 4.15527 -0.218224 0
M  V30 3545 H 331.774 5.48677 0.156585 0
M  V30 3546 H 332.035 4.21358 1.33826 0
M  V30 3547 N 331.094 0.475555 1.50254 0
M  V30 3548 C 332.371 -0.139685 1.95101 0
M  V30 3549 C 332.751 -1.56555 1.41611 0
M  V30 3550 O 332.099 -2.19956 0.618993 0
M  V30 3551 C 332.309 -0.0784298 3.48912 0
M  V30 3552 C 333.657 -0.265095 4.23772 0
M  V30 3553 O 334.681 -0.154808 3.55863 0
M  V30 3554 O 333.54 -0.488327 5.44314 0
M  V30 3555 H 330.634 -0.109236 0.819754 0
M  V30 3556 H 333.18 0.536276 1.61004 0
M  V30 3557 H 331.952 0.916918 3.80405 0
M  V30 3558 H 331.575 -0.795655 3.89558 0
M  V30 3559 N 332.573 -1.56217 0.208337 0
M  V30 3560 C 333.801 -2.02337 -0.43215 0
M  V30 3561 C 334.216 -1.08834 -1.54275 0
M  V30 3562 O 333.573 -0.0955462 -1.8225 0
M  V30 3563 C 333.624 -3.48072 -0.976138 0
M  V30 3564 O 333.345 -4.38007 0.0901621 0
M  V30 3565 C 334.846 -4.09773 -1.69119 0
M  V30 3566 H 332.066 -0.662385 -0.10718 0
M  V30 3567 H 334.61 -2.01966 0.320923 0
M  V30 3568 H 332.765 -3.49099 -1.67954 0
M  V30 3569 H 333.179 -5.23543 -0.316701 0
M  V30 3570 H 334.653 -5.13556 -2.02397 0
M  V30 3571 H 335.13 -3.53999 -2.59964 0
M  V30 3572 H 335.736 -4.12556 -1.03332 0
M  V30 3573 N 334.051 0.0651679 -1.57465 0
M  V30 3574 C 334.961 1.09448 -2.07505 0
M  V30 3575 C 335.977 1.41974 -1.00595 0
M  V30 3576 O 337.153 1.52018 -1.32107 0
M  V30 3577 C 334.218 2.38689 -2.51453 0
M  V30 3578 C 333.279 2.13073 -3.72691 0
M  V30 3579 C 332.512 3.36152 -4.14533 0
M  V30 3580 O 332.735 4.45517 -3.56189 0
M  V30 3581 O 331.669 3.23974 -5.07272 0
M  V30 3582 H 335.495 0.69935 -2.95538 0
M  V30 3583 H 333.08 0.279752 -1.46757 0
M  V30 3584 H 334.962 3.14736 -2.80212 0
M  V30 3585 H 333.637 2.77568 -1.66546 0
M  V30 3586 H 332.544 1.34709 -3.49005 0
M  V30 3587 H 333.877 1.79071 -4.5847 0
M  V30 3588 N 335.529 1.53961 0.336706 0
M  V30 3589 C 336.477 1.83136 1.43401 0
M  V30 3590 C 337.471 0.702313 1.54156 0
M  V30 3591 O 338.677 0.885765 1.56698 0
M  V30 3592 H 335.052 0.580309 0.478273 0
M  V30 3593 H 337.023 2.74925 1.16012 0
M  V30 3594 C 335.772 2.06385 2.79822 0
M  V30 3595 H 335.095 2.92718 2.72316 0
M  V30 3596 H 336.535 2.30761 3.55704 0
M  V30 3597 C 334.994 0.851414 3.25964 0
M  V30 3598 O 335.524 0.0541904 4.01663 0
M  V30 3599 N 333.73 0.66672 2.82848 0
M  V30 3600 H 333.277 1.31665 2.21409 0
M  V30 3601 H 333.235 -0.143032 3.14074 0
M  V30 3602 N 337.007 -0.598083 1.45811 0
M  V30 3603 C 338.255 -1.35413 1.50026 0
M  V30 3604 C 338.576 -1.94444 0.147177 0
M  V30 3605 O 337.846 -1.77701 -0.824571 0
M  V30 3606 H 336.426 -0.502727 0.552517 0
M  V30 3607 H 339.088 -0.701606 1.81834 0
M  V30 3608 H 338.184 -2.16871 2.2444 0
M  V30 3609 N 338.485 -1.33259 -0.841409 0
M  V30 3610 C 339.433 -1.23279 -1.97244 0
M  V30 3611 C 340.427 -0.134706 -1.68864 0
M  V30 3612 O 341.633 -0.298501 -1.77508 0
M  V30 3613 H 338.008 -0.382497 -0.647457 0
M  V30 3614 H 339.979 -2.18906 -2.02787 0
M  V30 3615 C 338.728 -0.986268 -3.33419 0
M  V30 3616 H 338.051 -1.82347 -3.55794 0
M  V30 3617 H 339.491 -0.956728 -4.13065 0
M  V30 3618 C 337.95 0.310842 -3.35463 0
M  V30 3619 O 338.48 1.31838 -3.79449 0
M  V30 3620 N 336.686 0.337485 -2.88634 0
M  V30 3621 H 336.233 -0.482967 -2.53032 0
M  V30 3622 H 336.191 1.20518 -2.90384 0
M  V30 3623 N 339.963 1.05934 -1.16686 0
M  V30 3624 C 341.193 1.82226 -0.973515 0
M  V30 3625 C 341.601 1.8297 0.481532 0
M  V30 3626 O 340.944 1.25009 1.34604 0
M  V30 3627 C 341.006 3.29897 -1.42858 0
M  V30 3628 C 340.67 3.52849 -2.90425 0
M  V30 3629 C 341.667 3.45595 -3.88407 0
M  V30 3630 C 339.352 3.80053 -3.28428 0
M  V30 3631 C 341.346 3.65217 -5.22394 0
M  V30 3632 C 339.033 3.99325 -4.62583 0
M  V30 3633 C 340.031 3.91905 -5.59374 0
M  V30 3634 O 339.719 4.10647 -6.91104 0
M  V30 3635 H 339.451 0.581314 -0.345036 0
M  V30 3636 H 342.005 1.3453 -1.55212 0
M  V30 3637 H 340.235 3.78472 -0.793477 0
M  V30 3638 H 341.924 3.87692 -1.20207 0
M  V30 3639 H 342.69 3.24564 -3.60393 0
M  V30 3640 H 338.569 3.84936 -2.53664 0
M  V30 3641 H 342.113 3.59341 -5.9793 0
M  V30 3642 H 338.01 4.19846 -4.90306 0
M  V30 3643 H 338.778 4.27915 -6.97733 0
M  V30 3644 N 341.441 0.965919 1.2453 0
M  V30 3645 C 342.718 0.543777 1.87889 0
M  V30 3646 C 343.098 -0.97909 1.87021 0
M  V30 3647 O 342.446 -1.84969 1.3416 0
M  V30 3648 C 342.656 1.13327 3.30088 0
M  V30 3649 C 344.004 1.21707 4.06783 0
M  V30 3650 O 345.028 1.08566 3.39252 0
M  V30 3651 O 343.887 1.42456 5.27606 0
M  V30 3652 H 340.981 0.181054 0.806938 0
M  V30 3653 H 343.527 1.06007 1.32516 0
M  V30 3654 H 342.299 2.17612 3.25209 0
M  V30 3655 H 341.922 0.600911 3.93033 0
M  V30 3656 N 342.919 -1.39368 0.735821 0
M  V30 3657 C 344.149 -2.04498 0.293967 0
M  V30 3658 C 344.557 -1.55593 -1.07645 0
M  V30 3659 O 343.9 -0.716324 -1.69158 0
M  V30 3660 C 343.962 -3.58836 0.218342 0
M  V30 3661 C 343.626 -4.30721 1.52736 0
M  V30 3662 C 344.623 -4.57305 2.47322 0
M  V30 3663 C 342.308 -4.69251 1.79189 0
M  V30 3664 C 344.302 -5.21429 3.66593 0
M  V30 3665 C 341.989 -5.33104 2.98737 0
M  V30 3666 C 342.987 -5.59125 3.9226 0
M  V30 3667 O 342.675 -6.21653 5.09708 0
M  V30 3668 H 342.407 -0.664118 0.126189 0
M  V30 3669 H 344.961 -1.79385 1.00051 0
M  V30 3670 H 343.191 -3.8285 -0.544314 0
M  V30 3671 H 344.88 -4.05447 -0.191626 0
M  V30 3672 H 345.646 -4.27983 2.28156 0
M  V30 3673 H 341.525 -4.48354 1.07239 0
M  V30 3674 H 345.069 -5.41656 4.39607 0
M  V30 3675 H 340.966 -5.61846 3.17803 0
M  V30 3676 H 341.734 -6.40146 5.10054 0
M  V30 3677 N 344.397 -0.483516 -1.5 0
M  V30 3678 C 345.327 0.293829 -2.31644 0
M  V30 3679 C 346.308 0.978864 -1.39112 0
M  V30 3680 O 347.493 0.973644 -1.68029 0
M  V30 3681 C 344.623 1.36897 -3.19181 0
M  V30 3682 C 343.577 0.804833 -4.20365 0
M  V30 3683 C 342.903 1.9792 -4.96721 0
M  V30 3684 C 344.203 -0.192313 -5.21946 0
M  V30 3685 H 345.897 -0.387616 -2.9688 0
M  V30 3686 H 343.443 -0.187856 -1.42769 0
M  V30 3687 H 345.396 1.92037 -3.751 0
M  V30 3688 H 344.12 2.07936 -2.51853 0
M  V30 3689 H 342.779 0.275319 -3.65565 0
M  V30 3690 H 342.427 2.67686 -4.25856 0
M  V30 3691 H 342.127 1.60789 -5.65173 0
M  V30 3692 H 343.651 2.53526 -5.55479 0
M  V30 3693 H 345.065 0.270333 -5.72662 0
M  V30 3694 H 343.462 -0.478543 -5.98189 0
M  V30 3695 H 344.532 -1.11409 -4.71928 0
M  V30 3696 N 345.875 1.56104 -0.216619 0
M  V30 3697 C 346.808 2.16026 0.735395 0
M  V30 3698 C 347.786 1.1032 1.1945 0
M  V30 3699 O 348.97 1.38549 1.27814 0
M  V30 3700 C 346.097 2.73656 1.99575 0
M  V30 3701 C 345.143 3.92146 1.67702 0
M  V30 3702 S 345.976 5.29397 0.806145 0
M  V30 3703 C 347.132 5.90463 2.07617 0
M  V30 3704 H 347.365 2.96439 0.226072 0
M  V30 3705 H 344.898 1.544 -0.00136639 0
M  V30 3706 H 346.856 3.075 2.71945 0
M  V30 3707 H 345.517 1.93245 2.47619 0
M  V30 3708 H 344.71 4.30954 2.61332 0
M  V30 3709 H 344.312 3.59423 1.03398 0
M  V30 3710 H 346.604 6.06136 3.02664 0
M  V30 3711 H 347.547 6.86589 1.73207 0
M  V30 3712 H 347.955 5.19252 2.21445 0
M  V30 3713 N 347.353 -0.0568162 1.57498 0
M  V30 3714 C 348.583 -0.764515 1.91934 0
M  V30 3715 C 348.991 -1.70877 0.81227 0
M  V30 3716 O 348.334 -1.82351 -0.222213 0
M  V30 3717 C 348.396 -1.5994 3.21962 0
M  V30 3718 C 348.06 -0.822925 4.4953 0
M  V30 3719 C 349.057 -0.135464 5.19723 0
M  V30 3720 C 346.742 -0.785666 4.96117 0
M  V30 3721 C 348.736 0.578861 6.34766 0
M  V30 3722 C 346.423 -0.0675784 6.11063 0
M  V30 3723 C 347.421 0.613471 6.80239 0
M  V30 3724 O 347.109 1.31996 7.92989 0
M  V30 3725 H 346.841 -0.221647 0.63863 0
M  V30 3726 H 349.395 -0.0268218 2.05382 0
M  V30 3727 H 347.625 -2.38026 3.04763 0
M  V30 3728 H 349.314 -2.18715 3.41934 0
M  V30 3729 H 350.08 -0.155458 4.84751 0
M  V30 3730 H 345.959 -1.30524 4.42136 0
M  V30 3731 H 349.503 1.111 6.88696 0
M  V30 3732 H 345.4 -0.0455636 6.45484 0
M  V30 3733 H 346.168 1.23077 8.09194 0
M  V30 3734 N 348.832 -1.54138 -0.328536 0
M  V30 3735 C 349.795 -1.82462 -1.38709 0
M  V30 3736 C 350.795 -0.696229 -1.44946 0
M  V30 3737 O 351.985 -0.964535 -1.4506 0
M  V30 3738 C 349.117 -1.98018 -2.77492 0
M  V30 3739 H 350.31 -2.77037 -1.14851 0
M  V30 3740 H 347.863 -1.45779 -0.563751 0
M  V30 3741 H 348.598 -1.05637 -3.06613 0
M  V30 3742 H 348.383 -2.80124 -2.74359 0
M  V30 3743 H 349.873 -2.21396 -3.54081 0
M  V30 3744 N 350.31 0.590341 -1.46126 0
M  V30 3745 C 351.587 1.35029 -1.41515 0
M  V30 3746 C 351.967 2.10888 -0.0946472 0
M  V30 3747 O 351.315 2.08998 0.923693 0
M  V30 3748 C 351.525 2.28269 -2.63997 0
M  V30 3749 C 352.873 2.90338 -3.09821 0
M  V30 3750 O 353.897 2.38585 -2.64492 0
M  V30 3751 O 352.756 3.84321 -3.88535 0
M  V30 3752 H 349.85 0.606317 -0.562413 0
M  V30 3753 H 352.396 0.611994 -1.58281 0
M  V30 3754 H 351.168 1.71591 -3.51671 0
M  V30 3755 H 350.791 3.0945 -2.49652 0
M  V30 3756 N 351.788 1.33704 0.83433 0
M  V30 3757 C 353.037 1.24763 1.58484 0
M  V30 3758 C 353.35 -0.183775 1.94735 0
M  V30 3759 O 354.556 -0.395234 2.68608 0
M  V30 3760 C 353.012 2.18638 2.85876 0
M  V30 3761 C 352.62 3.66974 2.56971 0
M  V30 3762 C 354.364 2.18581 3.63899 0
M  V30 3763 C 352.271 4.5275 3.80488 0
M  V30 3764 H 351.201 0.463425 0.594772 0
M  V30 3765 H 353.852 1.58797 0.919551 0
M  V30 3766 H 352.234 1.77542 3.5397 0
M  V30 3767 H 353.408 4.16538 1.9706 0
M  V30 3768 H 351.723 3.69366 1.92244 0
M  V30 3769 H 354.32 2.79894 4.55591 0
M  V30 3770 H 354.663 1.18207 3.99165 0
M  V30 3771 H 355.196 2.58062 3.02735 0
M  V30 3772 H 351.935 5.54017 3.5035 0
M  V30 3773 H 351.455 4.07927 4.39722 0
M  V30 3774 H 353.134 4.66784 4.4802 0
M  V30 3775 N 353.266 -1.05314 1.17247 0
M  V30 3776 C 354.543 -1.75184 0.87005 0
M  V30 3777 C 354.923 -2.01481 -0.629965 0
M  V30 3778 O 354.271 -1.64988 -1.58086 0
M  V30 3779 C 354.481 -3.04594 1.70363 0
M  V30 3780 C 355.829 -3.78567 1.92281 0
M  V30 3781 O 356.853 -3.14461 1.67311 0
M  V30 3782 O 355.712 -4.93755 2.3424 0
M  V30 3783 H 352.806 -0.761729 0.322021 0
M  V30 3784 H 355.352 -1.11493 1.27935 0
M  V30 3785 H 354.124 -2.81201 2.72106 0
M  V30 3786 H 353.747 -3.76022 1.29202 0
M  V30 3787 N 354.744 -0.972509 -1.24016 0
M  V30 3788 C 355.677 -0.45117 -2.23696 0
M  V30 3789 C 356.655 0.477378 -1.55434 0
M  V30 3790 O 357.839 0.407647 -1.84039 0
M  V30 3791 C 354.966 0.34818 -3.36906 0
M  V30 3792 C 354.012 -0.523355 -4.23277 0
M  V30 3793 S 354.845 -1.96647 -4.98087 0
M  V30 3794 C 356.001 -1.17604 -6.14752 0
M  V30 3795 H 356.234 -1.29588 -2.67571 0
M  V30 3796 H 353.767 -0.777903 -1.33372 0
M  V30 3797 H 355.725 0.803387 -4.02562 0
M  V30 3798 H 354.386 1.16792 -2.91579 0
M  V30 3799 H 353.579 0.0906181 -5.03919 0
M  V30 3800 H 353.181 -0.914485 -3.62647 0
M  V30 3801 H 355.473 -0.433434 -6.76112 0
M  V30 3802 H 356.416 -1.95701 -6.8052 0
M  V30 3803 H 356.824 -0.698295 -5.60164 0
M  V30 3804 N 356.222 1.38976 -0.743202 0
M  V30 3805 C 357.499 1.94351 -0.220705 0
M  V30 3806 C 357.879 1.67935 1.2791 0
M  V30 3807 O 357.227 1.01211 2.04862 0
M  V30 3808 C 357.437 3.44426 -0.563171 0
M  V30 3809 C 358.785 4.2144 -0.517046 0
M  V30 3810 O 359.809 3.52661 -0.500846 0
M  V30 3811 O 358.668 5.44032 -0.518806 0
M  V30 3812 H 355.762 0.825879 -0.043047 0
M  V30 3813 H 358.308 1.48429 -0.822618 0
M  V30 3814 H 357.08 3.5712 -1.59941 0
M  V30 3815 H 356.703 3.97543 0.0672883 0
M  V30 3816 N 357.7 0.491464 1.49741 0
M  V30 3817 C 358.65 -0.311086 2.25868 0
M  V30 3818 C 359.634 -0.943857 1.30308 0
M  V30 3819 O 360.826 -0.853035 1.55088 0
M  V30 3820 C 357.955 -1.38059 3.14316 0
M  V30 3821 C 357.041 -0.754541 4.17334 0
M  V30 3822 N 357.432 0.137216 5.05614 0
M  V30 3823 C 355.73 -1.01621 4.34269 0
M  V30 3824 C 356.431 0.494614 5.79593 0
M  V30 3825 N 355.407 -0.135169 5.43432 0
M  V30 3826 H 359.209 0.37555 2.91491 0
M  V30 3827 H 356.723 0.306917 1.59473 0
M  V30 3828 H 358.72 -1.96891 3.67477 0
M  V30 3829 H 357.38 -2.06901 2.50244 0
M  V30 3830 H 358.391 0.50741 5.15408 0
M  V30 3831 H 355.068 -1.69808 3.81407 0
M  V30 3832 H 356.458 1.2236 6.60665 0
M  V30 3833 N 359.178 -1.55987 0.224894 0
M  V30 3834 C 360.589 -1.84553 -0.282345 0
M  V30 3835 C 360.94 -1.14634 -1.59227 0
M  V30 3836 O 360.065 -0.417155 -2.12341 0
M  V30 3837 C 360.66 -3.348 -0.519062 0
M  V30 3838 C 359.219 -3.63671 -0.970604 0
M  V30 3839 C 358.366 -2.77277 -0.0355261 0
M  V30 3840 H 361.317 -1.52245 0.448006 0
M  V30 3841 H 361.338 -3.55187 -1.36463 0
M  V30 3842 H 360.85 -3.8566 0.43449 0
M  V30 3843 H 358.951 -3.1827 -1.9374 0
M  V30 3844 H 359.064 -4.71631 -0.842698 0
M  V30 3845 H 357.428 -2.48846 -0.542927 0
M  V30 3846 H 358.211 -3.30937 0.913003 0
M  V30 3847 N 360.656 0.0484629 -1.57525 0
M  V30 3848 C 361.566 1.07241 -2.08654 0
M  V30 3849 C 362.582 1.409 -1.02095 0
M  V30 3850 O 363.758 1.50609 -1.33712 0
M  V30 3851 C 360.823 2.36008 -2.5397 0
M  V30 3852 C 359.884 2.09108 -3.7493 0
M  V30 3853 C 359.117 3.31736 -4.18075 0
M  V30 3854 O 359.34 4.41714 -3.60895 0
M  V30 3855 O 358.274 3.18576 -5.10679 0
M  V30 3856 H 362.1 0.667965 -2.96263 0
M  V30 3857 H 359.685 0.26417 -1.47046 0
M  V30 3858 H 361.567 3.11747 -2.83535 0
M  V30 3859 H 360.242 2.75786 -1.69481 0
M  V30 3860 H 359.149 1.31 -3.50414 0
M  V30 3861 H 360.482 1.74198 -4.60343 0
M  V30 3862 N 362.134 1.5431 0.320358 0
M  V30 3863 C 363.38 1.72924 1.05949 0
M  V30 3864 C 363.713 0.503185 1.87568 0
M  V30 3865 O 362.988 -0.499839 1.87968 0
M  V30 3866 C 363.271 3.00676 1.98156 0
M  V30 3867 C 363.124 4.3354 1.19845 0
M  V30 3868 C 364.443 3.24198 2.9763 0
M  V30 3869 H 361.562 0.629195 0.383774 0
M  V30 3870 H 364.204 1.87008 0.335854 0
M  V30 3871 H 362.354 2.888 2.59859 0
M  V30 3872 H 364.026 4.57305 0.605773 0
M  V30 3873 H 362.269 4.309 0.500784 0
M  V30 3874 H 362.94 5.19156 1.87567 0
M  V30 3875 H 365.416 3.35557 2.4605 0
M  V30 3876 H 364.292 4.14938 3.59329 0
M  V30 3877 H 364.553 2.41577 3.7026 0
M  V30 3878 N 363.613 -0.582584 1.46437 0
M  V30 3879 C 364.859 -1.34278 1.51978 0
M  V30 3880 C 365.192 -1.93446 0.170973 0
M  V30 3881 O 364.467 -1.76481 -0.817608 0
M  V30 3882 C 364.75 -2.47203 2.61845 0
M  V30 3883 C 364.603 -1.93069 4.06257 0
M  V30 3884 C 365.922 -3.49247 2.67795 0
M  V30 3885 H 363.041 -0.486876 0.553282 0
M  V30 3886 H 365.683 -0.654437 1.78374 0
M  V30 3887 H 363.833 -3.0592 2.39469 0
M  V30 3888 H 365.505 -1.38808 4.3992 0
M  V30 3889 H 363.748 -1.23898 4.1573 0
M  V30 3890 H 364.419 -2.74586 4.7886 0
M  V30 3891 H 366.895 -3.00411 2.8791 0
M  V30 3892 H 365.771 -4.25719 3.46489 0
M  V30 3893 H 366.032 -4.06482 1.73852 0
M  V30 3894 N 365.091 -1.34144 -0.827227 0
M  V30 3895 C 366.039 -1.25364 -1.95925 0
M  V30 3896 C 367.033 -0.152608 -1.68711 0
M  V30 3897 O 368.239 -0.317311 -1.77181 0
M  V30 3898 H 364.614 -0.389342 -0.643364 0
M  V30 3899 H 366.585 -2.21045 -2.00454 0
M  V30 3900 C 365.334 -1.02158 -3.32354 0
M  V30 3901 H 364.657 -1.86111 -3.5384 0
M  V30 3902 H 366.097 -1.00048 -4.12027 0
M  V30 3903 C 364.556 0.275244 -3.35774 0
M  V30 3904 O 365.086 1.27806 -3.80826 0
M  V30 3905 N 363.292 0.306853 -2.88975 0
M  V30 3906 H 362.839 -0.509777 -2.52506 0
M  V30 3907 H 362.797 1.17432 -2.91646 0
M  V30 3908 N 366.569 1.04691 -1.17803 0
M  V30 3909 C 367.479 2.16057 -0.914151 0
M  V30 3910 C 368.495 1.73589 0.119503 0
M  V30 3911 O 369.671 2.01308 -0.0609468 0
M  V30 3912 C 366.736 3.4394 -0.436603 0
M  V30 3913 C 365.797 4.00825 -1.53746 0
M  V30 3914 C 365.03 5.22604 -1.0826 0
M  V30 3915 O 365.253 5.70367 0.0612244 0
M  V30 3916 O 364.187 5.7186 -1.87775 0
M  V30 3917 H 368.013 2.41169 -1.84584 0
M  V30 3918 H 365.598 1.1453 -0.959334 0
M  V30 3919 H 367.48 4.21024 -0.178057 0
M  V30 3920 H 366.155 3.20316 0.466869 0
M  V30 3921 H 365.062 3.25158 -1.84995 0
M  V30 3922 H 366.395 4.28778 -2.41683 0
M  V30 3923 N 368.047 0.979072 1.23499 0
M  V30 3924 C 368.977 0.537606 2.27227 0
M  V30 3925 C 369.958 -0.428539 1.64613 0
M  V30 3926 O 371.143 -0.322191 1.91509 0
M  V30 3927 C 368.273 -0.162052 3.46922 0
M  V30 3928 C 367.227 0.721242 4.21879 0
M  V30 3929 C 366.553 -0.110555 5.34586 0
M  V30 3930 C 367.853 2.01141 4.82016 0
M  V30 3931 H 369.547 1.40462 2.64406 0
M  V30 3932 H 367.093 0.67684 1.27102 0
M  V30 3933 H 369.046 -0.482192 4.18632 0
M  V30 3934 H 367.77 -1.06351 3.08799 0
M  V30 3935 H 366.429 1.02482 3.51984 0
M  V30 3936 H 366.077 -1.0125 4.92704 0
M  V30 3937 H 365.777 0.477325 5.85658 0
M  V30 3938 H 367.301 -0.425107 6.09118 0
M  V30 3939 H 368.715 1.75612 5.45741 0
M  V30 3940 H 367.112 2.54695 5.43369 0
M  V30 3941 H 368.182 2.69909 4.02836 0
M  V30 3942 N 369.525 -1.3858 0.750561 0
M  V30 3943 C 370.941 -1.53759 0.427824 0
M  V30 3944 C 371.141 -1.71401 -1.05943 0
M  V30 3945 O 370.197 -1.72331 -1.84549 0
M  V30 3946 C 371.51 -2.74642 1.22443 0
M  V30 3947 C 373.058 -2.88489 1.2142 0
M  V30 3948 C 373.533 -4.12329 1.9937 0
M  V30 3949 N 375.024 -4.194 1.96616 0
M  V30 3950 C 375.759 -5.14209 2.53727 0
M  V30 3951 N 375.255 -6.14709 3.19539 0
M  V30 3952 N 377.048 -5.06537 2.43673 0
M  V30 3953 H 369.199 -1.25377 1.71447 0
M  V30 3954 H 371.462 -0.608844 0.726645 0
M  V30 3955 H 371.168 -2.68 2.27747 0
M  V30 3956 H 371.042 -3.67745 0.839273 0
M  V30 3957 H 373.429 -2.94614 0.169232 0
M  V30 3958 H 373.51 -1.96406 1.63885 0
M  V30 3959 H 373.154 -4.06966 3.03877 0
M  V30 3960 H 373.084 -5.03486 1.54302 0
M  V30 3961 H 375.575 -3.47421 1.48684 0
M  V30 3962 H 375.888 -6.8354 3.60545 0
M  V30 3963 H 374.233 -6.1505 3.23633 0
M  V30 3964 H 377.424 -4.26962 1.91889 0
M  V30 3965 H 377.597 -5.80245 2.88479 0
M  V30 3966 N 371.003 -0.499398 -1.49478 0
M  V30 3967 C 371.951 0.293604 -2.3074 0
M  V30 3968 C 372.945 0.96427 -1.39277 0
M  V30 3969 O 374.151 0.892141 -1.56336 0
M  V30 3970 H 370.526 0.113541 -0.743379 0
M  V30 3971 H 372.497 -0.411772 -2.95545 0
M  V30 3972 C 371.246 1.3462 -3.20582 0
M  V30 3973 H 370.569 0.83954 -3.90886 0
M  V30 3974 H 372.009 1.87308 -3.80384 0
M  V30 3975 C 370.468 2.36351 -2.40083 0
M  V30 3976 O 370.998 3.422 -2.10385 0
M  V30 3977 N 369.204 2.0878 -2.02137 0
M  V30 3978 H 368.751 1.22723 -2.26488 0
M  V30 3979 H 368.709 2.77075 -1.48583 0
M  V30 3980 N 372.481 1.55866 -0.233164 0
M  V30 3981 C 373.727 1.99643 0.389148 0
M  V30 3982 C 374.082 1.11836 1.56558 0
M  V30 3983 O 373.375 0.170848 1.90837 0
M  V30 3984 C 373.569 3.46856 0.861724 0
M  V30 3985 C 373.398 4.48904 -0.267376 0
M  V30 3986 C 372.168 4.99888 -0.737577 0
M  V30 3987 C 374.366 5.02624 -1.08966 0
M  V30 3988 N 372.348 5.8566 -1.84052 0
M  V30 3989 C 373.719 5.85434 -2.04125 0
M  V30 3990 C 375.774 4.84959 -1.12779 0
M  V30 3991 C 374.477 6.52466 -3.02789 0
M  V30 3992 C 376.503 5.52759 -2.10266 0
M  V30 3993 C 375.865 6.35346 -3.04162 0
M  V30 3994 H 371.964 0.774402 0.108742 0
M  V30 3995 H 374.548 1.91572 -0.347596 0
M  V30 3996 H 372.719 3.55352 1.5678 0
M  V30 3997 H 374.451 3.77531 1.45783 0
M  V30 3998 H 371.206 4.7249 -0.324122 0
M  V30 3999 H 371.63 6.33246 -2.39434 0
M  V30 4000 H 376.272 4.20751 -0.415749 0
M  V30 4001 H 373.99 7.15849 -3.74948 0
M  V30 4002 H 377.576 5.41051 -2.13905 0
M  V30 4003 H 376.456 6.86883 -3.78366 0
M  V30 4004 N 373.959 -0.0401083 1.57549 0
M  V30 4005 C 375.207 -0.731677 1.8839 0
M  V30 4006 C 375.528 -1.76481 0.829425 0
M  V30 4007 O 374.798 -1.95411 -0.1383 0
M  V30 4008 H 373.378 -0.273225 0.695239 0
M  V30 4009 H 376.04 -0.00867725 1.94898 0
M  V30 4010 H 375.136 -1.22816 2.86919 0
M  V30 4011 N 375.437 -1.54477 -0.31217 0
M  V30 4012 C 376.683 -1.73483 -1.0503 0
M  V30 4013 C 377.016 -0.513125 -1.87298 0
M  V30 4014 O 376.291 0.489864 -1.8823 0
M  V30 4015 C 376.574 -3.01723 -1.96558 0
M  V30 4016 C 376.427 -4.3417 -1.17545 0
M  V30 4017 C 377.746 -3.25772 -2.95907 0
M  V30 4018 H 374.865 -0.631222 -0.380432 0
M  V30 4019 H 377.507 -1.87184 -0.325932 0
M  V30 4020 H 375.657 -2.90174 -2.58324 0
M  V30 4021 H 377.329 -4.5762 -0.581513 0
M  V30 4022 H 375.572 -4.31159 -0.477925 0
M  V30 4023 H 376.243 -5.20143 -1.84811 0
M  V30 4024 H 378.719 -3.36857 -2.44267 0
M  V30 4025 H 377.595 -4.16838 -3.57123 0
M  V30 4026 H 377.856 -2.43537 -3.68974 0
M  V30 4027 N 376.915 0.57481 -1.46744 0
M  V30 4028 C 378.161 1.33251 -1.53674 0
M  V30 4029 C 378.516 1.91468 -0.189125 0
M  V30 4030 O 377.809 1.73954 0.803151 0
M  V30 4031 C 378.003 2.476 -2.57738 0
M  V30 4032 C 377.832 2.00586 -4.02487 0
M  V30 4033 C 376.602 1.85237 -4.70123 0
M  V30 4034 C 378.8 1.56078 -4.90045 0
M  V30 4035 N 376.782 1.32377 -5.99458 0
M  V30 4036 C 378.153 1.14863 -6.09267 0
M  V30 4037 C 380.208 1.43968 -4.76632 0
M  V30 4038 C 378.911 0.627435 -7.16558 0
M  V30 4039 C 380.937 0.932512 -5.84002 0
M  V30 4040 C 380.299 0.53019 -7.02402 0
M  V30 4041 H 376.398 0.480284 -0.617131 0
M  V30 4042 H 378.982 0.653592 -1.83402 0
M  V30 4043 H 377.153 3.13045 -2.29907 0
M  V30 4044 H 378.885 3.14567 -2.54616 0
M  V30 4045 H 375.64 2.07423 -4.25761 0
M  V30 4046 H 376.064 1.08085 -6.68316 0
M  V30 4047 H 380.706 1.73689 -3.85476 0
M  V30 4048 H 378.424 0.317821 -8.07475 0
M  V30 4049 H 382.01 0.842611 -5.75666 0
M  V30 4050 H 380.89 0.14381 -7.84068 0
M  V30 4051 N 378.394 1.34581 0.820102 0
M  V30 4052 C 379.624 1.29991 1.6058 0
M  V30 4053 C 380.032 -0.127588 1.88769 0
M  V30 4054 O 379.375 -1.08595 1.48165 0
M  V30 4055 C 379.437 2.02548 2.9701 0
M  V30 4056 C 379.101 3.51794 2.91701 0
M  V30 4057 C 380.098 4.46647 2.66087 0
M  V30 4058 C 377.783 3.94249 3.11245 0
M  V30 4059 C 379.777 5.81929 2.60071 0
M  V30 4060 C 377.464 5.2963 3.04853 0
M  V30 4061 C 378.462 6.23282 2.793 0
M  V30 4062 O 378.15 7.56181 2.72847 0
M  V30 4063 H 377.882 0.448539 0.505756 0
M  V30 4064 H 380.436 1.77811 1.02822 0
M  V30 4065 H 378.666 1.49345 3.56697 0
M  V30 4066 H 380.355 1.91211 3.58041 0
M  V30 4067 H 381.121 4.15168 2.5072 0
M  V30 4068 H 377 3.21749 3.30149 0
M  V30 4069 H 380.544 6.54999 2.40046 0
M  V30 4070 H 376.441 5.60727 3.19774 0
M  V30 4071 H 377.209 7.6595 2.88553 0
M  V30 4072 N 379.872 -1.04064 1.18357 0
M  V30 4073 C 381.1 -1.80916 1.00384 0
M  V30 4074 C 381.515 -1.83414 -0.447738 0
M  V30 4075 O 380.872 -1.26962 -1.31099 0
M  V30 4076 C 380.923 -3.26516 1.55144 0
M  V30 4077 O 380.644 -3.2424 2.94618 0
M  V30 4078 C 382.145 -4.20013 1.41789 0
M  V30 4079 H 379.365 -0.569728 0.354474 0
M  V30 4080 H 381.909 -1.31151 1.56906 0
M  V30 4081 H 380.064 -3.73512 1.02798 0
M  V30 4082 H 380.478 -4.15452 3.20156 0
M  V30 4083 H 381.952 -5.20111 1.84901 0
M  V30 4084 H 382.429 -4.37667 0.36661 0
M  V30 4085 H 383.035 -3.78881 1.93207 0
M  V30 4086 N 381.35 -0.985608 -1.22978 0
M  V30 4087 C 382.298 -0.522631 -2.26652 0
M  V30 4088 C 383.292 0.422998 -1.64034 0
M  V30 4089 O 384.498 0.296319 -1.77544 0
M  V30 4090 H 380.873 -0.150597 -0.736766 0
M  V30 4091 H 382.844 -1.40863 -2.63059 0
M  V30 4092 C 381.593 0.154238 -3.47358 0
M  V30 4093 H 380.916 -0.564329 -3.95797 0
M  V30 4094 H 382.356 0.441744 -4.21693 0
M  V30 4095 C 380.815 1.38719 -3.07016 0
M  V30 4096 O 381.345 2.48307 -3.15764 0
M  V30 4097 N 379.551 1.25975 -2.61875 0
M  V30 4098 H 379.098 0.368068 -2.54957 0
M  V30 4099 H 379.056 2.08578 -2.3525 0
M  V30 4100 N 382.828 1.3818 -0.7579 0
M  V30 4101 C 384.056 2.04301 -0.326937 0
M  V30 4102 C 384.471 1.57163 1.0462 0
M  V30 4103 O 383.828 0.746626 1.66529 0
M  V30 4104 C 383.879 3.59846 -0.345363 0
M  V30 4105 O 383.6 4.05256 -1.66432 0
M  V30 4106 C 385.101 4.4319 0.098927 0
M  V30 4107 H 382.321 0.656443 -0.139012 0
M  V30 4108 H 384.865 1.76786 -1.02796 0
M  V30 4109 H 383.02 3.86182 0.306955 0
M  V30 4110 H 383.434 4.99709 -1.59345 0
M  V30 4111 H 384.908 5.51989 0.0348745 0
M  V30 4112 H 385.385 4.23947 1.14741 0
M  V30 4113 H 385.991 4.22051 -0.52468 0
M  V30 4114 N 384.306 0.507319 1.49211 0
M  V30 4115 C 385.236 -0.256939 2.32082 0
M  V30 4116 C 386.217 -0.956609 1.40652 0
M  V30 4117 O 387.402 -0.946788 1.69557 0
M  V30 4118 C 384.532 -1.31802 3.21318 0
M  V30 4119 C 383.486 -0.737855 4.21592 0
M  V30 4120 C 382.812 -1.89992 4.99807 0
M  V30 4121 C 384.112 0.275325 5.21574 0
M  V30 4122 H 385.806 0.434798 2.96226 0
M  V30 4123 H 383.352 0.210546 1.42452 0
M  V30 4124 H 385.305 -1.86045 3.78107 0
M  V30 4125 H 384.029 -2.03903 2.5513 0
M  V30 4126 H 382.688 -0.217126 3.65956 0
M  V30 4127 H 382.336 -2.60877 4.30061 0
M  V30 4128 H 382.036 -1.51777 5.6766 0
M  V30 4129 H 383.56 -2.44657 5.59442 0
M  V30 4130 H 384.974 -0.179193 5.7302 0
M  V30 4131 H 383.371 0.573649 5.97352 0
M  V30 4132 H 384.441 1.18903 4.70096 0
M  V30 4133 N 385.784 -1.5574 0.241426 0
M  V30 4134 C 387.032 -1.98417 -0.384075 0
M  V30 4135 C 387.353 -1.13078 -1.58866 0
M  V30 4136 O 386.623 -0.212312 -1.94746 0
M  V30 4137 H 385.203 -0.732813 -0.144894 0
M  V30 4138 H 387.865 -1.9193 0.338943 0
M  V30 4139 H 386.961 -3.04219 -0.696939 0
M  V30 4140 N 387.262 0.0317525 -1.57568 0
M  V30 4141 C 388.192 1.03274 -2.0942 0
M  V30 4142 C 389.173 1.3788 -0.996143 0
M  V30 4143 O 390.358 1.46811 -1.27122 0
M  V30 4144 C 387.488 2.33448 -2.57137 0
M  V30 4145 C 386.442 2.13091 -3.71182 0
M  V30 4146 C 385.768 3.49001 -4.05095 0
M  V30 4147 C 387.068 1.51928 -4.99715 0
M  V30 4148 H 388.762 0.60112 -2.93303 0
M  V30 4149 H 386.308 0.287705 -1.41097 0
M  V30 4150 H 388.261 3.03802 -2.92032 0
M  V30 4151 H 386.985 2.78665 -1.70333 0
M  V30 4152 H 385.644 1.45171 -3.36632 0
M  V30 4153 H 385.292 3.91862 -3.15362 0
M  V30 4154 H 384.992 3.36207 -4.81911 0
M  V30 4155 H 386.516 4.20721 -4.42522 0
M  V30 4156 H 387.93 2.12196 -5.32584 0
M  V30 4157 H 386.327 1.49716 -5.81124 0
M  V30 4158 H 387.397 0.484811 -4.8247 0
M  V30 4159 N 388.74 1.54641 0.303973 0
M  V30 4160 C 390.017 1.64455 1.05896 0
M  V30 4161 C 390.397 0.490923 2.05312 0
M  V30 4162 O 389.745 -0.512685 2.22674 0
M  V30 4163 C 389.955 3.02331 1.74347 0
M  V30 4164 C 391.303 3.59045 2.26653 0
M  V30 4165 O 392.327 3.04764 1.84384 0
M  V30 4166 O 391.186 4.54081 3.04093 0
M  V30 4167 H 388.28 0.666729 0.489287 0
M  V30 4168 H 390.826 1.66986 0.302298 0
M  V30 4169 H 389.598 3.77734 1.02142 0
M  V30 4170 H 389.221 3.03565 2.56777 0
M  V30 4171 N 390.218 -0.567019 1.47046 0
M  V30 4172 C 391.466 -1.322 1.52864 0
M  V30 4173 C 391.787 -1.94088 0.188388 0
M  V30 4174 O 391.057 -1.7941 -0.786693 0
M  V30 4175 H 389.637 -0.490894 0.563056 0
M  V30 4176 H 392.299 -0.662879 1.83281 0
M  V30 4177 H 391.395 -2.12062 2.2899 0
M  V30 4178 N 391.696 -1.35014 -0.812953 0
M  V30 4179 C 392.943 -1.27931 -1.56971 0
M  V30 4180 C 393.271 0.148034 -1.93936 0
M  V30 4181 O 392.526 1.11175 -1.61054 0
M  V30 4182 C 392.825 -2.12524 -2.87347 0
M  V30 4183 C 392.491 -3.61401 -2.6963 0
M  V30 4184 C 391.153 -4.01983 -2.64506 0
M  V30 4185 C 393.505 -4.55894 -2.52607 0
M  V30 4186 C 390.833 -5.35235 -2.40293 0
M  V30 4187 C 393.185 -5.89336 -2.29925 0
M  V30 4188 C 391.849 -6.2907 -2.23219 0
M  V30 4189 H 391.119 -0.468131 -0.574399 0
M  V30 4190 H 393.766 -1.66851 -0.939836 0
M  V30 4191 H 392.071 -1.66463 -3.54679 0
M  V30 4192 H 393.768 -2.04383 -3.45005 0
M  V30 4193 H 390.358 -3.29193 -2.74463 0
M  V30 4194 H 394.542 -4.25431 -2.55583 0
M  V30 4195 H 389.798 -5.65028 -2.33566 0
M  V30 4196 H 393.972 -6.62139 -2.15743 0
M  V30 4197 H 391.599 -7.32256 -2.04219 0
M  V30 4198 N 393.175 1.03435 -1.18907 0
M  V30 4199 C 394.591 1.28973 -0.940111 0
M  V30 4200 C 394.791 1.97676 0.390691 0
M  V30 4201 O 393.847 2.26127 1.12352 0
M  V30 4202 C 395.16 2.14221 -2.11021 0
M  V30 4203 C 396.708 2.27547 -2.14922 0
M  V30 4204 C 397.183 3.16164 -3.31367 0
M  V30 4205 N 398.674 3.23752 -3.31269 0
M  V30 4206 C 399.409 3.92495 -4.18014 0
M  V30 4207 N 398.905 4.63515 -5.14904 0
M  V30 4208 N 400.698 3.88838 -4.05908 0
M  V30 4209 H 392.849 0.57252 -2.04538 0
M  V30 4210 H 395.112 0.315184 -0.894071 0
M  V30 4211 H 394.818 1.71054 -3.073 0
M  V30 4212 H 394.692 3.14919 -2.0762 0
M  V30 4213 H 397.079 2.69947 -1.19217 0
M  V30 4214 H 397.16 1.26418 -2.22378 0
M  V30 4215 H 396.804 2.74474 -4.27348 0
M  V30 4216 H 396.734 4.17339 -3.21148 0
M  V30 4217 H 399.225 2.73167 -2.61129 0
M  V30 4218 H 399.538 5.13583 -5.77453 0
M  V30 4219 H 397.883 4.62398 -5.18857 0
M  V30 4220 H 401.074 3.32491 -3.29495 0
M  V30 4221 H 401.247 4.4214 -4.73726 0
M  V30 4222 N 394.653 0.992116 1.22453 0
M  V30 4223 C 395.902 0.662992 1.90492 0
M  V30 4224 C 396.215 -0.808407 1.78113 0
M  V30 4225 O 397.421 -1.24908 2.41061 0
M  V30 4226 C 395.877 1.1353 3.41524 0
M  V30 4227 C 395.485 2.63187 3.62542 0
M  V30 4228 C 397.229 0.880465 4.15269 0
M  V30 4229 C 395.136 3.04024 5.0727 0
M  V30 4230 H 394.066 0.244278 0.713333 0
M  V30 4231 H 396.717 1.20157 1.38688 0
M  V30 4232 H 395.099 0.52485 3.92506 0
M  V30 4233 H 396.273 3.2957 3.22056 0
M  V30 4234 H 394.588 2.86543 3.02129 0
M  V30 4235 H 397.185 1.16128 5.21937 0
M  V30 4236 H 397.528 -0.183408 4.15896 0
M  V30 4237 H 398.061 1.45307 3.70312 0
M  V30 4238 H 394.8 4.09584 5.11782 0
M  V30 4239 H 394.32 2.42343 5.48662 0
M  V30 4240 H 395.999 2.95282 5.75689 0
M  V30 4241 N 396.131 -1.37776 0.765217 0
M  V30 4242 C 397.408 -1.93975 0.251596 0
M  V30 4243 C 397.788 -1.69949 -1.25222 0
M  V30 4244 O 397.136 -1.04457 -2.03226 0
M  V30 4245 C 397.346 -3.43487 0.617895 0
M  V30 4246 C 398.694 -4.20564 0.584029 0
M  V30 4247 O 399.718 -3.5182 0.556888 0
M  V30 4248 O 398.577 -5.43138 0.605291 0
M  V30 4249 H 395.671 -0.82509 0.0561806 0
M  V30 4250 H 398.217 -1.47101 0.846128 0
M  V30 4251 H 396.989 -3.5453 1.65602 0
M  V30 4252 H 396.612 -3.976 -0.00403411 0
M  V30 4253 N 397.609 -0.515225 -1.4894 0
M  V30 4254 C 398.572 0.244681 -2.2789 0
M  V30 4255 C 399.572 0.881166 -1.34507 0
M  V30 4256 O 400.762 0.743497 -1.57537 0
M  V30 4257 C 397.894 1.35247 -3.12923 0
M  V30 4258 H 399.087 -0.448289 -2.96531 0
M  V30 4259 H 396.64 -0.270656 -1.53939 0
M  V30 4260 H 397.375 2.07916 -2.48881 0
M  V30 4261 H 397.16 0.901374 -3.81599 0
M  V30 4262 H 398.65 1.88737 -3.72516 0
M  V30 4263 N 399.087 1.5561 -0.249682 0
M  V30 4264 C 400.333 1.99306 0.374841 0
M  V30 4265 C 400.666 1.13767 1.57387 0
M  V30 4266 O 399.941 0.201711 1.93451 0
M  V30 4267 C 400.224 3.51507 0.781986 0
M  V30 4268 C 400.077 4.4781 -0.422629 0
M  V30 4269 C 401.396 4.08884 1.62793 0
M  V30 4270 H 398.515 0.724572 0.134773 0
M  V30 4271 H 401.157 1.86719 -0.351549 0
M  V30 4272 H 399.307 3.62363 1.4009 0
M  V30 4273 H 400.979 4.48931 -1.06108 0
M  V30 4274 H 399.222 4.20518 -1.06524 0
M  V30 4275 H 399.893 5.51919 -0.0943766 0
M  V30 4276 H 402.369 4.01147 1.10547 0
M  V30 4277 H 401.245 5.1564 1.88166 0
M  V30 4278 H 401.506 3.57515 2.60068 0
M  V30 4279 N 400.565 -0.0233959 1.57583 0
M  V30 4280 C 401.512 -1.02224 2.06927 0
M  V30 4281 C 402.482 -1.35575 0.959617 0
M  V30 4282 O 403.667 -1.45815 1.23055 0
M  V30 4283 C 400.807 -2.31636 2.5581 0
M  V30 4284 C 399.92 -2.04394 3.80588 0
M  V30 4285 C 399.055 -3.27717 4.18061 0
M  V30 4286 C 398.094 -2.96056 5.3574 0
M  V30 4287 N 397.231 -4.11847 5.68618 0
M  V30 4288 H 402.071 -0.594504 2.9201 0
M  V30 4289 H 399.608 -0.281921 1.44373 0
M  V30 4290 H 401.566 -3.07258 2.82221 0
M  V30 4291 H 400.196 -2.72122 1.73636 0
M  V30 4292 H 399.248 -1.19244 3.61227 0
M  V30 4293 H 400.56 -1.77042 4.66323 0
M  V30 4294 H 399.714 -4.11702 4.4563 0
M  V30 4295 H 398.453 -3.58188 3.30988 0
M  V30 4296 H 397.458 -2.10474 5.07918 0
M  V30 4297 H 398.683 -2.66857 6.24471 0
M  V30 4298 H 396.629 -4.42258 4.84504 0
M  V30 4299 H 396.546 -3.87938 6.48876 0
M  V30 4300 H 397.814 -4.96689 6.00766 0
M  V30 4301 N 402.043 -1.548 -0.295768 0
M  V30 4302 C 402.993 -1.82497 -1.3667 0
M  V30 4303 C 403.977 -0.682434 -1.45711 0
M  V30 4304 O 405.169 -0.943207 -1.49775 0
M  V30 4305 C 402.298 -2.08036 -2.73086 0
M  V30 4306 C 401.384 -3.28488 -2.68247 0
M  V30 4307 N 401.775 -4.48924 -2.33025 0
M  V30 4308 C 400.073 -3.3062 -2.99343 0
M  V30 4309 C 400.774 -5.30956 -2.37613 0
M  V30 4310 N 399.75 -4.68805 -2.75178 0
M  V30 4311 H 403.552 -2.73175 -1.0841 0
M  V30 4312 H 401.066 -1.5437 -0.504361 0
M  V30 4313 H 403.063 -2.26027 -3.5031 0
M  V30 4314 H 401.723 -1.18629 -3.02254 0
M  V30 4315 H 402.734 -4.75432 -2.05389 0
M  V30 4316 H 399.411 -2.51336 -3.33371 0
M  V30 4317 H 400.801 -6.37199 -2.13135 0
M  V30 4318 N 403.521 0.559213 -1.47345 0
M  V30 4319 C 404.77 1.31281 -1.53128 0
M  V30 4320 C 405.083 1.94602 -0.197344 0
M  V30 4321 O 406.289 2.71173 -0.133154 0
M  V30 4322 C 404.745 2.38051 -2.69925 0
M  V30 4323 C 404.353 1.8093 -4.0984 0
M  V30 4324 C 406.097 3.14604 -2.84999 0
M  V30 4325 C 404.004 2.85468 -5.1794 0
M  V30 4326 H 402.934 0.493614 -0.569966 0
M  V30 4327 H 405.585 0.594155 -1.73615 0
M  V30 4328 H 403.967 3.12822 -2.42814 0
M  V30 4329 H 405.141 1.12544 -4.46845 0
M  V30 4330 H 403.456 1.16967 -3.99634 0
M  V30 4331 H 406.053 3.92666 -3.62929 0
M  V30 4332 H 406.396 3.68665 -1.93369 0
M  V30 4333 H 406.929 2.46945 -3.1187 0
M  V30 4334 H 403.668 2.36264 -6.1144 0
M  V30 4335 H 403.188 3.52269 -4.85455 0
M  V30 4336 H 404.867 3.48996 -5.44803 0
M  V30 4337 N 404.999 1.35443 0.805782 0
M  V30 4338 C 405.946 1.28431 1.91766 0
M  V30 4339 C 406.916 0.156102 1.65365 0
M  V30 4340 O 408.101 0.339936 1.87747 0
M  V30 4341 C 405.241 1.06301 3.2832 0
M  V30 4342 C 404.354 2.2805 3.66902 0
M  V30 4343 C 403.489 1.99064 4.92491 0
M  V30 4344 C 402.528 3.16863 5.23703 0
M  V30 4345 N 401.665 2.87647 6.40471 0
M  V30 4346 H 406.505 2.23511 1.97096 0
M  V30 4347 H 404.042 1.11105 0.964054 0
M  V30 4348 H 406 0.915012 4.07042 0
M  V30 4349 H 404.63 0.148822 3.22457 0
M  V30 4350 H 403.682 2.53711 2.83434 0
M  V30 4351 H 404.994 3.1601 3.85927 0
M  V30 4352 H 404.148 1.81099 5.7904 0
M  V30 4353 H 402.887 1.0839 4.75503 0
M  V30 4354 H 401.892 3.35404 4.35642 0
M  V30 4355 H 403.117 4.08339 5.4262 0
M  V30 4356 H 401.063 1.99568 6.24907 0
M  V30 4357 H 400.98 3.69141 6.59751 0
M  V30 4358 H 402.248 2.73226 7.30047 0
M  V30 4359 N 406.477 -1.02803 1.19454 0
M  V30 4360 C 407.707 -1.79581 1.02149 0
M  V30 4361 C 408.115 -1.84182 -0.432851 0
M  V30 4362 O 407.458 -1.28534 -1.31243 0
M  V30 4363 C 407.52 -3.25993 1.51554 0
M  V30 4364 C 407.184 -3.45025 2.99678 0
M  V30 4365 C 408.181 -3.35175 3.97434 0
M  V30 4366 C 405.866 -3.71212 3.38389 0
M  V30 4367 C 407.86 -3.51238 5.31893 0
M  V30 4368 C 405.547 -3.8692 4.73008 0
M  V30 4369 C 406.545 -3.76936 5.69569 0
M  V30 4370 O 406.233 -3.92179 7.01748 0
M  V30 4371 H 405.965 -0.571962 0.360327 0
M  V30 4372 H 408.519 -1.30367 1.58725 0
M  V30 4373 H 406.749 -3.76235 0.893543 0
M  V30 4374 H 408.438 -3.84368 1.30444 0
M  V30 4375 H 409.204 -3.14895 3.68872 0
M  V30 4376 H 405.083 -3.78075 2.6378 0
M  V30 4377 H 408.627 -3.43362 6.07247 0
M  V30 4378 H 404.524 -4.06699 5.01265 0
M  V30 4379 H 405.292 -4.09265 7.08833 0
M  V30 4380 N 407.956 -0.998596 -1.21925 0
M  V30 4381 C 409.181 -0.696015 -1.95372 0
M  V30 4382 C 409.606 0.733826 -1.73195 0
M  V30 4383 O 408.964 1.50242 -1.01474 0
M  V30 4384 C 409.012 -1.01466 -3.4603 0
M  V30 4385 O 408.116 -0.116415 -4.12236 0
M  V30 4386 H 407.457 -0.259938 -0.611006 0
M  V30 4387 H 409.987 -1.33711 -1.54863 0
M  V30 4388 H 409.997 -0.958855 -3.96573 0
M  V30 4389 H 408.672 -2.05653 -3.61497 0
M  V30 4390 H 407.249 -0.228193 -3.72201 0
M  V30 4391 N 409.434 1.37368 -0.772513 0
M  V30 4392 C 410.681 1.99673 -0.337182 0
M  V30 4393 C 411.009 1.61324 1.0865 0
M  V30 4394 O 410.264 0.851377 1.7621 0
M  V30 4395 C 410.563 3.54817 -0.428876 0
M  V30 4396 C 410.229 4.12936 -1.81092 0
M  V30 4397 C 408.891 4.28523 -2.1891 0
M  V30 4398 C 411.243 4.44801 -2.71664 0
M  V30 4399 C 408.571 4.73277 -3.46735 0
M  V30 4400 C 410.923 4.90981 -3.98899 0
M  V30 4401 C 409.587 5.04773 -4.36761 0
M  V30 4402 H 408.857 0.730656 -0.123384 0
M  V30 4403 H 411.504 1.64124 -0.986686 0
M  V30 4404 H 409.809 3.90618 0.304167 0
M  V30 4405 H 411.506 4.00933 -0.0733334 0
M  V30 4406 H 408.096 4.01233 -1.50699 0
M  V30 4407 H 412.28 4.32344 -2.43706 0
M  V30 4408 H 407.536 4.82142 -3.75964 0
M  V30 4409 H 411.71 5.14603 -4.69208 0
M  V30 4410 H 409.337 5.39211 -5.35868 0
M  V30 4411 N 410.912 0.523116 1.48665 0
M  V30 4412 C 412.14 -0.0096312 2.06898 0
M  V30 4413 C 412.555 -1.28784 1.38059 0
M  V30 4414 O 411.912 -1.76453 0.465893 0
M  V30 4415 C 411.963 -0.244386 3.60673 0
M  V30 4416 O 411.684 0.983172 4.26925 0
M  V30 4417 C 413.185 -0.818289 4.35682 0
M  V30 4418 H 410.405 0.0304161 0.67031 0
M  V30 4419 H 412.949 0.726799 1.91149 0
M  V30 4420 H 411.104 -0.930847 3.76051 0
M  V30 4421 H 411.518 0.759653 5.1897 0
M  V30 4422 H 412.992 -0.93201 5.44075 0
M  V30 4423 H 413.469 -1.82153 3.99646 0
M  V30 4424 H 414.075 -0.168609 4.24966 0
M  V30 4425 N 412.39 -1.55475 0.257931 0
M  V30 4426 C 413.806 -1.59307 -0.0966563 0
M  V30 4427 C 414.006 -1.27514 -1.5602 0
M  V30 4428 O 413.062 -1.02774 -2.30637 0
M  V30 4429 C 414.375 -2.99552 0.262481 0
M  V30 4430 C 415.923 -3.1231 0.207683 0
M  V30 4431 C 416.398 -4.54793 0.541012 0
M  V30 4432 N 417.889 -4.6058 0.491921 0
M  V30 4433 C 418.624 -5.68825 0.722857 0
M  V30 4434 N 418.12 -6.85287 1.0175 0
M  V30 4435 N 419.913 -5.58296 0.652815 0
M  V30 4436 H 412.064 -1.74409 1.21224 0
M  V30 4437 H 414.327 -0.812424 0.48854 0
M  V30 4438 H 414.033 -3.27593 1.27967 0
M  V30 4439 H 413.907 -3.75019 -0.40508 0
M  V30 4440 H 416.294 -2.84044 -0.800195 0
M  V30 4441 H 416.375 -2.39095 0.909255 0
M  V30 4442 H 416.019 -4.83783 1.5465 0
M  V30 4443 H 415.949 -5.26285 -0.18216 0
M  V30 4444 H 418.44 -3.7691 0.273366 0
M  V30 4445 H 418.753 -7.63725 1.18084 0
M  V30 4446 H 417.098 -6.86945 1.05509 0
M  V30 4447 H 420.289 -4.66189 0.422592 0
M  V30 4448 H 420.462 -6.42582 0.836182 0
M  V30 4449 N 413.868 0.0150385 -1.57593 0
M  V30 4450 C 415.145 0.7392 -1.81094 0
M  V30 4451 C 415.525 1.92817 -0.859344 0
M  V30 4452 O 414.873 2.28301 0.095362 0
M  V30 4453 C 415.083 1.15907 -3.29191 0
M  V30 4454 C 416.431 1.56918 -3.9454 0
M  V30 4455 O 417.455 1.25328 -3.33424 0
M  V30 4456 O 416.314 2.15604 -5.02173 0
M  V30 4457 H 413.408 0.358631 -0.745193 0
M  V30 4458 H 415.954 -0.00926156 -1.69697 0
M  V30 4459 H 414.726 0.310921 -3.90063 0
M  V30 4460 H 414.349 1.96711 -3.45529 0
M  V30 4461 N 415.346 1.54954 0.287554 0
M  V30 4462 C 416.592 1.76059 1.01856 0
M  V30 4463 C 416.947 0.547056 1.84459 0
M  V30 4464 O 416.24 -0.460442 1.85985 0
M  V30 4465 C 416.434 2.99833 1.94512 0
M  V30 4466 C 416.263 4.33108 1.21026 0
M  V30 4467 C 415.033 4.96632 0.931896 0
M  V30 4468 C 417.231 5.10694 0.607949 0
M  V30 4469 N 415.213 6.13668 0.168716 0
M  V30 4470 C 416.584 6.19996 -0.0217865 0
M  V30 4471 C 418.639 4.95236 0.514338 0
M  V30 4472 C 417.342 7.15524 -0.736092 0
M  V30 4473 C 419.368 5.91106 -0.186343 0
M  V30 4474 C 418.73 6.99786 -0.804875 0
M  V30 4475 H 414.829 0.696679 0.355193 0
M  V30 4476 H 417.413 1.92441 0.295741 0
M  V30 4477 H 415.584 2.84853 2.64033 0
M  V30 4478 H 417.316 3.09405 2.60865 0
M  V30 4479 H 414.071 4.57255 1.23348 0
M  V30 4480 H 414.495 6.76705 -0.199781 0
M  V30 4481 H 419.137 4.11328 0.978234 0
M  V30 4482 H 416.855 7.98964 -1.21172 0
M  V30 4483 H 420.441 5.81224 -0.258897 0
M  V30 4484 H 419.321 7.72694 -1.33843 0
M  V30 4485 N 416.824 -0.551391 1.4764 0
M  V30 4486 C 418.073 -1.30467 1.53822 0
M  V30 4487 C 418.386 -1.94495 0.207661 0
M  V30 4488 O 419.592 -2.71099 0.147533 0
M  V30 4489 C 418.048 -2.36616 2.71184 0
M  V30 4490 C 417.656 -1.78754 4.10793 0
M  V30 4491 C 419.4 -3.13088 2.86663 0
M  V30 4492 C 417.307 -2.82717 5.19447 0
M  V30 4493 H 416.237 -0.490584 0.572576 0
M  V30 4494 H 418.888 -0.58494 1.73927 0
M  V30 4495 H 417.27 -3.11529 2.4447 0
M  V30 4496 H 418.444 -1.10173 4.47435 0
M  V30 4497 H 416.759 -1.14846 4.00249 0
M  V30 4498 H 419.356 -3.90736 3.65007 0
M  V30 4499 H 419.699 -3.67635 1.95321 0
M  V30 4500 H 420.232 -2.45288 3.13175 0
M  V30 4501 H 416.971 -2.33018 6.12685 0
M  V30 4502 H 416.491 -3.4969 4.87316 0
M  V30 4503 H 418.17 -3.46102 5.46646 0
M  V30 4504 N 418.302 -1.35869 -0.798587 0
M  V30 4505 C 419.25 -1.29491 -1.93222 0
M  V30 4506 C 420.244 -0.18836 -1.6835 0
M  V30 4507 O 421.45 -0.354822 -1.76468 0
M  V30 4508 H 417.825 -0.402901 -0.63496 0
M  V30 4509 H 419.796 -2.25247 -1.9572 0
M  V30 4510 C 418.545 -1.09184 -3.30112 0
M  V30 4511 H 417.868 -1.93574 -3.49813 0
M  V30 4512 H 419.308 -1.08766 -4.09812 0
M  V30 4513 C 417.767 0.203959 -3.36282 0
M  V30 4514 O 418.297 1.19699 -3.83451 0
M  V30 4515 N 416.503 0.245488 -2.89561 0
M  V30 4516 H 416.05 -0.563223 -2.51367 0
M  V30 4517 H 416.008 1.11219 -2.94071 0
M  V30 4518 N 419.78 1.02168 -1.19998 0
M  V30 4519 C 420.73 2.08969 -0.911921 0
M  V30 4520 C 421.714 1.60404 0.12621 0
M  V30 4521 O 422.906 1.76817 -0.0804706 0
M  V30 4522 C 420.035 3.402 -0.460277 0
M  V30 4523 C 419.121 3.9548 -1.53155 0
M  V30 4524 N 419.512 4.24332 -2.75275 0
M  V30 4525 C 417.81 4.23572 -1.39653 0
M  V30 4526 C 418.511 4.68834 -3.44339 0
M  V30 4527 N 417.487 4.70804 -2.71744 0
M  V30 4528 H 421.289 2.29178 -1.83997 0
M  V30 4529 H 418.803 1.20094 -1.09322 0
M  V30 4530 H 420.8 4.16235 -0.235337 0
M  V30 4531 H 419.46 3.21408 0.4612 0
M  V30 4532 H 420.471 4.13393 -3.11973 0
M  V30 4533 H 417.148 4.14005 -0.539067 0
M  V30 4534 H 418.538 5.00019 -4.4881 0
M  V30 4535 N 421.258 1.00505 1.21394 0
M  V30 4536 C 422.504 0.688793 1.90745 0
M  V30 4537 C 422.837 -0.778486 1.77914 0
M  V30 4538 O 422.112 -1.56433 1.15581 0
M  V30 4539 C 422.395 1.11063 3.42545 0
M  V30 4540 C 422.248 2.63737 3.64367 0
M  V30 4541 C 423.567 0.673059 4.34923 0
M  V30 4542 H 420.686 0.251702 0.692687 0
M  V30 4543 H 423.328 1.25074 1.43026 0
M  V30 4544 H 421.478 0.632508 3.83317 0
M  V30 4545 H 423.15 3.19313 3.32922 0
M  V30 4546 H 421.393 3.05248 3.08231 0
M  V30 4547 H 422.064 2.88305 4.70727 0
M  V30 4548 H 424.54 1.08392 4.01734 0
M  V30 4549 H 423.416 0.996383 5.39781 0
M  V30 4550 H 423.677 -0.425808 4.40045 0
M  V30 4551 N 422.737 -1.36956 0.779787 0
M  V30 4552 C 424.153 -1.52817 0.460342 0
M  V30 4553 C 424.353 -1.7361 -1.02283 0
M  V30 4554 O 423.409 -1.76207 -1.80852 0
M  V30 4555 C 424.722 -2.71983 1.28241 0
M  V30 4556 C 426.27 -2.85849 1.27512 0
M  V30 4557 C 426.745 -4.08008 2.08072 0
M  V30 4558 N 428.236 -4.15135 2.05467 0
M  V30 4559 C 428.971 -5.08711 2.64577 0
M  V30 4560 N 428.467 -6.07792 3.32506 0
M  V30 4561 N 430.26 -5.01254 2.54363 0
M  V30 4562 H 422.411 -1.21713 1.74068 0
M  V30 4563 H 424.674 -0.593294 0.739396 0
M  V30 4564 H 424.38 -2.63109 2.33381 0
M  V30 4565 H 424.254 -3.65882 0.917088 0
M  V30 4566 H 426.641 -2.94189 0.231686 0
M  V30 4567 H 426.722 -1.92886 1.68014 0
M  V30 4568 H 426.366 -4.00429 3.12441 0
M  V30 4569 H 426.296 -5.001 1.64947 0
M  V30 4570 H 428.787 -3.44189 1.5602 0
M  V30 4571 H 429.1 -6.75739 3.74963 0
M  V30 4572 H 427.445 -6.08047 3.36606 0
M  V30 4573 H 430.636 -4.22795 2.00902 0
M  V30 4574 H 430.809 -5.73995 3.00722 0
M  V30 4575 N 424.215 -0.530993 -1.48385 0
M  V30 4576 C 425.44 0.000729535 -2.074 0
M  V30 4577 C 425.865 1.27298 -1.3848 0
M  V30 4578 O 425.223 1.75599 -0.451081 0
M  V30 4579 C 425.271 0.206697 -3.60007 0
M  V30 4580 O 424.375 1.27514 -3.92191 0
M  V30 4581 H 423.716 -0.039583 -0.662819 0
M  V30 4582 H 426.246 -0.739194 -1.9078 0
M  V30 4583 H 426.256 0.42904 -4.05738 0
M  V30 4584 H 424.931 -0.722675 -4.09573 0
M  V30 4585 H 423.508 1.03537 -3.58238 0
M  V30 4586 N 425.693 1.55336 -0.266172 0
M  V30 4587 C 426.656 2.20878 0.612001 0
M  V30 4588 C 427.656 1.18388 1.08816 0
M  V30 4589 O 428.846 1.4335 0.989774 0
M  V30 4590 C 425.978 2.86765 1.84332 0
M  V30 4591 H 427.171 2.99873 0.0398718 0
M  V30 4592 H 424.724 1.56291 -0.0167309 0
M  V30 4593 H 425.459 2.11759 2.45619 0
M  V30 4594 H 425.244 3.61862 1.5099 0
M  V30 4595 H 426.734 3.36867 2.46801 0
M  V30 4596 N 427.171 -0.0066808 1.57599 0
M  V30 4597 C 428.399 -0.704087 1.94551 0
M  V30 4598 C 428.814 -1.67677 0.867746 0
M  V30 4599 O 428.171 -1.8185 -0.153925 0
M  V30 4600 C 428.222 -1.44177 3.31505 0
M  V30 4601 O 427.943 -0.508097 4.35144 0
M  V30 4602 C 429.444 -2.23429 3.82876 0
M  V30 4603 H 426.664 -0.196523 0.641576 0
M  V30 4604 H 429.208 0.042453 2.04456 0
M  V30 4605 H 427.363 -2.13999 3.22929 0
M  V30 4606 H 427.777 -1.02782 5.14331 0
M  V30 4607 H 429.251 -2.70552 4.8115 0
M  V30 4608 H 429.728 -3.05818 3.15233 0
M  V30 4609 H 430.334 -1.58636 3.94607 0
M  V30 4610 N 428.649 -1.55105 -0.279332 0
M  V30 4611 C 429.897 -1.75066 -1.00977 0
M  V30 4612 C 430.218 -0.551276 -1.87045 0
M  V30 4613 O 429.488 0.433984 -1.91032 0
M  V30 4614 H 428.068 -0.645578 -0.375816 0
M  V30 4615 H 430.73 -1.92497 -0.305089 0
M  V30 4616 H 429.826 -2.64894 -1.65038 0
M  V30 4617 N 430.127 0.543554 -1.4793 0
M  V30 4618 C 431.074 1.64942 -1.6144 0
M  V30 4619 C 432.044 1.59692 -0.456903 0
M  V30 4620 O 433.229 1.78321 -0.678688 0
M  V30 4621 C 430.369 3.03238 -1.64744 0
M  V30 4622 C 429.482 3.18823 -2.91506 0
M  V30 4623 C 428.617 4.47599 -2.86057 0
M  V30 4624 C 427.656 4.56664 -4.07584 0
M  V30 4625 N 426.793 5.76811 -4.00292 0
M  V30 4626 H 431.633 1.52733 -2.55884 0
M  V30 4627 H 429.17 0.7438 -1.2691 0
M  V30 4628 H 431.128 3.83339 -1.64641 0
M  V30 4629 H 429.758 3.1425 -0.738017 0
M  V30 4630 H 428.81 2.32064 -3.01414 0
M  V30 4631 H 430.122 3.21384 -3.81463 0
M  V30 4632 H 429.276 5.35975 -2.84281 0
M  V30 4633 H 428.015 4.47538 -1.93807 0
M  V30 4634 H 427.02 3.66697 -4.09651 0
M  V30 4635 H 428.245 4.58474 -5.00978 0
M  V30 4636 H 426.191 5.77673 -3.10853 0
M  V30 4637 H 426.108 5.80808 -4.8394 0
M  V30 4638 H 427.376 6.67512 -4.02553 0
M  V30 4639 N 431.605 1.3629 0.791371 0
M  V30 4640 C 432.553 1.30514 1.92533 0
M  V30 4641 C 433.547 0.197285 1.68247 0
M  V30 4642 O 434.753 0.364176 1.76278 0
M  V30 4643 H 431.128 0.406263 0.632815 0
M  V30 4644 H 433.099 2.26282 1.94523 0
M  V30 4645 C 431.848 1.10933 3.29529 0
M  V30 4646 H 431.171 1.95427 3.48781 0
M  V30 4647 H 432.611 1.10937 4.0923 0
M  V30 4648 C 431.07 -0.186123 3.36385 0
M  V30 4649 O 431.6 -1.17664 3.84081 0
M  V30 4650 N 429.806 -0.230128 2.89687 0
M  V30 4651 H 429.353 0.576545 2.51065 0
M  V30 4652 H 429.311 -1.09658 2.94657 0
M  V30 4653 N 433.083 -1.0153 1.20538 0
M  V30 4654 C 434.016 -2.09759 0.898695 0
M  V30 4655 C 434.994 -1.61909 -0.149733 0
M  V30 4656 O 436.178 -1.88486 -0.0230293 0
M  V30 4657 C 433.305 -3.36913 0.347512 0
M  V30 4658 C 432.351 -4.03655 1.37713 0
M  V30 4659 S 433.184 -4.47402 2.94265 0
M  V30 4660 C 434.34 -5.77756 2.40726 0
M  V30 4661 H 434.573 -2.3545 1.81523 0
M  V30 4662 H 432.106 -1.14665 1.03399 0
M  V30 4663 H 434.064 -4.10484 0.0360518 0
M  V30 4664 H 432.725 -3.09291 -0.547546 0
M  V30 4665 H 431.918 -4.9514 0.940872 0
M  V30 4666 H 431.52 -3.36313 1.63614 0
M  V30 4667 H 433.812 -6.52994 1.80569 0
M  V30 4668 H 434.755 -6.2618 3.30612 0
M  V30 4669 H 435.163 -5.34081 1.82806 0
M  V30 4670 N 434.561 -1.01147 -1.20859 0
M  V30 4671 C 435.808 -0.697865 -1.90095 0
M  V30 4672 C 436.136 0.772014 -1.78522 0
M  V30 4673 O 435.391 1.57595 -1.16027 0
M  V30 4674 C 435.69 -1.0727 -3.40922 0
M  V30 4675 C 435.356 -2.53792 -3.72693 0
M  V30 4676 C 434.018 -2.93829 -3.81075 0
M  V30 4677 C 436.37 -3.48674 -3.87397 0
M  V30 4678 C 433.698 -4.27696 -4.01613 0
M  V30 4679 C 436.05 -4.82223 -4.09444 0
M  V30 4680 C 434.714 -5.21973 -4.16054 0
M  V30 4681 H 433.984 -0.255367 -0.695607 0
M  V30 4682 H 436.631 -1.27111 -1.43231 0
M  V30 4683 H 434.936 -0.417799 -3.89566 0
M  V30 4684 H 436.633 -0.807818 -3.92779 0
M  V30 4685 H 433.223 -2.21768 -3.66765 0
M  V30 4686 H 437.407 -3.18904 -3.80281 0
M  V30 4687 H 432.663 -4.58055 -4.04964 0
M  V30 4688 H 436.837 -5.55672 -4.19763 0
M  V30 4689 H 434.464 -6.25717 -4.31721 0
M  V30 4690 N 436.039 1.36541 -0.78704 0
M  V30 4691 C 437.002 2.28413 -0.189778 0
M  V30 4692 C 438.002 1.48719 0.611499 0
M  V30 4693 O 439.192 1.68737 0.432842 0
M  V30 4694 C 436.324 3.32824 0.737638 0
M  V30 4695 H 437.517 2.82743 -0.999831 0
M  V30 4696 H 435.07 1.46065 -0.556298 0
M  V30 4697 H 435.805 2.83646 1.57212 0
M  V30 4698 H 435.59 3.91752 0.165044 0
M  V30 4699 H 437.08 4.0144 1.15047 0
M  V30 4700 N 437.518 0.538854 1.48102 0
M  V30 4701 C 438.764 0.00801365 2.02798 0
M  V30 4702 C 439.097 -1.3309 1.41424 0
M  V30 4703 O 438.372 -1.86169 0.563158 0
M  V30 4704 C 438.655 -0.104589 3.59948 0
M  V30 4705 C 438.508 1.26012 4.31788 0
M  V30 4706 C 439.827 -0.827055 4.32259 0
M  V30 4707 H 436.946 0.00438624 0.736987 0
M  V30 4708 H 439.588 0.6976 1.7673 0
M  V30 4709 H 437.738 -0.691893 3.82289 0
M  V30 4710 H 439.41 1.88922 4.2084 0
M  V30 4711 H 437.653 1.83968 3.92859 0
M  V30 4712 H 438.324 1.13424 5.40221 0
M  V30 4713 H 440.8 -0.328578 4.14801 0
M  V30 4714 H 439.676 -0.87476 5.41885 0
M  V30 4715 H 439.937 -1.87927 4.0017 0
M  V30 4716 N 438.996 -1.55193 0.274407 0
M  V30 4717 C 439.959 -2.212 -0.600279 0
M  V30 4718 C 440.959 -1.18963 -1.08187 0
M  V30 4719 O 442.149 -1.43873 -0.982158 0
M  V30 4720 C 439.281 -2.87739 -1.82809 0
M  V30 4721 H 440.474 -2.9989 -0.0239682 0
M  V30 4722 H 438.027 -1.5628 0.0250192 0
M  V30 4723 H 438.762 -2.13058 -2.44493 0
M  V30 4724 H 438.547 -3.62658 -1.49069 0
M  V30 4725 H 440.037 -3.38171 -2.45011 0
M  V30 4726 N 440.474 -0.00167713 -1.576 0
M  V30 4727 C 441.384 1.00548 -2.1196 0
M  V30 4728 C 442.4 1.3758 -1.06526 0
M  V30 4729 O 443.576 1.46278 -1.38436 0
M  V30 4730 C 440.641 2.27809 -2.6135 0
M  V30 4731 C 439.702 1.97074 -3.81393 0
M  V30 4732 C 438.935 3.18267 -4.28417 0
M  V30 4733 O 439.158 4.30009 -3.74765 0
M  V30 4734 O 438.092 3.02167 -5.20556 0
M  V30 4735 H 441.918 0.573373 -2.98238 0
M  V30 4736 H 439.503 0.217255 -1.47812 0
M  V30 4737 H 441.385 3.02568 -2.93309 0
M  V30 4738 H 440.06 2.70254 -1.78169 0
M  V30 4739 H 438.967 1.19785 -3.54404 0
M  V30 4740 H 440.3 1.59464 -4.65652 0
M  V30 4741 N 441.952 1.55251 0.271103 0
M  V30 4742 C 443.199 1.75946 1.00245 0
M  V30 4743 C 443.527 0.561611 1.86215 0
M  V30 4744 O 442.782 -0.455832 1.90317 0
M  V30 4745 C 443.081 3.01879 1.91321 0
M  V30 4746 C 442.747 4.34337 1.21086 0
M  V30 4747 C 441.409 4.70338 1.01666 0
M  V30 4748 C 443.761 5.16325 0.71119 0
M  V30 4749 C 441.089 5.8588 0.310099 0
M  V30 4750 C 443.441 6.32597 0.0182157 0
M  V30 4751 C 442.105 6.67236 -0.18768 0
M  V30 4752 H 441.375 0.643833 0.366824 0
M  V30 4753 H 444.022 1.89521 0.27458 0
M  V30 4754 H 442.327 2.83212 2.70736 0
M  V30 4755 H 444.024 3.15088 2.48033 0
M  V30 4756 H 440.614 4.06043 1.37213 0
M  V30 4757 H 444.798 4.88987 0.848844 0
M  V30 4758 H 440.054 6.1124 0.139873 0
M  V30 4759 H 444.228 6.9538 -0.376711 0
M  V30 4760 H 441.855 7.56618 -0.73715 0
M  V30 4761 N 443.43 -0.535701 1.48216 0
M  V30 4762 C 444.676 -1.2913 1.57153 0
M  V30 4763 C 445.031 -1.90899 0.239823 0
M  V30 4764 O 444.324 -1.76022 -0.756748 0
M  V30 4765 C 444.518 -2.4068 2.64212 0
M  V30 4766 C 444.347 -1.89844 4.07663 0
M  V30 4767 C 443.117 -1.72708 4.74869 0
M  V30 4768 C 445.315 -1.43031 4.94011 0
M  V30 4769 N 443.297 -1.16437 6.02757 0
M  V30 4770 C 444.668 -0.986691 6.12098 0
M  V30 4771 C 446.723 -1.3128 4.80281 0
M  V30 4772 C 445.426 -0.437231 7.1797 0
M  V30 4773 C 447.452 -0.777346 5.86269 0
M  V30 4774 C 446.814 -0.343774 7.03561 0
M  V30 4775 H 442.913 -0.463753 0.629648 0
M  V30 4776 H 445.497 -0.604736 1.8507 0
M  V30 4777 H 443.668 -3.06839 2.38126 0
M  V30 4778 H 445.4 -3.07706 2.62867 0
M  V30 4779 H 442.155 -1.96061 4.31111 0
M  V30 4780 H 442.579 -0.903281 6.70947 0
M  V30 4781 H 447.221 -1.63408 3.89946 0
M  V30 4782 H 444.939 -0.103621 8.08034 0
M  V30 4783 H 448.525 -0.689688 5.77698 0
M  V30 4784 H 447.405 0.0641219 7.84174 0
M  V30 4785 N 444.908 -1.36708 -0.784132 0
M  V30 4786 C 445.855 -1.31466 -1.89698 0
M  V30 4787 C 446.825 -0.18239 -1.65096 0
M  V30 4788 O 448.01 -0.369762 -1.87183 0
M  V30 4789 C 445.15 -1.1151 -3.26588 0
M  V30 4790 C 444.263 -2.33859 -3.63227 0
M  V30 4791 C 443.398 -2.06873 -4.89262 0
M  V30 4792 C 442.437 -3.25154 -5.18595 0
M  V30 4793 N 441.574 -2.978 -6.35814 0
M  V30 4794 H 446.414 -2.26619 -1.93515 0
M  V30 4795 H 443.951 -1.12625 -0.946256 0
M  V30 4796 H 445.909 -0.979653 -4.05535 0
M  V30 4797 H 444.539 -0.200103 -3.22179 0
M  V30 4798 H 443.591 -2.58188 -2.79362 0
M  V30 4799 H 444.903 -3.22109 -3.8085 0
M  V30 4800 H 444.057 -1.90289 -5.76086 0
M  V30 4801 H 442.796 -1.15942 -4.73718 0
M  V30 4802 H 441.801 -3.42292 -4.30251 0
M  V30 4803 H 443.026 -4.1692 -5.36055 0
M  V30 4804 H 440.972 -2.09485 -6.21653 0
M  V30 4805 H 440.889 -3.7959 -6.53794 0
M  V30 4806 H 442.157 -2.84805 -7.25607 0
M  V30 4807 N 446.386 1.0089 -1.21074 0
M  V30 4808 C 447.334 2.11707 -0.963476 0
M  V30 4809 C 448.328 1.69172 0.0879032 0
M  V30 4810 O 449.534 1.79889 -0.0631415 0
M  V30 4811 H 445.909 0.692026 -0.294287 0
M  V30 4812 H 447.88 2.29743 -1.90422 0
M  V30 4813 C 446.629 3.43473 -0.540509 0
M  V30 4814 H 445.952 3.76634 -1.34114 0
M  V30 4815 H 447.392 4.22044 -0.406777 0
M  V30 4816 C 445.851 3.2849 0.748079 0
M  V30 4817 O 446.381 3.58883 1.8046 0
M  V30 4818 N 444.587 2.81715 0.713081 0
M  V30 4819 H 444.134 2.5718 -0.146973 0
M  V30 4820 H 444.092 2.72071 1.57558 0
M  V30 4821 N 447.864 1.01787 1.20321 0
M  V30 4822 C 449.141 0.622978 1.85414 0
M  V30 4823 C 449.521 -0.898887 1.91006 0
M  V30 4824 O 448.869 -1.79112 1.41884 0
M  V30 4825 C 449.079 1.27226 3.24984 0
M  V30 4826 C 450.427 1.3885 4.01255 0
M  V30 4827 O 451.451 1.22857 3.34342 0
M  V30 4828 O 450.31 1.64705 5.2109 0
M  V30 4829 H 447.404 0.215116 0.798533 0
M  V30 4830 H 449.95 1.11533 1.27901 0
M  V30 4831 H 448.722 2.31209 3.15687 0
M  V30 4832 H 448.345 0.767069 3.90131 0
M  V30 4833 N 449.342 -1.36122 0.79427 0
M  V30 4834 C 450.272 -2.32551 0.210328 0
M  V30 4835 C 451.253 -1.56884 -0.657386 0
M  V30 4836 O 452.438 -1.85014 -0.590207 0
M  V30 4837 C 449.568 -3.41128 -0.651819 0
M  V30 4838 C 448.522 -4.27842 0.116395 0
M  V30 4839 C 447.848 -5.2763 -0.86666 0
M  V30 4840 C 449.148 -5.05647 1.30837 0
M  V30 4841 H 450.842 -2.81636 1.01594 0
M  V30 4842 H 448.388 -1.35407 0.489981 0
M  V30 4843 H 450.341 -4.07581 -1.07031 0
M  V30 4844 H 449.065 -2.90622 -1.49019 0
M  V30 4845 H 447.724 -3.62952 0.515915 0
M  V30 4846 H 447.372 -4.73395 -1.70019 0
M  V30 4847 H 447.072 -5.86514 -0.35705 0
M  V30 4848 H 448.596 -5.96955 -1.28361 0
M  V30 4849 H 450.01 -5.65113 0.965393 0
M  V30 4850 H 448.407 -5.73967 1.75161 0
M  V30 4851 H 449.477 -4.37006 2.10128 0
M  V30 4852 N 450.82 -0.546701 -1.47814 0
M  V30 4853 C 452.068 -0.0187037 -2.02091 0
M  V30 4854 C 452.389 1.33168 -1.42447 0
M  V30 4855 O 451.659 1.86619 -0.595839 0
M  V30 4856 H 450.239 -0.00392531 -0.74699 0
M  V30 4857 H 452.901 -0.714327 -1.81338 0
M  V30 4858 H 451.997 0.0772219 -3.12004 0
M  V30 4859 N 452.299 1.55045 -0.282633 0
M  V30 4860 C 453.262 2.21515 0.588539 0
M  V30 4861 C 454.262 1.19535 1.07554 0
M  V30 4862 O 455.452 1.44391 0.974514 0
M  V30 4863 C 452.584 2.88704 1.8128 0
M  V30 4864 H 453.777 2.99899 0.00806397 0
M  V30 4865 H 451.33 1.56265 -0.0333067 0
M  V30 4866 H 452.065 2.14352 2.43359 0
M  V30 4867 H 451.85 3.63443 1.47144 0
M  V30 4868 H 453.34 3.39465 2.43214 0
M  V30 4869 N 453.777 0.010035 1.57597 0
M  V30 4870 C 455.026 -0.671945 1.90178 0
M  V30 4871 C 455.339 -1.74376 0.886131 0
M  V30 4872 O 456.545 -2.48107 1.10252 0
M  V30 4873 C 455.001 -1.24636 3.3763 0
M  V30 4874 C 454.609 -0.208838 4.47513 0
M  V30 4875 C 456.353 -1.90595 3.79307 0
M  V30 4876 C 454.26 -0.793814 5.86048 0
M  V30 4877 H 453.19 -0.25474 0.709665 0
M  V30 4878 H 455.841 0.0722206 1.83358 0
M  V30 4879 H 454.223 -2.04152 3.3932 0
M  V30 4880 H 455.397 0.562463 4.57354 0
M  V30 4881 H 453.712 0.350889 4.14919 0
M  V30 4882 H 456.309 -2.35284 4.80151 0
M  V30 4883 H 456.652 -2.74074 3.13352 0
M  V30 4884 H 457.185 -1.17798 3.79958 0
M  V30 4885 H 453.924 0.00240855 6.555 0
M  V30 4886 H 453.444 -1.53404 5.79851 0
M  V30 4887 H 455.123 -1.2894 6.34022 0
M  V30 4888 N 455.255 -1.55392 -0.262866 0
M  V30 4889 C 456.165 -1.92077 -1.34698 0
M  V30 4890 C 457.181 -0.819227 -1.53508 0
M  V30 4891 O 458.357 -1.11921 -1.67439 0
M  V30 4892 C 455.422 -2.19407 -2.68443 0
M  V30 4893 C 454.483 -3.42905 -2.58292 0
M  V30 4894 C 453.716 -3.68921 -3.85659 0
M  V30 4895 O 453.939 -2.97275 -4.8681 0
M  V30 4896 O 452.873 -4.62455 -3.85252 0
M  V30 4897 H 456.699 -2.84384 -1.06581 0
M  V30 4898 H 454.284 -1.42069 -0.462264 0
M  V30 4899 H 456.166 -2.38365 -3.47506 0
M  V30 4900 H 454.841 -1.30282 -2.96325 0
M  V30 4901 H 453.748 -3.29272 -1.7757 0
M  V30 4902 H 455.081 -4.32282 -2.35358 0
M  V30 4903 N 456.733 0.527833 -1.48498 0
M  V30 4904 C 457.681 1.65313 -1.63628 0
M  V30 4905 C 458.675 1.6177 -0.502676 0
M  V30 4906 O 459.881 1.66601 -0.681469 0
M  V30 4907 H 456.256 0.547518 -0.515488 0
M  V30 4908 H 458.227 1.49696 -2.58135 0
M  V30 4909 C 456.976 3.03576 -1.6952 0
M  V30 4910 H 456.299 3.06997 -2.56111 0
M  V30 4911 H 457.739 3.81923 -1.84149 0
M  V30 4912 C 456.198 3.34089 -0.43432 0
M  V30 4913 O 456.728 3.99151 0.451852 0
M  V30 4914 N 454.934 2.88991 -0.305368 0
M  V30 4915 H 454.481 2.36222 -1.02747 0
M  V30 4916 H 454.439 3.09776 0.537249 0
M  V30 4917 N 458.211 1.37122 0.776871 0
M  V30 4918 C 459.441 1.35034 1.56363 0
M  V30 4919 C 459.849 -0.0674681 1.8908 0
M  V30 4920 O 459.192 -1.03826 1.51545 0
M  V30 4921 C 459.254 2.11894 2.90415 0
M  V30 4922 C 458.918 3.60897 2.80362 0
M  V30 4923 C 459.915 4.54887 2.51742 0
M  V30 4924 C 457.6 4.03951 2.98545 0
M  V30 4925 C 459.594 5.89909 2.41426 0
M  V30 4926 C 457.281 5.3906 2.87849 0
M  V30 4927 C 458.279 6.31852 2.5933 0
M  V30 4928 O 457.967 7.64479 2.48651 0
M  V30 4929 H 457.699 0.464402 0.49123 0
M  V30 4930 H 460.253 1.80992 0.971127 0
M  V30 4931 H 458.483 1.60618 3.51765 0
M  V30 4932 H 460.172 2.02505 3.51776 0
M  V30 4933 H 460.938 4.22934 2.37385 0
M  V30 4934 H 456.817 3.3209 3.19746 0
M  V30 4935 H 460.361 6.62304 2.19086 0
M  V30 4936 H 456.258 5.70617 3.01773 0
M  V30 4937 H 457.026 7.74742 2.64039 0
M  V30 4938 N 459.689 -1.00246 1.21608 0
M  V30 4939 C 460.619 -2.10921 1.00172 0
M  V30 4940 C 461.6 -1.69938 -0.0741587 0
M  V30 4941 O 462.785 -1.94009 0.0861753 0
M  V30 4942 C 459.915 -3.42618 0.568355 0
M  V30 4943 C 458.869 -3.97407 1.58909 0
M  V30 4944 C 458.195 -5.25038 1.01187 0
M  V30 4945 C 459.495 -4.2918 2.97661 0
M  V30 4946 H 461.189 -2.29112 1.92739 0
M  V30 4947 H 458.735 -1.10101 0.928102 0
M  V30 4948 H 460.688 -4.19444 0.405555 0
M  V30 4949 H 459.412 -3.24227 -0.392961 0
M  V30 4950 H 458.071 -3.22703 1.73949 0
M  V30 4951 H 457.719 -5.02982 0.0421965 0
M  V30 4952 H 457.419 -5.62661 1.6937 0
M  V30 4953 H 458.943 -6.04507 0.860448 0
M  V30 4954 H 460.357 -4.96839 2.86049 0
M  V30 4955 H 458.754 -4.77952 3.6288 0
M  V30 4956 H 459.824 -3.3735 3.48315 0
M  V30 4957 N 461.167 -1.02423 -1.1978 0
M  V30 4958 C 462.099 -0.559152 -2.22275 0
M  V30 4959 C 463.112 0.36251 -1.58713 0
M  V30 4960 O 464.301 0.159641 -1.77785 0
M  V30 4961 C 461.401 0.205094 -3.38279 0
M  V30 4962 C 460.574 -0.720361 -4.31427 0
M  V30 4963 C 459.633 -0.00234368 -5.262 0
M  V30 4964 O 458.659 -0.627378 -5.65732 0
M  V30 4965 N 459.861 1.26996 -5.66438 0
M  V30 4966 H 462.626 -1.44064 -2.62804 0
M  V30 4967 H 460.187 -0.902692 -1.34399 0
M  V30 4968 H 462.179 0.694868 -3.9869 0
M  V30 4969 H 460.749 0.987947 -2.96578 0
M  V30 4970 H 459.969 -1.39031 -3.68869 0
M  V30 4971 H 461.257 -1.3495 -4.90577 0
M  V30 4972 H 460.655 1.79858 -5.36347 0
M  V30 4973 H 459.212 1.70432 -6.29123 0
M  V30 4974 N 462.645 1.35699 -0.801477 0
M  V30 4975 C 463.592 2.29876 -0.206294 0
M  V30 4976 C 464.562 1.52565 0.656752 0
M  V30 4977 O 465.747 1.81024 0.602906 0
M  V30 4978 C 462.887 3.39052 0.643272 0
M  V30 4979 C 462 4.31335 -0.239644 0
M  V30 4980 C 461.135 5.27599 0.61744 0
M  V30 4981 C 460.174 6.11521 -0.26619 0
M  V30 4982 N 459.311 6.99938 0.550571 0
M  V30 4983 H 464.151 2.80187 -1.01484 0
M  V30 4984 H 461.688 1.37902 -0.511997 0
M  V30 4985 H 463.646 4.0101 1.15094 0
M  V30 4986 H 462.276 2.9003 1.41713 0
M  V30 4987 H 461.328 3.70426 -0.865381 0
M  V30 4988 H 462.64 4.90243 -0.919985 0
M  V30 4989 H 461.794 5.94906 1.19045 0
M  V30 4990 H 460.533 4.69176 1.33137 0
M  V30 4991 H 459.538 5.43166 -0.851507 0
M  V30 4992 H 460.763 6.72022 -0.9779 0
M  V30 4993 H 458.709 6.44008 1.24856 0
M  V30 4994 H 458.626 7.55966 -0.071832 0
M  V30 4995 H 459.894 7.71599 1.10702 0
M  V30 4996 N 464.123 0.554532 1.47522 0
M  V30 4997 C 465.351 0.034257 2.06872 0
M  V30 4998 C 465.766 -1.25826 1.40759 0
M  V30 4999 O 465.123 -1.75425 0.503217 0
M  V30 5000 C 465.174 -0.167827 3.6111 0
M  V30 5001 O 464.895 1.07351 4.24744 0
M  V30 5002 C 466.396 -0.72569 4.3732 0
M  V30 5003 H 463.616 0.0446275 0.669514 0
M  V30 5004 H 466.16 0.767181 1.89564 0
M  V30 5005 H 464.315 -0.850872 3.7794 0
M  V30 5006 H 464.729 0.869563 5.17242 0
M  V30 5007 H 466.203 -0.816394 5.45929 0
M  V30 5008 H 466.68 -1.73635 4.0342 0
M  V30 5009 H 467.286 -0.0784292 4.25228 0
M  V30 5010 N 465.601 -1.54893 0.290851 0
M  V30 5011 C 466.549 -2.24579 -0.605576 0
M  V30 5012 C 467.543 -1.24824 -1.14522 0
M  V30 5013 O 468.749 -1.42706 -1.09704 0
M  V30 5014 H 465.124 -0.720946 -0.213872 0
M  V30 5015 H 467.095 -2.984 0.0048173 0
M  V30 5016 C 465.844 -2.99224 -1.77088 0
M  V30 5017 H 465.167 -3.75782 -1.36484 0
M  V30 5018 H 466.607 -3.51281 -2.3744 0
M  V30 5019 C 465.066 -2.05602 -2.66888 0
M  V30 5020 O 465.596 -1.61745 -3.67698 0
M  V30 5021 N 463.802 -1.71771 -2.34399 0
M  V30 5022 H 463.349 -2.07633 -1.52468 0
M  V30 5023 H 463.307 -1.09403 -2.94751 0
M  V30 5024 N 467.08 -0.0183926 -1.57589 0
M  V30 5025 C 468.326 0.657813 -1.92469 0
M  V30 5026 C 468.681 1.70349 -0.894375 0
M  V30 5027 O 467.974 1.91384 0.0910389 0
M  V30 5028 C 468.168 1.32676 -3.31861 0
M  V30 5029 C 467.997 0.347403 -4.48356 0
M  V30 5030 C 466.767 -0.0488653 -5.05276 0
M  V30 5031 C 468.965 -0.393931 -5.12789 0
M  V30 5032 N 466.947 -1.02451 -6.05291 0
M  V30 5033 C 468.318 -1.22367 -6.07804 0
M  V30 5034 C 470.373 -0.455789 -4.95809 0
M  V30 5035 C 469.076 -2.10966 -6.87667 0
M  V30 5036 C 471.102 -1.32908 -5.76272 0
M  V30 5037 C 470.464 -2.14662 -6.70894 0
M  V30 5038 H 466.563 0.21335 -0.752334 0
M  V30 5039 H 469.147 -0.0830547 -1.94523 0
M  V30 5040 H 467.318 2.03782 -3.30647 0
M  V30 5041 H 469.05 1.95913 -3.54119 0
M  V30 5042 H 465.805 0.323356 -4.72495 0
M  V30 5043 H 466.229 -1.50826 -6.59985 0
M  V30 5044 H 470.871 0.162017 -4.22489 0
M  V30 5045 H 468.589 -2.73807 -7.603 0
M  V30 5046 H 472.175 -1.38109 -5.6517 0
M  V30 5047 H 471.055 -2.81143 -7.32071 0
M  V30 5048 N 468.558 1.5553 0.254621 0
M  V30 5049 C 469.506 1.9048 1.33492 0
M  V30 5050 C 470.5 0.78304 1.50216 0
M  V30 5051 O 471.706 0.967582 1.51782 0
M  V30 5052 H 468.081 0.604846 0.44684 0
M  V30 5053 H 470.052 2.80688 1.01275 0
M  V30 5054 C 468.801 2.20928 2.68489 0
M  V30 5055 H 468.124 3.06742 2.56417 0
M  V30 5056 H 469.564 2.49291 3.42972 0
M  V30 5057 C 468.023 1.023 3.20993 0
M  V30 5058 O 468.553 0.267027 4.00811 0
M  V30 5059 N 466.759 0.815714 2.78917 0
M  V30 5060 H 466.306 1.43217 2.14119 0
M  V30 5061 H 466.264 0.0236532 3.14391 0
M  V30 5062 N 470.036 -0.519951 1.48776 0
M  V30 5063 C 470.986 -1.61995 1.60442 0
M  V30 5064 C 471.97 -1.54155 0.460991 0
M  V30 5065 O 473.162 -1.62006 0.712965 0
M  V30 5066 C 470.291 -3.00683 1.65664 0
M  V30 5067 C 469.377 -3.1359 2.8552 0
M  V30 5068 N 469.768 -2.96441 4.09825 0
M  V30 5069 C 468.066 -3.44662 2.83062 0
M  V30 5070 C 468.767 -3.1303 4.90293 0
M  V30 5071 N 467.743 -3.41058 4.23297 0
M  V30 5072 H 471.545 -1.47362 2.54287 0
M  V30 5073 H 469.059 -0.725649 1.45286 0
M  V30 5074 H 471.056 -3.79712 1.72117 0
M  V30 5075 H 469.716 -3.16401 0.729425 0
M  V30 5076 H 470.727 -2.72999 4.40104 0
M  V30 5077 H 467.404 -3.66675 1.9964 0
M  V30 5078 H 468.794 -3.04424 5.98979 0
M  V30 5079 N 471.514 -1.37532 -0.769588 0
M  V30 5080 C 472.739 -1.36231 -1.56384 0
M  V30 5081 C 473.164 0.0495849 -1.88035 0
M  V30 5082 O 472.522 1.02723 -1.49391 0
M  V30 5083 C 472.57 -2.20986 -2.84952 0
M  V30 5084 O 471.674 -1.61597 -3.79421 0
M  V30 5085 H 471.015 -0.465387 -0.473615 0
M  V30 5086 H 473.545 -1.81085 -0.952342 0
M  V30 5087 H 473.555 -2.34277 -3.34034 0
M  V30 5088 H 472.23 -3.23612 -2.61243 0
M  V30 5089 H 470.807 -1.57359 -3.38072 0
M  V30 5090 N 472.992 0.995999 -1.22138 0
M  V30 5091 C 474.238 1.73767 -1.04561 0
M  V30 5092 C 474.571 1.89633 0.418698 0
M  V30 5093 O 473.846 1.43723 1.3105 0
M  V30 5094 C 474.129 3.14505 -1.75382 0
M  V30 5095 C 473.982 3.06306 -3.29388 0
M  V30 5096 C 475.301 4.13615 -1.50369 0
M  V30 5097 H 472.42 0.630728 -0.38125 0
M  V30 5098 H 475.062 1.16057 -1.50435 0
M  V30 5099 H 473.212 3.63775 -1.36383 0
M  V30 5100 H 474.884 2.64681 -3.77812 0
M  V30 5101 H 473.127 2.43186 -3.59226 0
M  V30 5102 H 473.798 4.05884 -3.74116 0
M  V30 5103 H 476.274 3.73089 -1.84239 0
M  V30 5104 H 475.15 5.10212 -2.02421 0
M  V30 5105 H 475.411 4.39949 -0.435611 0
M  V30 5106 N 474.47 1.03057 1.19235 0
M  V30 5107 C 475.717 0.728019 1.88961 0
M  V30 5108 C 476.045 -0.743515 1.79728 0
M  V30 5109 O 475.3 -1.55729 1.1852 0
M  V30 5110 C 475.599 1.1268 3.39172 0
M  V30 5111 C 475.265 2.5969 3.68608 0
M  V30 5112 C 473.927 2.99854 3.76352 0
M  V30 5113 C 476.279 3.54793 3.81801 0
M  V30 5114 C 473.607 4.34031 3.94758 0
M  V30 5115 C 475.959 4.88675 4.0172 0
M  V30 5116 C 474.623 5.28526 4.07697 0
M  V30 5117 H 473.893 0.266401 0.691456 0
M  V30 5118 H 476.54 1.29373 1.41191 0
M  V30 5119 H 474.845 0.479722 3.88852 0
M  V30 5120 H 476.542 0.870203 3.91444 0
M  V30 5121 H 473.132 2.27575 3.63191 0
M  V30 5122 H 477.316 3.24914 3.7516 0
M  V30 5123 H 472.572 4.6444 3.97625 0
M  V30 5124 H 476.746 5.6228 4.1087 0
M  V30 5125 H 474.373 6.32506 4.21712 0
M  V30 5126 N 475.948 -1.35272 0.808662 0
M  V30 5127 C 477.225 -1.93077 0.313181 0
M  V30 5128 C 477.605 -1.73847 -1.19752 0
M  V30 5129 O 476.953 -1.1087 -1.998 0
M  V30 5130 C 477.163 -3.41347 0.726859 0
M  V30 5131 C 478.511 -4.18493 0.717532 0
M  V30 5132 O 479.535 -3.4987 0.668535 0
M  V30 5133 O 478.394 -5.40937 0.777779 0
M  V30 5134 H 475.488 -0.822885 0.0824018 0
M  V30 5135 H 478.034 -1.44335 0.892499 0
M  V30 5136 H 476.806 -3.49082 1.76797 0
M  V30 5137 H 476.429 -3.97411 0.122461 0
M  V30 5138 N 477.426 -0.562348 -1.47226 0
M  V30 5139 C 478.672 -0.0402761 -2.0276 0
M  V30 5140 C 479.005 1.30823 -1.43523 0
M  V30 5141 O 478.28 1.85249 -0.592705 0
M  V30 5142 C 478.563 0.047311 -3.60069 0
M  V30 5143 C 478.416 -1.32865 -4.29729 0
M  V30 5144 C 479.735 0.758182 -4.3352 0
M  V30 5145 H 476.854 -0.0161105 -0.736824 0
M  V30 5146 H 479.496 -0.725628 -1.75598 0
M  V30 5147 H 477.646 0.630986 -3.83342 0
M  V30 5148 H 479.318 -1.95593 -4.17781 0
M  V30 5149 H 477.561 -1.90195 -3.89882 0
M  V30 5150 H 478.232 -1.22004 -5.38349 0
M  V30 5151 H 480.708 0.262546 -4.15271 0
M  V30 5152 H 479.584 0.78844 -5.43208 0
M  V30 5153 H 479.845 1.81537 -4.03109 0
M  V30 5154 N 478.904 1.54736 -0.299062 0
M  V30 5155 C 480.315 1.8569 0.193971 0
M  V30 5156 C 480.666 1.22101 1.53577 0
M  V30 5157 O 479.791 0.51799 2.10109 0
M  V30 5158 C 480.386 3.36895 0.358733 0
M  V30 5159 C 478.945 3.67887 0.795986 0
M  V30 5160 C 478.092 2.77131 -0.096807 0
M  V30 5161 H 481.043 1.49934 -0.520134 0
M  V30 5162 H 481.064 3.61294 1.19361 0
M  V30 5163 H 480.576 3.83148 -0.617998 0
M  V30 5164 H 478.677 3.27151 1.78334 0
M  V30 5165 H 478.79 4.75114 0.616718 0
M  V30 5166 H 477.154 2.51153 0.423581 0
M  V30 5167 H 477.937 3.26204 -1.06986 0
M  V30 5168 N 480.382 0.0267497 1.57577 0
M  V30 5169 C 481.312 -0.954308 2.13108 0
M  V30 5170 C 482.293 -1.34088 1.04663 0
M  V30 5171 O 483.478 -1.41992 1.32484 0
M  V30 5172 C 480.608 -2.23744 2.65624 0
M  V30 5173 C 479.562 -1.99168 3.78835 0
M  V30 5174 C 478.888 -3.33726 4.17769 0
M  V30 5175 C 480.188 -1.33277 5.0501 0
M  V30 5176 H 481.882 -0.491848 2.95332 0
M  V30 5177 H 479.428 -0.23514 1.42067 0
M  V30 5178 H 481.381 -2.92754 3.03106 0
M  V30 5179 H 480.105 -2.72151 1.80558 0
M  V30 5180 H 478.764 -1.32577 3.41788 0
M  V30 5181 H 478.412 -3.79888 3.29688 0
M  V30 5182 H 478.112 -3.18089 4.94058 0
M  V30 5183 H 479.636 -4.04008 4.57832 0
M  V30 5184 H 481.05 -1.92283 5.40093 0
M  V30 5185 H 479.447 -1.28045 5.8628 0
M  V30 5186 H 480.517 -0.305411 4.83937 0
M  V30 5187 N 481.861 -1.55662 -0.24637 0
M  V30 5188 C 482.811 -1.86753 -1.30795 0
M  V30 5189 C 483.795 -0.728445 -1.43466 0
M  V30 5190 O 484.987 -0.99038 -1.46699 0
M  V30 5191 C 482.116 -2.16618 -2.66329 0
M  V30 5192 C 481.202 -3.36855 -2.57661 0
M  V30 5193 N 481.593 -4.56111 -2.18624 0
M  V30 5194 C 479.891 -3.39976 -2.88673 0
M  V30 5195 C 480.592 -5.38247 -2.20601 0
M  V30 5196 N 479.568 -4.77322 -2.60124 0
M  V30 5197 H 483.37 -2.76486 -0.996642 0
M  V30 5198 H 480.884 -1.55896 -0.454994 0
M  V30 5199 H 482.881 -2.37057 -3.42942 0
M  V30 5200 H 481.541 -1.28185 -2.98327 0
M  V30 5201 H 482.552 -4.81726 -1.9016 0
M  V30 5202 H 479.229 -2.61815 -3.25206 0
M  V30 5203 H 480.619 -6.43657 -1.92756 0
M  V30 5204 N 483.339 0.512053 -1.4905 0
M  V30 5205 C 484.569 1.28928 -1.61434 0
M  V30 5206 C 484.977 1.87107 -0.280647 0
M  V30 5207 O 484.32 1.68024 0.742537 0
M  V30 5208 C 484.382 2.466 -2.61588 0
M  V30 5209 C 484.046 2.09375 -4.06216 0
M  V30 5210 C 485.043 1.63994 -4.93358 0
M  V30 5211 C 482.728 2.19348 -4.51876 0
M  V30 5212 C 484.722 1.29076 -6.24194 0
M  V30 5213 C 482.409 1.84041 -5.82728 0
M  V30 5214 C 483.407 1.38978 -6.68711 0
M  V30 5215 O 483.095 1.04144 -7.97126 0
M  V30 5216 H 482.827 0.397668 -0.546659 0
M  V30 5217 H 485.381 0.622507 -1.9574 0
M  V30 5218 H 483.611 3.16318 -2.22441 0
M  V30 5219 H 485.3 3.08642 -2.63619 0
M  V30 5220 H 486.066 1.55744 -4.59313 0
M  V30 5221 H 481.945 2.53376 -3.85125 0
M  V30 5222 H 485.489 0.938303 -6.91261 0
M  V30 5223 H 481.386 1.91938 -6.16304 0
M  V30 5224 H 482.154 1.17387 -8.10039 0
M  V30 5225 N 484.817 1.37938 0.762283 0
M  V30 5226 C 485.765 1.34569 1.89721 0
M  V30 5227 C 486.759 0.232929 1.67791 0
M  V30 5228 O 487.965 0.401485 1.75465 0
M  V30 5229 H 484.34 0.419594 0.624055 0
M  V30 5230 H 486.311 2.30357 1.8968 0
M  V30 5231 C 485.06 1.17898 3.27101 0
M  V30 5232 H 484.383 2.02781 3.44558 0
M  V30 5233 H 485.823 1.19593 4.06784 0
M  V30 5234 C 484.282 -0.114728 3.36705 0
M  V30 5235 O 484.812 -1.0949 3.8649 0
M  V30 5236 N 483.018 -0.16863 2.9011 0
M  V30 5237 H 482.565 0.62967 2.49786 0
M  V30 5238 H 482.523 -1.03383 2.96916 0
M  V30 5239 N 486.295 -0.989507 1.22664 0
M  V30 5240 C 487.225 -2.09847 1.02404 0
M  V30 5241 C 488.206 -1.70007 -0.0561303 0
M  V30 5242 O 489.391 -1.93906 0.106748 0
M  V30 5243 C 486.521 -3.41996 0.604663 0
M  V30 5244 C 485.475 -3.95699 1.63115 0
M  V30 5245 C 484.801 -5.23936 1.0675 0
M  V30 5246 C 486.101 -4.25999 3.02196 0
M  V30 5247 H 487.795 -2.27054 1.95158 0
M  V30 5248 H 485.341 -1.09111 0.939727 0
M  V30 5249 H 487.294 -4.1899 0.45002 0
M  V30 5250 H 486.018 -3.24626 -0.35855 0
M  V30 5251 H 484.677 -3.2084 1.77362 0
M  V30 5252 H 484.325 -5.02909 0.0955422 0
M  V30 5253 H 484.025 -5.60833 1.75328 0
M  V30 5254 H 485.549 -6.0356 0.924516 0
M  V30 5255 H 486.963 -4.93777 2.91303 0
M  V30 5256 H 485.36 -4.74076 3.67929 0
M  V30 5257 H 486.43 -3.33636 3.51873 0
M  V30 5258 N 487.773 -1.03688 -1.18687 0
M  V30 5259 C 489.003 -0.756819 -1.92239 0
M  V30 5260 C 489.411 0.689374 -1.76194 0
M  V30 5261 O 488.754 1.48126 -1.08648 0
M  V30 5262 C 488.816 -1.03851 -3.44173 0
M  V30 5263 C 488.48 -2.47785 -3.83994 0
M  V30 5264 C 489.477 -3.4595 -3.88091 0
M  V30 5265 C 487.162 -2.82397 -4.154 0
M  V30 5266 C 489.156 -4.76779 -4.23038 0
M  V30 5267 C 486.843 -4.13433 -4.50018 0
M  V30 5268 C 487.841 -5.10434 -4.53813 0
M  V30 5269 O 487.529 -6.39122 -4.87625 0
M  V30 5270 H 487.261 -0.275678 -0.617234 0
M  V30 5271 H 489.815 -1.38658 -1.51536 0
M  V30 5272 H 488.045 -0.351612 -3.85098 0
M  V30 5273 H 489.734 -0.746846 -3.9897 0
M  V30 5274 H 490.5 -3.20549 -3.63969 0
M  V30 5275 H 486.379 -2.07568 -4.11627 0
M  V30 5276 H 489.923 -5.52488 -4.25914 0
M  V30 5277 H 485.82 -4.38604 -4.736 0
M  V30 5278 H 486.588 -6.43715 -5.05542 0
M  V30 5279 N 489.251 1.34841 -0.815825 0
M  V30 5280 C 490.199 2.31549 -0.220888 0
M  V30 5281 C 491.193 1.5707 0.634457 0
M  V30 5282 O 492.399 1.72125 0.526589 0
M  V30 5283 H 488.774 0.750153 -0.0526782 0
M  V30 5284 H 490.745 2.7926 -1.05149 0
M  V30 5285 C 489.494 3.42335 0.608427 0
M  V30 5286 H 488.817 3.9978 -0.0404121 0
M  V30 5287 H 490.257 4.12258 0.990931 0
M  V30 5288 C 488.716 2.86173 1.77782 0
M  V30 5289 O 489.246 2.80474 2.87571 0
M  V30 5290 N 487.452 2.43093 1.59229 0
M  V30 5291 H 486.999 2.47928 0.699237 0
M  V30 5292 H 486.957 2.05866 2.37627 0
M  V30 5293 N 490.729 0.570148 1.46925 0
M  V30 5294 C 491.692 -0.159933 2.28641 0
M  V30 5295 C 492.692 -0.830638 1.37685 0
M  V30 5296 O 493.882 -0.684516 1.60187 0
M  V30 5297 C 491.014 -1.2354 3.17727 0
M  V30 5298 H 492.207 0.558035 2.94662 0
M  V30 5299 H 489.76 0.327603 1.52828 0
M  V30 5300 H 490.495 -1.98535 2.56426 0
M  V30 5301 H 490.28 -0.759125 3.84681 0
M  V30 5302 H 491.77 -1.74782 3.79264 0
M  V30 5303 N 492.207 -1.54576 0.307264 0
M  V30 5304 C 493.432 -2.05139 -0.305379 0
M  V30 5305 C 493.857 -1.18278 -1.46259 0
M  V30 5306 O 493.215 -0.188243 -1.8032 0
M  V30 5307 C 493.263 -3.53066 -0.733283 0
M  V30 5308 O 492.367 -3.69206 -1.83741 0
M  V30 5309 H 491.708 -0.661444 -0.0582105 0
M  V30 5310 H 494.238 -1.99569 0.450931 0
M  V30 5311 H 494.248 -3.95034 -1.02039 0
M  V30 5312 H 492.923 -4.15746 0.113198 0
M  V30 5313 H 491.5 -3.39143 -1.55037 0
M  V30 5314 N 493.685 -0.035106 -1.57561 0
M  V30 5315 C 494.632 0.94474 -2.10578 0
M  V30 5316 C 495.602 1.3192 -1.00927 0
M  V30 5317 O 496.787 1.41147 -1.28382 0
M  V30 5318 C 493.927 2.21982 -2.64231 0
M  V30 5319 C 493.04 1.90128 -3.87911 0
M  V30 5320 C 492.175 3.11975 -4.29936 0
M  V30 5321 C 491.214 2.75968 -5.46359 0
M  V30 5322 N 490.351 3.90459 -5.83512 0
M  V30 5323 H 495.191 0.485717 -2.94015 0
M  V30 5324 H 492.728 0.228143 -1.4532 0
M  V30 5325 H 494.686 2.96572 -2.9343 0
M  V30 5326 H 493.316 2.6549 -1.83616 0
M  V30 5327 H 492.368 1.05755 -3.65404 0
M  V30 5328 H 493.68 1.59613 -4.72573 0
M  V30 5329 H 492.834 3.9488 -4.60603 0
M  V30 5330 H 491.573 3.45657 -3.44053 0
M  V30 5331 H 490.578 1.91478 -5.1538 0
M  V30 5332 H 491.803 2.43497 -6.33945 0
M  V30 5333 H 489.749 4.23971 -5.00584 0
M  V30 5334 H 489.666 3.63588 -6.62827 0
M  V30 5335 H 490.934 4.7405 -6.18787 0
M  V30 5336 N 495.163 1.55791 0.238111 0
M  V30 5337 C 496.388 1.8244 0.986432 0
M  V30 5338 C 496.813 0.613314 1.7782 0
M  V30 5339 O 496.171 -0.437767 1.75935 0
M  V30 5340 C 496.219 3.06917 1.893 0
M  V30 5341 O 495.323 2.84449 2.98601 0
M  V30 5342 H 494.664 0.601975 0.280218 0
M  V30 5343 H 497.194 2.02987 0.256437 0
M  V30 5344 H 497.204 3.36583 2.30598 0
M  V30 5345 H 495.879 3.947 1.31091 0
M  V30 5346 H 494.456 2.65972 2.61368 0
M  V30 5347 N 496.642 -0.504142 1.49319 0
M  V30 5348 C 497.89 -1.25598 1.58334 0
M  V30 5349 C 498.211 -1.93114 0.270538 0
M  V30 5350 O 497.481 -1.82585 -0.709891 0
M  V30 5351 H 496.061 -0.466571 0.58337 0
M  V30 5352 H 498.723 -0.584547 1.85928 0
M  V30 5353 H 497.819 -2.02159 2.37778 0
M  V30 5354 N 498.12 -1.38341 -0.754957 0
M  V30 5355 C 499.368 -1.34208 -1.51105 0
M  V30 5356 C 499.689 0.0677634 -1.94882 0
M  V30 5357 O 498.959 1.01517 -1.67544 0
M  V30 5358 H 497.539 -0.493819 -0.560493 0
M  V30 5359 H 500.201 -1.73005 -0.897507 0
M  V30 5360 H 499.297 -1.99203 -2.4026 0
M  V30 5361 N 499.598 0.982988 -1.23187 0
M  V30 5362 C 500.546 2.09616 -1.00817 0
M  V30 5363 C 501.54 1.6932 0.0519995 0
M  V30 5364 O 502.746 1.79715 -0.101284 0
M  V30 5365 H 499.121 0.685628 -0.308899 0
M  V30 5366 H 501.092 2.25652 -1.95253 0
M  V30 5367 C 499.841 3.42249 -0.613243 0
M  V30 5368 H 499.164 3.73705 -1.42073 0
M  V30 5369 H 500.604 4.21086 -0.496208 0
M  V30 5370 C 499.063 3.30002 0.678233 0
M  V30 5371 O 499.593 3.6263 1.72807 0
M  V30 5372 N 497.799 2.83164 0.653165 0
M  V30 5373 H 497.346 2.56811 -0.201492 0
M  V30 5374 H 497.304 2.75352 1.51752 0
M  V30 5375 N 501.076 1.04316 1.18135 0
M  V30 5376 C 502.306 0.767003 1.91835 0
M  V30 5377 C 502.714 -0.68002 1.76557 0
M  V30 5378 O 502.057 -1.47548 1.09432 0
M  V30 5379 C 502.119 1.05674 3.43618 0
M  V30 5380 C 501.783 2.49818 3.82675 0
M  V30 5381 C 502.78 3.48003 3.86251 0
M  V30 5382 C 500.465 2.84596 4.13897 0
M  V30 5383 C 502.459 4.79016 4.20503 0
M  V30 5384 C 500.146 4.15813 4.4782 0
M  V30 5385 C 501.144 5.12834 4.51099 0
M  V30 5386 O 500.832 6.41699 4.84229 0
M  V30 5387 H 500.564 0.278948 0.615763 0
M  V30 5388 H 503.118 1.3946 1.50798 0
M  V30 5389 H 501.348 0.372029 3.84906 0
M  V30 5390 H 503.037 0.767994 3.98568 0
M  V30 5391 H 503.803 3.22475 3.62264 0
M  V30 5392 H 499.682 2.09748 4.1052 0
M  V30 5393 H 503.226 5.54739 4.22978 0
M  V30 5394 H 499.123 4.41109 4.71268 0
M  V30 5395 H 499.891 6.46387 5.02121 0
M  V30 5396 N 502.554 -1.34406 0.822964 0
M  V30 5397 C 503.831 -1.92733 0.333641 0
M  V30 5398 C 504.211 -1.75107 -1.17901 0
M  V30 5399 O 503.559 -1.12983 -1.98613 0
M  V30 5400 C 503.769 -3.40557 0.763023 0
M  V30 5401 C 505.117 -4.17709 0.761879 0
M  V30 5402 O 506.141 -3.49141 0.705606 0
M  V30 5403 O 505 -5.40082 0.835109 0
M  V30 5404 H 502.094 -0.821964 0.0911249 0
M  V30 5405 H 504.64 -1.4338 0.907757 0
M  V30 5406 H 503.412 -3.47187 1.8049 0
M  V30 5407 H 503.035 -3.97259 0.164605 0
M  V30 5408 N 504.032 -0.577932 -1.46621 0
M  V30 5409 C 504.965 0.206312 -2.27265 0
M  V30 5410 C 505.943 0.901306 -1.35334 0
M  V30 5411 O 507.127 0.916151 -1.64739 0
M  V30 5412 C 504.254 1.29563 -3.1294 0
M  V30 5413 C 503.3 0.706981 -4.206 0
M  V30 5414 S 504.133 -0.462459 -5.33499 0
M  V30 5415 C 505.289 0.628171 -6.2274 0
M  V30 5416 H 505.522 -0.477961 -2.93433 0
M  V30 5417 H 503.055 -0.364715 -1.50031 0
M  V30 5418 H 505.013 1.91935 -3.62865 0
M  V30 5419 H 503.674 1.95183 -2.46095 0
M  V30 5420 H 502.867 1.52565 -4.80354 0
M  V30 5421 H 502.469 0.159022 -3.73662 0
M  V30 5422 H 504.761 1.51506 -6.60342 0
M  V30 5423 H 505.704 0.0674961 -7.08068 0
M  V30 5424 H 506.112 0.930167 -5.56784 0
M  V30 5425 N 505.51 1.54411 -0.315457 0
M  V30 5426 C 506.926 1.59556 0.037464 0
M  V30 5427 C 507.126 1.33217 1.5118 0
M  V30 5428 O 506.182 1.11264 2.26664 0
M  V30 5429 C 507.495 2.98372 -0.373477 0
M  V30 5430 C 509.043 3.11324 -0.323452 0
M  V30 5431 C 509.518 4.52472 -0.709433 0
M  V30 5432 N 511.009 4.58437 -0.662524 0
M  V30 5433 C 511.744 5.65751 -0.933474 0
M  V30 5434 N 511.24 6.81039 -1.27114 0
M  V30 5435 N 513.033 5.55489 -0.859573 0
M  V30 5436 H 505.184 1.6979 -1.27614 0
M  V30 5437 H 507.447 0.793732 -0.518356 0
M  V30 5438 H 507.153 3.22618 -1.40037 0
M  V30 5439 H 507.027 3.76264 0.265615 0
M  V30 5440 H 509.414 2.86818 0.694223 0
M  V30 5441 H 509.495 2.35555 -0.997367 0
M  V30 5442 H 509.139 4.7771 -1.72498 0
M  V30 5443 H 509.069 5.26598 -0.0132923 0
M  V30 5444 H 511.56 3.75636 -0.413065 0
M  V30 5445 H 511.873 7.58816 -1.46348 0
M  V30 5446 H 510.218 6.82555 -1.30932 0
M  V30 5447 H 513.409 4.64299 -0.595324 0
M  V30 5448 H 513.582 6.39036 -1.0741 0
M  V30 5449 N 506.988 0.0434614 1.5754 0
M  V30 5450 C 507.936 -0.951465 2.1225 0
M  V30 5451 C 508.93 -1.3274 1.05245 0
M  V30 5452 O 510.136 -1.30795 1.23663 0
M  V30 5453 H 506.511 -0.324667 0.678303 0
M  V30 5454 H 508.482 -0.464855 2.94757 0
M  V30 5455 C 507.231 -2.21972 2.67626 0
M  V30 5456 H 506.554 -1.93923 3.4962 0
M  V30 5457 H 507.994 -2.89765 3.09536 0
M  V30 5458 C 506.453 -2.95919 1.61038 0
M  V30 5459 O 506.983 -3.8857 1.01862 0
M  V30 5460 N 505.189 -2.58511 1.32741 0
M  V30 5461 H 504.736 -1.83244 1.81051 0
M  V30 5462 H 504.694 -3.08296 0.616531 0
M  V30 5463 N 508.466 -1.55915 -0.229846 0
M  V30 5464 C 509.715 -1.77742 -0.953455 0
M  V30 5465 C 510.028 -0.610524 -1.85828 0
M  V30 5466 O 511.234 -0.712219 -2.61992 0
M  V30 5467 C 509.69 -3.14738 -1.74551 0
M  V30 5468 C 509.298 -4.39126 -0.887242 0
M  V30 5469 C 511.042 -3.45895 -2.46084 0
M  V30 5470 C 508.949 -5.67149 -1.67617 0
M  V30 5471 H 507.879 -0.662648 -0.359741 0
M  V30 5472 H 510.53 -1.82322 -0.207576 0
M  V30 5473 H 508.912 -3.04311 -2.53399 0
M  V30 5474 H 510.086 -4.60588 -0.139892 0
M  V30 5475 H 508.401 -4.15427 -0.284443 0
M  V30 5476 H 510.998 -4.38767 -3.05594 0
M  V30 5477 H 511.341 -2.68007 -3.18556 0
M  V30 5478 H 511.874 -3.57614 -1.74233 0
M  V30 5479 H 508.613 -6.47906 -0.994881 0
M  V30 5480 H 508.133 -5.49763 -2.39836 0
M  V30 5481 H 509.812 -6.07025 -2.23898 0
M  V30 5482 N 509.944 0.496216 -1.49584 0
M  V30 5483 C 511.191 1.25003 -1.59312 0
M  V30 5484 C 511.519 1.92445 -0.28198 0
M  V30 5485 O 510.774 1.81557 0.730452 0
M  V30 5486 C 511.073 2.3359 -2.705 0
M  V30 5487 C 510.739 1.83574 -4.11839 0
M  V30 5488 C 509.401 1.69653 -4.50302 0
M  V30 5489 C 511.753 1.46193 -5.00277 0
M  V30 5490 C 509.081 1.16736 -5.74969 0
M  V30 5491 C 511.433 0.947265 -6.25468 0
M  V30 5492 C 510.097 0.794485 -6.62755 0
M  V30 5493 H 509.367 0.45742 -0.582965 0
M  V30 5494 H 512.014 0.549996 -1.83432 0
M  V30 5495 H 510.319 3.09401 -2.40371 0
M  V30 5496 H 512.016 2.91627 -2.75235 0
M  V30 5497 H 508.606 1.9537 -3.81482 0
M  V30 5498 H 512.79 1.55793 -4.71214 0
M  V30 5499 H 508.046 1.03623 -6.02555 0
M  V30 5500 H 512.22 0.648846 -6.93371 0
M  V30 5501 H 509.847 0.382271 -7.59238 0
M  V30 5502 N 511.423 1.38739 0.74761 0
M  V30 5503 C 512.371 1.36573 1.88283 0
M  V30 5504 C 513.365 0.250712 1.67534 0
M  V30 5505 O 514.571 0.420073 1.7503 0
M  V30 5506 H 510.946 0.42619 0.619569 0
M  V30 5507 H 512.917 2.32356 1.87226 0
M  V30 5508 C 511.666 1.21361 3.25832 0
M  V30 5509 H 510.989 2.06424 3.42388 0
M  V30 5510 H 512.429 1.23901 4.05493 0
M  V30 5511 C 510.888 -0.0790099 3.36807 0
M  V30 5512 O 511.418 -1.05385 3.8763 0
M  V30 5513 N 509.624 -0.13785 2.90273 0
M  V30 5514 H 509.171 0.656128 2.49104 0
M  V30 5515 H 509.129 -1.00228 2.97996 0
M  V30 5516 N 512.901 -0.976442 1.23707 0
M  V30 5517 C 514.149 -1.71487 1.06942 0
M  V30 5518 C 514.47 -1.9098 -0.393897 0
M  V30 5519 O 513.74 -1.48128 -1.28198 0
M  V30 5520 H 512.32 -0.635425 0.392739 0
M  V30 5521 H 514.982 -1.17515 1.55487 0
M  V30 5522 H 514.078 -2.70286 1.56051 0
M  V30 5523 N 514.379 -1.04941 -1.1758 0
M  V30 5524 C 515.607 -0.778294 -1.91703 0
M  V30 5525 C 516.022 0.665697 -1.76675 0
M  V30 5526 O 515.379 1.45456 -1.10222 0
M  V30 5527 C 515.43 -1.14628 -3.42845 0
M  V30 5528 O 515.151 -2.53359 -3.57409 0
M  V30 5529 C 516.652 -0.900931 -4.34049 0
M  V30 5530 H 513.872 -0.283167 -0.608323 0
M  V30 5531 H 516.416 -1.39942 -1.49119 0
M  V30 5532 H 514.571 -0.569953 -3.83184 0
M  V30 5533 H 514.985 -2.67709 -4.51035 0
M  V30 5534 H 516.459 -1.20817 -5.38616 0
M  V30 5535 H 516.936 0.163966 -4.38894 0
M  V30 5536 H 517.542 -1.46097 -3.99419 0
M  V30 5537 N 515.857 1.33968 -0.830081 0
M  V30 5538 C 517.103 1.98357 -0.422191 0
M  V30 5539 C 517.436 1.65633 1.01387 0
M  V30 5540 O 516.711 0.931648 1.70735 0
M  V30 5541 C 516.994 3.54492 -0.633043 0
M  V30 5542 C 516.847 3.96934 -2.11574 0
M  V30 5543 C 518.166 4.40039 -0.0735584 0
M  V30 5544 H 515.285 0.720544 -0.154871 0
M  V30 5545 H 517.927 1.58749 -1.04397 0
M  V30 5546 H 516.077 3.88361 -0.103775 0
M  V30 5547 H 517.749 3.73363 -2.7092 0
M  V30 5548 H 515.992 3.46984 -2.60354 0
M  V30 5549 H 516.663 5.05651 -2.21406 0
M  V30 5550 H 519.139 4.12764 -0.52585 0
M  V30 5551 H 518.015 5.48327 -0.250841 0
M  V30 5552 H 518.276 4.30124 1.02202 0
M  V30 5553 N 517.335 0.585699 1.46312 0
M  V30 5554 C 518.581 0.0725284 2.0267 0
M  V30 5555 C 518.914 -1.28523 1.45586 0
M  V30 5556 O 518.189 -1.84283 0.622101 0
M  V30 5557 C 518.472 0.0099788 3.60099 0
M  V30 5558 C 518.325 1.39685 4.27561 0
M  V30 5559 C 519.644 -0.689117 4.34671 0
M  V30 5560 H 516.763 0.0278307 0.736474 0
M  V30 5561 H 519.405 0.753472 1.74421 0
M  V30 5562 H 517.555 -0.56992 3.84297 0
M  V30 5563 H 519.227 2.02215 4.14617 0
M  V30 5564 H 517.47 1.96374 3.86807 0
M  V30 5565 H 518.141 1.30553 5.36339 0
M  V30 5566 H 520.617 -0.196446 4.15636 0
M  V30 5567 H 519.493 -0.701921 5.44393 0
M  V30 5568 H 519.754 -1.75101 4.05946 0
M  V30 5569 N 518.813 -1.54241 0.323641 0
M  V30 5570 C 519.745 -2.21836 -0.576311 0
M  V30 5571 C 520.758 -1.21837 -1.07979 0
M  V30 5572 O 521.947 -1.48306 -0.99336 0
M  V30 5573 C 519.047 -2.86923 -1.80356 0
M  V30 5574 C 518.22 -4.1306 -1.43875 0
M  V30 5575 C 517.279 -4.6174 -2.52353 0
M  V30 5576 O 516.305 -5.26421 -2.16494 0
M  V30 5577 N 517.507 -4.35974 -3.83284 0
M  V30 5578 H 520.272 -2.997 0.00247987 0
M  V30 5579 H 517.833 -1.61233 0.146848 0
M  V30 5580 H 519.825 -3.16414 -2.52318 0
M  V30 5581 H 518.395 -2.12765 -2.29019 0
M  V30 5582 H 517.615 -3.90334 -0.550752 0
M  V30 5583 H 518.903 -4.95148 -1.17071 0
M  V30 5584 H 518.301 -3.84203 -4.15216 0
M  V30 5585 H 516.858 -4.70119 -4.51477 0
M  V30 5586 N 520.291 -0.0518155 -1.57515 0
M  V30 5587 C 521.707 0.304735 -1.56664 0
M  V30 5588 C 521.907 1.71395 -1.05953 0
M  V30 5589 O 520.963 2.42123 -0.716414 0
M  V30 5590 C 522.276 0.132614 -3.00407 0
M  V30 5591 C 523.824 0.20367 -3.12337 0
M  V30 5592 C 524.299 0.0600706 -4.57961 0
M  V30 5593 N 525.79 0.116326 -4.63054 0
M  V30 5594 C 526.525 0.0293363 -5.73392 0
M  V30 5595 N 526.021 -0.110038 -6.92713 0
M  V30 5596 N 527.814 0.0849651 -5.62036 0
M  V30 5597 H 519.965 -0.973056 -1.888 0
M  V30 5598 H 522.228 -0.377781 -0.869474 0
M  V30 5599 H 521.934 -0.839019 -3.41546 0
M  V30 5600 H 521.808 0.893376 -3.66468 0
M  V30 5601 H 524.195 1.16578 -2.71097 0
M  V30 5602 H 524.276 -0.587857 -2.48954 0
M  V30 5603 H 523.92 -0.898715 -4.99886 0
M  V30 5604 H 523.85 0.87075 -5.19351 0
M  V30 5605 H 526.341 0.22327 -3.7724 0
M  V30 5606 H 526.654 -0.169104 -7.72615 0
M  V30 5607 H 524.999 -0.145132 -6.94848 0
M  V30 5608 H 528.19 0.192411 -4.67704 0
M  V30 5609 H 528.363 0.0137131 -6.47999 0
M  V30 5610 N 521.769 1.56035 0.221574 0
M  V30 5611 C 522.719 1.8881 1.27807 0
M  V30 5612 C 523.703 0.751177 1.42289 0
M  V30 5613 O 524.895 1.01359 1.45104 0
M  V30 5614 C 522.024 2.20828 2.6285 0
M  V30 5615 C 521.11 3.40912 2.52269 0
M  V30 5616 N 521.501 4.59531 2.1134 0
M  V30 5617 C 519.799 3.44526 2.83228 0
M  V30 5618 C 520.5 5.41689 2.1201 0
M  V30 5619 N 519.476 4.814 2.52497 0
M  V30 5620 H 523.278 2.78036 0.952529 0
M  V30 5621 H 520.792 1.566 0.430134 0
M  V30 5622 H 522.789 2.42483 3.39127 0
M  V30 5623 H 521.449 1.32914 2.9625 0
M  V30 5624 H 522.46 4.8469 1.82472 0
M  V30 5625 H 519.137 2.66956 3.21 0
M  V30 5626 H 520.527 6.46643 1.82491 0
M  V30 5627 N 523.247 -0.488276 1.49845 0
M  V30 5628 C 524.658 -1.06955 1.53028 0
M  V30 5629 C 525.009 -1.9351 0.323797 0
M  V30 5630 O 524.134 -2.08891 -0.565116 0
M  V30 5631 C 524.729 -1.94643 2.77307 0
M  V30 5632 C 523.288 -2.4791 2.83227 0
M  V30 5633 C 522.435 -1.25833 2.47106 0
M  V30 5634 H 525.386 -0.271626 1.56358 0
M  V30 5635 H 525.407 -2.79496 2.5819 0
M  V30 5636 H 524.919 -1.31621 3.65099 0
M  V30 5637 H 523.02 -3.14535 1.99745 0
M  V30 5638 H 523.133 -2.84193 3.85709 0
M  V30 5639 H 521.497 -1.58764 1.99163 0
M  V30 5640 H 522.28 -0.644993 3.37186 0
M  V30 5641 N 524.725 -1.39134 -0.740242 0
M  V30 5642 C 525.95 -1.39518 -1.53459 0
M  V30 5643 C 526.375 0.00968883 -1.88098 0
M  V30 5644 O 525.733 0.995312 -1.51536 0
M  V30 5645 C 525.781 -2.26981 -2.802 0
M  V30 5646 O 524.885 -1.69609 -3.75908 0
M  V30 5647 H 524.226 -0.475328 -0.463637 0
M  V30 5648 H 526.756 -1.83064 -0.913717 0
M  V30 5649 H 526.766 -2.41309 -3.28989 0
M  V30 5650 H 525.441 -3.29081 -2.5432 0
M  V30 5651 H 524.018 -1.64495 -3.34658 0
M  V30 5652 N 526.204 0.969867 -1.24223 0
M  V30 5653 C 527.154 2.04913 -0.999732 0
M  V30 5654 C 528.138 1.60795 0.0580636 0
M  V30 5655 O 529.33 1.76317 -0.155392 0
M  V30 5656 C 526.459 3.37942 -0.604154 0
M  V30 5657 C 525.545 3.88628 -1.69791 0
M  V30 5658 N 525.936 4.12274 -2.93025 0
M  V30 5659 C 524.234 4.17268 -1.57492 0
M  V30 5660 C 524.935 4.53808 -3.63914 0
M  V30 5661 N 523.911 4.58855 -2.91468 0
M  V30 5662 H 527.713 2.21168 -1.93551 0
M  V30 5663 H 525.227 1.15349 -1.14317 0
M  V30 5664 H 527.224 4.14863 -0.411665 0
M  V30 5665 H 525.884 3.23075 0.324465 0
M  V30 5666 H 526.895 3.99789 -3.29225 0
M  V30 5667 H 523.572 4.11346 -0.714175 0
M  V30 5668 H 524.962 4.80534 -4.69614 0
M  V30 5669 N 527.682 1.05563 1.17022 0
M  V30 5670 C 528.645 0.664098 2.19368 0
M  V30 5671 C 529.645 -0.286358 1.5823 0
M  V30 5672 O 530.835 -0.069728 1.7406 0
M  V30 5673 C 527.967 -0.0239932 3.40892 0
M  V30 5674 H 529.16 1.57 2.55521 0
M  V30 5675 H 526.713 0.849964 1.31169 0
M  V30 5676 H 527.448 -0.942988 3.10287 0
M  V30 5677 H 527.233 0.659351 3.86516 0
M  V30 5678 H 528.723 -0.283909 4.16634 0
M  V30 5679 N 529.16 -1.33526 0.837174 0
M  V30 5680 C 530.406 -1.9813 0.432704 0
M  V30 5681 C 530.739 -1.66168 -1.00508 0
M  V30 5682 O 530.014 -0.94069 -1.70239 0
M  V30 5683 C 530.297 -3.54151 0.651834 0
M  V30 5684 C 530.15 -3.95806 2.13676 0
M  V30 5685 C 531.469 -4.39993 0.0968937 0
M  V30 5686 H 528.588 -0.719713 0.15869 0
M  V30 5687 H 531.23 -1.58193 1.05237 0
M  V30 5688 H 529.38 -3.88301 0.124369 0
M  V30 5689 H 531.052 -3.71921 2.72896 0
M  V30 5690 H 529.295 -3.45599 2.62191 0
M  V30 5691 H 529.966 -5.0447 2.24084 0
M  V30 5692 H 532.442 -4.12479 0.547733 0
M  V30 5693 H 531.318 -5.48186 0.279917 0
M  V30 5694 H 531.579 -4.3066 -0.9992 0
M  V30 5695 N 530.638 -0.59345 -1.46 0
M  V30 5696 C 531.866 -0.0890934 -2.06708 0
M  V30 5697 C 532.281 1.2205 -1.44046 0
M  V30 5698 O 531.638 1.74029 -0.549551 0
M  V30 5699 C 531.689 0.0720263 -3.61428 0
M  V30 5700 O 531.41 -1.18574 -4.21748 0
M  V30 5701 C 532.911 0.609487 -4.3909 0
M  V30 5702 H 530.131 -0.0623628 -0.668096 0
M  V30 5703 H 532.675 -0.817171 -1.87464 0
M  V30 5704 H 530.83 0.750369 -3.80063 0
M  V30 5705 H 531.244 -1.0064 -5.14754 0
M  V30 5706 H 532.718 0.671363 -5.47902 0
M  V30 5707 H 533.195 1.62878 -4.07882 0
M  V30 5708 H 533.801 -0.03434 -4.25286 0
M  V30 5709 N 532.116 1.54067 -0.331816 0
M  V30 5710 C 533.363 2.00715 0.268269 0
M  V30 5711 C 533.691 1.21986 1.51491 0
M  V30 5712 O 532.946 0.292309 1.93505 0
M  V30 5713 C 533.245 3.51634 0.639392 0
M  V30 5714 C 532.911 4.48018 -0.509019 0
M  V30 5715 C 531.573 4.74089 -0.824209 0
M  V30 5716 C 533.925 5.05237 -1.28003 0
M  V30 5717 C 531.253 5.54637 -1.91298 0
M  V30 5718 C 533.605 5.86972 -2.35895 0
M  V30 5719 C 532.269 6.11342 -2.67987 0
M  V30 5720 H 531.539 0.734469 0.0981667 0
M  V30 5721 H 534.186 1.8596 -0.457304 0
M  V30 5722 H 532.491 3.6416 1.44551 0
M  V30 5723 H 534.188 3.85175 1.11539 0
M  V30 5724 H 530.778 4.27851 -0.253287 0
M  V30 5725 H 534.962 4.8507 -1.04978 0
M  V30 5726 H 530.218 5.71747 -2.16599 0
M  V30 5727 H 534.392 6.30327 -2.96076 0
M  V30 5728 H 532.019 6.73544 -3.5248 0
M  V30 5729 N 533.594 0.0601682 1.57485 0
M  V30 5730 C 534.84 -0.612501 1.93329 0
M  V30 5731 C 535.173 -1.6996 0.939526 0
M  V30 5732 O 534.448 -1.94472 -0.0330957 0
M  V30 5733 C 534.731 -1.20025 3.39508 0
M  V30 5734 C 534.584 -0.12059 4.49638 0
M  V30 5735 C 535.903 -2.10923 3.86264 0
M  V30 5736 H 533.022 -0.221185 0.703027 0
M  V30 5737 H 535.664 0.123768 1.89596 0
M  V30 5738 H 533.814 -1.82774 3.42821 0
M  V30 5739 H 535.486 0.51185 4.58452 0
M  V30 5740 H 533.729 0.550251 4.30296 0
M  V30 5741 H 534.4 -0.572019 5.49028 0
M  V30 5742 H 536.876 -1.58124 3.84884 0
M  V30 5743 H 535.752 -2.48987 4.8918 0
M  V30 5744 H 536.013 -3.01292 3.23536 0
M  V30 5745 N 535.072 -1.5615 -0.213296 0
M  V30 5746 C 536.349 -1.70349 -0.961281 0
M  V30 5747 C 536.729 -0.609791 -2.02101 0
M  V30 5748 O 536.077 0.381987 -2.25285 0
M  V30 5749 C 536.287 -3.11982 -1.56424 0
M  V30 5750 C 537.635 -3.71649 -2.05334 0
M  V30 5751 O 538.659 -3.14995 -1.66302 0
M  V30 5752 O 537.518 -4.71038 -2.77102 0
M  V30 5753 H 534.612 -0.694121 -0.449582 0
M  V30 5754 H 537.158 -1.68464 -0.204426 0
M  V30 5755 H 535.93 -3.83046 -0.799457 0
M  V30 5756 H 535.553 -3.18019 -2.38641 0
M  V30 5757 N 536.55 0.480323 -1.50102 0
M  V30 5758 C 537.498 1.60024 -1.68805 0
M  V30 5759 C 538.492 1.60089 -0.553888 0
M  V30 5760 O 539.698 1.64349 -0.734127 0
M  V30 5761 H 536.073 0.530841 -0.532646 0
M  V30 5762 H 538.044 1.41408 -2.62767 0
M  V30 5763 C 536.793 2.98029 -1.79092 0
M  V30 5764 H 536.116 2.98694 -2.65748 0
M  V30 5765 H 537.556 3.75871 -1.96206 0
M  V30 5766 C 536.015 3.32538 -0.540388 0
M  V30 5767 O 536.545 4.00386 0.324637 0
M  V30 5768 N 534.751 2.87873 -0.397154 0
M  V30 5769 H 534.298 2.32834 -1.1021 0
M  V30 5770 H 534.256 3.11328 0.438425 0
M  V30 5771 N 538.028 1.39524 0.732853 0
M  V30 5772 C 538.978 1.34905 1.83806 0
M  V30 5773 C 539.962 0.229546 1.59254 0
M  V30 5774 O 541.154 0.467255 1.70721 0
M  V30 5775 C 538.283 1.19699 3.21756 0
M  V30 5776 C 537.369 2.36359 3.5213 0
M  V30 5777 N 537.76 3.61834 3.53426 0
M  V30 5778 C 536.058 2.29363 3.82503 0
M  V30 5779 C 536.759 4.38992 3.81655 0
M  V30 5780 N 535.735 3.68606 3.99538 0
M  V30 5781 H 539.537 2.29882 1.83116 0
M  V30 5782 H 537.051 1.33051 0.931194 0
M  V30 5783 H 539.048 1.14472 4.00876 0
M  V30 5784 H 537.708 0.256739 3.23683 0
M  V30 5785 H 538.719 3.95228 3.34686 0
M  V30 5786 H 535.396 1.43612 3.92023 0
M  V30 5787 H 536.786 5.47763 3.89108 0
M  V30 5788 N 539.506 -0.963266 1.24736 0
M  V30 5789 C 540.783 -1.68248 0.9976 0
M  V30 5790 C 541.163 -2.05599 -0.478776 0
M  V30 5791 O 540.511 -1.7626 -1.45412 0
M  V30 5792 C 540.721 -2.91118 1.92487 0
M  V30 5793 C 542.069 -3.63261 2.19833 0
M  V30 5794 O 543.093 -3.01184 1.90176 0
M  V30 5795 O 541.952 -4.75019 2.7022 0
M  V30 5796 H 539.046 -0.735744 0.377637 0
M  V30 5797 H 541.592 -1.01696 1.35853 0
M  V30 5798 H 540.364 -2.60242 2.92215 0
M  V30 5799 H 539.987 -3.65402 1.56738 0
M  V30 5800 N 540.985 -1.06182 -1.16461 0
M  V30 5801 C 542.21 -0.798599 -1.91408 0
M  V30 5802 C 542.635 0.640987 -1.76842 0
M  V30 5803 O 541.993 1.44652 -1.09296 0
M  V30 5804 C 542.041 -1.19665 -3.40165 0
M  V30 5805 O 541.145 -0.334768 -4.11039 0
M  V30 5806 H 540.486 -0.291961 -0.596368 0
M  V30 5807 H 543.016 -1.41732 -1.47557 0
M  V30 5808 H 543.026 -1.16772 -3.90933 0
M  V30 5809 H 541.701 -2.24526 -3.50087 0
M  V30 5810 H 540.278 -0.425168 -3.70468 0
M  V30 5811 N 542.463 1.3308 -0.844243 0
M  V30 5812 C 543.395 2.27954 -0.238671 0
M  V30 5813 C 544.408 1.51978 0.583665 0
M  V30 5814 O 545.597 1.73731 0.409857 0
M  V30 5815 C 542.697 3.31963 0.682185 0
M  V30 5816 C 541.87 4.37281 -0.101998 0
M  V30 5817 C 540.929 5.20928 0.743022 0
M  V30 5818 O 539.955 5.68914 0.180285 0
M  V30 5819 N 541.157 5.42738 2.0595 0
M  V30 5820 H 543.922 2.8056 -1.05386 0
M  V30 5821 H 541.483 1.4583 -0.70322 0
M  V30 5822 H 543.475 3.84828 1.25259 0
M  V30 5823 H 542.045 2.79594 1.39808 0
M  V30 5824 H 541.265 3.84843 -0.853802 0
M  V30 5825 H 542.553 5.04746 -0.641015 0
M  V30 5826 H 541.951 5.05463 2.54016 0
M  V30 5827 H 540.508 5.98639 2.57827 0
M  V30 5828 N 543.941 0.601185 1.45683 0
M  V30 5829 C 545.352 0.179659 1.85834 0
M  V30 5830 C 545.703 -1.26189 1.50236 0
M  V30 5831 O 544.828 -1.95587 0.925987 0
M  V30 5832 C 545.423 0.319277 3.37292 0
M  V30 5833 C 543.982 -0.0475092 3.7637 0
M  V30 5834 C 543.129 0.646692 2.69654 0
M  V30 5835 H 546.08 0.808268 1.36575 0
M  V30 5836 H 546.101 -0.4503 3.77826 0
M  V30 5837 H 545.613 1.36855 3.6317 0
M  V30 5838 H 543.714 -1.0962 3.5611 0
M  V30 5839 H 543.827 0.34168 4.7788 0
M  V30 5840 H 542.191 0.0849971 2.54558 0
M  V30 5841 H 542.974 1.69797 2.98369 0
M  V30 5842 N 545.419 -1.53889 0.339982 0
M  V30 5843 C 546.329 -2.28604 -0.526988 0
M  V30 5844 C 547.345 -1.33578 -1.11503 0
M  V30 5845 O 548.521 -1.66612 -1.13148 0
M  V30 5846 C 545.586 -3.04164 -1.66389 0
M  V30 5847 C 544.647 -4.14809 -1.10599 0
M  V30 5848 C 543.88 -4.86756 -2.18871 0
M  V30 5849 O 544.103 -4.58343 -3.39526 0
M  V30 5850 O 543.037 -5.73289 -1.83366 0
M  V30 5851 H 546.863 -3.03594 0.0802707 0
M  V30 5852 H 544.448 -1.4903 0.105141 0
M  V30 5853 H 546.33 -3.51427 -2.32544 0
M  V30 5854 H 545.005 -2.32035 -2.25703 0
M  V30 5855 H 543.912 -3.71857 -0.409067 0
M  V30 5856 H 545.245 -4.89029 -0.557771 0
M  V30 5857 N 546.897 -0.0685191 -1.57451 0
M  V30 5858 C 547.807 0.914677 -2.16034 0
M  V30 5859 C 548.823 1.32938 -1.12265 0
M  V30 5860 O 549.999 1.40275 -1.44516 0
M  V30 5861 C 547.064 2.16519 -2.70777 0
M  V30 5862 C 546.125 1.80721 -3.89408 0
M  V30 5863 C 545.358 2.9981 -4.41531 0
M  V30 5864 O 545.581 4.13727 -3.92666 0
M  V30 5865 O 544.515 2.79817 -5.32903 0
M  V30 5866 H 548.341 0.446364 -3.00402 0
M  V30 5867 H 545.926 0.154367 -1.486 0
M  V30 5868 H 547.808 2.89856 -3.05878 0
M  V30 5869 H 546.483 2.62454 -1.89471 0
M  V30 5870 H 545.39 1.04646 -3.59166 0
M  V30 5871 H 546.723 1.39571 -4.71997 0
M  V30 5872 N 548.375 1.56261 0.205012 0
M  V30 5873 C 549.338 1.92908 1.23771 0
M  V30 5874 C 550.338 0.809208 1.38955 0
M  V30 5875 O 551.528 1.07676 1.36936 0
M  V30 5876 C 548.66 2.19442 2.60879 0
M  V30 5877 H 549.853 2.85287 0.924728 0
M  V30 5878 H 547.406 1.49798 0.446125 0
M  V30 5879 H 548.141 1.29668 2.97248 0
M  V30 5880 H 547.926 3.0104 2.51232 0
M  V30 5881 H 549.416 2.48833 3.35368 0
M  V30 5882 N 549.853 -0.472356 1.50355 0
M  V30 5883 C 550.783 -1.57859 1.72055 0
M  V30 5884 C 551.764 -1.60283 0.569505 0
M  V30 5885 O 552.949 -1.7657 0.808503 0
M  V30 5886 C 550.079 -2.96191 1.81351 0
M  V30 5887 C 549.033 -3.08633 2.96529 0
M  V30 5888 C 548.359 -4.486 2.90968 0
M  V30 5889 C 549.659 -2.85969 4.37057 0
M  V30 5890 H 551.353 -1.39953 2.64676 0
M  V30 5891 H 548.899 -0.671846 1.27367 0
M  V30 5892 H 550.852 -3.73507 1.95117 0
M  V30 5893 H 549.576 -3.15251 0.853502 0
M  V30 5894 H 548.235 -2.33749 2.82413 0
M  V30 5895 H 547.883 -4.64577 1.92815 0
M  V30 5896 H 547.583 -4.57861 3.68289 0
M  V30 5897 H 549.107 -5.27938 3.0678 0
M  V30 5898 H 550.521 -3.53036 4.51706 0
M  V30 5899 H 548.918 -3.06677 5.15819 0
M  V30 5900 H 549.988 -1.81838 4.49514 0
M  V30 5901 N 551.331 -1.39911 -0.725443 0
M  V30 5902 C 552.241 -1.41688 -1.8698 0
M  V30 5903 C 553.257 -0.310579 -1.71206 0
M  V30 5904 O 554.433 -0.55359 -1.93642 0
M  V30 5905 C 551.498 -1.26811 -3.22676 0
M  V30 5906 C 550.559 -2.47497 -3.50776 0
M  V30 5907 C 549.792 -2.3332 -4.79997 0
M  V30 5908 O 550.015 -1.34175 -5.54394 0
M  V30 5909 O 548.949 -3.22498 -5.08211 0
M  V30 5910 H 552.775 -2.38171 -1.88436 0
M  V30 5911 H 550.36 -1.21128 -0.874548 0
M  V30 5912 H 552.242 -1.20684 -4.03749 0
M  V30 5913 H 550.917 -0.334289 -3.21969 0
M  V30 5914 H 549.824 -2.59201 -2.69751 0
M  V30 5915 H 551.157 -3.39606 -3.5627 0
M  V30 5916 N 552.809 0.956637 -1.25245 0
M  V30 5917 C 554.034 1.74104 -1.12706 0
M  V30 5918 C 554.459 1.85436 0.315429 0
M  V30 5919 O 553.817 1.33334 1.22848 0
M  V30 5920 C 553.865 3.1338 -1.78396 0
M  V30 5921 O 552.969 3.98485 -1.06224 0
M  V30 5922 H 552.31 0.53476 -0.393609 0
M  V30 5923 H 554.84 1.19924 -1.65769 0
M  V30 5924 H 554.85 3.6385 -1.846 0
M  V30 5925 H 553.525 3.04448 -2.83345 0
M  V30 5926 H 552.102 3.56952 -1.07886 0
M  V30 5927 N 554.287 1.06798 1.15896 0
M  V30 5928 C 555.534 0.787767 1.86549 0
M  V30 5929 C 555.862 -0.685959 1.82002 0
M  V30 5930 O 555.117 -1.5188 1.23414 0
M  V30 5931 C 555.416 1.23414 3.35416 0
M  V30 5932 C 555.082 2.71285 3.6016 0
M  V30 5933 C 553.744 3.11676 3.66622 0
M  V30 5934 C 556.096 3.6676 3.7032 0
M  V30 5935 C 553.424 4.4637 3.8075 0
M  V30 5936 C 555.776 5.01209 3.8597 0
M  V30 5937 C 554.44 5.41229 3.90676 0
M  V30 5938 H 553.71 0.288264 0.682631 0
M  V30 5939 H 556.357 1.338 1.37003 0
M  V30 5940 H 554.662 0.60319 3.87129 0
M  V30 5941 H 556.359 0.994298 3.88477 0
M  V30 5942 H 552.949 2.39015 3.55767 0
M  V30 5943 H 557.133 3.36685 3.64633 0
M  V30 5944 H 552.389 4.76855 3.82648 0
M  V30 5945 H 556.563 5.75067 3.92773 0
M  V30 5946 H 554.19 6.45602 4.01375 0
M  V30 5947 N 555.766 -1.3263 0.851289 0
M  V30 5948 C 557.012 -1.9766 0.453694 0
M  V30 5949 C 557.345 -1.67225 -0.987396 0
M  V30 5950 O 556.62 -0.958693 -1.69232 0
M  V30 5951 C 556.903 -3.5344 0.68936 0
M  V30 5952 C 556.756 -3.93517 2.17862 0
M  V30 5953 C 558.075 -4.39866 0.143555 0
M  V30 5954 H 555.194 -0.717989 0.166314 0
M  V30 5955 H 557.836 -1.57068 1.06909 0
M  V30 5956 H 555.986 -3.88147 0.165546 0
M  V30 5957 H 557.658 -3.69006 2.76826 0
M  V30 5958 H 555.901 -3.42798 2.65841 0
M  V30 5959 H 556.572 -5.02065 2.29422 0
M  V30 5960 H 559.048 -4.11875 0.591451 0
M  V30 5961 H 557.924 -5.47858 0.338043 0
M  V30 5962 H 558.185 -4.31696 -0.953466 0
M  V30 5963 N 557.244 -0.608902 -1.45362 0
M  V30 5964 C 558.154 0.110969 -2.34337 0
M  V30 5965 C 559.17 0.859007 -1.51318 0
M  V30 5966 O 560.346 0.816296 -1.84116 0
M  V30 5967 C 557.411 1.09494 -3.28956 0
M  V30 5968 C 556.472 0.348718 -4.27881 0
M  V30 5969 C 555.705 1.28582 -5.17979 0
M  V30 5970 O 555.928 2.52369 -5.11533 0
M  V30 5971 O 554.862 0.782172 -5.96796 0
M  V30 5972 H 558.688 -0.620258 -2.97299 0
M  V30 5973 H 556.273 -0.36916 -1.44767 0
M  V30 5974 H 558.155 1.66163 -3.87257 0
M  V30 5975 H 556.83 1.80717 -2.68557 0
M  V30 5976 H 555.737 -0.260465 -3.73192 0
M  V30 5977 H 557.07 -0.323049 -4.91139 0
M  V30 5978 N 558.722 1.53707 -0.348139 0
M  V30 5979 C 559.632 2.28881 0.514857 0
M  V30 5980 C 560.648 1.34168 1.10793 0
M  V30 5981 O 561.824 1.6721 1.12262 0
M  V30 5982 C 558.889 3.05042 1.64774 0
M  V30 5983 C 557.95 4.15389 1.08398 0
M  V30 5984 C 557.183 4.87909 2.16287 0
M  V30 5985 O 557.406 4.60137 3.3709 0
M  V30 5986 O 556.34 5.74254 1.80323 0
M  V30 5987 H 560.166 3.03547 -0.0963699 0
M  V30 5988 H 557.751 1.48972 -0.113043 0
M  V30 5989 H 559.633 3.52656 2.30677 0
M  V30 5990 H 558.308 2.33228 2.24469 0
M  V30 5991 H 557.215 3.72068 0.389341 0
M  V30 5992 H 558.548 4.89318 0.531829 0
M  V30 5993 N 560.2 0.0768682 1.57412 0
M  V30 5994 C 561.446 -0.585926 1.94778 0
M  V30 5995 C 561.801 -1.66912 0.956982 0
M  V30 5996 O 561.094 -1.9159 -0.0199454 0
M  V30 5997 C 561.288 -1.20268 3.36557 0
M  V30 5998 C 561.117 -0.18076 4.49337 0
M  V30 5999 C 559.887 0.236362 5.04747 0
M  V30 6000 C 562.085 0.583978 5.10974 0
M  V30 6001 N 560.067 1.24846 6.01071 0
M  V30 6002 C 561.438 1.44841 6.02844 0
M  V30 6003 C 563.493 0.639492 4.93776 0
M  V30 6004 C 562.196 2.36343 6.79363 0
M  V30 6005 C 564.222 1.54204 5.70942 0
M  V30 6006 C 563.584 2.39414 6.62465 0
M  V30 6007 H 559.683 -0.185281 0.759734 0
M  V30 6008 H 562.267 0.155193 1.9408 0
M  V30 6009 H 560.438 -1.9137 3.37982 0
M  V30 6010 H 562.17 -1.82636 3.61146 0
M  V30 6011 H 558.925 -0.14777 4.73369 0
M  V30 6012 H 559.349 1.75217 6.53933 0
M  V30 6013 H 563.991 -0.00510074 4.228 0
M  V30 6014 H 561.709 3.01836 7.49614 0
M  V30 6015 H 565.295 1.5899 5.59655 0
M  V30 6016 H 564.175 3.0812 7.21132 0
M  V30 6017 N 561.678 -1.56367 -0.196722 0
M  V30 6018 C 562.925 -1.80529 -0.917366 0
M  V30 6019 C 563.253 -0.649817 -1.83324 0
M  V30 6020 O 562.508 0.36451 -1.92275 0
M  V30 6021 C 562.807 -3.10663 -1.767 0
M  V30 6022 C 562.473 -4.3962 -1.00225 0
M  V30 6023 C 561.135 -4.74653 -0.791095 0
M  V30 6024 C 563.487 -5.1913 -0.464035 0
M  V30 6025 C 560.815 -5.86692 -0.0302155 0
M  V30 6026 C 563.167 -6.31964 0.283625 0
M  V30 6027 C 561.831 -6.65581 0.505813 0
M  V30 6028 H 561.101 -0.660602 -0.335688 0
M  V30 6029 H 563.748 -1.90615 -0.183844 0
M  V30 6030 H 562.053 -2.95807 -2.56915 0
M  V30 6031 H 563.75 -3.26563 -2.32718 0
M  V30 6032 H 560.34 -4.12127 -1.17684 0
M  V30 6033 H 564.524 -4.9248 -0.614575 0
M  V30 6034 H 559.78 -6.11211 0.151917 0
M  V30 6035 H 563.954 -6.92791 0.708057 0
M  V30 6036 H 561.581 -7.52239 1.0973 0
M  V30 6037 N 563.156 0.464375 -1.50603 0
M  V30 6038 C 564.103 1.56152 -1.69956 0
M  V30 6039 C 565.073 1.57046 -0.54091 0
M  V30 6040 O 566.258 1.74473 -0.772258 0
M  V30 6041 C 563.398 2.94079 -1.80586 0
M  V30 6042 C 562.511 3.02923 -3.07996 0
M  V30 6043 C 561.646 4.31806 -3.09382 0
M  V30 6044 C 560.685 4.34417 -4.31218 0
M  V30 6045 N 559.822 5.54782 -4.30304 0
M  V30 6046 H 564.662 1.38955 -2.6362 0
M  V30 6047 H 562.199 0.675482 -1.30674 0
M  V30 6048 H 564.157 3.74073 -1.8473 0
M  V30 6049 H 562.787 3.09896 -0.903556 0
M  V30 6050 H 561.839 2.1576 -3.13292 0
M  V30 6051 H 563.151 3.00712 -3.97962 0
M  V30 6052 H 562.305 5.20153 -3.12292 0
M  V30 6053 H 561.044 4.36636 -2.17257 0
M  V30 6054 H 560.049 3.44467 -4.28512 0
M  V30 6055 H 561.274 4.31273 -5.24576 0
M  V30 6056 H 559.22 5.60384 -3.41037 0
M  V30 6057 H 559.137 5.54339 -5.14047 0
M  V30 6058 H 560.405 6.45235 -4.3737 0
M  V30 6059 N 564.634 1.40294 0.718013 0
M  V30 6060 C 566.045 1.34289 1.29705 0
M  V30 6061 C 566.396 0.0152228 1.96194 0
M  V30 6062 O 565.521 -0.88682 1.97394 0
M  V30 6063 C 566.116 2.43219 2.3586 0
M  V30 6064 C 564.675 2.40682 2.89394 0
M  V30 6065 C 563.822 2.24223 1.63154 0
M  V30 6066 H 566.773 1.50135 0.514312 0
M  V30 6067 H 566.794 2.10986 3.16647 0
M  V30 6068 H 566.306 3.39836 1.87439 0
M  V30 6069 H 564.407 1.47756 3.42051 0
M  V30 6070 H 564.52 3.36177 3.41353 0
M  V30 6071 H 562.884 1.71696 1.88129 0
M  V30 6072 H 563.667 3.22834 1.16761 0
M  V30 6073 N 566.112 -0.949982 1.2575 0
M  V30 6074 C 567.042 -2.06483 1.09028 0
M  V30 6075 C 568.023 -1.701 -0.00201532 0
M  V30 6076 O 569.208 -1.93469 0.168383 0
M  V30 6077 C 566.338 -3.39899 0.71316 0
M  V30 6078 C 565.292 -3.90309 1.75621 0
M  V30 6079 C 564.618 -5.20274 1.23365 0
M  V30 6080 C 565.918 -4.16169 3.15596 0
M  V30 6081 H 567.612 -2.20731 2.02283 0
M  V30 6082 H 565.158 -1.06066 0.973964 0
M  V30 6083 H 567.111 -4.17346 0.58309 0
M  V30 6084 H 565.835 -3.25602 -0.255091 0
M  V30 6085 H 564.494 -3.15035 1.8748 0
M  V30 6086 H 564.142 -5.02351 0.255491 0
M  V30 6087 H 563.842 -5.54971 1.93082 0
M  V30 6088 H 565.366 -6.00314 1.11607 0
M  V30 6089 H 566.78 -4.84259 3.06864 0
M  V30 6090 H 565.177 -4.62131 3.82825 0
M  V30 6091 H 566.247 -3.22273 3.6231 0
M  V30 6092 N 567.59 -1.07411 -1.15328 0
M  V30 6093 C 568.553 -0.698914 -2.18284 0
M  V30 6094 C 569.553 0.261149 -1.58665 0
M  V30 6095 O 570.743 0.0420277 -1.74149 0
M  V30 6096 C 567.875 -0.0302427 -3.40887 0
M  V30 6097 H 569.068 -1.61045 -2.52991 0
M  V30 6098 H 566.621 -0.870724 -1.298 0
M  V30 6099 H 567.356 0.893505 -3.11748 0
M  V30 6100 H 567.141 -0.720759 -3.85419 0
M  V30 6101 H 568.631 0.21759 -4.17033 0
M  V30 6102 N 569.068 1.32177 -0.85831 0
M  V30 6103 C 570.298 2.01021 -0.476889 0
M  V30 6104 C 570.706 1.64653 0.931995 0
M  V30 6105 O 570.049 0.865713 1.62022 0
M  V30 6106 C 570.111 3.55413 -0.540528 0
M  V30 6107 C 569.775 4.1522 -1.90895 0
M  V30 6108 C 570.772 4.3318 -2.87491 0
M  V30 6109 C 568.457 4.51212 -2.20709 0
M  V30 6110 C 570.451 4.86306 -4.1205 0
M  V30 6111 C 568.138 5.04042 -3.45521 0
M  V30 6112 C 569.136 5.21538 -4.41007 0
M  V30 6113 O 568.824 5.73238 -5.63608 0
M  V30 6114 H 568.556 0.650059 -0.18547 0
M  V30 6115 H 571.11 1.69648 -1.15796 0
M  V30 6116 H 569.34 3.86196 0.19741 0
M  V30 6117 H 571.029 4.05526 -0.174191 0
M  V30 6118 H 571.795 4.05704 -2.65762 0
M  V30 6119 H 567.674 4.36878 -1.4717 0
M  V30 6120 H 571.218 4.99877 -4.86589 0
M  V30 6121 H 567.115 5.30952 -3.67098 0
M  V30 6122 H 567.883 5.91625 -5.65617 0
M  V30 6123 N 570.547 0.616602 1.45037 0
M  V30 6124 C 571.51 -0.0871112 2.29034 0
M  V30 6125 C 572.51 -0.786414 1.40258 0
M  V30 6126 O 573.7 -0.633207 1.62284 0
M  V30 6127 C 570.832 -1.13369 3.21497 0
M  V30 6128 H 572.025 0.651497 2.92738 0
M  V30 6129 H 569.578 0.376058 1.51709 0
M  V30 6130 H 570.313 -1.90277 2.62612 0
M  V30 6131 H 570.098 -0.636358 3.86902 0
M  V30 6132 H 571.588 -1.62627 3.84633 0
M  V30 6133 N 572.025 -1.5352 0.356285 0
M  V30 6134 C 572.955 -2.28372 -0.486661 0
M  V30 6135 C 573.936 -1.30432 -1.09185 0
M  V30 6136 O 575.121 -1.59291 -1.11085 0
M  V30 6137 C 572.251 -3.06604 -1.63129 0
M  V30 6138 C 571.205 -4.12154 -1.15381 0
M  V30 6139 C 570.531 -4.78415 -2.38796 0
M  V30 6140 C 571.831 -5.21724 -0.245179 0
M  V30 6141 H 573.525 -2.99083 0.137797 0
M  V30 6142 H 571.071 -1.43841 0.0677134 0
M  V30 6143 H 573.024 -3.57712 -2.22755 0
M  V30 6144 H 571.748 -2.33568 -2.28284 0
M  V30 6145 H 570.407 -3.61978 -0.580294 0
M  V30 6146 H 570.055 -4.01959 -3.02387 0
M  V30 6147 H 569.755 -5.49734 -2.07524 0
M  V30 6148 H 571.279 -5.32313 -2.99125 0
M  V30 6149 H 572.693 -5.68391 -0.748646 0
M  V30 6150 H 571.09 -6.00095 -0.0237608 0
M  V30 6151 H 572.16 -4.79596 0.715229 0
M  V30 6152 N 573.503 -0.0852151 -1.57369 0
M  V30 6153 C 574.731 0.58946 -1.98325 0
M  V30 6154 C 575.146 1.62333 -0.96403 0
M  V30 6155 O 574.503 1.82438 0.0476395 0
M  V30 6156 C 574.554 1.24604 -3.39347 0
M  V30 6157 O 574.275 0.253532 -4.37366 0
M  V30 6158 C 575.776 2.00726 -3.95252 0
M  V30 6159 H 572.996 0.158783 -0.651942 0
M  V30 6160 H 575.54 -0.161584 -2.03861 0
M  V30 6161 H 573.695 1.94808 -3.34856 0
M  V30 6162 H 574.109 0.726207 -5.19448 0
M  V30 6163 H 575.583 2.42039 -4.96106 0
M  V30 6164 H 576.06 2.86919 -3.32527 0
M  V30 6165 H 576.666 1.3536 -4.03185 0
M  V30 6166 N 574.981 1.5647 0.188427 0
M  V30 6167 C 575.911 1.98101 1.23606 0
M  V30 6168 C 576.892 0.853961 1.47111 0
M  V30 6169 O 578.077 1.11879 1.58735 0
M  V30 6170 C 575.207 2.32624 2.57882 0
M  V30 6171 C 574.161 3.48129 2.48978 0
M  V30 6172 C 573.487 3.68347 3.87588 0
M  V30 6173 C 574.787 4.82112 2.00911 0
M  V30 6174 H 576.481 2.85864 0.890068 0
M  V30 6175 H 574.027 1.37532 0.426714 0
M  V30 6176 H 575.98 2.60343 3.3136 0
M  V30 6177 H 574.704 1.41751 2.94235 0
M  V30 6178 H 573.363 3.20511 1.77956 0
M  V30 6179 H 573.011 2.74793 4.21305 0
M  V30 6180 H 572.711 4.46055 3.82503 0
M  V30 6181 H 574.235 3.98449 4.62678 0
M  V30 6182 H 575.649 5.08819 2.64151 0
M  V30 6183 H 574.046 5.63337 2.06814 0
M  V30 6184 H 575.116 4.75249 0.96262 0
M  V30 6185 N 576.459 -0.456382 1.50847 0
M  V30 6186 C 577.687 -1.23026 1.66349 0
M  V30 6187 C 578.102 -1.85473 0.352868 0
M  V30 6188 O 577.459 -1.69885 -0.666739 0
M  V30 6189 C 577.51 -2.32827 2.76539 0
M  V30 6190 O 577.231 -1.72938 4.02522 0
M  V30 6191 C 578.732 -3.23448 3.03144 0
M  V30 6192 H 575.952 -0.371527 0.558756 0
M  V30 6193 H 578.496 -0.543082 1.97157 0
M  V30 6194 H 576.651 -2.97294 2.48384 0
M  V30 6195 H 577.065 -2.45357 4.63573 0
M  V30 6196 H 578.539 -3.96669 3.83872 0
M  V30 6197 H 579.016 -3.83094 2.14793 0
M  V30 6198 H 579.622 -2.64702 3.32886 0
M  V30 6199 N 577.937 -1.40673 -0.710563 0
M  V30 6200 C 579.353 -1.22813 -1.01928 0
M  V30 6201 C 579.553 -0.10687 -2.01216 0
M  V30 6202 O 578.609 0.533614 -2.46797 0
M  V30 6203 C 579.922 -2.57178 -1.5582 0
M  V30 6204 C 581.47 -2.64233 -1.67779 0
M  V30 6205 C 581.945 -3.98879 -2.25076 0
M  V30 6206 N 583.436 -4.00647 -2.32456 0
M  V30 6207 C 584.171 -5.01621 -2.77784 0
M  V30 6208 N 583.667 -6.12989 -3.22826 0
M  V30 6209 N 585.46 -4.88988 -2.77213 0
M  V30 6210 H 577.611 -2.12335 -0.05253 0
M  V30 6211 H 579.874 -0.9441 -0.085898 0
M  V30 6212 H 579.58 -3.39903 -0.903249 0
M  V30 6213 H 579.454 -2.78618 -2.54267 0
M  V30 6214 H 581.841 -1.81876 -2.3239 0
M  V30 6215 H 581.922 -2.46619 -0.679178 0
M  V30 6216 H 581.566 -4.81678 -1.61086 0
M  V30 6217 H 581.496 -4.13826 -3.25661 0
M  V30 6218 H 583.987 -3.20231 -2.0065 0
M  V30 6219 H 584.3 -6.85921 -3.55995 0
M  V30 6220 H 582.645 -6.16547 -3.20773 0
M  V30 6221 H 585.836 -4.01075 -2.41363 0
M  V30 6222 H 586.009 -5.67822 -3.12221 0
M  V30 6223 N 579.415 0.9433 -1.26252 0
M  V30 6224 C 580.325 2.07532 -1.09397 0
M  V30 6225 C 581.341 1.73977 -0.0280449 0
M  V30 6226 O 582.517 2.00067 -0.231337 0
M  V30 6227 C 579.582 3.39002 -0.726523 0
M  V30 6228 C 578.643 3.86353 -1.87163 0
M  V30 6229 C 577.876 5.11549 -1.52162 0
M  V30 6230 O 578.099 5.68834 -0.422385 0
M  V30 6231 O 577.033 5.53889 -2.35565 0
M  V30 6232 H 580.859 2.24658 -2.04359 0
M  V30 6233 H 578.444 1.05988 -1.05295 0
M  V30 6234 H 580.326 4.18 -0.534236 0
M  V30 6235 H 579.001 3.2312 0.193721 0
M  V30 6236 H 577.908 3.0831 -2.11886 0
M  V30 6237 H 579.241 4.06752 -2.77152 0
M  V30 6238 N 580.893 1.08022 1.14757 0
M  V30 6239 C 581.825 0.664566 2.19354 0
M  V30 6240 C 582.838 -0.286374 1.60261 0
M  V30 6241 O 584.027 -0.0746362 1.78344 0
M  V30 6242 C 581.127 -0.0434634 3.38872 0
M  V30 6243 C 580.3 0.925381 4.27499 0
M  V30 6244 C 579.359 0.253398 5.2559 0
M  V30 6245 O 578.385 0.896581 5.62094 0
M  V30 6246 N 579.587 -0.998263 5.71852 0
M  V30 6247 H 582.352 1.56438 2.55631 0
M  V30 6248 H 579.913 0.965788 1.29939 0
M  V30 6249 H 581.905 -0.503857 4.01551 0
M  V30 6250 H 580.475 -0.845321 3.00954 0
M  V30 6251 H 579.695 1.56472 3.61815 0
M  V30 6252 H 580.983 1.58203 4.8358 0
M  V30 6253 H 580.381 -1.54063 5.44317 0
M  V30 6254 H 578.938 -1.40222 6.36538 0
M  V30 6255 N 582.371 -1.3172 0.865308 0
M  V30 6256 C 583.619 -1.96487 0.472995 0
M  V30 6257 C 583.94 -1.68761 -0.976975 0
M  V30 6258 O 583.21 -1.00051 -1.68424 0
M  V30 6259 H 581.79 -0.726947 0.171922 0
M  V30 6260 H 584.452 -1.60612 1.10407 0
M  V30 6261 H 583.548 -3.0574 0.62687 0
M  V30 6262 N 583.85 -0.624285 -1.44708 0
M  V30 6263 C 585.08 -0.132726 -2.06173 0
M  V30 6264 C 585.488 1.19513 -1.46674 0
M  V30 6265 O 584.831 1.74254 -0.581491 0
M  V30 6266 C 584.893 0.0636732 -3.59444 0
M  V30 6267 C 584.557 -1.18496 -4.4137 0
M  V30 6268 C 585.553 -2.10706 -4.75288 0
M  V30 6269 C 583.239 -1.41846 -4.81856 0
M  V30 6270 C 585.233 -3.24582 -5.48567 0
M  V30 6271 C 582.92 -2.5602 -5.54885 0
M  V30 6272 C 583.918 -3.47215 -5.88159 0
M  V30 6273 O 583.606 -4.59399 -6.59703 0
M  V30 6274 H 583.338 -0.0737313 -0.671967 0
M  V30 6275 H 585.892 -0.856789 -1.86677 0
M  V30 6276 H 584.122 0.842809 -3.77404 0
M  V30 6277 H 585.811 0.508924 -4.02697 0
M  V30 6278 H 586.577 -1.93898 -4.44554 0
M  V30 6279 H 582.456 -0.717556 -4.55381 0
M  V30 6280 H 586 -3.95785 -5.74456 0
M  V30 6281 H 581.897 -2.72774 -5.85034 0
M  V30 6282 H 582.665 -4.58293 -6.78166 0
M  V30 6283 N 585.328 1.53329 -0.364422 0
M  V30 6284 C 586.739 1.86345 0.115039 0
M  V30 6285 C 587.09 1.28505 1.4826 0
M  V30 6286 O 586.215 0.606639 2.07723 0
M  V30 6287 C 586.81 3.38114 0.215522 0
M  V30 6288 C 585.369 3.70932 0.639237 0
M  V30 6289 C 584.516 2.76471 -0.214261 0
M  V30 6290 H 587.467 1.47593 -0.583258 0
M  V30 6291 H 587.488 3.66031 1.0393 0
M  V30 6292 H 587 3.80182 -0.779948 0
M  V30 6293 H 585.101 3.3442 1.64298 0
M  V30 6294 H 585.214 4.77302 0.41465 0
M  V30 6295 H 583.578 2.52724 0.316678 0
M  V30 6296 H 584.361 3.21373 -1.20725 0
M  V30 6297 N 586.806 0.0935595 1.57322 0
M  V30 6298 C 588.031 -0.582324 1.99057 0
M  V30 6299 C 588.456 -1.61025 0.972242 0
M  V30 6300 O 587.814 -1.81202 -0.0594622 0
M  V30 6301 C 587.862 -1.20799 3.39765 0
M  V30 6302 O 586.966 -2.32382 3.40694 0
M  V30 6303 H 586.307 -0.147884 0.647323 0
M  V30 6304 H 588.837 0.174516 2.03854 0
M  V30 6305 H 588.847 -1.54966 3.77425 0
M  V30 6306 H 587.522 -0.454914 4.13405 0
M  V30 6307 H 586.099 -1.99845 3.14827 0
M  V30 6308 N 588.284 -1.56567 -0.180126 0
M  V30 6309 C 589.53 -1.81761 -0.899497 0
M  V30 6310 C 589.863 -0.670015 -1.82276 0
M  V30 6311 O 589.138 0.328575 -1.91705 0
M  V30 6312 C 589.421 -3.17296 -1.7028 0
M  V30 6313 C 589.274 -4.4257 -0.803255 0
M  V30 6314 C 590.593 -3.49678 -2.67233 0
M  V30 6315 H 587.712 -0.661192 -0.325567 0
M  V30 6316 H 590.354 -1.89272 -0.16612 0
M  V30 6317 H 588.504 -3.11023 -2.32802 0
M  V30 6318 H 590.176 -4.60902 -0.191585 0
M  V30 6319 H 588.419 -4.33658 -0.110796 0
M  V30 6320 H 589.09 -5.33935 -1.40064 0
M  V30 6321 H 591.566 -3.56347 -2.14839 0
M  V30 6322 H 590.442 -4.45605 -3.20511 0
M  V30 6323 H 590.703 -2.73932 -3.47007 0
M  V30 6324 N 589.762 0.448376 -1.51087 0
M  V30 6325 C 591.009 1.19872 -1.63209 0
M  V30 6326 C 591.337 1.91451 -0.343062 0
M  V30 6327 O 590.592 1.83789 0.672321 0
M  V30 6328 C 590.891 2.24866 -2.77795 0
M  V30 6329 C 590.557 1.70378 -4.17471 0
M  V30 6330 C 589.219 1.55241 -4.55471 0
M  V30 6331 C 591.571 1.30203 -5.04675 0
M  V30 6332 C 588.899 0.983844 -5.78392 0
M  V30 6333 C 591.251 0.747798 -6.28165 0
M  V30 6334 C 589.915 0.583233 -6.64947 0
M  V30 6335 H 589.185 0.438642 -0.597222 0
M  V30 6336 H 591.832 0.49136 -1.85089 0
M  V30 6337 H 590.137 3.01598 -2.50092 0
M  V30 6338 H 591.834 2.82723 -2.84374 0
M  V30 6339 H 588.424 1.83134 -3.87505 0
M  V30 6340 H 592.608 1.40723 -4.75932 0
M  V30 6341 H 587.864 0.844007 -6.05546 0
M  V30 6342 H 592.038 0.427927 -6.95084 0
M  V30 6343 H 589.665 0.140532 -7.6007 0
M  V30 6344 N 591.24 1.41047 0.703093 0
M  V30 6345 C 592.47 1.43133 1.48985 0
M  V30 6346 C 592.878 0.0328537 1.89171 0
M  V30 6347 O 592.221 -0.956469 1.56835 0
M  V30 6348 C 592.283 2.26991 2.78775 0
M  V30 6349 C 591.947 3.7525 2.60837 0
M  V30 6350 C 592.944 4.67591 2.27276 0
M  V30 6351 C 590.629 4.19208 2.76712 0
M  V30 6352 C 592.623 6.01877 2.09817 0
M  V30 6353 C 590.31 5.53561 2.5887 0
M  V30 6354 C 591.308 6.4471 2.25472 0
M  V30 6355 O 590.996 7.76584 2.07778 0
M  V30 6356 H 590.728 0.489788 0.465922 0
M  V30 6357 H 593.282 1.85886 0.873822 0
M  V30 6358 H 591.512 1.79038 3.42757 0
M  V30 6359 H 593.201 2.20867 3.40547 0
M  V30 6360 H 593.967 4.34923 2.14633 0
M  V30 6361 H 589.846 3.48572 3.01693 0
M  V30 6362 H 593.39 6.72986 1.83671 0
M  V30 6363 H 589.287 5.85811 2.71102 0
M  V30 6364 H 590.055 7.87649 2.22601 0
M  V30 6365 N 592.718 -0.936591 1.26751 0
M  V30 6366 C 593.966 -1.67998 1.12343 0
M  V30 6367 C 594.287 -1.92137 -0.332938 0
M  V30 6368 O 593.557 -1.52132 -1.23421 0
M  V30 6369 H 592.137 -0.622609 0.412756 0
M  V30 6370 H 594.799 -1.12509 1.59147 0
M  V30 6371 H 593.895 -2.65185 1.64571 0
M  V30 6372 N 594.196 -1.08629 -1.14182 0
M  V30 6373 C 595.473 -0.73002 -1.81466 0
M  V30 6374 C 595.853 0.785996 -1.95922 0
M  V30 6375 O 595.201 1.70535 -1.52086 0
M  V30 6376 C 595.411 -1.45957 -3.17014 0
M  V30 6377 C 596.759 -1.62008 -3.92477 0
M  V30 6378 O 597.783 -1.42141 -3.26611 0
M  V30 6379 O 596.642 -1.94806 -5.106 0
M  V30 6380 H 593.736 -0.261307 -0.784632 0
M  V30 6381 H 596.282 -1.188 -1.2118 0
M  V30 6382 H 595.054 -2.49221 -3.01669 0
M  V30 6383 H 594.677 -0.993222 -3.84995 0
M  V30 6384 N 595.674 1.31259 -0.872281 0
M  V30 6385 C 596.904 2.00504 -0.498183 0
M  V30 6386 C 597.312 1.65632 0.914479 0
M  V30 6387 O 596.655 0.882849 1.61095 0
M  V30 6388 C 596.717 3.5482 -0.578194 0
M  V30 6389 C 596.381 4.13172 -1.95289 0
M  V30 6390 C 597.378 4.30107 -2.92069 0
M  V30 6391 C 595.063 4.48846 -2.25483 0
M  V30 6392 C 597.057 4.81908 -4.17185 0
M  V30 6393 C 594.744 5.00349 -3.50847 0
M  V30 6394 C 595.742 5.16831 -4.46514 0
M  V30 6395 O 595.43 5.67228 -5.69656 0
M  V30 6396 H 595.162 0.648055 -0.192354 0
M  V30 6397 H 597.716 1.6841 -1.17589 0
M  V30 6398 H 595.946 3.86383 0.156438 0
M  V30 6399 H 597.635 4.05318 -0.217192 0
M  V30 6400 H 598.401 4.02862 -2.7005 0
M  V30 6401 H 594.28 4.35292 -1.51795 0
M  V30 6402 H 597.824 4.94688 -4.91863 0
M  V30 6403 H 593.721 5.27028 -3.72708 0
M  V30 6404 H 594.489 5.85592 -5.7186 0
M  V30 6405 N 597.152 0.631951 1.44375 0
M  V30 6406 C 598.382 0.143658 2.061 0
M  V30 6407 C 598.79 -1.18733 1.47306 0
M  V30 6408 O 598.133 -1.73943 0.590724 0
M  V30 6409 C 598.195 -0.0446102 3.59472 0
M  V30 6410 C 597.859 1.20835 4.40736 0
M  V30 6411 C 598.856 2.13224 4.74164 0
M  V30 6412 C 596.541 1.44399 4.81097 0
M  V30 6413 C 598.535 3.27487 5.46838 0
M  V30 6414 C 596.222 2.58959 5.53519 0
M  V30 6415 C 597.22 3.50329 5.86309 0
M  V30 6416 O 596.908 4.62891 6.57257 0
M  V30 6417 H 596.64 0.0772939 0.671567 0
M  V30 6418 H 599.194 0.866677 1.8622 0
M  V30 6419 H 597.424 -0.822783 3.77845 0
M  V30 6420 H 599.113 -0.487561 4.02961 0
M  V30 6421 H 599.879 1.96253 4.4352 0
M  V30 6422 H 595.758 0.741696 4.54994 0
M  V30 6423 H 599.302 3.98826 5.72349 0
M  V30 6424 H 595.199 2.75873 5.83579 0
M  V30 6425 H 595.967 4.61883 6.75726 0
M  V30 6426 N 598.631 -1.53133 0.372548 0
M  V30 6427 C 599.879 -2.00958 -0.214534 0
M  V30 6428 C 600.2 -1.26135 -1.48711 0
M  V30 6429 O 599.47 -0.376597 -1.92246 0
M  V30 6430 H 598.05 -0.742456 -0.0822664 0
M  V30 6431 H 600.712 -1.88367 0.500385 0
M  V30 6432 H 599.808 -3.09031 -0.436605 0
M  V30 6433 N 600.109 -0.101901 -1.5727 0
M  V30 6434 C 601.358 0.559922 -1.93772 0
M  V30 6435 C 601.671 1.68913 -0.98629 0
M  V30 6436 O 602.877 2.41256 -1.24529 0
M  V30 6437 C 601.333 1.04739 -3.44322 0
M  V30 6438 C 600.941 -0.05243 -4.47969 0
M  V30 6439 C 602.685 1.68157 -3.89774 0
M  V30 6440 C 600.592 0.450781 -5.8968 0
M  V30 6441 H 599.522 0.212931 -0.723309 0
M  V30 6442 H 602.173 -0.179001 -1.82625 0
M  V30 6443 H 600.555 1.84021 -3.50645 0
M  V30 6444 H 601.729 -0.828157 -4.53297 0
M  V30 6445 H 600.044 -0.592202 -4.12167 0
M  V30 6446 H 602.641 2.0689 -4.93052 0
M  V30 6447 H 602.984 2.55338 -3.28798 0
M  V30 6448 H 603.517 0.954453 -3.8618 0
M  V30 6449 H 600.256 -0.38458 -6.54371 0
M  V30 6450 H 599.776 1.19336 -5.87809 0
M  V30 6451 H 601.455 0.917555 -6.40461 0
M  V30 6452 N 601.587 1.56661 0.17182 0
M  V30 6453 C 602.998 1.71652 0.734329 0
M  V30 6454 C 603.349 0.712335 1.82812 0
M  V30 6455 O 602.474 -0.126401 2.16031 0
M  V30 6456 C 603.069 3.11226 1.3388 0
M  V30 6457 C 601.628 3.27904 1.84813 0
M  V30 6458 C 600.775 2.67603 0.726917 0
M  V30 6459 H 603.726 1.5861 -0.0535665 0
M  V30 6460 H 603.747 3.09849 2.20849 0
M  V30 6461 H 603.259 3.8429 0.54249 0
M  V30 6462 H 601.36 2.59796 2.6709 0
M  V30 6463 H 601.473 4.35637 1.99392 0
M  V30 6464 H 599.837 2.274 1.14723 0
M  V30 6465 H 600.62 3.43252 -0.0575334 0
M  V30 6466 N 603.065 -0.440357 1.51323 0
M  V30 6467 C 604.293 -1.21255 1.67645 0
M  V30 6468 C 604.708 -1.85088 0.37252 0
M  V30 6469 O 604.065 -1.70582 -0.648683 0
M  V30 6470 C 604.116 -2.29881 2.78993 0
M  V30 6471 O 603.837 -1.68659 4.04334 0
M  V30 6472 C 605.338 -3.20214 3.06558 0
M  V30 6473 H 602.558 -0.36558 0.562666 0
M  V30 6474 H 605.102 -0.52214 1.97722 0
M  V30 6475 H 603.257 -2.94643 2.51524 0
M  V30 6476 H 603.671 -2.40426 4.6615 0
M  V30 6477 H 605.145 -3.92575 3.88058 0
M  V30 6478 H 605.622 -3.80794 2.18844 0
M  V30 6479 H 606.228 -2.61156 3.35675 0
M  V30 6480 N 604.543 -1.41418 -0.695603 0
M  V30 6481 C 605.493 -1.39731 -1.80165 0
M  V30 6482 C 606.477 -0.271689 -1.5859 0
M  V30 6483 O 607.669 -0.512354 -1.69422 0
M  V30 6484 C 604.798 -1.28187 -3.1847 0
M  V30 6485 C 603.884 -2.45612 -3.45739 0
M  V30 6486 N 604.275 -3.71077 -3.43708 0
M  V30 6487 C 602.573 -2.39424 -3.76288 0
M  V30 6488 C 603.274 -4.48957 -3.69882 0
M  V30 6489 N 602.25 -3.7907 -3.89624 0
M  V30 6490 H 606.052 -2.34656 -1.76957 0
M  V30 6491 H 603.566 -1.35473 -0.89559 0
M  V30 6492 H 605.563 -1.2506 -3.977 0
M  V30 6493 H 604.223 -0.342468 -3.22889 0
M  V30 6494 H 605.234 -4.03963 -3.2409 0
M  V30 6495 H 601.911 -1.53955 -3.88077 0
M  V30 6496 H 603.301 -5.57887 -3.74448 0
M  V30 6497 N 606.021 0.929856 -1.27246 0
M  V30 6498 C 607.269 1.674 -1.13233 0
M  V30 6499 C 607.59 1.92311 0.322744 0
M  V30 6500 O 606.86 1.52784 1.22612 0
M  V30 6501 H 605.44 0.620411 -0.416052 0
M  V30 6502 H 608.102 1.11663 -1.59741 0
M  V30 6503 H 607.198 2.64308 -1.65975 0
M  V30 6504 N 607.499 1.09233 1.13605 0
M  V30 6505 C 608.745 0.828385 1.8511 0
M  V30 6506 C 609.078 -0.64437 1.83198 0
M  V30 6507 O 608.353 -1.47428 1.26867 0
M  V30 6508 C 608.636 1.36167 3.33363 0
M  V30 6509 C 608.489 2.90038 3.438 0
M  V30 6510 C 609.808 0.993819 4.28732 0
M  V30 6511 H 606.927 0.30239 0.672108 0
M  V30 6512 H 609.569 1.35339 1.33355 0
M  V30 6513 H 607.719 0.9151 3.77569 0
M  V30 6514 H 609.391 3.43128 3.08319 0
M  V30 6515 H 607.634 3.27271 2.84739 0
M  V30 6516 H 608.305 3.22428 4.48045 0
M  V30 6517 H 610.781 1.37893 3.92587 0
M  V30 6518 H 609.657 1.39403 5.30903 0
M  V30 6519 H 609.918 -0.0982206 4.41991 0
M  V30 6520 N 608.977 -1.30795 0.87923 0
M  V30 6521 C 610.388 -1.78535 0.546093 0
M  V30 6522 C 610.739 -1.72354 -0.937467 0
M  V30 6523 O 609.864 -1.2969 -1.73233 0
M  V30 6524 C 610.459 -3.24181 0.9845 0
M  V30 6525 C 609.018 -3.69779 0.702871 0
M  V30 6526 C 608.165 -2.51377 1.17068 0
M  V30 6527 H 611.116 -1.17746 1.06403 0
M  V30 6528 H 611.137 -3.79227 0.311045 0
M  V30 6529 H 610.649 -3.28647 2.06429 0
M  V30 6530 H 608.75 -3.70806 -0.365166 0
M  V30 6531 H 608.863 -4.61507 1.28639 0
M  V30 6532 H 607.227 -2.47768 0.590172 0
M  V30 6533 H 608.01 -2.58584 2.25808 0
M  V30 6534 N 610.455 -0.639598 -1.44038 0
M  V30 6535 C 611.418 0.0506628 -2.29144 0
M  V30 6536 C 612.418 0.764001 -1.41491 0
M  V30 6537 O 613.608 0.607309 -1.63271 0
M  V30 6538 C 610.74 1.0824 -3.2326 0
M  V30 6539 H 611.933 -0.697987 -2.91664 0
M  V30 6540 H 609.486 -0.400146 -1.51091 0
M  V30 6541 H 610.221 1.86075 -2.65606 0
M  V30 6542 H 610.006 0.574725 -3.87865 0
M  V30 6543 H 611.496 1.56487 -3.87171 0
M  V30 6544 N 611.933 1.52934 -0.380664 0
M  V30 6545 C 612.866 2.22597 0.502564 0
M  V30 6546 C 613.844 1.22345 1.071 0
M  V30 6547 O 615.028 1.51302 1.12428 0
M  V30 6548 C 612.155 2.93246 1.69482 0
M  V30 6549 C 611.201 4.07696 1.25244 0
M  V30 6550 S 612.034 5.34957 0.241159 0
M  V30 6551 C 613.19 6.09124 1.4394 0
M  V30 6552 H 613.423 2.97167 -0.089029 0
M  V30 6553 H 610.956 1.53518 -0.164817 0
M  V30 6554 H 612.914 3.34562 2.37863 0
M  V30 6555 H 611.575 2.18373 2.2577 0
M  V30 6556 H 610.768 4.56199 2.1424 0
M  V30 6557 H 610.37 3.68349 0.647664 0
M  V30 6558 H 612.662 6.34771 2.36794 0
M  V30 6559 H 613.605 7.01068 0.995464 0
M  V30 6560 H 614.013 5.39777 1.65229 0
M  V30 6561 N 613.412 0.11024 1.57214 0
M  V30 6562 C 614.828 -0.24638 1.57687 0
M  V30 6563 C 615.028 -1.67344 1.12241 0
M  V30 6564 O 614.084 -2.39298 0.805783 0
M  V30 6565 C 615.397 -0.0210288 3.00693 0
M  V30 6566 C 616.945 -0.0876077 3.12877 0
M  V30 6567 C 617.42 0.10994 4.57868 0
M  V30 6568 N 618.911 0.0556135 4.63167 0
M  V30 6569 C 619.646 0.183495 5.73106 0
M  V30 6570 N 619.142 0.367058 6.91827 0
M  V30 6571 N 620.935 0.123689 5.61964 0
M  V30 6572 H 613.086 1.04246 1.85058 0
M  V30 6573 H 615.349 0.40979 0.854854 0
M  V30 6574 H 615.055 0.965203 3.38196 0
M  V30 6575 H 614.929 -0.756748 3.69531 0
M  V30 6576 H 617.316 -1.06436 2.75237 0
M  V30 6577 H 617.397 0.67985 2.466 0
M  V30 6578 H 617.041 1.08362 4.96206 0
M  V30 6579 H 616.971 -0.677397 5.22225 0
M  V30 6580 H 619.462 -0.0831062 3.77809 0
M  V30 6581 H 619.775 0.455739 7.71455 0
M  V30 6582 H 618.12 0.40292 6.93831 0
M  V30 6583 H 621.311 -0.0186928 4.68096 0
M  V30 6584 H 621.484 0.226797 6.47603 0
M  V30 6585 N 614.89 -1.56749 -0.16351 0
M  V30 6586 C 616.115 -1.86938 -0.898264 0
M  V30 6587 C 616.54 -0.697456 -1.74692 0
M  V30 6588 O 615.898 0.353327 -1.77824 0
M  V30 6589 C 615.946 -3.15599 -1.74441 0
M  V30 6590 O 615.05 -2.98371 -2.8469 0
M  V30 6591 H 614.391 -0.614659 -0.251178 0
M  V30 6592 H 616.921 -2.03979 -0.159298 0
M  V30 6593 H 616.931 -3.47202 -2.14277 0
M  V30 6594 H 615.606 -4.00505 -1.1211 0
M  V30 6595 H 614.183 -2.7814 -2.4838 0
M  V30 6596 N 616.368 0.432326 -1.51554 0
M  V30 6597 C 617.315 1.52512 -1.7323 0
M  V30 6598 C 618.285 1.55863 -0.5741 0
M  V30 6599 O 619.47 1.72796 -0.809093 0
M  V30 6600 C 616.61 2.90183 -1.86783 0
M  V30 6601 C 615.723 2.96322 -3.14352 0
M  V30 6602 C 614.858 4.25147 -3.18471 0
M  V30 6603 C 613.897 4.25172 -4.40335 0
M  V30 6604 N 613.034 5.45529 -4.41975 0
M  V30 6605 H 617.874 1.33332 -2.66508 0
M  V30 6606 H 615.411 0.647613 -1.32077 0
M  V30 6607 H 617.369 3.70071 -1.92623 0
M  V30 6608 H 615.999 3.0791 -0.969087 0
M  V30 6609 H 615.051 2.09066 -3.17798 0
M  V30 6610 H 616.363 2.92203 -4.04251 0
M  V30 6611 H 615.517 5.13411 -3.23255 0
M  V30 6612 H 614.256 4.31929 -2.2647 0
M  V30 6613 H 613.261 3.353 -4.35723 0
M  V30 6614 H 614.486 4.20049 -5.33606 0
M  V30 6615 H 612.432 5.53024 -3.52847 0
M  V30 6616 H 612.349 5.43311 -5.25689 0
M  V30 6617 H 613.617 6.35812 -4.50958 0
M  V30 6618 N 617.846 1.41785 0.688094 0
M  V30 6619 C 619.095 1.4084 1.44385 0
M  V30 6620 C 619.408 0.0234166 1.95586 0
M  V30 6621 O 620.614 -0.108647 2.71283 0
M  V30 6622 C 619.07 2.47675 2.61123 0
M  V30 6623 C 618.678 3.92116 2.16677 0
M  V30 6624 C 620.422 2.55877 3.38714 0
M  V30 6625 C 618.329 4.90487 3.30419 0
M  V30 6626 H 617.259 0.523787 0.542368 0
M  V30 6627 H 619.91 1.6764 0.74627 0
M  V30 6628 H 618.292 2.14018 3.33185 0
M  V30 6629 H 619.466 4.35059 1.51856 0
M  V30 6630 H 617.781 3.87642 1.5206 0
M  V30 6631 H 620.378 3.26553 4.234 0
M  V30 6632 H 620.721 1.59801 3.84408 0
M  V30 6633 H 621.254 2.88662 2.73714 0
M  V30 6634 H 617.993 5.87994 2.89729 0
M  V30 6635 H 617.513 4.52187 3.94065 0
M  V30 6636 H 619.192 5.11591 3.96085 0
M  V30 6637 N 619.324 -0.923095 1.27737 0
M  V30 6638 C 620.601 -1.64989 1.05062 0
M  V30 6639 C 620.981 -2.07018 -0.413124 0
M  V30 6640 O 620.329 -1.80797 -1.39731 0
M  V30 6641 C 620.539 -2.84847 2.01652 0
M  V30 6642 C 621.887 -3.56083 2.31279 0
M  V30 6643 O 622.911 -2.94981 1.99662 0
M  V30 6644 O 621.77 -4.66182 2.85196 0
M  V30 6645 H 618.864 -0.723357 0.400853 0
M  V30 6646 H 621.41 -0.973224 1.3902 0
M  V30 6647 H 620.182 -2.50814 3.00347 0
M  V30 6648 H 619.805 -3.60231 1.68284 0
M  V30 6649 N 620.802 -1.09834 -1.13024 0
M  V30 6650 C 622.213 -0.855651 -1.65938 0
M  V30 6651 C 622.564 0.615159 -1.86307 0
M  V30 6652 O 621.689 1.47335 -1.58497 0
M  V30 6653 C 622.284 -1.5467 -3.01434 0
M  V30 6654 C 620.843 -1.35088 -3.51323 0
M  V30 6655 C 619.99 -1.6001 -2.26478 0
M  V30 6656 H 622.941 -1.25691 -0.968889 0
M  V30 6657 H 622.962 -0.982179 -3.67605 0
M  V30 6658 H 622.474 -2.61715 -2.86578 0
M  V30 6659 H 620.575 -0.30179 -3.71376 0
M  V30 6660 H 620.688 -2.0886 -4.31178 0
M  V30 6661 H 619.052 -1.02246 -2.33276 0
M  V30 6662 H 619.835 -2.68293 -2.14182 0
M  V30 6663 N 622.28 1.30327 -0.886154 0
M  V30 6664 C 623.529 1.95373 -0.501243 0
M  V30 6665 C 623.842 1.70722 0.954634 0
M  V30 6666 O 625.048 2.29761 1.44644 0
M  V30 6667 C 623.504 3.49828 -0.845493 0
M  V30 6668 C 623.112 3.83296 -2.31922 0
M  V30 6669 C 624.856 4.2118 -0.529838 0
M  V30 6670 C 622.763 5.30935 -2.60504 0
M  V30 6671 H 621.693 0.731274 -0.183722 0
M  V30 6672 H 624.344 1.48258 -1.08129 0
M  V30 6673 H 622.726 3.95522 -0.19452 0
M  V30 6674 H 623.9 3.48508 -3.01461 0
M  V30 6675 H 622.215 3.2505 -2.60253 0
M  V30 6676 H 624.812 5.29825 -0.720401 0
M  V30 6677 H 625.155 4.12902 0.530828 0
M  V30 6678 H 625.688 3.81173 -1.13806 0
M  V30 6679 H 622.427 5.44265 -3.65316 0
M  V30 6680 H 621.947 5.67019 -1.95575 0
M  V30 6681 H 623.626 5.98381 -2.46066 0
M  V30 6682 N 623.758 0.647228 1.43697 0
M  V30 6683 C 624.688 -0.0345631 2.33474 0
M  V30 6684 C 625.669 -0.818193 1.4913 0
M  V30 6685 O 626.854 -0.780867 1.77809 0
M  V30 6686 C 623.984 -1.00576 3.32418 0
M  V30 6687 C 622.938 -0.33266 4.26705 0
M  V30 6688 C 622.264 -1.41489 5.1564 0
M  V30 6689 C 623.564 0.771204 5.16575 0
M  V30 6690 H 625.258 0.715163 2.90733 0
M  V30 6691 H 622.804 0.345364 1.39797 0
M  V30 6692 H 624.757 -1.49159 3.94119 0
M  V30 6693 H 623.481 -1.78657 2.73403 0
M  V30 6694 H 622.14 0.13267 3.6636 0
M  V30 6695 H 621.788 -2.18698 4.52968 0
M  V30 6696 H 621.488 -0.969799 5.79542 0
M  V30 6697 H 623.012 -1.9022 5.80214 0
M  V30 6698 H 624.426 0.36779 5.72119 0
M  V30 6699 H 622.823 1.1404 5.89165 0
M  V30 6700 H 623.893 1.63169 4.56622 0
M  V30 6701 N 625.236 -1.5273 0.388769 0
M  V30 6702 C 626.146 -2.30165 -0.453993 0
M  V30 6703 C 627.162 -1.37058 -1.07197 0
M  V30 6704 O 628.338 -1.70127 -1.0779 0
M  V30 6705 C 625.403 -3.09303 -1.56628 0
M  V30 6706 C 624.464 -4.18117 -0.973467 0
M  V30 6707 C 623.697 -4.93472 -2.03275 0
M  V30 6708 O 623.92 -4.68913 -3.24772 0
M  V30 6709 O 622.854 -5.78833 -1.65034 0
M  V30 6710 H 626.68 -3.03185 0.176816 0
M  V30 6711 H 624.265 -1.4862 0.152501 0
M  V30 6712 H 626.147 -3.58648 -2.21246 0
M  V30 6713 H 624.822 -2.39098 -2.18206 0
M  V30 6714 H 623.729 -3.7297 -0.290556 0
M  V30 6715 H 625.062 -4.90556 -0.401908 0
M  V30 6716 N 626.714 -0.118576 -1.57153 0
M  V30 6717 C 627.677 0.817464 -2.14127 0
M  V30 6718 C 628.677 1.1949 -1.07604 0
M  V30 6719 O 629.867 1.12048 -1.33382 0
M  V30 6720 C 626.999 2.10541 -2.68115 0
M  V30 6721 H 628.192 0.322339 -2.98163 0
M  V30 6722 H 625.745 0.130655 -1.55753 0
M  V30 6723 H 626.48 2.64485 -1.87665 0
M  V30 6724 H 626.265 1.84425 -3.4602 0
M  V30 6725 H 627.755 2.77453 -3.12105 0
M  V30 6726 N 628.193 1.56834 0.155195 0
M  V30 6727 C 629.609 1.51315 0.50755 0
M  V30 6728 C 629.809 0.825614 1.83809 0
M  V30 6729 O 628.865 0.39271 2.49427 0
M  V30 6730 C 630.178 2.96074 0.52542 0
M  V30 6731 C 631.726 3.06968 0.611505 0
M  V30 6732 C 632.201 4.53218 0.660115 0
M  V30 6733 N 633.692 4.5753 0.722564 0
M  V30 6734 C 634.427 5.68056 0.781023 0
M  V30 6735 N 633.923 6.88173 0.799327 0
M  V30 6736 N 635.716 5.56068 0.821278 0
M  V30 6737 H 627.867 1.9993 -0.717063 0
M  V30 6738 H 630.13 0.911507 -0.260496 0
M  V30 6739 H 629.836 3.49599 -0.383875 0
M  V30 6740 H 629.71 3.51587 1.36624 0
M  V30 6741 H 632.097 2.53468 1.51122 0
M  V30 6742 H 632.178 2.54513 -0.256306 0
M  V30 6743 H 631.822 5.07354 -0.23541 0
M  V30 6744 H 631.752 5.03447 1.5443 0
M  V30 6745 H 634.243 3.71054 0.716049 0
M  V30 6746 H 634.556 7.6816 0.845553 0
M  V30 6747 H 632.901 6.90751 0.767337 0
M  V30 6748 H 636.092 4.61142 0.804091 0
M  V30 6749 H 636.265 6.42223 0.863372 0
M  V30 6750 N 629.671 -0.424282 1.51781 0
M  V30 6751 C 630.603 -1.53457 1.70246 0
M  V30 6752 C 631.616 -1.52004 0.582967 0
M  V30 6753 O 632.805 -1.56544 0.857683 0
M  V30 6754 C 629.905 -2.92368 1.71389 0
M  V30 6755 C 629.078 -3.1818 3.00133 0
M  V30 6756 C 628.137 -4.36884 2.9329 0
M  V30 6757 O 627.163 -4.34901 3.67219 0
M  V30 6758 N 628.365 -5.4117 2.10036 0
M  V30 6759 H 631.13 -1.38017 2.66029 0
M  V30 6760 H 628.691 -0.613394 1.4983 0
M  V30 6761 H 630.683 -3.6982 1.64362 0
M  V30 6762 H 629.253 -3.0134 0.831449 0
M  V30 6763 H 628.473 -2.28908 3.20928 0
M  V30 6764 H 629.761 -3.32261 3.85331 0
M  V30 6765 H 629.159 -5.45623 1.49373 0
M  V30 6766 H 627.716 -6.17425 2.08878 0
M  V30 6767 N 631.149 -1.42148 -0.680565 0
M  V30 6768 C 632.096 -1.45175 -1.79424 0
M  V30 6769 C 633.066 -0.304352 -1.63288 0
M  V30 6770 O 634.251 -0.507591 -1.83924 0
M  V30 6771 C 631.391 -1.35429 -3.17416 0
M  V30 6772 C 630.504 -2.60158 -3.4488 0
M  V30 6773 C 629.639 -2.42596 -4.72568 0
M  V30 6774 C 628.678 -3.62727 -4.93047 0
M  V30 6775 N 627.815 -3.44143 -6.11973 0
M  V30 6776 H 632.655 -2.40349 -1.76172 0
M  V30 6777 H 630.192 -1.19334 -0.860107 0
M  V30 6778 H 632.15 -1.27777 -3.97151 0
M  V30 6779 H 630.78 -0.438536 -3.19807 0
M  V30 6780 H 629.832 -2.78199 -2.5944 0
M  V30 6781 H 631.144 -3.49473 -3.55908 0
M  V30 6782 H 630.298 -2.32497 -5.60384 0
M  V30 6783 H 629.037 -1.50761 -4.63813 0
M  V30 6784 H 628.042 -3.73264 -4.03676 0
M  V30 6785 H 629.267 -4.55534 -5.03652 0
M  V30 6786 H 627.213 -2.5502 -6.04401 0
M  V30 6787 H 627.13 -4.27041 -6.23836 0
M  V30 6788 H 628.398 -3.37845 -7.02482 0
M  V30 6789 N 632.627 0.916307 -1.28225 0
M  V30 6790 C 633.857 1.69654 -1.17902 0
M  V30 6791 C 634.265 1.87331 0.265268 0
M  V30 6792 O 633.608 1.39828 1.19137 0
M  V30 6793 C 633.67 3.11024 -1.80289 0
M  V30 6794 C 633.334 3.16643 -3.29525 0
M  V30 6795 C 634.331 2.98032 -4.25997 0
M  V30 6796 C 632.016 3.39238 -3.70436 0
M  V30 6797 C 634.01 3.01924 -5.61356 0
M  V30 6798 C 631.697 3.42762 -5.05922 0
M  V30 6799 C 632.695 3.24125 -6.01192 0
M  V30 6800 O 632.383 3.27406 -7.34208 0
M  V30 6801 H 632.115 0.537197 -0.41036 0
M  V30 6802 H 634.669 1.15547 -1.69817 0
M  V30 6803 H 632.899 3.66662 -1.22865 0
M  V30 6804 H 634.588 3.71063 -1.6452 0
M  V30 6805 H 635.354 2.80405 -3.95725 0
M  V30 6806 H 631.233 3.52791 -2.96749 0
M  V30 6807 H 634.777 2.87295 -6.35694 0
M  V30 6808 H 630.674 3.59916 -5.35846 0
M  V30 6809 H 631.442 3.43784 -7.42802 0
M  V30 6810 N 634.105 1.10431 1.1244 0
M  V30 6811 C 635.068 0.756542 2.16354 0
M  V30 6812 C 636.068 -0.21899 1.59302 0
M  V30 6813 O 637.258 0.00415969 1.742 0
M  V30 6814 C 634.39 0.120612 3.40687 0
M  V30 6815 H 635.583 1.67696 2.48632 0
M  V30 6816 H 633.136 0.904832 1.27446 0
M  V30 6817 H 633.871 -0.810536 3.14008 0
M  V30 6818 H 633.656 0.822693 3.83372 0
M  V30 6819 H 635.146 -0.106945 4.17463 0
M  V30 6820 N 635.583 -1.29855 0.893053 0
M  V30 6821 C 636.813 -1.99686 0.530019 0
M  V30 6822 C 637.221 -1.67066 -0.888012 0
M  V30 6823 O 636.564 -0.908366 -1.5967 0
M  V30 6824 C 636.626 -3.53855 0.63457 0
M  V30 6825 C 636.29 -4.10013 2.01837 0
M  V30 6826 C 637.287 -4.25406 2.98874 0
M  V30 6827 C 634.972 -4.45202 2.32595 0
M  V30 6828 C 636.966 -4.7521 4.24799 0
M  V30 6829 C 634.653 -4.94704 3.58763 0
M  V30 6830 C 635.651 -5.09662 4.5468 0
M  V30 6831 O 635.339 -5.58093 5.78608 0
M  V30 6832 H 635.071 -0.644913 0.20264 0
M  V30 6833 H 637.625 -1.66518 1.20253 0
M  V30 6834 H 635.855 -3.86583 -0.0949477 0
M  V30 6835 H 637.544 -4.04922 0.281648 0
M  V30 6836 H 638.31 -3.98515 2.76425 0
M  V30 6837 H 634.189 -4.32822 1.58701 0
M  V30 6838 H 637.733 -4.86801 4.99671 0
M  V30 6839 H 633.63 -5.21032 3.81046 0
M  V30 6840 H 634.398 -5.7642 5.81104 0
M  V30 6841 N 637.061 -0.65484 -1.43351 0
M  V30 6842 C 638.309 -0.168559 -2.01396 0
M  V30 6843 C 638.63 1.22235 -1.51933 0
M  V30 6844 O 637.9 1.81685 -0.732627 0
M  V30 6845 H 636.48 -0.0593244 -0.744641 0
M  V30 6846 H 639.142 -0.846871 -1.75539 0
M  V30 6847 H 638.238 -0.154428 -3.11718 0
M  V30 6848 N 638.539 1.52521 -0.396863 0
M  V30 6849 C 639.486 2.26671 0.434624 0
M  V30 6850 C 640.456 1.28584 1.05144 0
M  V30 6851 O 641.641 1.57426 1.07804 0
M  V30 6852 C 638.781 3.08234 1.55196 0
M  V30 6853 C 637.894 4.21261 0.957262 0
M  V30 6854 C 637.029 4.90205 2.04627 0
M  V30 6855 C 636.068 5.95213 1.42787 0
M  V30 6856 N 635.205 6.57723 2.45651 0
M  V30 6857 H 640.045 2.973 -0.204139 0
M  V30 6858 H 637.582 1.46669 -0.112505 0
M  V30 6859 H 639.54 3.53819 2.2106 0
M  V30 6860 H 638.17 2.398 2.16092 0
M  V30 6861 H 637.222 3.79935 0.188005 0
M  V30 6862 H 638.534 4.96624 0.465416 0
M  V30 6863 H 637.688 5.39133 2.78246 0
M  V30 6864 H 636.427 4.14383 2.57174 0
M  V30 6865 H 635.432 5.45616 0.676968 0
M  V30 6866 H 636.657 6.72972 0.910255 0
M  V30 6867 H 634.603 5.84737 2.97353 0
M  V30 6868 H 634.52 7.28723 2.01243 0
M  V30 6869 H 635.788 7.11293 3.18876 0
M  V30 6870 N 640.017 0.126909 1.57088 0
M  V30 6871 C 640.949 -0.850973 2.12817 0
M  V30 6872 C 641.962 -1.22457 1.07276 0
M  V30 6873 O 643.151 -1.17215 1.34622 0
M  V30 6874 C 640.251 -2.15039 2.61938 0
M  V30 6875 C 639.424 -1.94726 3.91664 0
M  V30 6876 C 638.483 -3.0847 4.26301 0
M  V30 6877 O 637.509 -2.81038 4.94981 0
M  V30 6878 N 638.711 -4.35116 3.84259 0
M  V30 6879 H 641.476 -0.3748 2.97347 0
M  V30 6880 H 639.037 -0.0572793 1.61799 0
M  V30 6881 H 641.029 -2.90141 2.82135 0
M  V30 6882 H 639.599 -2.5398 1.82244 0
M  V30 6883 H 638.819 -1.03772 3.80296 0
M  V30 6884 H 640.107 -1.78469 4.76473 0
M  V30 6885 H 639.505 -4.60276 3.2888 0
M  V30 6886 H 638.062 -5.07064 4.09548 0
M  V30 6887 N 641.495 -1.56914 -0.146875 0
M  V30 6888 C 642.443 -1.99224 -1.20053 0
M  V30 6889 C 643.437 -0.884661 -1.44465 0
M  V30 6890 O 644.643 -1.06984 -1.44756 0
M  V30 6891 H 641.018 -0.634191 -0.404112 0
M  V30 6892 H 642.989 -2.86998 -0.816987 0
M  V30 6893 C 641.738 -2.38899 -2.52632 0
M  V30 6894 H 641.061 -3.23677 -2.34677 0
M  V30 6895 H 642.501 -2.72326 -3.24984 0
M  V30 6896 C 640.96 -1.2417 -3.13183 0
M  V30 6897 O 641.49 -0.542503 -3.9802 0
M  V30 6898 N 639.696 -1.00592 -2.72635 0
M  V30 6899 H 639.243 -1.57627 -2.03744 0
M  V30 6900 H 639.201 -0.240174 -3.13481 0
M  V30 6901 N 642.974 0.416227 -1.52004 0
M  V30 6902 C 644.251 1.17637 -1.56272 0
M  V30 6903 C 644.631 2.08352 -0.339493 0
M  V30 6904 O 643.979 2.1833 0.674124 0
M  V30 6905 C 644.189 1.95986 -2.88774 0
M  V30 6906 C 645.537 2.52299 -3.41512 0
M  V30 6907 O 646.561 2.06174 -2.90467 0
M  V30 6908 O 645.42 3.3648 -4.30631 0
M  V30 6909 H 642.514 0.536726 -0.629169 0
M  V30 6910 H 645.06 0.423583 -1.64329 0
M  V30 6911 H 643.832 1.29487 -3.69254 0
M  V30 6912 H 643.455 2.78285 -2.83978 0
M  V30 6913 N 644.452 1.42507 0.673017 0
M  V30 6914 C 645.682 1.46261 1.45916 0
M  V30 6915 C 646.09 0.0729724 1.89059 0
M  V30 6916 O 645.433 -0.922987 1.58829 0
M  V30 6917 C 645.495 2.32853 2.73898 0
M  V30 6918 C 645.159 3.80699 2.52819 0
M  V30 6919 C 646.156 4.72307 2.17306 0
M  V30 6920 C 643.841 4.24983 2.67758 0
M  V30 6921 C 645.835 6.06192 1.97003 0
M  V30 6922 C 643.522 5.58927 2.4707 0
M  V30 6923 C 644.52 6.49348 2.11746 0
M  V30 6924 O 644.208 7.80817 1.91259 0
M  V30 6925 H 643.94 0.499561 0.455428 0
M  V30 6926 H 646.494 1.87697 0.834196 0
M  V30 6927 H 644.724 1.86268 3.38882 0
M  V30 6928 H 646.413 2.28041 3.35786 0
M  V30 6929 H 647.179 4.39378 2.05359 0
M  V30 6930 H 643.058 3.54893 2.94231 0
M  V30 6931 H 646.602 6.76731 1.69355 0
M  V30 6932 H 642.499 5.91429 2.58615 0
M  V30 6933 H 643.267 7.92194 2.05843 0
M  V30 6934 N 645.93 -0.909495 1.28709 0
M  V30 6935 C 646.86 -2.0291 1.15542 0
M  V30 6936 C 647.841 -1.7002 0.0521017 0
M  V30 6937 O 649.026 -1.92835 0.229849 0
M  V30 6938 C 646.156 -3.37458 0.820935 0
M  V30 6939 C 645.11 -3.84524 1.87949 0
M  V30 6940 C 644.436 -5.16086 1.39854 0
M  V30 6941 C 645.736 -4.05918 3.28676 0
M  V30 6942 H 647.43 -2.14183 2.09203 0
M  V30 6943 H 644.976 -1.02913 1.00722 0
M  V30 6944 H 646.929 -4.1528 0.715571 0
M  V30 6945 H 645.653 -3.26249 -0.151374 0
M  V30 6946 H 644.312 -3.08911 1.97408 0
M  V30 6947 H 643.96 -5.01284 0.41518 0
M  V30 6948 H 643.66 -5.48547 2.1064 0
M  V30 6949 H 645.184 -5.96459 1.30649 0
M  V30 6950 H 646.598 -4.74252 3.22115 0
M  V30 6951 H 644.995 -4.49717 3.97334 0
M  V30 6952 H 646.065 -3.10583 3.72379 0
M  V30 6953 N 647.408 -1.11026 -1.11852 0
M  V30 6954 C 648.685 -0.768347 -1.79877 0
M  V30 6955 C 649.065 0.744261 -1.97545 0
M  V30 6956 O 648.413 1.67271 -1.55669 0
M  V30 6957 C 648.623 -1.52648 -3.13846 0
M  V30 6958 C 649.971 -1.70297 -3.88953 0
M  V30 6959 O 650.995 -1.49037 -3.23522 0
M  V30 6960 O 649.854 -2.05593 -5.06353 0
M  V30 6961 H 646.948 -0.277891 -0.778913 0
M  V30 6962 H 649.494 -1.21343 -1.18633 0
M  V30 6963 H 648.266 -2.55564 -2.96315 0
M  V30 6964 H 647.889 -1.07466 -3.82801 0
M  V30 6965 N 648.886 1.2938 -0.899927 0
M  V30 6966 C 649.836 2.25311 -0.349165 0
M  V30 6967 C 650.82 1.51889 0.530892 0
M  V30 6968 O 652.012 1.73028 0.372872 0
M  V30 6969 C 649.141 3.40696 0.422055 0
M  V30 6970 C 648.227 4.21455 -0.472935 0
M  V30 6971 N 648.618 4.8048 -1.58026 0
M  V30 6972 C 646.916 4.45177 -0.270767 0
M  V30 6973 C 647.617 5.41117 -2.13465 0
M  V30 6974 N 646.593 5.24518 -1.42766 0
M  V30 6975 H 650.395 2.68507 -1.19505 0
M  V30 6976 H 647.909 1.43992 -0.751006 0
M  V30 6977 H 649.906 4.08486 0.833369 0
M  V30 6978 H 648.566 2.99037 1.2652 0
M  V30 6979 H 649.577 4.79257 -1.96299 0
M  V30 6980 H 646.254 4.14071 0.533988 0
M  V30 6981 H 647.644 5.979 -3.06537 0
M  V30 6982 N 650.364 0.662433 1.43002 0
M  V30 6983 C 651.314 -0.0460442 2.27954 0
M  V30 6984 C 652.298 -0.785753 1.40409 0
M  V30 6985 O 653.49 -0.666701 1.63964 0
M  V30 6986 C 650.619 -1.00532 3.2825 0
M  V30 6987 C 649.705 -0.263604 4.2328 0
M  V30 6988 N 650.096 0.724855 5.00579 0
M  V30 6989 C 648.394 -0.503778 4.43146 0
M  V30 6990 C 649.095 1.16594 5.69895 0
M  V30 6991 N 648.071 0.498345 5.41311 0
M  V30 6992 H 651.873 0.712314 2.85137 0
M  V30 6993 H 649.387 0.490469 1.54817 0
M  V30 6994 H 651.384 -1.52775 3.87899 0
M  V30 6995 H 650.044 -1.76364 2.72628 0
M  V30 6996 H 651.055 1.10393 5.05998 0
M  V30 6997 H 647.732 -1.24255 3.98581 0
M  V30 6998 H 649.122 1.98434 6.4193 0
M  V30 6999 N 651.842 -1.52309 0.404946 0
M  V30 7000 C 652.79 -2.28452 -0.437321 0
M  V30 7001 C 653.784 -1.32975 -1.04948 0
M  V30 7002 O 654.99 -1.50451 -0.988159 0
M  V30 7003 H 651.365 -0.734824 -0.159805 0
M  V30 7004 H 653.336 -2.97542 0.22615 0
M  V30 7005 C 652.085 -3.11536 -1.54404 0
M  V30 7006 H 651.408 -3.84871 -1.08233 0
M  V30 7007 H 652.848 -3.67926 -2.10729 0
M  V30 7008 C 651.307 -2.24833 -2.50902 0
M  V30 7009 O 651.837 -1.88574 -3.54687 0
M  V30 7010 N 650.043 -1.88685 -2.21012 0
M  V30 7011 H 649.59 -2.18371 -1.36646 0
M  V30 7012 H 649.548 -1.30966 -2.85824 0
M  V30 7013 N 653.32 -0.135238 -1.57019 0
M  V30 7014 C 654.569 0.518694 -1.94917 0
M  V30 7015 C 654.882 1.66783 -1.0219 0
M  V30 7016 O 656.088 2.38561 -1.29619 0
M  V30 7017 C 654.544 0.974123 -3.46466 0
M  V30 7018 C 654.152 -0.147439 -4.47757 0
M  V30 7019 C 655.896 1.59851 -3.93253 0
M  V30 7020 C 653.803 0.325599 -5.90503 0
M  V30 7021 H 652.733 0.19754 -0.727663 0
M  V30 7022 H 655.384 -0.217698 -1.82204 0
M  V30 7023 H 653.766 1.76542 -3.5447 0
M  V30 7024 H 654.94 -0.924122 -4.51438 0
M  V30 7025 H 653.255 -0.679496 -4.10818 0
M  V30 7026 H 655.852 1.96385 -4.9733 0
M  V30 7027 H 656.195 2.48306 -3.3414 0
M  V30 7028 H 656.728 0.872323 -3.88118 0
M  V30 7029 H 653.467 -0.523295 -6.53408 0
M  V30 7030 H 652.987 1.06841 -5.90208 0
M  V30 7031 H 654.666 0.781498 -6.42263 0
M  V30 7032 N 654.798 1.5699 0.138552 0
M  V30 7033 C 656.047 1.82998 0.848205 0
M  V30 7034 C 656.36 0.717829 1.81952 0
M  V30 7035 O 657.566 0.863756 2.57394 0
M  V30 7036 C 656.022 3.24379 1.55904 0
M  V30 7037 C 655.63 4.43552 0.62971 0
M  V30 7038 C 657.374 3.59654 2.25498 0
M  V30 7039 C 655.281 5.75957 1.34266 0
M  V30 7040 H 654.211 0.682495 0.320495 0
M  V30 7041 H 656.862 1.83222 0.100924 0
M  V30 7042 H 655.244 3.18567 2.35226 0
M  V30 7043 H 656.418 4.6062 -0.128882 0
M  V30 7044 H 654.733 4.16379 0.0417526 0
M  V30 7045 H 657.33 4.55837 2.79493 0
M  V30 7046 H 657.673 2.86124 3.02388 0
M  V30 7047 H 658.206 3.67164 1.53087 0
M  V30 7048 H 654.945 6.52604 0.615441 0
M  V30 7049 H 654.465 5.62811 2.07375 0
M  V30 7050 H 656.144 6.19046 1.88126 0
M  V30 7051 N 656.276 -0.40816 1.52223 0
M  V30 7052 C 657.524 -1.15274 1.66001 0
M  V30 7053 C 657.845 -1.91003 0.392803 0
M  V30 7054 O 657.115 -1.8673 -0.592336 0
M  V30 7055 H 655.695 -0.428526 0.611861 0
M  V30 7056 H 658.357 -0.46512 1.89269 0
M  V30 7057 H 657.453 -1.86628 2.50153 0
M  V30 7058 N 657.755 -1.42862 -0.66545 0
M  V30 7059 C 659.001 -1.4504 -1.426 0
M  V30 7060 C 659.356 -0.0690217 -1.92276 0
M  V30 7061 O 658.649 0.91036 -1.68591 0
M  V30 7062 C 658.843 -2.4175 -2.63233 0
M  V30 7063 C 658.672 -3.89155 -2.25362 0
M  V30 7064 C 657.442 -4.57619 -2.14273 0
M  V30 7065 C 659.64 -4.79326 -1.86417 0
M  V30 7066 N 657.622 -5.90006 -1.69604 0
M  V30 7067 C 658.993 -6.00892 -1.52738 0
M  V30 7068 C 661.048 -4.66696 -1.73492 0
M  V30 7069 C 659.751 -7.11232 -1.0743 0
M  V30 7070 C 661.777 -5.77027 -1.29589 0
M  V30 7071 C 661.139 -6.97712 -0.968393 0
M  V30 7072 H 657.238 -0.585889 -0.517936 0
M  V30 7073 H 659.822 -1.78956 -0.767002 0
M  V30 7074 H 657.993 -2.09881 -3.26809 0
M  V30 7075 H 659.725 -2.34447 -3.29874 0
M  V30 7076 H 656.48 -4.11957 -2.33641 0
M  V30 7077 H 656.904 -6.60249 -1.49666 0
M  V30 7078 H 661.546 -3.7386 -1.97455 0
M  V30 7079 H 659.264 -8.03907 -0.822147 0
M  V30 7080 H 662.85 -5.6927 -1.20095 0
M  V30 7081 H 661.73 -7.81634 -0.63384 0
M  V30 7082 N 659.233 0.902656 -1.29189 0
M  V30 7083 C 660.461 1.68639 -1.19869 0
M  V30 7084 C 660.876 1.87254 0.241121 0
M  V30 7085 O 660.233 1.40745 1.16177 0
M  V30 7086 C 660.284 3.07251 -1.90471 0
M  V30 7087 O 660.005 2.89488 -3.28829 0
M  V30 7088 C 661.506 4.01653 -1.8759 0
M  V30 7089 H 658.726 0.526802 -0.415596 0
M  V30 7090 H 661.27 1.12901 -1.7051 0
M  V30 7091 H 659.425 3.59774 -1.43672 0
M  V30 7092 H 659.839 3.77296 -3.64346 0
M  V30 7093 H 661.313 4.96339 -2.4156 0
M  V30 7094 H 661.79 4.30881 -0.850756 0
M  V30 7095 H 662.396 3.55061 -2.34119 0
M  V30 7096 N 660.711 1.11618 1.11262 0
M  V30 7097 C 662.127 0.850468 1.35053 0
M  V30 7098 C 662.327 -0.523868 1.94571 0
M  V30 7099 O 661.383 -1.2743 2.17986 0
M  V30 7100 C 662.696 1.96005 2.28041 0
M  V30 7101 C 664.244 1.98993 2.416 0
M  V30 7102 C 664.719 3.0916 3.37911 0
M  V30 7103 N 666.21 3.08547 3.45475 0
M  V30 7104 C 666.945 3.9043 4.19943 0
M  V30 7105 N 666.441 4.8228 4.97371 0
M  V30 7106 N 668.234 3.786 4.15474 0
M  V30 7107 H 660.385 2.00184 0.709932 0
M  V30 7108 H 662.648 0.870635 0.375099 0
M  V30 7109 H 662.354 2.9499 1.91503 0
M  V30 7110 H 662.228 1.85782 3.28275 0
M  V30 7111 H 664.615 1.00633 2.77411 0
M  V30 7112 H 664.696 2.13292 1.4121 0
M  V30 7113 H 664.34 4.07748 3.02827 0
M  V30 7114 H 664.27 2.92102 4.3816 0
M  V30 7115 H 666.761 2.42 2.90249 0
M  V30 7116 H 667.074 5.41289 5.51567 0
M  V30 7117 H 665.419 4.863 4.96525 0
M  V30 7118 H 668.61 3.06185 3.54074 0
M  V30 7119 H 668.783 4.42647 4.73253 0
M  V30 7120 N 662.189 -1.289 0.906776 0
M  V30 7121 C 663.099 -2.31256 0.394707 0
M  V30 7122 C 664.115 -1.66231 -0.514121 0
M  V30 7123 O 665.291 -1.97347 -0.401994 0
M  V30 7124 C 662.356 -3.44792 -0.363191 0
M  V30 7125 C 661.417 -4.25391 0.578012 0
M  V30 7126 C 660.65 -5.33506 -0.143811 0
M  V30 7127 O 660.873 -5.53786 -1.36665 0
M  V30 7128 O 659.807 -5.99673 0.5173 0
M  V30 7129 H 663.633 -2.77051 1.24405 0
M  V30 7130 H 661.218 -1.33466 0.671346 0
M  V30 7131 H 663.1 -4.139 -0.791503 0
M  V30 7132 H 661.775 -3.01093 -1.18848 0
M  V30 7133 H 660.682 -3.58899 1.05558 0
M  V30 7134 H 662.015 -4.72752 1.36992 0
M  V30 7135 N 663.667 -0.670007 -1.42649 0
M  V30 7136 C 664.915 -0.18991 -2.01206 0
M  V30 7137 C 665.236 1.20617 -1.53221 0
M  V30 7138 O 664.506 1.80898 -0.751856 0
M  V30 7139 H 663.086 -0.0672189 -0.743969 0
M  V30 7140 H 665.748 -0.865442 -1.74631 0
M  V30 7141 H 664.844 -0.187481 -3.11536 0
M  V30 7142 N 665.145 1.52092 -0.413018 0
M  V30 7143 C 666.093 2.28681 0.425199 0
M  V30 7144 C 667.087 1.3353 1.04241 0
M  V30 7145 O 668.293 1.50973 0.980166 0
M  V30 7146 H 664.668 0.735661 0.155906 0
M  V30 7147 H 666.639 2.97418 -0.241926 0
M  V30 7148 C 665.388 3.1235 1.5275 0
M  V30 7149 H 664.711 3.85439 1.06191 0
M  V30 7150 H 666.151 3.69038 2.08774 0
M  V30 7151 C 664.61 2.26161 2.49706 0
M  V30 7152 O 665.14 1.90452 3.53682 0
M  V30 7153 N 663.346 1.89854 2.20008 0
M  V30 7154 H 662.893 2.19092 1.35486 0
M  V30 7155 H 662.851 1.3248 2.85125 0
M  V30 7156 N 666.623 0.143563 1.56945 0
M  V30 7157 C 667.851 -0.515447 2.00377 0
M  V30 7158 C 668.266 -1.58643 1.02361 0
M  V30 7159 O 667.623 -1.82489 0.0201039 0
M  V30 7160 C 667.674 -1.11923 3.43737 0
M  V30 7161 O 667.395 -0.0910318 4.38005 0
M  V30 7162 C 668.896 -1.85918 4.02429 0
M  V30 7163 H 666.116 -0.134478 0.657386 0
M  V30 7164 H 668.66 0.237135 2.0312 0
M  V30 7165 H 666.815 -1.82245 3.41856 0
M  V30 7166 H 667.229 -0.532916 5.21786 0
M  V30 7167 H 668.703 -2.2346 5.04747 0
M  V30 7168 H 669.18 -2.7438 3.42947 0
M  V30 7169 H 669.786 -1.20303 4.07931 0
M  V30 7170 N 668.101 -1.57061 -0.130224 0
M  V30 7171 C 669.064 -1.98593 -1.14426 0
M  V30 7172 C 670.064 -0.874584 -1.34936 0
M  V30 7173 O 671.254 -1.14086 -1.31643 0
M  V30 7174 C 668.386 -2.31639 -2.50112 0
M  V30 7175 H 669.579 -2.89374 -0.787561 0
M  V30 7176 H 667.132 -1.51756 -0.374146 0
M  V30 7177 H 667.867 -1.43703 -2.90723 0
M  V30 7178 H 667.652 -3.12684 -2.36583 0
M  V30 7179 H 669.142 -2.64551 -3.23114 0
M  V30 7180 N 669.579 0.400081 -1.52437 0
M  V30 7181 C 670.529 1.48734 -1.72807 0
M  V30 7182 C 671.513 1.50004 -0.582032 0
M  V30 7183 O 672.705 1.55828 -0.839449 0
M  V30 7184 C 669.834 2.86568 -1.89034 0
M  V30 7185 C 668.92 2.8991 -3.09537 0
M  V30 7186 N 669.311 2.62937 -4.32086 0
M  V30 7187 C 667.609 3.21078 -3.09556 0
M  V30 7188 C 668.31 2.73079 -5.13617 0
M  V30 7189 N 667.286 3.06342 -4.49061 0
M  V30 7190 H 671.088 1.26689 -2.65193 0
M  V30 7191 H 668.602 0.607902 -1.50593 0
M  V30 7192 H 670.599 3.64834 -2.01746 0
M  V30 7193 H 669.259 3.09604 -0.978547 0
M  V30 7194 H 670.27 2.37163 -4.60406 0
M  V30 7195 H 666.947 3.49651 -2.28146 0
M  V30 7196 H 668.337 2.55863 -6.21276 0
M  V30 7197 N 671.057 1.43213 0.657864 0
M  V30 7198 C 672.468 1.39669 1.23893 0
M  V30 7199 C 672.819 0.0984217 1.95953 0
M  V30 7200 O 671.944 -0.8023 2.00978 0
M  V30 7201 C 672.539 2.53004 2.25332 0
M  V30 7202 C 671.098 2.5274 2.78926 0
M  V30 7203 C 670.245 2.30941 1.53497 0
M  V30 7204 H 673.196 1.52181 0.450172 0
M  V30 7205 H 673.217 2.24226 3.07413 0
M  V30 7206 H 672.729 3.4748 1.72856 0
M  V30 7207 H 670.83 1.6213 3.35477 0
M  V30 7208 H 670.943 3.50352 3.26787 0
M  V30 7209 H 669.307 1.7952 1.80678 0
M  V30 7210 H 670.09 3.27496 1.02963 0
M  V30 7211 N 672.536 -0.895792 1.29666 0
M  V30 7212 C 673.484 -2.02173 1.15017 0
M  V30 7213 C 674.478 -1.69276 0.0647651 0
M  V30 7214 O 675.684 -1.7859 0.224846 0
M  V30 7215 H 672.059 -0.662719 0.355397 0
M  V30 7216 H 674.03 -2.11666 2.10334 0
M  V30 7217 C 672.779 -3.37212 0.847555 0
M  V30 7218 H 672.102 -3.6303 1.67479 0
M  V30 7219 H 673.542 -4.16668 0.785106 0
M  V30 7220 C 672.001 -3.33891 -0.44929 0
M  V30 7221 O 672.531 -3.73673 -1.47415 0
M  V30 7222 N 670.737 -2.86991 -0.456547 0
M  V30 7223 H 670.284 -2.54813 0.377925 0
M  V30 7224 H 670.242 -2.85152 -1.32423 0
M  V30 7225 N 674.014 -1.12206 -1.10668 0
M  V30 7226 C 675.239 -0.898938 -1.86906 0
M  V30 7227 C 675.664 0.546346 -1.79991 0
M  V30 7228 O 675.022 1.38655 -1.1681 0
M  V30 7229 C 675.07 -1.37529 -3.33344 0
M  V30 7230 O 674.174 -0.55218 -4.08687 0
M  V30 7231 H 673.515 -0.323163 -0.580053 0
M  V30 7232 H 676.045 -1.49355 -1.39837 0
M  V30 7233 H 676.055 -1.3733 -3.84193 0
M  V30 7234 H 674.73 -2.42767 -3.37693 0
M  V30 7235 H 673.307 -0.620947 -3.67694 0
M  V30 7236 N 675.492 1.28418 -0.913599 0
M  V30 7237 C 676.74 1.94596 -0.545594 0
M  V30 7238 C 677.061 1.7227 0.913668 0
M  V30 7239 O 676.331 1.06233 1.64595 0
M  V30 7240 H 674.911 0.720065 -0.198783 0
M  V30 7241 H 677.573 1.56404 -1.16292 0
M  V30 7242 H 676.669 3.03202 -0.739911 0
M  V30 7243 N 676.97 0.677563 1.42291 0
M  V30 7244 C 677.9 0.014968 2.33495 0
M  V30 7245 C 678.881 -0.786376 1.50831 0
M  V30 7246 O 680.066 -0.742975 1.79426 0
M  V30 7247 C 677.196 -0.935023 3.34477 0
M  V30 7248 C 676.15 -0.242074 4.27315 0
M  V30 7249 C 675.476 -1.30519 5.18526 0
M  V30 7250 C 676.776 0.880604 5.14823 0
M  V30 7251 H 678.47 0.776671 2.89151 0
M  V30 7252 H 676.016 0.37494 1.39033 0
M  V30 7253 H 677.969 -1.40766 3.97194 0
M  V30 7254 H 676.693 -1.72818 2.77131 0
M  V30 7255 H 675.352 0.210351 3.65996 0
M  V30 7256 H 675 -2.09041 4.57505 0
M  V30 7257 H 674.7 -0.846652 5.81468 0
M  V30 7258 H 676.224 -1.7787 5.84119 0
M  V30 7259 H 677.638 0.489062 5.7121 0
M  V30 7260 H 676.035 1.26511 5.86613 0
M  V30 7261 H 677.105 1.72818 4.53059 0
M  V30 7262 N 678.448 -1.51871 0.421078 0
M  V30 7263 C 679.411 -2.25914 -0.386712 0
M  V30 7264 C 680.411 -1.28733 -0.963555 0
M  V30 7265 O 681.601 -1.52579 -0.840556 0
M  V30 7266 C 678.733 -3.03853 -1.54551 0
M  V30 7267 H 679.926 -2.98754 0.261978 0
M  V30 7268 H 677.479 -1.5533 0.173862 0
M  V30 7269 H 678.214 -2.35392 -2.23072 0
M  V30 7270 H 677.999 -3.75215 -1.13824 0
M  V30 7271 H 679.489 -3.59984 -2.11663 0
M  V30 7272 N 679.926 -0.151884 -1.56866 0
M  V30 7273 C 681.154 0.504813 -2.00647 0
M  V30 7274 C 681.569 1.58098 -1.03201 0
M  V30 7275 O 680.926 1.82476 -0.0297814 0
M  V30 7276 C 680.977 1.10099 -3.44326 0
M  V30 7277 O 680.698 0.0678021 -4.38048 0
M  V30 7278 C 682.199 1.83782 -4.03409 0
M  V30 7279 H 679.419 0.130989 -0.65809 0
M  V30 7280 H 681.963 -0.247903 -2.02992 0
M  V30 7281 H 680.118 1.8043 -3.42817 0
M  V30 7282 H 680.532 0.505237 -5.22061 0
M  V30 7283 H 682.006 2.2078 -5.05925 0
M  V30 7284 H 682.483 2.72557 -3.44397 0
M  V30 7285 H 683.089 1.18138 -4.08563 0
M  V30 7286 N 681.404 1.57128 0.121893 0
M  V30 7287 C 682.653 1.83888 0.828748 0
M  V30 7288 C 682.966 0.737087 1.81181 0
M  V30 7289 O 684.172 0.891007 2.56463 0
M  V30 7290 C 682.628 3.26014 1.52455 0
M  V30 7291 C 682.236 4.44195 0.58263 0
M  V30 7292 C 683.98 3.62025 2.21671 0
M  V30 7293 C 681.887 5.77349 1.28149 0
M  V30 7294 H 680.817 0.685856 0.313238 0
M  V30 7295 H 683.468 1.83319 0.0814851 0
M  V30 7296 H 681.85 3.21044 2.31834 0
M  V30 7297 H 683.024 4.60457 -0.177729 0
M  V30 7298 H 681.339 4.164 -0.00241228 0
M  V30 7299 H 683.936 4.58776 2.74643 0
M  V30 7300 H 684.279 2.89315 2.99337 0
M  V30 7301 H 684.812 3.68767 1.49184 0
M  V30 7302 H 681.551 6.53221 0.546189 0
M  V30 7303 H 681.071 5.64978 2.01394 0
M  V30 7304 H 682.75 6.21006 1.81549 0
M  V30 7305 N 682.882 -0.391992 1.52647 0
M  V30 7306 C 683.815 -1.50019 1.71958 0
M  V30 7307 C 684.793 -1.5238 0.567365 0
M  V30 7308 O 685.977 -1.70831 0.796806 0
M  V30 7309 C 683.104 -2.88496 1.77447 0
M  V30 7310 C 682.15 -3.03974 2.99169 0
M  V30 7311 S 682.983 -2.75487 4.59203 0
M  V30 7312 C 684.139 -4.16163 4.67503 0
M  V30 7313 H 684.372 -1.33413 2.65685 0
M  V30 7314 H 681.905 -0.584674 1.42902 0
M  V30 7315 H 683.863 -3.68296 1.81296 0
M  V30 7316 H 682.524 -3.02431 0.848188 0
M  V30 7317 H 681.717 -4.05328 2.99542 0
M  V30 7318 H 681.319 -2.32062 2.93297 0
M  V30 7319 H 683.611 -5.10048 4.45934 0
M  V30 7320 H 684.554 -4.20806 5.69498 0
M  V30 7321 H 684.962 -4.01933 3.96371 0
M  V30 7322 N 684.36 -1.4356 -0.65026 0
M  V30 7323 C 685.585 -1.48995 -1.44275 0
M  V30 7324 C 686.01 -0.109954 -1.87778 0
M  V30 7325 O 685.368 0.896926 -1.57559 0
M  V30 7326 C 685.416 -2.44341 -2.65198 0
M  V30 7327 O 684.52 -1.93172 -3.6436 0
M  V30 7328 H 683.861 -0.503852 -0.432469 0
M  V30 7329 H 686.391 -1.88504 -0.795446 0
M  V30 7330 H 686.401 -2.61743 -3.12977 0
M  V30 7331 H 685.076 -3.44588 -2.32877 0
M  V30 7332 H 683.653 -1.85445 -3.23519 0
M  V30 7333 N 685.838 0.888903 -1.30139 0
M  V30 7334 C 687.115 1.62145 -1.094 0
M  V30 7335 C 687.495 2.08041 0.358091 0
M  V30 7336 O 686.843 1.84438 1.34888 0
M  V30 7337 C 687.053 2.794 -2.09133 0
M  V30 7338 C 688.401 3.49826 -2.40638 0
M  V30 7339 O 689.425 2.89583 -2.07412 0
M  V30 7340 O 688.284 4.58457 -2.97455 0
M  V30 7341 H 685.378 0.712475 -0.41989 0
M  V30 7342 H 687.924 0.936023 -1.41551 0
M  V30 7343 H 686.696 2.42762 -3.06891 0
M  V30 7344 H 686.319 3.55643 -1.77776 0
M  V30 7345 N 687.317 1.12792 1.10072 0
M  V30 7346 C 688.565 0.883796 1.81751 0
M  V30 7347 C 688.886 -0.591891 1.858 0
M  V30 7348 O 688.156 -1.43017 1.33876 0
M  V30 7349 H 686.736 0.323978 0.673088 0
M  V30 7350 H 689.398 1.42314 1.33164 0
M  V30 7351 H 688.494 1.26863 2.85153 0
M  V30 7352 N 688.795 -1.27931 0.920396 0
M  V30 7353 C 689.758 -2.25345 0.41858 0
M  V30 7354 C 690.758 -1.54116 -0.458798 0
M  V30 7355 O 691.948 -1.72235 -0.260912 0
M  V30 7356 C 689.08 -3.38556 -0.399104 0
M  V30 7357 H 690.273 -2.71251 1.27918 0
M  V30 7358 H 687.826 -1.39728 0.700406 0
M  V30 7359 H 688.561 -2.98021 -1.27882 0
M  V30 7360 H 688.346 -3.91426 0.229863 0
M  V30 7361 H 689.836 -4.10976 -0.740817 0
M  V30 7362 N 690.273 -0.685099 -1.4193 0
M  V30 7363 C 691.521 -0.21124 -2.00993 0
M  V30 7364 C 691.842 1.18985 -1.54491 0
M  V30 7365 O 691.112 1.8009 -0.771 0
M  V30 7366 H 689.692 -0.0751059 -0.743215 0
M  V30 7367 H 692.354 -0.883915 -1.73704 0
M  V30 7368 H 691.45 -0.220513 -3.1132 0
M  V30 7369 N 691.751 1.51645 -0.429126 0
M  V30 7370 C 692.999 2.01616 0.139802 0
M  V30 7371 C 693.32 1.31568 1.43927 0
M  V30 7372 O 692.59 0.447688 1.90716 0
M  V30 7373 H 691.17 0.744998 0.054654 0
M  V30 7374 H 693.832 1.8638 -0.569952 0
M  V30 7375 H 692.928 3.10439 0.321609 0
M  V30 7376 N 693.229 0.160201 1.56784 0
M  V30 7377 C 694.454 -0.497373 2.01348 0
M  V30 7378 C 694.879 -1.56757 1.03966 0
M  V30 7379 O 694.237 -1.81292 0.0174455 0
M  V30 7380 C 694.285 -1.0628 3.44582 0
M  V30 7381 O 693.389 -2.17723 3.50244 0
M  V30 7382 H 692.73 -0.120295 0.653012 0
M  V30 7383 H 695.26 0.260821 2.02931 0
M  V30 7384 H 695.27 -1.38819 3.83658 0
M  V30 7385 H 693.945 -0.279166 4.14962 0
M  V30 7386 H 692.522 -1.86313 3.2302 0
M  V30 7387 N 694.707 -1.5719 -0.113559 0
M  V30 7388 C 695.654 -2.00736 -1.13901 0
M  V30 7389 C 696.624 -0.88044 -1.40846 0
M  V30 7390 O 697.809 -1.14507 -1.5262 0
M  V30 7391 C 694.949 -2.42132 -2.45899 0
M  V30 7392 C 694.062 -3.68264 -2.25844 0
M  V30 7393 C 693.197 -3.98617 -3.5111 0
M  V30 7394 C 692.236 -5.17915 -3.26236 0
M  V30 7395 N 691.373 -5.44111 -4.4372 0
M  V30 7396 H 696.213 -2.88128 -0.760677 0
M  V30 7397 H 693.75 -1.42523 -0.364099 0
M  V30 7398 H 695.708 -2.6417 -3.22908 0
M  V30 7399 H 694.338 -1.57775 -2.81615 0
M  V30 7400 H 693.39 -3.53809 -1.39726 0
M  V30 7401 H 694.702 -4.55425 -2.03444 0
M  V30 7402 H 693.856 -4.21333 -4.36536 0
M  V30 7403 H 692.595 -3.09942 -3.76546 0
M  V30 7404 H 691.6 -4.95038 -2.39202 0
M  V30 7405 H 692.825 -6.08172 -3.02165 0
M  V30 7406 H 690.771 -4.58394 -4.69266 0
M  V30 7407 H 690.688 -6.25606 -4.24444 0
M  V30 7408 H 691.956 -5.71351 -5.30263 0
M  V30 7409 N 696.185 0.383891 -1.52853 0
M  V30 7410 C 697.431 1.12667 -1.69345 0
M  V30 7411 C 697.786 1.87519 -0.430635 0
M  V30 7412 O 697.079 1.82742 0.575846 0
M  V30 7413 C 697.273 2.12881 -2.87082 0
M  V30 7414 C 697.102 1.47873 -4.24692 0
M  V30 7415 C 695.872 1.24064 -4.89833 0
M  V30 7416 C 698.07 0.926118 -5.05893 0
M  V30 7417 N 696.052 0.552138 -6.11412 0
M  V30 7418 C 697.423 0.365966 -6.18919 0
M  V30 7419 C 699.478 0.823023 -4.91051 0
M  V30 7420 C 698.181 -0.287204 -7.18726 0
M  V30 7421 C 700.207 0.183666 -5.91115 0
M  V30 7422 C 699.569 -0.365693 -7.0345 0
M  V30 7423 H 695.668 0.398064 -0.673104 0
M  V30 7424 H 698.252 0.415504 -1.90215 0
M  V30 7425 H 696.423 2.81329 -2.67784 0
M  V30 7426 H 698.155 2.79703 -2.92486 0
M  V30 7427 H 694.91 1.51701 -4.48647 0
M  V30 7428 H 695.334 0.223783 -6.7663 0
M  V30 7429 H 699.976 1.23354 -4.04405 0
M  V30 7430 H 697.694 -0.709719 -8.04977 0
M  V30 7431 H 701.28 0.105074 -5.81705 0
M  V30 7432 H 700.16 -0.85261 -7.79551 0
M  V30 7433 N 697.663 1.43903 0.642637 0
M  V30 7434 C 698.596 1.44339 1.76753 0
M  V30 7435 C 699.574 0.303558 1.59741 0
M  V30 7436 O 700.758 0.498775 1.81781 0
M  V30 7437 C 697.885 1.26508 3.14187 0
M  V30 7438 C 696.931 2.43905 3.49875 0
M  V30 7439 S 697.764 4.0645 3.48653 0
M  V30 7440 C 698.92 3.91021 4.88726 0
M  V30 7441 H 699.153 2.39523 1.76113 0
M  V30 7442 H 696.686 1.31061 0.81623 0
M  V30 7443 H 698.644 1.16908 3.93501 0
M  V30 7444 H 697.305 0.328548 3.12377 0
M  V30 7445 H 696.498 2.27262 4.49853 0
M  V30 7446 H 696.1 2.50186 2.77998 0
M  V30 7447 H 698.392 3.54 5.77659 0
M  V30 7448 H 699.335 4.9079 5.10423 0
M  V30 7449 H 699.743 3.23287 4.62759 0
M  V30 7450 N 699.141 -0.881989 1.30609 0
M  V30 7451 C 700.388 -1.63405 1.19604 0
M  V30 7452 C 700.716 -1.92905 -0.248574 0
M  V30 7453 O 699.971 -1.55062 -1.19391 0
M  V30 7454 C 700.27 -2.97999 1.97311 0
M  V30 7455 C 699.936 -2.88039 3.46907 0
M  V30 7456 C 698.598 -2.85029 3.877 0
M  V30 7457 C 700.95 -2.75948 4.42156 0
M  V30 7458 C 698.278 -2.67772 5.2203 0
M  V30 7459 C 700.63 -2.60228 5.76597 0
M  V30 7460 C 699.294 -2.55595 6.16626 0
M  V30 7461 H 698.564 -0.597941 0.437662 0
M  V30 7462 H 701.211 -1.02524 1.61744 0
M  V30 7463 H 699.516 -3.62847 1.47815 0
M  V30 7464 H 701.213 -3.55156 1.86186 0
M  V30 7465 H 697.803 -2.91192 3.14492 0
M  V30 7466 H 701.987 -2.77337 4.1158 0
M  V30 7467 H 697.243 -2.62601 5.52133 0
M  V30 7468 H 701.417 -2.49847 6.50038 0
M  V30 7469 H 699.044 -2.41981 7.20659 0
M  V30 7470 N 700.619 -1.13374 -1.09472 0
M  V30 7471 C 701.865 -0.896516 -1.81908 0
M  V30 7472 C 702.198 0.575933 -1.85463 0
M  V30 7473 O 701.473 1.42618 -1.32251 0
M  V30 7474 C 701.756 -1.48445 -3.28079 0
M  V30 7475 C 701.609 -3.02598 -3.32798 0
M  V30 7476 C 702.928 -1.15226 -4.24748 0
M  V30 7477 H 700.047 -0.327127 -0.660422 0
M  V30 7478 H 702.689 -1.40195 -1.2824 0
M  V30 7479 H 700.839 -1.0546 -3.73912 0
M  V30 7480 H 702.511 -3.54335 -2.95372 0
M  V30 7481 H 700.754 -3.37613 -2.72397 0
M  V30 7482 H 701.425 -3.38835 -4.3577 0
M  V30 7483 H 703.901 -1.52369 -3.87199 0
M  V30 7484 H 702.777 -1.59012 -5.25363 0
M  V30 7485 H 703.038 -0.0658891 -4.42051 0
M  V30 7486 N 702.098 1.27442 -0.927168 0
M  V30 7487 C 703.346 1.94007 -0.566203 0
M  V30 7488 C 703.667 1.7323 0.895345 0
M  V30 7489 O 702.937 1.07973 1.63459 0
M  V30 7490 H 701.517 0.717917 -0.206409 0
M  V30 7491 H 704.179 1.55161 -1.17945 0
M  V30 7492 H 703.275 3.02401 -0.772028 0
M  V30 7493 N 703.576 0.692616 1.41565 0
M  V30 7494 C 704.992 0.363878 1.55397 0
M  V30 7495 C 705.192 -1.1294 1.66874 0
M  V30 7496 O 704.248 -1.91517 1.64552 0
M  V30 7497 C 705.561 1.10982 2.7947 0
M  V30 7498 C 707.109 1.09387 2.93263 0
M  V30 7499 C 707.584 1.8215 4.20221 0
M  V30 7500 N 709.075 1.79105 4.27172 0
M  V30 7501 C 709.81 2.32247 5.2426 0
M  V30 7502 N 709.306 2.93847 6.27396 0
M  V30 7503 N 711.099 2.22519 5.1618 0
M  V30 7504 H 703.25 1.66116 1.3236 0
M  V30 7505 H 705.513 0.700848 0.63837 0
M  V30 7506 H 705.219 2.1647 2.77188 0
M  V30 7507 H 705.093 0.686492 3.709 0
M  V30 7508 H 707.48 0.0472638 2.95062 0
M  V30 7509 H 707.561 1.55623 2.03015 0
M  V30 7510 H 707.205 2.86789 4.19183 0
M  V30 7511 H 707.135 1.33351 5.09436 0
M  V30 7512 H 709.626 1.34191 3.53272 0
M  V30 7513 H 709.939 3.31972 6.97864 0
M  V30 7514 H 708.284 2.97924 6.27906 0
M  V30 7515 H 711.475 1.7407 4.34531 0
M  V30 7516 H 711.648 2.64239 5.91677 0
M  V30 7517 N 705.054 -1.51416 0.437162 0
M  V30 7518 C 706.002 -2.29328 -0.388765 0
M  V30 7519 C 706.996 -1.35171 -1.02104 0
M  V30 7520 O 708.202 -1.52513 -0.956024 0
M  V30 7521 H 704.577 -0.738048 -0.144183 0
M  V30 7522 H 706.548 -2.96995 0.289212 0
M  V30 7523 C 705.297 -3.14741 -1.47761 0
M  V30 7524 H 704.62 -3.8708 -1.00045 0
M  V30 7525 H 706.06 -3.72313 -2.02877 0
M  V30 7526 C 704.519 -2.30105 -2.46076 0
M  V30 7527 O 705.049 -1.96055 -3.50607 0
M  V30 7528 N 703.255 -1.93331 -2.1696 0
M  V30 7529 H 702.802 -2.2122 -1.31983 0
M  V30 7530 H 702.76 -1.36999 -2.82982 0
M  V30 7531 N 706.532 -0.168513 -1.56696 0
M  V30 7532 C 707.479 0.762875 -2.17828 0
M  V30 7533 C 708.449 1.22892 -1.11745 0
M  V30 7534 O 709.634 1.29759 -1.39883 0
M  V30 7535 C 706.774 1.9879 -2.82093 0
M  V30 7536 C 705.887 1.56568 -4.02629 0
M  V30 7537 C 705.022 2.74416 -4.54829 0
M  V30 7538 C 704.061 2.28671 -5.67782 0
M  V30 7539 N 703.198 3.39602 -6.14504 0
M  V30 7540 H 708.038 0.23479 -2.97074 0
M  V30 7541 H 705.575 0.104163 -1.46731 0
M  V30 7542 H 707.533 2.70636 -3.17509 0
M  V30 7543 H 706.163 2.48973 -2.05456 0
M  V30 7544 H 705.215 0.744067 -3.73052 0
M  V30 7545 H 706.527 1.18988 -4.844 0
M  V30 7546 H 705.681 3.54423 -4.92412 0
M  V30 7547 H 704.42 3.15254 -3.7211 0
M  V30 7548 H 703.425 1.4711 -5.29753 0
M  V30 7549 H 704.65 1.88894 -6.52301 0
M  V30 7550 H 702.596 3.80021 -5.34715 0
M  V30 7551 H 702.513 3.06105 -6.91257 0
M  V30 7552 H 703.781 4.19902 -6.56737 0
M  V30 7553 N 708.01 1.57248 0.105221 0
M  V30 7554 C 708.973 2.00388 1.11252 0
M  V30 7555 C 709.973 0.89594 1.33527 0
M  V30 7556 O 711.163 1.16166 1.29811 0
M  V30 7557 C 708.295 2.35589 2.46395 0
M  V30 7558 H 709.488 2.90591 0.741424 0
M  V30 7559 H 707.041 1.52332 0.349956 0
M  V30 7560 H 707.776 1.4831 2.884 0
M  V30 7561 H 707.561 3.16408 2.31578 0
M  V30 7562 H 709.051 2.69658 3.18864 0
M  V30 7563 N 709.488 -0.375779 1.53054 0
M  V30 7564 C 710.736 -1.11727 1.68409 0
M  V30 7565 C 711.057 -1.90127 0.43323 0
M  V30 7566 O 710.327 -1.87945 -0.552595 0
M  V30 7567 H 708.907 -0.415451 0.620813 0
M  V30 7568 H 711.569 -0.424869 1.90213 0
M  V30 7569 H 710.665 -1.8128 2.54055 0
M  V30 7570 N 710.966 -1.44241 -0.634997 0
M  V30 7571 C 711.898 -1.46793 -1.76024 0
M  V30 7572 C 712.911 -0.361781 -1.58729 0
M  V30 7573 O 714.1 -0.627297 -1.67114 0
M  V30 7574 C 711.2 -1.28248 -3.13697 0
M  V30 7575 C 710.373 -2.52038 -3.57485 0
M  V30 7576 C 709.432 -2.2845 -4.74022 0
M  V30 7577 O 708.458 -3.01915 -4.82531 0
M  V30 7578 N 709.66 -1.31264 -5.65464 0
M  V30 7579 H 712.425 -2.43797 -1.74307 0
M  V30 7580 H 709.986 -1.39631 -0.819438 0
M  V30 7581 H 711.978 -1.10321 -3.89373 0
M  V30 7582 H 710.548 -0.39623 -3.10079 0
M  V30 7583 H 709.768 -2.85268 -2.72059 0
M  V30 7584 H 711.056 -3.34382 -3.83492 0
M  V30 7585 H 710.454 -0.705817 -5.6128 0
M  V30 7586 H 709.011 -1.19316 -6.40786 0
M  V30 7587 N 712.444 0.87505 -1.31075 0
M  V30 7588 C 713.69 1.63009 -1.20647 0
M  V30 7589 C 714.023 1.9276 0.236045 0
M  V30 7590 O 713.298 1.55559 1.16754 0
M  V30 7591 C 713.581 2.96357 -2.0456 0
M  V30 7592 C 713.434 2.73516 -3.57084 0
M  V30 7593 C 714.753 3.974 -1.89107 0
M  V30 7594 H 711.872 0.591518 -0.439631 0
M  V30 7595 H 714.514 1.0119 -1.60812 0
M  V30 7596 H 712.664 3.49119 -1.70435 0
M  V30 7597 H 714.336 2.27465 -4.01319 0
M  V30 7598 H 712.579 2.0784 -3.80769 0
M  V30 7599 H 713.25 3.68377 -4.11099 0
M  V30 7600 H 715.726 3.5383 -2.18961 0
M  V30 7601 H 714.602 4.88596 -2.5013 0
M  V30 7602 H 714.863 4.33794 -0.85296 0
M  V30 7603 N 713.922 1.13953 1.08869 0
M  V30 7604 C 715.168 0.916103 1.81602 0
M  V30 7605 C 715.523 -0.551633 1.84322 0
M  V30 7606 O 714.816 -1.40322 1.30462 0
M  V30 7607 C 715.01 1.44495 3.26888 0
M  V30 7608 C 714.839 2.96257 3.38322 0
M  V30 7609 C 713.609 3.64658 3.49789 0
M  V30 7610 C 715.807 3.94156 3.30372 0
M  V30 7611 N 713.789 5.04379 3.49965 0
M  V30 7612 C 715.16 5.20101 3.37484 0
M  V30 7613 C 717.215 3.86342 3.14077 0
M  V30 7614 C 715.918 6.39145 3.29979 0
M  V30 7615 C 717.944 5.04927 3.07901 0
M  V30 7616 C 717.306 6.29738 3.1561 0
M  V30 7617 H 713.405 0.388701 0.678554 0
M  V30 7618 H 715.989 1.44879 1.3007 0
M  V30 7619 H 714.16 0.939102 3.76876 0
M  V30 7620 H 715.892 1.16193 3.87661 0
M  V30 7621 H 712.647 3.15196 3.5348 0
M  V30 7622 H 713.071 5.77305 3.53622 0
M  V30 7623 H 717.713 2.90726 3.06982 0
M  V30 7624 H 715.431 7.3501 3.35836 0
M  V30 7625 H 719.017 5.00626 2.9642 0
M  V30 7626 H 717.897 7.19958 3.10854 0
M  V30 7627 N 715.4 -1.26948 0.933913 0
M  V30 7628 C 716.625 -1.98724 0.593589 0
M  V30 7629 C 717.05 -1.6915 -0.822801 0
M  V30 7630 O 716.408 -0.93533 -1.5531 0
M  V30 7631 C 716.456 -3.50834 0.833542 0
M  V30 7632 O 715.56 -4.12284 -0.0978788 0
M  V30 7633 H 714.901 -0.623683 0.227849 0
M  V30 7634 H 717.431 -1.61599 1.25486 0
M  V30 7635 H 717.441 -4.01018 0.75156 0
M  V30 7636 H 716.116 -3.71691 1.86597 0
M  V30 7637 H 714.693 -3.72884 0.0345443 0
M  V30 7638 N 716.879 -0.700114 -1.41195 0
M  V30 7639 C 718.156 -0.160836 -1.94938 0
M  V30 7640 C 718.536 1.33014 -1.63922 0
M  V30 7641 O 717.884 2.07878 -0.948636 0
M  V30 7642 C 718.094 -0.456991 -3.45995 0
M  V30 7643 C 719.442 -0.387207 -4.22831 0
M  V30 7644 O 720.466 -0.392164 -3.54035 0
M  V30 7645 O 719.325 -0.351267 -5.4537 0
M  V30 7646 H 716.419 -0.0176304 -0.826812 0
M  V30 7647 H 718.965 -0.776586 -1.50888 0
M  V30 7648 H 717.737 -1.48884 -3.61869 0
M  V30 7649 H 717.36 0.189503 -3.97148 0
M  V30 7650 N 718.357 1.51182 -0.445186 0
M  V30 7651 C 719.606 2.01342 0.120189 0
M  V30 7652 C 719.919 1.33353 1.43095 0
M  V30 7653 O 721.125 1.74525 2.07974 0
M  V30 7654 C 719.581 3.58925 0.264732 0
M  V30 7655 C 719.189 4.35855 -1.03606 0
M  V30 7656 C 720.933 4.17208 0.783455 0
M  V30 7657 C 718.84 5.85162 -0.856731 0
M  V30 7658 H 717.77 0.752426 0.0486922 0
M  V30 7659 H 720.421 1.74221 -0.576143 0
M  V30 7660 H 718.803 3.82525 1.02425 0
M  V30 7661 H 719.977 4.23997 -1.80452 0
M  V30 7662 H 718.292 3.89062 -1.48391 0
M  V30 7663 H 720.889 5.26475 0.934239 0
M  V30 7664 H 721.232 3.76892 1.768 0
M  V30 7665 H 721.765 3.97715 0.0820346 0
M  V30 7666 H 718.504 6.29904 -1.81388 0
M  V30 7667 H 718.024 5.99663 -0.128206 0
M  V30 7668 H 719.703 6.44963 -0.513027 0
M  V30 7669 N 719.835 0.176821 1.56605 0
M  V30 7670 C 721.063 -0.472828 2.01425 0
M  V30 7671 C 721.478 -1.56436 1.05703 0
M  V30 7672 O 720.835 -1.82405 0.058808 0
M  V30 7673 C 720.886 -1.04607 3.46034 0
M  V30 7674 O 720.607 0.00189608 4.381 0
M  V30 7675 C 722.108 -1.7734 4.06282 0
M  V30 7676 H 719.328 -0.120503 0.660091 0
M  V30 7677 H 721.872 0.280166 2.02572 0
M  V30 7678 H 720.027 -1.74953 3.45645 0
M  V30 7679 H 720.441 -0.422118 5.22799 0
M  V30 7680 H 721.915 -2.12703 5.09374 0
M  V30 7681 H 722.392 -2.67043 3.4869 0
M  V30 7682 H 722.998 -1.11623 4.10391 0
M  V30 7683 N 721.313 -1.57302 -0.09688 0
M  V30 7684 C 722.561 -1.8563 -0.799117 0
M  V30 7685 C 722.882 -0.765263 -1.79356 0
M  V30 7686 O 722.152 0.208657 -1.94786 0
M  V30 7687 H 720.732 -0.684937 -0.298111 0
M  V30 7688 H 723.394 -1.9474 -0.0789341 0
M  V30 7689 H 722.49 -2.82305 -1.3308 0
M  V30 7690 N 722.791 0.367657 -1.53252 0
M  V30 7691 C 723.739 1.47061 -1.8021 0
M  V30 7692 C 724.733 1.55539 -0.671112 0
M  V30 7693 O 725.939 1.58451 -0.854014 0
M  V30 7694 H 722.314 0.489868 -0.570555 0
M  V30 7695 H 724.285 1.21527 -2.72532 0
M  V30 7696 C 723.034 2.83924 -2.00706 0
M  V30 7697 H 722.357 2.78158 -2.87172 0
M  V30 7698 H 723.797 3.60281 -2.23547 0
M  V30 7699 C 722.256 3.27613 -0.785568 0
M  V30 7700 O 722.786 4.01691 0.0267459 0
M  V30 7701 N 720.992 2.84134 -0.609597 0
M  V30 7702 H 720.539 2.24017 -1.27178 0
M  V30 7703 H 720.497 3.13723 0.206281 0
M  V30 7704 N 724.269 1.44576 0.627338 0
M  V30 7705 C 725.685 1.28546 0.945938 0
M  V30 7706 C 725.885 0.224003 2.00251 0
M  V30 7707 O 724.941 -0.388817 2.49488 0
M  V30 7708 C 726.254 2.65825 1.40561 0
M  V30 7709 C 727.802 2.73566 1.52088 0
M  V30 7710 C 728.277 4.11323 2.01438 0
M  V30 7711 N 729.768 4.13519 2.08702 0
M  V30 7712 C 730.503 5.16964 2.48065 0
M  V30 7713 N 729.999 6.30768 2.86538 0
M  V30 7714 N 731.792 5.04319 2.48232 0
M  V30 7715 H 723.943 2.1228 -0.0713567 0
M  V30 7716 H 726.206 0.947503 0.0307081 0
M  V30 7717 H 725.912 3.44591 0.703539 0
M  V30 7718 H 725.786 2.92969 2.37591 0
M  V30 7719 H 728.173 1.95116 2.21391 0
M  V30 7720 H 728.254 2.50159 0.534237 0
M  V30 7721 H 727.898 4.9025 1.32729 0
M  V30 7722 H 727.828 4.32109 3.0098 0
M  V30 7723 H 730.319 3.31385 1.81638 0
M  V30 7724 H 730.632 7.0551 3.15398 0
M  V30 7725 H 728.977 6.342 2.84281 0
M  V30 7726 H 732.168 4.14465 2.17569 0
M  V30 7727 H 732.341 5.85059 2.78585 0
M  V30 7728 N 725.747 -0.868086 1.31537 0
M  V30 7729 C 726.975 -1.65402 1.24298 0
M  V30 7730 C 727.39 -1.87827 -0.191389 0
M  V30 7731 O 726.747 -1.43776 -1.12404 0
M  V30 7732 C 726.798 -3.02093 1.9855 0
M  V30 7733 O 726.519 -2.80668 3.36388 0
M  V30 7734 C 728.02 -3.96538 1.98173 0
M  V30 7735 H 725.24 -0.515598 0.429417 0
M  V30 7736 H 727.784 -1.0834 1.73444 0
M  V30 7737 H 725.939 -3.55838 1.53161 0
M  V30 7738 H 726.353 -3.67504 3.74221 0
M  V30 7739 H 727.827 -4.8976 2.54635 0
M  V30 7740 H 728.304 -4.28474 0.964697 0
M  V30 7741 H 728.91 -3.48729 2.4345 0
M  V30 7742 N 727.225 -1.14528 -1.08264 0
M  V30 7743 C 728.473 -0.912599 -1.80322 0
M  V30 7744 C 728.794 0.562256 -1.86718 0
M  V30 7745 O 728.064 1.40869 -1.36135 0
M  V30 7746 H 726.644 -0.334645 -0.667849 0
M  V30 7747 H 729.306 -1.44415 -1.30883 0
M  V30 7748 H 728.402 -1.31384 -2.83098 0
M  V30 7749 N 728.703 1.26451 -0.940633 0
M  V30 7750 C 729.931 1.97868 -0.604642 0
M  V30 7751 C 730.346 1.70051 0.820251 0
M  V30 7752 O 729.703 0.96843 1.54686 0
M  V30 7753 C 729.754 3.51684 -0.836689 0
M  V30 7754 O 729.475 3.78533 -2.20554 0
M  V30 7755 C 730.976 4.40343 -0.511169 0
M  V30 7756 H 728.196 0.631105 -0.227919 0
M  V30 7757 H 730.74 1.60979 -1.26119 0
M  V30 7758 H 728.895 3.86736 -0.226759 0
M  V30 7759 H 729.309 4.73065 -2.26517 0
M  V30 7760 H 730.783 5.47229 -0.724157 0
M  V30 7761 H 731.26 4.35694 0.553815 0
M  V30 7762 H 731.866 4.10834 -1.0998 0
M  V30 7763 N 730.181 0.707592 1.40822 0
M  V30 7764 C 731.427 0.244031 2.01326 0
M  V30 7765 C 731.76 -1.15722 1.55955 0
M  V30 7766 O 731.035 -1.78347 0.776044 0
M  V30 7767 C 731.318 0.315128 3.58718 0
M  V30 7768 C 731.171 1.75419 4.14184 0
M  V30 7769 C 732.49 -0.318251 4.38948 0
M  V30 7770 H 729.609 0.0901471 0.731466 0
M  V30 7771 H 732.251 0.898584 1.67408 0
M  V30 7772 H 730.401 -0.242176 3.87744 0
M  V30 7773 H 732.073 2.36626 3.95987 0
M  V30 7774 H 730.316 2.28449 3.68773 0
M  V30 7775 H 730.987 1.75538 5.23345 0
M  V30 7776 H 733.463 0.156514 4.15806 0
M  V30 7777 H 732.339 -0.238019 5.48384 0
M  V30 7778 H 732.6 -1.40067 4.19325 0
M  V30 7779 N 731.66 -1.50943 0.453197 0
M  V30 7780 C 732.888 -2.06628 -0.106135 0
M  V30 7781 C 733.303 -1.31901 -1.35084 0
M  V30 7782 O 732.66 -0.383074 -1.78434 0
M  V30 7783 C 732.711 -3.5914 -0.412368 0
M  V30 7784 O 732.432 -4.31047 0.782948 0
M  V30 7785 C 733.933 -4.31391 -1.02064 0
M  V30 7786 H 731.153 -0.670999 -0.000885896 0
M  V30 7787 H 733.697 -1.94331 0.63684 0
M  V30 7788 H 731.852 -3.71299 -1.10526 0
M  V30 7789 H 732.266 -5.21948 0.516736 0
M  V30 7790 H 733.74 -5.39135 -1.1848 0
M  V30 7791 H 734.217 -3.90714 -2.00598 0
M  V30 7792 H 734.823 -4.23716 -0.366664 0
M  V30 7793 N 733.138 -0.185124 -1.56509 0
M  V30 7794 C 734.387 0.456421 -1.96468 0
M  V30 7795 C 734.7 1.63448 -1.07444 0
M  V30 7796 O 735.906 2.34316 -1.37143 0
M  V30 7797 C 734.362 0.863404 -3.4939 0
M  V30 7798 C 733.97 -0.289815 -4.47062 0
M  V30 7799 C 735.714 1.47259 -3.98139 0
M  V30 7800 C 733.621 0.137571 -5.9124 0
M  V30 7801 H 732.551 0.17429 -0.733579 0
M  V30 7802 H 735.202 -0.275554 -1.81419 0
M  V30 7803 H 733.584 1.65176 -3.59907 0
M  V30 7804 H 734.758 -1.06728 -4.4827 0
M  V30 7805 H 733.073 -0.809851 -4.08449 0
M  V30 7806 H 735.67 1.80463 -5.03326 0
M  V30 7807 H 736.013 2.3755 -3.41871 0
M  V30 7808 H 736.546 0.748405 -3.90696 0
M  V30 7809 H 733.285 -0.730907 -6.51412 0
M  V30 7810 H 732.805 0.8801 -5.93308 0
M  V30 7811 H 734.484 0.576771 -6.44424 0
M  V30 7812 N 734.616 1.57351 0.0885366 0
M  V30 7813 C 735.564 2.03542 1.12576 0
M  V30 7814 C 736.558 0.937668 1.41082 0
M  V30 7815 O 737.764 1.12283 1.40686 0
M  V30 7816 H 734.139 0.648752 0.380296 0
M  V30 7817 H 736.11 2.89833 0.709906 0
M  V30 7818 C 734.859 2.4811 2.43591 0
M  V30 7819 H 734.182 3.32164 2.22502 0
M  V30 7820 H 735.622 2.842 3.14653 0
M  V30 7821 C 734.081 1.35708 3.08359 0
M  V30 7822 O 734.611 0.689852 3.95732 0
M  V30 7823 N 732.817 1.10641 2.68713 0
M  V30 7824 H 732.364 1.6508 1.97753 0
M  V30 7825 H 732.322 0.356355 3.12374 0
M  V30 7826 N 736.094 -0.359525 1.53444 0
M  V30 7827 C 737.057 -1.42357 1.7963 0
M  V30 7828 C 738.057 -1.46319 0.666884 0
M  V30 7829 O 739.247 -1.46974 0.935113 0
M  V30 7830 C 736.379 -2.81425 1.92387 0
M  V30 7831 H 737.572 -1.20409 2.74666 0
M  V30 7832 H 735.125 -0.593007 1.44614 0
M  V30 7833 H 735.86 -3.08679 0.994384 0
M  V30 7834 H 735.645 -2.79947 2.74539 0
M  V30 7835 H 737.135 -3.5847 2.14218 0
M  V30 7836 N 737.572 -1.44907 -0.619662 0
M  V30 7837 C 738.849 -1.38766 -1.37852 0
M  V30 7838 C 739.229 -0.0521393 -2.11036 0
M  V30 7839 O 738.577 0.965613 -2.07095 0
M  V30 7840 C 738.787 -2.59344 -2.33541 0
M  V30 7841 C 740.135 -3.03909 -2.96521 0
M  V30 7842 O 741.159 -2.59631 -2.43865 0
M  V30 7843 O 740.018 -3.80713 -3.92071 0
M  V30 7844 H 737.112 -0.550083 -0.617525 0
M  V30 7845 H 739.658 -1.57015 -0.643759 0
M  V30 7846 H 738.43 -3.48142 -1.78642 0
M  V30 7847 H 738.053 -2.43367 -3.14417 0
M  V30 7848 N 739.05 0.861098 -1.31996 0
M  V30 7849 C 740.298 1.61162 -1.21947 0
M  V30 7850 C 740.619 1.93751 0.220351 0
M  V30 7851 O 739.889 1.59069 1.14341 0
M  V30 7852 H 738.469 0.597485 -0.448353 0
M  V30 7853 H 741.131 1.03039 -1.65436 0
M  V30 7854 H 740.227 2.55138 -1.79752 0
M  V30 7855 N 740.528 1.15101 1.07655 0
M  V30 7856 C 741.774 0.935313 1.8062 0
M  V30 7857 C 742.129 -0.532052 1.84897 0
M  V30 7858 O 741.422 -1.3893 1.31943 0
M  V30 7859 C 741.616 1.47954 3.25337 0
M  V30 7860 C 741.445 2.99829 3.35161 0
M  V30 7861 C 740.215 3.68348 3.45902 0
M  V30 7862 C 742.413 3.97638 3.26173 0
M  V30 7863 N 740.395 5.08062 3.44596 0
M  V30 7864 C 741.766 5.23651 3.31949 0
M  V30 7865 C 743.821 3.89651 3.09962 0
M  V30 7866 C 742.524 6.42609 3.23182 0
M  V30 7867 C 744.55 5.08164 3.02528 0
M  V30 7868 C 743.912 6.3305 3.08913 0
M  V30 7869 H 740.011 0.395876 0.674393 0
M  V30 7870 H 742.595 1.4625 1.28526 0
M  V30 7871 H 740.766 0.979022 3.75859 0
M  V30 7872 H 742.498 1.20298 3.86407 0
M  V30 7873 H 739.253 3.18928 3.50117 0
M  V30 7874 H 739.677 5.81023 3.47479 0
M  V30 7875 H 744.319 2.93966 3.03881 0
M  V30 7876 H 742.037 7.38531 3.28022 0
M  V30 7877 H 745.623 5.03742 2.91093 0
M  V30 7878 H 744.503 7.23214 3.03201 0
M  V30 7879 N 742.006 -1.2595 0.947325 0
M  V30 7880 C 743.254 -1.93081 0.596996 0
M  V30 7881 C 743.575 -1.74632 -0.867672 0
M  V30 7882 O 742.845 -1.1056 -1.6172 0
M  V30 7883 H 741.425 -0.714542 0.217805 0
M  V30 7884 H 744.087 -1.53265 1.20398 0
M  V30 7885 H 743.183 -3.01134 0.82004 0
M  V30 7886 N 743.484 -0.715051 -1.40445 0
M  V30 7887 C 744.432 -0.0509974 -2.32544 0
M  V30 7888 C 745.426 0.747602 -1.52011 0
M  V30 7889 O 746.632 0.651031 -1.67814 0
M  V30 7890 H 743.007 0.00231113 -0.751996 0
M  V30 7891 H 744.978 -0.84449 -2.86201 0
M  V30 7892 C 743.727 0.857101 -3.3697 0
M  V30 7893 H 743.05 0.252 -3.99005 0
M  V30 7894 H 744.49 1.28971 -4.03909 0
M  V30 7895 C 742.949 1.98231 -2.72408 0
M  V30 7896 O 743.479 3.07309 -2.58697 0
M  V30 7897 N 741.685 1.76577 -2.308 0
M  V30 7898 H 741.232 0.878641 -2.42152 0
M  V30 7899 H 741.19 2.52043 -1.87941 0
M  V30 7900 N 744.962 1.50701 -0.461195 0
M  V30 7901 C 746.209 2.02267 0.0971971 0
M  V30 7902 C 746.537 1.34387 1.40608 0
M  V30 7903 O 745.792 0.455254 1.90331 0
M  V30 7904 C 746.091 3.55788 0.33908 0
M  V30 7905 C 745.757 4.42092 -0.886885 0
M  V30 7906 C 744.419 4.65398 -1.22304 0
M  V30 7907 C 746.771 4.92571 -1.70361 0
M  V30 7908 C 744.099 5.36429 -2.37616 0
M  V30 7909 C 746.451 5.64868 -2.84793 0
M  V30 7910 C 745.115 5.86431 -3.18834 0
M  V30 7911 H 744.385 0.740146 0.0355669 0
M  V30 7912 H 747.032 1.81415 -0.61326 0
M  V30 7913 H 745.337 3.751 1.13168 0
M  V30 7914 H 747.034 3.93243 0.784937 0
M  V30 7915 H 743.624 4.24165 -0.614981 0
M  V30 7916 H 747.808 4.74428 -1.4571 0
M  V30 7917 H 743.064 5.51333 -2.64276 0
M  V30 7918 H 747.238 6.02966 -3.48432 0
M  V30 7919 H 744.865 6.41248 -4.08296 0
M  V30 7920 N 746.441 0.193421 1.56409 0
M  V30 7921 C 747.666 -0.454552 2.02358 0
M  V30 7922 C 748.091 -1.54516 1.07268 0
M  V30 7923 O 747.449 -1.81214 0.0558962 0
M  V30 7924 C 747.497 -0.989469 3.46759 0
M  V30 7925 O 746.601 -2.10244 3.54783 0
M  V30 7926 H 745.942 -0.106417 0.655417 0
M  V30 7927 H 748.472 0.303807 2.02332 0
M  V30 7928 H 748.482 -1.30649 3.86516 0
M  V30 7929 H 747.157 -0.191083 4.15461 0
M  V30 7930 H 745.734 -1.79419 3.26899 0
M  V30 7931 N 747.919 -1.57396 -0.0801906 0
M  V30 7932 C 749.165 -1.87113 -0.782083 0
M  V30 7933 C 749.498 -0.78458 -1.77646 0
M  V30 7934 O 748.773 0.205993 -1.93406 0
M  V30 7935 C 749.056 -3.27483 -1.49756 0
M  V30 7936 C 748.909 -4.46782 -0.520171 0
M  V30 7937 C 750.228 -3.65965 -2.44454 0
M  V30 7938 H 747.347 -0.680559 -0.282858 0
M  V30 7939 H 749.989 -1.89946 -0.0454139 0
M  V30 7940 H 748.139 -3.25199 -2.12551 0
M  V30 7941 H 749.811 -4.61187 0.101919 0
M  V30 7942 H 748.054 -4.33485 0.165219 0
M  V30 7943 H 748.725 -5.41761 -1.05824 0
M  V30 7944 H 751.201 -3.69289 -1.91742 0
M  V30 7945 H 750.077 -4.65086 -2.91524 0
M  V30 7946 H 750.338 -2.95446 -3.28883 0
M  V30 7947 N 749.397 0.351382 -1.53633 0
M  V30 7948 C 750.345 1.45142 -1.8176 0
M  V30 7949 C 751.339 1.54819 -0.687571 0
M  V30 7950 O 752.545 1.57536 -0.870772 0
M  V30 7951 H 748.92 0.483789 -0.575719 0
M  V30 7952 H 750.891 1.1863 -2.73806 0
M  V30 7953 C 749.64 2.81779 -2.03706 0
M  V30 7954 H 748.963 2.75097 -2.90107 0
M  V30 7955 H 750.403 3.5789 -2.27356 0
M  V30 7956 C 748.862 3.26762 -0.820271 0
M  V30 7957 O 749.392 4.01697 -0.0158603 0
M  V30 7958 N 747.598 2.83472 -0.639699 0
M  V30 7959 H 747.145 2.22655 -1.29547 0
M  V30 7960 H 747.103 3.13924 0.172995 0
M  V30 7961 N 750.875 1.45233 0.611969 0
M  V30 7962 C 752.123 1.48727 1.36838 0
M  V30 7963 C 752.444 0.128616 1.94575 0
M  V30 7964 O 751.714 -0.84149 1.76906 0
M  V30 7965 H 750.294 0.547695 0.507976 0
M  V30 7966 H 752.956 1.81156 0.718925 0
M  V30 7967 H 752.052 2.2236 2.19003 0
M  V30 7968 N 752.353 -0.854086 1.3245 0
M  V30 7969 C 753.601 -1.60513 1.228 0
M  V30 7970 C 753.922 -1.93865 -0.210073 0
M  V30 7971 O 753.192 -1.59673 -1.13496 0
M  V30 7972 H 751.772 -0.595099 0.451516 0
M  V30 7973 H 754.434 -1.0216 1.6598 0
M  V30 7974 H 753.53 -2.54182 1.81102 0
M  V30 7975 N 753.831 -1.1567 -1.07043 0
M  V30 7976 C 755.056 -0.957946 -1.83952 0
M  V30 7977 C 755.481 0.488807 -1.81638 0
M  V30 7978 O 754.839 1.34869 -1.21162 0
M  V30 7979 C 754.887 -1.48064 -3.288 0
M  V30 7980 O 753.991 -0.681921 -4.06723 0
M  V30 7981 H 753.332 -0.341453 -0.569479 0
M  V30 7982 H 755.862 -1.53728 -1.35015 0
M  V30 7983 H 755.872 -1.49484 -3.7963 0
M  V30 7984 H 754.547 -2.53388 -3.29799 0
M  V30 7985 H 753.124 -0.737612 -3.65532 0
M  V30 7986 N 755.309 1.25446 -0.953992 0
M  V30 7987 C 756.555 1.9343 -0.60933 0
M  V30 7988 C 756.888 1.74542 0.851388 0
M  V30 7989 O 756.163 1.09014 1.61078 0
M  V30 7990 C 756.446 3.46844 -0.968041 0
M  V30 7991 C 756.299 3.74961 -2.48444 0
M  V30 7992 C 757.618 4.37334 -0.492641 0
M  V30 7993 H 754.737 0.702502 -0.222844 0
M  V30 7994 H 757.379 1.48076 -1.19053 0
M  V30 7995 H 755.529 3.85604 -0.473465 0
M  V30 7996 H 757.201 3.45841 -3.05273 0
M  V30 7997 H 755.444 3.20589 -2.92241 0
M  V30 7998 H 756.115 4.82246 -2.68594 0
M  V30 7999 H 758.591 4.05873 -0.916878 0
M  V30 8000 H 757.467 5.43439 -0.772331 0
M  V30 8001 H 757.728 4.37908 0.607403 0
M  V30 8002 N 756.787 0.722489 1.40064 0
M  V30 8003 C 758.012 0.273446 2.05589 0
M  V30 8004 C 758.437 -1.07875 1.54093 0
M  V30 8005 O 757.795 -1.68095 0.679252 0
M  V30 8006 C 757.843 0.271023 3.5958 0
M  V30 8007 O 756.947 -0.745499 4.05606 0
M  V30 8008 H 756.288 0.126856 0.65177 0
M  V30 8009 H 758.818 0.984906 1.79334 0
M  V30 8010 H 758.828 0.111084 4.07849 0
M  V30 8011 H 757.503 1.25776 3.96425 0
M  V30 8012 H 756.08 -0.552719 3.68781 0
M  V30 8013 N 758.265 -1.50454 0.469181 0
M  V30 8014 C 759.514 -2.01507 -0.0881425 0
M  V30 8015 C 759.827 -1.35613 -1.40956 0
M  V30 8016 O 761.033 -1.77812 -2.05171 0
M  V30 8017 C 759.489 -3.59301 -0.207596 0
M  V30 8018 C 759.097 -4.34152 1.10527 0
M  V30 8019 C 760.841 -4.18401 -0.716981 0
M  V30 8020 C 758.748 -5.83725 0.949717 0
M  V30 8021 H 757.678 -0.753106 -0.0367156 0
M  V30 8022 H 760.329 -1.73282 0.603788 0
M  V30 8023 H 758.711 -3.84106 -0.963265 0
M  V30 8024 H 759.885 -4.21073 1.87175 0
M  V30 8025 H 758.2 -3.86652 1.54562 0
M  V30 8026 H 760.797 -5.27895 -0.850363 0
M  V30 8027 H 761.14 -3.79657 -1.70782 0
M  V30 8028 H 761.673 -3.97796 -0.0187511 0
M  V30 8029 H 758.412 -6.26938 1.91387 0
M  V30 8030 H 757.932 -5.99383 0.223591 0
M  V30 8031 H 759.611 -6.44065 0.61557 0
M  V30 8032 N 759.743 -0.201713 -1.56304 0
M  V30 8033 C 760.989 0.429292 -1.98818 0
M  V30 8034 C 761.344 1.58779 -1.08659 0
M  V30 8035 O 760.637 1.91142 -0.132365 0
M  V30 8036 C 760.831 0.931432 -3.45049 0
M  V30 8037 C 760.66 -0.176878 -4.49352 0
M  V30 8038 C 759.43 -0.636712 -5.01272 0
M  V30 8039 C 761.628 -0.988177 -5.04717 0
M  V30 8040 N 759.61 -1.72215 -5.8925 0
M  V30 8041 C 760.981 -1.92288 -5.89428 0
M  V30 8042 C 763.036 -1.02985 -4.87133 0
M  V30 8043 C 761.739 -2.89582 -6.58434 0
M  V30 8044 C 763.765 -1.99087 -5.56883 0
M  V30 8045 C 763.127 -2.913 -6.41345 0
M  V30 8046 H 759.226 0.124322 -0.772054 0
M  V30 8047 H 761.81 -0.308929 -1.92234 0
M  V30 8048 H 759.981 1.63907 -3.52121 0
M  V30 8049 H 761.713 1.5336 -3.74517 0
M  V30 8050 H 758.468 -0.228861 -4.73047 0
M  V30 8051 H 758.892 -2.26627 -6.37941 0
M  V30 8052 H 763.534 -0.330894 -4.21503 0
M  V30 8053 H 761.252 -3.6045 -7.23258 0
M  V30 8054 H 764.838 -2.0296 -5.45251 0
M  V30 8055 H 763.718 -3.6445 -6.94367 0
M  V30 8056 N 761.222 1.57436 0.0718424 0
M  V30 8057 C 762.468 1.87525 0.772149 0
M  V30 8058 C 762.801 0.79399 1.77227 0
M  V30 8059 O 762.076 -0.195733 1.93513 0
M  V30 8060 C 762.359 3.28272 1.48018 0
M  V30 8061 C 762.212 4.47052 0.49647 0
M  V30 8062 C 763.531 3.67256 2.42509 0
M  V30 8063 H 760.65 0.682049 0.279245 0
M  V30 8064 H 763.292 1.89967 0.03534 0
M  V30 8065 H 761.442 3.26321 2.10824 0
M  V30 8066 H 763.114 4.61127 -0.126375 0
M  V30 8067 H 761.357 4.33392 -0.188205 0
M  V30 8068 H 762.028 5.42315 1.02949 0
M  V30 8069 H 764.504 3.70301 1.89781 0
M  V30 8070 H 763.38 4.66626 2.89053 0
M  V30 8071 H 763.641 2.97186 3.27312 0
M  V30 8072 N 762.7 -0.34323 1.53817 0
M  V30 8073 C 763.648 -1.44176 1.82527 0
M  V30 8074 C 764.642 -1.54452 0.695772 0
M  V30 8075 O 765.848 -1.57072 0.879114 0
M  V30 8076 H 762.223 -0.480729 0.578277 0
M  V30 8077 H 764.194 -1.17176 2.74431 0
M  V30 8078 C 762.943 -2.80695 2.05197 0
M  V30 8079 H 762.266 -2.73554 2.91561 0
M  V30 8080 H 763.706 -3.56679 2.29251 0
M  V30 8081 C 762.165 -3.26322 0.837589 0
M  V30 8082 O 762.695 -4.01683 0.0371631 0
M  V30 8083 N 760.901 -2.83128 0.654724 0
M  V30 8084 H 760.448 -2.21965 1.30725 0
M  V30 8085 H 760.406 -3.14011 -0.156345 0
M  V30 8086 N 764.178 -1.45556 -0.604258 0
M  V30 8087 C 765.125 -1.54482 -1.71476 0
M  V30 8088 C 766.095 -0.390479 -1.61445 0
M  V30 8089 O 767.28 -0.604371 -1.80975 0
M  V30 8090 C 764.42 -1.52064 -3.09791 0
M  V30 8091 C 763.533 -2.78073 -3.30604 0
M  V30 8092 C 762.668 -2.67304 -4.59044 0
M  V30 8093 C 761.707 -3.88352 -4.73127 0
M  V30 8094 N 760.844 -3.76098 -5.9287 0
M  V30 8095 H 765.684 -2.49349 -1.63184 0
M  V30 8096 H 763.221 -1.23725 -0.795641 0
M  V30 8097 H 765.179 -1.48649 -3.89819 0
M  V30 8098 H 763.809 -0.607442 -3.17033 0
M  V30 8099 H 762.861 -2.91561 -2.44329 0
M  V30 8100 H 764.173 -3.67847 -3.36883 0
M  V30 8101 H 763.327 -2.61875 -5.47272 0
M  V30 8102 H 762.066 -1.75135 -4.55169 0
M  V30 8103 H 761.071 -3.94137 -3.83322 0
M  V30 8104 H 762.296 -4.81591 -4.78797 0
M  V30 8105 H 760.242 -2.867 -5.90033 0
M  V30 8106 H 760.159 -4.59509 -6.00323 0
M  V30 8107 H 761.427 -3.74607 -6.83586 0
M  V30 8108 O 765.695 0.748196 -1.43123 0
M  V30 8109 H 766.386 1.39718 -1.34159 0
M  V30 END ATOM
M  V30 BEGIN BOND
M  V30 END BOND
M  V30 END CTAB
M  END
$$$$
