drugbank_target|P16100 Isocitrate dehydrogenase [NADP] (DB01727; DB03461)
 OpenBabel12092119503D

  0  0  0     0  0            999 V3000
M  V30 BEGIN CTAB
M  V30 COUNTS 11367 11473 0 0 0
M  V30 BEGIN ATOM
M  V30 1 H -0.908 1.98254 -0.117106 0
M  V30 2 N 0 1.576 0 0
M  V30 3 C 0.933 2.03868 1.02534 0
M  V30 4 C 1.911 0.928543 1.3348 0
M  V30 5 O 3.095 1.19667 1.45644 0
M  V30 6 C 0.222 2.43627 2.35294 0
M  V30 7 C -0.732 3.65373 2.2001 0
M  V30 8 S 0.101 5.13292 1.52614 0
M  V30 9 C 1.257 5.56322 2.86805 0
M  V30 10 H 1.49 2.90518 0.631377 0
M  V30 11 H -0.977 1.52953 0.210867 0
M  V30 12 H 0.981 2.67203 3.11629 0
M  V30 13 H -0.358 1.57376 2.7183 0
M  V30 14 H -1.165 3.90944 3.18086 0
M  V30 15 H -1.563 3.418 1.51819 0
M  V30 16 H 0.729 5.58782 3.83104 0
M  V30 17 H 1.672 6.56266 2.65933 0
M  V30 18 H 2.08 4.83886 2.90714 0
M  V30 19 N 1.4781 -0.272755 1.55222 0
M  V30 20 C 2.7031 -1.02683 1.80197 0
M  V30 21 C 3.1281 -1.79142 0.573551 0
M  V30 22 O 2.4861 -1.74917 -0.476849 0
M  V30 23 C 2.5341 -1.9609 3.02624 0
M  V30 24 O 1.6381 -3.04863 2.77727 0
M  V30 25 H 0.9791 -0.293557 0.595584 0
M  V30 26 H 3.5091 -0.30159 2.02365 0
M  V30 27 H 3.5191 -2.38039 3.31363 0
M  V30 28 H 2.1941 -1.39851 3.91682 0
M  V30 29 H 0.7711 -2.67228 2.60084 0
M  V30 30 N 2.9562 -1.48159 -0.537278 0
M  V30 31 C 4.1842 -1.59454 -1.31841 0
M  V30 32 C 4.5992 -0.252065 -1.8711 0
M  V30 33 O 3.9562 0.757621 -1.66031 0
M  V30 34 C 4.0072 -2.63546 -2.47439 0
M  V30 35 O 3.7282 -3.92583 -1.94449 0
M  V30 36 C 5.2292 -2.85212 -3.39366 0
M  V30 37 H 2.4492 -0.53785 -0.401196 0
M  V30 38 H 4.9932 -1.93932 -0.648891 0
M  V30 39 H 3.1482 -2.31946 -3.1029 0
M  V30 40 H 3.5622 -4.49629 -2.70063 0
M  V30 41 H 5.0362 -3.61863 -4.16844 0
M  V30 42 H 5.5132 -1.93765 -3.94147 0
M  V30 43 H 6.1192 -3.18086 -2.82314 0
M  V30 44 N 4.4343 0.785586 -1.36625 0
M  V30 45 C 5.8453 1.36101 -1.27803 0
M  V30 46 C 6.1963 1.96035 0.0804875 0
M  V30 47 O 5.3213 1.92834 0.982042 0
M  V30 48 C 5.9163 2.47442 -2.31426 0
M  V30 49 C 4.4753 3.00789 -2.26281 0
M  V30 50 C 3.6223 1.73896 -2.15999 0
M  V30 51 H 6.5733 0.586928 -1.47448 0
M  V30 52 H 6.5943 3.2656 -1.95291 0
M  V30 53 H 6.1063 2.03791 -3.30289 0
M  V30 54 H 4.2073 3.48851 -1.30896 0
M  V30 55 H 4.3203 3.57343 -3.19128 0
M  V30 56 H 2.6843 1.9628 -1.62316 0
M  V30 57 H 3.4673 1.32368 -3.16755 0
M  V30 58 N 5.9124 1.20967 1.01018 0
M  V30 59 C 6.8594 0.964281 2.09691 0
M  V30 60 C 7.8294 -0.107853 1.65749 0
M  V30 61 O 9.0144 0.0381987 1.90762 0
M  V30 62 C 6.1544 0.52943 3.41015 0
M  V30 63 C 5.2674 1.67043 3.98398 0
M  V30 64 C 4.4024 1.18525 5.17808 0
M  V30 65 C 3.4414 2.29892 5.67288 0
M  V30 66 N 2.5784 1.82546 6.77954 0
M  V30 67 H 7.4184 1.89463 2.30017 0
M  V30 68 H 4.9554 0.944289 1.1279 0
M  V30 69 H 6.9134 0.258588 4.16398 0
M  V30 70 H 5.5434 -0.363919 3.20742 0
M  V30 71 H 4.5954 2.05603 3.20049 0
M  V30 72 H 5.9074 2.50877 4.31117 0
M  V30 73 H 5.0614 0.870762 6.00419 0
M  V30 74 H 3.8004 0.316887 4.86669 0
M  V30 75 H 2.8054 2.6215 4.83278 0
M  V30 76 H 4.0304 3.17216 6.00459 0
M  V30 77 H 1.9764 0.980454 6.48632 0
M  V30 78 H 1.8934 2.59956 7.09901 0
M  V30 79 H 3.1614 1.54115 7.64113 0
M  V30 80 N 7.3905 -1.2043 1.01659 0
M  V30 81 C 8.6395 -1.89118 0.701237 0
M  V30 82 C 8.9525 -1.79705 -0.772358 0
M  V30 83 O 10.1585 -2.43528 -1.20026 0
M  V30 84 C 8.6145 -3.39168 1.20388 0
M  V30 85 C 8.2225 -3.57166 2.70438 0
M  V30 86 C 9.9665 -4.1341 0.963953 0
M  V30 87 C 7.8735 -5.01042 3.14183 0
M  V30 88 H 6.8035 -0.708267 0.2586 0
M  V30 89 H 9.4545 -1.36239 1.22927 0
M  V30 90 H 7.8365 -3.91369 0.603824 0
M  V30 91 H 9.0105 -3.15351 3.35992 0
M  V30 92 H 7.3255 -2.96294 2.92572 0
M  V30 93 H 9.9225 -5.19491 1.26621 0
M  V30 94 H 10.2655 -4.16181 -0.099578 0
M  V30 95 H 10.7985 -3.67309 1.52738 0
M  V30 96 H 7.5375 -5.03426 4.19812 0
M  V30 97 H 7.0575 -5.43668 2.53348 0
M  V30 98 H 8.7365 -5.69623 3.0682 0
M  V30 99 N 8.8686 -0.792821 -1.36206 0
M  V30 100 C 10.1176 -0.363353 -1.984 0
M  V30 101 C 10.4306 1.07172 -1.63626 0
M  V30 102 O 11.6366 1.60362 -2.19081 0
M  V30 103 C 10.0926 -0.59872 -3.54885 0
M  V30 104 C 9.7006 -2.04543 -3.9858 0
M  V30 105 C 11.4446 -0.233926 -4.23855 0
M  V30 106 C 9.3516 -2.22727 -5.47856 0
M  V30 107 H 8.2816 -0.13212 -0.742334 0
M  V30 108 H 10.9326 -0.974935 -1.55458 0
M  V30 109 H 9.3146 0.0826222 -3.95914 0
M  V30 110 H 10.4886 -2.76345 -3.68741 0
M  V30 111 H 8.8036 -2.36879 -3.42458 0
M  V30 112 H 11.4006 -0.348027 -5.33566 0
M  V30 113 H 11.7436 0.818351 -4.08177 0
M  V30 114 H 12.2766 -0.868639 -3.882 0
M  V30 115 H 9.0156 -3.2635 -5.68486 0
M  V30 116 H 8.5356 -1.55434 -5.7931 0
M  V30 117 H 10.2146 -2.03607 -6.14128 0
M  V30 118 N 10.3467 1.47872 -0.545128 0
M  V30 119 C 11.5767 2.06589 -0.0210534 0
M  V30 120 C 11.9847 1.39997 1.27269 0
M  V30 121 O 11.3277 0.486421 1.77143 0
M  V30 122 C 11.3897 3.58574 0.257933 0
M  V30 123 C 11.0537 4.47132 -0.944573 0
M  V30 124 C 12.0507 4.85986 -1.84699 0
M  V30 125 C 9.7357 4.88821 -1.15584 0
M  V30 126 C 11.7297 5.65314 -2.94446 0
M  V30 127 C 9.4167 5.67916 -2.25642 0
M  V30 128 C 10.4147 6.06073 -3.14905 0
M  V30 129 O 10.1027 6.83578 -4.23057 0
M  V30 130 H 9.8347 0.674971 -0.0372899 0
M  V30 131 H 12.3887 1.91037 -0.754599 0
M  V30 132 H 10.6187 3.72295 1.04564 0
M  V30 133 H 12.3077 3.99356 0.72592 0
M  V30 134 H 13.0737 4.54388 -1.69577 0
M  V30 135 H 8.9527 4.58595 -0.470279 0
M  V30 136 H 12.4967 5.95016 -3.64145 0
M  V30 137 H 8.3937 5.98927 -2.40742 0
M  V30 138 H 9.1617 7.01954 -4.20954 0
M  V30 139 N 11.8248 0.280983 1.55075 0
M  V30 140 C 13.0528 -0.337293 2.04132 0
M  V30 141 C 13.4678 -1.4903 1.15912 0
M  V30 142 O 12.8248 -1.81606 0.180459 0
M  V30 143 C 12.8758 -0.812706 3.52246 0
M  V30 144 O 12.5968 0.294387 4.3711 0
M  V30 145 C 14.0978 -1.4982 4.17216 0
M  V30 146 H 11.3178 -0.0761638 0.666663 0
M  V30 147 H 13.8618 0.414787 2.00249 0
M  V30 148 H 12.0168 -1.51486 3.56554 0
M  V30 149 H 12.4308 -0.0721325 5.2445 0
M  V30 150 H 13.9048 -1.7822 5.22438 0
M  V30 151 H 14.3818 -2.43168 3.65741 0
M  V30 152 H 14.9878 -0.839742 4.16927 0
M  V30 153 N 13.3029 -1.57598 0.00835791 0
M  V30 154 C 14.2329 -2.1198 -0.979113 0
M  V30 155 C 15.2139 -1.03091 -1.35301 0
M  V30 156 O 16.3989 -1.30818 -1.43528 0
M  V30 157 C 13.5289 -2.62995 -2.26828 0
M  V30 158 C 12.4829 -3.76485 -2.03576 0
M  V30 159 C 11.8089 -4.13846 -3.38579 0
M  V30 160 C 13.1089 -5.0342 -1.39161 0
M  V30 161 H 14.8029 -2.94738 -0.526281 0
M  V30 162 H 12.3489 -1.41783 -0.251704 0
M  V30 163 H 14.3019 -2.99669 -2.96271 0
M  V30 164 H 13.0259 -1.7737 -2.7424 0
M  V30 165 H 11.6849 -3.40217 -1.36557 0
M  V30 166 H 11.3329 -3.25232 -3.83709 0
M  V30 167 H 11.0329 -4.90312 -3.23834 0
M  V30 168 H 12.5569 -4.53086 -4.09323 0
M  V30 169 H 13.9709 -5.37812 -1.98573 0
M  V30 170 H 12.3679 -5.84746 -1.34878 0
M  V30 171 H 13.4379 -4.83548 -0.361868 0
M  V30 172 N 14.781 0.264519 -1.55364 0
M  V30 173 C 16.009 1.013 -1.80405 0
M  V30 174 C 16.424 1.79618 -0.581622 0
M  V30 175 O 15.781 1.76879 0.449468 0
M  V30 176 C 15.832 1.96487 -3.03439 0
M  V30 177 O 15.553 1.21341 -4.20961 0
M  V30 178 C 17.054 2.83079 -3.41147 0
M  V30 179 H 14.274 0.298875 -0.600762 0
M  V30 180 H 16.818 0.292736 -2.02394 0
M  V30 181 H 14.973 2.63965 -2.83551 0
M  V30 182 H 15.387 1.85573 -4.90574 0
M  V30 183 H 16.861 3.4565 -4.30384 0
M  V30 184 H 17.338 3.53286 -2.60932 0
M  V30 185 H 17.944 2.2108 -3.63323 0
M  V30 186 N 16.2591 1.48442 0.529413 0
M  V30 187 C 17.5361 1.46978 1.29062 0
M  V30 188 C 17.9161 0.181769 2.10316 0
M  V30 189 O 17.2641 -0.836481 2.12639 0
M  V30 190 C 17.4741 2.7321 2.17157 0
M  V30 191 C 18.8221 3.21562 2.77278 0
M  V30 192 O 19.8461 2.74131 2.27444 0
M  V30 193 O 18.7051 4.04094 3.67927 0
M  V30 194 H 15.7991 0.587003 0.582543 0
M  V30 195 H 18.3451 1.60676 0.546021 0
M  V30 196 H 17.1171 3.58465 1.56903 0
M  V30 197 H 16.7401 2.62235 2.98862 0
M  V30 198 N 17.7372 -0.778329 1.37039 0
M  V30 199 C 18.6472 -1.92253 1.34446 0
M  V30 200 C 19.6632 -1.72267 0.244991 0
M  V30 201 O 20.8392 -1.95615 0.479258 0
M  V30 202 C 17.9042 -3.27282 1.144 0
M  V30 203 C 16.9652 -3.59969 2.33925 0
M  V30 204 C 16.1982 -4.88555 2.14825 0
M  V30 205 O 16.4212 -5.59113 1.12912 0
M  V30 206 O 15.3552 -5.20153 3.02861 0
M  V30 207 H 19.1812 -1.97392 2.30803 0
M  V30 208 H 16.7662 -0.920154 1.17701 0
M  V30 209 H 18.6482 -4.08062 1.05182 0
M  V30 210 H 17.3232 -3.23011 0.211124 0
M  V30 211 H 16.2302 -2.7945 2.48714 0
M  V30 212 H 17.5632 -3.68976 3.25757 0
M  V30 213 N 19.2153 -1.21501 -1.00376 0
M  V30 214 C 20.1783 -0.976927 -2.07337 0
M  V30 215 C 21.1783 0.0525322 -1.60714 0
M  V30 216 O 22.3683 -0.184869 -1.73216 0
M  V30 217 C 19.5003 -0.473423 -3.37597 0
M  V30 218 H 20.6933 -1.92587 -2.29892 0
M  V30 219 H 18.2463 -1.03217 -1.17371 0
M  V30 220 H 18.9813 0.480379 -3.20722 0
M  V30 221 H 18.7663 -1.216 -3.72768 0
M  V30 222 H 20.2563 -0.32675 -4.1632 0
M  V30 223 N 20.6934 1.19889 -1.02296 0
M  V30 224 C 22.1044 1.71124 -0.746568 0
M  V30 225 C 22.4554 1.81939 0.734335 0
M  V30 226 O 21.5804 1.48639 1.57275 0
M  V30 227 C 22.1754 3.10804 -1.34857 0
M  V30 228 C 20.7344 3.59323 -1.1209 0
M  V30 229 C 19.8814 2.3635 -1.45031 0
M  V30 230 H 22.8324 1.04813 -1.19163 0
M  V30 231 H 22.8534 3.73186 -0.742437 0
M  V30 232 H 22.3654 3.029 -2.42638 0
M  V30 233 H 20.4664 3.7255 -0.0610337 0
M  V30 234 H 20.5794 4.4378 -1.80544 0
M  V30 235 H 18.9434 2.39399 -0.869487 0
M  V30 236 H 19.7264 2.31081 -2.53883 0
M  V30 237 N 22.1715 0.800033 1.35784 0
M  V30 238 C 23.1345 0.211565 2.28221 0
M  V30 239 C 24.1345 -0.59728 1.49296 0
M  V30 240 O 25.3245 -0.416721 1.69142 0
M  V30 241 C 22.4565 -0.705846 3.33513 0
M  V30 242 H 23.6495 1.02677 2.81776 0
M  V30 243 H 21.2025 0.570211 1.45528 0
M  V30 244 H 21.9375 -1.54498 2.85133 0
M  V30 245 H 21.7225 -0.127655 3.91892 0
M  V30 246 H 23.2125 -1.11211 4.02519 0
M  V30 247 N 23.6496 -1.47581 0.552962 0
M  V30 248 C 24.5796 -2.32762 -0.185451 0
M  V30 249 C 25.5606 -1.43527 -0.912905 0
M  V30 250 O 26.7456 -1.72388 -0.894201 0
M  V30 251 C 23.8756 -3.25219 -1.21859 0
M  V30 252 C 22.8296 -4.23661 -0.607864 0
M  V30 253 C 22.1556 -5.05413 -1.74533 0
M  V30 254 C 23.4556 -5.20481 0.435582 0
M  V30 255 H 25.1496 -2.94749 0.525684 0
M  V30 256 H 22.6956 -1.41738 0.254251 0
M  V30 257 H 24.6486 -3.8365 -1.7433 0
M  V30 258 H 23.3726 -2.61279 -1.95961 0
M  V30 259 H 22.0316 -3.66451 -0.104489 0
M  V30 260 H 21.6796 -4.3788 -2.47529 0
M  V30 261 H 21.3796 -5.72059 -1.34249 0
M  V30 262 H 22.9036 -5.66701 -2.27338 0
M  V30 263 H 24.3176 -5.733 -0.00290157 0
M  V30 264 H 22.7146 -5.95305 0.757067 0
M  V30 265 H 23.7846 -4.66217 1.33303 0
M  V30 266 N 25.1277 -0.289203 -1.54924 0
M  V30 267 C 26.0907 0.579144 -2.21762 0
M  V30 268 C 27.0907 1.07047 -1.1999 0
M  V30 269 O 28.2807 0.968384 -1.44803 0
M  V30 270 C 25.4127 1.80055 -2.8947 0
M  V30 271 H 26.6057 -0.00464908 -2.999 0
M  V30 272 H 24.1587 -0.0399306 -1.56249 0
M  V30 273 H 24.8937 2.42449 -2.15381 0
M  V30 274 H 24.6787 1.45602 -3.64064 0
M  V30 275 H 26.1687 2.41773 -3.40493 0
M  V30 276 N 26.6058 1.57591 -0.0167156 0
M  V30 277 C 27.8338 1.95575 0.675128 0
M  V30 278 C 28.2488 0.892542 1.6637 0
M  V30 279 O 27.6058 -0.126912 1.82058 0
M  V30 280 C 27.6568 3.33608 1.39239 0
M  V30 281 O 27.3778 4.3585 0.443444 0
M  V30 282 C 28.8788 3.86151 2.17721 0
M  V30 283 H 26.0988 0.644423 0.186978 0
M  V30 284 H 28.6428 2.0437 -0.0728 0
M  V30 285 H 26.7978 3.2607 2.09182 0
M  V30 286 H 27.2118 5.158 0.951358 0
M  V30 287 H 28.6858 4.85114 2.63379 0
M  V30 288 H 29.1628 3.19738 3.01105 0
M  V30 289 H 29.7688 3.96918 1.52761 0
M  V30 290 N 28.0839 -0.256276 1.55502 0
M  V30 291 C 29.3139 -1.00196 1.80677 0
M  V30 292 C 29.7219 -1.79805 0.588797 0
M  V30 293 O 29.0649 -1.78055 -0.451883 0
M  V30 294 C 29.1269 -1.99515 2.99055 0
M  V30 295 C 28.7909 -1.38688 4.35448 0
M  V30 296 C 29.7879 -0.794079 5.138 0
M  V30 297 C 27.4729 -1.40906 4.82132 0
M  V30 298 C 29.4669 -0.231562 6.36979 0
M  V30 299 C 27.1539 -0.842684 6.05262 0
M  V30 300 C 28.1519 -0.254953 6.82524 0
M  V30 301 O 27.8399 0.3027 8.0333 0
M  V30 302 H 27.5719 -0.300919 0.60533 0
M  V30 303 H 30.1259 -0.287307 2.03381 0
M  V30 304 H 28.3559 -2.74785 2.72084 0
M  V30 305 H 30.0449 -2.60349 3.11405 0
M  V30 306 H 30.8109 -0.769519 4.78856 0
M  V30 307 H 26.6899 -1.85591 4.21992 0
M  V30 308 H 30.2339 0.227816 6.97228 0
M  V30 309 H 26.1309 -0.86454 6.39684 0
M  V30 310 H 26.8989 0.193662 8.18271 0
M  V30 311 N 29.562 -1.4872 -0.521534 0
M  V30 312 C 30.787 -1.61101 -1.30618 0
M  V30 313 C 31.212 -0.274611 -1.86085 0
M  V30 314 O 30.57 0.754937 -1.64834 0
M  V30 315 C 30.618 -2.66709 -2.4269 0
M  V30 316 O 29.722 -2.24456 -3.45967 0
M  V30 317 H 29.063 -0.539921 -0.386499 0
M  V30 318 H 31.593 -1.94767 -0.626645 0
M  V30 319 H 31.603 -2.88245 -2.88754 0
M  V30 320 H 30.278 -3.63727 -2.01682 0
M  V30 321 H 28.855 -2.13168 -3.05964 0
M  V30 322 N 31.0401 0.771051 -1.3745 0
M  V30 323 C 31.9701 1.89827 -1.3597 0
M  V30 324 C 32.9511 1.68562 -0.228216 0
M  V30 325 O 34.1361 1.8941 -0.428675 0
M  V30 326 C 31.2661 3.2712 -1.16662 0
M  V30 327 C 30.2201 3.6295 -2.2683 0
M  V30 328 C 29.5461 4.98791 -1.92644 0
M  V30 329 C 30.8461 3.69627 -3.69017 0
M  V30 330 H 32.5401 1.91323 -2.30295 0
M  V30 331 H 30.0861 0.919082 -1.10855 0
M  V30 332 H 32.0391 4.05615 -1.14256 0
M  V30 333 H 30.7631 3.26059 -0.187926 0
M  V30 334 H 29.4221 2.86763 -2.28392 0
M  V30 335 H 29.0701 4.94271 -0.933021 0
M  V30 336 H 28.7701 5.23733 -2.66416 0
M  V30 337 H 30.2941 5.79685 -1.91826 0
M  V30 338 H 31.7081 4.38273 -3.69581 0
M  V30 339 H 30.1051 4.06067 -4.41848 0
M  V30 340 H 31.1751 2.70273 -4.02592 0
M  V30 341 N 32.5182 1.22032 0.997298 0
M  V30 342 C 33.4482 1.01065 2.10495 0
M  V30 343 C 34.4292 -0.0669542 1.69968 0
M  V30 344 O 35.6142 0.0943987 1.9397 0
M  V30 345 C 32.7442 0.582874 3.42374 0
M  V30 346 C 31.6982 1.60592 3.96729 0
M  V30 347 C 31.0242 1.03412 5.24605 0
M  V30 348 C 32.3242 2.99478 4.27914 0
M  V30 349 H 34.0182 1.93708 2.28292 0
M  V30 350 H 31.5642 0.932761 1.09707 0
M  V30 351 H 33.5172 0.423332 4.19268 0
M  V30 352 H 32.2412 -0.379213 3.24391 0
M  V30 353 H 30.9002 1.75316 3.21963 0
M  V30 354 H 30.5482 0.063518 5.0296 0
M  V30 355 H 30.2482 1.71754 5.61938 0
M  V30 356 H 31.7722 0.886066 6.04137 0
M  V30 357 H 33.1862 2.88153 4.95622 0
M  V30 358 H 31.5832 3.64903 4.76409 0
M  V30 359 H 32.6532 3.49742 3.3587 0
M  V30 360 N 33.9963 -1.19345 1.0293 0
M  V30 361 C 35.4073 -1.70725 0.755633 0
M  V30 362 C 35.7583 -1.82326 -0.724676 0
M  V30 363 O 34.8833 -1.49471 -1.56484 0
M  V30 364 C 35.4783 -3.10084 1.36503 0
M  V30 365 C 34.0373 -3.58723 1.13994 0
M  V30 366 C 33.1843 -2.35577 1.46283 0
M  V30 367 H 36.1353 -1.0418 1.19718 0
M  V30 368 H 36.1563 -3.72787 0.762217 0
M  V30 369 H 35.6683 -3.01609 2.44241 0
M  V30 370 H 33.7693 -3.72512 0.0807901 0
M  V30 371 H 33.8823 -4.42816 1.82894 0
M  V30 372 H 32.2463 -2.38935 0.88217 0
M  V30 373 H 33.0293 -2.29731 2.55105 0
M  V30 374 N 35.4744 -0.807222 -1.35358 0
M  V30 375 C 36.7234 -0.384376 -1.98004 0
M  V30 376 C 37.0364 1.0543 -1.64754 0
M  V30 377 O 38.2424 1.58029 -2.20769 0
M  V30 378 C 36.6984 -0.636326 -3.5423 0
M  V30 379 C 36.3064 -2.08759 -3.96388 0
M  V30 380 C 38.0504 -0.278869 -4.23583 0
M  V30 381 C 35.9574 -2.28525 -5.45463 0
M  V30 382 H 34.8874 -0.139986 -0.740891 0
M  V30 383 H 37.5384 -0.991369 -1.54415 0
M  V30 384 H 35.9204 0.0406256 -3.95979 0
M  V30 385 H 37.0944 -2.8024 -3.6579 0
M  V30 386 H 35.4094 -2.40497 -3.39926 0
M  V30 387 H 38.0064 -0.404599 -5.33167 0
M  V30 388 H 38.3494 0.775012 -4.09022 0
M  V30 389 H 38.8824 -0.909764 -3.87257 0
M  V30 390 H 35.6214 -3.32361 -5.64992 0
M  V30 391 H 35.1414 -1.61569 -5.77629 0
M  V30 392 H 36.8204 -2.10109 -6.11934 0
M  V30 393 N 36.9525 1.47285 -0.560781 0
M  V30 394 C 38.2015 2.01668 -0.035895 0
M  V30 395 C 38.5145 1.44021 1.32353 0
M  V30 396 O 39.7205 1.90088 1.93853 0
M  V30 397 C 38.1765 3.59897 -0.0136659 0
M  V30 398 C 37.7845 4.26536 -1.37006 0
M  V30 399 C 39.5285 4.22017 0.458425 0
M  V30 400 C 37.4355 5.76782 -1.30675 0
M  V30 401 H 36.3655 0.753938 -0.00964879 0
M  V30 402 H 39.0165 1.69243 -0.709166 0
M  V30 403 H 37.3985 3.89301 0.725325 0
M  V30 404 H 38.5725 4.0877 -2.12705 0
M  V30 405 H 36.8875 3.76419 -1.78038 0
M  V30 406 H 39.4845 5.32124 0.524247 0
M  V30 407 H 39.8275 3.89437 1.4712 0
M  V30 408 H 40.3605 3.97159 -0.225818 0
M  V30 409 H 37.0995 6.13988 -2.29564 0
M  V30 410 H 36.6195 5.96875 -0.591622 0
M  V30 411 H 38.2985 6.39063 -1.01033 0
M  V30 412 N 38.4306 0.297415 1.54768 0
M  V30 413 C 39.3776 -0.580276 2.23386 0
M  V30 414 C 40.3476 -1.13238 1.21517 0
M  V30 415 O 41.5326 -1.17757 1.50126 0
M  V30 416 C 38.6726 -1.74801 2.97555 0
M  V30 417 C 37.7856 -1.22764 4.1419 0
M  V30 418 C 36.9206 -2.35895 4.75949 0
M  V30 419 C 35.9596 -1.80974 5.84735 0
M  V30 420 N 35.0966 -2.87664 6.40464 0
M  V30 421 H 39.9366 0.0114833 2.97998 0
M  V30 422 H 37.4736 0.0174361 1.4709 0
M  V30 423 H 39.4316 -2.43475 3.38786 0
M  V30 424 H 38.0616 -2.31145 2.25326 0
M  V30 425 H 37.1136 -0.433271 3.77924 0
M  V30 426 H 38.4256 -0.785551 4.92575 0
M  V30 427 H 37.5796 -3.12523 5.20014 0
M  V30 428 H 36.3186 -2.83429 3.96887 0
M  V30 429 H 35.3236 -1.02834 5.40097 0
M  V30 430 H 36.5486 -1.34348 6.65678 0
M  V30 431 H 34.4946 -3.34538 5.64287 0
M  V30 432 H 34.4116 -2.4794 7.14186 0
M  V30 433 H 35.6796 -3.642 6.89187 0
M  V30 434 N 39.9087 -1.5758 0.0250728 0
M  V30 435 C 40.8717 -2.08896 -0.943139 0
M  V30 436 C 41.8717 -1.00321 -1.25668 0
M  V30 437 O 43.0617 -1.26495 -1.19769 0
M  V30 438 C 40.1937 -2.55143 -2.26086 0
M  V30 439 H 41.3867 -2.95723 -0.498775 0
M  V30 440 H 38.9397 -1.54703 -0.222888 0
M  V30 441 H 39.6747 -1.71633 -2.75159 0
M  V30 442 H 39.4597 -3.34461 -2.04641 0
M  V30 443 H 40.9497 -2.95083 -2.95492 0
M  V30 444 N 41.3868 0.248026 -1.55636 0
M  V30 445 C 42.6338 0.976224 -1.77415 0
M  V30 446 C 42.9618 1.85361 -0.589193 0
M  V30 447 O 42.2168 1.90973 0.427529 0
M  V30 448 C 42.5158 1.86819 -3.04686 0
M  V30 449 C 42.1818 1.14625 -4.36087 0
M  V30 450 C 40.8438 0.946723 -4.71795 0
M  V30 451 C 43.1958 0.634463 -5.17324 0
M  V30 452 C 40.5238 0.223091 -5.86276 0
M  V30 453 C 42.8758 -0.0756959 -6.32555 0
M  V30 454 C 41.5398 -0.286711 -6.66884 0
M  V30 455 H 40.8098 0.357226 -0.649208 0
M  V30 456 H 43.4568 0.246415 -1.89908 0
M  V30 457 H 41.7618 2.66502 -2.872 0
M  V30 458 H 43.4588 2.43329 -3.18735 0
M  V30 459 H 40.0488 1.3117 -4.08035 0
M  V30 460 H 44.2328 0.77616 -4.90193 0
M  V30 461 H 39.4888 0.0491185 -6.1138 0
M  V30 462 H 43.6628 -0.479899 -6.94745 0
M  V30 463 H 41.2898 -0.849389 -7.5544 0
M  V30 464 N 42.8649 1.48995 0.513639 0
M  V30 465 C 44.0929 1.61531 1.29288 0
M  V30 466 C 44.5079 0.281801 1.86685 0
M  V30 467 O 43.8649 -0.731111 1.67215 0
M  V30 468 C 43.9159 2.67449 2.43215 0
M  V30 469 O 43.6369 3.95626 1.88179 0
M  V30 470 C 45.1379 2.90575 3.34785 0
M  V30 471 H 42.3579 0.544165 0.392588 0
M  V30 472 H 44.9019 1.9494 0.617956 0
M  V30 473 H 43.0569 2.36853 3.0656 0
M  V30 474 H 43.4709 4.53868 2.62876 0
M  V30 475 H 44.9449 3.68449 4.11035 0
M  V30 476 H 45.4219 2.00011 3.91015 0
M  V30 477 H 46.0279 3.22538 2.77218 0
M  V30 478 N 44.343 -0.763751 1.37857 0
M  V30 479 C 45.591 -1.51957 1.33243 0
M  V30 480 C 45.912 -1.94835 -0.0801709 0
M  V30 481 O 45.182 -1.66894 -1.02582 0
M  V30 482 H 43.762 -0.563626 0.49024 0
M  V30 483 H 46.424 -0.908504 1.7243 0
M  V30 484 H 45.52 -2.41523 1.97669 0
M  V30 485 N 45.8211 -1.22559 -0.990812 0
M  V30 486 C 47.0461 -1.07862 -1.77145 0
M  V30 487 C 47.4711 0.366447 -1.84496 0
M  V30 488 O 46.8291 1.26478 -1.29896 0
M  V30 489 C 46.8771 -1.69686 -3.18181 0
M  V30 490 O 45.9811 -0.951946 -4.01263 0
M  V30 491 H 45.3221 -0.378712 -0.545411 0
M  V30 492 H 47.8521 -1.62399 -1.2445 0
M  V30 493 H 47.8621 -1.74496 -3.68802 0
M  V30 494 H 46.5371 -2.74841 -3.12146 0
M  V30 495 H 45.1141 -0.980011 -3.59792 0
M  V30 496 N 47.2992 1.18797 -1.03562 0
M  V30 497 C 48.5242 1.9314 -0.755764 0
M  V30 498 C 48.9492 1.7537 0.68022 0
M  V30 499 O 48.3072 1.06046 1.47051 0
M  V30 500 C 48.3552 3.42747 -1.12058 0
M  V30 501 O 47.4592 4.11683 -0.243124 0
M  V30 502 H 46.8002 0.602724 -0.278604 0
M  V30 503 H 49.3302 1.50678 -1.3841 0
M  V30 504 H 49.3402 3.93437 -1.08035 0
M  V30 505 H 48.0152 3.55002 -2.16672 0
M  V30 506 H 46.5922 3.71323 -0.342539 0
M  V30 507 N 48.7773 0.814389 1.34928 0
M  V30 508 C 50.0253 0.397636 1.9815 0
M  V30 509 C 50.3463 -1.04069 1.64908 0
M  V30 510 O 49.6163 -1.72121 0.93548 0
M  V30 511 H 48.1963 0.144043 0.732981 0
M  V30 512 H 50.8583 1.04195 1.6471 0
M  V30 513 H 49.9543 0.509688 3.0791 0
M  V30 514 N 50.2554 -1.46986 0.568584 0
M  V30 515 C 51.5044 -2.01646 0.0465894 0
M  V30 516 C 51.8174 -1.44721 -1.31587 0
M  V30 517 O 53.0234 -1.91113 -1.92842 0
M  V30 518 C 51.4794 -3.59885 0.032752 0
M  V30 519 C 51.0874 -4.25804 1.39266 0
M  V30 520 C 52.8314 -4.22255 -0.436038 0
M  V30 521 C 50.7384 -5.76081 1.33732 0
M  V30 522 H 49.6684 -0.753876 0.013647 0
M  V30 523 H 52.3194 -1.68864 0.718131 0
M  V30 524 H 50.7014 -3.8968 -0.704669 0
M  V30 525 H 51.8754 -4.07637 2.1487 0
M  V30 526 H 50.1904 -3.7547 1.80032 0
M  V30 527 H 52.7874 -5.32394 -0.49602 0
M  V30 528 H 53.1304 -3.90212 -1.45053 0
M  V30 529 H 53.6634 -3.97033 0.246877 0
M  V30 530 H 50.4024 -6.12761 2.32817 0
M  V30 531 H 49.9224 -5.96553 0.623267 0
M  V30 532 H 51.6014 -6.38518 1.0442 0
M  V30 533 N 51.7335 -0.305618 -1.54608 0
M  V30 534 C 52.6965 0.555591 -2.22364 0
M  V30 535 C 53.6965 1.05768 -1.21119 0
M  V30 536 O 54.8865 0.952972 -1.45822 0
M  V30 537 C 52.0185 1.76974 -2.91364 0
M  V30 538 H 53.2115 -0.0364572 -2.99878 0
M  V30 539 H 50.7645 -0.0565007 -1.56198 0
M  V30 540 H 51.4995 2.40151 -2.17941 0
M  V30 541 H 51.2845 1.41732 -3.65588 0
M  V30 542 H 52.7745 2.38148 -3.43038 0
M  V30 543 N 53.2116 1.57565 -0.0334293 0
M  V30 544 C 54.4576 1.92262 0.645226 0
M  V30 545 C 54.7906 0.910543 1.71531 0
M  V30 546 O 54.0656 -0.066099 1.94388 0
M  V30 547 C 54.3486 3.37422 1.2577 0
M  V30 548 C 54.2016 4.49369 0.196891 0
M  V30 549 C 55.5206 3.82628 2.17449 0
M  V30 550 H 52.6396 0.699171 0.233085 0
M  V30 551 H 55.2816 1.89779 -0.0915694 0
M  V30 552 H 53.4316 3.39669 1.88566 0
M  V30 553 H 55.1036 4.59254 -0.433962 0
M  V30 554 H 53.3466 4.31168 -0.477137 0
M  V30 555 H 54.0176 5.47978 0.665124 0
M  V30 556 H 56.4936 3.82145 1.64634 0
M  V30 557 H 55.3696 4.84883 2.57254 0
M  V30 558 H 55.6306 3.18376 3.0674 0
M  V30 559 N 54.6897 -0.239769 1.55765 0
M  V30 560 C 55.5997 -1.31831 1.94056 0
M  V30 561 C 56.6157 -1.52275 0.841925 0
M  V30 562 O 57.7917 -1.65759 1.14394 0
M  V30 563 C 54.8567 -2.65156 2.23368 0
M  V30 564 C 53.9177 -2.53173 3.46701 0
M  V30 565 C 53.1507 -3.8014 3.74606 0
M  V30 566 O 53.3737 -4.82343 3.04469 0
M  V30 567 O 52.3077 -3.78344 4.68123 0
M  V30 568 H 56.1337 -1.02347 2.85935 0
M  V30 569 H 53.7187 -0.441123 1.42739 0
M  V30 570 H 55.6007 -3.43929 2.43497 0
M  V30 571 H 54.2757 -2.94358 1.34666 0
M  V30 572 H 53.1827 -1.72662 3.31871 0
M  V30 573 H 54.5157 -2.28915 4.35728 0
M  V30 574 N 56.1678 -1.49265 -0.50573 0
M  V30 575 C 57.3958 -1.62215 -1.28429 0
M  V30 576 C 57.8108 -0.291697 -1.86533 0
M  V30 577 O 57.1678 0.722233 -1.67601 0
M  V30 578 C 57.2188 -2.68735 -2.41793 0
M  V30 579 O 56.9398 -3.96619 -1.86078 0
M  V30 580 C 58.4408 -2.92346 -3.3324 0
M  V30 581 H 55.6608 -0.546239 -0.389697 0
M  V30 582 H 58.2048 -1.95265 -0.607609 0
M  V30 583 H 56.3598 -2.38476 -3.053 0
M  V30 584 H 56.7738 -4.55256 -2.60465 0
M  V30 585 H 58.2478 -3.70623 -4.09075 0
M  V30 586 H 58.7248 -2.02081 -3.89948 0
M  V30 587 H 59.3308 -3.24003 -2.75503 0
M  V30 588 N 57.6459 0.756429 -1.3826 0
M  V30 589 C 59.0619 1.0591 -1.19395 0
M  V30 590 C 59.2619 2.01459 -0.0406567 0
M  V30 591 O 58.3179 2.44909 0.614467 0
M  V30 592 C 59.6309 1.64191 -2.51916 0
M  V30 593 C 61.1789 1.76376 -2.58574 0
M  V30 594 C 61.6539 2.38069 -3.91264 0
M  V30 595 N 63.1449 2.45503 -3.92788 0
M  V30 596 C 63.8799 2.94126 -4.92217 0
M  V30 597 N 63.3759 3.42805 -6.02043 0
M  V30 598 N 65.1689 2.9314 -4.7961 0
M  V30 599 H 57.3199 0.122313 -2.12048 0
M  V30 600 H 59.5829 0.116892 -0.940766 0
M  V30 601 H 59.2889 1.01451 -3.3675 0
M  V30 602 H 59.1629 2.6329 -2.70108 0
M  V30 603 H 61.5499 2.38244 -1.74137 0
M  V30 604 H 61.6309 0.759894 -2.44252 0
M  V30 605 H 61.2749 1.76835 -4.76121 0
M  V30 606 H 61.2049 3.39091 -4.02895 0
M  V30 607 H 63.6959 2.1107 -3.13461 0
M  V30 608 H 64.0089 3.78354 -6.73846 0
M  V30 609 H 62.3539 3.4087 -6.05667 0
M  V30 610 H 65.5449 2.54419 -3.92923 0
M  V30 611 H 65.7179 3.30721 -5.5725 0
M  V30 612 N 59.124 1.23083 0.984299 0
M  V30 613 C 60.401 0.9689 1.69917 0
M  V30 614 C 60.781 -0.513604 2.04757 0
M  V30 615 O 60.129 -1.48383 1.73767 0
M  V30 616 C 60.339 1.87518 2.94343 0
M  V30 617 C 61.687 2.13636 3.6694 0
M  V30 618 O 62.711 1.85036 3.04368 0
M  V30 619 O 61.57 2.62119 4.79537 0
M  V30 620 H 58.664 0.365095 0.742048 0
M  V30 621 H 61.21 1.34107 1.03987 0
M  V30 622 H 59.982 2.87756 2.65164 0
M  V30 623 H 59.605 1.50514 3.6801 0
M  V30 624 N 60.6021 -1.18246 1.0419 0
M  V30 625 C 61.8511 -1.87588 0.741194 0
M  V30 626 C 62.1641 -1.81303 -0.734066 0
M  V30 627 O 63.3701 -2.46019 -1.14834 0
M  V30 628 C 61.8261 -3.36538 1.27555 0
M  V30 629 C 61.4341 -3.51349 2.77953 0
M  V30 630 C 63.1781 -4.11273 1.05143 0
M  V30 631 C 61.0851 -4.94265 3.2474 0
M  V30 632 H 60.0151 -0.702622 0.273565 0
M  V30 633 H 62.6661 -1.33601 1.25789 0
M  V30 634 H 61.0481 -3.9 0.686703 0
M  V30 635 H 62.2221 -3.08153 3.42605 0
M  V30 636 H 60.5371 -2.90022 2.98791 0
M  V30 637 H 63.1341 -5.16689 1.37611 0
M  V30 638 H 63.4771 -4.16298 -0.0112774 0
M  V30 639 H 64.0101 -3.63987 1.60495 0
M  V30 640 H 60.7491 -4.94408 4.30396 0
M  V30 641 H 60.2691 -5.38172 2.64823 0
M  V30 642 H 61.9481 -5.62987 3.18834 0
M  V30 643 N 62.0802 -0.821533 -1.34494 0
M  V30 644 C 63.3052 -0.420873 -2.03085 0
M  V30 645 C 63.7302 0.964915 -1.61465 0
M  V30 646 O 63.0882 1.62763 -0.798607 0
M  V30 647 C 63.1362 -0.529414 -3.56693 0
M  V30 648 O 62.2402 0.451302 -4.09923 0
M  V30 649 H 61.5812 -0.173489 -0.640935 0
M  V30 650 H 64.1112 -1.11157 -1.71771 0
M  V30 651 H 64.1212 -0.404671 -4.05988 0
M  V30 652 H 62.7962 -1.54014 -3.86332 0
M  V30 653 H 61.3732 0.285558 -3.71805 0
M  V30 654 N 63.5583 1.46682 -0.576371 0
M  V30 655 C 64.4883 2.33028 0.148397 0
M  V30 656 C 65.4693 1.44961 0.889956 0
M  V30 657 O 66.6543 1.73789 0.866662 0
M  V30 658 C 63.7843 3.27117 1.1667 0
M  V30 659 C 62.7383 4.24575 0.540386 0
M  V30 660 C 62.0643 5.08126 1.6647 0
M  V30 661 C 63.3643 5.19722 -0.518331 0
M  V30 662 H 65.0583 2.93875 -0.572509 0
M  V30 663 H 62.6043 1.41315 -0.276768 0
M  V30 664 H 64.5573 3.86374 1.68204 0
M  V30 665 H 63.2813 2.64364 1.9178 0
M  V30 666 H 61.9403 3.66571 0.0461769 0
M  V30 667 H 61.5883 4.41762 2.40531 0
M  V30 668 H 61.2883 5.74122 1.25131 0
M  V30 669 H 62.8123 5.70246 2.18293 0
M  V30 670 H 64.2263 5.73232 -0.0883058 0
M  V30 671 H 62.6233 5.94026 -0.851679 0
M  V30 672 H 63.6933 4.64037 -1.40703 0
M  V30 673 N 65.0364 0.313813 1.54444 0
M  V30 674 C 65.9994 -0.54379 2.22656 0
M  V30 675 C 66.9994 -1.05124 1.21678 0
M  V30 676 O 68.1894 -0.945225 1.46325 0
M  V30 677 C 65.3214 -1.75427 2.92298 0
M  V30 678 H 66.5144 0.0523599 2.99854 0
M  V30 679 H 64.0674 0.0647834 1.56166 0
M  V30 680 H 64.8024 -2.38991 2.19211 0
M  V30 681 H 64.5874 -1.39791 3.66334 0
M  V30 682 H 66.0774 -2.36325 3.44297 0
M  V30 683 N 66.5145 -1.57545 0.0417849 0
M  V30 684 C 67.7625 -1.91937 -0.632829 0
M  V30 685 C 68.0835 -0.919978 -1.71934 0
M  V30 686 O 67.3535 0.0366064 -1.95866 0
M  V30 687 H 65.9335 -0.708493 -0.236742 0
M  V30 688 H 68.5955 -1.9468 0.0925745 0
M  V30 689 H 67.6915 -2.92912 -1.07746 0
M  V30 690 N 67.9926 0.231505 -1.5589 0
M  V30 691 C 69.4086 0.580748 -1.48659 0
M  V30 692 C 69.6086 1.87617 -0.73498 0
M  V30 693 O 68.6646 2.51046 -0.270586 0
M  V30 694 C 69.9776 0.669202 -2.93159 0
M  V30 695 C 71.5256 0.760499 -3.03621 0
M  V30 696 C 72.0006 0.880383 -4.49459 0
M  V30 697 N 73.4916 0.944861 -4.53461 0
M  V30 698 C 74.2266 1.05716 -5.63571 0
M  V30 699 N 73.7226 1.13403 -6.83456 0
M  V30 700 N 75.5156 1.09152 -5.514 0
M  V30 701 H 67.6666 -0.618695 -2.03189 0
M  V30 702 H 69.9296 -0.215728 -0.923128 0
M  V30 703 H 69.6356 -0.212904 -3.51055 0
M  V30 704 H 69.5096 1.5361 -3.44505 0
M  V30 705 H 71.8966 1.63305 -2.45796 0
M  V30 706 H 71.9776 -0.131864 -2.5546 0
M  V30 707 H 71.6216 0.0123284 -5.07899 0
M  V30 708 H 71.5516 1.78802 -4.95316 0
M  V30 709 H 74.0426 0.896176 -3.6712 0
M  V30 710 H 74.3556 1.21921 -7.63122 0
M  V30 711 H 72.7006 1.10333 -6.86186 0
M  V30 712 H 75.8916 1.02805 -4.56671 0
M  V30 713 H 76.0646 1.17558 -6.37247 0
M  V30 714 N 69.4707 1.49531 0.497807 0
M  V30 715 C 70.4007 1.6935 1.60757 0
M  V30 716 C 71.3817 0.542218 1.61227 0
M  V30 717 O 72.5667 0.778417 1.77917 0
M  V30 718 C 69.6967 1.76298 2.99226 0
M  V30 719 C 68.6507 2.91248 3.13622 0
M  V30 720 C 67.9767 2.83312 4.53474 0
M  V30 721 C 69.2767 4.3214 2.93346 0
M  V30 722 H 70.9707 2.62263 1.44425 0
M  V30 723 H 68.5167 1.26208 0.693367 0
M  V30 724 H 70.4697 1.88749 3.76765 0
M  V30 725 H 69.1937 0.799871 3.16654 0
M  V30 726 H 67.8527 2.78404 2.38509 0
M  V30 727 H 67.5007 1.84902 4.67782 0
M  V30 728 H 67.2007 3.60465 4.64046 0
M  V30 729 H 68.7247 2.97775 5.33069 0
M  V30 730 H 70.1387 4.45649 3.60652 0
M  V30 731 H 68.5357 5.1054 3.15387 0
M  V30 732 H 69.6057 4.46363 1.89441 0
M  V30 733 N 70.9488 -0.749086 1.3866 0
M  V30 734 C 72.1978 -1.50371 1.3443 0
M  V30 735 C 72.5108 -1.95503 -0.0616397 0
M  V30 736 O 73.7168 -2.70554 -0.226489 0
M  V30 737 C 72.1728 -2.71644 2.36088 0
M  V30 738 C 71.7808 -2.3352 3.82325 0
M  V30 739 C 73.5248 -3.49518 2.40909 0
M  V30 740 C 71.4318 -3.51431 4.75658 0
M  V30 741 H 70.3618 -0.564628 0.499712 0
M  V30 742 H 73.0128 -0.818449 1.64237 0
M  V30 743 H 71.3948 -3.42175 1.9933 0
M  V30 744 H 72.5688 -1.70627 4.28046 0
M  V30 745 H 70.8838 -1.6877 3.80665 0
M  V30 746 H 73.4808 -4.37197 3.07836 0
M  V30 747 H 73.8238 -3.90992 1.42937 0
M  V30 748 H 74.3568 -2.86005 2.76489 0
M  V30 749 H 71.0958 -3.15019 5.74842 0
M  V30 750 H 70.6158 -4.13352 4.34627 0
M  V30 751 H 72.2948 -4.17953 4.93887 0
M  V30 752 N 72.4269 -1.23603 -0.977757 0
M  V30 753 C 73.3899 -1.02069 -2.05218 0
M  V30 754 C 74.3899 0.0184305 -1.60789 0
M  V30 755 O 75.5799 -0.221569 -1.72785 0
M  V30 756 C 72.7119 -0.544926 -3.36517 0
M  V30 757 H 73.9049 -1.9742 -2.25755 0
M  V30 758 H 71.4579 -1.05684 -1.15155 0
M  V30 759 H 72.1929 0.412241 -3.21669 0
M  V30 760 H 71.9779 -1.2948 -3.70105 0
M  V30 761 H 73.4679 -0.414985 -4.15533 0
M  V30 762 N 73.905 1.17692 -1.04816 0
M  V30 763 C 75.133 1.91786 -0.776254 0
M  V30 764 C 75.548 1.76604 0.667577 0
M  V30 765 O 74.905 1.10067 1.45573 0
M  V30 766 C 74.956 3.42967 -1.14263 0
M  V30 767 O 74.677 3.57678 -2.52978 0
M  V30 768 C 76.178 4.34144 -0.896311 0
M  V30 769 H 73.398 0.608624 -0.282519 0
M  V30 770 H 75.942 1.49268 -1.39783 0
M  V30 771 H 74.097 3.83245 -0.565874 0
M  V30 772 H 74.511 4.51319 -2.67229 0
M  V30 773 H 75.985 5.38744 -1.20244 0
M  V30 774 H 76.462 4.38876 0.168636 0
M  V30 775 H 77.068 3.99574 -1.45672 0
M  V30 776 N 75.3831 0.828654 1.34056 0
M  V30 777 C 76.6301 0.419458 1.98108 0
M  V30 778 C 76.9581 -1.01886 1.65679 0
M  V30 779 O 76.2131 -1.72539 0.923512 0
M  V30 780 C 76.5121 0.575226 3.52741 0
M  V30 781 C 76.1781 1.98012 4.05095 0
M  V30 782 C 74.8401 2.36442 4.19104 0
M  V30 783 C 77.1921 2.89824 4.33188 0
M  V30 784 C 74.5201 3.66009 4.58535 0
M  V30 785 C 76.8721 4.1886 4.74066 0
M  V30 786 C 75.5361 4.5726 4.86281 0
M  V30 787 H 74.8061 0.153491 0.724929 0
M  V30 788 H 77.4531 1.05371 1.59904 0
M  V30 789 H 75.7581 -0.142385 3.91541 0
M  V30 790 H 77.4551 0.239057 4.00287 0
M  V30 791 H 74.0451 1.67162 3.94658 0
M  V30 792 H 78.2291 2.61375 4.21897 0
M  V30 793 H 73.4851 3.95579 4.66184 0
M  V30 794 H 77.6591 4.90086 4.94761 0
M  V30 795 H 75.2861 5.57707 5.16592 0
M  V30 796 N 76.8612 -1.46375 0.584142 0
M  V30 797 C 78.2722 -1.86031 0.157959 0
M  V30 798 C 78.6232 -1.48753 -1.27933 0
M  V30 799 O 77.7482 -0.903098 -1.96655 0
M  V30 800 C 78.3432 -3.37642 0.279892 0
M  V30 801 C 76.9022 -3.76289 -0.09143 0
M  V30 802 C 76.0492 -2.7039 0.615178 0
M  V30 803 H 79.0002 -1.37509 0.792274 0
M  V30 804 H 79.0212 -3.77275 -0.494364 0
M  V30 805 H 78.5332 -3.64742 1.32607 0
M  V30 806 H 76.6342 -3.54806 -1.13769 0
M  V30 807 H 76.7472 -4.78246 0.285886 0
M  V30 808 H 75.1112 -2.5464 0.0552833 0
M  V30 809 H 75.8942 -3.0033 1.66303 0
M  V30 810 N 78.3393 -0.321999 -1.54275 0
M  V30 811 C 79.2493 0.553631 -2.27974 0
M  V30 812 C 80.2653 1.13054 -1.32268 0
M  V30 813 O 81.4413 1.15084 -1.6528 0
M  V30 814 C 78.5063 1.69927 -3.02201 0
M  V30 815 C 77.5673 1.15433 -4.1349 0
M  V30 816 C 76.8003 2.24537 -4.84168 0
M  V30 817 O 77.0233 3.44852 -4.5435 0
M  V30 818 O 75.9573 1.90044 -5.7111 0
M  V30 819 H 79.7833 -0.0448345 -3.03667 0
M  V30 820 H 77.3683 -0.0877418 -1.49142 0
M  V30 821 H 79.2503 2.3663 -3.48689 0
M  V30 822 H 77.9253 2.28395 -2.29385 0
M  V30 823 H 76.8323 0.452436 -3.71354 0
M  V30 824 H 78.1653 0.614805 -4.88345 0
M  V30 825 N 79.8174 1.5752 -0.0501392 0
M  V30 826 C 81.0474 1.96678 0.632573 0
M  V30 827 C 81.4554 0.926298 1.64974 0
M  V30 828 O 80.7984 -0.09802 1.83438 0
M  V30 829 C 80.8604 3.32068 1.37735 0
M  V30 830 C 80.5244 4.54076 0.516131 0
M  V30 831 C 81.5214 5.19445 -0.217357 0
M  V30 832 C 79.2064 5.00304 0.44736 0
M  V30 833 C 81.2004 6.29378 -1.00807 0
M  V30 834 C 78.8874 6.10114 -0.347038 0
M  V30 835 C 79.8854 6.74512 -1.07344 0
M  V30 836 O 79.5734 7.82211 -1.85477 0
M  V30 837 H 79.3054 0.652193 0.177821 0
M  V30 838 H 81.8594 2.05091 -0.112543 0
M  V30 839 H 80.0894 3.20206 2.16807 0
M  V30 840 H 81.7784 3.55981 1.95019 0
M  V30 841 H 82.5444 4.84689 -0.173688 0
M  V30 842 H 78.4234 4.49971 1.00235 0
M  V30 843 H 81.9674 6.79575 -1.57556 0
M  V30 844 H 77.8644 6.44307 -0.392349 0
M  V30 845 H 78.6324 7.98982 -1.77678 0
M  V30 846 N 81.2955 -0.223234 1.56011 0
M  V30 847 C 82.2255 -1.27988 1.95298 0
M  V30 848 C 83.2065 -1.48976 0.820979 0
M  V30 849 O 84.3915 -1.61188 1.08315 0
M  V30 850 C 81.5215 -2.63 2.26822 0
M  V30 851 C 80.4755 -2.56671 3.42497 0
M  V30 852 C 79.8015 -3.95697 3.59622 0
M  V30 853 C 81.1015 -2.11601 4.77517 0
M  V30 854 H 82.7955 -0.953525 2.8381 0
M  V30 855 H 80.3415 -0.457244 1.36548 0
M  V30 856 H 82.2945 -3.37077 2.52898 0
M  V30 857 H 81.0185 -2.9732 1.35161 0
M  V30 858 H 79.6775 -1.85051 3.16467 0
M  V30 859 H 79.3255 -4.27322 2.6534 0
M  V30 860 H 79.0255 -3.92345 4.37424 0
M  V30 861 H 80.5495 -4.71438 3.88044 0
M  V30 862 H 81.9635 -2.7542 5.02809 0
M  V30 863 H 80.3605 -2.19311 5.5859 0
M  V30 864 H 81.4305 -1.06824 4.72987 0
M  V30 865 N 82.7736 -1.49793 -0.48987 0
M  V30 866 C 84.0016 -1.63568 -1.26701 0
M  V30 867 C 84.4166 -0.311465 -1.86213 0
M  V30 868 O 83.7736 0.704416 -1.68357 0
M  V30 869 C 83.8246 -2.71284 -2.38929 0
M  V30 870 O 83.5456 -3.9857 -1.81861 0
M  V30 871 C 85.0466 -2.95864 -3.3012 0
M  V30 872 H 82.2666 -0.550342 -0.383881 0
M  V30 873 H 84.8106 -1.95898 -0.586864 0
M  V30 874 H 82.9656 -2.417 -3.02753 0
M  V30 875 H 83.3796 -4.57993 -2.55622 0
M  V30 876 H 84.8536 -3.74941 -4.05121 0
M  V30 877 H 85.3306 -2.06206 -3.87783 0
M  V30 878 H 85.9366 -3.26907 -2.72051 0
M  V30 879 N 84.2517 0.741722 -1.39055 0
M  V30 880 C 85.5287 1.49252 -1.26425 0
M  V30 881 C 85.9087 2.10705 0.129144 0
M  V30 882 O 85.2567 1.98045 1.13976 0
M  V30 883 C 85.4667 2.54934 -2.38347 0
M  V30 884 C 86.8147 3.21506 -2.77343 0
M  V30 885 O 87.8387 2.65245 -2.37747 0
M  V30 886 O 86.6977 4.23294 -3.45665 0
M  V30 887 H 83.7917 0.662451 -0.495064 0
M  V30 888 H 86.3377 0.776121 -1.50912 0
M  V30 889 H 85.1097 2.07857 -3.31529 0
M  V30 890 H 84.7327 3.34141 -2.15489 0
M  V30 891 N 85.7298 1.2412 0.971189 0
M  V30 892 C 86.9578 1.10575 1.74874 0
M  V30 893 C 87.3728 -0.342017 1.85676 0
M  V30 894 O 86.7298 -1.23617 1.34258 0
M  V30 895 C 86.7808 1.73579 3.171 0
M  V30 896 O 86.5018 3.12695 3.06844 0
M  V30 897 C 88.0028 1.65598 4.11208 0
M  V30 898 H 85.2228 0.386504 0.548503 0
M  V30 899 H 87.7668 1.64156 1.21955 0
M  V30 900 H 85.9218 1.24009 3.67016 0
M  V30 901 H 86.3358 3.43412 3.96445 0
M  V30 902 H 87.8098 2.1437 5.08674 0
M  V30 903 H 88.2868 0.616532 4.34851 0
M  V30 904 H 88.8928 2.14578 3.67201 0
M  V30 905 N 87.2079 -1.17134 1.05439 0
M  V30 906 C 88.1399 -2.2078 0.615539 0
M  V30 907 C 89.1529 -1.59584 -0.322001 0
M  V30 908 O 90.3419 -1.78133 -0.114344 0
M  V30 909 C 87.4419 -3.38691 -0.118938 0
M  V30 910 C 86.6149 -4.29454 0.829924 0
M  V30 911 C 85.6739 -5.26024 0.136258 0
M  V30 912 O 84.6999 -5.63952 0.77115 0
M  V30 913 N 85.9019 -5.69487 -1.1254 0
M  V30 914 H 88.6669 -2.59052 1.50705 0
M  V30 915 H 86.2279 -1.32058 0.936603 0
M  V30 916 H 88.2199 -4.00329 -0.593179 0
M  V30 917 H 86.7899 -2.98996 -0.91215 0
M  V30 918 H 86.0099 -3.65211 1.48373 0
M  V30 919 H 87.2979 -4.86984 1.47392 0
M  V30 920 H 86.6959 -5.4075 -1.6615 0
M  V30 921 H 85.2529 -6.33257 -1.54366 0
M  V30 922 N 88.686 -0.835752 -1.33615 0
M  V30 923 C 89.633 -0.26473 -2.29277 0
M  V30 924 C 90.603 0.617712 -1.54187 0
M  V30 925 O 91.788 0.556641 -1.825 0
M  V30 926 C 88.928 0.556777 -3.40579 0
M  V30 927 C 88.041 -0.349339 -4.30585 0
M  V30 928 C 87.176 0.482969 -5.29 0
M  V30 929 C 86.215 -0.421732 -6.10645 0
M  V30 930 N 85.352 0.372262 -7.01112 0
M  V30 931 H 90.192 -1.08582 -2.77514 0
M  V30 932 H 87.729 -0.546927 -1.36554 0
M  V30 933 H 89.687 1.04852 -4.03809 0
M  V30 934 H 88.317 1.34286 -2.93542 0
M  V30 935 H 87.369 -0.959372 -3.68104 0
M  V30 936 H 88.681 -1.04445 -4.87742 0
M  V30 937 H 87.835 1.03866 -5.97743 0
M  V30 938 H 86.574 1.21153 -4.72412 0
M  V30 939 H 85.579 -0.989464 -5.40823 0
M  V30 940 H 86.804 -1.14861 -6.69316 0
M  V30 941 H 84.75 1.08426 -6.46977 0
M  V30 942 H 84.667 -0.264198 -7.55538 0
M  V30 943 H 85.935 0.910293 -7.74167 0
M  V30 944 N 90.1641 1.46063 -0.591896 0
M  V30 945 C 91.4131 2.01547 -0.0786637 0
M  V30 946 C 91.7261 1.46796 1.29268 0
M  V30 947 O 92.9321 1.94157 1.89777 0
M  V30 948 C 91.3881 3.59787 -0.0900024 0
M  V30 949 C 90.9961 4.23534 -1.46023 0
M  V30 950 C 92.7401 4.22895 0.368806 0
M  V30 951 C 90.6471 5.73881 -1.4288 0
M  V30 952 H 89.5771 0.753564 -0.0256388 0
M  V30 953 H 92.2281 1.677 -0.744905 0
M  V30 954 H 90.6101 3.90752 0.642586 0
M  V30 955 H 91.7841 4.04167 -2.21328 0
M  V30 956 H 90.0991 3.72558 -1.85982 0
M  V30 957 H 92.6961 5.33116 0.411258 0
M  V30 958 H 93.0391 3.9247 1.38827 0
M  V30 959 H 93.5721 3.9659 -0.31001 0
M  V30 960 H 90.3111 6.0898 -2.42536 0
M  V30 961 H 89.8311 5.95486 -0.718095 0
M  V30 962 H 91.5101 6.36776 -1.14565 0
M  V30 963 N 91.6422 0.330177 1.54103 0
M  V30 964 C 92.8672 -0.274893 2.0557 0
M  V30 965 C 93.2922 -1.44487 1.20437 0
M  V30 966 O 92.6502 -1.80021 0.214991 0
M  V30 967 C 92.6982 -0.68079 3.54115 0
M  V30 968 O 91.8022 -1.7824 3.71893 0
M  V30 969 H 91.1432 -0.0483849 0.662235 0
M  V30 970 H 93.6732 0.480508 1.98878 0
M  V30 971 H 93.6832 -0.961635 3.96505 0
M  V30 972 H 92.3582 0.174903 4.15532 0
M  V30 973 H 90.9352 -1.49985 3.41407 0
M  V30 974 N 93.1203 -1.57491 0.0584922 0
M  V30 975 C 94.3973 -1.84346 -0.653918 0
M  V30 976 C 94.7773 -0.948355 -1.88599 0
M  V30 977 O 94.1253 -0.0112403 -2.28497 0
M  V30 978 C 94.3353 -3.34239 -1.00425 0
M  V30 979 C 95.6833 -4.01431 -1.38342 0
M  V30 980 O 96.7073 -3.38907 -1.09637 0
M  V30 981 O 95.5663 -5.11683 -1.91943 0
M  V30 982 H 92.6603 -0.761112 -0.323478 0
M  V30 983 H 95.2063 -1.6947 0.0884125 0
M  V30 984 H 93.9783 -3.91089 -0.128625 0
M  V30 985 H 93.6013 -3.54329 -1.80378 0
M  V30 986 N 94.5984 0.214957 -1.56127 0
M  V30 987 C 95.8754 0.963093 -1.70247 0
M  V30 988 C 96.2554 2.02166 -0.60764 0
M  V30 989 O 95.6034 2.25244 0.384385 0
M  V30 990 C 95.8134 1.56756 -3.11815 0
M  V30 991 C 97.1614 2.0573 -3.7143 0
M  V30 992 O 98.1854 1.66637 -3.14818 0
M  V30 993 O 97.0444 2.77603 -4.70743 0
M  V30 994 H 94.1384 0.450321 -0.693643 0
M  V30 995 H 96.6844 0.206219 -1.68442 0
M  V30 996 H 95.4564 0.803533 -3.82961 0
M  V30 997 H 95.0794 2.3898 -3.17765 0
M  V30 998 N 96.0765 1.50051 0.48192 0
M  V30 999 C 97.0065 1.71046 1.58951 0
M  V30 1000 C 97.9875 0.559288 1.60642 0
M  V30 1001 O 99.1725 0.797243 1.77081 0
M  V30 1002 C 96.3025 1.79462 2.97339 0
M  V30 1003 C 95.2565 2.94558 3.10515 0
M  V30 1004 C 94.5825 2.88105 4.50444 0
M  V30 1005 C 95.8825 4.35227 2.88747 0
M  V30 1006 H 97.5765 2.6378 1.41635 0
M  V30 1007 H 95.1225 1.26936 0.679942 0
M  V30 1008 H 97.0755 1.92734 3.74742 0
M  V30 1009 H 95.7995 0.833412 3.15788 0
M  V30 1010 H 94.4585 2.80918 2.35543 0
M  V30 1011 H 94.1065 1.89853 4.65795 0
M  V30 1012 H 93.8065 3.65366 4.60197 0
M  V30 1013 H 95.3305 3.03412 5.29881 0
M  V30 1014 H 96.7445 4.49449 3.55905 0
M  V30 1015 H 95.1415 5.13856 3.09955 0
M  V30 1016 H 96.2115 4.48347 1.84696 0
M  V30 1017 N 97.5546 -0.734337 1.39446 0
M  V30 1018 C 98.5176 -1.83004 1.37994 0
M  V30 1019 C 99.5176 -1.58397 0.276938 0
M  V30 1020 O 100.708 -1.65785 0.534875 0
M  V30 1021 C 97.8396 -3.20802 1.1532 0
M  V30 1022 H 99.0326 -1.85694 2.35494 0
M  V30 1023 H 96.5856 -0.938059 1.25021 0
M  V30 1024 H 97.3206 -3.23772 0.185036 0
M  V30 1025 H 97.1056 -3.4006 1.95197 0
M  V30 1026 H 98.5956 -4.00862 1.17046 0
M  V30 1027 N 99.0327 -1.24633 -0.964593 0
M  V30 1028 C 99.9427 -1.05859 -2.09359 0
M  V30 1029 C 100.959 0.00148855 -1.74 0
M  V30 1030 O 102.135 -0.197346 -2.00431 0
M  V30 1031 C 99.1997 -0.668879 -3.40187 0
M  V30 1032 C 98.2607 -1.80578 -3.89474 0
M  V30 1033 C 97.4937 -1.43457 -5.14058 0
M  V30 1034 O 97.7167 -0.325775 -5.69469 0
M  V30 1035 O 96.6507 -2.2613 -5.57807 0
M  V30 1036 H 100.477 -2.00516 -2.28094 0
M  V30 1037 H 98.0617 -1.03481 -1.0776 0
M  V30 1038 H 99.9437 -0.463211 -4.18846 0
M  V30 1039 H 98.6187 0.248536 -3.22744 0
M  V30 1040 H 97.5257 -2.06623 -3.11862 0
M  V30 1041 H 98.8587 -2.70208 -4.11398 0
M  V30 1042 N 100.511 1.16574 -1.06058 0
M  V30 1043 C 101.441 2.23057 -0.690488 0
M  V30 1044 C 102.422 1.67141 0.315901 0
M  V30 1045 O 103.607 1.93253 0.191556 0
M  V30 1046 C 100.737 3.47222 -0.073625 0
M  V30 1047 C 99.6908 4.16016 -1.00573 0
M  V30 1048 C 99.0168 5.34104 -0.252289 0
M  V30 1049 C 100.317 4.67264 -2.33371 0
M  V30 1050 H 102.011 2.54271 -1.58072 0
M  V30 1051 H 99.5568 1.22218 -0.76149 0
M  V30 1052 H 101.51 4.20939 0.19714 0
M  V30 1053 H 100.234 3.15302 0.85161 0
M  V30 1054 H 98.8928 3.44223 -1.2612 0
M  V30 1055 H 98.5408 4.98437 0.675988 0
M  V30 1056 H 98.2408 5.81072 -0.873455 0
M  V30 1057 H 99.7648 6.10599 0.0109857 0
M  V30 1058 H 101.179 5.32573 -2.12223 0
M  V30 1059 H 99.5758 5.24843 -2.90963 0
M  V30 1060 H 100.646 3.83602 -2.96611 0
M  V30 1061 N 101.989 0.842826 1.3317 0
M  V30 1062 C 103.237 0.439577 1.97262 0
M  V30 1063 C 103.558 -1.00548 1.67078 0
M  V30 1064 O 102.828 -1.70098 0.971779 0
M  V30 1065 H 101.408 0.159558 0.72976 0
M  V30 1066 H 104.07 1.07665 1.62463 0
M  V30 1067 H 103.166 0.574886 3.0676 0
M  V30 1068 N 103.467 -1.45747 0.599634 0
M  V30 1069 C 104.414 -2.30467 -0.123849 0
M  V30 1070 C 105.384 -1.41632 -0.86774 0
M  V30 1071 O 106.569 -1.70568 -0.855056 0
M  V30 1072 C 103.709 -3.26402 -1.12051 0
M  V30 1073 C 102.822 -4.3034 -0.37832 0
M  V30 1074 C 101.957 -5.13389 -1.364 0
M  V30 1075 C 100.996 -6.09061 -0.609171 0
M  V30 1076 N 100.133 -6.84918 -1.54374 0
M  V30 1077 H 104.973 -2.91802 0.604627 0
M  V30 1078 H 102.51 -1.43797 0.309972 0
M  V30 1079 H 104.468 -3.80482 -1.7114 0
M  V30 1080 H 103.098 -2.66839 -1.8165 0
M  V30 1081 H 102.15 -3.78984 0.327929 0
M  V30 1082 H 103.462 -4.98354 0.210997 0
M  V30 1083 H 102.616 -5.7183 -2.02719 0
M  V30 1084 H 101.355 -4.45376 -1.98725 0
M  V30 1085 H 100.36 -5.49758 0.0676979 0
M  V30 1086 H 101.585 -6.79099 0.00891991 0
M  V30 1087 H 99.531 -6.19601 -2.15478 0
M  V30 1088 H 99.448 -7.49254 -1.00766 0
M  V30 1089 H 100.716 -7.47906 -2.19676 0
M  V30 1090 N 104.945 -0.338344 -1.53925 0
M  V30 1091 C 105.875 0.51328 -2.27789 0
M  V30 1092 C 106.856 1.107 -1.29149 0
M  V30 1093 O 108.041 1.12937 -1.57984 0
M  V30 1094 C 105.171 1.66697 -3.04679 0
M  V30 1095 C 104.125 1.20183 -4.1078 0
M  V30 1096 C 103.451 2.44363 -4.75595 0
M  V30 1097 C 104.751 0.30605 -5.21403 0
M  V30 1098 H 106.445 -0.102883 -2.99223 0
M  V30 1099 H 103.991 -0.0509219 -1.4391 0
M  V30 1100 H 105.944 2.26915 -3.55088 0
M  V30 1101 H 104.668 2.30995 -2.30887 0
M  V30 1102 H 103.327 0.622499 -3.61276 0
M  V30 1103 H 102.975 3.07057 -3.98403 0
M  V30 1104 H 102.675 2.13925 -5.47275 0
M  V30 1105 H 104.199 3.05317 -5.28786 0
M  V30 1106 H 105.613 0.814929 -5.67478 0
M  V30 1107 H 104.01 0.0937929 -6.00027 0
M  V30 1108 H 105.08 -0.65921 -4.80398 0
M  V30 1109 N 106.423 1.57458 -0.0668435 0
M  V30 1110 C 107.386 2.11323 0.887422 0
M  V30 1111 C 108.386 1.03618 1.22964 0
M  V30 1112 O 109.576 1.29626 1.16373 0
M  V30 1113 C 106.708 2.61048 2.19242 0
M  V30 1114 H 107.901 2.96942 0.420194 0
M  V30 1115 H 105.454 1.55239 0.181793 0
M  V30 1116 H 106.189 1.78868 2.70512 0
M  V30 1117 H 105.974 3.39769 1.95702 0
M  V30 1118 H 107.464 3.02814 2.87565 0
M  V30 1119 N 107.901 -0.206675 1.56239 0
M  V30 1120 C 109.129 -0.945345 1.8404 0
M  V30 1121 C 109.544 -1.77336 0.647885 0
M  V30 1122 O 108.901 -1.78425 -0.383511 0
M  V30 1123 C 108.952 -1.8509 3.10522 0
M  V30 1124 O 108.673 -1.05634 4.25174 0
M  V30 1125 C 110.174 -2.70222 3.51418 0
M  V30 1126 H 107.394 -0.276372 0.61144 0
M  V30 1127 H 109.938 -0.217417 2.03341 0
M  V30 1128 H 108.093 -2.53259 2.93153 0
M  V30 1129 H 108.507 -1.67238 4.97124 0
M  V30 1130 H 109.981 -3.29438 4.42916 0
M  V30 1131 H 110.458 -3.43358 2.73864 0
M  V30 1132 H 111.064 -2.07443 3.71278 0
M  V30 1133 N 109.379 -1.50304 -0.473955 0
M  V30 1134 C 110.607 -1.64902 -1.24959 0
M  V30 1135 C 111.022 -0.331198 -1.85872 0
M  V30 1136 O 110.379 0.68652 -1.69095 0
M  V30 1137 C 110.43 -2.73803 -2.36038 0
M  V30 1138 O 110.151 -4.00477 -1.77624 0
M  V30 1139 C 111.652 -2.99349 -3.26964 0
M  V30 1140 H 108.872 -0.554383 -0.378022 0
M  V30 1141 H 111.416 -1.9651 -0.566054 0
M  V30 1142 H 109.571 -2.44898 -3.00173 0
M  V30 1143 H 109.985 -4.60678 -2.5075 0
M  V30 1144 H 111.459 -3.79217 -4.01121 0
M  V30 1145 H 111.936 -2.10307 -3.85574 0
M  V30 1146 H 112.542 -3.29774 -2.68569 0
M  V30 1147 N 110.857 0.726932 -1.39834 0
M  V30 1148 C 112.268 1.30558 -1.3346 0
M  V30 1149 C 112.619 1.962 -0.00273003 0
M  V30 1150 O 111.744 1.96826 0.899371 0
M  V30 1151 C 112.339 2.37404 -2.41713 0
M  V30 1152 C 110.898 2.90921 -2.38835 0
M  V30 1153 C 110.045 1.64578 -2.2318 0
M  V30 1154 H 112.996 0.523862 -1.49804 0
M  V30 1155 H 113.017 3.17984 -2.08966 0
M  V30 1156 H 112.529 1.89599 -3.38635 0
M  V30 1157 H 110.63 3.42985 -1.45575 0
M  V30 1158 H 110.743 3.43487 -3.33997 0
M  V30 1159 H 109.107 1.89219 -1.70494 0
M  V30 1160 H 109.89 1.18814 -3.22084 0
M  V30 1161 N 112.336 1.25143 0.95797 0
M  V30 1162 C 113.613 1.00472 1.67823 0
M  V30 1163 C 113.993 -0.470056 2.058 0
M  V30 1164 O 113.341 -1.44663 1.76875 0
M  V30 1165 C 113.551 1.9372 2.90299 0
M  V30 1166 C 114.899 2.21371 3.62326 0
M  V30 1167 O 115.923 1.91451 3.00375 0
M  V30 1168 O 114.782 2.72231 4.7387 0
M  V30 1169 H 111.876 0.380752 0.734137 0
M  V30 1170 H 114.422 1.36283 1.01119 0
M  V30 1171 H 113.194 2.93316 2.59001 0
M  V30 1172 H 112.817 1.58286 3.64735 0
M  V30 1173 N 113.814 -1.1601 1.06675 0
M  V30 1174 C 114.777 -2.18724 0.685001 0
M  V30 1175 C 115.777 -1.58496 -0.271246 0
M  V30 1176 O 116.967 -1.74119 -0.0531156 0
M  V30 1177 C 114.099 -3.40899 0.00853648 0
M  V30 1178 H 115.292 -2.54011 1.59431 0
M  V30 1179 H 112.845 -1.30352 0.862441 0
M  V30 1180 H 113.58 -3.11173 -0.913337 0
M  V30 1181 H 113.365 -3.8587 0.696204 0
M  V30 1182 H 114.855 -4.16886 -0.24414 0
M  V30 1183 N 115.292 -0.849877 -1.32721 0
M  V30 1184 C 116.24 -0.279745 -2.30912 0
M  V30 1185 C 117.234 0.594278 -1.58634 0
M  V30 1186 O 118.44 0.482613 -1.73409 0
M  V30 1187 H 114.815 -0.0717521 -0.748569 0
M  V30 1188 H 116.786 -1.12222 -2.76494 0
M  V30 1189 C 115.535 0.521108 -3.43773 0
M  V30 1190 H 114.858 -0.142141 -3.99547 0
M  V30 1191 H 116.298 0.885693 -4.14646 0
M  V30 1192 C 114.757 1.70442 -2.90605 0
M  V30 1193 O 115.287 2.8034 -2.87702 0
M  V30 1194 N 113.493 1.52991 -2.47067 0
M  V30 1195 H 113.04 0.635914 -2.49628 0
M  V30 1196 H 112.998 2.32311 -2.11847 0
M  V30 1197 N 116.77 1.45427 -0.607355 0
M  V30 1198 C 118.019 2.01452 -0.100036 0
M  V30 1199 C 118.332 1.48159 1.27704 0
M  V30 1200 O 119.538 1.96159 1.87707 0
M  V30 1201 C 117.994 3.59672 -0.128158 0
M  V30 1202 C 117.602 4.21962 -1.50507 0
M  V30 1203 C 119.346 4.23262 0.323932 0
M  V30 1204 C 117.253 5.72333 -1.48959 0
M  V30 1205 H 116.183 0.75325 -0.0336299 0
M  V30 1206 H 118.834 1.66901 -0.76265 0
M  V30 1207 H 117.216 3.91411 0.601105 0
M  V30 1208 H 118.39 4.01796 -2.25602 0
M  V30 1209 H 116.705 3.70565 -1.89923 0
M  V30 1210 H 119.302 5.33522 0.354691 0
M  V30 1211 H 119.645 3.93921 1.34656 0
M  V30 1212 H 120.178 3.96239 -0.352056 0
M  V30 1213 H 116.917 6.06373 -2.48981 0
M  V30 1214 H 116.437 5.94691 -0.781214 0
M  V30 1215 H 118.116 6.35525 -1.21313 0
M  V30 1216 N 118.248 0.346503 1.53744 0
M  V30 1217 C 119.497 -0.250122 2.00143 0
M  V30 1218 C 119.81 -1.51418 1.23822 0
M  V30 1219 O 121.016 -2.18823 1.60713 0
M  V30 1220 C 119.472 -0.496252 3.56462 0
M  V30 1221 C 119.08 0.752077 4.41642 0
M  V30 1222 C 120.824 -1.05157 4.11269 0
M  V30 1223 C 118.731 0.476583 5.89477 0
M  V30 1224 H 117.661 -0.0972409 0.747703 0
M  V30 1225 H 120.312 0.46229 1.77581 0
M  V30 1226 H 118.694 -1.26944 3.75102 0
M  V30 1227 H 119.868 1.5266 4.34778 0
M  V30 1228 H 118.183 1.22925 3.97842 0
M  V30 1229 H 120.78 -1.27269 5.19333 0
M  V30 1230 H 121.123 -2.00799 3.64672 0
M  V30 1231 H 121.656 -0.339019 3.96353 0
M  V30 1232 H 118.395 1.4028 6.40314 0
M  V30 1233 H 117.915 -0.259794 5.99237 0
M  V30 1234 H 119.594 0.0949315 6.4693 0
M  V30 1235 N 119.726 -1.57421 0.075193 0
M  V30 1236 C 120.673 -2.12915 -0.890843 0
M  V30 1237 C 121.643 -1.04252 -1.29309 0
M  V30 1238 O 122.828 -1.31933 -1.37834 0
M  V30 1239 C 119.968 -2.69795 -2.15186 0
M  V30 1240 C 119.081 -3.92624 -1.80194 0
M  V30 1241 C 118.216 -4.37736 -3.00933 0
M  V30 1242 C 117.255 -5.53205 -2.61974 0
M  V30 1243 N 116.392 -5.9326 -3.75483 0
M  V30 1244 H 121.232 -2.95156 -0.410735 0
M  V30 1245 H 118.769 -1.45854 -0.191086 0
M  V30 1246 H 120.727 -3.00883 -2.89008 0
M  V30 1247 H 119.357 -1.90313 -2.60731 0
M  V30 1248 H 118.409 -3.67977 -0.964218 0
M  V30 1249 H 119.721 -4.76482 -1.47534 0
M  V30 1250 H 118.875 -4.70503 -3.8303 0
M  V30 1251 H 117.614 -3.52739 -3.36789 0
M  V30 1252 H 116.619 -5.20086 -1.783 0
M  V30 1253 H 117.844 -6.39936 -2.27284 0
M  V30 1254 H 115.79 -5.11212 -4.11094 0
M  V30 1255 H 115.707 -6.71865 -3.46602 0
M  V30 1256 H 116.975 -6.30651 -4.58148 0
M  V30 1257 N 121.204 0.198386 -1.56346 0
M  V30 1258 C 122.134 1.24865 -1.9731 0
M  V30 1259 C 123.115 1.47651 -0.844576 0
M  V30 1260 O 124.3 1.59444 -1.10866 0
M  V30 1261 C 121.43 2.59358 -2.30977 0
M  V30 1262 C 120.384 2.5119 -3.46537 0
M  V30 1263 C 119.71 3.89926 -3.65871 0
M  V30 1264 C 121.01 2.03977 -4.80823 0
M  V30 1265 H 122.704 0.908252 -2.85291 0
M  V30 1266 H 120.25 0.435462 -1.37258 0
M  V30 1267 H 122.203 3.33011 -2.58228 0
M  V30 1268 H 120.927 2.95132 -1.39874 0
M  V30 1269 H 119.586 1.79993 -3.19371 0
M  V30 1270 H 119.234 4.23046 -2.72105 0
M  V30 1271 H 118.934 3.85336 -4.4361 0
M  V30 1272 H 120.458 4.65205 -3.95495 0
M  V30 1273 H 121.872 2.67386 -5.07127 0
M  V30 1274 H 120.269 2.10397 -5.62008 0
M  V30 1275 H 121.339 0.992861 -4.74626 0
M  V30 1276 N 122.682 1.50554 0.465978 0
M  V30 1277 C 124.093 1.54599 1.04671 0
M  V30 1278 C 124.444 0.352488 1.93008 0
M  V30 1279 O 123.569 -0.534044 2.09707 0
M  V30 1280 C 124.164 2.80166 1.90505 0
M  V30 1281 C 122.723 2.86876 2.43678 0
M  V30 1282 C 121.87 2.48947 1.22151 0
M  V30 1283 H 124.821 1.56744 0.248384 0
M  V30 1284 H 124.842 2.62311 2.75633 0
M  V30 1285 H 124.354 3.67013 1.26186 0
M  V30 1286 H 122.455 2.04393 3.11536 0
M  V30 1287 H 122.568 3.89885 2.78436 0
M  V30 1288 H 120.932 2.01498 1.5579 0
M  V30 1289 H 121.715 3.38107 0.594866 0
M  V30 1290 N 124.16 -0.719506 1.40217 0
M  V30 1291 C 125.108 -1.85493 1.40339 0
M  V30 1292 C 126.102 -1.66995 0.284415 0
M  V30 1293 O 127.308 -1.74148 0.455252 0
M  V30 1294 H 123.683 -0.610857 0.438586 0
M  V30 1295 H 125.654 -1.82506 2.36081 0
M  V30 1296 C 124.403 -3.23321 1.27901 0
M  V30 1297 H 123.726 -3.38159 2.1328 0
M  V30 1298 H 125.166 -4.02914 1.32045 0
M  V30 1299 C 123.625 -3.36898 -0.0111355 0
M  V30 1300 O 124.155 -3.89674 -0.975538 0
M  V30 1301 N 122.361 -2.90492 -0.0793393 0
M  V30 1302 H 121.908 -2.47731 0.706183 0
M  V30 1303 H 121.866 -2.99955 -0.942038 0
M  V30 1304 N 125.638 -1.25649 -0.95132 0
M  V30 1305 C 126.887 -1.09988 -1.69073 0
M  V30 1306 C 127.2 0.358355 -1.92289 0
M  V30 1307 O 128.406 0.635466 -2.63958 0
M  V30 1308 C 126.862 -1.92012 -3.044 0
M  V30 1309 C 126.47 -3.42347 -2.88968 0
M  V30 1310 C 128.214 -1.8493 -3.82101 0
M  V30 1311 C 126.121 -4.16655 -4.19705 0
M  V30 1312 H 125.051 -0.407993 -0.63408 0
M  V30 1313 H 127.702 -1.49873 -1.05879 0
M  V30 1314 H 126.084 -1.44952 -3.68517 0
M  V30 1315 H 127.258 -3.97104 -2.33762 0
M  V30 1316 H 125.573 -3.50557 -2.24719 0
M  V30 1317 H 128.17 -2.37739 -4.78941 0
M  V30 1318 H 128.513 -0.817883 -4.08187 0
M  V30 1319 H 129.046 -2.29758 -3.2474 0
M  V30 1320 H 125.785 -5.20224 -3.98807 0
M  V30 1321 H 125.305 -3.66681 -4.74663 0
M  V30 1322 H 126.984 -4.24551 -4.88227 0
M  V30 1323 N 127.117 1.15442 -1.07289 0
M  V30 1324 C 128.342 1.90638 -0.816828 0
M  V30 1325 C 128.767 1.77445 0.624083 0
M  V30 1326 O 128.125 1.10671 1.43602 0
M  V30 1327 C 128.173 3.39008 -1.22906 0
M  V30 1328 O 127.277 4.10701 -0.373975 0
M  V30 1329 H 126.618 0.593555 -0.297638 0
M  V30 1330 H 129.148 1.46198 -1.43134 0
M  V30 1331 H 129.158 3.89801 -1.20497 0
M  V30 1332 H 127.833 3.47929 -2.27856 0
M  V30 1333 H 126.41 3.70046 -0.460499 0
M  V30 1334 N 128.595 0.856903 1.32268 0
M  V30 1335 C 129.558 0.308171 2.27119 0
M  V30 1336 C 130.558 -0.533421 1.51695 0
M  V30 1337 O 131.748 -0.344607 1.70757 0
M  V30 1338 C 128.88 -0.563757 3.36206 0
M  V30 1339 H 130.073 1.14535 2.77167 0
M  V30 1340 H 127.626 0.631421 1.42978 0
M  V30 1341 H 128.361 -1.42266 2.91429 0
M  V30 1342 H 128.146 0.0386749 3.92081 0
M  V30 1343 H 129.636 -0.940386 4.06874 0
M  V30 1344 N 130.073 -1.45103 0.615059 0
M  V30 1345 C 131.298 -2.07064 0.117988 0
M  V30 1346 C 131.723 -1.4554 -1.19163 0
M  V30 1347 O 131.081 -0.550855 -1.72729 0
M  V30 1348 C 131.129 -3.606 -0.000288387 0
M  V30 1349 O 130.233 -3.98847 -1.04856 0
M  V30 1350 H 129.574 -0.659467 0.0774581 0
M  V30 1351 H 132.104 -1.86236 0.847186 0
M  V30 1352 H 132.114 -4.07529 -0.196091 0
M  V30 1353 H 130.789 -4.04765 0.955932 0
M  V30 1354 H 129.366 -3.63577 -0.828619 0
M  V30 1355 N 131.551 -0.354651 -1.53558 0
M  V30 1356 C 132.797 0.238797 -2.01389 0
M  V30 1357 C 133.13 1.49309 -1.2418 0
M  V30 1358 O 132.405 1.91638 -0.332457 0
M  V30 1359 C 132.688 0.541771 -3.56001 0
M  V30 1360 C 132.541 -0.725388 -4.43912 0
M  V30 1361 C 133.86 1.34685 -4.18984 0
M  V30 1362 H 130.979 0.0853177 -0.732045 0
M  V30 1363 H 133.621 -0.477384 -1.83905 0
M  V30 1364 H 131.771 1.15189 -3.71031 0
M  V30 1365 H 133.443 -1.36313 -4.407 0
M  V30 1366 H 131.686 -1.34801 -4.12324 0
M  V30 1367 H 132.357 -0.468505 -5.50008 0
M  V30 1368 H 134.833 0.830837 -4.07721 0
M  V30 1369 H 133.709 1.52759 -5.27215 0
M  V30 1370 H 133.97 2.35221 -3.74331 0
M  V30 1371 N 133.029 1.57378 -0.0835403 0
M  V30 1372 C 134.44 1.81261 0.447358 0
M  V30 1373 C 134.791 0.998331 1.68902 0
M  V30 1374 O 133.916 0.224282 2.15235 0
M  V30 1375 C 134.511 3.28767 0.818386 0
M  V30 1376 C 133.07 3.53455 1.29409 0
M  V30 1377 C 132.217 2.75831 0.285024 0
M  V30 1378 H 135.168 1.5566 -0.309115 0
M  V30 1379 H 135.189 3.41459 1.67887 0
M  V30 1380 H 134.701 3.88006 -0.0855019 0
M  V30 1381 H 132.802 2.99534 2.21608 0
M  V30 1382 H 132.915 4.62128 1.2639 0
M  V30 1383 H 131.279 2.42947 0.764767 0
M  V30 1384 H 132.062 3.37813 -0.611341 0
M  V30 1385 N 134.507 -0.190092 1.56449 0
M  V30 1386 C 135.439 -1.25973 1.91477 0
M  V30 1387 C 136.452 -1.41452 0.805931 0
M  V30 1388 O 137.641 -1.41789 1.08435 0
M  V30 1389 C 134.741 -2.63117 2.13594 0
M  V30 1390 C 133.914 -2.69182 3.4476 0
M  V30 1391 C 132.973 -3.87557 3.5593 0
M  V30 1392 O 131.999 -3.74427 4.28711 0
M  V30 1393 N 133.201 -5.03224 2.89388 0
M  V30 1394 H 135.966 -0.962394 2.83828 0
M  V30 1395 H 133.527 -0.379981 1.57378 0
M  V30 1396 H 135.519 -3.40742 2.1835 0
M  V30 1397 H 134.089 -2.85319 1.27719 0
M  V30 1398 H 133.309 -1.77793 3.51828 0
M  V30 1399 H 134.597 -2.70229 4.31107 0
M  V30 1400 H 133.995 -5.16791 2.30094 0
M  V30 1401 H 132.552 -5.78778 2.99764 0
M  V30 1402 N 135.985 -1.50799 -0.457987 0
M  V30 1403 C 136.915 -1.73553 -1.5621 0
M  V30 1404 C 137.896 -0.584774 -1.59732 0
M  V30 1405 O 139.081 -0.825314 -1.7579 0
M  V30 1406 C 136.211 -1.84169 -2.94447 0
M  V30 1407 C 135.165 -2.99461 -3.0579 0
M  V30 1408 C 134.491 -2.95235 -4.45803 0
M  V30 1409 C 135.791 -4.39766 -2.81786 0
M  V30 1410 H 137.485 -2.66 -1.37421 0
M  V30 1411 H 135.031 -1.28002 -0.659662 0
M  V30 1412 H 136.984 -1.98672 -3.71628 0
M  V30 1413 H 135.708 -0.883545 -3.14422 0
M  V30 1414 H 134.367 -2.8463 -2.31044 0
M  V30 1415 H 134.015 -1.97239 -4.62715 0
M  V30 1416 H 133.715 -3.72642 -4.54326 0
M  V30 1417 H 135.239 -3.11803 -5.24987 0
M  V30 1418 H 136.653 -4.55054 -3.4871 0
M  V30 1419 H 135.05 -5.18722 -3.0174 0
M  V30 1420 H 136.12 -4.51229 -1.7754 0
M  V30 1421 N 137.463 0.71206 -1.40597 0
M  V30 1422 C 138.41 1.82613 -1.41142 0
M  V30 1423 C 139.38 1.63925 -0.267903 0
M  V30 1424 O 140.565 1.85009 -0.466495 0
M  V30 1425 C 137.705 3.20354 -1.28324 0
M  V30 1426 C 136.818 3.50589 -2.52411 0
M  V30 1427 C 135.953 4.77855 -2.32009 0
M  V30 1428 C 134.992 5.01005 -3.51654 0
M  V30 1429 N 134.129 6.19487 -3.30425 0
M  V30 1430 H 138.969 1.81482 -2.36365 0
M  V30 1431 H 136.506 0.886475 -1.17388 0
M  V30 1432 H 138.464 3.99899 -1.18899 0
M  V30 1433 H 137.094 3.20705 -0.367189 0
M  V30 1434 H 136.146 2.65573 -2.72351 0
M  V30 1435 H 137.458 3.63604 -3.41458 0
M  V30 1436 H 136.612 5.65424 -2.19956 0
M  V30 1437 H 135.351 4.67056 -1.40392 0
M  V30 1438 H 134.356 4.1189 -3.64179 0
M  V30 1439 H 135.581 5.13674 -4.44202 0
M  V30 1440 H 133.527 6.09932 -2.41494 0
M  V30 1441 H 133.444 6.33194 -4.13039 0
M  V30 1442 H 134.712 7.09834 -3.22113 0
M  V30 1443 N 138.941 1.26152 0.944643 0
M  V30 1444 C 139.904 1.07474 2.0244 0
M  V30 1445 C 140.904 0.0242064 1.60782 0
M  V30 1446 O 142.094 0.267302 1.72137 0
M  V30 1447 C 139.226 0.633956 3.34953 0
M  V30 1448 H 140.419 2.03336 2.20442 0
M  V30 1449 H 137.972 1.087 1.12312 0
M  V30 1450 H 138.707 -0.326811 3.22649 0
M  V30 1451 H 138.492 1.39247 3.66542 0
M  V30 1452 H 139.982 0.52501 4.14287 0
M  V30 1453 N 140.419 -1.14872 1.07899 0
M  V30 1454 C 141.382 -2.17986 0.708161 0
M  V30 1455 C 142.382 -1.58775 -0.25442 0
M  V30 1456 O 143.572 -1.74166 -0.034645 0
M  V30 1457 C 140.704 -3.40871 0.0446929 0
M  V30 1458 H 141.897 -2.52306 1.62116 0
M  V30 1459 H 139.45 -1.2943 0.876218 0
M  V30 1460 H 140.185 -3.12124 -0.880281 0
M  V30 1461 H 139.97 -3.8511 0.737091 0
M  V30 1462 H 141.46 -4.17121 -0.19991 0
M  V30 1463 N 141.898 -0.863906 -1.31812 0
M  V30 1464 C 143.147 -0.46801 -1.96195 0
M  V30 1465 C 143.46 0.983474 -1.69077 0
M  V30 1466 O 144.666 1.48523 -2.27273 0
M  V30 1467 C 143.122 -0.785995 -3.51212 0
M  V30 1468 C 142.73 -2.25383 -3.87178 0
M  V30 1469 C 144.474 -0.458274 -4.22019 0
M  V30 1470 C 142.381 -2.51455 -5.3528 0
M  V30 1471 H 141.311 -0.171283 -0.734287 0
M  V30 1472 H 143.962 -1.05597 -1.50072 0
M  V30 1473 H 142.344 -0.127359 -3.95795 0
M  V30 1474 H 143.518 -2.95502 -3.53575 0
M  V30 1475 H 141.833 -2.54698 -3.2942 0
M  V30 1476 H 144.43 -0.630369 -5.30971 0
M  V30 1477 H 144.773 0.600834 -4.11941 0
M  V30 1478 H 145.306 -1.07319 -3.8305 0
M  V30 1479 H 142.045 -3.56025 -5.50387 0
M  V30 1480 H 141.565 -1.85923 -5.70257 0
M  V30 1481 H 143.244 -2.35874 -6.02472 0
M  V30 1482 N 143.376 1.44774 -0.622745 0
M  V30 1483 C 144.323 2.30635 0.0871679 0
M  V30 1484 C 145.293 1.42994 0.845097 0
M  V30 1485 O 146.478 1.71907 0.827812 0
M  V30 1486 C 143.618 3.28144 1.06844 0
M  V30 1487 C 142.731 4.30888 0.309809 0
M  V30 1488 C 141.866 5.15494 1.28215 0
M  V30 1489 C 140.905 6.09953 0.512198 0
M  V30 1490 N 140.042 6.87287 1.43458 0
M  V30 1491 H 144.882 2.90803 -0.650974 0
M  V30 1492 H 142.419 1.43286 -0.33281 0
M  V30 1493 H 144.377 3.83157 1.65066 0
M  V30 1494 H 143.007 2.69695 1.77382 0
M  V30 1495 H 142.059 3.78414 -0.388181 0
M  V30 1496 H 143.371 4.97955 -0.290254 0
M  V30 1497 H 142.525 5.74983 1.93596 0
M  V30 1498 H 141.264 4.48481 1.91614 0
M  V30 1499 H 140.269 5.49581 -0.155151 0
M  V30 1500 H 141.494 6.78999 -0.116958 0
M  V30 1501 H 139.44 6.2295 2.05594 0
M  V30 1502 H 139.357 7.50763 0.888335 0
M  V30 1503 H 140.625 7.51306 2.07749 0
M  V30 1504 N 144.854 0.36279 1.53368 0
M  V30 1505 C 145.764 -0.492994 2.29362 0
M  V30 1506 C 146.78 -1.09507 1.35219 0
M  V30 1507 O 147.956 -1.10662 1.68273 0
M  V30 1508 C 145.021 -1.61855 3.066 0
M  V30 1509 C 144.082 -1.04429 4.16405 0
M  V30 1510 C 143.315 -2.11621 4.89951 0
M  V30 1511 O 143.538 -3.32684 4.63333 0
M  V30 1512 O 142.472 -1.74835 5.75948 0
M  V30 1513 H 146.298 0.125331 3.03441 0
M  V30 1514 H 143.883 0.127253 1.48857 0
M  V30 1515 H 145.765 -2.27302 3.54841 0
M  V30 1516 H 144.44 -2.22233 2.3536 0
M  V30 1517 H 143.347 -0.353819 3.72423 0
M  V30 1518 H 144.68 -0.485113 4.89804 0
M  V30 1519 N 146.332 -1.57332 0.0918853 0
M  V30 1520 C 147.262 -2.16872 -0.865371 0
M  V30 1521 C 148.243 -1.10118 -1.29646 0
M  V30 1522 O 149.428 -1.38242 -1.36392 0
M  V30 1523 C 146.558 -2.74649 -2.12569 0
M  V30 1524 C 145.512 -3.86747 -1.83333 0
M  V30 1525 C 144.838 -4.31212 -3.16166 0
M  V30 1526 C 146.138 -5.10089 -1.1228 0
M  V30 1527 H 147.832 -2.97114 -0.369307 0
M  V30 1528 H 145.378 -1.42918 -0.176194 0
M  V30 1529 H 147.331 -3.14952 -2.7997 0
M  V30 1530 H 146.055 -1.91657 -2.64452 0
M  V30 1531 H 144.714 -3.46978 -1.18331 0
M  V30 1532 H 144.362 -3.45115 -3.6593 0
M  V30 1533 H 144.062 -5.06788 -2.97388 0
M  V30 1534 H 145.586 -4.74146 -3.84731 0
M  V30 1535 H 147 -5.47582 -1.69785 0
M  V30 1536 H 145.397 -5.91073 -1.03693 0
M  V30 1537 H 146.467 -4.84786 -0.105041 0
M  V30 1538 N 147.81 0.181792 -1.56548 0
M  V30 1539 C 148.742 1.24956 -1.92142 0
M  V30 1540 C 149.755 1.41022 -0.813422 0
M  V30 1541 O 150.944 1.41212 -1.09186 0
M  V30 1542 C 148.044 2.61981 -2.14987 0
M  V30 1543 C 147.217 2.6735 -3.46183 0
M  V30 1544 C 146.276 3.85664 -3.5798 0
M  V30 1545 O 145.302 3.72148 -4.30691 0
M  V30 1546 N 146.504 5.01683 -2.92053 0
M  V30 1547 H 149.269 0.947329 -2.84334 0
M  V30 1548 H 146.83 0.371629 -1.57577 0
M  V30 1549 H 148.822 3.3958 -2.20154 0
M  V30 1550 H 147.392 2.84637 -1.2923 0
M  V30 1551 H 146.612 1.75925 -3.52766 0
M  V30 1552 H 147.9 2.67939 -4.32534 0
M  V30 1553 H 147.298 5.15564 -2.32832 0
M  V30 1554 H 145.855 5.77181 -3.0283 0
M  V30 1555 N 149.288 1.51039 0.449983 0
M  V30 1556 C 150.22 1.67617 1.56324 0
M  V30 1557 C 151.233 0.557083 1.52972 0
M  V30 1558 O 152.422 0.830989 1.57977 0
M  V30 1559 C 149.522 1.66402 2.95235 0
M  V30 1560 C 148.695 2.9469 3.23229 0
M  V30 1561 C 147.754 2.85832 4.41799 0
M  V30 1562 O 146.78 3.59785 4.41071 0
M  V30 1563 N 147.982 2.00821 5.44657 0
M  V30 1564 H 150.747 2.63648 1.42512 0
M  V30 1565 H 148.308 1.48767 0.638737 0
M  V30 1566 H 150.3 1.58062 3.72557 0
M  V30 1567 H 148.87 0.780182 3.02708 0
M  V30 1568 H 148.09 3.16996 2.34323 0
M  V30 1569 H 149.378 3.79636 3.38754 0
M  V30 1570 H 148.776 1.40091 5.48079 0
M  V30 1571 H 147.333 1.98368 6.20881 0
M  V30 1572 N 150.766 -0.704594 1.40972 0
M  V30 1573 C 151.698 -1.82974 1.38033 0
M  V30 1574 C 152.711 -1.60305 0.283931 0
M  V30 1575 O 153.9 -1.69975 0.545042 0
M  V30 1576 C 151 -3.19578 1.12795 0
M  V30 1577 C 150.173 -3.69352 2.34302 0
M  V30 1578 C 149.232 -4.84601 2.05058 0
M  V30 1579 O 148.258 -4.96682 2.7802 0
M  V30 1580 N 149.46 -5.71194 1.03528 0
M  V30 1581 H 152.225 -1.85991 2.35005 0
M  V30 1582 H 149.786 -0.886567 1.35468 0
M  V30 1583 H 151.778 -3.9429 0.911987 0
M  V30 1584 H 150.348 -3.11642 0.24452 0
M  V30 1585 H 149.568 -2.85649 2.71659 0
M  V30 1586 H 150.856 -3.99345 3.1528 0
M  V30 1587 H 150.254 -5.64054 0.431217 0
M  V30 1588 H 148.811 -6.45843 0.879205 0
M  V30 1589 N 152.244 -1.26651 -0.937939 0
M  V30 1590 C 153.492 -1.12165 -1.68118 0
M  V30 1591 C 153.813 0.334983 -1.92101 0
M  V30 1592 O 153.083 1.23583 -1.52 0
M  V30 1593 H 151.663 -0.412093 -0.623048 0
M  V30 1594 H 154.325 -1.59027 -1.12678 0
M  V30 1595 H 153.421 -1.64289 -2.6536 0
M  V30 1596 N 153.722 1.14298 -1.08507 0
M  V30 1597 C 154.952 1.88945 -0.835663 0
M  V30 1598 C 155.36 1.78894 0.615928 0
M  V30 1599 O 154.703 1.1468 1.43506 0
M  V30 1600 C 154.765 3.39585 -1.17994 0
M  V30 1601 C 154.429 3.7342 -2.63451 0
M  V30 1602 C 155.426 3.73454 -3.61702 0
M  V30 1603 C 153.111 4.03368 -2.99332 0
M  V30 1604 C 155.105 4.02961 -4.93864 0
M  V30 1605 C 152.792 4.32538 -4.31687 0
M  V30 1606 C 153.79 4.32318 -5.28763 0
M  V30 1607 O 153.478 4.6078 -6.58739 0
M  V30 1608 H 153.21 0.605307 -0.300965 0
M  V30 1609 H 155.764 1.45673 -1.44806 0
M  V30 1610 H 153.994 3.83315 -0.51055 0
M  V30 1611 H 155.683 3.9554 -0.911182 0
M  V30 1612 H 156.449 3.50403 -3.35325 0
M  V30 1613 H 152.328 4.02692 -2.24411 0
M  V30 1614 H 155.872 4.02704 -5.69627 0
M  V30 1615 H 151.769 4.55059 -4.57812 0
M  V30 1616 H 152.537 4.78492 -6.64069 0
M  V30 1617 N 155.201 0.870884 1.31352 0
M  V30 1618 C 156.148 0.325425 2.28494 0
M  V30 1619 C 157.118 -0.576615 1.5577 0
M  V30 1620 O 158.303 -0.508059 1.83911 0
M  V30 1621 C 155.443 -0.466283 3.41935 0
M  V30 1622 C 154.556 0.463378 4.29508 0
M  V30 1623 C 153.691 -0.342544 5.30094 0
M  V30 1624 C 152.73 0.583486 6.09313 0
M  V30 1625 N 151.867 -0.186244 7.01853 0
M  V30 1626 H 156.707 1.15901 2.74538 0
M  V30 1627 H 154.244 0.58294 1.35056 0
M  V30 1628 H 156.202 -0.941085 4.06447 0
M  V30 1629 H 154.832 -1.26456 2.97 0
M  V30 1630 H 153.884 1.05663 3.65431 0
M  V30 1631 H 155.196 1.1734 4.84802 0
M  V30 1632 H 154.35 -0.879816 6.00287 0
M  V30 1633 H 153.089 -1.08585 4.75458 0
M  V30 1634 H 152.094 1.13251 5.3801 0
M  V30 1635 H 153.319 1.32566 6.66035 0
M  V30 1636 H 151.265 -0.912348 6.49625 0
M  V30 1637 H 151.182 0.464422 7.54572 0
M  V30 1638 H 152.45 -0.704716 7.76308 0
M  V30 1639 N 156.679 -1.44442 0.630414 0
M  V30 1640 C 157.609 -2.33418 -0.0618083 0
M  V30 1641 C 158.59 -1.48165 -0.835541 0
M  V30 1642 O 159.775 -1.76886 -0.801564 0
M  V30 1643 C 156.905 -3.31222 -1.04449 0
M  V30 1644 C 155.859 -4.26288 -0.382436 0
M  V30 1645 C 155.185 -5.13954 -1.47497 0
M  V30 1646 C 156.485 -5.1744 0.710865 0
M  V30 1647 H 158.179 -2.91548 0.681184 0
M  V30 1648 H 155.725 -1.40191 0.329026 0
M  V30 1649 H 157.678 -3.92351 -1.53748 0
M  V30 1650 H 156.402 -2.71299 -1.81836 0
M  V30 1651 H 155.061 -3.6649 0.0899054 0
M  V30 1652 H 154.709 -4.50385 -2.2397 0
M  V30 1653 H 154.409 -5.7837 -1.03737 0
M  V30 1654 H 155.933 -5.77955 -1.96979 0
M  V30 1655 H 157.347 -5.72509 0.300996 0
M  V30 1656 H 155.744 -5.90455 1.07156 0
M  V30 1657 H 156.814 -4.58496 1.57829 0
M  V30 1658 N 158.157 -0.370918 -1.53173 0
M  V30 1659 C 159.568 0.107139 -1.86392 0
M  V30 1660 C 159.919 1.47714 -1.29132 0
M  V30 1661 O 159.044 2.07464 -0.615439 0
M  V30 1662 C 159.639 0.201187 -3.38202 0
M  V30 1663 C 158.198 0.623507 -3.712 0
M  V30 1664 C 157.345 -0.225978 -2.76378 0
M  V30 1665 H 160.296 -0.58951 -1.47345 0
M  V30 1666 H 160.317 1.02377 -3.66468 0
M  V30 1667 H 159.829 -0.796058 -3.79848 0
M  V30 1668 H 157.93 1.62879 -3.35114 0
M  V30 1669 H 158.043 0.394414 -4.77474 0
M  V30 1670 H 156.407 0.305962 -2.52856 0
M  V30 1671 H 157.19 -1.22086 -3.20858 0
M  V30 1672 N 159.635 1.57281 -0.100228 0
M  V30 1673 C 160.912 1.86014 0.604812 0
M  V30 1674 C 161.292 0.998025 1.86018 0
M  V30 1675 O 160.64 0.0718184 2.28387 0
M  V30 1676 C 160.85 3.36784 0.915278 0
M  V30 1677 C 162.198 4.04957 1.27651 0
M  V30 1678 O 163.222 3.41695 1.00613 0
M  V30 1679 O 162.081 5.16593 1.7831 0
M  V30 1680 H 159.175 0.76942 0.303185 0
M  V30 1681 H 161.721 1.69176 -0.133313 0
M  V30 1682 H 160.493 3.91292 0.0248896 0
M  V30 1683 H 160.116 3.58987 1.70921 0
M  V30 1684 N 161.113 -0.173488 1.56642 0
M  V30 1685 C 162.343 -0.904781 1.85734 0
M  V30 1686 C 162.751 -1.76431 0.68328 0
M  V30 1687 O 162.094 -1.802 -0.356865 0
M  V30 1688 C 162.156 -1.83382 3.09211 0
M  V30 1689 C 161.82 -1.15411 4.42187 0
M  V30 1690 C 162.817 -0.520609 5.17287 0
M  V30 1691 C 160.502 -1.15151 4.88923 0
M  V30 1692 C 162.496 0.106412 6.37311 0
M  V30 1693 C 160.183 -0.520664 6.08878 0
M  V30 1694 C 161.181 0.107196 6.82916 0
M  V30 1695 O 160.869 0.728102 8.00596 0
M  V30 1696 H 160.601 -0.268408 0.62043 0
M  V30 1697 H 163.155 -0.179096 2.04618 0
M  V30 1698 H 161.385 -2.59976 2.86268 0
M  V30 1699 H 163.074 -2.43476 3.24768 0
M  V30 1700 H 163.84 -0.514606 4.82262 0
M  V30 1701 H 159.719 -1.62961 4.31236 0
M  V30 1702 H 163.263 0.597081 6.9504 0
M  V30 1703 H 159.16 -0.524242 6.43368 0
M  V30 1704 H 159.928 0.627138 8.16094 0
M  V30 1705 N 162.591 -1.51276 -0.441967 0
M  V30 1706 C 164.002 -1.56244 -1.02199 0
M  V30 1707 C 164.353 -0.383149 -1.92422 0
M  V30 1708 O 163.478 0.500613 -2.1053 0
M  V30 1709 C 164.073 -2.83162 -1.86024 0
M  V30 1710 C 162.632 -2.90716 -2.39084 0
M  V30 1711 C 161.779 -2.50858 -1.18175 0
M  V30 1712 H 164.73 -1.5712 -0.223416 0
M  V30 1713 H 164.751 -2.66663 -2.71425 0
M  V30 1714 H 164.263 -3.68974 -1.20331 0
M  V30 1715 H 162.364 -2.09323 -3.08244 0
M  V30 1716 H 162.477 -3.94266 -2.72198 0
M  V30 1717 H 160.841 -2.03951 -1.52565 0
M  V30 1718 H 161.624 -3.3901 -0.541001 0
M  V30 1719 N 164.069 0.697108 -1.41344 0
M  V30 1720 C 164.979 1.84088 -1.45427 0
M  V30 1721 C 165.995 1.70545 -0.34501 0
M  V30 1722 O 167.171 1.92488 -0.592492 0
M  V30 1723 C 164.236 3.20056 -1.33286 0
M  V30 1724 C 163.297 3.45718 -2.54514 0
M  V30 1725 C 162.53 4.75199 -2.42944 0
M  V30 1726 O 162.753 5.51579 -1.45318 0
M  V30 1727 O 161.687 5.0161 -3.32672 0
M  V30 1728 H 165.513 1.836 -2.41919 0
M  V30 1729 H 163.098 0.849966 -1.22866 0
M  V30 1730 H 164.98 4.01236 -1.28794 0
M  V30 1731 H 163.655 3.2123 -0.39909 0
M  V30 1732 H 162.562 2.64474 -2.64583 0
M  V30 1733 H 163.895 3.49356 -3.46715 0
M  V30 1734 N 165.547 1.27147 0.931209 0
M  V30 1735 C 166.457 1.11372 2.06478 0
M  V30 1736 C 167.473 0.044645 1.73943 0
M  V30 1737 O 168.649 0.250417 1.99837 0
M  V30 1738 C 165.714 0.758838 3.38294 0
M  V30 1739 C 164.775 1.90841 3.84549 0
M  V30 1740 C 164.008 1.57036 5.10074 0
M  V30 1741 O 164.231 0.476645 5.68405 0
M  V30 1742 O 163.165 2.40839 5.51616 0
M  V30 1743 H 166.991 2.06493 2.22698 0
M  V30 1744 H 164.576 1.06301 1.04978 0
M  V30 1745 H 166.458 0.574098 4.17471 0
M  V30 1746 H 165.133 -0.162879 3.2329 0
M  V30 1747 H 164.04 2.14819 3.06274 0
M  V30 1748 H 165.373 2.81021 4.04089 0
M  V30 1749 N 167.025 -1.13721 1.09112 0
M  V30 1750 C 168.436 -1.6648 0.845068 0
M  V30 1751 C 168.787 -1.85911 -0.62701 0
M  V30 1752 O 167.912 -1.57556 -1.48341 0
M  V30 1753 C 168.507 -3.02413 1.52748 0
M  V30 1754 C 167.066 -3.52176 1.32849 0
M  V30 1755 C 166.213 -2.27492 1.58564 0
M  V30 1756 H 169.164 -0.976872 1.25072 0
M  V30 1757 H 169.185 -3.68223 0.958752 0
M  V30 1758 H 168.697 -2.88238 2.59885 0
M  V30 1759 H 166.798 -3.7156 0.278137 0
M  V30 1760 H 166.911 -4.32499 2.0611 0
M  V30 1761 H 165.275 -2.33923 1.00758 0
M  V30 1762 H 166.058 -2.15886 2.66924 0
M  V30 1763 N 168.503 -0.877838 -1.30888 0
M  V30 1764 C 169.45 -0.337538 -2.28318 0
M  V30 1765 C 170.42 0.568346 -1.56074 0
M  V30 1766 O 171.605 0.498298 -1.84178 0
M  V30 1767 C 168.745 0.448142 -3.42178 0
M  V30 1768 C 167.858 -0.48615 -4.29256 0
M  V30 1769 C 166.993 0.314427 -5.30269 0
M  V30 1770 C 166.032 -0.615791 -6.08995 0
M  V30 1771 N 165.169 0.14902 -7.01942 0
M  V30 1772 H 170.009 -1.17356 -2.73919 0
M  V30 1773 H 167.546 -0.590094 -1.34745 0
M  V30 1774 H 169.504 0.919517 -4.06941 0
M  V30 1775 H 168.134 1.24879 -2.97666 0
M  V30 1776 H 167.186 -1.076 -3.64865 0
M  V30 1777 H 168.498 -1.19909 -4.84173 0
M  V30 1778 H 167.652 0.847969 -6.00745 0
M  V30 1779 H 166.391 1.06062 -4.76027 0
M  V30 1780 H 165.396 -1.16102 -5.37401 0
M  V30 1781 H 166.621 -1.36097 -6.65323 0
M  V30 1782 H 164.567 0.877884 -6.50099 0
M  V30 1783 H 164.484 -0.504433 -7.54315 0
M  V30 1784 H 165.752 0.663537 -7.76671 0
M  V30 1785 N 169.982 1.44106 -0.638065 0
M  V30 1786 C 171.21 2.06336 -0.152615 0
M  V30 1787 C 171.625 1.47731 1.17563 0
M  V30 1788 O 170.982 0.602806 1.72257 0
M  V30 1789 C 171.033 3.61479 -0.0391491 0
M  V30 1790 O 170.754 4.17903 -1.31487 0
M  V30 1791 C 172.255 4.40757 0.474176 0
M  V30 1792 H 169.475 0.665862 -0.0828776 0
M  V30 1793 H 172.019 1.84862 -0.87443 0
M  V30 1794 H 170.174 3.82191 0.633142 0
M  V30 1795 H 170.588 5.11416 -1.16421 0
M  V30 1796 H 172.062 5.49707 0.502562 0
M  V30 1797 H 172.539 4.12697 1.50258 0
M  V30 1798 H 173.145 4.24979 -0.165102 0
M  V30 1799 N 171.46 0.379036 1.52974 0
M  V30 1800 C 172.737 -0.263479 1.93817 0
M  V30 1801 C 173.117 -1.65244 1.31368 0
M  V30 1802 O 172.465 -2.23448 0.477856 0
M  V30 1803 C 172.675 -0.300166 3.47707 0
M  V30 1804 C 174.023 -0.534061 4.21228 0
M  V30 1805 O 175.047 -0.38081 3.54159 0
M  V30 1806 O 173.906 -0.833501 5.40106 0
M  V30 1807 H 171 -0.161149 0.811147 0
M  V30 1808 H 173.546 0.432798 1.64088 0
M  V30 1809 H 172.318 0.673138 3.85467 0
M  V30 1810 H 171.941 -1.04179 3.83709 0
M  V30 1811 N 172.938 -1.57226 0.108567 0
M  V30 1812 C 174.166 -1.99179 -0.559954 0
M  V30 1813 C 174.581 -0.988022 -1.60884 0
M  V30 1814 O 173.938 0.0205512 -1.82488 0
M  V30 1815 C 173.989 -3.41159 -1.19552 0
M  V30 1816 O 173.71 -4.37694 -0.188577 0
M  V30 1817 C 175.211 -3.98188 -1.94837 0
M  V30 1818 H 172.431 -0.654228 -0.149088 0
M  V30 1819 H 174.975 -2.03598 0.19183 0
M  V30 1820 H 173.13 -3.37711 -1.89815 0
M  V30 1821 H 173.544 -5.20469 -0.649014 0
M  V30 1822 H 175.018 -4.99644 -2.34648 0
M  V30 1823 H 175.495 -3.3675 -2.81951 0
M  V30 1824 H 176.101 -4.0515 -1.2936 0
M  V30 1825 N 174.416 0.165178 -1.56732 0
M  V30 1826 C 175.326 1.22423 -2.00125 0
M  V30 1827 C 176.342 1.48084 -0.913619 0
M  V30 1828 O 177.518 1.60112 -1.22172 0
M  V30 1829 C 174.583 2.54197 -2.35764 0
M  V30 1830 C 173.644 2.36343 -3.58386 0
M  V30 1831 C 172.877 3.61834 -3.92316 0
M  V30 1832 O 173.1 4.67267 -3.27135 0
M  V30 1833 O 172.034 3.55579 -4.85641 0
M  V30 1834 H 175.86 0.885886 -2.90492 0
M  V30 1835 H 173.445 0.372518 -1.44681 0
M  V30 1836 H 175.327 3.3192 -2.59629 0
M  V30 1837 H 174.002 2.87598 -1.48557 0
M  V30 1838 H 172.909 1.56632 -3.39731 0
M  V30 1839 H 174.242 2.07865 -4.46154 0
M  V30 1840 N 175.894 1.51508 0.433938 0
M  V30 1841 C 176.841 1.73068 1.52696 0
M  V30 1842 C 177.811 0.572441 1.55924 0
M  V30 1843 O 178.996 0.807253 1.72882 0
M  V30 1844 C 176.136 1.86474 2.90381 0
M  V30 1845 C 175.249 3.14037 2.96656 0
M  V30 1846 C 174.384 3.18019 4.25485 0
M  V30 1847 C 173.423 4.39882 4.2564 0
M  V30 1848 N 172.56 4.41394 5.45999 0
M  V30 1849 H 177.4 2.66366 1.33615 0
M  V30 1850 H 174.937 1.32008 0.649018 0
M  V30 1851 H 176.895 1.92229 3.70275 0
M  V30 1852 H 175.525 0.965809 3.08013 0
M  V30 1853 H 174.577 3.17575 2.09404 0
M  V30 1854 H 175.889 4.0394 2.92633 0
M  V30 1855 H 175.043 3.22708 5.13755 0
M  V30 1856 H 173.782 2.2601 4.3217 0
M  V30 1857 H 172.787 4.35366 3.35763 0
M  V30 1858 H 174.012 5.33159 4.20617 0
M  V30 1859 H 171.958 3.52258 5.53399 0
M  V30 1860 H 171.875 5.25111 5.4387 0
M  V30 1861 H 173.143 4.50281 6.36292 0
M  V30 1862 N 177.372 -0.689602 1.41712 0
M  V30 1863 C 178.649 -1.44457 1.31877 0
M  V30 1864 C 179.029 -2.11039 -0.0508537 0
M  V30 1865 O 178.377 -2.02138 -1.06547 0
M  V30 1866 C 178.587 -2.45913 2.47645 0
M  V30 1867 C 179.935 -3.10991 2.89084 0
M  V30 1868 O 180.959 -2.56238 2.47428 0
M  V30 1869 O 179.818 -4.10174 3.61137 0
M  V30 1870 H 176.912 -0.64362 0.519309 0
M  V30 1871 H 179.458 -0.719576 1.53689 0
M  V30 1872 H 178.23 -1.95409 3.39015 0
M  V30 1873 H 177.853 -3.25913 2.27742 0
M  V30 1874 N 178.85 -1.27639 -0.924453 0
M  V30 1875 C 180.096 -1.14336 -1.67497 0
M  V30 1876 C 180.429 0.309465 -1.91718 0
M  V30 1877 O 179.704 1.22608 -1.50989 0
M  V30 1878 C 179.987 -1.93096 -3.0395 0
M  V30 1879 C 179.84 -3.46381 -2.8695 0
M  V30 1880 C 181.159 -1.73798 -4.0433 0
M  V30 1881 H 178.278 -0.416728 -0.607871 0
M  V30 1882 H 180.92 -1.56832 -1.07256 0
M  V30 1883 H 179.07 -1.56982 -3.55372 0
M  V30 1884 H 180.742 -3.92343 -2.42621 0
M  V30 1885 H 178.985 -3.72557 -2.22225 0
M  V30 1886 H 179.656 -3.96735 -3.83804 0
M  V30 1887 H 182.132 -2.05293 -3.61931 0
M  V30 1888 H 181.008 -2.31294 -4.97789 0
M  V30 1889 H 181.269 -0.686725 -4.36734 0
M  V30 1890 N 180.328 1.1314 -1.09713 0
M  V30 1891 C 181.275 2.18642 -0.739196 0
M  V30 1892 C 182.245 1.63706 0.280978 0
M  V30 1893 O 183.43 1.90111 0.161946 0
M  V30 1894 C 180.57 3.44685 -0.169102 0
M  V30 1895 C 179.683 4.13711 -1.24367 0
M  V30 1896 C 178.818 5.27379 -0.636019 0
M  V30 1897 C 177.857 5.88259 -1.69169 0
M  V30 1898 N 176.994 6.93352 -1.10485 0
M  V30 1899 H 181.834 2.48607 -1.64312 0
M  V30 1900 H 179.371 1.22066 -0.820875 0
M  V30 1901 H 181.329 4.16815 0.179256 0
M  V30 1902 H 179.959 3.15161 0.698079 0
M  V30 1903 H 179.011 3.39835 -1.70927 0
M  V30 1904 H 180.323 4.55037 -2.04311 0
M  V30 1905 H 179.477 6.06238 -0.236677 0
M  V30 1906 H 178.216 4.8731 0.194928 0
M  V30 1907 H 177.221 5.08092 -2.10055 0
M  V30 1908 H 178.446 6.30399 -2.52536 0
M  V30 1909 H 176.392 6.55335 -0.295234 0
M  V30 1910 H 176.309 7.33236 -1.84121 0
M  V30 1911 H 177.577 7.76057 -0.73181 0
M  V30 1912 N 181.806 0.884767 1.30421 0
M  V30 1913 C 182.769 0.356277 2.26414 0
M  V30 1914 C 183.769 -0.501124 1.52792 0
M  V30 1915 O 184.959 -0.30831 1.7145 0
M  V30 1916 C 182.091 -0.492316 3.37326 0
M  V30 1917 H 183.284 1.20389 2.74675 0
M  V30 1918 H 180.837 0.661607 1.41607 0
M  V30 1919 H 181.572 -1.36052 2.94381 0
M  V30 1920 H 181.357 0.121832 3.91911 0
M  V30 1921 H 182.847 -0.853871 4.08777 0
M  V30 1922 N 183.284 -1.43765 0.645699 0
M  V30 1923 C 184.7 -1.56509 0.312591 0
M  V30 1924 C 184.9 -1.6307 -1.18365 0
M  V30 1925 O 183.956 -1.58167 -1.96824 0
M  V30 1926 C 185.269 -2.82968 1.01733 0
M  V30 1927 C 186.817 -2.96701 0.996865 0
M  V30 1928 C 187.292 -4.25982 1.68236 0
M  V30 1929 N 188.783 -4.32829 1.64964 0
M  V30 1930 C 189.518 -5.31613 2.14885 0
M  V30 1931 N 189.014 -6.36718 2.73061 0
M  V30 1932 N 190.807 -5.23217 2.05428 0
M  V30 1933 H 182.958 -1.3775 1.61675 0
M  V30 1934 H 185.221 -0.661067 0.679481 0
M  V30 1935 H 184.927 -2.84156 2.0724 0
M  V30 1936 H 184.801 -3.72957 0.564177 0
M  V30 1937 H 187.188 -2.95058 -0.0497719 0
M  V30 1938 H 187.269 -2.08022 1.48865 0
M  V30 1939 H 186.913 -4.28386 2.72852 0
M  V30 1940 H 186.843 -5.13545 1.16529 0
M  V30 1941 H 189.334 -3.57493 1.22503 0
M  V30 1942 H 189.647 -7.08401 3.08848 0
M  V30 1943 H 187.992 -6.37362 2.77118 0
M  V30 1944 H 191.183 -4.40019 1.59689 0
M  V30 1945 H 191.356 -6.00045 2.44643 0
M  V30 1946 N 184.763 -0.387143 -1.52771 0
M  V30 1947 C 185.993 0.195585 -2.05672 0
M  V30 1948 C 186.401 1.41241 -1.25887 0
M  V30 1949 O 185.744 1.81265 -0.298081 0
M  V30 1950 C 185.806 0.632327 -3.53895 0
M  V30 1951 C 185.47 -0.470739 -4.54569 0
M  V30 1952 C 186.467 -1.32746 -5.02667 0
M  V30 1953 C 184.152 -0.637151 -4.98243 0
M  V30 1954 C 186.146 -2.33574 -5.93061 0
M  V30 1955 C 183.833 -1.64877 -5.88438 0
M  V30 1956 C 184.831 -2.49649 -6.35739 0
M  V30 1957 O 184.519 -3.49082 -7.24153 0
M  V30 1958 H 184.251 0.033658 -0.675162 0
M  V30 1959 H 186.805 -0.550221 -1.97893 0
M  V30 1960 H 185.035 1.43008 -3.59285 0
M  V30 1961 H 186.724 1.14048 -3.89548 0
M  V30 1962 H 187.49 -1.21019 -4.69659 0
M  V30 1963 H 183.369 0.0129567 -4.60998 0
M  V30 1964 H 186.913 -2.99777 -6.29904 0
M  V30 1965 H 182.81 -1.76643 -6.2086 0
M  V30 1966 H 183.578 -3.45065 -7.42208 0
M  V30 1967 N 186.241 1.57166 -0.116904 0
M  V30 1968 C 187.518 1.86645 0.585049 0
M  V30 1969 C 187.898 1.0177 1.84949 0
M  V30 1970 O 187.246 0.0960379 2.28298 0
M  V30 1971 C 187.456 3.37736 0.879507 0
M  V30 1972 C 188.804 4.06289 1.23348 0
M  V30 1973 O 189.828 3.42743 0.969836 0
M  V30 1974 O 188.687 5.18455 1.7282 0
M  V30 1975 H 185.781 0.772593 0.295007 0
M  V30 1976 H 188.327 1.69025 -0.151249 0
M  V30 1977 H 187.099 3.91296 -0.0166136 0
M  V30 1978 H 186.722 3.6078 1.67103 0
M  V30 1979 N 187.719 -0.156864 1.56817 0
M  V30 1980 C 188.666 -1.19394 1.97519 0
M  V30 1981 C 189.636 -1.4322 0.841265 0
M  V30 1982 O 190.821 -1.55719 1.10255 0
M  V30 1983 C 187.961 -2.52483 2.35258 0
M  V30 1984 C 187.074 -2.35914 3.61896 0
M  V30 1985 C 186.209 -3.61969 3.88782 0
M  V30 1986 C 185.248 -3.40395 5.08722 0
M  V30 1987 N 184.385 -4.58556 5.31668 0
M  V30 1988 H 189.225 -0.839845 2.85921 0
M  V30 1989 H 186.762 -0.403264 1.41464 0
M  V30 1990 H 188.72 -3.30071 2.55165 0
M  V30 1991 H 187.35 -2.85859 1.49949 0
M  V30 1992 H 186.402 -1.49429 3.49821 0
M  V30 1993 H 187.714 -2.15926 4.49641 0
M  V30 1994 H 186.868 -4.47989 4.09135 0
M  V30 1995 H 185.607 -3.84951 2.9944 0
M  V30 1996 H 184.612 -2.52763 4.88253 0
M  V30 1997 H 185.837 -3.18822 5.99608 0
M  V30 1998 H 183.783 -4.81729 4.45279 0
M  V30 1999 H 183.7 -4.41535 6.13664 0
M  V30 2000 H 184.968 -5.45817 5.5651 0
M  V30 2001 N 189.197 -1.51736 -0.425897 0
M  V30 2002 C 190.446 -1.64201 -1.17136 0
M  V30 2003 C 190.759 -0.369705 -1.92074 0
M  V30 2004 O 191.965 -0.373898 -2.68913 0
M  V30 2005 C 190.421 -2.90035 -2.13091 0
M  V30 2006 C 190.029 -4.24312 -1.43747 0
M  V30 2007 C 191.773 -3.1186 -2.87999 0
M  V30 2008 C 189.68 -5.41285 -2.38253 0
M  V30 2009 H 188.61 -0.611624 -0.440944 0
M  V30 2010 H 191.261 -1.78212 -0.437328 0
M  V30 2011 H 189.643 -2.69684 -2.89977 0
M  V30 2012 H 190.817 -4.55086 -0.723408 0
M  V30 2013 H 189.132 -4.08456 -0.809465 0
M  V30 2014 H 191.729 -3.96427 -3.58817 0
M  V30 2015 H 192.072 -2.25403 -3.49999 0
M  V30 2016 H 192.605 -3.32605 -2.18217 0
M  V30 2017 H 189.344 -6.30037 -1.80925 0
M  V30 2018 H 188.864 -5.14872 -3.0768 0
M  V30 2019 H 190.543 -5.73694 -2.99139 0
M  V30 2020 N 190.675 0.682077 -1.42076 0
M  V30 2021 C 191.622 1.79578 -1.44984 0
M  V30 2022 C 192.592 1.6332 -0.302614 0
M  V30 2023 O 193.777 1.83978 -0.505633 0
M  V30 2024 C 190.917 3.1756 -1.35091 0
M  V30 2025 C 190.03 3.45156 -2.59791 0
M  V30 2026 C 189.165 4.72826 -2.42093 0
M  V30 2027 C 188.204 4.93433 -3.62202 0
M  V30 2028 N 187.341 6.12338 -3.43491 0
M  V30 2029 H 192.181 1.76427 -2.40161 0
M  V30 2030 H 189.718 0.861376 -1.19242 0
M  V30 2031 H 191.676 3.97287 -1.27354 0
M  V30 2032 H 190.306 3.19854 -0.435133 0
M  V30 2033 H 189.358 2.59736 -2.77923 0
M  V30 2034 H 190.67 3.5628 -3.49094 0
M  V30 2035 H 189.824 5.60631 -2.319 0
M  V30 2036 H 188.563 4.63973 -1.50268 0
M  V30 2037 H 187.568 4.04073 -3.72834 0
M  V30 2038 H 188.793 5.04136 -4.54998 0
M  V30 2039 H 186.739 6.04672 -2.54377 0
M  V30 2040 H 186.656 6.2429 -4.26377 0
M  V30 2041 H 187.924 7.02841 -3.37097 0
M  V30 2042 N 192.153 1.28127 0.917671 0
M  V30 2043 C 193.401 1.14825 1.66312 0
M  V30 2044 C 193.722 -0.304379 1.9261 0
M  V30 2045 O 192.992 -1.21149 1.53947 0
M  V30 2046 H 191.572 0.421953 0.616413 0
M  V30 2047 H 194.234 1.608 1.10134 0
M  V30 2048 H 193.33 1.68489 2.62712 0
M  V30 2049 N 193.631 -1.12557 1.10312 0
M  V30 2050 C 194.856 -1.88405 0.867085 0
M  V30 2051 C 195.281 -1.79038 -0.576817 0
M  V30 2052 O 194.639 -1.14439 -1.40618 0
M  V30 2053 C 194.687 -3.3563 1.31851 0
M  V30 2054 O 193.791 -4.09565 0.482734 0
M  V30 2055 H 193.132 -0.585455 0.313271 0
M  V30 2056 H 195.662 -1.42352 1.4696 0
M  V30 2057 H 195.672 -3.86469 1.3079 0
M  V30 2058 H 194.347 -3.41765 2.37001 0
M  V30 2059 H 192.924 -3.68695 0.558448 0
M  V30 2060 N 195.109 -0.891671 -1.2995 0
M  V30 2061 C 196.072 -0.36828 -2.26222 0
M  V30 2062 C 197.072 0.493014 -1.53056 0
M  V30 2063 O 198.262 0.299213 -1.71611 0
M  V30 2064 C 195.394 0.47442 -3.37583 0
M  V30 2065 H 196.587 -1.21844 -2.74033 0
M  V30 2066 H 194.14 -0.669107 -1.41254 0
M  V30 2067 H 194.875 1.34489 -2.95099 0
M  V30 2068 H 194.66 -0.142615 -3.91841 0
M  V30 2069 H 196.15 0.83218 -4.09224 0
M  V30 2070 N 196.587 1.43421 -0.653314 0
M  V30 2071 C 197.833 2.02111 -0.166992 0
M  V30 2072 C 198.166 1.51423 1.21592 0
M  V30 2073 O 197.441 0.707389 1.8118 0
M  V30 2074 C 197.724 3.5966 -0.177948 0
M  V30 2075 C 197.577 4.20579 -1.59478 0
M  V30 2076 C 198.896 4.37413 0.4856 0
M  V30 2077 H 196.015 0.734374 -0.0621557 0
M  V30 2078 H 198.657 1.70717 -0.834016 0
M  V30 2079 H 196.807 3.86537 0.390032 0
M  V30 2080 H 198.479 4.04732 -2.21336 0
M  V30 2081 H 196.722 3.77226 -2.14204 0
M  V30 2082 H 197.393 5.29665 -1.5543 0
M  V30 2083 H 199.869 4.161 0.00234528 0
M  V30 2084 H 198.745 5.47075 0.447207 0
M  V30 2085 H 199.006 4.13672 1.55974 0
M  V30 2086 N 198.065 0.39524 1.52563 0
M  V30 2087 C 199.013 -0.451859 2.28169 0
M  V30 2088 C 200.007 -1.05792 1.32304 0
M  V30 2089 O 201.213 -0.997718 1.49818 0
M  V30 2090 H 197.588 -0.164481 0.733792 0
M  V30 2091 H 199.559 0.207199 2.9768 0
M  V30 2092 C 198.308 -1.56385 3.10546 0
M  V30 2093 H 197.631 -1.10682 3.84174 0
M  V30 2094 H 199.071 -2.13067 3.66577 0
M  V30 2095 C 197.53 -2.52328 2.23231 0
M  V30 2096 O 198.06 -3.5588 1.86312 0
M  V30 2097 N 196.266 -2.22209 1.87274 0
M  V30 2098 H 195.813 -1.38033 2.17496 0
M  V30 2099 H 195.771 -2.86652 1.29143 0
M  V30 2100 N 199.544 -1.57102 0.125237 0
M  V30 2101 C 200.955 -1.82384 -0.399142 0
M  V30 2102 C 201.306 -1.04276 -1.66195 0
M  V30 2103 O 200.431 -0.281269 -2.14564 0
M  V30 2104 C 201.026 -3.30821 -0.730932 0
M  V30 2105 C 199.585 -3.56762 -1.19992 0
M  V30 2106 C 198.732 -2.7649 -0.211792 0
M  V30 2107 H 201.683 -1.54786 0.350277 0
M  V30 2108 H 201.704 -3.4579 -1.58775 0
M  V30 2109 H 201.216 -3.87643 0.188345 0
M  V30 2110 H 199.317 -3.05305 -2.13588 0
M  V30 2111 H 199.43 -4.65317 -1.14093 0
M  V30 2112 H 197.794 -2.4489 -0.700085 0
M  V30 2113 H 198.577 -3.36073 0.700691 0
M  V30 2114 N 201.022 0.148545 -1.56898 0
M  V30 2115 C 202.268 0.862694 -1.83536 0
M  V30 2116 C 202.601 1.80889 -0.706604 0
M  V30 2117 O 201.876 1.92328 0.289885 0
M  V30 2118 C 202.159 1.63853 -3.20662 0
M  V30 2119 C 202.012 0.713925 -4.44098 0
M  V30 2120 C 203.331 2.60133 -3.54991 0
M  V30 2121 H 200.45 0.312179 -0.667618 0
M  V30 2122 H 203.092 0.127953 -1.89569 0
M  V30 2123 H 201.242 2.26489 -3.1565 0
M  V30 2124 H 202.914 0.098686 -4.61194 0
M  V30 2125 H 201.157 0.0234019 -4.33794 0
M  V30 2126 H 201.828 1.29278 -5.36648 0
M  V30 2127 H 204.304 2.07616 -3.60603 0
M  V30 2128 H 203.18 3.11468 -4.51972 0
M  V30 2129 H 203.441 3.41417 -2.80868 0
M  V30 2130 N 202.5 1.5196 0.417844 0
M  V30 2131 C 203.43 1.77634 1.51554 0
M  V30 2132 C 204.411 0.626918 1.58126 0
M  V30 2133 O 205.596 0.871632 1.7354 0
M  V30 2134 C 202.726 1.91911 2.8946 0
M  V30 2135 C 201.68 3.07463 2.97743 0
M  V30 2136 C 201.006 3.06951 4.37819 0
M  V30 2137 C 202.306 4.47082 2.70027 0
M  V30 2138 H 204 2.6955 1.3032 0
M  V30 2139 H 201.546 1.29706 0.625492 0
M  V30 2140 H 203.499 2.08455 3.6623 0
M  V30 2141 H 202.223 0.966598 3.11969 0
M  V30 2142 H 200.882 2.90656 2.23416 0
M  V30 2143 H 200.53 2.09438 4.57323 0
M  V30 2144 H 200.23 3.84556 4.44286 0
M  V30 2145 H 201.754 3.25613 5.16535 0
M  V30 2146 H 203.168 4.6414 3.36522 0
M  V30 2147 H 201.565 5.2654 2.87881 0
M  V30 2148 H 202.635 4.55777 1.65514 0
M  V30 2149 N 203.978 -0.674533 1.42435 0
M  V30 2150 C 205.394 -0.98769 1.25367 0
M  V30 2151 C 205.594 -2.00879 0.158044 0
M  V30 2152 O 204.65 -2.48075 -0.470633 0
M  V30 2153 C 205.963 -1.49224 2.6106 0
M  V30 2154 C 207.511 -1.61 2.68417 0
M  V30 2155 C 207.986 -2.14852 4.04478 0
M  V30 2156 N 209.477 -2.22185 4.06434 0
M  V30 2157 C 210.212 -2.64928 5.08528 0
M  V30 2158 N 209.708 -3.07121 6.21006 0
M  V30 2159 N 211.501 -2.64679 4.95885 0
M  V30 2160 H 203.652 0.00152503 2.124 0
M  V30 2161 H 205.915 -0.0618434 0.945981 0
M  V30 2162 H 205.621 -0.816453 3.42092 0
M  V30 2163 H 205.495 -2.47094 2.84999 0
M  V30 2164 H 207.882 -2.27686 1.87732 0
M  V30 2165 H 207.963 -0.616195 2.48267 0
M  V30 2166 H 207.607 -1.48775 4.85622 0
M  V30 2167 H 207.537 -3.15024 4.2198 0
M  V30 2168 H 210.028 -1.92435 3.25234 0
M  V30 2169 H 210.341 -3.38423 6.94759 0
M  V30 2170 H 208.686 -3.04978 6.24511 0
M  V30 2171 H 211.877 -2.31078 4.07088 0
M  V30 2172 H 212.05 -2.9767 5.75584 0
M  V30 2173 N 205.456 -1.28612 -0.910864 0
M  V30 2174 C 206.366 -1.14643 -2.0468 0
M  V30 2175 C 207.382 -0.0723121 -1.7385 0
M  V30 2176 O 208.558 -0.282178 -1.99413 0
M  V30 2177 C 205.623 -0.812561 -3.37044 0
M  V30 2178 C 204.684 -1.96935 -3.81465 0
M  V30 2179 C 203.917 -1.65131 -5.07511 0
M  V30 2180 O 204.14 -0.567013 -5.67575 0
M  V30 2181 O 203.074 -2.49585 -5.47714 0
M  V30 2182 H 206.9 -2.1001 -2.19384 0
M  V30 2183 H 204.485 -1.07958 -1.03274 0
M  V30 2184 H 206.367 -0.640441 -4.16505 0
M  V30 2185 H 205.042 0.111426 -3.23508 0
M  V30 2186 H 203.949 -2.19664 -3.02818 0
M  V30 2187 H 205.282 -2.87414 -3.99567 0
M  V30 2188 N 206.934 1.1197 -1.10907 0
M  V30 2189 C 208.182 1.83225 -0.852819 0
M  V30 2190 C 208.503 1.84769 0.623341 0
M  V30 2191 O 207.773 1.3143 1.45269 0
M  V30 2192 H 206.353 0.67849 -0.312507 0
M  V30 2193 H 209.015 1.3556 -1.40033 0
M  V30 2194 H 208.111 2.87265 -1.22005 0
M  V30 2195 N 208.412 0.89855 1.29475 0
M  V30 2196 C 209.36 0.365253 2.29714 0
M  V30 2197 C 210.354 -0.534993 1.6073 0
M  V30 2198 O 211.56 -0.417921 1.75081 0
M  V30 2199 H 207.935 0.0994853 0.74539 0
M  V30 2200 H 209.906 1.22406 2.72138 0
M  V30 2201 C 208.655 -0.393159 3.4547 0
M  V30 2202 H 207.978 0.290332 3.98744 0
M  V30 2203 H 209.418 -0.731189 4.17648 0
M  V30 2204 C 207.877 -1.59539 2.9673 0
M  V30 2205 O 208.407 -2.69469 2.97908 0
M  V30 2206 N 206.613 -1.43716 2.52575 0
M  V30 2207 H 206.16 -0.542828 2.51816 0
M  V30 2208 H 206.118 -2.24288 2.20323 0
M  V30 2209 N 209.89 -1.43072 0.660911 0
M  V30 2210 C 211.115 -2.06584 0.183805 0
M  V30 2211 C 211.54 -1.49257 -1.14472 0
M  V30 2212 O 210.898 -0.605528 -1.70889 0
M  V30 2213 C 210.946 -3.60418 0.114434 0
M  V30 2214 O 210.05 -4.01981 -0.921137 0
M  V30 2215 H 209.391 -0.656669 0.0983994 0
M  V30 2216 H 211.921 -1.83447 0.906006 0
M  V30 2217 H 211.931 -4.07946 -0.0663394 0
M  V30 2218 H 210.606 -4.01519 1.08422 0
M  V30 2219 H 209.183 -3.66029 -0.71253 0
M  V30 2220 N 211.368 -0.403325 -1.52352 0
M  V30 2221 C 212.645 0.232611 -1.94212 0
M  V30 2222 C 213.025 1.63133 -1.33981 0
M  V30 2223 O 212.373 2.22659 -0.513344 0
M  V30 2224 C 212.583 0.244811 -3.4814 0
M  V30 2225 C 213.931 0.46698 -4.22024 0
M  V30 2226 O 214.955 0.324419 -3.5472 0
M  V30 2227 O 213.814 0.74747 -5.41364 0
M  V30 2228 H 210.908 0.148223 -0.813609 0
M  V30 2229 H 213.454 -0.458848 -1.63379 0
M  V30 2230 H 212.226 -0.734378 -3.84347 0
M  V30 2231 H 211.849 0.980611 -3.85318 0
M  V30 2232 N 212.846 1.57033 -0.133567 0
M  V30 2233 C 214.262 1.58035 0.222944 0
M  V30 2234 C 214.462 1.14713 1.6566 0
M  V30 2235 O 213.518 0.841218 2.38075 0
M  V30 2236 C 214.831 3.00691 -0.0236116 0
M  V30 2237 C 216.379 3.12973 0.0411512 0
M  V30 2238 C 216.854 4.57654 -0.177899 0
M  V30 2239 N 218.345 4.63033 -0.124365 0
M  V30 2240 C 219.08 5.72771 -0.268553 0
M  V30 2241 N 218.576 6.91206 -0.46972 0
M  V30 2242 N 220.369 5.61718 -0.2071 0
M  V30 2243 H 212.52 1.8349 -1.06981 0
M  V30 2244 H 214.783 0.848677 -0.422436 0
M  V30 2245 H 214.489 3.36726 -1.0153 0
M  V30 2246 H 214.363 3.70614 0.701808 0
M  V30 2247 H 216.75 2.76787 1.02338 0
M  V30 2248 H 216.831 2.45564 -0.716383 0
M  V30 2249 H 216.475 4.94542 -1.15717 0
M  V30 2250 H 216.405 5.23173 0.599797 0
M  V30 2251 H 218.896 3.7789 0.027011 0
M  V30 2252 H 219.209 7.70693 -0.570212 0
M  V30 2253 H 217.554 6.93156 -0.505876 0
M  V30 2254 H 220.745 4.68072 -0.0507986 0
M  V30 2255 H 220.918 6.47195 -0.322909 0
M  V30 2256 N 214.325 -0.140222 1.56975 0
M  V30 2257 C 215.741 -0.493088 1.51792 0
M  V30 2258 C 215.941 -1.83013 0.843116 0
M  V30 2259 O 214.997 -2.49041 0.416493 0
M  V30 2260 C 216.31 -0.497144 2.96562 0
M  V30 2261 C 217.858 -0.582186 3.07538 0
M  V30 2262 C 218.333 -0.616838 4.53827 0
M  V30 2263 N 219.824 -0.678873 4.58198 0
M  V30 2264 C 220.559 -0.726782 5.68775 0
M  V30 2265 N 220.055 -0.733623 6.88905 0
M  V30 2266 N 221.848 -0.768179 5.56826 0
M  V30 2267 H 213.999 0.736108 1.99237 0
M  V30 2268 H 216.262 0.269182 0.90898 0
M  V30 2269 H 215.968 0.417217 3.49217 0
M  V30 2270 H 215.842 -1.33263 3.52875 0
M  V30 2271 H 218.229 -1.48697 2.54899 0
M  V30 2272 H 218.31 0.280581 2.54257 0
M  V30 2273 H 217.954 0.283812 5.07106 0
M  V30 2274 H 217.884 -1.49619 5.04898 0
M  V30 2275 H 220.375 -0.68061 3.7172 0
M  V30 2276 H 220.688 -0.772215 7.68932 0
M  V30 2277 H 219.033 -0.701389 6.91452 0
M  V30 2278 H 222.224 -0.760051 4.61888 0
M  V30 2279 H 222.397 -0.80205 6.43017 0
M  V30 2280 N 215.803 -1.52179 -0.40978 0
M  V30 2281 C 216.766 -1.74853 -1.48186 0
M  V30 2282 C 217.766 -0.618417 -1.48433 0
M  V30 2283 O 218.956 -0.886286 -1.49969 0
M  V30 2284 C 216.088 -1.8303 -2.87598 0
M  V30 2285 H 217.281 -2.70559 -1.29374 0
M  V30 2286 H 214.834 -1.42586 -0.640233 0
M  V30 2287 H 215.569 -0.89236 -3.11781 0
M  V30 2288 H 215.354 -2.65187 -2.88822 0
M  V30 2289 H 216.844 -2.02316 -3.65319 0
M  V30 2290 N 217.281 0.66697 -1.42791 0
M  V30 2291 C 218.692 1.2478 -1.38877 0
M  V30 2292 C 219.043 1.96012 -0.0859426 0
M  V30 2293 O 218.168 2.00463 0.815081 0
M  V30 2294 C 218.763 2.26938 -2.51564 0
M  V30 2295 C 217.322 2.80529 -2.50959 0
M  V30 2296 C 216.469 1.54965 -2.29959 0
M  V30 2297 H 219.42 0.459853 -1.51892 0
M  V30 2298 H 219.441 3.08834 -2.22265 0
M  V30 2299 H 218.953 1.75065 -3.46372 0
M  V30 2300 H 217.054 3.36502 -1.59991 0
M  V30 2301 H 217.167 3.29012 -3.48265 0
M  V30 2302 H 215.531 1.81817 -1.78366 0
M  V30 2303 H 216.314 1.05047 -3.26833 0
M  V30 2304 N 218.759 1.29093 0.90403 0
M  V30 2305 C 219.689 1.16401 2.02418 0
M  V30 2306 C 220.67 0.0593085 1.69997 0
M  V30 2307 O 221.855 0.238021 1.92736 0
M  V30 2308 C 218.985 0.835233 3.37107 0
M  V30 2309 C 217.939 1.89578 3.83724 0
M  V30 2310 C 217.265 1.42041 5.15489 0
M  V30 2311 C 218.565 3.30394 4.04521 0
M  V30 2312 H 220.259 2.10109 2.13295 0
M  V30 2313 H 217.805 1.01157 1.02486 0
M  V30 2314 H 219.758 0.733169 4.14973 0
M  V30 2315 H 218.482 -0.137543 3.2631 0
M  V30 2316 H 217.141 1.98715 3.08071 0
M  V30 2317 H 216.789 0.436426 5.01103 0
M  V30 2318 H 216.489 2.12964 5.4765 0
M  V30 2319 H 218.013 1.33176 5.959 0
M  V30 2320 H 219.427 3.24123 4.72882 0
M  V30 2321 H 217.824 3.99237 4.48029 0
M  V30 2322 H 218.894 3.73692 3.09002 0
M  V30 2323 N 220.237 -1.11381 1.11499 0
M  V30 2324 C 221.462 -1.87475 0.887019 0
M  V30 2325 C 221.887 -1.79639 -0.557796 0
M  V30 2326 O 221.245 -1.15924 -1.39396 0
M  V30 2327 C 221.293 -3.34213 1.35403 0
M  V30 2328 O 220.397 -4.0903 0.526146 0
M  V30 2329 H 219.738 -0.582099 0.319463 0
M  V30 2330 H 222.268 -1.40785 1.48461 0
M  V30 2331 H 222.278 -3.8506 1.34881 0
M  V30 2332 H 220.953 -3.39232 2.40612 0
M  V30 2333 H 219.53 -3.68082 0.597522 0
M  V30 2334 N 221.715 -0.905404 -1.28997 0
M  V30 2335 C 222.961 -0.535039 -1.95615 0
M  V30 2336 C 223.294 0.917404 -1.71165 0
M  V30 2337 O 222.569 1.65123 -1.02785 0
M  V30 2338 C 222.852 -0.834918 -3.50287 0
M  V30 2339 C 222.705 -2.33948 -3.84172 0
M  V30 2340 C 224.024 -0.325318 -4.38896 0
M  V30 2341 H 221.143 -0.195861 -0.710498 0
M  V30 2342 H 223.785 -1.13313 -1.52513 0
M  V30 2343 H 221.935 -0.325904 -3.87131 0
M  V30 2344 H 223.607 -2.91847 -3.57243 0
M  V30 2345 H 221.85 -2.79789 -3.31513 0
M  V30 2346 H 222.521 -2.49987 -4.92149 0
M  V30 2347 H 224.997 -0.761256 -4.09077 0
M  V30 2348 H 223.873 -0.564295 -5.45992 0
M  V30 2349 H 224.134 0.774144 -4.35269 0
M  V30 2350 N 223.193 1.4272 -0.668489 0
M  V30 2351 C 224.14 2.30796 0.0137489 0
M  V30 2352 C 225.11 1.4561 0.799177 0
M  V30 2353 O 226.295 1.74453 0.772702 0
M  V30 2354 C 223.435 3.31377 0.963507 0
M  V30 2355 C 222.548 4.31655 0.172569 0
M  V30 2356 C 221.683 5.19312 1.1175 0
M  V30 2357 C 220.722 6.11274 0.317886 0
M  V30 2358 N 219.859 6.91504 1.2152 0
M  V30 2359 H 224.699 2.88585 -0.743161 0
M  V30 2360 H 222.236 1.42154 -0.378226 0
M  V30 2361 H 224.194 3.88214 1.52792 0
M  V30 2362 H 222.824 2.75202 1.68712 0
M  V30 2363 H 221.876 3.76988 -0.508374 0
M  V30 2364 H 223.188 4.96779 -0.448527 0
M  V30 2365 H 222.342 5.80851 1.75206 0
M  V30 2366 H 221.081 4.5435 1.77249 0
M  V30 2367 H 220.086 5.48809 -0.329918 0
M  V30 2368 H 221.311 6.78283 -0.332917 0
M  V30 2369 H 219.257 6.29176 1.85671 0
M  V30 2370 H 219.174 7.53209 0.649036 0
M  V30 2371 H 220.442 7.57535 1.83742 0
M  V30 2372 N 224.671 0.411399 1.52136 0
M  V30 2373 C 225.619 -0.427633 2.28635 0
M  V30 2374 C 226.613 -1.04383 1.33419 0
M  V30 2375 O 227.819 -0.981772 1.50868 0
M  V30 2376 H 224.194 -0.156689 0.735495 0
M  V30 2377 H 226.165 0.238761 2.97443 0
M  V30 2378 C 224.914 -1.53082 3.12188 0
M  V30 2379 H 224.237 -1.06601 3.85326 0
M  V30 2380 H 225.677 -2.09167 3.68816 0
M  V30 2381 C 224.136 -2.49946 2.25895 0
M  V30 2382 O 224.666 -3.53884 1.90076 0
M  V30 2383 N 222.872 -2.2021 1.8962 0
M  V30 2384 H 222.419 -1.35719 2.18948 0
M  V30 2385 H 222.377 -2.85266 1.32176 0
M  V30 2386 N 226.149 -1.5696 0.141893 0
M  V30 2387 C 227.379 -2.00031 -0.516828 0
M  V30 2388 C 227.787 -1.02091 -1.59293 0
M  V30 2389 O 227.13 -0.00909657 -1.83698 0
M  V30 2390 C 227.192 -3.39534 -1.1814 0
M  V30 2391 C 226.856 -4.56313 -0.250513 0
M  V30 2392 C 227.853 -5.17295 0.519839 0
M  V30 2393 C 225.538 -5.02061 -0.154907 0
M  V30 2394 C 227.532 -6.2243 1.3733 0
M  V30 2395 C 225.219 -6.07053 0.702161 0
M  V30 2396 C 226.217 -6.67106 1.46487 0
M  V30 2397 O 225.905 -7.70066 2.30767 0
M  V30 2398 H 225.637 -0.661451 -0.139493 0
M  V30 2399 H 228.191 -2.04086 0.231926 0
M  V30 2400 H 226.421 -3.32302 -1.97769 0
M  V30 2401 H 228.11 -3.66745 -1.73933 0
M  V30 2402 H 228.876 -4.82852 0.45598 0
M  V30 2403 H 224.755 -4.5505 -0.7383 0
M  V30 2404 H 228.299 -6.69233 1.96909 0
M  V30 2405 H 224.196 -6.40923 0.76733 0
M  V30 2406 H 224.964 -7.87264 2.23959 0
M  V30 2407 N 227.627 0.131896 -1.57047 0
M  V30 2408 C 228.59 1.14638 -1.98471 0
M  V30 2409 C 229.59 1.35029 -0.873148 0
M  V30 2410 O 230.78 1.31764 -1.13946 0
M  V30 2411 C 227.912 2.50358 -2.31373 0
M  V30 2412 H 229.105 0.79064 -2.8929 0
M  V30 2413 H 226.658 0.375761 -1.51716 0
M  V30 2414 H 227.393 2.90876 -1.43393 0
M  V30 2415 H 227.178 2.36915 -3.12432 0
M  V30 2416 H 228.668 3.23395 -2.64207 0
M  V30 2417 N 229.106 1.52395 0.401703 0
M  V30 2418 C 230.522 1.41363 0.740864 0
M  V30 2419 C 230.722 0.523982 1.94568 0
M  V30 2420 O 229.778 -0.00741204 2.52499 0
M  V30 2421 C 231.091 2.84011 0.987847 0
M  V30 2422 C 232.639 2.93404 1.09011 0
M  V30 2423 C 233.114 4.37036 1.3698 0
M  V30 2424 N 234.605 4.40304 1.43829 0
M  V30 2425 C 235.34 5.48508 1.67112 0
M  V30 2426 N 234.836 6.66819 1.87949 0
M  V30 2427 N 236.629 5.36034 1.69187 0
M  V30 2428 H 228.78 2.08765 -0.391262 0
M  V30 2429 H 231.043 0.941265 -0.112798 0
M  V30 2430 H 230.749 3.51265 0.174835 0
M  V30 2431 H 230.623 3.25502 1.906 0
M  V30 2432 H 233.01 2.26325 1.8937 0
M  V30 2433 H 233.091 2.55359 0.15015 0
M  V30 2434 H 232.735 5.04676 0.571353 0
M  V30 2435 H 232.665 4.72623 2.3224 0
M  V30 2436 H 235.156 3.55024 1.29486 0
M  V30 2437 H 235.469 7.45063 2.05185 0
M  V30 2438 H 233.814 6.6987 1.85199 0
M  V30 2439 H 237.005 4.42579 1.52451 0
M  V30 2440 H 237.178 6.20434 1.86993 0
M  V30 2441 N 230.584 -0.659388 1.43143 0
M  V30 2442 C 231.531 -1.77249 1.47822 0
M  V30 2443 C 232.501 -1.62818 0.328558 0
M  V30 2444 O 233.686 -1.83151 0.534838 0
M  V30 2445 C 230.826 -3.15371 1.40126 0
M  V30 2446 C 229.939 -3.4098 2.65249 0
M  V30 2447 C 229.074 -4.68915 2.49584 0
M  V30 2448 C 228.113 -4.87608 3.70006 0
M  V30 2449 N 227.25 -6.06796 3.53189 0
M  V30 2450 H 232.09 -1.72584 2.42938 0
M  V30 2451 H 229.627 -0.842297 1.20598 0
M  V30 2452 H 231.585 -3.9521 1.33659 0
M  V30 2453 H 230.215 -3.19121 0.485964 0
M  V30 2454 H 229.267 -2.55282 2.8202 0
M  V30 2455 H 230.579 -3.50681 3.54717 0
M  V30 2456 H 229.733 -5.56871 2.4079 0
M  V30 2457 H 228.472 -4.61524 1.5763 0
M  V30 2458 H 227.477 -3.9809 3.79215 0
M  V30 2459 H 228.702 -4.96834 4.62961 0
M  V30 2460 H 226.648 -6.00549 2.63965 0
M  V30 2461 H 226.565 -6.17428 4.36255 0
M  V30 2462 H 227.833 -6.9739 3.48236 0
M  V30 2463 N 232.062 -1.29571 -0.897171 0
M  V30 2464 C 233.012 -1.11539 -1.98855 0
M  V30 2465 C 233.996 -0.0340716 -1.60864 0
M  V30 2466 O 235.188 -0.256062 -1.75138 0
M  V30 2467 C 232.317 -0.796603 -3.3393 0
M  V30 2468 C 231.403 -1.91758 -3.78272 0
M  V30 2469 N 231.794 -3.16143 -3.94826 0
M  V30 2470 C 230.092 -1.81119 -4.07568 0
M  V30 2471 C 230.793 -3.89293 -4.32233 0
M  V30 2472 N 229.769 -3.17255 -4.41419 0
M  V30 2473 H 233.571 -2.05894 -2.09726 0
M  V30 2474 H 231.085 -1.20732 -1.08616 0
M  V30 2475 H 233.082 -0.648459 -4.11826 0
M  V30 2476 H 231.742 0.139003 -3.24402 0
M  V30 2477 H 232.753 -3.5157 -3.80288 0
M  V30 2478 H 229.43 -0.948461 -4.06584 0
M  V30 2479 H 230.82 -4.9635 -4.52865 0
M  V30 2480 N 233.54 1.10788 -1.12088 0
M  V30 2481 C 234.951 1.64181 -0.88891 0
M  V30 2482 C 235.302 1.87508 0.577498 0
M  V30 2483 O 234.427 1.61434 1.44112 0
M  V30 2484 C 235.022 2.98257 -1.60712 0
M  V30 2485 C 233.581 3.4853 -1.42139 0
M  V30 2486 C 232.728 2.23208 -1.6454 0
M  V30 2487 H 235.679 0.943368 -1.27618 0
M  V30 2488 H 235.7 3.65552 -1.05604 0
M  V30 2489 H 235.212 2.81246 -2.67436 0
M  V30 2490 H 233.313 3.70692 -0.376552 0
M  V30 2491 H 233.426 4.26882 -2.17505 0
M  V30 2492 H 231.79 2.31169 -1.06925 0
M  V30 2493 H 232.573 2.08733 -2.72554 0
M  V30 2494 N 235.018 0.912232 1.28515 0
M  V30 2495 C 235.968 0.370649 2.24967 0
M  V30 2496 C 236.952 -0.516375 1.52389 0
M  V30 2497 O 238.144 -0.356345 1.73376 0
M  V30 2498 C 235.273 -0.389526 3.41083 0
M  V30 2499 C 234.359 0.51313 4.20984 0
M  V30 2500 N 234.75 1.62604 4.78951 0
M  V30 2501 C 233.048 0.313235 4.44899 0
M  V30 2502 C 233.749 2.18619 5.39055 0
M  V30 2503 N 232.725 1.47765 5.23132 0
M  V30 2504 H 236.527 1.22061 2.67354 0
M  V30 2505 H 234.041 0.764712 1.43269 0
M  V30 2506 H 236.038 -0.794353 4.09262 0
M  V30 2507 H 234.698 -1.2366 3.0023 0
M  V30 2508 H 235.709 2.00864 4.77362 0
M  V30 2509 H 232.386 -0.494452 4.14562 0
M  V30 2510 H 233.776 3.12228 5.94948 0
M  V30 2511 N 236.496 -1.42363 0.676048 0
M  V30 2512 C 237.443 -2.308 -0.00150904 0
M  V30 2513 C 238.413 -1.46032 -0.791444 0
M  V30 2514 O 239.598 -1.74861 -0.76344 0
M  V30 2515 C 236.738 -3.31883 -0.945919 0
M  V30 2516 C 235.851 -4.31741 -0.149675 0
M  V30 2517 C 234.986 -5.19898 -1.08995 0
M  V30 2518 C 234.025 -6.11434 -0.285465 0
M  V30 2519 N 233.162 -6.92138 -1.17851 0
M  V30 2520 H 238.002 -2.88187 0.758455 0
M  V30 2521 H 235.539 -1.41952 0.38576 0
M  V30 2522 H 237.497 -3.89019 -1.50731 0
M  V30 2523 H 236.127 -2.76093 -1.6725 0
M  V30 2524 H 235.179 -3.76713 0.528359 0
M  V30 2525 H 236.491 -4.96534 0.474866 0
M  V30 2526 H 235.645 -5.81772 -1.72123 0
M  V30 2527 H 234.384 -4.55284 -1.74837 0
M  V30 2528 H 233.389 -5.48627 0.359018 0
M  V30 2529 H 234.614 -6.78097 0.368883 0
M  V30 2530 H 232.56 -6.30152 -1.82332 0
M  V30 2531 H 232.477 -7.53542 -0.609082 0
M  V30 2532 H 233.745 -7.58499 -1.79722 0
M  V30 2533 N 237.974 -0.419461 -1.51915 0
M  V30 2534 C 238.907 0.445751 -2.23804 0
M  V30 2535 C 239.885 1.03951 -1.25031 0
M  V30 2536 O 241.069 1.08541 -1.54114 0
M  V30 2537 C 238.196 1.61964 -2.97465 0
M  V30 2538 C 237.242 1.14828 -4.10751 0
M  V30 2539 S 238.075 0.104938 -5.35397 0
M  V30 2540 C 239.231 1.28391 -6.1259 0
M  V30 2541 H 239.464 -0.164627 -2.96844 0
M  V30 2542 H 236.997 -0.203833 -1.53049 0
M  V30 2543 H 238.955 2.29271 -3.40507 0
M  V30 2544 H 237.616 2.20139 -2.24048 0
M  V30 2545 H 236.809 2.02561 -4.61503 0
M  V30 2546 H 236.411 0.553712 -3.69878 0
M  V30 2547 H 238.703 2.20563 -6.40592 0
M  V30 2548 H 239.646 0.816724 -7.03374 0
M  V30 2549 H 240.054 1.51439 -5.43807 0
M  V30 2550 N 239.452 1.56882 -0.150215 0
M  V30 2551 C 240.7 1.9584 0.499105 0
M  V30 2552 C 241.021 1.03623 1.65188 0
M  V30 2553 O 240.291 0.0984084 1.95653 0
M  V30 2554 H 238.871 0.723119 0.187373 0
M  V30 2555 H 241.533 1.9358 -0.226466 0
M  V30 2556 H 240.629 2.99638 0.873122 0
M  V30 2557 N 240.93 -0.123565 1.57115 0
M  V30 2558 C 241.893 -1.13583 1.99076 0
M  V30 2559 C 242.893 -1.34564 0.880296 0
M  V30 2560 O 244.083 -1.31158 1.14644 0
M  V30 2561 C 241.215 -2.49128 2.32698 0
M  V30 2562 H 242.408 -0.775287 2.89706 0
M  V30 2563 H 239.961 -0.36771 1.51913 0
M  V30 2564 H 240.696 -2.90111 1.44934 0
M  V30 2565 H 240.481 -2.35255 3.13684 0
M  V30 2566 H 241.971 -3.2199 2.65918 0
M  V30 2567 N 242.408 -1.52605 -0.393616 0
M  V30 2568 C 243.654 -1.68624 -1.13743 0
M  V30 2569 C 244.009 -0.418687 -1.87789 0
M  V30 2570 O 243.302 0.58747 -1.82371 0
M  V30 2571 C 243.496 -2.85721 -2.14705 0
M  V30 2572 C 243.325 -4.23742 -1.50575 0
M  V30 2573 C 242.095 -4.89033 -1.2718 0
M  V30 2574 C 244.293 -5.05293 -0.958311 0
M  V30 2575 N 242.275 -6.11048 -0.591058 0
M  V30 2576 C 243.646 -6.18673 -0.405367 0
M  V30 2577 C 245.701 -4.90517 -0.854274 0
M  V30 2578 C 244.404 -7.18895 0.241434 0
M  V30 2579 C 246.43 -5.90986 -0.221301 0
M  V30 2580 C 245.792 -7.03669 0.320894 0
M  V30 2581 H 241.891 -0.670556 -0.402342 0
M  V30 2582 H 244.475 -1.89946 -0.427607 0
M  V30 2583 H 242.646 -2.65987 -2.83029 0
M  V30 2584 H 244.378 -2.90699 -2.8156 0
M  V30 2585 H 241.133 -4.47672 -1.54554 0
M  V30 2586 H 241.557 -6.76474 -0.266862 0
M  V30 2587 H 246.199 -4.03612 -1.25926 0
M  V30 2588 H 243.917 -8.05413 0.658448 0
M  V30 2589 H 247.503 -5.81626 -0.142111 0
M  V30 2590 H 246.383 -7.80078 0.802956 0
M  V30 2591 N 243.887 0.651787 -1.4349 0
M  V30 2592 C 245.112 1.44434 -1.48841 0
M  V30 2593 C 245.537 1.8779 -0.107955 0
M  V30 2594 O 244.895 1.57464 0.898602 0
M  V30 2595 C 244.943 2.65458 -2.44059 0
M  V30 2596 O 244.047 3.64566 -1.92784 0
M  V30 2597 H 243.388 0.433005 -0.503391 0
M  V30 2598 H 245.918 0.797451 -1.88419 0
M  V30 2599 H 245.928 3.13255 -2.6141 0
M  V30 2600 H 244.603 2.33244 -3.4434 0
M  V30 2601 H 243.18 3.23716 -1.851 0
M  V30 2602 N 245.365 1.30045 0.890287 0
M  V30 2603 C 246.328 1.15963 1.977 0
M  V30 2604 C 247.328 0.0923777 1.60534 0
M  V30 2605 O 248.518 0.340071 1.70848 0
M  V30 2606 C 245.65 0.775451 3.31963 0
M  V30 2607 H 246.843 2.12502 2.11619 0
M  V30 2608 H 244.396 1.13366 1.07601 0
M  V30 2609 H 245.131 -0.189671 3.23745 0
M  V30 2610 H 244.916 1.54668 3.60306 0
M  V30 2611 H 246.406 0.700251 4.11687 0
M  V30 2612 N 246.843 -1.10192 1.12674 0
M  V30 2613 C 248.12 -1.78717 0.794965 0
M  V30 2614 C 248.5 -1.98628 -0.714853 0
M  V30 2615 O 247.848 -1.58135 -1.64941 0
M  V30 2616 C 248.058 -3.11546 1.5729 0
M  V30 2617 C 249.406 -3.86382 1.76052 0
M  V30 2618 O 250.43 -3.21274 1.53823 0
M  V30 2619 O 249.289 -5.03246 2.13087 0
M  V30 2620 H 246.383 -0.774702 0.289423 0
M  V30 2621 H 248.929 -1.16819 1.23091 0
M  V30 2622 H 247.701 -2.92489 2.59935 0
M  V30 2623 H 247.324 -3.81164 1.13137 0
M  V30 2624 N 248.321 -0.919034 -1.28029 0
M  V30 2625 C 249.546 -0.570357 -1.99403 0
M  V30 2626 C 249.971 0.842486 -1.68178 0
M  V30 2627 O 249.329 1.56391 -0.917141 0
M  V30 2628 C 249.377 -0.792541 -3.51783 0
M  V30 2629 O 248.481 0.145988 -4.12142 0
M  V30 2630 H 247.822 -0.220555 -0.6263 0
M  V30 2631 H 250.352 -1.23592 -1.63053 0
M  V30 2632 H 250.362 -0.704708 -4.01868 0
M  V30 2633 H 249.037 -1.82247 -3.73844 0
M  V30 2634 H 247.614 0.00897528 -3.72899 0
M  V30 2635 N 249.799 1.42003 -0.683588 0
M  V30 2636 C 250.746 2.30798 -0.0107309 0
M  V30 2637 C 251.716 1.4645 0.783688 0
M  V30 2638 O 252.901 1.75263 0.754156 0
M  V30 2639 C 250.041 3.3238 0.928306 0
M  V30 2640 C 249.154 4.31814 0.126776 0
M  V30 2641 C 248.289 5.20468 1.06236 0
M  V30 2642 C 247.328 6.11577 0.253035 0
M  V30 2643 N 246.465 6.92754 1.14179 0
M  V30 2644 H 251.305 2.8778 -0.773727 0
M  V30 2645 H 248.842 1.41745 -0.393283 0
M  V30 2646 H 250.8 3.89813 1.48666 0
M  V30 2647 H 249.43 2.76976 1.65783 0
M  V30 2648 H 248.482 3.76427 -0.54833 0
M  V30 2649 H 249.794 4.96276 -0.501192 0
M  V30 2650 H 248.948 5.82677 1.69035 0
M  V30 2651 H 247.687 4.56204 1.7242 0
M  V30 2652 H 246.692 5.48428 -0.388108 0
M  V30 2653 H 247.917 6.77892 -0.404839 0
M  V30 2654 H 245.863 6.3111 1.78987 0
M  V30 2655 H 245.78 7.53855 0.569111 0
M  V30 2656 H 247.048 7.59441 1.75697 0
M  V30 2657 N 251.277 0.427512 1.51691 0
M  V30 2658 C 252.502 -0.143601 2.06902 0
M  V30 2659 C 252.927 -1.36536 1.29382 0
M  V30 2660 O 252.285 -1.78289 0.329043 0
M  V30 2661 C 252.333 -0.454207 3.57728 0
M  V30 2662 O 251.437 -1.54228 3.82475 0
M  V30 2663 H 250.778 -0.00617128 0.663971 0
M  V30 2664 H 253.308 0.606014 1.95419 0
M  V30 2665 H 253.318 -0.707525 4.01818 0
M  V30 2666 H 251.993 0.438812 4.13579 0
M  V30 2667 H 250.57 -1.2797 3.50254 0
M  V30 2668 N 252.755 -1.56801 0.158532 0
M  V30 2669 C 253.705 -2.13923 -0.788738 0
M  V30 2670 C 254.689 -1.07006 -1.2016 0
M  V30 2671 O 255.881 -1.33159 -1.1661 0
M  V30 2672 C 253.01 -2.77348 -2.02319 0
M  V30 2673 C 252.096 -3.91404 -1.6329 0
M  V30 2674 N 252.487 -4.9677 -0.951463 0
M  V30 2675 C 250.785 -4.02326 -1.92482 0
M  V30 2676 C 251.486 -5.76698 -0.761221 0
M  V30 2677 N 250.462 -5.27859 -1.29869 0
M  V30 2678 H 254.264 -2.92757 -0.258995 0
M  V30 2679 H 251.778 -1.62344 -0.0426055 0
M  V30 2680 H 253.775 -3.16639 -2.71192 0
M  V30 2681 H 252.435 -1.99991 -2.558 0
M  V30 2682 H 253.446 -5.14284 -0.610928 0
M  V30 2683 H 250.123 -3.36059 -2.47732 0
M  V30 2684 H 251.513 -6.71529 -0.223284 0
M  V30 2685 N 254.233 0.115231 -1.57178 0
M  V30 2686 C 255.479 0.82357 -1.85325 0
M  V30 2687 C 255.812 1.79349 -0.744814 0
M  V30 2688 O 255.087 1.92899 0.249024 0
M  V30 2689 C 255.37 1.57014 -3.24066 0
M  V30 2690 C 255.223 0.619565 -4.45513 0
M  V30 2691 C 256.542 2.52545 -3.60429 0
M  V30 2692 H 253.661 0.297948 -0.674089 0
M  V30 2693 H 256.303 0.0877138 -1.89797 0
M  V30 2694 H 254.453 2.19742 -3.20383 0
M  V30 2695 H 256.125 0.000837639 -4.613 0
M  V30 2696 H 254.368 -0.0686174 -4.33746 0
M  V30 2697 H 255.039 1.17866 -5.3927 0
M  V30 2698 H 257.515 1.9992 -3.64926 0
M  V30 2699 H 256.391 3.01811 -4.58477 0
M  V30 2700 H 256.652 3.35383 -2.88047 0
M  V30 2701 N 255.711 1.52812 0.385517 0
M  V30 2702 C 256.674 1.77188 1.45386 0
M  V30 2703 C 257.674 0.641953 1.4743 0
M  V30 2704 O 258.864 0.910033 1.4854 0
M  V30 2705 C 255.996 1.87582 2.8465 0
M  V30 2706 H 257.189 2.72583 1.25054 0
M  V30 2707 H 254.742 1.43586 0.617467 0
M  V30 2708 H 255.477 0.941849 3.10322 0
M  V30 2709 H 255.262 2.69748 2.84567 0
M  V30 2710 H 256.752 2.08102 3.62054 0
M  V30 2711 N 257.189 -0.644168 1.43834 0
M  V30 2712 C 258.139 -1.7501 1.46135 0
M  V30 2713 C 259.123 -1.57507 0.328685 0
M  V30 2714 O 260.315 -1.67465 0.5731 0
M  V30 2715 C 257.444 -3.13641 1.39585 0
M  V30 2716 C 256.53 -3.3666 2.57916 0
M  V30 2717 N 256.921 -3.30107 3.83227 0
M  V30 2718 C 255.219 -3.67411 2.52834 0
M  V30 2719 C 255.92 -3.53456 4.61999 0
M  V30 2720 N 254.896 -3.75705 3.9287 0
M  V30 2721 H 258.698 -1.68382 2.40883 0
M  V30 2722 H 256.212 -0.846169 1.38614 0
M  V30 2723 H 258.209 -3.92933 1.39317 0
M  V30 2724 H 256.869 -3.21444 0.45865 0
M  V30 2725 H 257.88 -3.09316 4.15384 0
M  V30 2726 H 254.557 -3.82275 1.67845 0
M  V30 2727 H 255.947 -3.54093 5.71024 0
M  V30 2728 N 258.668 -1.30515 -0.883378 0
M  V30 2729 C 259.601 -1.11359 -1.99184 0
M  V30 2730 C 260.579 -0.0207858 -1.62587 0
M  V30 2731 O 261.763 -0.174646 -1.87689 0
M  V30 2732 C 258.89 -0.69871 -3.31415 0
M  V30 2733 C 257.936 -1.79261 -3.86998 0
M  V30 2734 S 258.769 -3.39536 -4.14096 0
M  V30 2735 C 259.925 -2.99954 -5.49344 0
M  V30 2736 H 260.158 -2.052 -2.15128 0
M  V30 2737 H 257.691 -1.14847 -1.03196 0
M  V30 2738 H 259.649 -0.466075 -4.07846 0
M  V30 2739 H 258.31 0.220368 -3.13326 0
M  V30 2740 H 257.503 -1.45464 -4.82552 0
M  V30 2741 H 257.105 -1.97961 -3.17313 0
M  V30 2742 H 259.397 -2.48013 -6.30473 0
M  V30 2743 H 260.34 -3.9442 -5.8808 0
M  V30 2744 H 260.748 -2.37775 -5.1198 0
M  V30 2745 N 260.146 1.09593 -1.13257 0
M  V30 2746 C 261.423 1.78293 -0.804432 0
M  V30 2747 C 261.803 1.99004 0.70431 0
M  V30 2748 O 261.151 1.59007 1.641 0
M  V30 2749 C 261.361 3.10707 -1.5894 0
M  V30 2750 C 262.709 3.85443 -1.78099 0
M  V30 2751 O 263.733 3.20454 -1.55525 0
M  V30 2752 O 262.592 5.02108 -2.15753 0
M  V30 2753 H 259.686 0.773156 -0.293528 0
M  V30 2754 H 262.232 1.16164 -1.23709 0
M  V30 2755 H 261.004 2.91106 -2.61482 0
M  V30 2756 H 260.627 3.80558 -1.15157 0
M  V30 2757 N 261.624 0.925811 1.2754 0
M  V30 2758 C 262.572 0.413897 2.28888 0
M  V30 2759 C 263.566 -0.500779 1.61829 0
M  V30 2760 O 264.772 -0.38069 1.75928 0
M  V30 2761 H 261.147 0.115274 0.743112 0
M  V30 2762 H 263.118 1.28151 2.69481 0
M  V30 2763 C 261.867 -0.319792 3.46226 0
M  V30 2764 H 261.19 0.374846 3.98039 0
M  V30 2765 H 262.63 -0.642435 4.19105 0
M  V30 2766 C 261.089 -1.53209 3.00048 0
M  V30 2767 O 261.619 -2.6309 3.03557 0
M  V30 2768 N 259.825 -1.38326 2.55566 0
M  V30 2769 H 259.372 -0.489292 2.5291 0
M  V30 2770 H 259.33 -2.19564 2.25031 0
M  V30 2771 N 263.102 -1.41638 0.69111 0
M  V30 2772 C 264.35 -2.00902 0.219758 0
M  V30 2773 C 264.671 -1.54994 -1.18329 0
M  V30 2774 O 263.941 -0.778628 -1.79762 0
M  V30 2775 H 262.521 -0.74289 0.0782558 0
M  V30 2776 H 265.183 -1.73327 0.891271 0
M  V30 2777 H 264.279 -3.11224 0.233708 0
M  V30 2778 N 264.58 -0.43555 -1.51462 0
M  V30 2779 C 265.857 0.191364 -1.94662 0
M  V30 2780 C 266.237 1.60254 -1.37411 0
M  V30 2781 O 265.585 2.2152 -0.560458 0
M  V30 2782 C 265.795 0.17091 -3.48581 0
M  V30 2783 C 267.143 0.377357 -4.2292 0
M  V30 2784 O 268.167 0.249104 -3.55328 0
M  V30 2785 O 267.026 0.63247 -5.42828 0
M  V30 2786 H 264.12 0.130932 -0.816569 0
M  V30 2787 H 266.666 -0.4934 -1.62369 0
M  V30 2788 H 265.438 -0.815738 -3.82703 0
M  V30 2789 H 265.061 0.898659 -3.87311 0
M  V30 2790 N 266.058 1.56714 -0.166846 0
M  V30 2791 C 267.305 1.96747 0.479252 0
M  V30 2792 C 267.633 1.05263 1.63554 0
M  V30 2793 O 266.888 0.0858098 1.95512 0
M  V30 2794 C 267.187 3.42889 1.00806 0
M  V30 2795 C 266.853 4.50889 -0.0318574 0
M  V30 2796 C 265.515 4.8015 -0.317675 0
M  V30 2797 C 267.867 5.15949 -0.737956 0
M  V30 2798 C 265.195 5.71772 -1.31506 0
M  V30 2799 C 267.547 6.08647 -1.72429 0
M  V30 2800 C 266.211 6.36277 -2.0176 0
M  V30 2801 H 265.481 0.719949 0.175371 0
M  V30 2802 H 268.128 1.89756 -0.257864 0
M  V30 2803 H 266.433 3.4681 1.82291 0
M  V30 2804 H 268.13 3.71203 1.51689 0
M  V30 2805 H 264.72 4.28128 0.201088 0
M  V30 2806 H 268.904 4.93458 -0.530351 0
M  V30 2807 H 264.16 5.91465 -1.54853 0
M  V30 2808 H 268.334 6.58129 -2.27682 0
M  V30 2809 H 265.961 7.07075 -2.79194 0
M  V30 2810 N 267.536 -0.106894 1.57237 0
M  V30 2811 C 268.766 -0.825191 1.89405 0
M  V30 2812 C 269.174 -1.73374 0.757496 0
M  V30 2813 O 268.517 -1.81552 -0.280115 0
M  V30 2814 C 268.579 -1.70102 3.1671 0
M  V30 2815 C 268.243 -0.965523 4.46684 0
M  V30 2816 C 269.24 -0.300741 5.19029 0
M  V30 2817 C 266.925 -0.943105 4.93367 0
M  V30 2818 C 268.919 0.376622 6.36286 0
M  V30 2819 C 266.606 -0.261949 6.10538 0
M  V30 2820 C 267.604 0.396748 6.81847 0
M  V30 2821 O 267.292 1.06701 7.96787 0
M  V30 2822 H 267.024 -0.241852 0.631255 0
M  V30 2823 H 269.578 -0.0921491 2.05193 0
M  V30 2824 H 267.808 -2.47601 2.97036 0
M  V30 2825 H 269.497 -2.29483 3.34802 0
M  V30 2826 H 270.263 -0.309599 4.84011 0
M  V30 2827 H 266.142 -1.44524 4.3776 0
M  V30 2828 H 269.686 0.891334 6.91882 0
M  V30 2829 H 265.583 -0.250896 6.45012 0
M  V30 2830 H 266.351 0.972707 8.127 0
M  V30 2831 N 269.014 -1.53014 -0.377408 0
M  V30 2832 C 270.262 -1.6829 -1.11906 0
M  V30 2833 C 270.583 -0.431206 -1.90173 0
M  V30 2834 O 269.853 0.554595 -1.87886 0
M  V30 2835 H 268.433 -0.620371 -0.416112 0
M  V30 2836 H 271.095 -1.90167 -0.426893 0
M  V30 2837 H 270.191 -2.53862 -1.8155 0
M  V30 2838 N 270.492 0.636531 -1.44174 0
M  V30 2839 C 271.717 1.42847 -1.50364 0
M  V30 2840 C 272.142 1.87665 -0.127867 0
M  V30 2841 O 271.5 1.58408 0.88185 0
M  V30 2842 C 271.548 2.62854 -2.4686 0
M  V30 2843 O 270.652 3.62501 -1.9664 0
M  V30 2844 H 269.993 0.427642 -0.507955 0
M  V30 2845 H 272.523 0.777422 -1.89255 0
M  V30 2846 H 272.533 3.10465 -2.64718 0
M  V30 2847 H 271.208 2.29578 -3.46795 0
M  V30 2848 H 269.785 3.21735 -1.88523 0
M  V30 2849 N 271.97 1.30982 0.876444 0
M  V30 2850 C 272.88 1.2003 2.01569 0
M  V30 2851 C 273.896 0.11838 1.73597 0
M  V30 2852 O 275.072 0.33495 1.98595 0
M  V30 2853 C 272.137 0.901637 3.34771 0
M  V30 2854 C 271.198 2.06979 3.76109 0
M  V30 2855 C 270.431 1.78529 5.02954 0
M  V30 2856 O 270.654 0.717296 5.65872 0
M  V30 2857 O 269.588 2.64019 5.40905 0
M  V30 2858 H 273.414 2.15753 2.13739 0
M  V30 2859 H 270.999 1.10658 1.00375 0
M  V30 2860 H 272.881 0.750645 4.1466 0
M  V30 2861 H 271.556 -0.0256141 3.2369 0
M  V30 2862 H 270.463 2.27616 2.96887 0
M  V30 2863 H 271.796 2.97907 3.91807 0
M  V30 2864 N 273.449 -1.08991 1.13837 0
M  V30 2865 C 274.396 -2.15748 0.819835 0
M  V30 2866 C 275.366 -1.64636 -0.220026 0
M  V30 2867 O 276.551 -1.90582 -0.0912757 0
M  V30 2868 C 273.691 -3.4382 0.296913 0
M  V30 2869 C 272.804 -4.0881 1.39636 0
M  V30 2870 C 271.939 -5.24655 0.831314 0
M  V30 2871 C 270.978 -5.81575 1.90886 0
M  V30 2872 N 270.115 -6.88774 1.36142 0
M  V30 2873 H 274.955 -2.42338 1.73426 0
M  V30 2874 H 272.492 -1.18935 0.865613 0
M  V30 2875 H 274.45 -4.17193 -0.0244339 0
M  V30 2876 H 273.08 -3.17535 -0.580628 0
M  V30 2877 H 272.132 -3.33258 1.83422 0
M  V30 2878 H 273.444 -4.47141 2.21058 0
M  V30 2879 H 272.598 -6.04942 0.461515 0
M  V30 2880 H 271.337 -4.87698 -0.013932 0
M  V30 2881 H 270.342 -4.99946 2.28767 0
M  V30 2882 H 271.567 -6.20592 2.75758 0
M  V30 2883 H 269.513 -6.53788 0.538254 0
M  V30 2884 H 269.43 -7.25898 2.11208 0
M  V30 2885 H 270.698 -7.72806 1.01933 0
M  V30 2886 N 274.927 -0.932562 -1.27047 0
M  V30 2887 C 275.89 -0.440064 -2.24936 0
M  V30 2888 C 276.89 0.444071 -1.54547 0
M  V30 2889 O 278.08 0.244465 -1.72476 0
M  V30 2890 C 275.212 0.36678 -3.38921 0
M  V30 2891 H 276.405 -1.305 -2.70018 0
M  V30 2892 H 273.958 -0.713707 -1.39054 0
M  V30 2893 H 274.693 1.25033 -2.99228 0
M  V30 2894 H 274.478 -0.267204 -3.91188 0
M  V30 2895 H 275.968 0.701567 -4.11665 0
M  V30 2896 N 276.405 1.4127 -0.698611 0
M  V30 2897 C 277.368 2.29158 -0.044132 0
M  V30 2898 C 278.368 1.44529 0.704841 0
M  V30 2899 O 279.558 1.65643 0.539276 0
M  V30 2900 C 276.69 3.27459 0.947809 0
M  V30 2901 H 277.883 2.88529 -0.817994 0
M  V30 2902 H 275.436 1.49307 -0.46228 0
M  V30 2903 H 276.171 2.73073 1.74933 0
M  V30 2904 H 275.956 3.8991 0.41385 0
M  V30 2905 H 277.446 3.93311 1.40344 0
M  V30 2906 N 277.883 0.443576 1.51229 0
M  V30 2907 C 278.813 -0.355142 2.30783 0
M  V30 2908 C 279.794 -1.0154 1.36468 0
M  V30 2909 O 280.979 -1.01785 1.65389 0
M  V30 2910 C 278.109 -1.45312 3.15439 0
M  V30 2911 C 277.063 -0.916002 4.18083 0
M  V30 2912 C 276.389 -2.1102 4.91299 0
M  V30 2913 C 277.689 0.0538602 5.22272 0
M  V30 2914 H 279.383 0.308767 2.97804 0
M  V30 2915 H 276.929 0.149937 1.43217 0
M  V30 2916 H 278.882 -2.01914 3.69876 0
M  V30 2917 H 277.606 -2.14541 2.46252 0
M  V30 2918 H 276.265 -0.372145 3.64706 0
M  V30 2919 H 275.913 -2.78882 4.18609 0
M  V30 2920 H 275.613 -1.75717 5.60712 0
M  V30 2921 H 277.137 -2.68164 5.48562 0
M  V30 2922 H 278.551 -0.422069 5.71744 0
M  V30 2923 H 276.948 0.319776 5.99247 0
M  V30 2924 H 278.018 0.98858 4.74716 0
M  V30 2925 N 279.361 -1.56624 0.175154 0
M  V30 2926 C 280.61 -1.96173 -0.468921 0
M  V30 2927 C 280.923 -1.06401 -1.64128 0
M  V30 2928 O 282.129 -1.35648 -2.35185 0
M  V30 2929 C 280.585 -3.48833 -0.885633 0
M  V30 2930 C 280.193 -4.47237 0.261343 0
M  V30 2931 C 281.937 -3.97194 -1.49791 0
M  V30 2932 C 279.844 -5.9114 -0.175214 0
M  V30 2933 H 278.774 -0.732455 -0.178958 0
M  V30 2934 H 281.425 -1.81591 0.263997 0
M  V30 2935 H 279.807 -3.58848 -1.67464 0
M  V30 2936 H 280.981 -4.4894 1.03871 0
M  V30 2937 H 279.296 -4.08956 0.783827 0
M  V30 2938 H 281.893 -5.02167 -1.83665 0
M  V30 2939 H 282.236 -3.40351 -2.39722 0
M  V30 2940 H 282.769 -3.90212 -0.773267 0
M  V30 2941 H 279.508 -6.51865 0.689414 0
M  V30 2942 H 279.028 -5.92735 -0.91786 0
M  V30 2943 H 280.707 -6.44044 -0.617792 0
M  V30 2944 N 280.839 0.0985539 -1.57292 0
M  V30 2945 C 282.087 0.801092 -1.85545 0
M  V30 2946 C 282.408 1.79438 -0.763353 0
M  V30 2947 O 281.678 1.94763 0.21073 0
M  V30 2948 H 280.258 0.29884 -0.684619 0
M  V30 2949 H 282.92 0.0810064 -1.94732 0
M  V30 2950 H 282.016 1.3338 -2.82163 0
M  V30 2951 N 282.317 1.53212 0.369288 0
M  V30 2952 C 283.28 1.7872 1.43498 0
M  V30 2953 C 284.28 0.657554 1.46741 0
M  V30 2954 O 285.47 0.925736 1.47566 0
M  V30 2955 C 282.602 1.90591 2.82645 0
M  V30 2956 H 283.795 2.73894 1.22156 0
M  V30 2957 H 281.348 1.44233 0.602203 0
M  V30 2958 H 282.083 0.974709 3.09306 0
M  V30 2959 H 281.868 2.72751 2.8169 0
M  V30 2960 H 283.358 2.11931 3.59826 0
M  V30 2961 N 283.795 -0.628877 1.44509 0
M  V30 2962 C 285.206 -1.21054 1.42137 0
M  V30 2963 C 285.557 -1.95715 0.137881 0
M  V30 2964 O 284.682 -2.02554 -0.761645 0
M  V30 2965 C 285.277 -2.20189 2.57493 0
M  V30 2966 C 283.836 -2.73777 2.58308 0
M  V30 2967 C 282.983 -1.48813 2.33987 0
M  V30 2968 H 285.934 -0.41942 1.53057 0
M  V30 2969 H 285.955 -3.02833 2.30375 0
M  V30 2970 H 285.467 -1.6582 3.50892 0
M  V30 2971 H 283.568 -3.32142 1.68856 0
M  V30 2972 H 283.681 -3.19662 3.56865 0
M  V30 2973 H 282.045 -1.77024 1.83124 0
M  V30 2974 H 282.828 -0.963442 3.29504 0
M  V30 2975 N 285.273 -1.31445 -0.869486 0
M  V30 2976 C 286.521 -1.20918 -1.61936 0
M  V30 2977 C 286.842 0.232683 -1.93607 0
M  V30 2978 O 286.112 1.15352 -1.58338 0
M  V30 2979 H 284.692 -0.44454 -0.600328 0
M  V30 2980 H 287.354 -1.64776 -1.0409 0
M  V30 2981 H 286.45 -1.78124 -2.56278 0
M  V30 2982 N 286.751 1.08385 -1.14413 0
M  V30 2983 C 287.976 1.85057 -0.936413 0
M  V30 2984 C 288.401 1.81055 0.509971 0
M  V30 2985 O 287.759 1.1958 1.36273 0
M  V30 2986 C 287.807 3.30505 -1.44217 0
M  V30 2987 O 286.911 4.07491 -0.634409 0
M  V30 2988 H 286.252 0.573425 -0.334784 0
M  V30 2989 H 288.782 1.36799 -1.52142 0
M  V30 2990 H 288.792 3.81348 -1.45043 0
M  V30 2991 H 287.467 3.32734 -2.49522 0
M  V30 2992 H 286.044 3.66368 -0.694902 0
M  V30 2993 N 288.23 0.939286 1.26551 0
M  V30 2994 C 289.476 0.586715 1.94128 0
M  V30 2995 C 289.809 -0.8717 1.73537 0
M  V30 2996 O 289.084 -1.62339 1.07127 0
M  V30 2997 C 289.367 0.927497 3.4795 0
M  V30 2998 C 289.22 2.44052 3.77834 0
M  V30 2999 C 290.539 0.441569 4.37879 0
M  V30 3000 H 287.658 0.21463 0.705055 0
M  V30 3001 H 290.3 1.17316 1.49455 0
M  V30 3002 H 288.45 0.428431 3.8613 0
M  V30 3003 H 290.122 3.01216 3.4938 0
M  V30 3004 H 288.365 2.8848 3.23978 0
M  V30 3005 H 289.036 2.62947 4.85348 0
M  V30 3006 H 291.512 0.869448 4.06915 0
M  V30 3007 H 290.388 0.708856 5.44304 0
M  V30 3008 H 290.649 -0.658467 4.37169 0
M  V30 3009 N 289.708 -1.40897 0.706093 0
M  V30 3010 C 290.655 -2.30751 0.0474474 0
M  V30 3011 C 291.625 -1.47678 -0.76029 0
M  V30 3012 O 292.81 -1.76441 -0.726177 0
M  V30 3013 C 289.95 -3.33815 -0.875309 0
M  V30 3014 C 289.063 -4.31961 -0.0580623 0
M  V30 3015 C 288.198 -5.22093 -0.979425 0
M  V30 3016 C 287.237 -6.11902 -0.155706 0
M  V30 3017 N 286.374 -6.94482 -1.03144 0
M  V30 3018 H 291.214 -2.86513 0.819413 0
M  V30 3019 H 288.751 -1.41102 0.415783 0
M  V30 3020 H 290.709 -3.92129 -1.42446 0
M  V30 3021 H 289.339 -2.79579 -1.61356 0
M  V30 3022 H 288.391 -3.75507 0.608147 0
M  V30 3023 H 289.703 -4.95415 0.580082 0
M  V30 3024 H 288.857 -5.85292 -1.59744 0
M  V30 3025 H 287.596 -4.5889 -1.65141 0
M  V30 3026 H 286.601 -5.47742 0.475309 0
M  V30 3027 H 287.826 -6.77162 0.512635 0
M  V30 3028 H 285.772 -6.33877 -1.68924 0
M  V30 3029 H 285.689 -7.54665 -0.449108 0
M  V30 3030 H 286.957 -7.6214 -1.63593 0
M  V30 3031 N 291.186 -0.45159 -1.50991 0
M  V30 3032 C 292.435 0.111653 -2.01391 0
M  V30 3033 C 292.748 1.42529 -1.33959 0
M  V30 3034 O 293.954 2.07232 -1.75405 0
M  V30 3035 C 292.41 0.249514 -3.59034 0
M  V30 3036 C 292.018 -1.05453 -4.35412 0
M  V30 3037 C 293.762 0.765762 -4.17536 0
M  V30 3038 C 291.669 -0.881529 -5.84793 0
M  V30 3039 H 290.599 0.0455022 -0.752626 0
M  V30 3040 H 293.25 -0.583524 -1.73975 0
M  V30 3041 H 291.632 1.00803 -3.82955 0
M  V30 3042 H 292.806 -1.82248 -4.23229 0
M  V30 3043 H 291.121 -1.50039 -3.88429 0
M  V30 3044 H 293.718 0.911913 -5.26866 0
M  V30 3045 H 294.061 1.75201 -3.77638 0
M  V30 3046 H 294.594 0.0651744 -3.97747 0
M  V30 3047 H 291.333 -1.84057 -6.29129 0
M  V30 3048 H 290.853 -0.153625 -5.99603 0
M  V30 3049 H 292.532 -0.540363 -6.4474 0
M  V30 3050 N 292.664 1.56529 -0.183458 0
M  V30 3051 C 293.574 2.22144 0.754272 0
M  V30 3052 C 294.59 1.21684 1.24374 0
M  V30 3053 O 295.766 1.54385 1.29333 0
M  V30 3054 C 292.831 2.85884 1.96141 0
M  V30 3055 C 291.892 4.01579 1.51765 0
M  V30 3056 C 291.125 4.6227 2.66725 0
M  V30 3057 O 291.348 4.21865 3.83909 0
M  V30 3058 O 290.282 5.51936 2.40104 0
M  V30 3059 H 294.108 3.02861 0.225527 0
M  V30 3060 H 291.693 1.49331 0.0453032 0
M  V30 3061 H 293.575 3.26253 2.66715 0
M  V30 3062 H 292.25 2.08154 2.47899 0
M  V30 3063 H 291.157 3.65856 0.781049 0
M  V30 3064 H 292.49 4.80938 1.04686 0
M  V30 3065 N 294.142 -0.090211 1.57342 0
M  V30 3066 C 295.072 -1.10976 2.05443 0
M  V30 3067 C 296.053 -1.41482 0.944284 0
M  V30 3068 O 297.238 -1.51428 1.21586 0
M  V30 3069 C 294.368 -2.42831 2.48295 0
M  V30 3070 C 293.322 -2.26721 3.63018 0
M  V30 3071 C 292.648 -3.63796 3.91863 0
M  V30 3072 C 293.948 -1.7037 4.93732 0
M  V30 3073 H 295.642 -0.709564 2.9087 0
M  V30 3074 H 293.188 -0.339874 1.39932 0
M  V30 3075 H 295.141 -3.14431 2.80555 0
M  V30 3076 H 293.865 -2.84795 1.59873 0
M  V30 3077 H 292.524 -1.57565 3.31012 0
M  V30 3078 H 292.172 -4.03297 3.00601 0
M  V30 3079 H 291.872 -3.53861 4.69101 0
M  V30 3080 H 293.396 -4.36855 4.26603 0
M  V30 3081 H 294.81 -2.31816 5.24342 0
M  V30 3082 H 293.207 -1.71181 5.75167 0
M  V30 3083 H 294.277 -0.663542 4.80339 0
M  V30 3084 N 295.62 -1.53406 -0.361157 0
M  V30 3085 C 296.869 -1.69022 -1.10066 0
M  V30 3086 C 297.182 -0.450838 -1.90333 0
M  V30 3087 O 298.388 -0.487617 -2.67085 0
M  V30 3088 C 296.844 -2.98812 -2.00598 0
M  V30 3089 C 296.452 -4.30027 -1.25621 0
M  V30 3090 C 298.196 -3.23795 -2.74513 0
M  V30 3091 C 296.103 -5.50903 -2.1508 0
M  V30 3092 H 295.033 -0.629776 -0.414606 0
M  V30 3093 H 297.684 -1.79907 -0.361348 0
M  V30 3094 H 296.066 -2.8174 -2.78278 0
M  V30 3095 H 297.24 -4.57745 -0.529739 0
M  V30 3096 H 295.555 -4.11522 -0.635496 0
M  V30 3097 H 298.152 -4.11289 -3.41681 0
M  V30 3098 H 298.495 -2.40045 -3.40123 0
M  V30 3099 H 299.028 -3.41561 -2.03914 0
M  V30 3100 H 295.767 -6.37143 -1.54041 0
M  V30 3101 H 295.287 -5.27459 -2.85565 0
M  V30 3102 H 296.966 -5.85865 -2.74538 0
M  V30 3103 N 297.098 0.621204 -1.44841 0
M  V30 3104 C 298.061 1.71459 -1.521 0
M  V30 3105 C 299.061 1.55696 -0.401933 0
M  V30 3106 O 300.251 1.61011 -0.664925 0
M  V30 3107 C 297.383 3.10624 -1.40447 0
M  V30 3108 H 298.576 1.66394 -2.49506 0
M  V30 3109 H 296.129 0.835745 -1.3208 0
M  V30 3110 H 296.864 3.21277 -0.441737 0
M  V30 3111 H 296.649 3.23473 -2.21602 0
M  V30 3112 H 298.139 3.90293 -1.4853 0
M  V30 3113 N 298.576 1.31904 0.862503 0
M  V30 3114 C 299.523 1.20182 1.9704 0
M  V30 3115 C 300.493 0.0858247 1.65878 0
M  V30 3116 O 301.678 0.26 1.8902 0
M  V30 3117 C 298.818 0.922797 3.32533 0
M  V30 3118 C 297.931 2.12284 3.76244 0
M  V30 3119 C 297.066 1.77996 5.00491 0
M  V30 3120 C 296.105 2.94366 5.36671 0
M  V30 3121 N 295.242 2.60223 6.52095 0
M  V30 3122 H 300.082 2.14951 2.06398 0
M  V30 3123 H 297.619 1.06917 1.01031 0
M  V30 3124 H 299.577 0.741548 4.10557 0
M  V30 3125 H 298.207 0.0119227 3.22798 0
M  V30 3126 H 297.259 2.41461 2.9394 0
M  V30 3127 H 298.571 2.99357 3.98982 0
M  V30 3128 H 297.725 1.56377 5.862 0
M  V30 3129 H 296.464 0.881252 4.79672 0
M  V30 3130 H 295.469 3.16625 4.49476 0
M  V30 3131 H 296.694 3.84957 5.59451 0
M  V30 3132 H 294.64 1.72884 6.32809 0
M  V30 3133 H 294.557 3.40827 6.74814 0
M  V30 3134 H 295.825 2.42016 7.40978 0
M  V30 3135 N 300.054 -1.07777 1.14986 0
M  V30 3136 C 301.331 -1.7699 0.832695 0
M  V30 3137 C 301.711 -2.001 -0.672561 0
M  V30 3138 O 301.059 -1.61598 -1.6155 0
M  V30 3139 C 301.269 -3.08139 1.63863 0
M  V30 3140 C 302.617 -3.8256 1.84208 0
M  V30 3141 O 303.641 -3.17939 1.60603 0
M  V30 3142 O 302.5 -4.98612 2.23714 0
M  V30 3143 H 299.594 -0.768389 0.305791 0
M  V30 3144 H 302.14 -1.14182 1.25541 0
M  V30 3145 H 300.912 -2.86909 2.6608 0
M  V30 3146 H 300.535 -3.78678 1.21197 0
M  V30 3147 N 301.532 -0.945985 -1.26051 0
M  V30 3148 C 302.78 -0.594941 -1.93145 0
M  V30 3149 C 303.101 0.86953 -1.7454 0
M  V30 3150 O 302.371 1.61838 -1.10387 0
M  V30 3151 H 300.951 -0.217044 -0.714773 0
M  V30 3152 H 303.613 -1.20235 -1.53393 0
M  V30 3153 H 302.709 -0.816835 -3.01221 0
M  V30 3154 N 303.011 1.40521 -0.713556 0
M  V30 3155 C 304.236 2.05759 -0.26035 0
M  V30 3156 C 304.661 1.53403 1.08854 0
M  V30 3157 O 304.019 0.668535 1.68524 0
M  V30 3158 C 304.067 3.59745 -0.248122 0
M  V30 3159 O 303.171 4.05123 0.77131 0
M  V30 3160 H 302.512 0.652564 -0.122703 0
M  V30 3161 H 305.042 1.79958 -0.973467 0
M  V30 3162 H 305.052 4.07911 -0.0851129 0
M  V30 3163 H 303.727 3.97218 -1.2325 0
M  V30 3164 H 302.304 3.68422 0.57619 0
M  V30 3165 N 304.489 0.459591 1.5075 0
M  V30 3166 C 305.714 -0.0996819 2.0716 0
M  V30 3167 C 306.139 -1.33761 1.32249 0
M  V30 3168 O 305.497 -1.77551 0.366786 0
M  V30 3169 C 305.545 -0.378226 3.58611 0
M  V30 3170 O 304.649 -1.46081 3.85661 0
M  V30 3171 H 303.99 0.00791392 0.663953 0
M  V30 3172 H 306.52 0.647329 1.9409 0
M  V30 3173 H 306.53 -0.622135 4.03229 0
M  V30 3174 H 305.205 0.526439 4.12555 0
M  V30 3175 H 303.782 -1.20511 3.5289 0
M  V30 3176 N 305.967 -1.56429 0.191757 0
M  V30 3177 C 307.195 -2.01867 -0.453586 0
M  V30 3178 C 307.61 -1.07191 -1.5542 0
M  V30 3179 O 306.967 -0.0762108 -1.82341 0
M  V30 3180 C 307.018 -3.47017 -1.013 0
M  V30 3181 O 306.739 -4.38078 0.0437005 0
M  V30 3182 C 308.24 -4.07956 -1.73456 0
M  V30 3183 H 305.46 -0.661211 -0.114199 0
M  V30 3184 H 308.004 -2.02295 0.299483 0
M  V30 3185 H 306.159 -3.47298 -1.71647 0
M  V30 3186 H 306.573 -5.23178 -0.372212 0
M  V30 3187 H 308.047 -5.1138 -2.07833 0
M  V30 3188 H 308.524 -3.51222 -2.63704 0
M  V30 3189 H 309.13 -4.11437 -1.07702 0
M  V30 3190 N 307.445 0.0818655 -1.57387 0
M  V30 3191 C 308.691 0.784074 -1.8703 0
M  V30 3192 C 309.024 1.77729 -0.782689 0
M  V30 3193 O 308.299 1.93384 0.208051 0
M  V30 3194 C 308.582 1.50105 -3.27323 0
M  V30 3195 C 308.435 0.524925 -4.46727 0
M  V30 3196 C 309.754 2.44843 -3.65705 0
M  V30 3197 H 306.873 0.283582 -0.680257 0
M  V30 3198 H 309.515 0.0474352 -1.89941 0
M  V30 3199 H 307.665 2.12897 -3.24972 0
M  V30 3200 H 309.337 -0.0970111 -4.61198 0
M  V30 3201 H 307.58 -0.160606 -4.33503 0
M  V30 3202 H 308.251 1.064 -5.41648 0
M  V30 3203 H 310.727 1.92135 -3.69085 0
M  V30 3204 H 309.603 2.92018 -4.64776 0
M  V30 3205 H 309.864 3.29197 -2.95096 0
M  V30 3206 N 308.923 1.53595 0.353017 0
M  V30 3207 C 309.853 1.83902 1.43883 0
M  V30 3208 C 310.834 0.693421 1.55324 0
M  V30 3209 O 312.019 0.944452 1.69687 0
M  V30 3210 C 309.149 2.04016 2.8106 0
M  V30 3211 C 308.103 3.19814 2.84434 0
M  V30 3212 C 307.429 3.25244 4.24406 0
M  V30 3213 C 308.729 4.58133 2.50822 0
M  V30 3214 H 310.423 2.74835 1.1877 0
M  V30 3215 H 307.969 1.32242 0.569917 0
M  V30 3216 H 309.922 2.238 3.57059 0
M  V30 3217 H 308.646 1.09804 3.07588 0
M  V30 3218 H 307.305 2.9987 2.10887 0
M  V30 3219 H 306.953 2.28646 4.48029 0
M  V30 3220 H 306.653 4.03054 4.27576 0
M  V30 3221 H 308.177 3.47228 5.0226 0
M  V30 3222 H 309.591 4.77995 3.16534 0
M  V30 3223 H 307.988 5.38276 2.6529 0
M  V30 3224 H 309.058 4.62387 1.46034 0
M  V30 3225 N 310.401 -0.613514 1.45168 0
M  V30 3226 C 311.348 -1.72456 1.53387 0
M  V30 3227 C 312.318 -1.6169 0.380191 0
M  V30 3228 O 313.503 -1.81356 0.592836 0
M  V30 3229 C 310.643 -3.10753 1.50088 0
M  V30 3230 C 309.756 -3.32368 2.75963 0
M  V30 3231 C 308.891 -4.60737 2.64376 0
M  V30 3232 C 307.93 -4.7559 3.85332 0
M  V30 3233 N 307.067 -5.95253 3.72315 0
M  V30 3234 H 311.907 -1.64768 2.48305 0
M  V30 3235 H 309.444 -0.803503 1.23216 0
M  V30 3236 H 311.402 -3.90758 1.46164 0
M  V30 3237 H 310.032 -3.17413 0.587243 0
M  V30 3238 H 309.084 -2.4618 2.89999 0
M  V30 3239 H 310.396 -3.39218 3.65695 0
M  V30 3240 H 309.55 -5.48928 2.58385 0
M  V30 3241 H 308.289 -4.56275 1.72233 0
M  V30 3242 H 307.294 -3.85824 3.91688 0
M  V30 3243 H 308.519 -4.81854 4.78533 0
M  V30 3244 H 306.465 -5.91847 2.82937 0
M  V30 3245 H 306.382 -6.03236 4.55677 0
M  V30 3246 H 307.65 -6.85958 3.70246 0
M  V30 3247 N 311.879 -1.3236 -0.855495 0
M  V30 3248 C 312.842 -1.21164 -1.94556 0
M  V30 3249 C 313.842 -0.134908 -1.60233 0
M  V30 3250 O 315.032 -0.385249 -1.69887 0
M  V30 3251 C 312.164 -0.863192 -3.29791 0
M  V30 3252 H 313.357 -2.18038 -2.05911 0
M  V30 3253 H 310.91 -1.16179 -1.04557 0
M  V30 3254 H 311.645 0.103769 -3.24134 0
M  V30 3255 H 311.43 -1.64166 -3.56078 0
M  V30 3256 H 312.92 -0.809156 -4.09686 0
M  V30 3257 N 313.357 1.07166 -1.15556 0
M  V30 3258 C 314.304 2.14417 -0.854055 0
M  V30 3259 C 315.274 1.64965 0.193806 0
M  V30 3260 O 316.459 1.90703 0.0609443 0
M  V30 3261 C 313.599 3.43304 -0.351574 0
M  V30 3262 C 312.712 4.06537 -1.46123 0
M  V30 3263 C 311.847 5.23266 -0.914677 0
M  V30 3264 C 310.886 5.78464 -2.00114 0
M  V30 3265 N 310.023 6.86521 -1.47083 0
M  V30 3266 H 314.863 2.39548 -1.77259 0
M  V30 3267 H 312.4 1.17543 -0.884425 0
M  V30 3268 H 314.358 4.17179 -0.0419409 0
M  V30 3269 H 312.988 3.18419 0.530037 0
M  V30 3270 H 312.04 3.30297 -1.88701 0
M  V30 3271 H 313.352 4.43567 -2.28144 0
M  V30 3272 H 312.506 6.04131 -0.557698 0
M  V30 3273 H 311.245 4.87658 -0.0636583 0
M  V30 3274 H 310.25 4.96243 -2.36692 0
M  V30 3275 H 311.475 6.16126 -2.85597 0
M  V30 3276 H 309.421 6.52849 -0.642198 0
M  V30 3277 H 309.338 7.22446 -2.22729 0
M  V30 3278 H 310.606 7.71087 -1.14215 0
M  V30 3279 N 314.835 0.952656 1.25548 0
M  V30 3280 C 316.063 0.623496 1.97282 0
M  V30 3281 C 316.478 -0.803987 1.70826 0
M  V30 3282 O 315.835 -1.53755 0.983147 0
M  V30 3283 C 315.886 0.870209 3.5087 0
M  V30 3284 O 315.607 2.24156 3.76412 0
M  V30 3285 C 317.108 0.553164 4.39835 0
M  V30 3286 H 314.328 0.233931 0.628902 0
M  V30 3287 H 316.872 1.27649 1.59768 0
M  V30 3288 H 315.027 0.263652 3.86502 0
M  V30 3289 H 315.441 2.31021 4.70882 0
M  V30 3290 H 316.915 0.776342 5.46513 0
M  V30 3291 H 317.392 -0.512215 4.36203 0
M  V30 3292 H 317.998 1.13896 4.09766 0
M  V30 3293 N 316.313 -1.40141 0.720998 0
M  V30 3294 C 317.538 -2.05618 0.271258 0
M  V30 3295 C 317.963 -1.53978 -1.08039 0
M  V30 3296 O 317.321 -0.677463 -1.68167 0
M  V30 3297 C 317.369 -3.59609 0.267197 0
M  V30 3298 O 316.473 -4.05526 -0.749814 0
M  V30 3299 H 315.814 -0.651904 0.126162 0
M  V30 3300 H 318.344 -1.79439 0.982997 0
M  V30 3301 H 318.354 -4.0786 0.106744 0
M  V30 3302 H 317.029 -3.96559 1.25354 0
M  V30 3303 H 315.606 -3.68722 -0.556644 0
M  V30 3304 N 317.792 -0.46758 -1.50504 0
M  V30 3305 C 319.038 0.0887532 -2.02606 0
M  V30 3306 C 319.371 1.39686 -1.34913 0
M  V30 3307 O 318.646 1.88644 -0.473694 0
M  V30 3308 C 318.929 0.276206 -3.59039 0
M  V30 3309 C 318.782 -1.05267 -4.37309 0
M  V30 3310 C 320.101 1.03235 -4.27821 0
M  V30 3311 H 317.22 0.0307814 -0.736357 0
M  V30 3312 H 319.862 -0.612485 -1.79857 0
M  V30 3313 H 318.012 0.8735 -3.78553 0
M  V30 3314 H 319.684 -1.68628 -4.29374 0
M  V30 3315 H 317.927 -1.65015 -4.01189 0
M  V30 3316 H 318.598 -0.875197 -5.45018 0
M  V30 3317 H 321.074 0.526111 -4.12761 0
M  V30 3318 H 319.95 1.1323 -5.37094 0
M  V30 3319 H 320.211 2.06806 -3.90748 0
M  V30 3320 N 319.27 1.56325 -0.20005 0
M  V30 3321 C 320.202 2.16555 0.750771 0
M  V30 3322 C 321.215 1.12871 1.1732 0
M  V30 3323 O 322.404 1.39943 1.10807 0
M  V30 3324 C 319.504 2.71684 2.02586 0
M  V30 3325 C 318.677 4.00321 1.76244 0
M  V30 3326 C 317.736 4.40227 2.88248 0
M  V30 3327 O 316.762 5.07552 2.57642 0
M  V30 3328 N 317.964 4.04138 4.16717 0
M  V30 3329 H 320.729 2.98772 0.235685 0
M  V30 3330 H 318.29 1.6189 -0.0182594 0
M  V30 3331 H 320.282 2.95363 2.76664 0
M  V30 3332 H 318.852 1.93893 2.45202 0
M  V30 3333 H 318.072 3.84723 0.85919 0
M  V30 3334 H 319.36 4.84279 1.56048 0
M  V30 3335 H 318.758 3.49993 4.44434 0
M  V30 3336 H 317.315 4.32756 4.87407 0
M  V30 3337 N 320.748 -0.0735177 1.57428 0
M  V30 3338 C 321.711 -1.07192 2.02589 0
M  V30 3339 C 322.711 -1.31695 0.922661 0
M  V30 3340 O 323.901 -1.27445 1.18758 0
M  V30 3341 C 321.033 -2.41599 2.40506 0
M  V30 3342 H 322.226 -0.682727 2.92025 0
M  V30 3343 H 319.779 -0.319193 1.53006 0
M  V30 3344 H 320.514 -2.85354 1.5409 0
M  V30 3345 H 320.299 -2.25156 3.21009 0
M  V30 3346 H 321.789 -3.13367 2.76027 0
M  V30 3347 N 322.226 -1.5378 -0.344866 0
M  V30 3348 C 323.474 -1.70625 -1.08311 0
M  V30 3349 C 323.795 -0.471447 -1.89215 0
M  V30 3350 O 323.065 0.514616 -1.8902 0
M  V30 3351 H 321.645 -0.629058 -0.402859 0
M  V30 3352 H 324.307 -1.9103 -0.386459 0
M  V30 3353 H 323.403 -2.57656 -1.76124 0
M  V30 3354 N 323.704 0.605807 -1.45491 0
M  V30 3355 C 324.614 1.74466 -1.56839 0
M  V30 3356 C 325.63 1.68006 -0.452772 0
M  V30 3357 O 326.806 1.8833 -0.713708 0
M  V30 3358 C 323.871 3.10931 -1.53371 0
M  V30 3359 C 322.932 3.28832 -2.75986 0
M  V30 3360 C 322.165 4.58787 -2.72673 0
M  V30 3361 O 322.388 5.4122 -1.80102 0
M  V30 3362 O 321.322 4.79438 -3.63899 0
M  V30 3363 H 325.148 1.67843 -2.53106 0
M  V30 3364 H 322.733 0.770108 -1.28022 0
M  V30 3365 H 324.615 3.92233 -1.54051 0
M  V30 3366 H 323.29 3.18042 -0.602572 0
M  V30 3367 H 322.197 2.47112 -2.80867 0
M  V30 3368 H 323.53 3.26599 -3.68231 0
M  V30 3369 N 325.182 1.32811 0.848464 0
M  V30 3370 C 326.431 1.23075 1.59798 0
M  V30 3371 C 326.744 -0.204419 1.94529 0
M  V30 3372 O 327.95 -0.423701 2.68173 0
M  V30 3373 C 326.406 2.15594 2.88179 0
M  V30 3374 C 326.014 3.64228 2.60849 0
M  V30 3375 C 327.758 2.14709 3.66197 0
M  V30 3376 C 325.665 4.48689 3.85269 0
M  V30 3377 H 324.595 0.457091 0.599653 0
M  V30 3378 H 327.246 1.57813 0.936342 0
M  V30 3379 H 325.628 1.73778 3.55833 0
M  V30 3380 H 326.802 4.14424 2.01467 0
M  V30 3381 H 325.117 3.67306 1.96151 0
M  V30 3382 H 327.714 2.75046 4.58534 0
M  V30 3383 H 328.057 1.13966 4.00397 0
M  V30 3384 H 328.59 2.54837 3.05455 0
M  V30 3385 H 325.329 5.5027 3.56207 0
M  V30 3386 H 324.849 4.03241 4.44024 0
M  V30 3387 H 326.528 4.62006 4.52946 0
M  V30 3388 N 326.66 -1.06551 1.16123 0
M  V30 3389 C 327.909 -1.78687 0.935622 0
M  V30 3390 C 328.222 -1.88056 -0.538001 0
M  V30 3391 O 329.428 -2.56794 -0.88143 0
M  V30 3392 C 327.884 -3.21143 1.62466 0
M  V30 3393 C 327.492 -3.19949 3.13587 0
M  V30 3394 C 329.236 -3.9783 1.48092 0
M  V30 3395 C 327.143 -4.57108 3.75241 0
M  V30 3396 H 326.073 -0.669712 0.346412 0
M  V30 3397 H 328.724 -1.19534 1.39226 0
M  V30 3398 H 327.106 -3.80539 1.09572 0
M  V30 3399 H 328.28 -2.70151 3.73303 0
M  V30 3400 H 326.595 -2.5676 3.27816 0
M  V30 3401 H 329.192 -4.99217 1.91538 0
M  V30 3402 H 329.535 -4.14078 0.429507 0
M  V30 3403 H 330.068 -3.4495 1.98127 0
M  V30 3404 H 326.807 -4.46065 4.80319 0
M  V30 3405 H 326.327 -5.07111 3.20309 0
M  V30 3406 H 328.006 -5.26069 3.76644 0
M  V30 3407 N 328.138 -0.959301 -1.25041 0
M  V30 3408 C 329.415 -0.533805 -1.88175 0
M  V30 3409 C 329.795 0.988994 -1.865 0
M  V30 3410 O 329.143 1.85677 -1.33177 0
M  V30 3411 C 329.353 -1.11575 -3.30684 0
M  V30 3412 C 330.701 -1.19548 -4.07423 0
M  V30 3413 O 331.725 -1.06765 -3.39823 0
M  V30 3414 O 330.584 -1.39656 -5.28354 0
M  V30 3415 H 327.678 -0.176772 -0.807887 0
M  V30 3416 H 330.224 -1.05303 -1.33076 0
M  V30 3417 H 328.996 -2.15884 -3.26358 0
M  V30 3418 H 328.619 -0.580059 -3.93346 0
M  V30 3419 N 329.616 1.39756 -0.72842 0
M  V30 3420 C 330.841 2.05472 -0.282159 0
M  V30 3421 C 331.266 1.54549 1.07221 0
M  V30 3422 O 330.624 0.686372 1.67805 0
M  V30 3423 C 330.672 3.59462 -0.286264 0
M  V30 3424 O 329.776 4.05918 0.728298 0
M  V30 3425 H 329.117 0.651226 -0.129618 0
M  V30 3426 H 331.647 1.78915 -0.992499 0
M  V30 3427 H 331.657 4.07798 -0.128373 0
M  V30 3428 H 330.332 3.95889 -1.27456 0
M  V30 3429 H 328.909 3.69012 0.537081 0
M  V30 3430 N 331.094 0.475555 1.50254 0
M  V30 3431 C 332.319 -0.0777042 2.07254 0
M  V30 3432 C 332.744 -1.3235 1.3366 0
M  V30 3433 O 332.102 -1.77152 0.385597 0
M  V30 3434 C 332.15 -0.340169 3.58992 0
M  V30 3435 O 331.254 -1.41982 3.87188 0
M  V30 3436 H 330.595 0.0149556 0.663832 0
M  V30 3437 H 333.125 0.667878 1.93392 0
M  V30 3438 H 333.135 -0.579332 4.03866 0
M  V30 3439 H 331.81 0.570167 4.11973 0
M  V30 3440 H 330.387 -1.16762 3.54148 0
M  V30 3441 N 332.573 -1.56217 0.208337 0
M  V30 3442 C 333.819 -1.98242 -0.427552 0
M  V30 3443 C 334.152 -1.09554 -1.60348 0
M  V30 3444 O 333.427 -0.15035 -1.93918 0
M  V30 3445 C 333.71 -3.4931 -0.874907 0
M  V30 3446 C 333.563 -4.48773 0.303751 0
M  V30 3447 C 334.882 -4.04424 -1.73577 0
M  V30 3448 H 332.001 -0.720744 -0.153936 0
M  V30 3449 H 334.643 -1.87586 0.30192 0
M  V30 3450 H 332.793 -3.58522 -1.49648 0
M  V30 3451 H 334.465 -4.51586 0.941682 0
M  V30 3452 H 332.708 -4.23194 0.953375 0
M  V30 3453 H 333.379 -5.51976 -0.0519883 0
M  V30 3454 H 335.855 -3.98075 -1.21143 0
M  V30 3455 H 334.731 -5.1047 -2.01771 0
M  V30 3456 H 334.992 -3.50494 -2.69456 0
M  V30 3457 N 334.051 0.0651679 -1.57465 0
M  V30 3458 C 334.984 1.10876 -1.99453 0
M  V30 3459 C 335.962 1.37205 -0.872555 0
M  V30 3460 O 337.146 1.50468 -1.13542 0
M  V30 3461 C 334.273 2.45167 -2.3369 0
M  V30 3462 C 333.319 2.3493 -3.55964 0
M  V30 3463 S 334.152 1.73708 -5.06543 0
M  V30 3464 C 335.308 3.09563 -5.43987 0
M  V30 3465 H 335.541 0.750967 -2.87659 0
M  V30 3466 H 333.074 0.273933 -1.51951 0
M  V30 3467 H 335.032 3.22412 -2.54088 0
M  V30 3468 H 333.693 2.78105 -1.46001 0
M  V30 3469 H 332.886 3.3398 -3.77457 0
M  V30 3470 H 332.488 1.65823 -3.3523 0
M  V30 3471 H 334.78 4.05882 -5.42463 0
M  V30 3472 H 335.723 2.92843 -6.44708 0
M  V30 3473 H 336.131 3.10474 -4.71451 0
M  V30 3474 N 335.529 1.53961 0.336706 0
M  V30 3475 C 336.754 1.75797 1.10046 0
M  V30 3476 C 337.179 0.498985 1.81361 0
M  V30 3477 O 336.537 -0.548769 1.72795 0
M  V30 3478 C 336.585 2.94257 2.08436 0
M  V30 3479 O 335.689 2.64883 3.16087 0
M  V30 3480 H 335.03 0.582936 0.317934 0
M  V30 3481 H 337.56 2.00945 0.38501 0
M  V30 3482 H 337.57 3.21237 2.51537 0
M  V30 3483 H 336.245 3.85564 1.55927 0
M  V30 3484 H 334.822 2.48812 2.77753 0
M  V30 3485 N 337.007 -0.598083 1.45811 0
M  V30 3486 C 337.954 -1.7082 1.55207 0
M  V30 3487 C 338.924 -1.61278 0.39732 0
M  V30 3488 O 340.109 -1.80717 0.612038 0
M  V30 3489 C 337.249 -3.09144 1.53376 0
M  V30 3490 C 336.362 -3.29423 2.79472 0
M  V30 3491 C 335.497 -4.57907 2.69248 0
M  V30 3492 C 334.536 -4.71476 3.90354 0
M  V30 3493 N 333.673 -5.9127 3.78608 0
M  V30 3494 H 338.513 -1.62125 2.50039 0
M  V30 3495 H 336.05 -0.790389 1.24062 0
M  V30 3496 H 338.008 -3.89186 1.50301 0
M  V30 3497 H 336.638 -3.16773 0.620876 0
M  V30 3498 H 335.69 -2.43091 2.92594 0
M  V30 3499 H 337.002 -3.3532 3.69272 0
M  V30 3500 H 336.156 -5.46157 2.64192 0
M  V30 3501 H 334.895 -4.54423 1.77063 0
M  V30 3502 H 333.9 -3.81648 3.95759 0
M  V30 3503 H 335.125 -4.76751 4.83617 0
M  V30 3504 H 333.071 -5.88813 2.89199 0
M  V30 3505 H 332.988 -5.98369 4.6205 0
M  V30 3506 H 334.256 -6.81992 3.77501 0
M  V30 3507 N 338.485 -1.33259 -0.841409 0
M  V30 3508 C 339.433 -1.23279 -1.97244 0
M  V30 3509 C 340.427 -0.134706 -1.68864 0
M  V30 3510 O 341.633 -0.298501 -1.77508 0
M  V30 3511 H 338.008 -0.382497 -0.647457 0
M  V30 3512 H 339.979 -2.18906 -2.02787 0
M  V30 3513 C 338.728 -0.986268 -3.33419 0
M  V30 3514 H 338.051 -1.82347 -3.55794 0
M  V30 3515 H 339.491 -0.956728 -4.13065 0
M  V30 3516 C 337.95 0.310842 -3.35463 0
M  V30 3517 O 338.48 1.31838 -3.79449 0
M  V30 3518 N 336.686 0.337485 -2.88634 0
M  V30 3519 H 336.233 -0.482967 -2.53032 0
M  V30 3520 H 336.191 1.20518 -2.90384 0
M  V30 3521 N 339.963 1.05934 -1.16686 0
M  V30 3522 C 340.926 2.11669 -0.879144 0
M  V30 3523 C 341.926 1.60294 0.127445 0
M  V30 3524 O 343.116 1.7389 -0.103865 0
M  V30 3525 C 340.248 3.39438 -0.315425 0
M  V30 3526 H 341.441 2.38626 -1.81653 0
M  V30 3527 H 338.994 1.22058 -0.976299 0
M  V30 3528 H 339.729 3.18132 0.629468 0
M  V30 3529 H 339.514 3.78034 -1.04079 0
M  V30 3530 H 341.004 4.17391 -0.132189 0
M  V30 3531 N 341.441 0.965919 1.2453 0
M  V30 3532 C 342.371 0.513476 2.27784 0
M  V30 3533 C 343.352 -0.445974 1.6415 0
M  V30 3534 O 344.537 -0.342485 1.91156 0
M  V30 3535 C 341.667 -0.198839 3.4673 0
M  V30 3536 C 340.621 0.676456 4.2262 0
M  V30 3537 C 339.947 -0.167248 5.34438 0
M  V30 3538 C 341.247 1.96017 4.84123 0
M  V30 3539 H 342.941 1.3765 2.65881 0
M  V30 3540 H 340.487 0.663321 1.27813 0
M  V30 3541 H 342.44 -0.526567 4.18097 0
M  V30 3542 H 341.164 -1.0962 3.07654 0
M  V30 3543 H 339.823 0.98743 3.53052 0
M  V30 3544 H 339.471 -1.0647 4.91603 0
M  V30 3545 H 339.171 0.415181 5.86131 0
M  V30 3546 H 340.695 -0.489688 6.08633 0
M  V30 3547 H 342.109 1.69814 5.47573 0
M  V30 3548 H 340.506 2.48918 5.4604 0
M  V30 3549 H 341.576 2.65622 4.05676 0
M  V30 3550 N 342.919 -1.39368 0.735821 0
M  V30 3551 C 344.335 -1.54204 0.411492 0
M  V30 3552 C 344.535 -1.70268 -1.07755 0
M  V30 3553 O 343.591 -1.70364 -1.86366 0
M  V30 3554 C 344.904 -2.75925 1.19523 0
M  V30 3555 C 346.452 -2.89761 1.18354 0
M  V30 3556 C 346.927 -4.14421 1.94986 0
M  V30 3557 N 348.418 -4.21462 1.92156 0
M  V30 3558 C 349.153 -5.16871 2.48258 0
M  V30 3559 N 348.649 -6.18063 3.13001 0
M  V30 3560 N 350.442 -5.09093 2.38287 0
M  V30 3561 H 342.593 -1.27189 1.70108 0
M  V30 3562 H 344.856 -0.616517 0.720147 0
M  V30 3563 H 344.562 -2.70401 2.24892 0
M  V30 3564 H 344.436 -3.68614 0.800222 0
M  V30 3565 H 346.823 -2.94777 0.137975 0
M  V30 3566 H 346.904 -1.98133 1.61793 0
M  V30 3567 H 346.548 -4.10166 2.99543 0
M  V30 3568 H 346.478 -5.05095 1.48953 0
M  V30 3569 H 348.969 -3.48979 1.44991 0
M  V30 3570 H 349.282 -6.87326 3.53275 0
M  V30 3571 H 347.627 -6.18448 3.17091 0
M  V30 3572 H 350.818 -4.28973 1.8735 0
M  V30 3573 H 350.991 -5.83272 2.82308 0
M  V30 3574 N 344.397 -0.483516 -1.5 0
M  V30 3575 C 345.345 0.318061 -2.30415 0
M  V30 3576 C 346.339 0.978988 -1.38247 0
M  V30 3577 O 347.545 0.908673 -1.55381 0
M  V30 3578 H 343.92 0.121419 -0.742133 0
M  V30 3579 H 345.891 -0.380403 -2.95965 0
M  V30 3580 C 344.64 1.38013 -3.19136 0
M  V30 3581 H 343.963 0.880952 -3.89973 0
M  V30 3582 H 345.403 1.91332 -3.78375 0
M  V30 3583 C 343.862 2.38884 -2.37563 0
M  V30 3584 O 344.392 3.44412 -2.06744 0
M  V30 3585 N 342.598 2.10912 -1.99911 0
M  V30 3586 H 342.145 1.25118 -2.25174 0
M  V30 3587 H 342.103 2.78635 -1.45636 0
M  V30 3588 N 345.875 1.56104 -0.216619 0
M  V30 3589 C 347.122 1.98172 0.416416 0
M  V30 3590 C 347.45 1.10413 1.60122 0
M  V30 3591 O 346.705 0.147967 1.9514 0
M  V30 3592 C 347.004 3.45923 0.898464 0
M  V30 3593 C 346.67 4.50559 -0.175288 0
M  V30 3594 C 345.332 4.78897 -0.470271 0
M  V30 3595 C 347.684 5.1334 -0.901728 0
M  V30 3596 C 345.012 5.67299 -1.4963 0
M  V30 3597 C 347.364 6.02853 -1.91705 0
M  V30 3598 C 346.028 6.29537 -2.21901 0
M  V30 3599 H 345.298 0.725164 0.152377 0
M  V30 3600 H 347.945 1.88839 -0.318103 0
M  V30 3601 H 346.25 3.52434 1.71165 0
M  V30 3602 H 347.947 3.75841 1.39803 0
M  V30 3603 H 344.537 4.28551 0.0647806 0
M  V30 3604 H 348.721 4.91521 -0.687072 0
M  V30 3605 H 343.977 5.86239 -1.73592 0
M  V30 3606 H 348.151 6.50552 -2.48505 0
M  V30 3607 H 345.778 6.97835 -3.01548 0
M  V30 3608 N 347.353 -0.0568162 1.57498 0
M  V30 3609 C 348.602 -0.752001 1.87157 0
M  V30 3610 C 348.915 -1.77978 0.811375 0
M  V30 3611 O 350.121 -2.52559 0.996293 0
M  V30 3612 C 348.577 -1.38844 3.3204 0
M  V30 3613 C 348.185 -0.398456 4.46225 0
M  V30 3614 C 349.929 -2.06512 3.70882 0
M  V30 3615 C 347.836 -1.04166 5.82154 0
M  V30 3616 H 346.766 -0.28461 0.698222 0
M  V30 3617 H 349.417 -0.00561272 1.83499 0
M  V30 3618 H 347.799 -2.1836 3.30356 0
M  V30 3619 H 348.973 0.367977 4.59328 0
M  V30 3620 H 347.288 0.174592 4.16034 0
M  V30 3621 H 349.885 -2.55437 4.6974 0
M  V30 3622 H 350.228 -2.87117 3.01445 0
M  V30 3623 H 350.761 -1.33808 3.7462 0
M  V30 3624 H 347.5 -0.275614 6.5492 0
M  V30 3625 H 347.02 -1.7786 5.72823 0
M  V30 3626 H 348.699 -1.55715 6.27982 0
M  V30 3627 N 348.832 -1.54138 -0.328536 0
M  V30 3628 C 349.795 -1.82462 -1.38709 0
M  V30 3629 C 350.795 -0.696229 -1.44946 0
M  V30 3630 O 351.985 -0.964535 -1.4506 0
M  V30 3631 C 349.117 -1.98018 -2.77492 0
M  V30 3632 H 350.31 -2.77037 -1.14851 0
M  V30 3633 H 347.863 -1.45779 -0.563751 0
M  V30 3634 H 348.598 -1.05637 -3.06613 0
M  V30 3635 H 348.383 -2.80124 -2.74359 0
M  V30 3636 H 349.873 -2.21396 -3.54081 0
M  V30 3637 N 350.31 0.590341 -1.46126 0
M  V30 3638 C 351.273 1.68194 -1.55703 0
M  V30 3639 C 352.273 1.54808 -0.434868 0
M  V30 3640 O 353.463 1.59564 -0.698928 0
M  V30 3641 C 350.595 3.07575 -1.47005 0
M  V30 3642 H 351.788 1.61064 -2.52979 0
M  V30 3643 H 349.341 0.807541 -1.33823 0
M  V30 3644 H 350.076 3.20268 -0.509785 0
M  V30 3645 H 349.861 3.187 -2.28414 0
M  V30 3646 H 351.351 3.87055 -1.56776 0
M  V30 3647 N 351.788 1.33704 0.83433 0
M  V30 3648 C 352.698 1.26382 1.97648 0
M  V30 3649 C 353.714 0.173548 1.73132 0
M  V30 3650 O 354.89 0.397962 1.97429 0
M  V30 3651 C 351.955 1.00769 3.31733 0
M  V30 3652 C 351.016 2.1884 3.69334 0
M  V30 3653 C 350.249 1.9444 4.9702 0
M  V30 3654 O 350.472 0.896961 5.63303 0
M  V30 3655 O 349.406 2.81093 5.32231 0
M  V30 3656 H 353.232 2.22444 2.06767 0
M  V30 3657 H 350.817 1.13795 0.968037 0
M  V30 3658 H 352.699 0.882186 4.12062 0
M  V30 3659 H 351.374 0.0773783 3.23608 0
M  V30 3660 H 350.281 2.36946 2.89495 0
M  V30 3661 H 351.614 3.10221 3.82131 0
M  V30 3662 N 353.266 -1.05314 1.17247 0
M  V30 3663 C 354.515 -1.77685 0.954521 0
M  V30 3664 C 354.828 -1.88616 -0.518025 0
M  V30 3665 O 356.034 -2.57714 -0.854144 0
M  V30 3666 C 354.49 -3.19402 1.65863 0
M  V30 3667 C 354.098 -3.16605 3.16963 0
M  V30 3668 C 355.842 -3.96237 1.52303 0
M  V30 3669 C 353.749 -4.53103 3.80068 0
M  V30 3670 H 352.679 -0.666 0.353496 0
M  V30 3671 H 355.33 -1.1805 1.40486 0
M  V30 3672 H 353.712 -3.79355 1.13602 0
M  V30 3673 H 354.886 -2.66176 3.76148 0
M  V30 3674 H 353.201 -2.53268 3.30521 0
M  V30 3675 H 355.798 -4.97157 1.96822 0
M  V30 3676 H 356.141 -4.136 0.473401 0
M  V30 3677 H 356.674 -3.42829 2.01775 0
M  V30 3678 H 353.413 -4.40946 4.85023 0
M  V30 3679 H 352.933 -5.03686 3.2567 0
M  V30 3680 H 354.612 -5.22045 3.82202 0
M  V30 3681 N 354.744 -0.972509 -1.24016 0
M  V30 3682 C 355.654 -0.5143 -2.28893 0
M  V30 3683 C 356.67 0.427078 -1.68677 0
M  V30 3684 O 357.846 0.298939 -1.99169 0
M  V30 3685 C 354.911 0.183598 -3.46214 0
M  V30 3686 C 353.972 -0.798202 -4.21814 0
M  V30 3687 C 353.205 -0.133514 -5.33533 0
M  V30 3688 O 353.428 1.07714 -5.60137 0
M  V30 3689 O 352.362 -0.828103 -5.96176 0
M  V30 3690 H 356.188 -1.38629 -2.70214 0
M  V30 3691 H 353.773 -0.739769 -1.29799 0
M  V30 3692 H 355.655 0.575433 -4.17453 0
M  V30 3693 H 354.33 1.03048 -3.0686 0
M  V30 3694 H 353.237 -1.24059 -3.52931 0
M  V30 3695 H 354.57 -1.61364 -4.64997 0
M  V30 3696 N 356.222 1.38976 -0.743202 0
M  V30 3697 C 357.499 1.94351 -0.220705 0
M  V30 3698 C 357.879 1.67935 1.2791 0
M  V30 3699 O 357.227 1.01211 2.04862 0
M  V30 3700 C 357.437 3.44426 -0.563171 0
M  V30 3701 C 358.785 4.2144 -0.517046 0
M  V30 3702 O 359.809 3.52661 -0.500846 0
M  V30 3703 O 358.668 5.44032 -0.518806 0
M  V30 3704 H 355.762 0.825879 -0.043047 0
M  V30 3705 H 358.308 1.48429 -0.822618 0
M  V30 3706 H 357.08 3.5712 -1.59941 0
M  V30 3707 H 356.703 3.97543 0.0672883 0
M  V30 3708 N 357.7 0.491464 1.49741 0
M  V30 3709 C 358.663 -0.280906 2.27472 0
M  V30 3710 C 359.663 -0.902454 1.33088 0
M  V30 3711 O 360.853 -0.768465 1.56334 0
M  V30 3712 C 357.985 -1.40209 3.10732 0
M  V30 3713 H 359.178 0.401056 2.97206 0
M  V30 3714 H 356.731 0.246131 1.5435 0
M  V30 3715 H 357.466 -2.11849 2.45541 0
M  V30 3716 H 357.251 -0.961969 3.80117 0
M  V30 3717 H 358.741 -1.9464 3.69466 0
M  V30 3718 N 359.178 -1.55987 0.224894 0
M  V30 3719 C 360.125 -2.20436 -0.68385 0
M  V30 3720 C 361.095 -1.16102 -1.18783 0
M  V30 3721 O 362.28 -1.4447 -1.24632 0
M  V30 3722 C 359.42 -2.89076 -1.88491 0
M  V30 3723 C 358.533 -4.08012 -1.41951 0
M  V30 3724 C 357.668 -4.64426 -2.5784 0
M  V30 3725 C 356.707 -5.75656 -2.08053 0
M  V30 3726 N 355.844 -6.26347 -3.17227 0
M  V30 3727 H 360.684 -2.97727 -0.12754 0
M  V30 3728 H 358.221 -1.47011 -0.0511978 0
M  V30 3729 H 360.179 -3.27059 -2.59014 0
M  V30 3730 H 358.809 -2.14298 -2.41405 0
M  V30 3731 H 357.861 -3.75492 -0.609095 0
M  V30 3732 H 359.173 -4.88375 -1.01447 0
M  V30 3733 H 358.327 -5.04869 -3.3644 0
M  V30 3734 H 357.066 -3.83233 -3.01635 0
M  V30 3735 H 356.071 -5.34712 -1.27916 0
M  V30 3736 H 357.296 -6.58686 -1.65255 0
M  V30 3737 H 355.242 -5.48067 -3.60497 0
M  V30 3738 H 355.159 -7.01843 -2.80986 0
M  V30 3739 H 356.427 -6.71447 -3.95953 0
M  V30 3740 N 360.656 0.0484629 -1.57525 0
M  V30 3741 C 361.603 1.05504 -2.05275 0
M  V30 3742 C 362.573 1.37084 -0.937927 0
M  V30 3743 O 363.758 1.47754 -1.2072 0
M  V30 3744 C 360.898 2.35676 -2.52093 0
M  V30 3745 C 360.011 2.10423 -3.77288 0
M  V30 3746 C 359.146 3.34327 -4.12794 0
M  V30 3747 C 358.185 3.04542 -5.30962 0
M  V30 3748 N 357.322 4.20841 -5.61994 0
M  V30 3749 H 362.162 0.640885 -2.91027 0
M  V30 3750 H 359.699 0.304854 -1.43906 0
M  V30 3751 H 361.657 3.11709 -2.77297 0
M  V30 3752 H 360.287 2.7485 -1.69285 0
M  V30 3753 H 359.339 1.24976 -3.59284 0
M  V30 3754 H 360.651 1.84438 -4.63448 0
M  V30 3755 H 359.805 4.1874 -4.39024 0
M  V30 3756 H 358.544 3.63408 -3.25247 0
M  V30 3757 H 357.549 2.18528 -5.04505 0
M  V30 3758 H 358.774 2.76758 -6.20146 0
M  V30 3759 H 356.72 4.4991 -4.77406 0
M  V30 3760 H 356.637 3.98212 -6.42622 0
M  V30 3761 H 357.905 5.06184 -5.92789 0
M  V30 3762 N 362.134 1.5431 0.320358 0
M  V30 3763 C 363.066 1.80262 1.41556 0
M  V30 3764 C 364.079 0.684723 1.477 0
M  V30 3765 O 365.268 0.961886 1.50366 0
M  V30 3766 C 362.368 1.90825 2.8007 0
M  V30 3767 C 361.541 3.21023 2.97091 0
M  V30 3768 C 360.6 3.22247 4.15985 0
M  V30 3769 O 359.626 3.95871 4.08992 0
M  V30 3770 N 360.828 2.46258 5.25678 0
M  V30 3771 H 363.593 2.74778 1.19655 0
M  V30 3772 H 361.154 1.53646 0.510358 0
M  V30 3773 H 363.146 1.89067 3.57821 0
M  V30 3774 H 361.716 1.03392 2.95006 0
M  V30 3775 H 360.936 3.35715 2.06614 0
M  V30 3776 H 362.224 4.0698 3.05361 0
M  V30 3777 H 361.622 1.86037 5.34235 0
M  V30 3778 H 360.179 2.50275 6.01835 0
M  V30 3779 N 363.613 -0.582584 1.46437 0
M  V30 3780 C 364.861 -1.33814 1.51453 0
M  V30 3781 C 365.182 -1.94277 0.167792 0
M  V30 3782 O 364.452 -1.78566 -0.805677 0
M  V30 3783 H 363.032 -0.496838 0.557818 0
M  V30 3784 H 365.694 -0.682281 1.82568 0
M  V30 3785 H 364.79 -2.14479 2.26728 0
M  V30 3786 N 365.091 -1.34144 -0.827227 0
M  V30 3787 C 366.337 -1.26446 -1.58554 0
M  V30 3788 C 366.67 0.1664 -1.93486 0
M  V30 3789 O 365.945 1.1107 -1.59667 0
M  V30 3790 C 366.228 -2.15111 -2.8879 0
M  V30 3791 C 366.081 -3.66712 -2.60465 0
M  V30 3792 C 367.4 -2.03311 -3.90324 0
M  V30 3793 H 364.519 -0.46067 -0.575284 0
M  V30 3794 H 367.161 -1.64356 -0.953269 0
M  V30 3795 H 365.311 -1.8291 -3.42748 0
M  V30 3796 H 366.983 -4.09259 -2.1285 0
M  V30 3797 H 365.226 -3.88014 -1.93978 0
M  V30 3798 H 365.897 -4.24112 -3.53317 0
M  V30 3799 H 368.373 -2.31574 -3.45706 0
M  V30 3800 H 367.249 -2.67582 -4.79261 0
M  V30 3801 H 367.51 -1.00879 -4.30437 0
M  V30 3802 N 366.569 1.04691 -1.17803 0
M  V30 3803 C 367.499 2.14494 -0.92275 0
M  V30 3804 C 368.48 1.69546 0.137179 0
M  V30 3805 O 369.665 1.94195 -0.0141108 0
M  V30 3806 C 366.795 3.44491 -0.440803 0
M  V30 3807 C 365.749 4.03031 -1.4405 0
M  V30 3808 C 365.075 5.28432 -0.81631 0
M  V30 3809 C 366.375 4.39932 -2.81527 0
M  V30 3810 H 368.069 2.36107 -1.84103 0
M  V30 3811 H 365.615 1.1347 -0.886599 0
M  V30 3812 H 367.568 4.2066 -0.249602 0
M  V30 3813 H 366.292 3.22546 0.513025 0
M  V30 3814 H 364.951 3.28937 -1.61853 0
M  V30 3815 H 364.599 5.02792 0.144511 0
M  V30 3816 H 364.299 5.68559 -1.48371 0
M  V30 3817 H 365.823 6.07284 -0.635496 0
M  V30 3818 H 367.237 5.07113 -2.67412 0
M  V30 3819 H 365.634 4.9109 -3.44892 0
M  V30 3820 H 366.704 3.50045 -3.35554 0
M  V30 3821 N 368.047 0.979072 1.23499 0
M  V30 3822 C 368.977 0.537606 2.27227 0
M  V30 3823 C 369.958 -0.428539 1.64613 0
M  V30 3824 O 371.143 -0.322191 1.91509 0
M  V30 3825 C 368.273 -0.162052 3.46922 0
M  V30 3826 C 367.227 0.721242 4.21879 0
M  V30 3827 C 366.553 -0.110555 5.34586 0
M  V30 3828 C 367.853 2.01141 4.82016 0
M  V30 3829 H 369.547 1.40462 2.64406 0
M  V30 3830 H 367.093 0.67684 1.27102 0
M  V30 3831 H 369.046 -0.482192 4.18632 0
M  V30 3832 H 367.77 -1.06351 3.08799 0
M  V30 3833 H 366.429 1.02482 3.51984 0
M  V30 3834 H 366.077 -1.0125 4.92704 0
M  V30 3835 H 365.777 0.477325 5.85658 0
M  V30 3836 H 367.301 -0.425107 6.09118 0
M  V30 3837 H 368.715 1.75612 5.45741 0
M  V30 3838 H 367.112 2.54695 5.43369 0
M  V30 3839 H 368.182 2.69909 4.02836 0
M  V30 3840 N 369.525 -1.3858 0.750561 0
M  V30 3841 C 370.75 -2.04997 0.314812 0
M  V30 3842 C 371.175 -1.56235 -1.04749 0
M  V30 3843 O 370.533 -0.712981 -1.66692 0
M  V30 3844 C 370.581 -3.58961 0.343415 0
M  V30 3845 O 369.685 -4.07025 -0.663628 0
M  V30 3846 H 369.026 -0.649081 0.139962 0
M  V30 3847 H 371.556 -1.77313 1.02084 0
M  V30 3848 H 371.566 -4.07542 0.193233 0
M  V30 3849 H 370.241 -3.93811 1.33738 0
M  V30 3850 H 368.818 -3.6982 -0.478307 0
M  V30 3851 N 371.003 -0.499398 -1.49478 0
M  V30 3852 C 372.249 0.0457576 -2.02748 0
M  V30 3853 C 372.582 1.36793 -1.37846 0
M  V30 3854 O 371.857 1.87596 -0.513601 0
M  V30 3855 C 372.14 0.199986 -3.59544 0
M  V30 3856 C 371.993 -1.1452 -4.34977 0
M  V30 3857 C 373.312 0.94137 -4.29914 0
M  V30 3858 H 370.431 0.0151552 -0.736844 0
M  V30 3859 H 373.073 -0.650498 -1.78518 0
M  V30 3860 H 371.223 0.793007 -3.8032 0
M  V30 3861 H 372.895 -1.77697 -4.25701 0
M  V30 3862 H 371.138 -1.73488 -3.97598 0
M  V30 3863 H 371.809 -0.990607 -5.43039 0
M  V30 3864 H 374.285 0.43844 -4.13784 0
M  V30 3865 H 373.161 1.01812 -5.39375 0
M  V30 3866 H 373.422 1.98471 -3.95046 0
M  V30 3867 N 372.481 1.55866 -0.233164 0
M  V30 3868 C 373.431 2.17442 0.685774 0
M  V30 3869 C 374.415 1.12617 1.14918 0
M  V30 3870 O 375.607 1.3857 1.10124 0
M  V30 3871 C 372.736 2.86685 1.88856 0
M  V30 3872 C 371.822 3.98749 1.4443 0
M  V30 3873 N 372.213 5.00744 0.713364 0
M  V30 3874 C 370.511 4.11052 1.73068 0
M  V30 3875 C 371.212 5.79673 0.485205 0
M  V30 3876 N 370.188 5.33454 1.04536 0
M  V30 3877 H 373.99 2.93659 0.119022 0
M  V30 3878 H 371.504 1.62362 -0.0348995 0
M  V30 3879 H 373.501 3.29218 2.55776 0
M  V30 3880 H 372.161 2.11967 2.45967 0
M  V30 3881 H 373.172 5.16613 0.364861 0
M  V30 3882 H 369.849 3.47495 2.31416 0
M  V30 3883 H 371.239 6.71829 -0.097365 0
M  V30 3884 N 373.959 -0.0401083 1.57549 0
M  V30 3885 C 374.889 -1.04384 2.08869 0
M  V30 3886 C 375.87 -1.38407 0.988817 0
M  V30 3887 O 377.055 -1.47483 1.26342 0
M  V30 3888 C 374.185 -2.34808 2.55895 0
M  V30 3889 C 373.139 -2.15057 3.70047 0
M  V30 3890 C 372.465 -3.51145 4.03239 0
M  V30 3891 C 373.765 -1.54576 4.98902 0
M  V30 3892 H 375.459 -0.616666 2.92981 0
M  V30 3893 H 373.005 -0.295184 1.40942 0
M  V30 3894 H 374.958 -3.05346 2.90417 0
M  V30 3895 H 373.682 -2.79565 1.68853 0
M  V30 3896 H 372.341 -1.46954 3.35857 0
M  V30 3897 H 371.989 -3.93529 3.13279 0
M  V30 3898 H 371.689 -3.38758 4.80122 0
M  V30 3899 H 373.213 -4.23062 4.40285 0
M  V30 3900 H 374.627 -2.15017 5.31451 0
M  V30 3901 H 373.024 -1.52796 5.80322 0
M  V30 3902 H 374.094 -0.51039 4.82206 0
M  V30 3903 N 375.437 -1.54477 -0.31217 0
M  V30 3904 C 376.384 -1.84655 -1.38461 0
M  V30 3905 C 377.354 -0.694536 -1.50882 0
M  V30 3906 O 378.539 -0.942081 -1.6592 0
M  V30 3907 C 375.679 -2.0896 -2.74645 0
M  V30 3908 C 374.792 -3.36618 -2.70763 0
M  V30 3909 C 373.927 -3.50824 -3.98868 0
M  V30 3910 C 372.966 -4.72315 -3.89339 0
M  V30 3911 N 372.103 -4.83387 -5.09197 0
M  V30 3912 H 376.943 -2.76142 -1.12026 0
M  V30 3913 H 374.48 -1.36748 -0.542065 0
M  V30 3914 H 376.438 -2.21045 -3.53829 0
M  V30 3915 H 375.068 -1.20752 -2.99364 0
M  V30 3916 H 374.12 -3.33211 -1.83506 0
M  V30 3917 H 375.432 -4.25917 -2.59608 0
M  V30 3918 H 374.586 -3.62513 -4.86486 0
M  V30 3919 H 373.325 -2.59638 -4.12843 0
M  V30 3920 H 372.33 -4.6067 -3.00105 0
M  V30 3921 H 373.555 -5.64897 -3.76919 0
M  V30 3922 H 371.501 -3.9512 -5.23657 0
M  V30 3923 H 371.418 -5.66669 -5.00422 0
M  V30 3924 H 372.686 -4.9942 -5.98498 0
M  V30 3925 N 376.915 0.57481 -1.46744 0
M  V30 3926 C 377.878 1.66533 -1.57478 0
M  V30 3927 C 378.878 1.54338 -0.451263 0
M  V30 3928 O 380.068 1.58814 -0.715813 0
M  V30 3929 C 377.2 3.05999 -1.50259 0
M  V30 3930 H 378.393 1.58372 -2.54673 0
M  V30 3931 H 375.946 0.793301 -1.34672 0
M  V30 3932 H 376.681 3.19709 -0.543725 0
M  V30 3933 H 376.466 3.16259 -2.31781 0
M  V30 3934 H 377.956 3.8537 -1.60872 0
M  V30 3935 N 378.394 1.34581 0.820102 0
M  V30 3936 C 379.622 1.3018 1.60813 0
M  V30 3937 C 380.037 -0.123551 1.88395 0
M  V30 3938 O 379.394 -1.07148 1.47735 0
M  V30 3939 C 379.445 2.09312 2.94739 0
M  V30 3940 O 379.166 3.46288 2.68358 0
M  V30 3941 C 380.667 2.1234 3.89136 0
M  V30 3942 H 377.887 0.447726 0.499782 0
M  V30 3943 H 380.431 1.77237 1.02017 0
M  V30 3944 H 378.586 1.65889 3.50085 0
M  V30 3945 H 379 3.87227 3.53774 0
M  V30 3946 H 380.474 2.72126 4.80262 0
M  V30 3947 H 380.951 1.11854 4.24718 0
M  V30 3948 H 381.557 2.55864 3.39726 0
M  V30 3949 N 379.872 -1.04064 1.18357 0
M  V30 3950 C 380.805 -2.11618 0.854 0
M  V30 3951 C 381.783 -1.61555 -0.184043 0
M  V30 3952 O 382.967 -1.88395 -0.0630048 0
M  V30 3953 C 380.094 -3.37574 0.27597 0
M  V30 3954 C 379.14 -4.06485 1.2912 0
M  V30 3955 S 379.973 -4.53543 2.84709 0
M  V30 3956 C 381.129 -5.82732 2.28417 0
M  V30 3957 H 381.362 -2.39247 1.76488 0
M  V30 3958 H 378.895 -1.16832 1.00944 0
M  V30 3959 H 380.853 -4.10468 -0.051026 0
M  V30 3960 H 379.514 -3.0806 -0.613028 0
M  V30 3961 H 378.707 -4.97024 0.835633 0
M  V30 3962 H 378.309 -3.39708 1.56443 0
M  V30 3963 H 380.601 -6.56677 1.66677 0
M  V30 3964 H 381.544 -6.33052 3.17256 0
M  V30 3965 H 381.952 -5.37838 1.71436 0
M  V30 3966 N 381.35 -0.985608 -1.22978 0
M  V30 3967 C 382.283 -0.47487 -2.23204 0
M  V30 3968 C 383.261 0.460865 -1.55932 0
M  V30 3969 O 384.445 0.388105 -1.84461 0
M  V30 3970 C 381.572 0.312427 -3.37256 0
M  V30 3971 C 380.618 -0.568219 -4.22698 0
M  V30 3972 S 381.451 -2.01919 -4.95973 0
M  V30 3973 C 382.607 -1.24118 -6.1347 0
M  V30 3974 H 382.84 -1.32419 -2.66181 0
M  V30 3975 H 380.373 -0.792005 -1.32539 0
M  V30 3976 H 382.331 0.760645 -4.03391 0
M  V30 3977 H 380.992 1.13693 -2.92801 0
M  V30 3978 H 380.185 0.0371657 -5.03986 0
M  V30 3979 H 379.787 -0.952897 -3.61657 0
M  V30 3980 H 382.079 -0.505121 -6.75614 0
M  V30 3981 H 383.022 -2.02907 -6.78406 0
M  V30 3982 H 383.43 -0.757669 -5.59392 0
M  V30 3983 N 382.828 1.3818 -0.7579 0
M  V30 3984 C 383.775 2.30416 -0.133057 0
M  V30 3985 C 384.745 1.50398 0.704957 0
M  V30 3986 O 385.93 1.79014 0.660192 0
M  V30 3987 C 383.07 3.36834 0.750813 0
M  V30 3988 C 382.183 4.31879 -0.102297 0
M  V30 3989 C 381.318 5.25368 0.784979 0
M  V30 3990 C 380.357 6.12058 -0.0715046 0
M  V30 3991 N 379.494 6.97832 0.772972 0
M  V30 3992 H 384.334 2.83274 -0.925186 0
M  V30 3993 H 381.871 1.39461 -0.467866 0
M  V30 3994 H 383.829 3.97145 1.27794 0
M  V30 3995 H 382.459 2.85374 1.50868 0
M  V30 3996 H 381.511 3.72991 -0.747095 0
M  V30 3997 H 382.823 4.92921 -0.763552 0
M  V30 3998 H 381.977 5.90818 1.37911 0
M  V30 3999 H 380.716 4.64703 1.47996 0
M  V30 4000 H 379.721 5.456 -0.678272 0
M  V30 4001 H 380.946 6.74793 -0.763606 0
M  V30 4002 H 378.892 6.3971 1.45282 0
M  V30 4003 H 378.809 7.55812 0.168709 0
M  V30 4004 H 380.077 7.67687 1.35194 0
M  V30 4005 N 384.306 0.507319 1.49211 0
M  V30 4006 C 385.552 -0.0350047 2.0277 0
M  V30 4007 C 385.885 -1.3606 1.38569 0
M  V30 4008 O 385.16 -1.87321 0.523542 0
M  V30 4009 C 385.443 -0.180916 3.59645 0
M  V30 4010 C 385.296 1.16825 4.34364 0
M  V30 4011 C 386.615 -0.918558 4.30407 0
M  V30 4012 H 383.734 -0.0112473 0.736914 0
M  V30 4013 H 386.376 0.659956 1.7817 0
M  V30 4014 H 384.526 -0.772826 3.80736 0
M  V30 4015 H 386.198 1.79952 4.24753 0
M  V30 4016 H 384.441 1.75594 3.96673 0
M  V30 4017 H 385.112 1.01939 5.42506 0
M  V30 4018 H 387.588 -0.41649 4.1401 0
M  V30 4019 H 386.464 -0.989505 5.39907 0
M  V30 4020 H 386.725 -1.96373 3.96093 0
M  V30 4021 N 385.784 -1.5574 0.241426 0
M  V30 4022 C 387.009 -2.0366 -0.392111 0
M  V30 4023 C 387.434 -1.11969 -1.51144 0
M  V30 4024 O 386.792 -0.111594 -1.80956 0
M  V30 4025 C 386.84 -3.49638 -0.882371 0
M  V30 4026 O 385.944 -3.6108 -1.99235 0
M  V30 4027 H 385.285 -0.658379 -0.0862122 0
M  V30 4028 H 387.815 -2.01302 0.365881 0
M  V30 4029 H 387.825 -3.90351 -1.18702 0
M  V30 4030 H 386.5 -4.15852 -0.0632361 0
M  V30 4031 H 385.077 -3.32262 -1.69282 0
M  V30 4032 N 387.262 0.0317525 -1.57568 0
M  V30 4033 C 388.539 0.758366 -1.803 0
M  V30 4034 C 388.919 1.93718 -0.838845 0
M  V30 4035 O 388.267 2.28187 0.119571 0
M  V30 4036 C 388.477 1.19392 -3.27943 0
M  V30 4037 C 389.825 1.61094 -3.92854 0
M  V30 4038 O 390.849 1.28857 -3.32076 0
M  V30 4039 O 389.708 2.20918 -4.99858 0
M  V30 4040 H 386.802 0.366514 -0.741348 0
M  V30 4041 H 389.348 0.00873765 -1.69698 0
M  V30 4042 H 388.12 0.352275 -3.89711 0
M  V30 4043 H 387.743 2.00365 -3.43424 0
M  V30 4044 N 388.74 1.54641 0.303973 0
M  V30 4045 C 390.151 1.64811 0.877163 0
M  V30 4046 C 390.502 0.554838 1.88191 0
M  V30 4047 O 389.627 -0.309033 2.14182 0
M  V30 4048 C 390.222 2.9876 1.59775 0
M  V30 4049 C 388.781 3.11061 2.11938 0
M  V30 4050 C 387.928 2.60479 0.951097 0
M  V30 4051 H 390.879 1.58493 0.0810486 0
M  V30 4052 H 390.9 2.90017 2.46314 0
M  V30 4053 H 390.412 3.7831 0.866226 0
M  V30 4054 H 388.513 2.36225 2.88146 0
M  V30 4055 H 388.626 4.17171 2.35595 0
M  V30 4056 H 386.99 2.16859 1.33583 0
M  V30 4057 H 387.773 3.42504 0.233581 0
M  V30 4058 N 390.218 -0.567019 1.47046 0
M  V30 4059 C 391.467 -1.32091 1.5243 0
M  V30 4060 C 391.78 -1.94704 0.187021 0
M  V30 4061 O 392.986 -2.7124 0.118771 0
M  V30 4062 C 391.442 -2.39479 2.68659 0
M  V30 4063 C 391.05 -1.831 4.08874 0
M  V30 4064 C 392.794 -3.16111 2.83327 0
M  V30 4065 C 390.701 -2.8821 5.16419 0
M  V30 4066 H 389.631 -0.496629 0.56734 0
M  V30 4067 H 392.282 -0.603354 1.73297 0
M  V30 4068 H 390.664 -3.14105 2.41152 0
M  V30 4069 H 391.838 -1.14913 4.46242 0
M  V30 4070 H 390.153 -1.19085 3.99008 0
M  V30 4071 H 392.75 -3.94585 3.60842 0
M  V30 4072 H 393.093 -3.69686 1.91411 0
M  V30 4073 H 393.626 -2.48595 3.10556 0
M  V30 4074 H 390.365 -2.39504 6.10179 0
M  V30 4075 H 389.885 -3.54839 4.8358 0
M  V30 4076 H 391.564 -3.51881 5.42945 0
M  V30 4077 N 391.696 -1.35014 -0.812953 0
M  V30 4078 C 392.629 -1.21761 -1.93001 0
M  V30 4079 C 393.607 -0.10694 -1.62248 0
M  V30 4080 O 394.791 -0.273891 -1.865 0
M  V30 4081 C 391.918 -0.873404 -3.27245 0
M  V30 4082 C 390.964 -1.99523 -3.76952 0
M  V30 4083 S 391.797 -3.61009 -3.95516 0
M  V30 4084 C 392.953 -3.28651 -5.32672 0
M  V30 4085 H 393.186 -2.16315 -2.03948 0
M  V30 4086 H 390.719 -1.20156 -0.969631 0
M  V30 4087 H 392.677 -0.68161 -4.04802 0
M  V30 4088 H 391.338 0.053971 -3.14054 0
M  V30 4089 H 390.531 -1.70838 -4.74163 0
M  V30 4090 H 390.133 -2.14503 -3.06373 0
M  V30 4091 H 392.425 -2.81085 -6.1644 0
M  V30 4092 H 393.368 -4.25039 -5.66346 0
M  V30 4093 H 393.776 -2.6458 -4.98656 0
M  V30 4094 N 393.175 1.03435 -1.18907 0
M  V30 4095 C 394.422 1.76743 -0.988334 0
M  V30 4096 C 394.75 1.88447 0.481441 0
M  V30 4097 O 394.005 1.39383 1.37371 0
M  V30 4098 C 394.304 3.19792 -1.59586 0
M  V30 4099 C 393.97 3.28108 -3.09283 0
M  V30 4100 C 392.632 3.30084 -3.5014 0
M  V30 4101 C 394.984 3.27696 -4.05296 0
M  V30 4102 C 392.312 3.29299 -4.85571 0
M  V30 4103 C 394.664 3.28451 -5.4065 0
M  V30 4104 C 393.328 3.28723 -5.80946 0
M  V30 4105 H 392.598 0.64675 -0.361657 0
M  V30 4106 H 395.245 1.21442 -1.48068 0
M  V30 4107 H 393.55 3.78136 -1.02568 0
M  V30 4108 H 395.247 3.75171 -1.41589 0
M  V30 4109 H 391.837 3.27294 -2.76725 0
M  V30 4110 H 396.021 3.25354 -3.74778 0
M  V30 4111 H 391.277 3.2783 -5.16079 0
M  V30 4112 H 395.451 3.27082 -6.14809 0
M  V30 4113 H 393.078 3.27868 -6.85862 0
M  V30 4114 N 394.653 0.992116 1.22453 0
M  V30 4115 C 395.901 0.666215 1.90804 0
M  V30 4116 C 396.222 -0.804152 1.77647 0
M  V30 4117 O 395.492 -1.57629 1.16318 0
M  V30 4118 H 394.072 0.243423 0.706225 0
M  V30 4119 H 396.734 1.25845 1.48825 0
M  V30 4120 H 395.83 0.928069 2.97982 0
M  V30 4121 N 396.131 -1.37776 0.765217 0
M  V30 4122 C 397.063 -2.28958 0.105361 0
M  V30 4123 C 398.076 -1.48316 -0.67128 0
M  V30 4124 O 399.265 -1.71046 -0.51045 0
M  V30 4125 C 396.365 -3.27421 -0.874569 0
M  V30 4126 C 395.538 -4.37132 -0.153123 0
M  V30 4127 C 394.597 -5.1571 -1.04547 0
M  V30 4128 O 393.623 -5.66896 -0.511672 0
M  V30 4129 N 394.825 -5.29808 -2.37243 0
M  V30 4130 H 397.59 -2.86227 0.888495 0
M  V30 4131 H 395.151 -1.49682 0.617 0
M  V30 4132 H 397.143 -3.7687 -1.47483 0
M  V30 4133 H 395.713 -2.70967 -1.55871 0
M  V30 4134 H 394.933 -3.89166 0.627975 0
M  V30 4135 H 396.221 -5.07625 0.345643 0
M  V30 4136 H 395.619 -4.89793 -2.83054 0
M  V30 4137 H 394.176 -5.82589 -2.9229 0
M  V30 4138 N 397.609 -0.515225 -1.4894 0
M  V30 4139 C 398.858 0.0261361 -2.01683 0
M  V30 4140 C 399.171 1.36719 -1.39883 0
M  V30 4141 O 400.377 1.99606 -1.84037 0
M  V30 4142 C 398.833 0.0970111 -3.59769 0
M  V30 4143 C 398.441 -1.23825 -4.30548 0
M  V30 4144 C 400.185 0.587981 -4.20408 0
M  V30 4145 C 398.092 -1.12877 -5.80528 0
M  V30 4146 H 397.022 0.0135398 -0.753878 0
M  V30 4147 H 399.673 -0.656787 -1.71343 0
M  V30 4148 H 398.055 0.844694 -3.86886 0
M  V30 4149 H 399.229 -2.00034 -4.15118 0
M  V30 4150 H 397.544 -1.66379 -3.81716 0
M  V30 4151 H 400.141 0.68763 -5.3026 0
M  V30 4152 H 400.484 1.59026 -3.84729 0
M  V30 4153 H 401.017 -0.103582 -3.97665 0
M  V30 4154 H 397.756 -2.10575 -6.20756 0
M  V30 4155 H 397.276 -0.407799 -5.98412 0
M  V30 4156 H 398.955 -0.813332 -6.41868 0
M  V30 4157 N 399.087 1.5561 -0.249682 0
M  V30 4158 C 400.333 1.99306 0.374841 0
M  V30 4159 C 400.666 1.13767 1.57387 0
M  V30 4160 O 399.941 0.201711 1.93451 0
M  V30 4161 C 400.224 3.51507 0.781986 0
M  V30 4162 C 400.077 4.4781 -0.422629 0
M  V30 4163 C 401.396 4.08884 1.62793 0
M  V30 4164 H 398.515 0.724572 0.134773 0
M  V30 4165 H 401.157 1.86719 -0.351549 0
M  V30 4166 H 399.307 3.62363 1.4009 0
M  V30 4167 H 400.979 4.48931 -1.06108 0
M  V30 4168 H 399.222 4.20518 -1.06524 0
M  V30 4169 H 399.893 5.51919 -0.0943766 0
M  V30 4170 H 402.369 4.01147 1.10547 0
M  V30 4171 H 401.245 5.1564 1.88166 0
M  V30 4172 H 401.506 3.57515 2.60068 0
M  V30 4173 N 400.565 -0.0233959 1.57583 0
M  V30 4174 C 401.79 -0.728376 1.94189 0
M  V30 4175 C 402.215 -1.67793 0.850119 0
M  V30 4176 O 401.573 -1.80262 -0.19371 0
M  V30 4177 C 401.621 -1.45669 3.29868 0
M  V30 4178 O 400.725 -2.57013 3.22518 0
M  V30 4179 H 400.066 -0.195493 0.63457 0
M  V30 4180 H 402.596 0.0228214 2.04587 0
M  V30 4181 H 402.606 -1.82535 3.6489 0
M  V30 4182 H 401.281 -0.760314 4.08891 0
M  V30 4183 H 399.858 -2.22648 2.99136 0
M  V30 4184 N 402.043 -1.548 -0.295768 0
M  V30 4185 C 402.953 -1.89177 -1.38742 0
M  V30 4186 C 403.969 -0.786481 -1.55211 0
M  V30 4187 O 405.145 -1.08344 -1.69775 0
M  V30 4188 C 402.21 -2.13663 -2.73036 0
M  V30 4189 C 401.271 -3.37349 -2.65508 0
M  V30 4190 C 400.504 -3.60658 -3.93398 0
M  V30 4191 O 400.727 -2.86882 -4.93006 0
M  V30 4192 O 399.661 -4.54179 -3.94975 0
M  V30 4193 H 403.487 -2.82059 -1.12589 0
M  V30 4194 H 401.072 -1.41056 -0.492295 0
M  V30 4195 H 402.954 -2.3094 -3.52484 0
M  V30 4196 H 401.629 -1.23967 -2.99022 0
M  V30 4197 H 400.536 -3.25431 -1.84514 0
M  V30 4198 H 401.869 -4.27192 -2.44474 0
M  V30 4199 N 403.521 0.559213 -1.47345 0
M  V30 4200 C 404.768 1.31648 -1.53867 0
M  V30 4201 C 405.096 1.93468 -0.200104 0
M  V30 4202 O 404.351 1.78295 0.806799 0
M  V30 4203 C 404.65 2.44853 -2.6035 0
M  V30 4204 C 404.316 2.00876 -4.03683 0
M  V30 4205 C 402.978 1.88599 -4.42701 0
M  V30 4206 C 405.33 1.67279 -4.93626 0
M  V30 4207 C 402.658 1.41017 -5.69501 0
M  V30 4208 C 405.01 1.21169 -6.20887 0
M  V30 4209 C 403.674 1.07487 -6.58789 0
M  V30 4210 H 402.944 0.481734 -0.56304 0
M  V30 4211 H 405.591 0.627301 -1.80934 0
M  V30 4212 H 403.896 3.19318 -2.27032 0
M  V30 4213 H 405.593 3.03039 -2.62619 0
M  V30 4214 H 402.183 2.11374 -3.72853 0
M  V30 4215 H 406.367 1.75638 -4.64182 0
M  V30 4216 H 401.623 1.29086 -5.97618 0
M  V30 4217 H 405.797 0.942345 -6.89995 0
M  V30 4218 H 403.424 0.703946 -7.56934 0
M  V30 4219 N 404.999 1.35443 0.805782 0
M  V30 4220 C 406.229 1.31687 1.59192 0
M  V30 4221 C 406.637 -0.10756 1.88894 0
M  V30 4222 O 405.98 -1.07017 1.49309 0
M  V30 4223 C 406.042 2.05686 2.94845 0
M  V30 4224 C 405.706 3.54868 2.87954 0
M  V30 4225 C 406.703 4.49444 2.61335 0
M  V30 4226 C 404.388 3.97528 3.07046 0
M  V30 4227 C 406.382 5.84655 2.53885 0
M  V30 4228 C 404.069 5.32833 2.99219 0
M  V30 4229 C 405.067 6.26209 2.72674 0
M  V30 4230 O 404.755 7.59032 2.64811 0
M  V30 4231 H 404.487 0.453878 0.50097 0
M  V30 4232 H 407.041 1.78892 1.0093 0
M  V30 4233 H 405.271 1.5312 3.55093 0
M  V30 4234 H 406.96 1.94998 3.55993 0
M  V30 4235 H 407.726 4.17804 2.46303 0
M  V30 4236 H 403.605 3.25233 3.26718 0
M  V30 4237 H 407.149 6.57508 2.33086 0
M  V30 4238 H 403.046 5.64087 3.13809 0
M  V30 4239 H 403.814 7.68967 2.80413 0
M  V30 4240 N 406.477 -1.02803 1.19454 0
M  V30 4241 C 407.424 -2.11099 0.933046 0
M  V30 4242 C 408.394 -1.65571 -0.132447 0
M  V30 4243 O 409.579 -1.90797 0.00987576 0
M  V30 4244 C 406.719 -3.41763 0.478747 0
M  V30 4245 C 405.832 -4.00833 1.6111 0
M  V30 4246 C 404.967 -5.19511 1.10825 0
M  V30 4247 C 404.006 -5.70639 2.21445 0
M  V30 4248 N 403.143 -6.80589 1.72461 0
M  V30 4249 H 407.983 -2.32804 1.86028 0
M  V30 4250 H 405.52 -1.14179 0.927441 0
M  V30 4251 H 407.478 -4.16736 0.196745 0
M  V30 4252 H 406.108 -3.20166 -0.411493 0
M  V30 4253 H 405.16 -3.23066 2.00829 0
M  V30 4254 H 406.472 -4.34794 2.4445 0
M  V30 4255 H 405.626 -6.01645 0.781533 0
M  V30 4256 H 404.365 -4.87086 0.244606 0
M  V30 4257 H 403.37 -4.87116 2.54947 0
M  V30 4258 H 404.595 -6.05102 3.08267 0
M  V30 4259 H 402.541 -6.50016 0.884056 0
M  V30 4260 H 402.458 -7.13681 2.49389 0
M  V30 4261 H 403.726 -7.66317 1.42755 0
M  V30 4262 N 407.956 -0.998596 -1.21925 0
M  V30 4263 C 409.233 -0.593401 -1.86382 0
M  V30 4264 C 409.613 0.92916 -1.89552 0
M  V30 4265 O 408.961 1.81347 -1.39017 0
M  V30 4266 C 409.171 -1.22039 -3.26967 0
M  V30 4267 C 410.519 -1.32449 -4.03413 0
M  V30 4268 O 411.543 -1.17522 -3.36254 0
M  V30 4269 O 410.402 -1.56395 -5.23644 0
M  V30 4270 H 407.496 -0.202385 -0.801854 0
M  V30 4271 H 410.042 -1.09484 -1.29659 0
M  V30 4272 H 408.814 -2.26158 -3.19325 0
M  V30 4273 H 408.437 -0.704906 -3.91301 0
M  V30 4274 N 409.434 1.37368 -0.772513 0
M  V30 4275 C 410.397 2.28601 -0.165541 0
M  V30 4276 C 411.397 1.48062 0.627238 0
M  V30 4277 O 412.587 1.68268 0.450715 0
M  V30 4278 C 409.719 3.32023 0.772897 0
M  V30 4279 H 410.912 2.83787 -0.969787 0
M  V30 4280 H 408.465 1.46647 -0.540775 0
M  V30 4281 H 409.2 2.81962 1.60212 0
M  V30 4282 H 408.985 3.91555 0.206585 0
M  V30 4283 H 410.475 4.00197 1.19298 0
M  V30 4284 N 410.912 0.523116 1.48665 0
M  V30 4285 C 411.842 -0.23231 2.32342 0
M  V30 4286 C 412.823 -0.941637 1.41659 0
M  V30 4287 O 414.008 -0.928751 1.70552 0
M  V30 4288 C 411.138 -1.28387 3.22698 0
M  V30 4289 C 410.092 -0.693098 4.22351 0
M  V30 4290 C 409.418 -1.8468 5.01794 0
M  V30 4291 C 410.718 0.33063 5.21252 0
M  V30 4292 H 412.412 0.466192 2.95748 0
M  V30 4293 H 409.958 0.225643 1.42221 0
M  V30 4294 H 411.911 -1.82024 3.80059 0
M  V30 4295 H 410.635 -2.01186 2.57278 0
M  V30 4296 H 409.294 -0.178299 3.66166 0
M  V30 4297 H 408.942 -2.56301 4.32804 0
M  V30 4298 H 408.642 -1.45747 5.69238 0
M  V30 4299 H 410.166 -2.38709 5.62006 0
M  V30 4300 H 411.58 -0.118407 5.73178 0
M  V30 4301 H 409.977 0.636974 5.9671 0
M  V30 4302 H 411.047 1.23883 4.68808 0
M  V30 4303 N 412.39 -1.55475 0.257931 0
M  V30 4304 C 413.618 -2.03609 -0.367559 0
M  V30 4305 C 414.033 -1.13687 -1.50734 0
M  V30 4306 O 413.39 -0.153479 -1.81853 0
M  V30 4307 C 413.441 -3.51001 -0.864908 0
M  V30 4308 O 413.162 -4.37499 0.229465 0
M  V30 4309 C 414.663 -4.14946 -1.55997 0
M  V30 4310 H 411.883 -0.665459 -0.0860521 0
M  V30 4311 H 414.427 -2.00843 0.385014 0
M  V30 4312 H 412.582 -3.54266 -1.56762 0
M  V30 4313 H 412.996 -5.24286 -0.14998 0
M  V30 4314 H 414.47 -5.19735 -1.85956 0
M  V30 4315 H 414.947 -3.6209 -2.4857 0
M  V30 4316 H 415.553 -4.15635 -0.901543 0
M  V30 4317 N 413.868 0.0150385 -1.57593 0
M  V30 4318 C 414.815 1.01126 -2.07466 0
M  V30 4319 C 415.785 1.35064 -0.966794 0
M  V30 4320 O 416.97 1.4516 -1.23827 0
M  V30 4321 C 414.11 2.30276 -2.57035 0
M  V30 4322 C 413.223 2.02373 -3.81666 0
M  V30 4323 C 412.358 3.25496 -4.19793 0
M  V30 4324 C 411.397 2.93211 -5.37303 0
M  V30 4325 N 410.534 4.08826 -5.70794 0
M  V30 4326 H 415.374 0.57901 -2.92321 0
M  V30 4327 H 412.911 0.27426 -1.44521 0
M  V30 4328 H 414.869 3.05757 -2.83846 0
M  V30 4329 H 413.499 2.71197 -1.75077 0
M  V30 4330 H 412.551 1.17327 -3.61854 0
M  V30 4331 H 413.863 1.74567 -4.67256 0
M  V30 4332 H 413.017 4.09333 -4.47807 0
M  V30 4333 H 411.756 3.56428 -3.32882 0
M  V30 4334 H 410.761 2.07777 -5.09027 0
M  V30 4335 H 411.986 2.63542 -6.25877 0
M  V30 4336 H 409.932 4.39682 -4.86842 0
M  V30 4337 H 409.849 3.84491 -6.50924 0
M  V30 4338 H 411.117 4.93496 -6.03392 0
M  V30 4339 N 415.346 1.54954 0.287554 0
M  V30 4340 C 416.296 1.8322 1.357 0
M  V30 4341 C 417.28 0.690152 1.45347 0
M  V30 4342 O 418.472 0.951137 1.49273 0
M  V30 4343 C 415.601 2.09481 2.71979 0
M  V30 4344 C 414.687 3.29906 2.66502 0
M  V30 4345 N 415.078 4.50154 2.30641 0
M  V30 4346 C 413.376 3.32203 2.97585 0
M  V30 4347 C 414.077 5.32209 2.34794 0
M  V30 4348 N 413.053 4.70258 2.72688 0
M  V30 4349 H 416.855 2.73746 1.0696 0
M  V30 4350 H 414.369 1.54635 0.496167 0
M  V30 4351 H 416.366 2.27882 3.49107 0
M  V30 4352 H 415.026 1.2023 3.0162 0
M  V30 4353 H 416.037 4.76515 2.02865 0
M  V30 4354 H 412.714 2.53101 3.32034 0
M  V30 4355 H 414.104 6.38321 2.09753 0
M  V30 4356 N 416.824 -0.551391 1.4764 0
M  V30 4357 C 417.787 -1.64007 1.60107 0
M  V30 4358 C 418.787 -1.53601 0.47576 0
M  V30 4359 O 419.977 -1.57655 0.740988 0
M  V30 4360 C 417.109 -3.03569 1.55108 0
M  V30 4361 H 418.302 -1.543 2.57161 0
M  V30 4362 H 415.855 -0.771776 1.35917 0
M  V30 4363 H 416.59 -3.18804 0.594519 0
M  V30 4364 H 416.375 -3.12532 2.36783 0
M  V30 4365 H 417.865 -3.82762 1.66982 0
M  V30 4366 N 418.302 -1.35869 -0.798587 0
M  V30 4367 C 419.212 -1.31578 -1.94228 0
M  V30 4368 C 420.228 -0.21939 -1.72611 0
M  V30 4369 O 421.404 -0.450167 -1.96305 0
M  V30 4370 C 418.469 -1.09528 -3.28944 0
M  V30 4371 C 417.53 -2.28556 -3.63402 0
M  V30 4372 C 416.763 -2.07549 -4.9169 0
M  V30 4373 O 416.986 -1.046 -5.60727 0
M  V30 4374 O 415.92 -2.95106 -5.24591 0
M  V30 4375 H 419.746 -2.27847 -2.00796 0
M  V30 4376 H 417.331 -1.16322 -0.937526 0
M  V30 4377 H 419.213 -0.991127 -4.09579 0
M  V30 4378 H 417.888 -0.16315 -3.23289 0
M  V30 4379 H 416.795 -2.44538 -2.83112 0
M  V30 4380 H 418.128 -3.20244 -3.73771 0
M  V30 4381 N 419.78 1.02168 -1.19998 0
M  V30 4382 C 421.026 1.75945 -1.00852 0
M  V30 4383 C 421.359 1.88702 0.458828 0
M  V30 4384 O 420.634 1.40911 1.34069 0
M  V30 4385 C 420.917 3.18154 -1.68671 0
M  V30 4386 C 420.77 3.13224 -3.22817 0
M  V30 4387 C 422.089 4.16711 -1.41561 0
M  V30 4388 H 419.208 0.638673 -0.367785 0
M  V30 4389 H 421.85 1.19222 -1.4794 0
M  V30 4390 H 420 3.66586 -1.28636 0
M  V30 4391 H 421.672 2.72635 -3.72112 0
M  V30 4392 H 419.915 2.50751 -3.53986 0
M  V30 4393 H 420.586 4.13728 -3.65422 0
M  V30 4394 H 423.062 3.76913 -1.76284 0
M  V30 4395 H 421.938 5.14391 -1.91553 0
M  V30 4396 H 422.199 4.40774 -0.342193 0
M  V30 4397 N 421.258 1.00505 1.21394 0
M  V30 4398 C 422.188 0.585684 2.26035 0
M  V30 4399 C 423.169 -0.393525 1.65485 0
M  V30 4400 O 424.354 -0.281497 1.92149 0
M  V30 4401 C 421.484 -0.0884283 3.47187 0
M  V30 4402 C 420.438 0.810567 4.20254 0
M  V30 4403 C 419.764 0.00286382 5.347 0
M  V30 4404 C 421.064 2.1132 4.77641 0
M  V30 4405 H 422.758 1.46039 2.61368 0
M  V30 4406 H 420.304 0.703648 1.25638 0
M  V30 4407 H 422.257 -0.393286 4.19561 0
M  V30 4408 H 420.981 -0.997766 3.10986 0
M  V30 4409 H 419.64 1.09925 3.49731 0
M  V30 4410 H 419.288 -0.907765 4.94741 0
M  V30 4411 H 418.988 0.601444 5.84514 0
M  V30 4412 H 420.512 -0.295808 6.09883 0
M  V30 4413 H 421.926 1.87148 5.41893 0
M  V30 4414 H 420.323 2.66164 5.37845 0
M  V30 4415 H 421.393 2.78393 3.9702 0
M  V30 4416 N 422.737 -1.36956 0.779787 0
M  V30 4417 C 423.684 -2.30175 0.169697 0
M  V30 4418 C 424.654 -1.51501 -0.68094 0
M  V30 4419 O 425.839 -1.80042 -0.631629 0
M  V30 4420 C 422.979 -3.37985 -0.697131 0
M  V30 4421 C 422.092 -4.31661 0.170992 0
M  V30 4422 C 421.227 -5.2655 -0.701298 0
M  V30 4423 C 420.266 -6.11867 0.168869 0
M  V30 4424 N 419.403 -6.98973 -0.661855 0
M  V30 4425 H 424.243 -2.81767 0.970135 0
M  V30 4426 H 421.78 -1.38699 0.489994 0
M  V30 4427 H 423.738 -3.99128 -1.2146 0
M  V30 4428 H 422.368 -2.87739 -1.46309 0
M  V30 4429 H 421.42 -3.71756 0.80634 0
M  V30 4430 H 422.732 -4.91644 0.841875 0
M  V30 4431 H 421.886 -5.92937 -1.28494 0
M  V30 4432 H 420.625 -4.66998 -1.40584 0
M  V30 4433 H 419.63 -5.44452 0.764986 0
M  V30 4434 H 420.855 -6.73493 0.870863 0
M  V30 4435 H 418.801 -6.41941 -1.35086 0
M  V30 4436 H 418.718 -7.55984 -0.0484447 0
M  V30 4437 H 419.986 -7.6974 -1.22963 0
M  V30 4438 N 424.215 -0.530993 -1.48385 0
M  V30 4439 C 425.147 0.268353 -2.27624 0
M  V30 4440 C 426.16 0.903525 -1.35426 0
M  V30 4441 O 427.349 0.781796 -1.60469 0
M  V30 4442 C 424.449 1.39535 -3.08842 0
M  V30 4443 C 423.622 0.861913 -4.28824 0
M  V30 4444 C 422.681 1.87016 -4.91845 0
M  V30 4445 O 421.707 1.4267 -5.5103 0
M  V30 4446 N 422.909 3.20238 -4.84178 0
M  V30 4447 H 425.674 -0.41123 -2.96865 0
M  V30 4448 H 423.235 -0.365387 -1.57723 0
M  V30 4449 H 425.227 2.06803 -3.47871 0
M  V30 4450 H 423.797 1.97859 -2.42014 0
M  V30 4451 H 423.017 0.0132126 -3.94198 0
M  V30 4452 H 424.305 0.484415 -5.06489 0
M  V30 4453 H 423.703 3.58932 -4.37246 0
M  V30 4454 H 422.26 3.83136 -5.27305 0
M  V30 4455 N 425.693 1.55336 -0.266172 0
M  V30 4456 C 426.942 1.98574 0.353749 0
M  V30 4457 C 427.255 1.15789 1.57646 0
M  V30 4458 O 428.461 1.49129 2.26876 0
M  V30 4459 C 426.917 3.53403 0.680747 0
M  V30 4460 C 426.525 4.44953 -0.52165 0
M  V30 4461 C 428.269 4.05251 1.26379 0
M  V30 4462 C 426.176 5.91156 -0.169736 0
M  V30 4463 H 425.106 0.741643 0.135949 0
M  V30 4464 H 427.757 1.79743 -0.369421 0
M  V30 4465 H 426.139 3.68001 1.46257 0
M  V30 4466 H 427.313 4.42121 -1.29869 0
M  V30 4467 H 425.628 4.03691 -1.02093 0
M  V30 4468 H 428.225 5.12021 1.54074 0
M  V30 4469 H 428.568 3.53749 2.19471 0
M  V30 4470 H 429.101 3.94057 0.544447 0
M  V30 4471 H 425.84 6.46736 -1.0683 0
M  V30 4472 H 425.36 5.97079 0.570717 0
M  V30 4473 H 427.039 6.4655 0.241245 0
M  V30 4474 N 427.171 -0.0066808 1.57599 0
M  V30 4475 C 428.419 -0.691552 1.899 0
M  V30 4476 C 428.74 -1.74682 0.866672 0
M  V30 4477 O 428.01 -1.95661 -0.0968189 0
M  V30 4478 H 426.59 -0.258416 0.700878 0
M  V30 4479 H 429.252 0.0326655 1.94873 0
M  V30 4480 H 428.348 -1.16702 2.8946 0
M  V30 4481 N 428.649 -1.55105 -0.279332 0
M  V30 4482 C 429.896 -1.75412 -1.01177 0
M  V30 4483 C 430.224 -0.551728 -1.86511 0
M  V30 4484 O 429.479 0.465919 -1.90073 0
M  V30 4485 C 429.778 -3.0086 -1.92919 0
M  V30 4486 C 429.444 -4.33689 -1.23387 0
M  V30 4487 C 428.106 -4.69792 -1.04159 0
M  V30 4488 C 430.458 -5.15941 -0.738562 0
M  V30 4489 C 427.786 -5.85707 -0.341166 0
M  V30 4490 C 430.138 -6.32579 -0.0517636 0
M  V30 4491 C 428.802 -6.67326 0.152292 0
M  V30 4492 H 428.072 -0.641879 -0.370233 0
M  V30 4493 H 430.719 -1.89373 -0.284627 0
M  V30 4494 H 429.024 -2.81773 -2.72234 0
M  V30 4495 H 430.721 -3.13768 -2.49701 0
M  V30 4496 H 427.311 -4.05309 -1.39364 0
M  V30 4497 H 431.495 -4.8853 -0.874764 0
M  V30 4498 H 426.751 -6.11157 -0.172287 0
M  V30 4499 H 430.925 -6.9557 0.339828 0
M  V30 4500 H 428.552 -7.56998 0.697014 0
M  V30 4501 N 430.127 0.543554 -1.4793 0
M  V30 4502 C 431.404 1.30458 -1.4574 0
M  V30 4503 C 431.784 2.1048 -0.161692 0
M  V30 4504 O 431.132 2.11831 0.856734 0
M  V30 4505 C 431.342 2.19754 -2.71126 0
M  V30 4506 C 432.69 2.80334 -3.18901 0
M  V30 4507 O 433.714 2.30049 -2.71948 0
M  V30 4508 O 432.573 3.71766 -4.00565 0
M  V30 4509 H 429.667 0.588117 -0.581418 0
M  V30 4510 H 432.213 0.561328 -1.60147 0
M  V30 4511 H 430.985 1.60316 -3.56952 0
M  V30 4512 H 430.608 3.01351 -2.59371 0
M  V30 4513 N 431.605 1.3629 0.791371 0
M  V30 4514 C 432.851 1.30605 1.55146 0
M  V30 4515 C 433.184 -0.115042 1.93859 0
M  V30 4516 O 432.459 -1.06798 1.62556 0
M  V30 4517 C 432.742 2.22692 2.82985 0
M  V30 4518 C 432.595 3.73489 2.50651 0
M  V30 4519 C 433.914 2.13588 3.84796 0
M  V30 4520 H 431.033 0.475761 0.562868 0
M  V30 4521 H 433.675 1.66825 0.909358 0
M  V30 4522 H 431.825 1.91933 3.37778 0
M  V30 4523 H 433.497 4.14758 2.01924 0
M  V30 4524 H 431.74 3.93021 1.83622 0
M  V30 4525 H 432.411 4.3333 3.41949 0
M  V30 4526 H 434.887 2.40659 3.39445 0
M  V30 4527 H 433.763 2.80195 4.71998 0
M  V30 4528 H 434.024 1.12256 4.27611 0
M  V30 4529 N 433.083 -1.0153 1.20538 0
M  V30 4530 C 434.031 -2.12215 0.952235 0
M  V30 4531 C 435.025 -1.69123 -0.0968735 0
M  V30 4532 O 436.231 -1.7992 0.0536006 0
M  V30 4533 H 432.606 -0.693576 0.290613 0
M  V30 4534 H 434.577 -2.3075 1.89201 0
M  V30 4535 C 433.326 -3.43755 0.522287 0
M  V30 4536 H 432.649 -3.7734 1.32115 0
M  V30 4537 H 434.089 -4.22254 0.384389 0
M  V30 4538 C 432.548 -3.28088 -0.765489 0
M  V30 4539 O 433.078 -3.57921 -1.8236 0
M  V30 4540 N 431.284 -2.81333 -0.728011 0
M  V30 4541 H 430.831 -2.57255 0.133332 0
M  V30 4542 H 430.789 -2.71232 -1.58999 0
M  V30 4543 N 434.561 -1.01147 -1.20859 0
M  V30 4544 C 435.509 -0.57059 -2.25493 0
M  V30 4545 C 436.503 0.388109 -1.64894 0
M  V30 4546 O 437.709 0.258592 -1.78133 0
M  V30 4547 H 434.084 -0.166191 -0.733406 0
M  V30 4548 H 436.055 -1.46411 -2.60012 0
M  V30 4549 C 434.804 0.0805241 -3.47607 0
M  V30 4550 H 434.127 -0.648156 -3.94511 0
M  V30 4551 H 435.567 0.352197 -4.22535 0
M  V30 4552 C 434.026 1.32175 -3.09889 0
M  V30 4553 O 434.556 2.41553 -3.20959 0
M  V30 4554 N 432.762 1.20392 -2.64488 0
M  V30 4555 H 432.309 0.313905 -2.5568 0
M  V30 4556 H 432.267 2.03541 -2.39621 0
M  V30 4557 N 436.039 1.36541 -0.78704 0
M  V30 4558 C 437.287 1.98911 -0.357633 0
M  V30 4559 C 437.608 1.62778 1.07371 0
M  V30 4560 O 436.878 0.900612 1.73971 0
M  V30 4561 H 435.458 0.735734 -0.129246 0
M  V30 4562 H 438.12 1.66776 -1.00855 0
M  V30 4563 H 437.216 3.08874 -0.447549 0
M  V30 4564 N 437.518 0.538854 1.48102 0
M  V30 4565 C 438.767 0.0059532 2.01699 0
M  V30 4566 C 439.08 -1.34476 1.42041 0
M  V30 4567 O 440.286 -1.96653 1.87189 0
M  V30 4568 C 438.742 -0.0397627 3.59878 0
M  V30 4569 C 438.35 1.30659 4.28523 0
M  V30 4570 C 440.094 -0.521024 4.2129 0
M  V30 4571 C 438.001 1.22098 5.78659 0
M  V30 4572 H 436.931 -0.00154456 0.753998 0
M  V30 4573 H 439.582 0.683963 1.70277 0
M  V30 4574 H 437.964 -0.783037 3.88181 0
M  V30 4575 H 439.138 2.06613 4.11883 0
M  V30 4576 H 437.453 1.7243 3.79021 0
M  V30 4577 H 440.05 -0.603184 5.31287 0
M  V30 4578 H 440.393 -1.52885 3.8721 0
M  V30 4579 H 440.926 0.166834 3.9745 0
M  V30 4580 H 437.665 2.20424 6.17328 0
M  V30 4581 H 437.185 0.50295 5.97688 0
M  V30 4582 H 438.864 0.915345 6.40492 0
M  V30 4583 N 438.996 -1.55193 0.274407 0
M  V30 4584 C 440.244 -1.99187 -0.341902 0
M  V30 4585 C 440.565 -1.16422 -1.56431 0
M  V30 4586 O 439.835 -0.253573 -1.94252 0
M  V30 4587 H 438.415 -0.735721 -0.129317 0
M  V30 4588 H 441.077 -1.91168 0.379578 0
M  V30 4589 H 440.173 -3.05629 -0.632253 0
M  V30 4590 N 440.474 -0.00167713 -1.576 0
M  V30 4591 C 441.751 0.719951 -1.81868 0
M  V30 4592 C 442.131 1.91895 -0.879747 0
M  V30 4593 O 441.479 2.28389 0.0711423 0
M  V30 4594 C 441.689 1.12409 -3.30402 0
M  V30 4595 C 443.037 1.52724 -3.96182 0
M  V30 4596 O 444.061 1.21784 -3.34734 0
M  V30 4597 O 442.92 2.10265 -5.04431 0
M  V30 4598 H 440.014 0.350707 -0.748955 0
M  V30 4599 H 442.56 -0.0272597 -1.69678 0
M  V30 4600 H 441.332 0.269532 -3.90371 0
M  V30 4601 H 440.955 1.93035 -3.47596 0
M  V30 4602 N 441.952 1.55251 0.271103 0
M  V30 4603 C 442.882 1.9127 1.33933 0
M  V30 4604 C 443.863 0.77478 1.5143 0
M  V30 4605 O 445.048 1.03307 1.64442 0
M  V30 4606 C 442.178 2.18627 2.69851 0
M  V30 4607 C 441.132 3.34442 2.67081 0
M  V30 4608 C 440.458 3.47284 4.06569 0
M  V30 4609 C 441.758 4.70784 2.26185 0
M  V30 4610 H 443.452 2.80744 1.04035 0
M  V30 4611 H 440.998 1.35077 0.499017 0
M  V30 4612 H 442.951 2.42413 3.44694 0
M  V30 4613 H 441.675 1.25955 3.01335 0
M  V30 4614 H 440.334 3.10627 1.94695 0
M  V30 4615 H 439.982 2.52074 4.35279 0
M  V30 4616 H 439.682 4.25152 4.0561 0
M  V30 4617 H 441.206 3.73363 4.83148 0
M  V30 4618 H 442.62 4.94102 2.90751 0
M  V30 4619 H 441.017 5.51582 2.36384 0
M  V30 4620 H 442.087 4.69478 1.21319 0
M  V30 4621 N 443.43 -0.535701 1.48216 0
M  V30 4622 C 444.66 -1.3148 1.59363 0
M  V30 4623 C 445.068 -1.8753 0.250844 0
M  V30 4624 O 444.411 -1.66821 -0.769174 0
M  V30 4625 C 444.473 -2.50731 2.57632 0
M  V30 4626 C 444.137 -2.15811 4.02833 0
M  V30 4627 C 445.134 -1.71822 4.90686 0
M  V30 4628 C 442.819 -2.26509 4.48329 0
M  V30 4629 C 444.813 -1.3899 6.22062 0
M  V30 4630 C 442.5 -1.93289 5.79726 0
M  V30 4631 C 443.498 -1.49599 6.66415 0
M  V30 4632 O 443.186 -1.16812 7.95368 0
M  V30 4633 H 442.918 -0.406315 0.540263 0
M  V30 4634 H 445.472 -0.653569 1.94725 0
M  V30 4635 H 443.702 -3.19817 2.1738 0
M  V30 4636 H 445.391 -3.12797 2.58675 0
M  V30 4637 H 446.157 -1.63031 4.56778 0
M  V30 4638 H 442.036 -2.59471 3.81045 0
M  V30 4639 H 445.58 -1.04816 6.89681 0
M  V30 4640 H 441.477 -2.01718 6.13172 0
M  V30 4641 H 442.245 -1.30259 8.08069 0
M  V30 4642 N 444.908 -1.36708 -0.784132 0
M  V30 4643 C 445.871 -1.31307 -1.87859 0
M  V30 4644 C 446.871 -0.219654 -1.59293 0
M  V30 4645 O 448.061 -0.47476 -1.67606 0
M  V30 4646 C 445.193 -1.03679 -3.24751 0
M  V30 4647 H 446.386 -2.28647 -1.94064 0
M  V30 4648 H 443.939 -1.21558 -0.98252 0
M  V30 4649 H 444.674 -0.0681936 -3.24228 0
M  V30 4650 H 444.459 -1.82811 -3.46876 0
M  V30 4651 H 445.949 -1.02518 -4.04821 0
M  V30 4652 N 446.386 1.0089 -1.21074 0
M  V30 4653 C 447.802 1.2695 -0.967257 0
M  V30 4654 C 448.002 1.9846 0.348673 0
M  V30 4655 O 447.058 2.28459 1.0753 0
M  V30 4656 C 448.371 2.09697 -2.15517 0
M  V30 4657 C 449.919 2.22937 -2.197 0
M  V30 4658 C 450.394 3.09064 -3.37999 0
M  V30 4659 N 451.885 3.16653 -3.38061 0
M  V30 4660 C 452.62 3.8354 -4.26245 0
M  V30 4661 N 452.116 4.52488 -5.2462 0
M  V30 4662 N 453.909 3.80141 -4.14064 0
M  V30 4663 H 446.06 0.529005 -2.05707 0
M  V30 4664 H 448.323 0.296148 -0.900556 0
M  V30 4665 H 448.029 1.64497 -3.10859 0
M  V30 4666 H 447.903 3.10444 -2.14253 0
M  V30 4667 H 450.29 2.67357 -1.24916 0
M  V30 4668 H 450.371 1.21673 -2.2501 0
M  V30 4669 H 450.015 2.65347 -4.33074 0
M  V30 4670 H 449.945 4.10433 -3.29928 0
M  V30 4671 H 452.436 2.67566 -2.66865 0
M  V30 4672 H 452.749 5.01219 -5.88217 0
M  V30 4673 H 451.094 4.51288 -5.28549 0
M  V30 4674 H 454.285 3.25427 -3.36474 0
M  V30 4675 H 454.458 4.31992 -4.82998 0
M  V30 4676 N 447.864 1.01787 1.20321 0
M  V30 4677 C 449.113 0.703249 1.89043 0
M  V30 4678 C 449.426 -0.770445 1.79787 0
M  V30 4679 O 450.632 -1.19767 2.43656 0
M  V30 4680 C 449.088 1.20749 3.3904 0
M  V30 4681 C 448.696 2.70817 3.56878 0
M  V30 4682 C 450.44 0.968352 4.13308 0
M  V30 4683 C 448.347 3.14716 5.00708 0
M  V30 4684 H 447.277 0.259354 0.707991 0
M  V30 4685 H 449.928 1.23072 1.36108 0
M  V30 4686 H 448.31 0.607989 3.91305 0
M  V30 4687 H 449.484 3.36327 3.14993 0
M  V30 4688 H 447.799 2.92888 2.95983 0
M  V30 4689 H 450.396 1.27173 5.19356 0
M  V30 4690 H 450.739 -0.095149 4.16191 0
M  V30 4691 H 451.272 1.53129 3.67146 0
M  V30 4692 H 448.011 4.20347 5.02979 0
M  V30 4693 H 447.531 2.53927 5.43398 0
M  V30 4694 H 449.21 3.07426 5.69296 0
M  V30 4695 N 449.342 -1.36122 0.79427 0
M  V30 4696 C 450.289 -2.29982 0.194101 0
M  V30 4697 C 451.259 -1.52214 -0.664833 0
M  V30 4698 O 452.444 -1.80702 -0.612498 0
M  V30 4699 C 449.584 -3.38706 -0.661244 0
M  V30 4700 C 448.697 -4.31456 0.216766 0
M  V30 4701 C 447.832 -5.27265 -0.645411 0
M  V30 4702 C 446.871 -6.11653 0.233756 0
M  V30 4703 N 446.008 -6.99636 -0.587682 0
M  V30 4704 H 450.848 -2.80722 0.999965 0
M  V30 4705 H 448.385 -1.38172 0.504677 0
M  V30 4706 H 450.343 -4.00394 -1.17219 0
M  V30 4707 H 448.973 -2.89274 -1.43249 0
M  V30 4708 H 448.025 -3.7088 0.845724 0
M  V30 4709 H 449.337 -4.90724 0.893973 0
M  V30 4710 H 448.491 -5.94266 -1.22198 0
M  V30 4711 H 447.23 -4.68463 -1.35623 0
M  V30 4712 H 446.235 -5.4361 0.82269 0
M  V30 4713 H 447.46 -6.72531 0.942247 0
M  V30 4714 H 445.406 -6.43337 -1.2827 0
M  V30 4715 H 445.323 -7.55993 0.0317402 0
M  V30 4716 H 446.591 -7.71001 -1.14792 0
M  V30 4717 N 450.82 -0.546701 -1.47814 0
M  V30 4718 C 452.048 -0.0232857 -2.06887 0
M  V30 4719 C 452.463 1.26571 -1.4009 0
M  V30 4720 O 451.82 1.7569 -0.493906 0
M  V30 4721 C 451.871 0.186975 -3.61016 0
M  V30 4722 O 451.592 -1.05097 -4.25307 0
M  V30 4723 C 453.093 0.748872 -4.36929 0
M  V30 4724 H 450.313 -0.0410763 -0.669742 0
M  V30 4725 H 452.857 -0.757117 -1.89968 0
M  V30 4726 H 451.012 0.870903 -3.77484 0
M  V30 4727 H 451.426 -0.842121 -5.17695 0
M  V30 4728 H 452.9 0.845334 -5.45489 0
M  V30 4729 H 453.377 1.75772 -4.02493 0
M  V30 4730 H 453.983 0.100979 -4.2518 0
M  V30 4731 N 452.299 1.55045 -0.282633 0
M  V30 4732 C 453.229 2.2579 0.595066 0
M  V30 4733 C 454.21 1.25074 1.15284 0
M  V30 4734 O 455.395 1.5381 1.18559 0
M  V30 4735 C 452.525 2.98472 1.77572 0
M  V30 4736 C 451.479 4.0618 1.34914 0
M  V30 4737 C 450.805 4.66477 2.6135 0
M  V30 4738 C 452.105 5.1996 0.493821 0
M  V30 4739 H 453.799 2.994 0.00505653 0
M  V30 4740 H 451.345 1.44 0.000992001 0
M  V30 4741 H 453.298 3.46677 2.39568 0
M  V30 4742 H 452.022 2.2241 2.39168 0
M  V30 4743 H 450.681 3.58797 0.752338 0
M  V30 4744 H 450.329 3.87074 3.2122 0
M  V30 4745 H 450.029 5.39207 2.33516 0
M  V30 4746 H 451.553 5.17435 3.24181 0
M  V30 4747 H 452.967 5.64172 1.01898 0
M  V30 4748 H 451.364 5.99299 0.310047 0
M  V30 4749 H 452.434 4.82462 -0.485593 0
M  V30 4750 N 453.777 0.010035 1.57597 0
M  V30 4751 C 455.188 -0.531426 1.78977 0
M  V30 4752 C 455.539 -1.73375 0.918454 0
M  V30 4753 O 454.664 -2.16047 0.123635 0
M  V30 4754 C 455.259 -0.97086 3.24592 0
M  V30 4755 C 453.818 -1.45756 3.47033 0
M  V30 4756 C 452.965 -0.413384 2.74201 0
M  V30 4757 H 455.916 0.236166 1.56933 0
M  V30 4758 H 455.937 -1.83633 3.33255 0
M  V30 4759 H 455.449 -0.0955893 3.87982 0
M  V30 4760 H 453.55 -2.35339 2.88871 0
M  V30 4761 H 453.663 -1.4781 4.55729 0
M  V30 4762 H 452.027 -0.877266 2.39115 0
M  V30 4763 H 452.81 0.453092 3.40297 0
M  V30 4764 N 455.255 -1.55392 -0.262866 0
M  V30 4765 C 456.165 -1.92077 -1.34698 0
M  V30 4766 C 457.181 -0.819227 -1.53508 0
M  V30 4767 O 458.357 -1.11921 -1.67439 0
M  V30 4768 C 455.422 -2.19407 -2.68443 0
M  V30 4769 C 454.483 -3.42905 -2.58292 0
M  V30 4770 C 453.716 -3.68921 -3.85659 0
M  V30 4771 O 453.939 -2.97275 -4.8681 0
M  V30 4772 O 452.873 -4.62455 -3.85252 0
M  V30 4773 H 456.699 -2.84384 -1.06581 0
M  V30 4774 H 454.284 -1.42069 -0.462264 0
M  V30 4775 H 456.166 -2.38365 -3.47506 0
M  V30 4776 H 454.841 -1.30282 -2.96325 0
M  V30 4777 H 453.748 -3.29272 -1.7757 0
M  V30 4778 H 455.081 -4.32282 -2.35358 0
M  V30 4779 N 456.733 0.527833 -1.48498 0
M  V30 4780 C 457.696 1.61439 -1.62696 0
M  V30 4781 C 458.696 1.52824 -0.500136 0
M  V30 4782 O 459.886 1.56456 -0.765976 0
M  V30 4783 C 457.018 3.01063 -1.59918 0
M  V30 4784 H 458.211 1.50189 -2.59583 0
M  V30 4785 H 455.764 0.750055 -1.37127 0
M  V30 4786 H 456.499 3.17818 -0.645163 0
M  V30 4787 H 456.284 3.08725 -2.41726 0
M  V30 4788 H 457.774 3.80057 -1.73051 0
M  V30 4789 N 458.211 1.37122 0.776871 0
M  V30 4790 C 459.158 1.3247 1.88998 0
M  V30 4791 C 460.128 0.191143 1.64997 0
M  V30 4792 O 461.313 0.379683 1.86984 0
M  V30 4793 C 458.453 1.13241 3.25992 0
M  V30 4794 C 457.566 2.35782 3.61982 0
M  V30 4795 C 456.701 2.09465 4.88158 0
M  V30 4796 C 455.74 3.279 5.16864 0
M  V30 4797 N 454.877 3.01167 6.34226 0
M  V30 4798 H 459.717 2.27642 1.9231 0
M  V30 4799 H 457.254 1.13125 0.94027 0
M  V30 4800 H 459.212 1.00115 4.0501 0
M  V30 4801 H 457.842 0.217186 3.22069 0
M  V30 4802 H 456.894 2.59666 2.77989 0
M  V30 4803 H 458.206 3.24125 3.79137 0
M  V30 4804 H 457.36 1.93341 5.75069 0
M  V30 4805 H 456.099 1.18452 4.73097 0
M  V30 4806 H 455.104 3.44569 4.2843 0
M  V30 4807 H 456.329 4.19757 5.33836 0
M  V30 4808 H 454.275 2.12779 6.20533 0
M  V30 4809 H 454.192 3.83052 6.51772 0
M  V30 4810 H 455.46 2.88649 7.24087 0
M  V30 4811 N 459.689 -1.00246 1.21608 0
M  V30 4812 C 460.621 -2.09244 0.935401 0
M  V30 4813 C 461.634 -1.62592 -0.0823594 0
M  V30 4814 O 462.823 -1.77865 0.150456 0
M  V30 4815 C 459.923 -3.36724 0.383453 0
M  V30 4816 C 459.096 -4.1245 1.45615 0
M  V30 4817 C 458.155 -5.18219 0.912991 0
M  V30 4818 O 457.181 -5.46337 1.59701 0
M  V30 4819 N 458.383 -5.7987 -0.270478 0
M  V30 4820 H 461.148 -2.33905 1.87373 0
M  V30 4821 H 458.709 -1.16748 1.12167 0
M  V30 4822 H 460.701 -4.047 0.00562157 0
M  V30 4823 H 459.271 -3.09201 -0.459758 0
M  V30 4824 H 458.491 -3.39241 2.00772 0
M  V30 4825 H 459.779 -4.59819 2.17817 0
M  V30 4826 H 459.177 -5.59381 -0.843195 0
M  V30 4827 H 457.734 -6.49126 -0.589794 0
M  V30 4828 N 461.167 -1.02423 -1.1978 0
M  V30 4829 C 462.114 -0.601023 -2.22837 0
M  V30 4830 C 463.084 0.382801 -1.61629 0
M  V30 4831 O 464.269 0.280514 -1.88727 0
M  V30 4832 C 461.409 0.0467755 -3.45068 0
M  V30 4833 C 460.522 -0.98253 -4.20678 0
M  V30 4834 C 459.657 -0.304982 -5.30324 0
M  V30 4835 C 458.696 -1.32052 -5.97686 0
M  V30 4836 N 457.833 -0.669105 -6.98904 0
M  V30 4837 H 462.673 -1.48444 -2.58396 0
M  V30 4838 H 460.21 -0.742936 -1.2696 0
M  V30 4839 H 462.168 0.439556 -4.14878 0
M  V30 4840 H 460.798 0.893796 -3.10179 0
M  V30 4841 H 459.85 -1.49341 -3.49859 0
M  V30 4842 H 461.162 -1.75455 -4.66923 0
M  V30 4843 H 460.316 0.142893 -6.06532 0
M  V30 4844 H 459.055 0.499283 -4.85138 0
M  V30 4845 H 458.06 -1.7787 -5.20233 0
M  V30 4846 H 459.285 -2.1262 -6.44957 0
M  V30 4847 H 457.231 0.115152 -6.55899 0
M  V30 4848 H 457.148 -1.37908 -7.43315 0
M  V30 4849 H 458.416 -0.245076 -7.79115 0
M  V30 4850 N 462.645 1.35699 -0.801477 0
M  V30 4851 C 463.555 2.33661 -0.209691 0
M  V30 4852 C 464.571 1.6162 0.644591 0
M  V30 4853 O 465.747 1.93529 0.557545 0
M  V30 4854 C 462.812 3.40816 0.636033 0
M  V30 4855 C 461.873 4.28639 -0.238147 0
M  V30 4856 C 461.106 5.30676 0.567307 0
M  V30 4857 O 461.329 5.41174 1.8024 0
M  V30 4858 O 460.263 6.01887 -0.0391336 0
M  V30 4859 H 464.089 2.8606 -1.01996 0
M  V30 4860 H 461.674 1.38379 -0.563164 0
M  V30 4861 H 463.556 4.06301 1.11791 0
M  V30 4862 H 462.231 2.90696 1.42399 0
M  V30 4863 H 461.138 3.66152 -0.767044 0
M  V30 4864 H 462.471 4.82143 -0.989915 0
M  V30 4865 N 464.123 0.554532 1.47522 0
M  V30 4866 C 465.372 0.0273458 2.01681 0
M  V30 4867 C 465.685 -1.32962 1.43459 0
M  V30 4868 O 466.891 -1.94657 1.89265 0
M  V30 4869 C 465.347 -0.00159057 3.599 0
M  V30 4870 C 464.955 1.35197 4.27113 0
M  V30 4871 C 466.699 -0.476311 4.21819 0
M  V30 4872 C 464.606 1.28229 5.77331 0
M  V30 4873 H 463.536 0.00645269 0.753972 0
M  V30 4874 H 466.187 0.701985 1.69542 0
M  V30 4875 H 464.569 -0.741821 3.8899 0
M  V30 4876 H 465.743 2.1097 4.09668 0
M  V30 4877 H 464.058 1.76441 3.77171 0
M  V30 4878 H 466.655 -0.5468 5.31897 0
M  V30 4879 H 466.998 -1.4877 3.8881 0
M  V30 4880 H 467.531 0.20898 3.97251 0
M  V30 4881 H 464.27 2.26959 6.14955 0
M  V30 4882 H 463.79 0.566314 5.97121 0
M  V30 4883 H 465.469 0.983226 6.39485 0
M  V30 4884 N 465.601 -1.54893 0.290851 0
M  V30 4885 C 466.511 -2.26812 -0.59945 0
M  V30 4886 C 467.527 -1.29963 -1.15696 0
M  V30 4887 O 468.703 -1.62928 -1.18391 0
M  V30 4888 C 465.768 -2.98716 -1.75982 0
M  V30 4889 C 464.829 -4.1108 -1.2374 0
M  V30 4890 C 464.062 -4.79546 -2.34246 0
M  V30 4891 O 464.285 -4.47309 -3.53936 0
M  V30 4892 O 463.219 -5.67165 -2.01512 0
M  V30 4893 H 467.045 -3.03696 -0.0163561 0
M  V30 4894 H 464.63 -1.49289 0.0576755 0
M  V30 4895 H 466.512 -3.43851 -2.43607 0
M  V30 4896 H 465.187 -2.24737 -2.3297 0
M  V30 4897 H 464.094 -3.70367 -0.527163 0
M  V30 4898 H 465.427 -4.87007 -0.71307 0
M  V30 4899 N 467.08 -0.0183926 -1.57589 0
M  V30 4900 C 468.043 0.951986 -2.08494 0
M  V30 4901 C 469.043 1.26092 -0.997874 0
M  V30 4902 O 470.233 1.20304 -1.25987 0
M  V30 4903 C 467.365 2.27165 -2.54182 0
M  V30 4904 H 468.558 0.511307 -2.95509 0
M  V30 4905 H 466.111 0.229444 -1.54607 0
M  V30 4906 H 466.846 2.75884 -1.70465 0
M  V30 4907 H 466.631 2.06057 -3.33591 0
M  V30 4908 H 468.121 2.9674 -2.93828 0
M  V30 4909 N 468.558 1.5553 0.254621 0
M  V30 4910 C 469.835 1.6774 1.00611 0
M  V30 4911 C 470.215 0.555993 2.03647 0
M  V30 4912 O 469.563 -0.441583 2.24193 0
M  V30 4913 C 469.773 3.07725 1.6464 0
M  V30 4914 C 471.121 3.66074 2.15116 0
M  V30 4915 O 472.145 3.10476 1.74595 0
M  V30 4916 O 471.004 4.63526 2.89493 0
M  V30 4917 H 468.098 0.681958 0.467828 0
M  V30 4918 H 470.644 1.67863 0.24902 0
M  V30 4919 H 469.416 3.80792 0.900734 0
M  V30 4920 H 469.039 3.1158 2.46989 0
M  V30 4921 N 470.036 -0.519951 1.48776 0
M  V30 4922 C 471.285 -1.27175 1.56555 0
M  V30 4923 C 471.598 -1.9401 0.248869 0
M  V30 4924 O 472.804 -2.70725 0.205004 0
M  V30 4925 C 471.26 -2.30811 2.76142 0
M  V30 4926 C 470.868 -1.7 4.14493 0
M  V30 4927 C 472.612 -3.06937 2.9324 0
M  V30 4928 C 470.519 -2.71635 5.25327 0
M  V30 4929 H 469.449 -0.478329 0.582853 0
M  V30 4930 H 472.1 -0.547916 1.75129 0
M  V30 4931 H 470.482 -3.06274 2.51023 0
M  V30 4932 H 471.656 -1.00658 4.49672 0
M  V30 4933 H 469.971 -1.06331 4.02595 0
M  V30 4934 H 472.568 -3.82905 3.73213 0
M  V30 4935 H 472.911 -3.63409 2.03075 0
M  V30 4936 H 473.444 -2.38589 3.18308 0
M  V30 4937 H 470.183 -2.1997 6.1749 0
M  V30 4938 H 469.703 -3.39275 4.94624 0
M  V30 4939 H 471.382 -3.34429 5.53865 0
M  V30 4940 N 471.514 -1.37532 -0.769588 0
M  V30 4941 C 472.446 -1.29347 -1.89214 0
M  V30 4942 C 473.459 -0.208842 -1.61455 0
M  V30 4943 O 474.648 -0.465158 -1.72333 0
M  V30 4944 C 471.748 -0.977649 -3.24492 0
M  V30 4945 C 470.921 -2.16817 -3.7988 0
M  V30 4946 C 469.98 -1.82229 -4.93639 0
M  V30 4947 O 469.006 -2.54548 -5.09111 0
M  V30 4948 N 470.208 -0.767696 -5.75401 0
M  V30 4949 H 472.973 -2.26073 -1.96751 0
M  V30 4950 H 470.534 -1.31185 -0.948795 0
M  V30 4951 H 472.526 -0.727065 -3.98115 0
M  V30 4952 H 471.096 -0.0988777 -3.12444 0
M  V30 4953 H 470.316 -2.58038 -2.9801 0
M  V30 4954 H 471.604 -2.96308 -4.13617 0
M  V30 4955 H 471.002 -0.167626 -5.65452 0
M  V30 4956 H 469.559 -0.576973 -6.49241 0
M  V30 4957 N 472.992 0.995999 -1.22138 0
M  V30 4958 C 473.955 2.06711 -0.990109 0
M  V30 4959 C 474.955 1.60744 0.0422978 0
M  V30 4960 O 476.145 1.73095 -0.195895 0
M  V30 4961 C 473.277 3.37288 -0.49491 0
M  V30 4962 H 474.47 2.28661 -1.94047 0
M  V30 4963 H 472.023 1.16711 -1.03963 0
M  V30 4964 H 472.758 3.21022 0.459948 0
M  V30 4965 H 472.543 3.71986 -1.23971 0
M  V30 4966 H 474.033 4.16103 -0.353253 0
M  V30 4967 N 474.47 1.03057 1.19235 0
M  V30 4968 C 475.716 0.729098 1.89241 0
M  V30 4969 C 476.049 -0.740573 1.79525 0
M  V30 4970 O 475.324 -1.53946 1.18874 0
M  V30 4971 C 475.607 1.18304 3.40112 0
M  V30 4972 C 475.46 2.71406 3.5869 0
M  V30 4973 C 476.779 0.765161 4.33397 0
M  V30 4974 H 473.898 0.266338 0.687192 0
M  V30 4975 H 476.54 1.28079 1.40341 0
M  V30 4976 H 474.69 0.713672 3.81889 0
M  V30 4977 H 476.362 3.26303 3.26074 0
M  V30 4978 H 474.605 3.11717 3.01687 0
M  V30 4979 H 475.276 2.98225 4.64506 0
M  V30 4980 H 477.752 1.16889 3.99345 0
M  V30 4981 H 476.628 1.11065 5.37546 0
M  V30 4982 H 476.889 -0.332372 4.40849 0
M  V30 4983 N 475.948 -1.35272 0.808662 0
M  V30 4984 C 477.178 -2.02652 0.401953 0
M  V30 4985 C 477.586 -1.6108 -0.992462 0
M  V30 4986 O 476.929 -0.804984 -1.65123 0
M  V30 4987 C 476.991 -3.57174 0.408246 0
M  V30 4988 C 476.655 -4.22019 1.75353 0
M  V30 4989 C 477.652 -4.43552 2.71215 0
M  V30 4990 C 475.337 -4.59093 2.03811 0
M  V30 4991 C 477.331 -5.01264 3.93717 0
M  V30 4992 C 475.018 -5.16519 3.26576 0
M  V30 4993 C 476.016 -5.37546 4.21347 0
M  V30 4994 O 475.704 -5.93761 5.41944 0
M  V30 4995 H 475.436 -0.656495 0.161216 0
M  V30 4996 H 477.99 -1.73829 1.0942 0
M  V30 4997 H 476.22 -3.85197 -0.340608 0
M  V30 4998 H 477.909 -4.05893 0.0235623 0
M  V30 4999 H 478.675 -4.15288 2.50522 0
M  V30 5000 H 474.554 -4.42039 1.30854 0
M  V30 5001 H 478.098 -5.17592 4.67701 0
M  V30 5002 H 473.995 -5.4421 3.47139 0
M  V30 5003 H 474.763 -6.1221 5.43269 0
M  V30 5004 N 477.426 -0.562348 -1.47226 0
M  V30 5005 C 478.389 0.172056 -2.28553 0
M  V30 5006 C 479.389 0.837928 -1.37242 0
M  V30 5007 O 480.579 0.693001 -1.59822 0
M  V30 5008 C 477.711 1.25223 -3.17068 0
M  V30 5009 H 478.904 -0.542401 -2.94954 0
M  V30 5010 H 476.457 -0.319493 -1.53 0
M  V30 5011 H 477.192 1.99892 -2.55369 0
M  V30 5012 H 476.977 0.779515 -3.84273 0
M  V30 5013 H 478.467 1.76791 -3.78332 0
M  V30 5014 N 478.904 1.54736 -0.299062 0
M  V30 5015 C 479.836 2.20891 0.61153 0
M  V30 5016 C 480.849 1.20104 1.09904 0
M  V30 5017 O 482.038 1.46707 1.01683 0
M  V30 5018 C 479.138 2.84018 1.84897 0
M  V30 5019 C 478.311 4.10719 1.50428 0
M  V30 5020 C 477.37 4.57667 2.59667 0
M  V30 5021 O 476.396 5.2291 2.24842 0
M  V30 5022 N 477.598 4.29821 3.90172 0
M  V30 5023 H 480.363 2.99666 0.0452001 0
M  V30 5024 H 477.924 1.61446 -0.121178 0
M  V30 5025 H 479.916 3.1236 2.5732 0
M  V30 5026 H 478.486 2.09095 2.32375 0
M  V30 5027 H 477.706 3.89408 0.612781 0
M  V30 5028 H 478.994 4.93223 1.24934 0
M  V30 5029 H 478.392 3.77549 4.21276 0
M  V30 5030 H 476.949 4.62877 4.58899 0
M  V30 5031 N 480.382 0.0267497 1.57577 0
M  V30 5032 C 481.798 -0.32962 1.56159 0
M  V30 5033 C 481.998 -1.73059 1.03213 0
M  V30 5034 O 481.054 -2.43233 0.677804 0
M  V30 5035 C 482.367 -0.18039 3.00158 0
M  V30 5036 C 483.915 -0.253334 3.11973 0
M  V30 5037 C 484.39 -0.132921 4.57807 0
M  V30 5038 N 485.881 -0.189979 4.6281 0
M  V30 5039 C 486.616 -0.120554 5.73273 0
M  V30 5040 N 486.112 -0.000180315 6.928 0
M  V30 5041 N 487.905 -0.174369 5.61829 0
M  V30 5042 H 480.056 0.942896 1.90324 0
M  V30 5043 H 482.319 0.3639 0.875375 0
M  V30 5044 H 482.025 0.784576 3.42837 0
M  V30 5045 H 481.899 -0.951565 3.65 0
M  V30 5046 H 484.286 -1.20876 2.69208 0
M  V30 5047 H 484.367 0.548177 2.49857 0
M  V30 5048 H 484.011 0.819073 5.01252 0
M  V30 5049 H 483.941 -0.953264 5.179 0
M  V30 5050 H 486.432 -0.283257 3.76837 0
M  V30 5051 H 486.745 0.0461666 7.72786 0
M  V30 5052 H 485.09 0.034569 6.94991 0
M  V30 5053 H 488.281 -0.266794 4.67339 0
M  V30 5054 H 488.454 -0.116802 6.47895 0
M  V30 5055 N 481.861 -1.55662 -0.24637 0
M  V30 5056 C 483.272 -1.67953 -0.81539 0
M  V30 5057 C 483.623 -0.624302 -1.86002 0
M  V30 5058 O 482.748 0.229328 -2.15181 0
M  V30 5059 C 483.343 -3.04484 -1.48576 0
M  V30 5060 C 481.902 -3.18713 -2.00248 0
M  V30 5061 C 481.049 -2.6383 -0.853766 0
M  V30 5062 H 484 -1.58685 -0.0221692 0
M  V30 5063 H 484.021 -2.98959 -2.3538 0
M  V30 5064 H 483.533 -3.81264 -0.725222 0
M  V30 5065 H 481.634 -2.46757 -2.79181 0
M  V30 5066 H 481.747 -4.25628 -2.1995 0
M  V30 5067 H 480.111 -2.21667 -1.25442 0
M  V30 5068 H 480.894 -3.43135 -0.106302 0
M  V30 5069 N 483.339 0.512053 -1.4905 0
M  V30 5070 C 484.271 1.63121 -1.6101 0
M  V30 5071 C 485.284 1.55145 -0.493352 0
M  V30 5072 O 486.473 1.61278 -0.764955 0
M  V30 5073 C 483.573 3.01863 -1.54052 0
M  V30 5074 C 482.746 3.35138 -2.81072 0
M  V30 5075 C 481.805 4.5324 -2.67319 0
M  V30 5076 O 480.831 4.55571 -3.41238 0
M  V30 5077 N 482.033 5.52495 -1.78127 0
M  V30 5078 H 484.798 1.53292 -2.5753 0
M  V30 5079 H 482.359 0.699706 -1.45999 0
M  V30 5080 H 484.351 3.78774 -1.42521 0
M  V30 5081 H 482.921 3.05675 -0.654345 0
M  V30 5082 H 482.141 2.4723 -3.07036 0
M  V30 5083 H 483.429 3.54162 -3.65304 0
M  V30 5084 H 482.827 5.53403 -1.17308 0
M  V30 5085 H 481.384 6.28553 -1.72525 0
M  V30 5086 N 484.817 1.37938 0.762283 0
M  V30 5087 C 485.747 1.37176 1.88958 0
M  V30 5088 C 486.728 0.238945 1.68413 0
M  V30 5089 O 487.913 0.440726 1.89133 0
M  V30 5090 C 485.043 1.18742 3.2637 0
M  V30 5091 C 483.997 2.29136 3.61498 0
M  V30 5092 C 483.323 1.95816 4.97554 0
M  V30 5093 C 484.623 3.71363 3.6727 0
M  V30 5094 H 486.317 2.31509 1.89853 0
M  V30 5095 H 483.863 1.11438 0.912005 0
M  V30 5096 H 485.816 1.16837 4.04879 0
M  V30 5097 H 484.54 0.208683 3.25933 0
M  V30 5098 H 483.199 2.30213 2.85303 0
M  V30 5099 H 482.847 0.964475 4.93667 0
M  V30 5100 H 482.547 2.69745 5.22026 0
M  V30 5101 H 484.071 1.95513 5.78452 0
M  V30 5102 H 485.485 3.72364 4.35911 0
M  V30 5103 H 483.882 4.44425 4.03245 0
M  V30 5104 H 484.952 4.04305 2.67704 0
M  V30 5105 N 486.295 -0.989507 1.22664 0
M  V30 5106 C 487.258 -2.06183 1.00106 0
M  V30 5107 C 488.258 -1.60765 -0.0337726 0
M  V30 5108 O 489.448 -1.72989 0.205072 0
M  V30 5109 C 486.58 -3.37021 0.51279 0
M  V30 5110 H 487.773 -2.27629 1.95256 0
M  V30 5111 H 485.326 -1.16158 1.0458 0
M  V30 5112 H 486.061 -3.21261 -0.442917 0
M  V30 5113 H 485.846 -3.71323 1.25942 0
M  V30 5114 H 487.336 -4.1591 0.375315 0
M  V30 5115 N 487.773 -1.03688 -1.18687 0
M  V30 5116 C 488.706 -0.569112 -2.2099 0
M  V30 5117 C 489.684 0.394315 -1.57746 0
M  V30 5118 O 490.868 0.309519 -1.85941 0
M  V30 5119 C 487.995 0.169104 -3.38278 0
M  V30 5120 C 487.041 -0.746989 -4.19908 0
M  V30 5121 S 487.874 -2.22773 -4.86963 0
M  V30 5122 C 489.03 -1.50025 -6.07654 0
M  V30 5123 H 489.263 -1.43589 -2.60326 0
M  V30 5124 H 486.796 -0.847507 -1.29061 0
M  V30 5125 H 488.754 0.588868 -4.06254 0
M  V30 5126 H 487.415 1.01172 -2.9736 0
M  V30 5127 H 486.608 -0.176626 -5.0369 0
M  V30 5128 H 486.21 -1.10543 -3.5729 0
M  V30 5129 H 488.502 -0.791217 -6.72864 0
M  V30 5130 H 489.445 -2.31498 -6.69189 0
M  V30 5131 H 489.853 -0.994245 -5.55675 0
M  V30 5132 N 489.251 1.34841 -0.815825 0
M  V30 5133 C 490.497 1.98793 -0.401129 0
M  V30 5134 C 490.83 1.64548 1.03139 0
M  V30 5135 O 490.105 0.913487 1.71714 0
M  V30 5136 C 490.388 3.55143 -0.595409 0
M  V30 5137 C 490.241 3.99155 -2.07352 0
M  V30 5138 C 491.56 4.40092 -0.0268823 0
M  V30 5139 H 488.679 0.722146 -0.14722 0
M  V30 5140 H 491.321 1.59847 -1.02707 0
M  V30 5141 H 489.471 3.8845 -0.0625779 0
M  V30 5142 H 491.143 3.76216 -2.66945 0
M  V30 5143 H 489.386 3.49726 -2.56659 0
M  V30 5144 H 490.057 5.07971 -2.1603 0
M  V30 5145 H 492.533 4.13298 -0.482042 0
M  V30 5146 H 491.409 5.48562 -0.19267 0
M  V30 5147 H 491.67 4.29016 1.06759 0
M  V30 5148 N 490.729 0.570148 1.46925 0
M  V30 5149 C 491.677 -0.183181 2.31878 0
M  V30 5150 C 492.671 -0.896721 1.43719 0
M  V30 5151 O 493.877 -0.816536 1.60414 0
M  V30 5152 H 490.252 -0.077944 0.74795 0
M  V30 5153 H 492.223 0.552312 2.93244 0
M  V30 5154 C 490.972 -1.19172 3.2664 0
M  V30 5155 H 490.295 -0.652088 3.94446 0
M  V30 5156 H 491.735 -1.68946 3.88887 0
M  V30 5157 C 490.194 -2.24627 2.51086 0
M  V30 5158 O 490.724 -3.31773 2.26472 0
M  V30 5159 N 488.93 -1.98898 2.11867 0
M  V30 5160 H 488.477 -1.11777 2.32086 0
M  V30 5161 H 488.435 -2.6967 1.61634 0
M  V30 5162 N 492.207 -1.54576 0.307264 0
M  V30 5163 C 493.432 -2.05139 -0.305379 0
M  V30 5164 C 493.857 -1.18278 -1.46259 0
M  V30 5165 O 493.215 -0.188243 -1.8032 0
M  V30 5166 C 493.263 -3.53066 -0.733283 0
M  V30 5167 O 492.367 -3.69206 -1.83741 0
M  V30 5168 H 491.708 -0.661444 -0.0582105 0
M  V30 5169 H 494.238 -1.99569 0.450931 0
M  V30 5170 H 494.248 -3.95034 -1.02039 0
M  V30 5171 H 492.923 -4.15746 0.113198 0
M  V30 5172 H 491.5 -3.39143 -1.55037 0
M  V30 5173 N 493.685 -0.035106 -1.57561 0
M  V30 5174 C 494.962 0.681212 -1.83354 0
M  V30 5175 C 495.342 1.89986 -0.920252 0
M  V30 5176 O 494.69 2.28489 0.0226815 0
M  V30 5177 C 494.9 1.05376 -3.32712 0
M  V30 5178 C 496.248 1.44286 -3.99333 0
M  V30 5179 O 497.272 1.14656 -3.37242 0
M  V30 5180 O 496.131 1.99518 -5.08778 0
M  V30 5181 H 493.225 0.334741 -0.756226 0
M  V30 5182 H 495.771 -0.0632448 -1.69582 0
M  V30 5183 H 494.543 0.186668 -3.90854 0
M  V30 5184 H 494.166 1.85619 -3.51613 0
M  V30 5185 N 495.163 1.55791 0.238111 0
M  V30 5186 C 496.11 1.9105 1.29493 0
M  V30 5187 C 497.08 0.765733 1.47397 0
M  V30 5188 O 498.265 1.02017 1.61236 0
M  V30 5189 C 495.405 2.21826 2.64362 0
M  V30 5190 C 494.518 3.49153 2.54394 0
M  V30 5191 C 493.653 3.69455 3.81676 0
M  V30 5192 C 492.692 4.90353 3.66361 0
M  V30 5193 N 491.829 5.07131 4.85554 0
M  V30 5194 H 496.669 2.81172 0.987233 0
M  V30 5195 H 494.206 1.39179 0.476203 0
M  V30 5196 H 496.164 2.37675 3.4288 0
M  V30 5197 H 494.794 1.34897 2.93262 0
M  V30 5198 H 493.846 3.41587 1.67399 0
M  V30 5199 H 495.158 4.37818 2.38991 0
M  V30 5200 H 494.312 3.85311 4.68636 0
M  V30 5201 H 493.051 2.7904 3.99985 0
M  V30 5202 H 492.056 4.74464 2.77784 0
M  V30 5203 H 493.281 5.82237 3.49538 0
M  V30 5204 H 491.227 4.19654 5.04209 0
M  V30 5205 H 491.144 5.89899 4.72816 0
M  V30 5206 H 492.412 5.27407 5.73988 0
M  V30 5207 N 496.642 -0.504142 1.49319 0
M  V30 5208 C 497.89 -1.25598 1.58334 0
M  V30 5209 C 498.211 -1.93114 0.270538 0
M  V30 5210 O 497.481 -1.82585 -0.709891 0
M  V30 5211 H 496.061 -0.466571 0.58337 0
M  V30 5212 H 498.723 -0.584547 1.85928 0
M  V30 5213 H 497.819 -2.02159 2.37778 0
M  V30 5214 N 498.12 -1.38341 -0.754957 0
M  V30 5215 C 499.369 -1.33791 -1.5094 0
M  V30 5216 C 499.682 0.0699267 -1.95475 0
M  V30 5217 O 500.888 0.237956 -2.70455 0
M  V30 5218 C 499.344 -2.34934 -2.72643 0
M  V30 5219 C 498.952 -3.81332 -2.35138 0
M  V30 5220 C 500.696 -2.39425 -3.50536 0
M  V30 5221 C 498.603 -4.74164 -3.53444 0
M  V30 5222 H 497.533 -0.497314 -0.566741 0
M  V30 5223 H 500.184 -1.63888 -0.825403 0
M  V30 5224 H 498.566 -1.97878 -3.43017 0
M  V30 5225 H 499.74 -4.27319 -1.7244 0
M  V30 5226 H 498.055 -3.79946 -1.70382 0
M  V30 5227 H 500.652 -3.0598 -4.38498 0
M  V30 5228 H 500.995 -1.41278 -3.91594 0
M  V30 5229 H 501.528 -2.75274 -2.87174 0
M  V30 5230 H 498.267 -5.73501 -3.17453 0
M  V30 5231 H 497.787 -4.3287 -4.15191 0
M  V30 5232 H 499.466 -4.92111 -4.20043 0
M  V30 5233 N 499.598 0.982988 -1.23187 0
M  V30 5234 C 500.826 1.75921 -1.08901 0
M  V30 5235 C 501.241 1.85341 0.359719 0
M  V30 5236 O 500.598 1.33072 1.24892 0
M  V30 5237 C 500.649 3.18742 -1.70545 0
M  V30 5238 O 500.37 3.09814 -3.09753 0
M  V30 5239 C 501.871 4.1277 -1.61667 0
M  V30 5240 H 499.091 0.552166 -0.381252 0
M  V30 5241 H 501.635 1.23516 -1.62985 0
M  V30 5242 H 499.79 3.68182 -1.20501 0
M  V30 5243 H 500.204 3.99703 -3.39614 0
M  V30 5244 H 501.678 5.10697 -2.09506 0
M  V30 5245 H 502.155 4.3542 -0.575009 0
M  V30 5246 H 502.761 3.69232 -2.11064 0
M  V30 5247 N 501.076 1.04316 1.18135 0
M  V30 5248 C 502.024 0.630175 2.23901 0
M  V30 5249 C 503.018 -0.344254 1.65865 0
M  V30 5250 O 504.224 -0.211273 1.78756 0
M  V30 5251 H 500.599 0.185578 0.728742 0
M  V30 5252 H 502.57 1.53253 2.56039 0
M  V30 5253 C 501.319 0.011666 3.47698 0
M  V30 5254 H 500.642 0.752526 3.92654 0
M  V30 5255 H 502.082 -0.240046 4.2332 0
M  V30 5256 C 500.541 -1.23913 3.13285 0
M  V30 5257 O 501.071 -2.32959 3.27251 0
M  V30 5258 N 499.277 -1.13338 2.67587 0
M  V30 5259 H 498.824 -0.246006 2.56423 0
M  V30 5260 H 498.782 -1.97116 2.44934 0
M  V30 5261 N 502.554 -1.34406 0.822964 0
M  V30 5262 C 503.484 -2.32052 0.259608 0
M  V30 5263 C 504.465 -1.58243 -0.623961 0
M  V30 5264 O 505.65 -1.86224 -0.55083 0
M  V30 5265 C 502.78 -3.42434 -0.579314 0
M  V30 5266 C 501.734 -4.27499 0.20712 0
M  V30 5267 C 501.06 -5.29349 -0.754547 0
M  V30 5268 C 502.36 -5.02758 1.41533 0
M  V30 5269 H 504.054 -2.79418 1.07545 0
M  V30 5270 H 501.6 -1.34338 0.518593 0
M  V30 5271 H 503.553 -4.0976 -0.983612 0
M  V30 5272 H 502.277 -2.93717 -1.4282 0
M  V30 5273 H 500.936 -3.61776 0.592787 0
M  V30 5274 H 500.584 -4.76895 -1.59939 0
M  V30 5275 H 500.284 -5.8714 -0.232561 0
M  V30 5276 H 501.808 -5.99544 -1.1567 0
M  V30 5277 H 503.222 -5.62938 1.08504 0
M  V30 5278 H 501.619 -5.70123 1.87296 0
M  V30 5279 H 502.689 -4.32451 2.1935 0
M  V30 5280 N 504.032 -0.577932 -1.46621 0
M  V30 5281 C 504.982 0.178869 -2.27297 0
M  V30 5282 C 505.966 0.866279 -1.35589 0
M  V30 5283 O 507.158 0.761163 -1.59798 0
M  V30 5284 C 504.287 1.19499 -3.2183 0
M  V30 5285 C 503.373 0.50994 -4.21023 0
M  V30 5286 N 503.764 -0.43177 -5.03954 0
M  V30 5287 C 502.062 0.761287 -4.39455 0
M  V30 5288 C 502.763 -0.831693 -5.75724 0
M  V30 5289 N 501.739 -0.181897 -5.43296 0
M  V30 5290 H 505.541 -0.544859 -2.88805 0
M  V30 5291 H 503.055 -0.399373 -1.57413 0
M  V30 5292 H 505.052 1.75131 -3.78332 0
M  V30 5293 H 503.712 1.91959 -2.61881 0
M  V30 5294 H 504.723 -0.807045 -5.11573 0
M  V30 5295 H 501.4 1.47282 -3.90659 0
M  V30 5296 H 502.79 -1.6067 -6.52407 0
M  V30 5297 N 505.51 1.54411 -0.315457 0
M  V30 5298 C 506.756 2.00716 0.289972 0
M  V30 5299 C 507.089 1.2034 1.5242 0
M  V30 5300 O 506.364 0.283579 1.92422 0
M  V30 5301 C 506.647 3.54507 0.632196 0
M  V30 5302 C 506.5 4.45615 -0.61218 0
M  V30 5303 C 507.819 4.15421 1.45305 0
M  V30 5304 H 504.938 0.729637 0.10392 0
M  V30 5305 H 507.58 1.8506 -0.430427 0
M  V30 5306 H 505.73 3.67979 1.24595 0
M  V30 5307 H 507.402 4.44026 -1.25053 0
M  V30 5308 H 505.645 4.15621 -1.24264 0
M  V30 5309 H 506.316 5.51022 -0.328379 0
M  V30 5310 H 508.792 4.05474 0.934331 0
M  V30 5311 H 507.668 5.23157 1.66127 0
M  V30 5312 H 507.929 3.68223 2.44671 0
M  V30 5313 N 506.988 0.0434614 1.5754 0
M  V30 5314 C 508.399 -0.493343 1.80064 0
M  V30 5315 C 508.75 -1.71388 0.955023 0
M  V30 5316 O 507.875 -2.15736 0.169434 0
M  V30 5317 C 508.47 -0.90179 3.26578 0
M  V30 5318 C 507.029 -1.38362 3.50047 0
M  V30 5319 C 506.176 -0.355129 2.75017 0
M  V30 5320 H 509.127 0.2694 1.56397 0
M  V30 5321 H 509.148 -1.76523 3.37075 0
M  V30 5322 H 508.66 -0.013271 3.88098 0
M  V30 5323 H 506.761 -2.29159 2.93798 0
M  V30 5324 H 506.874 -1.3811 4.58762 0
M  V30 5325 H 505.238 -0.826348 2.40922 0
M  V30 5326 H 506.021 0.525172 3.39259 0
M  V30 5327 N 508.466 -1.55915 -0.229846 0
M  V30 5328 C 509.691 -1.8296 -0.976743 0
M  V30 5329 C 510.116 -0.622735 -1.77493 0
M  V30 5330 O 509.474 0.428431 -1.76165 0
M  V30 5331 C 509.522 -3.07916 -1.8767 0
M  V30 5332 O 508.626 -2.86028 -2.97088 0
M  V30 5333 H 507.967 -0.603453 -0.277021 0
M  V30 5334 H 510.497 -2.0312 -0.245669 0
M  V30 5335 H 510.507 -3.37802 -2.2881 0
M  V30 5336 H 509.182 -3.95389 -1.28996 0
M  V30 5337 H 507.759 -2.67355 -2.59954 0
M  V30 5338 N 509.944 0.496216 -1.49584 0
M  V30 5339 C 511.221 1.25755 -1.49816 0
M  V30 5340 C 511.601 2.09859 -0.228572 0
M  V30 5341 O 510.949 2.14449 0.788908 0
M  V30 5342 C 511.159 2.11017 -2.7798 0
M  V30 5343 C 512.507 2.70047 -3.27658 0
M  V30 5344 O 513.531 2.21281 -2.79129 0
M  V30 5345 O 512.39 3.58834 -4.1219 0
M  V30 5346 H 509.484 0.569322 -0.599834 0
M  V30 5347 H 512.03 0.510094 -1.61852 0
M  V30 5348 H 510.802 1.48879 -3.61871 0
M  V30 5349 H 510.425 2.92947 -2.68827 0
M  V30 5350 N 511.423 1.38739 0.74761 0
M  V30 5351 C 512.669 1.35475 1.50912 0
M  V30 5352 C 513.002 -0.0533093 1.94127 0
M  V30 5353 O 512.277 -1.01572 1.65871 0
M  V30 5354 C 512.56 2.31582 2.75757 0
M  V30 5355 C 512.413 3.81274 2.38642 0
M  V30 5356 C 513.732 2.25722 3.77806 0
M  V30 5357 H 510.851 0.493427 0.547447 0
M  V30 5358 H 513.493 1.69634 0.855823 0
M  V30 5359 H 511.643 2.02582 3.31501 0
M  V30 5360 H 513.315 4.20972 1.88626 0
M  V30 5361 H 511.558 3.98664 1.71025 0
M  V30 5362 H 512.229 4.4399 3.27989 0
M  V30 5363 H 514.705 2.51336 3.31616 0
M  V30 5364 H 513.581 2.95069 4.62845 0
M  V30 5365 H 513.842 1.25803 4.23823 0
M  V30 5366 N 512.901 -0.976442 1.23707 0
M  V30 5367 C 514.15 -1.71254 1.06559 0
M  V30 5368 C 514.463 -1.91528 -0.397024 0
M  V30 5369 O 515.669 -2.62625 -0.688518 0
M  V30 5370 C 514.125 -3.08207 1.8584 0
M  V30 5371 C 513.733 -2.95806 3.36456 0
M  V30 5372 C 515.477 -3.85749 1.77194 0
M  V30 5373 C 513.384 -4.28015 4.08114 0
M  V30 5374 H 512.314 -0.642171 0.395136 0
M  V30 5375 H 514.965 -1.08877 1.4771 0
M  V30 5376 H 513.347 -3.71363 1.37498 0
M  V30 5377 H 514.521 -2.41716 3.92314 0
M  V30 5378 H 512.836 -2.31736 3.45959 0
M  V30 5379 H 515.433 -4.83633 2.28041 0
M  V30 5380 H 515.776 -4.09752 0.735477 0
M  V30 5381 H 516.309 -3.29303 2.23169 0
M  V30 5382 H 513.048 -4.09208 5.12083 0
M  V30 5383 H 512.568 -4.81955 3.57043 0
M  V30 5384 H 514.247 -4.96681 4.14629 0
M  V30 5385 N 514.379 -1.04941 -1.1758 0
M  V30 5386 C 515.625 -0.759112 -1.88057 0
M  V30 5387 C 515.958 0.711918 -1.8068 0
M  V30 5388 O 515.233 1.52035 -1.21308 0
M  V30 5389 C 515.516 -1.237 -3.38187 0
M  V30 5390 C 515.369 -2.77078 -3.54327 0
M  V30 5391 C 516.688 -0.834014 -4.32125 0
M  V30 5392 H 513.807 -0.277237 -0.682868 0
M  V30 5393 H 516.449 -1.30296 -1.38286 0
M  V30 5394 H 514.599 -0.774337 -3.80705 0
M  V30 5395 H 516.271 -3.31449 -3.20842 0
M  V30 5396 H 514.514 -3.16477 -2.96689 0
M  V30 5397 H 515.185 -3.05577 -4.59703 0
M  V30 5398 H 517.661 -1.23228 -3.97434 0
M  V30 5399 H 516.537 -1.19603 -5.35711 0
M  V30 5400 H 516.798 0.262195 -4.41322 0
M  V30 5401 N 515.857 1.33968 -0.830081 0
M  V30 5402 C 517.134 1.92554 -0.343858 0
M  V30 5403 C 517.514 1.7573 1.16971 0
M  V30 5404 O 516.862 1.14035 1.98011 0
M  V30 5405 C 517.072 3.40147 -0.781073 0
M  V30 5406 C 518.42 4.17299 -0.78402 0
M  V30 5407 O 519.444 3.48762 -0.724112 0
M  V30 5408 O 518.303 5.39631 -0.863739 0
M  V30 5409 H 515.397 0.821469 -0.0954827 0
M  V30 5410 H 517.943 1.42897 -0.915348 0
M  V30 5411 H 516.715 3.46225 -1.82329 0
M  V30 5412 H 516.338 3.97166 -0.18567 0
M  V30 5413 N 517.335 0.585699 1.46312 0
M  V30 5414 C 518.298 -0.135673 2.28798 0
M  V30 5415 C 519.298 -0.815988 1.38558 0
M  V30 5416 O 520.488 -0.667487 1.60904 0
M  V30 5417 C 517.62 -1.20163 3.1902 0
M  V30 5418 H 518.813 0.589257 2.94054 0
M  V30 5419 H 516.366 0.343794 1.52472 0
M  V30 5420 H 517.101 -1.95804 2.58517 0
M  V30 5421 H 516.886 -0.718282 3.85465 0
M  V30 5422 H 518.376 -1.70749 3.81096 0
M  V30 5423 N 518.813 -1.54241 0.323641 0
M  V30 5424 C 520.038 -2.05452 -0.283605 0
M  V30 5425 C 520.463 -1.19823 -1.44997 0
M  V30 5426 O 519.821 -0.207358 -1.8011 0
M  V30 5427 C 519.869 -3.53823 -0.695795 0
M  V30 5428 O 518.973 -3.71134 -1.79815 0
M  V30 5429 H 518.314 -0.662024 -0.0511917 0
M  V30 5430 H 520.844 -1.99079 0.472073 0
M  V30 5431 H 520.854 -3.96094 -0.978434 0
M  V30 5432 H 519.529 -4.15602 0.157287 0
M  V30 5433 H 518.106 -3.40768 -1.51431 0
M  V30 5434 N 520.291 -0.0518155 -1.57515 0
M  V30 5435 C 521.224 0.957758 -2.07129 0
M  V30 5436 C 522.202 1.30355 -0.971927 0
M  V30 5437 O 523.386 1.41631 -1.2439 0
M  V30 5438 C 520.513 2.27157 -2.51232 0
M  V30 5439 C 519.559 2.07879 -3.72409 0
M  V30 5440 S 520.392 1.35656 -5.18033 0
M  V30 5441 C 521.548 2.68359 -5.65451 0
M  V30 5442 H 521.781 0.53552 -2.92437 0
M  V30 5443 H 519.314 0.160465 -1.53564 0
M  V30 5444 H 521.272 3.02676 -2.77304 0
M  V30 5445 H 519.933 2.66509 -1.66228 0
M  V30 5446 H 519.126 3.05061 -4.01191 0
M  V30 5447 H 518.728 1.40499 -3.46606 0
M  V30 5448 H 521.02 3.64526 -5.71076 0
M  V30 5449 H 521.963 2.44213 -6.64654 0
M  V30 5450 H 522.371 2.74647 -4.93183 0
M  V30 5451 N 521.769 1.56035 0.221574 0
M  V30 5452 C 523.18 1.69229 0.788567 0
M  V30 5453 C 523.531 0.653814 1.84986 0
M  V30 5454 O 522.656 -0.195065 2.15519 0
M  V30 5455 C 523.251 3.06809 1.43713 0
M  V30 5456 C 521.81 3.21858 1.95152 0
M  V30 5457 C 520.957 2.65155 0.811685 0
M  V30 5458 H 523.908 1.587 -0.00307894 0
M  V30 5459 H 523.929 3.02666 2.30594 0
M  V30 5460 H 523.441 3.82369 0.664475 0
M  V30 5461 H 521.542 2.51167 2.7522 0
M  V30 5462 H 521.655 4.29073 2.1315 0
M  V30 5463 H 520.019 2.23635 1.21899 0
M  V30 5464 H 520.802 3.43261 0.0516987 0
M  V30 5465 N 523.247 -0.488276 1.49845 0
M  V30 5466 C 524.21 -1.57069 1.66919 0
M  V30 5467 C 525.21 -1.51445 0.540479 0
M  V30 5468 O 526.4 -1.5437 0.807188 0
M  V30 5469 C 523.532 -2.96718 1.67844 0
M  V30 5470 H 524.725 -1.43254 2.63474 0
M  V30 5471 H 522.278 -0.713435 1.39068 0
M  V30 5472 H 523.013 -3.15996 0.7292 0
M  V30 5473 H 522.798 -3.02208 2.49826 0
M  V30 5474 H 524.288 -3.75335 1.83066 0
M  V30 5475 N 524.725 -1.39134 -0.740242 0
M  V30 5476 C 525.658 -1.3182 -1.86276 0
M  V30 5477 C 526.636 -0.192794 -1.61453 0
M  V30 5478 O 527.82 -0.372365 -1.84786 0
M  V30 5479 C 524.947 -1.04564 -3.22155 0
M  V30 5480 C 523.993 -2.19224 -3.65846 0
M  V30 5481 S 524.826 -3.81466 -3.75824 0
M  V30 5482 C 525.982 -3.56425 -5.14502 0
M  V30 5483 H 526.215 -2.26822 -1.92195 0
M  V30 5484 H 523.748 -1.25127 -0.904576 0
M  V30 5485 H 525.706 -0.895228 -4.00619 0
M  V30 5486 H 524.367 -0.112578 -3.13898 0
M  V30 5487 H 523.56 -1.95732 -4.6444 0
M  V30 5488 H 523.162 -2.30441 -2.94572 0
M  V30 5489 H 525.454 -3.13366 -6.00673 0
M  V30 5490 H 526.397 -4.54462 -5.43019 0
M  V30 5491 H 526.805 -2.90641 -4.8393 0
M  V30 5492 N 526.204 0.969867 -1.24223 0
M  V30 5493 C 527.453 1.70687 -1.07466 0
M  V30 5494 C 527.766 1.91736 0.386861 0
M  V30 5495 O 528.972 2.62986 0.674581 0
M  V30 5496 C 527.428 3.07217 -1.87472 0
M  V30 5497 C 527.036 2.94018 -3.3802 0
M  V30 5498 C 528.78 3.84804 -1.79237 0
M  V30 5499 C 526.687 4.25844 -4.10379 0
M  V30 5500 H 525.617 0.640067 -0.398536 0
M  V30 5501 H 528.268 1.08092 -1.48285 0
M  V30 5502 H 526.65 3.70628 -1.39466 0
M  V30 5503 H 527.824 2.39632 -3.9359 0
M  V30 5504 H 526.139 2.29898 -3.47183 0
M  V30 5505 H 528.736 4.82417 -2.30603 0
M  V30 5506 H 529.079 4.09356 -0.757197 0
M  V30 5507 H 529.612 3.28115 -2.24912 0
M  V30 5508 H 526.351 4.06486 -5.14246 0
M  V30 5509 H 525.871 4.80054 -3.59594 0
M  V30 5510 H 527.55 4.94475 -4.17257 0
M  V30 5511 N 527.682 1.05563 1.17022 0
M  V30 5512 C 529.098 0.777684 1.39371 0
M  V30 5513 C 529.298 -0.626269 1.91521 0
M  V30 5514 O 528.354 -1.38806 2.10924 0
M  V30 5515 C 529.667 1.83642 2.3811 0
M  V30 5516 C 531.215 1.85907 2.51809 0
M  V30 5517 C 531.69 2.90813 3.53824 0
M  V30 5518 N 533.181 2.898 3.61345 0
M  V30 5519 C 533.916 3.6762 4.40049 0
M  V30 5520 N 533.412 4.55237 5.22237 0
M  V30 5521 N 535.205 3.56044 4.34959 0
M  V30 5522 H 527.356 1.9614 0.815047 0
M  V30 5523 H 529.619 0.849527 0.420722 0
M  V30 5524 H 529.325 2.84425 2.06871 0
M  V30 5525 H 529.199 1.6812 3.37662 0
M  V30 5526 H 531.586 0.857865 2.82356 0
M  V30 5527 H 531.667 2.05506 1.52318 0
M  V30 5528 H 531.311 3.91122 3.24015 0
M  V30 5529 H 531.241 2.68465 4.53028 0
M  V30 5530 H 533.732 2.26274 3.02669 0
M  V30 5531 H 534.045 5.11291 5.79484 0
M  V30 5532 H 532.39 4.59296 5.21605 0
M  V30 5533 H 535.581 2.86986 3.69806 0
M  V30 5534 H 535.754 4.16938 4.96051 0
M  V30 5535 N 529.16 -1.33526 0.837174 0
M  V30 5536 C 530.437 -1.92369 0.354065 0
M  V30 5537 C 530.817 -1.76348 -1.16038 0
M  V30 5538 O 530.165 -1.15083 -1.97403 0
M  V30 5539 C 530.375 -3.39728 0.799101 0
M  V30 5540 C 531.723 -4.16877 0.806139 0
M  V30 5541 O 532.747 -3.48373 0.742597 0
M  V30 5542 O 531.606 -5.39166 0.892345 0
M  V30 5543 H 528.7 -0.820952 0.0998378 0
M  V30 5544 H 531.246 -1.42409 0.922913 0
M  V30 5545 H 530.018 -3.45254 1.84162 0
M  V30 5546 H 529.641 -3.97062 0.206731 0
M  V30 5547 N 530.638 -0.59345 -1.46 0
M  V30 5548 C 531.863 -0.0872365 -2.07216 0
M  V30 5549 C 532.288 1.2131 -1.43755 0
M  V30 5550 O 531.646 1.73528 -0.525152 0
M  V30 5551 C 531.694 0.0538197 -3.6056 0
M  V30 5552 O 530.798 1.10765 -3.97247 0
M  V30 5553 H 530.139 -0.0676598 -0.660544 0
M  V30 5554 H 532.669 -0.819445 -1.87473 0
M  V30 5555 H 532.679 0.256567 -4.07193 0
M  V30 5556 H 531.354 -0.895739 -4.0614 0
M  V30 5557 H 529.931 0.882501 -3.62307 0
M  V30 5558 N 532.116 1.54067 -0.331816 0
M  V30 5559 C 533.364 2.00319 0.267739 0
M  V30 5560 C 533.685 1.22148 1.52003 0
M  V30 5561 O 532.955 0.325494 1.93177 0
M  V30 5562 H 531.535 0.740014 0.101922 0
M  V30 5563 H 534.197 1.89628 -0.450267 0
M  V30 5564 H 533.293 3.07765 0.518385 0
M  V30 5565 N 533.594 0.0601682 1.57485 0
M  V30 5566 C 534.541 -0.91112 2.12055 0
M  V30 5567 C 535.511 -1.30298 1.03013 0
M  V30 5568 O 536.696 -1.39087 1.30612 0
M  V30 5569 C 533.836 -2.1775 2.67729 0
M  V30 5570 C 532.949 -1.83933 3.90887 0
M  V30 5571 C 532.084 -3.05096 4.34845 0
M  V30 5572 C 531.123 -2.67241 5.5068 0
M  V30 5573 N 530.26 -3.81127 5.8965 0
M  V30 5574 H 535.1 -0.43888 2.9475 0
M  V30 5575 H 532.637 -0.204995 1.45665 0
M  V30 5576 H 534.595 -2.91866 2.98111 0
M  V30 5577 H 533.225 -2.62535 1.87816 0
M  V30 5578 H 532.277 -0.999287 3.6704 0
M  V30 5579 H 533.589 -1.52074 4.75052 0
M  V30 5580 H 532.743 -3.87502 4.66827 0
M  V30 5581 H 531.482 -3.40139 3.49509 0
M  V30 5582 H 530.487 -1.83254 5.18361 0
M  V30 5583 H 531.712 -2.3338 6.37738 0
M  V30 5584 H 529.658 -4.15954 5.07266 0
M  V30 5585 H 529.575 -3.52997 6.68528 0
M  V30 5586 H 530.843 -4.64145 6.2625 0
M  V30 5587 N 535.072 -1.5615 -0.213296 0
M  V30 5588 C 536.005 -1.88115 -1.29182 0
M  V30 5589 C 536.983 -0.739348 -1.44819 0
M  V30 5590 O 538.167 -0.988541 -1.605 0
M  V30 5591 C 535.294 -2.09541 -2.66102 0
M  V30 5592 C 534.34 -3.32236 -2.67436 0
M  V30 5593 S 535.173 -4.87915 -2.20679 0
M  V30 5594 C 536.329 -5.12387 -3.59458 0
M  V30 5595 H 536.562 -2.793 -1.01876 0
M  V30 5596 H 534.095 -1.48692 -0.415934 0
M  V30 5597 H 536.053 -2.22568 -3.44925 0
M  V30 5598 H 534.714 -1.19138 -2.90628 0
M  V30 5599 H 533.907 -3.44297 -3.6807 0
M  V30 5600 H 533.509 -3.18108 -1.96681 0
M  V30 5601 H 535.801 -5.01791 -4.55205 0
M  V30 5602 H 536.744 -6.14236 -3.52306 0
M  V30 5603 H 537.152 -4.40089 -3.53528 0
M  V30 5604 N 536.55 0.480323 -1.50102 0
M  V30 5605 C 537.796 1.23208 -1.61837 0
M  V30 5606 C 538.151 1.89878 -0.310509 0
M  V30 5607 O 537.444 1.7871 0.690897 0
M  V30 5608 C 537.638 2.30708 -2.72963 0
M  V30 5609 C 537.467 1.74583 -4.14428 0
M  V30 5610 C 536.237 1.54964 -4.80951 0
M  V30 5611 C 538.435 1.24597 -4.98979 0
M  V30 5612 N 536.417 0.939855 -6.06663 0
M  V30 5613 C 537.788 0.758834 -6.15339 0
M  V30 5614 C 539.843 1.13365 -4.84822 0
M  V30 5615 C 538.546 0.17046 -7.19098 0
M  V30 5616 C 540.572 0.559221 -5.8875 0
M  V30 5617 C 539.934 0.082415 -7.04352 0
M  V30 5618 H 536.033 0.440065 -0.646426 0
M  V30 5619 H 538.617 0.535632 -1.87187 0
M  V30 5620 H 536.788 2.9779 -2.4935 0
M  V30 5621 H 538.52 2.97738 -2.74106 0
M  V30 5622 H 535.275 1.79926 -4.38091 0
M  V30 5623 H 535.699 0.653641 -6.73837 0
M  V30 5624 H 540.341 1.48823 -3.95742 0
M  V30 5625 H 538.059 -0.196347 -8.07861 0
M  V30 5626 H 541.645 0.474804 -5.79859 0
M  V30 5627 H 540.525 -0.355119 -7.83396 0
M  V30 5628 N 538.028 1.39524 0.732853 0
M  V30 5629 C 539.276 1.36594 1.48951 0
M  V30 5630 C 539.597 -0.0367507 1.94965 0
M  V30 5631 O 538.867 -0.988391 1.69138 0
M  V30 5632 H 537.447 0.502673 0.552566 0
M  V30 5633 H 540.109 1.74411 0.869869 0
M  V30 5634 H 539.205 2.03 2.3706 0
M  V30 5635 N 539.506 -0.963266 1.24736 0
M  V30 5636 C 540.917 -1.52145 1.08207 0
M  V30 5637 C 541.268 -1.93142 -0.345061 0
M  V30 5638 O 540.393 -1.77769 -1.23399 0
M  V30 5639 C 540.988 -2.76486 1.95808 0
M  V30 5640 C 539.547 -3.28646 1.8349 0
M  V30 5641 C 538.694 -2.01529 1.90476 0
M  V30 5642 H 541.645 -0.781083 1.38148 0
M  V30 5643 H 541.666 -3.49986 1.49297 0
M  V30 5644 H 541.178 -2.46617 2.99669 0
M  V30 5645 H 539.279 -3.63357 0.824787 0
M  V30 5646 H 539.392 -3.97246 2.67829 0
M  V30 5647 H 537.756 -2.16442 1.34258 0
M  V30 5648 H 538.539 -1.7402 2.95926 0
M  V30 5649 N 540.985 -1.06182 -1.16461 0
M  V30 5650 C 542.262 -0.691364 -1.82974 0
M  V30 5651 C 542.642 0.827377 -1.9421 0
M  V30 5652 O 541.99 1.73723 -1.48434 0
M  V30 5653 C 542.2 -1.39199 -3.20038 0
M  V30 5654 C 543.548 -1.53647 -3.95825 0
M  V30 5655 O 544.572 -1.35181 -3.29552 0
M  V30 5656 O 543.431 -1.83932 -5.14618 0
M  V30 5657 H 540.525 -0.244605 -0.789998 0
M  V30 5658 H 543.071 -1.16203 -1.23673 0
M  V30 5659 H 541.843 -2.42766 -3.06888 0
M  V30 5660 H 541.466 -0.911335 -3.87015 0
M  V30 5661 N 542.463 1.3308 -0.844243 0
M  V30 5662 C 543.711 1.97215 -0.441676 0
M  V30 5663 C 544.032 1.67185 1.0037 0
M  V30 5664 O 543.302 0.973588 1.69994 0
M  V30 5665 H 541.882 0.72959 -0.160335 0
M  V30 5666 H 544.544 1.62348 -1.07838 0
M  V30 5667 H 543.64 3.06698 -0.57815 0
M  V30 5668 N 543.941 0.601185 1.45683 0
M  V30 5669 C 544.888 -0.121396 2.30481 0
M  V30 5670 C 545.858 -0.866232 1.41724 0
M  V30 5671 O 547.043 -0.85324 1.70659 0
M  V30 5672 C 544.183 -1.11704 3.26521 0
M  V30 5673 C 543.296 -0.373741 4.3038 0
M  V30 5674 C 542.431 -1.35854 5.13534 0
M  V30 5675 C 541.47 -0.602689 6.09126 0
M  V30 5676 N 540.607 -1.53645 6.85082 0
M  V30 5677 H 545.447 0.607732 2.91737 0
M  V30 5678 H 542.984 0.311502 1.43764 0
M  V30 5679 H 544.942 -1.70735 3.80664 0
M  V30 5680 H 543.572 -1.81366 2.67032 0
M  V30 5681 H 542.624 0.331962 3.78949 0
M  V30 5682 H 543.936 0.2163 4.98331 0
M  V30 5683 H 543.09 -2.02111 5.72046 0
M  V30 5684 H 541.829 -1.98251 4.45587 0
M  V30 5685 H 540.834 0.0735482 5.49751 0
M  V30 5686 H 542.059 0.0161467 6.79098 0
M  V30 5687 H 540.005 -2.14819 6.1983 0
M  V30 5688 H 539.922 -0.999688 7.49361 0
M  V30 5689 H 541.19 -2.1888 7.48139 0
M  V30 5690 N 545.419 -1.53889 0.339982 0
M  V30 5691 C 546.349 -2.27843 -0.510856 0
M  V30 5692 C 547.33 -1.29267 -1.10563 0
M  V30 5693 O 548.515 -1.58104 -1.12768 0
M  V30 5694 C 545.645 -3.04857 -1.66372 0
M  V30 5695 C 544.599 -4.10907 -1.19746 0
M  V30 5696 C 543.925 -4.75855 -2.43857 0
M  V30 5697 C 545.225 -5.21435 -0.300501 0
M  V30 5698 H 546.919 -2.99212 0.106067 0
M  V30 5699 H 544.465 -1.43904 0.0524533 0
M  V30 5700 H 546.418 -3.5533 -2.26537 0
M  V30 5701 H 545.142 -2.31133 -2.30749 0
M  V30 5702 H 543.801 -3.61342 -0.618654 0
M  V30 5703 H 543.449 -3.9873 -3.06633 0
M  V30 5704 H 543.149 -5.47502 -2.13343 0
M  V30 5705 H 544.673 -5.2911 -3.04754 0
M  V30 5706 H 546.087 -5.67565 -0.80889 0
M  V30 5707 H 544.484 -6.00036 -0.0874076 0
M  V30 5708 H 545.554 -4.80328 0.664321 0
M  V30 5709 N 546.897 -0.0685191 -1.57451 0
M  V30 5710 C 547.847 0.909895 -2.09057 0
M  V30 5711 C 548.831 1.26088 -0.999528 0
M  V30 5712 O 550.023 1.24041 -1.26265 0
M  V30 5713 C 547.152 2.17863 -2.65312 0
M  V30 5714 C 546.238 1.85427 -3.81415 0
M  V30 5715 N 546.629 1.23426 -4.9051 0
M  V30 5716 C 544.927 2.15196 -3.90649 0
M  V30 5717 C 545.628 1.09008 -5.71395 0
M  V30 5718 N 544.604 1.59871 -5.1956 0
M  V30 5719 H 548.406 0.426145 -2.90794 0
M  V30 5720 H 545.92 0.135462 -1.61834 0
M  V30 5721 H 547.917 2.88872 -3.00597 0
M  V30 5722 H 546.577 2.66829 -1.85021 0
M  V30 5723 H 547.588 0.904305 -5.09944 0
M  V30 5724 H 544.265 2.66562 -3.21327 0
M  V30 5725 H 545.655 0.607305 -6.6915 0
M  V30 5726 N 548.375 1.56261 0.205012 0
M  V30 5727 C 549.652 1.70856 0.952233 0
M  V30 5728 C 550.032 0.620501 2.01775 0
M  V30 5729 O 549.38 -0.370035 2.25484 0
M  V30 5730 C 549.59 3.12807 1.54767 0
M  V30 5731 C 550.938 3.72733 2.0336 0
M  V30 5732 O 551.962 3.15873 1.64629 0
M  V30 5733 O 550.821 4.72501 2.746 0
M  V30 5734 H 547.915 0.696496 0.445895 0
M  V30 5735 H 550.461 1.6857 0.195489 0
M  V30 5736 H 549.233 3.83465 0.779132 0
M  V30 5737 H 548.856 3.1928 2.36951 0
M  V30 5738 N 549.853 -0.472356 1.50355 0
M  V30 5739 C 551.081 -1.24784 1.65035 0
M  V30 5740 C 551.496 -1.85837 0.333176 0
M  V30 5741 O 550.853 -1.69168 -0.68472 0
M  V30 5742 C 550.904 -2.35747 2.74054 0
M  V30 5743 O 550.625 -1.77197 4.00665 0
M  V30 5744 C 552.126 -3.26645 2.99696 0
M  V30 5745 H 549.346 -0.377432 0.554785 0
M  V30 5746 H 551.89 -0.563962 1.9657 0
M  V30 5747 H 550.045 -2.99912 2.45217 0
M  V30 5748 H 550.459 -2.5026 4.60945 0
M  V30 5749 H 551.933 -4.00718 3.79644 0
M  V30 5750 H 552.41 -3.8535 2.10718 0
M  V30 5751 H 553.016 -2.68218 3.3006 0
M  V30 5752 N 551.331 -1.39911 -0.725443 0
M  V30 5753 C 552.278 -1.39393 -1.83952 0
M  V30 5754 C 553.248 -0.252249 -1.64173 0
M  V30 5755 O 554.433 -0.44882 -1.85446 0
M  V30 5756 C 551.573 -1.25262 -3.21564 0
M  V30 5757 C 550.686 -2.49054 -3.52982 0
M  V30 5758 C 549.821 -2.27439 -4.80047 0
M  V30 5759 C 548.86 -3.46857 -5.04338 0
M  V30 5760 N 547.997 -3.24499 -6.22611 0
M  V30 5761 H 552.837 -2.34622 -1.83729 0
M  V30 5762 H 550.374 -1.16537 -0.897636 0
M  V30 5763 H 552.332 -1.15077 -4.01015 0
M  V30 5764 H 550.962 -0.33657 -3.21041 0
M  V30 5765 H 550.014 -2.69805 -2.6816 0
M  V30 5766 H 551.326 -3.37973 -3.66846 0
M  V30 5767 H 550.48 -2.14551 -5.67497 0
M  V30 5768 H 549.219 -1.35929 -4.68374 0
M  V30 5769 H 548.224 -3.60232 -4.15346 0
M  V30 5770 H 549.449 -4.3928 -5.17889 0
M  V30 5771 H 547.395 -2.35663 -6.12208 0
M  V30 5772 H 547.312 -4.06978 -6.37106 0
M  V30 5773 H 548.58 -3.15325 -7.12875 0
M  V30 5774 N 552.809 0.956637 -1.25245 0
M  V30 5775 C 553.772 2.03457 -1.05537 0
M  V30 5776 C 554.772 1.60798 -0.00886317 0
M  V30 5777 O 555.962 1.72384 -0.250865 0
M  V30 5778 C 553.094 3.35543 -0.601965 0
M  V30 5779 H 554.287 2.22372 -2.01223 0
M  V30 5780 H 551.84 1.13344 -1.07623 0
M  V30 5781 H 552.575 3.22323 0.357584 0
M  V30 5782 H 552.36 3.67854 -1.35743 0
M  V30 5783 H 553.85 4.14769 -0.485454 0
M  V30 5784 N 554.287 1.06798 1.15896 0
M  V30 5785 C 555.533 0.788934 1.86825 0
M  V30 5786 C 555.866 -0.683084 1.8179 0
M  V30 5787 O 555.141 -1.50086 1.23711 0
M  V30 5788 C 555.424 1.29065 3.36176 0
M  V30 5789 C 555.277 2.8268 3.49874 0
M  V30 5790 C 556.596 0.902655 4.30744 0
M  V30 5791 H 553.715 0.288066 0.678371 0
M  V30 5792 H 556.357 1.32479 1.36195 0
M  V30 5793 H 554.507 0.834806 3.79425 0
M  V30 5794 H 556.179 3.36511 3.15528 0
M  V30 5795 H 554.422 3.21157 2.91617 0
M  V30 5796 H 555.093 3.12852 4.54783 0
M  V30 5797 H 557.569 1.29535 3.95424 0
M  V30 5798 H 556.445 1.28111 5.3374 0
M  V30 5799 H 556.706 -0.191951 4.41683 0
M  V30 5800 N 555.766 -1.3263 0.851289 0
M  V30 5801 C 557.015 -1.96633 0.449267 0
M  V30 5802 C 557.328 -1.68131 -0.999562 0
M  V30 5803 O 558.534 -2.25845 -1.50685 0
M  V30 5804 C 556.99 -3.51946 0.752446 0
M  V30 5805 C 556.598 -3.89311 2.21678 0
M  V30 5806 C 558.342 -4.22437 0.417983 0
M  V30 5807 C 556.249 -5.37655 2.46336 0
M  V30 5808 H 555.179 -0.735888 0.164269 0
M  V30 5809 H 557.83 -1.51073 1.0416 0
M  V30 5810 H 556.212 -3.95899 0.0895858 0
M  V30 5811 H 557.386 -3.56378 2.92115 0
M  V30 5812 H 555.701 -3.31836 2.51543 0
M  V30 5813 H 558.298 -5.31549 0.579674 0
M  V30 5814 H 558.641 -4.11349 -0.640115 0
M  V30 5815 H 559.174 -3.84057 1.03659 0
M  V30 5816 H 555.913 -5.5376 3.50757 0
M  V30 5817 H 555.433 -5.72005 1.80473 0
M  V30 5818 H 557.112 -6.04695 2.30115 0
M  V30 5819 N 557.244 -0.608902 -1.45362 0
M  V30 5820 C 558.655 -0.189511 -1.85736 0
M  V30 5821 C 559.006 1.2539 -1.50903 0
M  V30 5822 O 558.131 1.95094 -0.936347 0
M  V30 5823 C 558.726 -0.33716 -3.37118 0
M  V30 5824 C 557.285 0.0275487 -3.7639 0
M  V30 5825 C 556.432 -0.660983 -2.69307 0
M  V30 5826 H 559.383 -0.815499 -1.36144 0
M  V30 5827 H 559.404 0.430257 -3.7806 0
M  V30 5828 H 558.916 -1.38779 -3.62439 0
M  V30 5829 H 557.017 1.0773 -3.56686 0
M  V30 5830 H 557.13 -0.367018 -4.77692 0
M  V30 5831 H 555.494 -0.0984958 -2.54509 0
M  V30 5832 H 556.277 -1.71377 -2.97464 0
M  V30 5833 N 558.722 1.53707 -0.348139 0
M  V30 5834 C 559.999 1.93247 0.302475 0
M  V30 5835 C 560.379 1.28012 1.67857 0
M  V30 5836 O 559.727 0.43274 2.24365 0
M  V30 5837 C 559.937 3.47031 0.370159 0
M  V30 5838 C 561.285 4.20066 0.61882 0
M  V30 5839 O 562.309 3.53319 0.452087 0
M  V30 5840 O 561.168 5.38318 0.94215 0
M  V30 5841 H 558.262 0.807736 0.177458 0
M  V30 5842 H 560.808 1.64927 -0.399651 0
M  V30 5843 H 559.58 3.86745 -0.59534 0
M  V30 5844 H 559.203 3.81532 1.11888 0
M  V30 5845 N 560.2 0.0768682 1.57412 0
M  V30 5846 C 561.616 -0.279772 1.57129 0
M  V30 5847 C 561.816 -1.69688 1.08666 0
M  V30 5848 O 560.872 -2.40953 0.754843 0
M  V30 5849 C 562.185 -0.0848055 3.0058 0
M  V30 5850 C 563.733 -0.153954 3.12621 0
M  V30 5851 C 564.208 0.0127946 4.57998 0
M  V30 5852 N 565.699 -0.0426435 4.6318 0
M  V30 5853 C 566.434 0.0618892 5.73367 0
M  V30 5854 N 565.93 0.220229 6.9245 0
M  V30 5855 N 567.723 0.00446072 5.621 0
M  V30 5856 H 559.874 1.00297 1.87228 0
M  V30 5857 H 562.137 0.391565 0.863354 0
M  V30 5858 H 561.843 0.89325 3.40168 0
M  V30 5859 H 561.717 -0.834961 3.67843 0
M  V30 5860 H 564.104 -1.1225 2.72917 0
M  V30 5861 H 564.185 0.627389 2.47987 0
M  V30 5862 H 563.829 0.978128 4.98392 0
M  V30 5863 H 563.759 -0.788016 5.20671 0
M  V30 5864 H 566.25 -0.163226 3.77547 0
M  V30 5865 H 566.563 0.291999 7.72248 0
M  V30 5866 H 564.908 0.255658 6.9453 0
M  V30 5867 H 568.099 -0.117979 4.67951 0
M  V30 5868 H 568.272 0.0893796 6.47938 0
M  V30 5869 N 561.678 -1.56367 -0.196722 0
M  V30 5870 C 562.918 -1.82315 -0.92415 0
M  V30 5871 C 563.282 -0.654117 -1.80514 0
M  V30 5872 O 564.483 -0.79345 -2.56823 0
M  V30 5873 C 562.754 -3.13279 -1.72021 0
M  V30 5874 S 564.313 -3.60627 -2.49988 0
M  V30 5875 H 561.131 -0.639862 -0.309997 0
M  V30 5876 H 563.733 -1.94597 -0.187684 0
M  V30 5877 H 562.437 -3.96379 -1.06358 0
M  V30 5878 H 561.968 -3.03871 -2.49852 0
M  V30 5879 H 563.983 -3.25934 -3.74141 0
M  V30 5880 N 563.156 0.464375 -1.50603 0
M  V30 5881 C 564.386 1.23727 -1.65454 0
M  V30 5882 C 564.794 1.86119 -0.340032 0
M  V30 5883 O 564.137 1.70301 0.688706 0
M  V30 5884 C 564.199 2.38153 -2.69301 0
M  V30 5885 C 563.863 1.96345 -4.12671 0
M  V30 5886 C 564.86 1.48215 -4.98326 0
M  V30 5887 C 562.545 2.04861 -4.58625 0
M  V30 5888 C 564.539 1.09152 -6.27985 0
M  V30 5889 C 562.226 1.65409 -5.88288 0
M  V30 5890 C 563.224 1.17634 -6.72794 0
M  V30 5891 O 562.912 0.787312 -8.00035 0
M  V30 5892 H 562.644 0.380075 -0.559034 0
M  V30 5893 H 565.198 0.559919 -1.97621 0
M  V30 5894 H 563.428 3.09081 -2.32392 0
M  V30 5895 H 565.117 3.00099 -2.73304 0
M  V30 5896 H 565.883 1.41052 -4.64036 0
M  V30 5897 H 561.762 2.40996 -3.92991 0
M  V30 5898 H 565.306 0.717909 -6.93896 0
M  V30 5899 H 561.203 1.72233 -6.22098 0
M  V30 5900 H 561.971 0.915567 -8.13363 0
M  V30 5901 N 564.634 1.40294 0.718013 0
M  V30 5902 C 565.597 1.4012 1.81381 0
M  V30 5903 C 566.597 0.295405 1.58063 0
M  V30 5904 O 567.787 0.554187 1.6515 0
M  V30 5905 C 564.919 1.19056 3.19435 0
M  V30 5906 H 566.112 2.37645 1.82933 0
M  V30 5907 H 563.665 1.26107 0.923405 0
M  V30 5908 H 564.4 0.222809 3.23534 0
M  V30 5909 H 564.185 1.99152 3.37758 0
M  V30 5910 H 565.675 1.21716 3.99468 0
M  V30 5911 N 566.112 -0.949982 1.2575 0
M  V30 5912 C 567.36 -1.6918 1.10555 0
M  V30 5913 C 567.681 -1.91773 -0.353298 0
M  V30 5914 O 566.951 -1.50814 -1.25027 0
M  V30 5915 H 565.531 -0.626952 0.406129 0
M  V30 5916 H 568.193 -1.1419 1.57945 0
M  V30 5917 H 567.289 -2.66915 1.61749 0
M  V30 5918 N 567.59 -1.07411 -1.15328 0
M  V30 5919 C 568.836 -0.798831 -1.86404 0
M  V30 5920 C 569.169 0.673433 -1.8215 0
M  V30 5921 O 568.444 1.49428 -1.24505 0
M  V30 5922 C 568.727 -1.30846 -3.35487 0
M  V30 5923 C 568.58 -2.84532 -3.4837 0
M  V30 5924 C 569.899 -0.925486 -4.30259 0
M  V30 5925 H 567.018 -0.291659 -0.676834 0
M  V30 5926 H 569.66 -1.332 -1.35491 0
M  V30 5927 H 567.81 -0.854916 -3.78977 0
M  V30 5928 H 569.482 -3.3818 -3.13739 0
M  V30 5929 H 567.725 -3.22699 -2.8991 0
M  V30 5930 H 568.396 -3.15259 -4.53118 0
M  V30 5931 H 570.872 -1.3163 -3.94731 0
M  V30 5932 H 569.748 -1.3094 -5.33053 0
M  V30 5933 H 570.009 0.168525 -4.41779 0
M  V30 5934 N 569.068 1.32177 -0.85831 0
M  V30 5935 C 570.298 2.01021 -0.476889 0
M  V30 5936 C 570.706 1.64653 0.931995 0
M  V30 5937 O 570.049 0.865713 1.62022 0
M  V30 5938 C 570.111 3.55413 -0.540528 0
M  V30 5939 C 569.775 4.1522 -1.90895 0
M  V30 5940 C 570.772 4.3318 -2.87491 0
M  V30 5941 C 568.457 4.51212 -2.20709 0
M  V30 5942 C 570.451 4.86306 -4.1205 0
M  V30 5943 C 568.138 5.04042 -3.45521 0
M  V30 5944 C 569.136 5.21538 -4.41007 0
M  V30 5945 O 568.824 5.73238 -5.63608 0
M  V30 5946 H 568.556 0.650059 -0.18547 0
M  V30 5947 H 571.11 1.69648 -1.15796 0
M  V30 5948 H 569.34 3.86196 0.19741 0
M  V30 5949 H 571.029 4.05526 -0.174191 0
M  V30 5950 H 571.795 4.05704 -2.65762 0
M  V30 5951 H 567.674 4.36878 -1.4717 0
M  V30 5952 H 571.218 4.99877 -4.86589 0
M  V30 5953 H 567.115 5.30952 -3.67098 0
M  V30 5954 H 567.883 5.91625 -5.65617 0
M  V30 5955 N 570.547 0.616602 1.45037 0
M  V30 5956 C 571.479 -0.135186 2.28801 0
M  V30 5957 C 572.492 -0.82303 1.40464 0
M  V30 5958 O 573.681 -0.686909 1.64754 0
M  V30 5959 C 570.781 -1.21292 3.16451 0
M  V30 5960 C 569.954 -0.61043 4.3312 0
M  V30 5961 C 569.013 -1.58022 5.01912 0
M  V30 5962 O 568.039 -1.10301 5.58411 0
M  V30 5963 N 569.241 -2.91464 5.02025 0
M  V30 5964 H 572.006 0.583612 2.93963 0
M  V30 5965 H 569.567 0.456723 1.55324 0
M  V30 5966 H 571.559 -1.86169 3.59337 0
M  V30 5967 H 570.129 -1.83412 2.53138 0
M  V30 5968 H 569.349 0.216638 3.93604 0
M  V30 5969 H 570.637 -0.188293 5.08451 0
M  V30 5970 H 570.035 -3.32829 4.57429 0
M  V30 5971 H 568.592 -3.51741 5.48745 0
M  V30 5972 N 572.025 -1.5352 0.356285 0
M  V30 5973 C 573.271 -2.01414 -0.236653 0
M  V30 5974 C 573.604 -1.24339 -1.49176 0
M  V30 5975 O 572.879 -0.334496 -1.91602 0
M  V30 5976 C 573.162 -3.56059 -0.537982 0
M  V30 5977 C 573.015 -4.43835 0.730112 0
M  V30 5978 C 574.334 -4.19127 -1.34239 0
M  V30 5979 H 571.453 -0.732135 -0.0845386 0
M  V30 5980 H 574.095 -1.83854 0.479341 0
M  V30 5981 H 572.245 -3.71153 -1.14795 0
M  V30 5982 H 573.917 -4.40555 1.36782 0
M  V30 5983 H 572.16 -4.1218 1.3524 0
M  V30 5984 H 572.831 -5.49958 0.474358 0
M  V30 5985 H 575.307 -4.07809 -0.826498 0
M  V30 5986 H 574.183 -5.27378 -1.52198 0
M  V30 5987 H 574.444 -3.74581 -2.34822 0
M  V30 5988 N 573.503 -0.0852151 -1.57369 0
M  V30 5989 C 574.749 0.581666 -1.94279 0
M  V30 5990 C 575.082 1.68444 -0.966446 0
M  V30 5991 O 574.357 1.945 0.00215277 0
M  V30 5992 C 574.64 1.14609 -3.41375 0
M  V30 5993 C 574.493 0.0490414 -4.49773 0
M  V30 5994 C 575.812 2.04751 -3.8957 0
M  V30 5995 H 572.931 0.209972 -0.706456 0
M  V30 5996 H 575.573 -0.153915 -1.89376 0
M  V30 5997 H 573.723 1.77297 -3.45685 0
M  V30 5998 H 575.395 -0.584721 -4.57579 0
M  V30 5999 H 573.638 -0.618638 -4.29366 0
M  V30 6000 H 574.309 0.484601 -5.49869 0
M  V30 6001 H 576.785 1.51981 -3.87351 0
M  V30 6002 H 575.661 2.41173 -4.93079 0
M  V30 6003 H 575.922 2.96107 -3.28288 0
M  V30 6004 N 574.981 1.5647 0.188427 0
M  V30 6005 C 576.23 1.80207 0.905995 0
M  V30 6006 C 576.543 0.659579 1.84144 0
M  V30 6007 O 577.749 0.781431 2.60011 0
M  V30 6008 C 576.205 3.19255 1.66145 0
M  V30 6009 C 575.813 4.41324 0.770504 0
M  V30 6010 C 577.557 3.52298 2.36826 0
M  V30 6011 C 575.464 5.71394 1.52521 0
M  V30 6012 H 574.394 0.671953 0.342045 0
M  V30 6013 H 577.045 1.82808 0.159164 0
M  V30 6014 H 575.427 3.10922 2.45242 0
M  V30 6015 H 576.601 4.60797 0.0177261 0
M  V30 6016 H 574.916 4.16035 0.174199 0
M  V30 6017 H 577.513 4.46715 2.93854 0
M  V30 6018 H 577.856 2.76359 3.11338 0
M  V30 6019 H 578.389 3.62108 1.6469 0
M  V30 6020 H 575.128 6.50316 0.82275 0
M  V30 6021 H 574.648 5.55928 2.25175 0
M  V30 6022 H 576.327 6.12747 2.07725 0
M  V30 6023 N 576.459 -0.456382 1.50847 0
M  V30 6024 C 577.369 -1.57805 1.73594 0
M  V30 6025 C 578.385 -1.62599 0.619476 0
M  V30 6026 O 579.561 -1.80195 0.899532 0
M  V30 6027 C 576.626 -2.93926 1.8387 0
M  V30 6028 C 575.687 -2.99402 3.07663 0
M  V30 6029 C 574.92 -4.29031 3.1744 0
M  V30 6030 O 575.143 -5.20358 2.33631 0
M  V30 6031 O 574.077 -4.40401 4.10281 0
M  V30 6032 H 577.903 -1.41531 2.68705 0
M  V30 6033 H 575.488 -0.637422 1.3512 0
M  V30 6034 H 577.37 -3.74747 1.92725 0
M  V30 6035 H 576.045 -3.10368 0.91944 0
M  V30 6036 H 574.952 -2.17606 3.043 0
M  V30 6037 H 576.285 -2.87901 3.99216 0
M  V30 6038 N 577.937 -1.40673 -0.710563 0
M  V30 6039 C 579.214 -1.29718 -1.46398 0
M  V30 6040 C 579.594 0.082177 -2.1094 0
M  V30 6041 O 578.942 1.09536 -2.00534 0
M  V30 6042 C 579.152 -2.43967 -2.49562 0
M  V30 6043 C 580.5 -2.84436 -3.15248 0
M  V30 6044 O 581.524 -2.43597 -2.59883 0
M  V30 6045 O 580.383 -3.55008 -4.1549 0
M  V30 6046 H 577.477 -0.509697 -0.651258 0
M  V30 6047 H 580.023 -1.52603 -0.742312 0
M  V30 6048 H 578.795 -3.36076 -2.0042 0
M  V30 6049 H 578.418 -2.22879 -3.29258 0
M  V30 6050 N 579.415 0.9433 -1.26252 0
M  V30 6051 C 580.655 1.70397 -1.1289 0
M  V30 6052 C 581.019 1.89268 0.322713 0
M  V30 6053 O 582.22 2.62503 0.578418 0
M  V30 6054 C 580.491 3.04296 -1.87453 0
M  V30 6055 S 582.05 3.95475 -1.90119 0
M  V30 6056 H 578.868 0.585559 -0.403289 0
M  V30 6057 H 581.47 1.12424 -1.59941 0
M  V30 6058 H 580.174 2.8824 -2.9214 0
M  V30 6059 H 579.705 3.67327 -1.40835 0
M  V30 6060 H 581.72 4.86297 -0.986373 0
M  V30 6061 N 580.893 1.08022 1.14757 0
M  V30 6062 C 581.84 0.706657 2.19716 0
M  V30 6063 C 582.81 -0.30525 1.63271 0
M  V30 6064 O 583.995 -0.19015 1.8985 0
M  V30 6065 C 581.135 0.117914 3.44898 0
M  V30 6066 C 580.248 1.18212 4.15512 0
M  V30 6067 C 579.383 0.557659 5.28265 0
M  V30 6068 C 578.422 1.60418 5.90705 0
M  V30 6069 N 577.559 1.0018 6.94916 0
M  V30 6070 H 582.399 1.60603 2.51019 0
M  V30 6071 H 579.936 0.802664 1.23271 0
M  V30 6072 H 581.894 -0.241112 4.16503 0
M  V30 6073 H 580.524 -0.744788 3.1409 0
M  V30 6074 H 579.576 1.65863 3.42335 0
M  V30 6075 H 580.888 1.97533 4.5802 0
M  V30 6076 H 580.042 0.146654 6.06523 0
M  V30 6077 H 578.781 -0.267249 4.86967 0
M  V30 6078 H 577.786 2.02489 5.11154 0
M  V30 6079 H 579.011 2.43149 6.34078 0
M  V30 6080 H 576.957 0.197917 6.55701 0
M  V30 6081 H 576.874 1.73216 7.35889 0
M  V30 6082 H 578.142 0.616523 7.77058 0
M  V30 6083 N 582.371 -1.3172 0.865308 0
M  V30 6084 C 583.303 -2.27545 0.274906 0
M  V30 6085 C 584.316 -1.52887 -0.559413 0
M  V30 6086 O 585.505 -1.74361 -0.382166 0
M  V30 6087 C 582.605 -3.33006 -0.629286 0
M  V30 6088 C 581.778 -4.37063 0.171553 0
M  V30 6089 C 580.837 -5.22044 -0.660052 0
M  V30 6090 O 579.863 -5.69129 -0.0897527 0
M  V30 6091 N 581.065 -5.45946 -1.97289 0
M  V30 6092 H 583.83 -2.78848 1.09836 0
M  V30 6093 H 581.391 -1.44693 0.726331 0
M  V30 6094 H 583.383 -3.86772 -1.19121 0
M  V30 6095 H 581.953 -2.81782 -1.35342 0
M  V30 6096 H 581.173 -3.83436 0.914919 0
M  V30 6097 H 582.461 -5.03662 0.721235 0
M  V30 6098 H 581.859 -5.0944 -2.45942 0
M  V30 6099 H 580.416 -6.02665 -2.4827 0
M  V30 6100 N 583.85 -0.624285 -1.44708 0
M  V30 6101 C 584.8 0.106466 -2.27751 0
M  V30 6102 C 585.784 0.822703 -1.38277 0
M  V30 6103 O 586.976 0.709939 -1.62138 0
M  V30 6104 C 584.105 1.092 -3.25469 0
M  V30 6105 C 583.191 0.375737 -4.22432 0
M  V30 6106 N 583.582 -0.591881 -5.02325 0
M  V30 6107 C 581.88 0.621093 -4.41654 0
M  V30 6108 C 582.581 -1.01443 -5.72786 0
M  V30 6109 N 581.557 -0.354651 -5.42442 0
M  V30 6110 H 585.359 -0.636464 -2.86926 0
M  V30 6111 H 582.873 -0.44925 -1.56062 0
M  V30 6112 H 584.87 1.63006 -3.83712 0
M  V30 6113 H 583.529 1.8353 -2.67856 0
M  V30 6114 H 584.541 -0.969389 -5.08747 0
M  V30 6115 H 581.218 1.34779 -3.95147 0
M  V30 6116 H 582.608 -1.81345 -6.46965 0
M  V30 6117 N 585.328 1.53329 -0.364422 0
M  V30 6118 C 586.576 2.00842 0.225189 0
M  V30 6119 C 586.897 1.25345 1.49378 0
M  V30 6120 O 586.167 0.366396 1.92443 0
M  V30 6121 H 584.747 0.742009 0.0862027 0
M  V30 6122 H 587.409 1.8863 -0.490389 0
M  V30 6123 H 586.505 3.08795 0.452987 0
M  V30 6124 N 586.806 0.0935595 1.57322 0
M  V30 6125 C 587.769 -0.851426 2.12799 0
M  V30 6126 C 588.769 -1.21187 1.0569 0
M  V30 6127 O 589.959 -1.14156 1.31583 0
M  V30 6128 C 587.091 -2.14779 2.64731 0
M  V30 6129 H 588.284 -0.369733 2.97612 0
M  V30 6130 H 585.837 -0.155417 1.55525 0
M  V30 6131 H 586.572 -2.67437 1.83434 0
M  V30 6132 H 586.357 -1.89907 3.43042 0
M  V30 6133 H 587.847 -2.82383 3.07651 0
M  V30 6134 N 588.284 -1.56567 -0.180126 0
M  V30 6135 C 589.531 -1.81492 -0.898167 0
M  V30 6136 C 589.859 -0.669225 -1.82624 0
M  V30 6137 O 589.114 0.344096 -1.92651 0
M  V30 6138 C 589.413 -3.1252 -1.73395 0
M  V30 6139 C 589.079 -4.40658 -0.955567 0
M  V30 6140 C 587.741 -4.75465 -0.740707 0
M  V30 6141 C 590.093 -5.19593 -0.408948 0
M  V30 6142 C 587.421 -5.86691 0.0320128 0
M  V30 6143 C 589.773 -6.31627 0.350638 0
M  V30 6144 C 588.437 -6.65007 0.576378 0
M  V30 6145 H 587.707 -0.664125 -0.328662 0
M  V30 6146 H 590.354 -1.908 -0.163616 0
M  V30 6147 H 588.659 -2.98515 -2.53763 0
M  V30 6148 H 590.356 -3.29013 -2.29241 0
M  V30 6149 H 586.946 -4.13352 -1.13306 0
M  V30 6150 H 591.13 -4.93104 -0.562307 0
M  V30 6151 H 586.386 -6.11016 0.216735 0
M  V30 6152 H 590.56 -6.92001 0.781497 0
M  V30 6153 H 588.187 -7.51033 1.17703 0
M  V30 6154 N 589.762 0.448376 -1.51087 0
M  V30 6155 C 591.039 1.20926 -1.53741 0
M  V30 6156 C 591.419 2.09025 -0.295222 0
M  V30 6157 O 590.767 2.16851 0.720283 0
M  V30 6158 C 590.977 2.02067 -2.84552 0
M  V30 6159 C 592.325 2.59486 -3.36084 0
M  V30 6160 O 593.349 2.12289 -2.86028 0
M  V30 6161 O 592.208 3.45539 -4.23397 0
M  V30 6162 H 589.302 0.549951 -0.617643 0
M  V30 6163 H 591.848 0.458344 -1.63393 0
M  V30 6164 H 590.62 1.37291 -3.66425 0
M  V30 6165 H 590.243 2.84246 -2.78011 0
M  V30 6166 N 591.24 1.41047 0.703093 0
M  V30 6167 C 592.651 1.35657 1.28274 0
M  V30 6168 C 593.002 0.0360309 1.96167 0
M  V30 6169 O 592.127 -0.865833 1.98324 0
M  V30 6170 C 592.722 2.45707 2.33267 0
M  V30 6171 C 591.281 2.43738 2.86825 0
M  V30 6172 C 590.428 2.25941 1.60767 0
M  V30 6173 H 593.379 1.50672 0.49836 0
M  V30 6174 H 593.4 2.14333 3.14391 0
M  V30 6175 H 592.912 3.41805 1.83824 0
M  V30 6176 H 591.013 1.51375 3.40465 0
M  V30 6177 H 591.126 3.39779 3.37768 0
M  V30 6178 H 589.49 1.73681 1.86298 0
M  V30 6179 H 590.273 3.24054 1.1333 0
M  V30 6180 N 592.718 -0.936591 1.26751 0
M  V30 6181 C 593.946 -1.71758 1.15355 0
M  V30 6182 C 594.361 -1.86549 -0.290683 0
M  V30 6183 O 593.718 -1.37616 -1.19868 0
M  V30 6184 C 593.769 -3.12193 1.82258 0
M  V30 6185 O 593.49 -2.98105 3.21038 0
M  V30 6186 C 594.991 -4.06485 1.76875 0
M  V30 6187 H 592.211 -0.537636 0.401483 0
M  V30 6188 H 594.755 -1.17382 1.67457 0
M  V30 6189 H 592.91 -3.63456 1.34083 0
M  V30 6190 H 593.324 -3.86824 3.54214 0
M  V30 6191 H 594.798 -5.02569 2.28316 0
M  V30 6192 H 595.275 -4.32986 0.736216 0
M  V30 6193 H 595.881 -3.61144 2.24623 0
M  V30 6194 N 594.196 -1.08629 -1.14182 0
M  V30 6195 C 595.424 -0.838889 -1.8913 0
M  V30 6196 C 595.839 0.609153 -1.78703 0
M  V30 6197 O 595.196 1.41876 -1.14794 0
M  V30 6198 C 595.247 -1.25477 -3.39025 0
M  V30 6199 O 594.968 -2.64601 -3.49167 0
M  V30 6200 C 596.469 -1.03856 -4.30963 0
M  V30 6201 H 593.689 -0.302377 -0.599007 0
M  V30 6202 H 596.233 -1.44615 -1.44592 0
M  V30 6203 H 594.388 -0.691571 -3.81177 0
M  V30 6204 H 594.802 -2.81922 -4.42289 0
M  V30 6205 H 596.276 -1.37892 -5.345 0
M  V30 6206 H 596.753 0.0242522 -4.39193 0
M  V30 6207 H 597.359 -1.58731 -3.94569 0
M  V30 6208 N 595.674 1.31259 -0.872281 0
M  V30 6209 C 596.607 2.26544 -0.274394 0
M  V30 6210 C 597.585 1.51213 0.597776 0
M  V30 6211 O 598.769 1.80277 0.550687 0
M  V30 6212 C 595.896 3.33139 0.611256 0
M  V30 6213 C 594.942 4.26077 -0.189876 0
M  V30 6214 S 595.775 5.11971 -1.56989 0
M  V30 6215 C 596.931 6.2208 -0.690427 0
M  V30 6216 H 597.164 2.76908 -1.0821 0
M  V30 6217 H 594.697 1.3906 -0.670939 0
M  V30 6218 H 596.655 3.95024 1.11654 0
M  V30 6219 H 595.316 2.81525 1.39294 0
M  V30 6220 H 594.509 5.01657 0.485433 0
M  V30 6221 H 594.111 3.68701 -0.627339 0
M  V30 6222 H 596.403 6.77429 0.098001 0
M  V30 6223 H 597.346 6.93768 -1.41742 0
M  V30 6224 H 597.754 5.63915 -0.256953 0
M  V30 6225 N 597.152 0.631951 1.44375 0
M  V30 6226 C 598.4 0.136497 2.01639 0
M  V30 6227 C 598.721 -1.24637 1.49969 0
M  V30 6228 O 597.991 -1.82827 0.70363 0
M  V30 6229 H 596.571 0.0474703 0.74549 0
M  V30 6230 H 599.233 0.818837 1.76865 0
M  V30 6231 H 598.329 0.104817 3.11924 0
M  V30 6232 N 598.631 -1.53133 0.372548 0
M  V30 6233 C 599.856 -2.0625 -0.218098 0
M  V30 6234 C 600.281 -1.24375 -1.41111 0
M  V30 6235 O 599.639 -0.264554 -1.79359 0
M  V30 6236 C 599.687 -3.55858 -0.582876 0
M  V30 6237 O 598.791 -3.76667 -1.67917 0
M  V30 6238 H 598.132 -0.663317 -0.030104 0
M  V30 6239 H 600.662 -1.97477 0.535169 0
M  V30 6240 H 600.672 -3.99007 -0.851925 0
M  V30 6241 H 599.347 -4.14892 0.289428 0
M  V30 6242 H 597.924 -3.45413 -1.40513 0
M  V30 6243 N 600.109 -0.101901 -1.5727 0
M  V30 6244 C 601.355 0.561027 -1.94885 0
M  V30 6245 C 601.688 1.6741 -0.984258 0
M  V30 6246 O 600.963 1.94491 -0.0184767 0
M  V30 6247 C 601.246 1.10982 -3.42571 0
M  V30 6248 C 601.099 0.00133418 -4.498 0
M  V30 6249 C 602.418 2.00608 -3.9172 0
M  V30 6250 H 599.537 0.202467 -0.708644 0
M  V30 6251 H 602.179 -0.173992 -1.89202 0
M  V30 6252 H 600.329 1.73621 -3.47546 0
M  V30 6253 H 602.001 -0.63322 -4.56933 0
M  V30 6254 H 600.244 -0.664143 -4.28686 0
M  V30 6255 H 600.915 0.426253 -5.50352 0
M  V30 6256 H 603.391 1.47864 -3.88941 0
M  V30 6257 H 602.267 2.3593 -4.95609 0
M  V30 6258 H 602.528 2.92608 -3.3141 0
M  V30 6259 N 601.587 1.56661 0.17182 0
M  V30 6260 C 602.998 1.71652 0.734329 0
M  V30 6261 C 603.349 0.712335 1.82812 0
M  V30 6262 O 602.474 -0.126401 2.16031 0
M  V30 6263 C 603.069 3.11226 1.3388 0
M  V30 6264 C 601.628 3.27904 1.84813 0
M  V30 6265 C 600.775 2.67603 0.726917 0
M  V30 6266 H 603.726 1.5861 -0.0535665 0
M  V30 6267 H 603.747 3.09849 2.20849 0
M  V30 6268 H 603.259 3.8429 0.54249 0
M  V30 6269 H 601.36 2.59796 2.6709 0
M  V30 6270 H 601.473 4.35637 1.99392 0
M  V30 6271 H 599.837 2.274 1.14723 0
M  V30 6272 H 600.62 3.43252 -0.0575334 0
M  V30 6273 N 603.065 -0.440357 1.51323 0
M  V30 6274 C 604.013 -1.55492 1.72988 0
M  V30 6275 C 605.007 -1.58564 0.596138 0
M  V30 6276 O 606.213 -1.62345 0.777443 0
M  V30 6277 H 602.588 -0.516532 0.546533 0
M  V30 6278 H 604.559 -1.34392 2.66423 0
M  V30 6279 C 603.308 -2.93176 1.86931 0
M  V30 6280 H 602.631 -2.91543 2.73574 0
M  V30 6281 H 604.071 -3.70537 2.06103 0
M  V30 6282 C 602.53 -3.30988 0.628365 0
M  V30 6283 O 603.06 -4.01106 -0.218367 0
M  V30 6284 N 601.266 -2.86719 0.473339 0
M  V30 6285 H 600.813 -2.2983 1.16345 0
M  V30 6286 H 600.771 -3.12381 -0.355727 0
M  V30 6287 N 604.543 -1.41418 -0.695603 0
M  V30 6288 C 605.789 -1.40982 -1.4578 0
M  V30 6289 C 606.122 -0.0187763 -1.94191 0
M  V30 6290 O 605.397 0.95346 -1.69527 0
M  V30 6291 C 605.68 -2.41657 -2.66972 0
M  V30 6292 C 605.533 -3.89869 -2.24327 0
M  V30 6293 C 606.852 -2.39589 -3.69168 0
M  V30 6294 H 603.971 -0.513405 -0.528757 0
M  V30 6295 H 606.613 -1.72693 -0.792275 0
M  V30 6296 H 604.763 -2.14746 -3.23754 0
M  V30 6297 H 606.435 -4.27683 -1.72872 0
M  V30 6298 H 604.678 -4.04737 -1.56111 0
M  V30 6299 H 605.349 -4.55857 -3.11285 0
M  V30 6300 H 607.825 -2.63471 -3.2206 0
M  V30 6301 H 606.701 -3.12044 -4.51575 0
M  V30 6302 H 606.962 -1.41447 -4.18862 0
M  V30 6303 N 606.021 0.929856 -1.27246 0
M  V30 6304 C 607.269 1.674 -1.13233 0
M  V30 6305 C 607.59 1.92311 0.322744 0
M  V30 6306 O 606.86 1.52784 1.22612 0
M  V30 6307 H 605.44 0.620411 -0.416052 0
M  V30 6308 H 608.102 1.11663 -1.59741 0
M  V30 6309 H 607.198 2.64308 -1.65975 0
M  V30 6310 N 607.499 1.09233 1.13605 0
M  V30 6311 C 608.429 0.751738 2.21068 0
M  V30 6312 C 609.41 -0.269688 1.67948 0
M  V30 6313 O 610.595 -0.13819 1.93708 0
M  V30 6314 C 607.725 0.16935 3.46887 0
M  V30 6315 C 606.679 1.12007 4.13084 0
M  V30 6316 C 606.005 0.399483 5.33206 0
M  V30 6317 C 607.305 2.46168 4.6065 0
M  V30 6318 H 608.999 1.65024 2.49815 0
M  V30 6319 H 606.545 0.794905 1.20072 0
M  V30 6320 H 608.498 -0.0809824 4.21322 0
M  V30 6321 H 607.222 -0.764335 3.1753 0
M  V30 6322 H 605.881 1.35564 3.40614 0
M  V30 6323 H 605.529 -0.538277 5.00112 0
M  V30 6324 H 605.229 1.03337 5.78442 0
M  V30 6325 H 606.753 0.157403 6.10397 0
M  V30 6326 H 608.167 2.26829 5.26518 0
M  V30 6327 H 606.564 3.05326 5.1662 0
M  V30 6328 H 607.634 3.07076 3.75276 0
M  V30 6329 N 608.977 -1.30795 0.87923 0
M  V30 6330 C 609.91 -2.26396 0.286404 0
M  V30 6331 C 610.888 -1.51528 -0.589748 0
M  V30 6332 O 612.072 -1.80566 -0.541119 0
M  V30 6333 C 609.199 -3.33458 -0.593581 0
M  V30 6334 C 608.245 -4.2597 0.21247 0
M  V30 6335 S 609.078 -5.11132 1.59702 0
M  V30 6336 C 610.234 -6.21705 0.723408 0
M  V30 6337 H 610.467 -2.7633 1.09677 0
M  V30 6338 H 608 -1.38703 0.678305 0
M  V30 6339 H 609.958 -3.9561 -1.09557 0
M  V30 6340 H 608.619 -2.82259 -1.37799 0
M  V30 6341 H 607.812 -5.01907 -0.458822 0
M  V30 6342 H 607.414 -3.68363 0.646883 0
M  V30 6343 H 609.706 -6.77472 -0.0620739 0
M  V30 6344 H 610.649 -6.93007 1.4542 0
M  V30 6345 H 611.057 -5.63771 0.286855 0
M  V30 6346 N 610.455 -0.639598 -1.44038 0
M  V30 6347 C 611.418 0.0506628 -2.29144 0
M  V30 6348 C 612.418 0.764001 -1.41491 0
M  V30 6349 O 613.608 0.607309 -1.63271 0
M  V30 6350 C 610.74 1.0824 -3.2326 0
M  V30 6351 H 611.933 -0.697987 -2.91664 0
M  V30 6352 H 609.486 -0.400146 -1.51091 0
M  V30 6353 H 610.221 1.86075 -2.65606 0
M  V30 6354 H 610.006 0.574725 -3.87865 0
M  V30 6355 H 611.496 1.56487 -3.87171 0
M  V30 6356 N 611.933 1.52934 -0.380664 0
M  V30 6357 C 612.865 2.23822 0.493581 0
M  V30 6358 C 613.878 1.25761 1.03383 0
M  V30 6359 O 615.067 1.5189 0.937633 0
M  V30 6360 C 612.167 2.9342 1.69582 0
M  V30 6361 C 611.34 4.18115 1.28445 0
M  V30 6362 C 610.399 4.70788 2.35042 0
M  V30 6363 O 609.425 5.34093 1.96807 0
M  V30 6364 N 610.627 4.49899 3.66839 0
M  V30 6365 H 613.392 2.99484 -0.11371 0
M  V30 6366 H 610.953 1.60577 -0.206587 0
M  V30 6367 H 612.945 3.2556 2.40401 0
M  V30 6368 H 611.515 2.21119 2.20965 0
M  V30 6369 H 610.735 3.92109 0.405503 0
M  V30 6370 H 612.023 4.99152 0.986132 0
M  V30 6371 H 611.421 3.99349 4.0067 0
M  V30 6372 H 609.978 4.86551 4.33718 0
M  V30 6373 N 613.412 0.11024 1.57214 0
M  V30 6374 C 614.359 -0.843195 2.14846 0
M  V30 6375 C 615.329 -1.26954 1.07107 0
M  V30 6376 O 616.514 -1.34861 1.34971 0
M  V30 6377 C 613.654 -2.09123 2.74521 0
M  V30 6378 C 612.767 -1.71404 3.96541 0
M  V30 6379 C 611.902 -2.91107 4.44331 0
M  V30 6380 C 610.941 -2.49586 5.58903 0
M  V30 6381 N 610.078 -3.62175 6.01477 0
M  V30 6382 H 614.918 -0.344886 2.95998 0
M  V30 6383 H 612.455 -0.15855 1.46243 0
M  V30 6384 H 614.413 -2.82234 3.07246 0
M  V30 6385 H 613.043 -2.56427 1.96074 0
M  V30 6386 H 612.095 -0.88201 3.70033 0
M  V30 6387 H 613.407 -1.36884 4.7965 0
M  V30 6388 H 612.561 -3.72454 4.78919 0
M  V30 6389 H 611.3 -3.28848 3.60153 0
M  V30 6390 H 610.305 -1.6667 5.23929 0
M  V30 6391 H 611.53 -2.12973 6.4484 0
M  V30 6392 H 609.476 -3.99605 5.20242 0
M  V30 6393 H 609.393 -3.3155 6.79419 0
M  V30 6394 H 610.661 -4.43987 6.407 0
M  V30 6395 N 614.89 -1.56749 -0.16351 0
M  V30 6396 C 615.853 -1.96121 -1.18613 0
M  V30 6397 C 616.853 -0.845765 -1.36761 0
M  V30 6398 O 618.043 -1.11268 -1.34033 0
M  V30 6399 C 615.175 -2.26282 -2.54969 0
M  V30 6400 H 616.368 -2.87639 -0.848764 0
M  V30 6401 H 613.921 -1.50928 -0.406251 0
M  V30 6402 H 614.656 -1.37504 -2.93706 0
M  V30 6403 H 614.441 -3.07595 -2.43162 0
M  V30 6404 H 615.931 -2.57638 -3.28653 0
M  V30 6405 N 616.368 0.432326 -1.51554 0
M  V30 6406 C 617.278 1.55023 -1.76082 0
M  V30 6407 C 618.294 1.61593 -0.645265 0
M  V30 6408 O 619.47 1.78742 -0.928086 0
M  V30 6409 C 616.535 2.90964 -1.88523 0
M  V30 6410 C 615.596 2.9447 -3.12388 0
M  V30 6411 C 614.829 4.23926 -3.24225 0
M  V30 6412 O 615.052 5.16576 -2.4188 0
M  V30 6413 O 613.986 4.33818 -4.17235 0
M  V30 6414 H 617.812 1.37238 -2.70923 0
M  V30 6415 H 615.397 0.615845 -1.36117 0
M  V30 6416 H 617.279 3.71633 -1.98662 0
M  V30 6417 H 615.954 3.08865 -0.9687 0
M  V30 6418 H 614.861 2.12737 -3.07723 0
M  V30 6419 H 616.194 2.81514 -4.03746 0
M  V30 6420 N 617.846 1.41785 0.688094 0
M  V30 6421 C 618.756 1.46596 1.83158 0
M  V30 6422 C 619.772 0.355862 1.70322 0
M  V30 6423 O 620.948 0.604737 1.92106 0
M  V30 6424 C 618.013 1.35322 3.192 0
M  V30 6425 C 617.074 2.56711 3.4409 0
M  V30 6426 C 616.307 2.45965 4.73642 0
M  V30 6427 O 616.53 1.48827 5.50642 0
M  V30 6428 O 615.464 3.35859 4.99482 0
M  V30 6429 H 619.29 2.43083 1.82056 0
M  V30 6430 H 616.875 1.23404 0.842126 0
M  V30 6431 H 618.757 1.31347 4.00407 0
M  V30 6432 H 617.432 0.419536 3.2097 0
M  V30 6433 H 616.339 2.66262 2.62784 0
M  V30 6434 H 617.672 3.48933 3.47141 0
M  V30 6435 N 619.324 -0.923095 1.27737 0
M  V30 6436 C 620.554 -1.70277 1.17001 0
M  V30 6437 C 620.962 -1.87188 -0.275199 0
M  V30 6438 O 620.305 -1.39195 -1.19877 0
M  V30 6439 C 620.367 -3.11976 1.78637 0
M  V30 6440 C 620.031 -3.18386 3.27841 0
M  V30 6441 C 621.028 -3.00287 4.2441 0
M  V30 6442 C 618.713 -3.41198 3.68632 0
M  V30 6443 C 620.707 -3.04896 5.59747 0
M  V30 6444 C 618.394 -3.4544 5.04097 0
M  V30 6445 C 619.392 -3.27309 5.99465 0
M  V30 6446 O 619.08 -3.31295 7.32461 0
M  V30 6447 H 618.812 -0.539366 0.407505 0
M  V30 6448 H 621.366 -1.16446 1.69202 0
M  V30 6449 H 619.596 -3.67308 1.20919 0
M  V30 6450 H 621.285 -3.7193 1.6255 0
M  V30 6451 H 622.051 -2.825 3.94232 0
M  V30 6452 H 617.93 -3.54359 2.94873 0
M  V30 6453 H 621.474 -2.90662 6.34162 0
M  V30 6454 H 617.371 -3.62753 5.33929 0
M  V30 6455 H 618.139 -3.47719 7.40968 0
M  V30 6456 N 620.802 -1.09834 -1.13024 0
M  V30 6457 C 622.05 -0.835297 -1.8403 0
M  V30 6458 C 622.371 0.640944 -1.84165 0
M  V30 6459 O 621.641 1.46517 -1.30037 0
M  V30 6460 H 620.221 -0.306018 -0.681441 0
M  V30 6461 H 622.883 -1.38734 -1.36891 0
M  V30 6462 H 621.979 -1.19258 -2.88416 0
M  V30 6463 N 622.28 1.30327 -0.886154 0
M  V30 6464 C 623.505 2.0079 -0.519425 0
M  V30 6465 C 623.93 1.65979 0.885013 0
M  V30 6466 O 623.288 0.877043 1.58675 0
M  V30 6467 C 623.336 3.53686 -0.702758 0
M  V30 6468 O 622.44 4.11637 0.250828 0
M  V30 6469 H 621.781 0.63171 -0.204544 0
M  V30 6470 H 624.311 1.66145 -1.19402 0
M  V30 6471 H 624.321 4.03531 -0.602207 0
M  V30 6472 H 622.996 3.78361 -1.72673 0
M  V30 6473 H 621.573 3.72755 0.103873 0
M  V30 6474 N 623.758 0.647228 1.43697 0
M  V30 6475 C 624.708 -0.0702191 2.27892 0
M  V30 6476 C 625.692 -0.800601 1.39568 0
M  V30 6477 O 626.884 -0.684055 1.63247 0
M  V30 6478 C 624.013 -1.04008 3.27165 0
M  V30 6479 C 623.099 -0.308484 4.22977 0
M  V30 6480 N 623.49 0.671721 5.0132 0
M  V30 6481 C 621.788 -0.550751 4.42586 0
M  V30 6482 C 622.489 1.10543 5.711 0
M  V30 6483 N 621.465 0.440903 5.41809 0
M  V30 6484 H 625.267 0.682031 2.85877 0
M  V30 6485 H 622.781 0.474022 1.55328 0
M  V30 6486 H 624.778 -1.56881 3.86256 0
M  V30 6487 H 623.438 -1.79246 2.70742 0
M  V30 6488 H 624.449 1.0502 5.0714 0
M  V30 6489 H 621.126 -1.28476 3.97241 0
M  V30 6490 H 622.516 1.91614 6.43998 0
M  V30 6491 N 625.236 -1.5273 0.388769 0
M  V30 6492 C 626.513 -1.93981 -0.251133 0
M  V30 6493 C 626.893 -1.32418 -1.64404 0
M  V30 6494 O 626.241 -0.492074 -2.23139 0
M  V30 6495 C 626.451 -3.47891 -0.27802 0
M  V30 6496 C 627.799 -4.21559 -0.507229 0
M  V30 6497 O 628.823 -3.54394 -0.358252 0
M  V30 6498 O 627.682 -5.40626 -0.799094 0
M  V30 6499 H 624.776 -0.812157 -0.15598 0
M  V30 6500 H 627.322 -1.63809 0.443237 0
M  V30 6501 H 626.094 -3.8503 0.697669 0
M  V30 6502 H 625.717 -3.84364 -1.01733 0
M  V30 6503 N 626.714 -0.118576 -1.57153 0
M  V30 6504 C 627.661 0.831789 -2.1529 0
M  V30 6505 C 628.631 1.26385 -1.07778 0
M  V30 6506 O 629.816 1.34144 -1.35684 0
M  V30 6507 C 626.956 2.07664 -2.75626 0
M  V30 6508 C 626.069 1.69298 -3.97444 0
M  V30 6509 C 625.204 2.88747 -4.45868 0
M  V30 6510 C 624.243 2.46619 -5.60219 0
M  V30 6511 N 623.38 3.5898 -6.03389 0
M  V30 6512 H 628.22 0.329183 -2.96176 0
M  V30 6513 H 625.757 0.150792 -1.46325 0
M  V30 6514 H 627.715 2.80601 -3.08738 0
M  V30 6515 H 626.345 2.55384 -1.97431 0
M  V30 6516 H 625.397 0.862374 -3.70496 0
M  V30 6517 H 626.709 1.34338 -4.80369 0
M  V30 6518 H 625.863 3.69909 -4.80887 0
M  V30 6519 H 624.602 3.26933 -3.61892 0
M  V30 6520 H 623.607 1.63889 -5.24805 0
M  V30 6521 H 624.832 2.0955 -6.45961 0
M  V30 6522 H 622.778 3.9684 -5.22354 0
M  V30 6523 H 622.695 3.27942 -6.81168 0
M  V30 6524 H 623.963 4.40583 -6.43045 0
M  V30 6525 N 628.193 1.56834 0.155195 0
M  V30 6526 C 629.421 1.87049 0.884326 0
M  V30 6527 C 629.836 0.705839 1.7511 0
M  V30 6528 O 629.193 -0.324641 1.79589 0
M  V30 6529 C 629.244 3.1644 1.74781 0
M  V30 6530 O 628.965 4.28417 0.915978 0
M  V30 6531 C 630.466 3.60113 2.58522 0
M  V30 6532 H 627.686 0.620196 0.25612 0
M  V30 6533 H 630.23 2.03946 0.150445 0
M  V30 6534 H 628.385 3.01321 2.43484 0
M  V30 6535 H 628.799 5.02353 1.50803 0
M  V30 6536 H 630.273 4.53508 3.14698 0
M  V30 6537 H 630.75 2.85005 3.34169 0
M  V30 6538 H 631.356 3.77898 1.95124 0
M  V30 6539 N 629.671 -0.424282 1.51781 0
M  V30 6540 C 630.918 -1.1726 1.65095 0
M  V30 6541 C 631.246 -1.90881 0.373477 0
M  V30 6542 O 630.501 -1.84835 -0.642997 0
M  V30 6543 C 630.8 -2.20418 2.81337 0
M  V30 6544 C 630.466 -1.63715 4.20129 0
M  V30 6545 C 629.128 -1.47975 4.57883 0
M  V30 6546 C 631.48 -1.22157 5.06682 0
M  V30 6547 C 628.808 -0.891703 5.79884 0
M  V30 6548 C 631.16 -0.647767 6.29275 0
M  V30 6549 C 629.824 -0.477371 6.65791 0
M  V30 6550 H 629.094 -0.429085 0.604125 0
M  V30 6551 H 631.741 -0.461852 1.85847 0
M  V30 6552 H 630.046 -2.97581 2.54859 0
M  V30 6553 H 631.743 -2.78163 2.88836 0
M  V30 6554 H 628.333 -1.76946 3.90369 0
M  V30 6555 H 632.517 -1.33133 4.7811 0
M  V30 6556 H 627.773 -0.747563 6.06813 0
M  V30 6557 H 631.947 -0.317291 6.95677 0
M  V30 6558 H 629.574 -0.0195936 7.60197 0
M  V30 6559 N 631.149 -1.42148 -0.680565 0
M  V30 6560 C 632.081 -1.41119 -1.80605 0
M  V30 6561 C 633.094 -0.311099 -1.598 0
M  V30 6562 O 634.283 -0.573813 -1.69026 0
M  V30 6563 C 631.383 -1.18204 -3.17618 0
M  V30 6564 C 630.556 -2.40537 -3.65322 0
M  V30 6565 C 629.615 -2.13254 -4.8105 0
M  V30 6566 O 628.641 -2.8641 -4.91892 0
M  V30 6567 N 629.843 -1.13208 -5.69354 0
M  V30 6568 H 632.608 -2.38128 -1.81975 0
M  V30 6569 H 630.169 -1.36953 -0.863446 0
M  V30 6570 H 632.161 -0.97878 -3.92686 0
M  V30 6571 H 630.731 -0.29738 -3.11182 0
M  V30 6572 H 629.951 -2.76468 -2.80996 0
M  V30 6573 H 631.239 -3.22012 -3.93936 0
M  V30 6574 H 630.637 -0.526893 -5.63241 0
M  V30 6575 H 629.194 -0.988699 -6.44258 0
M  V30 6576 N 632.627 0.916307 -1.28225 0
M  V30 6577 C 633.876 1.65975 -1.14608 0
M  V30 6578 C 634.189 1.93204 0.305191 0
M  V30 6579 O 635.395 2.65611 0.562432 0
M  V30 6580 C 633.851 2.98989 -2.00333 0
M  V30 6581 C 633.459 2.79417 -3.50186 0
M  V30 6582 C 635.203 3.76856 -1.95397 0
M  V30 6583 C 633.11 4.08056 -4.28071 0
M  V30 6584 H 632.04 0.622587 -0.425324 0
M  V30 6585 H 634.691 1.01705 -1.52736 0
M  V30 6586 H 633.073 3.6438 -1.5506 0
M  V30 6587 H 634.247 2.22723 -4.034 0
M  V30 6588 H 632.562 2.14966 -3.56621 0
M  V30 6589 H 635.159 4.72203 -2.50856 0
M  V30 6590 H 635.502 4.05776 -0.930137 0
M  V30 6591 H 636.035 3.1828 -2.38626 0
M  V30 6592 H 632.774 3.8431 -5.31024 0
M  V30 6593 H 632.294 4.64371 -3.79631 0
M  V30 6594 H 633.973 4.76333 -4.37854 0
M  V30 6595 N 634.105 1.10431 1.1244 0
M  V30 6596 C 635.516 0.864439 1.65482 0
M  V30 6597 C 635.867 -0.60527 1.8663 0
M  V30 6598 O 634.992 -1.46492 1.59276 0
M  V30 6599 C 635.587 1.56267 3.0061 0
M  V30 6600 C 634.146 1.3695 3.50602 0
M  V30 6601 C 633.293 1.61209 2.25626 0
M  V30 6602 H 636.244 1.26203 0.962209 0
M  V30 6603 H 636.265 1.00166 3.67079 0
M  V30 6604 H 635.777 2.63231 2.85186 0
M  V30 6605 H 633.878 0.321481 3.71211 0
M  V30 6606 H 633.991 2.11143 4.30064 0
M  V30 6607 H 632.355 1.03482 2.32731 0
M  V30 6608 H 633.138 2.69425 2.12756 0
M  V30 6609 N 635.583 -1.29855 0.893053 0
M  V30 6610 C 636.546 -2.26183 0.370687 0
M  V30 6611 C 637.546 -1.53108 -0.491385 0
M  V30 6612 O 638.736 -1.71643 -0.297386 0
M  V30 6613 C 635.868 -3.37633 -0.470827 0
M  V30 6614 H 637.061 -2.73903 1.22135 0
M  V30 6615 H 634.614 -1.41183 0.67061 0
M  V30 6616 H 635.349 -2.95241 -1.34175 0
M  V30 6617 H 635.134 -3.91825 0.146784 0
M  V30 6618 H 636.624 -4.09313 -0.827825 0
M  V30 6619 N 637.061 -0.65484 -1.43351 0
M  V30 6620 C 638.338 -0.0987371 -1.95351 0
M  V30 6621 C 638.718 1.38161 -1.59608 0
M  V30 6622 O 638.066 2.10791 -0.882021 0
M  V30 6623 C 638.276 -0.346684 -3.47274 0
M  V30 6624 C 639.624 -0.25249 -4.23849 0
M  V30 6625 O 640.648 -0.279332 -3.55103 0
M  V30 6626 O 639.507 -0.177584 -5.46211 0
M  V30 6627 H 636.601 0.0086829 -0.826954 0
M  V30 6628 H 639.147 -0.728189 -1.53282 0
M  V30 6629 H 637.919 -1.37296 -3.66423 0
M  V30 6630 H 637.542 0.315757 -3.96344 0
M  V30 6631 N 638.539 1.52521 -0.396863 0
M  V30 6632 C 639.787 2.01274 0.182536 0
M  V30 6633 C 640.108 1.28485 1.46685 0
M  V30 6634 O 639.378 0.407134 1.91623 0
M  V30 6635 H 637.958 0.743671 0.0704442 0
M  V30 6636 H 640.62 1.87547 -0.530289 0
M  V30 6637 H 639.716 3.09687 0.387385 0
M  V30 6638 N 640.017 0.126909 1.57088 0
M  V30 6639 C 641.263 -0.529952 1.95753 0
M  V30 6640 C 641.596 -1.65823 1.01077 0
M  V30 6641 O 640.871 -1.94437 0.0494162 0
M  V30 6642 C 641.154 -1.05517 3.44294 0
M  V30 6643 C 641.007 0.0702253 4.49745 0
M  V30 6644 C 642.326 -1.9435 3.94862 0
M  V30 6645 H 639.445 -0.191168 0.711775 0
M  V30 6646 H 642.087 0.204071 1.88901 0
M  V30 6647 H 640.237 -1.68069 3.50264 0
M  V30 6648 H 641.909 0.705834 4.55868 0
M  V30 6649 H 640.152 0.732259 4.27575 0
M  V30 6650 H 640.823 -0.338642 5.5096 0
M  V30 6651 H 643.299 -1.41658 3.91244 0
M  V30 6652 H 642.175 -2.28015 4.993 0
M  V30 6653 H 642.436 -2.87299 3.36024 0
M  V30 6654 N 641.495 -1.56914 -0.146875 0
M  V30 6655 C 642.741 -1.83628 -0.860741 0
M  V30 6656 C 643.074 -0.708528 -1.80813 0
M  V30 6657 O 642.349 0.287838 -1.92358 0
M  V30 6658 C 642.632 -3.20836 -1.63511 0
M  V30 6659 C 642.485 -4.44174 -0.709199 0
M  V30 6660 C 643.804 -3.55268 -2.59756 0
M  V30 6661 H 640.923 -0.667949 -0.311468 0
M  V30 6662 H 643.565 -1.89582 -0.125936 0
M  V30 6663 H 641.715 -3.15891 -2.26153 0
M  V30 6664 H 643.387 -4.61205 -0.0937781 0
M  V30 6665 H 641.63 -4.33796 -0.0187856 0
M  V30 6666 H 642.301 -5.36785 -1.28707 0
M  V30 6667 H 644.777 -3.60824 -2.07232 0
M  V30 6668 H 643.653 -4.52303 -3.10987 0
M  V30 6669 H 643.914 -2.81231 -3.41118 0
M  V30 6670 N 642.974 0.416227 -1.52004 0
M  V30 6671 C 644.39 0.754319 -1.40649 0
M  V30 6672 C 644.59 1.95059 -0.505392 0
M  V30 6673 O 643.646 2.5248 0.0315057 0
M  V30 6674 C 644.959 1.0149 -2.83055 0
M  V30 6675 C 646.507 1.11805 -2.9235 0
M  V30 6676 C 646.982 1.41144 -4.35709 0
M  V30 6677 N 648.473 1.48024 -4.38911 0
M  V30 6678 C 649.208 1.72338 -5.46889 0
M  V30 6679 N 648.704 1.94303 -6.64995 0
M  V30 6680 N 650.497 1.74294 -5.34395 0
M  V30 6681 H 642.648 -0.371324 -2.09129 0
M  V30 6682 H 644.911 -0.103811 -0.942299 0
M  V30 6683 H 644.617 0.208345 -3.51082 0
M  V30 6684 H 644.491 1.93697 -3.23668 0
M  V30 6685 H 646.878 1.91521 -2.24508 0
M  V30 6686 H 646.959 0.17451 -2.55204 0
M  V30 6687 H 646.603 0.619484 -5.04108 0
M  V30 6688 H 646.533 2.36739 -4.70385 0
M  V30 6689 H 649.024 1.32868 -3.53772 0
M  V30 6690 H 649.337 2.12286 -7.43071 0
M  V30 6691 H 647.682 1.91582 -6.68073 0
M  V30 6692 H 650.873 1.56667 -4.41104 0
M  V30 6693 H 651.046 1.92904 -6.18621 0
M  V30 6694 N 644.452 1.42507 0.673017 0
M  V30 6695 C 645.698 1.43284 1.43519 0
M  V30 6696 C 646.031 0.049668 1.94136 0
M  V30 6697 O 645.306 -0.926369 1.71022 0
M  V30 6698 C 645.589 2.45874 2.63093 0
M  V30 6699 C 645.442 3.93388 2.18096 0
M  V30 6700 C 646.761 2.45431 3.6531 0
M  V30 6701 H 643.88 0.521752 0.520522 0
M  V30 6702 H 646.522 1.73932 0.764701 0
M  V30 6703 H 644.672 2.19869 3.20296 0
M  V30 6704 H 646.344 4.30379 1.66046 0
M  V30 6705 H 644.587 4.07169 1.49652 0
M  V30 6706 H 645.258 4.60752 3.03993 0
M  V30 6707 H 647.734 2.68561 3.17827 0
M  V30 6708 H 646.61 3.19189 4.46553 0
M  V30 6709 H 646.871 1.48092 4.16559 0
M  V30 6710 N 645.93 -0.909495 1.28709 0
M  V30 6711 C 647.158 -1.69272 1.18973 0
M  V30 6712 C 647.573 -1.87123 -0.251048 0
M  V30 6713 O 646.93 -1.40127 -1.16922 0
M  V30 6714 C 646.981 -3.08257 1.88839 0
M  V30 6715 O 646.702 -2.91228 3.27289 0
M  V30 6716 C 648.203 -4.02642 1.85457 0
M  V30 6717 H 645.423 -0.528999 0.412797 0
M  V30 6718 H 647.967 -1.13803 1.69909 0
M  V30 6719 H 646.122 -3.6053 1.41762 0
M  V30 6720 H 646.536 -3.79223 3.6234 0
M  V30 6721 H 648.01 -4.97613 2.38925 0
M  V30 6722 H 648.487 -4.31327 0.827893 0
M  V30 6723 H 649.093 -3.56298 2.32233 0
M  V30 6724 N 647.408 -1.11026 -1.11852 0
M  V30 6725 C 648.685 -0.768347 -1.79877 0
M  V30 6726 C 649.065 0.744261 -1.97545 0
M  V30 6727 O 648.413 1.67271 -1.55669 0
M  V30 6728 C 648.623 -1.52648 -3.13846 0
M  V30 6729 C 649.971 -1.70297 -3.88953 0
M  V30 6730 O 650.995 -1.49037 -3.23522 0
M  V30 6731 O 649.854 -2.05593 -5.06353 0
M  V30 6732 H 646.948 -0.277891 -0.778913 0
M  V30 6733 H 649.494 -1.21343 -1.18633 0
M  V30 6734 H 648.266 -2.55564 -2.96315 0
M  V30 6735 H 647.889 -1.07466 -3.82801 0
M  V30 6736 N 648.886 1.2938 -0.899927 0
M  V30 6737 C 649.796 2.31462 -0.382437 0
M  V30 6738 C 650.812 1.65956 0.522929 0
M  V30 6739 O 651.988 1.97131 0.412454 0
M  V30 6740 C 649.053 3.44595 0.381472 0
M  V30 6741 C 648.114 4.25692 -0.555444 0
M  V30 6742 C 647.347 5.33422 0.172102 0
M  V30 6743 O 647.57 5.53053 1.396 0
M  V30 6744 O 646.504 5.99939 -0.485491 0
M  V30 6745 H 650.33 2.77706 -1.22934 0
M  V30 6746 H 647.915 1.33821 -0.664259 0
M  V30 6747 H 649.797 4.13474 0.813442 0
M  V30 6748 H 648.472 3.00458 1.20443 0
M  V30 6749 H 647.379 3.59453 -1.03653 0
M  V30 6750 H 648.712 4.73471 -1.34483 0
M  V30 6751 N 650.364 0.662433 1.43002 0
M  V30 6752 C 651.589 0.186003 2.06564 0
M  V30 6753 C 652.014 -1.14314 1.49379 0
M  V30 6754 O 651.372 -1.70824 0.607346 0
M  V30 6755 C 651.42 0.118269 3.60406 0
M  V30 6756 O 650.524 -0.916859 4.02079 0
M  V30 6757 H 649.865 0.0990981 0.656563 0
M  V30 6758 H 652.395 0.907958 1.8335 0
M  V30 6759 H 652.405 -0.0619981 4.07953 0
M  V30 6760 H 651.08 1.08849 4.01403 0
M  V30 6761 H 649.657 -0.708635 3.66105 0
M  V30 6762 N 651.842 -1.52309 0.404946 0
M  V30 6763 C 653.09 -2.01368 -0.17186 0
M  V30 6764 C 653.411 -1.29261 -1.46002 0
M  V30 6765 O 652.681 -0.41729 -1.91404 0
M  V30 6766 H 651.261 -0.744034 -0.0664993 0
M  V30 6767 H 653.923 -1.87263 0.540228 0
M  V30 6768 H 653.019 -3.09888 -0.370957 0
M  V30 6769 N 653.32 -0.135238 -1.57019 0
M  V30 6770 C 654.267 0.808908 -2.1616 0
M  V30 6771 C 655.237 1.25234 -1.09113 0
M  V30 6772 O 656.422 1.32697 -1.37099 0
M  V30 6773 C 653.562 2.04729 -2.77813 0
M  V30 6774 C 652.675 1.65074 -3.99218 0
M  V30 6775 C 651.81 2.84002 -4.48906 0
M  V30 6776 C 650.849 2.40663 -5.62803 0
M  V30 6777 N 649.986 3.5256 -6.07162 0
M  V30 6778 H 654.826 0.297751 -2.96509 0
M  V30 6779 H 652.363 0.135264 -1.46477 0
M  V30 6780 H 654.321 2.7731 -3.11697 0
M  V30 6781 H 652.951 2.53275 -2.00128 0
M  V30 6782 H 652.003 0.823029 -3.7139 0
M  V30 6783 H 653.315 1.29236 -4.81767 0
M  V30 6784 H 652.469 3.64788 -4.84783 0
M  V30 6785 H 651.208 3.23076 -3.65339 0
M  V30 6786 H 650.213 1.58314 -5.26514 0
M  V30 6787 H 651.438 2.02687 -6.48147 0
M  V30 6788 H 649.384 3.91278 -5.26534 0
M  V30 6789 H 649.301 3.20699 -6.84608 0
M  V30 6790 H 650.569 4.33738 -6.47682 0
M  V30 6791 N 654.798 1.5699 0.138552 0
M  V30 6792 C 655.728 2.01933 1.17241 0
M  V30 6793 C 656.709 0.90033 1.44319 0
M  V30 6794 O 657.894 1.16872 1.55095 0
M  V30 6795 C 655.024 2.40711 2.50351 0
M  V30 6796 C 653.978 3.55874 2.37776 0
M  V30 6797 C 653.304 3.80491 3.75674 0
M  V30 6798 C 654.604 4.8826 1.85472 0
M  V30 6799 H 656.298 2.88551 0.798672 0
M  V30 6800 H 653.844 1.3882 0.382743 0
M  V30 6801 H 655.797 2.70754 3.22909 0
M  V30 6802 H 654.521 1.5104 2.89576 0
M  V30 6803 H 653.18 3.2601 1.67669 0
M  V30 6804 H 652.828 2.88057 4.12349 0
M  V30 6805 H 652.528 4.57998 3.68119 0
M  V30 6806 H 654.052 4.12967 4.49767 0
M  V30 6807 H 655.466 5.16965 2.4783 0
M  V30 6808 H 653.863 5.69631 1.88787 0
M  V30 6809 H 654.933 4.78071 0.810935 0
M  V30 6810 N 656.276 -0.40816 1.52223 0
M  V30 6811 C 657.206 -1.5042 1.78595 0
M  V30 6812 C 658.187 -1.57723 0.636974 0
M  V30 6813 O 659.372 -1.72982 0.882664 0
M  V30 6814 C 656.502 -2.88232 1.93751 0
M  V30 6815 C 655.456 -2.95779 3.09352 0
M  V30 6816 C 654.782 -4.35855 3.09732 0
M  V30 6817 C 656.082 -2.67175 4.48793 0
M  V30 6818 H 657.776 -1.28601 2.70374 0
M  V30 6819 H 655.322 -0.617221 1.30101 0
M  V30 6820 H 657.275 -3.64895 2.10783 0
M  V30 6821 H 655.999 -3.11347 0.986443 0
M  V30 6822 H 654.658 -2.21561 2.92072 0
M  V30 6823 H 654.306 -4.55981 2.12346 0
M  V30 6824 H 654.006 -4.41829 3.87377 0
M  V30 6825 H 655.53 -5.14451 3.28895 0
M  V30 6826 H 656.944 -3.3356 4.66273 0
M  V30 6827 H 655.341 -2.84523 5.28362 0
M  V30 6828 H 656.411 -1.62609 4.56822 0
M  V30 6829 N 657.755 -1.42862 -0.66545 0
M  V30 6830 C 658.685 -1.49867 -1.79059 0
M  V30 6831 C 659.666 -0.354394 -1.66367 0
M  V30 6832 O 660.851 -0.569969 -1.85647 0
M  V30 6833 C 657.981 -1.40943 -3.17415 0
M  V30 6834 C 656.935 -2.53495 -3.44854 0
M  V30 6835 C 656.261 -2.29626 -4.82883 0
M  V30 6836 C 657.561 -3.95781 -3.40815 0
M  V30 6837 H 659.255 -2.44037 -1.73453 0
M  V30 6838 H 656.801 -1.17456 -0.833071 0
M  V30 6839 H 658.754 -1.4445 -3.95869 0
M  V30 6840 H 657.478 -0.432716 -3.23721 0
M  V30 6841 H 656.137 -2.4932 -2.68766 0
M  V30 6842 H 655.785 -1.30226 -4.8585 0
M  V30 6843 H 655.485 -3.05065 -5.02204 0
M  V30 6844 H 657.009 -2.34897 -5.63609 0
M  V30 6845 H 658.423 -4.01508 -4.09224 0
M  V30 6846 H 656.82 -4.71148 -3.71672 0
M  V30 6847 H 657.89 -4.21786 -2.39216 0
M  V30 6848 N 659.233 0.902656 -1.29189 0
M  V30 6849 C 660.143 2.03946 -1.15944 0
M  V30 6850 C 661.159 1.738 -0.0833803 0
M  V30 6851 O 662.335 1.9923 -0.29487 0
M  V30 6852 C 659.4 3.36519 -0.834006 0
M  V30 6853 C 658.461 3.80203 -1.9936 0
M  V30 6854 C 657.694 5.06449 -1.68359 0
M  V30 6855 O 657.917 5.67202 -0.603141 0
M  V30 6856 O 656.851 5.46114 -2.53067 0
M  V30 6857 H 660.677 2.18043 -2.11403 0
M  V30 6858 H 658.262 1.02584 -1.08613 0
M  V30 6859 H 660.144 4.16089 -0.666949 0
M  V30 6860 H 658.819 3.23573 0.0908245 0
M  V30 6861 H 657.726 3.01413 -2.21588 0
M  V30 6862 H 659.059 3.97729 -2.89952 0
M  V30 6863 N 660.711 1.11618 1.11262 0
M  V30 6864 C 661.643 0.734015 2.17129 0
M  V30 6865 C 662.656 -0.235243 1.61091 0
M  V30 6866 O 663.845 -0.0178597 1.78491 0
M  V30 6867 C 660.945 0.0643682 3.38839 0
M  V30 6868 C 660.118 1.06092 4.24339 0
M  V30 6869 C 659.177 0.420482 5.24517 0
M  V30 6870 O 658.203 1.07495 5.58957 0
M  V30 6871 N 659.405 -0.815828 5.74739 0
M  V30 6872 H 662.17 1.64492 2.50524 0
M  V30 6873 H 659.731 1.00664 1.26801 0
M  V30 6874 H 661.723 -0.375851 4.02951 0
M  V30 6875 H 660.293 -0.749147 3.03491 0
M  V30 6876 H 659.513 1.67903 3.56654 0
M  V30 6877 H 660.801 1.73507 4.78302 0
M  V30 6878 H 660.199 -1.36668 5.48943 0
M  V30 6879 H 658.756 -1.199 6.40677 0
M  V30 6880 N 662.189 -1.289 0.906776 0
M  V30 6881 C 663.414 -1.99939 0.551303 0
M  V30 6882 C 663.839 -1.67366 -0.858496 0
M  V30 6883 O 663.197 -0.902176 -1.57259 0
M  V30 6884 C 663.245 -3.52523 0.758937 0
M  V30 6885 O 662.349 -4.11983 -0.185308 0
M  V30 6886 H 661.69 -0.628376 0.214568 0
M  V30 6887 H 664.22 -1.64225 1.2203 0
M  V30 6888 H 664.23 -4.02522 0.666329 0
M  V30 6889 H 662.905 -3.75566 1.78671 0
M  V30 6890 H 661.482 -3.72873 -0.0445577 0
M  V30 6891 N 663.667 -0.670007 -1.42649 0
M  V30 6892 C 664.913 -0.190568 -2.01903 0
M  V30 6893 C 665.246 1.19817 -1.52832 0
M  V30 6894 O 664.521 1.80342 -0.728485 0
M  V30 6895 C 664.804 -0.21991 -3.59428 0
M  V30 6896 C 664.657 -1.64376 -4.18689 0
M  V30 6897 C 665.976 0.434519 -4.3795 0
M  V30 6898 H 663.095 -0.0707219 -0.733599 0
M  V30 6899 H 665.737 -0.853883 -1.69732 0
M  V30 6900 H 663.887 0.344894 -3.86966 0
M  V30 6901 H 665.559 -2.26044 -4.02122 0
M  V30 6902 H 663.802 -2.18591 -3.747 0
M  V30 6903 H 664.473 -1.61601 -5.27815 0
M  V30 6904 H 666.949 -0.0462156 -4.16074 0
M  V30 6905 H 665.825 0.38333 -5.4756 0
M  V30 6906 H 666.086 1.51135 -4.15464 0
M  V30 6907 N 665.145 1.52092 -0.413018 0
M  V30 6908 C 666.055 2.30858 0.417318 0
M  V30 6909 C 667.071 1.38746 1.05003 0
M  V30 6910 O 668.247 1.71821 1.05069 0
M  V30 6911 C 665.312 3.11756 1.51687 0
M  V30 6912 C 664.373 4.19613 0.906825 0
M  V30 6913 C 663.606 4.96644 1.95399 0
M  V30 6914 O 663.829 4.7402 3.17271 0
M  V30 6915 O 662.763 5.81385 1.55805 0
M  V30 6916 H 666.589 3.02865 -0.225028 0
M  V30 6917 H 664.174 1.48358 -0.176126 0
M  V30 6918 H 666.056 3.62122 2.15512 0
M  V30 6919 H 664.731 2.42539 2.14375 0
M  V30 6920 H 663.638 3.73385 0.231183 0
M  V30 6921 H 664.971 4.91134 0.323814 0
M  V30 6922 N 666.623 0.143563 1.56945 0
M  V30 6923 C 667.586 -0.783295 2.154 0
M  V30 6924 C 668.586 -1.17763 1.09492 0
M  V30 6925 O 669.776 -1.09912 1.35148 0
M  V30 6926 C 666.908 -2.06248 2.7143 0
M  V30 6927 H 668.101 -0.274863 2.98638 0
M  V30 6928 H 665.654 -0.105859 1.55941 0
M  V30 6929 H 666.389 -2.61466 1.91849 0
M  V30 6930 H 666.174 -1.78897 3.4891 0
M  V30 6931 H 667.664 -2.72453 3.16479 0
M  V30 6932 N 668.101 -1.57061 -0.130224 0
M  V30 6933 C 669.349 -1.83893 -0.838313 0
M  V30 6934 C 669.67 -0.727046 -1.80939 0
M  V30 6935 O 668.94 0.249927 -1.94299 0
M  V30 6936 H 667.52 -0.67846 -0.312573 0
M  V30 6937 H 670.182 -1.94529 -0.120224 0
M  V30 6938 H 669.278 -2.79419 -1.39038 0
M  V30 6939 N 669.579 0.400081 -1.52437 0
M  V30 6940 C 670.856 1.15973 -1.57511 0
M  V30 6941 C 671.236 2.0798 -0.361572 0
M  V30 6942 O 670.584 2.19032 0.650929 0
M  V30 6943 C 670.794 1.92912 -2.90837 0
M  V30 6944 C 672.142 2.48662 -3.44169 0
M  V30 6945 O 673.166 2.03081 -2.92637 0
M  V30 6946 O 672.025 3.31894 -4.34176 0
M  V30 6947 H 669.119 0.530023 -0.634827 0
M  V30 6948 H 671.665 0.40613 -1.64769 0
M  V30 6949 H 670.437 1.25564 -3.70607 0
M  V30 6950 H 670.06 2.75257 -2.86913 0
M  V30 6951 N 671.057 1.43213 0.657864 0
M  V30 6952 C 672.306 1.43871 1.41365 0
M  V30 6953 C 672.619 0.064898 1.95492 0
M  V30 6954 O 673.825 -0.0510796 2.71452 0
M  V30 6955 C 672.281 2.53158 2.55811 0
M  V30 6956 C 671.889 3.96624 2.08311 0
M  V30 6957 C 673.633 2.63004 3.3321 0
M  V30 6958 C 671.54 4.97385 3.1994 0
M  V30 6959 H 670.47 0.535174 0.531136 0
M  V30 6960 H 673.121 1.69185 0.710543 0
M  V30 6961 H 671.503 2.21037 3.2857 0
M  V30 6962 H 672.677 4.38182 1.42593 0
M  V30 6963 H 670.992 3.90781 1.43804 0
M  V30 6964 H 673.589 3.3546 4.16378 0
M  V30 6965 H 673.932 1.67918 3.80932 0
M  V30 6966 H 674.465 2.94403 2.67529 0
M  V30 6967 H 671.204 5.94007 2.77192 0
M  V30 6968 H 670.724 4.60444 3.84385 0
M  V30 6969 H 672.403 5.19877 3.85145 0
M  V30 6970 N 672.536 -0.895792 1.29666 0
M  V30 6971 C 673.782 -1.64921 1.19049 0
M  V30 6972 C 674.137 -1.90707 -0.254678 0
M  V30 6973 O 673.43 -1.5092 -1.18041 0
M  V30 6974 C 673.624 -3.00075 1.94139 0
M  V30 6975 C 673.453 -2.87482 3.4581 0
M  V30 6976 C 672.223 -2.88041 4.15163 0
M  V30 6977 C 674.421 -2.64224 4.41237 0
M  V30 6978 N 672.403 -2.66226 5.5317 0
M  V30 6979 C 673.774 -2.51427 5.66732 0
M  V30 6980 C 675.829 -2.49362 4.30956 0
M  V30 6981 C 674.532 -2.25281 6.83111 0
M  V30 6982 C 676.558 -2.246 5.47091 0
M  V30 6983 C 675.92 -2.12571 6.7156 0
M  V30 6984 H 672.019 -0.608926 0.490646 0
M  V30 6985 H 674.603 -1.05648 1.63544 0
M  V30 6986 H 672.774 -3.574 1.52052 0
M  V30 6987 H 674.506 -3.64544 1.75754 0
M  V30 6988 H 671.261 -2.99471 3.66898 0
M  V30 6989 H 671.685 -2.58361 6.25762 0
M  V30 6990 H 676.327 -2.57403 3.35415 0
M  V30 6991 H 674.045 -2.15978 7.78704 0
M  V30 6992 H 677.631 -2.13939 5.41037 0
M  V30 6993 H 676.511 -1.93676 7.59907 0
M  V30 6994 N 674.014 -1.12206 -1.10668 0
M  V30 6995 C 675.43 -0.857619 -1.346 0
M  V30 6996 C 675.63 0.513542 -1.94846 0
M  V30 6997 O 674.686 1.26273 -2.18658 0
M  V30 6998 C 675.999 -1.97212 -2.26998 0
M  V30 6999 C 677.547 -2.00272 -2.40542 0
M  V30 7000 C 678.022 -3.10948 -3.36267 0
M  V30 7001 N 679.513 -3.10375 -3.43834 0
M  V30 7002 C 680.248 -3.92651 -4.17867 0
M  V30 7003 N 679.744 -4.84911 -4.94807 0
M  V30 7004 N 681.537 -3.80798 -4.1346 0
M  V30 7005 H 673.688 -2.00558 -0.699306 0
M  V30 7006 H 675.951 -0.872612 -0.370477 0
M  V30 7007 H 675.657 -2.96002 -1.89936 0
M  V30 7008 H 675.531 -1.87521 -3.27286 0
M  V30 7009 H 677.918 -1.02103 -2.76874 0
M  V30 7010 H 677.999 -2.14037 -1.40077 0
M  V30 7011 H 677.643 -4.09348 -3.00661 0
M  V30 7012 H 677.573 -2.94421 -4.36605 0
M  V30 7013 H 680.064 -2.43536 -2.88961 0
M  V30 7014 H 680.377 -5.44207 -5.48688 0
M  V30 7015 H 678.722 -4.88926 -4.93939 0
M  V30 7016 H 681.913 -3.08058 -3.52445 0
M  V30 7017 H 682.086 -4.4515 -4.70898 0
M  V30 7018 N 675.492 1.28418 -0.913599 0
M  V30 7019 C 676.425 2.25557 -0.346328 0
M  V30 7020 C 677.403 1.53038 0.549366 0
M  V30 7021 O 678.587 1.81937 0.493055 0
M  V30 7022 C 675.714 3.34915 0.504961 0
M  V30 7023 C 674.76 4.25257 -0.325334 0
M  V30 7024 S 675.593 5.06718 -1.73198 0
M  V30 7025 C 676.749 6.19569 -0.887988 0
M  V30 7026 H 676.982 2.73325 -1.16965 0
M  V30 7027 H 674.515 1.36855 -0.714841 0
M  V30 7028 H 676.473 3.98376 0.990301 0
M  V30 7029 H 675.134 2.85814 1.30267 0
M  V30 7030 H 674.327 5.02947 0.325589 0
M  V30 7031 H 673.929 3.66519 -0.744321 0
M  V30 7032 H 676.221 6.77398 -0.117568 0
M  V30 7033 H 677.164 6.88908 -1.63742 0
M  V30 7034 H 677.572 5.62812 -0.436228 0
M  V30 7035 N 676.97 0.677563 1.42291 0
M  V30 7036 C 678.21 0.204894 2.0337 0
M  V30 7037 C 678.574 -1.16744 1.5243 0
M  V30 7038 O 679.775 -1.73492 2.05314 0
M  V30 7039 C 678.046 0.240742 3.56588 0
M  V30 7040 S 679.605 -0.16052 4.38506 0
M  V30 7041 H 676.423 0.0839932 0.706021 0
M  V30 7042 H 679.025 0.891332 1.73999 0
M  V30 7043 H 677.729 1.24184 3.91161 0
M  V30 7044 H 677.26 -0.465439 3.90637 0
M  V30 7045 H 679.275 -1.39315 4.76241 0
M  V30 7046 N 678.448 -1.51871 0.421078 0
M  V30 7047 C 679.38 -2.25052 -0.434065 0
M  V30 7048 C 680.393 -1.28458 -1.00013 0
M  V30 7049 O 681.582 -1.54323 -0.897033 0
M  V30 7050 C 678.682 -2.97813 -1.61743 0
M  V30 7051 C 677.855 -4.21374 -1.17315 0
M  V30 7052 C 676.914 -4.76854 -2.22478 0
M  V30 7053 O 675.94 -5.39123 -1.82577 0
M  V30 7054 N 677.142 -4.59467 -3.54782 0
M  V30 7055 H 679.907 -2.99077 0.193073 0
M  V30 7056 H 677.468 -1.59972 0.249088 0
M  V30 7057 H 679.46 -3.3182 -2.31685 0
M  V30 7058 H 678.03 -2.26899 -2.15024 0
M  V30 7059 H 677.25 -3.93046 -0.3014 0
M  V30 7060 H 678.538 -5.01591 -0.853444 0
M  V30 7061 H 677.936 -4.09832 -3.89941 0
M  V30 7062 H 676.493 -4.9788 -4.20665 0
M  V30 7063 N 679.926 -0.151884 -1.56866 0
M  V30 7064 C 680.889 0.771861 -2.15812 0
M  V30 7065 C 681.889 1.17181 -1.10115 0
M  V30 7066 O 683.079 1.09194 -1.35729 0
M  V30 7067 C 680.211 2.04806 -2.7252 0
M  V30 7068 H 681.404 0.259021 -2.98779 0
M  V30 7069 H 678.957 0.097588 -1.55995 0
M  V30 7070 H 679.692 2.60445 -1.93233 0
M  V30 7071 H 679.477 1.77044 -3.49854 0
M  V30 7072 H 680.967 2.70771 -3.1792 0
M  V30 7073 N 681.404 1.57128 0.121893 0
M  V30 7074 C 682.351 2.0013 1.14964 0
M  V30 7075 C 683.321 0.872959 1.4131 0
M  V30 7076 O 684.506 1.13696 1.53225 0
M  V30 7077 C 681.646 2.40824 2.4718 0
M  V30 7078 C 680.759 3.67061 2.27794 0
M  V30 7079 C 679.894 3.96749 3.53219 0
M  V30 7080 C 678.933 5.16178 3.28978 0
M  V30 7081 N 678.07 5.41751 4.46599 0
M  V30 7082 H 682.91 2.8772 0.775947 0
M  V30 7083 H 680.447 1.42328 0.371652 0
M  V30 7084 H 682.405 2.62454 3.24305 0
M  V30 7085 H 681.035 1.56279 2.82448 0
M  V30 7086 H 680.087 3.53063 1.416 0
M  V30 7087 H 681.399 4.5434 2.05857 0
M  V30 7088 H 680.553 4.19012 4.38764 0
M  V30 7089 H 679.292 3.07941 3.78185 0
M  V30 7090 H 678.297 4.93762 2.41824 0
M  V30 7091 H 679.522 6.06561 3.05386 0
M  V30 7092 H 677.468 4.55899 4.71691 0
M  V30 7093 H 677.385 6.23347 4.27756 0
M  V30 7094 H 678.653 5.68531 5.33285 0
M  V30 7095 N 682.882 -0.391992 1.52647 0
M  V30 7096 C 684.159 -1.15136 1.58123 0
M  V30 7097 C 684.539 -2.07786 0.372597 0
M  V30 7098 O 683.887 -2.19374 -0.639304 0
M  V30 7099 C 684.097 -1.91367 2.91856 0
M  V30 7100 C 685.445 -2.46833 3.45483 0
M  V30 7101 O 686.469 -2.01527 2.9371 0
M  V30 7102 O 685.328 -3.29587 4.3593 0
M  V30 7103 H 682.422 -0.526649 0.637629 0
M  V30 7104 H 684.968 -0.397386 1.64982 0
M  V30 7105 H 683.74 -1.23597 3.71268 0
M  V30 7106 H 683.363 -2.73732 2.88369 0
M  V30 7107 N 684.36 -1.4356 -0.65026 0
M  V30 7108 C 685.323 -1.48615 -1.74489 0
M  V30 7109 C 686.323 -0.370483 -1.56474 0
M  V30 7110 O 687.513 -0.632351 -1.62317 0
M  V30 7111 C 684.645 -1.34161 -3.13391 0
M  V30 7112 H 685.838 -2.46103 -1.71387 0
M  V30 7113 H 683.391 -1.30369 -0.862186 0
M  V30 7114 H 684.126 -0.376918 -3.22102 0
M  V30 7115 H 683.911 -2.1504 -3.27872 0
M  V30 7116 H 685.401 -1.40637 -3.93206 0
M  V30 7117 N 685.838 0.888903 -1.30139 0
M  V30 7118 C 687.249 1.45578 -1.16893 0
M  V30 7119 C 687.6 1.94825 0.231866 0
M  V30 7120 O 686.725 1.84661 1.12824 0
M  V30 7121 C 687.32 2.646 -2.11595 0
M  V30 7122 C 685.879 3.17389 -2.02339 0
M  V30 7123 C 685.026 1.90081 -2.01902 0
M  V30 7124 H 687.977 0.69921 -1.42467 0
M  V30 7125 H 687.998 3.40687 -1.69449 0
M  V30 7126 H 687.51 2.28726 -3.13538 0
M  V30 7127 H 685.611 3.5793 -1.03523 0
M  V30 7128 H 685.724 3.80955 -2.90534 0
M  V30 7129 H 684.088 2.08246 -1.46648 0
M  V30 7130 H 684.871 1.5647 -3.05568 0
M  V30 7131 N 687.317 1.12792 1.10072 0
M  V30 7132 C 688.566 0.880232 1.81479 0
M  V30 7133 C 688.879 -0.595575 1.86312 0
M  V30 7134 O 690.085 -0.959979 2.53962 0
M  V30 7135 C 688.541 1.52514 3.25987 0
M  V30 7136 C 688.149 3.036 3.29441 0
M  V30 7137 C 689.893 1.35788 4.02196 0
M  V30 7138 C 687.8 3.61007 4.68431 0
M  V30 7139 H 686.73 0.325654 0.680048 0
M  V30 7140 H 689.381 1.35485 1.23758 0
M  V30 7141 H 687.763 0.978188 3.83728 0
M  V30 7142 H 688.937 3.64819 2.81502 0
M  V30 7143 H 687.252 3.19765 2.66719 0
M  V30 7144 H 689.849 1.76096 5.0487 0
M  V30 7145 H 690.192 0.301972 4.15203 0
M  V30 7146 H 690.725 1.87426 3.50879 0
M  V30 7147 H 687.464 4.66375 4.60625 0
M  V30 7148 H 686.984 3.04564 5.16721 0
M  V30 7149 H 688.663 3.60289 5.37402 0
M  V30 7150 N 688.795 -1.27931 0.920396 0
M  V30 7151 C 689.727 -2.26175 0.371169 0
M  V30 7152 C 690.74 -1.55122 -0.494065 0
M  V30 7153 O 691.929 -1.75825 -0.30787 0
M  V30 7154 C 689.029 -3.35376 -0.487481 0
M  V30 7155 C 688.202 -4.35943 0.356772 0
M  V30 7156 C 687.261 -5.24374 -0.438042 0
M  V30 7157 O 686.287 -5.68998 0.151715 0
M  V30 7158 N 687.489 -5.53823 -1.73956 0
M  V30 7159 H 690.254 -2.73938 1.21564 0
M  V30 7160 H 687.815 -1.41482 0.787047 0
M  V30 7161 H 689.807 -3.91476 -1.02609 0
M  V30 7162 H 688.377 -2.87269 -1.23269 0
M  V30 7163 H 687.597 -3.7921 1.07672 0
M  V30 7164 H 688.885 -5.0015 0.934206 0
M  V30 7165 H 688.283 -5.19413 -2.24114 0
M  V30 7166 H 686.84 -6.12653 -2.22486 0
M  V30 7167 N 690.273 -0.685099 -1.4193 0
M  V30 7168 C 691.55 -0.140152 -1.95097 0
M  V30 7169 C 691.93 1.34745 -1.62502 0
M  V30 7170 O 691.278 2.08872 -0.926534 0
M  V30 7171 C 691.488 -0.420268 -3.4646 0
M  V30 7172 C 692.836 -0.342338 -4.23218 0
M  V30 7173 O 693.86 -0.354592 -3.54431 0
M  V30 7174 O 692.719 -0.293404 -5.45712 0
M  V30 7175 H 689.813 -0.00885998 -0.826953 0
M  V30 7176 H 692.359 -0.760539 -1.51703 0
M  V30 7177 H 691.131 -1.45037 -3.63428 0
M  V30 7178 H 690.754 0.231616 -3.96925 0
M  V30 7179 N 691.751 1.51645 -0.429126 0
M  V30 7180 C 692.997 2.02967 0.132584 0
M  V30 7181 C 693.352 1.30804 1.41096 0
M  V30 7182 O 692.645 0.411705 1.87124 0
M  V30 7183 C 692.839 3.54989 0.414472 0
M  V30 7184 C 692.668 4.41879 -0.83503 0
M  V30 7185 C 691.438 4.86482 -1.36614 0
M  V30 7186 C 693.636 4.84727 -1.71886 0
M  V30 7187 N 691.618 5.5756 -2.56904 0
M  V30 7188 C 692.989 5.54788 -2.76786 0
M  V30 7189 C 695.044 4.66721 -1.73425 0
M  V30 7190 C 693.747 6.08753 -3.8316 0
M  V30 7191 C 695.773 5.21597 -2.7873 0
M  V30 7192 C 695.135 5.91598 -3.8235 0
M  V30 7193 H 691.234 0.781942 0.00956367 0
M  V30 7194 H 693.818 1.8561 -0.587957 0
M  V30 7195 H 691.989 3.72378 1.10405 0
M  V30 7196 H 693.721 3.92982 0.966817 0
M  V30 7197 H 690.476 4.64553 -0.921255 0
M  V30 7198 H 690.9 5.97731 -3.17879 0
M  V30 7199 H 695.542 4.1207 -0.946467 0
M  V30 7200 H 693.26 6.62464 -4.62782 0
M  V30 7201 H 696.846 5.09522 -2.80853 0
M  V30 7202 H 695.726 6.33299 -4.62495 0
M  V30 7203 N 693.229 0.160201 1.56784 0
M  V30 7204 C 694.475 -0.48831 1.96833 0
M  V30 7205 C 694.808 -1.63641 1.04571 0
M  V30 7206 O 694.083 -1.94289 0.0906481 0
M  V30 7207 C 694.366 -0.981908 3.46454 0
M  V30 7208 C 694.219 0.165607 4.49495 0
M  V30 7209 C 695.538 -1.85931 3.98896 0
M  V30 7210 H 692.657 -0.176027 0.71567 0
M  V30 7211 H 695.299 0.244093 1.88426 0
M  V30 7212 H 693.449 -1.60602 3.5375 0
M  V30 7213 H 695.121 0.802372 4.54268 0
M  V30 7214 H 693.364 0.822789 4.25926 0
M  V30 7215 H 694.035 -0.221699 5.51555 0
M  V30 7216 H 696.511 -1.33327 3.94161 0
M  V30 7217 H 695.387 -2.17373 5.04024 0
M  V30 7218 H 695.648 -2.80106 3.42042 0
M  V30 7219 N 694.707 -1.5719 -0.113559 0
M  V30 7220 C 695.654 -2.00736 -1.13901 0
M  V30 7221 C 696.624 -0.88044 -1.40846 0
M  V30 7222 O 697.809 -1.14507 -1.5262 0
M  V30 7223 C 694.949 -2.42132 -2.45899 0
M  V30 7224 C 694.062 -3.68264 -2.25844 0
M  V30 7225 C 693.197 -3.98617 -3.5111 0
M  V30 7226 C 692.236 -5.17915 -3.26236 0
M  V30 7227 N 691.373 -5.44111 -4.4372 0
M  V30 7228 H 696.213 -2.88128 -0.760677 0
M  V30 7229 H 693.75 -1.42523 -0.364099 0
M  V30 7230 H 695.708 -2.6417 -3.22908 0
M  V30 7231 H 694.338 -1.57775 -2.81615 0
M  V30 7232 H 693.39 -3.53809 -1.39726 0
M  V30 7233 H 694.702 -4.55425 -2.03444 0
M  V30 7234 H 693.856 -4.21333 -4.36536 0
M  V30 7235 H 692.595 -3.09942 -3.76546 0
M  V30 7236 H 691.6 -4.95038 -2.39202 0
M  V30 7237 H 692.825 -6.08172 -3.02165 0
M  V30 7238 H 690.771 -4.58394 -4.69266 0
M  V30 7239 H 690.688 -6.25606 -4.24444 0
M  V30 7240 H 691.956 -5.71351 -5.30263 0
M  V30 7241 N 696.185 0.383891 -1.52853 0
M  V30 7242 C 697.115 1.47559 -1.80965 0
M  V30 7243 C 698.096 1.5669 -0.661986 0
M  V30 7244 O 699.281 1.71556 -0.910072 0
M  V30 7245 C 696.411 2.85114 -1.98312 0
M  V30 7246 C 695.365 2.9082 -3.14019 0
M  V30 7247 C 694.691 4.30873 -3.16627 0
M  V30 7248 C 695.991 2.60001 -4.52986 0
M  V30 7249 H 697.685 1.24283 -2.72386 0
M  V30 7250 H 695.231 0.596445 -1.31067 0
M  V30 7251 H 697.184 3.61496 -2.16561 0
M  V30 7252 H 695.908 3.09738 -1.03585 0
M  V30 7253 H 694.567 2.16886 -2.9556 0
M  V30 7254 H 694.215 4.52545 -2.19573 0
M  V30 7255 H 693.915 4.3561 -3.94357 0
M  V30 7256 H 695.439 5.09154 -3.37038 0
M  V30 7257 H 696.853 3.261 -4.71521 0
M  V30 7258 H 695.25 2.76081 -5.32822 0
M  V30 7259 H 696.32 1.5532 -4.59351 0
M  V30 7260 N 697.663 1.43903 0.642637 0
M  V30 7261 C 698.626 1.49538 1.73698 0
M  V30 7262 C 699.626 0.378776 1.56275 0
M  V30 7263 O 700.816 0.64095 1.6198 0
M  V30 7264 C 697.948 1.35821 3.12675 0
M  V30 7265 H 699.141 2.47008 1.70079 0
M  V30 7266 H 696.694 1.30824 0.85526 0
M  V30 7267 H 697.429 0.393994 3.21898 0
M  V30 7268 H 697.214 2.16776 3.26727 0
M  V30 7269 H 698.704 1.4272 3.92455 0
M  V30 7270 N 699.141 -0.881989 1.30609 0
M  V30 7271 C 700.387 -1.63647 1.19781 0
M  V30 7272 C 700.72 -1.92632 -0.246265 0
M  V30 7273 O 699.995 -1.54938 -1.17577 0
M  V30 7274 C 700.278 -2.97437 2.02985 0
M  V30 7275 C 700.131 -2.75406 3.55628 0
M  V30 7276 C 701.45 -3.98397 1.86997 0
M  V30 7277 H 698.569 -0.593841 0.436488 0
M  V30 7278 H 701.211 -1.02041 1.60273 0
M  V30 7279 H 699.361 -3.50018 1.68581 0
M  V30 7280 H 701.033 -2.2959 4.00107 0
M  V30 7281 H 699.276 -2.09856 3.79662 0
M  V30 7282 H 699.947 -3.70552 4.09139 0
M  V30 7283 H 702.423 -3.54986 2.17081 0
M  V30 7284 H 701.299 -4.89916 2.47536 0
M  V30 7285 H 701.56 -4.3424 0.829943 0
M  V30 7286 N 700.619 -1.13374 -1.09472 0
M  V30 7287 C 701.567 -0.806105 -2.18185 0
M  V30 7288 C 702.561 0.21136 -1.68076 0
M  V30 7289 O 703.767 0.0685558 -1.79869 0
M  V30 7290 H 700.142 -0.242901 -0.71169 0
M  V30 7291 H 702.113 -1.73115 -2.43051 0
M  V30 7292 C 700.862 -0.287928 -3.46506 0
M  V30 7293 H 700.185 -1.06217 -3.85432 0
M  V30 7294 H 701.625 -0.0971054 -4.23889 0
M  V30 7295 C 700.084 0.986256 -3.22141 0
M  V30 7296 O 700.614 2.06217 -3.44728 0
M  V30 7297 N 698.82 0.917153 -2.75747 0
M  V30 7298 H 698.367 0.0414609 -2.57567 0
M  V30 7299 H 698.325 1.77029 -2.59823 0
M  V30 7300 N 702.098 1.27442 -0.927168 0
M  V30 7301 C 703.514 1.46754 -0.627329 0
M  V30 7302 C 703.714 1.83902 0.823549 0
M  V30 7303 O 702.77 1.95215 1.60148 0
M  V30 7304 C 704.083 2.56045 -1.57674 0
M  V30 7305 C 705.631 2.69906 -1.58491 0
M  V30 7306 C 706.106 3.82355 -2.52128 0
M  V30 7307 N 707.597 3.89728 -2.50332 0
M  V30 7308 C 708.332 4.76155 -3.19475 0
M  V30 7309 N 707.828 5.67073 -3.97995 0
M  V30 7310 N 709.621 4.6988 -3.08496 0
M  V30 7311 H 701.772 1.01613 -1.86517 0
M  V30 7312 H 704.035 0.507443 -0.800753 0
M  V30 7313 H 703.741 2.35542 -2.61176 0
M  V30 7314 H 703.615 3.53423 -1.31804 0
M  V30 7315 H 706.002 2.89792 -0.557208 0
M  V30 7316 H 706.083 1.73018 -1.8841 0
M  V30 7317 H 705.727 3.63224 -3.55008 0
M  V30 7318 H 705.657 4.7867 -2.19505 0
M  V30 7319 H 708.148 3.24717 -1.93306 0
M  V30 7320 H 708.461 6.2988 -4.4774 0
M  V30 7321 H 706.806 5.6687 -4.02098 0
M  V30 7322 H 709.997 3.97848 -2.46646 0
M  V30 7323 H 710.17 5.37017 -3.62652 0
M  V30 7324 N 703.576 0.692616 1.41565 0
M  V30 7325 C 704.539 0.0344174 2.29174 0
M  V30 7326 C 705.539 -0.710961 1.44229 0
M  V30 7327 O 706.729 -0.546293 1.65412 0
M  V30 7328 C 703.861 -0.961682 3.27054 0
M  V30 7329 H 705.054 0.805755 2.88873 0
M  V30 7330 H 702.607 0.455947 1.49502 0
M  V30 7331 H 703.342 -1.76089 2.72329 0
M  V30 7332 H 703.127 -0.430375 3.89731 0
M  V30 7333 H 704.617 -1.4201 3.92712 0
M  V30 7334 N 705.054 -1.51416 0.437162 0
M  V30 7335 C 706.47 -1.59349 0.0894459 0
M  V30 7336 C 706.67 -1.44809 -1.40116 0
M  V30 7337 O 705.726 -1.28924 -2.17106 0
M  V30 7338 C 707.039 -2.9446 0.609398 0
M  V30 7339 C 708.587 -3.07769 0.569824 0
M  V30 7340 C 709.062 -4.45404 1.06675 0
M  V30 7341 N 710.553 -4.51723 1.02473 0
M  V30 7342 C 711.288 -5.56544 1.3801 0
M  V30 7343 N 710.784 -6.68784 1.80831 0
M  V30 7344 N 712.577 -5.46901 1.29828 0
M  V30 7345 H 704.728 -1.59112 1.40703 0
M  V30 7346 H 706.991 -0.750031 0.579791 0
M  V30 7347 H 706.697 -3.1047 1.65231 0
M  V30 7348 H 706.571 -3.77184 0.0342236 0
M  V30 7349 H 708.958 -2.91428 -0.464107 0
M  V30 7350 H 709.039 -2.26885 1.1814 0
M  V30 7351 H 708.683 -4.62492 2.09914 0
M  V30 7352 H 708.613 -5.24827 0.431712 0
M  V30 7353 H 711.104 -3.71165 0.710258 0
M  V30 7354 H 711.417 -7.44787 2.06185 0
M  V30 7355 H 709.762 -6.69992 1.84757 0
M  V30 7356 H 712.953 -4.581 0.962397 0
M  V30 7357 H 713.126 -6.2848 1.57851 0
M  V30 7358 N 706.532 -0.168513 -1.56696 0
M  V30 7359 C 707.495 0.748928 -2.16619 0
M  V30 7360 C 708.495 1.16007 -1.11351 0
M  V30 7361 O 709.685 1.07748 -1.3688 0
M  V30 7362 C 706.817 2.01904 -2.74677 0
M  V30 7363 H 708.01 0.227317 -2.99037 0
M  V30 7364 H 705.563 0.0810372 -1.5609 0
M  V30 7365 H 706.298 2.58381 -1.95985 0
M  V30 7366 H 706.083 1.73323 -3.51712 0
M  V30 7367 H 707.573 2.67383 -3.20774 0
M  V30 7368 N 708.01 1.57248 0.105221 0
M  V30 7369 C 709.238 1.89768 0.82437 0
M  V30 7370 C 709.653 0.761192 1.72775 0
M  V30 7371 O 709.01 -0.267342 1.80531 0
M  V30 7372 C 709.061 3.2184 1.64625 0
M  V30 7373 O 708.782 4.31115 0.779217 0
M  V30 7374 C 710.283 3.68155 2.46935 0
M  V30 7375 H 707.503 0.628031 0.236259 0
M  V30 7376 H 710.047 2.04321 0.085485 0
M  V30 7377 H 708.202 3.08915 2.33775 0
M  V30 7378 H 708.616 5.06897 1.34745 0
M  V30 7379 H 710.09 4.6329 3.00111 0
M  V30 7380 H 710.567 2.95492 3.24932 0
M  V30 7381 H 711.173 3.83914 1.83002 0
M  V30 7382 N 709.488 -0.375779 1.53054 0
M  V30 7383 C 710.436 -1.48015 1.79428 0
M  V30 7384 C 711.43 -1.55893 0.662854 0
M  V30 7385 O 712.636 -1.58901 0.845599 0
M  V30 7386 H 709.011 -0.492887 0.56795 0
M  V30 7387 H 710.982 -1.22971 2.71884 0
M  V30 7388 C 709.731 -2.84984 1.99197 0
M  V30 7389 H 709.054 -2.79677 2.85693 0
M  V30 7390 H 710.494 -3.61462 2.21633 0
M  V30 7391 C 708.953 -3.28025 0.768183 0
M  V30 7392 O 709.483 -4.01671 -0.0480482 0
M  V30 7393 N 707.689 -2.84454 0.594521 0
M  V30 7394 H 707.236 -2.24688 1.25988 0
M  V30 7395 H 707.194 -3.13609 -0.222916 0
M  V30 7396 N 710.966 -1.44241 -0.634997 0
M  V30 7397 C 712.194 -1.50296 -1.42193 0
M  V30 7398 C 712.609 -0.12658 -1.88375 0
M  V30 7399 O 711.966 0.86678 -1.60603 0
M  V30 7400 C 712.017 -2.46437 -2.64482 0
M  V30 7401 O 711.738 -3.78724 -2.20226 0
M  V30 7402 C 713.239 -2.61918 -3.57651 0
M  V30 7403 H 710.459 -0.509865 -0.43621 0
M  V30 7404 H 713.003 -1.89167 -0.776921 0
M  V30 7405 H 711.158 -2.10712 -3.25083 0
M  V30 7406 H 711.572 -4.30595 -2.9948 0
M  V30 7407 H 713.046 -3.33225 -4.40074 0
M  V30 7408 H 713.523 -1.67017 -4.06204 0
M  V30 7409 H 714.129 -2.98528 -3.02921 0
M  V30 7410 N 712.444 0.87505 -1.31075 0
M  V30 7411 C 713.855 1.4433 -1.18431 0
M  V30 7412 C 714.206 1.9506 0.211189 0
M  V30 7413 O 713.331 1.85847 1.10859 0
M  V30 7414 C 713.926 2.62341 -2.14389 0
M  V30 7415 C 712.485 3.15225 -2.05694 0
M  V30 7416 C 711.632 1.87929 -2.03907 0
M  V30 7417 H 714.583 0.684061 -1.432 0
M  V30 7418 H 714.604 3.3887 -1.73053 0
M  V30 7419 H 714.116 2.25388 -3.15946 0
M  V30 7420 H 712.217 3.56812 -1.07314 0
M  V30 7421 H 712.33 3.77853 -2.94558 0
M  V30 7422 H 710.694 2.06679 -1.48849 0
M  V30 7423 H 711.477 1.53221 -3.07211 0
M  V30 7424 N 713.922 1.13953 1.08869 0
M  V30 7425 C 714.885 0.824991 2.13838 0
M  V30 7426 C 715.885 -0.168198 1.59918 0
M  V30 7427 O 717.075 0.0595778 1.74098 0
M  V30 7428 C 714.207 0.228938 3.4013 0
M  V30 7429 H 715.4 1.75521 2.43171 0
M  V30 7430 H 712.953 0.94492 1.24503 0
M  V30 7431 H 713.688 -0.710227 3.16427 0
M  V30 7432 H 713.473 0.944243 3.80561 0
M  V30 7433 H 714.963 0.0259223 4.17592 0
M  V30 7434 N 715.4 -1.26948 0.933913 0
M  V30 7435 C 716.646 -1.94374 0.57848 0
M  V30 7436 C 716.979 -1.73166 -0.879048 0
M  V30 7437 O 716.254 -1.06438 -1.62792 0
M  V30 7438 C 716.537 -3.4834 0.912739 0
M  V30 7439 C 716.39 -3.78866 2.42448 0
M  V30 7440 C 717.709 -4.38062 0.423003 0
M  V30 7441 H 714.828 -0.705959 0.211639 0
M  V30 7442 H 717.47 -1.49951 1.16682 0
M  V30 7443 H 715.62 -3.86309 0.412058 0
M  V30 7444 H 717.292 -3.50654 2.99733 0
M  V30 7445 H 715.535 -3.25198 2.87104 0
M  V30 7446 H 716.206 -4.86458 2.60887 0
M  V30 7447 H 718.682 -4.0728 0.852191 0
M  V30 7448 H 717.558 -5.44599 0.685776 0
M  V30 7449 H 717.819 -4.36886 -0.676994 0
M  V30 7450 N 716.879 -0.700114 -1.41195 0
M  V30 7451 C 718.126 -0.233006 -2.01155 0
M  V30 7452 C 718.454 1.16883 -1.55462 0
M  V30 7453 O 717.709 1.80395 -0.758695 0
M  V30 7454 C 718.008 -0.243986 -3.56566 0
M  V30 7455 C 717.674 -1.59397 -4.21786 0
M  V30 7456 C 716.336 -1.96355 -4.39316 0
M  V30 7457 C 718.688 -2.48192 -4.58312 0
M  V30 7458 C 716.016 -3.21683 -4.9065 0
M  V30 7459 C 718.368 -3.72857 -5.11039 0
M  V30 7460 C 717.032 -4.09951 -5.26779 0
M  V30 7461 H 716.302 -0.085263 -0.736078 0
M  V30 7462 H 718.949 -0.9001 -1.69028 0
M  V30 7463 H 717.254 0.506663 -3.8851 0
M  V30 7464 H 718.951 0.135031 -4.00773 0
M  V30 7465 H 715.541 -1.29654 -4.08519 0
M  V30 7466 H 719.725 -2.20918 -4.4442 0
M  V30 7467 H 714.981 -3.50412 -5.01021 0
M  V30 7468 H 719.155 -4.41844 -5.38282 0
M  V30 7469 H 716.782 -5.07136 -5.66319 0
M  V30 7470 N 718.357 1.51182 -0.445186 0
M  V30 7471 C 719.603 2.03097 0.111049 0
M  V30 7472 C 719.958 1.32293 1.397 0
M  V30 7473 O 719.251 0.431529 1.86677 0
M  V30 7474 C 719.445 3.55408 0.376797 0
M  V30 7475 C 719.274 4.40969 -0.88185 0
M  V30 7476 C 718.044 4.85006 -1.41766 0
M  V30 7477 C 720.242 4.82876 -1.77017 0
M  V30 7478 N 718.224 5.54804 -2.62803 0
M  V30 7479 C 719.595 5.51821 -2.82654 0
M  V30 7480 C 721.65 4.64855 -1.78365 0
M  V30 7481 C 720.353 6.04655 -3.89595 0
M  V30 7482 C 722.379 5.18612 -2.84246 0
M  V30 7483 C 721.741 5.87509 -3.88603 0
M  V30 7484 H 717.84 0.781999 0.0012696 0
M  V30 7485 H 720.424 1.84976 -0.60761 0
M  V30 7486 H 718.595 3.73528 1.06449 0
M  V30 7487 H 720.327 3.93985 0.925082 0
M  V30 7488 H 717.082 4.6355 -0.970476 0
M  V30 7489 H 717.506 5.94326 -3.24201 0
M  V30 7490 H 722.148 4.11043 -0.990119 0
M  V30 7491 H 719.866 6.57518 -4.69782 0
M  V30 7492 H 723.452 5.06515 -2.86241 0
M  V30 7493 H 722.332 6.28358 -4.69186 0
M  V30 7494 N 719.835 0.176821 1.56605 0
M  V30 7495 C 720.765 -0.746841 2.21234 0
M  V30 7496 C 721.746 -1.23502 1.16967 0
M  V30 7497 O 722.931 -1.28718 1.45414 0
M  V30 7498 C 720.061 -1.97407 2.8574 0
M  V30 7499 C 719.015 -1.62153 3.96094 0
M  V30 7500 C 718.341 -2.92387 4.47676 0
M  V30 7501 C 719.641 -0.845353 5.15413 0
M  V30 7502 H 721.335 -0.208116 2.98676 0
M  V30 7503 H 718.881 -0.0986594 1.43662 0
M  V30 7504 H 720.834 -2.62531 3.2963 0
M  V30 7505 H 719.558 -2.53703 2.05676 0
M  V30 7506 H 718.217 -0.993964 3.52868 0
M  V30 7507 H 717.865 -3.46734 3.64396 0
M  V30 7508 H 717.565 -2.69551 5.22127 0
M  V30 7509 H 719.089 -3.5853 4.94255 0
M  V30 7510 H 720.503 -1.39929 5.55961 0
M  V30 7511 H 718.9 -0.715814 5.95815 0
M  V30 7512 H 719.97 0.157239 4.84645 0
M  V30 7513 N 721.313 -1.57302 -0.09688 0
M  V30 7514 C 722.59 -1.7701 -0.832272 0
M  V30 7515 C 722.97 -0.758025 -1.97021 0
M  V30 7516 O 722.318 0.213824 -2.27497 0
M  V30 7517 C 722.528 -3.22725 -1.32851 0
M  V30 7518 C 723.876 -3.85856 -1.772 0
M  V30 7519 O 724.9 -3.26464 -1.42478 0
M  V30 7520 O 723.759 -4.90295 -2.41398 0
M  V30 7521 H 720.853 -0.725558 -0.396856 0
M  V30 7522 H 723.399 -1.69516 -0.0789005 0
M  V30 7523 H 722.171 -3.87921 -0.51312 0
M  V30 7524 H 721.794 -3.34845 -2.14394 0
M  V30 7525 N 722.791 0.367657 -1.53252 0
M  V30 7526 C 724.202 0.944563 -1.61043 0
M  V30 7527 C 724.553 1.90325 -0.476546 0
M  V30 7528 O 723.678 2.12721 0.397333 0
M  V30 7529 C 724.273 1.71992 -2.91898 0
M  V30 7530 C 722.832 2.2462 -3.02031 0
M  V30 7531 C 721.979 1.05799 -2.56324 0
M  V30 7532 H 724.93 0.146516 -1.58022 0
M  V30 7533 H 724.951 2.58095 -2.79584 0
M  V30 7534 H 724.463 1.02192 -3.74404 0
M  V30 7535 H 722.564 2.97668 -2.24108 0
M  V30 7536 H 722.677 2.52644 -4.07073 0
M  V30 7537 H 721.041 1.42435 -2.1115 0
M  V30 7538 H 721.824 0.375008 -3.41246 0
M  V30 7539 N 724.269 1.44576 0.627338 0
M  V30 7540 C 725.232 1.51372 1.72102 0
M  V30 7541 C 726.232 0.395329 1.55865 0
M  V30 7542 O 727.422 0.658094 1.61291 0
M  V30 7543 C 724.554 1.39129 3.11217 0
M  V30 7544 H 725.747 2.48798 1.6745 0
M  V30 7545 H 723.3 1.31724 0.841336 0
M  V30 7546 H 724.035 0.428114 3.21462 0
M  V30 7547 H 723.82 2.20229 3.24409 0
M  V30 7548 H 725.31 1.46874 3.90919 0
M  V30 7549 N 725.747 -0.868086 1.31537 0
M  V30 7550 C 727.163 -1.15414 1.10235 0
M  V30 7551 C 727.363 -2.01106 -0.125947 0
M  V30 7552 O 726.419 -2.38994 -0.814734 0
M  V30 7553 C 727.732 -1.84445 2.37488 0
M  V30 7554 C 729.28 -1.97139 2.43116 0
M  V30 7555 C 729.755 -2.69585 3.70254 0
M  V30 7556 N 731.246 -2.77119 3.71159 0
M  V30 7557 C 731.981 -3.33791 4.6623 0
M  V30 7558 N 731.477 -3.9138 5.71659 0
M  V30 7559 N 733.27 -3.31767 4.53747 0
M  V30 7560 H 725.421 -0.297109 2.10312 0
M  V30 7561 H 727.684 -0.194227 0.92789 0
M  V30 7562 H 727.39 -1.2893 3.27215 0
M  V30 7563 H 727.264 -2.84709 2.47428 0
M  V30 7564 H 729.651 -2.51818 1.53856 0
M  V30 7565 H 729.732 -0.95912 2.37138 0
M  V30 7566 H 729.376 -2.15572 4.59881 0
M  V30 7567 H 729.306 -3.71223 3.73499 0
M  V30 7568 H 731.797 -2.3625 2.94948 0
M  V30 7569 H 732.11 -4.3274 6.40278 0
M  V30 7570 H 730.455 -3.8975 5.7543 0
M  V30 7571 H 733.646 -2.86016 3.70557 0
M  V30 7572 H 733.819 -3.75636 5.28017 0
M  V30 7573 N 727.225 -1.14528 -1.08264 0
M  V30 7574 C 728.188 -0.83632 -2.13397 0
M  V30 7575 C 729.188 0.159715 -1.60005 0
M  V30 7576 O 730.378 -0.0688098 -1.74064 0
M  V30 7577 C 727.51 -0.246973 -3.40004 0
M  V30 7578 H 728.703 -1.76808 -2.42237 0
M  V30 7579 H 726.256 -0.951509 -1.24 0
M  V30 7580 H 726.991 0.693436 -3.168 0
M  V30 7581 H 726.776 -0.964412 -3.80055 0
M  V30 7582 H 728.266 -0.0480679 -4.17572 0
M  V30 7583 N 728.703 1.26451 -0.940633 0
M  V30 7584 C 729.653 2.24086 -0.420669 0
M  V30 7585 C 730.637 1.53501 0.482301 0
M  V30 7586 O 731.829 1.74127 0.317636 0
M  V30 7587 C 728.958 3.41866 0.313452 0
M  V30 7588 C 728.044 4.19737 -0.606779 0
M  V30 7589 N 728.435 4.7521 -1.73232 0
M  V30 7590 C 726.733 4.44091 -0.41226 0
M  V30 7591 C 727.434 5.34052 -2.30572 0
M  V30 7592 N 726.41 5.1971 -1.59381 0
M  V30 7593 H 730.212 2.64569 -1.27986 0
M  V30 7594 H 727.726 1.4153 -0.796436 0
M  V30 7595 H 729.723 4.1093 0.702991 0
M  V30 7596 H 728.383 3.0291 1.16942 0
M  V30 7597 H 729.394 4.72769 -2.11447 0
M  V30 7598 H 726.071 4.1556 0.401984 0
M  V30 7599 H 727.461 5.87845 -3.25404 0
M  V30 7600 N 730.181 0.707592 1.40822 0
M  V30 7601 C 731.458 0.171172 1.9485 0
M  V30 7602 C 731.838 -1.32143 1.64625 0
M  V30 7603 O 731.186 -2.07372 0.959647 0
M  V30 7604 C 731.396 0.475334 3.45748 0
M  V30 7605 C 732.744 0.409625 4.22619 0
M  V30 7606 O 733.768 0.410934 3.53822 0
M  V30 7607 O 732.627 0.380185 5.45176 0
M  V30 7608 H 729.721 0.022015 0.826707 0
M  V30 7609 H 732.267 0.784577 1.50474 0
M  V30 7610 H 731.039 1.50801 3.61075 0
M  V30 7611 H 730.662 -0.168439 3.97243 0
M  V30 7612 N 731.66 -1.50943 0.453197 0
M  V30 7613 C 732.623 -2.26684 -0.338705 0
M  V30 7614 C 733.623 -1.30748 -0.936032 0
M  V30 7615 O 734.813 -1.54327 -0.808002 0
M  V30 7616 C 731.945 -3.07063 -1.48071 0
M  V30 7617 H 733.138 -2.98131 0.325289 0
M  V30 7618 H 730.691 -1.54926 0.206771 0
M  V30 7619 H 731.426 -2.4007 -2.18029 0
M  V30 7620 H 731.211 -3.77545 -1.0584 0
M  V30 7621 H 732.701 -3.64393 -2.0398 0
M  V30 7622 N 733.138 -0.185124 -1.56509 0
M  V30 7623 C 734.07 0.771401 -2.15829 0
M  V30 7624 C 735.083 1.18392 -1.11747 0
M  V30 7625 O 736.272 1.12137 -1.38879 0
M  V30 7626 C 733.372 2.05169 -2.69739 0
M  V30 7627 C 732.545 1.80056 -3.98621 0
M  V30 7628 C 731.604 2.92435 -4.37456 0
M  V30 7629 O 730.63 2.62473 -5.05071 0
M  V30 7630 N 731.832 4.20554 -4.00143 0
M  V30 7631 H 734.597 0.264184 -2.98533 0
M  V30 7632 H 732.158 -0.00281069 -1.619 0
M  V30 7633 H 734.15 2.7947 -2.92709 0
M  V30 7634 H 732.72 2.47041 -1.91545 0
M  V30 7635 H 731.94 0.895862 -3.83885 0
M  V30 7636 H 733.228 1.60662 -4.82768 0
M  V30 7637 H 732.626 4.47753 -3.45736 0
M  V30 7638 H 731.183 4.91514 -4.28085 0
M  V30 7639 N 734.616 1.57351 0.0885366 0
M  V30 7640 C 735.862 1.86696 0.791996 0
M  V30 7641 C 736.195 0.775148 1.78059 0
M  V30 7642 O 735.47 -0.216247 1.93294 0
M  V30 7643 C 735.753 3.26684 1.51491 0
M  V30 7644 C 735.606 4.465 0.543858 0
M  V30 7645 C 736.925 3.64664 2.46391 0
M  V30 7646 H 734.044 0.679049 0.286463 0
M  V30 7647 H 736.686 1.89919 0.0554866 0
M  V30 7648 H 734.836 3.24067 2.14273 0
M  V30 7649 H 736.508 4.61235 -0.0774597 0
M  V30 7650 H 734.751 4.33567 -0.142228 0
M  V30 7651 H 735.422 5.41192 1.08696 0
M  V30 7652 H 737.898 3.68267 1.93698 0
M  V30 7653 H 736.774 4.63534 2.93986 0
M  V30 7654 H 737.035 2.93698 3.30445 0
M  V30 7655 N 736.094 -0.359525 1.53444 0
M  V30 7656 C 737.343 -1.09886 1.69139 0
M  V30 7657 C 737.656 -1.90285 0.452863 0
M  V30 7658 O 738.862 -2.67033 0.490459 0
M  V30 7659 C 737.318 -2.0028 2.99025 0
M  V30 7660 C 736.926 -1.25164 4.30161 0
M  V30 7661 C 738.67 -2.74168 3.24086 0
M  V30 7662 C 736.577 -2.14494 5.51132 0
M  V30 7663 H 735.507 -0.413936 0.630217 0
M  V30 7664 H 738.158 -0.359434 1.79945 0
M  V30 7665 H 736.54 -2.77978 2.82036 0
M  V30 7666 H 737.714 -0.524867 4.57801 0
M  V30 7667 H 736.029 -0.631116 4.11589 0
M  V30 7668 H 738.626 -3.41243 4.11652 0
M  V30 7669 H 738.969 -3.39868 2.40407 0
M  V30 7670 H 739.502 -2.0355 3.41778 0
M  V30 7671 H 736.241 -1.53362 6.37307 0
M  V30 7672 H 735.761 -2.85004 5.27762 0
M  V30 7673 H 737.44 -2.73914 5.86157 0
M  V30 7674 N 737.572 -1.44907 -0.619662 0
M  V30 7675 C 738.535 -1.52282 -1.71297 0
M  V30 7676 C 739.535 -0.40359 -1.55653 0
M  V30 7677 O 740.725 -0.666638 -1.6094 0
M  V30 7678 C 737.857 -1.40778 -3.10474 0
M  V30 7679 H 739.05 -2.49683 -1.66128 0
M  V30 7680 H 736.603 -1.32168 -0.834339 0
M  V30 7681 H 737.338 -0.445156 -3.2123 0
M  V30 7682 H 737.123 -2.21947 -3.23237 0
M  V30 7683 H 738.613 -1.48946 -3.90135 0
M  V30 7684 N 739.05 0.861098 -1.31996 0
M  V30 7685 C 739.997 1.96912 -1.20392 0
M  V30 7686 C 740.967 1.65869 -0.0875899 0
M  V30 7687 O 742.152 1.88992 -0.262011 0
M  V30 7688 C 739.292 3.32435 -0.926335 0
M  V30 7689 C 738.405 3.76018 -2.12684 0
M  V30 7690 C 737.54 5.00301 -1.78529 0
M  V30 7691 C 736.579 5.36357 -2.94937 0
M  V30 7692 N 735.716 6.51818 -2.60917 0
M  V30 7693 H 740.556 2.06169 -2.1517 0
M  V30 7694 H 738.093 1.00917 -1.07024 0
M  V30 7695 H 740.051 4.10478 -0.745917 0
M  V30 7696 H 738.681 3.22796 -0.0153578 0
M  V30 7697 H 737.733 2.93683 -2.41774 0
M  V30 7698 H 739.045 3.98664 -2.99781 0
M  V30 7699 H 738.199 5.86034 -1.57001 0
M  V30 7700 H 736.938 4.79578 -0.886356 0
M  V30 7701 H 735.943 4.49139 -3.17103 0
M  V30 7702 H 737.168 5.59041 -3.85552 0
M  V30 7703 H 735.114 6.32624 -1.73558 0
M  V30 7704 H 735.031 6.7445 -3.41544 0
M  V30 7705 H 736.299 7.4072 -2.42804 0
M  V30 7706 N 740.528 1.15101 1.07655 0
M  V30 7707 C 741.774 0.925343 1.80458 0
M  V30 7708 C 742.107 -0.546354 1.86356 0
M  V30 7709 O 741.382 -1.40496 1.34503 0
M  V30 7710 C 741.665 1.53646 3.25676 0
M  V30 7711 C 741.518 3.07854 3.27942 0
M  V30 7712 C 742.837 1.21968 4.22861 0
M  V30 7713 H 739.956 0.337592 0.655134 0
M  V30 7714 H 742.598 1.42217 1.25993 0
M  V30 7715 H 740.748 1.11395 3.72187 0
M  V30 7716 H 742.42 3.58989 2.89697 0
M  V30 7717 H 740.663 3.41904 2.66991 0
M  V30 7718 H 741.334 3.45725 4.30324 0
M  V30 7719 H 743.81 1.5851 3.84726 0
M  V30 7720 H 742.686 1.67349 5.22767 0
M  V30 7721 H 742.947 0.136207 4.4189 0
M  V30 7722 N 742.006 -1.2595 0.947325 0
M  V30 7723 C 742.916 -2.29883 0.468079 0
M  V30 7724 C 743.932 -1.67783 -0.460975 0
M  V30 7725 O 745.108 -1.98526 -0.339006 0
M  V30 7726 C 742.173 -3.45773 -0.253315 0
M  V30 7727 C 741.234 -4.23337 0.713054 0
M  V30 7728 C 740.467 -5.33694 0.025993 0
M  V30 7729 O 740.69 -5.57853 -1.18978 0
M  V30 7730 O 739.624 -5.97724 0.70782 0
M  V30 7731 H 743.45 -2.72952 1.33156 0
M  V30 7732 H 741.035 -1.31263 0.713468 0
M  V30 7733 H 742.917 -4.16209 -0.659423 0
M  V30 7734 H 741.592 -3.04721 -1.09209 0
M  V30 7735 H 740.499 -3.55359 1.16923 0
M  V30 7736 H 741.832 -4.68154 1.51963 0
M  V30 7737 N 743.484 -0.715051 -1.40445 0
M  V30 7738 C 744.9 -0.388555 -1.54798 0
M  V30 7739 C 745.1 1.10271 -1.68649 0
M  V30 7740 O 744.156 1.88875 -1.67578 0
M  V30 7741 C 745.469 -1.15414 -2.77669 0
M  V30 7742 C 747.017 -1.14039 -2.91486 0
M  V30 7743 C 747.492 -1.88812 -4.1727 0
M  V30 7744 N 748.983 -1.85878 -4.24268 0
M  V30 7745 C 749.718 -2.40558 -5.20499 0
M  V30 7746 N 749.214 -3.03791 -6.22642 0
M  V30 7747 N 751.007 -2.30703 -5.12574 0
M  V30 7748 H 743.158 -1.68201 -1.297 0
M  V30 7749 H 745.421 -0.710915 -0.627139 0
M  V30 7750 H 745.127 -2.20853 -2.7371 0
M  V30 7751 H 745.001 -0.745412 -3.69761 0
M  V30 7752 H 747.388 -0.0941996 -2.9495 0
M  V30 7753 H 747.469 -1.58834 -2.00513 0
M  V30 7754 H 747.113 -2.93422 -4.14568 0
M  V30 7755 H 747.043 -1.41438 -5.0725 0
M  V30 7756 H 749.534 -1.39794 -3.51093 0
M  V30 7757 H 749.847 -3.43032 -6.92495 0
M  V30 7758 H 748.192 -3.07875 -6.23087 0
M  V30 7759 H 751.383 -1.80961 -4.31707 0
M  V30 7760 H 751.556 -2.73618 -5.87398 0
M  V30 7761 N 744.962 1.50701 -0.461195 0
M  V30 7762 C 746.192 2.06381 0.0950376 0
M  V30 7763 C 746.6 1.32627 1.34933 0
M  V30 7764 O 745.943 0.386137 1.79596 0
M  V30 7765 C 746.005 3.56558 0.458965 0
M  V30 7766 C 745.669 4.51732 -0.691891 0
M  V30 7767 C 746.666 4.95594 -1.57105 0
M  V30 7768 C 744.351 4.94542 -0.879407 0
M  V30 7769 C 746.345 5.80963 -2.62223 0
M  V30 7770 C 744.032 5.79695 -1.93382 0
M  V30 7771 C 745.03 6.22806 -2.80359 0
M  V30 7772 O 744.718 7.06265 -3.83986 0
M  V30 7773 H 744.45 0.676 0.000687488 0
M  V30 7774 H 747.004 1.94974 -0.646087 0
M  V30 7775 H 745.234 3.65832 1.25314 0
M  V30 7776 H 746.923 3.94647 0.949124 0
M  V30 7777 H 747.689 4.63197 -1.43783 0
M  V30 7778 H 743.568 4.60513 -0.211907 0
M  V30 7779 H 747.112 6.14533 -3.30143 0
M  V30 7780 H 743.009 6.11506 -2.06715 0
M  V30 7781 H 743.777 7.24494 -3.80855 0
M  V30 7782 N 746.441 0.193421 1.56409 0
M  V30 7783 C 747.371 -0.723334 2.22014 0
M  V30 7784 C 748.352 -1.22254 1.1827 0
M  V30 7785 O 749.537 -1.27168 1.46771 0
M  V30 7786 C 746.667 -1.94366 2.87818 0
M  V30 7787 C 745.621 -1.57943 3.97791 0
M  V30 7788 C 744.947 -2.87623 4.50752 0
M  V30 7789 C 746.247 -0.790639 5.16281 0
M  V30 7790 H 747.941 -0.176426 2.9888 0
M  V30 7791 H 745.487 -0.0834166 1.43758 0
M  V30 7792 H 747.44 -2.5902 3.32396 0
M  V30 7793 H 746.164 -2.51507 2.08355 0
M  V30 7794 H 744.823 -0.956482 3.53903 0
M  V30 7795 H 744.471 -3.4285 3.68053 0
M  V30 7796 H 744.171 -2.63998 5.24956 0
M  V30 7797 H 745.695 -3.53268 4.9803 0
M  V30 7798 H 747.109 -1.34024 5.57414 0
M  V30 7799 H 745.506 -0.65258 5.96541 0
M  V30 7800 H 746.576 0.208633 4.84451 0
M  V30 7801 N 747.919 -1.57396 -0.0801906 0
M  V30 7802 C 748.866 -2.03107 -1.09618 0
M  V30 7803 C 749.836 -0.910118 -1.38946 0
M  V30 7804 O 751.021 -1.17719 -1.50156 0
M  V30 7805 C 748.161 -2.47293 -2.40708 0
M  V30 7806 C 747.274 -3.72972 -2.17982 0
M  V30 7807 C 746.409 -4.05975 -3.42576 0
M  V30 7808 C 745.448 -5.24719 -3.15177 0
M  V30 7809 N 744.585 -5.53401 -4.32078 0
M  V30 7810 H 749.425 -2.89677 -0.69939 0
M  V30 7811 H 746.962 -1.43263 -0.333785 0
M  V30 7812 H 748.92 -2.7096 -3.17232 0
M  V30 7813 H 747.55 -1.63713 -2.78205 0
M  V30 7814 H 746.602 -3.56693 -1.32189 0
M  V30 7815 H 747.914 -4.59638 -1.93738 0
M  V30 7816 H 747.068 -4.30498 -4.275 0
M  V30 7817 H 745.807 -3.17859 -3.69887 0
M  V30 7818 H 744.812 -5 -2.28648 0
M  V30 7819 H 746.037 -6.14445 -2.89197 0
M  V30 7820 H 743.983 -4.68245 -4.59437 0
M  V30 7821 H 743.9 -6.34469 -4.11078 0
M  V30 7822 H 745.168 -5.8247 -5.18024 0
M  V30 7823 N 749.397 0.351382 -1.53633 0
M  V30 7824 C 750.674 1.10903 -1.6112 0
M  V30 7825 C 751.054 2.06725 -0.427556 0
M  V30 7826 O 750.402 2.20992 0.580916 0
M  V30 7827 C 750.612 1.83561 -2.96827 0
M  V30 7828 C 751.96 2.37587 -3.51906 0
M  V30 7829 O 752.984 1.93669 -2.9895 0
M  V30 7830 O 751.843 3.17913 -4.44515 0
M  V30 7831 H 748.937 0.509558 -0.651368 0
M  V30 7832 H 751.483 0.353504 -1.65977 0
M  V30 7833 H 750.255 1.1371 -3.74414 0
M  V30 7834 H 749.878 2.6599 -2.95525 0
M  V30 7835 N 750.875 1.45233 0.611969 0
M  V30 7836 C 752.105 1.52318 1.39581 0
M  V30 7837 C 752.513 0.153093 1.8858 0
M  V30 7838 O 751.856 -0.854792 1.62601 0
M  V30 7839 C 751.918 2.4426 2.63775 0
M  V30 7840 C 751.582 3.91079 2.36445 0
M  V30 7841 C 752.579 4.81099 1.97079 0
M  V30 7842 C 750.264 4.35958 2.49492 0
M  V30 7843 C 752.258 6.14002 1.71115 0
M  V30 7844 C 749.945 5.68903 2.23142 0
M  V30 7845 C 750.943 6.57744 1.84015 0
M  V30 7846 O 750.631 7.88226 1.5797 0
M  V30 7847 H 750.363 0.518428 0.43383 0
M  V30 7848 H 752.917 1.91067 0.753837 0
M  V30 7849 H 751.147 2.00474 3.30677 0
M  V30 7850 H 752.836 2.42077 3.25812 0
M  V30 7851 H 753.602 4.47692 1.86539 0
M  V30 7852 H 749.481 3.67053 2.78914 0
M  V30 7853 H 753.025 6.83305 1.405 0
M  V30 7854 H 748.922 6.01866 2.33297 0
M  V30 7855 H 749.69 8.00211 1.72058 0
M  V30 7856 N 752.353 -0.854086 1.3245 0
M  V30 7857 C 753.63 -1.59188 1.1366 0
M  V30 7858 C 754.01 -2.08917 -0.302807 0
M  V30 7859 O 753.358 -1.8795 -1.29951 0
M  V30 7860 C 753.568 -2.73757 2.16467 0
M  V30 7861 C 754.916 -3.43323 2.49829 0
M  V30 7862 O 755.94 -2.83983 2.15017 0
M  V30 7863 O 754.799 -4.50409 3.09506 0
M  V30 7864 H 751.893 -0.701092 0.438633 0
M  V30 7865 H 754.439 -0.898165 1.43983 0
M  V30 7866 H 753.211 -2.3454 3.1322 0
M  V30 7867 H 752.834 -3.50804 1.87142 0
M  V30 7868 N 753.831 -1.1567 -1.07043 0
M  V30 7869 C 755.059 -0.957471 -1.83412 0
M  V30 7870 C 755.474 0.494271 -1.82215 0
M  V30 7871 O 754.831 1.34288 -1.23584 0
M  V30 7872 C 754.882 -1.46784 -3.30359 0
M  V30 7873 O 754.603 -2.86271 -3.31633 0
M  V30 7874 C 756.104 -1.31054 -4.23485 0
M  V30 7875 H 753.324 -0.33986 -0.578564 0
M  V30 7876 H 755.868 -1.53518 -1.35102 0
M  V30 7877 H 754.023 -0.932586 -3.76007 0
M  V30 7878 H 754.437 -3.0948 -4.23465 0
M  V30 7879 H 755.911 -1.71605 -5.24648 0
M  V30 7880 H 756.388 -0.255107 -4.38458 0
M  V30 7881 H 756.994 -1.83503 -3.83676 0
M  V30 7882 N 755.309 1.25446 -0.953992 0
M  V30 7883 C 756.534 1.97755 -0.625129 0
M  V30 7884 C 756.959 1.70437 0.795787 0
M  V30 7885 O 756.317 0.95992 1.53803 0
M  V30 7886 C 756.365 3.49463 -0.889251 0
M  V30 7887 O 755.469 4.12387 0.0322757 0
M  V30 7888 H 754.81 0.61998 -0.237742 0
M  V30 7889 H 757.34 1.59582 -1.28041 0
M  V30 7890 H 757.35 3.99772 -0.815263 0
M  V30 7891 H 756.025 3.68676 -1.92487 0
M  V30 7892 H 754.602 3.72782 -0.0938625 0
M  V30 7893 N 756.787 0.722489 1.40064 0
M  V30 7894 C 758.035 0.264455 2.00362 0
M  V30 7895 C 758.356 -1.14847 1.57592 0
M  V30 7896 O 757.626 -1.77982 0.818477 0
M  V30 7897 H 756.206 0.0947846 0.740962 0
M  V30 7898 H 758.868 0.929659 1.71299 0
M  V30 7899 H 757.964 0.302977 3.10626 0
M  V30 7900 N 758.265 -1.50454 0.469181 0
M  V30 7901 C 759.195 -2.31353 -0.31592 0
M  V30 7902 C 760.176 -1.38172 -0.992094 0
M  V30 7903 O 761.361 -1.67093 -0.989633 0
M  V30 7904 C 758.491 -3.1786 -1.39937 0
M  V30 7905 C 757.445 -4.19578 -0.844909 0
M  V30 7906 C 756.771 -4.9481 -2.0265 0
M  V30 7907 C 758.071 -5.22106 0.142499 0
M  V30 7908 H 759.765 -2.97237 0.359269 0
M  V30 7909 H 757.311 -1.42942 0.174224 0
M  V30 7910 H 759.264 -3.7325 -1.95607 0
M  V30 7911 H 757.988 -2.49858 -2.1033 0
M  V30 7912 H 756.647 -3.65285 -0.310189 0
M  V30 7913 H 756.295 -4.23282 -2.71737 0
M  V30 7914 H 755.995 -5.63613 -1.66174 0
M  V30 7915 H 757.519 -5.53035 -2.58815 0
M  V30 7916 H 758.933 -5.72378 -0.324966 0
M  V30 7917 H 757.33 -5.98618 0.421441 0
M  V30 7918 H 758.4 -4.7297 1.06901 0
M  V30 7919 N 759.743 -0.201713 -1.56304 0
M  V30 7920 C 761.02 0.483273 -1.89536 0
M  V30 7921 C 761.4 1.79176 -1.11621 0
M  V30 7922 O 760.748 2.27445 -0.219339 0
M  V30 7923 C 760.958 0.695604 -3.41998 0
M  V30 7924 C 762.306 1.012 -4.12364 0
M  V30 7925 O 763.33 0.783094 -3.47485 0
M  V30 7926 O 762.189 1.44534 -5.27041 0
M  V30 7927 H 759.283 0.252801 -0.787414 0
M  V30 7928 H 761.829 -0.24242 -1.6796 0
M  V30 7929 H 760.601 -0.228165 -3.90634 0
M  V30 7930 H 760.224 1.47351 -3.69288 0
M  V30 7931 N 761.222 1.57436 0.0718424 0
M  V30 7932 C 762.471 1.86431 0.769826 0
M  V30 7933 C 762.784 0.794355 1.78744 0
M  V30 7934 O 763.99 0.972148 2.53499 0
M  V30 7935 C 762.446 3.307 1.42006 0
M  V30 7936 C 762.054 4.45824 0.441017 0
M  V30 7937 C 763.798 3.68894 2.10041 0
M  V30 7938 C 761.705 5.81134 1.09717 0
M  V30 7939 H 760.635 0.695474 0.291259 0
M  V30 7940 H 763.286 1.83485 0.0231224 0
M  V30 7941 H 761.668 3.28257 2.21502 0
M  V30 7942 H 762.842 4.59659 -0.32413 0
M  V30 7943 H 761.157 4.16181 -0.134886 0
M  V30 7944 H 763.754 4.67281 2.59908 0
M  V30 7945 H 764.097 2.98692 2.89981 0
M  V30 7946 H 764.63 3.73326 1.37376 0
M  V30 7947 H 761.369 6.54628 0.338095 0
M  V30 7948 H 760.889 5.711 1.83317 0
M  V30 7949 H 762.568 6.26468 1.617 0
M  V30 7950 N 762.7 -0.34323 1.53817 0
M  V30 7951 C 764.116 -0.686355 1.44088 0
M  V30 7952 C 764.316 -1.92426 0.597882 0
M  V30 7953 O 763.372 -2.52343 0.0889918 0
M  V30 7954 C 764.685 -0.878698 2.87575 0
M  V30 7955 C 766.233 -0.977296 2.97352 0
M  V30 7956 C 766.708 -1.20195 4.41947 0
M  V30 7957 N 768.199 -1.26915 4.45474 0
M  V30 7958 C 768.934 -1.46049 5.54488 0
M  V30 7959 N 768.43 -1.62354 6.73508 0
M  V30 7960 N 770.223 -1.48599 5.42102 0
M  V30 7961 H 762.374 0.470679 2.07119 0
M  V30 7962 H 764.637 0.148652 0.936273 0
M  V30 7963 H 764.343 -0.040602 3.51677 0
M  V30 7964 H 764.217 -1.78034 3.32541 0
M  V30 7965 H 766.604 -1.80591 2.3339 0
M  V30 7966 H 766.685 -0.0525498 2.55746 0
M  V30 7967 H 766.329 -0.378262 5.06489 0
M  V30 7968 H 766.259 -2.14027 4.81145 0
M  V30 7969 H 768.75 -1.15837 3.59708 0
M  V30 7970 H 769.063 -1.76591 7.52353 0
M  V30 7971 H 767.408 -1.5949 6.76453 0
M  V30 7972 H 770.599 -1.35443 4.48077 0
M  V30 7973 H 770.772 -1.6317 6.2712 0
M  V30 7974 N 764.178 -1.45556 -0.604258 0
M  V30 7975 C 765.427 -1.49019 -1.35928 0
M  V30 7976 C 765.74 -0.137409 -1.95117 0
M  V30 7977 O 766.946 -0.0497032 -2.71455 0
M  V30 7978 C 765.402 -2.62477 -2.46239 0
M  V30 7979 C 765.01 -4.04082 -1.93447 0
M  V30 7980 C 766.754 -2.7519 -3.23219 0
M  V30 7981 C 764.661 -5.08917 -3.0126 0
M  V30 7982 H 763.591 -0.554518 -0.510907 0
M  V30 7983 H 766.242 -1.71705 -0.647262 0
M  V30 7984 H 764.624 -2.3308 -3.2014 0
M  V30 7985 H 765.798 -4.43173 -1.26232 0
M  V30 7986 H 764.113 -3.95849 -1.29201 0
M  V30 7987 H 766.71 -3.50683 -4.0364 0
M  V30 7988 H 767.053 -1.81941 -3.74437 0
M  V30 7989 H 767.586 -3.04129 -2.56418 0
M  V30 7990 H 764.325 -6.03886 -2.54955 0
M  V30 7991 H 763.845 -4.74393 -3.67031 0
M  V30 7992 H 765.524 -5.33814 -3.65584 0
M  V30 7993 N 765.656 0.84705 -1.32902 0
M  V30 7994 C 766.586 1.97166 -1.25091 0
M  V30 7995 C 767.567 1.69578 -0.133161 0
M  V30 7996 O 768.752 1.91519 -0.321591 0
M  V30 7997 C 765.882 3.33157 -0.981006 0
M  V30 7998 C 764.836 3.75119 -2.06082 0
M  V30 7999 C 764.162 5.08826 -1.64318 0
M  V30 8000 C 765.462 3.89774 -3.47669 0
M  V30 8001 H 767.156 2.03958 -2.19184 0
M  V30 8002 H 764.702 0.979907 -1.05517 0
M  V30 8003 H 766.655 4.11393 -0.912891 0
M  V30 8004 H 765.379 3.266 -0.00445559 0
M  V30 8005 H 764.038 2.9914 -2.11921 0
M  V30 8006 H 763.686 4.98732 -0.653876 0
M  V30 8007 H 763.386 5.37873 -2.36572 0
M  V30 8008 H 764.91 5.89546 -1.58958 0
M  V30 8009 H 766.324 4.58343 -3.44376 0
M  V30 8010 H 764.721 4.30248 -4.18338 0
M  V30 8011 H 765.791 2.92463 -3.86773 0
M  V30 8012 N 767.134 1.16236 1.06428 0
M  V30 8013 C 768.359 0.967688 1.83441 0
M  V30 8014 C 768.784 -0.479167 1.81894 0
M  V30 8015 O 768.142 -1.34224 1.21875 0
M  V30 8016 C 768.19 1.49806 3.2801 0
M  V30 8017 O 767.294 0.703481 4.06356 0
M  V30 8018 H 766.635 0.344468 0.56766 0
M  V30 8019 H 769.165 1.54442 1.34197 0
M  V30 8020 H 769.175 1.51495 3.78831 0
M  V30 8021 H 767.85 2.55133 3.2845 0
M  V30 8022 H 766.427 0.756986 3.65136 0
M  V30 8023 N 768.612 -1.24939 0.960631 0
M  V30 8024 C 770.023 -1.74701 0.658529 0
M  V30 8025 C 770.374 -1.77967 -0.825959 0
M  V30 8026 O 769.499 -1.40444 -1.64634 0
M  V30 8027 C 770.094 -3.17263 1.18867 0
M  V30 8028 C 768.653 -3.64561 0.936614 0
M  V30 8029 C 767.8 -2.43423 1.32817 0
M  V30 8030 H 770.751 -1.10741 1.13676 0
M  V30 8031 H 770.772 -3.76481 0.551589 0
M  V30 8032 H 770.284 -3.14854 2.26912 0
M  V30 8033 H 768.385 -3.72378 -0.128608 0
M  V30 8034 H 768.498 -4.52392 1.57729 0
M  V30 8035 H 766.862 -2.43513 0.746548 0
M  V30 8036 H 767.645 -2.437 2.41796 0
M  V30 8037 N 770.09 -0.729906 -1.39679 0
M  V30 8038 C 771.336 -0.27603 -2.00913 0
M  V30 8039 C 771.669 1.13227 -1.57776 0
M  V30 8040 O 770.944 1.7709 -0.804319 0
M  V30 8041 C 771.227 -0.372157 -3.58172 0
M  V30 8042 C 771.08 -1.81986 -4.11341 0
M  V30 8043 C 772.399 0.248378 -4.39399 0
M  V30 8044 H 769.518 -0.101773 -0.729939 0
M  V30 8045 H 772.16 -0.925104 -1.65957 0
M  V30 8046 H 770.31 0.180459 -3.88081 0
M  V30 8047 H 771.982 -2.42896 -3.92172 0
M  V30 8048 H 770.225 -2.34287 -3.65092 0
M  V30 8049 H 770.896 -1.83842 -5.20486 0
M  V30 8050 H 773.372 -0.222645 -4.15504 0
M  V30 8051 H 772.248 0.150746 -5.48693 0
M  V30 8052 H 772.509 1.33378 -4.21501 0
M  V30 8053 N 771.568 1.50203 -0.477153 0
M  V30 8054 C 772.478 2.32421 0.319027 0
M  V30 8055 C 773.494 1.43075 0.990233 0
M  V30 8056 O 774.67 1.76123 0.976873 0
M  V30 8057 C 771.735 3.17909 1.38328 0
M  V30 8058 C 770.796 4.23082 0.728036 0
M  V30 8059 C 770.029 5.04484 1.74158 0
M  V30 8060 O 770.252 4.8705 2.96881 0
M  V30 8061 O 769.186 5.8747 1.31006 0
M  V30 8062 H 773.012 3.01638 -0.353281 0
M  V30 8063 H 770.597 1.47478 -0.238891 0
M  V30 8064 H 772.479 3.70937 1.9996 0
M  V30 8065 H 771.154 2.51413 2.03895 0
M  V30 8066 H 770.061 3.7403 0.07261 0
M  V30 8067 H 771.394 4.92065 0.115216 0
M  V30 8068 N 773.046 0.209999 1.56195 0
M  V30 8069 C 774.009 -0.691232 2.18528 0
M  V30 8070 C 775.009 -1.13013 1.14388 0
M  V30 8071 O 776.199 -1.04081 1.39688 0
M  V30 8072 C 773.331 -1.94551 2.79934 0
M  V30 8073 H 774.524 -0.147953 2.99535 0
M  V30 8074 H 772.077 -0.0396243 1.5625 0
M  V30 8075 H 772.812 -2.53094 2.02766 0
M  V30 8076 H 772.597 -1.63938 3.56184 0
M  V30 8077 H 774.087 -2.58785 3.2775 0
M  V30 8078 N 774.524 -1.57472 -0.0634922 0
M  V30 8079 C 775.752 -1.91887 -0.773767 0
M  V30 8080 C 776.167 -0.806733 -1.70696 0
M  V30 8081 O 775.524 0.219383 -1.81177 0
M  V30 8082 C 775.575 -3.26092 -1.56034 0
M  V30 8083 O 775.296 -4.33029 -0.66464 0
M  V30 8084 C 776.797 -3.74573 -2.37087 0
M  V30 8085 H 774.017 -0.634074 -0.219525 0
M  V30 8086 H 776.561 -2.04476 -0.0312828 0
M  V30 8087 H 774.716 -3.15004 -2.25502 0
M  V30 8088 H 775.13 -5.10291 -1.21258 0
M  V30 8089 H 776.604 -4.71084 -2.87722 0
M  V30 8090 H 777.081 -3.04003 -3.16984 0
M  V30 8091 H 777.687 -3.88631 -1.72759 0
M  V30 8092 N 776.003 0.335068 -1.53997 0
M  V30 8093 C 777.419 0.678704 -1.4445 0
M  V30 8094 C 777.619 1.92106 -0.608078 0
M  V30 8095 O 776.675 2.52292 -0.102373 0
M  V30 8096 C 777.988 0.863435 -2.88037 0
M  V30 8097 C 779.536 0.961513 -2.97866 0
M  V30 8098 C 780.011 1.1785 -4.42578 0
M  V30 8099 N 781.502 1.2455 -4.46141 0
M  V30 8100 C 782.237 1.43106 -5.55255 0
M  V30 8101 N 781.733 1.5878 -6.74359 0
M  V30 8102 N 783.526 1.45722 -5.42883 0
M  V30 8103 H 775.677 -0.481656 -2.06867 0
M  V30 8104 H 777.94 -0.153615 -0.935471 0
M  V30 8105 H 777.646 0.0219511 -3.51693 0
M  V30 8106 H 777.52 1.76268 -3.33481 0
M  V30 8107 H 779.907 1.79351 -2.34344 0
M  V30 8108 H 779.988 0.0389862 -2.5577 0
M  V30 8109 H 779.632 0.351397 -5.06683 0
M  V30 8110 H 779.562 2.11472 -4.82273 0
M  V30 8111 H 782.053 1.13928 -3.60318 0
M  V30 8112 H 782.366 1.72599 -7.53279 0
M  V30 8113 H 780.711 1.559 -6.77289 0
M  V30 8114 H 783.902 1.33065 -4.48789 0
M  V30 8115 H 784.075 1.59841 -6.27977 0
M  V30 8116 N 777.481 1.45874 0.596531 0
M  V30 8117 C 778.728 1.50467 1.35521 0
M  V30 8118 C 779.056 0.150802 1.93915 0
M  V30 8119 O 778.311 -0.851913 1.76184 0
M  V30 8120 C 778.61 2.54034 2.51399 0
M  V30 8121 C 778.276 3.9844 2.11085 0
M  V30 8122 C 776.938 4.37758 1.99804 0
M  V30 8123 C 779.29 4.89209 1.79788 0
M  V30 8124 C 776.618 5.65727 1.55465 0
M  V30 8125 C 778.97 6.17602 1.36931 0
M  V30 8126 C 777.634 6.5584 1.24218 0
M  V30 8127 H 776.904 0.550597 0.495907 0
M  V30 8128 H 779.551 1.79279 0.673145 0
M  V30 8129 H 777.856 2.18832 3.24992 0
M  V30 8130 H 779.553 2.54822 3.09624 0
M  V30 8131 H 776.143 3.67353 2.20794 0
M  V30 8132 H 780.327 4.59562 1.87395 0
M  V30 8133 H 775.583 5.94139 1.44253 0
M  V30 8134 H 779.757 6.87373 1.11764 0
M  V30 8135 H 777.384 7.54897 0.896353 0
M  V30 8136 N 778.959 -0.83999 1.33349 0
M  V30 8137 C 780.184 -1.63249 1.27924 0
M  V30 8138 C 780.609 -1.87523 -0.147193 0
M  V30 8139 O 779.967 -1.43853 -1.10345 0
M  V30 8140 C 780.015 -2.96046 2.05886 0
M  V30 8141 O 779.119 -3.87303 1.4167 0
M  V30 8142 H 778.46 -0.49715 0.440157 0
M  V30 8143 H 780.99 -1.04512 1.75893 0
M  V30 8144 H 781 -3.45752 2.16609 0
M  V30 8145 H 779.675 -2.77701 3.09605 0
M  V30 8146 H 778.252 -3.45789 1.39585 0
M  V30 8147 N 780.437 -1.16799 -1.0581 0
M  V30 8148 C 781.367 -0.902241 -2.15364 0
M  V30 8149 C 782.348 0.153351 -1.69407 0
M  V30 8150 O 783.533 0.00442032 -1.94199 0
M  V30 8151 C 780.663 -0.407911 -3.44896 0
M  V30 8152 C 779.617 -1.40197 -4.04387 0
M  V30 8153 C 778.943 -0.765848 -5.29187 0
M  V30 8154 C 780.243 -2.77316 -4.42598 0
M  V30 8155 H 781.937 -1.81841 -2.37853 0
M  V30 8156 H 779.483 -0.875731 -1.14311 0
M  V30 8157 H 781.436 -0.20945 -4.20879 0
M  V30 8158 H 780.16 0.54378 -3.22041 0
M  V30 8159 H 778.819 -1.58707 -3.30466 0
M  V30 8160 H 778.467 0.192482 -5.02632 0
M  V30 8161 H 778.167 -1.42939 -5.69949 0
M  V30 8162 H 779.691 -0.577519 -6.07863 0
M  V30 8163 H 781.105 -2.62561 -5.09642 0
M  V30 8164 H 779.502 -3.4019 -4.94359 0
M  V30 8165 H 780.572 -3.32199 -3.53231 0
M  V30 8166 N 781.915 1.24427 -0.967243 0
M  V30 8167 C 782.878 2.23637 -0.501927 0
M  V30 8168 C 783.878 1.55712 0.401283 0
M  V30 8169 O 785.068 1.73085 0.196808 0
M  V30 8170 C 782.2 3.39804 0.273176 0
M  V30 8171 H 783.393 2.66317 -1.37897 0
M  V30 8172 H 780.946 1.37033 -0.751783 0
M  V30 8173 H 781.681 3.02562 1.16733 0
M  V30 8174 H 781.466 3.90303 -0.37498 0
M  V30 8175 H 782.956 4.13443 0.587776 0
M  V30 8176 N 783.393 0.737304 1.3929 0
M  V30 8177 C 784.809 0.413132 1.5416 0
M  V30 8178 C 785.009 -1.07574 1.70382 0
M  V30 8179 O 784.065 -1.86185 1.70562 0
M  V30 8180 C 785.378 1.19817 2.75798 0
M  V30 8181 C 786.926 1.18662 2.89635 0
M  V30 8182 C 787.401 1.95427 4.14213 0
M  V30 8183 N 788.892 1.92605 4.21257 0
M  V30 8184 C 789.627 2.48808 5.16606 0
M  V30 8185 N 789.123 3.13659 6.1773 0
M  V30 8186 N 790.916 2.38829 5.08839 0
M  V30 8187 H 783.067 1.70243 1.27008 0
M  V30 8188 H 785.33 0.720802 0.61575 0
M  V30 8189 H 785.036 2.25179 2.70161 0
M  V30 8190 H 784.91 0.804144 3.68529 0
M  V30 8191 H 787.297 0.141112 2.94762 0
M  V30 8192 H 787.378 1.62003 1.97961 0
M  V30 8193 H 787.022 2.9998 4.09847 0
M  V30 8194 H 786.952 1.4949 5.04936 0
M  V30 8195 H 789.443 1.45362 3.48824 0
M  V30 8196 H 789.756 3.54006 6.8695 0
M  V30 8197 H 788.101 3.17749 6.1811 0
M  V30 8198 H 791.292 1.87806 4.28773 0
M  V30 8199 H 791.465 2.82929 5.82971 0
M  V30 8200 N 784.871 -1.49948 0.485112 0
M  V30 8201 C 786.12 -2.01589 -0.066765 0
M  V30 8202 C 786.433 -1.371 -1.39509 0
M  V30 8203 O 787.639 -1.79978 -2.03274 0
M  V30 8204 C 786.095 -3.59501 -0.169476 0
M  V30 8205 C 785.703 -4.32955 1.15126 0
M  V30 8206 C 787.447 -4.19138 -0.672564 0
M  V30 8207 C 785.354 -5.82684 1.01158 0
M  V30 8208 H 784.284 -0.753453 -0.0287259 0
M  V30 8209 H 786.935 -1.72632 0.622132 0
M  V30 8210 H 785.317 -3.85106 -0.922471 0
M  V30 8211 H 786.491 -4.19064 1.9163 0
M  V30 8212 H 784.806 -3.84991 1.58654 0
M  V30 8213 H 787.403 -5.28767 -0.794325 0
M  V30 8214 H 787.746 -3.81447 -1.66745 0
M  V30 8215 H 788.279 -3.97793 0.0234415 0
M  V30 8216 H 785.018 -6.24873 1.98025 0
M  V30 8217 H 784.538 -5.99112 0.287151 0
M  V30 8218 H 786.217 -6.43376 0.683847 0
M  V30 8219 N 786.349 -0.21828 -1.56081 0
M  V30 8220 C 787.765 0.137168 -1.59009 0
M  V30 8221 C 787.965 1.59215 -1.23503 0
M  V30 8222 O 787.021 2.33178 -0.968716 0
M  V30 8223 C 788.334 -0.186162 -3.00123 0
M  V30 8224 C 789.882 -0.128135 -3.12738 0
M  V30 8225 C 790.357 -0.425094 -4.56023 0
M  V30 8226 N 791.848 -0.374547 -4.61683 0
M  V30 8227 C 792.583 -0.57786 -5.70481 0
M  V30 8228 N 792.079 -0.842771 -6.87655 0
M  V30 8229 N 793.872 -0.510521 -5.59777 0
M  V30 8230 H 786.023 -1.16746 -1.77437 0
M  V30 8231 H 788.286 -0.467706 -0.824594 0
M  V30 8232 H 787.992 -1.19589 -3.30744 0
M  V30 8233 H 787.866 0.500388 -3.73866 0
M  V30 8234 H 790.253 0.872224 -2.81915 0
M  V30 8235 H 790.334 -0.848112 -2.41331 0
M  V30 8236 H 789.978 -1.42288 -4.87562 0
M  V30 8237 H 789.908 0.316038 -5.25651 0
M  V30 8238 H 792.399 -0.177356 -3.77484 0
M  V30 8239 H 792.712 -0.986095 -7.66483 0
M  V30 8240 H 791.057 -0.879929 -6.89407 0
M  V30 8241 H 794.248 -0.303813 -4.67113 0
M  V30 8242 H 794.421 -0.672378 -6.44502 0
M  V30 8243 N 787.827 1.57504 0.0551401 0
M  V30 8244 C 788.737 2.08198 1.08124 0
M  V30 8245 C 789.753 1.01496 1.41331 0
M  V30 8246 O 790.929 1.33073 1.51174 0
M  V30 8247 C 787.994 2.52968 2.37083 0
M  V30 8248 C 787.055 3.7404 2.10696 0
M  V30 8249 C 786.288 4.16665 3.33505 0
M  V30 8250 O 786.511 3.59019 4.4324 0
M  V30 8251 O 785.445 5.09324 3.20737 0
M  V30 8252 H 789.271 2.95977 0.680518 0
M  V30 8253 H 786.856 1.46933 0.270401 0
M  V30 8254 H 788.738 2.82211 3.12946 0
M  V30 8255 H 787.413 1.6831 2.76502 0
M  V30 8256 H 786.32 3.49855 1.32484 0
M  V30 8257 H 787.653 4.59601 1.76148 0
M  V30 8258 N 789.305 -0.326896 1.54172 0
M  V30 8259 C 790.553 -1.06313 1.71878 0
M  V30 8260 C 790.874 -1.88652 0.493498 0
M  V30 8261 O 790.144 -1.89608 -0.492522 0
M  V30 8262 H 788.724 -0.39549 0.633716 0
M  V30 8263 H 791.386 -0.364139 1.91468 0
M  V30 8264 H 790.482 -1.73105 2.59694 0
M  V30 8265 N 790.784 -1.46188 -0.588786 0
M  V30 8266 C 791.731 -1.56292 -1.69828 0
M  V30 8267 C 792.701 -0.407581 -1.61022 0
M  V30 8268 O 793.886 -0.623532 -1.80324 0
M  V30 8269 C 791.026 -1.55341 -3.08161 0
M  V30 8270 C 790.139 -2.81564 -3.27636 0
M  V30 8271 C 789.274 -2.72158 -4.56183 0
M  V30 8272 C 788.313 -3.93348 -4.68981 0
M  V30 8273 N 787.45 -3.82365 -5.88848 0
M  V30 8274 H 792.29 -2.51066 -1.6053 0
M  V30 8275 H 789.827 -1.24562 -0.782474 0
M  V30 8276 H 791.785 -1.52776 -3.88221 0
M  V30 8277 H 790.415 -0.641034 -3.16371 0
M  V30 8278 H 789.467 -2.94136 -2.41223 0
M  V30 8279 H 790.779 -3.714 -3.32962 0
M  V30 8280 H 789.933 -2.67665 -5.44464 0
M  V30 8281 H 788.672 -1.79953 -4.53286 0
M  V30 8282 H 787.677 -3.98181 -3.7912 0
M  V30 8283 H 788.902 -4.86643 -4.73662 0
M  V30 8284 H 786.848 -2.92942 -5.86959 0
M  V30 8285 H 786.765 -4.65851 -5.95415 0
M  V30 8286 H 788.033 -3.81836 -6.79575 0
M  V30 8287 N 792.262 0.832906 -1.33792 0
M  V30 8288 C 793.539 1.57359 -1.16178 0
M  V30 8289 C 793.919 2.09372 0.269532 0
M  V30 8290 O 793.267 1.89993 1.26944 0
M  V30 8291 C 793.477 2.70279 -2.20795 0
M  V30 8292 C 794.825 3.39305 -2.55259 0
M  V30 8293 O 795.849 2.80526 -2.19508 0
M  V30 8294 O 794.708 4.45428 -3.16632 0
M  V30 8295 H 791.802 0.694025 -0.449731 0
M  V30 8296 H 794.348 0.875144 -1.45394 0
M  V30 8297 H 793.12 2.29527 -3.16911 0
M  V30 8298 H 792.743 3.47782 -1.927 0
M  V30 8299 N 793.74 1.17359 1.05189 0
M  V30 8300 C 794.968 0.986529 1.81866 0
M  V30 8301 C 795.383 -0.46522 1.82979 0
M  V30 8302 O 794.74 -1.32305 1.25705 0
M  V30 8303 C 794.791 1.52021 3.27982 0
M  V30 8304 O 794.512 2.91511 3.27037 0
M  V30 8305 C 796.013 1.37774 4.21347 0
M  V30 8306 H 793.233 0.349021 0.573084 0
M  V30 8307 H 795.777 1.55648 1.32643 0
M  V30 8308 H 793.932 0.992287 3.74476 0
M  V30 8309 H 794.346 3.16178 4.18488 0
M  V30 8310 H 795.82 1.7993 5.21852 0
M  V30 8311 H 796.297 0.32483 4.37997 0
M  V30 8312 H 796.903 1.89583 3.80708 0
M  V30 8313 N 795.218 -1.23913 0.973828 0
M  V30 8314 C 796.467 -1.91455 0.63464 0
M  V30 8315 C 796.78 -1.76893 -0.834759 0
M  V30 8316 O 797.986 -2.3918 -1.28473 0
M  V30 8317 C 796.442 -3.43172 1.08447 0
M  V30 8318 C 796.05 -3.66409 2.57776 0
M  V30 8319 C 797.794 -4.1653 0.818721 0
M  V30 8320 C 795.701 -5.11728 2.9646 0
M  V30 8321 H 794.631 -0.716881 0.233661 0
M  V30 8322 H 797.282 -1.40457 1.18085 0
M  V30 8323 H 795.664 -3.93242 0.466524 0
M  V30 8324 H 796.838 -3.26913 3.24753 0
M  V30 8325 H 795.153 -3.06349 2.82027 0
M  V30 8326 H 797.75 -5.23603 1.08367 0
M  V30 8327 H 798.093 -4.15578 -0.245128 0
M  V30 8328 H 798.626 -3.72428 1.39793 0
M  V30 8329 H 795.365 -5.17806 4.01941 0
M  V30 8330 H 794.885 -5.52199 2.34172 0
M  V30 8331 H 796.564 -5.80009 2.86703 0
M  V30 8332 N 796.696 -0.74468 -1.38897 0
M  V30 8333 C 797.921 -0.306119 -2.05128 0
M  V30 8334 C 798.346 1.0541 -1.55789 0
M  V30 8335 O 797.704 1.66993 -0.705909 0
M  V30 8336 C 797.752 -0.328195 -3.59103 0
M  V30 8337 O 796.856 0.680876 -4.06741 0
M  V30 8338 H 796.197 -0.137209 -0.649669 0
M  V30 8339 H 798.727 -1.01331 -1.77745 0
M  V30 8340 H 798.737 -0.175956 -4.0762 0
M  V30 8341 H 797.412 -1.32067 -3.94374 0
M  V30 8342 H 795.989 0.49398 -3.69614 0
M  V30 8343 N 798.174 1.49689 -0.493057 0
M  V30 8344 C 799.42 2.02727 0.0543518 0
M  V30 8345 C 799.753 1.37264 1.37376 0
M  V30 8346 O 799.028 0.505644 1.87812 0
M  V30 8347 C 799.311 3.59456 0.215226 0
M  V30 8348 C 799.164 4.35459 -1.12675 0
M  V30 8349 C 800.483 4.29511 0.959586 0
M  V30 8350 H 797.602 0.736773 0.0182786 0
M  V30 8351 H 800.244 1.78792 -0.642924 0
M  V30 8352 H 798.394 3.79981 0.809122 0
M  V30 8353 H 800.066 4.2645 -1.75891 0
M  V30 8354 H 798.309 3.9833 -1.71801 0
M  V30 8355 H 798.98 5.43454 -0.967578 0
M  V30 8356 H 801.456 4.13594 0.455977 0
M  V30 8357 H 800.332 5.38939 1.04098 0
M  V30 8358 H 800.593 3.94202 2.00144 0
M  V30 8359 N 799.652 0.226554 1.55963 0
M  V30 8360 C 800.88 -0.408507 2.02827 0
M  V30 8361 C 801.295 -1.52994 1.10627 0
M  V30 8362 O 800.652 -1.82126 0.116809 0
M  V30 8363 C 800.703 -0.93545 3.49187 0
M  V30 8364 O 800.424 0.141273 4.37872 0
M  V30 8365 C 801.925 -1.64325 4.11719 0
M  V30 8366 H 799.145 -0.099442 0.66359 0
M  V30 8367 H 801.689 0.344471 2.01578 0
M  V30 8368 H 799.844 -1.63868 3.51036 0
M  V30 8369 H 800.258 -0.25558 5.23877 0
M  V30 8370 H 801.732 -1.9639 5.15883 0
M  V30 8371 H 802.209 -2.55815 3.57009 0
M  V30 8372 H 802.815 -0.9851 4.13734 0
M  V30 8373 N 801.13 -1.57531 -0.0467866 0
M  V30 8374 C 802.378 -1.88078 -0.739656 0
M  V30 8375 C 802.699 -0.821936 -1.76831 0
M  V30 8376 O 801.969 0.146582 -1.95351 0
M  V30 8377 H 800.549 -0.694075 -0.276169 0
M  V30 8378 H 803.211 -1.94893 -0.0169391 0
M  V30 8379 H 802.307 -2.86396 -1.24031 0
M  V30 8380 N 802.608 0.318715 -1.54344 0
M  V30 8381 C 803.556 1.41254 -1.84798 0
M  V30 8382 C 804.55 1.53325 -0.720256 0
M  V30 8383 O 805.756 1.55653 -0.903992 0
M  V30 8384 H 802.131 0.471468 -0.585851 0
M  V30 8385 H 804.102 1.12795 -2.7626 0
M  V30 8386 C 802.851 2.77395 -2.09637 0
M  V30 8387 H 802.174 2.68881 -2.95876 0
M  V30 8388 H 803.614 3.52987 -2.34896 0
M  V30 8389 C 802.073 3.24948 -0.889398 0
M  V30 8390 O 802.603 4.01573 -0.101063 0
M  V30 8391 N 800.809 2.82051 -0.699684 0
M  V30 8392 H 800.356 2.19858 -1.3424 0
M  V30 8393 H 800.314 3.1422 0.106368 0
M  V30 8394 N 804.086 1.46499 0.581025 0
M  V30 8395 C 805.332 1.52121 1.34116 0
M  V30 8396 C 805.665 0.173031 1.93428 0
M  V30 8397 O 804.94 -0.815729 1.76568 0
M  V30 8398 C 805.223 2.62108 2.46924 0
M  V30 8399 C 805.076 4.06462 1.92636 0
M  V30 8400 C 806.395 2.68167 3.48962 0
M  V30 8401 H 803.514 0.5538 0.486287 0
M  V30 8402 H 806.156 1.78443 0.652538 0
M  V30 8403 H 804.306 2.39794 3.05665 0
M  V30 8404 H 805.978 4.40068 1.3834 0
M  V30 8405 H 804.221 4.15862 1.23455 0
M  V30 8406 H 804.892 4.79152 2.74076 0
M  V30 8407 H 807.368 2.8823 3.00104 0
M  V30 8408 H 806.244 3.46942 4.2535 0
M  V30 8409 H 806.505 1.74284 4.06297 0
M  V30 8410 N 805.565 -0.825799 1.34232 0
M  V30 8411 C 806.495 -1.95151 1.28212 0
M  V30 8412 C 807.476 -1.69345 0.160123 0
M  V30 8413 O 808.661 -1.90983 0.352019 0
M  V30 8414 C 805.791 -3.31554 1.03388 0
M  V30 8415 C 804.745 -3.71793 2.12023 0
M  V30 8416 C 804.071 -5.06147 1.72392 0
M  V30 8417 C 805.371 -3.84193 3.53826 0
M  V30 8418 H 807.065 -2.00445 2.22401 0
M  V30 8419 H 804.611 -0.962996 1.07063 0
M  V30 8420 H 806.564 -4.09889 0.978225 0
M  V30 8421 H 805.288 -3.26551 0.0564142 0
M  V30 8422 H 803.947 -2.95731 2.16654 0
M  V30 8423 H 803.595 -4.97628 0.733137 0
M  V30 8424 H 803.295 -5.34041 2.451 0
M  V30 8425 H 804.819 -5.86943 1.68317 0
M  V30 8426 H 806.233 -4.52806 3.51624 0
M  V30 8427 H 804.63 -4.23538 4.2513 0
M  V30 8428 H 805.7 -2.86272 3.91377 0
M  V30 8429 N 807.043 -1.17915 -1.04565 0
M  V30 8430 C 808.459 -0.927761 -1.29864 0
M  V30 8431 C 808.659 0.409536 -1.97294 0
M  V30 8432 O 807.715 1.14505 -2.25044 0
M  V30 8433 C 809.028 -2.08967 -2.16225 0
M  V30 8434 C 810.576 -2.12741 -2.29587 0
M  V30 8435 C 811.051 -3.28335 -3.19312 0
M  V30 8436 N 812.542 -3.28164 -3.26898 0
M  V30 8437 C 813.277 -4.14249 -3.96466 0
M  V30 8438 N 812.773 -5.10457 -4.68407 0
M  V30 8439 N 814.566 -4.02179 -3.92694 0
M  V30 8440 H 806.717 -2.03983 -0.592011 0
M  V30 8441 H 808.98 -0.891023 -0.323701 0
M  V30 8442 H 808.686 -3.05654 -1.73979 0
M  V30 8443 H 808.56 -2.04606 -3.16885 0
M  V30 8444 H 810.947 -1.16636 -2.71072 0
M  V30 8445 H 811.028 -2.21162 -1.28535 0
M  V30 8446 H 810.672 -4.2471 -2.78539 0
M  V30 8447 H 810.602 -3.17151 -4.20384 0
M  V30 8448 H 813.093 -2.58511 -2.75646 0
M  V30 8449 H 813.406 -5.72526 -5.1907 0
M  V30 8450 H 811.751 -5.14422 -4.67328 0
M  V30 8451 H 814.942 -3.26308 -3.3562 0
M  V30 8452 H 815.115 -4.69486 -4.4664 0
M  V30 8453 N 808.521 1.23394 -0.980386 0
M  V30 8454 C 809.798 1.87242 -0.565667 0
M  V30 8455 C 810.178 1.88151 0.957197 0
M  V30 8456 O 809.526 1.36309 1.8339 0
M  V30 8457 C 809.736 3.28743 -1.17172 0
M  V30 8458 C 811.084 4.05335 -1.26446 0
M  V30 8459 O 812.108 3.37962 -1.12517 0
M  V30 8460 O 810.967 5.25908 -1.48604 0
M  V30 8461 H 808.061 0.80477 -0.190459 0
M  V30 8462 H 810.607 1.3127 -1.07547 0
M  V30 8463 H 809.379 3.22647 -2.21392 0
M  V30 8464 H 809.002 3.92305 -0.646739 0
M  V30 8465 N 809.999 0.752036 1.385 0
M  V30 8466 C 811.229 0.317812 2.04141 0
M  V30 8467 C 811.637 -1.05822 1.56839 0
M  V30 8468 O 810.98 -1.68311 0.736016 0
M  V30 8469 C 811.042 0.260205 3.58557 0
M  V30 8470 C 810.706 1.57753 4.28909 0
M  V30 8471 C 811.703 2.52642 4.54387 0
M  V30 8472 C 809.388 1.84653 4.67128 0
M  V30 8473 C 811.382 3.72653 5.17116 0
M  V30 8474 C 809.069 3.04938 5.29581 0
M  V30 8475 C 810.067 3.98759 5.54509 0
M  V30 8476 O 809.755 5.16929 6.15662 0
M  V30 8477 H 809.487 0.133931 0.6626 0
M  V30 8478 H 812.041 1.02138 1.78205 0
M  V30 8479 H 810.271 -0.499596 3.83459 0
M  V30 8480 H 811.96 -0.144295 4.05643 0
M  V30 8481 H 812.726 2.33135 4.25292 0
M  V30 8482 H 808.605 1.12464 4.47071 0
M  V30 8483 H 812.149 4.45898 5.36489 0
M  V30 8484 H 808.046 3.24339 5.58099 0
M  V30 8485 H 808.814 5.1749 6.3415 0
M  V30 8486 N 811.477 -1.49425 0.500989 0
M  V30 8487 C 812.407 -2.31971 -0.266775 0
M  V30 8488 C 813.388 -1.40245 -0.962563 0
M  V30 8489 O 814.573 -1.69154 -0.953968 0
M  V30 8490 C 811.703 -3.20757 -1.33163 0
M  V30 8491 C 810.657 -4.21275 -0.75572 0
M  V30 8492 C 809.983 -4.98997 -1.92109 0
M  V30 8493 C 811.283 -5.21686 0.253213 0
M  V30 8494 H 812.977 -2.96408 0.422237 0
M  V30 8495 H 810.523 -1.4254 0.204505 0
M  V30 8496 H 812.476 -3.77315 -1.87646 0
M  V30 8497 H 811.2 -2.54263 -2.04983 0
M  V30 8498 H 809.859 -3.65861 -0.232637 0
M  V30 8499 H 809.507 -4.28951 -2.62698 0
M  V30 8500 H 809.207 -5.67011 -1.54182 0
M  V30 8501 H 810.731 -5.584 -2.47026 0
M  V30 8502 H 812.145 -5.72939 -0.203483 0
M  V30 8503 H 810.542 -5.9759 0.548322 0
M  V30 8504 H 811.612 -4.70596 1.16909 0
M  V30 8505 N 812.955 -0.234822 -1.55841 0
M  V30 8506 C 814.183 0.397745 -2.03041 0
M  V30 8507 C 814.598 1.52405 -1.11437 0
M  V30 8508 O 813.955 1.82061 -0.126466 0
M  V30 8509 C 814.006 0.916919 -3.49678 0
M  V30 8510 O 813.727 -0.164493 -4.37791 0
M  V30 8511 C 815.228 1.62139 -4.12584 0
M  V30 8512 H 812.448 0.0959214 -0.664108 0
M  V30 8513 H 814.992 -0.355156 -2.01392 0
M  V30 8514 H 813.147 1.62004 -3.519 0
M  V30 8515 H 813.561 0.227794 -5.24005 0
M  V30 8516 H 815.035 1.93651 -5.16917 0
M  V30 8517 H 815.512 2.53918 -3.58361 0
M  V30 8518 H 816.118 0.963145 -4.14251 0
M  V30 8519 N 814.433 1.57553 0.0384317 0
M  V30 8520 C 815.71 1.79977 0.766002 0
M  V30 8521 C 816.09 0.830625 1.94072 0
M  V30 8522 O 815.438 -0.129243 2.28134 0
M  V30 8523 C 815.648 3.27434 1.20781 0
M  V30 8524 C 816.996 3.92167 1.62758 0
M  V30 8525 O 818.02 3.31527 1.30263 0
M  V30 8526 O 816.879 4.98917 2.23035 0
M  V30 8527 H 813.973 0.739787 0.369654 0
M  V30 8528 H 816.519 1.69693 0.0159312 0
M  V30 8529 H 815.291 3.89558 0.368792 0
M  V30 8530 H 814.914 3.42571 2.01819 0
M  V30 8531 N 815.911 -0.310526 1.54511 0
M  V30 8532 C 816.841 -1.38757 1.878 0
M  V30 8533 C 817.822 -1.53353 0.735991 0
M  V30 8534 O 819.007 -1.67018 0.990887 0
M  V30 8535 C 816.137 -2.75327 2.11689 0
M  V30 8536 C 815.091 -2.75506 3.27537 0
M  V30 8537 C 814.417 -4.15275 3.36824 0
M  V30 8538 C 815.717 -2.38093 4.64875 0
M  V30 8539 H 817.411 -1.11146 2.78005 0
M  V30 8540 H 814.957 -0.533232 1.33763 0
M  V30 8541 H 816.91 -3.50752 2.33562 0
M  V30 8542 H 815.634 -3.04443 1.18245 0
M  V30 8543 H 814.293 -2.02538 3.05572 0
M  V30 8544 H 813.941 -4.41553 2.40915 0
M  V30 8545 H 813.641 -4.16299 4.14692 0
M  V30 8546 H 815.165 -4.92493 3.60947 0
M  V30 8547 H 816.579 -3.03232 4.86542 0
M  V30 8548 H 814.976 -2.50345 5.45387 0
M  V30 8549 H 816.046 -1.33227 4.66239 0
M  V30 8550 N 817.389 -1.46805 -0.573248 0
M  V30 8551 C 818.636 -1.52604 -1.3311 0
M  V30 8552 C 818.964 -0.181633 -1.9365 0
M  V30 8553 O 818.219 0.823775 -1.77517 0
M  V30 8554 C 818.518 -2.58001 -2.47326 0
M  V30 8555 C 818.184 -4.01747 -2.04719 0
M  V30 8556 C 816.846 -4.40881 -1.92814 0
M  V30 8557 C 819.198 -4.92008 -1.71982 0
M  V30 8558 C 816.526 -5.68129 -1.46445 0
M  V30 8559 C 818.878 -6.19703 -1.27089 0
M  V30 8560 C 817.542 -6.57733 -1.13768 0
M  V30 8561 H 816.812 -0.558417 -0.487084 0
M  V30 8562 H 819.459 -1.80327 -0.644538 0
M  V30 8563 H 817.764 -2.23974 -3.2147 0
M  V30 8564 H 819.461 -2.59715 -3.05531 0
M  V30 8565 H 816.051 -3.70819 -2.14922 0
M  V30 8566 H 820.235 -4.62485 -1.8006 0
M  V30 8567 H 815.491 -5.96359 -1.34783 0
M  V30 8568 H 819.665 -6.89064 -1.00814 0
M  V30 8569 H 817.292 -7.56228 -0.776142 0
M  V30 8570 N 818.867 0.818669 -1.34668 0
M  V30 8571 C 820.278 1.39177 -1.24446 0
M  V30 8572 C 820.629 1.9578 0.128268 0
M  V30 8573 O 819.754 1.90382 1.02877 0
M  V30 8574 C 820.349 2.53012 -2.25323 0
M  V30 8575 C 818.908 3.06218 -2.18878 0
M  V30 8576 C 818.055 1.79112 -2.11694 0
M  V30 8577 H 821.006 0.622709 -1.45973 0
M  V30 8578 H 821.027 3.31226 -1.8727 0
M  V30 8579 H 820.539 2.11784 -3.25221 0
M  V30 8580 H 818.64 3.51939 -1.22351 0
M  V30 8581 H 818.753 3.65019 -3.10319 0
M  V30 8582 H 817.117 2.0018 -1.57481 0
M  V30 8583 H 817.9 1.40053 -3.13433 0
M  V30 8584 N 820.346 1.18468 1.03938 0
M  V30 8585 C 821.595 0.975193 1.76558 0
M  V30 8586 C 821.908 -0.495978 1.89207 0
M  V30 8587 O 823.114 -0.824009 2.58694 0
M  V30 8588 C 821.57 1.69579 3.17444 0
M  V30 8589 C 821.178 3.20636 3.12884 0
M  V30 8590 C 822.922 1.56917 3.94433 0
M  V30 8591 C 820.829 3.8533 4.48636 0
M  V30 8592 H 819.759 0.361244 0.66183 0
M  V30 8593 H 822.41 1.41854 1.16403 0
M  V30 8594 H 820.792 1.18022 3.78004 0
M  V30 8595 H 821.966 3.79228 2.61768 0
M  V30 8596 H 820.281 3.33454 2.49394 0
M  V30 8597 H 822.878 2.02611 4.94826 0
M  V30 8598 H 823.221 0.521638 4.13019 0
M  V30 8599 H 823.754 2.05762 3.40451 0
M  V30 8600 H 820.493 4.90136 4.35255 0
M  V30 8601 H 820.013 3.31526 4.99851 0
M  V30 8602 H 821.692 3.88269 5.17549 0
M  V30 8603 N 821.824 -1.22873 0.986916 0
M  V30 8604 C 822.757 -2.23154 0.477245 0
M  V30 8605 C 823.735 -1.55981 -0.459206 0
M  V30 8606 O 824.919 -1.84503 -0.386141 0
M  V30 8607 C 822.046 -3.37289 -0.308838 0
M  V30 8608 C 821.092 -4.22637 0.572717 0
M  V30 8609 S 821.925 -4.95758 2.02446 0
M  V30 8610 C 823.081 -6.13338 1.2477 0
M  V30 8611 H 823.314 -2.6604 1.32702 0
M  V30 8612 H 820.847 -1.32455 0.793415 0
M  V30 8613 H 822.805 -4.03472 -0.756351 0
M  V30 8614 H 821.466 -2.92922 -1.13381 0
M  V30 8615 H 820.659 -5.0399 -0.0318024 0
M  V30 8616 H 820.261 -3.61555 0.956746 0
M  V30 8617 H 822.553 -6.7556 0.51231 0
M  V30 8618 H 823.496 -6.78189 2.03629 0
M  V30 8619 H 823.904 -5.59311 0.763622 0
M  V30 8620 N 823.302 -0.75937 -1.38099 0
M  V30 8621 C 824.212 -0.13774 -2.34195 0
M  V30 8622 C 825.228 0.693985 -1.59561 0
M  V30 8623 O 826.404 0.616792 -1.91723 0
M  V30 8624 C 823.469 0.740535 -3.38699 0
M  V30 8625 C 822.53 -0.106225 -4.29169 0
M  V30 8626 C 821.763 0.730225 -5.28681 0
M  V30 8627 O 821.986 1.96796 -5.35376 0
M  V30 8628 O 820.92 0.145969 -6.01723 0
M  V30 8629 H 824.746 -0.931512 -2.89061 0
M  V30 8630 H 822.331 -0.520345 -1.40046 0
M  V30 8631 H 824.213 1.24232 -4.02672 0
M  V30 8632 H 822.888 1.51271 -2.8618 0
M  V30 8633 H 821.795 -0.654088 -3.68337 0
M  V30 8634 H 823.128 -0.841186 -4.84959 0
M  V30 8635 N 824.78 1.49157 -0.508906 0
M  V30 8636 C 825.71 2.32109 0.254469 0
M  V30 8637 C 826.691 1.40754 0.955111 0
M  V30 8638 O 827.876 1.69658 0.944983 0
M  V30 8639 C 825.006 3.21458 1.3146 0
M  V30 8640 C 823.96 4.2167 0.733368 0
M  V30 8641 C 823.286 5.00009 1.8946 0
M  V30 8642 C 824.586 5.21544 -0.280875 0
M  V30 8643 H 826.28 2.9618 -0.43795 0
M  V30 8644 H 823.826 1.4243 -0.212062 0
M  V30 8645 H 825.779 3.78305 1.85643 0
M  V30 8646 H 824.503 2.55346 2.03632 0
M  V30 8647 H 823.162 3.65979 0.213231 0
M  V30 8648 H 822.81 4.30338 2.60419 0
M  V30 8649 H 822.51 5.67821 1.51173 0
M  V30 8650 H 824.034 5.59702 2.44061 0
M  V30 8651 H 825.448 5.73039 0.173095 0
M  V30 8652 H 823.845 5.97291 -0.580006 0
M  V30 8653 H 824.915 4.69969 -1.19404 0
M  V30 8654 N 826.258 0.243083 1.55714 0
M  V30 8655 C 827.506 -0.381964 1.98458 0
M  V30 8656 C 827.827 -1.58745 1.13247 0
M  V30 8657 O 827.097 -1.94723 0.214384 0
M  V30 8658 H 825.677 -0.144114 0.732967 0
M  V30 8659 H 828.339 0.340985 1.91894 0
M  V30 8660 H 827.435 -0.693702 3.04293 0
M  V30 8661 N 827.736 -1.57571 -0.0300757 0
M  V30 8662 C 828.964 -1.93485 -0.732891 0
M  V30 8663 C 829.379 -0.842758 -1.68947 0
M  V30 8664 O 828.736 0.180904 -1.81601 0
M  V30 8665 C 828.787 -3.29328 -1.49082 0
M  V30 8666 O 828.508 -4.34341 -0.572639 0
M  V30 8667 C 830.009 -3.79517 -2.29088 0
M  V30 8668 H 827.229 -0.638588 -0.206026 0
M  V30 8669 H 829.773 -2.04496 0.0120966 0
M  V30 8670 H 827.928 -3.19716 -2.1877 0
M  V30 8671 H 828.342 -5.12748 -1.10406 0
M  V30 8672 H 829.816 -4.77081 -2.77665 0
M  V30 8673 H 830.293 -3.10659 -3.10464 0
M  V30 8674 H 830.899 -3.92208 -1.64477 0
M  V30 8675 N 829.214 0.302327 -1.54673 0
M  V30 8676 C 830.439 1.06103 -1.78205 0
M  V30 8677 C 830.864 1.80204 -0.53926 0
M  V30 8678 O 830.222 1.73975 0.510142 0
M  V30 8679 C 830.27 2.01829 -2.98827 0
M  V30 8680 O 829.374 3.10108 -2.71858 0
M  V30 8681 H 828.715 0.30487 -0.589873 0
M  V30 8682 H 831.245 0.340153 -2.01753 0
M  V30 8683 H 831.255 2.44319 -3.2676 0
M  V30 8684 H 829.93 1.473 -3.88942 0
M  V30 8685 H 828.507 2.72142 -2.54937 0
M  V30 8686 N 830.692 1.47107 0.565454 0
M  V30 8687 C 831.655 1.58535 1.65527 0
M  V30 8688 C 832.655 0.461081 1.54048 0
M  V30 8689 O 833.845 0.725911 1.58355 0
M  V30 8690 C 830.977 1.52204 3.05036 0
M  V30 8691 H 832.17 2.55676 1.56747 0
M  V30 8692 H 829.723 1.35174 0.78471 0
M  V30 8693 H 830.458 0.564071 3.19357 0
M  V30 8694 H 830.243 2.3379 3.14777 0
M  V30 8695 H 831.733 1.63322 3.84338 0
M  V30 8696 N 832.17 -0.811516 1.35101 0
M  V30 8697 C 833.117 -1.92308 1.27617 0
M  V30 8698 C 834.087 -1.6543 0.149091 0
M  V30 8699 O 835.272 -1.8789 0.331974 0
M  V30 8700 C 832.412 -3.28768 1.04908 0
M  V30 8701 C 831.525 -3.67865 2.26493 0
M  V30 8702 C 830.66 -4.9333 1.96974 0
M  V30 8703 C 829.699 -5.25041 3.1464 0
M  V30 8704 N 828.836 -6.41685 2.84929 0
M  V30 8705 H 833.676 -1.98041 2.22674 0
M  V30 8706 H 831.213 -0.968755 1.10696 0
M  V30 8707 H 833.171 -4.07426 0.897749 0
M  V30 8708 H 831.801 -3.22517 0.135151 0
M  V30 8709 H 830.853 -2.84507 2.52507 0
M  V30 8710 H 832.165 -3.87263 3.14371 0
M  V30 8711 H 831.319 -5.79803 1.78643 0
M  V30 8712 H 830.058 -4.75958 1.06374 0
M  V30 8713 H 829.063 -4.3706 3.33554 0
M  V30 8714 H 830.288 -5.44346 4.06035 0
M  V30 8715 H 828.234 -6.25747 1.96918 0
M  V30 8716 H 828.151 -6.6131 3.66341 0
M  V30 8717 H 829.419 -7.31198 2.70128 0
M  V30 8718 N 833.648 -1.19017 -1.03309 0
M  V30 8719 C 834.581 -0.867457 -2.1107 0
M  V30 8720 C 835.559 0.173752 -1.61669 0
M  V30 8721 O 836.743 0.0510077 -1.88431 0
M  V30 8722 C 833.87 -0.297459 -3.37391 0
M  V30 8723 C 832.916 -1.31706 -4.05655 0
M  V30 8724 S 833.749 -2.87591 -4.51721 0
M  V30 8725 C 834.905 -2.32122 -5.81266 0
M  V30 8726 H 835.138 -1.78008 -2.38119 0
M  V30 8727 H 832.671 -1.01686 -1.16187 0
M  V30 8728 H 834.629 0.0248889 -4.10492 0
M  V30 8729 H 833.29 0.5934 -3.08444 0
M  V30 8730 H 832.483 -0.867264 -4.96482 0
M  V30 8731 H 832.085 -1.58603 -3.38705 0
M  V30 8732 H 834.377 -1.70855 -6.55603 0
M  V30 8733 H 835.32 -3.2128 -6.31019 0
M  V30 8734 H 835.728 -1.74858 -5.36736 0
M  V30 8735 N 835.127 1.22348 -0.993418 0
M  V30 8736 C 836.057 2.26584 -0.564088 0
M  V30 8737 C 837.038 1.65102 0.409298 0
M  V30 8738 O 838.223 1.91872 0.299819 0
M  V30 8739 C 835.353 3.47087 0.121554 0
M  V30 8740 C 834.307 4.21009 -0.770429 0
M  V30 8741 C 833.633 5.34678 0.0481586 0
M  V30 8742 C 834.933 4.79636 -2.06752 0
M  V30 8743 H 836.627 2.62749 -1.43538 0
M  V30 8744 H 834.173 1.26303 -0.691628 0
M  V30 8745 H 836.126 4.19166 0.433303 0
M  V30 8746 H 834.85 3.1002 1.0274 0
M  V30 8747 H 833.509 3.50764 -1.06583 0
M  V30 8748 H 833.157 4.93852 0.954933 0
M  V30 8749 H 832.857 5.85061 -0.545641 0
M  V30 8750 H 834.381 6.09573 0.353991 0
M  V30 8751 H 835.795 5.43654 -1.81969 0
M  V30 8752 H 834.192 5.4036 -2.61019 0
M  V30 8753 H 835.262 3.99659 -2.74592 0
M  V30 8754 N 836.605 0.766683 1.37694 0
M  V30 8755 C 837.83 0.338715 2.04615 0
M  V30 8756 C 838.255 -1.02918 1.57447 0
M  V30 8757 O 837.613 -1.65849 0.732386 0
M  V30 8758 C 837.661 0.385284 3.58536 0
M  V30 8759 O 836.765 -0.616081 4.07772 0
M  V30 8760 H 836.106 0.147527 0.647404 0
M  V30 8761 H 838.636 1.04146 1.7611 0
M  V30 8762 H 838.646 0.240782 4.07289 0
M  V30 8763 H 837.321 1.38325 3.92223 0
M  V30 8764 H 835.898 -0.435115 3.70353 0
M  V30 8765 N 838.083 -1.48885 0.516809 0
M  V30 8766 C 839.332 -2.01686 -0.0239899 0
M  V30 8767 C 839.645 -1.40029 -1.3657 0
M  V30 8768 O 840.851 -1.84249 -1.9941 0
M  V30 8769 C 839.307 -3.59779 -0.0931825 0
M  V30 8770 C 838.915 -4.30416 1.24283 0
M  V30 8771 C 840.659 -4.20471 -0.583507 0
M  V30 8772 C 838.566 -5.80408 1.13494 0
M  V30 8773 H 837.496 -0.753892 -0.0127376 0
M  V30 8774 H 840.147 -1.71273 0.65861 0
M  V30 8775 H 838.529 -3.86976 -0.840577 0
M  V30 8776 H 839.703 -4.14905 2.00476 0
M  V30 8777 H 838.018 -3.81539 1.66785 0
M  V30 8778 H 840.615 -5.30333 -0.681987 0
M  V30 8779 H 840.958 -3.84898 -1.58617 0
M  V30 8780 H 841.491 -3.97654 0.107814 0
M  V30 8781 H 838.23 -6.20532 2.11235 0
M  V30 8782 H 837.75 -5.98368 0.414167 0
M  V30 8783 H 839.429 -6.41781 0.820162 0
M  V30 8784 N 839.561 -0.251338 -1.55583 0
M  V30 8785 C 840.807 0.37272 -1.99346 0
M  V30 8786 C 841.14 1.57266 -1.13934 0
M  V30 8787 O 840.415 1.9343 -0.20377 0
M  V30 8788 C 840.698 0.778245 -3.5159 0
M  V30 8789 C 840.551 -0.427394 -4.47765 0
M  V30 8790 C 841.87 1.62358 -4.09057 0
M  V30 8791 H 838.989 0.134002 -0.724715 0
M  V30 8792 H 841.631 -0.353536 -1.86682 0
M  V30 8793 H 839.781 1.39704 -3.62512 0
M  V30 8794 H 841.453 -1.06586 -4.48818 0
M  V30 8795 H 839.696 -1.06972 -4.20404 0
M  V30 8796 H 840.367 -0.10025 -5.51909 0
M  V30 8797 H 842.843 1.1012 -4.01264 0
M  V30 8798 H 841.719 1.87617 -5.1584 0
M  V30 8799 H 841.98 2.59688 -3.57791 0
M  V30 8800 N 841.039 1.57585 0.0217189 0
M  V30 8801 C 842.45 1.7787 0.567377 0
M  V30 8802 C 842.801 0.883337 1.7519 0
M  V30 8803 O 841.926 0.0800819 2.16252 0
M  V30 8804 C 842.521 3.2257 1.03606 0
M  V30 8805 C 841.08 3.44026 1.52718 0
M  V30 8806 C 840.227 2.73313 0.468545 0
M  V30 8807 H 843.178 1.57377 -0.2045 0
M  V30 8808 H 843.199 3.29488 1.9031 0
M  V30 8809 H 842.711 3.87711 0.173739 0
M  V30 8810 H 840.812 2.8407 2.41111 0
M  V30 8811 H 840.925 4.52659 1.56962 0
M  V30 8812 H 839.289 2.37299 0.925263 0
M  V30 8813 H 840.072 3.41141 -0.384438 0
M  V30 8814 N 842.517 -0.29412 1.54831 0
M  V30 8815 C 843.447 -1.36757 1.89261 0
M  V30 8816 C 844.428 -1.52564 0.752214 0
M  V30 8817 O 845.613 -1.65958 1.00855 0
M  V30 8818 C 842.743 -2.73066 2.14597 0
M  V30 8819 C 841.697 -2.72017 3.3044 0
M  V30 8820 C 841.023 -4.11679 3.4121 0
M  V30 8821 C 842.323 -2.33149 4.67375 0
M  V30 8822 H 844.017 -1.08191 2.79169 0
M  V30 8823 H 841.563 -0.519014 1.34321 0
M  V30 8824 H 843.516 -3.48255 2.37269 0
M  V30 8825 H 842.24 -3.03172 1.21467 0
M  V30 8826 H 840.899 -1.99285 3.07703 0
M  V30 8827 H 840.547 -4.38973 2.45584 0
M  V30 8828 H 840.247 -4.11877 4.19084 0
M  V30 8829 H 841.771 -4.88637 3.6615 0
M  V30 8830 H 843.185 -2.98054 4.89731 0
M  V30 8831 H 841.582 -2.44546 5.48012 0
M  V30 8832 H 842.652 -1.28275 4.67626 0
M  V30 8833 N 843.995 -1.47404 -0.557645 0
M  V30 8834 C 844.928 -1.54399 -1.68036 0
M  V30 8835 C 845.906 -0.396175 -1.577 0
M  V30 8836 O 847.09 -0.603911 -1.78564 0
M  V30 8837 C 844.217 -1.44611 -3.06277 0
M  V30 8838 C 843.263 -2.63889 -3.35059 0
M  V30 8839 S 844.096 -4.26086 -3.24362 0
M  V30 8840 C 845.252 -4.1885 -4.65097 0
M  V30 8841 H 845.485 -2.49384 -1.61849 0
M  V30 8842 H 843.018 -1.35597 -0.738429 0
M  V30 8843 H 844.976 -1.39651 -3.86015 0
M  V30 8844 H 843.637 -0.510114 -3.0993 0
M  V30 8845 H 842.83 -2.53103 -4.35838 0
M  V30 8846 H 842.432 -2.65969 -2.62938 0
M  V30 8847 H 844.724 -3.87077 -5.56037 0
M  V30 8848 H 845.667 -5.19714 -4.8094 0
M  V30 8849 H 846.075 -3.49717 -4.43123 0
M  V30 8850 N 845.473 0.80434 -1.35529 0
M  V30 8851 C 846.698 1.598 -1.32207 0
M  V30 8852 C 847.123 1.87848 0.0974226 0
M  V30 8853 O 846.481 1.46728 1.06492 0
M  V30 8854 C 846.529 2.90483 -2.13663 0
M  V30 8855 O 845.633 3.83411 -1.51888 0
M  V30 8856 H 844.974 0.485305 -0.453183 0
M  V30 8857 H 847.504 0.998119 -1.78602 0
M  V30 8858 H 847.514 3.39888 -2.257 0
M  V30 8859 H 846.189 2.69395 -3.16859 0
M  V30 8860 H 844.766 3.41967 -1.48704 0
M  V30 8861 N 846.951 1.19563 1.02676 0
M  V30 8862 C 848.199 0.997593 1.75763 0
M  V30 8863 C 848.52 -0.47253 1.89188 0
M  V30 8864 O 847.79 -1.34214 1.42701 0
M  V30 8865 H 846.37 0.366128 0.651122 0
M  V30 8866 H 849.032 1.50495 1.23844 0
M  V30 8867 H 848.128 1.44741 2.76508 0
M  V30 8868 N 848.429 -1.21819 0.999893 0
M  V30 8869 C 849.677 -1.90375 0.678351 0
M  V30 8870 C 849.998 -1.78155 -0.792824 0
M  V30 8871 O 849.268 -1.17319 -1.56885 0
M  V30 8872 H 847.848 -0.704661 0.247915 0
M  V30 8873 H 850.51 -1.48021 1.2679 0
M  V30 8874 H 849.606 -2.97385 0.947023 0
M  V30 8875 N 849.908 -0.773975 -1.37286 0
M  V30 8876 C 851.156 -0.338636 -1.99243 0
M  V30 8877 C 851.477 1.08919 -1.61746 0
M  V30 8878 O 850.747 1.74822 -0.88397 0
M  V30 8879 H 849.327 -0.12222 -0.736934 0
M  V30 8880 H 851.989 -0.992595 -1.67731 0
M  V30 8881 H 851.085 -0.418055 -3.09287 0
M  V30 8882 N 851.386 1.48609 -0.524698 0
M  V30 8883 C 852.316 2.32366 0.229837 0
M  V30 8884 C 853.297 1.41759 0.940129 0
M  V30 8885 O 854.482 1.7065 0.926936 0
M  V30 8886 C 851.612 3.22835 1.28043 0
M  V30 8887 C 850.566 4.22424 0.688603 0
M  V30 8888 C 849.892 5.0199 1.84146 0
M  V30 8889 C 851.192 5.21217 -0.336176 0
M  V30 8890 H 852.886 2.95698 -0.469339 0
M  V30 8891 H 850.432 1.42197 -0.227156 0
M  V30 8892 H 852.385 3.80253 1.8162 0
M  V30 8893 H 851.109 2.57492 2.00912 0
M  V30 8894 H 849.768 3.66185 0.174402 0
M  V30 8895 H 849.416 4.33076 2.5584 0
M  V30 8896 H 849.116 5.69392 1.45142 0
M  V30 8897 H 850.64 5.62259 2.38111 0
M  V30 8898 H 852.054 5.7319 0.112307 0
M  V30 8899 H 850.451 5.96642 -0.643324 0
M  V30 8900 H 851.521 4.68676 -1.24381 0
M  V30 8901 N 852.864 0.259585 1.55447 0
M  V30 8902 C 854.111 -0.361607 1.99245 0
M  V30 8903 C 854.439 -1.57017 1.14787 0
M  V30 8904 O 853.694 -1.94658 0.201724 0
M  V30 8905 C 853.993 -0.802727 3.48269 0
M  V30 8906 C 853.659 0.299472 4.49904 0
M  V30 8907 C 852.321 0.602157 4.77418 0
M  V30 8908 C 854.673 1.04295 5.10658 0
M  V30 8909 C 852.001 1.65217 5.62957 0
M  V30 8910 C 854.353 2.08257 5.97337 0
M  V30 8911 C 853.017 2.39177 6.23178 0
M  V30 8912 H 852.287 -0.132322 0.72909 0
M  V30 8913 H 854.934 0.370059 1.8789 0
M  V30 8914 H 853.239 -1.61381 3.5702 0
M  V30 8915 H 854.936 -1.29385 3.79553 0
M  V30 8916 H 851.526 0.0534256 4.28567 0
M  V30 8917 H 855.71 0.822358 4.89439 0
M  V30 8918 H 850.966 1.89692 5.81229 0
M  V30 8919 H 855.14 2.6635 6.43452 0
M  V30 8920 H 852.767 3.20677 6.89253 0
M  V30 8921 N 854.342 -1.57594 -0.0133615 0
M  V30 8922 C 855.252 -2.10991 -1.02566 0
M  V30 8923 C 856.268 -1.05208 -1.3859 0
M  V30 8924 O 857.444 -1.37034 -1.47593 0
M  V30 8925 C 854.509 -2.59165 -2.30292 0
M  V30 8926 C 853.57 -3.79495 -2.00704 0
M  V30 8927 C 852.803 -4.25361 -3.22341 0
M  V30 8928 O 853.026 -3.70645 -4.33565 0
M  V30 8929 O 851.96 -5.17649 -3.07121 0
M  V30 8930 H 855.786 -2.97678 -0.601806 0
M  V30 8931 H 853.371 -1.47598 -0.23135 0
M  V30 8932 H 855.253 -2.90409 -3.05354 0
M  V30 8933 H 853.928 -1.75582 -2.71942 0
M  V30 8934 H 852.835 -3.53245 -1.23161 0
M  V30 8935 H 854.168 -4.64109 -1.639 0
M  V30 8936 N 855.82 0.285905 -1.54985 0
M  V30 8937 C 857.048 1.03776 -1.78992 0
M  V30 8938 C 857.463 1.80402 -0.556814 0
M  V30 8939 O 856.82 1.76242 0.473801 0
M  V30 8940 C 856.871 2.0065 -3.00702 0
M  V30 8941 O 856.592 1.27131 -4.19249 0
M  V30 8942 C 858.093 2.87753 -3.37214 0
M  V30 8943 H 855.313 0.307126 -0.596586 0
M  V30 8944 H 857.857 0.3206 -2.01971 0
M  V30 8945 H 856.012 2.67847 -2.79887 0
M  V30 8946 H 856.426 1.92316 -4.8797 0
M  V30 8947 H 857.9 3.51548 -4.2558 0
M  V30 8948 H 858.377 3.56848 -2.56039 0
M  V30 8949 H 858.983 2.26065 -3.60242 0
M  V30 8950 N 857.298 1.47698 0.54982 0
M  V30 8951 C 858.546 1.54397 1.30407 0
M  V30 8952 C 858.867 0.211026 1.93855 0
M  V30 8953 O 858.137 -0.765701 1.80316 0
M  V30 8954 H 856.717 0.568747 0.484289 0
M  V30 8955 H 859.379 1.84042 0.641444 0
M  V30 8956 H 858.475 2.31449 2.09375 0
M  V30 8957 N 858.776 -0.797141 1.35954 0
M  V30 8958 C 859.739 -1.89104 1.29508 0
M  V30 8959 C 860.739 -1.59495 0.204444 0
M  V30 8960 O 861.929 -1.68051 0.458746 0
M  V30 8961 C 859.061 -3.25726 1.00576 0
M  V30 8962 H 860.254 -1.96237 2.26785 0
M  V30 8963 H 857.807 -0.994075 1.20614 0
M  V30 8964 H 858.542 -3.24279 0.0372519 0
M  V30 8965 H 858.327 -3.48604 1.79492 0
M  V30 8966 H 859.817 -4.0578 0.986508 0
M  V30 8967 N 860.254 -1.20106 -1.0204 0
M  V30 8968 C 861.502 -1.0069 -1.75231 0
M  V30 8969 C 861.823 0.462491 -1.89436 0
M  V30 8970 O 861.093 1.33455 -1.4341 0
M  V30 8971 H 859.673 -0.369576 -0.649171 0
M  V30 8972 H 862.335 -1.51149 -1.23044 0
M  V30 8973 H 861.431 -1.46205 -2.75736 0
M  V30 8974 N 861.732 1.21287 -1.00634 0
M  V30 8975 C 862.98 1.90013 -0.688438 0
M  V30 8976 C 863.301 1.78573 0.783365 0
M  V30 8977 O 862.571 1.1815 1.56261 0
M  V30 8978 H 861.151 0.703336 -0.251648 0
M  V30 8979 H 863.813 1.47346 -1.27574 0
M  V30 8980 H 862.909 2.96879 -0.962781 0
M  V30 8981 N 863.21 0.781244 1.36873 0
M  V30 8982 C 864.435 0.360398 2.04245 0
M  V30 8983 C 864.86 -1.01242 1.58529 0
M  V30 8984 O 864.218 -1.65063 0.749936 0
M  V30 8985 C 864.266 0.42329 3.58107 0
M  V30 8986 O 863.37 -0.572796 4.08403 0
M  V30 8987 H 862.711 0.154386 0.645803 0
M  V30 8988 H 865.241 1.06008 1.74996 0
M  V30 8989 H 865.251 0.283967 4.07011 0
M  V30 8990 H 863.926 1.42477 3.90734 0
M  V30 8991 H 862.503 -0.395809 3.70793 0
M  V30 8992 N 864.689 -1.48329 0.532571 0
M  V30 8993 C 865.652 -2.2816 -0.218069 0
M  V30 8994 C 866.652 -1.35526 -0.865409 0
M  V30 8995 O 867.842 -1.58394 -0.725061 0
M  V30 8996 C 864.974 -3.1448 -1.31586 0
M  V30 8997 H 866.167 -2.95987 0.482865 0
M  V30 8998 H 863.72 -1.53612 0.288603 0
M  V30 8999 H 864.455 -2.5129 -2.04997 0
M  V30 9000 H 864.24 -3.82625 -0.856779 0
M  V30 9001 H 865.73 -3.74693 -1.84377 0
M  V30 9002 N 866.167 -0.267825 -1.55308 0
M  V30 9003 C 867.578 0.231344 -1.85261 0
M  V30 9004 C 867.929 1.56006 -1.18982 0
M  V30 9005 O 867.054 2.1111 -0.475554 0
M  V30 9006 C 867.649 0.426537 -3.36104 0
M  V30 9007 C 866.208 0.869945 -3.66209 0
M  V30 9008 C 865.355 -0.0409522 -2.7727 0
M  V30 9009 H 868.306 -0.489821 -1.50952 0
M  V30 9010 H 868.327 1.26616 -3.58816 0
M  V30 9011 H 867.839 -0.540678 -3.84315 0
M  V30 9012 H 865.94 1.84889 -3.23492 0
M  V30 9013 H 866.053 0.712316 -4.73775 0
M  V30 9014 H 864.417 0.474097 -2.50249 0
M  V30 9015 H 865.2 -1.00392 -3.28293 0
M  V30 9016 N 867.645 1.57599 0.00500368 0
M  V30 9017 C 868.592 2.08106 0.998025 0
M  V30 9018 C 869.562 0.975374 1.34446 0
M  V30 9019 O 870.747 1.24749 1.44369 0
M  V30 9020 C 867.887 2.58496 2.28635 0
M  V30 9021 C 867 3.82947 1.99939 0
M  V30 9022 C 866.135 4.21857 3.22816 0
M  V30 9023 C 865.174 5.39159 2.89783 0
M  V30 9024 N 864.311 5.73386 4.05183 0
M  V30 9025 H 869.151 2.92684 0.560385 0
M  V30 9026 H 866.688 1.44692 0.265053 0
M  V30 9027 H 868.646 2.85787 3.03943 0
M  V30 9028 H 867.276 1.768 2.70077 0
M  V30 9029 H 866.328 3.62594 1.1502 0
M  V30 9030 H 867.64 4.68358 1.71588 0
M  V30 9031 H 866.794 4.50404 4.06474 0
M  V30 9032 H 865.533 3.35145 3.54301 0
M  V30 9033 H 864.538 5.1034 2.04532 0
M  V30 9034 H 865.763 6.27543 2.59551 0
M  V30 9035 H 863.709 4.89632 4.36574 0
M  V30 9036 H 863.626 6.53359 3.80339 0
M  V30 9037 H 864.894 6.06522 4.89644 0
M  V30 9038 N 869.123 -0.277682 1.55134 0
M  V30 9039 C 870.073 -1.34531 1.8408 0
M  V30 9040 C 871.057 -1.44904 0.699393 0
M  V30 9041 O 872.249 -1.48664 0.960623 0
M  V30 9042 C 869.378 -2.7064 2.11208 0
M  V30 9043 C 868.464 -2.64396 3.31596 0
M  V30 9044 N 868.855 -2.2777 4.51613 0
M  V30 9045 C 867.153 -2.95464 3.34091 0
M  V30 9046 C 867.854 -2.31401 5.33693 0
M  V30 9047 N 866.83 -2.69688 4.71984 0
M  V30 9048 H 870.632 -1.05214 2.74421 0
M  V30 9049 H 868.146 -0.486311 1.54948 0
M  V30 9050 H 870.143 -3.47649 2.301 0
M  V30 9051 H 868.803 -3.00849 1.22148 0
M  V30 9052 H 869.814 -1.99827 4.77797 0
M  V30 9053 H 866.491 -3.30415 2.5521 0
M  V30 9054 H 867.881 -2.05685 6.39643 0
M  V30 9055 N 870.601 -1.47988 -0.541979 0
M  V30 9056 C 871.847 -1.55623 -1.30036 0
M  V30 9057 C 872.18 -0.224254 -1.92901 0
M  V30 9058 O 871.455 0.768629 -1.78668 0
M  V30 9059 C 871.738 -2.68562 -2.39888 0
M  V30 9060 C 871.591 -4.11426 -1.81792 0
M  V30 9061 C 872.91 -2.77325 -3.41729 0
M  V30 9062 H 870.029 -0.566498 -0.471433 0
M  V30 9063 H 872.671 -1.8011 -0.604998 0
M  V30 9064 H 870.821 -2.47814 -2.992 0
M  V30 9065 H 872.493 -4.43581 -1.26624 0
M  V30 9066 H 870.736 -4.18989 -1.12386 0
M  V30 9067 H 871.407 -4.8625 -2.61276 0
M  V30 9068 H 873.883 -2.96085 -2.92357 0
M  V30 9069 H 872.759 -3.58097 -4.16002 0
M  V30 9070 H 873.02 -1.84995 -4.01534 0
M  V30 9071 N 872.079 0.78992 -1.36375 0
M  V30 9072 C 873.011 1.91113 -1.26524 0
M  V30 9073 C 874.024 1.61747 -0.184851 0
M  V30 9074 O 875.213 1.73004 -0.439524 0
M  V30 9075 C 872.313 3.25908 -0.92937 0
M  V30 9076 C 871.486 3.83057 -2.11154 0
M  V30 9077 C 870.545 4.96289 -1.74881 0
M  V30 9078 O 869.571 5.12834 -2.46962 0
M  V30 9079 N 870.773 5.76478 -0.682193 0
M  V30 9080 H 873.538 2.00085 -2.23128 0
M  V30 9081 H 871.099 0.968165 -1.29762 0
M  V30 9082 H 873.091 3.99151 -0.667884 0
M  V30 9083 H 871.661 3.12556 -0.0524843 0
M  V30 9084 H 870.881 3.01808 -2.53586 0
M  V30 9085 H 872.169 4.1797 -2.90135 0
M  V30 9086 H 871.567 5.65638 -0.0836661 0
M  V30 9087 H 870.124 6.50026 -0.480529 0
M  V30 9088 N 873.557 1.20646 1.01402 0
M  V30 9089 C 874.489 0.915392 2.10127 0
M  V30 9090 C 875.502 -0.0978705 1.62506 0
M  V30 9091 O 876.691 0.133477 1.78 0
M  V30 9092 C 873.791 0.351304 3.37074 0
M  V30 9093 C 872.964 1.41673 4.13821 0
M  V30 9094 C 872.023 0.8635 5.19067 0
M  V30 9095 O 871.049 1.54481 5.47836 0
M  V30 9096 N 872.251 -0.325799 5.79585 0
M  V30 9097 H 875.016 1.85132 2.35682 0
M  V30 9098 H 872.577 1.11048 1.17813 0
M  V30 9099 H 874.569 -0.032996 4.04687 0
M  V30 9100 H 873.139 -0.489242 3.08748 0
M  V30 9101 H 872.359 1.97526 3.41141 0
M  V30 9102 H 873.647 2.1342 4.61876 0
M  V30 9103 H 873.045 -0.896534 5.58551 0
M  V30 9104 H 871.602 -0.651708 6.48534 0
M  V30 9105 N 875.035 -1.20752 1.01276 0
M  V30 9106 C 876.282 -1.90021 0.699887 0
M  V30 9107 C 876.61 -1.78604 -0.770113 0
M  V30 9108 O 875.865 -1.16195 -1.57471 0
M  V30 9109 C 876.164 -3.40808 1.07633 0
M  V30 9110 C 875.83 -3.72423 2.54189 0
M  V30 9111 C 874.492 -3.80762 2.94234 0
M  V30 9112 C 876.844 -3.87025 3.49086 0
M  V30 9113 C 874.172 -4.01158 4.28123 0
M  V30 9114 C 876.524 -4.0893 4.82658 0
M  V30 9115 C 875.188 -4.15498 5.22415 0
M  V30 9116 H 874.458 -0.695335 0.256107 0
M  V30 9117 H 877.105 -1.43096 1.27263 0
M  V30 9118 H 875.41 -3.89521 0.421944 0
M  V30 9119 H 877.107 -3.92693 0.811997 0
M  V30 9120 H 873.697 -3.66529 2.22158 0
M  V30 9121 H 877.881 -3.79942 3.19309 0
M  V30 9122 H 873.137 -4.04476 4.58486 0
M  V30 9123 H 877.311 -4.19172 5.56119 0
M  V30 9124 H 874.938 -4.31055 6.26176 0
M  V30 9125 N 876.513 -0.788492 -1.36457 0
M  V30 9126 C 877.443 -0.200468 -2.32638 0
M  V30 9127 C 878.424 0.664031 -1.56603 0
M  V30 9128 O 879.609 0.598045 -1.84762 0
M  V30 9129 C 876.739 0.666274 -3.40849 0
M  V30 9130 C 875.693 -0.0982574 -4.27887 0
M  V30 9131 C 875.019 0.889018 -5.27258 0
M  V30 9132 C 876.319 -1.28692 -5.06197 0
M  V30 9133 H 878.013 -1.00399 -2.82065 0
M  V30 9134 H 875.559 -0.484237 -1.35614 0
M  V30 9135 H 877.512 1.08757 -4.07124 0
M  V30 9136 H 876.236 1.50249 -2.89987 0
M  V30 9137 H 874.895 -0.500525 -3.63167 0
M  V30 9138 H 874.543 1.72024 -4.7267 0
M  V30 9139 H 874.243 0.381909 -5.86358 0
M  V30 9140 H 875.767 1.30891 -5.96406 0
M  V30 9141 H 877.181 -0.941429 -5.65517 0
M  V30 9142 H 875.578 -1.72726 -5.74705 0
M  V30 9143 H 876.648 -2.08273 -4.37893 0
M  V30 9144 N 877.991 1.48044 -0.54043 0
M  V30 9145 C 878.901 2.33565 0.220163 0
M  V30 9146 C 879.917 1.47146 0.928659 0
M  V30 9147 O 881.093 1.80107 0.901295 0
M  V30 9148 C 878.158 3.2349 1.2472 0
M  V30 9149 C 877.219 4.25789 0.547938 0
M  V30 9150 C 876.452 5.11417 1.52605 0
M  V30 9151 O 876.675 4.99204 2.75956 0
M  V30 9152 O 875.609 5.92498 1.05972 0
M  V30 9153 H 879.435 2.99868 -0.480898 0
M  V30 9154 H 877.02 1.46332 -0.301226 0
M  V30 9155 H 878.902 3.79084 1.84047 0
M  V30 9156 H 877.577 2.59835 1.93048 0
M  V30 9157 H 876.484 3.74001 -0.0860941 0
M  V30 9158 H 877.817 4.92111 -0.0935896 0
M  V30 9159 N 879.47 0.276058 1.55163 0
M  V30 9160 C 880.38 -0.621066 2.2623 0
M  V30 9161 C 881.396 -1.16931 1.28853 0
M  V30 9162 O 882.572 -1.1994 1.61791 0
M  V30 9163 C 879.637 -1.78824 2.97023 0
M  V30 9164 C 878.698 -1.27657 4.09881 0
M  V30 9165 C 877.931 -2.38812 4.77289 0
M  V30 9166 O 878.154 -3.58188 4.43912 0
M  V30 9167 O 877.088 -2.06915 5.65217 0
M  V30 9168 H 880.914 -0.0453346 3.03666 0
M  V30 9169 H 878.499 0.0434275 1.49337 0
M  V30 9170 H 880.381 -2.46877 3.41511 0
M  V30 9171 H 879.056 -2.35104 2.22503 0
M  V30 9172 H 877.963 -0.56248 3.69847 0
M  V30 9173 H 879.296 -0.759509 4.86305 0
M  V30 9174 N 880.948 -1.576 0.00335426 0
M  V30 9175 C 882.196 -1.90336 -0.679446 0
M  V30 9176 C 882.517 -0.877777 -1.74127 0
M  V30 9177 O 881.787 0.0843585 -1.95718 0
M  V30 9178 H 880.367 -0.702509 -0.253948 0
M  V30 9179 H 883.029 -1.94848 0.0450731 0
M  V30 9180 H 882.125 -2.90197 -1.14857 0
M  V30 9181 N 882.426 0.269451 -1.5528 0
M  V30 9182 C 883.656 1.01724 -1.79821 0
M  V30 9183 C 884.064 1.80298 -0.573532 0
M  V30 9184 O 883.407 1.77666 0.466963 0
M  V30 9185 C 883.469 2.02043 -2.97353 0
M  V30 9186 C 883.133 1.42375 -4.34256 0
M  V30 9187 C 884.13 0.837611 -5.13108 0
M  V30 9188 C 881.815 1.44988 -4.8092 0
M  V30 9189 C 883.809 0.285557 -6.3676 0
M  V30 9190 C 881.496 0.893969 -6.04526 0
M  V30 9191 C 882.494 0.312809 -6.82283 0
M  V30 9192 O 882.182 -0.234582 -8.03558 0
M  V30 9193 H 881.914 0.30604 -0.602757 0
M  V30 9194 H 884.468 0.30454 -2.0313 0
M  V30 9195 H 882.698 2.77082 -2.69745 0
M  V30 9196 H 884.387 2.6298 -3.09187 0
M  V30 9197 H 885.153 0.81009 -4.78187 0
M  V30 9198 H 881.032 1.89162 -4.20403 0
M  V30 9199 H 884.576 -0.168696 -6.97396 0
M  V30 9200 H 880.473 0.918742 -6.38928 0
M  V30 9201 H 881.241 -0.124282 -8.18406 0
M  V30 9202 N 883.904 1.48273 0.534124 0
M  V30 9203 C 884.834 1.6538 1.64839 0
M  V30 9204 C 885.815 0.502741 1.62501 0
M  V30 9205 O 887 0.734799 1.79762 0
M  V30 9206 C 884.13 1.68949 3.03436 0
M  V30 9207 C 883.084 2.83513 3.20631 0
M  V30 9208 C 882.41 2.72169 4.60248 0
M  V30 9209 C 883.71 4.24858 3.03797 0
M  V30 9210 H 885.404 2.58663 1.50777 0
M  V30 9211 H 882.95 1.24479 0.723937 0
M  V30 9212 H 884.903 1.79505 3.81256 0
M  V30 9213 H 883.627 0.722415 3.1851 0
M  V30 9214 H 882.286 2.72505 2.45227 0
M  V30 9215 H 881.934 1.7344 4.72152 0
M  V30 9216 H 881.634 3.49042 4.72698 0
M  V30 9217 H 883.158 2.84687 5.40172 0
M  V30 9218 H 884.572 4.36721 3.71413 0
M  V30 9219 H 882.969 5.02697 3.27743 0
M  V30 9220 H 884.039 4.41611 2.0027 0
M  V30 9221 N 885.382 -0.782676 1.36792 0
M  V30 9222 C 886.798 -1.08169 1.17352 0
M  V30 9223 C 886.998 -2.015 0.0022037 0
M  V30 9224 O 886.054 -2.43692 -0.661093 0
M  V30 9225 C 887.367 -1.68969 2.48737 0
M  V30 9226 C 888.915 -1.81278 2.55161 0
M  V30 9227 C 889.39 -2.45492 3.86649 0
M  V30 9228 N 890.881 -2.52954 3.88032 0
M  V30 9229 C 891.616 -3.03465 4.86515 0
M  V30 9230 N 891.112 -3.54232 5.95392 0
M  V30 9231 N 892.905 -3.02239 4.73928 0
M  V30 9232 H 885.056 -0.162757 2.11775 0
M  V30 9233 H 887.319 -0.134823 0.938364 0
M  V30 9234 H 887.025 -1.07859 3.34753 0
M  V30 9235 H 886.899 -2.68397 2.65034 0
M  V30 9236 H 889.286 -2.41524 1.69559 0
M  V30 9237 H 889.367 -0.806367 2.42758 0
M  V30 9238 H 889.011 -1.85889 4.7266 0
M  V30 9239 H 888.941 -3.46718 3.96351 0
M  V30 9240 H 891.432 -2.17014 3.09376 0
M  V30 9241 H 891.745 -3.91145 6.66503 0
M  V30 9242 H 890.09 -3.52366 5.99052 0
M  V30 9243 H 893.281 -2.61871 3.87996 0
M  V30 9244 H 893.454 -3.41295 5.50837 0
M  V30 9245 N 886.86 -1.21182 -1.00761 0
M  V30 9246 C 888.106 -1.03903 -1.74859 0
M  V30 9247 C 888.461 0.423347 -1.87685 0
M  V30 9248 O 887.754 1.31001 -1.39819 0
M  V30 9249 C 887.948 -1.6667 -3.16158 0
M  V30 9250 C 887.777 -3.1886 -3.1711 0
M  V30 9251 C 886.547 -3.87888 -3.23838 0
M  V30 9252 C 888.745 -4.15978 -3.02434 0
M  V30 9253 N 886.727 -5.27289 -3.14388 0
M  V30 9254 C 888.098 -5.42114 -3.00854 0
M  V30 9255 C 890.153 -4.0706 -2.86717 0
M  V30 9256 C 888.856 -6.60358 -2.85166 0
M  V30 9257 C 890.882 -5.24938 -2.72386 0
M  V30 9258 C 890.244 -6.49983 -2.71479 0
M  V30 9259 H 886.343 -0.434522 -0.650165 0
M  V30 9260 H 888.927 -1.53495 -1.1978 0
M  V30 9261 H 887.098 -1.19649 -3.69511 0
M  V30 9262 H 888.83 -1.42622 -3.78736 0
M  V30 9263 H 885.585 -3.38798 -3.30927 0
M  V30 9264 H 886.009 -6.00293 -3.13013 0
M  V30 9265 H 890.651 -3.11183 -2.86226 0
M  V30 9266 H 888.369 -7.56399 -2.84405 0
M  V30 9267 H 891.955 -5.19857 -2.61228 0
M  V30 9268 H 890.835 -7.39662 -2.6052 0
M  V30 9269 N 888.338 1.20213 -1.01915 0
M  V30 9270 C 889.615 1.85348 -0.62495 0
M  V30 9271 C 889.995 1.91101 0.896854 0
M  V30 9272 O 889.343 1.42075 1.78961 0
M  V30 9273 C 889.553 3.24849 -1.27571 0
M  V30 9274 C 890.901 4.01107 -1.39277 0
M  V30 9275 O 891.925 3.34211 -1.23212 0
M  V30 9276 O 890.784 5.20914 -1.6526 0
M  V30 9277 H 887.878 0.798303 -0.215965 0
M  V30 9278 H 890.424 1.27782 -1.11669 0
M  V30 9279 H 889.196 3.1544 -2.31545 0
M  V30 9280 H 888.819 3.90049 -0.77122 0
M  V30 9281 N 889.816 0.795718 1.36037 0
M  V30 9282 C 891.041 0.38204 2.03851 0
M  V30 9283 C 891.466 -0.995553 1.59594 0
M  V30 9284 O 890.824 -1.64258 0.767401 0
M  V30 9285 C 890.872 0.461248 3.57638 0
M  V30 9286 O 889.976 -0.529448 4.08987 0
M  V30 9287 H 889.317 0.161227 0.644129 0
M  V30 9288 H 891.847 1.07858 1.73861 0
M  V30 9289 H 891.857 0.32712 4.06687 0
M  V30 9290 H 890.532 1.46613 3.89201 0
M  V30 9291 H 889.109 -0.35646 3.71192 0
M  V30 9292 N 891.294 -1.47756 0.548274 0
M  V30 9293 C 892.224 -2.32702 -0.19284 0
M  V30 9294 C 893.205 -1.43237 -0.917457 0
M  V30 9295 O 894.39 -1.72103 -0.89967 0
M  V30 9296 C 891.52 -3.24831 -1.22891 0
M  V30 9297 C 890.474 -4.23466 -0.621312 0
M  V30 9298 C 889.8 -5.04856 -1.76137 0
M  V30 9299 C 891.1 -5.20616 0.419055 0
M  V30 9300 H 892.794 -2.94914 0.516323 0
M  V30 9301 H 890.34 -1.41818 0.24975 0
M  V30 9302 H 892.293 -3.83094 -1.75547 0
M  V30 9303 H 891.017 -2.60656 -1.9679 0
M  V30 9304 H 889.676 -3.66416 -0.116123 0
M  V30 9305 H 889.324 -4.37091 -2.48918 0
M  V30 9306 H 889.024 -5.71629 -1.36065 0
M  V30 9307 H 890.548 -5.65976 -2.29136 0
M  V30 9308 H 891.962 -5.73296 -0.0211034 0
M  V30 9309 H 890.359 -5.95543 0.738163 0
M  V30 9310 H 891.429 -4.66638 1.31822 0
M  V30 9311 N 892.772 -0.284283 -1.55015 0
M  V30 9312 C 894.02 0.329212 -1.99401 0
M  V30 9313 C 894.341 1.55687 -1.17416 0
M  V30 9314 O 893.611 1.94087 -0.265937 0
M  V30 9315 H 892.191 0.12463 -0.73653 0
M  V30 9316 H 894.853 -0.391743 -1.90922 0
M  V30 9317 H 893.949 0.61278 -3.06025 0
M  V30 9318 N 894.251 1.57596 -0.0117121 0
M  V30 9319 C 895.161 2.12596 0.991964 0
M  V30 9320 C 896.177 1.07399 1.36899 0
M  V30 9321 O 897.353 1.39365 1.45394 0
M  V30 9322 C 894.418 2.62796 2.2614 0
M  V30 9323 C 893.479 3.8264 1.94642 0
M  V30 9324 C 892.712 4.30435 3.15533 0
M  V30 9325 O 892.935 3.77495 4.27614 0
M  V30 9326 O 891.869 5.22469 2.98847 0
M  V30 9327 H 895.695 2.98597 0.554371 0
M  V30 9328 H 893.28 1.47947 0.207839 0
M  V30 9329 H 895.162 2.9523 3.00695 0
M  V30 9330 H 893.837 1.79886 2.69114 0
M  V30 9331 H 892.744 3.5516 1.17526 0
M  V30 9332 H 894.077 4.66658 1.56496 0
M  V30 9333 N 895.729 -0.261212 1.5542 0
M  V30 9334 C 896.976 -0.99123 1.76581 0
M  V30 9335 C 897.304 -1.85854 0.573457 0
M  V30 9336 O 896.559 -1.90604 -0.443705 0
M  V30 9337 C 896.858 -1.89395 3.03091 0
M  V30 9338 C 896.524 -1.18318 4.351 0
M  V30 9339 C 895.186 -0.986688 4.70975 0
M  V30 9340 C 897.538 -0.678299 5.16767 0
M  V30 9341 C 894.866 -0.272788 5.86065 0
M  V30 9342 C 897.218 0.0220646 6.32596 0
M  V30 9343 C 895.882 0.230161 6.67103 0
M  V30 9344 H 895.152 -0.362717 0.646156 0
M  V30 9345 H 897.799 -0.262506 1.89692 0
M  V30 9346 H 896.104 -2.68927 2.8493 0
M  V30 9347 H 897.801 -2.46022 3.16661 0
M  V30 9348 H 894.391 -1.34625 4.06908 0
M  V30 9349 H 898.575 -0.817691 4.89518 0
M  V30 9350 H 893.831 -0.10095 6.11317 0
M  V30 9351 H 898.005 0.420981 6.95126 0
M  V30 9352 H 895.632 0.785312 7.56133 0
M  V30 9353 N 897.207 -1.48554 -0.526253 0
M  V30 9354 C 898.137 -1.66252 -1.63959 0
M  V30 9355 C 899.118 -0.511351 -1.62232 0
M  V30 9356 O 900.303 -0.744322 -1.7937 0
M  V30 9357 C 897.433 -1.70556 -3.02536 0
M  V30 9358 C 896.387 -2.8521 -3.19123 0
M  V30 9359 C 895.713 -2.74606 -4.58798 0
M  V30 9360 C 897.013 -4.26463 -3.0154 0
M  V30 9361 H 898.707 -2.59459 -1.49404 0
M  V30 9362 H 896.253 -1.24862 -0.717326 0
M  V30 9363 H 898.206 -1.81524 -3.80298 0
M  V30 9364 H 896.93 -0.739297 -3.18123 0
M  V30 9365 H 895.589 -2.73802 -2.43779 0
M  V30 9366 H 895.237 -1.75941 -4.71226 0
M  V30 9367 H 894.937 -3.51544 -4.70841 0
M  V30 9368 H 896.461 -2.87548 -5.38655 0
M  V30 9369 H 897.875 -4.38685 -3.69091 0
M  V30 9370 H 896.272 -5.04428 -3.25073 0
M  V30 9371 H 897.342 -4.42667 -1.97925 0
M  V30 9372 N 898.685 0.775411 -1.37205 0
M  V30 9373 C 899.648 1.8702 -1.325 0
M  V30 9374 C 900.648 1.5915 -0.229793 0
M  V30 9375 O 901.838 1.673 -0.485423 0
M  V30 9376 C 898.97 3.24085 -1.05745 0
M  V30 9377 H 900.163 1.92604 -2.29878 0
M  V30 9378 H 897.716 0.97476 -1.22181 0
M  V30 9379 H 898.451 3.24178 -0.0888371 0
M  V30 9380 H 898.236 3.45705 -1.85016 0
M  V30 9381 H 899.726 4.0416 -1.05094 0
M  V30 9382 N 900.163 1.21714 1.00117 0
M  V30 9383 C 901.093 1.00397 2.10815 0
M  V30 9384 C 902.074 -0.0723502 1.69946 0
M  V30 9385 O 903.259 0.0882398 1.93999 0
M  V30 9386 C 900.389 0.572001 3.42557 0
M  V30 9387 C 899.343 1.59331 3.97237 0
M  V30 9388 C 898.669 1.01746 5.2493 0
M  V30 9389 C 899.969 2.98117 4.28863 0
M  V30 9390 H 901.663 1.92983 2.28906 0
M  V30 9391 H 899.209 0.929273 1.10002 0
M  V30 9392 H 901.162 0.410018 4.19401 0
M  V30 9393 H 899.886 -0.38951 3.24269 0
M  V30 9394 H 898.545 1.74293 3.22518 0
M  V30 9395 H 898.193 0.0475491 5.02978 0
M  V30 9396 H 897.893 1.69969 5.62481 0
M  V30 9397 H 899.417 0.866881 6.04415 0
M  V30 9398 H 900.831 2.86578 4.96534 0
M  V30 9399 H 899.228 3.63389 4.77565 0
M  V30 9400 H 900.298 3.48674 3.36979 0
M  V30 9401 N 901.641 -1.19671 1.02551 0
M  V30 9402 C 902.604 -2.20987 0.608055 0
M  V30 9403 C 903.604 -1.5745 -0.326534 0
M  V30 9404 O 904.794 -1.73827 -0.114003 0
M  V30 9405 C 901.926 -3.4072 -0.11074 0
M  V30 9406 H 903.119 -2.59434 1.50446 0
M  V30 9407 H 900.672 -1.3329 0.816307 0
M  V30 9408 H 901.407 -3.07787 -1.02165 0
M  V30 9409 H 901.192 -3.88069 0.560772 0
M  V30 9410 H 902.682 -4.15776 -0.389848 0
M  V30 9411 N 903.119 -0.802921 -1.35613 0
M  V30 9412 C 904.082 -0.216422 -2.28176 0
M  V30 9413 C 905.082 0.594101 -1.49422 0
M  V30 9414 O 906.272 0.41312 -1.6923 0
M  V30 9415 C 903.404 0.698746 -3.33662 0
M  V30 9416 H 904.597 -1.03276 -2.81557 0
M  V30 9417 H 902.15 -0.573307 -1.45406 0
M  V30 9418 H 902.885 1.53891 -2.85461 0
M  V30 9419 H 902.67 0.119314 -3.91918 0
M  V30 9420 H 904.16 1.10354 -4.02755 0
M  V30 9421 N 904.597 1.47463 -0.556102 0
M  V30 9422 C 905.822 2.07371 -0.0344729 0
M  V30 9423 C 906.247 1.40621 1.2493 0
M  V30 9424 O 905.605 0.48082 1.74808 0
M  V30 9425 C 905.653 3.60306 0.145563 0
M  V30 9426 O 904.757 3.94299 1.20839 0
M  V30 9427 H 904.098 0.662052 -0.0508274 0
M  V30 9428 H 906.628 1.89498 -0.771469 0
M  V30 9429 H 906.638 4.06408 0.360112 0
M  V30 9430 H 905.313 4.08288 -0.792089 0
M  V30 9431 H 903.89 3.59944 0.97442 0
M  V30 9432 N 906.075 0.2925 1.54862 0
M  V30 9433 C 907.005 -0.580677 2.26165 0
M  V30 9434 C 907.986 -1.14485 1.25806 0
M  V30 9435 O 909.171 -1.17577 1.54562 0
M  V30 9436 C 906.301 -1.75668 2.99596 0
M  V30 9437 C 905.255 -1.32325 4.07031 0
M  V30 9438 C 904.581 -2.58374 4.68131 0
M  V30 9439 C 905.881 -0.460703 5.20264 0
M  V30 9440 H 907.575 0.0140075 2.99397 0
M  V30 9441 H 905.121 0.00817706 1.43998 0
M  V30 9442 H 907.074 -2.37356 3.48195 0
M  V30 9443 H 905.798 -2.37747 2.23928 0
M  V30 9444 H 904.457 -0.729477 3.59269 0
M  V30 9445 H 904.105 -3.18749 3.89112 0
M  V30 9446 H 903.805 -2.30078 5.40683 0
M  V30 9447 H 905.329 -3.2088 5.19489 0
M  V30 9448 H 906.743 -0.983037 5.64809 0
M  V30 9449 H 905.14 -0.271881 5.99484 0
M  V30 9450 H 906.21 0.516304 4.82143 0
M  V30 9451 N 907.553 -1.57587 0.0200696 0
M  V30 9452 C 908.463 -2.13119 -0.980676 0
M  V30 9453 C 909.479 -1.08124 -1.36328 0
M  V30 9454 O 910.655 -1.40134 -1.44653 0
M  V30 9455 C 907.72 -2.63991 -2.24743 0
M  V30 9456 C 906.781 -3.83667 -1.9261 0
M  V30 9457 C 906.014 -4.32103 -3.13246 0
M  V30 9458 O 906.237 -3.79758 -4.25606 0
M  V30 9459 O 905.171 -5.24047 -2.96072 0
M  V30 9460 H 908.997 -2.98887 -0.538528 0
M  V30 9461 H 906.582 -1.48055 -0.19999 0
M  V30 9462 H 908.464 -2.9682 -2.99125 0
M  V30 9463 H 907.139 -1.81311 -2.68157 0
M  V30 9464 H 906.046 -3.55778 -1.15641 0
M  V30 9465 H 907.379 -4.67482 -1.54019 0
M  V30 9466 N 909.032 0.252966 -1.55557 0
M  V30 9467 C 909.982 1.31585 -1.86197 0
M  V30 9468 C 910.966 1.43773 -0.722357 0
M  V30 9469 O 912.158 1.47117 -0.984152 0
M  V30 9470 C 909.287 2.67245 -2.15487 0
M  V30 9471 C 908.373 2.59087 -3.3576 0
M  V30 9472 N 908.764 2.20556 -4.5518 0
M  V30 9473 C 907.062 2.90112 -3.3875 0
M  V30 9474 C 907.763 2.22881 -5.37307 0
M  V30 9475 N 906.739 2.62145 -4.76215 0
M  V30 9476 H 910.541 1.00835 -2.76061 0
M  V30 9477 H 908.055 0.461598 -1.55702 0
M  V30 9478 H 910.052 3.43944 -2.35602 0
M  V30 9479 H 908.712 2.98867 -1.26919 0
M  V30 9480 H 909.723 1.922 -4.80915 0
M  V30 9481 H 906.4 3.26313 -2.60434 0
M  V30 9482 H 907.79 1.95482 -6.42835 0
M  V30 9483 N 910.51 1.48831 0.518367 0
M  V30 9484 C 911.44 1.67119 1.63075 0
M  V30 9485 C 912.421 0.519948 1.61958 0
M  V30 9486 O 913.606 0.753824 1.78972 0
M  V30 9487 C 910.736 1.72158 3.01627 0
M  V30 9488 C 909.69 2.86898 3.17606 0
M  V30 9489 C 909.016 2.77035 4.57335 0
M  V30 9490 C 910.316 4.28057 2.99274 0
M  V30 9491 H 912.01 2.60248 1.48025 0
M  V30 9492 H 909.556 1.2524 0.710694 0
M  V30 9493 H 911.509 1.83539 3.7933 0
M  V30 9494 H 910.233 0.756157 3.17726 0
M  V30 9495 H 908.892 2.75091 2.42323 0
M  V30 9496 H 908.54 1.78438 4.70286 0
M  V30 9497 H 908.24 3.54036 4.6897 0
M  V30 9498 H 909.764 2.904 5.37122 0
M  V30 9499 H 911.178 4.40636 3.6676 0
M  V30 9500 H 909.575 5.06145 3.22393 0
M  V30 9501 H 910.645 4.4371 1.95574 0
M  V30 9502 N 911.988 -0.768124 1.37614 0
M  V30 9503 C 913.236 -1.52379 1.3276 0
M  V30 9504 C 913.557 -1.94809 -0.0863564 0
M  V30 9505 O 912.827 -1.66568 -1.03112 0
M  V30 9506 H 911.407 -0.565179 0.488448 0
M  V30 9507 H 914.069 -0.913974 1.72141 0
M  V30 9508 H 913.165 -2.4215 1.96901 0
M  V30 9509 N 913.466 -1.22244 -0.994698 0
M  V30 9510 C 914.414 -0.988118 -2.10568 0
M  V30 9511 C 915.408 0.0681541 -1.69263 0
M  V30 9512 O 916.614 -0.0841311 -1.79803 0
M  V30 9513 H 912.989 -0.302343 -0.688544 0
M  V30 9514 H 914.96 -1.93091 -2.27505 0
M  V30 9515 C 913.709 -0.580557 -3.42819 0
M  V30 9516 H 913.032 -1.385 -3.75044 0
M  V30 9517 H 914.472 -0.456004 -4.21541 0
M  V30 9518 C 912.931 0.709692 -3.2934 0
M  V30 9519 O 913.461 1.76259 -3.60965 0
M  V30 9520 N 911.667 0.680155 -2.82528 0
M  V30 9521 H 911.214 -0.176977 -2.56991 0
M  V30 9522 H 911.172 1.54372 -2.73892 0
M  V30 9523 N 914.944 1.19125 -1.03184 0
M  V30 9524 C 915.907 2.20662 -0.619766 0
M  V30 9525 C 916.907 1.57621 0.318179 0
M  V30 9526 O 918.097 1.73885 0.104783 0
M  V30 9527 C 915.229 3.40774 0.0926696 0
M  V30 9528 H 916.422 2.58633 -1.5182 0
M  V30 9529 H 913.975 1.32855 -0.823364 0
M  V30 9530 H 914.71 3.08324 1.00531 0
M  V30 9531 H 914.495 3.87766 -0.581344 0
M  V30 9532 H 915.985 4.15977 0.367792 0
M  V30 9533 N 916.422 0.810101 1.35185 0
M  V30 9534 C 917.652 0.404109 2.02609 0
M  V30 9535 C 918.06 -0.990748 1.61186 0
M  V30 9536 O 917.403 -1.65038 0.80674 0
M  V30 9537 C 917.465 0.412047 3.57131 0
M  V30 9538 C 917.129 1.75802 4.21832 0
M  V30 9539 C 918.126 2.71687 4.43263 0
M  V30 9540 C 915.811 2.04299 4.58876 0
M  V30 9541 C 917.805 3.9425 5.00845 0
M  V30 9542 C 915.492 3.27125 5.16171 0
M  V30 9543 C 916.49 4.21918 5.37098 0
M  V30 9544 O 916.178 5.42576 5.93184 0
M  V30 9545 H 915.91 0.161914 0.656323 0
M  V30 9546 H 918.464 1.09605 1.73712 0
M  V30 9547 H 916.694 -0.336509 3.85233 0
M  V30 9548 H 918.383 0.0278817 4.0589 0
M  V30 9549 H 919.149 2.50964 4.15021 0
M  V30 9550 H 915.028 1.31324 4.41899 0
M  V30 9551 H 918.572 4.68251 5.17094 0
M  V30 9552 H 914.469 3.47718 5.43841 0
M  V30 9553 H 915.237 5.43921 6.11631 0
M  V30 9554 N 917.9 -1.47166 0.563914 0
M  V30 9555 C 918.847 -2.30097 -0.180013 0
M  V30 9556 C 919.817 -1.39473 -0.902019 0
M  V30 9557 O 921.002 -1.68432 -0.896396 0
M  V30 9558 C 918.142 -3.23573 -1.19978 0
M  V30 9559 C 917.255 -4.2929 -0.483149 0
M  V30 9560 C 916.39 -5.0991 -1.48879 0
M  V30 9561 C 915.429 -6.07395 -0.757513 0
M  V30 9562 N 914.566 -6.8095 -1.71031 0
M  V30 9563 H 919.406 -2.93189 0.53329 0
M  V30 9564 H 916.943 -1.4451 0.274814 0
M  V30 9565 H 918.901 -3.76196 -1.80368 0
M  V30 9566 H 917.531 -2.6233 -1.88103 0
M  V30 9567 H 916.583 -3.79671 0.235414 0
M  V30 9568 H 917.895 -4.9872 0.0894075 0
M  V30 9569 H 917.049 -5.66717 -2.16603 0
M  V30 9570 H 915.788 -4.40397 -2.09527 0
M  V30 9571 H 914.793 -5.4976 -0.0663841 0
M  V30 9572 H 916.018 -6.78919 -0.156685 0
M  V30 9573 H 913.964 -6.14162 -2.30524 0
M  V30 9574 H 913.881 -7.46574 -1.19007 0
M  V30 9575 H 915.149 -7.42326 -2.37849 0
M  V30 9576 N 919.378 -0.300708 -1.54705 0
M  V30 9577 C 920.326 0.591264 -2.2496 0
M  V30 9578 C 921.32 1.13725 -1.2555 0
M  V30 9579 O 922.526 1.08793 -1.43402 0
M  V30 9580 H 918.901 0.209278 -0.722293 0
M  V30 9581 H 920.872 -0.0238175 -2.9839 0
M  V30 9582 C 919.621 1.75179 -3.00346 0
M  V30 9583 H 918.944 1.34089 -3.76643 0
M  V30 9584 H 920.384 2.35198 -3.52786 0
M  V30 9585 C 918.843 2.65574 -2.07298 0
M  V30 9586 O 919.373 3.6666 -1.64083 0
M  V30 9587 N 917.579 2.33301 -1.7326 0
M  V30 9588 H 917.126 1.51142 -2.08599 0
M  V30 9589 H 917.084 2.94049 -1.11278 0
M  V30 9590 N 920.856 1.57574 -0.0284266 0
M  V30 9591 C 922.267 1.79585 0.510502 0
M  V30 9592 C 922.618 0.938625 1.72291 0
M  V30 9593 O 921.743 0.14884 2.15888 0
M  V30 9594 C 922.338 3.25703 0.932912 0
M  V30 9595 C 920.897 3.48711 1.41696 0
M  V30 9596 C 920.044 2.74665 0.381356 0
M  V30 9597 H 922.995 1.56647 -0.254464 0
M  V30 9598 H 923.016 3.35376 1.79731 0
M  V30 9599 H 922.528 3.88067 0.0503036 0
M  V30 9600 H 920.629 2.91597 2.31952 0
M  V30 9601 H 920.742 4.57423 1.42481 0
M  V30 9602 H 919.106 2.40123 0.8493 0
M  V30 9603 H 919.889 3.39745 -0.492775 0
M  V30 9604 N 922.334 -0.244713 1.55689 0
M  V30 9605 C 923.281 -1.30301 1.905 0
M  V30 9606 C 924.251 -1.4772 0.759478 0
M  V30 9607 O 925.436 -1.61667 1.01333 0
M  V30 9608 C 922.576 -2.653 2.20703 0
M  V30 9609 C 921.689 -2.55872 3.48071 0
M  V30 9610 C 920.824 -3.83238 3.67834 0
M  V30 9611 C 919.863 -3.68436 4.88796 0
M  V30 9612 N 919 -4.877 5.05068 0
M  V30 9613 H 923.84 -0.999143 2.80751 0
M  V30 9614 H 921.377 -0.482099 1.38976 0
M  V30 9615 H 923.335 -3.43884 2.36219 0
M  V30 9616 H 921.965 -2.93831 1.33653 0
M  V30 9617 H 921.017 -1.68846 3.40874 0
M  V30 9618 H 922.329 -2.40845 4.36801 0
M  V30 9619 H 921.483 -4.70266 3.83321 0
M  V30 9620 H 920.222 -4.01165 2.77341 0
M  V30 9621 H 919.227 -2.79793 4.73282 0
M  V30 9622 H 920.452 -3.52003 5.8075 0
M  V30 9623 H 918.398 -5.05983 4.17513 0
M  V30 9624 H 918.315 -4.75312 5.8789 0
M  V30 9625 H 919.583 -5.76219 5.24969 0
M  V30 9626 N 923.813 -1.49104 -0.510467 0
M  V30 9627 C 924.776 -1.64569 -1.59529 0
M  V30 9628 C 925.776 -0.517937 -1.5223 0
M  V30 9629 O 926.966 -0.784183 -1.55551 0
M  V30 9630 C 924.098 -1.6342 -2.99177 0
M  V30 9631 H 925.291 -2.61318 -1.4715 0
M  V30 9632 H 922.844 -1.37993 -0.734001 0
M  V30 9633 H 923.579 -0.68221 -3.17043 0
M  V30 9634 H 923.364 -2.45312 -3.05883 0
M  V30 9635 H 924.854 -1.77474 -3.78011 0
M  V30 9636 N 925.291 0.760815 -1.38019 0
M  V30 9637 C 926.221 1.88811 -1.37377 0
M  V30 9638 C 927.202 1.68388 -0.240737 0
M  V30 9639 O 928.387 1.89086 -0.442739 0
M  V30 9640 C 925.517 3.26244 -1.1909 0
M  V30 9641 C 924.471 3.61254 -2.29521 0
M  V30 9642 C 923.797 4.97346 -1.96345 0
M  V30 9643 C 925.097 3.66874 -3.71753 0
M  V30 9644 H 926.791 1.89606 -2.31711 0
M  V30 9645 H 924.337 0.910818 -1.11535 0
M  V30 9646 H 926.29 4.04755 -1.17267 0
M  V30 9647 H 925.014 3.2591 -0.212152 0
M  V30 9648 H 923.673 2.85057 -2.30517 0
M  V30 9649 H 923.321 4.93564 -0.969728 0
M  V30 9650 H 923.021 5.21739 -2.703 0
M  V30 9651 H 924.545 5.78244 -1.96129 0
M  V30 9652 H 925.959 4.35514 -3.72828 0
M  V30 9653 H 924.356 4.02772 -4.44853 0
M  V30 9654 H 925.426 2.67273 -4.0459 0
M  V30 9655 N 926.769 1.22769 0.988202 0
M  V30 9656 C 928.015 1.05665 1.73097 0
M  V30 9657 C 928.348 -0.406615 1.89895 0
M  V30 9658 O 927.623 -1.30132 1.44554 0
M  V30 9659 C 927.906 1.77381 3.13382 0
M  V30 9660 C 927.759 3.31332 3.04203 0
M  V30 9661 C 929.078 1.52999 4.12649 0
M  V30 9662 H 926.197 0.385258 0.628288 0
M  V30 9663 H 928.839 1.51171 1.15097 0
M  V30 9664 H 926.989 1.38696 3.62899 0
M  V30 9665 H 928.661 3.79489 2.6227 0
M  V30 9666 H 926.904 3.60767 2.40894 0
M  V30 9667 H 927.575 3.76692 4.03493 0
M  V30 9668 H 930.051 1.86611 3.71908 0
M  V30 9669 H 928.927 2.05666 5.08913 0
M  V30 9670 H 929.188 0.463615 4.39662 0
M  V30 9671 N 928.247 -1.18576 1.03814 0
M  V30 9672 C 929.177 -2.24334 0.647795 0
M  V30 9673 C 930.158 -1.66508 -0.34774 0
M  V30 9674 O 931.343 -1.92852 -0.228401 0
M  V30 9675 C 928.473 -3.47299 0.00734922 0
M  V30 9676 C 927.427 -4.17859 0.926152 0
M  V30 9677 C 926.753 -5.34489 0.150317 0
M  V30 9678 C 928.053 -4.71632 2.24411 0
M  V30 9679 H 929.747 -2.57241 1.53191 0
M  V30 9680 H 927.293 -1.23649 0.738028 0
M  V30 9681 H 929.246 -4.20486 -0.277434 0
M  V30 9682 H 927.97 -3.13619 -0.911626 0
M  V30 9683 H 926.629 -3.46567 1.19528 0
M  V30 9684 H 926.277 -4.97056 -0.770985 0
M  V30 9685 H 925.977 -5.82633 0.762407 0
M  V30 9686 H 927.501 -6.10467 -0.127508 0
M  V30 9687 H 928.915 -5.36526 2.02021 0
M  V30 9688 H 927.312 -5.303 2.80894 0
M  V30 9689 H 928.382 -3.89192 2.89236 0
M  V30 9690 N 929.725 -0.817259 -1.34754 0
M  V30 9691 C 930.688 -0.240611 -2.27934 0
M  V30 9692 C 931.688 0.578219 -1.50044 0
M  V30 9693 O 932.878 0.395148 -1.69659 0
M  V30 9694 C 930.01 0.663318 -3.34384 0
M  V30 9695 H 931.203 -1.06257 -2.80445 0
M  V30 9696 H 928.756 -0.588697 -1.4479 0
M  V30 9697 H 929.491 1.50855 -2.87077 0
M  V30 9698 H 929.276 0.0777388 -3.92023 0
M  V30 9699 H 930.766 1.06076 -4.03903 0
M  V30 9700 N 931.203 1.46865 -0.571711 0
M  V30 9701 C 932.428 2.07323 -0.0564655 0
M  V30 9702 C 932.853 1.41938 1.23431 0
M  V30 9703 O 932.211 0.499334 1.74288 0
M  V30 9704 C 932.259 3.6044 0.107339 0
M  V30 9705 O 931.363 3.95558 1.1665 0
M  V30 9706 H 930.704 0.661475 -0.0578465 0
M  V30 9707 H 933.234 1.88669 -0.791524 0
M  V30 9708 H 933.244 4.06767 0.316987 0
M  V30 9709 H 931.919 4.07425 -0.835348 0
M  V30 9710 H 930.496 3.60957 0.936189 0
M  V30 9711 N 932.681 0.308908 1.54543 0
M  V30 9712 C 933.909 -0.300418 2.04707 0
M  V30 9713 C 934.324 -1.46915 1.18581 0
M  V30 9714 O 933.681 -1.81251 0.213186 0
M  V30 9715 C 933.732 -0.749038 3.53655 0
M  V30 9716 O 933.453 0.373181 4.36508 0
M  V30 9717 C 934.954 -1.4227 4.1985 0
M  V30 9718 H 932.174 -0.0641267 0.667929 0
M  V30 9719 H 934.718 0.450839 1.99469 0
M  V30 9720 H 932.873 -1.4503 3.59228 0
M  V30 9721 H 933.287 0.0224752 5.24495 0
M  V30 9722 H 934.761 -1.68768 5.25568 0
M  V30 9723 H 935.238 -2.36531 3.70067 0
M  V30 9724 H 935.844 -0.764404 4.18374 0
M  V30 9725 N 934.159 -1.57557 0.0367827 0
M  V30 9726 C 935.089 -2.13712 -0.940719 0
M  V30 9727 C 936.07 -1.05515 -1.33419 0
M  V30 9728 O 937.255 -1.33385 -1.41146 0
M  V30 9729 C 934.385 -2.67043 -2.22048 0
M  V30 9730 C 933.339 -3.80096 -1.96752 0
M  V30 9731 C 932.665 -4.19886 -3.31059 0
M  V30 9732 C 933.965 -5.05848 -1.30058 0
M  V30 9733 H 935.659 -2.9564 -0.473033 0
M  V30 9734 H 933.205 -1.42214 -0.226089 0
M  V30 9735 H 935.158 -3.04964 -2.90818 0
M  V30 9736 H 933.882 -1.82287 -2.70996 0
M  V30 9737 H 932.541 -3.42625 -1.30398 0
M  V30 9738 H 932.189 -3.32101 -3.77781 0
M  V30 9739 H 931.889 -4.96073 -3.14937 0
M  V30 9740 H 933.413 -4.60395 -4.01084 0
M  V30 9741 H 934.827 -5.41306 -1.8884 0
M  V30 9742 H 933.224 -5.87084 -1.24309 0
M  V30 9743 H 934.294 -4.84122 -0.274591 0
M  V30 9744 N 935.637 0.236453 -1.55816 0
M  V30 9745 C 936.914 0.986463 -1.68903 0
M  V30 9746 C 937.294 2.02984 -0.579722 0
M  V30 9747 O 936.642 2.24693 0.415389 0
M  V30 9748 C 936.852 1.61038 -3.09625 0
M  V30 9749 C 938.2 2.10829 -3.6856 0
M  V30 9750 O 939.224 1.7096 -3.12492 0
M  V30 9751 O 938.083 2.84064 -4.66873 0
M  V30 9752 H 935.177 0.459837 -0.687371 0
M  V30 9753 H 937.723 0.229412 -1.68142 0
M  V30 9754 H 936.495 0.856232 -3.81817 0
M  V30 9755 H 936.118 2.43336 -3.14441 0
M  V30 9756 N 937.115 1.49373 0.502552 0
M  V30 9757 C 938.047 1.62045 1.62093 0
M  V30 9758 C 939.06 0.503221 1.54827 0
M  V30 9759 O 940.249 0.775208 1.60788 0
M  V30 9760 C 937.349 1.55971 3.00876 0
M  V30 9761 C 936.522 2.832 3.33341 0
M  V30 9762 C 935.581 2.702 4.51529 0
M  V30 9763 O 934.607 3.44132 4.53389 0
M  V30 9764 N 935.809 1.81642 5.5135 0
M  V30 9765 H 938.574 2.58501 1.51649 0
M  V30 9766 H 936.135 1.46442 0.690396 0
M  V30 9767 H 938.127 1.4493 3.77859 0
M  V30 9768 H 936.697 0.673795 3.05252 0
M  V30 9769 H 935.917 3.08604 2.4527 0
M  V30 9770 H 937.205 3.67551 3.51829 0
M  V30 9771 H 936.603 1.20829 5.52645 0
M  V30 9772 H 935.16 1.76524 6.27441 0
M  V30 9773 N 938.594 -0.753485 1.38421 0
M  V30 9774 C 939.557 -1.84888 1.35459 0
M  V30 9775 C 940.557 -1.58764 0.255083 0
M  V30 9776 O 941.747 -1.66507 0.511978 0
M  V30 9777 C 938.879 -3.22361 1.10888 0
M  V30 9778 H 940.072 -1.88922 2.32913 0
M  V30 9779 H 937.625 -0.955199 1.23716 0
M  V30 9780 H 938.36 -3.23996 0.1404 0
M  V30 9781 H 938.145 -3.42717 1.90492 0
M  V30 9782 H 939.635 -4.02437 1.1151 0
M  V30 9783 N 940.072 -1.23292 -0.981677 0
M  V30 9784 C 941.3 -1.09088 -1.75805 0
M  V30 9785 C 941.715 0.357746 -1.8538 0
M  V30 9786 O 941.072 1.24751 -1.33205 0
M  V30 9787 C 941.123 -1.70885 -3.1856 0
M  V30 9788 O 940.844 -3.10082 -3.09484 0
M  V30 9789 C 942.345 -1.62106 -4.12597 0
M  V30 9790 H 939.565 -0.38184 -0.55176 0
M  V30 9791 H 942.109 -1.63116 -1.23342 0
M  V30 9792 H 940.264 -1.20893 -3.68054 0
M  V30 9793 H 940.678 -3.40039 -3.99342 0
M  V30 9794 H 942.152 -2.10049 -5.10474 0
M  V30 9795 H 942.629 -0.579642 -4.35358 0
M  V30 9796 H 943.235 -2.11457 -3.69007 0
M  V30 9797 N 941.55 1.18024 -1.04442 0
M  V30 9798 C 942.798 1.87727 -0.74854 0
M  V30 9799 C 943.119 1.80975 0.726156 0
M  V30 9800 O 942.389 1.23061 1.52423 0
M  V30 9801 H 940.969 0.694974 -0.273897 0
M  V30 9802 H 943.631 1.43213 -1.32197 0
M  V30 9803 H 942.727 2.93665 -1.05674 0
M  V30 9804 N 943.028 0.824394 1.34319 0
M  V30 9805 C 943.975 0.245282 2.29493 0
M  V30 9806 C 944.945 -0.630762 1.53657 0
M  V30 9807 O 946.13 -0.572094 1.82021 0
M  V30 9808 C 943.27 -0.585631 3.40095 0
M  V30 9809 C 942.383 0.312821 4.30866 0
M  V30 9810 C 941.518 -0.527801 5.28571 0
M  V30 9811 C 940.557 0.369946 6.10981 0
M  V30 9812 N 939.694 -0.43169 7.00772 0
M  V30 9813 H 944.534 1.06225 2.78425 0
M  V30 9814 H 942.071 0.53533 1.37013 0
M  V30 9815 H 944.029 -1.08271 4.02906 0
M  V30 9816 H 942.659 -1.3677 2.92393 0
M  V30 9817 H 941.711 0.928129 3.68904 0
M  V30 9818 H 943.023 1.00306 4.8861 0
M  V30 9819 H 942.177 -1.0893 5.96841 0
M  V30 9820 H 940.916 -1.25154 4.71368 0
M  V30 9821 H 939.921 0.943577 5.41643 0
M  V30 9822 H 941.146 1.09182 6.70266 0
M  V30 9823 H 939.092 -1.13908 6.46035 0
M  V30 9824 H 939.009 0.200133 7.55735 0
M  V30 9825 H 940.277 -0.975894 7.73367 0
M  V30 9826 N 944.506 -1.46559 0.579492 0
M  V30 9827 C 945.755 -2.01606 0.0615735 0
M  V30 9828 C 946.068 -1.45695 -1.30508 0
M  V30 9829 O 947.274 -1.92541 -1.91416 0
M  V30 9830 C 945.73 -3.59851 0.059496 0
M  V30 9831 C 945.338 -4.24757 1.42427 0
M  V30 9832 C 947.082 -4.22567 -0.404646 0
M  V30 9833 C 944.989 -5.75072 1.38009 0
M  V30 9834 H 943.919 -0.753754 0.0192491 0
M  V30 9835 H 946.57 -1.68326 0.73066 0
M  V30 9836 H 944.952 -3.90193 -0.675691 0
M  V30 9837 H 946.126 -4.06029 2.17893 0
M  V30 9838 H 944.441 -3.74121 1.82817 0
M  V30 9839 H 947.038 -5.32748 -0.456441 0
M  V30 9840 H 947.381 -3.91279 -1.42149 0
M  V30 9841 H 947.914 -3.96839 0.276376 0
M  V30 9842 H 944.653 -6.11014 2.37364 0
M  V30 9843 H 944.173 -5.96073 0.667583 0
M  V30 9844 H 945.852 -6.37724 1.09163 0
M  V30 9845 N 945.984 -0.3171 -1.54377 0
M  V30 9846 C 946.914 0.544623 -2.2706 0
M  V30 9847 C 947.895 1.12469 -1.27611 0
M  V30 9848 O 949.08 1.15103 -1.56413 0
M  V30 9849 C 946.21 1.70879 -3.02353 0
M  V30 9850 C 945.164 1.25833 -4.09084 0
M  V30 9851 C 944.49 2.50894 -4.72182 0
M  V30 9852 C 945.79 0.377876 -5.20931 0
M  V30 9853 H 947.484 -0.0616372 -2.99337 0
M  V30 9854 H 945.03 -0.0310848 -1.43966 0
M  V30 9855 H 946.983 2.31787 -3.51927 0
M  V30 9856 H 945.707 2.34155 -2.27682 0
M  V30 9857 H 944.366 0.672228 -3.60384 0
M  V30 9858 H 944.014 3.12518 -3.94134 0
M  V30 9859 H 943.714 2.21447 -5.44275 0
M  V30 9860 H 945.238 3.12575 -5.24528 0
M  V30 9861 H 946.652 0.893056 -5.66302 0
M  V30 9862 H 945.049 0.176474 -5.9984 0
M  V30 9863 H 946.119 -0.592943 -4.81261 0
M  V30 9864 N 947.462 1.57535 -0.0451378 0
M  V30 9865 C 948.739 1.83785 0.669523 0
M  V30 9866 C 949.119 0.932331 1.89396 0
M  V30 9867 O 948.467 -0.00813229 2.28499 0
M  V30 9868 C 948.677 3.33376 1.03255 0
M  V30 9869 C 950.025 4.00243 1.41741 0
M  V30 9870 O 951.049 3.37965 1.12507 0
M  V30 9871 O 949.908 5.10038 1.96275 0
M  V30 9872 H 947.002 0.758342 0.329919 0
M  V30 9873 H 949.548 1.69538 -0.0740415 0
M  V30 9874 H 948.32 3.90965 0.161777 0
M  V30 9875 H 947.943 3.52787 1.83376 0
M  V30 9876 N 948.94 -0.228186 1.55939 0
M  V30 9877 C 949.888 -1.30239 1.92719 0
M  V30 9878 C 950.882 -1.48865 0.808424 0
M  V30 9879 O 952.088 -1.50118 0.993204 0
M  V30 9880 H 948.463 -0.436509 0.612343 0
M  V30 9881 H 950.434 -0.964965 2.82367 0
M  V30 9882 C 949.183 -2.647 2.25453 0
M  V30 9883 H 948.506 -2.51173 3.1105 0
M  V30 9884 H 949.946 -3.38691 2.55077 0
M  V30 9885 C 948.405 -3.1921 1.07734 0
M  V30 9886 O 948.935 -4.00301 0.335019 0
M  V30 9887 N 947.141 -2.77492 0.862938 0
M  V30 9888 H 946.688 -2.11657 1.4683 0
M  V30 9889 H 946.646 -3.14306 0.0770119 0
M  V30 9890 N 950.418 -1.49637 -0.494624 0
M  V30 9891 C 951.366 -1.6727 -1.61627 0
M  V30 9892 C 952.36 -0.538587 -1.6061 0
M  V30 9893 O 953.566 -0.718411 -1.65042 0
M  V30 9894 H 949.941 -0.527557 -0.535899 0
M  V30 9895 H 951.912 -2.61405 -1.43909 0
M  V30 9896 C 950.661 -1.7624 -2.99725 0
M  V30 9897 H 949.984 -2.62886 -3.01216 0
M  V30 9898 H 951.424 -1.92611 -3.77726 0
M  V30 9899 C 949.883 -0.508632 -3.33038 0
M  V30 9900 O 950.413 0.362828 -4.00058 0
M  V30 9901 N 948.619 -0.369667 -2.88239 0
M  V30 9902 H 948.166 -1.07984 -2.33875 0
M  V30 9903 H 948.124 0.468112 -3.10896 0
M  V30 9904 N 951.896 0.746133 -1.38819 0
M  V30 9905 C 952.843 1.86001 -1.36647 0
M  V30 9906 C 953.813 1.6453 -0.227849 0
M  V30 9907 O 954.998 1.86092 -0.421241 0
M  V30 9908 C 952.138 3.23388 -1.20474 0
M  V30 9909 C 951.251 3.5664 -2.43786 0
M  V30 9910 C 950.386 4.8337 -2.20287 0
M  V30 9911 C 949.425 5.09431 -3.39332 0
M  V30 9912 N 948.562 6.2736 -3.1522 0
M  V30 9913 H 953.402 1.87192 -2.31869 0
M  V30 9914 H 950.939 0.914838 -1.15192 0
M  V30 9915 H 952.897 4.02679 -1.09112 0
M  V30 9916 H 951.527 3.21505 -0.288874 0
M  V30 9917 H 950.579 2.72135 -2.65794 0
M  V30 9918 H 951.891 3.71823 -3.3249 0
M  V30 9919 H 951.045 5.70619 -2.06103 0
M  V30 9920 H 949.784 4.70341 -1.28961 0
M  V30 9921 H 948.789 4.20648 -3.54027 0
M  V30 9922 H 950.014 5.24354 -4.31544 0
M  V30 9923 H 947.96 6.15639 -2.26549 0
M  V30 9924 H 947.877 6.43078 -3.97476 0
M  V30 9925 H 949.145 7.17477 -3.04707 0
M  V30 9926 N 953.375 1.23811 0.975125 0
M  V30 9927 C 954.6 1.10109 1.75757 0
M  V30 9928 C 955.025 -0.342922 1.84948 0
M  V30 9929 O 954.383 -1.24814 1.31496 0
M  V30 9930 C 954.431 1.73724 3.15994 0
M  V30 9931 O 953.535 1.00297 4.00018 0
M  V30 9932 H 952.876 0.385627 0.540544 0
M  V30 9933 H 955.406 1.63971 1.22372 0
M  V30 9934 H 955.416 1.79178 3.6655 0
M  V30 9935 H 954.091 2.78794 3.0862 0
M  V30 9936 H 952.668 1.02575 3.58515 0
M  V30 9937 N 954.853 -1.17469 1.05066 0
M  V30 9938 C 956.264 -1.69334 0.786304 0
M  V30 9939 C 956.615 -1.83604 -0.691671 0
M  V30 9940 O 955.74 -1.52269 -1.53763 0
M  V30 9941 C 956.335 -3.07572 1.42074 0
M  V30 9942 C 954.894 -3.56609 1.20446 0
M  V30 9943 C 954.041 -2.329 1.50508 0
M  V30 9944 H 956.992 -1.02003 1.21577 0
M  V30 9945 H 957.013 -3.71352 0.829334 0
M  V30 9946 H 956.525 -2.97154 2.49642 0
M  V30 9947 H 954.626 -3.72306 0.147968 0
M  V30 9948 H 954.739 -4.39446 1.90852 0
M  V30 9949 H 953.103 -2.37305 0.925124 0
M  V30 9950 H 953.886 -2.25093 2.59207 0
M  V30 9951 N 956.331 -0.831506 -1.3388 0
M  V30 9952 C 957.294 -0.264773 -2.27666 0
M  V30 9953 C 958.294 0.562273 -1.50649 0
M  V30 9954 O 959.484 0.377131 -1.70069 0
M  V30 9955 C 956.616 0.627814 -3.35069 0
M  V30 9956 H 957.809 -1.09225 -2.79303 0
M  V30 9957 H 955.362 -0.604021 -1.44157 0
M  V30 9958 H 956.097 1.47802 -2.88661 0
M  V30 9959 H 955.882 0.0361552 -3.92083 0
M  V30 9960 H 957.372 1.01786 -4.05005 0
M  V30 9961 N 957.809 1.4625 -0.587256 0
M  V30 9962 C 959.225 1.57641 -0.249284 0
M  V30 9963 C 959.425 1.58169 1.24839 0
M  V30 9964 O 958.481 1.50109 2.03036 0
M  V30 9965 C 959.794 2.86837 -0.902509 0
M  V30 9966 C 961.342 3.00476 -0.876524 0
M  V30 9967 C 961.817 4.32414 -1.50938 0
M  V30 9968 N 963.308 4.39124 -1.47392 0
M  V30 9969 C 964.043 5.39838 -1.93293 0
M  V30 9970 N 963.539 6.47202 -2.47188 0
M  V30 9971 N 965.332 5.31068 -1.84183 0
M  V30 9972 H 957.483 1.44151 -1.55994 0
M  V30 9973 H 959.746 0.687905 -0.652297 0
M  V30 9974 H 959.452 2.92274 -1.95624 0
M  V30 9975 H 959.326 3.74927 -0.413466 0
M  V30 9976 H 961.713 2.94618 0.168601 0
M  V30 9977 H 961.794 2.1385 -1.40363 0
M  V30 9978 H 961.438 4.3903 -2.55372 0
M  V30 9979 H 961.368 5.17823 -0.957455 0
M  V30 9980 H 963.859 3.62138 -1.08002 0
M  V30 9981 H 964.172 7.20269 -2.80058 0
M  V30 9982 H 962.517 6.48009 -2.51216 0
M  V30 9983 H 965.708 4.46095 -1.41833 0
M  V30 9984 H 965.881 6.09414 -2.2027 0
M  V30 9985 N 959.287 0.325282 1.54207 0
M  V30 9986 C 960.234 -0.539889 2.24397 0
M  V30 9987 C 961.204 -1.11028 1.2354 0
M  V30 9988 O 962.389 -1.1503 1.52226 0
M  V30 9989 C 959.529 -1.69405 3.00659 0
M  V30 9990 C 958.642 -1.15273 4.16337 0
M  V30 9991 C 957.777 -2.27272 4.80126 0
M  V30 9992 C 956.816 -1.70397 5.87904 0
M  V30 9993 N 955.953 -2.76065 6.45548 0
M  V30 9994 H 960.793 0.0652318 2.97929 0
M  V30 9995 H 958.33 0.043964 1.47034 0
M  V30 9996 H 960.288 -2.37325 3.43122 0
M  V30 9997 H 958.918 -2.27043 2.29458 0
M  V30 9998 H 957.97 -0.365034 3.78645 0
M  V30 9999 H 959.282 -0.696576 4.93912 0
M  V30 10000 H 958.436 -3.03092 5.25566 0
M  V30 10001 H 957.175 -2.76224 4.01935 0
M  V30 10002 H 956.18 -0.930752 5.41864 0
M  V30 10003 H 957.405 -1.22319 6.67993 0
M  V30 10004 H 955.351 -3.24306 5.7023 0
M  V30 10005 H 955.268 -2.35018 7.18542 0
M  V30 10006 H 956.536 -3.5171 6.95644 0
M  V30 10007 N 960.765 -1.57509 0.0534917 0
M  V30 10008 C 962.011 -1.93068 -0.62069 0
M  V30 10009 C 962.344 -0.932313 -1.70357 0
M  V30 10010 O 961.619 0.0413393 -1.94456 0
M  V30 10011 C 961.902 -3.38997 -1.21463 0
M  V30 10012 C 961.755 -4.49583 -0.13965 0
M  V30 10013 C 963.074 -3.85366 -2.12558 0
M  V30 10014 H 960.193 -0.702083 -0.224163 0
M  V30 10015 H 962.835 -1.89647 0.115729 0
M  V30 10016 H 960.985 -3.42043 -1.84226 0
M  V30 10017 H 962.657 -4.58664 0.492411 0
M  V30 10018 H 960.9 -4.30525 0.532006 0
M  V30 10019 H 961.571 -5.48781 -0.595287 0
M  V30 10020 H 964.047 -3.8421 -1.59755 0
M  V30 10021 H 962.923 -4.8812 -2.51058 0
M  V30 10022 H 963.184 -3.22256 -3.02661 0
M  V30 10023 N 962.243 0.219913 -1.56058 0
M  V30 10024 C 963.491 0.942199 -1.78793 0
M  V30 10025 C 963.812 1.84804 -0.622284 0
M  V30 10026 O 963.082 1.9255 0.360735 0
M  V30 10027 H 961.662 0.350895 -0.659455 0
M  V30 10028 H 964.324 0.231376 -1.93522 0
M  V30 10029 H 963.42 1.54804 -2.71002 0
M  V30 10030 N 963.721 1.49897 0.486681 0
M  V30 10031 C 964.631 1.70379 1.6127 0
M  V30 10032 C 965.647 0.58659 1.63814 0
M  V30 10033 O 966.823 0.863044 1.81971 0
M  V30 10034 C 963.888 1.77911 2.97571 0
M  V30 10035 C 962.949 3.01569 3.0554 0
M  V30 10036 C 962.182 3.08732 4.35339 0
M  V30 10037 O 962.405 2.23099 5.2496 0
M  V30 10038 O 961.339 4.01325 4.48578 0
M  V30 10039 H 965.165 2.65799 1.46916 0
M  V30 10040 H 962.75 1.33808 0.664516 0
M  V30 10041 H 964.632 1.85135 3.78554 0
M  V30 10042 H 963.307 0.856722 3.12157 0
M  V30 10043 H 962.214 2.99854 2.23693 0
M  V30 10044 H 963.547 3.93335 2.95886 0
M  V30 10045 N 965.199 -0.738761 1.39212 0
M  V30 10046 C 966.448 -1.49368 1.35543 0
M  V30 10047 C 966.761 -1.95543 -0.0471091 0
M  V30 10048 O 967.967 -2.70714 -0.206376 0
M  V30 10049 C 966.423 -2.69882 2.381 0
M  V30 10050 C 966.031 -2.30672 3.8405 0
M  V30 10051 C 967.775 -3.47718 2.435 0
M  V30 10052 C 965.682 -3.47886 4.78256 0
M  V30 10053 H 964.612 -0.560898 0.503894 0
M  V30 10054 H 967.263 -0.806221 1.6484 0
M  V30 10055 H 965.645 -3.40684 2.01867 0
M  V30 10056 H 966.819 -1.67441 4.29302 0
M  V30 10057 H 965.134 -1.65936 3.81909 0
M  V30 10058 H 967.731 -4.34897 3.11077 0
M  V30 10059 H 968.074 -3.89919 1.45838 0
M  V30 10060 H 968.607 -2.83942 2.78606 0
M  V30 10061 H 965.346 -3.10739 5.77167 0
M  V30 10062 H 964.866 -4.10111 4.37686 0
M  V30 10063 H 966.545 -4.14271 4.96979 0
M  V30 10064 N 966.677 -1.24326 -0.968545 0
M  V30 10065 C 967.954 -0.990459 -1.68669 0
M  V30 10066 C 968.334 0.487487 -2.05394 0
M  V30 10067 O 967.682 1.46158 -1.75642 0
M  V30 10068 C 967.892 -1.91251 -2.91931 0
M  V30 10069 C 969.24 -2.18291 -3.6419 0
M  V30 10070 O 970.264 -1.88897 -3.01987 0
M  V30 10071 O 969.123 -2.68204 -4.76161 0
M  V30 10072 H 966.217 -0.374515 -0.737338 0
M  V30 10073 H 968.763 -1.35421 -1.02271 0
M  V30 10074 H 967.535 -2.9111 -2.61478 0
M  V30 10075 H 967.158 -1.55188 -3.66064 0
M  V30 10076 N 968.156 1.1691 -1.05688 0
M  V30 10077 C 969.104 2.2315 -0.656262 0
M  V30 10078 C 970.098 1.66256 0.324873 0
M  V30 10079 O 971.304 1.7899 0.190397 0
M  V30 10080 H 967.679 0.726527 -0.19407 0
M  V30 10081 H 969.65 2.54233 -1.56231 0
M  V30 10082 C 968.399 3.47661 -0.0522431 0
M  V30 10083 H 967.722 3.91749 -0.798299 0
M  V30 10084 H 969.162 4.23571 0.190626 0
M  V30 10085 C 967.621 3.14709 1.20248 0
M  V30 10086 O 968.151 3.29947 2.29124 0
M  V30 10087 N 966.357 2.68892 1.10207 0
M  V30 10088 H 965.904 2.56692 0.216063 0
M  V30 10089 H 965.862 2.47218 1.94244 0
M  V30 10090 N 969.634 0.838594 1.33437 0
M  V30 10091 C 971.05 0.526347 1.50671 0
M  V30 10092 C 971.25 -0.946387 1.77893 0
M  V30 10093 O 970.306 -1.7302 1.83903 0
M  V30 10094 C 971.619 1.39945 2.6615 0
M  V30 10095 C 973.167 1.3982 2.80035 0
M  V30 10096 C 973.642 2.25614 3.98576 0
M  V30 10097 N 975.133 2.23322 4.0581 0
M  V30 10098 C 975.868 2.86443 4.96727 0
M  V30 10099 N 975.364 3.58616 5.92762 0
M  V30 10100 N 977.157 2.75915 4.89722 0
M  V30 10101 H 969.308 1.79195 1.1403 0
M  V30 10102 H 971.571 0.764491 0.560586 0
M  V30 10103 H 971.277 2.44599 2.52714 0
M  V30 10104 H 971.151 1.07529 3.61548 0
M  V30 10105 H 973.538 0.35937 2.92904 0
M  V30 10106 H 973.619 1.76241 1.85399 0
M  V30 10107 H 973.263 3.29555 3.86466 0
M  V30 10108 H 973.193 1.86533 4.92456 0
M  V30 10109 H 975.684 1.70836 3.37081 0
M  V30 10110 H 975.997 4.03987 6.58798 0
M  V30 10111 H 974.342 3.62724 5.92838 0
M  V30 10112 H 977.533 2.19094 4.13661 0
M  V30 10113 H 977.706 3.25393 5.60378 0
M  V30 10114 N 971.112 -1.45937 0.595003 0
M  V30 10115 C 972.36 -2.01921 0.0851368 0
M  V30 10116 C 972.681 -1.46748 -1.28413 0
M  V30 10117 O 971.951 -0.656873 -1.84559 0
M  V30 10118 H 970.531 -0.746457 0.0284826 0
M  V30 10119 H 973.193 -1.78891 0.773561 0
M  V30 10120 H 972.289 -3.1209 0.0254002 0
M  V30 10121 N 972.59 -0.333456 -1.54032 0
M  V30 10122 C 973.815 0.270517 -2.05628 0
M  V30 10123 C 974.24 1.44231 -1.20744 0
M  V30 10124 O 973.598 1.79975 -0.218822 0
M  V30 10125 C 973.646 0.673251 -3.54259 0
M  V30 10126 O 972.75 1.77448 -3.72271 0
M  V30 10127 H 972.091 0.0469753 -0.662336 0
M  V30 10128 H 974.621 -0.484739 -1.98775 0
M  V30 10129 H 974.631 0.953194 -3.96709 0
M  V30 10130 H 973.306 -0.183747 -4.15494 0
M  V30 10131 H 971.883 1.49259 -3.41725 0
M  V30 10132 N 974.068 1.57479 -0.061844 0
M  V30 10133 C 975.018 2.0867 0.918749 0
M  V30 10134 C 976.002 0.994174 1.26511 0
M  V30 10135 O 977.194 1.25738 1.24575 0
M  V30 10136 C 974.323 2.64386 2.18986 0
M  V30 10137 C 973.409 3.80626 1.87042 0
M  V30 10138 N 973.8 4.89982 1.25504 0
M  V30 10139 C 972.098 3.89733 2.1685 0
M  V30 10140 C 972.799 5.70928 1.11429 0
M  V30 10141 N 971.775 5.18877 1.62072 0
M  V30 10142 H 975.577 2.90611 0.438469 0
M  V30 10143 H 973.091 1.61775 0.142321 0
M  V30 10144 H 975.088 2.9937 2.90144 0
M  V30 10145 H 973.748 1.83888 2.67611 0
M  V30 10146 H 974.759 5.09556 0.925914 0
M  V30 10147 H 971.436 3.20194 2.67921 0
M  V30 10148 H 972.826 6.68886 0.635665 0
M  V30 10149 N 975.546 -0.211634 1.56173 0
M  V30 10150 C 976.793 -0.93455 1.79645 0
M  V30 10151 C 977.121 -1.83936 0.632294 0
M  V30 10152 O 976.376 -1.91919 -0.382841 0
M  V30 10153 C 976.675 -1.79657 3.08963 0
M  V30 10154 C 976.341 -1.04415 4.38644 0
M  V30 10155 C 975.003 -0.836351 4.73876 0
M  V30 10156 C 977.355 -0.51355 5.18664 0
M  V30 10157 C 974.683 -0.0861976 5.86637 0
M  V30 10158 C 977.035 0.223309 6.32206 0
M  V30 10159 C 975.699 0.442279 6.66033 0
M  V30 10160 H 974.969 -0.341976 0.657368 0
M  V30 10161 H 977.616 -0.202024 1.90431 0
M  V30 10162 H 975.921 -2.59726 2.93342 0
M  V30 10163 H 977.618 -2.35823 3.24328 0
M  V30 10164 H 974.208 -1.21611 4.10985 0
M  V30 10165 H 978.392 -0.661541 4.91871 0
M  V30 10166 H 973.648 0.0935866 6.11328 0
M  V30 10167 H 977.822 0.641917 6.93435 0
M  V30 10168 H 975.449 1.02547 7.53252 0
M  V30 10169 N 977.024 -1.50153 -0.478725 0
M  V30 10170 C 978.254 -1.64266 -1.253 0
M  V30 10171 C 978.662 -0.322256 -1.86435 0
M  V30 10172 O 978.005 0.704925 -1.69636 0
M  V30 10173 C 978.067 -2.67017 -2.40712 0
M  V30 10174 C 977.731 -4.10779 -2.00274 0
M  V30 10175 C 978.728 -4.96889 -1.52963 0
M  V30 10176 C 976.413 -4.5665 -2.09228 0
M  V30 10177 C 978.407 -6.26914 -1.15139 0
M  V30 10178 C 976.094 -5.86683 -1.71015 0
M  V30 10179 C 977.092 -6.71641 -1.24048 0
M  V30 10180 O 976.78 -7.99248 -0.863617 0
M  V30 10181 H 976.512 -0.555382 -0.385392 0
M  V30 10182 H 979.066 -1.97078 -0.578751 0
M  V30 10183 H 977.296 -2.29432 -3.11284 0
M  V30 10184 H 978.985 -2.70428 -3.02694 0
M  V30 10185 H 979.751 -4.62669 -1.45474 0
M  V30 10186 H 975.63 -3.90674 -2.44735 0
M  V30 10187 H 979.174 -6.93179 -0.784089 0
M  V30 10188 H 975.071 -6.20426 -1.78162 0
M  V30 10189 H 975.839 -8.12452 -0.993139 0
M  V30 10190 N 978.502 0.731368 -1.39602 0
M  V30 10191 C 979.432 1.85855 -1.41351 0
M  V30 10192 C 980.413 1.67839 -0.2764 0
M  V30 10193 O 981.598 1.88104 -0.482747 0
M  V30 10194 C 978.728 3.23644 -1.25983 0
M  V30 10195 C 977.682 3.56304 -2.37132 0
M  V30 10196 C 977.008 4.93069 -2.0685 0
M  V30 10197 C 978.308 3.58906 -3.79452 0
M  V30 10198 H 980.002 1.84648 -2.3568 0
M  V30 10199 H 977.548 0.886955 -1.13442 0
M  V30 10200 H 979.501 4.02176 -1.25826 0
M  V30 10201 H 978.225 3.25387 -0.281234 0
M  V30 10202 H 976.884 2.80104 -2.36511 0
M  V30 10203 H 976.532 4.91396 -1.0742 0
M  V30 10204 H 976.232 5.15888 -2.81306 0
M  V30 10205 H 977.756 5.73953 -2.0835 0
M  V30 10206 H 979.17 4.27508 -3.81982 0
M  V30 10207 H 977.567 3.93246 -4.53297 0
M  V30 10208 H 978.637 2.58631 -4.10168 0
M  V30 10209 N 979.98 1.24838 0.961938 0
M  V30 10210 C 980.943 1.04674 2.03902 0
M  V30 10211 C 981.943 0.00204674 1.608 0
M  V30 10212 O 983.133 0.243555 1.72489 0
M  V30 10213 C 980.265 0.587736 3.35795 0
M  V30 10214 H 981.458 2.00278 2.23223 0
M  V30 10215 H 979.011 1.07142 1.138 0
M  V30 10216 H 979.746 -0.371244 3.22168 0
M  V30 10217 H 979.531 1.34182 3.68426 0
M  V30 10218 H 981.021 0.467867 4.14971 0
M  V30 10219 N 981.458 -1.16348 1.06306 0
M  V30 10220 C 982.388 -2.2291 0.695234 0
M  V30 10221 C 983.369 -1.67208 -0.312343 0
M  V30 10222 O 984.554 -1.93293 -0.187442 0
M  V30 10223 C 981.684 -3.47205 0.0810149 0
M  V30 10224 C 980.638 -4.15801 1.01458 0
M  V30 10225 C 979.964 -5.3405 0.263656 0
M  V30 10226 C 981.264 -4.66766 2.34365 0
M  V30 10227 H 982.958 -2.53934 1.58613 0
M  V30 10228 H 980.504 -1.22056 0.76409 0
M  V30 10229 H 982.457 -4.2098 -0.18818 0
M  V30 10230 H 981.181 -3.15482 -0.844897 0
M  V30 10231 H 979.84 -3.43954 1.26852 0
M  V30 10232 H 979.488 -4.9858 -0.665378 0
M  V30 10233 H 979.188 -5.80885 0.88582 0
M  V30 10234 H 980.712 -6.106 0.00200994 0
M  V30 10235 H 982.126 -5.3212 2.13356 0
M  V30 10236 H 980.523 -5.24223 2.9208 0
M  V30 10237 H 981.593 -3.82969 2.97426 0
M  V30 10238 N 982.937 -0.845659 -1.3299 0
M  V30 10239 C 984.167 -0.457686 -2.01467 0
M  V30 10240 C 984.575 0.947664 -1.63756 0
M  V30 10241 O 983.918 1.62841 -0.850213 0
M  V30 10242 C 983.98 -0.506589 -3.55913 0
M  V30 10243 C 983.644 -1.86924 -4.17023 0
M  V30 10244 C 984.641 -2.83344 -4.35904 0
M  V30 10245 C 982.326 -2.16394 -4.53298 0
M  V30 10246 C 984.32 -4.07391 -4.90216 0
M  V30 10247 C 982.007 -3.40695 -5.07316 0
M  V30 10248 C 983.005 -4.3601 -5.25722 0
M  V30 10249 O 982.693 -5.58112 -5.7859 0
M  V30 10250 H 982.425 -0.179258 -0.651799 0
M  V30 10251 H 984.979 -1.14172 -1.70745 0
M  V30 10252 H 983.209 0.234253 -3.8599 0
M  V30 10253 H 984.898 -0.135487 -4.05674 0
M  V30 10254 H 985.664 -2.61879 -4.08221 0
M  V30 10255 H 981.543 -1.42994 -4.38262 0
M  V30 10256 H 985.087 -4.81796 -5.04498 0
M  V30 10257 H 980.984 -3.62014 -5.3443 0
M  V30 10258 H 981.752 -5.59946 -5.96995 0
M  V30 10259 N 984.415 1.45619 -0.602734 0
M  V30 10260 C 985.661 2.03131 -0.104587 0
M  V30 10261 C 986.016 1.4634 1.2491 0
M  V30 10262 O 985.309 0.626733 1.8106 0
M  V30 10263 C 985.503 3.574 -0.00157909 0
M  V30 10264 C 985.332 4.29155 -1.34373 0
M  V30 10265 C 984.102 4.67272 -1.92316 0
M  V30 10266 C 986.3 4.61422 -2.27143 0
M  V30 10267 N 984.282 5.23864 -3.20062 0
M  V30 10268 C 985.653 5.18796 -3.39485 0
M  V30 10269 C 987.708 4.4336 -2.26575 0
M  V30 10270 C 986.411 5.60012 -4.51419 0
M  V30 10271 C 988.437 4.85605 -3.37553 0
M  V30 10272 C 987.799 5.43068 -4.48617 0
M  V30 10273 H 983.898 0.777739 -0.0815251 0
M  V30 10274 H 986.482 1.77504 -0.800024 0
M  V30 10275 H 984.653 3.82698 0.663068 0
M  V30 10276 H 986.385 4.01565 0.502784 0
M  V30 10277 H 983.14 4.50671 -1.45577 0
M  V30 10278 H 983.564 5.56664 -3.85298 0
M  V30 10279 H 988.206 3.98251 -1.41971 0
M  V30 10280 H 985.924 6.04089 -5.36751 0
M  V30 10281 H 989.51 4.73365 -3.38255 0
M  V30 10282 H 988.39 5.75156 -5.33072 0
M  V30 10283 N 985.893 0.34162 1.53853 0
M  V30 10284 C 986.856 -0.503541 2.236 0
M  V30 10285 C 987.856 -1.02912 1.23554 0
M  V30 10286 O 989.046 -0.918678 1.48007 0
M  V30 10287 C 986.178 -1.70126 2.95415 0
M  V30 10288 H 987.371 0.106437 2.99711 0
M  V30 10289 H 984.924 0.0929408 1.56023 0
M  V30 10290 H 985.659 -2.34999 2.23486 0
M  V30 10291 H 985.444 -1.33161 3.68796 0
M  V30 10292 H 986.934 -2.30077 3.48503 0
M  V30 10293 N 987.371 -1.57444 0.0701946 0
M  V30 10294 C 988.303 -2.09611 -0.927142 0
M  V30 10295 C 989.316 -1.02791 -1.26245 0
M  V30 10296 O 990.505 -1.30309 -1.21992 0
M  V30 10297 C 987.605 -2.54015 -2.24342 0
M  V30 10298 C 986.778 -3.84389 -2.08719 0
M  V30 10299 C 985.837 -4.14904 -3.23638 0
M  V30 10300 O 984.863 -4.84528 -2.98699 0
M  V30 10301 N 986.065 -3.68322 -4.48686 0
M  V30 10302 H 988.83 -2.95803 -0.481753 0
M  V30 10303 H 986.391 -1.61487 -0.115572 0
M  V30 10304 H 988.383 -2.71492 -3.00124 0
M  V30 10305 H 986.953 -1.72969 -2.60385 0
M  V30 10306 H 986.173 -3.76308 -1.17415 0
M  V30 10307 H 987.461 -4.69729 -1.9553 0
M  V30 10308 H 986.859 -3.12073 -4.71834 0
M  V30 10309 H 985.416 -3.91002 -5.21499 0
M  V30 10310 N 988.849 0.203349 -1.56283 0
M  V30 10311 C 989.812 1.23566 -1.93039 0
M  V30 10312 C 990.812 1.38869 -0.810687 0
M  V30 10313 O 992.002 1.36822 -1.07821 0
M  V30 10314 C 989.134 2.60645 -2.1972 0
M  V30 10315 H 990.327 0.921692 -2.85385 0
M  V30 10316 H 987.88 0.44453 -1.49845 0
M  V30 10317 H 988.615 2.9711 -1.29985 0
M  V30 10318 H 988.4 2.50911 -3.01307 0
M  V30 10319 H 989.89 3.35103 -2.4919 0
M  V30 10320 N 990.327 1.50405 0.470755 0
M  V30 10321 C 991.257 1.72222 1.57676 0
M  V30 10322 C 992.238 0.57121 1.60222 0
M  V30 10323 O 993.423 0.810381 1.76484 0
M  V30 10324 C 990.553 1.81666 2.95998 0
M  V30 10325 C 989.507 2.96857 3.08318 0
M  V30 10326 C 988.833 2.91445 4.4829 0
M  V30 10327 C 990.133 4.37361 2.85504 0
M  V30 10328 H 991.827 2.64825 1.39671 0
M  V30 10329 H 989.373 1.27438 0.67049 0
M  V30 10330 H 991.326 1.95514 3.73299 0
M  V30 10331 H 990.05 0.856856 3.1516 0
M  V30 10332 H 988.709 2.82661 2.33449 0
M  V30 10333 H 988.357 1.93309 4.64371 0
M  V30 10334 H 988.057 3.68776 4.57469 0
M  V30 10335 H 989.581 3.07341 5.27611 0
M  V30 10336 H 990.995 4.52081 3.52555 0
M  V30 10337 H 989.392 5.16145 3.06127 0
M  V30 10338 H 990.462 4.49708 1.81359 0
M  V30 10339 N 991.805 -0.723954 1.39988 0
M  V30 10340 C 992.768 -1.81973 1.3935 0
M  V30 10341 C 993.768 -1.58187 0.288702 0
M  V30 10342 O 994.958 -1.65383 0.547181 0
M  V30 10343 C 992.09 -3.19937 1.177 0
M  V30 10344 H 993.283 -1.83939 2.36868 0
M  V30 10345 H 990.836 -0.928742 1.25714 0
M  V30 10346 H 991.571 -3.23625 0.209093 0
M  V30 10347 H 991.356 -3.386 1.97719 0
M  V30 10348 H 992.846 -3.99981 1.20022 0
M  V30 10349 N 993.283 -1.25346 -0.955304 0
M  V30 10350 C 994.246 -1.05754 -2.03344 0
M  V30 10351 C 995.246 -0.0105743 -1.60797 0
M  V30 10352 O 996.436 -0.252699 -1.72357 0
M  V30 10353 C 993.568 -0.605536 -3.35479 0
M  V30 10354 H 994.761 -2.01459 -2.22158 0
M  V30 10355 H 992.314 -1.07744 -1.1323 0
M  V30 10356 H 993.049 0.354154 -3.2236 0
M  V30 10357 H 992.834 -1.36134 -3.67709 0
M  V30 10358 H 994.324 -0.489867 -4.14717 0
M  V30 10359 N 994.761 1.15782 -1.06922 0
M  V30 10360 C 995.693 2.19978 -0.643604 0
M  V30 10361 C 996.706 1.59981 0.301653 0
M  V30 10362 O 997.895 1.78265 0.0916508 0
M  V30 10363 C 994.995 3.38815 0.0757973 0
M  V30 10364 C 994.168 4.28363 -0.884545 0
M  V30 10365 C 993.227 5.25807 -0.203233 0
M  V30 10366 O 992.253 5.62924 -0.842904 0
M  V30 10367 N 993.455 5.70874 1.05279 0
M  V30 10368 H 996.22 2.57112 -1.53992 0
M  V30 10369 H 993.781 1.30855 -0.953344 0
M  V30 10370 H 995.773 4.01052 0.542151 0
M  V30 10371 H 994.343 3.00133 0.874 0
M  V30 10372 H 993.563 3.63292 -1.53012 0
M  V30 10373 H 994.851 4.85067 -1.53581 0
M  V30 10374 H 994.249 5.42822 1.5925 0
M  V30 10375 H 992.806 6.35171 1.46289 0
M  V30 10376 N 996.239 0.8527 1.3254 0
M  V30 10377 C 997.467 0.469044 2.01513 0
M  V30 10378 C 997.882 -0.933701 1.64096 0
M  V30 10379 O 997.239 -1.60898 0.861283 0
M  V30 10380 C 997.29 0.596228 3.56549 0
M  V30 10381 O 997.011 1.94371 3.92621 0
M  V30 10382 C 998.512 0.211324 4.42796 0
M  V30 10383 H 995.732 0.184589 0.645111 0
M  V30 10384 H 998.276 1.1491 1.69163 0
M  V30 10385 H 996.431 -0.0360712 3.87383 0
M  V30 10386 H 996.845 1.93909 4.87339 0
M  V30 10387 H 998.319 0.351324 5.50881 0
M  V30 10388 H 998.796 -0.848055 4.30935 0
M  V30 10389 H 999.402 0.818617 4.17347 0
M  V30 10390 N 997.718 -1.45297 0.610449 0
M  V30 10391 C 998.628 -2.34349 -0.108475 0
M  V30 10392 C 999.644 -1.51409 -0.857397 0
M  V30 10393 O 1000.82 -1.84202 -0.814337 0
M  V30 10394 C 997.885 -3.29072 -1.09144 0
M  V30 10395 C 996.946 -4.27918 -0.344165 0
M  V30 10396 C 996.179 -5.18116 -1.28031 0
M  V30 10397 O 996.402 -5.11802 -2.51824 0
M  V30 10398 O 995.336 -5.96879 -0.775821 0
M  V30 10399 H 999.162 -2.97232 0.623421 0
M  V30 10400 H 996.747 -1.44728 0.3707 0
M  V30 10401 H 998.629 -3.87433 -1.65751 0
M  V30 10402 H 997.304 -2.68749 -1.80431 0
M  V30 10403 H 996.211 -3.73164 0.264437 0
M  V30 10404 H 997.544 -4.91104 0.328275 0
M  V30 10405 N 999.196 -0.349774 -1.5367 0
M  V30 10406 C 1000.47 0.300419 -1.93279 0
M  V30 10407 C 1000.85 1.67721 -1.28191 0
M  V30 10408 O 1000.2 2.24319 -0.435127 0
M  V30 10409 C 1000.41 0.366466 -3.47071 0
M  V30 10410 C 1001.76 0.614349 -4.20132 0
M  V30 10411 O 1002.78 0.448327 -3.53367 0
M  V30 10412 O 1001.64 0.936421 -5.38417 0
M  V30 10413 H 998.736 0.176599 -0.807924 0
M  V30 10414 H 1001.28 -0.401405 -1.64884 0
M  V30 10415 H 1000.05 -0.599455 -3.86681 0
M  V30 10416 H 999.677 1.11482 -3.81651 0
M  V30 10417 N 1000.67 1.57404 -0.0785433 0
M  V30 10418 C 1001.62 2.13104 0.88631 0
M  V30 10419 C 1002.59 1.04527 1.29086 0
M  V30 10420 O 1003.78 1.32226 1.37553 0
M  V30 10421 C 1000.92 2.70252 2.14611 0
M  V30 10422 C 1000.03 3.93007 1.79358 0
M  V30 10423 C 999.164 4.38376 3 0
M  V30 10424 C 998.203 5.53761 2.60796 0
M  V30 10425 N 997.34 5.94058 3.74219 0
M  V30 10426 H 1002.18 2.95243 0.404452 0
M  V30 10427 H 999.717 1.45894 0.187982 0
M  V30 10428 H 1001.67 3.01497 2.88367 0
M  V30 10429 H 1000.3 1.90868 2.60326 0
M  V30 10430 H 999.357 3.68181 0.956384 0
M  V30 10431 H 1000.67 4.76795 1.4652 0
M  V30 10432 H 999.823 4.71317 3.82027 0
M  V30 10433 H 998.562 3.53455 3.36037 0
M  V30 10434 H 997.567 5.20464 1.77192 0
M  V30 10435 H 998.792 6.40419 2.25922 0
M  V30 10436 H 996.738 5.12085 4.10005 0
M  V30 10437 H 996.655 6.72602 3.45171 0
M  V30 10438 H 997.923 6.31624 4.56805 0
M  V30 10439 N 1002.15 -0.195058 1.56388 0
M  V30 10440 C 1003.06 -1.26219 1.97752 0
M  V30 10441 C 1004.08 -1.49801 0.885192 0
M  V30 10442 O 1005.25 -1.62415 1.19094 0
M  V30 10443 C 1002.32 -2.5865 2.3087 0
M  V30 10444 C 1001.38 -2.4314 3.5381 0
M  V30 10445 C 1000.61 -3.69255 3.85339 0
M  V30 10446 O 1000.84 -4.73425 3.18159 0
M  V30 10447 O 999.77 -3.64782 4.78767 0
M  V30 10448 H 1003.6 -0.941161 2.88749 0
M  V30 10449 H 1001.18 -0.40006 1.43944 0
M  V30 10450 H 1003.06 -3.36814 2.53247 0
M  V30 10451 H 1001.74 -2.9038 1.43042 0
M  V30 10452 H 1000.64 -1.63086 3.3668 0
M  V30 10453 H 1001.98 -2.16341 4.42105 0
M  V30 10454 N 1003.63 -1.50653 -0.462772 0
M  V30 10455 C 1004.56 -1.73056 -1.5676 0
M  V30 10456 C 1005.54 -0.579699 -1.59917 0
M  V30 10457 O 1006.73 -0.819729 -1.76051 0
M  V30 10458 C 1003.86 -1.83234 -2.9503 0
M  V30 10459 C 1002.81 -2.98488 -3.06739 0
M  V30 10460 C 1002.14 -2.93818 -4.46738 0
M  V30 10461 C 1003.44 -4.38869 -2.83181 0
M  V30 10462 H 1005.13 -2.65562 -1.38265 0
M  V30 10463 H 1002.68 -1.27792 -0.663722 0
M  V30 10464 H 1004.63 -1.97491 -3.72257 0
M  V30 10465 H 1003.35 -0.873558 -3.14701 0
M  V30 10466 H 1002.01 -2.83895 -2.31946 0
M  V30 10467 H 1001.66 -1.95769 -4.63339 0
M  V30 10468 H 1001.36 -3.71197 -4.55507 0
M  V30 10469 H 1002.88 -3.10135 -5.25974 0
M  V30 10470 H 1004.3 -4.53945 -3.50153 0
M  V30 10471 H 1002.69 -5.17762 -3.03386 0
M  V30 10472 H 1003.76 -4.50663 -1.78972 0
M  V30 10473 N 1005.11 0.71652 -1.4037 0
M  V30 10474 C 1006.04 1.84138 -1.36477 0
M  V30 10475 C 1007.05 1.6054 -0.27033 0
M  V30 10476 O 1008.24 1.70431 -0.530612 0
M  V30 10477 C 1005.34 3.20523 -1.10082 0
M  V30 10478 C 1004.52 3.71326 -2.31162 0
M  V30 10479 C 1003.57 4.86322 -2.00942 0
M  V30 10480 O 1002.6 4.99022 -2.73799 0
M  V30 10481 N 1003.8 5.72051 -0.986812 0
M  V30 10482 H 1006.57 1.87977 -2.3342 0
M  V30 10483 H 1004.13 0.89802 -1.34712 0
M  V30 10484 H 1006.12 3.95049 -0.878526 0
M  V30 10485 H 1004.69 3.11838 -0.21809 0
M  V30 10486 H 1003.91 2.87941 -2.69227 0
M  V30 10487 H 1005.2 4.02003 -3.11883 0
M  V30 10488 H 1004.6 5.64399 -0.383381 0
M  V30 10489 H 1003.15 6.46565 -0.824419 0
M  V30 10490 N 1006.59 1.25851 0.948643 0
M  V30 10491 C 1007.55 1.0683 2.0278 0
M  V30 10492 C 1008.55 0.0191016 1.60789 0
M  V30 10493 O 1009.74 0.261836 1.72221 0
M  V30 10494 C 1006.87 0.623318 3.35153 0
M  V30 10495 H 1008.06 2.02635 2.21086 0
M  V30 10496 H 1005.62 1.08343 1.12657 0
M  V30 10497 H 1006.35 -0.337053 3.22544 0
M  V30 10498 H 1006.14 1.38082 3.66982 0
M  V30 10499 H 1007.63 0.511854 4.14451 0
M  V30 10500 N 1008.06 -1.15214 1.07534 0
M  V30 10501 C 1009 -2.19634 0.655261 0
M  V30 10502 C 1010.01 -1.60139 -0.293165 0
M  V30 10503 O 1011.2 -1.78311 -0.0821957 0
M  V30 10504 C 1008.3 -3.38851 -0.0578281 0
M  V30 10505 C 1007.47 -4.27888 0.90725 0
M  V30 10506 C 1006.53 -5.25692 0.231115 0
M  V30 10507 O 1005.56 -5.62469 0.872746 0
M  V30 10508 N 1006.76 -5.71424 -1.0225 0
M  V30 10509 H 1009.52 -2.56292 1.55353 0
M  V30 10510 H 1007.08 -1.30347 0.960271 0
M  V30 10511 H 1009.08 -4.01334 -0.520874 0
M  V30 10512 H 1007.65 -3.00593 -0.858071 0
M  V30 10513 H 1006.87 -3.62475 1.54937 0
M  V30 10514 H 1008.15 -4.84246 1.56151 0
M  V30 10515 H 1007.55 -5.43659 -1.56369 0
M  V30 10516 H 1006.11 -6.35938 -1.42919 0
M  V30 10517 N 1009.54 -0.859717 -1.32086 0
M  V30 10518 C 1010.79 -0.465581 -1.97075 0
M  V30 10519 C 1011.12 0.979917 -1.68012 0
M  V30 10520 O 1010.37 1.70337 -0.96353 0
M  V30 10521 C 1010.67 -0.657397 -3.51302 0
M  V30 10522 C 1010.34 -2.07413 -4.00363 0
M  V30 10523 C 1009 -2.4616 -4.13472 0
M  V30 10524 C 1011.35 -2.99855 -4.26305 0
M  V30 10525 C 1008.68 -3.76611 -4.49868 0
M  V30 10526 C 1011.03 -4.2981 -4.64161 0
M  V30 10527 C 1009.7 -4.68485 -4.75476 0
M  V30 10528 H 1008.97 -0.170368 -0.721149 0
M  V30 10529 H 1011.61 -1.09074 -1.57401 0
M  V30 10530 H 1009.92 0.0509638 -3.91767 0
M  V30 10531 H 1011.61 -0.332416 -3.9962 0
M  V30 10532 H 1008.2 -1.76327 -3.90649 0
M  V30 10533 H 1012.39 -2.7115 -4.15682 0
M  V30 10534 H 1007.64 -4.06352 -4.56824 0
M  V30 10535 H 1011.82 -5.015 -4.83188 0
M  V30 10536 H 1009.45 -5.69612 -5.03435 0
M  V30 10537 N 1011.02 1.44971 -0.618145 0
M  V30 10538 C 1012.25 2.06527 -0.124165 0
M  V30 10539 C 1012.66 1.46097 1.19588 0
M  V30 10540 O 1012.02 0.57901 1.73071 0
M  V30 10541 C 1012.07 3.61498 0.0106701 0
M  V30 10542 O 1011.79 4.19675 -1.25716 0
M  V30 10543 C 1013.29 4.40061 0.534872 0
M  V30 10544 H 1010.51 0.666941 -0.0736935 0
M  V30 10545 H 1013.06 1.8605 -0.848871 0
M  V30 10546 H 1011.21 3.81282 0.685752 0
M  V30 10547 H 1011.63 5.12972 -1.09362 0
M  V30 10548 H 1013.1 5.48963 0.57827 0
M  V30 10549 H 1013.58 4.10587 1.55931 0
M  V30 10550 H 1014.18 4.25167 -0.10652 0
M  V30 10551 N 1012.5 0.357919 1.53482 0
M  V30 10552 C 1013.75 -0.2337 2.00744 0
M  V30 10553 C 1014.07 -1.49908 1.2471 0
M  V30 10554 O 1013.34 -1.92597 0.358235 0
M  V30 10555 H 1011.92 -0.0893474 0.741637 0
M  V30 10556 H 1014.58 0.482388 1.88836 0
M  V30 10557 H 1013.68 -0.466073 3.086 0
M  V30 10558 N 1013.98 -1.5736 0.0868897 0
M  V30 10559 C 1015.23 -1.93229 -0.578387 0
M  V30 10560 C 1015.54 -0.970127 -1.69847 0
M  V30 10561 O 1016.74 -1.22222 -2.42434 0
M  V30 10562 C 1015.2 -3.43307 -1.0802 0
M  V30 10563 C 1014.81 -4.47999 0.00968135 0
M  V30 10564 C 1016.55 -3.88151 -1.71868 0
M  V30 10565 C 1014.46 -5.89223 -0.507029 0
M  V30 10566 H 1013.39 -0.721245 -0.219823 0
M  V30 10567 H 1016.04 -1.82787 0.161566 0
M  V30 10568 H 1014.42 -3.48873 -1.87359 0
M  V30 10569 H 1015.6 -4.54067 0.784865 0
M  V30 10570 H 1013.91 -4.12714 0.552845 0
M  V30 10571 H 1016.51 -4.91056 -2.11585 0
M  V30 10572 H 1016.85 -3.26347 -2.58464 0
M  V30 10573 H 1017.38 -3.85252 -0.991259 0
M  V30 10574 H 1014.12 -6.54708 0.322121 0
M  V30 10575 H 1013.64 -5.86643 -1.2494 0
M  V30 10576 H 1015.32 -6.39556 -0.978628 0
M  V30 10577 N 1015.45 0.186762 -1.56489 0
M  V30 10578 C 1016.42 1.21511 -1.94339 0
M  V30 10579 C 1017.42 1.38001 -0.82537 0
M  V30 10580 O 1018.61 1.3567 -1.09266 0
M  V30 10581 C 1015.74 2.583 -2.22472 0
M  V30 10582 H 1016.93 0.891371 -2.86347 0
M  V30 10583 H 1014.49 0.428612 -1.50308 0
M  V30 10584 H 1015.22 2.95715 -1.33129 0
M  V30 10585 H 1015.01 2.47701 -3.03951 0
M  V30 10586 H 1016.5 3.32441 -2.5273 0
M  V30 10587 N 1016.93 1.50896 0.454776 0
M  V30 10588 C 1017.88 1.70947 1.55067 0
M  V30 10589 C 1018.85 0.550899 1.56698 0
M  V30 10590 O 1020.03 0.783352 1.73978 0
M  V30 10591 C 1017.17 1.82455 2.92924 0
M  V30 10592 C 1016.29 3.09919 3.00956 0
M  V30 10593 C 1015.42 3.12125 4.29827 0
M  V30 10594 C 1014.46 4.33975 4.31662 0
M  V30 10595 N 1013.6 4.33828 5.5203 0
M  V30 10596 H 1018.44 2.645 1.37273 0
M  V30 10597 H 1015.98 1.31101 0.667148 0
M  V30 10598 H 1017.93 1.87108 3.72889 0
M  V30 10599 H 1016.56 0.92327 3.09315 0
M  V30 10600 H 1015.62 3.14659 2.13761 0
M  V30 10601 H 1016.93 3.99869 2.98172 0
M  V30 10602 H 1016.08 3.15598 5.18154 0
M  V30 10603 H 1014.82 2.20033 4.35243 0
M  V30 10604 H 1013.83 4.30697 3.41731 0
M  V30 10605 H 1015.05 5.27312 4.27924 0
M  V30 10606 H 1013 3.44598 5.58201 0
M  V30 10607 H 1012.91 5.17566 5.51055 0
M  V30 10608 H 1014.18 4.4147 6.42437 0
M  V30 10609 N 1018.41 -0.709066 1.40748 0
M  V30 10610 C 1019.37 -1.80485 1.41272 0
M  V30 10611 C 1020.37 -1.57872 0.305463 0
M  V30 10612 O 1021.56 -1.64793 0.564691 0
M  V30 10613 C 1018.7 -3.1867 1.21087 0
M  V30 10614 H 1019.89 -1.81417 2.38805 0
M  V30 10615 H 1017.44 -0.915356 1.26692 0
M  V30 10616 H 1018.18 -3.23385 0.243406 0
M  V30 10617 H 1017.96 -3.36484 2.01299 0
M  V30 10618 H 1019.45 -3.98685 1.24257 0
M  V30 10619 N 1019.89 -1.26353 -0.941956 0
M  V30 10620 C 1020.82 -1.10341 -2.05784 0
M  V30 10621 C 1021.8 -0.00881565 -1.70098 0
M  V30 10622 O 1022.99 -0.180699 -1.93357 0
M  V30 10623 C 1020.12 -0.734788 -3.39438 0
M  V30 10624 C 1019.07 -1.78103 -3.89183 0
M  V30 10625 C 1018.4 -1.26675 -5.19478 0
M  V30 10626 C 1019.7 -3.1824 -4.14151 0
M  V30 10627 H 1021.39 -2.03684 -2.19438 0
M  V30 10628 H 1018.94 -0.980698 -1.05443 0
M  V30 10629 H 1020.89 -0.609653 -4.16967 0
M  V30 10630 H 1019.61 0.234354 -3.25758 0
M  V30 10631 H 1018.27 -1.89482 -3.13835 0
M  V30 10632 H 1017.92 -0.287472 -5.02178 0
M  V30 10633 H 1017.62 -1.96612 -5.53731 0
M  V30 10634 H 1019.14 -1.15427 -5.99591 0
M  V30 10635 H 1020.56 -3.09942 -4.82296 0
M  V30 10636 H 1018.95 -3.8576 -4.59684 0
M  V30 10637 H 1020.02 -3.64354 -3.19959 0
M  V30 10638 N 1021.37 1.14642 -1.08144 0
M  V30 10639 C 1022.6 1.89484 -0.830864 0
M  V30 10640 C 1023.01 1.78443 0.616722 0
M  V30 10641 O 1022.37 1.14191 1.42361 0
M  V30 10642 C 1022.42 3.39554 -1.24039 0
M  V30 10643 O 1022.14 3.50286 -2.63119 0
M  V30 10644 C 1023.64 4.31399 -1.02029 0
M  V30 10645 H 1020.86 0.600283 -0.299835 0
M  V30 10646 H 1023.4 1.45204 -1.44001 0
M  V30 10647 H 1021.56 3.81467 -0.675407 0
M  V30 10648 H 1021.97 4.43481 -2.80045 0
M  V30 10649 H 1023.45 5.35079 -1.35625 0
M  V30 10650 H 1023.92 4.39179 0.0428697 0
M  V30 10651 H 1024.53 3.95238 -1.57057 0
M  V30 10652 N 1022.85 0.866709 1.31628 0
M  V30 10653 C 1024.12 0.396828 1.91532 0
M  V30 10654 C 1024.5 -1.12081 1.78889 0
M  V30 10655 O 1023.85 -1.94791 1.19452 0
M  V30 10656 C 1024.06 0.874578 3.37864 0
M  V30 10657 C 1025.41 0.8988 4.14978 0
M  V30 10658 O 1026.43 0.820014 3.46633 0
M  V30 10659 O 1025.29 1.01223 5.37044 0
M  V30 10660 H 1022.39 0.1181 0.818524 0
M  V30 10661 H 1024.93 0.954407 1.40318 0
M  V30 10662 H 1023.7 1.91807 3.41066 0
M  V30 10663 H 1023.33 0.295126 3.96503 0
M  V30 10664 N 1024.32 -1.44642 0.625825 0
M  V30 10665 C 1025.27 -2.32408 -0.0945221 0
M  V30 10666 C 1026.27 -1.47038 -0.841198 0
M  V30 10667 O 1027.47 -1.63415 -0.754698 0
M  V30 10668 H 1023.85 -0.75038 -0.0493321 0
M  V30 10669 H 1025.82 -2.90922 0.663863 0
M  V30 10670 C 1024.57 -3.30951 -1.06615 0
M  V30 10671 H 1023.89 -3.96648 -0.501021 0
M  V30 10672 H 1025.33 -3.95054 -1.53976 0
M  V30 10673 C 1023.79 -2.59479 -2.14877 0
M  V30 10674 O 1024.32 -2.38974 -3.22885 0
M  V30 10675 N 1022.52 -2.19307 -1.90665 0
M  V30 10676 H 1022.07 -2.36184 -1.02835 0
M  V30 10677 H 1022.03 -1.71811 -2.63303 0
M  V30 10678 N 1025.8 -0.366053 -1.5329 0
M  V30 10679 C 1026.71 0.488111 -2.29466 0
M  V30 10680 C 1027.73 1.09219 -1.35452 0
M  V30 10681 O 1028.9 1.10303 -1.68509 0
M  V30 10682 C 1025.97 1.61202 -3.06944 0
M  V30 10683 C 1025.03 1.03543 -4.16626 0
M  V30 10684 C 1024.26 2.10578 -4.904 0
M  V30 10685 O 1024.49 3.31697 -4.6404 0
M  V30 10686 O 1023.42 1.73609 -5.76319 0
M  V30 10687 H 1027.25 -0.131789 -3.03414 0
M  V30 10688 H 1024.83 -0.130421 -1.4883 0
M  V30 10689 H 1026.71 2.26546 -3.55324 0
M  V30 10690 H 1025.39 2.21732 -2.35832 0
M  V30 10691 H 1024.29 0.345892 -3.72498 0
M  V30 10692 H 1025.63 0.474687 -4.89906 0
M  V30 10693 N 1027.28 1.57312 -0.0952337 0
M  V30 10694 C 1028.51 1.98697 0.57682 0
M  V30 10695 C 1028.92 0.974347 1.61716 0
M  V30 10696 O 1028.28 -0.036022 1.82464 0
M  V30 10697 C 1028.33 3.40133 1.2244 0
M  V30 10698 O 1028.05 4.37518 0.225678 0
M  V30 10699 C 1029.55 3.96522 1.98205 0
M  V30 10700 H 1026.77 0.65294 0.154629 0
M  V30 10701 H 1029.32 2.03754 -0.174562 0
M  V30 10702 H 1027.47 3.3609 1.92671 0
M  V30 10703 H 1027.89 5.199 0.693116 0
M  V30 10704 H 1029.36 4.97637 2.38875 0
M  V30 10705 H 1029.84 3.34347 2.84796 0
M  V30 10706 H 1030.44 4.04038 1.3279 0
M  V30 10707 N 1028.76 -0.17846 1.56586 0
M  V30 10708 C 1029.7 -1.22104 1.95855 0
M  V30 10709 C 1030.67 -1.44366 0.821447 0
M  V30 10710 O 1031.86 -1.57224 1.08098 0
M  V30 10711 C 1029 -2.55701 2.31757 0
M  V30 10712 C 1028.11 -2.40879 3.5861 0
M  V30 10713 C 1027.25 -3.67293 3.83757 0
M  V30 10714 C 1026.29 -3.47373 5.03982 0
M  V30 10715 N 1025.42 -4.65839 5.25298 0
M  V30 10716 H 1030.26 -0.879168 2.84736 0
M  V30 10717 H 1027.8 -0.422721 1.40895 0
M  V30 10718 H 1029.76 -3.33556 2.50592 0
M  V30 10719 H 1028.39 -2.87898 1.45995 0
M  V30 10720 H 1027.44 -1.54236 3.47729 0
M  V30 10721 H 1028.75 -2.22102 4.46623 0
M  V30 10722 H 1027.91 -4.53584 4.02922 0
M  V30 10723 H 1026.65 -3.89041 2.94107 0
M  V30 10724 H 1025.65 -2.59467 4.84723 0
M  V30 10725 H 1026.88 -3.27055 5.95157 0
M  V30 10726 H 1024.82 -4.8782 4.38598 0
M  V30 10727 H 1024.74 -4.4995 6.0752 0
M  V30 10728 H 1026.01 -5.53435 5.48936 0
M  V30 10729 N 1030.24 -1.51135 -0.446768 0
M  V30 10730 C 1031.48 -1.62571 -1.19388 0
M  V30 10731 C 1031.8 -0.3432 -1.92566 0
M  V30 10732 O 1033 -0.336804 -2.69403 0
M  V30 10733 C 1031.46 -2.87071 -2.17068 0
M  V30 10734 C 1031.07 -4.22291 -1.49581 0
M  V30 10735 C 1032.81 -3.07862 -2.9227 0
M  V30 10736 C 1030.72 -5.3795 -2.45689 0
M  V30 10737 H 1029.65 -0.60549 -0.449331 0
M  V30 10738 H 1032.3 -1.77593 -0.461846 0
M  V30 10739 H 1030.68 -2.65662 -2.93666 0
M  V30 10740 H 1031.86 -4.54046 -0.786054 0
M  V30 10741 H 1030.17 -4.07302 -0.865677 0
M  V30 10742 H 1032.77 -3.91444 -3.64246 0
M  V30 10743 H 1033.11 -2.20559 -3.53072 0
M  V30 10744 H 1033.64 -3.29566 -2.2278 0
M  V30 10745 H 1030.38 -6.27484 -1.89591 0
M  V30 10746 H 1029.9 -5.10583 -3.14746 0
M  V30 10747 H 1031.58 -5.69517 -3.07017 0
M  V30 10748 N 1031.71 0.701592 -1.41122 0
M  V30 10749 C 1032.96 1.46376 -1.40363 0
M  V30 10750 C 1033.29 1.94197 -0.0105442 0
M  V30 10751 O 1032.57 1.69121 0.960637 0
M  V30 10752 C 1032.85 2.67994 -2.40523 0
M  V30 10753 C 1032.7 2.25977 -3.88914 0
M  V30 10754 C 1034.02 3.70181 -2.38022 0
M  V30 10755 H 1031.14 0.530929 -0.511159 0
M  V30 10756 H 1033.78 0.799588 -1.72356 0
M  V30 10757 H 1031.93 3.24661 -2.13372 0
M  V30 10758 H 1033.61 1.74684 -4.26946 0
M  V30 10759 H 1031.85 1.57826 -4.04071 0
M  V30 10760 H 1032.52 3.13215 -4.54533 0
M  V30 10761 H 1035 3.23174 -2.62103 0
M  V30 10762 H 1033.87 4.52894 -3.10127 0
M  V30 10763 H 1034.13 4.19458 -1.3967 0
M  V30 10764 N 1033.19 1.2685 0.935242 0
M  V30 10765 C 1034.44 1.12522 1.67878 0
M  V30 10766 C 1034.76 -0.330894 1.92172 0
M  V30 10767 O 1034.03 -1.23259 1.52263 0
M  V30 10768 H 1032.61 0.413418 0.622169 0
M  V30 10769 H 1035.27 1.59267 1.12339 0
M  V30 10770 H 1034.37 1.64853 2.65009 0
M  V30 10771 N 1034.67 -1.14067 1.0875 0
M  V30 10772 C 1035.58 -2.22871 0.732498 0
M  V30 10773 C 1036.6 -1.72008 -0.26253 0
M  V30 10774 O 1037.77 -2.01123 -0.105601 0
M  V30 10775 C 1034.84 -3.46371 0.150913 0
M  V30 10776 C 1033.9 -4.12158 1.201 0
M  V30 10777 C 1033.13 -5.29763 0.647075 0
M  V30 10778 O 1033.35 -5.67911 -0.532307 0
M  V30 10779 O 1032.29 -5.8542 1.3988 0
M  V30 10780 H 1036.11 -2.55596 1.64025 0
M  V30 10781 H 1033.7 -1.22065 0.861417 0
M  V30 10782 H 1035.58 -4.21055 -0.170442 0
M  V30 10783 H 1034.26 -3.15362 -0.729948 0
M  V30 10784 H 1033.16 -3.39332 1.57494 0
M  V30 10785 H 1034.5 -4.47282 2.05426 0
M  V30 10786 N 1036.15 -0.873678 -1.31166 0
M  V30 10787 C 1037.08 -0.348011 -2.30892 0
M  V30 10788 C 1038.06 0.563092 -1.60509 0
M  V30 10789 O 1039.24 0.479332 -1.88192 0
M  V30 10790 C 1036.37 0.448158 -3.44396 0
M  V30 10791 C 1035.33 -0.370179 -4.26396 0
M  V30 10792 C 1034.65 0.551903 -5.31844 0
M  V30 10793 C 1035.95 -1.60624 -4.96988 0
M  V30 10794 H 1037.65 -1.18134 -2.75109 0
M  V30 10795 H 1035.19 -0.569502 -1.3226 0
M  V30 10796 H 1037.15 0.826458 -4.13216 0
M  V30 10797 H 1035.87 1.31503 -2.98956 0
M  V30 10798 H 1034.53 -0.730472 -3.59249 0
M  V30 10799 H 1034.18 1.41616 -4.82653 0
M  V30 10800 H 1033.88 0.00823478 -5.87599 0
M  V30 10801 H 1035.4 0.926965 -6.03523 0
M  V30 10802 H 1036.82 -1.29917 -5.58386 0
M  V30 10803 H 1035.21 -2.08926 -5.62557 0
M  V30 10804 H 1036.28 -2.357 -4.23761 0
M  V30 10805 N 1037.63 1.44308 -0.633487 0
M  V30 10806 C 1038.59 2.2912 0.060376 0
M  V30 10807 C 1039.59 1.41166 0.769992 0
M  V30 10808 O 1040.78 1.63012 0.614224 0
M  V30 10809 C 1037.91 3.22798 1.0961 0
M  V30 10810 H 1039.1 2.91958 -0.685617 0
M  V30 10811 H 1036.66 1.51259 -0.393738 0
M  V30 10812 H 1037.39 2.64815 1.87199 0
M  V30 10813 H 1037.18 3.87618 0.591161 0
M  V30 10814 H 1038.67 3.86504 1.58127 0
M  V30 10815 N 1039.1 0.374177 1.53094 0
M  V30 10816 C 1040.07 -0.455999 2.24618 0
M  V30 10817 C 1041.07 -1.00269 1.25709 0
M  V30 10818 O 1042.26 -0.887077 1.49922 0
M  V30 10819 C 1039.39 -1.63822 2.98957 0
M  V30 10820 H 1040.58 0.169986 2.99418 0
M  V30 10821 H 1038.14 0.126015 1.55791 0
M  V30 10822 H 1038.87 -2.30205 2.28421 0
M  V30 10823 H 1038.66 -1.25308 3.71538 0
M  V30 10824 H 1040.15 -2.22633 3.53305 0
M  V30 10825 N 1040.58 -1.57259 0.103575 0
M  V30 10826 C 1041.55 -2.13337 -0.837859 0
M  V30 10827 C 1042.55 -1.06459 -1.20512 0
M  V30 10828 O 1043.74 -1.32307 -1.13316 0
M  V30 10829 C 1040.87 -2.66093 -2.13089 0
M  V30 10830 H 1042.06 -2.97842 -0.350775 0
M  V30 10831 H 1039.61 -1.55621 -0.145511 0
M  V30 10832 H 1040.35 -1.85133 -2.66264 0
M  V30 10833 H 1040.13 -3.44244 -1.87719 0
M  V30 10834 H 1041.62 -3.09443 -2.80419 0
M  V30 10835 N 1042.06 0.170153 -1.56679 0
M  V30 10836 C 1042.99 1.23525 -1.93066 0
M  V30 10837 C 1044.01 1.40414 -0.823879 0
M  V30 10838 O 1045.19 1.40396 -1.10232 0
M  V30 10839 C 1042.29 2.60376 -2.16928 0
M  V30 10840 C 1041.47 2.6477 -3.4816 0
M  V30 10841 C 1040.53 3.82993 -3.60837 0
M  V30 10842 O 1039.55 3.68937 -4.33444 0
M  V30 10843 N 1040.75 4.99498 -2.95773 0
M  V30 10844 H 1043.52 0.926172 -2.8503 0
M  V30 10845 H 1041.08 0.359909 -1.57849 0
M  V30 10846 H 1043.07 3.37934 -2.22672 0
M  V30 10847 H 1041.64 2.83669 -1.31342 0
M  V30 10848 H 1040.86 1.73298 -3.54064 0
M  V30 10849 H 1042.15 2.64717 -4.34514 0
M  V30 10850 H 1041.55 5.13819 -2.36657 0
M  V30 10851 H 1040.11 5.74914 -3.07111 0
M  V30 10852 N 1043.54 1.5137 0.438746 0
M  V30 10853 C 1044.79 1.63645 1.18595 0
M  V30 10854 C 1045.11 0.354241 1.91755 0
M  V30 10855 O 1044.38 -0.629838 1.85499 0
M  V30 10856 H 1042.96 0.603103 0.440767 0
M  V30 10857 H 1045.62 1.88293 0.503159 0
M  V30 10858 H 1044.72 2.46342 1.9163 0
M  V30 10859 N 1045.02 -0.694098 1.41492 0
M  V30 10860 C 1045.96 -1.80801 1.43456 0
M  V30 10861 C 1046.93 -1.63571 0.288757 0
M  V30 10862 O 1048.12 -1.844 0.490017 0
M  V30 10863 C 1045.26 -3.18694 1.32394 0
M  V30 10864 C 1044.37 -3.47346 2.56855 0
M  V30 10865 C 1043.51 -4.74862 2.38075 0
M  V30 10866 C 1042.55 -4.96486 3.58005 0
M  V30 10867 N 1041.68 -6.15229 3.38287 0
M  V30 10868 H 1046.52 -1.78457 2.38657 0
M  V30 10869 H 1044.06 -0.871455 1.18508 0
M  V30 10870 H 1046.02 -3.98352 1.23982 0
M  V30 10871 H 1044.65 -3.20211 0.407999 0
M  V30 10872 H 1043.7 -2.62083 2.75711 0
M  V30 10873 H 1045.01 -3.59226 3.4606 0
M  V30 10874 H 1044.17 -5.62577 2.27139 0
M  V30 10875 H 1042.9 -4.6523 1.46329 0
M  V30 10876 H 1041.91 -4.07219 3.69395 0
M  V30 10877 H 1043.13 -5.07976 4.50708 0
M  V30 10878 H 1041.08 -6.06807 2.49242 0
M  V30 10879 H 1041 -6.27883 4.21069 0
M  V30 10880 H 1042.27 -7.05674 3.31126 0
M  V30 10881 N 1046.49 -1.27344 -0.928501 0
M  V30 10882 C 1047.91 -1.12361 -1.49103 0
M  V30 10883 C 1048.26 0.291667 -1.9402 0
M  V30 10884 O 1047.38 1.18449 -1.81104 0
M  V30 10885 C 1047.98 -2.03358 -2.70981 0
M  V30 10886 C 1046.54 -1.92483 -3.23461 0
M  V30 10887 C 1045.68 -1.95961 -1.962 0
M  V30 10888 H 1048.63 -1.40249 -0.742689 0
M  V30 10889 H 1048.65 -1.58892 -3.45736 0
M  V30 10890 H 1048.17 -3.06356 -2.38259 0
M  V30 10891 H 1046.27 -0.924676 -3.60944 0
M  V30 10892 H 1046.38 -2.78682 -3.89709 0
M  V30 10893 H 1044.74 -1.40175 -2.12657 0
M  V30 10894 H 1045.53 -3.00612 -1.65793 0
M  V30 10895 N 1047.97 1.13488 -1.09353 0
M  V30 10896 C 1049.22 1.85022 -0.830354 0
M  V30 10897 C 1049.55 1.83266 0.64242 0
M  V30 10898 O 1048.83 1.27024 1.47293 0
M  V30 10899 C 1049.11 3.33218 -1.36521 0
M  V30 10900 C 1048.96 3.43491 -2.90404 0
M  V30 10901 C 1050.28 4.28626 -0.998381 0
M  V30 10902 H 1047.4 0.671786 -0.303105 0
M  V30 10903 H 1050.04 1.33211 -1.3548 0
M  V30 10904 H 1048.19 3.77471 -0.919117 0
M  V30 10905 H 1049.86 3.07954 -3.43456 0
M  V30 10906 H 1048.11 2.84391 -3.27573 0
M  V30 10907 H 1048.78 4.47702 -3.22905 0
M  V30 10908 H 1051.25 3.9244 -1.38311 0
M  V30 10909 H 1050.13 5.30754 -1.39968 0
M  V30 10910 H 1050.39 4.42001 0.093517 0
M  V30 10911 N 1049.45 0.880621 1.30701 0
M  V30 10912 C 1050.73 0.41712 1.91101 0
M  V30 10913 C 1051.11 -1.10177 1.80067 0
M  V30 10914 O 1050.46 -1.93513 1.21511 0
M  V30 10915 C 1050.67 0.910364 3.36917 0
M  V30 10916 C 1052.01 0.942764 4.14001 0
M  V30 10917 O 1053.04 0.856733 3.45743 0
M  V30 10918 O 1051.9 1.06913 5.3594 0
M  V30 10919 H 1048.99 0.126775 0.817225 0
M  V30 10920 H 1051.54 0.969236 1.39298 0
M  V30 10921 H 1050.31 1.95414 3.39012 0
M  V30 10922 H 1049.93 0.337164 3.96168 0
M  V30 10923 N 1050.93 -1.4397 0.641131 0
M  V30 10924 C 1052.18 -2.01163 0.147026 0
M  V30 10925 C 1052.49 -1.51099 -1.24211 0
M  V30 10926 O 1053.7 -2.00487 -1.83078 0
M  V30 10927 C 1052.15 -3.59275 0.212068 0
M  V30 10928 C 1051.76 -4.18334 1.60314 0
M  V30 10929 C 1053.51 -4.23903 -0.225057 0
M  V30 10930 C 1051.41 -5.68701 1.62276 0
M  V30 10931 H 1050.34 -0.75226 0.051201 0
M  V30 10932 H 1052.99 -1.65075 0.801396 0
M  V30 10933 H 1051.38 -3.92708 -0.509589 0
M  V30 10934 H 1052.55 -3.96422 2.34918 0
M  V30 10935 H 1050.86 -3.66031 1.9852 0
M  V30 10936 H 1053.46 -5.34205 -0.230074 0
M  V30 10937 H 1053.8 -3.96956 -1.25426 0
M  V30 10938 H 1054.34 -3.95309 0.44444 0
M  V30 10939 H 1051.08 -6.00397 2.63066 0
M  V30 10940 H 1050.6 -5.92705 0.919797 0
M  V30 10941 H 1052.28 -6.32521 1.36112 0
M  V30 10942 N 1052.41 -0.382291 -1.52893 0
M  V30 10943 C 1053.37 0.44408 -2.24857 0
M  V30 10944 C 1054.37 0.996004 -1.26239 0
M  V30 10945 O 1055.56 0.879114 -1.5039 0
M  V30 10946 C 1052.69 1.62234 -2.99822 0
M  V30 10947 H 1053.89 -0.185862 -2.99324 0
M  V30 10948 H 1051.44 -0.134275 -1.55722 0
M  V30 10949 H 1052.17 2.28991 -2.29638 0
M  V30 10950 H 1051.96 1.23336 -3.72197 0
M  V30 10951 H 1053.45 2.20756 -3.54481 0
M  V30 10952 N 1053.89 1.57202 -0.111913 0
M  V30 10953 C 1055.13 1.94565 0.546713 0
M  V30 10954 C 1055.45 0.995644 1.67666 0
M  V30 10955 O 1054.72 0.0506681 1.95834 0
M  V30 10956 H 1053.3 0.718334 0.204951 0
M  V30 10957 H 1055.97 1.94074 -0.179193 0
M  V30 10958 H 1055.06 2.9742 0.945931 0
M  V30 10959 N 1055.36 -0.161842 1.56767 0
M  V30 10960 C 1056.59 -0.890953 1.86402 0
M  V30 10961 C 1057 -1.75918 0.696373 0
M  V30 10962 O 1056.34 -1.80461 -0.343463 0
M  V30 10963 C 1056.41 -1.81079 3.10565 0
M  V30 10964 C 1056.07 -1.12121 4.43032 0
M  V30 10965 C 1057.07 -0.482152 5.17659 0
M  V30 10966 C 1054.75 -1.11514 4.89765 0
M  V30 10967 C 1056.75 0.153772 6.37214 0
M  V30 10968 C 1054.43 -0.4754 6.09248 0
M  V30 10969 C 1055.43 0.157944 6.82817 0
M  V30 10970 O 1055.12 0.787579 8.00033 0
M  V30 10971 H 1054.85 -0.26379 0.622407 0
M  V30 10972 H 1057.41 -0.163884 2.04745 0
M  V30 10973 H 1055.64 -2.57842 2.88192 0
M  V30 10974 H 1057.32 -2.41056 3.26568 0
M  V30 10975 H 1058.09 -0.478752 4.82631 0
M  V30 10976 H 1053.97 -1.59752 4.32435 0
M  V30 10977 H 1057.51 0.648716 6.94577 0
M  V30 10978 H 1053.41 -0.476416 6.43739 0
M  V30 10979 H 1054.18 0.687769 8.15605 0
M  V30 10980 N 1056.84 -1.516 -0.430713 0
M  V30 10981 C 1058.07 -1.68169 -1.20011 0
M  V30 10982 C 1058.48 -0.381406 -1.85316 0
M  V30 10983 O 1057.82 0.6506 -1.71793 0
M  V30 10984 C 1057.88 -2.7454 -2.32095 0
M  V30 10985 C 1057.55 -4.16942 -1.87104 0
M  V30 10986 C 1058.55 -5.01503 -1.37078 0
M  V30 10987 C 1056.23 -4.63075 -1.94594 0
M  V30 10988 C 1058.22 -6.3026 -0.951362 0
M  V30 10989 C 1055.91 -5.91827 -1.52264 0
M  V30 10990 C 1056.91 -6.75247 -1.02618 0
M  V30 10991 O 1056.6 -8.01591 -0.608905 0
M  V30 10992 H 1056.33 -0.567361 -0.367528 0
M  V30 10993 H 1058.88 -1.98819 -0.515759 0
M  V30 10994 H 1057.11 -2.39219 -3.03828 0
M  V30 10995 H 1058.8 -2.79921 -2.93937 0
M  V30 10996 H 1059.57 -4.67063 -1.30681 0
M  V30 10997 H 1055.45 -3.98262 -2.32182 0
M  V30 10998 H 1058.99 -6.95323 -0.563163 0
M  V30 10999 H 1054.89 -6.2578 -1.58333 0
M  V30 11000 H 1055.66 -8.15201 -0.73416 0
M  V30 11001 N 1058.32 0.686584 -1.41858 0
M  V30 11002 C 1059.27 1.79271 -1.40875 0
M  V30 11003 C 1060.25 1.58413 -0.281782 0
M  V30 11004 O 1061.45 1.69093 -0.523132 0
M  V30 11005 C 1058.57 3.17647 -1.30213 0
M  V30 11006 C 1057.66 3.44168 -2.47808 0
M  V30 11007 N 1058.05 3.41339 -3.73258 0
M  V30 11008 C 1056.35 3.74755 -2.41815 0
M  V30 11009 C 1057.05 3.67016 -4.51303 0
M  V30 11010 N 1056.03 3.87203 -3.81543 0
M  V30 11011 H 1059.83 1.75459 -2.35778 0
M  V30 11012 H 1057.34 0.886946 -1.36041 0
M  V30 11013 H 1059.34 3.96896 -1.2759 0
M  V30 11014 H 1058 3.22664 -0.363021 0
M  V30 11015 H 1059.01 3.21511 -4.06018 0
M  V30 11016 H 1055.69 3.87089 -1.56423 0
M  V30 11017 H 1057.08 3.70888 -5.6026 0
M  V30 11018 N 1059.8 1.27835 0.921735 0
M  V30 11019 C 1061.21 1.13151 1.48505 0
M  V30 11020 C 1061.56 -0.281373 1.94172 0
M  V30 11021 O 1060.68 -1.17487 1.8173 0
M  V30 11022 C 1061.28 2.04792 2.69899 0
M  V30 11023 C 1059.84 1.94196 3.22436 0
M  V30 11024 C 1058.99 1.96999 1.95158 0
M  V30 11025 H 1061.94 1.40641 0.735241 0
M  V30 11026 H 1061.96 1.60724 3.44889 0
M  V30 11027 H 1061.47 3.07615 2.36631 0
M  V30 11028 H 1059.57 0.943805 3.60448 0
M  V30 11029 H 1059.68 2.80744 3.88226 0
M  V30 11030 H 1058.05 1.41301 2.11911 0
M  V30 11031 H 1058.83 3.01487 1.64196 0
M  V30 11032 N 1061.28 -1.12907 1.09954 0
M  V30 11033 C 1062.22 -2.20561 0.73863 0
M  V30 11034 C 1063.22 -1.67347 -0.262944 0
M  V30 11035 O 1064.42 -1.79574 -0.123834 0
M  V30 11036 H 1060.8 -0.718823 0.220901 0
M  V30 11037 H 1062.77 -2.4826 1.65559 0
M  V30 11038 C 1061.52 -3.47227 0.181239 0
M  V30 11039 H 1060.84 -3.88516 0.943144 0
M  V30 11040 H 1062.28 -4.23987 -0.0332888 0
M  V30 11041 C 1060.74 -3.18956 -1.08485 0
M  V30 11042 O 1061.27 -3.38224 -2.1672 0
M  V30 11043 N 1059.48 -2.72797 -1.00151 0
M  V30 11044 H 1059.02 -2.57317 -0.120645 0
M  V30 11045 H 1058.98 -2.54256 -1.84935 0
M  V30 11046 N 1062.75 -0.88754 -1.30232 0
M  V30 11047 C 1063.98 -0.522306 -2.00199 0
M  V30 11048 C 1064.4 0.889866 -1.66514 0
M  V30 11049 O 1063.75 1.58558 -0.903639 0
M  V30 11050 C 1063.8 -0.690551 -3.54843 0
M  V30 11051 O 1063.53 -2.04713 -3.8733 0
M  V30 11052 C 1065.03 -0.328649 -4.4208 0
M  V30 11053 H 1062.25 -0.201628 -0.63999 0
M  V30 11054 H 1064.79 -1.19355 -1.66056 0
M  V30 11055 H 1062.95 -0.0666493 -3.87343 0
M  V30 11056 H 1063.36 -2.06762 -4.82027 0
M  V30 11057 H 1064.83 -0.497257 -5.49756 0
M  V30 11058 H 1065.31 0.733502 -4.33032 0
M  V30 11059 H 1065.92 -0.928982 -4.1503 0
M  V30 11060 N 1064.23 1.43628 -0.648757 0
M  V30 11061 C 1065.51 1.95391 -0.0904551 0
M  V30 11062 C 1065.89 1.59021 1.38837 0
M  V30 11063 O 1065.24 0.873078 2.11163 0
M  V30 11064 C 1065.45 3.47418 -0.33196 0
M  V30 11065 C 1066.8 4.23952 -0.234521 0
M  V30 11066 O 1067.82 3.55218 -0.264276 0
M  V30 11067 O 1066.68 5.46282 -0.154428 0
M  V30 11068 H 1063.77 0.82691 0.0121884 0
M  V30 11069 H 1066.32 1.5359 -0.721685 0
M  V30 11070 H 1065.09 3.67001 -1.35741 0
M  V30 11071 H 1064.71 3.96207 0.332556 0
M  V30 11072 N 1065.71 0.390394 1.52688 0
M  V30 11073 C 1066.64 -0.43567 2.294 0
M  V30 11074 C 1067.62 -1.06253 1.32832 0
M  V30 11075 O 1068.81 -1.07509 1.61726 0
M  V30 11076 C 1065.94 -1.56259 3.10162 0
M  V30 11077 C 1064.89 -1.06172 4.14622 0
M  V30 11078 C 1064.22 -2.2808 4.83615 0
M  V30 11079 C 1065.52 -0.128902 5.22141 0
M  V30 11080 H 1067.21 0.204384 2.98702 0
M  V30 11081 H 1064.76 0.0997377 1.43654 0
M  V30 11082 H 1066.71 -2.14732 3.62585 0
M  V30 11083 H 1065.43 -2.23025 2.38595 0
M  V30 11084 H 1064.09 -0.499518 3.63181 0
M  V30 11085 H 1063.74 -2.93358 4.08595 0
M  V30 11086 H 1063.44 -1.95227 5.5422 0
M  V30 11087 H 1064.96 -2.87193 5.38844 0
M  V30 11088 H 1066.38 -0.621849 5.69917 0
M  V30 11089 H 1064.78 0.109919 5.99999 0
M  V30 11090 H 1065.85 0.821884 4.77884 0
M  V30 11091 N 1067.19 -1.57141 0.120249 0
M  V30 11092 C 1068.42 -1.99589 -0.545136 0
M  V30 11093 C 1068.83 -0.999951 -1.60145 0
M  V30 11094 O 1068.19 0.00698897 -1.82499 0
M  V30 11095 C 1068.24 -3.42038 -1.17014 0
M  V30 11096 O 1067.96 -4.37822 -0.156044 0
M  V30 11097 C 1069.46 -3.99625 -1.91872 0
M  V30 11098 H 1066.68 -0.655318 -0.144222 0
M  V30 11099 H 1069.23 -2.0345 0.206955 0
M  V30 11100 H 1067.38 -3.39113 -1.873 0
M  V30 11101 H 1067.79 -5.20937 -0.610317 0
M  V30 11102 H 1069.27 -5.01374 -2.30928 0
M  V30 11103 H 1069.75 -3.38836 -2.7944 0
M  V30 11104 H 1070.35 -4.061 -1.26345 0
M  V30 11105 N 1068.67 0.153526 -1.5685 0
M  V30 11106 C 1069.89 0.886343 -1.87507 0
M  V30 11107 C 1070.32 1.74244 -0.708565 0
M  V30 11108 O 1069.67 1.78045 0.341997 0
M  V30 11109 C 1069.72 1.72428 -3.16703 0
M  V30 11110 O 1068.83 2.82784 -3.00178 0
M  V30 11111 H 1068.17 0.247259 -0.616246 0
M  V30 11112 H 1070.7 0.146306 -2.04076 0
M  V30 11113 H 1070.71 2.12062 -3.4856 0
M  V30 11114 H 1069.38 1.09558 -4.01211 0
M  V30 11115 H 1067.96 2.46604 -2.79716 0
M  V30 11116 N 1070.14 1.51827 0.422667 0
M  V30 11117 C 1071.09 1.74198 1.51406 0
M  V30 11118 C 1072.06 0.584013 1.55494 0
M  V30 11119 O 1073.25 0.820079 1.72277 0
M  V30 11120 C 1070.39 1.88627 2.88988 0
M  V30 11121 C 1069.5 3.16233 2.94314 0
M  V30 11122 C 1068.63 3.21172 4.2311 0
M  V30 11123 C 1067.67 4.43033 4.2236 0
M  V30 11124 N 1066.81 4.4544 5.42704 0
M  V30 11125 H 1071.65 2.67352 1.31632 0
M  V30 11126 H 1069.19 1.32487 0.63919 0
M  V30 11127 H 1071.15 1.94976 3.68837 0
M  V30 11128 H 1069.78 0.988673 3.07287 0
M  V30 11129 H 1068.83 3.19123 2.07039 0
M  V30 11130 H 1070.14 4.06104 2.89623 0
M  V30 11131 H 1069.29 3.26517 5.11343 0
M  V30 11132 H 1068.03 2.29216 4.30478 0
M  V30 11133 H 1067.04 4.37849 3.32518 0
M  V30 11134 H 1068.26 5.3627 4.16643 0
M  V30 11135 H 1066.21 3.56361 5.50766 0
M  V30 11136 H 1066.13 5.29138 5.39953 0
M  V30 11137 H 1067.39 4.54997 6.32928 0
M  V30 11138 N 1071.62 -0.679052 1.4222 0
M  V30 11139 C 1072.59 -1.77448 1.45069 0
M  V30 11140 C 1073.59 -1.57189 0.338882 0
M  V30 11141 O 1074.78 -1.63559 0.599519 0
M  V30 11142 C 1071.91 -3.1603 1.27819 0
M  V30 11143 H 1073.1 -1.7631 2.426 0
M  V30 11144 H 1070.65 -0.888277 1.28605 0
M  V30 11145 H 1071.39 -3.22796 0.311946 0
M  V30 11146 H 1071.17 -3.32138 2.08391 0
M  V30 11147 H 1072.66 -3.9596 1.32686 0
M  V30 11148 N 1073.1 -1.28322 -0.914942 0
M  V30 11149 C 1074.35 -1.14785 -1.65853 0
M  V30 11150 C 1074.66 0.303135 -1.93237 0
M  V30 11151 O 1075.87 0.559606 -2.6567 0
M  V30 11152 C 1074.32 -2.00652 -2.98776 0
M  V30 11153 C 1073.93 -3.50483 -2.79044 0
M  V30 11154 C 1075.68 -1.95798 -3.76648 0
M  V30 11155 C 1073.58 -4.28505 -4.076 0
M  V30 11156 H 1072.51 -0.425987 -0.622135 0
M  V30 11157 H 1075.16 -1.52844 -1.01543 0
M  V30 11158 H 1073.55 -1.55447 -3.64214 0
M  V30 11159 H 1074.72 -4.03636 -2.22293 0
M  V30 11160 H 1073.04 -3.5685 -2.14586 0
M  V30 11161 H 1075.63 -2.51359 -4.71935 0
M  V30 11162 H 1075.98 -0.934455 -4.05677 0
M  V30 11163 H 1076.51 -2.38965 -3.18026 0
M  V30 11164 H 1073.25 -5.31433 -3.83744 0
M  V30 11165 H 1072.77 -3.80125 -4.63966 0
M  V30 11166 H 1074.45 -4.3836 -4.75867 0
M  V30 11167 N 1074.58 1.12322 -1.10551 0
M  V30 11168 C 1075.99 1.35858 -0.837543 0
M  V30 11169 C 1076.19 1.94062 0.54241 0
M  V30 11170 O 1075.25 2.1676 1.29505 0
M  V30 11171 C 1076.56 2.299 -1.9382 0
M  V30 11172 C 1078.11 2.43488 -1.96679 0
M  V30 11173 C 1078.59 3.40846 -3.05922 0
M  V30 11174 N 1080.08 3.48404 -3.05236 0
M  V30 11175 C 1080.81 4.2365 -3.86405 0
M  V30 11176 N 1080.31 5.01951 -4.77512 0
M  V30 11177 N 1082.1 4.19068 -3.74618 0
M  V30 11178 H 1074.25 0.729002 -1.99498 0
M  V30 11179 H 1076.52 0.38339 -0.867016 0
M  V30 11180 H 1076.22 1.94309 -2.9315 0
M  V30 11181 H 1076.1 3.30033 -1.82641 0
M  V30 11182 H 1078.48 2.78359 -0.979813 0
M  V30 11183 H 1078.56 1.43239 -2.11934 0
M  V30 11184 H 1078.21 3.06704 -4.04839 0
M  V30 11185 H 1078.14 4.40927 -2.87907 0
M  V30 11186 H 1080.63 2.92545 -2.39219 0
M  V30 11187 H 1080.94 5.56707 -5.36002 0
M  V30 11188 H 1079.29 5.01143 -4.8154 0
M  V30 11189 H 1082.48 3.5698 -3.02792 0
M  V30 11190 H 1082.65 4.77455 -4.38111 0
M  V30 11191 N 1076.06 0.894434 1.2976 0
M  V30 11192 C 1077.47 0.566892 1.77885 0
M  V30 11193 C 1077.82 -0.917289 1.73437 0
M  V30 11194 O 1076.94 -1.71707 1.31703 0
M  V30 11195 C 1077.54 1.02227 3.2301 0
M  V30 11196 C 1076.1 0.745978 3.68934 0
M  V30 11197 C 1075.24 1.19993 2.49994 0
M  V30 11198 H 1078.2 1.0777 1.16496 0
M  V30 11199 H 1078.22 0.355281 3.78838 0
M  V30 11200 H 1077.73 2.1025 3.26215 0
M  V30 11201 H 1075.83 -0.321866 3.71207 0
M  V30 11202 H 1075.94 1.34017 4.59974 0
M  V30 11203 H 1074.31 0.619047 2.47063 0
M  V30 11204 H 1075.09 2.28811 2.55931 0
M  V30 11205 N 1077.53 -1.43282 0.656365 0
M  V30 11206 C 1078.76 -2.06641 0.177245 0
M  V30 11207 C 1079.18 -1.48893 -1.14946 0
M  V30 11208 O 1078.54 -0.600099 -1.7108 0
M  V30 11209 C 1078.59 -3.60453 0.10299 0
M  V30 11210 O 1077.69 -4.01687 -0.933895 0
M  V30 11211 H 1077.04 -0.656978 0.096314 0
M  V30 11212 H 1079.57 -1.83733 0.900178 0
M  V30 11213 H 1079.58 -4.07923 -0.079291 0
M  V30 11214 H 1078.25 -4.01861 1.07147 0
M  V30 11215 H 1076.83 -3.65801 -0.724148 0
M  V30 11216 N 1079.01 -0.398486 -1.52479 0
M  V30 11217 C 1079.98 0.420206 -2.25315 0
M  V30 11218 C 1080.98 0.982559 -1.27289 0
M  V30 11219 O 1082.17 0.863113 -1.51314 0
M  V30 11220 C 1079.3 1.59045 -3.01525 0
M  V30 11221 H 1080.49 -0.217599 -2.9911 0
M  V30 11222 H 1078.04 -0.150784 -1.55571 0
M  V30 11223 H 1078.78 2.26542 -2.32054 0
M  V30 11224 H 1078.56 1.19382 -3.73484 0
M  V30 11225 H 1080.05 2.16984 -3.56802 0
M  V30 11226 N 1080.49 1.57075 -0.12858 0
M  V30 11227 C 1081.72 1.99876 0.534544 0
M  V30 11228 C 1082.13 1.00843 1.59612 0
M  V30 11229 O 1081.49 0.00268947 1.825 0
M  V30 11230 C 1081.54 3.42654 1.15198 0
M  V30 11231 O 1081.26 4.37899 0.132823 0
M  V30 11232 C 1082.76 4.00637 1.8975 0
M  V30 11233 H 1079.98 0.656073 0.140744 0
M  V30 11234 H 1082.53 2.03337 -0.217742 0
M  V30 11235 H 1080.68 3.40101 1.85499 0
M  V30 11236 H 1081.1 5.21253 0.582682 0
M  V30 11237 H 1082.57 5.02592 2.28266 0
M  V30 11238 H 1083.05 3.40313 2.7764 0
M  V30 11239 H 1083.65 4.06764 1.2419 0
M  V30 11240 N 1081.97 -0.145205 1.5693 0
M  V30 11241 C 1083.22 -0.857516 1.83447 0
M  V30 11242 C 1083.54 -1.81088 0.709739 0
M  V30 11243 O 1082.8 -1.9337 -0.301097 0
M  V30 11244 C 1083.1 -1.66391 3.16305 0
M  V30 11245 C 1082.76 -0.857171 4.42678 0
M  V30 11246 C 1081.43 -0.634611 4.76997 0
M  V30 11247 C 1083.78 -0.293105 5.20375 0
M  V30 11248 C 1081.11 0.162693 5.86474 0
M  V30 11249 C 1083.46 0.491248 6.3069 0
M  V30 11250 C 1082.12 0.724368 6.63558 0
M  V30 11251 H 1081.39 -0.313787 0.671281 0
M  V30 11252 H 1084.04 -0.121074 1.91117 0
M  V30 11253 H 1082.34 -2.47051 3.04094 0
M  V30 11254 H 1084.04 -2.21855 3.34038 0
M  V30 11255 H 1080.63 -1.0407 4.15773 0
M  V30 11256 H 1084.82 -0.452326 4.94234 0
M  V30 11257 H 1080.07 0.352788 6.10381 0
M  V30 11258 H 1084.25 0.935449 6.90089 0
M  V30 11259 H 1081.87 1.34403 7.48224 0
M  V30 11260 N 1083.45 -1.52049 -0.414609 0
M  V30 11261 C 1084.4 -1.75603 -1.52533 0
M  V30 11262 C 1085.39 -0.622965 -1.57529 0
M  V30 11263 O 1086.6 -0.804886 -1.61002 0
M  V30 11264 H 1082.97 -0.555222 -0.507181 0
M  V30 11265 H 1084.94 -2.68666 -1.2985 0
M  V30 11266 C 1083.69 -1.9188 -2.89961 0
M  V30 11267 H 1083.01 -2.78483 -2.86857 0
M  V30 11268 H 1084.45 -2.12363 -3.66985 0
M  V30 11269 C 1082.91 -0.684453 -3.29874 0
M  V30 11270 O 1083.44 0.150256 -4.01419 0
M  V30 11271 N 1081.65 -0.521936 -2.85874 0
M  V30 11272 H 1081.2 -1.20229 -2.27822 0
M  V30 11273 H 1081.15 0.302655 -3.1294 0
M  V30 11274 N 1084.93 0.6715 -1.42579 0
M  V30 11275 C 1085.89 1.76676 -1.46008 0
M  V30 11276 C 1086.89 1.57007 -0.347213 0
M  V30 11277 O 1088.08 1.63238 -0.608185 0
M  V30 11278 C 1085.21 3.15348 -1.29494 0
M  V30 11279 H 1086.4 1.75021 -2.43531 0
M  V30 11280 H 1083.96 0.881444 -1.29075 0
M  V30 11281 H 1084.69 3.22626 -0.32906 0
M  V30 11282 H 1084.48 3.31028 -2.10149 0
M  V30 11283 H 1085.97 3.95251 -1.34784 0
M  V30 11284 N 1086.4 1.28806 0.908124 0
M  V30 11285 C 1087.37 1.13228 1.99279 0
M  V30 11286 C 1088.37 0.0702456 1.60646 0
M  V30 11287 O 1089.56 0.316494 1.71301 0
M  V30 11288 C 1086.69 0.729629 3.33 0
M  V30 11289 H 1087.88 2.09566 2.14528 0
M  V30 11290 H 1085.43 1.11872 1.09153 0
M  V30 11291 H 1086.17 -0.234268 3.23453 0
M  V30 11292 H 1085.95 1.49688 3.62403 0
M  V30 11293 H 1087.44 0.643449 4.12613 0
M  V30 11294 N 1087.88 -1.11734 1.11145 0
M  V30 11295 C 1088.81 -2.1976 0.789152 0
M  V30 11296 C 1089.79 -1.68382 -0.241143 0
M  V30 11297 O 1090.98 -1.93914 -0.105292 0
M  V30 11298 C 1088.11 -3.46549 0.228204 0
M  V30 11299 C 1087.06 -4.11123 1.19002 0
M  V30 11300 C 1086.39 -5.32451 0.489928 0
M  V30 11301 C 1087.69 -4.56406 2.53951 0
M  V30 11302 H 1089.38 -2.46978 1.69241 0
M  V30 11303 H 1086.93 -1.18705 0.81517 0
M  V30 11304 H 1088.88 -4.21399 -0.00945908 0
M  V30 11305 H 1087.6 -3.18782 -0.71033 0
M  V30 11306 H 1086.26 -3.38264 1.41326 0
M  V30 11307 H 1085.91 -5.00953 -0.453315 0
M  V30 11308 H 1085.61 -5.76605 1.1314 0
M  V30 11309 H 1087.14 -6.10042 0.260984 0
M  V30 11310 H 1088.55 -5.22592 2.35733 0
M  V30 11311 H 1086.95 -5.11363 3.14051 0
M  V30 11312 H 1088.02 -3.7001 3.13402 0
M  V30 11313 N 1089.36 -0.901303 -1.29284 0
M  V30 11314 C 1090.32 -0.385081 -2.25942 0
M  V30 11315 C 1091.32 0.481626 -1.53418 0
M  V30 11316 O 1092.51 0.286451 -1.71829 0
M  V30 11317 C 1089.64 0.449319 -3.37926 0
M  V30 11318 H 1090.84 -1.23877 -2.7312 0
M  V30 11319 H 1088.39 -0.679586 -1.40753 0
M  V30 11320 H 1089.13 1.32292 -2.9609 0
M  V30 11321 H 1088.91 -0.171731 -3.91724 0
M  V30 11322 H 1090.4 0.801746 -4.09831 0
M  V30 11323 N 1090.84 1.42931 -0.663954 0
M  V30 11324 C 1092.25 1.84877 -0.260283 0
M  V30 11325 C 1092.6 1.5558 1.19538 0
M  V30 11326 O 1091.72 1.01015 1.91377 0
M  V30 11327 C 1092.32 3.35585 -0.465618 0
M  V30 11328 C 1090.88 3.76221 -0.116169 0
M  V30 11329 C 1090.03 2.66587 -0.763317 0
M  V30 11330 H 1092.98 1.32932 -0.866882 0
M  V30 11331 H 1093 3.79427 0.285608 0
M  V30 11332 H 1092.51 3.56877 -1.52515 0
M  V30 11333 H 1090.61 3.60539 0.940342 0
M  V30 11334 H 1090.72 4.75943 -0.549123 0
M  V30 11335 H 1089.09 2.53948 -0.19559 0
M  V30 11336 H 1089.87 2.90704 -1.82609 0
M  V30 11337 N 1092.32 0.406567 1.52266 0
M  V30 11338 C 1093.25 -0.411314 2.29849 0
M  V30 11339 C 1094.23 -1.04838 1.33952 0
M  V30 11340 O 1095.41 -1.05788 1.62857 0
M  V30 11341 C 1092.54 -1.52961 3.11802 0
M  V30 11342 C 1091.5 -1.01768 4.15725 0
M  V30 11343 C 1090.82 -2.22938 4.86007 0
M  V30 11344 C 1092.12 -0.073515 5.22248 0
M  V30 11345 H 1093.82 0.236054 2.98468 0
M  V30 11346 H 1091.36 0.114968 1.4354 0
M  V30 11347 H 1093.31 -2.10874 3.64843 0
M  V30 11348 H 1092.04 -2.20482 2.40947 0
M  V30 11349 H 1090.7 -0.46097 3.6369 0
M  V30 11350 H 1090.35 -2.89007 4.11684 0
M  V30 11351 H 1090.05 -1.89338 5.5626 0
M  V30 11352 H 1091.57 -2.81462 5.41859 0
M  V30 11353 H 1092.98 -0.561367 5.70545 0
M  V30 11354 H 1091.38 0.173551 5.99849 0
M  V30 11355 H 1092.45 0.872524 4.76985 0
M  V30 11356 N 1093.79 -1.57004 0.136909 0
M  V30 11357 C 1094.76 -2.15066 -0.792419 0
M  V30 11358 C 1095.76 -1.08991 -1.18226 0
M  V30 11359 O 1096.95 -1.34681 -1.10484 0
M  V30 11360 C 1094.08 -2.70554 -2.07397 0
M  V30 11361 H 1095.27 -2.98519 -0.28752 0
M  V30 11362 H 1092.83 -1.55895 -0.112469 0
M  V30 11363 H 1093.56 -1.90739 -2.62277 0
M  V30 11364 H 1093.35 -3.48149 -1.80374 0
M  V30 11365 H 1094.84 -3.15322 -2.73792 0
M  V30 11366 O 1095.31 0.00197522 -1.615 0
M  V30 11367 H 1096 0.618911 -1.83546 0
M  V30 END ATOM
M  V30 BEGIN BOND
M  V30 END BOND
M  V30 END CTAB
M  END
$$$$
