drugbank_target|P23219 Prostaglandin G/H synthase 1 (DB00154; DB00159; DB00244; DB00316; DB00328; DB00350; DB00461; DB00465; DB00469; DB00500; DB00554; DB00573; DB00586; DB00605; DB00711; DB00712; DB00749; DB00784; DB00788; DB00795; DB00812; DB00814; DB00821; DB00861; DB00870; DB00936; DB00939; DB00945; DB00963; DB00991; DB01009; DB01014; DB01050; DB01283; DB01397; DB01399; DB01401; DB01419; DB01435; DB01600; DB01837; DB01892; DB02047; DB02110; DB02198; DB02266; DB02379; DB02709; DB02773; DB03667; DB03752; DB03753; DB03783; DB04552; DB04557; DB04817; DB06725; DB06736; DB06802; DB07981; DB07983; DB07984; DB08814; DB09061; DB09212; DB09213; DB09214; DB09215; DB09216; DB09288; DB09295; DB11071; DB11079; DB11201; DB11323; DB12445; DB13346; DB13501; DB13783; DB14009; DB14011)
 OpenBabel12092119223D

  0  0  0     0  0            999 V3000
M  V30 BEGIN CTAB
M  V30 COUNTS 9625 9774 0 0 0
M  V30 BEGIN ATOM
M  V30 1 H -0.908 1.98254 -0.117106 0
M  V30 2 N 0 1.576 0 0
M  V30 3 C 0.933 2.03868 1.02534 0
M  V30 4 C 1.911 0.928543 1.3348 0
M  V30 5 O 3.095 1.19667 1.45644 0
M  V30 6 C 0.222 2.43627 2.35294 0
M  V30 7 C -0.732 3.65373 2.2001 0
M  V30 8 S 0.101 5.13292 1.52614 0
M  V30 9 C 1.257 5.56322 2.86805 0
M  V30 10 H 1.49 2.90518 0.631377 0
M  V30 11 H -0.977 1.52953 0.210867 0
M  V30 12 H 0.981 2.67203 3.11629 0
M  V30 13 H -0.358 1.57376 2.7183 0
M  V30 14 H -1.165 3.90944 3.18086 0
M  V30 15 H -1.563 3.418 1.51819 0
M  V30 16 H 0.729 5.58782 3.83104 0
M  V30 17 H 1.672 6.56266 2.65933 0
M  V30 18 H 2.08 4.83886 2.90714 0
M  V30 19 N 1.4781 -0.272755 1.55222 0
M  V30 20 C 2.7031 -1.02683 1.80197 0
M  V30 21 C 3.1281 -1.79142 0.573551 0
M  V30 22 O 2.4861 -1.74917 -0.476849 0
M  V30 23 C 2.5341 -1.9609 3.02624 0
M  V30 24 O 1.6381 -3.04863 2.77727 0
M  V30 25 H 0.9791 -0.293557 0.595584 0
M  V30 26 H 3.5091 -0.30159 2.02365 0
M  V30 27 H 3.5191 -2.38039 3.31363 0
M  V30 28 H 2.1941 -1.39851 3.91682 0
M  V30 29 H 0.7711 -2.67228 2.60084 0
M  V30 30 N 2.9562 -1.48159 -0.537278 0
M  V30 31 C 4.3722 -1.34118 -0.865129 0
M  V30 32 C 4.5722 -0.346678 -1.98495 0
M  V30 33 O 3.6282 0.234715 -2.51407 0
M  V30 34 C 4.9412 -2.73963 -1.23954 0
M  V30 35 C 6.4892 -2.82397 -1.34984 0
M  V30 36 C 6.9642 -4.22928 -1.75772 0
M  V30 37 N 8.4552 -4.25566 -1.82887 0
M  V30 38 C 9.1902 -5.31235 -2.15817 0
M  V30 39 N 8.6862 -6.47189 -2.47222 0
M  V30 40 N 10.4792 -5.18624 -2.16761 0
M  V30 41 H 2.6302 -2.1144 0.201715 0
M  V30 42 H 4.8932 -0.947598 0.0275949 0
M  V30 43 H 4.5992 -3.48264 -0.490381 0
M  V30 44 H 4.4732 -3.0702 -2.19132 0
M  V30 45 H 6.8602 -2.08356 -2.08978 0
M  V30 46 H 6.9412 -2.5297 -0.379448 0
M  V30 47 H 6.5852 -4.97482 -1.02341 0
M  V30 48 H 6.5152 -4.49794 -2.73848 0
M  V30 49 H 9.0062 -3.41924 -1.60924 0
M  V30 50 H 9.3192 -7.23564 -2.71433 0
M  V30 51 H 7.6642 -6.50476 -2.44757 0
M  V30 52 H 10.8552 -4.27056 -1.91679 0
M  V30 53 H 11.0282 -6.01078 -2.42093 0
M  V30 54 N 4.4343 0.785586 -1.36625 0
M  V30 55 C 5.6593 1.57963 -1.34397 0
M  V30 56 C 6.0843 1.87964 0.071526 0
M  V30 57 O 5.4423 1.48182 1.0446 0
M  V30 58 C 5.4903 2.87511 -2.17646 0
M  V30 59 O 4.5943 3.81281 -1.57158 0
M  V30 60 H 3.9353 0.479014 -0.459828 0
M  V30 61 H 6.4653 0.973411 -1.79961 0
M  V30 62 H 6.4753 3.36745 -2.30362 0
M  V30 63 H 5.1503 2.65002 -3.20541 0
M  V30 64 H 3.7273 3.39885 -1.53403 0
M  V30 65 N 5.9124 1.20967 1.01018 0
M  V30 66 C 6.8424 0.988272 2.11555 0
M  V30 67 C 7.8234 -0.0849778 1.69888 0
M  V30 68 O 9.0084 0.0738202 1.9406 0
M  V30 69 C 6.1384 0.546528 3.42973 0
M  V30 70 C 5.0924 1.56375 3.9841 0
M  V30 71 C 4.4184 0.97842 5.25672 0
M  V30 72 C 5.7184 2.94922 4.31066 0
M  V30 73 H 7.4124 1.91276 2.30334 0
M  V30 74 H 4.9584 0.921073 1.1069 0
M  V30 75 H 6.9114 0.378839 4.19694 0
M  V30 76 H 5.6354 -0.413598 3.23971 0
M  V30 77 H 4.2944 1.71891 3.23804 0
M  V30 78 H 3.9424 0.0101688 5.02999 0
M  V30 79 H 3.6424 1.65784 5.63728 0
M  V30 80 H 5.1664 0.821939 6.05043 0
M  V30 81 H 6.5804 2.8288 4.9865 0
M  V30 82 H 4.9774 3.5983 4.80253 0
M  V30 83 H 6.0474 3.4616 3.39561 0
M  V30 84 N 7.3905 -1.2043 1.01659 0
M  V30 85 C 8.3205 -2.25466 0.607226 0
M  V30 86 C 9.3015 -1.65853 -0.377716 0
M  V30 87 O 10.4865 -1.92409 -0.263149 0
M  V30 88 C 7.6165 -3.47256 -0.0552949 0
M  V30 89 C 6.5705 -4.19462 0.850632 0
M  V30 90 C 5.8965 -5.34673 0.0538859 0
M  V30 91 C 7.1965 -4.75603 2.15868 0
M  V30 92 H 8.8905 -2.59962 1.48526 0
M  V30 93 H 6.4365 -1.2496 0.715605 0
M  V30 94 H 8.3895 -4.19917 -0.353233 0
M  V30 95 H 7.1135 -3.11924 -0.968045 0
M  V30 96 H 5.7725 -3.48667 1.13257 0
M  V30 97 H 5.4205 -4.95585 -0.860514 0
M  V30 98 H 5.1205 -5.83913 0.657192 0
M  V30 99 H 6.6445 -6.10138 -0.237598 0
M  V30 100 H 8.0585 -5.40083 1.92311 0
M  V30 101 H 6.4555 -5.3528 2.71284 0
M  V30 102 H 7.5255 -3.94346 2.82169 0
M  V30 103 N 8.8686 -0.792821 -1.36206 0
M  V30 104 C 9.7986 -0.207853 -2.32573 0
M  V30 105 C 10.7796 0.659055 -1.56813 0
M  V30 106 O 11.9646 0.592176 -1.84951 0
M  V30 107 C 9.0946 0.655449 -3.41059 0
M  V30 108 C 8.0486 -0.111842 -4.27854 0
M  V30 109 C 7.3746 0.872274 -5.27537 0
M  V30 110 C 8.6746 -1.30299 -5.05786 0
M  V30 111 H 10.3686 -1.01294 -2.81744 0
M  V30 112 H 7.9146 -0.48854 -1.3546 0
M  V30 113 H 9.8676 1.07464 -4.07467 0
M  V30 114 H 8.5916 1.49328 -2.90463 0
M  V30 115 H 7.2506 -0.512053 -3.63006 0
M  V30 116 H 6.8986 1.70523 -4.73214 0
M  V30 117 H 6.5986 0.363291 -5.86476 0
M  V30 118 H 8.1226 1.28996 -5.96818 0
M  V30 119 H 9.5366 -0.959379 -5.65216 0
M  V30 120 H 7.9336 -1.7455 -5.74154 0
M  V30 121 H 9.0036 -2.09663 -4.37229 0
M  V30 122 N 10.3467 1.47872 -0.545128 0
M  V30 123 C 11.5927 2.03385 -0.0247951 0
M  V30 124 C 11.9477 1.41325 1.30556 0
M  V30 125 O 11.2407 0.5552 1.8338 0
M  V30 126 C 11.4347 3.57131 0.13867 0
M  V30 127 C 11.2637 4.34097 -1.17429 0
M  V30 128 C 10.0337 4.74458 -1.73831 0
M  V30 129 C 12.2317 4.6998 -2.08861 0
M  V30 130 N 10.2137 5.3602 -2.99258 0
M  V30 131 C 11.5847 5.31719 -3.18866 0
M  V30 132 C 13.6397 4.5191 -2.09003 0
M  V30 133 C 12.3427 5.77295 -4.29096 0
M  V30 134 C 14.3687 4.98477 -3.18237 0
M  V30 135 C 13.7307 5.60253 -4.26961 0
M  V30 136 H 9.8297 0.780339 -0.050943 0
M  V30 137 H 12.4137 1.80507 -0.729753 0
M  V30 138 H 10.5847 3.79802 0.812733 0
M  V30 139 H 12.3167 3.99282 0.659976 0
M  V30 140 H 9.0717 4.56037 -1.2778 0
M  V30 141 H 9.4957 5.71355 -3.63157 0
M  V30 142 H 14.1377 4.03516 -1.26234 0
M  V30 143 H 11.8557 6.24687 -5.12633 0
M  V30 144 H 15.4417 4.86274 -3.1942 0
M  V30 145 H 14.3217 5.95631 -5.10091 0
M  V30 146 N 11.8248 0.280983 1.55075 0
M  V30 147 C 13.0718 -0.334115 1.99725 0
M  V30 148 C 13.3998 -1.5542 1.1694 0
M  V30 149 O 12.6548 -1.94361 0.228531 0
M  V30 150 C 12.9538 -0.754656 3.49342 0
M  V30 151 C 12.6198 0.361445 4.49449 0
M  V30 152 C 11.2818 0.667893 4.76542 0
M  V30 153 C 13.6338 1.11322 5.09173 0
M  V30 154 C 10.9618 1.7296 5.60626 0
M  V30 155 C 13.3138 2.1647 5.9441 0
M  V30 156 C 11.9778 2.47742 6.19822 0
M  V30 157 H 11.2478 -0.122261 0.730844 0
M  V30 158 H 13.8948 0.395917 1.87363 0
M  V30 159 H 12.1998 -1.56446 3.5921 0
M  V30 160 H 13.8968 -1.24142 3.813 0
M  V30 161 H 10.4868 0.112481 4.28452 0
M  V30 162 H 14.6708 0.88973 4.8826 0
M  V30 163 H 9.9268 1.97684 5.78559 0
M  V30 164 H 14.1008 2.75193 6.3972 0
M  V30 165 H 11.7278 3.30145 6.84769 0
M  V30 166 N 13.3029 -1.57598 0.00835791 0
M  V30 167 C 14.2329 -2.1198 -0.979113 0
M  V30 168 C 15.2139 -1.03091 -1.35301 0
M  V30 169 O 16.3989 -1.30818 -1.43528 0
M  V30 170 C 13.5289 -2.62995 -2.26828 0
M  V30 171 C 12.4829 -3.76485 -2.03576 0
M  V30 172 C 11.8089 -4.13846 -3.38579 0
M  V30 173 C 13.1089 -5.0342 -1.39161 0
M  V30 174 H 14.8029 -2.94738 -0.526281 0
M  V30 175 H 12.3489 -1.41783 -0.251704 0
M  V30 176 H 14.3019 -2.99669 -2.96271 0
M  V30 177 H 13.0259 -1.7737 -2.7424 0
M  V30 178 H 11.6849 -3.40217 -1.36557 0
M  V30 179 H 11.3329 -3.25232 -3.83709 0
M  V30 180 H 11.0329 -4.90312 -3.23834 0
M  V30 181 H 12.5569 -4.53086 -4.09323 0
M  V30 182 H 13.9709 -5.37812 -1.98573 0
M  V30 183 H 12.3679 -5.84746 -1.34878 0
M  V30 184 H 13.4379 -4.83548 -0.361868 0
M  V30 185 N 14.781 0.264519 -1.55364 0
M  V30 186 C 15.711 1.33121 -1.91836 0
M  V30 187 C 16.692 1.51101 -0.781192 0
M  V30 188 O 17.877 1.64003 -1.04003 0
M  V30 189 C 15.007 2.68921 -2.19769 0
M  V30 190 C 13.961 2.65661 -3.35571 0
M  V30 191 C 13.287 4.05093 -3.49004 0
M  V30 192 C 14.587 2.24187 -4.71739 0
M  V30 193 H 16.281 1.02844 -2.81182 0
M  V30 194 H 13.827 0.493286 -1.35287 0
M  V30 195 H 15.78 3.43663 -2.43872 0
M  V30 196 H 14.504 3.00799 -1.27231 0
M  V30 197 H 13.163 1.93377 -3.1145 0
M  V30 198 H 12.811 4.34206 -2.53917 0
M  V30 199 H 12.511 4.03804 -4.26868 0
M  V30 200 H 14.035 4.81561 -3.75408 0
M  V30 201 H 15.449 2.88654 -4.9533 0
M  V30 202 H 13.846 2.34044 -5.52579 0
M  V30 203 H 14.916 1.19327 -4.69988 0
M  V30 204 N 16.2591 1.48442 0.529413 0
M  V30 205 C 17.5061 1.56488 1.28521 0
M  V30 206 C 17.8341 0.239042 1.93025 0
M  V30 207 O 17.0891 -0.770713 1.79885 0
M  V30 208 C 17.3881 2.6523 2.39558 0
M  V30 209 C 17.0541 4.07648 1.92702 0
M  V30 210 C 15.7161 4.46411 1.79641 0
M  V30 211 C 18.0681 4.96896 1.573 0
M  V30 212 C 15.3961 5.72226 1.29514 0
M  V30 213 C 17.7481 6.23202 1.08636 0
M  V30 214 C 16.4121 6.60821 0.941919 0
M  V30 215 H 15.6821 0.572631 0.470292 0
M  V30 216 H 18.3291 1.82161 0.59072 0
M  V30 217 H 16.6341 2.33419 3.14679 0
M  V30 218 H 18.3311 2.68671 2.97686 0
M  V30 219 H 14.9211 3.77036 2.03819 0
M  V30 220 H 19.1051 4.67626 1.66251 0
M  V30 221 H 14.3611 6.00097 1.17019 0
M  V30 222 H 18.5351 6.91753 0.803136 0
M  V30 223 H 16.1621 7.58198 0.5513 0
M  V30 224 N 17.7372 -0.778329 1.37039 0
M  V30 225 C 18.6672 -1.90546 1.34962 0
M  V30 226 C 19.6482 -1.68681 0.219274 0
M  V30 227 O 20.8332 -1.89634 0.418624 0
M  V30 228 C 17.9632 -3.27734 1.14925 0
M  V30 229 C 16.9172 -3.64147 2.24902 0
M  V30 230 C 16.2432 -4.99806 1.89996 0
M  V30 231 C 17.5432 -3.71579 3.67051 0
M  V30 232 H 19.2372 -1.92541 2.29277 0
M  V30 233 H 16.7832 -0.924948 1.10366 0
M  V30 234 H 18.7362 -4.06215 1.12104 0
M  V30 235 H 17.4602 -3.26154 0.170631 0
M  V30 236 H 16.1192 -2.8797 2.26868 0
M  V30 237 H 15.7672 -4.94759 0.906796 0
M  V30 238 H 15.4672 -5.25139 2.63634 0
M  V30 239 H 16.9912 -5.80694 1.88749 0
M  V30 240 H 18.4052 -4.40227 3.67251 0
M  V30 241 H 16.8022 -4.08405 4.39688 0
M  V30 242 H 17.8722 -2.72404 4.01154 0
M  V30 243 N 19.2153 -1.21501 -1.00376 0
M  V30 244 C 20.1453 -0.999478 -2.11028 0
M  V30 245 C 21.1263 0.0759671 -1.6993 0
M  V30 246 O 22.3113 -0.0841106 -1.94018 0
M  V30 247 C 19.4413 -0.564709 -3.42678 0
M  V30 248 C 18.3953 -1.58486 -3.97576 0
M  V30 249 C 17.7213 -1.00628 -5.25146 0
M  V30 250 C 19.0213 -2.97204 -4.29496 0
M  V30 251 H 20.7153 -1.92495 -2.29317 0
M  V30 252 H 18.2613 -0.92693 -1.102 0
M  V30 253 H 20.2143 -0.401091 -4.19487 0
M  V30 254 H 18.9383 0.396411 -3.24185 0
M  V30 255 H 17.5973 -1.73606 -3.22888 0
M  V30 256 H 17.2453 -0.0368439 -5.02987 0
M  V30 257 H 16.9453 -1.68771 -5.62841 0
M  V30 258 H 18.4693 -0.854015 -6.04598 0
M  V30 259 H 19.8833 -2.8552 -4.97143 0
M  V30 260 H 18.2803 -3.62372 -4.78338 0
M  V30 261 H 19.3503 -3.47956 -3.3772 0
M  V30 262 N 20.6934 1.19889 -1.02296 0
M  V30 263 C 21.6234 2.25141 -0.619174 0
M  V30 264 C 22.6044 1.66051 0.368915 0
M  V30 265 O 23.7894 1.92546 0.252941 0
M  V30 266 C 20.9194 3.4728 0.0368783 0
M  V30 267 C 19.8734 4.19005 -0.872865 0
M  V30 268 C 19.1994 5.34637 -0.0822402 0
M  V30 269 C 20.4994 4.74452 -2.18387 0
M  V30 270 H 22.1934 2.59171 -1.49903 0
M  V30 271 H 19.7394 1.24579 -0.722222 0
M  V30 272 H 21.6924 4.20098 0.330958 0
M  V30 273 H 20.4164 3.12433 0.95149 0
M  V30 274 H 19.0754 3.48061 -1.15105 0
M  V30 275 H 18.7234 4.96034 0.83422 0
M  V30 276 H 18.4234 5.83557 -0.688149 0
M  V30 277 H 19.9474 6.10255 0.205238 0
M  V30 278 H 21.3614 5.39055 -1.95172 0
M  V30 279 H 19.7584 5.33834 -2.74119 0
M  V30 280 H 20.8284 3.92844 -2.84257 0
M  V30 281 N 22.1715 0.800033 1.35784 0
M  V30 282 C 23.1015 0.220184 2.3246 0
M  V30 283 C 24.0825 -0.65073 1.57161 0
M  V30 284 O 25.2675 -0.582359 1.85263 0
M  V30 285 C 22.3975 -0.637353 3.41402 0
M  V30 286 C 21.3515 0.134531 4.27789 0
M  V30 287 C 20.6775 -0.844285 5.27992 0
M  V30 288 C 21.9775 1.32979 5.05088 0
M  V30 289 H 23.6715 1.02787 2.81203 0
M  V30 290 H 21.2175 0.495717 1.35199 0
M  V30 291 H 23.1705 -1.05302 4.08031 0
M  V30 292 H 21.8945 -1.47785 2.91251 0
M  V30 293 H 20.5535 0.531296 3.6273 0
M  V30 294 H 20.2015 -1.68011 4.74111 0
M  V30 295 H 19.9015 -0.332184 5.8666 0
M  V30 296 H 21.4255 -1.2583 5.97494 0
M  V30 297 H 22.8395 0.98934 5.64699 0
M  V30 298 H 21.2365 1.77593 5.7322 0
M  V30 299 H 22.3065 2.11978 4.36111 0
M  V30 300 N 23.6496 -1.47581 0.552962 0
M  V30 301 C 25.0606 -1.86324 0.118463 0
M  V30 302 C 25.4116 -1.46006 -1.3106 0
M  V30 303 O 24.5366 -0.861182 -1.98526 0
M  V30 304 C 25.1316 -3.3816 0.20821 0
M  V30 305 C 23.6906 -3.7601 -0.171226 0
M  V30 306 C 22.8376 -2.71634 0.557686 0
M  V30 307 H 25.7886 -1.39159 0.762928 0
M  V30 308 H 25.8096 -3.76141 -0.574278 0
M  V30 309 H 25.3216 -3.67473 1.24841 0
M  V30 310 H 23.4226 -3.52313 -1.21269 0
M  V30 311 H 23.5356 -4.78745 0.184379 0
M  V30 312 H 21.8996 -2.547 0.00125792 0
M  V30 313 H 22.6826 -3.0379 1.59896 0
M  V30 314 N 25.1277 -0.289203 -1.54924 0
M  V30 315 C 26.5387 0.205791 -1.85562 0
M  V30 316 C 26.8897 1.54351 -1.2112 0
M  V30 317 O 26.0147 2.10435 -0.504601 0
M  V30 318 C 26.6097 0.380177 -3.3666 0
M  V30 319 C 25.1687 0.819395 -3.67373 0
M  V30 320 C 24.3157 -0.079159 -2.77187 0
M  V30 321 H 27.2667 -0.510577 -1.50262 0
M  V30 322 H 27.2877 1.21659 -3.60526 0
M  V30 323 H 26.7997 -0.593589 -3.83534 0
M  V30 324 H 24.9007 1.80413 -3.26009 0
M  V30 325 H 25.0137 0.646957 -4.74712 0
M  V30 326 H 23.3777 0.439565 -2.50878 0
M  V30 327 H 24.1607 -1.04906 -3.26878 0
M  V30 328 N 26.6058 1.57591 -0.0167156 0
M  V30 329 C 27.5358 2.12496 0.967858 0
M  V30 330 C 28.5168 1.03807 1.34752 0
M  V30 331 O 29.7018 1.31577 1.42833 0
M  V30 332 C 26.8318 2.64194 2.25431 0
M  V30 333 C 25.7858 3.77559 2.01576 0
M  V30 334 C 25.1118 4.15636 3.36379 0
M  V30 335 C 26.4118 5.04151 1.36489 0
M  V30 336 H 28.1058 2.95013 0.510643 0
M  V30 337 H 25.6518 1.41915 0.244181 0
M  V30 338 H 27.6048 3.01236 2.94678 0
M  V30 339 H 26.3288 1.78821 2.73296 0
M  V30 340 H 24.9878 3.40937 1.34751 0
M  V30 341 H 24.6358 3.27263 3.81979 0
M  V30 342 H 24.3358 4.92022 3.21229 0
M  V30 343 H 25.8598 4.5525 4.06915 0
M  V30 344 H 27.2738 5.38857 1.95718 0
M  V30 345 H 25.6708 5.85453 1.31776 0
M  V30 346 H 26.7408 4.83733 0.336219 0
M  V30 347 N 28.0839 -0.256276 1.55502 0
M  V30 348 C 29.4949 -0.826068 1.67431 0
M  V30 349 C 29.8459 -1.86396 0.612446 0
M  V30 350 O 28.9709 -2.15031 -0.243025 0
M  V30 351 C 29.5659 -1.50512 3.03532 0
M  V30 352 C 28.1249 -2.02273 3.17431 0
M  V30 353 C 27.2719 -0.870548 2.63281 0
M  V30 354 H 30.2229 -0.0322728 1.58667 0
M  V30 355 H 30.2439 -2.37279 2.97454 0
M  V30 356 H 29.7559 -0.749484 3.80794 0
M  V30 357 H 27.8569 -2.80746 2.44974 0
M  V30 358 H 27.9699 -2.22655 4.24219 0
M  V30 359 H 26.3339 -1.26851 2.20864 0
M  V30 360 H 27.1169 -0.128149 3.43061 0
M  V30 361 N 29.562 -1.4872 -0.521534 0
M  V30 362 C 30.808 -1.574 -1.27879 0
M  V30 363 C 31.141 -0.250817 -1.92573 0
M  V30 364 O 30.416 0.743934 -1.79711 0
M  V30 365 C 30.699 -2.71843 -2.36164 0
M  V30 366 C 30.552 -4.13893 -1.76105 0
M  V30 367 C 31.871 -2.82008 -3.37875 0
M  V30 368 H 28.99 -0.572941 -0.463581 0
M  V30 369 H 31.632 -1.80927 -0.580119 0
M  V30 370 H 29.782 -2.51914 -2.95756 0
M  V30 371 H 31.454 -4.45284 -1.20499 0
M  V30 372 H 29.697 -4.20498 -1.06601 0
M  V30 373 H 30.368 -4.89804 -2.5455 0
M  V30 374 H 32.844 -3.00086 -2.88249 0
M  V30 375 H 31.72 -3.63796 -4.11028 0
M  V30 376 H 31.981 -1.90511 -3.98946 0
M  V30 377 N 31.0401 0.771051 -1.3745 0
M  V30 378 C 31.9701 1.89827 -1.3597 0
M  V30 379 C 32.9511 1.68562 -0.228216 0
M  V30 380 O 34.1361 1.8941 -0.428675 0
M  V30 381 C 31.2661 3.2712 -1.16662 0
M  V30 382 C 30.2201 3.6295 -2.2683 0
M  V30 383 C 29.5461 4.98791 -1.92644 0
M  V30 384 C 30.8461 3.69627 -3.69017 0
M  V30 385 H 32.5401 1.91323 -2.30295 0
M  V30 386 H 30.0861 0.919082 -1.10855 0
M  V30 387 H 32.0391 4.05615 -1.14256 0
M  V30 388 H 30.7631 3.26059 -0.187926 0
M  V30 389 H 29.4221 2.86763 -2.28392 0
M  V30 390 H 29.0701 4.94271 -0.933021 0
M  V30 391 H 28.7701 5.23733 -2.66416 0
M  V30 392 H 30.2941 5.79685 -1.91826 0
M  V30 393 H 31.7081 4.38273 -3.69581 0
M  V30 394 H 30.1051 4.06067 -4.41848 0
M  V30 395 H 31.1751 2.70273 -4.02592 0
M  V30 396 N 32.5182 1.22032 0.997298 0
M  V30 397 C 33.4482 1.01065 2.10495 0
M  V30 398 C 34.4292 -0.0669542 1.69968 0
M  V30 399 O 35.6142 0.0943987 1.9397 0
M  V30 400 C 32.7442 0.582874 3.42374 0
M  V30 401 C 31.6982 1.60592 3.96729 0
M  V30 402 C 31.0242 1.03412 5.24605 0
M  V30 403 C 32.3242 2.99478 4.27914 0
M  V30 404 H 34.0182 1.93708 2.28292 0
M  V30 405 H 31.5642 0.932761 1.09707 0
M  V30 406 H 33.5172 0.423332 4.19268 0
M  V30 407 H 32.2412 -0.379213 3.24391 0
M  V30 408 H 30.9002 1.75316 3.21963 0
M  V30 409 H 30.5482 0.063518 5.0296 0
M  V30 410 H 30.2482 1.71754 5.61938 0
M  V30 411 H 31.7722 0.886066 6.04137 0
M  V30 412 H 33.1862 2.88153 4.95622 0
M  V30 413 H 31.5832 3.64903 4.76409 0
M  V30 414 H 32.6532 3.49742 3.3587 0
M  V30 415 N 33.9963 -1.19345 1.0293 0
M  V30 416 C 34.9593 -2.20793 0.615069 0
M  V30 417 C 35.9593 -1.57553 -0.321533 0
M  V30 418 O 37.1493 -1.73862 -0.108483 0
M  V30 419 C 34.2813 -3.40754 -0.0999222 0
M  V30 420 H 35.4743 -2.58955 1.51269 0
M  V30 421 H 33.0273 -1.3303 0.820534 0
M  V30 422 H 33.7623 -3.0811 -1.01187 0
M  V30 423 H 33.5473 -3.87889 0.57309 0
M  V30 424 H 35.0373 -4.15898 -0.376645 0
M  V30 425 N 35.4744 -0.807222 -1.35358 0
M  V30 426 C 36.7514 -0.311126 -1.9311 0
M  V30 427 C 37.1314 1.19937 -1.73719 0
M  V30 428 O 36.4794 1.99918 -1.10657 0
M  V30 429 C 36.6894 -0.723226 -3.41424 0
M  V30 430 C 38.0374 -0.713078 -4.18569 0
M  V30 431 O 39.0614 -0.664811 -3.49941 0
M  V30 432 O 37.9204 -0.772022 -5.41019 0
M  V30 433 H 35.0144 -0.081526 -0.822972 0
M  V30 434 H 37.5604 -0.890962 -1.4443 0
M  V30 435 H 36.3324 -1.76426 -3.4927 0
M  V30 436 H 35.9554 -0.118232 -3.97424 0
M  V30 437 N 36.9525 1.47285 -0.560781 0
M  V30 438 C 38.3635 1.86258 -0.128343 0
M  V30 439 C 38.7145 1.46699 1.30284 0
M  V30 440 O 37.8395 0.871698 1.98067 0
M  V30 441 C 38.4345 3.38044 -0.22614 0
M  V30 442 C 36.9935 3.76096 0.151283 0
M  V30 443 C 36.1405 2.71335 -0.572084 0
M  V30 444 H 39.0915 1.38752 -0.770297 0
M  V30 445 H 39.1125 3.76441 0.554322 0
M  V30 446 H 38.6245 3.66806 -1.26788 0
M  V30 447 H 36.7255 3.52951 1.19399 0
M  V30 448 H 36.8385 4.78641 -0.209765 0
M  V30 449 H 35.2025 2.54696 -0.0147653 0
M  V30 450 H 35.9855 3.02938 -1.61504 0
M  V30 451 N 38.4306 0.297415 1.54768 0
M  V30 452 C 39.6786 -0.312295 1.99673 0
M  V30 453 C 39.9996 -1.54686 1.18732 0
M  V30 454 O 39.2696 -1.93854 0.282382 0
M  V30 455 H 37.8496 -0.118381 0.73756 0
M  V30 456 H 40.5116 0.407915 1.90583 0
M  V30 457 H 39.6076 -0.586813 3.06534 0
M  V30 458 N 39.9087 -1.5758 0.0250728 0
M  V30 459 C 40.8717 -2.08896 -0.943139 0
M  V30 460 C 41.8717 -1.00321 -1.25668 0
M  V30 461 O 43.0617 -1.26495 -1.19769 0
M  V30 462 C 40.1937 -2.55143 -2.26086 0
M  V30 463 H 41.3867 -2.95723 -0.498775 0
M  V30 464 H 38.9397 -1.54703 -0.222888 0
M  V30 465 H 39.6747 -1.71633 -2.75159 0
M  V30 466 H 39.4597 -3.34461 -2.04641 0
M  V30 467 H 40.9497 -2.95083 -2.95492 0
M  V30 468 N 41.3868 0.248026 -1.55636 0
M  V30 469 C 42.7978 0.817177 -1.67866 0
M  V30 470 C 43.1488 1.86069 -0.622322 0
M  V30 471 O 42.2738 2.15157 0.231618 0
M  V30 472 C 42.8688 1.489 -3.04326 0
M  V30 473 C 41.4278 2.00587 -3.185 0
M  V30 474 C 40.5748 0.856573 -2.63739 0
M  V30 475 H 43.5258 0.0238579 -1.58682 0
M  V30 476 H 43.5468 2.35698 -2.98708 0
M  V30 477 H 43.0588 0.729279 -3.81186 0
M  V30 478 H 41.1598 2.79443 -2.4646 0
M  V30 479 H 41.2728 2.20402 -4.25393 0
M  V30 480 H 39.6368 1.25678 -2.21534 0
M  V30 481 H 40.4198 0.109953 -3.43124 0
M  V30 482 N 42.8649 1.48995 0.513639 0
M  V30 483 C 44.0929 1.61531 1.29288 0
M  V30 484 C 44.5079 0.281801 1.86685 0
M  V30 485 O 43.8649 -0.731111 1.67215 0
M  V30 486 C 43.9159 2.67449 2.43215 0
M  V30 487 O 43.6369 3.95626 1.88179 0
M  V30 488 C 45.1379 2.90575 3.34785 0
M  V30 489 H 42.3579 0.544165 0.392588 0
M  V30 490 H 44.9019 1.9494 0.617956 0
M  V30 491 H 43.0569 2.36853 3.0656 0
M  V30 492 H 43.4709 4.53868 2.62876 0
M  V30 493 H 44.9449 3.68449 4.11035 0
M  V30 494 H 45.4219 2.00011 3.91015 0
M  V30 495 H 46.0279 3.22538 2.77218 0
M  V30 496 N 44.343 -0.763751 1.37857 0
M  V30 497 C 45.754 -1.3405 1.29952 0
M  V30 498 C 46.105 -1.96138 -0.0492898 0
M  V30 499 O 45.23 -1.94372 -0.951239 0
M  V30 500 C 45.825 -2.43729 2.35333 0
M  V30 501 C 44.384 -2.97151 2.31037 0
M  V30 502 C 43.531 -1.70438 2.18738 0
M  V30 503 H 46.482 -0.563396 1.48363 0
M  V30 504 H 46.503 -3.23412 2.00462 0
M  V30 505 H 46.015 -1.9851 3.33489 0
M  V30 506 H 44.116 -3.46724 1.3643 0
M  V30 507 H 44.229 -3.52221 3.24772 0
M  V30 508 H 42.593 -1.93673 1.65418 0
M  V30 509 H 43.376 -1.27312 3.18821 0
M  V30 510 N 45.8211 -1.22559 -0.990812 0
M  V30 511 C 47.0671 -1.05297 -1.73322 0
M  V30 512 C 47.4001 0.410655 -1.89808 0
M  V30 513 O 46.6751 1.30439 -1.44277 0
M  V30 514 C 46.9581 -1.76713 -3.13759 0
M  V30 515 C 46.8111 -3.30684 -3.04907 0
M  V30 516 C 48.1301 -1.52121 -4.12974 0
M  V30 517 H 45.2491 -0.38392 -0.629106 0
M  V30 518 H 47.8911 -1.50926 -1.15418 0
M  V30 519 H 46.0411 -1.37924 -3.63193 0
M  V30 520 H 47.7131 -3.7893 -2.63077 0
M  V30 521 H 45.9561 -3.60253 -2.41661 0
M  V30 522 H 46.6271 -3.75833 -4.04294 0
M  V30 523 H 49.1031 -1.85819 -3.72304 0
M  V30 524 H 47.9791 -2.04582 -5.0935 0
M  V30 525 H 48.2401 -0.454257 -4.3976 0
M  V30 526 N 47.2992 1.18797 -1.03562 0
M  V30 527 C 48.2472 2.24297 -0.615905 0
M  V30 528 C 49.2412 1.65643 0.354808 0
M  V30 529 O 50.4472 1.78618 0.22265 0
M  V30 530 H 46.8222 0.729909 -0.180934 0
M  V30 531 H 48.7932 2.5701 -1.5162 0
M  V30 532 C 47.5422 3.47698 0.0104735 0
M  V30 533 H 46.8652 3.93125 -0.727509 0
M  V30 534 H 48.3052 4.23159 0.266995 0
M  V30 535 C 46.7642 3.12489 1.25905 0
M  V30 536 O 47.2942 3.25761 2.35038 0
M  V30 537 N 45.5002 2.6686 1.15039 0
M  V30 538 H 45.0472 2.56261 0.262328 0
M  V30 539 H 45.0052 2.43674 1.98672 0
M  V30 540 N 48.7773 0.814389 1.34928 0
M  V30 541 C 50.1883 0.458364 1.80986 0
M  V30 542 C 50.5393 -1.02042 1.67577 0
M  V30 543 O 49.6643 -1.79352 1.21086 0
M  V30 544 C 50.2593 0.825212 3.28597 0
M  V30 545 C 48.8183 0.521677 3.72767 0
M  V30 546 C 47.9653 1.04668 2.56788 0
M  V30 547 H 50.9163 1.00533 1.22795 0
M  V30 548 H 50.9373 0.12571 3.80292 0
M  V30 549 H 50.4493 1.90154 3.38324 0
M  V30 550 H 48.5503 -0.545589 3.68584 0
M  V30 551 H 48.6633 1.05977 4.67232 0
M  V30 552 H 47.0273 0.468622 2.50352 0
M  V30 553 H 47.8103 2.12927 2.6929 0
M  V30 554 N 50.2554 -1.46986 0.568584 0
M  V30 555 C 51.4954 -2.04336 0.0512999 0
M  V30 556 C 51.8594 -1.43214 -1.27881 0
M  V30 557 O 53.0604 -1.91679 -1.88448 0
M  V30 558 C 51.3314 -3.57389 -0.0282328 0
M  V30 559 S 52.8904 -4.36056 -0.489991 0
M  V30 560 H 49.7084 -0.71034 0.0306349 0
M  V30 561 H 52.3104 -1.80212 0.757891 0
M  V30 562 H 51.0144 -3.99395 0.944011 0
M  V30 563 H 50.5454 -3.86028 -0.75803 0
M  V30 564 H 52.5604 -4.6441 -1.74752 0
M  V30 565 N 51.7335 -0.305618 -1.54608 0
M  V30 566 C 52.9735 0.303114 -2.0214 0
M  V30 567 C 53.3375 1.50737 -1.18921 0
M  V30 568 O 54.5385 2.18778 -1.56172 0
M  V30 569 C 52.8095 0.646332 -3.51507 0
M  V30 570 S 54.3685 1.23727 -4.20995 0
M  V30 571 H 51.1865 0.0927643 -0.704923 0
M  V30 572 H 53.7885 -0.434566 -1.90609 0
M  V30 573 H 52.4925 -0.238541 -4.09706 0
M  V30 574 H 52.0235 1.41468 -3.67084 0
M  V30 575 H 54.0385 2.52489 -4.27158 0
M  V30 576 N 53.2116 1.57565 -0.0334293 0
M  V30 577 C 54.4416 1.95996 0.653398 0
M  V30 578 C 54.8496 0.908749 1.65947 0
M  V30 579 O 54.1926 -0.117471 1.83324 0
M  V30 580 C 54.2546 3.30589 1.41249 0
M  V30 581 C 53.9186 4.53503 0.564263 0
M  V30 582 C 54.9156 5.19647 -0.16225 0
M  V30 583 C 52.6006 4.99801 0.500398 0
M  V30 584 C 54.5946 6.30412 -0.941255 0
M  V30 585 C 52.2816 6.10448 -0.282308 0
M  V30 586 C 53.2796 6.75612 -1.00184 0
M  V30 587 O 52.9676 7.84134 -1.77171 0
M  V30 588 H 52.6996 0.65027 0.184728 0
M  V30 589 H 55.2536 2.05199 -0.0907841 0
M  V30 590 H 53.4836 3.17888 2.20191 0
M  V30 591 H 55.1726 3.53892 1.98784 0
M  V30 592 H 55.9386 4.84846 -0.12227 0
M  V30 593 H 51.8176 4.48883 1.05002 0
M  V30 594 H 55.3616 6.81208 -1.50339 0
M  V30 595 H 51.2586 6.44686 -0.323989 0
M  V30 596 H 52.0266 8.00822 -1.69194 0
M  V30 597 N 54.6897 -0.239769 1.55765 0
M  V30 598 C 55.9197 -0.982743 1.8173 0
M  V30 599 C 56.3277 -1.7917 0.607835 0
M  V30 600 O 55.6707 -1.78525 -0.432973 0
M  V30 601 C 55.7327 -1.96332 3.01155 0
M  V30 602 C 55.3967 -1.34062 4.36894 0
M  V30 603 C 56.3937 -0.739539 5.14613 0
M  V30 604 C 54.0787 -1.35784 4.83599 0
M  V30 605 C 56.0727 -0.163989 6.37189 0
M  V30 606 C 53.7597 -0.778441 6.06122 0
M  V30 607 C 54.7577 -0.182548 6.82756 0
M  V30 608 O 54.4457 0.387887 8.02964 0
M  V30 609 H 54.1777 -0.294481 0.608487 0
M  V30 610 H 56.7317 -0.26572 2.03674 0
M  V30 611 H 54.9617 -2.71884 2.74984 0
M  V30 612 H 56.6507 -2.57032 3.14149 0
M  V30 613 H 57.4167 -0.718687 4.79646 0
M  V30 614 H 53.2957 -1.81105 4.23936 0
M  V30 615 H 56.8397 0.301753 6.96947 0
M  V30 616 H 52.7367 -0.796645 6.40565 0
M  V30 617 H 53.5047 0.28044 8.18019 0
M  V30 618 N 56.1678 -1.49265 -0.50573 0
M  V30 619 C 57.5788 -1.51769 -1.08734 0
M  V30 620 C 57.9298 -0.301192 -1.93874 0
M  V30 621 O 57.0548 0.589456 -2.08217 0
M  V30 622 C 57.6498 -2.75017 -1.97867 0
M  V30 623 C 56.2088 -2.80314 -2.51199 0
M  V30 624 C 55.3558 -2.4562 -1.28709 0
M  V30 625 H 58.3068 -1.56031 -0.289855 0
M  V30 626 H 58.3278 -2.5491 -2.82491 0
M  V30 627 H 57.8398 -3.63539 -1.35873 0
M  V30 628 H 55.9408 -1.96061 -3.16845 0
M  V30 629 H 56.0538 -3.82366 -2.88675 0
M  V30 630 H 54.4178 -1.97297 -1.61078 0
M  V30 631 H 55.2008 -3.36411 -0.6843 0
M  V30 632 N 57.6459 0.756429 -1.3826 0
M  V30 633 C 58.8859 1.52833 -1.35725 0
M  V30 634 C 59.2499 1.91926 0.0534106 0
M  V30 635 O 60.4509 2.68028 0.203613 0
M  V30 636 C 58.7219 2.74919 -2.28373 0
M  V30 637 S 60.2809 3.64817 -2.43832 0
M  V30 638 H 57.0989 0.523043 -0.481608 0
M  V30 639 H 59.7009 0.888212 -1.74158 0
M  V30 640 H 58.4049 2.44304 -3.29763 0
M  V30 641 H 57.9359 3.43878 -1.91079 0
M  V30 642 H 59.9509 4.676 -1.66027 0
M  V30 643 N 59.124 1.23083 0.984299 0
M  V30 644 C 60.056 0.96636 2.07832 0
M  V30 645 C 61.069 -0.0582135 1.62696 0
M  V30 646 O 62.258 0.176843 1.77622 0
M  V30 647 C 59.358 0.433397 3.36117 0
M  V30 648 C 58.531 1.51722 4.10243 0
M  V30 649 C 57.59 0.989821 5.16807 0
M  V30 650 O 56.616 1.67794 5.43906 0
M  V30 651 N 57.818 -0.184367 5.80207 0
M  V30 652 H 60.583 1.90824 2.31098 0
M  V30 653 H 58.144 1.13888 1.1507 0
M  V30 654 H 60.136 0.065699 4.04647 0
M  V30 655 H 58.706 -0.413806 3.09849 0
M  V30 656 H 57.926 2.05786 3.36223 0
M  V30 657 H 59.214 2.24619 4.56534 0
M  V30 658 H 58.612 -0.760062 5.60571 0
M  V30 659 H 57.169 -0.493366 6.4993 0
M  V30 660 N 60.6021 -1.18246 1.0419 0
M  V30 661 C 61.5521 -2.19843 0.604392 0
M  V30 662 C 62.5361 -1.56962 -0.353814 0
M  V30 663 O 63.7281 -1.76156 -0.17267 0
M  V30 664 C 60.8571 -3.43287 -0.0298975 0
M  V30 665 C 59.9431 -4.13288 0.951531 0
M  V30 666 N 60.3341 -4.59271 2.11906 0
M  V30 667 C 58.6321 -4.39165 0.7778 0
M  V30 668 C 59.3331 -5.13173 2.73912 0
M  V30 669 N 58.3091 -5.04763 2.01779 0
M  V30 670 H 62.1111 -2.53089 1.4941 0
M  V30 671 H 59.6251 -1.34465 0.910658 0
M  V30 672 H 61.6221 -4.15334 -0.361037 0
M  V30 673 H 60.2821 -3.11537 -0.915127 0
M  V30 674 H 61.2931 -4.5368 2.49789 0
M  V30 675 H 57.9701 -4.17461 -0.0572331 0
M  V30 676 H 59.3601 -5.58947 3.72864 0
M  V30 677 N 62.0802 -0.821533 -1.34494 0
M  V30 678 C 63.0122 -0.199946 -2.28326 0
M  V30 679 C 64.0252 0.609377 -1.50965 0
M  V30 680 O 65.2142 0.439285 -1.7301 0
M  V30 681 C 62.3142 0.738431 -3.30757 0
M  V30 682 C 61.4872 -0.0277632 -4.37391 0
M  V30 683 C 60.5462 0.831332 -5.19591 0
M  V30 684 O 59.5722 0.276822 -5.68526 0
M  V30 685 N 60.7742 2.15132 -5.39165 0
M  V30 686 H 63.5392 -1.00609 -2.82308 0
M  V30 687 H 61.1002 -0.678366 -1.47003 0
M  V30 688 H 63.0922 1.31773 -3.82646 0
M  V30 689 H 61.6622 1.44533 -2.7718 0
M  V30 690 H 60.8822 -0.788359 -3.86236 0
M  V30 691 H 62.1702 -0.555251 -5.05761 0
M  V30 692 H 61.5682 2.62559 -5.01078 0
M  V30 693 H 60.1252 2.6795 -5.94177 0
M  V30 694 N 63.5583 1.46682 -0.576371 0
M  V30 695 C 64.8063 2.02013 -0.0594163 0
M  V30 696 C 65.1273 1.45101 1.30271 0
M  V30 697 O 64.3973 0.633317 1.8538 0
M  V30 698 H 62.9773 0.746759 -0.0189745 0
M  V30 699 H 65.6393 1.79862 -0.750717 0
M  V30 700 H 64.7353 3.12097 0.014345 0
M  V30 701 N 65.0364 0.313813 1.54444 0
M  V30 702 C 66.2854 -0.292519 1.99568 0
M  V30 703 C 66.5984 -1.54011 1.20582 0
M  V30 704 O 67.8044 -2.22183 1.56035 0
M  V30 705 C 66.2604 -0.571752 3.55329 0
M  V30 706 C 65.8684 0.658229 4.43138 0
M  V30 707 C 67.6124 -1.13857 4.08946 0
M  V30 708 C 65.5194 0.351439 5.90355 0
M  V30 709 H 64.4494 -0.113079 0.745472 0
M  V30 710 H 67.1004 0.424518 1.78522 0
M  V30 711 H 65.4824 -1.34872 3.72325 0
M  V30 712 H 66.6564 1.43403 4.37918 0
M  V30 713 H 64.9714 1.14458 4.0036 0
M  V30 714 H 67.5684 -1.38257 5.16516 0
M  V30 715 H 67.9114 -2.08489 3.6033 0
M  V30 716 H 68.4444 -0.423015 3.95544 0
M  V30 717 H 65.1834 1.26667 6.43145 0
M  V30 718 H 64.7034 -0.386842 5.98551 0
M  V30 719 H 66.3824 -0.0423134 6.46986 0
M  V30 720 N 66.5145 -1.57545 0.0417849 0
M  V30 721 C 67.7545 -1.94185 -0.63809 0
M  V30 722 C 68.1185 -0.919339 -1.68559 0
M  V30 723 O 69.3195 -1.17236 -2.41886 0
M  V30 724 C 67.5905 -3.35672 -1.22714 0
M  V30 725 S 69.1495 -3.94256 -1.92633 0
M  V30 726 H 65.9675 -0.679353 -0.209764 0
M  V30 727 H 68.5695 -1.95199 0.108479 0
M  V30 728 H 67.2735 -4.07898 -0.452503 0
M  V30 729 H 66.8045 -3.38132 -2.01073 0
M  V30 730 H 68.8195 -3.7872 -3.20602 0
M  V30 731 N 67.9926 0.231505 -1.5589 0
M  V30 732 C 69.2386 0.95877 -1.78705 0
M  V30 733 C 69.5716 1.8438 -0.609725 0
M  V30 734 O 68.8466 1.90521 0.391426 0
M  V30 735 C 69.1296 1.8062 -3.11526 0
M  V30 736 C 68.9826 0.948328 -4.39689 0
M  V30 737 C 70.3016 2.78585 -3.40703 0
M  V30 738 H 67.4206 0.347129 -0.650131 0
M  V30 739 H 70.0626 0.228259 -1.88624 0
M  V30 740 H 68.2126 2.42902 -3.03201 0
M  V30 741 H 69.8846 0.343016 -4.60023 0
M  V30 742 H 68.1276 0.253314 -4.3306 0
M  V30 743 H 68.7986 1.57543 -5.29041 0
M  V30 744 H 71.2746 2.26439 -3.49091 0
M  V30 745 H 70.1506 3.34988 -4.34826 0
M  V30 746 H 70.4116 3.55825 -2.62375 0
M  V30 747 N 69.4707 1.49531 0.497807 0
M  V30 748 C 70.8867 1.36365 0.829266 0
M  V30 749 C 71.0867 0.399184 1.97506 0
M  V30 750 O 70.1427 -0.167977 2.51941 0
M  V30 751 C 71.4557 2.77153 1.16647 0
M  V30 752 C 73.0037 2.85877 1.27449 0
M  V30 753 C 73.4787 4.2744 1.64497 0
M  V30 754 N 74.9697 4.30265 1.7154 0
M  V30 755 C 75.7047 5.3677 2.01656 0
M  V30 756 N 75.2007 6.53516 2.29976 0
M  V30 757 N 76.9937 5.24189 2.02934 0
M  V30 758 H 69.1447 2.10831 -0.257703 0
M  V30 759 H 71.4077 0.946534 -0.0527091 0
M  V30 760 H 71.1137 3.49442 0.397872 0
M  V30 761 H 70.9877 3.12722 2.10915 0
M  V30 762 H 73.3747 2.13824 2.0338 0
M  V30 763 H 73.4557 2.53887 0.312244 0
M  V30 764 H 73.0997 5.00021 0.891151 0
M  V30 765 H 73.0297 4.56896 2.61827 0
M  V30 766 H 75.5207 3.4607 1.51802 0
M  V30 767 H 75.8337 7.30506 2.52153 0
M  V30 768 H 74.1787 6.56737 2.27425 0
M  V30 769 H 77.3697 4.31988 1.80289 0
M  V30 770 H 77.5427 6.07286 2.26071 0
M  V30 771 N 70.9488 -0.749086 1.3866 0
M  V30 772 C 72.1958 -1.50833 1.35114 0
M  V30 773 C 72.5238 -1.94415 -0.0574049 0
M  V30 774 O 71.7788 -1.66065 -1.03541 0
M  V30 775 C 72.0778 -2.7712 2.25697 0
M  V30 776 C 71.7438 -2.52477 3.73585 0
M  V30 777 C 70.4058 -2.45466 4.13884 0
M  V30 778 C 72.7578 -2.31066 4.67181 0
M  V30 779 C 70.0858 -2.15064 5.45861 0
M  V30 780 C 72.4378 -2.02183 5.9942 0
M  V30 781 C 71.1018 -1.93631 6.38798 0
M  V30 782 H 70.3718 -0.551936 0.494416 0
M  V30 783 H 73.0188 -0.860979 1.71054 0
M  V30 784 H 71.3238 -3.46528 1.82827 0
M  V30 785 H 73.0208 -3.35096 2.20254 0
M  V30 786 H 69.6108 -2.58807 3.41638 0
M  V30 787 H 73.7948 -2.35459 4.3689 0
M  V30 788 H 69.0508 -2.06954 5.75308 0
M  V30 789 H 73.2248 -1.8462 6.71482 0
M  V30 790 H 70.8518 -1.69839 7.40985 0
M  V30 791 N 72.4269 -1.23603 -0.977757 0
M  V30 792 C 73.6749 -1.06759 -1.71601 0
M  V30 793 C 73.9959 0.395929 -1.90938 0
M  V30 794 O 73.2659 1.28356 -1.47992 0
M  V30 795 H 71.8459 -0.392062 -0.635843 0
M  V30 796 H 74.5079 -1.55362 -1.1768 0
M  V30 797 H 73.6039 -1.55763 -2.70452 0
M  V30 798 N 73.905 1.17692 -1.04816 0
M  V30 799 C 74.835 2.23777 -0.666791 0
M  V30 800 C 75.816 1.66796 0.33361 0
M  V30 801 O 77.001 1.93039 0.212042 0
M  V30 802 C 74.131 3.47281 -0.0367933 0
M  V30 803 C 73.085 4.17059 -0.961546 0
M  V30 804 C 72.411 5.34342 -0.195626 0
M  V30 805 C 73.711 4.69713 -2.28402 0
M  V30 806 H 75.405 2.55933 -1.55367 0
M  V30 807 H 72.951 1.23019 -0.748484 0
M  V30 808 H 74.904 4.20706 0.241775 0
M  V30 809 H 73.628 3.14381 0.885004 0
M  V30 810 H 72.287 3.45541 -1.22462 0
M  V30 811 H 71.935 4.97692 0.728816 0
M  V30 812 H 71.635 5.81966 -0.811775 0
M  V30 813 H 73.159 6.10553 0.0757473 0
M  V30 814 H 74.573 5.34794 -2.06563 0
M  V30 815 H 72.97 5.279 -2.8538 0
M  V30 816 H 74.04 3.86726 -2.92525 0
M  V30 817 N 75.3831 0.828654 1.34056 0
M  V30 818 C 76.6601 0.341809 1.9259 0
M  V30 819 C 77.0401 -1.17158 1.75605 0
M  V30 820 O 76.3881 -1.98132 1.13824 0
M  V30 821 C 76.5981 0.777453 3.4023 0
M  V30 822 C 77.9461 0.779579 4.17382 0
M  V30 823 O 78.9701 0.7204 3.48839 0
M  V30 824 O 77.8291 0.857996 5.39723 0
M  V30 825 H 74.9231 0.0946085 0.821571 0
M  V30 826 H 77.4691 0.913827 1.42994 0
M  V30 827 H 76.2411 1.8196 3.46419 0
M  V30 828 H 75.8641 0.181444 3.97186 0
M  V30 829 N 76.8612 -1.46375 0.584142 0
M  V30 830 C 78.2772 -1.57694 0.245929 0
M  V30 831 C 78.4772 -1.57903 -1.25175 0
M  V30 832 O 77.5332 -1.49676 -2.03355 0
M  V30 833 C 78.8462 -2.87028 0.896402 0
M  V30 834 C 80.3942 -3.00662 0.870127 0
M  V30 835 C 80.8692 -4.32734 1.50017 0
M  V30 836 N 82.3602 -4.39436 1.46458 0
M  V30 837 C 83.0952 -5.40248 1.92144 0
M  V30 838 N 82.5912 -6.47726 2.4581 0
M  V30 839 N 84.3842 -5.31459 1.83052 0
M  V30 840 H 76.5352 -1.44483 1.55687 0
M  V30 841 H 78.7982 -0.689291 0.650831 0
M  V30 842 H 78.5042 -2.9269 1.95002 0
M  V30 843 H 78.3782 -3.75014 0.405486 0
M  V30 844 H 80.7652 -2.94581 -0.174871 0
M  V30 845 H 80.8462 -2.14148 1.39908 0
M  V30 846 H 80.4902 -4.39573 2.54437 0
M  V30 847 H 80.4202 -5.18025 0.946432 0
M  V30 848 H 82.9112 -3.62367 1.07231 0
M  V30 849 H 83.2242 -7.20863 2.78525 0
M  V30 850 H 81.5692 -6.48542 2.49836 0
M  V30 851 H 84.7602 -4.46396 1.40883 0
M  V30 852 H 84.9332 -6.09881 2.18973 0
M  V30 853 N 78.3393 -0.321999 -1.54275 0
M  V30 854 C 79.5693 0.282642 -2.04658 0
M  V30 855 C 79.9773 1.46453 -1.19784 0
M  V30 856 O 79.3203 1.82367 -0.220932 0
M  V30 857 C 79.3823 0.781857 -3.50895 0
M  V30 858 C 79.0463 -0.277517 -4.56157 0
M  V30 859 C 80.0433 -1.11307 -5.07845 0
M  V30 860 C 77.7283 -0.425256 -5.00497 0
M  V30 861 C 79.7223 -2.08211 -6.02434 0
M  V30 862 C 77.4093 -1.39771 -5.94901 0
M  V30 863 C 78.4073 -2.2246 -6.45756 0
M  V30 864 O 78.0953 -3.18054 -7.38307 0
M  V30 865 H 77.8273 0.0622636 -0.673126 0
M  V30 866 H 80.3813 -0.465792 -2.00049 0
M  V30 867 H 78.6113 1.58118 -3.52896 0
M  V30 868 H 80.3003 1.30467 -3.84361 0
M  V30 869 H 81.0663 -1.00991 -4.74369 0
M  V30 870 H 76.9453 0.20847 -4.60528 0
M  V30 871 H 80.4893 -2.72791 -6.42052 0
M  V30 872 H 76.3863 -1.50152 -6.27794 0
M  V30 873 H 77.1543 -3.13275 -7.56175 0
M  V30 874 N 79.8174 1.5752 -0.0501392 0
M  V30 875 C 80.7494 2.08413 0.95376 0
M  V30 876 C 81.7624 1.01175 1.27544 0
M  V30 877 O 82.9514 1.28744 1.23641 0
M  V30 878 C 80.0514 2.51138 2.27559 0
M  V30 879 C 79.2244 3.817 2.13598 0
M  V30 880 C 78.2834 4.10749 3.28895 0
M  V30 881 O 77.3094 4.80685 3.04845 0
M  V30 882 N 78.5114 3.62579 4.5334 0
M  V30 883 H 81.2764 2.95165 0.519383 0
M  V30 884 H 78.8374 1.61327 0.136127 0
M  V30 885 H 80.8294 2.67648 3.03557 0
M  V30 886 H 79.3994 1.6964 2.62567 0
M  V30 887 H 78.6194 3.74782 1.22197 0
M  V30 888 H 79.9074 4.67201 2.01496 0
M  V30 889 H 79.3054 3.06039 4.75769 0
M  V30 890 H 77.8624 3.84329 5.26436 0
M  V30 891 N 81.2955 -0.223234 1.56011 0
M  V30 892 C 82.5355 -0.954962 1.8072 0
M  V30 893 C 82.8995 -1.81598 0.623384 0
M  V30 894 O 84.1005 -2.58132 0.749745 0
M  V30 895 C 82.3715 -1.77313 3.10314 0
M  V30 896 S 83.9305 -2.56073 3.56332 0
M  V30 897 H 80.7485 -0.320812 0.634508 0
M  V30 898 H 83.3505 -0.220686 1.9425 0
M  V30 899 H 82.0545 -1.13071 3.94516 0
M  V30 900 H 81.5855 -2.54974 2.99586 0
M  V30 901 H 83.6005 -3.79619 3.19536 0
M  V30 902 N 82.7736 -1.49793 -0.48987 0
M  V30 903 C 84.0506 -1.50348 -1.25119 0
M  V30 904 C 84.4306 -0.237466 -2.0976 0
M  V30 905 O 83.7786 0.77981 -2.14782 0
M  V30 906 C 83.9886 -2.78872 -2.09837 0
M  V30 907 C 85.3366 -3.288 -2.68655 0
M  V30 908 O 86.3606 -2.80065 -2.20096 0
M  V30 909 O 85.2196 -4.13707 -3.57083 0
M  V30 910 H 82.3136 -0.602242 -0.566775 0
M  V30 911 H 84.8596 -1.62067 -0.503229 0
M  V30 912 H 83.6316 -3.62499 -1.47343 0
M  V30 913 H 83.2546 -2.70066 -2.91805 0
M  V30 914 N 84.2517 0.741722 -1.39055 0
M  V30 915 C 85.4917 1.51385 -1.37338 0
M  V30 916 C 85.8557 1.91972 0.0330513 0
M  V30 917 O 87.0567 2.68229 0.175174 0
M  V30 918 C 85.3277 2.72481 -2.31276 0
M  V30 919 S 86.8867 3.62211 -2.47687 0
M  V30 920 H 83.7047 0.517906 -0.487129 0
M  V30 921 H 86.3067 0.86969 -1.7509 0
M  V30 922 H 85.0107 2.40793 -3.32336 0
M  V30 923 H 84.5417 3.41832 -1.94716 0
M  V30 924 H 86.5567 4.65812 -1.70978 0
M  V30 925 N 85.7298 1.2412 0.971189 0
M  V30 926 C 86.9578 1.10575 1.74874 0
M  V30 927 C 87.3728 -0.342017 1.85676 0
M  V30 928 O 86.7298 -1.23617 1.34258 0
M  V30 929 C 86.7808 1.73579 3.171 0
M  V30 930 O 86.5018 3.12695 3.06844 0
M  V30 931 C 88.0028 1.65598 4.11208 0
M  V30 932 H 85.2228 0.386504 0.548503 0
M  V30 933 H 87.7668 1.64156 1.21955 0
M  V30 934 H 85.9218 1.24009 3.67016 0
M  V30 935 H 86.3358 3.43412 3.96445 0
M  V30 936 H 87.8098 2.1437 5.08674 0
M  V30 937 H 88.2868 0.616532 4.34851 0
M  V30 938 H 88.8928 2.14578 3.67201 0
M  V30 939 N 87.2079 -1.17134 1.05439 0
M  V30 940 C 88.6239 -1.39454 0.776201 0
M  V30 941 C 88.8239 -1.91454 -0.628307 0
M  V30 942 O 87.8799 -2.10777 -1.39031 0
M  V30 943 C 89.1929 -2.38305 1.83388 0
M  V30 944 C 90.7409 -2.52006 1.85639 0
M  V30 945 C 91.2159 -3.54133 2.90437 0
M  V30 946 N 92.7069 -3.61653 2.89415 0
M  V30 947 C 93.4419 -4.4044 3.67152 0
M  V30 948 N 92.9379 -5.22721 4.54681 0
M  V30 949 N 94.7309 -4.35337 3.55581 0
M  V30 950 H 86.8819 -0.817134 1.96053 0
M  V30 951 H 89.1449 -0.421626 0.849079 0
M  V30 952 H 88.8509 -2.07173 2.84204 0
M  V30 953 H 88.7249 -3.37841 1.67761 0
M  V30 954 H 91.1119 -2.82447 0.85486 0
M  V30 955 H 91.1929 -1.52537 2.05344 0
M  V30 956 H 90.8369 -3.24431 3.90777 0
M  V30 957 H 90.7669 -4.53313 2.67983 0
M  V30 958 H 93.2579 -3.02909 2.25952 0
M  V30 959 H 93.5709 -5.80027 5.10674 0
M  V30 960 H 91.9159 -5.22093 4.58741 0
M  V30 961 H 95.1069 -3.70112 2.86592 0
M  V30 962 H 95.2799 -4.96494 4.1641 0
M  V30 963 N 88.686 -0.835752 -1.33615 0
M  V30 964 C 89.914 -0.443344 -2.02094 0
M  V30 965 C 90.329 0.954522 -1.62894 0
M  V30 966 O 89.686 1.61982 -0.840723 0
M  V30 967 C 89.737 -0.550775 -3.5728 0
M  V30 968 O 89.458 -1.89356 -3.95065 0
M  V30 969 C 90.959 -0.154919 -4.43029 0
M  V30 970 H 88.179 -0.176359 -0.647409 0
M  V30 971 H 90.723 -1.12746 -1.70612 0
M  V30 972 H 88.878 0.0853997 -3.87306 0
M  V30 973 H 89.292 -1.87687 -4.89769 0
M  V30 974 H 90.766 -0.281144 -5.51284 0
M  V30 975 H 91.243 0.902863 -4.2982 0
M  V30 976 H 91.849 -0.765404 -4.18356 0
M  V30 977 N 90.1641 1.46063 -0.591896 0
M  V30 978 C 91.4121 2.01938 -0.0808391 0
M  V30 979 C 91.7331 1.46475 1.28725 0
M  V30 980 O 91.0031 0.652944 1.84698 0
M  V30 981 H 89.5831 0.746516 -0.0268938 0
M  V30 982 H 92.2451 1.79055 -0.769752 0
M  V30 983 H 91.3411 3.12094 -0.0187578 0
M  V30 984 N 91.6422 0.330177 1.54103 0
M  V30 985 C 92.8722 -0.271784 2.04805 0
M  V30 986 C 93.2802 -1.45816 1.20559 0
M  V30 987 O 92.6232 -1.82247 0.2306 0
M  V30 988 C 92.6852 -0.763238 3.51305 0
M  V30 989 C 92.3492 0.301705 4.56003 0
M  V30 990 C 93.3462 1.13999 5.07248 0
M  V30 991 C 91.0312 0.451793 5.00264 0
M  V30 992 C 93.0252 2.11402 6.01322 0
M  V30 993 C 90.7122 1.42924 5.94151 0
M  V30 994 C 91.7102 2.25882 6.44567 0
M  V30 995 O 91.3982 3.21965 7.3661 0
M  V30 996 H 91.1302 -0.058693 0.673447 0
M  V30 997 H 93.6842 0.476395 1.99799 0
M  V30 998 H 91.9142 -1.56244 3.5373 0
M  V30 999 H 93.6032 -1.28427 3.85047 0
M  V30 1000 H 94.3692 1.03505 4.73827 0
M  V30 1001 H 90.2482 -0.184044 4.60632 0
M  V30 1002 H 93.7922 2.76192 6.40596 0
M  V30 1003 H 89.6892 1.53479 6.26988 0
M  V30 1004 H 90.4572 3.17281 7.54503 0
M  V30 1005 N 93.1203 -1.57491 0.0584922 0
M  V30 1006 C 94.3453 -1.97711 -0.62652 0
M  V30 1007 C 94.7703 -0.936132 -1.63151 0
M  V30 1008 O 94.1283 0.099811 -1.81025 0
M  V30 1009 C 94.1763 -3.36989 -1.28338 0
M  V30 1010 O 93.2803 -3.35433 -2.39913 0
M  V30 1011 H 92.6213 -0.643868 -0.162266 0
M  V30 1012 H 95.1513 -2.04193 0.129064 0
M  V30 1013 H 95.1613 -3.73879 -1.63335 0
M  V30 1014 H 93.8363 -4.12289 -0.546889 0
M  V30 1015 H 92.4133 -3.10298 -2.06809 0
M  V30 1016 N 94.5984 0.214957 -1.56127 0
M  V30 1017 C 95.8464 0.936518 -1.79091 0
M  V30 1018 C 96.1674 1.84606 -0.628148 0
M  V30 1019 O 95.4374 1.92664 0.35462 0
M  V30 1020 H 94.0174 0.3488 -0.660566 0
M  V30 1021 H 96.6794 0.22523 -1.93594 0
M  V30 1022 H 95.7754 1.53943 -2.71492 0
M  V30 1023 N 96.0765 1.50051 0.48192 0
M  V30 1024 C 97.4875 1.5348 1.06305 0
M  V30 1025 C 97.8385 0.331997 1.93371 0
M  V30 1026 O 96.9635 -0.556256 2.09129 0
M  V30 1027 C 97.5585 2.7813 1.93466 0
M  V30 1028 C 96.1175 2.84275 2.46707 0
M  V30 1029 C 95.2645 2.47637 1.24785 0
M  V30 1030 H 98.2155 1.56472 0.264995 0
M  V30 1031 H 98.2365 2.59372 2.78399 0
M  V30 1032 H 97.7485 3.65654 1.30072 0
M  V30 1033 H 95.8495 2.01077 3.13686 0
M  V30 1034 H 95.9625 3.8691 2.82555 0
M  V30 1035 H 94.3265 1.99835 1.57918 0
M  V30 1036 H 95.1095 3.37457 0.630694 0
M  V30 1037 N 97.5546 -0.734337 1.39446 0
M  V30 1038 C 98.5026 -1.86971 1.38364 0
M  V30 1039 C 99.4966 -1.67288 0.266687 0
M  V30 1040 O 100.703 -1.74621 0.436755 0
M  V30 1041 H 97.0776 -0.615474 0.432082 0
M  V30 1042 H 99.0486 -1.85 2.34132 0
M  V30 1043 C 97.7976 -3.2466 1.24465 0
M  V30 1044 H 97.1206 -3.40402 2.09682 0
M  V30 1045 H 98.5606 -4.04292 1.27764 0
M  V30 1046 C 97.0196 -3.36867 -0.0468674 0
M  V30 1047 O 97.5496 -3.88618 -1.01681 0
M  V30 1048 N 95.7556 -2.90391 -0.110145 0
M  V30 1049 H 95.3026 -2.48466 0.679868 0
M  V30 1050 H 95.2606 -2.98939 -0.973799 0
M  V30 1051 N 99.0327 -1.24633 -0.964593 0
M  V30 1052 C 100.273 -1.09981 -1.72289 0
M  V30 1053 C 100.637 0.354792 -1.88693 0
M  V30 1054 O 101.838 0.62289 -2.61483 0
M  V30 1055 C 100.109 -1.82262 -3.07434 0
M  V30 1056 S 101.668 -1.83379 -3.98645 0
M  V30 1057 H 98.4857 -0.393292 -0.59232 0
M  V30 1058 H 101.088 -1.58009 -1.15123 0
M  V30 1059 H 99.7917 -2.87206 -2.93157 0
M  V30 1060 H 99.3227 -1.3458 -3.69664 0
M  V30 1061 H 101.338 -0.903691 -4.87901 0
M  V30 1062 N 100.511 1.16574 -1.06058 0
M  V30 1063 C 101.739 1.90952 -0.796552 0
M  V30 1064 C 102.154 1.77302 0.648808 0
M  V30 1065 O 101.511 1.11605 1.44397 0
M  V30 1066 C 101.562 3.41736 -1.17894 0
M  V30 1067 O 101.283 3.54975 -2.56758 0
M  V30 1068 C 102.784 4.33169 -0.942308 0
M  V30 1069 H 100.004 0.605594 -0.288959 0
M  V30 1070 H 102.548 1.47777 -1.41358 0
M  V30 1071 H 100.703 3.82623 -0.606491 0
M  V30 1072 H 101.117 4.4846 -2.72 0
M  V30 1073 H 102.591 5.37439 -1.25952 0
M  V30 1074 H 103.068 4.3903 0.122078 0
M  V30 1075 H 103.674 3.98007 -1.49902 0
M  V30 1076 N 101.989 0.842826 1.3317 0
M  V30 1077 C 103.238 0.436738 1.96915 0
M  V30 1078 C 103.551 -1.01025 1.67491 0
M  V30 1079 O 104.757 -1.5212 2.24881 0
M  V30 1080 C 103.213 0.730021 3.52418 0
M  V30 1081 C 102.821 2.19195 3.90714 0
M  V30 1082 C 104.565 0.391076 4.22695 0
M  V30 1083 C 102.472 2.42907 5.39212 0
M  V30 1084 H 101.402 0.15958 0.736919 0
M  V30 1085 H 104.053 1.03196 1.51733 0
M  V30 1086 H 102.435 0.0643755 3.95948 0
M  V30 1087 H 103.609 2.8984 3.58231 0
M  V30 1088 H 101.924 2.49425 3.33431 0
M  V30 1089 H 104.521 0.545817 5.31907 0
M  V30 1090 H 104.864 -0.666294 4.10933 0
M  V30 1091 H 105.397 1.01212 3.84709 0
M  V30 1092 H 102.136 3.47224 5.55982 0
M  V30 1093 H 101.656 1.76827 5.73142 0
M  V30 1094 H 103.335 2.2626 6.06148 0
M  V30 1095 N 103.467 -1.45747 0.599634 0
M  V30 1096 C 104.878 -1.85853 0.177681 0
M  V30 1097 C 105.229 -1.50102 -1.26348 0
M  V30 1098 O 104.354 -0.923905 -1.95686 0
M  V30 1099 C 104.949 -3.37326 0.315688 0
M  V30 1100 C 103.508 -3.76365 -0.0515144 0
M  V30 1101 C 102.655 -2.69722 0.643822 0
M  V30 1102 H 105.606 -1.36661 0.806814 0
M  V30 1103 H 105.627 -3.77778 -0.454321 0
M  V30 1104 H 105.139 -3.63315 1.36468 0
M  V30 1105 H 103.24 -3.55993 -1.09999 0
M  V30 1106 H 103.353 -4.77916 0.336594 0
M  V30 1107 H 101.717 -2.54567 0.0822881 0
M  V30 1108 H 102.5 -2.98549 1.6948 0
M  V30 1109 N 104.945 -0.338344 -1.53925 0
M  V30 1110 C 106.193 0.259245 -2.0043 0
M  V30 1111 C 106.514 1.51484 -1.22791 0
M  V30 1112 O 105.784 1.93037 -0.33368 0
M  V30 1113 H 104.364 0.0987845 -0.740439 0
M  V30 1114 H 107.026 -0.458302 -1.89435 0
M  V30 1115 H 106.122 0.505334 -3.07982 0
M  V30 1116 N 106.423 1.57458 -0.0668435 0
M  V30 1117 C 107.353 2.15468 0.899764 0
M  V30 1118 C 108.334 1.08042 1.31381 0
M  V30 1119 O 109.519 1.36054 1.38574 0
M  V30 1120 C 106.649 2.71232 2.16911 0
M  V30 1121 C 105.603 3.83781 1.89463 0
M  V30 1122 C 104.929 4.26127 3.22986 0
M  V30 1123 C 106.229 5.08238 1.20381 0
M  V30 1124 H 107.923 2.96488 0.416529 0
M  V30 1125 H 105.469 1.4262 0.198908 0
M  V30 1126 H 107.422 3.10458 2.84945 0
M  V30 1127 H 106.146 1.87426 2.67468 0
M  V30 1128 H 104.805 3.45051 1.23836 0
M  V30 1129 H 104.453 3.39249 3.71374 0
M  V30 1130 H 104.153 5.01993 3.05413 0
M  V30 1131 H 105.677 4.67966 3.92225 0
M  V30 1132 H 107.091 5.44811 1.78475 0
M  V30 1133 H 105.488 5.89349 1.13083 0
M  V30 1134 H 106.558 4.84558 0.182153 0
M  V30 1135 N 107.901 -0.206675 1.56239 0
M  V30 1136 C 109.147 -0.925733 1.81113 0
M  V30 1137 C 109.502 -1.81368 0.642135 0
M  V30 1138 O 108.795 -1.88126 -0.363211 0
M  V30 1139 C 108.989 -1.78675 3.09532 0
M  V30 1140 C 108.818 -0.98365 4.3881 0
M  V30 1141 C 107.588 -0.672661 5.00803 0
M  V30 1142 C 109.786 -0.341847 5.13163 0
M  V30 1143 N 107.768 0.150283 6.13716 0
M  V30 1144 C 109.139 0.343815 6.19046 0
M  V30 1145 C 111.194 -0.256392 4.97239 0
M  V30 1146 C 109.897 1.10678 7.10734 0
M  V30 1147 C 111.923 0.493142 5.8934 0
M  V30 1148 C 111.285 1.16729 6.94661 0
M  V30 1149 H 107.384 -0.318524 0.714189 0
M  V30 1150 H 109.968 -0.195378 1.93717 0
M  V30 1151 H 108.139 -2.4888 2.98183 0
M  V30 1152 H 109.871 -2.44441 3.22538 0
M  V30 1153 H 106.626 -0.994294 4.63045 0
M  V30 1154 H 107.05 0.551026 6.74754 0
M  V30 1155 H 111.692 -0.763249 4.15854 0
M  V30 1156 H 109.41 1.6251 7.91591 0
M  V30 1157 H 112.996 0.560465 5.79094 0
M  V30 1158 H 111.876 1.738 7.64698 0
M  V30 1159 N 109.379 -1.50304 -0.473955 0
M  V30 1160 C 110.607 -1.64902 -1.24959 0
M  V30 1161 C 111.022 -0.331198 -1.85872 0
M  V30 1162 O 110.379 0.68652 -1.69095 0
M  V30 1163 C 110.43 -2.73803 -2.36038 0
M  V30 1164 O 110.151 -4.00477 -1.77624 0
M  V30 1165 C 111.652 -2.99349 -3.26964 0
M  V30 1166 H 108.872 -0.554383 -0.378022 0
M  V30 1167 H 111.416 -1.9651 -0.566054 0
M  V30 1168 H 109.571 -2.44898 -3.00173 0
M  V30 1169 H 109.985 -4.60678 -2.5075 0
M  V30 1170 H 111.459 -3.79217 -4.01121 0
M  V30 1171 H 111.936 -2.10307 -3.85574 0
M  V30 1172 H 112.542 -3.29774 -2.68569 0
M  V30 1173 N 110.857 0.726932 -1.39834 0
M  V30 1174 C 112.103 1.48771 -1.38704 0
M  V30 1175 C 112.458 1.92394 0.0146387 0
M  V30 1176 O 111.751 1.64474 0.982797 0
M  V30 1177 C 111.945 2.73495 -2.30077 0
M  V30 1178 C 111.774 2.42068 -3.78989 0
M  V30 1179 C 110.544 2.33966 -4.4787 0
M  V30 1180 C 112.742 2.0708 -4.70768 0
M  V30 1181 N 110.724 1.95095 -5.82075 0
M  V30 1182 C 112.095 1.78719 -5.93683 0
M  V30 1183 C 114.15 1.93618 -4.58712 0
M  V30 1184 C 112.853 1.3825 -7.05889 0
M  V30 1185 C 114.879 1.54553 -5.70848 0
M  V30 1186 C 114.241 1.27082 -6.92842 0
M  V30 1187 H 110.34 0.542919 -0.562817 0
M  V30 1188 H 112.924 0.84408 -1.75452 0
M  V30 1189 H 111.095 3.35625 -1.95474 0
M  V30 1190 H 112.827 3.39755 -2.19883 0
M  V30 1191 H 109.582 2.51331 -4.0141 0
M  V30 1192 H 110.006 1.7823 -6.53118 0
M  V30 1193 H 114.648 2.13522 -3.64922 0
M  V30 1194 H 112.366 1.17088 -7.99572 0
M  V30 1195 H 115.952 1.44731 -5.6351 0
M  V30 1196 H 114.832 0.973069 -7.78139 0
M  V30 1197 N 112.336 1.25143 0.95797 0
M  V30 1198 C 113.266 1.07711 2.07173 0
M  V30 1199 C 114.247 -0.0128462 1.70095 0
M  V30 1200 O 115.432 0.156061 1.93572 0
M  V30 1201 C 112.562 0.691503 3.40346 0
M  V30 1202 C 111.516 1.73132 3.9142 0
M  V30 1203 C 110.842 1.20049 5.21049 0
M  V30 1204 C 112.142 3.1294 4.1817 0
M  V30 1205 H 113.836 2.00873 2.22014 0
M  V30 1206 H 111.382 0.967191 1.06684 0
M  V30 1207 H 113.335 0.556505 4.17709 0
M  V30 1208 H 112.059 -0.275819 3.25433 0
M  V30 1209 H 110.718 1.8547 3.16222 0
M  V30 1210 H 110.366 0.223499 5.02503 0
M  V30 1211 H 110.066 1.89545 5.56189 0
M  V30 1212 H 111.59 1.07782 6.01012 0
M  V30 1213 H 113.004 3.03775 4.86203 0
M  V30 1214 H 111.401 3.79875 4.64559 0
M  V30 1215 H 112.471 3.6025 3.24573 0
M  V30 1216 N 113.814 -1.1601 1.06675 0
M  V30 1217 C 115.23 -1.38622 0.790948 0
M  V30 1218 C 115.43 -1.92109 -0.607965 0
M  V30 1219 O 114.486 -2.12239 -1.36787 0
M  V30 1220 C 115.799 -2.36347 1.85905 0
M  V30 1221 C 117.347 -2.50023 1.88301 0
M  V30 1222 C 117.822 -3.51033 2.94176 0
M  V30 1223 N 119.313 -3.58563 2.93235 0
M  V30 1224 C 120.048 -4.36521 3.71803 0
M  V30 1225 N 119.544 -5.17869 4.602 0
M  V30 1226 N 121.337 -4.31541 3.60178 0
M  V30 1227 H 113.488 -0.796294 1.96908 0
M  V30 1228 H 115.751 -0.412597 0.853503 0
M  V30 1229 H 115.457 -2.04147 2.86386 0
M  V30 1230 H 115.331 -3.36042 1.71334 0
M  V30 1231 H 117.718 -2.81524 0.884769 0
M  V30 1232 H 117.799 -1.5035 2.06951 0
M  V30 1233 H 117.443 -3.20268 3.94196 0
M  V30 1234 H 117.373 -4.50445 2.72776 0
M  V30 1235 H 119.864 -3.00496 2.29152 0
M  V30 1236 H 120.177 -5.74578 5.16797 0
M  V30 1237 H 118.522 -5.17199 4.64253 0
M  V30 1238 H 121.713 -3.67051 2.90502 0
M  V30 1239 H 121.886 -4.9205 4.21653 0
M  V30 1240 N 115.292 -0.849877 -1.32721 0
M  V30 1241 C 116.24 -0.279745 -2.30912 0
M  V30 1242 C 117.234 0.594278 -1.58634 0
M  V30 1243 O 118.44 0.482613 -1.73409 0
M  V30 1244 H 114.815 -0.0717521 -0.748569 0
M  V30 1245 H 116.786 -1.12222 -2.76494 0
M  V30 1246 C 115.535 0.521108 -3.43773 0
M  V30 1247 H 114.858 -0.142141 -3.99547 0
M  V30 1248 H 116.298 0.885693 -4.14646 0
M  V30 1249 C 114.757 1.70442 -2.90605 0
M  V30 1250 O 115.287 2.8034 -2.87702 0
M  V30 1251 N 113.493 1.52991 -2.47067 0
M  V30 1252 H 113.04 0.635914 -2.49628 0
M  V30 1253 H 112.998 2.32311 -2.11847 0
M  V30 1254 N 116.77 1.45427 -0.607355 0
M  V30 1255 C 117.995 2.07124 -0.107006 0
M  V30 1256 C 118.42 1.44906 1.19933 0
M  V30 1257 O 117.778 0.541687 1.73019 0
M  V30 1258 C 117.826 3.60595 0.0194119 0
M  V30 1259 O 116.93 3.98285 1.0697 0
M  V30 1260 H 116.271 0.659868 -0.0739597 0
M  V30 1261 H 118.801 1.86683 -0.837297 0
M  V30 1262 H 118.811 4.07419 0.2177 0
M  V30 1263 H 117.486 4.05266 -0.934453 0
M  V30 1264 H 116.063 3.63133 0.847889 0
M  V30 1265 N 118.248 0.346503 1.53744 0
M  V30 1266 C 119.178 -0.501193 2.28058 0
M  V30 1267 C 120.159 -1.10014 1.29734 0
M  V30 1268 O 121.344 -1.12097 1.58581 0
M  V30 1269 C 118.474 -1.65078 3.05559 0
M  V30 1270 C 117.428 -1.18003 4.11411 0
M  V30 1271 C 116.754 -2.41837 4.76884 0
M  V30 1272 C 118.054 -0.278394 5.21558 0
M  V30 1273 H 119.748 0.11875 2.99164 0
M  V30 1274 H 117.294 0.0585531 1.43881 0
M  V30 1275 H 119.247 -2.25028 3.56287 0
M  V30 1276 H 117.971 -2.29767 2.32109 0
M  V30 1277 H 116.63 -0.603331 3.61601 0
M  V30 1278 H 116.278 -3.0494 4.00026 0
M  V30 1279 H 115.978 -2.1102 5.48402 0
M  V30 1280 H 117.502 -3.02508 5.30397 0
M  V30 1281 H 118.916 -0.784823 5.67903 0
M  V30 1282 H 117.313 -0.0619707 6.00068 0
M  V30 1283 H 118.383 0.684677 4.80042 0
M  V30 1284 N 119.726 -1.57421 0.075193 0
M  V30 1285 C 121.142 -1.57099 -0.281444 0
M  V30 1286 C 121.342 -1.08486 -1.69803 0
M  V30 1287 O 120.398 -0.752279 -2.41033 0
M  V30 1288 C 121.711 -3.00571 -0.0880041 0
M  V30 1289 C 123.259 -3.12605 -0.157281 0
M  V30 1290 C 123.734 -4.57999 0.0079207 0
M  V30 1291 N 125.225 -4.63176 -0.0475725 0
M  V30 1292 C 125.96 -5.73373 0.0557876 0
M  V30 1293 N 125.456 -6.92473 0.21286 0
M  V30 1294 N 127.249 -5.621 -0.00152098 0
M  V30 1295 H 119.4 -1.87335 1.00098 0
M  V30 1296 H 121.663 -0.86377 0.390646 0
M  V30 1297 H 121.369 -3.40262 0.889629 0
M  V30 1298 H 121.243 -3.67754 -0.838875 0
M  V30 1299 H 123.63 -2.72798 -1.1254 0
M  V30 1300 H 123.711 -2.48053 0.62475 0
M  V30 1301 H 123.355 -4.98496 0.972824 0
M  V30 1302 H 123.285 -5.20586 -0.793556 0
M  V30 1303 H 125.776 -3.7753 -0.167244 0
M  V30 1304 H 126.089 -7.72279 0.283781 0
M  V30 1305 H 124.434 -6.94556 0.248267 0
M  V30 1306 H 127.625 -4.67938 -0.122958 0
M  V30 1307 H 127.798 -6.47948 0.0824844 0
M  V30 1308 N 121.204 0.198386 -1.56346 0
M  V30 1309 C 122.615 0.763358 -1.70381 0
M  V30 1310 C 122.966 1.83995 -0.681203 0
M  V30 1311 O 122.091 2.15785 0.16305 0
M  V30 1312 C 122.686 1.39143 -3.08909 0
M  V30 1313 C 121.245 1.90352 -3.2472 0
M  V30 1314 C 120.392 0.772233 -2.6633 0
M  V30 1315 H 123.343 -0.0266377 -1.58678 0
M  V30 1316 H 123.364 2.26076 -3.06055 0
M  V30 1317 H 122.876 0.607638 -3.83314 0
M  V30 1318 H 120.977 2.71461 -2.55225 0
M  V30 1319 H 121.09 2.06757 -4.3219 0
M  V30 1320 H 119.454 1.18566 -2.2542 0
M  V30 1321 H 120.237 0.00073556 -3.433 0
M  V30 1322 N 122.682 1.50554 0.465978 0
M  V30 1323 C 123.907 1.65838 1.24549 0
M  V30 1324 C 124.332 0.343486 1.84937 0
M  V30 1325 O 123.69 -0.69324 1.67523 0
M  V30 1326 C 123.738 2.75533 2.32624 0
M  V30 1327 O 122.842 2.37142 3.37398 0
M  V30 1328 H 122.183 0.553893 0.366194 0
M  V30 1329 H 124.713 1.96959 0.553927 0
M  V30 1330 H 124.723 2.98763 2.77857 0
M  V30 1331 H 123.398 3.70962 1.88043 0
M  V30 1332 H 121.975 2.24377 2.97841 0
M  V30 1333 N 124.16 -0.719506 1.40217 0
M  V30 1334 C 125.571 -1.29848 1.34151 0
M  V30 1335 C 125.922 -1.96196 0.0131349 0
M  V30 1336 O 125.047 -1.973 -0.88892 0
M  V30 1337 C 125.642 -2.36118 2.42968 0
M  V30 1338 C 124.201 -2.8965 2.40374 0
M  V30 1339 C 123.348 -1.63393 2.24049 0
M  V30 1340 H 126.299 -0.51591 1.5008 0
M  V30 1341 H 126.32 -3.16871 2.10649 0
M  V30 1342 H 125.832 -1.878 3.39636 0
M  V30 1343 H 123.933 -3.42208 1.47392 0
M  V30 1344 H 124.046 -3.4171 3.35814 0
M  V30 1345 H 122.41 -1.88312 1.71495 0
M  V30 1346 H 123.193 -1.17104 3.2271 0
M  V30 1347 N 125.638 -1.25649 -0.95132 0
M  V30 1348 C 126.863 -1.13443 -1.73624 0
M  V30 1349 C 127.288 0.307565 -1.85568 0
M  V30 1350 O 126.646 1.22282 -1.33854 0
M  V30 1351 C 126.694 -1.79723 -3.12621 0
M  V30 1352 O 125.798 -1.07912 -3.98031 0
M  V30 1353 H 125.139 -0.395872 -0.533086 0
M  V30 1354 H 127.669 -1.66276 -1.1922 0
M  V30 1355 H 127.679 -1.86141 -3.63064 0
M  V30 1356 H 126.354 -2.84633 -3.03244 0
M  V30 1357 H 124.931 -1.09398 -3.56492 0
M  V30 1358 N 127.117 1.15442 -1.07289 0
M  V30 1359 C 128.364 1.86213 -0.795668 0
M  V30 1360 C 128.692 1.82291 0.678238 0
M  V30 1361 O 127.947 1.24057 1.51355 0
M  V30 1362 C 128.246 3.3489 -1.24834 0
M  V30 1363 C 127.912 3.59007 -2.72809 0
M  V30 1364 C 126.574 3.65298 -3.13227 0
M  V30 1365 C 128.926 3.68762 -3.68326 0
M  V30 1366 C 126.254 3.78854 -4.4798 0
M  V30 1367 C 128.606 3.83842 -5.0284 0
M  V30 1368 C 127.27 3.88378 -5.4288 0
M  V30 1369 H 126.54 0.681403 -0.291155 0
M  V30 1370 H 129.187 1.36435 -1.34379 0
M  V30 1371 H 127.492 3.8687 -0.619595 0
M  V30 1372 H 129.189 3.88052 -1.01076 0
M  V30 1373 H 125.779 3.5475 -2.40521 0
M  V30 1374 H 129.963 3.63202 -3.38227 0
M  V30 1375 H 125.219 3.80623 -4.78472 0
M  V30 1376 H 129.393 3.90332 -5.76727 0
M  V30 1377 H 127.02 3.98635 -6.47298 0
M  V30 1378 N 128.595 0.856903 1.32268 0
M  V30 1379 C 129.823 0.475439 2.01363 0
M  V30 1380 C 130.238 -0.928486 1.64392 0
M  V30 1381 O 129.595 -1.60624 0.866387 0
M  V30 1382 C 129.646 0.607545 3.56358 0
M  V30 1383 O 129.367 1.95617 3.92002 0
M  V30 1384 C 130.868 0.225382 4.42727 0
M  V30 1385 H 128.088 0.186636 0.644521 0
M  V30 1386 H 130.632 1.15446 1.68797 0
M  V30 1387 H 128.787 -0.0237719 3.87393 0
M  V30 1388 H 129.201 1.95455 4.86721 0
M  V30 1389 H 130.675 0.368813 5.50767 0
M  V30 1390 H 131.152 -0.834369 4.31202 0
M  V30 1391 H 131.758 0.831864 4.17085 0
M  V30 1392 N 130.073 -1.45103 0.615059 0
M  V30 1393 C 131.023 -2.27679 -0.120966 0
M  V30 1394 C 132.007 -1.3775 -0.831491 0
M  V30 1395 O 133.199 -1.61683 -0.720249 0
M  V30 1396 C 130.328 -3.24767 -1.1127 0
M  V30 1397 C 129.414 -4.22184 -0.402627 0
M  V30 1398 N 129.805 -5.02692 0.559884 0
M  V30 1399 C 128.103 -4.4125 -0.649202 0
M  V30 1400 C 128.804 -5.73421 0.977942 0
M  V30 1401 N 127.78 -5.42657 0.320104 0
M  V30 1402 H 131.582 -2.87325 0.618181 0
M  V30 1403 H 129.096 -1.56345 0.439304 0
M  V30 1404 H 131.093 -3.82666 -1.65446 0
M  V30 1405 H 129.753 -2.66682 -1.85232 0
M  V30 1406 H 130.764 -5.09354 0.936976 0
M  V30 1407 H 127.441 -3.9428 -1.37293 0
M  V30 1408 H 128.831 -6.48107 1.77222 0
M  V30 1409 N 131.551 -0.354651 -1.53558 0
M  V30 1410 C 132.798 0.238443 -2.01091 0
M  V30 1411 C 133.126 1.49663 -1.24222 0
M  V30 1412 O 132.381 1.93049 -0.321003 0
M  V30 1413 C 132.68 0.587121 -3.52545 0
M  V30 1414 C 132.346 -0.575472 -4.47213 0
M  V30 1415 C 131.008 -0.894497 -4.72813 0
M  V30 1416 C 133.36 -1.35489 -5.03281 0
M  V30 1417 C 130.688 -1.99511 -5.51736 0
M  V30 1418 C 133.04 -2.44583 -5.83405 0
M  V30 1419 C 131.704 -2.77033 -6.07296 0
M  V30 1420 H 130.974 0.0872526 -0.735845 0
M  V30 1421 H 133.621 -0.484859 -1.8526 0
M  V30 1422 H 131.926 1.39129 -3.66265 0
M  V30 1423 H 133.623 1.05809 -3.86789 0
M  V30 1424 H 130.213 -0.316774 -4.27428 0
M  V30 1425 H 134.397 -1.12167 -4.83459 0
M  V30 1426 H 129.653 -2.25063 -5.68469 0
M  V30 1427 H 133.827 -3.05401 -6.25862 0
M  V30 1428 H 131.454 -3.6244 -6.68237 0
M  V30 1429 N 133.029 1.57378 -0.0835403 0
M  V30 1430 C 133.959 2.1641 0.87686 0
M  V30 1431 C 134.94 1.09429 1.30228 0
M  V30 1432 O 136.125 1.37516 1.37124 0
M  V30 1433 C 133.255 2.73517 2.14022 0
M  V30 1434 C 132.209 3.85769 1.85381 0
M  V30 1435 C 131.535 4.29529 3.18448 0
M  V30 1436 C 132.835 5.09486 1.14984 0
M  V30 1437 H 134.529 2.96914 0.385059 0
M  V30 1438 H 132.075 1.42823 0.18377 0
M  V30 1439 H 134.028 3.13463 2.81636 0
M  V30 1440 H 132.752 1.90252 2.65465 0
M  V30 1441 H 131.411 3.46345 1.20169 0
M  V30 1442 H 131.059 3.43169 3.67755 0
M  V30 1443 H 130.759 5.05204 3.00071 0
M  V30 1444 H 132.283 4.72099 3.8724 0
M  V30 1445 H 133.697 5.46674 1.72687 0
M  V30 1446 H 132.094 5.90515 1.06826 0
M  V30 1447 H 133.164 4.84724 0.130749 0
M  V30 1448 N 134.507 -0.190092 1.56449 0
M  V30 1449 C 135.437 -1.23816 1.97969 0
M  V30 1450 C 136.418 -1.47201 0.852395 0
M  V30 1451 O 137.603 -1.58854 1.1171 0
M  V30 1452 C 134.733 -2.5813 2.3235 0
M  V30 1453 C 133.687 -2.49348 3.47864 0
M  V30 1454 C 133.013 -3.8798 3.67934 0
M  V30 1455 C 134.313 -2.01424 4.81898 0
M  V30 1456 H 136.007 -0.89311 2.85769 0
M  V30 1457 H 133.553 -0.428177 1.37487 0
M  V30 1458 H 135.506 -3.31637 2.59991 0
M  V30 1459 H 134.23 -2.94386 1.41438 0
M  V30 1460 H 132.889 -1.78297 3.20321 0
M  V30 1461 H 132.537 -4.21597 2.74344 0
M  V30 1462 H 132.237 -3.82978 4.45648 0
M  V30 1463 H 133.761 -4.63101 3.97957 0
M  V30 1464 H 135.175 -2.64693 5.08538 0
M  V30 1465 H 133.572 -2.07413 5.63116 0
M  V30 1466 H 134.642 -0.967677 4.75146 0
M  V30 1467 N 135.985 -1.50799 -0.457987 0
M  V30 1468 C 137.213 -1.66218 -1.23203 0
M  V30 1469 C 137.628 -0.350894 -1.85511 0
M  V30 1470 O 136.985 0.668546 -1.69814 0
M  V30 1471 C 137.036 -2.76291 -2.33121 0
M  V30 1472 O 136.757 -4.02338 -1.73366 0
M  V30 1473 C 138.258 -3.028 -3.2377 0
M  V30 1474 H 135.478 -0.558361 -0.372121 0
M  V30 1475 H 138.022 -1.97099 -0.545179 0
M  V30 1476 H 136.177 -2.48068 -2.97558 0
M  V30 1477 H 136.591 -4.63312 -2.4585 0
M  V30 1478 H 138.065 -3.8345 -3.97077 0
M  V30 1479 H 138.542 -2.14385 -3.83322 0
M  V30 1480 H 139.148 -3.32604 -2.65056 0
M  V30 1481 N 137.463 0.71206 -1.40597 0
M  V30 1482 C 138.413 1.81783 -1.37619 0
M  V30 1483 C 139.397 1.58896 -0.253162 0
M  V30 1484 O 140.589 1.70009 -0.492547 0
M  V30 1485 C 137.718 3.19944 -1.24462 0
M  V30 1486 C 136.804 3.48582 -2.4156 0
M  V30 1487 N 137.195 3.48016 -3.67041 0
M  V30 1488 C 135.493 3.79056 -2.35016 0
M  V30 1489 C 136.194 3.75096 -4.44609 0
M  V30 1490 N 135.17 3.94022 -3.74497 0
M  V30 1491 H 138.972 1.79683 -2.32575 0
M  V30 1492 H 136.486 0.91134 -1.34419 0
M  V30 1493 H 138.483 3.99133 -1.20411 0
M  V30 1494 H 137.143 3.23267 -0.304762 0
M  V30 1495 H 138.154 3.28782 -4.00153 0
M  V30 1496 H 134.831 3.89848 -1.49415 0
M  V30 1497 H 136.221 3.80934 -5.53479 0
M  V30 1498 N 138.941 1.26152 0.944643 0
M  V30 1499 C 140.189 1.11271 1.6871 0
M  V30 1500 C 140.51 -0.345166 1.91921 0
M  V30 1501 O 139.78 -1.24387 1.51343 0
M  V30 1502 H 138.36 0.408783 0.625224 0
M  V30 1503 H 141.022 1.58427 1.1352 0
M  V30 1504 H 140.118 1.62879 2.66227 0
M  V30 1505 N 140.419 -1.14872 1.07899 0
M  V30 1506 C 141.835 -1.37776 0.805606 0
M  V30 1507 C 142.035 -1.92743 -0.587555 0
M  V30 1508 O 141.091 -2.13678 -1.34528 0
M  V30 1509 C 142.404 -2.34361 1.88402 0
M  V30 1510 C 143.952 -2.48012 1.90942 0
M  V30 1511 C 144.427 -3.47893 2.97883 0
M  V30 1512 N 145.918 -3.55433 2.97021 0
M  V30 1513 C 146.653 -4.32553 3.76412 0
M  V30 1514 N 146.149 -5.12959 4.65666 0
M  V30 1515 N 147.942 -4.27697 3.64735 0
M  V30 1516 H 140.093 -0.775365 1.97742 0
M  V30 1517 H 142.356 -0.403521 0.857831 0
M  V30 1518 H 142.062 -2.01098 2.88535 0
M  V30 1519 H 141.936 -3.34206 1.74889 0
M  V30 1520 H 144.323 -2.8057 0.914579 0
M  V30 1521 H 144.404 -1.48147 2.08534 0
M  V30 1522 H 144.048 -3.16069 3.97571 0
M  V30 1523 H 143.978 -4.47527 2.77538 0
M  V30 1524 H 146.469 -2.98048 2.32326 0
M  V30 1525 H 146.782 -5.69065 5.22862 0
M  V30 1526 H 145.127 -5.12245 4.69712 0
M  V30 1527 H 148.318 -3.63949 2.94378 0
M  V30 1528 H 148.491 -4.8755 4.26848 0
M  V30 1529 N 141.898 -0.863906 -1.31812 0
M  V30 1530 C 143.144 -0.481841 -1.9761 0
M  V30 1531 C 143.499 0.954048 -1.6708 0
M  V30 1532 O 142.792 1.66182 -0.953624 0
M  V30 1533 C 142.986 -0.668547 -3.51091 0
M  V30 1534 C 142.815 -2.12103 -3.96538 0
M  V30 1535 C 141.585 -2.76141 -4.23171 0
M  V30 1536 C 143.783 -3.09265 -4.10925 0
M  V30 1537 N 141.765 -4.12205 -4.54929 0
M  V30 1538 C 143.136 -4.30341 -4.46326 0
M  V30 1539 C 145.191 -3.05337 -3.93286 0
M  V30 1540 C 143.894 -5.48 -4.65928 0
M  V30 1541 C 145.92 -4.22248 -4.14078 0
M  V30 1542 C 145.282 -5.42085 -4.49804 0
M  V30 1543 H 141.381 -0.225238 -0.74886 0
M  V30 1544 H 143.965 -1.11723 -1.59455 0
M  V30 1545 H 142.136 -0.0627898 -3.88349 0
M  V30 1546 H 143.868 -0.255467 -4.03893 0
M  V30 1547 H 140.623 -2.27125 -4.15585 0
M  V30 1548 H 141.047 -4.82416 -4.74978 0
M  V30 1549 H 145.689 -2.138 -3.64759 0
M  V30 1550 H 143.407 -6.40059 -4.93305 0
M  V30 1551 H 146.993 -4.20654 -4.01922 0
M  V30 1552 H 145.873 -6.31044 -4.65567 0
M  V30 1553 N 143.376 1.44774 -0.622745 0
M  V30 1554 C 144.623 2.02121 -0.1239 0
M  V30 1555 C 144.951 1.48915 1.25118 0
M  V30 1556 O 144.206 0.660045 1.84233 0
M  V30 1557 C 144.505 3.57364 -0.0508323 0
M  V30 1558 C 144.171 4.29787 -1.36358 0
M  V30 1559 C 142.833 4.4929 -1.72314 0
M  V30 1560 C 145.185 4.71062 -2.23048 0
M  V30 1561 C 142.513 5.07325 -2.94682 0
M  V30 1562 C 144.865 5.30452 -3.44679 0
M  V30 1563 C 143.529 5.48175 -3.80868 0
M  V30 1564 H 142.799 0.739612 -0.0453381 0
M  V30 1565 H 145.446 1.73648 -0.807389 0
M  V30 1566 H 143.751 3.85202 0.715991 0
M  V30 1567 H 145.448 3.99456 0.351533 0
M  V30 1568 H 142.038 4.14932 -1.07375 0
M  V30 1569 H 146.222 4.55715 -1.96565 0
M  V30 1570 H 141.478 5.19235 -3.22809 0
M  V30 1571 H 145.652 5.61385 -4.12092 0
M  V30 1572 H 143.279 5.92912 -4.75773 0
M  V30 1573 N 144.854 0.36279 1.53368 0
M  V30 1574 C 146.1 -0.220702 2.02199 0
M  V30 1575 C 146.455 -1.46649 1.24546 0
M  V30 1576 O 145.748 -1.88737 0.32996 0
M  V30 1577 C 145.942 -0.568417 3.52851 0
M  V30 1578 C 145.771 0.642126 4.45092 0
M  V30 1579 C 144.541 1.15335 4.91961 0
M  V30 1580 C 146.739 1.50649 4.91741 0
M  V30 1581 N 144.721 2.3242 5.68202 0
M  V30 1582 C 146.092 2.52404 5.66297 0
M  V30 1583 C 148.147 1.52969 4.73819 0
M  V30 1584 C 146.85 3.56331 6.24836 0
M  V30 1585 C 148.876 2.55789 5.33222 0
M  V30 1586 C 148.238 3.56268 6.07662 0
M  V30 1587 H 144.337 -0.0435508 0.780786 0
M  V30 1588 H 146.921 0.506704 1.87991 0
M  V30 1589 H 145.092 -1.2649 3.67226 0
M  V30 1590 H 146.824 -1.13676 3.88407 0
M  V30 1591 H 143.579 0.718412 4.68119 0
M  V30 1592 H 144.003 2.91591 6.10986 0
M  V30 1593 H 148.645 0.766418 4.15795 0
M  V30 1594 H 146.363 4.33543 6.81958 0
M  V30 1595 H 149.949 2.58435 5.21251 0
M  V30 1596 H 148.829 4.34524 6.52808 0
M  V30 1597 N 146.332 -1.57332 0.0918853 0
M  V30 1598 C 147.242 -2.17368 -0.882505 0
M  V30 1599 C 148.258 -1.14226 -1.31257 0
M  V30 1600 O 149.434 -1.46582 -1.38115 0
M  V30 1601 C 146.499 -2.73962 -2.12476 0
M  V30 1602 C 145.56 -3.92048 -1.7492 0
M  V30 1603 C 144.793 -4.45933 -2.93223 0
M  V30 1604 O 145.016 -3.98764 -4.07852 0
M  V30 1605 O 143.95 -5.36999 -2.71875 0
M  V30 1606 H 147.776 -3.01031 -0.40172 0
M  V30 1607 H 145.361 -1.48813 -0.132291 0
M  V30 1608 H 147.243 -3.10147 -2.85283 0
M  V30 1609 H 145.918 -1.93347 -2.59613 0
M  V30 1610 H 144.825 -3.6068 -0.993025 0
M  V30 1611 H 146.158 -4.74017 -1.32548 0
M  V30 1612 N 147.81 0.181792 -1.56548 0
M  V30 1613 C 149.057 0.900097 -1.81396 0
M  V30 1614 C 149.385 1.82695 -0.667281 0
M  V30 1615 O 148.64 1.92614 0.346146 0
M  V30 1616 C 148.939 1.73728 -3.12335 0
M  V30 1617 C 148.605 0.960255 -4.40556 0
M  V30 1618 C 147.267 0.745766 -4.75386 0
M  V30 1619 C 149.619 0.414477 -5.19549 0
M  V30 1620 C 146.947 -0.0257694 -5.86694 0
M  V30 1621 C 149.299 -0.343916 -6.31664 0
M  V30 1622 C 147.963 -0.569301 -6.65068 0
M  V30 1623 H 147.233 0.329369 -0.663775 0
M  V30 1624 H 149.88 0.165647 -1.90782 0
M  V30 1625 H 148.185 2.54081 -2.98245 0
M  V30 1626 H 149.882 2.29591 -3.28769 0
M  V30 1627 H 146.472 1.13746 -4.13231 0
M  V30 1628 H 150.656 0.567554 -4.93044 0
M  V30 1629 H 145.912 -0.210233 -6.11038 0
M  V30 1630 H 150.086 -0.774133 -6.92084 0
M  V30 1631 H 147.713 -1.16903 -7.51158 0
M  V30 1632 N 149.288 1.51039 0.449983 0
M  V30 1633 C 150.534 1.63322 1.20223 0
M  V30 1634 C 150.867 0.34241 1.91158 0
M  V30 1635 O 150.142 -0.657344 1.83055 0
M  V30 1636 C 150.425 2.82801 2.22925 0
M  V30 1637 C 150.278 4.21823 1.56157 0
M  V30 1638 C 151.597 2.97807 3.24035 0
M  V30 1639 H 148.716 0.594407 0.435718 0
M  V30 1640 H 151.358 1.83489 0.493136 0
M  V30 1641 H 149.508 2.65738 2.834 0
M  V30 1642 H 151.18 4.50526 0.991162 0
M  V30 1643 H 149.423 4.25105 0.864172 0
M  V30 1644 H 150.094 5.01391 2.30891 0
M  V30 1645 H 152.57 3.13497 2.73603 0
M  V30 1646 H 151.446 3.82992 3.93202 0
M  V30 1647 H 151.707 2.09328 3.89402 0
M  V30 1648 N 150.766 -0.704594 1.40972 0
M  V30 1649 C 151.714 -1.83994 1.42299 0
M  V30 1650 C 152.708 -1.66684 0.302111 0
M  V30 1651 O 153.914 -1.73655 0.473697 0
M  V30 1652 H 150.289 -0.606171 0.44504 0
M  V30 1653 H 152.26 -1.79992 2.38003 0
M  V30 1654 C 151.009 -3.21946 1.31323 0
M  V30 1655 H 150.332 -3.35878 2.16855 0
M  V30 1656 H 151.772 -4.01491 1.36311 0
M  V30 1657 C 150.231 -3.36891 0.0245977 0
M  V30 1658 O 150.761 -3.90687 -0.934153 0
M  V30 1659 N 148.967 -2.90559 -0.0485243 0
M  V30 1660 H 148.514 -2.46968 0.732419 0
M  V30 1661 H 148.472 -3.00937 -0.910171 0
M  V30 1662 N 152.244 -1.26651 -0.937939 0
M  V30 1663 C 153.207 -1.08546 -2.01867 0
M  V30 1664 C 154.207 -0.0327327 -1.60767 0
M  V30 1665 O 155.397 -0.276427 -1.71993 0
M  V30 1666 C 152.529 -0.651711 -3.34613 0
M  V30 1667 H 153.722 -2.04502 -2.1936 0
M  V30 1668 H 151.275 -1.09294 -1.11734 0
M  V30 1669 H 152.01 0.309696 -3.22818 0
M  V30 1670 H 151.795 -1.41189 -3.65798 0
M  V30 1671 H 153.285 -0.546973 -4.14002 0
M  V30 1672 N 153.722 1.14298 -1.08507 0
M  V30 1673 C 154.95 1.89219 -0.836876 0
M  V30 1674 C 155.365 1.78638 0.611054 0
M  V30 1675 O 154.722 1.14643 1.41998 0
M  V30 1676 C 154.773 3.39158 -1.25116 0
M  V30 1677 O 154.494 3.49449 -2.64229 0
M  V30 1678 C 155.995 4.31073 -1.03398 0
M  V30 1679 H 153.215 0.599328 -0.301739 0
M  V30 1680 H 155.759 1.44746 -1.44461 0
M  V30 1681 H 153.914 3.81251 -0.687514 0
M  V30 1682 H 154.328 4.42589 -2.81452 0
M  V30 1683 H 155.802 5.34646 -1.37323 0
M  V30 1684 H 156.279 4.3919 0.0289259 0
M  V30 1685 H 156.885 3.94738 -1.58311 0
M  V30 1686 N 155.201 0.870884 1.31352 0
M  V30 1687 C 156.448 0.482273 1.96673 0
M  V30 1688 C 156.776 -0.965638 1.68836 0
M  V30 1689 O 156.031 -1.69514 0.977937 0
M  V30 1690 C 156.33 0.687157 3.50732 0
M  V30 1691 C 155.996 2.108 3.9859 0
M  V30 1692 C 154.658 2.49656 4.1137 0
M  V30 1693 C 157.01 3.03459 4.23748 0
M  V30 1694 C 154.338 3.80412 4.46659 0
M  V30 1695 C 156.69 4.3373 4.60501 0
M  V30 1696 C 155.354 4.725 4.71487 0
M  V30 1697 H 154.624 0.176476 0.719679 0
M  V30 1698 H 157.271 1.10405 1.56471 0
M  V30 1699 H 155.576 -0.0177476 3.91796 0
M  V30 1700 H 157.273 0.366284 3.99324 0
M  V30 1701 H 153.863 1.79633 3.8914 0
M  V30 1702 H 158.047 2.74665 4.13368 0
M  V30 1703 H 153.303 4.1021 4.53362 0
M  V30 1704 H 157.477 5.05578 4.78919 0
M  V30 1705 H 155.104 5.73859 4.98588 0
M  V30 1706 N 156.679 -1.44442 0.630414 0
M  V30 1707 C 157.928 -2.01267 0.132073 0
M  V30 1708 C 158.241 -1.50172 -1.25331 0
M  V30 1709 O 159.447 -1.9912 -1.84562 0
M  V30 1710 C 157.903 -3.59422 0.185362 0
M  V30 1711 C 157.511 -4.19514 1.57201 0
M  V30 1712 C 159.255 -4.23724 -0.256553 0
M  V30 1713 C 157.162 -5.69891 1.58045 0
M  V30 1714 H 156.092 -0.752619 0.0456092 0
M  V30 1715 H 158.743 -1.65666 0.789106 0
M  V30 1716 H 157.125 -3.92318 -0.538759 0
M  V30 1717 H 158.299 -3.98156 2.31966 0
M  V30 1718 H 156.614 -3.67496 1.95795 0
M  V30 1719 H 159.211 -5.34019 -0.269767 0
M  V30 1720 H 159.554 -3.96013 -1.28372 0
M  V30 1721 H 160.087 -3.95629 0.41505 0
M  V30 1722 H 156.826 -6.02336 2.58597 0
M  V30 1723 H 156.346 -5.93373 0.875725 0
M  V30 1724 H 158.025 -6.33515 1.31408 0
M  V30 1725 N 158.157 -0.370918 -1.53173 0
M  V30 1726 C 159.573 -0.0200818 -1.59587 0
M  V30 1727 C 159.773 1.46279 -1.38581 0
M  V30 1728 O 158.829 2.22506 -1.19363 0
M  V30 1729 C 160.142 -0.4808 -2.96831 0
M  V30 1730 C 161.69 -0.435477 -3.09956 0
M  V30 1731 C 162.165 -0.872092 -4.4962 0
M  V30 1732 N 163.656 -0.827364 -4.55751 0
M  V30 1733 C 164.391 -1.13683 -5.62018 0
M  V30 1734 N 163.887 -1.51584 -6.76014 0
M  V30 1735 N 165.68 -1.05927 -5.52029 0
M  V30 1736 H 157.831 -1.33652 -1.65079 0
M  V30 1737 H 160.094 -0.546634 -0.774529 0
M  V30 1738 H 159.8 -1.51577 -3.1736 0
M  V30 1739 H 159.674 0.129796 -3.76977 0
M  V30 1740 H 162.061 0.590371 -2.89134 0
M  V30 1741 H 162.142 -1.08164 -2.31806 0
M  V30 1742 H 161.786 -1.89608 -4.71181 0
M  V30 1743 H 161.716 -0.203127 -5.26208 0
M  V30 1744 H 164.207 -0.548216 -3.73902 0
M  V30 1745 H 164.52 -1.73609 -7.53047 0
M  V30 1746 H 162.865 -1.55454 -6.77391 0
M  V30 1747 H 166.056 -0.762321 -4.61851 0
M  V30 1748 H 166.229 -1.30378 -6.34749 0
M  V30 1749 N 159.635 1.57281 -0.100228 0
M  V30 1750 C 160.545 2.17833 0.870965 0
M  V30 1751 C 161.561 1.14921 1.30649 0
M  V30 1752 O 162.737 1.47313 1.37335 0
M  V30 1753 C 159.802 2.75085 2.1102 0
M  V30 1754 C 158.863 3.9297 1.72838 0
M  V30 1755 C 158.096 4.47482 2.90854 0
M  V30 1756 O 158.319 4.00922 4.05731 0
M  V30 1757 O 157.253 5.38433 2.69023 0
M  V30 1758 H 161.079 3.0124 0.38575 0
M  V30 1759 H 158.664 1.48881 0.124397 0
M  V30 1760 H 160.546 3.11656 2.83634 0
M  V30 1761 H 159.221 1.94721 2.58584 0
M  V30 1762 H 158.128 3.61201 0.973883 0
M  V30 1763 H 159.461 4.74713 1.30033 0
M  V30 1764 N 161.113 -0.173488 1.56642 0
M  V30 1765 C 162.046 -1.24353 1.91342 0
M  V30 1766 C 163.024 -1.4289 0.775965 0
M  V30 1767 O 164.208 -1.57932 1.02907 0
M  V30 1768 C 161.335 -2.60683 2.16245 0
M  V30 1769 C 160.381 -2.58894 3.38934 0
M  V30 1770 S 161.214 -2.0819 4.93373 0
M  V30 1771 C 162.37 -3.46302 5.21369 0
M  V30 1772 H 162.603 -0.947345 2.81803 0
M  V30 1773 H 160.136 -0.377958 1.49703 0
M  V30 1774 H 162.094 -3.39149 2.31275 0
M  V30 1775 H 160.755 -2.87502 1.26496 0
M  V30 1776 H 159.948 -3.59188 3.53553 0
M  V30 1777 H 159.55 -1.88522 3.2301 0
M  V30 1778 H 161.842 -4.42287 5.13214 0
M  V30 1779 H 162.785 -3.3656 6.23003 0
M  V30 1780 H 163.193 -3.42214 4.48943 0
M  V30 1781 N 162.591 -1.51276 -0.441967 0
M  V30 1782 C 163.521 -1.752 -1.54361 0
M  V30 1783 C 164.502 -0.601682 -1.59103 0
M  V30 1784 O 165.687 -0.843913 -1.74905 0
M  V30 1785 C 162.817 -1.87282 -2.92477 0
M  V30 1786 C 161.771 -3.02687 -3.02596 0
M  V30 1787 C 161.097 -2.99947 -4.42647 0
M  V30 1788 C 162.397 -4.4273 -2.77106 0
M  V30 1789 H 164.091 -2.67442 -1.34592 0
M  V30 1790 H 161.637 -1.28694 -0.646048 0
M  V30 1791 H 163.59 -2.02602 -3.695 0
M  V30 1792 H 162.314 -0.916844 -3.13467 0
M  V30 1793 H 160.973 -2.87065 -2.28012 0
M  V30 1794 H 160.621 -2.02136 -4.60597 0
M  V30 1795 H 160.321 -3.77439 -4.50348 0
M  V30 1796 H 161.845 -3.17354 -5.2165 0
M  V30 1797 H 163.259 -4.58727 -3.43864 0
M  V30 1798 H 161.656 -5.21893 -2.96222 0
M  V30 1799 H 162.726 -4.53087 -1.72744 0
M  V30 1800 N 164.069 0.697108 -1.41344 0
M  V30 1801 C 165.002 1.82134 -1.37486 0
M  V30 1802 C 165.98 1.60784 -0.242351 0
M  V30 1803 O 167.164 1.83553 -0.429012 0
M  V30 1804 C 164.291 3.18788 -1.14421 0
M  V30 1805 C 163.337 3.58932 -2.3037 0
M  V30 1806 S 164.17 3.63916 -3.92843 0
M  V30 1807 C 165.326 5.03298 -3.72078 0
M  V30 1808 H 165.559 1.85129 -2.32625 0
M  V30 1809 H 163.092 0.865671 -1.2785 0
M  V30 1810 H 165.05 3.97677 -1.018 0
M  V30 1811 H 163.711 3.13404 -0.20905 0
M  V30 1812 H 162.904 4.58202 -2.09922 0
M  V30 1813 H 162.506 2.87347 -2.39391 0
M  V30 1814 H 164.798 5.90753 -3.31688 0
M  V30 1815 H 165.741 5.28788 -4.70945 0
M  V30 1816 H 166.149 4.74764 -3.05384 0
M  V30 1817 N 165.547 1.27147 0.931209 0
M  V30 1818 C 166.963 1.04475 1.20653 0
M  V30 1819 C 167.163 -0.223885 2.00252 0
M  V30 1820 O 166.219 -0.930332 2.34736 0
M  V30 1821 C 167.532 2.28209 1.95809 0
M  V30 1822 C 169.08 2.33211 2.08762 0
M  V30 1823 C 169.555 3.56665 2.87323 0
M  V30 1824 N 171.046 3.57201 2.94892 0
M  V30 1825 C 171.781 4.49395 3.56134 0
M  V30 1826 N 171.277 5.51889 4.18796 0
M  V30 1827 N 173.07 4.37026 3.53504 0
M  V30 1828 H 165.221 2.08612 0.399333 0
M  V30 1829 H 167.484 0.917312 0.239253 0
M  V30 1830 H 167.19 3.20538 1.44736 0
M  V30 1831 H 167.064 2.33247 2.96438 0
M  V30 1832 H 169.451 1.41391 2.59023 0
M  V30 1833 H 169.532 2.32178 1.07364 0
M  V30 1834 H 169.176 4.4882 2.37746 0
M  V30 1835 H 169.106 3.54948 3.88998 0
M  V30 1836 H 171.597 2.83074 2.50354 0
M  V30 1837 H 171.91 6.18409 4.63454 0
M  V30 1838 H 170.255 5.55735 4.17353 0
M  V30 1839 H 173.446 3.56166 3.03749 0
M  V30 1840 H 173.619 5.09067 4.00942 0
M  V30 1841 N 167.025 -1.13721 1.09112 0
M  V30 1842 C 167.955 -2.21148 0.749385 0
M  V30 1843 C 168.936 -1.6792 -0.271475 0
M  V30 1844 O 170.121 -1.93693 -0.140251 0
M  V30 1845 C 167.251 -3.46905 0.165659 0
M  V30 1846 C 166.205 -4.13203 1.11567 0
M  V30 1847 C 165.531 -5.33248 0.393809 0
M  V30 1848 C 166.831 -4.60912 2.45678 0
M  V30 1849 H 168.525 -2.4999 1.64758 0
M  V30 1850 H 166.071 -1.20156 0.793626 0
M  V30 1851 H 168.024 -4.21313 -0.085466 0
M  V30 1852 H 166.748 -3.17449 -0.767714 0
M  V30 1853 H 165.407 -3.40758 1.35202 0
M  V30 1854 H 165.055 -5.00054 -0.543599 0
M  V30 1855 H 164.755 -5.78552 1.02721 0
M  V30 1856 H 166.279 -6.10413 0.150908 0
M  V30 1857 H 167.693 -5.26759 2.26269 0
M  V30 1858 H 166.09 -5.16944 3.04776 0
M  V30 1859 H 167.16 -3.75603 3.06677 0
M  V30 1860 N 168.503 -0.877838 -1.30888 0
M  V30 1861 C 169.749 -0.493426 -1.96706 0
M  V30 1862 C 170.082 0.953504 -1.6918 0
M  V30 1863 O 169.357 1.67266 -0.992594 0
M  V30 1864 C 169.64 -0.760429 -3.51979 0
M  V30 1865 C 169.493 -2.25747 -3.89048 0
M  V30 1866 C 170.812 -0.232148 -4.39487 0
M  V30 1867 H 167.931 -0.180746 -0.714493 0
M  V30 1868 H 170.573 -1.10052 -1.54882 0
M  V30 1869 H 168.723 -0.243715 -3.87735 0
M  V30 1870 H 170.395 -2.84204 -3.63354 0
M  V30 1871 H 168.638 -2.72694 -3.37373 0
M  V30 1872 H 169.309 -2.39491 -4.97341 0
M  V30 1873 H 171.785 -0.674314 -4.106 0
M  V30 1874 H 170.661 -0.448355 -5.47066 0
M  V30 1875 H 170.922 0.866297 -4.33529 0
M  V30 1876 N 169.982 1.44106 -0.638065 0
M  V30 1877 C 170.912 2.33448 0.0494287 0
M  V30 1878 C 171.893 1.48606 0.827672 0
M  V30 1879 O 173.078 1.77308 0.792173 0
M  V30 1880 C 170.208 3.31771 1.02691 0
M  V30 1881 C 169.162 4.26485 0.359823 0
M  V30 1882 C 168.488 5.14729 1.44769 0
M  V30 1883 C 169.788 5.17056 -0.738296 0
M  V30 1884 H 171.482 2.91183 -0.696636 0
M  V30 1885 H 169.028 1.40014 -0.336456 0
M  V30 1886 H 170.981 3.93161 1.51666 0
M  V30 1887 H 169.705 2.7226 1.80395 0
M  V30 1888 H 168.364 3.66437 -0.10934 0
M  V30 1889 H 168.012 4.51566 2.21578 0
M  V30 1890 H 167.712 5.78913 1.00668 0
M  V30 1891 H 169.236 5.78991 1.93911 0
M  V30 1892 H 170.65 5.72342 -0.331354 0
M  V30 1893 H 169.047 5.89879 -1.10286 0
M  V30 1894 H 170.117 4.57652 -1.60258 0
M  V30 1895 N 171.46 0.379036 1.52974 0
M  V30 1896 C 172.688 -0.20679 2.05864 0
M  V30 1897 C 173.103 -1.41356 1.25155 0
M  V30 1898 O 172.46 -1.8009 0.295588 0
M  V30 1899 C 172.511 -0.587045 3.56702 0
M  V30 1900 O 172.232 0.571776 4.34353 0
M  V30 1901 C 173.733 -1.22983 4.25899 0
M  V30 1902 H 170.953 -0.0336123 0.670158 0
M  V30 1903 H 173.497 0.541298 1.97206 0
M  V30 1904 H 171.652 -1.28504 3.65466 0
M  V30 1905 H 172.066 0.261544 5.23847 0
M  V30 1906 H 173.54 -1.44635 5.32715 0
M  V30 1907 H 174.017 -2.19416 3.80465 0
M  V30 1908 H 174.623 -0.572892 4.21424 0
M  V30 1909 N 172.938 -1.57226 0.108567 0
M  V30 1910 C 174.184 -1.95121 -0.552761 0
M  V30 1911 C 174.517 -0.991345 -1.66991 0
M  V30 1912 O 173.792 -0.0267211 -1.94482 0
M  V30 1913 C 174.075 -3.43039 -1.09528 0
M  V30 1914 C 173.928 -4.49797 0.0177332 0
M  V30 1915 C 175.247 -3.92567 -1.98945 0
M  V30 1916 H 172.366 -0.709496 -0.199461 0
M  V30 1917 H 175.008 -1.89126 0.182011 0
M  V30 1918 H 173.158 -3.48279 -1.72146 0
M  V30 1919 H 174.83 -4.56661 0.652584 0
M  V30 1920 H 173.073 -4.284 0.682309 0
M  V30 1921 H 173.744 -5.50528 -0.402919 0
M  V30 1922 H 176.22 -3.89565 -1.46214 0
M  V30 1923 H 175.096 -4.96605 -2.33827 0
M  V30 1924 H 175.357 -3.32648 -2.91201 0
M  V30 1925 N 174.416 0.165178 -1.56732 0
M  V30 1926 C 175.832 0.517174 -1.50988 0
M  V30 1927 C 176.032 1.84331 -0.813894 0
M  V30 1928 O 175.088 2.49672 -0.37682 0
M  V30 1929 C 176.401 0.544261 -2.95733 0
M  V30 1930 C 177.949 0.631039 -3.06573 0
M  V30 1931 C 178.424 0.68896 -4.52788 0
M  V30 1932 N 179.915 0.751683 -4.5706 0
M  V30 1933 C 180.65 0.817177 -5.67547 0
M  V30 1934 N 180.146 0.843129 -6.8765 0
M  V30 1935 N 181.939 0.856668 -5.55534 0
M  V30 1936 H 174.09 -0.704318 -2.00382 0
M  V30 1937 H 176.353 -0.254687 -0.913148 0
M  V30 1938 H 176.059 -0.361607 -3.49836 0
M  V30 1939 H 175.933 1.3886 -3.5071 0
M  V30 1940 H 178.32 1.52733 -2.52501 0
M  V30 1941 H 178.401 -0.240095 -2.54671 0
M  V30 1942 H 178.045 -0.2031 -5.07494 0
M  V30 1943 H 177.975 1.57633 -5.02454 0
M  V30 1944 H 180.466 0.739661 -3.70591 0
M  V30 1945 H 180.779 0.894448 -7.67606 0
M  V30 1946 H 179.124 0.811304 -6.90248 0
M  V30 1947 H 182.315 0.833437 -4.60621 0
M  V30 1948 H 182.488 0.904247 -6.4166 0
M  V30 1949 N 175.894 1.51508 0.433938 0
M  V30 1950 C 177.119 1.68443 1.21003 0
M  V30 1951 C 177.544 0.382636 1.84167 0
M  V30 1952 O 176.902 -0.65755 1.68956 0
M  V30 1953 C 176.95 2.80405 2.26727 0
M  V30 1954 O 176.054 2.44245 3.32292 0
M  V30 1955 H 175.395 0.561536 0.354363 0
M  V30 1956 H 177.925 1.9809 0.512024 0
M  V30 1957 H 177.935 3.0459 2.71457 0
M  V30 1958 H 176.61 3.74867 1.80132 0
M  V30 1959 H 175.187 2.30644 2.93015 0
M  V30 1960 N 177.372 -0.689602 1.41712 0
M  V30 1961 C 178.32 -1.82475 1.44242 0
M  V30 1962 C 179.314 -1.66354 0.319774 0
M  V30 1963 O 180.52 -1.73143 0.492089 0
M  V30 1964 H 176.895 -0.601416 0.451445 0
M  V30 1965 H 178.866 -1.77458 2.39899 0
M  V30 1966 C 177.615 -3.20535 1.3473 0
M  V30 1967 H 176.938 -3.33559 2.20405 0
M  V30 1968 H 178.378 -4.00023 1.40562 0
M  V30 1969 C 176.837 -3.36846 0.0603281 0
M  V30 1970 O 177.367 -3.91656 -0.892663 0
M  V30 1971 N 175.573 -2.90595 -0.0177039 0
M  V30 1972 H 175.12 -2.46178 0.758572 0
M  V30 1973 H 175.078 -3.01886 -0.878201 0
M  V30 1974 N 178.85 -1.27639 -0.924453 0
M  V30 1975 C 179.78 -1.13166 -2.04244 0
M  V30 1976 C 180.761 -0.032256 -1.70069 0
M  V30 1977 O 181.946 -0.207328 -1.9309 0
M  V30 1978 C 179.076 -0.781496 -3.38393 0
M  V30 1979 C 178.03 -1.83449 -3.86692 0
M  V30 1980 C 177.356 -1.33822 -5.17683 0
M  V30 1981 C 178.656 -3.23917 -4.09726 0
M  V30 1982 H 180.35 -2.06689 -2.1661 0
M  V30 1983 H 177.896 -0.995136 -1.04082 0
M  V30 1984 H 179.849 -0.667057 -4.16087 0
M  V30 1985 H 178.573 0.189439 -3.2605 0
M  V30 1986 H 177.232 -1.93789 -3.11193 0
M  V30 1987 H 176.88 -0.35665 -5.01734 0
M  V30 1988 H 176.58 -2.04224 -5.50968 0
M  V30 1989 H 178.104 -1.23679 -5.97943 0
M  V30 1990 H 179.518 -3.16559 -4.77978 0
M  V30 1991 H 177.915 -3.92059 -4.54324 0
M  V30 1992 H 178.985 -3.68729 -3.14908 0
M  V30 1993 N 180.328 1.1314 -1.09713 0
M  V30 1994 C 181.577 1.83838 -0.829851 0
M  V30 1995 C 181.89 1.84599 0.646728 0
M  V30 1996 O 183.096 2.51218 1.02965 0
M  V30 1997 C 181.552 3.30069 -1.43466 0
M  V30 1998 C 181.16 3.37688 -2.94399 0
M  V30 1999 C 182.904 4.05788 -1.24645 0
M  V30 2000 C 180.811 4.78209 -3.47952 0
M  V30 2001 H 179.741 0.68877 -0.306777 0
M  V30 2002 H 182.392 1.27448 -1.3202 0
M  V30 2003 H 180.774 3.8628 -0.871996 0
M  V30 2004 H 181.948 2.91456 -3.56918 0
M  V30 2005 H 180.263 2.75436 -3.12289 0
M  V30 2006 H 182.86 5.09535 -1.62107 0
M  V30 2007 H 183.203 4.15878 -0.187357 0
M  V30 2008 H 183.736 3.55915 -1.77678 0
M  V30 2009 H 180.475 4.73311 -4.53495 0
M  V30 2010 H 179.995 5.24924 -2.90198 0
M  V30 2011 H 181.674 5.47133 -3.45332 0
M  V30 2012 N 181.806 0.884767 1.30421 0
M  V30 2013 C 183.217 0.553656 1.78302 0
M  V30 2014 C 183.568 -0.930153 1.7275 0
M  V30 2015 O 182.693 -1.72681 1.30423 0
M  V30 2016 C 183.288 0.998234 3.2376 0
M  V30 2017 C 181.847 0.71854 3.69478 0
M  V30 2018 C 180.994 1.18132 2.50879 0
M  V30 2019 H 183.945 1.06901 1.17294 0
M  V30 2020 H 183.966 0.327118 3.79091 0
M  V30 2021 H 183.478 2.0782 3.27769 0
M  V30 2022 H 181.579 -0.349444 3.70958 0
M  V30 2023 H 181.692 1.30595 4.60958 0
M  V30 2024 H 180.056 0.600669 2.47516 0
M  V30 2025 H 180.839 2.26902 2.57624 0
M  V30 2026 N 183.284 -1.43765 0.645699 0
M  V30 2027 C 184.509 -2.06767 0.161883 0
M  V30 2028 C 184.934 -1.48034 -1.16049 0
M  V30 2029 O 184.292 -0.587369 -1.71522 0
M  V30 2030 C 184.34 -3.60519 0.0762003 0
M  V30 2031 O 183.444 -4.00982 -0.963721 0
M  V30 2032 H 182.785 -0.657675 0.091429 0
M  V30 2033 H 185.315 -1.84397 0.886499 0
M  V30 2034 H 185.325 -4.07853 -0.109604 0
M  V30 2035 H 184 -4.02646 1.04157 0
M  V30 2036 H 182.577 -3.65253 -0.751312 0
M  V30 2037 N 184.763 -0.387143 -1.52771 0
M  V30 2038 C 186.174 0.0873634 -1.86495 0
M  V30 2039 C 186.525 1.46336 -1.30691 0
M  V30 2040 O 185.65 2.068 -0.637409 0
M  V30 2041 C 186.245 0.165305 -3.38396 0
M  V30 2042 C 184.804 0.584101 -3.7184 0
M  V30 2043 C 183.951 -0.255279 -2.76122 0
M  V30 2044 H 186.902 -0.605104 -1.46711 0
M  V30 2045 H 186.923 0.984848 -3.67534 0
M  V30 2046 H 186.435 -0.836301 -3.78982 0
M  V30 2047 H 184.536 1.59315 -3.36823 0
M  V30 2048 H 184.649 0.343749 -4.77865 0
M  V30 2049 H 183.013 0.279126 -2.53166 0
M  V30 2050 H 183.796 -1.25482 -3.19545 0
M  V30 2051 N 186.241 1.57166 -0.116904 0
M  V30 2052 C 187.652 1.82169 0.408809 0
M  V30 2053 C 188.003 1.03393 1.66746 0
M  V30 2054 O 187.128 0.269886 2.1471 0
M  V30 2055 C 187.723 3.30429 0.748466 0
M  V30 2056 C 186.282 3.5612 1.21882 0
M  V30 2057 C 185.429 2.76374 0.226452 0
M  V30 2058 H 188.38 1.5497 -0.342063 0
M  V30 2059 H 188.401 3.44943 1.60607 0
M  V30 2060 H 187.913 3.87737 -0.167784 0
M  V30 2061 H 186.014 3.04168 2.15204 0
M  V30 2062 H 186.127 4.64705 1.16559 0
M  V30 2063 H 184.491 2.44515 0.713063 0
M  V30 2064 H 185.274 3.3644 -0.682859 0
M  V30 2065 N 187.719 -0.156864 1.56817 0
M  V30 2066 C 188.947 -0.886316 1.86955 0
M  V30 2067 C 189.362 -1.75185 0.703975 0
M  V30 2068 O 188.719 -1.79555 -0.326552 0
M  V30 2069 C 188.77 -1.75117 3.16253 0
M  V30 2070 O 188.491 -0.920537 4.2832 0
M  V30 2071 C 189.992 -2.58905 3.59837 0
M  V30 2072 H 187.212 -0.25678 0.619923 0
M  V30 2073 H 189.756 -0.152615 2.0393 0
M  V30 2074 H 187.911 -2.43805 3.01062 0
M  V30 2075 H 188.325 -1.51337 5.02192 0
M  V30 2076 H 189.799 -3.1518 4.53172 0
M  V30 2077 H 190.276 -3.34472 2.84649 0
M  V30 2078 H 190.882 -1.95526 3.7769 0
M  V30 2079 N 189.197 -1.51736 -0.425897 0
M  V30 2080 C 190.427 -1.68549 -1.19476 0
M  V30 2081 C 190.835 -0.387288 -1.85194 0
M  V30 2082 O 190.178 0.645142 -1.71999 0
M  V30 2083 C 190.24 -2.75275 -2.31223 0
M  V30 2084 C 189.904 -4.17534 -1.8578 0
M  V30 2085 C 190.901 -5.01936 -1.35485 0
M  V30 2086 C 188.586 -4.6369 -1.93123 0
M  V30 2087 C 190.58 -6.30559 -0.931347 0
M  V30 2088 C 188.267 -5.92307 -1.50384 0
M  V30 2089 C 189.265 -6.75569 -1.00473 0
M  V30 2090 O 188.953 -8.0178 -0.583452 0
M  V30 2091 H 188.685 -0.568525 -0.365725 0
M  V30 2092 H 191.239 -1.98982 -0.509444 0
M  V30 2093 H 189.469 -2.40182 -3.03067 0
M  V30 2094 H 191.158 -2.80853 -2.93047 0
M  V30 2095 H 191.924 -4.67475 -1.29197 0
M  V30 2096 H 187.803 -3.98997 -2.30916 0
M  V30 2097 H 191.347 -6.95498 -0.541084 0
M  V30 2098 H 187.244 -6.2628 -1.56346 0
M  V30 2099 H 188.012 -8.1543 -0.708275 0
M  V30 2100 N 190.675 0.682077 -1.42076 0
M  V30 2101 C 191.623 1.81707 -1.45208 0
M  V30 2102 C 192.617 1.66183 -0.328591 0
M  V30 2103 O 193.823 1.7288 -0.501264 0
M  V30 2104 H 190.198 0.599014 -0.454628 0
M  V30 2105 H 192.169 1.76183 -2.40836 0
M  V30 2106 C 190.918 3.19816 -1.36428 0
M  V30 2107 H 190.241 3.32385 -2.22171 0
M  V30 2108 H 191.681 3.99272 -1.42681 0
M  V30 2109 C 190.14 3.36809 -0.078191 0
M  V30 2110 O 190.67 3.92124 0.87188 0
M  V30 2111 N 188.876 2.906 0.00229266 0
M  V30 2112 H 188.423 2.45772 -0.771616 0
M  V30 2113 H 188.381 3.02347 0.862179 0
M  V30 2114 N 192.153 1.28127 0.917671 0
M  V30 2115 C 193.378 1.18007 1.70555 0
M  V30 2116 C 193.803 -0.258257 1.86319 0
M  V30 2117 O 193.161 -1.1869 1.37049 0
M  V30 2118 C 193.209 1.87948 3.07746 0
M  V30 2119 O 192.313 1.18427 3.9503 0
M  V30 2120 H 191.654 0.409867 0.522403 0
M  V30 2121 H 194.184 1.69379 1.1477 0
M  V30 2122 H 194.194 1.95701 3.58001 0
M  V30 2123 H 192.869 2.92573 2.95591 0
M  V30 2124 H 191.446 1.18811 3.53466 0
M  V30 2125 N 193.631 -1.12557 1.10312 0
M  V30 2126 C 194.594 -2.16434 0.75424 0
M  V30 2127 C 195.594 -1.59278 -0.220685 0
M  V30 2128 O 196.784 -1.742 0.00230591 0
M  V30 2129 C 193.916 -3.40699 0.116987 0
M  V30 2130 H 195.109 -2.48811 1.67431 0
M  V30 2131 H 192.662 -1.27542 0.903475 0
M  V30 2132 H 193.397 -3.13921 -0.813877 0
M  V30 2133 H 193.182 -3.83459 0.818613 0
M  V30 2134 H 194.672 -4.17451 -0.111387 0
M  V30 2135 N 195.109 -0.891671 -1.2995 0
M  V30 2136 C 196.059 -0.334811 -2.25528 0
M  V30 2137 C 197.043 0.540553 -1.51548 0
M  V30 2138 O 198.235 0.383882 -1.72787 0
M  V30 2139 C 195.364 0.44374 -3.4042 0
M  V30 2140 C 194.45 -0.44609 -4.21747 0
M  V30 2141 N 194.841 -1.54963 -4.81477 0
M  V30 2142 C 193.139 -0.242415 -4.45341 0
M  V30 2143 C 193.84 -2.10015 -5.42465 0
M  V30 2144 N 192.816 -1.39423 -5.25416 0
M  V30 2145 H 196.618 -1.17792 -2.69262 0
M  V30 2146 H 194.132 -0.741822 -1.44467 0
M  V30 2147 H 196.129 0.859362 -4.07947 0
M  V30 2148 H 194.789 1.28421 -2.98225 0
M  V30 2149 H 195.8 -1.93244 -4.80497 0
M  V30 2150 H 192.477 0.560342 -4.13723 0
M  V30 2151 H 193.867 -3.02724 -5.9984 0
M  V30 2152 N 196.587 1.43421 -0.653314 0
M  V30 2153 C 197.864 1.95361 -0.0966581 0
M  V30 2154 C 198.244 1.59461 1.38331 0
M  V30 2155 O 197.592 0.879777 2.10884 0
M  V30 2156 C 197.802 3.47311 -0.342988 0
M  V30 2157 C 199.15 4.23875 -0.24798 0
M  V30 2158 O 200.174 3.55133 -0.275553 0
M  V30 2159 O 199.033 5.4623 -0.171771 0
M  V30 2160 H 196.127 0.826945 0.00956291 0
M  V30 2161 H 198.673 1.5336 -0.726558 0
M  V30 2162 H 197.445 3.66569 -1.36906 0
M  V30 2163 H 197.068 3.9631 0.319975 0
M  V30 2164 N 198.065 0.39524 1.52563 0
M  V30 2165 C 199.295 -0.184675 2.05773 0
M  V30 2166 C 199.703 -1.40571 1.26635 0
M  V30 2167 O 199.046 -1.81105 0.30769 0
M  V30 2168 C 199.108 -0.613551 3.54226 0
M  V30 2169 C 198.772 0.49484 4.54313 0
M  V30 2170 C 199.769 1.3541 5.01956 0
M  V30 2171 C 197.454 0.663565 4.97898 0
M  V30 2172 C 199.448 2.36716 5.91814 0
M  V30 2173 C 197.135 1.67996 5.87555 0
M  V30 2174 C 198.133 2.53017 6.34406 0
M  V30 2175 O 197.821 3.52917 7.22291 0
M  V30 2176 H 197.553 -0.030077 0.675331 0
M  V30 2177 H 200.107 0.560708 1.97599 0
M  V30 2178 H 198.337 -1.411 3.60038 0
M  V30 2179 H 200.026 -1.11981 3.90148 0
M  V30 2180 H 200.792 1.23509 4.6901 0
M  V30 2181 H 196.671 0.0114913 4.60999 0
M  V30 2182 H 200.215 3.03113 6.28306 0
M  V30 2183 H 196.112 1.79933 6.19915 0
M  V30 2184 H 196.88 3.48996 7.40367 0
M  V30 2185 N 199.544 -1.57102 0.125237 0
M  V30 2186 C 200.793 -1.94582 -0.531095 0
M  V30 2187 C 201.106 -1.01126 -1.6743 0
M  V30 2188 O 202.312 -1.28097 -2.39381 0
M  V30 2189 C 200.768 -3.45839 -0.996164 0
M  V30 2190 C 200.376 -4.47842 0.118926 0
M  V30 2191 C 202.12 -3.92227 -1.62352 0
M  V30 2192 C 200.027 -5.90284 -0.363192 0
M  V30 2193 H 198.957 -0.726391 -0.20217 0
M  V30 2194 H 201.608 -1.82339 0.206092 0
M  V30 2195 H 199.99 -3.53338 -1.78796 0
M  V30 2196 H 201.164 -4.52018 0.895358 0
M  V30 2197 H 199.479 -4.11243 0.653324 0
M  V30 2198 H 202.076 -4.96069 -1.99548 0
M  V30 2199 H 202.419 -3.32552 -2.50429 0
M  V30 2200 H 202.952 -3.87554 -0.897019 0
M  V30 2201 H 199.691 -6.53728 0.481679 0
M  V30 2202 H 199.211 -5.89515 -1.10597 0
M  V30 2203 H 200.89 -6.41752 -0.822377 0
M  V30 2204 N 201.022 0.148545 -1.56898 0
M  V30 2205 C 202.247 0.880385 -1.87787 0
M  V30 2206 C 202.672 1.74018 -0.714093 0
M  V30 2207 O 202.03 1.78153 0.336343 0
M  V30 2208 C 202.078 1.71422 -3.17249 0
M  V30 2209 O 201.182 2.8183 -3.01074 0
M  V30 2210 H 200.523 0.245301 -0.617028 0
M  V30 2211 H 203.053 0.139826 -2.04122 0
M  V30 2212 H 203.063 2.10954 -3.49231 0
M  V30 2213 H 201.738 1.08284 -4.01556 0
M  V30 2214 H 200.315 2.45715 -2.80497 0
M  V30 2215 N 202.5 1.5196 0.417844 0
M  V30 2216 C 203.746 1.66793 1.16411 0
M  V30 2217 C 204.101 0.388758 1.88432 0
M  V30 2218 O 203.394 -0.616409 1.81414 0
M  V30 2219 C 203.588 2.82269 2.19223 0
M  V30 2220 C 203.417 4.21293 1.57297 0
M  V30 2221 C 202.187 4.86948 1.34944 0
M  V30 2222 C 204.385 5.03704 1.03858 0
M  V30 2223 N 202.367 6.1003 0.688195 0
M  V30 2224 C 203.738 6.1795 0.503742 0
M  V30 2225 C 205.793 4.89095 0.932203 0
M  V30 2226 C 204.496 7.19188 -0.127034 0
M  V30 2227 C 206.522 5.90559 0.315293 0
M  V30 2228 C 205.884 7.0409 -0.208906 0
M  V30 2229 H 201.983 0.66407 0.412959 0
M  V30 2230 H 204.567 1.89242 0.457772 0
M  V30 2231 H 202.738 2.61451 2.87225 0
M  V30 2232 H 204.47 2.86183 2.86149 0
M  V30 2233 H 201.225 4.45156 1.61657 0
M  V30 2234 H 201.649 6.75964 0.374449 0
M  V30 2235 H 206.291 4.01557 1.32332 0
M  V30 2236 H 204.009 8.06359 -0.530231 0
M  V30 2237 H 207.595 5.81327 0.234625 0
M  V30 2238 H 206.475 7.81257 -0.67875 0
M  V30 2239 N 203.978 -0.674533 1.42435 0
M  V30 2240 C 204.888 -1.81751 1.48337 0
M  V30 2241 C 205.904 -1.69975 0.372099 0
M  V30 2242 O 207.08 -1.91521 0.62304 0
M  V30 2243 C 204.145 -3.17895 1.38361 0
M  V30 2244 C 203.206 -3.41625 2.59982 0
M  V30 2245 C 202.439 -4.71274 2.50473 0
M  V30 2246 O 202.662 -5.49197 1.54075 0
M  V30 2247 O 201.596 -4.96254 3.4061 0
M  V30 2248 H 205.422 -1.79728 2.44809 0
M  V30 2249 H 203.007 -0.830312 1.24202 0
M  V30 2250 H 204.889 -3.99136 1.35161 0
M  V30 2251 H 203.564 -3.20555 0.450144 0
M  V30 2252 H 202.471 -2.60231 2.68757 0
M  V30 2253 H 203.804 -3.43796 3.52229 0
M  V30 2254 N 205.456 -1.28612 -0.910864 0
M  V30 2255 C 206.681 -1.1891 -1.69927 0
M  V30 2256 C 207.106 0.248372 -1.86453 0
M  V30 2257 O 206.464 1.17961 -1.37676 0
M  V30 2258 C 206.512 -1.89578 -3.06745 0
M  V30 2259 O 205.616 -1.20521 -3.94396 0
M  V30 2260 H 204.957 -0.412632 -0.520222 0
M  V30 2261 H 207.487 -1.69985 -1.1387 0
M  V30 2262 H 207.497 -1.97597 -3.56958 0
M  V30 2263 H 206.172 -2.94136 -2.94035 0
M  V30 2264 H 204.749 -1.20684 -3.52831 0
M  V30 2265 N 206.934 1.1197 -1.10907 0
M  V30 2266 C 208.181 1.83588 -0.854507 0
M  V30 2267 C 208.509 1.84357 0.6199 0
M  V30 2268 O 207.764 1.28809 1.47332 0
M  V30 2269 C 208.063 3.30749 -1.35425 0
M  V30 2270 C 207.729 3.50146 -2.84093 0
M  V30 2271 C 206.391 3.55148 -3.2469 0
M  V30 2272 C 208.743 3.56857 -3.79872 0
M  V30 2273 C 206.071 3.6441 -4.59806 0
M  V30 2274 C 208.423 3.6765 -5.14797 0
M  V30 2275 C 207.087 3.7091 -5.54961 0
M  V30 2276 H 206.357 0.671795 -0.312686 0
M  V30 2277 H 209.004 1.32091 -1.38652 0
M  V30 2278 H 207.309 3.84703 -0.742361 0
M  V30 2279 H 209.006 3.8464 -1.1337 0
M  V30 2280 H 205.596 3.46919 -2.51685 0
M  V30 2281 H 209.78 3.52258 -3.49611 0
M  V30 2282 H 205.036 3.65208 -4.9034 0
M  V30 2283 H 209.21 3.71786 -5.88853 0
M  V30 2284 H 206.837 3.7784 -6.59652 0
M  V30 2285 N 208.412 0.89855 1.29475 0
M  V30 2286 C 209.637 0.538561 2.00285 0
M  V30 2287 C 210.062 -0.869135 1.66816 0
M  V30 2288 O 209.42 -1.57831 0.892145 0
M  V30 2289 C 209.468 0.736475 3.52999 0
M  V30 2290 O 208.572 -0.211537 4.11857 0
M  V30 2291 H 207.913 0.210563 0.62973 0
M  V30 2292 H 210.443 1.20982 1.64998 0
M  V30 2293 H 210.453 0.640685 4.02938 0
M  V30 2294 H 209.128 1.76276 3.76696 0
M  V30 2295 H 207.705 -0.0682991 3.72837 0
M  V30 2296 N 209.89 -1.43072 0.660911 0
M  V30 2297 C 210.838 -2.32569 -0.0378199 0
M  V30 2298 C 211.832 -1.49046 -0.805092 0
M  V30 2299 O 213.038 -1.65206 -0.714624 0
M  V30 2300 H 209.413 -0.75136 -0.031019 0
M  V30 2301 H 211.384 -2.89216 0.734609 0
M  V30 2302 C 210.133 -3.33453 -0.985124 0
M  V30 2303 H 209.456 -3.97752 -0.404147 0
M  V30 2304 H 210.896 -3.98691 -1.44297 0
M  V30 2305 C 209.355 -2.64642 -2.08486 0
M  V30 2306 O 209.885 -2.46776 -3.16961 0
M  V30 2307 N 208.091 -2.23891 -1.8526 0
M  V30 2308 H 207.638 -2.38621 -0.970449 0
M  V30 2309 H 207.596 -1.78181 -2.59034 0
M  V30 2310 N 211.368 -0.403325 -1.52352 0
M  V30 2311 C 212.614 0.174605 -2.02047 0
M  V30 2312 C 212.947 1.45282 -1.28867 0
M  V30 2313 O 212.222 1.90483 -0.393257 0
M  V30 2314 C 212.505 0.428238 -3.57545 0
M  V30 2315 C 212.358 -0.866248 -4.4138 0
M  V30 2316 C 213.677 1.21287 -4.23057 0
M  V30 2317 H 210.796 0.0619851 -0.734389 0
M  V30 2318 H 213.438 -0.53565 -1.82293 0
M  V30 2319 H 211.588 1.03327 -3.74507 0
M  V30 2320 H 213.26 -1.50265 -4.3614 0
M  V30 2321 H 211.503 -1.47851 -4.07827 0
M  V30 2322 H 212.174 -0.643249 -5.48239 0
M  V30 2323 H 214.65 0.700703 -4.10158 0
M  V30 2324 H 213.526 1.35909 -5.31808 0
M  V30 2325 H 213.787 2.23193 -3.81625 0
M  V30 2326 N 212.846 1.57033 -0.133567 0
M  V30 2327 C 214.071 2.00475 0.531477 0
M  V30 2328 C 214.496 1.01291 1.58499 0
M  V30 2329 O 213.854 -0.0133279 1.81295 0
M  V30 2330 C 213.902 3.42729 1.12113 0
M  V30 2331 O 213.006 3.46498 2.23636 0
M  V30 2332 H 212.347 0.650876 0.131362 0
M  V30 2333 H 214.877 2.03344 -0.22634 0
M  V30 2334 H 214.887 3.81246 1.4531 0
M  V30 2335 H 213.562 4.14428 0.349557 0
M  V30 2336 H 212.139 3.19811 1.91769 0
M  V30 2337 N 214.325 -0.140222 1.56975 0
M  V30 2338 C 215.555 -0.865181 1.87612 0
M  V30 2339 C 215.963 -1.74942 0.72055 0
M  V30 2340 O 215.306 -1.80917 -0.318561 0
M  V30 2341 C 215.368 -1.76782 3.13031 0
M  V30 2342 C 215.032 -1.06005 4.44536 0
M  V30 2343 C 216.029 -0.410768 5.18275 0
M  V30 2344 C 213.714 -1.04754 4.91255 0
M  V30 2345 C 215.708 0.241572 6.36942 0
M  V30 2346 C 213.395 -0.391394 6.09845 0
M  V30 2347 C 214.393 0.252029 6.82535 0
M  V30 2348 O 214.081 0.897757 7.98871 0
M  V30 2349 H 213.813 -0.255188 0.625983 0
M  V30 2350 H 216.367 -0.135653 2.04952 0
M  V30 2351 H 214.597 -2.53846 2.91718 0
M  V30 2352 H 216.286 -2.36533 3.29859 0
M  V30 2353 H 217.052 -0.412195 4.83245 0
M  V30 2354 H 212.931 -1.53777 4.34596 0
M  V30 2355 H 216.475 0.744375 6.93617 0
M  V30 2356 H 212.372 -0.387656 6.44335 0
M  V30 2357 H 213.14 0.800102 8.1458 0
M  V30 2358 N 215.803 -1.52179 -0.40978 0
M  V30 2359 C 217.033 -1.69807 -1.17682 0
M  V30 2360 C 217.441 -0.406908 -1.84773 0
M  V30 2361 O 216.784 0.626863 -1.72673 0
M  V30 2362 C 216.846 -2.77712 -2.2829 0
M  V30 2363 C 216.51 -4.19481 -1.81341 0
M  V30 2364 C 217.507 -5.03345 -1.30154 0
M  V30 2365 C 215.192 -4.65713 -1.88194 0
M  V30 2366 C 217.186 -6.31511 -0.864416 0
M  V30 2367 C 214.873 -5.93869 -1.44093 0
M  V30 2368 C 215.871 -6.76597 -0.933023 0
M  V30 2369 O 215.559 -8.02354 -0.49838 0
M  V30 2370 H 215.291 -0.572372 -0.359675 0
M  V30 2371 H 217.845 -1.99511 -0.488311 0
M  V30 2372 H 216.075 -2.43383 -3.00502 0
M  V30 2373 H 217.764 -2.83946 -2.90051 0
M  V30 2374 H 218.53 -4.68819 -1.24232 0
M  V30 2375 H 214.409 -4.01424 -2.26671 0
M  V30 2376 H 217.953 -6.96033 -0.467286 0
M  V30 2377 H 213.85 -6.27903 -1.49694 0
M  V30 2378 H 214.618 -8.16135 -0.621747 0
M  V30 2379 N 217.281 0.66697 -1.42791 0
M  V30 2380 C 218.509 1.45505 -1.47091 0
M  V30 2381 C 218.924 1.8861 -0.0845873 0
M  V30 2382 O 218.281 1.58632 0.90234 0
M  V30 2383 C 218.332 2.69906 -2.40485 0
M  V30 2384 O 218.053 2.28608 -3.73725 0
M  V30 2385 C 219.554 3.63396 -2.53886 0
M  V30 2386 H 216.774 0.447459 -0.500022 0
M  V30 2387 H 219.318 0.818866 -1.8739 0
M  V30 2388 H 217.473 3.29696 -2.03419 0
M  V30 2389 H 217.887 3.08997 -4.23817 0
M  V30 2390 H 219.361 4.47387 -3.2334 0
M  V30 2391 H 219.838 4.09824 -1.57927 0
M  V30 2392 H 220.444 3.09495 -2.91706 0
M  V30 2393 N 218.759 1.29093 0.90403 0
M  V30 2394 C 220.175 1.07011 1.1841 0
M  V30 2395 C 220.375 -0.181358 2.00682 0
M  V30 2396 O 219.431 -0.880331 2.36657 0
M  V30 2397 C 220.744 2.32311 1.90924 0
M  V30 2398 C 222.292 2.37587 2.03768 0
M  V30 2399 C 222.767 3.62679 2.79693 0
M  V30 2400 N 224.258 3.63376 2.87249 0
M  V30 2401 C 224.993 4.56848 3.46522 0
M  V30 2402 N 224.489 5.60648 4.06996 0
M  V30 2403 N 226.282 4.44426 3.44154 0
M  V30 2404 H 218.433 2.09412 0.354993 0
M  V30 2405 H 220.696 0.922181 0.219742 0
M  V30 2406 H 220.402 3.23536 1.37905 0
M  V30 2407 H 220.276 2.39483 2.91424 0
M  V30 2408 H 222.663 1.46853 2.55965 0
M  V30 2409 H 222.744 2.34403 1.02415 0
M  V30 2410 H 222.388 4.53762 2.28173 0
M  V30 2411 H 222.318 3.63119 3.81381 0
M  V30 2412 H 224.809 2.88321 2.44293 0
M  V30 2413 H 225.122 6.28101 4.50232 0
M  V30 2414 H 223.467 5.64463 4.05471 0
M  V30 2415 H 226.658 3.62529 2.96126 0
M  V30 2416 H 226.831 5.17457 3.90054 0
M  V30 2417 N 220.237 -1.11381 1.11499 0
M  V30 2418 C 221.486 -1.82494 0.858993 0
M  V30 2419 C 221.799 -1.85605 -0.617278 0
M  V30 2420 O 223.005 -2.52824 -0.989552 0
M  V30 2421 C 221.461 -3.27745 1.48699 0
M  V30 2422 C 221.069 -3.32961 2.99735 0
M  V30 2423 C 222.813 -4.03754 1.31085 0
M  V30 2424 C 220.72 -4.72612 3.55516 0
M  V30 2425 H 219.65 -0.683802 0.317696 0
M  V30 2426 H 222.301 -1.25331 1.34031 0
M  V30 2427 H 220.683 -3.84844 0.933339 0
M  V30 2428 H 221.857 -2.85741 3.61509 0
M  V30 2429 H 220.172 -2.70433 3.16631 0
M  V30 2430 H 222.769 -5.06891 1.70192 0
M  V30 2431 H 223.112 -4.15527 0.253496 0
M  V30 2432 H 223.645 -3.53043 1.83318 0
M  V30 2433 H 220.384 -4.66036 4.60967 0
M  V30 2434 H 219.904 -5.2024 2.98513 0
M  V30 2435 H 221.583 -5.4157 3.53992 0
M  V30 2436 N 221.715 -0.905404 -1.28997 0
M  V30 2437 C 222.645 -0.404212 -2.29975 0
M  V30 2438 C 223.626 0.523784 -1.61835 0
M  V30 2439 O 224.811 0.433298 -1.89304 0
M  V30 2440 C 221.941 0.364042 -3.45387 0
M  V30 2441 C 220.895 -0.474048 -4.25367 0
M  V30 2442 C 220.221 0.422045 -5.33032 0
M  V30 2443 C 221.521 -1.72696 -4.92923 0
M  V30 2444 H 223.215 -1.24807 -2.72146 0
M  V30 2445 H 220.761 -0.601585 -1.30832 0
M  V30 2446 H 222.714 0.725447 -4.15109 0
M  V30 2447 H 221.438 1.24174 -3.02074 0
M  V30 2448 H 220.097 -0.81786 -3.57361 0
M  V30 2449 H 219.745 1.29804 -4.85963 0
M  V30 2450 H 219.445 -0.135057 -5.87445 0
M  V30 2451 H 220.969 0.779517 -6.05604 0
M  V30 2452 H 222.383 -1.43495 -5.55051 0
M  V30 2453 H 220.78 -2.22582 -5.57295 0
M  V30 2454 H 221.85 -2.45964 -4.17887 0
M  V30 2455 N 223.193 1.4272 -0.668489 0
M  V30 2456 C 224.604 1.84793 -0.266151 0
M  V30 2457 C 224.955 1.55959 1.19043 0
M  V30 2458 O 224.08 1.01622 1.91055 0
M  V30 2459 C 224.675 3.35436 -0.476271 0
M  V30 2460 C 223.234 3.76182 -0.128113 0
M  V30 2461 C 222.381 2.66344 -0.771777 0
M  V30 2462 H 225.332 1.32656 -0.871098 0
M  V30 2463 H 225.353 3.79515 0.273561 0
M  V30 2464 H 224.865 3.5639 -1.53647 0
M  V30 2465 H 222.966 3.60836 0.928891 0
M  V30 2466 H 223.079 4.75766 -0.564231 0
M  V30 2467 H 221.443 2.53885 -0.203652 0
M  V30 2468 H 222.226 2.90123 -1.83531 0
M  V30 2469 N 224.671 0.411399 1.52136 0
M  V30 2470 C 225.896 -0.165538 2.06738 0
M  V30 2471 C 226.321 -1.379 1.27926 0
M  V30 2472 O 225.679 -1.78628 0.310114 0
M  V30 2473 C 225.727 -0.492124 3.57226 0
M  V30 2474 O 224.831 -1.58276 3.80818 0
M  V30 2475 H 224.172 -0.0132132 0.663869 0
M  V30 2476 H 226.702 0.585253 1.96051 0
M  V30 2477 H 226.712 -0.750104 4.01045 0
M  V30 2478 H 225.387 0.394922 4.14021 0
M  V30 2479 H 223.964 -1.31677 3.48877 0
M  V30 2480 N 226.149 -1.5696 0.141893 0
M  V30 2481 C 227.395 -1.9625 -0.511248 0
M  V30 2482 C 227.728 -1.02654 -1.64851 0
M  V30 2483 O 227.003 -0.0679676 -1.94381 0
M  V30 2484 C 227.286 -3.45285 -1.02227 0
M  V30 2485 C 227.139 -4.49658 0.113138 0
M  V30 2486 C 228.458 -3.96698 -1.90574 0
M  V30 2487 H 225.577 -0.713567 -0.184367 0
M  V30 2488 H 228.219 -1.88698 0.222087 0
M  V30 2489 H 226.369 -3.51852 -1.64719 0
M  V30 2490 H 228.041 -4.55174 0.749302 0
M  V30 2491 H 226.284 -4.26857 0.773026 0
M  V30 2492 H 226.955 -5.51258 -0.286053 0
M  V30 2493 H 229.431 -3.92578 -1.37918 0
M  V30 2494 H 228.307 -5.01453 -2.2324 0
M  V30 2495 H 228.568 -3.3875 -2.84079 0
M  V30 2496 N 227.627 0.131896 -1.57047 0
M  V30 2497 C 229.038 0.690407 -1.73465 0
M  V30 2498 C 229.389 1.8094 -0.758629 0
M  V30 2499 O 228.514 2.16282 0.0713813 0
M  V30 2500 C 229.109 1.25916 -3.14532 0
M  V30 2501 C 227.668 1.76409 -3.32501 0
M  V30 2502 C 226.815 0.658579 -2.69366 0
M  V30 2503 H 229.766 -0.0939144 -1.58422 0
M  V30 2504 H 229.787 2.12892 -3.15369 0
M  V30 2505 H 229.299 0.444515 -3.85546 0
M  V30 2506 H 227.4 2.60391 -2.66509 0
M  V30 2507 H 227.513 1.88241 -4.4057 0
M  V30 2508 H 225.877 1.08899 -2.30246 0
M  V30 2509 H 226.66 -0.14487 -3.42994 0
M  V30 2510 N 229.106 1.52395 0.401703 0
M  V30 2511 C 230.053 1.76268 1.48991 0
M  V30 2512 C 231.023 0.605386 1.54675 0
M  V30 2513 O 232.208 0.843742 1.7113 0
M  V30 2514 C 229.348 1.92592 2.86361 0
M  V30 2515 C 228.461 3.20259 2.89928 0
M  V30 2516 C 227.596 3.26972 4.18644 0
M  V30 2517 C 226.635 4.48812 4.16214 0
M  V30 2518 N 225.772 4.52877 5.36514 0
M  V30 2519 H 230.612 2.6914 1.27935 0
M  V30 2520 H 228.149 1.33355 0.620871 0
M  V30 2521 H 230.107 2.0004 3.66115 0
M  V30 2522 H 228.737 1.03093 3.05895 0
M  V30 2523 H 227.789 3.21945 2.02621 0
M  V30 2524 H 229.101 4.10056 2.83999 0
M  V30 2525 H 228.255 3.33533 5.06794 0
M  V30 2526 H 226.994 2.35126 4.27278 0
M  V30 2527 H 225.999 4.4239 3.26453 0
M  V30 2528 H 227.224 5.41961 4.09213 0
M  V30 2529 H 225.17 3.63917 5.45802 0
M  V30 2530 H 225.087 5.36529 5.32609 0
M  V30 2531 H 226.355 4.63676 6.26597 0
M  V30 2532 N 230.584 -0.659388 1.43143 0
M  V30 2533 C 231.861 -1.41627 1.34912 0
M  V30 2534 C 232.241 -2.11099 -0.00607785 0
M  V30 2535 O 231.589 -2.04353 -1.02236 0
M  V30 2536 C 231.799 -2.40604 2.52805 0
M  V30 2537 C 233.147 -3.04789 2.95616 0
M  V30 2538 O 234.171 -2.50932 2.52807 0
M  V30 2539 O 233.03 -4.02421 3.69756 0
M  V30 2540 H 230.124 -0.63246 0.532844 0
M  V30 2541 H 232.67 -0.686814 1.5518 0
M  V30 2542 H 231.442 -1.88174 3.43083 0
M  V30 2543 H 231.065 -3.21009 2.34604 0
M  V30 2544 N 232.062 -1.29571 -0.897171 0
M  V30 2545 C 233.302 -1.18959 -1.66217 0
M  V30 2546 C 233.666 0.254271 -1.90309 0
M  V30 2547 O 234.867 0.483407 -2.64417 0
M  V30 2548 C 233.138 -1.98302 -2.9734 0
M  V30 2549 S 234.697 -2.04253 -3.88364 0
M  V30 2550 H 231.515 -0.424137 -0.570639 0
M  V30 2551 H 234.117 -1.6389 -1.06585 0
M  V30 2552 H 232.821 -3.02342 -2.77521 0
M  V30 2553 H 232.352 -1.53986 -3.62011 0
M  V30 2554 H 234.367 -1.16105 -4.82425 0
M  V30 2555 N 233.54 1.10788 -1.12088 0
M  V30 2556 C 234.951 1.64181 -0.88891 0
M  V30 2557 C 235.302 1.87508 0.577498 0
M  V30 2558 O 234.427 1.61434 1.44112 0
M  V30 2559 C 235.022 2.98257 -1.60712 0
M  V30 2560 C 233.581 3.4853 -1.42139 0
M  V30 2561 C 232.728 2.23208 -1.6454 0
M  V30 2562 H 235.679 0.943368 -1.27618 0
M  V30 2563 H 235.7 3.65552 -1.05604 0
M  V30 2564 H 235.212 2.81246 -2.67436 0
M  V30 2565 H 233.313 3.70692 -0.376552 0
M  V30 2566 H 233.426 4.26882 -2.17505 0
M  V30 2567 H 231.79 2.31169 -1.06925 0
M  V30 2568 H 232.573 2.08733 -2.72554 0
M  V30 2569 N 235.018 0.912232 1.28515 0
M  V30 2570 C 236.246 0.560416 1.99166 0
M  V30 2571 C 236.661 -0.857927 1.68182 0
M  V30 2572 O 236.018 -1.56805 0.933733 0
M  V30 2573 C 236.069 0.758142 3.53461 0
M  V30 2574 O 235.79 2.12067 3.83352 0
M  V30 2575 C 237.291 0.412954 4.41372 0
M  V30 2576 H 234.511 0.213805 0.636026 0
M  V30 2577 H 237.055 1.22502 1.63749 0
M  V30 2578 H 235.21 0.140556 3.87145 0
M  V30 2579 H 235.624 2.15923 4.77993 0
M  V30 2580 H 237.098 0.60208 5.48707 0
M  V30 2581 H 237.575 -0.65073 4.34353 0
M  V30 2582 H 238.181 1.00802 4.13182 0
M  V30 2583 N 236.496 -1.42363 0.676048 0
M  V30 2584 C 237.907 -1.84649 0.275948 0
M  V30 2585 C 238.258 -1.56588 -1.18214 0
M  V30 2586 O 237.383 -1.02634 -1.90513 0
M  V30 2587 C 237.978 -3.35178 0.494053 0
M  V30 2588 C 236.537 -3.76109 0.148061 0
M  V30 2589 C 235.684 -2.65931 0.785891 0
M  V30 2590 H 238.635 -1.32192 0.878121 0
M  V30 2591 H 238.656 -3.79655 -0.25343 0
M  V30 2592 H 238.168 -3.55571 1.55535 0
M  V30 2593 H 236.269 -3.61323 -0.909742 0
M  V30 2594 H 236.382 -4.7546 0.589454 0
M  V30 2595 H 234.746 -2.53773 0.217113 0
M  V30 2596 H 235.529 -2.89146 1.85067 0
M  V30 2597 N 237.974 -0.419461 -1.51915 0
M  V30 2598 C 238.907 0.445751 -2.23804 0
M  V30 2599 C 239.885 1.03951 -1.25031 0
M  V30 2600 O 241.069 1.08541 -1.54114 0
M  V30 2601 C 238.196 1.61964 -2.97465 0
M  V30 2602 C 237.242 1.14828 -4.10751 0
M  V30 2603 S 238.075 0.104938 -5.35397 0
M  V30 2604 C 239.231 1.28391 -6.1259 0
M  V30 2605 H 239.464 -0.164627 -2.96844 0
M  V30 2606 H 236.997 -0.203833 -1.53049 0
M  V30 2607 H 238.955 2.29271 -3.40507 0
M  V30 2608 H 237.616 2.20139 -2.24048 0
M  V30 2609 H 236.809 2.02561 -4.61503 0
M  V30 2610 H 236.411 0.553712 -3.69878 0
M  V30 2611 H 238.703 2.20563 -6.40592 0
M  V30 2612 H 239.646 0.816724 -7.03374 0
M  V30 2613 H 240.054 1.51439 -5.43807 0
M  V30 2614 N 239.452 1.56882 -0.150215 0
M  V30 2615 C 240.7 1.9584 0.499105 0
M  V30 2616 C 241.021 1.03623 1.65188 0
M  V30 2617 O 240.291 0.0984084 1.95653 0
M  V30 2618 H 238.871 0.723119 0.187373 0
M  V30 2619 H 241.533 1.9358 -0.226466 0
M  V30 2620 H 240.629 2.99638 0.873122 0
M  V30 2621 N 240.93 -0.123565 1.57115 0
M  V30 2622 C 242.158 -0.846461 1.88793 0
M  V30 2623 C 242.573 -1.73652 0.740976 0
M  V30 2624 O 241.93 -1.80207 -0.288393 0
M  V30 2625 C 241.981 -1.6837 3.19897 0
M  V30 2626 O 241.702 -0.829477 4.30176 0
M  V30 2627 C 243.203 -2.51214 3.65248 0
M  V30 2628 H 240.423 -0.243573 0.625231 0
M  V30 2629 H 242.967 -0.109324 2.04208 0
M  V30 2630 H 241.122 -2.37364 3.06165 0
M  V30 2631 H 241.536 -1.40651 5.0529 0
M  V30 2632 H 243.01 -3.05497 4.59756 0
M  V30 2633 H 243.487 -3.28359 2.9168 0
M  V30 2634 H 244.093 -1.8747 3.81752 0
M  V30 2635 N 242.408 -1.52605 -0.393616 0
M  V30 2636 C 243.355 -1.77055 -1.48054 0
M  V30 2637 C 244.325 -0.61358 -1.54352 0
M  V30 2638 O 245.51 -0.852806 -1.70681 0
M  V30 2639 C 242.65 -1.94108 -2.85335 0
M  V30 2640 C 241.763 -3.21792 -2.88226 0
M  V30 2641 C 240.898 -3.29188 -4.16904 0
M  V30 2642 C 239.937 -4.51013 -4.13828 0
M  V30 2643 N 239.074 -4.55716 -5.34105 0
M  V30 2644 H 243.914 -2.69815 -1.26506 0
M  V30 2645 H 241.451 -1.33683 -0.61379 0
M  V30 2646 H 243.409 -2.01979 -3.65049 0
M  V30 2647 H 242.039 -1.04713 -3.05344 0
M  V30 2648 H 241.091 -3.23015 -2.00911 0
M  V30 2649 H 242.403 -4.11557 -2.8182 0
M  V30 2650 H 241.557 -3.36216 -5.05018 0
M  V30 2651 H 240.296 -2.37389 -4.26026 0
M  V30 2652 H 239.301 -4.44115 -3.24102 0
M  V30 2653 H 240.526 -5.44123 -4.06333 0
M  V30 2654 H 238.472 -3.66807 -5.43865 0
M  V30 2655 H 238.389 -5.39346 -5.29756 0
M  V30 2656 H 239.657 -4.66993 -6.2413 0
M  V30 2657 N 243.887 0.651787 -1.4349 0
M  V30 2658 C 245.135 1.40888 -1.44897 0
M  V30 2659 C 245.456 1.94856 -0.0749086 0
M  V30 2660 O 244.726 1.74518 0.889956 0
M  V30 2661 H 243.306 0.522887 -0.533478 0
M  V30 2662 H 245.968 0.768609 -1.79104 0
M  V30 2663 H 245.064 2.25052 -2.16236 0
M  V30 2664 N 245.365 1.30045 0.890287 0
M  V30 2665 C 246.312 1.15976 1.99545 0
M  V30 2666 C 247.282 0.0506202 1.66023 0
M  V30 2667 O 248.467 0.219847 1.89529 0
M  V30 2668 C 245.607 0.852054 3.34416 0
M  V30 2669 C 244.72 2.04255 3.80662 0
M  V30 2670 C 243.855 1.6734 5.04154 0
M  V30 2671 C 242.894 2.82916 5.42794 0
M  V30 2672 N 242.031 2.46333 6.57468 0
M  V30 2673 H 246.871 2.10524 2.10911 0
M  V30 2674 H 244.408 1.04749 1.03276 0
M  V30 2675 H 246.366 0.654296 4.12037 0
M  V30 2676 H 244.996 -0.0565502 3.2275 0
M  V30 2677 H 244.048 2.35172 2.98995 0
M  V30 2678 H 245.36 2.90826 4.05242 0
M  V30 2679 H 244.514 1.43908 5.89386 0
M  V30 2680 H 243.253 0.779308 4.81433 0
M  V30 2681 H 242.258 3.0702 4.56091 0
M  V30 2682 H 243.483 3.73004 5.6749 0
M  V30 2683 H 241.429 1.59423 6.36334 0
M  V30 2684 H 241.346 3.26436 6.81891 0
M  V30 2685 H 242.614 2.26244 7.45945 0
M  V30 2686 N 246.843 -1.10192 1.12674 0
M  V30 2687 C 247.79 -2.16606 0.796906 0
M  V30 2688 C 248.76 -1.64394 -0.237476 0
M  V30 2689 O 249.945 -1.90474 -0.111484 0
M  V30 2690 C 247.085 -3.44116 0.26043 0
M  V30 2691 C 246.198 -4.10268 1.35293 0
M  V30 2692 C 245.333 -5.25507 0.775621 0
M  V30 2693 C 244.372 -5.83567 1.84706 0
M  V30 2694 N 243.509 -6.90179 1.28829 0
M  V30 2695 H 248.349 -2.44163 1.70846 0
M  V30 2696 H 245.886 -1.19846 0.85295 0
M  V30 2697 H 247.844 -4.17143 -0.0686814 0
M  V30 2698 H 246.474 -3.16901 -0.614274 0
M  V30 2699 H 245.526 -3.35184 1.79877 0
M  V30 2700 H 246.838 -4.4946 2.16303 0
M  V30 2701 H 245.992 -6.05398 0.397327 0
M  V30 2702 H 244.731 -4.87656 -0.0656581 0
M  V30 2703 H 243.736 -5.02344 2.23452 0
M  V30 2704 H 244.961 -6.23482 2.69161 0
M  V30 2705 H 242.907 -6.54322 0.468881 0
M  V30 2706 H 242.824 -7.28097 2.03497 0
M  V30 2707 H 244.092 -7.73844 0.937311 0
M  V30 2708 N 248.321 -0.919034 -1.28029 0
M  V30 2709 C 249.253 -0.368762 -2.26214 0
M  V30 2710 C 250.266 0.495716 -1.55069 0
M  V30 2711 O 251.455 0.30974 -1.75792 0
M  V30 2712 C 248.555 0.491049 -3.35324 0
M  V30 2713 C 247.728 -0.352133 -4.3598 0
M  V30 2714 C 246.787 0.443622 -5.24327 0
M  V30 2715 O 245.813 -0.14566 -5.69014 0
M  V30 2716 N 247.015 1.74545 -5.53637 0
M  V30 2717 H 249.78 -1.21273 -2.74068 0
M  V30 2718 H 247.341 -0.785541 -1.41566 0
M  V30 2719 H 249.333 1.03026 -3.91366 0
M  V30 2720 H 247.903 1.23574 -2.87138 0
M  V30 2721 H 247.123 -1.07269 -3.79324 0
M  V30 2722 H 248.411 -0.928883 -5.00249 0
M  V30 2723 H 247.809 2.24666 -5.19174 0
M  V30 2724 H 246.366 2.23138 -6.12416 0
M  V30 2725 N 249.799 1.42003 -0.683588 0
M  V30 2726 C 250.729 2.33487 -0.024866 0
M  V30 2727 C 251.71 1.51163 0.779975 0
M  V30 2728 O 252.895 1.79739 0.735362 0
M  V30 2729 C 250.025 3.3487 0.920836 0
M  V30 2730 C 248.979 4.27414 0.223958 0
M  V30 2731 C 248.305 5.19074 1.2832 0
M  V30 2732 C 249.605 5.14445 -0.90242 0
M  V30 2733 H 251.299 2.88819 -0.788921 0
M  V30 2734 H 248.845 1.38873 -0.38083 0
M  V30 2735 H 250.798 3.97787 1.39081 0
M  V30 2736 H 249.522 2.77861 1.71642 0
M  V30 2737 H 248.181 3.65904 -0.225864 0
M  V30 2738 H 247.829 4.58387 2.071 0
M  V30 2739 H 247.529 5.81822 0.821995 0
M  V30 2740 H 249.053 5.84867 1.75392 0
M  V30 2741 H 250.467 5.70998 -0.513272 0
M  V30 2742 H 248.864 5.86072 -1.28997 0
M  V30 2743 H 249.934 4.52322 -1.74737 0
M  V30 2744 N 251.277 0.427512 1.51691 0
M  V30 2745 C 252.688 -0.0378867 1.86662 0
M  V30 2746 C 253.039 -1.42819 1.34525 0
M  V30 2747 O 252.164 -2.05037 0.692014 0
M  V30 2748 C 252.759 -0.0755266 3.38716 0
M  V30 2749 C 251.318 -0.485309 3.73258 0
M  V30 2750 C 250.465 0.328399 2.75349 0
M  V30 2751 H 253.416 0.64379 1.45055 0
M  V30 2752 H 253.437 -0.887056 3.70016 0
M  V30 2753 H 252.949 0.936487 3.76632 0
M  V30 2754 H 251.05 -1.50329 3.40928 0
M  V30 2755 H 251.163 -0.21693 4.78609 0
M  V30 2756 H 249.527 -0.211905 2.53817 0
M  V30 2757 H 250.31 1.3391 3.16106 0
M  V30 2758 N 252.755 -1.56801 0.158532 0
M  V30 2759 C 254.032 -1.88131 -0.535357 0
M  V30 2760 C 254.412 -1.06638 -1.82186 0
M  V30 2761 O 253.76 -0.156533 -2.27963 0
M  V30 2762 C 253.97 -3.39949 -0.789653 0
M  V30 2763 C 255.318 -4.09416 -1.12533 0
M  V30 2764 O 256.342 -3.45194 -0.878622 0
M  V30 2765 O 255.201 -5.22855 -1.59014 0
M  V30 2766 H 252.295 -0.780143 -0.27442 0
M  V30 2767 H 254.841 -1.68564 0.19601 0
M  V30 2768 H 253.613 -3.91115 0.120353 0
M  V30 2769 H 253.236 -3.65084 -1.57479 0
M  V30 2770 N 254.233 0.115231 -1.57178 0
M  V30 2771 C 255.196 1.12526 -1.99676 0
M  V30 2772 C 256.196 1.34095 -0.88742 0
M  V30 2773 O 257.386 1.30548 -1.15337 0
M  V30 2774 C 254.518 2.4789 -2.34015 0
M  V30 2775 H 255.711 0.759912 -2.90113 0
M  V30 2776 H 253.264 0.359648 -1.52106 0
M  V30 2777 H 253.999 2.89339 -1.4647 0
M  V30 2778 H 253.784 2.33588 -3.14927 0
M  V30 2779 H 255.274 3.20575 -2.67622 0
M  V30 2780 N 255.711 1.52812 0.385517 0
M  V30 2781 C 256.643 1.74096 1.49074 0
M  V30 2782 C 257.656 0.621462 1.50472 0
M  V30 2783 O 258.845 0.897245 1.54311 0
M  V30 2784 C 255.945 1.78774 2.87911 0
M  V30 2785 C 255.118 3.08134 3.10439 0
M  V30 2786 C 254.177 3.04313 4.29278 0
M  V30 2787 O 253.203 3.78168 4.25415 0
M  V30 2788 N 254.405 2.23741 5.35649 0
M  V30 2789 H 257.17 2.69455 1.31202 0
M  V30 2790 H 254.731 1.51343 0.575065 0
M  V30 2791 H 256.723 1.73721 3.65518 0
M  V30 2792 H 255.293 0.907869 2.99126 0
M  V30 2793 H 254.513 3.26649 2.20667 0
M  V30 2794 H 255.801 3.93662 3.22347 0
M  V30 2795 H 255.199 1.63211 5.41645 0
M  V30 2796 H 253.756 2.24524 6.11909 0
M  V30 2797 N 257.189 -0.644168 1.43834 0
M  V30 2798 C 258.119 -1.76814 1.52509 0
M  V30 2799 C 259.1 -1.65823 0.379052 0
M  V30 2800 O 260.285 -1.84781 0.597466 0
M  V30 2801 C 257.415 -3.15288 1.4564 0
M  V30 2802 C 256.369 -3.41053 2.58586 0
M  V30 2803 C 255.695 -4.79421 2.36769 0
M  V30 2804 C 256.995 -3.34902 4.00797 0
M  V30 2805 H 258.689 -1.69812 2.46586 0
M  V30 2806 H 256.235 -0.815542 1.1868 0
M  V30 2807 H 258.188 -3.93681 1.50311 0
M  V30 2808 H 256.912 -3.23043 0.480725 0
M  V30 2809 H 255.571 -2.65035 2.53282 0
M  V30 2810 H 255.219 -4.83863 1.37424 0
M  V30 2811 H 254.919 -4.9762 3.12487 0
M  V30 2812 H 256.443 -5.6006 2.43238 0
M  V30 2813 H 257.857 -4.03218 4.07539 0
M  V30 2814 H 256.254 -3.64637 4.76613 0
M  V30 2815 H 257.324 -2.32928 4.25291 0
M  V30 2816 N 258.668 -1.30515 -0.883378 0
M  V30 2817 C 259.598 -1.19607 -2.00541 0
M  V30 2818 C 260.579 -0.086346 -1.69881 0
M  V30 2819 O 261.764 -0.268654 -1.92333 0
M  V30 2820 C 258.894 -0.888758 -3.35736 0
M  V30 2821 C 257.848 -1.95659 -3.8066 0
M  V30 2822 C 257.174 -1.50224 -5.13164 0
M  V30 2823 C 258.474 -3.36788 -3.99213 0
M  V30 2824 H 260.168 -2.13476 -2.09925 0
M  V30 2825 H 257.714 -1.02775 -1.00863 0
M  V30 2826 H 259.667 -0.799094 -4.13754 0
M  V30 2827 H 258.391 0.0856125 -3.26488 0
M  V30 2828 H 257.05 -2.03591 -3.04871 0
M  V30 2829 H 256.698 -0.516092 -5.00345 0
M  V30 2830 H 256.398 -2.2165 -5.44192 0
M  V30 2831 H 257.922 -1.42639 -5.93706 0
M  V30 2832 H 259.336 -3.31605 -4.67665 0
M  V30 2833 H 257.733 -4.06314 -4.41621 0
M  V30 2834 H 258.803 -3.78561 -3.03017 0
M  V30 2835 N 260.146 1.09593 -1.13257 0
M  V30 2836 C 261.109 2.14359 -0.811358 0
M  V30 2837 C 262.109 1.59808 0.178377 0
M  V30 2838 O 263.299 1.74132 -0.0484911 0
M  V30 2839 C 260.431 3.40269 -0.207276 0
M  V30 2840 H 261.624 2.44284 -1.73969 0
M  V30 2841 H 259.177 1.25102 -0.936973 0
M  V30 2842 H 259.912 3.15969 0.73036 0
M  V30 2843 H 259.697 3.81154 -0.919992 0
M  V30 2844 H 261.187 4.176 0.000667944 0
M  V30 2845 N 261.624 0.925811 1.2754 0
M  V30 2846 C 263.04 0.625767 1.46821 0
M  V30 2847 C 263.24 -0.825506 1.83814 0
M  V30 2848 O 262.296 -1.60356 1.95044 0
M  V30 2849 C 263.609 1.57402 2.56213 0
M  V30 2850 C 265.157 1.58204 2.70075 0
M  V30 2851 C 265.632 2.51721 3.82623 0
M  V30 2852 N 267.123 2.49917 3.89994 0
M  V30 2853 C 267.858 3.18968 4.76494 0
M  V30 2854 N 267.354 3.97391 5.67496 0
M  V30 2855 N 269.147 3.07996 4.70208 0
M  V30 2856 H 261.298 1.86409 1.01811 0
M  V30 2857 H 263.561 0.800213 0.508295 0
M  V30 2858 H 263.267 2.60925 2.35819 0
M  V30 2859 H 263.141 1.31428 3.53563 0
M  V30 2860 H 265.528 0.554124 2.89851 0
M  V30 2861 H 265.609 1.88226 1.73218 0
M  V30 2862 H 265.253 3.54622 3.63601 0
M  V30 2863 H 265.183 2.18996 4.78903 0
M  V30 2864 H 267.674 1.9296 3.24923 0
M  V30 2865 H 267.987 4.4707 6.30356 0
M  V30 2866 H 266.332 4.01495 5.67298 0
M  V30 2867 H 269.523 2.46223 3.9811 0
M  V30 2868 H 269.696 3.6208 5.37403 0
M  V30 2869 N 263.102 -1.41638 0.69111 0
M  V30 2870 C 264.518 -1.55435 0.362224 0
M  V30 2871 C 264.718 -1.66754 -1.13117 0
M  V30 2872 O 263.774 -1.64348 -1.91692 0
M  V30 2873 C 265.087 -2.79588 1.10684 0
M  V30 2874 C 266.635 -2.9338 1.09075 0
M  V30 2875 C 267.11 -4.20414 1.81703 0
M  V30 2876 N 268.601 -4.27362 1.7865 0
M  V30 2877 C 269.336 -5.24507 2.31689 0
M  V30 2878 N 268.832 -6.27708 2.93179 0
M  V30 2879 N 270.625 -5.16416 2.2197 0
M  V30 2880 H 262.776 -1.32536 1.65976 0
M  V30 2881 H 265.039 -0.639115 0.700168 0
M  V30 2882 H 264.745 -2.77419 2.16175 0
M  V30 2883 H 264.619 -3.70973 0.682545 0
M  V30 2884 H 267.006 -2.95067 0.0441238 0
M  V30 2885 H 267.087 -2.0318 1.55407 0
M  V30 2886 H 266.731 -4.19488 2.86343 0
M  V30 2887 H 266.661 -5.09578 1.32808 0
M  V30 2888 H 269.152 -3.53415 1.33815 0
M  V30 2889 H 269.465 -6.98217 3.31229 0
M  V30 2890 H 267.81 -6.28223 2.97255 0
M  V30 2891 H 271.001 -4.34716 1.73607 0
M  V30 2892 H 271.174 -5.91958 2.63609 0
M  V30 2893 N 264.58 -0.43555 -1.51462 0
M  V30 2894 C 265.827 0.131514 -2.02072 0
M  V30 2895 C 266.155 1.42868 -1.31981 0
M  V30 2896 O 265.41 1.91076 -0.422883 0
M  V30 2897 C 265.709 0.39942 -3.55161 0
M  V30 2898 C 265.375 -0.81172 -4.43533 0
M  V30 2899 C 264.037 -1.14387 -4.67407 0
M  V30 2900 C 266.389 -1.61976 -4.95392 0
M  V30 2901 C 263.717 -2.28477 -5.40384 0
M  V30 2902 C 266.069 -2.75164 -5.6962 0
M  V30 2903 C 264.733 -3.08835 -5.91758 0
M  V30 2904 H 264.003 0.0481244 -0.739436 0
M  V30 2905 H 266.65 -0.58238 -1.8243 0
M  V30 2906 H 264.955 1.19519 -3.73125 0
M  V30 2907 H 266.652 0.85157 -3.91854 0
M  V30 2908 H 263.242 -0.542898 -4.25148 0
M  V30 2909 H 267.426 -1.37637 -4.76833 0
M  V30 2910 H 262.682 -2.5488 -5.55739 0
M  V30 2911 H 266.856 -3.38147 -6.08793 0
M  V30 2912 H 264.483 -3.97353 -6.48086 0
M  V30 2913 N 266.058 1.56714 -0.166846 0
M  V30 2914 C 266.988 2.20754 0.760913 0
M  V30 2915 C 267.969 1.16178 1.24244 0
M  V30 2916 O 269.154 1.44592 1.29641 0
M  V30 2917 C 266.284 2.84478 1.99223 0
M  V30 2918 C 265.238 3.95053 1.64672 0
M  V30 2919 C 264.564 4.45805 2.95232 0
M  V30 2920 C 265.864 5.14865 0.878155 0
M  V30 2921 H 267.558 2.98537 0.22713 0
M  V30 2922 H 265.104 1.43596 0.107805 0
M  V30 2923 H 267.057 3.27951 2.64624 0
M  V30 2924 H 265.781 2.04056 2.55007 0
M  V30 2925 H 264.44 3.52228 1.01641 0
M  V30 2926 H 264.088 3.62181 3.49047 0
M  V30 2927 H 263.788 5.204 2.7287 0
M  V30 2928 H 265.312 4.91962 3.6167 0
M  V30 2929 H 266.726 5.55059 1.43466 0
M  V30 2930 H 265.123 5.95348 0.753738 0
M  V30 2931 H 266.193 4.84735 -0.126377 0
M  V30 2932 N 267.536 -0.106894 1.57237 0
M  V30 2933 C 268.466 -1.13148 2.04254 0
M  V30 2934 C 269.447 -1.42476 0.929224 0
M  V30 2935 O 270.632 -1.52709 1.19973 0
M  V30 2936 C 267.762 -2.4545 2.45706 0
M  V30 2937 C 266.716 -2.30558 3.60592 0
M  V30 2938 C 266.042 -3.67931 3.87983 0
M  V30 2939 C 267.342 -1.75597 4.91897 0
M  V30 2940 H 269.036 -0.740374 2.90101 0
M  V30 2941 H 266.582 -0.354696 1.39563 0
M  V30 2942 H 268.535 -3.17389 2.77205 0
M  V30 2943 H 267.259 -2.86475 1.56843 0
M  V30 2944 H 265.918 -1.61067 3.29322 0
M  V30 2945 H 265.566 -4.06462 2.96306 0
M  V30 2946 H 265.266 -3.58817 4.65322 0
M  V30 2947 H 266.79 -4.41356 4.21945 0
M  V30 2948 H 268.204 -2.37364 5.21854 0
M  V30 2949 H 266.601 -1.77272 5.73319 0
M  V30 2950 H 267.671 -0.714451 4.79608 0
M  V30 2951 N 269.014 -1.53014 -0.377408 0
M  V30 2952 C 270.43 -1.42523 -0.718281 0
M  V30 2953 C 270.63 -0.55487 -1.9371 0
M  V30 2954 O 269.686 -0.0327593 -2.52479 0
M  V30 2955 C 270.999 -2.85546 -0.942539 0
M  V30 2956 C 272.547 -2.95101 -1.04329 0
M  V30 2957 C 273.022 -4.3916 -1.3001 0
M  V30 2958 N 274.513 -4.42536 -1.36806 0
M  V30 2959 C 275.248 -5.51097 -1.58364 0
M  V30 2960 N 274.744 -6.69724 -1.77317 0
M  V30 2961 N 276.537 -5.38657 -1.60638 0
M  V30 2962 H 268.688 -2.08116 0.424426 0
M  V30 2963 H 270.951 -0.939352 0.127759 0
M  V30 2964 H 270.657 -3.51499 -0.118929 0
M  V30 2965 H 270.531 -3.28493 -1.85397 0
M  V30 2966 H 272.918 -2.29309 -1.85745 0
M  V30 2967 H 272.999 -2.55566 -0.109505 0
M  V30 2968 H 272.643 -5.05521 -0.490991 0
M  V30 2969 H 272.573 -4.76258 -2.24691 0
M  V30 2970 H 275.064 -3.57039 -1.23821 0
M  V30 2971 H 275.377 -7.48233 -1.93306 0
M  V30 2972 H 273.722 -6.72732 -1.74518 0
M  V30 2973 H 276.913 -4.44948 -1.45391 0
M  V30 2974 H 277.086 -6.2333 -1.77098 0
M  V30 2975 N 270.492 0.636531 -1.44174 0
M  V30 2976 C 271.908 0.954104 -1.27941 0
M  V30 2977 C 272.108 2.0039 -0.211248 0
M  V30 2978 O 271.164 2.49236 0.404695 0
M  V30 2979 C 272.477 1.4225 -2.64925 0
M  V30 2980 C 274.025 1.53827 -2.72592 0
M  V30 2981 C 274.5 2.04053 -4.10032 0
M  V30 2982 N 275.991 2.11331 -4.12182 0
M  V30 2983 C 276.726 2.51352 -5.15374 0
M  V30 2984 N 276.222 2.90549 -6.2893 0
M  V30 2985 N 278.015 2.51438 -5.02728 0
M  V30 2986 H 270.166 -0.0578386 -2.12321 0
M  V30 2987 H 272.429 0.0367406 -0.947288 0
M  V30 2988 H 272.135 0.725466 -3.44136 0
M  V30 2989 H 272.009 2.39451 -2.9145 0
M  V30 2990 H 274.396 2.22628 -1.93702 0
M  V30 2991 H 274.477 0.550154 -2.49814 0
M  V30 2992 H 274.121 1.35848 -4.89395 0
M  V30 2993 H 274.051 3.03726 -4.30184 0
M  V30 2994 H 276.542 1.83745 -3.30222 0
M  V30 2995 H 276.855 3.19884 -7.03487 0
M  V30 2996 H 275.2 2.88313 -6.32377 0
M  V30 2997 H 278.391 2.20203 -4.13072 0
M  V30 2998 H 278.564 2.82304 -5.83274 0
M  V30 2999 N 271.97 1.30982 0.876444 0
M  V30 3000 C 272.917 1.18085 1.98304 0
M  V30 3001 C 273.887 0.0682263 1.6596 0
M  V30 3002 O 275.072 0.239937 1.89285 0
M  V30 3003 C 272.212 0.887475 3.33493 0
M  V30 3004 C 271.325 2.08281 3.78475 0
M  V30 3005 C 270.46 1.72678 5.0235 0
M  V30 3006 C 269.499 2.88657 5.39762 0
M  V30 3007 N 268.636 2.53292 6.54819 0
M  V30 3008 H 273.476 2.1275 2.08666 0
M  V30 3009 H 271.013 1.05839 1.02159 0
M  V30 3010 H 272.971 0.697961 4.1132 0
M  V30 3011 H 271.601 -0.022315 3.22792 0
M  V30 3012 H 270.653 2.3833 2.96484 0
M  V30 3013 H 271.965 2.95108 4.02135 0
M  V30 3014 H 271.119 1.50151 5.87826 0
M  V30 3015 H 269.858 0.830327 4.8058 0
M  V30 3016 H 268.863 3.1184 4.52809 0
M  V30 3017 H 270.088 3.79002 5.63502 0
M  V30 3018 H 268.034 1.66163 6.34607 0
M  V30 3019 H 267.951 3.3365 6.7839 0
M  V30 3020 H 269.219 2.34143 7.43503 0
M  V30 3021 N 273.449 -1.08991 1.13837 0
M  V30 3022 C 274.696 -1.81258 0.902882 0
M  V30 3023 C 275.024 -1.85936 -0.570803 0
M  V30 3024 O 274.279 -1.3267 -1.43865 0
M  V30 3025 C 274.578 -3.27042 1.44147 0
M  V30 3026 C 274.244 -3.4249 2.93276 0
M  V30 3027 C 272.906 -3.46414 3.33992 0
M  V30 3028 C 275.258 -3.4666 3.892 0
M  V30 3029 C 272.586 -3.52091 4.69307 0
M  V30 3030 C 274.938 -3.53872 5.24364 0
M  V30 3031 C 273.602 -3.56066 5.646 0
M  V30 3032 H 272.872 -0.663268 0.330388 0
M  V30 3033 H 275.519 -1.28368 1.42105 0
M  V30 3034 H 273.824 -3.82599 0.844097 0
M  V30 3035 H 275.521 -3.81499 1.23528 0
M  V30 3036 H 272.111 -3.40124 2.60794 0
M  V30 3037 H 276.295 -3.42865 3.58828 0
M  V30 3038 H 271.551 -3.52079 4.9985 0
M  V30 3039 H 275.725 -3.56043 5.98503 0
M  V30 3040 H 273.352 -3.60218 6.69438 0
M  V30 3041 N 274.927 -0.932562 -1.27047 0
M  V30 3042 C 276.176 -0.571351 -1.93439 0
M  V30 3043 C 276.489 0.892467 -1.74053 0
M  V30 3044 O 277.695 1.36267 -2.34826 0
M  V30 3045 C 276.151 -0.97106 -3.46552 0
M  V30 3046 C 275.759 -2.4559 -3.74686 0
M  V30 3047 C 277.503 -0.681333 -4.18997 0
M  V30 3048 C 275.41 -2.79475 -5.21198 0
M  V30 3049 H 274.34 -0.209966 -0.724176 0
M  V30 3050 H 276.991 -1.13403 -1.44263 0
M  V30 3051 H 275.373 -0.336983 -3.94564 0
M  V30 3052 H 276.547 -3.13829 -3.37414 0
M  V30 3053 H 274.862 -2.71802 -3.15456 0
M  V30 3054 H 277.459 -0.910939 -5.26883 0
M  V30 3055 H 277.802 0.381628 -4.14547 0
M  V30 3056 H 278.335 -1.27473 -3.76823 0
M  V30 3057 H 275.074 -3.847 -5.30741 0
M  V30 3058 H 274.594 -2.1589 -5.596 0
M  V30 3059 H 276.273 -2.67478 -5.89122 0
M  V30 3060 N 276.405 1.4127 -0.698611 0
M  V30 3061 C 277.816 1.84187 -0.305289 0
M  V30 3062 C 278.167 1.58449 1.15708 0
M  V30 3063 O 277.292 1.05651 1.88856 0
M  V30 3064 C 277.887 3.3435 -0.547314 0
M  V30 3065 C 276.446 3.75826 -0.207878 0
M  V30 3066 C 275.593 2.64647 -0.828099 0
M  V30 3067 H 278.544 1.30778 -0.89904 0
M  V30 3068 H 278.565 3.8001 0.192998 0
M  V30 3069 H 278.077 3.53051 -1.61172 0
M  V30 3070 H 276.178 3.62725 0.852143 0
M  V30 3071 H 276.291 4.74462 -0.665021 0
M  V30 3072 H 274.655 2.53395 -0.257458 0
M  V30 3073 H 275.438 2.86165 -1.89643 0
M  V30 3074 N 277.883 0.443576 1.51229 0
M  V30 3075 C 279.16 -0.181038 1.9476 0
M  V30 3076 C 279.54 -1.59523 1.38259 0
M  V30 3077 O 278.888 -2.2122 0.572198 0
M  V30 3078 C 279.098 -0.152422 3.48667 0
M  V30 3079 C 280.446 -0.354923 4.23114 0
M  V30 3080 O 281.47 -0.230257 3.55455 0
M  V30 3081 O 280.329 -0.603674 5.43156 0
M  V30 3082 H 277.423 -0.1266 0.817252 0
M  V30 3083 H 279.969 0.502004 1.62105 0
M  V30 3084 H 278.741 0.836022 3.82265 0
M  V30 3085 H 278.364 -0.878107 3.87782 0
M  V30 3086 N 279.361 -1.56624 0.175154 0
M  V30 3087 C 280.772 -1.83561 -0.340916 0
M  V30 3088 C 281.123 -1.09511 -1.62794 0
M  V30 3089 O 280.248 -0.349389 -2.13561 0
M  V30 3090 C 280.843 -3.32979 -0.625313 0
M  V30 3091 C 279.402 -3.60399 -1.08581 0
M  V30 3092 C 278.549 -2.77024 -0.123722 0
M  V30 3093 H 281.5 -1.53593 0.399344 0
M  V30 3094 H 281.521 -3.50666 -1.47694 0
M  V30 3095 H 281.033 -3.86847 0.311575 0
M  V30 3096 H 279.134 -3.11945 -2.03767 0
M  V30 3097 H 279.247 -4.68711 -0.992317 0
M  V30 3098 H 277.611 -2.46993 -0.621821 0
M  V30 3099 H 278.394 -3.33674 0.807256 0
M  V30 3100 N 280.839 0.0985539 -1.57292 0
M  V30 3101 C 281.771 1.14595 -1.98496 0
M  V30 3102 C 282.784 1.36512 -0.887031 0
M  V30 3103 O 283.973 1.35225 -1.16518 0
M  V30 3104 C 281.073 2.50216 -2.28572 0
M  V30 3105 C 280.246 2.48624 -3.59868 0
M  V30 3106 C 279.305 3.66146 -3.7792 0
M  V30 3107 O 278.331 3.48795 -4.49812 0
M  V30 3108 N 279.533 4.85496 -3.18235 0
M  V30 3109 H 282.298 0.795277 -2.88956 0
M  V30 3110 H 279.859 0.287579 -1.59325 0
M  V30 3111 H 281.851 3.27432 -2.37845 0
M  V30 3112 H 280.421 2.77387 -1.44136 0
M  V30 3113 H 279.641 1.56978 -3.61596 0
M  V30 3114 H 280.929 2.44635 -4.46129 0
M  V30 3115 H 280.327 5.02497 -2.59833 0
M  V30 3116 H 278.884 5.60317 -3.32999 0
M  V30 3117 N 282.317 1.53212 0.369288 0
M  V30 3118 C 283.565 1.68881 1.11012 0
M  V30 3119 C 283.886 0.441285 1.89941 0
M  V30 3120 O 283.156 -0.544623 1.88177 0
M  V30 3121 H 281.736 0.622569 0.412816 0
M  V30 3122 H 284.398 1.90391 0.416802 0
M  V30 3123 H 283.494 2.54822 1.80201 0
M  V30 3124 N 283.795 -0.628877 1.44509 0
M  V30 3125 C 285.023 -1.41554 1.50897 0
M  V30 3126 C 285.438 -1.8832 0.134564 0
M  V30 3127 O 284.795 -1.60969 -0.859965 0
M  V30 3128 C 284.846 -2.63435 2.47556 0
M  V30 3129 O 284.567 -2.18619 3.79654 0
M  V30 3130 C 286.068 -3.56537 2.63431 0
M  V30 3131 H 283.288 -0.434044 0.511709 0
M  V30 3132 H 285.832 -0.768895 1.89495 0
M  V30 3133 H 283.987 -3.24187 2.12089 0
M  V30 3134 H 284.401 -2.97652 4.31861 0
M  V30 3135 H 285.875 -4.38657 3.35088 0
M  V30 3136 H 286.352 -4.05493 1.68738 0
M  V30 3137 H 286.958 -3.01653 2.9981 0
M  V30 3138 N 285.273 -1.31445 -0.869486 0
M  V30 3139 C 286.221 -1.19067 -1.99814 0
M  V30 3140 C 287.215 -0.0988569 -1.69111 0
M  V30 3141 O 288.421 -0.260781 -1.78101 0
M  V30 3142 H 284.796 -0.368677 -0.655425 0
M  V30 3143 H 286.767 -2.14555 -2.07385 0
M  V30 3144 C 285.516 -0.915323 -3.35436 0
M  V30 3145 H 284.839 -1.74759 -3.59582 0
M  V30 3146 H 286.279 -0.868895 -4.15001 0
M  V30 3147 C 284.738 0.381928 -3.34728 0
M  V30 3148 O 285.268 1.39857 -3.76567 0
M  V30 3149 N 283.474 0.398633 -2.87853 0
M  V30 3150 H 283.021 -0.429186 -2.54 0
M  V30 3151 H 282.979 1.26651 -2.87762 0
M  V30 3152 N 286.751 1.08385 -1.14413 0
M  V30 3153 C 287.681 2.17321 -0.854044 0
M  V30 3154 C 288.662 1.69024 0.191049 0
M  V30 3155 O 289.847 1.94141 0.0476779 0
M  V30 3156 C 286.977 3.45719 -0.330983 0
M  V30 3157 C 285.931 4.07409 -1.31155 0
M  V30 3158 C 285.257 5.30762 -0.64778 0
M  V30 3159 C 286.557 4.48665 -2.67388 0
M  V30 3160 H 288.251 2.41845 -1.76498 0
M  V30 3161 H 285.797 1.16233 -0.850051 0
M  V30 3162 H 287.75 4.21241 -0.115645 0
M  V30 3163 H 286.474 3.2075 0.615381 0
M  V30 3164 H 285.133 3.33919 -1.51306 0
M  V30 3165 H 284.781 5.02078 0.304398 0
M  V30 3166 H 284.481 5.72992 -1.30207 0
M  V30 3167 H 286.005 6.08998 -0.441972 0
M  V30 3168 H 287.419 5.15364 -2.51143 0
M  V30 3169 H 285.816 5.01814 -3.29093 0
M  V30 3170 H 286.886 3.60543 -3.24248 0
M  V30 3171 N 288.23 0.939286 1.26551 0
M  V30 3172 C 289.163 0.391702 2.24813 0
M  V30 3173 C 290.141 -0.518421 1.54114 0
M  V30 3174 O 291.325 -0.456299 1.82894 0
M  V30 3175 C 288.452 -0.437382 3.35864 0
M  V30 3176 C 287.498 0.410946 4.24516 0
M  V30 3177 S 288.331 1.83372 5.03125 0
M  V30 3178 C 289.487 1.01264 6.17654 0
M  V30 3179 H 289.72 1.22448 2.70913 0
M  V30 3180 H 287.253 0.742269 1.35387 0
M  V30 3181 H 289.211 -0.909837 4.0029 0
M  V30 3182 H 287.872 -1.24482 2.8838 0
M  V30 3183 H 287.065 -0.224191 5.03501 0
M  V30 3184 H 286.667 0.818014 3.64945 0
M  V30 3185 H 288.959 0.254023 6.77024 0
M  V30 3186 H 289.902 1.77589 6.85469 0
M  V30 3187 H 290.31 0.549532 5.61819 0
M  V30 3188 N 289.708 -1.40897 0.706093 0
M  V30 3189 C 290.955 -2.01054 0.241531 0
M  V30 3190 C 291.283 -1.55956 -1.16223 0
M  V30 3191 O 290.538 -0.766336 -1.80072 0
M  V30 3192 C 290.837 -3.5646 0.259099 0
M  V30 3193 C 290.503 -4.21106 1.61184 0
M  V30 3194 C 289.165 -4.38479 1.98216 0
M  V30 3195 C 291.517 -4.57256 2.50132 0
M  V30 3196 C 288.845 -4.89282 3.2376 0
M  V30 3197 C 291.197 -5.09454 3.7502 0
M  V30 3198 C 289.861 -5.25037 4.12181 0
M  V30 3199 H 289.131 -0.73571 0.0883825 0
M  V30 3200 H 291.778 -1.68645 0.907257 0
M  V30 3201 H 290.083 -3.88721 -0.490189 0
M  V30 3202 H 291.78 -4.00826 -0.11804 0
M  V30 3203 H 288.37 -4.07966 1.31384 0
M  V30 3204 H 292.554 -4.43479 2.228 0
M  V30 3205 H 287.81 -4.99531 3.52532 0
M  V30 3206 H 291.984 -5.36404 4.44121 0
M  V30 3207 H 289.611 -5.64164 5.09532 0
M  V30 3208 N 291.186 -0.45159 -1.50991 0
M  V30 3209 C 292.149 0.341117 -2.26647 0
M  V30 3210 C 293.149 0.937422 -1.30649 0
M  V30 3211 O 294.339 0.809644 -1.54241 0
M  V30 3212 C 291.471 1.48398 -3.06905 0
M  V30 3213 H 292.664 -0.322117 -2.98165 0
M  V30 3214 H 290.217 -0.205122 -1.54948 0
M  V30 3215 H 290.952 2.18284 -2.39838 0
M  V30 3216 H 290.737 1.06241 -3.77432 0
M  V30 3217 H 292.227 2.04367 -3.64176 0
M  V30 3218 N 292.664 1.56529 -0.183458 0
M  V30 3219 C 293.911 1.97244 0.458357 0
M  V30 3220 C 294.239 1.06992 1.62428 0
M  V30 3221 O 293.494 0.106542 1.9541 0
M  V30 3222 C 293.793 3.43939 0.971637 0
M  V30 3223 C 293.459 4.5083 -0.0796784 0
M  V30 3224 C 292.121 4.79786 -0.368584 0
M  V30 3225 C 294.473 5.15138 -0.792638 0
M  V30 3226 C 291.801 5.70345 -1.37563 0
M  V30 3227 C 294.153 6.06784 -1.78875 0
M  V30 3228 C 292.817 6.34102 -2.08497 0
M  V30 3229 H 292.087 0.721768 0.167725 0
M  V30 3230 H 294.734 1.89472 -0.277976 0
M  V30 3231 H 293.039 3.48724 1.78602 0
M  V30 3232 H 294.736 3.72791 1.47744 0
M  V30 3233 H 291.326 4.28317 0.155668 0
M  V30 3234 H 295.51 4.92868 -0.582659 0
M  V30 3235 H 290.766 5.89789 -1.61118 0
M  V30 3236 H 294.94 6.55677 -2.3465 0
M  V30 3237 H 292.567 7.04074 -2.86678 0
M  V30 3238 N 294.142 -0.090211 1.57342 0
M  V30 3239 C 295.389 -0.792807 1.86335 0
M  V30 3240 C 295.717 -1.78494 0.772662 0
M  V30 3241 O 294.972 -1.94305 -0.233258 0
M  V30 3242 C 295.271 -1.55222 3.21933 0
M  V30 3243 C 294.937 -0.701765 4.45406 0
M  V30 3244 C 293.599 -0.467334 4.78925 0
M  V30 3245 C 295.951 -0.11086 5.21082 0
M  V30 3246 C 293.279 0.367785 5.85546 0
M  V30 3247 C 295.631 0.711609 6.28585 0
M  V30 3248 C 294.295 0.956086 6.60617 0
M  V30 3249 H 293.565 -0.290109 0.681849 0
M  V30 3250 H 296.212 -0.0541332 1.91423 0
M  V30 3251 H 294.517 -2.3626 3.12551 0
M  V30 3252 H 296.214 -2.10032 3.41595 0
M  V30 3253 H 292.804 -0.894598 4.1916 0
M  V30 3254 H 296.988 -0.279129 4.95514 0
M  V30 3255 H 292.244 0.566128 6.08773 0
M  V30 3256 H 296.418 1.17632 6.86393 0
M  V30 3257 H 294.045 1.60499 7.43064 0
M  V30 3258 N 295.62 -1.53406 -0.361157 0
M  V30 3259 C 296.583 -1.79479 -1.42548 0
M  V30 3260 C 297.583 -0.665327 -1.4639 0
M  V30 3261 O 298.773 -0.933549 -1.47073 0
M  V30 3262 C 295.905 -1.92087 -2.8163 0
M  V30 3263 H 297.098 -2.74538 -1.20701 0
M  V30 3264 H 294.651 -1.4455 -0.594546 0
M  V30 3265 H 295.386 -0.991099 -3.08784 0
M  V30 3266 H 295.171 -2.74241 -2.80239 0
M  V30 3267 H 296.661 -2.13836 -3.58697 0
M  V30 3268 N 297.098 0.621204 -1.44841 0
M  V30 3269 C 298.03 1.74615 -1.48466 0
M  V30 3270 C 299.043 1.58377 -0.37691 0
M  V30 3271 O 300.232 1.66508 -0.643215 0
M  V30 3272 C 297.332 3.12459 -1.31236 0
M  V30 3273 C 296.505 3.55064 -2.55438 0
M  V30 3274 C 295.564 4.71821 -2.32963 0
M  V30 3275 O 294.59 4.79628 -3.06505 0
M  V30 3276 N 295.792 5.64186 -1.36654 0
M  V30 3277 H 298.557 1.71973 -2.45449 0
M  V30 3278 H 296.118 0.806077 -1.40407 0
M  V30 3279 H 298.11 3.88302 -1.14032 0
M  V30 3280 H 296.68 3.09686 -0.4258 0
M  V30 3281 H 295.9 2.69324 -2.87851 0
M  V30 3282 H 297.188 3.80284 -3.38026 0
M  V30 3283 H 296.586 5.6058 -0.759344 0
M  V30 3284 H 295.143 6.39618 -1.25425 0
M  V30 3285 N 298.576 1.31904 0.862503 0
M  V30 3286 C 299.526 1.16772 1.95827 0
M  V30 3287 C 300.51 0.0767098 1.60717 0
M  V30 3288 O 301.702 0.302407 1.74398 0
M  V30 3289 C 298.831 0.884858 3.317 0
M  V30 3290 C 297.917 2.0172 3.73055 0
M  V30 3291 N 298.308 3.265 3.86305 0
M  V30 3292 C 296.606 1.91861 4.02623 0
M  V30 3293 C 297.307 4.00616 4.2176 0
M  V30 3294 N 296.283 3.28847 4.32852 0
M  V30 3295 H 300.085 2.11382 2.04193 0
M  V30 3296 H 297.599 1.2357 1.05377 0
M  V30 3297 H 299.596 0.757419 4.09962 0
M  V30 3298 H 298.256 -0.0529448 3.24657 0
M  V30 3299 H 299.267 3.61529 3.70833 0
M  V30 3300 H 295.944 1.05593 4.03926 0
M  V30 3301 H 297.334 5.08182 4.39546 0
M  V30 3302 N 300.054 -1.07777 1.14986 0
M  V30 3303 C 301.301 -1.8029 0.922056 0
M  V30 3304 C 301.629 -1.86531 -0.55105 0
M  V30 3305 O 300.884 -1.34189 -1.42449 0
M  V30 3306 C 301.183 -3.25495 1.47608 0
M  V30 3307 C 300.849 -3.39361 2.96893 0
M  V30 3308 C 299.511 -3.42852 3.37647 0
M  V30 3309 C 301.863 -3.42512 3.92854 0
M  V30 3310 C 299.191 -3.47094 4.73015 0
M  V30 3311 C 301.543 -3.4829 5.28088 0
M  V30 3312 C 300.207 -3.50058 5.68345 0
M  V30 3313 H 299.477 -0.659727 0.337404 0
M  V30 3314 H 302.124 -1.26854 1.43459 0
M  V30 3315 H 300.429 -3.81683 0.88463 0
M  V30 3316 H 302.126 -3.80168 1.27568 0
M  V30 3317 H 298.716 -3.37339 2.64387 0
M  V30 3318 H 302.9 -3.3904 3.62444 0
M  V30 3319 H 298.156 -3.46758 5.03556 0
M  V30 3320 H 302.33 -3.49675 6.02246 0
M  V30 3321 H 299.957 -3.53097 6.73221 0
M  V30 3322 N 301.532 -0.945985 -1.26051 0
M  V30 3323 C 302.76 -0.613025 -1.9761 0
M  V30 3324 C 303.175 0.813035 -1.70397 0
M  V30 3325 O 302.532 1.54274 -0.974979 0
M  V30 3326 C 302.583 -0.85159 -3.51326 0
M  V30 3327 O 302.304 -2.22157 -3.77595 0
M  V30 3328 C 303.805 -0.529831 -4.40122 0
M  V30 3329 H 301.025 -0.230593 -0.630133 0
M  V30 3330 H 303.569 -1.268 -1.60443 0
M  V30 3331 H 301.724 -0.243151 -3.86636 0
M  V30 3332 H 302.138 -2.2852 -4.721 0
M  V30 3333 H 303.612 -0.747348 -5.46917 0
M  V30 3334 H 304.089 0.535341 -4.35925 0
M  V30 3335 H 304.695 -1.11721 -4.10364 0
M  V30 3336 N 303.011 1.40521 -0.713556 0
M  V30 3337 C 303.961 2.27971 -0.036165 0
M  V30 3338 C 304.945 1.43151 0.734623 0
M  V30 3339 O 306.137 1.66261 0.607158 0
M  V30 3340 C 303.266 3.31661 0.886331 0
M  V30 3341 C 302.352 4.23955 0.110836 0
M  V30 3342 N 302.743 4.97641 -0.904847 0
M  V30 3343 C 301.041 4.44674 0.343692 0
M  V30 3344 C 301.742 5.65322 -1.37064 0
M  V30 3345 N 300.718 5.39162 -0.693168 0
M  V30 3346 H 304.52 2.82384 -0.814645 0
M  V30 3347 H 302.034 1.52948 -0.545963 0
M  V30 3348 H 304.031 3.93154 1.38692 0
M  V30 3349 H 302.691 2.78808 1.66421 0
M  V30 3350 H 303.702 5.01689 -1.28563 0
M  V30 3351 H 300.379 4.02801 1.09805 0
M  V30 3352 H 301.769 6.34359 -2.21447 0
M  V30 3353 N 304.489 0.459591 1.5075 0
M  V30 3354 C 305.421 -0.37665 2.26084 0
M  V30 3355 C 306.434 -0.967109 1.30961 0
M  V30 3356 O 307.623 -0.857468 1.56556 0
M  V30 3357 C 304.723 -1.54112 3.01832 0
M  V30 3358 C 303.896 -1.06553 4.24223 0
M  V30 3359 C 302.955 -2.1027 4.82362 0
M  V30 3360 O 301.981 -1.68798 5.43595 0
M  V30 3361 N 303.183 -3.42974 4.68347 0
M  V30 3362 H 305.948 0.269124 2.98489 0
M  V30 3363 H 303.509 0.28972 1.59287 0
M  V30 3364 H 305.501 -2.23165 3.37608 0
M  V30 3365 H 304.071 -2.0918 2.32298 0
M  V30 3366 H 303.291 -0.201274 3.93686 0
M  V30 3367 H 304.579 -0.725516 5.03601 0
M  V30 3368 H 303.977 -3.79385 4.19623 0
M  V30 3369 H 302.534 -4.07858 5.08424 0
M  V30 3370 N 305.967 -1.56429 0.191757 0
M  V30 3371 C 307.214 -1.97485 -0.447891 0
M  V30 3372 C 307.542 -1.07852 -1.61859 0
M  V30 3373 O 306.797 -0.116903 -1.95351 0
M  V30 3374 C 307.096 -3.44449 -0.953384 0
M  V30 3375 C 306.762 -4.50781 0.103586 0
M  V30 3376 C 305.424 -4.79584 0.394023 0
M  V30 3377 C 307.776 -5.1471 0.819946 0
M  V30 3378 C 305.104 -5.69607 1.40585 0
M  V30 3379 C 307.456 -6.05827 1.8209 0
M  V30 3380 C 306.12 -6.32987 2.11857 0
M  V30 3381 H 305.39 -0.722648 -0.163895 0
M  V30 3382 H 308.037 -1.89322 0.28802 0
M  V30 3383 H 306.342 -3.49666 -1.76751 0
M  V30 3384 H 308.039 -3.73569 -1.45765 0
M  V30 3385 H 304.629 -4.28394 -0.132951 0
M  V30 3386 H 308.813 -4.92552 0.608789 0
M  V30 3387 H 304.069 -5.88926 1.64243 0
M  V30 3388 H 308.243 -6.54424 2.38123 0
M  V30 3389 H 305.87 -7.02544 2.90407 0
M  V30 3390 N 307.445 0.0818655 -1.57387 0
M  V30 3391 C 308.692 0.782914 -1.86753 0
M  V30 3392 C 309.02 1.78082 -0.782118 0
M  V30 3393 O 308.275 1.94426 0.22295 0
M  V30 3394 C 308.574 1.53513 -3.22752 0
M  V30 3395 C 308.24 0.678134 -4.45771 0
M  V30 3396 C 306.902 0.441929 -4.79166 0
M  V30 3397 C 309.254 0.0832243 -5.21134 0
M  V30 3398 C 306.582 -0.398833 -5.85343 0
M  V30 3399 C 308.934 -0.744935 -6.28199 0
M  V30 3400 C 307.598 -0.991107 -6.60101 0
M  V30 3401 H 306.868 0.286489 -0.683378 0
M  V30 3402 H 309.515 0.0439808 -1.91449 0
M  V30 3403 H 307.82 2.34599 -3.138 0
M  V30 3404 H 309.517 2.08218 -3.42705 0
M  V30 3405 H 306.107 0.872357 -4.19628 0
M  V30 3406 H 310.291 0.252847 -4.95655 0
M  V30 3407 H 305.547 -0.598405 -6.08465 0
M  V30 3408 H 309.721 -1.21271 -6.8576 0
M  V30 3409 H 307.348 -1.64437 -7.42202 0
M  V30 3410 N 308.923 1.53595 0.353017 0
M  V30 3411 C 309.87 1.80919 1.43308 0
M  V30 3412 C 310.84 0.654288 1.5267 0
M  V30 3413 O 312.025 0.897759 1.6836 0
M  V30 3414 C 309.165 2.01605 2.80089 0
M  V30 3415 C 308.278 3.29321 2.79593 0
M  V30 3416 C 307.413 3.40125 4.0803 0
M  V30 3417 C 306.452 4.61826 4.01725 0
M  V30 3418 N 305.589 4.69716 5.21834 0
M  V30 3419 H 310.429 2.73074 1.19308 0
M  V30 3420 H 307.966 1.35263 0.578131 0
M  V30 3421 H 309.924 2.11586 3.59565 0
M  V30 3422 H 308.554 1.12772 3.0246 0
M  V30 3423 H 307.606 3.28229 1.92276 0
M  V30 3424 H 308.918 4.18884 2.70809 0
M  V30 3425 H 308.072 3.49488 4.95927 0
M  V30 3426 H 306.811 2.48601 4.19582 0
M  V30 3427 H 305.816 4.52552 3.12213 0
M  V30 3428 H 307.041 5.54705 3.91764 0
M  V30 3429 H 304.987 3.81097 5.33948 0
M  V30 3430 H 304.904 5.53202 5.1527 0
M  V30 3431 H 306.172 4.83376 6.11529 0
M  V30 3432 N 310.401 -0.613514 1.45168 0
M  V30 3433 C 311.629 -1.39946 1.5239 0
M  V30 3434 C 312.044 -1.88167 0.154531 0
M  V30 3435 O 311.401 -1.61872 -0.842843 0
M  V30 3436 C 311.452 -2.60795 2.50337 0
M  V30 3437 O 311.173 -2.1458 3.81952 0
M  V30 3438 C 312.674 -3.53723 2.67198 0
M  V30 3439 H 309.894 -0.428593 0.516284 0
M  V30 3440 H 312.438 -0.748753 1.903 0
M  V30 3441 H 310.593 -3.21919 2.15515 0
M  V30 3442 H 311.007 -2.93055 4.34993 0
M  V30 3443 H 312.481 -4.35079 3.39721 0
M  V30 3444 H 312.958 -4.0368 1.73029 0
M  V30 3445 H 313.564 -2.98456 3.02992 0
M  V30 3446 N 311.879 -1.3236 -0.855495 0
M  V30 3447 C 313.104 -1.2601 -1.64731 0
M  V30 3448 C 313.529 0.169068 -1.87339 0
M  V30 3449 O 312.887 1.12016 -1.42556 0
M  V30 3450 C 312.935 -2.02417 -2.98429 0
M  V30 3451 O 312.039 -1.3714 -3.8893 0
M  V30 3452 H 311.38 -0.434325 -0.502253 0
M  V30 3453 H 313.91 -1.74661 -1.06558 0
M  V30 3454 H 313.92 -2.12559 -3.48257 0
M  V30 3455 H 312.595 -3.06343 -2.81295 0
M  V30 3456 H 311.172 -1.3554 -3.47395 0
M  V30 3457 N 313.357 1.07166 -1.15556 0
M  V30 3458 C 314.605 1.79443 -0.929764 0
M  V30 3459 C 314.926 1.87246 0.544414 0
M  V30 3460 O 314.196 1.37473 1.39564 0
M  V30 3461 H 312.776 0.664625 -0.341003 0
M  V30 3462 H 315.438 1.29499 -1.45657 0
M  V30 3463 H 314.534 2.81832 -1.34079 0
M  V30 3464 N 314.835 0.952656 1.25548 0
M  V30 3465 C 315.782 0.47008 2.25962 0
M  V30 3466 C 316.752 -0.476384 1.59122 0
M  V30 3467 O 317.937 -0.39007 1.8677 0
M  V30 3468 C 315.077 -0.247881 3.44209 0
M  V30 3469 C 314.19 0.735591 4.25691 0
M  V30 3470 C 313.325 -0.0047306 5.312 0
M  V30 3471 C 312.364 0.969805 6.04368 0
M  V30 3472 N 311.501 0.260486 7.01617 0
M  V30 3473 H 316.341 1.33126 2.66611 0
M  V30 3474 H 313.878 0.66765 1.31076 0
M  V30 3475 H 315.836 -0.680695 4.1161 0
M  V30 3476 H 314.466 -1.07312 3.0444 0
M  V30 3477 H 313.518 1.28689 3.57971 0
M  V30 3478 H 314.83 1.47934 4.76358 0
M  V30 3479 H 313.984 -0.496275 6.04667 0
M  V30 3480 H 312.723 -0.781282 4.81401 0
M  V30 3481 H 311.728 1.47237 5.29718 0
M  V30 3482 H 312.953 1.74655 6.56256 0
M  V30 3483 H 310.899 -0.497364 6.54112 0
M  V30 3484 H 310.816 0.943362 7.50091 0
M  V30 3485 H 312.084 -0.209587 7.79218 0
M  V30 3486 N 316.313 -1.40141 0.720998 0
M  V30 3487 C 317.246 -2.2819 0.020916 0
M  V30 3488 C 318.224 -1.43633 -0.762129 0
M  V30 3489 O 319.408 -1.7304 -0.747633 0
M  V30 3490 C 316.535 -3.24281 -0.977715 0
M  V30 3491 C 315.581 -4.25548 -0.284836 0
M  V30 3492 S 316.414 -5.26247 0.991169 0
M  V30 3493 C 317.57 -6.259 -0.0052214 0
M  V30 3494 H 317.803 -2.87218 0.767649 0
M  V30 3495 H 315.336 -1.45656 0.512233 0
M  V30 3496 H 317.294 -3.80167 -1.54865 0
M  V30 3497 H 315.955 -2.643 -1.69719 0
M  V30 3498 H 315.148 -4.93154 -1.03996 0
M  V30 3499 H 314.75 -3.73389 0.213684 0
M  V30 3500 H 317.042 -6.72143 -0.850279 0
M  V30 3501 H 317.985 -7.05224 0.637599 0
M  V30 3502 H 318.393 -5.63277 -0.371366 0
M  V30 3503 N 317.792 -0.46758 -1.50504 0
M  V30 3504 C 319.04 0.0884469 -2.01906 0
M  V30 3505 C 319.361 1.40532 -1.35188 0
M  V30 3506 O 318.631 1.89515 -0.496079 0
M  V30 3507 H 317.211 0.0356765 -0.746148 0
M  V30 3508 H 319.873 -0.6172 -1.84869 0
M  V30 3509 H 318.969 0.2425 -3.11156 0
M  V30 3510 N 319.27 1.56325 -0.20005 0
M  V30 3511 C 320.681 1.8408 0.31167 0
M  V30 3512 C 321.032 1.12087 1.61031 0
M  V30 3513 O 320.157 0.38332 2.12978 0
M  V30 3514 C 320.752 3.33932 0.57226 0
M  V30 3515 C 319.311 3.6208 1.02834 0
M  V30 3516 C 318.458 2.77186 0.079634 0
M  V30 3517 H 321.409 1.52939 -0.423729 0
M  V30 3518 H 321.43 3.52971 1.42096 0
M  V30 3519 H 320.942 3.86303 -0.37308 0
M  V30 3520 H 319.043 3.15147 1.98778 0
M  V30 3521 H 319.156 4.7023 0.917624 0
M  V30 3522 H 317.52 2.47951 0.582448 0
M  V30 3523 H 318.303 3.32347 -0.860238 0
M  V30 3524 N 320.748 -0.0735177 1.57428 0
M  V30 3525 C 321.996 -0.771472 1.86796 0
M  V30 3526 C 322.317 -1.78201 0.791804 0
M  V30 3527 O 321.587 -1.95074 -0.179718 0
M  V30 3528 H 320.167 -0.28791 0.689287 0
M  V30 3529 H 322.829 -0.0500161 1.94836 0
M  V30 3530 H 321.925 -1.28874 2.8425 0
M  V30 3531 N 322.226 -1.5378 -0.344866 0
M  V30 3532 C 323.473 -1.70963 -1.08526 0
M  V30 3533 C 323.801 -0.472126 -1.88683 0
M  V30 3534 O 323.056 0.546116 -1.87926 0
M  V30 3535 C 323.355 -2.92407 -2.05506 0
M  V30 3536 C 323.021 -4.28066 -1.41671 0
M  V30 3537 C 321.683 -4.64951 -1.2399 0
M  V30 3538 C 324.035 -5.12344 -0.956726 0
M  V30 3539 C 321.363 -5.83733 -0.589277 0
M  V30 3540 C 323.715 -6.3179 -0.320015 0
M  V30 3541 C 322.379 -6.67372 -0.130881 0
M  V30 3542 H 321.649 -0.625598 -0.397124 0
M  V30 3543 H 324.296 -1.87995 -0.36469 0
M  V30 3544 H 322.601 -2.69973 -2.8394 0
M  V30 3545 H 324.298 -3.02895 -2.62784 0
M  V30 3546 H 320.888 -3.99034 -1.56429 0
M  V30 3547 H 325.072 -4.8438 -1.08118 0
M  V30 3548 H 320.328 -6.09877 -0.431344 0
M  V30 3549 H 324.502 -6.96386 0.0445072 0
M  V30 3550 H 322.129 -7.59273 0.375318 0
M  V30 3551 N 323.704 0.605807 -1.45491 0
M  V30 3552 C 324.932 1.39136 -1.5313 0
M  V30 3553 C 325.347 1.88082 -0.164507 0
M  V30 3554 O 324.704 1.62316 0.834247 0
M  V30 3555 C 324.755 2.59463 -2.51716 0
M  V30 3556 O 324.476 2.12551 -3.83084 0
M  V30 3557 C 325.977 3.52301 -2.6907 0
M  V30 3558 H 323.197 0.425849 -0.51855 0
M  V30 3559 H 325.741 0.73865 -1.90694 0
M  V30 3560 H 323.896 3.20772 -2.17219 0
M  V30 3561 H 324.31 2.90744 -4.36541 0
M  V30 3562 H 325.784 4.33271 -3.42024 0
M  V30 3563 H 326.261 4.02757 -1.75167 0
M  V30 3564 H 326.867 2.96845 -3.04571 0
M  V30 3565 N 325.182 1.32811 0.848464 0
M  V30 3566 C 326.129 1.22265 1.95755 0
M  V30 3567 C 327.099 0.103413 1.65778 0
M  V30 3568 O 328.284 0.280033 1.88734 0
M  V30 3569 C 325.424 0.958014 3.31536 0
M  V30 3570 C 324.537 2.16262 3.73971 0
M  V30 3571 C 323.672 1.83295 4.98575 0
M  V30 3572 C 322.711 3.00041 5.33518 0
M  V30 3573 N 321.848 2.67125 6.49299 0
M  V30 3574 H 326.688 2.17128 2.04107 0
M  V30 3575 H 324.225 1.07982 0.998913 0
M  V30 3576 H 326.183 0.785052 4.09747 0
M  V30 3577 H 324.813 0.046159 3.22767 0
M  V30 3578 H 323.865 2.44565 2.91362 0
M  V30 3579 H 325.177 3.03572 3.95785 0
M  V30 3580 H 324.331 1.62586 5.84509 0
M  V30 3581 H 323.07 0.932078 4.7871 0
M  V30 3582 H 322.075 3.21374 4.46093 0
M  V30 3583 H 323.3 3.90869 5.55336 0
M  V30 3584 H 321.246 1.79586 6.3094 0
M  V30 3585 H 321.163 3.47965 6.71161 0
M  V30 3586 H 322.431 2.49861 7.3837 0
M  V30 3587 N 326.66 -1.06551 1.16123 0
M  V30 3588 C 327.623 -2.12132 0.867906 0
M  V30 3589 C 328.623 -1.60224 -0.135944 0
M  V30 3590 O 329.813 -1.73943 0.0946422 0
M  V30 3591 C 326.945 -3.396 0.297419 0
M  V30 3592 H 328.138 -2.39586 1.80385 0
M  V30 3593 H 325.691 -1.22574 0.969812 0
M  V30 3594 H 326.426 -3.17794 -0.64633 0
M  V30 3595 H 326.211 -3.78581 1.02073 0
M  V30 3596 H 327.701 -4.17455 0.110052 0
M  V30 3597 N 328.138 -0.959301 -1.25041 0
M  V30 3598 C 329.068 -0.501388 -2.28053 0
M  V30 3599 C 330.049 0.454673 -1.63911 0
M  V30 3600 O 331.234 0.352618 -1.90972 0
M  V30 3601 C 328.364 0.217224 -3.4662 0
M  V30 3602 C 327.318 -0.654034 -4.22973 0
M  V30 3603 C 326.644 0.195589 -5.34342 0
M  V30 3604 C 327.944 -1.93447 -4.85155 0
M  V30 3605 H 329.638 -1.36238 -2.66608 0
M  V30 3606 H 327.184 -0.656534 -1.28163 0
M  V30 3607 H 329.137 0.548732 -4.17812 0
M  V30 3608 H 327.861 1.1125 -3.07068 0
M  V30 3609 H 326.52 -0.968693 -3.5357 0
M  V30 3610 H 326.168 1.09076 -4.91031 0
M  V30 3611 H 325.868 -0.384091 -5.86343 0
M  V30 3612 H 327.392 0.521958 -6.08365 0
M  V30 3613 H 328.806 -1.66908 -5.48466 0
M  V30 3614 H 327.203 -2.46018 -5.47353 0
M  V30 3615 H 328.273 -2.63466 -4.07079 0
M  V30 3616 N 329.616 1.39756 -0.72842 0
M  V30 3617 C 330.864 2.00248 -0.272946 0
M  V30 3618 C 331.185 1.58077 1.14178 0
M  V30 3619 O 330.455 0.826014 1.77634 0
M  V30 3620 H 329.035 0.740554 -0.0979247 0
M  V30 3621 H 331.697 1.70903 -0.936912 0
M  V30 3622 H 330.793 3.10495 -0.316142 0
M  V30 3623 N 331.094 0.475555 1.50254 0
M  V30 3624 C 332.044 -0.335025 2.25525 0
M  V30 3625 C 333.028 -0.957625 1.29299 0
M  V30 3626 O 334.22 -0.869436 1.54175 0
M  V30 3627 C 331.349 -1.41385 3.12834 0
M  V30 3628 C 330.435 -0.798762 4.1651 0
M  V30 3629 N 330.826 0.0835815 5.05731 0
M  V30 3630 C 329.124 -1.06221 4.33166 0
M  V30 3631 C 329.825 0.433113 5.80085 0
M  V30 3632 N 328.801 -0.1928 5.43258 0
M  V30 3633 H 332.603 0.344612 2.91873 0
M  V30 3634 H 330.117 0.289986 1.5979 0
M  V30 3635 H 332.114 -2.00777 3.65368 0
M  V30 3636 H 330.774 -2.09543 2.48036 0
M  V30 3637 H 331.785 0.452715 5.15918 0
M  V30 3638 H 328.462 -1.73844 3.79585 0
M  V30 3639 H 329.852 1.15346 6.61925 0
M  V30 3640 N 332.573 -1.56217 0.208337 0
M  V30 3641 C 333.821 -1.97558 -0.426076 0
M  V30 3642 C 334.142 -1.09683 -1.61229 0
M  V30 3643 O 333.412 -0.170956 -1.95153 0
M  V30 3644 H 331.992 -0.729575 -0.160405 0
M  V30 3645 H 334.654 -1.92606 0.298155 0
M  V30 3646 H 333.75 -3.02672 -0.761312 0
M  V30 3647 N 334.051 0.0651679 -1.57465 0
M  V30 3648 C 335.297 0.764193 -1.87851 0
M  V30 3649 C 335.63 1.76889 -0.801495 0
M  V30 3650 O 334.905 1.93594 0.187528 0
M  V30 3651 C 335.188 1.46625 -3.28897 0
M  V30 3652 C 335.041 0.477515 -4.47258 0
M  V30 3653 C 336.36 2.4095 -3.68281 0
M  V30 3654 H 333.479 0.276351 -0.683227 0
M  V30 3655 H 336.121 0.0272868 -1.8998 0
M  V30 3656 H 334.271 2.09438 -3.27212 0
M  V30 3657 H 335.943 -0.145922 -4.61069 0
M  V30 3658 H 334.186 -0.206576 -4.33308 0
M  V30 3659 H 334.857 1.0065 -5.42746 0
M  V30 3660 H 337.333 1.88209 -3.71102 0
M  V30 3661 H 336.209 2.87072 -4.67847 0
M  V30 3662 H 336.47 3.26049 -2.98571 0
M  V30 3663 N 335.529 1.53961 0.336706 0
M  V30 3664 C 336.806 1.62171 1.09361 0
M  V30 3665 C 337.186 0.447263 2.06307 0
M  V30 3666 O 336.534 -0.559802 2.21537 0
M  V30 3667 C 336.744 2.98565 1.80721 0
M  V30 3668 C 338.092 3.54157 2.34218 0
M  V30 3669 O 339.116 3.00784 1.90807 0
M  V30 3670 O 337.975 4.47528 3.13657 0
M  V30 3671 H 335.069 0.6562 0.503319 0
M  V30 3672 H 337.615 1.66307 0.33765 0
M  V30 3673 H 336.387 3.75482 1.10132 0
M  V30 3674 H 336.01 2.9805 2.63158 0
M  V30 3675 N 337.007 -0.598083 1.45811 0
M  V30 3676 C 337.937 -1.71873 1.58057 0
M  V30 3677 C 338.918 -1.64533 0.431615 0
M  V30 3678 O 340.103 -1.82787 0.65595 0
M  V30 3679 C 337.233 -3.10495 1.55597 0
M  V30 3680 C 336.187 -3.32654 2.69305 0
M  V30 3681 C 335.513 -4.71646 2.51902 0
M  V30 3682 C 336.813 -3.21981 4.11248 0
M  V30 3683 H 338.507 -1.61881 2.51863 0
M  V30 3684 H 336.053 -0.777372 1.21214 0
M  V30 3685 H 338.006 -3.88699 1.6276 0
M  V30 3686 H 336.73 -3.2135 0.583255 0
M  V30 3687 H 335.389 -2.56843 2.61586 0
M  V30 3688 H 335.037 -4.79246 1.52748 0
M  V30 3689 H 334.737 -4.87426 3.2816 0
M  V30 3690 H 336.261 -5.52038 2.60933 0
M  V30 3691 H 337.675 -3.90049 4.20161 0
M  V30 3692 H 336.072 -3.49289 4.87972 0
M  V30 3693 H 337.142 -2.1928 4.32486 0
M  V30 3694 N 338.485 -1.33259 -0.841409 0
M  V30 3695 C 339.733 -1.24326 -1.59334 0
M  V30 3696 C 340.054 0.191564 -1.94057 0
M  V30 3697 O 339.324 1.11967 -1.60749 0
M  V30 3698 H 337.904 -0.457174 -0.590763 0
M  V30 3699 H 340.566 -1.66947 -1.00571 0
M  V30 3700 H 339.662 -1.8352 -2.52442 0
M  V30 3701 N 339.963 1.05934 -1.16686 0
M  V30 3702 C 340.913 2.11764 -0.844978 0
M  V30 3703 C 341.897 1.59922 0.177178 0
M  V30 3704 O 343.089 1.76983 -0.0241768 0
M  V30 3705 C 340.218 3.41493 -0.351812 0
M  V30 3706 C 339.304 4.00152 -1.40496 0
M  V30 3707 N 339.695 4.32874 -2.61636 0
M  V30 3708 C 337.993 4.278 -1.26106 0
M  V30 3709 C 338.694 4.79552 -3.29249 0
M  V30 3710 N 337.67 4.79211 -2.56628 0
M  V30 3711 H 341.472 2.34916 -1.76612 0
M  V30 3712 H 338.986 1.23511 -1.05446 0
M  V30 3713 H 340.983 4.16773 -0.102796 0
M  V30 3714 H 339.643 3.19778 0.56322 0
M  V30 3715 H 340.654 4.23109 -2.98663 0
M  V30 3716 H 337.331 4.15511 -0.407081 0
M  V30 3717 H 338.721 5.14045 -4.32675 0
M  V30 3718 N 341.441 0.965919 1.2453 0
M  V30 3719 C 342.69 0.622437 1.91856 0
M  V30 3720 C 343.003 -0.846006 1.76358 0
M  V30 3721 O 344.209 -1.29993 2.38357 0
M  V30 3722 C 342.665 1.0626 3.43856 0
M  V30 3723 C 342.273 2.55437 3.68043 0
M  V30 3724 C 344.017 0.792183 4.17043 0
M  V30 3725 C 341.924 2.93196 5.13605 0
M  V30 3726 H 340.854 0.229092 0.718354 0
M  V30 3727 H 343.505 1.17189 1.41206 0
M  V30 3728 H 341.887 0.441476 3.93531 0
M  V30 3729 H 343.061 3.22665 3.28974 0
M  V30 3730 H 341.376 2.8007 3.08139 0
M  V30 3731 H 343.973 1.05031 5.24283 0
M  V30 3732 H 344.316 -0.271584 4.15413 0
M  V30 3733 H 344.849 1.37419 3.73311 0
M  V30 3734 H 341.588 3.98636 5.20355 0
M  V30 3735 H 341.108 2.30651 5.53679 0
M  V30 3736 H 342.787 2.83004 5.81823 0
M  V30 3737 N 342.919 -1.39368 0.735821 0
M  V30 3738 C 344.149 -2.04498 0.293967 0
M  V30 3739 C 344.557 -1.55593 -1.07645 0
M  V30 3740 O 343.9 -0.716324 -1.69158 0
M  V30 3741 C 343.962 -3.58836 0.218342 0
M  V30 3742 C 343.626 -4.30721 1.52736 0
M  V30 3743 C 344.623 -4.57305 2.47322 0
M  V30 3744 C 342.308 -4.69251 1.79189 0
M  V30 3745 C 344.302 -5.21429 3.66593 0
M  V30 3746 C 341.989 -5.33104 2.98737 0
M  V30 3747 C 342.987 -5.59125 3.9226 0
M  V30 3748 O 342.675 -6.21653 5.09708 0
M  V30 3749 H 342.407 -0.664118 0.126189 0
M  V30 3750 H 344.961 -1.79385 1.00051 0
M  V30 3751 H 343.191 -3.8285 -0.544314 0
M  V30 3752 H 344.88 -4.05447 -0.191626 0
M  V30 3753 H 345.646 -4.27983 2.28156 0
M  V30 3754 H 341.525 -4.48354 1.07239 0
M  V30 3755 H 345.069 -5.41656 4.39607 0
M  V30 3756 H 340.966 -5.61846 3.17803 0
M  V30 3757 H 341.734 -6.40146 5.10054 0
M  V30 3758 N 344.397 -0.483516 -1.5 0
M  V30 3759 C 345.645 0.067027 -2.01989 0
M  V30 3760 C 345.966 1.3909 -1.36671 0
M  V30 3761 O 345.236 1.88978 -0.516152 0
M  V30 3762 H 343.816 0.0277606 -0.746484 0
M  V30 3763 H 346.478 -0.636773 -1.84204 0
M  V30 3764 H 345.574 0.209484 -3.11396 0
M  V30 3765 N 345.875 1.56104 -0.216619 0
M  V30 3766 C 347.152 1.89988 0.465165 0
M  V30 3767 C 347.532 1.13326 1.78102 0
M  V30 3768 O 346.88 0.241033 2.27225 0
M  V30 3769 C 347.09 3.42646 0.662939 0
M  V30 3770 C 348.438 4.13311 0.972602 0
M  V30 3771 O 349.462 3.48217 0.749901 0
M  V30 3772 O 348.321 5.28396 1.39499 0
M  V30 3773 H 345.415 0.78979 0.245276 0
M  V30 3774 H 347.961 1.67721 -0.258436 0
M  V30 3775 H 346.733 3.90399 -0.26543 0
M  V30 3776 H 346.356 3.70677 1.43821 0
M  V30 3777 N 347.353 -0.0568162 1.57498 0
M  V30 3778 C 348.301 -1.08452 2.05769 0
M  V30 3779 C 349.295 -1.39164 0.965903 0
M  V30 3780 O 350.501 -1.38395 1.15095 0
M  V30 3781 H 346.876 -0.367148 0.656282 0
M  V30 3782 H 348.847 -0.651368 2.91204 0
M  V30 3783 C 347.596 -2.38543 2.52968 0
M  V30 3784 H 346.919 -2.15765 3.36579 0
M  V30 3785 H 348.359 -3.08863 2.90481 0
M  V30 3786 C 346.818 -3.05562 1.41893 0
M  V30 3787 O 347.348 -3.94262 0.769442 0
M  V30 3788 N 345.554 -2.6643 1.16032 0
M  V30 3789 H 345.101 -1.94387 1.6903 0
M  V30 3790 H 345.059 -3.11593 0.419219 0
M  V30 3791 N 348.832 -1.54138 -0.328536 0
M  V30 3792 C 349.762 -1.86167 -1.40939 0
M  V30 3793 C 350.743 -0.718044 -1.54202 0
M  V30 3794 O 351.928 -0.971328 -1.68163 0
M  V30 3795 C 349.058 -2.08461 -2.77779 0
M  V30 3796 C 348.012 -3.24299 -2.7931 0
M  V30 3797 C 347.338 -3.31955 -4.19178 0
M  V30 3798 C 348.638 -4.62065 -2.43502 0
M  V30 3799 H 350.332 -2.76689 -1.14383 0
M  V30 3800 H 347.878 -1.33132 -0.548806 0
M  V30 3801 H 349.831 -2.29453 -3.53454 0
M  V30 3802 H 348.555 -1.14684 -3.05802 0
M  V30 3803 H 347.214 -3.03187 -2.0609 0
M  V30 3804 H 346.862 -2.35745 -4.44335 0
M  V30 3805 H 346.562 -4.09805 -4.2111 0
M  V30 3806 H 348.086 -3.55175 -4.96672 0
M  V30 3807 H 349.5 -4.8297 -3.08889 0
M  V30 3808 H 347.897 -5.42429 -2.56693 0
M  V30 3809 H 348.967 -4.64652 -1.38659 0
M  V30 3810 N 350.31 0.590341 -1.46126 0
M  V30 3811 C 351.22 1.72793 -1.58681 0
M  V30 3812 C 352.236 1.67516 -0.470566 0
M  V30 3813 O 353.412 1.87562 -0.733642 0
M  V30 3814 C 350.477 3.09287 -1.5666 0
M  V30 3815 C 349.538 3.25886 -2.79458 0
M  V30 3816 C 348.771 4.55869 -2.77524 0
M  V30 3817 O 348.994 5.3928 -1.85832 0
M  V30 3818 O 347.928 4.75552 -3.68964 0
M  V30 3819 H 351.754 1.65149 -2.54872 0
M  V30 3820 H 349.339 0.756486 -1.28832 0
M  V30 3821 H 351.221 3.90577 -1.58202 0
M  V30 3822 H 349.896 3.17385 -0.636271 0
M  V30 3823 H 348.803 2.44119 -2.83472 0
M  V30 3824 H 350.136 3.22675 -3.71674 0
M  V30 3825 N 351.788 1.33704 0.83433 0
M  V30 3826 C 353.204 1.13137 1.12571 0
M  V30 3827 C 353.404 -0.0747261 2.01361 0
M  V30 3828 O 352.46 -0.753647 2.4099 0
M  V30 3829 C 353.773 2.42105 1.78342 0
M  V30 3830 C 355.321 2.48054 1.90888 0
M  V30 3831 C 355.796 3.76995 2.60075 0
M  V30 3832 N 357.287 3.78092 2.67584 0
M  V30 3833 C 358.022 4.74574 3.21818 0
M  V30 3834 N 357.518 5.81434 3.76705 0
M  V30 3835 N 359.311 4.62044 3.20112 0
M  V30 3836 H 351.462 2.11 0.243489 0
M  V30 3837 H 353.725 0.932532 0.17055 0
M  V30 3838 H 353.431 3.30391 1.20561 0
M  V30 3839 H 353.305 2.54594 2.7832 0
M  V30 3840 H 355.692 1.60215 2.47821 0
M  V30 3841 H 355.773 2.39502 0.898459 0
M  V30 3842 H 355.417 4.65219 2.03799 0
M  V30 3843 H 355.347 3.82825 3.61597 0
M  V30 3844 H 357.838 3.00865 2.28667 0
M  V30 3845 H 358.151 6.51084 4.16305 0
M  V30 3846 H 356.496 5.85163 3.7498 0
M  V30 3847 H 359.687 3.77716 2.76493 0
M  V30 3848 H 359.86 5.37406 3.62076 0
M  V30 3849 N 353.266 -1.05314 1.17247 0
M  V30 3850 C 354.198 -2.13023 0.845812 0
M  V30 3851 C 355.211 -1.62096 -0.151246 0
M  V30 3852 O 356.4 -1.78343 0.0748818 0
M  V30 3853 C 353.5 -3.38047 0.240292 0
M  V30 3854 C 352.673 -4.18255 1.27991 0
M  V30 3855 C 351.732 -5.21625 0.692375 0
M  V30 3856 O 350.758 -5.52619 1.36385 0
M  V30 3857 N 351.96 -5.78201 -0.516178 0
M  V30 3858 H 354.725 -2.41642 1.77283 0
M  V30 3859 H 352.286 -1.21401 1.07115 0
M  V30 3860 H 354.278 -4.04359 -0.16603 0
M  V30 3861 H 352.848 -3.06972 -0.590487 0
M  V30 3862 H 352.068 -3.47451 1.86203 0
M  V30 3863 H 353.356 -4.68643 1.98119 0
M  V30 3864 H 352.754 -5.55301 -1.07969 0
M  V30 3865 H 351.311 -6.4604 -0.86458 0
M  V30 3866 N 354.744 -0.972509 -1.24016 0
M  V30 3867 C 355.974 -0.653853 -1.9598 0
M  V30 3868 C 356.382 0.781801 -1.72292 0
M  V30 3869 O 355.725 1.53677 -1.00644 0
M  V30 3870 C 355.787 -0.854608 -3.49194 0
M  V30 3871 C 355.451 -2.27082 -3.96589 0
M  V30 3872 C 356.448 -3.24892 -4.05883 0
M  V30 3873 C 354.133 -2.5998 -4.29786 0
M  V30 3874 C 356.127 -4.53684 -4.47716 0
M  V30 3875 C 353.814 -3.88997 -4.71301 0
M  V30 3876 C 354.812 -4.85661 -4.80232 0
M  V30 3877 O 354.5 -6.12376 -5.20818 0
M  V30 3878 H 354.232 -0.242572 -0.630979 0
M  V30 3879 H 356.786 -1.30431 -1.58673 0
M  V30 3880 H 355.016 -0.146985 -3.86421 0
M  V30 3881 H 356.705 -0.534311 -4.02368 0
M  V30 3882 H 357.471 -3.00805 -3.80449 0
M  V30 3883 H 353.35 -1.85457 -4.22051 0
M  V30 3884 H 356.894 -5.29135 -4.54601 0
M  V30 3885 H 352.791 -4.12882 -4.96184 0
M  V30 3886 H 353.559 -6.16013 -5.38953 0
M  V30 3887 N 356.222 1.38976 -0.743202 0
M  V30 3888 C 357.154 2.29096 -0.0689228 0
M  V30 3889 C 358.167 1.47229 0.694791 0
M  V30 3890 O 359.356 1.70212 0.537597 0
M  V30 3891 C 356.456 3.25988 0.926548 0
M  V30 3892 C 355.629 4.36833 0.222647 0
M  V30 3893 C 354.688 5.13981 1.12739 0
M  V30 3894 O 353.714 5.6601 0.601795 0
M  V30 3895 N 354.916 5.25966 2.45641 0
M  V30 3896 H 357.681 2.87604 -0.842846 0
M  V30 3897 H 355.242 1.50645 -0.593109 0
M  V30 3898 H 357.234 3.74476 1.5346 0
M  V30 3899 H 355.804 2.68453 1.60162 0
M  V30 3900 H 355.024 3.90116 -0.565983 0
M  V30 3901 H 356.312 5.0811 -0.264841 0
M  V30 3902 H 355.71 4.85228 2.9081 0
M  V30 3903 H 354.267 5.77865 3.01522 0
M  V30 3904 N 357.7 0.491464 1.49741 0
M  V30 3905 C 358.63 -0.28154 2.31796 0
M  V30 3906 C 359.611 -0.971473 1.3963 0
M  V30 3907 O 360.796 -0.964719 1.68543 0
M  V30 3908 C 357.926 -1.35203 3.19902 0
M  V30 3909 C 356.88 -0.782529 4.20786 0
M  V30 3910 C 356.206 -1.95283 4.97764 0
M  V30 3911 C 357.506 0.21999 5.21837 0
M  V30 3912 H 359.2 0.403355 2.96671 0
M  V30 3913 H 356.746 0.195425 1.42668 0
M  V30 3914 H 358.699 -1.90045 3.76113 0
M  V30 3915 H 357.423 -2.06598 2.52953 0
M  V30 3916 H 356.082 -0.255928 3.65706 0
M  V30 3917 H 355.73 -2.65423 4.2727 0
M  V30 3918 H 355.43 -1.57789 5.66018 0
M  V30 3919 H 356.954 -2.50577 5.56816 0
M  V30 3920 H 358.368 -0.23996 5.72798 0
M  V30 3921 H 356.765 0.51026 5.97927 0
M  V30 3922 H 357.835 1.13911 4.7133 0
M  V30 3923 N 359.178 -1.55987 0.224894 0
M  V30 3924 C 360.594 -1.59066 -0.130426 0
M  V30 3925 C 360.794 -1.24176 -1.5869 0
M  V30 3926 O 359.85 -0.978592 -2.32766 0
M  V30 3927 C 361.163 -3.00042 0.198883 0
M  V30 3928 C 362.711 -3.1268 0.141391 0
M  V30 3929 C 363.186 -4.55839 0.444422 0
M  V30 3930 N 364.677 -4.6152 0.394115 0
M  V30 3931 C 365.412 -5.70231 0.602038 0
M  V30 3932 N 364.908 -6.87291 0.871914 0
M  V30 3933 N 366.701 -5.59555 0.534245 0
M  V30 3934 H 358.852 -1.76941 1.17497 0
M  V30 3935 H 361.115 -0.822604 0.471197 0
M  V30 3936 H 360.821 -3.30234 1.2099 0
M  V30 3937 H 360.695 -3.74075 -0.484535 0
M  V30 3938 H 363.082 -2.82283 -0.860265 0
M  V30 3939 H 363.163 -2.40969 0.858335 0
M  V30 3940 H 362.807 -4.86954 1.44353 0
M  V30 3941 H 362.737 -5.2578 -0.293752 0
M  V30 3942 H 365.228 -3.77405 0.193356 0
M  V30 3943 H 365.541 -7.66058 1.01858 0
M  V30 3944 H 363.886 -6.89028 0.909145 0
M  V30 3945 H 367.077 -4.6698 0.323612 0
M  V30 3946 H 367.25 -6.44211 0.699693 0
M  V30 3947 N 360.656 0.0484629 -1.57525 0
M  V30 3948 C 361.586 1.0549 -2.08313 0
M  V30 3949 C 362.567 1.38929 -0.981463 0
M  V30 3950 O 363.752 1.48151 -1.25558 0
M  V30 3951 C 360.882 2.36162 -2.54646 0
M  V30 3952 C 359.836 2.17016 -3.68901 0
M  V30 3953 C 359.162 3.53278 -4.01371 0
M  V30 3954 C 360.462 1.57219 -4.98076 0
M  V30 3955 H 362.156 0.632195 -2.92649 0
M  V30 3956 H 359.702 0.302654 -1.40784 0
M  V30 3957 H 361.655 3.06882 -2.88793 0
M  V30 3958 H 360.379 2.80456 -1.67368 0
M  V30 3959 H 359.038 1.48733 -3.35073 0
M  V30 3960 H 358.686 3.95185 -3.11188 0
M  V30 3961 H 358.386 3.41299 -4.78318 0
M  V30 3962 H 359.91 4.25391 -4.38035 0
M  V30 3963 H 361.324 2.17832 -5.30304 0
M  V30 3964 H 359.721 1.55871 -5.79503 0
M  V30 3965 H 360.791 0.535956 -4.81929 0
M  V30 3966 N 362.134 1.5431 0.320358 0
M  V30 3967 C 363.381 1.72668 1.05792 0
M  V30 3968 C 363.709 0.502084 1.87908 0
M  V30 3969 O 362.964 -0.516149 1.88771 0
M  V30 3970 C 363.263 2.95639 2.00828 0
M  V30 3971 C 362.929 4.30265 1.34843 0
M  V30 3972 C 361.591 4.66865 1.16578 0
M  V30 3973 C 363.943 5.13801 0.875095 0
M  V30 3974 C 361.271 5.84597 0.496336 0
M  V30 3975 C 363.623 6.32219 0.219463 0
M  V30 3976 C 362.287 6.67495 0.0246915 0
M  V30 3977 H 361.557 0.631837 0.387121 0
M  V30 3978 H 364.204 1.88552 0.334735 0
M  V30 3979 H 362.509 2.74456 2.79609 0
M  V30 3980 H 364.206 3.07038 2.57932 0
M  V30 3981 H 360.796 4.01472 1.50061 0
M  V30 3982 H 364.98 4.86039 1.00398 0
M  V30 3983 H 360.236 6.10486 0.334264 0
M  V30 3984 H 364.41 6.96227 -0.155291 0
M  V30 3985 H 362.037 7.5858 -0.496065 0
M  V30 3986 N 363.613 -0.582584 1.46437 0
M  V30 3987 C 364.56 -1.69164 1.5701 0
M  V30 3988 C 365.53 -1.60847 0.414403 0
M  V30 3989 O 366.715 -1.80058 0.631171 0
M  V30 3990 C 363.855 -3.075 1.56646 0
M  V30 3991 C 362.968 -3.2644 2.82951 0
M  V30 3992 C 362.103 -4.55026 2.7409 0
M  V30 3993 C 361.142 -4.6731 3.95333 0
M  V30 3994 N 360.279 -5.87221 3.84858 0
M  V30 3995 H 365.119 -1.59464 2.51744 0
M  V30 3996 H 362.656 -0.777186 1.24893 0
M  V30 3997 H 364.614 -3.8757 1.5442 0
M  V30 3998 H 363.244 -3.16096 0.654439 0
M  V30 3999 H 362.296 -2.39974 2.95155 0
M  V30 4000 H 363.608 -3.31385 3.72808 0
M  V30 4001 H 362.762 -5.43324 2.6997 0
M  V30 4002 H 361.501 -4.52519 1.81873 0
M  V30 4003 H 360.506 -3.77429 3.99784 0
M  V30 4004 H 361.731 -4.71595 4.88646 0
M  V30 4005 H 359.677 -5.85712 2.95427 0
M  V30 4006 H 359.594 -5.93435 4.6837 0
M  V30 4007 H 360.862 -6.7795 3.84713 0
M  V30 4008 N 365.091 -1.34144 -0.827227 0
M  V30 4009 C 366.368 -1.16844 -1.56865 0
M  V30 4010 C 366.748 0.260654 -2.09485 0
M  V30 4011 O 366.096 1.26138 -1.9053 0
M  V30 4012 C 366.306 -2.21939 -2.6934 0
M  V30 4013 C 367.654 -2.56695 -3.3822 0
M  V30 4014 O 368.678 -2.20695 -2.79593 0
M  V30 4015 O 367.537 -3.18518 -4.44082 0
M  V30 4016 H 364.631 -0.452669 -0.692112 0
M  V30 4017 H 367.177 -1.45763 -0.868973 0
M  V30 4018 H 365.949 -3.17882 -2.28182 0
M  V30 4019 H 365.572 -1.94172 -3.46962 0
M  V30 4020 N 366.569 1.04691 -1.17803 0
M  V30 4021 C 367.817 1.7743 -0.967617 0
M  V30 4022 C 368.138 1.88359 0.504574 0
M  V30 4023 O 367.408 1.40402 1.36617 0
M  V30 4024 H 365.988 0.657242 -0.355024 0
M  V30 4025 H 368.65 1.2638 -1.48371 0
M  V30 4026 H 367.746 2.78924 -1.40027 0
M  V30 4027 N 368.047 0.979072 1.23499 0
M  V30 4028 C 368.994 0.517904 2.24914 0
M  V30 4029 C 369.964 -0.442525 1.60097 0
M  V30 4030 O 371.149 -0.350365 1.87556 0
M  V30 4031 C 368.289 -0.174813 3.44657 0
M  V30 4032 C 367.402 0.825721 4.24035 0
M  V30 4033 C 366.537 0.107946 5.3109 0
M  V30 4034 C 365.576 1.09778 6.02175 0
M  V30 4035 N 364.713 0.40925 7.00906 0
M  V30 4036 H 369.553 1.38751 2.63727 0
M  V30 4037 H 367.09 0.695303 1.2963 0
M  V30 4038 H 369.048 -0.593233 4.12961 0
M  V30 4039 H 367.678 -1.0083 3.06648 0
M  V30 4040 H 366.73 1.36253 3.55161 0
M  V30 4041 H 368.042 1.58005 4.73113 0
M  V30 4042 H 367.196 -0.367904 6.05583 0
M  V30 4043 H 365.935 -0.678994 4.8295 0
M  V30 4044 H 364.94 1.5844 5.26476 0
M  V30 4045 H 366.165 1.88536 6.52404 0
M  V30 4046 H 364.111 -0.358506 6.5502 0
M  V30 4047 H 364.028 1.10226 7.47921 0
M  V30 4048 H 365.296 -0.0442557 7.79487 0
M  V30 4049 N 369.525 -1.3858 0.750561 0
M  V30 4050 C 370.455 -2.33102 0.136237 0
M  V30 4051 C 371.436 -1.54713 -0.706965 0
M  V30 4052 O 372.621 -1.83043 -0.648769 0
M  V30 4053 C 369.751 -3.38882 -0.760017 0
M  V30 4054 C 368.705 -4.27995 -0.0197785 0
M  V30 4055 C 368.031 -5.24605 -1.03408 0
M  V30 4056 C 369.331 -5.09554 1.14684 0
M  V30 4057 H 371.025 -2.84726 0.925822 0
M  V30 4058 H 368.571 -1.36898 0.446654 0
M  V30 4059 H 370.524 -4.0397 -1.19943 0
M  V30 4060 H 369.248 -2.85734 -1.58189 0
M  V30 4061 H 367.907 -3.64409 0.400184 0
M  V30 4062 H 367.555 -4.67746 -1.84994 0
M  V30 4063 H 367.255 -5.85081 -0.543464 0
M  V30 4064 H 368.779 -5.9257 -1.47288 0
M  V30 4065 H 370.193 -5.67899 0.785118 0
M  V30 4066 H 368.59 -5.7925 1.56812 0
M  V30 4067 H 369.66 -4.4347 1.96118 0
M  V30 4068 N 371.003 -0.499398 -1.49478 0
M  V30 4069 C 371.95 0.279881 -2.29097 0
M  V30 4070 C 372.92 0.961805 -1.3542 0
M  V30 4071 O 374.105 0.968777 -1.64376 0
M  V30 4072 C 371.245 1.33932 -3.18051 0
M  V30 4073 C 370.358 0.669333 -4.26783 0
M  V30 4074 C 369.493 1.70907 -5.02955 0
M  V30 4075 C 368.532 1.02087 -6.03527 0
M  V30 4076 N 367.669 2.00474 -6.7287 0
M  V30 4077 H 372.509 -0.405317 -2.95231 0
M  V30 4078 H 370.046 -0.211726 -1.45568 0
M  V30 4079 H 372.004 1.96553 -3.67998 0
M  V30 4080 H 370.634 1.9933 -2.53904 0
M  V30 4081 H 369.686 -0.0701234 -3.80335 0
M  V30 4082 H 370.998 0.127503 -4.98637 0
M  V30 4083 H 370.152 2.41037 -5.56764 0
M  V30 4084 H 368.891 2.28476 -4.30871 0
M  V30 4085 H 367.896 0.305338 -5.48951 0
M  V30 4086 H 369.121 0.451708 -6.77596 0
M  V30 4087 H 367.067 2.57007 -6.03559 0
M  V30 4088 H 366.984 1.51353 -7.40694 0
M  V30 4089 H 368.252 2.69897 -7.31284 0
M  V30 4090 N 372.481 1.55866 -0.233164 0
M  V30 4091 C 373.711 2.02704 0.399325 0
M  V30 4092 C 374.119 1.11204 1.53069 0
M  V30 4093 O 373.462 0.116182 1.83332 0
M  V30 4094 C 373.524 3.45844 0.981429 0
M  V30 4095 C 373.188 4.56997 -0.0159561 0
M  V30 4096 C 374.185 5.13384 -0.820552 0
M  V30 4097 C 371.87 5.0211 -0.138072 0
M  V30 4098 C 373.864 6.13365 -1.73386 0
M  V30 4099 C 371.551 6.01926 -1.0549 0
M  V30 4100 C 372.549 6.57431 -1.85132 0
M  V30 4101 O 372.237 7.55302 -2.75272 0
M  V30 4102 H 371.969 0.668459 0.100692 0
M  V30 4103 H 374.523 2.02387 -0.35052 0
M  V30 4104 H 372.753 3.43267 1.78058 0
M  V30 4105 H 374.442 3.76262 1.52255 0
M  V30 4106 H 375.208 4.79372 -0.736721 0
M  V30 4107 H 371.087 4.5858 0.471737 0
M  V30 4108 H 374.631 6.56614 -2.35592 0
M  V30 4109 H 370.528 6.35359 -1.1397 0
M  V30 4110 H 371.296 7.72867 -2.69477 0
M  V30 4111 N 373.959 -0.0401083 1.57549 0
M  V30 4112 C 374.891 -1.07149 2.02612 0
M  V30 4113 C 375.904 -1.33126 0.937085 0
M  V30 4114 O 377.093 -1.30808 1.21456 0
M  V30 4115 C 374.193 -2.41561 2.37701 0
M  V30 4116 C 373.366 -2.35096 3.68848 0
M  V30 4117 C 372.425 -3.51867 3.91249 0
M  V30 4118 O 371.451 -3.3186 4.62447 0
M  V30 4119 N 372.653 -4.73351 3.36035 0
M  V30 4120 H 375.418 -0.687485 2.91708 0
M  V30 4121 H 372.979 -0.228248 1.60283 0
M  V30 4122 H 374.971 -3.18379 2.49833 0
M  V30 4123 H 373.541 -2.71846 1.54332 0
M  V30 4124 H 372.761 -1.4345 3.67173 0
M  V30 4125 H 374.049 -2.27908 4.54901 0
M  V30 4126 H 373.447 -4.92507 2.78304 0
M  V30 4127 H 372.004 -5.47572 3.53565 0
M  V30 4128 N 375.437 -1.54477 -0.31217 0
M  V30 4129 C 376.683 -1.73483 -1.0503 0
M  V30 4130 C 377.016 -0.513125 -1.87298 0
M  V30 4131 O 376.291 0.489864 -1.8823 0
M  V30 4132 C 376.574 -3.01723 -1.96558 0
M  V30 4133 C 376.427 -4.3417 -1.17545 0
M  V30 4134 C 377.746 -3.25772 -2.95907 0
M  V30 4135 H 374.865 -0.631222 -0.380432 0
M  V30 4136 H 377.507 -1.87184 -0.325932 0
M  V30 4137 H 375.657 -2.90174 -2.58324 0
M  V30 4138 H 377.329 -4.5762 -0.581513 0
M  V30 4139 H 375.572 -4.31159 -0.477925 0
M  V30 4140 H 376.243 -5.20143 -1.84811 0
M  V30 4141 H 378.719 -3.36857 -2.44267 0
M  V30 4142 H 377.595 -4.16838 -3.57123 0
M  V30 4143 H 377.856 -2.43537 -3.68974 0
M  V30 4144 N 376.915 0.57481 -1.46744 0
M  V30 4145 C 377.845 1.69337 -1.60771 0
M  V30 4146 C 378.826 1.63825 -0.457736 0
M  V30 4147 O 380.011 1.8172 -0.684947 0
M  V30 4148 C 377.141 3.0798 -1.60517 0
M  V30 4149 C 376.095 3.28327 -2.74564 0
M  V30 4150 C 375.421 4.67578 -2.59373 0
M  V30 4151 C 376.721 3.15398 -4.16319 0
M  V30 4152 H 378.415 1.57853 -2.54407 0
M  V30 4153 H 375.961 0.75799 -1.22436 0
M  V30 4154 H 377.914 3.86061 -1.68923 0
M  V30 4155 H 376.638 3.20381 -0.634305 0
M  V30 4156 H 375.297 2.52649 -2.65639 0
M  V30 4157 H 374.945 4.76755 -1.60353 0
M  V30 4158 H 374.645 4.82144 -3.35873 0
M  V30 4159 H 376.169 5.47817 -2.69682 0
M  V30 4160 H 377.583 3.83315 -4.26313 0
M  V30 4161 H 375.98 3.41482 -4.93468 0
M  V30 4162 H 377.05 2.12372 -4.3592 0
M  V30 4163 N 378.394 1.34581 0.820102 0
M  V30 4164 C 379.671 1.17675 1.56244 0
M  V30 4165 C 380.051 -0.249541 2.0962 0
M  V30 4166 O 379.399 -1.25125 1.91196 0
M  V30 4167 C 379.609 2.23364 2.6816 0
M  V30 4168 C 380.957 2.58485 3.36854 0
M  V30 4169 O 381.981 2.22175 2.78418 0
M  V30 4170 O 380.84 3.20868 4.42386 0
M  V30 4171 H 377.934 0.456333 0.689702 0
M  V30 4172 H 380.48 1.46222 0.861231 0
M  V30 4173 H 379.252 3.19087 2.26493 0
M  V30 4174 H 378.875 1.96009 3.45928 0
M  V30 4175 N 379.872 -1.04064 1.18357 0
M  V30 4176 C 381.12 -1.76915 0.977013 0
M  V30 4177 C 381.441 -1.88624 -0.494577 0
M  V30 4178 O 380.711 -1.41125 -1.3587 0
M  V30 4179 H 379.291 -0.65535 0.358504 0
M  V30 4180 H 381.953 -1.25592 1.49039 0
M  V30 4181 H 381.049 -2.78178 1.41504 0
M  V30 4182 N 381.35 -0.985608 -1.22978 0
M  V30 4183 C 382.26 -0.538548 -2.28335 0
M  V30 4184 C 383.276 0.409163 -1.69121 0
M  V30 4185 O 384.452 0.277797 -1.99475 0
M  V30 4186 C 381.517 0.146867 -3.46389 0
M  V30 4187 C 380.578 -0.842896 -4.20944 0
M  V30 4188 C 379.811 -0.190095 -5.33361 0
M  V30 4189 O 380.034 1.01767 -5.61248 0
M  V30 4190 O 378.968 -0.891289 -5.95264 0
M  V30 4191 H 382.794 -1.41487 -2.68729 0
M  V30 4192 H 380.379 -0.753495 -1.29007 0
M  V30 4193 H 382.261 0.531125 -4.1804 0
M  V30 4194 H 380.936 0.997871 -3.07935 0
M  V30 4195 H 379.843 -1.27795 -3.51595 0
M  V30 4196 H 381.176 -1.66287 -4.6326 0
M  V30 4197 N 382.828 1.3818 -0.7579 0
M  V30 4198 C 383.761 2.28055 -0.0814093 0
M  V30 4199 C 384.739 1.45603 0.723779 0
M  V30 4200 O 385.923 1.74961 0.701491 0
M  V30 4201 C 383.05 3.2676 0.891394 0
M  V30 4202 C 382.096 4.26153 0.171909 0
M  V30 4203 S 382.929 5.23434 -1.13035 0
M  V30 4204 C 384.085 6.25694 -0.160727 0
M  V30 4205 H 384.318 2.85082 -0.84353 0
M  V30 4206 H 381.851 1.44246 -0.550671 0
M  V30 4207 H 383.809 3.8414 1.44731 0
M  V30 4208 H 382.47 2.68706 1.62652 0
M  V30 4209 H 381.663 4.95738 0.908843 0
M  V30 4210 H 381.265 3.72691 -0.312606 0
M  V30 4211 H 383.557 6.74161 0.671773 0
M  V30 4212 H 384.5 7.03285 -0.824353 0
M  V30 4213 H 384.908 5.64064 0.221892 0
M  V30 4214 N 384.306 0.507319 1.49211 0
M  V30 4215 C 385.536 -0.0315292 2.06576 0
M  V30 4216 C 385.944 -1.30791 1.36713 0
M  V30 4217 O 385.287 -1.78324 0.441181 0
M  V30 4218 C 385.349 -0.349104 3.57801 0
M  V30 4219 C 385.013 0.830475 4.49391 0
M  V30 4220 C 386.01 1.72271 4.90529 0
M  V30 4221 C 383.695 1.03107 4.91604 0
M  V30 4222 C 385.689 2.79964 5.72625 0
M  V30 4223 C 383.376 2.11116 5.73475 0
M  V30 4224 C 384.374 2.99379 6.1389 0
M  V30 4225 O 384.062 4.05523 6.94123 0
M  V30 4226 H 383.794 0.0201002 0.675701 0
M  V30 4227 H 386.348 0.705737 1.92895 0
M  V30 4228 H 384.578 -1.14005 3.69513 0
M  V30 4229 H 386.267 -0.827319 3.97379 0
M  V30 4230 H 387.033 1.57958 4.58557 0
M  V30 4231 H 382.912 0.353417 4.59643 0
M  V30 4232 H 386.456 3.48884 6.04091 0
M  V30 4233 H 382.353 2.25421 6.0486 0
M  V30 4234 H 383.121 4.02953 7.1244 0
M  V30 4235 N 385.784 -1.5574 0.241426 0
M  V30 4236 C 387.195 -1.84842 -0.262755 0
M  V30 4237 C 387.546 -1.16317 -1.58003 0
M  V30 4238 O 386.671 -0.439653 -2.11887 0
M  V30 4239 C 387.266 -3.35332 -0.483523 0
M  V30 4240 C 385.825 -3.6468 -0.931977 0
M  V30 4241 C 384.972 -2.77299 -0.0061151 0
M  V30 4242 H 387.923 -1.51761 0.464129 0
M  V30 4243 H 387.944 -3.56615 -1.32688 0
M  V30 4244 H 387.456 -3.85178 0.47537 0
M  V30 4245 H 385.557 -3.20307 -1.90353 0
M  V30 4246 H 385.67 -4.72498 -0.792628 0
M  V30 4247 H 384.034 -2.49408 -0.516503 0
M  V30 4248 H 384.817 -3.2995 0.948052 0
M  V30 4249 N 387.262 0.0317525 -1.57568 0
M  V30 4250 C 388.673 0.578692 -1.77505 0
M  V30 4251 C 389.024 1.75749 -0.872164 0
M  V30 4252 O 388.149 2.16298 -0.0663106 0
M  V30 4253 C 388.744 1.05658 -3.21904 0
M  V30 4254 C 387.303 1.54906 -3.43047 0
M  V30 4255 C 386.45 0.485939 -2.73009 0
M  V30 4256 H 389.401 -0.194475 -1.57504 0
M  V30 4257 H 389.422 1.92404 -3.28269 0
M  V30 4258 H 388.934 0.198422 -3.87592 0
M  V30 4259 H 387.035 2.42915 -2.82529 0
M  V30 4260 H 387.148 1.59841 -4.5165 0
M  V30 4261 H 385.512 0.940354 -2.36705 0
M  V30 4262 H 386.295 -0.362709 -3.41379 0
M  V30 4263 N 388.74 1.54641 0.303973 0
M  V30 4264 C 389.965 1.78092 1.06292 0
M  V30 4265 C 390.39 0.537342 1.80262 0
M  V30 4266 O 389.748 -0.511993 1.7392 0
M  V30 4267 C 389.796 2.98612 2.02147 0
M  V30 4268 O 388.9 2.71528 3.10397 0
M  V30 4269 H 388.241 0.589548 0.305497 0
M  V30 4270 H 390.771 2.01716 0.3423 0
M  V30 4271 H 390.781 3.265 2.44667 0
M  V30 4272 H 389.456 3.88785 1.47714 0
M  V30 4273 H 388.033 2.54648 2.72413 0
M  V30 4274 N 390.218 -0.567019 1.47046 0
M  V30 4275 C 391.464 -1.32658 1.53394 0
M  V30 4276 C 391.797 -1.93254 0.19148 0
M  V30 4277 O 391.072 -1.77338 -0.798844 0
M  V30 4278 C 391.355 -2.44412 2.64452 0
M  V30 4279 C 391.208 -1.88749 4.08282 0
M  V30 4280 C 392.527 -3.46387 2.71485 0
M  V30 4281 H 389.646 -0.48098 0.558415 0
M  V30 4282 H 392.288 -0.635481 1.79058 0
M  V30 4283 H 390.438 -3.03363 2.427 0
M  V30 4284 H 392.11 -1.34134 4.41368 0
M  V30 4285 H 390.353 -1.19481 4.17021 0
M  V30 4286 H 391.024 -2.69491 4.81745 0
M  V30 4287 H 393.5 -2.9734 2.91081 0
M  V30 4288 H 392.376 -4.2202 3.50985 0
M  V30 4289 H 392.637 -4.04616 1.78153 0
M  V30 4290 N 391.696 -1.35014 -0.812953 0
M  V30 4291 C 392.606 -1.2951 -1.95613 0
M  V30 4292 C 393.622 -0.20107 -1.72834 0
M  V30 4293 O 394.798 -0.42932 -1.96771 0
M  V30 4294 C 391.863 -1.06033 -3.30088 0
M  V30 4295 C 390.924 -2.24688 -3.65805 0
M  V30 4296 C 390.157 -2.02322 -4.93864 0
M  V30 4297 O 390.38 -0.986464 -5.61805 0
M  V30 4298 O 389.314 -2.89525 -5.27692 0
M  V30 4299 H 393.14 -2.25705 -2.03202 0
M  V30 4300 H 390.725 -1.15321 -0.949811 0
M  V30 4301 H 392.607 -0.94763 -4.10607 0
M  V30 4302 H 391.282 -0.128852 -3.23443 0
M  V30 4303 H 390.189 -2.41521 -2.85689 0
M  V30 4304 H 391.522 -3.16261 -3.77147 0
M  V30 4305 N 393.175 1.03435 -1.18907 0
M  V30 4306 C 394.085 2.15075 -0.937015 0
M  V30 4307 C 395.101 1.73706 0.101085 0
M  V30 4308 O 396.277 2.01232 -0.0822948 0
M  V30 4309 C 393.342 3.43458 -0.473057 0
M  V30 4310 C 392.403 3.99172 -1.57989 0
M  V30 4311 C 391.636 5.21427 -1.13797 0
M  V30 4312 O 391.859 5.704 0.000725941 0
M  V30 4313 O 390.793 5.69837 -1.9383 0
M  V30 4314 H 394.619 2.39198 -1.87131 0
M  V30 4315 H 392.204 1.13506 -0.971427 0
M  V30 4316 H 394.086 4.20811 -0.222702 0
M  V30 4317 H 392.761 3.20793 0.432869 0
M  V30 4318 H 391.668 3.23178 -1.88433 0
M  V30 4319 H 393.001 4.2619 -2.46217 0
M  V30 4320 N 394.653 0.992116 1.22453 0
M  V30 4321 C 395.616 0.546883 2.2258 0
M  V30 4322 C 396.616 -0.369829 1.56489 0
M  V30 4323 O 397.806 -0.161896 1.73446 0
M  V30 4324 C 394.938 -0.204659 3.40285 0
M  V30 4325 H 396.131 1.43234 2.63484 0
M  V30 4326 H 393.684 0.779239 1.3549 0
M  V30 4327 H 394.419 -1.10614 3.04853 0
M  V30 4328 H 394.204 0.45354 3.89468 0
M  V30 4329 H 395.694 -0.504358 4.14543 0
M  V30 4330 N 396.131 -1.37776 0.765217 0
M  V30 4331 C 397.542 -1.82521 0.392819 0
M  V30 4332 C 397.893 -1.63789 -1.08017 0
M  V30 4333 O 397.018 -1.14542 -1.83601 0
M  V30 4334 C 397.613 -3.31358 0.706214 0
M  V30 4335 C 396.172 -3.74406 0.386952 0
M  V30 4336 C 395.319 -2.60394 0.953422 0
M  V30 4337 H 398.27 -1.2634 0.960412 0
M  V30 4338 H 398.291 -3.80498 -0.0114706 0
M  V30 4339 H 397.803 -3.44959 1.77833 0
M  V30 4340 H 395.904 -3.66377 -0.678112 0
M  V30 4341 H 396.017 -4.70749 0.890636 0
M  V30 4342 H 394.381 -2.51878 0.378064 0
M  V30 4343 H 395.164 -2.76791 2.03081 0
M  V30 4344 N 397.609 -0.515225 -1.4894 0
M  V30 4345 C 398.855 0.0242508 -2.02785 0
M  V30 4346 C 399.188 1.35323 -1.39289 0
M  V30 4347 O 398.463 1.87041 -0.533469 0
M  V30 4348 C 398.746 0.16184 -3.59736 0
M  V30 4349 C 398.599 -1.19127 -4.33738 0
M  V30 4350 C 399.918 0.895719 -4.30888 0
M  V30 4351 H 397.037 0.00733914 -0.736963 0
M  V30 4352 H 399.679 -0.669395 -1.77818 0
M  V30 4353 H 397.829 0.752624 -3.8114 0
M  V30 4354 H 399.501 -1.82202 -4.23792 0
M  V30 4355 H 397.744 -1.77695 -3.95736 0
M  V30 4356 H 398.415 -1.04815 -5.41957 0
M  V30 4357 H 400.891 0.394528 -4.14225 0
M  V30 4358 H 399.767 0.960859 -5.40425 0
M  V30 4359 H 400.028 1.9427 -3.97129 0
M  V30 4360 N 399.087 1.5561 -0.249682 0
M  V30 4361 C 400.017 2.24477 0.642826 0
M  V30 4362 C 400.998 1.22601 1.17911 0
M  V30 4363 O 402.183 1.5126 1.21795 0
M  V30 4364 C 399.313 2.94638 1.83863 0
M  V30 4365 C 398.267 4.03227 1.435 0
M  V30 4366 C 397.593 4.60828 2.71186 0
M  V30 4367 C 398.893 5.18796 0.604002 0
M  V30 4368 H 400.587 2.99321 0.0685625 0
M  V30 4369 H 398.133 1.43965 0.0315363 0
M  V30 4370 H 400.086 3.41517 2.46868 0
M  V30 4371 H 398.81 2.17287 2.43832 0
M  V30 4372 H 397.469 3.57121 0.828275 0
M  V30 4373 H 397.117 3.80174 3.29358 0
M  V30 4374 H 396.817 5.34132 2.44901 0
M  V30 4375 H 398.341 5.10442 3.35084 0
M  V30 4376 H 399.755 5.61883 1.13842 0
M  V30 4377 H 398.152 5.98506 0.437097 0
M  V30 4378 H 399.222 4.83384 -0.383147 0
M  V30 4379 N 400.565 -0.0233959 1.57583 0
M  V30 4380 C 401.498 -1.05549 2.02323 0
M  V30 4381 C 402.476 -1.34843 0.908626 0
M  V30 4382 O 403.66 -1.47404 1.17491 0
M  V30 4383 C 400.787 -2.38885 2.40108 0
M  V30 4384 C 399.833 -2.2541 3.62067 0
M  V30 4385 S 400.666 -1.60217 5.1097 0
M  V30 4386 C 401.822 -2.95032 5.52003 0
M  V30 4387 H 402.055 -0.674435 2.89549 0
M  V30 4388 H 399.588 -0.23355 1.52623 0
M  V30 4389 H 401.546 -3.15562 2.62547 0
M  V30 4390 H 400.207 -2.74137 1.53323 0
M  V30 4391 H 399.4 -3.23854 3.86179 0
M  V30 4392 H 399.002 -1.56876 3.39508 0
M  V30 4393 H 401.294 -3.91357 5.53033 0
M  V30 4394 H 402.237 -2.75646 6.52246 0
M  V30 4395 H 402.645 -2.97865 4.79517 0
M  V30 4396 N 402.043 -1.548 -0.295768 0
M  V30 4397 C 402.993 -1.82497 -1.3667 0
M  V30 4398 C 403.977 -0.682434 -1.45711 0
M  V30 4399 O 405.169 -0.943207 -1.49775 0
M  V30 4400 C 402.298 -2.08036 -2.73086 0
M  V30 4401 C 401.384 -3.28488 -2.68247 0
M  V30 4402 N 401.775 -4.48924 -2.33025 0
M  V30 4403 C 400.073 -3.3062 -2.99343 0
M  V30 4404 C 400.774 -5.30956 -2.37613 0
M  V30 4405 N 399.75 -4.68805 -2.75178 0
M  V30 4406 H 403.552 -2.73175 -1.0841 0
M  V30 4407 H 401.066 -1.5437 -0.504361 0
M  V30 4408 H 403.063 -2.26027 -3.5031 0
M  V30 4409 H 401.723 -1.18629 -3.02254 0
M  V30 4410 H 402.734 -4.75432 -2.05389 0
M  V30 4411 H 399.411 -2.51336 -3.33371 0
M  V30 4412 H 400.801 -6.37199 -2.13135 0
M  V30 4413 N 403.521 0.559213 -1.47345 0
M  V30 4414 C 404.751 1.33999 -1.57251 0
M  V30 4415 C 405.159 1.87905 -0.220978 0
M  V30 4416 O 404.502 1.65577 0.795617 0
M  V30 4417 C 404.564 2.54798 -2.53611 0
M  V30 4418 C 404.228 2.22192 -3.99349 0
M  V30 4419 C 405.225 1.79607 -4.87891 0
M  V30 4420 C 402.91 2.33613 -4.44669 0
M  V30 4421 C 404.904 1.48868 -6.19772 0
M  V30 4422 C 402.591 2.02487 -5.76578 0
M  V30 4423 C 403.589 1.60183 -6.63951 0
M  V30 4424 O 403.277 1.29451 -7.93409 0
M  V30 4425 H 403.009 0.414858 -0.533731 0
M  V30 4426 H 405.563 0.684465 -1.9366 0
M  V30 4427 H 403.793 3.23235 -2.12265 0
M  V30 4428 H 405.482 3.16873 -2.53666 0
M  V30 4429 H 406.248 1.70278 -4.54126 0
M  V30 4430 H 402.127 2.65501 -3.76869 0
M  V30 4431 H 405.671 1.15775 -6.87926 0
M  V30 4432 H 401.568 2.11448 -6.09885 0
M  V30 4433 H 402.336 1.43098 -8.05894 0
M  V30 4434 N 404.999 1.35443 0.805782 0
M  V30 4435 C 406.41 1.25768 1.37983 0
M  V30 4436 C 406.761 -0.10958 1.95894 0
M  V30 4437 O 405.886 -1.01056 1.91355 0
M  V30 4438 C 406.481 2.27727 2.5085 0
M  V30 4439 C 405.04 2.2179 3.04115 0
M  V30 4440 C 404.187 2.13393 1.77084 0
M  V30 4441 H 407.138 1.4656 0.608752 0
M  V30 4442 H 407.159 1.90422 3.29424 0
M  V30 4443 H 406.671 3.27227 2.08671 0
M  V30 4444 H 404.772 1.25703 3.50756 0
M  V30 4445 H 404.885 3.13788 3.62042 0
M  V30 4446 H 403.249 1.59384 1.98668 0
M  V30 4447 H 404.032 3.14755 1.37056 0
M  V30 4448 N 406.477 -1.02803 1.19454 0
M  V30 4449 C 407.893 -1.28473 0.946937 0
M  V30 4450 C 408.093 -1.97881 -0.380202 0
M  V30 4451 O 407.149 -2.26719 -1.11151 0
M  V30 4452 C 408.462 -2.13099 2.12154 0
M  V30 4453 C 410.01 -2.26404 2.16126 0
M  V30 4454 C 410.485 -3.14402 3.33039 0
M  V30 4455 N 411.976 -3.21991 3.32981 0
M  V30 4456 C 412.711 -3.90272 4.20089 0
M  V30 4457 N 412.207 -4.60777 5.17355 0
M  V30 4458 N 414 -3.8668 4.07964 0
M  V30 4459 H 406.151 -0.561665 2.04839 0
M  V30 4460 H 408.414 -0.310438 0.89573 0
M  V30 4461 H 408.12 -1.69422 3.08203 0
M  V30 4462 H 407.994 -3.13813 2.09287 0
M  V30 4463 H 410.381 -2.69311 1.20647 0
M  V30 4464 H 410.462 -1.25237 2.23045 0
M  V30 4465 H 410.106 -2.72204 4.28798 0
M  V30 4466 H 410.036 -4.1563 3.23356 0
M  V30 4467 H 412.527 -2.71778 2.62574 0
M  V30 4468 H 412.84 -5.10513 5.80169 0
M  V30 4469 H 411.185 -4.5964 5.21302 0
M  V30 4470 H 414.376 -3.30739 3.31254 0
M  V30 4471 H 414.549 -4.39621 4.76064 0
M  V30 4472 N 407.956 -0.998596 -1.21925 0
M  V30 4473 C 409.204 -0.676325 -1.90448 0
M  V30 4474 C 409.525 0.794719 -1.78071 0
M  V30 4475 O 408.795 1.5701 -1.17152 0
M  V30 4476 H 407.375 -0.247165 -0.704925 0
M  V30 4477 H 410.037 -1.26633 -1.48156 0
M  V30 4478 H 409.133 -0.943858 -2.97486 0
M  V30 4479 N 409.434 1.37368 -0.772513 0
M  V30 4480 C 410.683 1.98918 -0.333861 0
M  V30 4481 C 410.996 1.62017 1.09589 0
M  V30 4482 O 412.202 2.16676 1.63596 0
M  V30 4483 C 410.658 3.55735 -0.545971 0
M  V30 4484 C 410.266 4.01573 -1.98603 0
M  V30 4485 C 412.01 4.24156 -0.170979 0
M  V30 4486 C 409.917 5.51102 -2.1457 0
M  V30 4487 H 408.847 0.744214 -0.121085 0
M  V30 4488 H 411.498 1.56888 -0.95175 0
M  V30 4489 H 409.88 3.95748 0.141387 0
M  V30 4490 H 411.054 3.72803 -2.7084 0
M  V30 4491 H 409.369 3.45937 -2.31769 0
M  V30 4492 H 411.966 5.34024 -0.26878 0
M  V30 4493 H 412.309 4.06917 0.878855 0
M  V30 4494 H 412.842 3.89447 -0.810914 0
M  V30 4495 H 409.581 5.73268 -3.17875 0
M  V30 4496 H 409.101 5.81554 -1.46817 0
M  V30 4497 H 410.78 6.17083 -1.94468 0
M  V30 4498 N 410.912 0.523116 1.48665 0
M  V30 4499 C 412.323 0.0808997 1.86525 0
M  V30 4500 C 412.674 -1.33975 1.43336 0
M  V30 4501 O 411.799 -2.00221 0.821009 0
M  V30 4502 C 412.394 0.140037 3.3851 0
M  V30 4503 C 410.953 -0.246948 3.75589 0
M  V30 4504 C 410.1 0.502845 2.72703 0
M  V30 4505 H 413.051 0.734736 1.40667 0
M  V30 4506 H 413.072 -0.649945 3.74908 0
M  V30 4507 H 412.584 1.17412 3.69914 0
M  V30 4508 H 410.685 -1.28343 3.49798 0
M  V30 4509 H 410.798 0.0878859 4.79019 0
M  V30 4510 H 409.162 -0.0500581 2.54651 0
M  V30 4511 H 409.945 1.53743 3.0695 0
M  V30 4512 N 412.39 -1.55475 0.257931 0
M  V30 4513 C 413.801 -1.8511 -0.243135 0
M  V30 4514 C 414.152 -1.17986 -1.5676 0
M  V30 4515 O 413.277 -0.462102 -2.11409 0
M  V30 4516 C 413.872 -3.35826 -0.447929 0
M  V30 4517 C 412.431 -3.65647 -0.893245 0
M  V30 4518 C 411.578 -2.7729 0.0232965 0
M  V30 4519 H 414.529 -1.51261 0.480199 0
M  V30 4520 H 414.55 -3.58002 -1.28898 0
M  V30 4521 H 414.062 -3.84652 0.516196 0
M  V30 4522 H 412.163 -3.22308 -1.86945 0
M  V30 4523 H 412.276 -4.73312 -0.742469 0
M  V30 4524 H 410.64 -2.49942 -0.490021 0
M  V30 4525 H 411.423 -3.28926 0.982994 0
M  V30 4526 N 413.868 0.0150385 -1.57593 0
M  V30 4527 C 414.8 1.03912 -2.04291 0
M  V30 4528 C 415.813 1.31618 -0.958146 0
M  V30 4529 O 417.002 1.28859 -1.23522 0
M  V30 4530 C 414.102 2.37749 -2.41514 0
M  V30 4531 C 413.275 2.29198 -3.72541 0
M  V30 4532 C 412.334 3.45598 -3.96797 0
M  V30 4533 O 411.36 3.24461 -4.67668 0
M  V30 4534 N 412.562 4.67945 -3.43523 0
M  V30 4535 H 415.327 0.64099 -2.92765 0
M  V30 4536 H 412.888 0.20272 -1.60626 0
M  V30 4537 H 414.88 3.14364 -2.54867 0
M  V30 4538 H 413.45 2.69357 -1.58637 0
M  V30 4539 H 412.67 1.3759 -3.69408 0
M  V30 4540 H 413.958 2.20642 -4.5847 0
M  V30 4541 H 413.356 4.88017 -2.86104 0
M  V30 4542 H 411.913 5.41878 -3.62232 0
M  V30 4543 N 415.346 1.54954 0.287554 0
M  V30 4544 C 416.571 1.79209 1.04397 0
M  V30 4545 C 416.996 0.556431 1.79682 0
M  V30 4546 O 416.354 -0.493518 1.74454 0
M  V30 4547 C 416.402 3.00739 1.98969 0
M  V30 4548 O 415.506 2.74805 3.075 0
M  V30 4549 H 414.847 0.592755 0.299227 0
M  V30 4550 H 417.377 2.02068 0.320886 0
M  V30 4551 H 417.387 3.29077 2.4119 0
M  V30 4552 H 416.062 3.90329 1.43582 0
M  V30 4553 H 414.639 2.57523 2.69697 0
M  V30 4554 N 416.824 -0.551391 1.4764 0
M  V30 4555 C 417.756 -1.67333 1.56628 0
M  V30 4556 C 418.769 -1.56398 0.452045 0
M  V30 4557 O 419.958 -1.6325 0.721926 0
M  V30 4558 C 417.058 -3.05841 1.45994 0
M  V30 4559 C 416.231 -3.42472 2.72088 0
M  V30 4560 C 415.29 -4.60168 2.55209 0
M  V30 4561 O 414.316 -4.64458 3.2904 0
M  V30 4562 N 415.518 -5.57024 1.63416 0
M  V30 4563 H 418.283 -1.60066 2.53375 0
M  V30 4564 H 415.844 -0.738169 1.44093 0
M  V30 4565 H 417.836 -3.8242 1.32428 0
M  V30 4566 H 416.406 -3.07302 0.573071 0
M  V30 4567 H 415.626 -2.55284 3.00373 0
M  V30 4568 H 416.914 -3.63723 3.55785 0
M  V30 4569 H 416.312 -5.56319 1.02594 0
M  V30 4570 H 414.869 -6.32906 1.558 0
M  V30 4571 N 418.302 -1.35869 -0.798587 0
M  V30 4572 C 419.235 -1.23801 -1.91699 0
M  V30 4573 C 420.213 -0.124143 -1.62125 0
M  V30 4574 O 421.397 -0.293656 -1.86199 0
M  V30 4575 C 418.524 -0.908063 -3.263 0
M  V30 4576 C 417.57 -2.0351 -3.74815 0
M  V30 4577 S 418.403 -3.65183 -3.91665 0
M  V30 4578 C 419.559 -3.34283 -5.29156 0
M  V30 4579 H 419.792 -2.18466 -2.01643 0
M  V30 4580 H 417.325 -1.21178 -0.956833 0
M  V30 4581 H 419.283 -0.724506 -4.04056 0
M  V30 4582 H 417.944 0.0206584 -3.14093 0
M  V30 4583 H 417.137 -1.75858 -4.72324 0
M  V30 4584 H 416.739 -2.1774 -3.04081 0
M  V30 4585 H 419.031 -2.87607 -6.13424 0
M  V30 4586 H 419.974 -4.31022 -5.61806 0
M  V30 4587 H 420.382 -2.69854 -4.95822 0
M  V30 4588 N 419.78 1.02168 -1.19998 0
M  V30 4589 C 420.743 2.08765 -0.94604 0
M  V30 4590 C 421.743 1.60618 0.0763846 0
M  V30 4591 O 422.933 1.73472 -0.159135 0
M  V30 4592 C 420.065 3.38262 -0.423255 0
M  V30 4593 H 421.258 2.32726 -1.89153 0
M  V30 4594 H 418.811 1.1889 -1.01464 0
M  V30 4595 H 419.546 3.19974 0.527938 0
M  V30 4596 H 419.331 3.74532 -1.16053 0
M  V30 4597 H 420.821 4.16759 -0.264911 0
M  V30 4598 N 421.258 1.00505 1.21394 0
M  V30 4599 C 422.504 0.688793 1.90745 0
M  V30 4600 C 422.837 -0.778486 1.77914 0
M  V30 4601 O 422.112 -1.56433 1.15581 0
M  V30 4602 C 422.395 1.11063 3.42545 0
M  V30 4603 C 422.248 2.63737 3.64367 0
M  V30 4604 C 423.567 0.673059 4.34923 0
M  V30 4605 H 420.686 0.251702 0.692687 0
M  V30 4606 H 423.328 1.25074 1.43026 0
M  V30 4607 H 421.478 0.632508 3.83317 0
M  V30 4608 H 423.15 3.19313 3.32922 0
M  V30 4609 H 421.393 3.05248 3.08231 0
M  V30 4610 H 422.064 2.88305 4.70727 0
M  V30 4611 H 424.54 1.08392 4.01734 0
M  V30 4612 H 423.416 0.996383 5.39781 0
M  V30 4613 H 423.677 -0.425808 4.40045 0
M  V30 4614 N 422.737 -1.36956 0.779787 0
M  V30 4615 C 423.985 -1.99097 0.347079 0
M  V30 4616 C 424.306 -1.62206 -1.08232 0
M  V30 4617 O 423.576 -0.891373 -1.74446 0
M  V30 4618 H 422.156 -0.736409 0.125342 0
M  V30 4619 H 424.818 -1.67308 0.999696 0
M  V30 4620 H 423.914 -3.09107 0.431162 0
M  V30 4621 N 424.215 -0.530993 -1.48385 0
M  V30 4622 C 425.147 0.268353 -2.27624 0
M  V30 4623 C 426.16 0.903525 -1.35426 0
M  V30 4624 O 427.349 0.781796 -1.60469 0
M  V30 4625 C 424.449 1.39535 -3.08842 0
M  V30 4626 C 423.622 0.861913 -4.28824 0
M  V30 4627 C 422.681 1.87016 -4.91845 0
M  V30 4628 O 421.707 1.4267 -5.5103 0
M  V30 4629 N 422.909 3.20238 -4.84178 0
M  V30 4630 H 425.674 -0.41123 -2.96865 0
M  V30 4631 H 423.235 -0.365387 -1.57723 0
M  V30 4632 H 425.227 2.06803 -3.47871 0
M  V30 4633 H 423.797 1.97859 -2.42014 0
M  V30 4634 H 423.017 0.0132126 -3.94198 0
M  V30 4635 H 424.305 0.484415 -5.06489 0
M  V30 4636 H 423.703 3.58932 -4.37246 0
M  V30 4637 H 422.26 3.83136 -5.27305 0
M  V30 4638 N 425.693 1.55336 -0.266172 0
M  V30 4639 C 426.603 2.2583 0.635458 0
M  V30 4640 C 427.619 1.28106 1.17749 0
M  V30 4641 O 428.795 1.61024 1.20968 0
M  V30 4642 C 425.86 2.95879 1.80712 0
M  V30 4643 C 424.921 4.09059 1.30265 0
M  V30 4644 C 424.154 4.75759 2.41846 0
M  V30 4645 O 424.377 4.41622 3.61007 0
M  V30 4646 O 423.311 5.63888 2.1051 0
M  V30 4647 H 427.137 3.03631 0.0646693 0
M  V30 4648 H 424.722 1.49361 -0.0339177 0
M  V30 4649 H 426.604 3.39932 2.49047 0
M  V30 4650 H 425.279 2.21002 2.36516 0
M  V30 4651 H 424.186 3.69482 0.586019 0
M  V30 4652 H 425.519 4.85811 0.790458 0
M  V30 4653 N 427.171 -0.0066808 1.57599 0
M  V30 4654 C 428.417 -0.693947 1.90558 0
M  V30 4655 C 428.75 -1.73792 0.866594 0
M  V30 4656 O 428.025 -1.94156 -0.115548 0
M  V30 4657 C 428.308 -1.34317 3.34112 0
M  V30 4658 C 428.161 -0.311189 4.48722 0
M  V30 4659 C 429.48 -2.27116 3.7697 0
M  V30 4660 H 426.599 -0.250803 0.693013 0
M  V30 4661 H 429.241 0.043242 1.89951 0
M  V30 4662 H 427.391 -1.9715 3.3476 0
M  V30 4663 H 429.063 0.316944 4.6021 0
M  V30 4664 H 427.306 0.367253 4.32243 0
M  V30 4665 H 427.977 -0.804366 5.46108 0
M  V30 4666 H 430.453 -1.74306 3.77831 0
M  V30 4667 H 429.329 -2.69511 4.78179 0
M  V30 4668 H 429.59 -3.14743 3.10466 0
M  V30 4669 N 428.649 -1.55105 -0.279332 0
M  V30 4670 C 429.896 -1.75412 -1.01177 0
M  V30 4671 C 430.224 -0.551728 -1.86511 0
M  V30 4672 O 429.479 0.465919 -1.90073 0
M  V30 4673 C 429.778 -3.0086 -1.92919 0
M  V30 4674 C 429.444 -4.33689 -1.23387 0
M  V30 4675 C 428.106 -4.69792 -1.04159 0
M  V30 4676 C 430.458 -5.15941 -0.738562 0
M  V30 4677 C 427.786 -5.85707 -0.341166 0
M  V30 4678 C 430.138 -6.32579 -0.0517636 0
M  V30 4679 C 428.802 -6.67326 0.152292 0
M  V30 4680 H 428.072 -0.641879 -0.370233 0
M  V30 4681 H 430.719 -1.89373 -0.284627 0
M  V30 4682 H 429.024 -2.81773 -2.72234 0
M  V30 4683 H 430.721 -3.13768 -2.49701 0
M  V30 4684 H 427.311 -4.05309 -1.39364 0
M  V30 4685 H 431.495 -4.8853 -0.874764 0
M  V30 4686 H 426.751 -6.11157 -0.172287 0
M  V30 4687 H 430.925 -6.9557 0.339828 0
M  V30 4688 H 428.552 -7.56998 0.697014 0
M  V30 4689 N 430.127 0.543554 -1.4793 0
M  V30 4690 C 431.375 1.29752 -1.54948 0
M  V30 4691 C 431.696 1.93764 -0.219242 0
M  V30 4692 O 430.966 1.80639 0.75805 0
M  V30 4693 H 429.546 0.481874 -0.570795 0
M  V30 4694 H 432.208 0.633636 -1.84312 0
M  V30 4695 H 431.304 2.08392 -2.32334 0
M  V30 4696 N 431.605 1.3629 0.791371 0
M  V30 4697 C 432.535 1.33137 1.91825 0
M  V30 4698 C 433.516 0.203168 1.68882 0
M  V30 4699 O 434.701 0.400509 1.90025 0
M  V30 4700 C 431.831 1.11793 3.28816 0
M  V30 4701 C 430.785 2.21417 3.66277 0
M  V30 4702 C 430.111 1.85218 5.01596 0
M  V30 4703 C 431.411 3.63489 3.75064 0
M  V30 4704 H 433.105 2.2743 1.9472 0
M  V30 4705 H 430.651 1.09479 0.935437 0
M  V30 4706 H 432.604 1.08222 4.07266 0
M  V30 4707 H 431.328 0.139501 3.26302 0
M  V30 4708 H 429.987 2.2411 2.90121 0
M  V30 4709 H 429.635 0.859544 4.95602 0
M  V30 4710 H 429.335 2.58611 5.27631 0
M  V30 4711 H 430.859 1.832 5.82469 0
M  V30 4712 H 432.273 3.63034 4.43711 0
M  V30 4713 H 430.67 4.35771 4.12582 0
M  V30 4714 H 431.74 3.98536 2.76219 0
M  V30 4715 N 433.083 -1.0153 1.20538 0
M  V30 4716 C 434.013 -2.11972 0.979295 0
M  V30 4717 C 434.994 -1.6985 -0.0921787 0
M  V30 4718 O 436.179 -1.94089 0.0655932 0
M  V30 4719 C 433.309 -3.43201 0.531984 0
M  V30 4720 C 432.263 -3.9907 1.54685 0
M  V30 4721 C 431.589 -5.26082 0.956127 0
M  V30 4722 C 432.889 -4.32313 2.93092 0
M  V30 4723 H 434.583 -2.31143 1.90298 0
M  V30 4724 H 432.129 -1.11079 0.916372 0
M  V30 4725 H 434.082 -4.1985 0.361044 0
M  V30 4726 H 432.806 -3.23792 -0.427327 0
M  V30 4727 H 431.465 -3.2453 1.70517 0
M  V30 4728 H 431.113 -5.02999 -0.0111538 0
M  V30 4729 H 430.813 -5.64426 1.63393 0
M  V30 4730 H 432.337 -6.05386 0.796284 0
M  V30 4731 H 433.751 -4.99845 2.80763 0
M  V30 4732 H 432.148 -4.81774 3.57791 0
M  V30 4733 H 433.218 -3.41025 3.44717 0
M  V30 4734 N 434.561 -1.01147 -1.20859 0
M  V30 4735 C 435.972 -0.730205 -1.71828 0
M  V30 4736 C 436.323 0.751662 -1.8123 0
M  V30 4737 O 435.448 1.58686 -1.47132 0
M  V30 4738 C 436.043 -1.31885 -3.12077 0
M  V30 4739 C 434.602 -1.08656 -3.60376 0
M  V30 4740 C 433.749 -1.42769 -2.37723 0
M  V30 4741 H 436.7 -1.18158 -1.05945 0
M  V30 4742 H 436.721 -0.706793 -3.73878 0
M  V30 4743 H 436.233 -2.39737 -3.05201 0
M  V30 4744 H 434.334 -0.0254814 -3.72591 0
M  V30 4745 H 434.447 -1.76301 -4.45483 0
M  V30 4746 H 432.811 -0.846603 -2.40218 0
M  V30 4747 H 433.594 -2.51666 -2.33493 0
M  V30 4748 N 436.039 1.36541 -0.78704 0
M  V30 4749 C 437.287 1.98911 -0.357633 0
M  V30 4750 C 437.608 1.62778 1.07371 0
M  V30 4751 O 436.878 0.900612 1.73971 0
M  V30 4752 H 435.458 0.735734 -0.129246 0
M  V30 4753 H 438.12 1.66776 -1.00855 0
M  V30 4754 H 437.216 3.08874 -0.447549 0
M  V30 4755 N 437.518 0.538854 1.48102 0
M  V30 4756 C 438.448 -0.207654 2.32575 0
M  V30 4757 C 439.429 -0.926559 1.4265 0
M  V30 4758 O 440.614 -0.91061 1.71527 0
M  V30 4759 C 437.744 -1.24957 3.24042 0
M  V30 4760 C 436.698 -0.648263 4.23062 0
M  V30 4761 C 436.024 -1.79348 5.03725 0
M  V30 4762 C 437.324 0.385897 5.20872 0
M  V30 4763 H 439.018 0.497534 2.95237 0
M  V30 4764 H 436.564 0.240715 1.41974 0
M  V30 4765 H 438.517 -1.77983 3.81969 0
M  V30 4766 H 437.241 -1.98446 2.59397 0
M  V30 4767 H 435.9 -0.139452 3.66335 0
M  V30 4768 H 435.548 -2.51696 4.35498 0
M  V30 4769 H 435.248 -1.39702 5.70751 0
M  V30 4770 H 436.772 -2.32735 5.64506 0
M  V30 4771 H 438.186 -0.057607 5.73271 0
M  V30 4772 H 436.583 0.700227 5.96001 0
M  V30 4773 H 437.653 1.28848 4.67468 0
M  V30 4774 N 438.996 -1.55193 0.274407 0
M  V30 4775 C 439.929 -2.18606 -0.654712 0
M  V30 4776 C 440.907 -1.14677 -1.15273 0
M  V30 4777 O 442.091 -1.43198 -1.22583 0
M  V30 4778 C 439.218 -2.80875 -1.89281 0
M  V30 4779 C 438.264 -3.981 -1.53032 0
M  V30 4780 S 439.097 -5.32025 -0.609107 0
M  V30 4781 C 440.253 -5.97761 -1.85559 0
M  V30 4782 H 440.486 -2.97074 -0.115894 0
M  V30 4783 H 438.019 -1.54288 0.05867 0
M  V30 4784 H 439.977 -3.17381 -2.60345 0
M  V30 4785 H 438.638 -2.02302 -2.40277 0
M  V30 4786 H 437.831 -4.40356 -2.45158 0
M  V30 4787 H 437.433 -3.63013 -0.899874 0
M  V30 4788 H 439.725 -6.16951 -2.7996 0
M  V30 4789 H 440.668 -6.92545 -1.47605 0
M  V30 4790 H 441.076 -5.27113 -2.02021 0
M  V30 4791 N 440.474 -0.00167713 -1.576 0
M  V30 4792 C 441.404 0.988091 -2.11563 0
M  V30 4793 C 442.385 1.35736 -1.02517 0
M  V30 4794 O 443.57 1.44082 -1.30208 0
M  V30 4795 C 440.7 2.27941 -2.62031 0
M  V30 4796 C 439.654 2.0517 -3.75619 0
M  V30 4797 C 438.98 3.4033 -4.12407 0
M  V30 4798 C 440.28 1.41294 -5.02825 0
M  V30 4799 H 441.974 0.538771 -2.94513 0
M  V30 4800 H 439.52 0.257712 -1.41675 0
M  V30 4801 H 441.473 2.97539 -2.9841 0
M  V30 4802 H 440.197 2.74989 -1.76205 0
M  V30 4803 H 438.856 1.37998 -3.39635 0
M  V30 4804 H 438.504 3.85085 -3.23603 0
M  V30 4805 H 438.204 3.25909 -4.88935 0
M  V30 4806 H 439.728 4.1124 -4.51347 0
M  V30 4807 H 441.142 2.00851 -5.36965 0
M  V30 4808 H 439.539 1.37356 -5.84169 0
M  V30 4809 H 440.609 0.382362 -4.8339 0
M  V30 4810 N 441.952 1.55251 0.271103 0
M  V30 4811 C 443.182 1.79713 1.01916 0
M  V30 4812 C 443.59 0.571613 1.80359 0
M  V30 4813 O 442.933 -0.468853 1.77616 0
M  V30 4814 C 442.995 2.97138 2.02359 0
M  V30 4815 C 442.659 4.34104 1.42837 0
M  V30 4816 C 443.656 5.13019 0.843071 0
M  V30 4817 C 441.341 4.80765 1.455 0
M  V30 4818 C 443.335 6.36729 0.292333 0
M  V30 4819 C 441.022 6.0443 0.900402 0
M  V30 4820 C 442.02 6.8225 0.32007 0
M  V30 4821 O 441.708 8.03582 -0.226031 0
M  V30 4822 H 441.44 0.602431 0.306681 0
M  V30 4823 H 443.994 2.03097 0.306701 0
M  V30 4824 H 442.224 2.6945 2.77369 0
M  V30 4825 H 443.913 3.08907 2.63309 0
M  V30 4826 H 444.679 4.781 0.815178 0
M  V30 4827 H 440.558 4.20202 1.89609 0
M  V30 4828 H 444.102 6.97414 -0.161274 0
M  V30 4829 H 439.999 6.3883 0.925541 0
M  V30 4830 H 440.767 8.18418 -0.115572 0
M  V30 4831 N 443.43 -0.535701 1.48216 0
M  V30 4832 C 444.393 -1.623 1.61838 0
M  V30 4833 C 445.393 -1.53087 0.492024 0
M  V30 4834 O 446.583 -1.5686 0.757668 0
M  V30 4835 C 443.715 -3.01907 1.58319 0
M  V30 4836 H 444.908 -1.51564 2.58783 0
M  V30 4837 H 442.461 -0.757317 1.36727 0
M  V30 4838 H 443.196 -3.18155 0.628299 0
M  V30 4839 H 442.981 -3.10003 2.40085 0
M  V30 4840 H 444.471 -3.80969 1.71033 0
M  V30 4841 N 444.908 -1.36708 -0.784132 0
M  V30 4842 C 446.136 -1.34398 -1.57305 0
M  V30 4843 C 446.551 0.0735577 -1.88657 0
M  V30 4844 O 445.908 1.03193 -1.50524 0
M  V30 4845 C 445.959 -2.17053 -2.89085 0
M  V30 4846 O 445.68 -3.53281 -2.59083 0
M  V30 4847 C 447.181 -2.22583 -3.83369 0
M  V30 4848 H 444.401 -0.460819 -0.487736 0
M  V30 4849 H 446.945 -1.79879 -0.972819 0
M  V30 4850 H 445.1 -1.75113 -3.45564 0
M  V30 4851 H 445.514 -3.9647 -3.43383 0
M  V30 4852 H 446.988 -2.84763 -4.72878 0
M  V30 4853 H 447.465 -1.23075 -4.21603 0
M  V30 4854 H 448.071 -2.64781 -3.32823 0
M  V30 4855 N 446.386 1.0089 -1.21074 0
M  V30 4856 C 447.316 2.1145 -0.990523 0
M  V30 4857 C 448.297 1.69897 0.0831699 0
M  V30 4858 O 449.482 1.94052 -0.0758853 0
M  V30 4859 C 446.612 3.42914 -0.550177 0
M  V30 4860 C 445.566 3.98244 -1.56799 0
M  V30 4861 C 444.892 5.25568 -0.984013 0
M  V30 4862 C 446.192 4.30752 -2.95381 0
M  V30 4863 H 447.886 2.3013 -1.91521 0
M  V30 4864 H 445.432 1.10592 -0.92225 0
M  V30 4865 H 447.385 4.19653 -0.383305 0
M  V30 4866 H 446.109 3.24014 0.41015 0
M  V30 4867 H 444.768 3.23621 -1.72236 0
M  V30 4868 H 444.416 5.02998 -0.0155216 0
M  V30 4869 H 444.116 5.63551 -1.66384 0
M  V30 4870 H 445.64 6.04955 -0.828378 0
M  V30 4871 H 447.054 4.98349 -2.8341 0
M  V30 4872 H 445.451 4.79869 -3.60341 0
M  V30 4873 H 446.521 3.39192 -3.46521 0
M  V30 4874 N 447.864 1.01787 1.20321 0
M  V30 4875 C 449.11 0.718699 1.90279 0
M  V30 4876 C 449.465 -0.743669 1.77447 0
M  V30 4877 O 448.758 -1.53345 1.14874 0
M  V30 4878 C 448.952 1.09076 3.40349 0
M  V30 4879 C 448.781 2.58775 3.67784 0
M  V30 4880 C 447.551 3.25578 3.86428 0
M  V30 4881 C 449.749 3.56966 3.70243 0
M  V30 4882 N 447.731 4.64495 4.01395 0
M  V30 4883 C 449.102 4.8145 3.90649 0
M  V30 4884 C 451.157 3.5092 3.53213 0
M  V30 4885 C 449.86 6.00619 3.95789 0
M  V30 4886 C 451.886 4.69493 3.59625 0
M  V30 4887 C 451.248 5.92786 3.80505 0
M  V30 4888 H 447.347 0.31468 0.715891 0
M  V30 4889 H 449.931 1.30295 1.44677 0
M  V30 4890 H 448.102 0.534839 3.847 0
M  V30 4891 H 449.834 0.744997 3.97784 0
M  V30 4892 H 446.589 2.76003 3.84862 0
M  V30 4893 H 447.013 5.36624 4.12752 0
M  V30 4894 H 451.655 2.56593 3.36035 0
M  V30 4895 H 449.373 6.95326 4.11762 0
M  V30 4896 H 452.959 4.66432 3.47754 0
M  V30 4897 H 451.839 6.83003 3.85327 0
M  V30 4898 N 449.342 -1.36122 0.79427 0
M  V30 4899 C 450.272 -2.32551 0.210328 0
M  V30 4900 C 451.253 -1.56884 -0.657386 0
M  V30 4901 O 452.438 -1.85014 -0.590207 0
M  V30 4902 C 449.568 -3.41128 -0.651819 0
M  V30 4903 C 448.522 -4.27842 0.116395 0
M  V30 4904 C 447.848 -5.2763 -0.86666 0
M  V30 4905 C 449.148 -5.05647 1.30837 0
M  V30 4906 H 450.842 -2.81636 1.01594 0
M  V30 4907 H 448.388 -1.35407 0.489981 0
M  V30 4908 H 450.341 -4.07581 -1.07031 0
M  V30 4909 H 449.065 -2.90622 -1.49019 0
M  V30 4910 H 447.724 -3.62952 0.515915 0
M  V30 4911 H 447.372 -4.73395 -1.70019 0
M  V30 4912 H 447.072 -5.86514 -0.35705 0
M  V30 4913 H 448.596 -5.96955 -1.28361 0
M  V30 4914 H 450.01 -5.65113 0.965393 0
M  V30 4915 H 448.407 -5.73967 1.75161 0
M  V30 4916 H 449.477 -4.37006 2.10128 0
M  V30 4917 N 450.82 -0.546701 -1.47814 0
M  V30 4918 C 452.236 -0.205717 -1.58269 0
M  V30 4919 C 452.436 1.29153 -1.54667 0
M  V30 4920 O 451.492 2.07098 -1.44453 0
M  V30 4921 C 452.805 -0.823065 -2.89216 0
M  V30 4922 C 454.353 -0.793328 -3.02779 0
M  V30 4923 C 454.828 -1.38955 -4.36412 0
M  V30 4924 N 456.319 -1.35227 -4.43021 0
M  V30 4925 C 457.054 -1.78333 -5.44963 0
M  V30 4926 N 456.55 -2.29246 -6.53772 0
M  V30 4927 N 458.343 -1.69467 -5.35945 0
M  V30 4928 H 450.494 -1.5196 -1.48398 0
M  V30 4929 H 452.757 -0.633078 -0.705632 0
M  V30 4930 H 452.463 -1.8749 -2.97558 0
M  V30 4931 H 452.337 -0.309915 -3.75925 0
M  V30 4932 H 454.724 0.249784 -2.94041 0
M  V30 4933 H 454.805 -1.34412 -2.17639 0
M  V30 4934 H 454.449 -2.43168 -4.45906 0
M  V30 4935 H 454.379 -0.814291 -5.20266 0
M  V30 4936 H 456.87 -0.979739 -3.64979 0
M  V30 4937 H 457.183 -2.60089 -7.27718 0
M  V30 4938 H 455.528 -2.3325 -6.5469 0
M  V30 4939 H 458.719 -1.29477 -4.49837 0
M  V30 4940 H 458.892 -2.03381 -6.15256 0
M  V30 4941 N 452.299 1.55045 -0.282633 0
M  V30 4942 C 453.209 2.26491 0.61147 0
M  V30 4943 C 454.225 1.29348 1.16384 0
M  V30 4944 O 455.401 1.62298 1.19253 0
M  V30 4945 C 452.466 2.97779 1.77563 0
M  V30 4946 C 451.527 4.10418 1.25919 0
M  V30 4947 C 450.76 4.78297 2.36786 0
M  V30 4948 O 450.983 4.45426 3.56303 0
M  V30 4949 O 449.917 5.66089 2.04517 0
M  V30 4950 H 453.743 3.03683 0.0324615 0
M  V30 4951 H 451.328 1.49317 -0.0497576 0
M  V30 4952 H 453.21 3.42554 2.45427 0
M  V30 4953 H 451.885 2.23498 2.34159 0
M  V30 4954 H 450.792 3.70082 0.546797 0
M  V30 4955 H 452.125 4.86622 0.738887 0
M  V30 4956 N 453.777 0.010035 1.57597 0
M  V30 4957 C 454.727 -0.986858 2.05536 0
M  V30 4958 C 455.711 -1.29711 0.952042 0
M  V30 4959 O 456.903 -1.28641 1.21575 0
M  V30 4960 C 454.032 -2.2756 2.57043 0
M  V30 4961 C 453.118 -1.99455 3.74271 0
M  V30 4962 N 453.509 -1.41546 4.85591 0
M  V30 4963 C 451.807 -2.29547 3.82393 0
M  V30 4964 C 452.508 -1.3014 5.66956 0
M  V30 4965 N 451.484 -1.79044 5.13268 0
M  V30 4966 H 455.286 -0.533778 2.89012 0
M  V30 4967 H 452.8 -0.195432 1.6122 0
M  V30 4968 H 454.797 -2.99829 2.89669 0
M  V30 4969 H 453.457 -2.73512 1.7499 0
M  V30 4970 H 454.468 -1.09294 5.06236 0
M  V30 4971 H 451.145 -2.78304 3.11213 0
M  V30 4972 H 452.535 -0.855237 6.66435 0
M  V30 4973 N 455.255 -1.55392 -0.262866 0
M  V30 4974 C 456.203 -1.8977 -1.345 0
M  V30 4975 C 457.197 -0.775063 -1.50629 0
M  V30 4976 O 458.403 -0.959519 -1.52293 0
M  V30 4977 H 454.778 -0.602467 -0.450041 0
M  V30 4978 H 456.749 -2.80147 -1.02762 0
M  V30 4979 C 455.498 -2.19501 -2.69657 0
M  V30 4980 H 454.821 -3.05378 -2.5804 0
M  V30 4981 H 456.261 -2.47469 -3.44289 0
M  V30 4982 C 454.72 -1.00597 -3.21531 0
M  V30 4983 O 455.25 -0.245768 -4.00947 0
M  V30 4984 N 453.456 -0.800911 -2.79345 0
M  V30 4985 H 453.003 -1.42079 -2.14875 0
M  V30 4986 H 452.961 -0.00697996 -3.14399 0
M  V30 4987 N 456.733 0.527833 -1.48498 0
M  V30 4988 C 458.149 0.856571 -1.34666 0
M  V30 4989 C 458.349 1.98271 -0.35931 0
M  V30 4990 O 457.405 2.51551 0.218703 0
M  V30 4991 C 458.718 1.22207 -2.74747 0
M  V30 4992 C 460.266 1.33183 -2.83251 0
M  V30 4993 C 460.741 1.73075 -4.24039 0
M  V30 4994 N 462.232 1.80174 -4.26722 0
M  V30 4995 C 462.967 2.1243 -5.32598 0
M  V30 4996 N 462.463 2.43096 -6.4875 0
M  V30 4997 N 464.256 2.13454 -5.19994 0
M  V30 4998 H 456.407 -0.215174 -2.11307 0
M  V30 4999 H 458.67 -0.0336281 -0.947403 0
M  V30 5000 H 458.376 0.468195 -3.4857 0
M  V30 5001 H 458.25 2.17173 -3.08409 0
M  V30 5002 H 460.637 2.07647 -2.09683 0
M  V30 5003 H 460.718 0.363333 -2.53206 0
M  V30 5004 H 460.362 0.991712 -4.98124 0
M  V30 5005 H 460.292 2.70979 -4.51529 0
M  V30 5006 H 462.783 1.58744 -3.42942 0
M  V30 5007 H 463.096 2.6682 -7.25277 0
M  V30 5008 H 461.441 2.40611 -6.52021 0
M  V30 5009 H 464.632 1.88956 -4.28268 0
M  V30 5010 H 464.805 2.38261 -6.02608 0
M  V30 5011 N 458.211 1.37122 0.776871 0
M  V30 5012 C 459.457 1.32243 1.53752 0
M  V30 5013 C 459.79 -0.0944745 1.9397 0
M  V30 5014 O 459.065 -1.05068 1.6368 0
M  V30 5015 C 459.348 2.25681 2.80607 0
M  V30 5016 C 459.201 3.76127 2.46676 0
M  V30 5017 C 460.52 2.17657 3.82509 0
M  V30 5018 H 457.639 0.481704 0.557791 0
M  V30 5019 H 460.281 1.6778 0.891612 0
M  V30 5020 H 458.431 1.95505 3.35723 0
M  V30 5021 H 460.103 4.16877 1.97513 0
M  V30 5022 H 458.346 3.94946 1.79443 0
M  V30 5023 H 459.017 4.36933 3.37333 0
M  V30 5024 H 461.493 2.44245 3.36873 0
M  V30 5025 H 460.369 2.85185 4.69 0
M  V30 5026 H 460.63 1.16785 4.26396 0
M  V30 5027 N 459.689 -1.00246 1.21608 0
M  V30 5028 C 460.929 -1.75589 1.04631 0
M  V30 5029 C 461.293 -1.87513 -0.412648 0
M  V30 5030 O 462.494 -2.59444 -0.703003 0
M  V30 5031 C 460.765 -3.12893 1.72722 0
M  V30 5032 S 462.324 -4.04095 1.71034 0
M  V30 5033 H 459.142 -0.604133 0.374892 0
M  V30 5034 H 461.744 -1.19927 1.54395 0
M  V30 5035 H 460.448 -3.0185 2.78055 0
M  V30 5036 H 459.979 -3.73628 1.23149 0
M  V30 5037 H 461.994 -4.9045 0.753231 0
M  V30 5038 N 461.167 -1.02423 -1.1978 0
M  V30 5039 C 462.444 -0.632802 -1.85081 0
M  V30 5040 C 462.824 0.888745 -1.9148 0
M  V30 5041 O 462.172 1.78357 -1.42832 0
M  V30 5042 C 462.382 -1.28947 -3.24305 0
M  V30 5043 C 463.73 -1.40976 -4.00513 0
M  V30 5044 O 464.754 -1.24628 -3.33686 0
M  V30 5045 O 463.613 -1.67467 -5.20209 0
M  V30 5046 H 460.707 -0.219348 -0.79738 0
M  V30 5047 H 463.253 -1.12209 -1.27307 0
M  V30 5048 H 462.025 -2.3288 -3.14456 0
M  V30 5049 H 461.648 -0.787748 -3.89718 0
M  V30 5050 N 462.645 1.35699 -0.801477 0
M  V30 5051 C 463.575 2.32436 -0.222658 0
M  V30 5052 C 464.556 1.5723 0.649057 0
M  V30 5053 O 465.741 1.85324 0.580387 0
M  V30 5054 C 462.871 3.41469 0.633719 0
M  V30 5055 C 461.825 4.27774 -0.139083 0
M  V30 5056 C 461.151 5.28082 0.838666 0
M  V30 5057 C 462.451 5.04946 -1.33517 0
M  V30 5058 H 464.145 2.81094 -1.03086 0
M  V30 5059 H 461.691 1.35146 -0.497155 0
M  V30 5060 H 463.644 4.08143 1.04868 0
M  V30 5061 H 462.368 2.91408 1.47475 0
M  V30 5062 H 461.027 3.62673 -0.535156 0
M  V30 5063 H 460.675 4.7429 1.67506 0
M  V30 5064 H 460.375 5.86695 0.32594 0
M  V30 5065 H 461.899 5.97628 1.25194 0
M  V30 5066 H 463.313 5.64593 -0.995349 0
M  V30 5067 H 461.71 5.7303 -1.78202 0
M  V30 5068 H 462.78 4.35886 -2.12442 0
M  V30 5069 N 464.123 0.554532 1.47522 0
M  V30 5070 C 465.053 -0.182974 2.32782 0
M  V30 5071 C 466.034 -0.911377 1.43624 0
M  V30 5072 O 467.219 -0.892366 1.72483 0
M  V30 5073 C 464.349 -1.21513 3.25349 0
M  V30 5074 C 463.303 -0.603355 4.23726 0
M  V30 5075 C 462.629 -1.73995 5.05598 0
M  V30 5076 C 463.929 0.441121 5.20434 0
M  V30 5077 H 465.623 0.52882 2.94693 0
M  V30 5078 H 463.169 0.255759 1.41711 0
M  V30 5079 H 465.122 -1.73922 3.83835 0
M  V30 5080 H 463.846 -1.95683 2.61487 0
M  V30 5081 H 462.505 -0.10059 3.66462 0
M  V30 5082 H 462.153 -2.47063 4.38143 0
M  V30 5083 H 461.853 -1.3364 5.72201 0
M  V30 5084 H 463.377 -2.26735 5.66942 0
M  V30 5085 H 464.791 0.00319931 5.733 0
M  V30 5086 H 463.188 0.763402 5.95224 0
M  V30 5087 H 464.258 1.33799 4.66075 0
M  V30 5088 N 465.601 -1.54893 0.290851 0
M  V30 5089 C 466.548 -2.23138 -0.58974 0
M  V30 5090 C 467.518 -1.21036 -1.13752 0
M  V30 5091 O 468.703 -1.49626 -1.18392 0
M  V30 5092 C 465.843 -2.96811 -1.76061 0
M  V30 5093 C 464.956 -4.13665 -1.24519 0
M  V30 5094 C 464.091 -4.74944 -2.3791 0
M  V30 5095 C 463.13 -5.83963 -1.83451 0
M  V30 5096 N 462.267 -6.39239 -2.90376 0
M  V30 5097 H 467.107 -2.98 -0.00114915 0
M  V30 5098 H 464.644 -1.47096 0.0112006 0
M  V30 5099 H 466.602 -3.37751 -2.44909 0
M  V30 5100 H 465.232 -2.24344 -2.32098 0
M  V30 5101 H 464.284 -3.77737 -0.449288 0
M  V30 5102 H 465.596 -4.92238 -0.806424 0
M  V30 5103 H 464.75 -5.18684 -3.14724 0
M  V30 5104 H 463.489 -3.95682 -2.85109 0
M  V30 5105 H 462.494 -5.39657 -1.05122 0
M  V30 5106 H 463.719 -6.65103 -1.37169 0
M  V30 5107 H 461.665 -5.62864 -3.36927 0
M  V30 5108 H 461.582 -7.13129 -2.50965 0
M  V30 5109 H 462.85 -6.87637 -3.67118 0
M  V30 5110 N 467.08 -0.0183926 -1.57589 0
M  V30 5111 C 468.043 0.951986 -2.08494 0
M  V30 5112 C 469.043 1.26092 -0.997874 0
M  V30 5113 O 470.233 1.20304 -1.25987 0
M  V30 5114 C 467.365 2.27165 -2.54182 0
M  V30 5115 H 468.558 0.511307 -2.95509 0
M  V30 5116 H 466.111 0.229444 -1.54607 0
M  V30 5117 H 466.846 2.75884 -1.70465 0
M  V30 5118 H 466.631 2.06057 -3.33591 0
M  V30 5119 H 468.121 2.9674 -2.93828 0
M  V30 5120 N 468.558 1.5553 0.254621 0
M  V30 5121 C 469.468 1.92789 1.33677 0
M  V30 5122 C 470.484 0.827356 1.53071 0
M  V30 5123 O 471.66 1.12807 1.66843 0
M  V30 5124 C 468.725 2.20827 2.67275 0
M  V30 5125 C 467.786 3.4427 2.5647 0
M  V30 5126 C 467.019 3.70961 3.83697 0
M  V30 5127 O 467.242 2.99852 4.85227 0
M  V30 5128 O 466.176 4.64491 3.82794 0
M  V30 5129 H 470.002 2.84945 1.05071 0
M  V30 5130 H 467.587 1.42312 0.454723 0
M  V30 5131 H 469.469 2.40204 3.46237 0
M  V30 5132 H 468.144 1.31851 2.9563 0
M  V30 5133 H 467.051 3.30209 1.75821 0
M  V30 5134 H 468.384 4.33524 2.33062 0
M  V30 5135 N 470.036 -0.519951 1.48776 0
M  V30 5136 C 470.986 -1.61995 1.60442 0
M  V30 5137 C 471.97 -1.54155 0.460991 0
M  V30 5138 O 473.162 -1.62006 0.712965 0
M  V30 5139 C 470.291 -3.00683 1.65664 0
M  V30 5140 C 469.377 -3.1359 2.8552 0
M  V30 5141 N 469.768 -2.96441 4.09825 0
M  V30 5142 C 468.066 -3.44662 2.83062 0
M  V30 5143 C 468.767 -3.1303 4.90293 0
M  V30 5144 N 467.743 -3.41058 4.23297 0
M  V30 5145 H 471.545 -1.47362 2.54287 0
M  V30 5146 H 469.059 -0.725649 1.45286 0
M  V30 5147 H 471.056 -3.79712 1.72117 0
M  V30 5148 H 469.716 -3.16401 0.729425 0
M  V30 5149 H 470.727 -2.72999 4.40104 0
M  V30 5150 H 467.404 -3.66675 1.9964 0
M  V30 5151 H 468.794 -3.04424 5.98979 0
M  V30 5152 N 471.514 -1.37532 -0.769588 0
M  V30 5153 C 472.925 -1.29382 -1.346 0
M  V30 5154 C 473.276 0.0576039 -1.96115 0
M  V30 5155 O 472.401 0.95947 -1.93967 0
M  V30 5156 C 472.996 -2.34298 -2.44724 0
M  V30 5157 C 471.555 -2.29776 -2.98128 0
M  V30 5158 C 470.702 -2.18013 -1.71364 0
M  V30 5159 H 473.653 -1.48123 -0.56968 0
M  V30 5160 H 473.674 -1.99089 -3.24259 0
M  V30 5161 H 473.186 -3.32645 -1.99922 0
M  V30 5162 H 471.287 -1.34959 -3.47299 0
M  V30 5163 H 471.4 -3.23276 -3.53595 0
M  V30 5164 H 469.764 -1.64595 -1.94372 0
M  V30 5165 H 470.547 -3.18278 -1.28662 0
M  V30 5166 N 472.992 0.995999 -1.22138 0
M  V30 5167 C 474.22 1.77066 -1.07029 0
M  V30 5168 C 474.635 1.8495 0.379357 0
M  V30 5169 O 473.992 1.3174 1.26297 0
M  V30 5170 C 474.043 3.20533 -1.67155 0
M  V30 5171 O 473.764 3.13082 -3.06449 0
M  V30 5172 C 475.265 4.14461 -1.5728 0
M  V30 5173 H 472.485 0.556179 -0.375374 0
M  V30 5174 H 475.029 1.25238 -1.61666 0
M  V30 5175 H 473.184 3.6944 -1.16589 0
M  V30 5176 H 473.598 4.03283 -3.35355 0
M  V30 5177 H 475.072 5.1289 -2.04078 0
M  V30 5178 H 475.549 4.36005 -0.528795 0
M  V30 5179 H 476.155 3.71449 -2.07136 0
M  V30 5180 N 474.47 1.03057 1.19235 0
M  V30 5181 C 475.716 0.738841 1.89506 0
M  V30 5182 C 476.071 -0.724807 1.78225 0
M  V30 5183 O 475.364 -1.52118 1.16494 0
M  V30 5184 C 475.558 1.1268 3.39172 0
M  V30 5185 C 475.387 2.62662 3.65019 0
M  V30 5186 C 474.157 3.29658 3.82954 0
M  V30 5187 C 476.355 3.60873 3.66436 0
M  V30 5188 N 474.337 4.68726 3.96446 0
M  V30 5189 C 475.708 4.85566 3.8552 0
M  V30 5190 C 477.763 3.54647 3.49471 0
M  V30 5191 C 476.466 6.04783 3.89397 0
M  V30 5192 C 478.492 4.73281 3.54625 0
M  V30 5193 C 477.854 5.96789 3.74196 0
M  V30 5194 H 473.953 0.322256 0.712513 0
M  V30 5195 H 476.537 1.31822 1.43287 0
M  V30 5196 H 474.708 0.575612 3.84111 0
M  V30 5197 H 476.44 0.787145 3.96971 0
M  V30 5198 H 473.195 2.8007 3.81913 0
M  V30 5199 H 473.619 5.40971 4.07037 0
M  V30 5200 H 478.261 2.60143 3.33295 0
M  V30 5201 H 475.979 6.99654 4.04364 0
M  V30 5202 H 479.565 4.70094 3.42787 0
M  V30 5203 H 478.445 6.87051 3.78061 0
M  V30 5204 N 475.948 -1.35272 0.808662 0
M  V30 5205 C 477.196 -1.98316 0.389233 0
M  V30 5206 C 477.517 -1.64465 -1.04767 0
M  V30 5207 O 476.787 -0.928175 -1.72516 0
M  V30 5208 H 475.367 -0.733585 0.140935 0
M  V30 5209 H 478.029 -1.6515 1.03496 0
M  V30 5210 H 477.125 -3.08123 0.496631 0
M  V30 5211 N 477.426 -0.562348 -1.47226 0
M  V30 5212 C 478.703 0.0256985 -1.95583 0
M  V30 5213 C 479.083 1.48032 -1.50498 0
M  V30 5214 O 478.431 2.15973 -0.746181 0
M  V30 5215 C 478.641 -0.125129 -3.48776 0
M  V30 5216 C 479.989 0.0175728 -4.24596 0
M  V30 5217 O 481.013 -0.0529341 -3.56161 0
M  V30 5218 O 479.872 0.170145 -5.46235 0
M  V30 5219 H 476.966 0.0612565 -0.824728 0
M  V30 5220 H 479.512 -0.629233 -1.57603 0
M  V30 5221 H 478.284 -1.13715 -3.74412 0
M  V30 5222 H 477.907 0.567178 -3.93534 0
M  V30 5223 N 478.904 1.54736 -0.299062 0
M  V30 5224 C 479.814 2.27127 0.587413 0
M  V30 5225 C 480.83 1.30575 1.15005 0
M  V30 5226 O 482.006 1.63554 1.17525 0
M  V30 5227 C 479.071 2.99645 1.74395 0
M  V30 5228 C 478.132 4.11731 1.21559 0
M  V30 5229 C 477.365 4.80781 2.317 0
M  V30 5230 O 477.588 4.4918 3.51558 0
M  V30 5231 O 476.522 5.68226 1.98501 0
M  V30 5232 H 480.348 3.037 0.000250109 0
M  V30 5233 H 477.933 1.49256 -0.0655919 0
M  V30 5234 H 479.815 3.45138 2.4178 0
M  V30 5235 H 478.49 2.25969 2.31775 0
M  V30 5236 H 477.397 3.70641 0.507514 0
M  V30 5237 H 478.73 4.87379 0.687233 0
M  V30 5238 N 480.382 0.0267497 1.57577 0
M  V30 5239 C 481.314 -0.984594 2.06974 0
M  V30 5240 C 482.327 -1.29032 0.992705 0
M  V30 5241 O 483.516 -1.25539 1.26895 0
M  V30 5242 C 480.616 -2.31262 2.47732 0
M  V30 5243 C 479.789 -2.1924 3.78487 0
M  V30 5244 C 478.848 -3.34956 4.05821 0
M  V30 5245 O 477.874 -3.11948 4.76106 0
M  V30 5246 N 479.076 -4.58672 3.55809 0
M  V30 5247 H 481.841 -0.563143 2.94362 0
M  V30 5248 H 479.402 -0.160061 1.61107 0
M  V30 5249 H 481.394 -3.07496 2.63112 0
M  V30 5250 H 479.964 -2.65056 1.65723 0
M  V30 5251 H 479.184 -1.27747 3.72927 0
M  V30 5252 H 480.472 -2.08409 4.64158 0
M  V30 5253 H 479.87 -4.8026 2.98942 0
M  V30 5254 H 478.427 -5.32083 3.76472 0
M  V30 5255 N 481.861 -1.55662 -0.24637 0
M  V30 5256 C 482.791 -1.93377 -1.30873 0
M  V30 5257 C 483.772 -0.798773 -1.50179 0
M  V30 5258 O 484.957 -1.0591 -1.62778 0
M  V30 5259 C 482.087 -2.22893 -2.66338 0
M  V30 5260 C 481.041 -3.38649 -2.61727 0
M  V30 5261 C 480.367 -3.53708 -4.00992 0
M  V30 5262 C 481.667 -4.74323 -2.18666 0
M  V30 5263 H 483.361 -2.82363 -0.995552 0
M  V30 5264 H 480.907 -1.35854 -0.477464 0
M  V30 5265 H 482.86 -2.47866 -3.40794 0
M  V30 5266 H 481.584 -1.30733 -2.99293 0
M  V30 5267 H 480.243 -3.13685 -1.89729 0
M  V30 5268 H 479.891 -2.58967 -4.31214 0
M  V30 5269 H 479.591 -4.31551 -3.98795 0
M  V30 5270 H 481.115 -3.81003 -4.77147 0
M  V30 5271 H 482.529 -4.98665 -2.82854 0
M  V30 5272 H 480.926 -5.55273 -2.27579 0
M  V30 5273 H 481.996 -4.71349 -1.13834 0
M  V30 5274 N 483.339 0.512053 -1.4905 0
M  V30 5275 C 484.586 1.26686 -1.57978 0
M  V30 5276 C 484.914 1.92733 -0.261553 0
M  V30 5277 O 484.169 1.80772 0.749667 0
M  V30 5278 C 484.468 2.36446 -2.68008 0
M  V30 5279 C 484.134 1.87932 -4.09869 0
M  V30 5280 C 482.796 1.74419 -4.48477 0
M  V30 5281 C 485.148 1.5149 -4.98698 0
M  V30 5282 C 482.476 1.22827 -5.73699 0
M  V30 5283 C 484.828 1.01355 -6.24428 0
M  V30 5284 C 483.492 0.864735 -6.61875 0
M  V30 5285 H 482.762 0.463577 -0.578081 0
M  V30 5286 H 485.409 0.569421 -1.82838 0
M  V30 5287 H 483.714 3.11933 -2.37076 0
M  V30 5288 H 485.411 2.9453 -2.72127 0
M  V30 5289 H 482.001 1.99405 -3.79389 0
M  V30 5290 H 486.185 1.60782 -4.69535 0
M  V30 5291 H 481.441 1.10008 -6.01422 0
M  V30 5292 H 485.615 0.722351 -6.92644 0
M  V30 5293 H 483.242 0.462777 -7.5879 0
M  V30 5294 N 484.817 1.37938 0.762283 0
M  V30 5295 C 485.749 1.30349 1.88525 0
M  V30 5296 C 486.762 0.217402 1.61342 0
M  V30 5297 O 487.951 0.474291 1.72084 0
M  V30 5298 C 485.051 0.994844 3.23969 0
M  V30 5299 C 484.224 2.18829 3.78725 0
M  V30 5300 C 483.283 1.84844 4.92665 0
M  V30 5301 O 482.309 2.57244 5.07754 0
M  V30 5302 N 483.511 0.798201 5.74986 0
M  V30 5303 H 486.276 2.27114 1.95549 0
M  V30 5304 H 483.837 1.31686 0.941825 0
M  V30 5305 H 485.829 0.748168 3.97724 0
M  V30 5306 H 484.399 0.115446 3.12387 0
M  V30 5307 H 483.619 2.59615 2.96637 0
M  V30 5308 H 484.907 2.98497 4.1204 0
M  V30 5309 H 484.305 0.197611 5.65355 0
M  V30 5310 H 482.862 0.611396 6.48926 0
M  V30 5311 N 486.295 -0.989507 1.22664 0
M  V30 5312 C 487.523 -1.76496 1.07967 0
M  V30 5313 C 487.938 -1.85148 -0.369543 0
M  V30 5314 O 487.295 -1.32408 -1.25596 0
M  V30 5315 C 487.346 -3.19642 1.68853 0
M  V30 5316 O 487.067 -3.11453 3.08105 0
M  V30 5317 C 488.568 -4.13621 1.59475 0
M  V30 5318 H 485.788 -0.55418 0.378319 0
M  V30 5319 H 488.332 -1.24378 1.62328 0
M  V30 5320 H 486.487 -3.68816 1.18547 0
M  V30 5321 H 486.901 -4.01499 3.37489 0
M  V30 5322 H 488.375 -5.11801 2.06795 0
M  V30 5323 H 488.852 -4.35718 0.55191 0
M  V30 5324 H 489.458 -3.70346 2.09103 0
M  V30 5325 N 487.773 -1.03688 -1.18687 0
M  V30 5326 C 489.001 -0.757918 -1.92518 0
M  V30 5327 C 489.416 0.684398 -1.75959 0
M  V30 5328 O 488.773 1.46617 -1.08673 0
M  V30 5329 C 488.824 -1.10985 -3.44042 0
M  V30 5330 O 488.545 -2.49554 -3.60076 0
M  V30 5331 C 490.046 -0.854844 -4.3498 0
M  V30 5332 H 487.266 -0.276699 -0.611293 0
M  V30 5333 H 489.81 -1.38352 -1.50595 0
M  V30 5334 H 487.965 -0.529279 -3.83767 0
M  V30 5335 H 488.379 -2.6291 -4.53849 0
M  V30 5336 H 489.853 -1.15098 -5.39867 0
M  V30 5337 H 490.33 0.210507 -4.38695 0
M  V30 5338 H 490.936 -1.41853 -4.00946 0
M  V30 5339 N 489.251 1.34841 -0.815825 0
M  V30 5340 C 490.667 1.51543 -0.500697 0
M  V30 5341 C 490.867 1.76261 0.976444 0
M  V30 5342 O 489.923 1.8094 1.76117 0
M  V30 5343 C 491.236 2.68487 -1.35407 0
M  V30 5344 C 492.784 2.82368 -1.35046 0
M  V30 5345 C 493.259 4.02347 -2.18816 0
M  V30 5346 N 494.75 4.09542 -2.16402 0
M  V30 5347 C 495.485 5.01517 -2.77971 0
M  V30 5348 N 494.981 5.98763 -3.48503 0
M  V30 5349 N 496.774 4.94334 -2.67563 0
M  V30 5350 H 488.925 1.17055 -1.77234 0
M  V30 5351 H 491.188 0.573481 -0.754866 0
M  V30 5352 H 490.894 2.56829 -2.40274 0
M  V30 5353 H 490.768 3.63321 -1.01377 0
M  V30 5354 H 493.155 2.93471 -0.309604 0
M  V30 5355 H 493.236 1.88363 -1.73069 0
M  V30 5356 H 492.88 3.92004 -3.22948 0
M  V30 5357 H 492.81 4.95551 -1.78148 0
M  V30 5358 H 495.301 3.39932 -1.65091 0
M  V30 5359 H 495.614 6.6556 -3.92747 0
M  V30 5360 H 493.959 5.98909 -3.52609 0
M  V30 5361 H 497.15 4.1732 -2.12041 0
M  V30 5362 H 497.323 5.6582 -3.15834 0
M  V30 5363 N 490.729 0.570148 1.46925 0
M  V30 5364 C 491.659 -0.158274 2.32963 0
M  V30 5365 C 492.64 -0.896093 1.44583 0
M  V30 5366 O 493.825 -0.874022 1.7342 0
M  V30 5367 C 490.955 -1.18055 3.26619 0
M  V30 5368 C 489.909 -0.558379 4.24342 0
M  V30 5369 C 489.235 -1.68623 5.07415 0
M  V30 5370 C 490.535 0.496295 5.19937 0
M  V30 5371 H 492.229 0.560046 2.94115 0
M  V30 5372 H 489.775 0.270775 1.41431 0
M  V30 5373 H 491.728 -1.69841 3.85658 0
M  V30 5374 H 490.452 -1.92899 2.63548 0
M  V30 5375 H 489.111 -0.0617157 3.66548 0
M  V30 5376 H 488.759 -2.42402 4.40738 0
M  V30 5377 H 488.459 -1.27564 5.73586 0
M  V30 5378 H 489.983 -2.20709 5.69315 0
M  V30 5379 H 491.397 0.0640052 5.73264 0
M  V30 5380 H 489.794 0.82649 5.94381 0
M  V30 5381 H 490.864 1.38735 4.6463 0
M  V30 5382 N 492.207 -1.54576 0.307264 0
M  V30 5383 C 493.456 -1.99442 -0.300976 0
M  V30 5384 C 493.769 -1.19928 -1.5452 0
M  V30 5385 O 494.975 -1.55092 -2.22842 0
M  V30 5386 C 493.431 -3.55084 -0.586809 0
M  V30 5387 C 493.039 -4.43413 0.639438 0
M  V30 5388 C 494.783 -4.0846 -1.1559 0
M  V30 5389 C 492.69 -5.90499 0.326411 0
M  V30 5390 H 491.62 -0.744986 -0.116238 0
M  V30 5391 H 494.271 -1.787 0.416947 0
M  V30 5392 H 492.653 -3.71749 -1.36449 0
M  V30 5393 H 493.827 -4.38522 1.41545 0
M  V30 5394 H 492.142 -4.00842 1.1276 0
M  V30 5395 H 494.739 -5.15926 -1.40445 0
M  V30 5396 H 495.082 -3.59443 -2.10015 0
M  V30 5397 H 495.615 -3.95362 -0.439778 0
M  V30 5398 H 492.354 -6.43676 1.23939 0
M  V30 5399 H 491.874 -5.98382 -0.412212 0
M  V30 5400 H 493.553 -6.46962 -0.0697393 0
M  V30 5401 N 493.685 -0.035106 -1.57561 0
M  V30 5402 C 494.615 0.942993 -2.13612 0
M  V30 5403 C 495.596 1.33531 -1.05373 0
M  V30 5404 O 496.781 1.41287 -1.33235 0
M  V30 5405 C 493.911 2.22332 -2.66807 0
M  V30 5406 C 492.865 1.97156 -3.79886 0
M  V30 5407 C 492.191 3.31506 -4.19533 0
M  V30 5408 C 493.491 1.30596 -5.05709 0
M  V30 5409 H 495.185 0.476179 -2.95589 0
M  V30 5410 H 492.731 0.227602 -1.4219 0
M  V30 5411 H 494.684 2.91142 -3.04654 0
M  V30 5412 H 493.408 2.7119 -1.81999 0
M  V30 5413 H 492.067 1.30763 -3.42486 0
M  V30 5414 H 491.715 3.78134 -3.31698 0
M  V30 5415 H 491.415 3.15465 -4.95738 0
M  V30 5416 H 492.939 4.01574 -4.59968 0
M  V30 5417 H 494.353 1.89416 -5.41105 0
M  V30 5418 H 492.75 1.24934 -5.86951 0
M  V30 5419 H 493.82 0.279742 -4.84092 0
M  V30 5420 N 495.163 1.55791 0.238111 0
M  V30 5421 C 496.412 1.77234 0.962868 0
M  V30 5422 C 496.725 0.600661 1.86149 0
M  V30 5423 O 497.931 0.698315 2.62366 0
M  V30 5424 C 496.387 3.13808 1.76218 0
M  V30 5425 C 495.995 4.3865 0.910518 0
M  V30 5426 C 497.739 3.44585 2.47914 0
M  V30 5427 C 495.646 5.66252 1.70623 0
M  V30 5428 H 494.576 0.660731 0.36325 0
M  V30 5429 H 497.227 1.8221 0.217242 0
M  V30 5430 H 495.609 3.02963 2.55009 0
M  V30 5431 H 496.783 4.60507 0.164316 0
M  V30 5432 H 495.098 4.15271 0.30647 0
M  V30 5433 H 497.695 4.3714 3.07917 0
M  V30 5434 H 498.038 2.66314 3.19973 0
M  V30 5435 H 498.571 3.56685 1.76127 0
M  V30 5436 H 495.31 6.47369 1.02923 0
M  V30 5437 H 494.83 5.48483 2.42748 0
M  V30 5438 H 496.509 6.05829 2.27114 0
M  V30 5439 N 496.642 -0.504142 1.49319 0
M  V30 5440 C 497.89 -1.25598 1.58334 0
M  V30 5441 C 498.211 -1.93114 0.270538 0
M  V30 5442 O 497.481 -1.82585 -0.709891 0
M  V30 5443 H 496.061 -0.466571 0.58337 0
M  V30 5444 H 498.723 -0.584547 1.85928 0
M  V30 5445 H 497.819 -2.02159 2.37778 0
M  V30 5446 N 498.12 -1.38341 -0.754957 0
M  V30 5447 C 499.03 -1.3769 -1.89944 0
M  V30 5448 C 500.046 -0.274194 -1.71826 0
M  V30 5449 O 501.222 -0.512391 -1.94773 0
M  V30 5450 C 498.287 -1.19938 -3.25293 0
M  V30 5451 C 497.348 -2.40001 -3.55946 0
M  V30 5452 C 496.581 -2.23087 -4.84838 0
M  V30 5453 O 496.804 -1.22386 -5.57116 0
M  V30 5454 O 495.738 -3.11646 -5.14937 0
M  V30 5455 H 499.564 -2.3412 -1.93446 0
M  V30 5456 H 497.149 -1.19246 -0.900044 0
M  V30 5457 H 499.031 -1.12093 -4.06218 0
M  V30 5458 H 497.706 -0.265919 -3.22606 0
M  V30 5459 H 496.613 -2.53421 -2.75188 0
M  V30 5460 H 497.946 -3.31973 -3.63394 0
M  V30 5461 N 499.598 0.982988 -1.23187 0
M  V30 5462 C 500.826 1.75921 -1.08901 0
M  V30 5463 C 501.241 1.85341 0.359719 0
M  V30 5464 O 500.598 1.33072 1.24892 0
M  V30 5465 C 500.649 3.18742 -1.70545 0
M  V30 5466 O 500.37 3.09814 -3.09753 0
M  V30 5467 C 501.871 4.1277 -1.61667 0
M  V30 5468 H 499.091 0.552166 -0.381252 0
M  V30 5469 H 501.635 1.23516 -1.62985 0
M  V30 5470 H 499.79 3.68182 -1.20501 0
M  V30 5471 H 500.204 3.99703 -3.39614 0
M  V30 5472 H 501.678 5.10697 -2.09506 0
M  V30 5473 H 502.155 4.3542 -0.575009 0
M  V30 5474 H 502.761 3.69232 -2.11064 0
M  V30 5475 N 501.076 1.04316 1.18135 0
M  V30 5476 C 502.325 0.74319 1.87509 0
M  V30 5477 C 502.638 -0.732136 1.81381 0
M  V30 5478 O 503.844 -1.14572 2.46141 0
M  V30 5479 C 502.3 1.27913 3.36402 0
M  V30 5480 C 501.908 2.78326 3.51053 0
M  V30 5481 C 503.652 1.0558 4.11161 0
M  V30 5482 C 501.559 3.25266 4.93919 0
M  V30 5483 H 500.489 0.274313 0.702331 0
M  V30 5484 H 503.14 1.25931 1.33467 0
M  V30 5485 H 501.522 0.690853 3.89927 0
M  V30 5486 H 502.696 3.42933 3.07788 0
M  V30 5487 H 501.011 2.991 2.89704 0
M  V30 5488 H 503.608 1.38161 5.16542 0
M  V30 5489 H 503.951 -0.00684729 4.16299 0
M  V30 5490 H 504.484 1.60882 3.63816 0
M  V30 5491 H 501.223 4.30922 4.9395 0
M  V30 5492 H 500.743 2.65396 5.3789 0
M  V30 5493 H 502.422 3.19433 5.62647 0
M  V30 5494 N 502.554 -1.34406 0.822964 0
M  V30 5495 C 503.501 -2.29519 0.24284 0
M  V30 5496 C 504.471 -1.5359 -0.632397 0
M  V30 5497 O 505.656 -1.8196 -0.57403 0
M  V30 5498 C 502.796 -3.40032 -0.58925 0
M  V30 5499 C 501.909 -4.30899 0.308236 0
M  V30 5500 C 501.044 -5.28515 -0.533425 0
M  V30 5501 C 500.083 -6.1102 0.363444 0
M  V30 5502 N 499.22 -7.00725 -0.439147 0
M  V30 5503 H 504.06 -2.78537 1.05929 0
M  V30 5504 H 501.597 -1.3707 0.533872 0
M  V30 5505 H 503.555 -4.0279 -1.087 0
M  V30 5506 H 502.185 -2.92248 -1.37081 0
M  V30 5507 H 501.237 -3.69002 0.924203 0
M  V30 5508 H 502.549 -4.88717 0.997862 0
M  V30 5509 H 501.703 -5.96725 -1.09565 0
M  V30 5510 H 500.442 -4.71235 -1.25656 0
M  V30 5511 H 499.447 -5.41743 0.937812 0
M  V30 5512 H 500.672 -6.70381 1.08469 0
M  V30 5513 H 498.618 -6.45913 -1.14595 0
M  V30 5514 H 498.535 -7.55756 0.19209 0
M  V30 5515 H 499.803 -7.73263 -0.984124 0
M  V30 5516 N 504.032 -0.577932 -1.46621 0
M  V30 5517 C 505.281 -0.0594281 -2.01612 0
M  V30 5518 C 505.594 1.30663 -1.45556 0
M  V30 5519 O 506.8 1.91621 -1.92337 0
M  V30 5520 C 505.256 -0.0556666 -3.59857 0
M  V30 5521 C 504.864 -1.41975 -4.24908 0
M  V30 5522 C 506.608 0.409143 -4.22524 0
M  V30 5523 C 504.515 -1.37397 -5.75218 0
M  V30 5524 H 503.445 -0.0184469 -0.753774 0
M  V30 5525 H 506.096 -0.728869 -1.68404 0
M  V30 5526 H 504.478 0.679843 -3.90121 0
M  V30 5527 H 505.652 -2.17461 -4.0626 0
M  V30 5528 H 503.967 -1.82419 -3.74316 0
M  V30 5529 H 506.564 0.46211 -5.32699 0
M  V30 5530 H 506.907 1.42565 -3.91128 0
M  V30 5531 H 507.44 -0.272152 -3.96868 0
M  V30 5532 H 504.179 -2.36714 -6.11267 0
M  V30 5533 H 503.699 -0.661239 -5.96144 0
M  V30 5534 H 505.378 -1.08484 -6.3784 0
M  V30 5535 N 505.51 1.54411 -0.315457 0
M  V30 5536 C 506.756 2.00716 0.289972 0
M  V30 5537 C 507.089 1.2034 1.5242 0
M  V30 5538 O 506.364 0.283579 1.92422 0
M  V30 5539 C 506.647 3.54507 0.632196 0
M  V30 5540 C 506.5 4.45615 -0.61218 0
M  V30 5541 C 507.819 4.15421 1.45305 0
M  V30 5542 H 504.938 0.729637 0.10392 0
M  V30 5543 H 507.58 1.8506 -0.430427 0
M  V30 5544 H 505.73 3.67979 1.24595 0
M  V30 5545 H 507.402 4.44026 -1.25053 0
M  V30 5546 H 505.645 4.15621 -1.24264 0
M  V30 5547 H 506.316 5.51022 -0.328379 0
M  V30 5548 H 508.792 4.05474 0.934331 0
M  V30 5549 H 507.668 5.23157 1.66127 0
M  V30 5550 H 507.929 3.68223 2.44671 0
M  V30 5551 N 506.988 0.0434614 1.5754 0
M  V30 5552 C 508.237 -0.631454 1.91561 0
M  V30 5553 C 508.55 -1.72457 0.92292 0
M  V30 5554 O 509.756 -2.45712 1.15489 0
M  V30 5555 C 508.212 -1.17447 3.40197 0
M  V30 5556 C 507.82 -0.113867 4.47855 0
M  V30 5557 C 509.564 -1.82507 3.83264 0
M  V30 5558 C 507.471 -0.669326 5.876 0
M  V30 5559 H 506.401 -0.239629 0.714908 0
M  V30 5560 H 509.052 0.111097 1.83163 0
M  V30 5561 H 507.434 -1.96909 3.43574 0
M  V30 5562 H 508.608 0.659348 4.56058 0
M  V30 5563 H 506.923 0.438821 4.14081 0
M  V30 5564 H 509.52 -2.25047 4.85034 0
M  V30 5565 H 509.863 -2.67365 3.19095 0
M  V30 5566 H 510.396 -1.09712 3.82372 0
M  V30 5567 H 507.135 0.141449 6.55347 0
M  V30 5568 H 506.655 -1.4107 5.82974 0
M  V30 5569 H 508.334 -1.15463 6.36614 0
M  V30 5570 N 508.466 -1.55915 -0.229846 0
M  V30 5571 C 509.376 -1.94891 -1.30593 0
M  V30 5572 C 510.392 -0.851604 -1.51736 0
M  V30 5573 O 511.568 -1.15447 -1.65027 0
M  V30 5574 C 508.633 -2.25052 -2.63728 0
M  V30 5575 C 507.694 -3.48306 -2.5096 0
M  V30 5576 C 506.927 -3.77019 -3.77747 0
M  V30 5577 O 507.15 -3.07534 -4.80395 0
M  V30 5578 O 506.084 -4.70523 -3.75356 0
M  V30 5579 H 509.91 -2.86581 -1.00525 0
M  V30 5580 H 507.495 -1.43017 -0.432025 0
M  V30 5581 H 509.377 -2.45682 -3.42372 0
M  V30 5582 H 508.052 -1.36538 -2.93495 0
M  V30 5583 H 506.959 -3.32964 -1.70546 0
M  V30 5584 H 508.292 -4.37177 -2.26136 0
M  V30 5585 N 509.944 0.496216 -1.49584 0
M  V30 5586 C 510.854 1.62352 -1.69349 0
M  V30 5587 C 511.87 1.64184 -0.576147 0
M  V30 5588 O 513.046 1.82517 -0.85144 0
M  V30 5589 C 510.111 2.98698 -1.76013 0
M  V30 5590 C 509.172 3.07454 -2.99617 0
M  V30 5591 C 508.405 4.37296 -3.05953 0
M  V30 5592 O 508.628 5.2637 -2.19752 0
M  V30 5593 O 507.562 4.51124 -3.9846 0
M  V30 5594 H 511.388 1.48606 -2.64859 0
M  V30 5595 H 508.973 0.673022 -1.33382 0
M  V30 5596 H 510.855 3.79725 -1.82721 0
M  V30 5597 H 509.53 3.12696 -0.836828 0
M  V30 5598 H 508.437 2.25597 -2.98424 0
M  V30 5599 H 509.77 2.98385 -3.91443 0
M  V30 5600 N 511.423 1.38739 0.74761 0
M  V30 5601 C 512.653 1.3832 1.53464 0
M  V30 5602 C 513.061 -0.0273464 1.8918 0
M  V30 5603 O 512.404 -1.00588 1.53713 0
M  V30 5604 C 512.466 2.18007 2.85855 0
M  V30 5605 C 512.13 3.66762 2.72644 0
M  V30 5606 C 513.127 4.60124 2.42037 0
M  V30 5607 C 510.812 4.10193 2.89909 0
M  V30 5608 C 512.806 5.94897 2.28859 0
M  V30 5609 C 510.493 5.45045 2.7635 0
M  V30 5610 C 511.491 6.37211 2.45869 0
M  V30 5611 O 511.179 7.69581 2.3238 0
M  V30 5612 H 510.911 0.474718 0.481268 0
M  V30 5613 H 513.465 1.83012 0.932518 0
M  V30 5614 H 511.695 1.68043 3.48279 0
M  V30 5615 H 513.384 2.09921 3.47402 0
M  V30 5616 H 514.15 4.27874 2.28361 0
M  V30 5617 H 510.029 3.38797 3.1263 0
M  V30 5618 H 513.573 6.66802 2.04989 0
M  V30 5619 H 509.47 5.76889 2.89601 0
M  V30 5620 H 510.238 7.80169 2.47546 0
M  V30 5621 N 512.901 -0.976442 1.23707 0
M  V30 5622 C 514.147 -1.72081 1.07312 0
M  V30 5623 C 514.48 -1.90275 -0.388476 0
M  V30 5624 O 513.755 -1.4579 -1.28746 0
M  V30 5625 C 514.038 -3.11675 1.80363 0
M  V30 5626 C 513.891 -3.01027 3.3422 0
M  V30 5627 C 515.21 -4.1117 1.5693 0
M  V30 5628 H 512.329 -0.624583 0.391236 0
M  V30 5629 H 514.971 -1.13649 1.52263 0
M  V30 5630 H 513.121 -3.61559 1.42153 0
M  V30 5631 H 514.793 -2.58637 3.81975 0
M  V30 5632 H 513.036 -2.3744 3.63049 0
M  V30 5633 H 513.707 -3.9988 3.80525 0
M  V30 5634 H 516.183 -3.7011 1.90151 0
M  V30 5635 H 515.059 -5.06928 2.10513 0
M  V30 5636 H 515.32 -4.392 0.505548 0
M  V30 5637 N 514.379 -1.04941 -1.1758 0
M  V30 5638 C 515.311 -0.606174 -2.21039 0
M  V30 5639 C 516.324 0.328763 -1.59446 0
M  V30 5640 O 517.513 0.121895 -1.78083 0
M  V30 5641 C 514.613 0.133294 -3.38638 0
M  V30 5642 C 513.786 -0.811711 -4.29802 0
M  V30 5643 C 512.845 -0.113958 -5.26077 0
M  V30 5644 O 511.871 -0.747237 -5.64274 0
M  V30 5645 N 513.073 1.14953 -5.69004 0
M  V30 5646 H 515.838 -1.49606 -2.59689 0
M  V30 5647 H 513.399 -0.930997 -1.32454 0
M  V30 5648 H 515.391 0.610144 -4.00074 0
M  V30 5649 H 513.961 0.924816 -2.98607 0
M  V30 5650 H 513.181 -1.46824 -3.65837 0
M  V30 5651 H 514.469 -1.45326 -4.87604 0
M  V30 5652 H 513.867 1.68441 -5.40041 0
M  V30 5653 H 512.424 1.57049 -6.32597 0
M  V30 5654 N 515.857 1.33968 -0.830081 0
M  V30 5655 C 516.789 2.28194 -0.21448 0
M  V30 5656 C 517.802 1.5135 0.599752 0
M  V30 5657 O 518.991 1.73286 0.42826 0
M  V30 5658 C 516.091 3.31221 0.717356 0
M  V30 5659 C 515.264 4.37365 -0.055613 0
M  V30 5660 C 514.323 5.2011 0.798231 0
M  V30 5661 O 513.349 5.68691 0.240616 0
M  V30 5662 N 514.551 5.40523 2.11695 0
M  V30 5663 H 517.316 2.81662 -1.02405 0
M  V30 5664 H 514.877 1.46568 -0.687713 0
M  V30 5665 H 516.869 3.83477 1.29334 0
M  V30 5666 H 515.439 2.78095 1.42765 0
M  V30 5667 H 514.659 3.85727 -0.812936 0
M  V30 5668 H 515.947 5.05397 -0.587444 0
M  V30 5669 H 515.345 5.0274 2.59363 0
M  V30 5670 H 513.902 5.95871 2.64162 0
M  V30 5671 N 517.335 0.585699 1.46312 0
M  V30 5672 C 518.265 -0.133556 2.33118 0
M  V30 5673 C 519.246 -0.880707 1.45525 0
M  V30 5674 O 520.431 -0.855579 1.74337 0
M  V30 5675 C 517.561 -1.14585 3.27853 0
M  V30 5676 C 516.515 -0.513341 4.2491 0
M  V30 5677 C 515.841 -1.63231 5.09175 0
M  V30 5678 C 517.141 0.551413 5.19381 0
M  V30 5679 H 518.835 0.59121 2.93505 0
M  V30 5680 H 516.381 0.285761 1.41136 0
M  V30 5681 H 518.334 -1.65741 3.87438 0
M  V30 5682 H 517.058 -1.90093 2.65579 0
M  V30 5683 H 515.717 -0.0228349 3.66593 0
M  V30 5684 H 515.365 -2.37713 4.43285 0
M  V30 5685 H 515.065 -1.21473 5.74907 0
M  V30 5686 H 516.589 -2.14658 5.71624 0
M  V30 5687 H 518.003 0.124804 5.73164 0
M  V30 5688 H 516.4 0.889486 5.93471 0
M  V30 5689 H 517.47 1.43655 4.63132 0
M  V30 5690 N 518.813 -1.54241 0.323641 0
M  V30 5691 C 520.038 -2.05452 -0.283605 0
M  V30 5692 C 520.463 -1.19823 -1.44997 0
M  V30 5693 O 519.821 -0.207358 -1.8011 0
M  V30 5694 C 519.869 -3.53823 -0.695795 0
M  V30 5695 O 518.973 -3.71134 -1.79815 0
M  V30 5696 H 518.314 -0.662024 -0.0511917 0
M  V30 5697 H 520.844 -1.99079 0.472073 0
M  V30 5698 H 520.854 -3.96094 -0.978434 0
M  V30 5699 H 519.529 -4.15602 0.157287 0
M  V30 5700 H 518.106 -3.40768 -1.51431 0
M  V30 5701 N 520.291 -0.0518155 -1.57515 0
M  V30 5702 C 521.539 0.620595 -1.92336 0
M  V30 5703 C 521.86 1.71345 -0.930907 0
M  V30 5704 O 521.13 1.95885 0.0241341 0
M  V30 5705 H 519.71 0.232226 -0.709986 0
M  V30 5706 H 522.372 -0.104969 -1.94617 0
M  V30 5707 H 521.468 1.05879 -2.93592 0
M  V30 5708 N 521.769 1.56035 0.221574 0
M  V30 5709 C 522.999 1.82864 0.961468 0
M  V30 5710 C 523.407 0.628703 1.78449 0
M  V30 5711 O 522.75 -0.412109 1.79018 0
M  V30 5712 C 522.812 3.03425 1.92804 0
M  V30 5713 C 522.476 4.38429 1.28954 0
M  V30 5714 C 523.473 5.15441 0.679431 0
M  V30 5715 C 521.158 4.85151 1.30131 0
M  V30 5716 C 523.152 6.37337 0.0896148 0
M  V30 5717 C 520.839 6.06989 0.707651 0
M  V30 5718 C 521.837 6.82923 0.102855 0
M  V30 5719 O 521.525 8.02456 -0.48157 0
M  V30 5720 H 521.257 0.611883 0.28736 0
M  V30 5721 H 523.811 2.0397 0.241932 0
M  V30 5722 H 522.041 2.78138 2.68656 0
M  V30 5723 H 523.73 3.17127 2.53348 0
M  V30 5724 H 524.496 4.80452 0.662661 0
M  V30 5725 H 520.375 4.26021 1.76145 0
M  V30 5726 H 523.919 6.96547 -0.383069 0
M  V30 5727 H 519.816 6.41451 0.721834 0
M  V30 5728 H 520.584 8.17636 -0.375887 0
M  V30 5729 N 523.247 -0.488276 1.49845 0
M  V30 5730 C 524.494 -1.24157 1.59973 0
M  V30 5731 C 524.822 -1.92293 0.292182 0
M  V30 5732 O 524.077 -1.81942 -0.720813 0
M  V30 5733 C 524.376 -2.32152 2.71735 0
M  V30 5734 C 524.042 -1.81387 4.12807 0
M  V30 5735 C 522.704 -1.67262 4.51195 0
M  V30 5736 C 525.056 -1.43537 5.01045 0
M  V30 5737 C 522.384 -1.13685 5.7558 0
M  V30 5738 C 524.736 -0.914081 6.25961 0
M  V30 5739 C 523.4 -0.759327 6.63167 0
M  V30 5740 H 522.67 -0.454322 0.585383 0
M  V30 5741 H 525.317 -0.540261 1.83721 0
M  V30 5742 H 523.622 -3.08122 2.42008 0
M  V30 5743 H 525.319 -2.90164 2.76778 0
M  V30 5744 H 521.909 -1.93344 3.82513 0
M  V30 5745 H 526.093 -1.53292 4.72033 0
M  V30 5746 H 521.349 -1.00426 6.03096 0
M  V30 5747 H 525.523 -0.612066 6.93705 0
M  V30 5748 H 523.15 -0.342002 7.5943 0
M  V30 5749 N 524.725 -1.39134 -0.740242 0
M  V30 5750 C 525.655 -1.40165 -1.86751 0
M  V30 5751 C 526.636 -0.265708 -1.68012 0
M  V30 5752 O 527.821 -0.47076 -1.88408 0
M  V30 5753 C 524.951 -1.2392 -3.2444 0
M  V30 5754 C 523.905 -2.34858 -3.57807 0
M  V30 5755 C 523.231 -2.03707 -4.94376 0
M  V30 5756 C 524.531 -3.77159 -3.61315 0
M  V30 5757 H 526.225 -2.345 -1.86145 0
M  V30 5758 H 523.771 -1.12875 -0.89416 0
M  V30 5759 H 525.724 -1.23263 -4.02969 0
M  V30 5760 H 524.448 -0.26051 -3.25559 0
M  V30 5761 H 523.107 -2.34723 -2.81604 0
M  V30 5762 H 522.755 -1.04289 -4.9207 0
M  V30 5763 H 522.455 -2.78016 -5.17669 0
M  V30 5764 H 523.979 -2.04691 -5.75268 0
M  V30 5765 H 525.393 -3.79252 -4.29931 0
M  V30 5766 H 523.79 -4.50784 -3.96124 0
M  V30 5767 H 524.86 -4.08513 -2.61238 0
M  V30 5768 N 526.204 0.969867 -1.24223 0
M  V30 5769 C 527.136 2.0669 -0.99055 0
M  V30 5770 C 528.149 1.62753 0.0392222 0
M  V30 5771 O 529.338 1.77403 -0.197561 0
M  V30 5772 C 526.438 3.35589 -0.472594 0
M  V30 5773 C 525.611 4.08444 -1.56499 0
M  V30 5774 C 524.67 5.15616 -1.05007 0
M  V30 5775 O 523.696 5.41911 -1.7413 0
M  V30 5776 N 524.898 5.80383 0.116641 0
M  V30 5777 H 527.663 2.28855 -1.93508 0
M  V30 5778 H 525.224 1.13733 -1.15223 0
M  V30 5779 H 527.216 4.04542 -0.112919 0
M  V30 5780 H 525.786 3.10311 0.377617 0
M  V30 5781 H 525.006 3.33798 -2.09696 0
M  V30 5782 H 526.294 4.53882 -2.29932 0
M  V30 5783 H 525.692 5.6142 0.694589 0
M  V30 5784 H 524.249 6.50462 0.417483 0
M  V30 5785 N 527.682 1.05563 1.17022 0
M  V30 5786 C 528.612 0.681026 2.23348 0
M  V30 5787 C 529.593 -0.322983 1.67005 0
M  V30 5788 O 530.778 -0.199746 1.9317 0
M  V30 5789 C 527.908 0.0589053 3.4725 0
M  V30 5790 C 526.862 0.988082 4.16438 0
M  V30 5791 C 526.188 0.229646 5.34207 0
M  V30 5792 C 527.488 2.31388 4.68249 0
M  V30 5793 H 529.182 1.56993 2.54938 0
M  V30 5794 H 526.728 0.756302 1.2254 0
M  V30 5795 H 528.681 -0.214982 4.20851 0
M  V30 5796 H 527.405 -0.864968 3.14938 0
M  V30 5797 H 526.064 1.24659 3.44754 0
M  V30 5798 H 525.712 -0.697111 4.98146 0
M  V30 5799 H 525.412 0.848815 5.81437 0
M  V30 5800 H 526.936 -0.0368694 6.10589 0
M  V30 5801 H 528.35 2.09964 5.33468 0
M  V30 5802 H 526.747 2.88736 5.26072 0
M  V30 5803 H 527.817 2.94982 3.84855 0
M  V30 5804 N 529.16 -1.33526 0.837174 0
M  V30 5805 C 530.107 -2.29248 0.267169 0
M  V30 5806 C 531.077 -1.54252 -0.616071 0
M  V30 5807 O 532.262 -1.82559 -0.554699 0
M  V30 5808 C 529.402 -3.40638 -0.553152 0
M  V30 5809 C 528.515 -4.30548 0.353921 0
M  V30 5810 C 527.65 -5.29051 -0.477339 0
M  V30 5811 C 526.689 -6.106 0.42823 0
M  V30 5812 N 525.826 -7.01152 -0.364801 0
M  V30 5813 H 530.666 -2.77398 1.08877 0
M  V30 5814 H 528.203 -1.36496 0.54838 0
M  V30 5815 H 530.161 -4.03921 -1.04422 0
M  V30 5816 H 528.791 -2.93685 -1.33973 0
M  V30 5817 H 527.843 -3.68001 0.963289 0
M  V30 5818 H 529.155 -4.87631 1.04964 0
M  V30 5819 H 528.309 -5.97853 -1.0323 0
M  V30 5820 H 527.048 -4.72541 -1.2065 0
M  V30 5821 H 526.053 -5.40718 0.995219 0
M  V30 5822 H 527.278 -6.69193 1.15573 0
M  V30 5823 H 525.224 -6.47092 -1.07738 0
M  V30 5824 H 525.141 -7.5551 0.272238 0
M  V30 5825 H 526.409 -7.74263 -0.902054 0
M  V30 5826 N 530.638 -0.59345 -1.46 0
M  V30 5827 C 531.885 -0.0831523 -2.02329 0
M  V30 5828 C 532.213 1.28093 -1.46364 0
M  V30 5829 O 531.468 1.85526 -0.622793 0
M  V30 5830 C 531.767 0.021178 -3.57394 0
M  V30 5831 C 531.433 -1.27671 -4.32448 0
M  V30 5832 C 530.095 -1.63227 -4.5267 0
M  V30 5833 C 532.447 -2.13511 -4.7546 0
M  V30 5834 C 529.775 -2.84401 -5.1316 0
M  V30 5835 C 532.127 -3.33922 -5.37289 0
M  V30 5836 C 530.791 -3.69747 -5.55737 0
M  V30 5837 H 530.061 -0.0304276 -0.740375 0
M  V30 5838 H 532.708 -0.772239 -1.75239 0
M  V30 5839 H 531.013 0.793454 -3.83682 0
M  V30 5840 H 532.71 0.431942 -3.98667 0
M  V30 5841 H 529.3 -0.989937 -4.17011 0
M  V30 5842 H 533.484 -1.87344 -4.59582 0
M  V30 5843 H 528.74 -3.12282 -5.25633 0
M  V30 5844 H 532.914 -4.00698 -5.69574 0
M  V30 5845 H 530.541 -4.6373 -6.02377 0
M  V30 5846 N 532.116 1.54067 -0.331816 0
M  V30 5847 C 533.393 1.92915 0.322955 0
M  V30 5848 C 533.773 1.26225 1.69205 0
M  V30 5849 O 533.121 0.408919 2.24811 0
M  V30 5850 C 533.331 3.46619 0.406946 0
M  V30 5851 C 534.679 4.19386 0.663339 0
M  V30 5852 O 535.703 3.5282 0.489536 0
M  V30 5853 O 534.562 5.37288 0.999193 0
M  V30 5854 H 531.656 0.805808 0.186016 0
M  V30 5855 H 534.202 1.65342 -0.382135 0
M  V30 5856 H 532.974 3.87354 -0.554287 0
M  V30 5857 H 532.597 3.80324 1.15929 0
M  V30 5858 N 533.594 0.0601682 1.57485 0
M  V30 5859 C 535.005 -0.474217 1.80577 0
M  V30 5860 C 535.356 -1.70365 0.973147 0
M  V30 5861 O 534.481 -2.15544 0.192306 0
M  V30 5862 C 535.076 -0.867102 3.27516 0
M  V30 5863 C 533.635 -1.34642 3.51495 0
M  V30 5864 C 532.782 -0.32594 2.75378 0
M  V30 5865 H 535.733 0.285973 1.56102 0
M  V30 5866 H 535.754 -1.72938 3.38929 0
M  V30 5867 H 535.266 0.0278927 3.8809 0
M  V30 5868 H 533.367 -2.2603 2.96212 0
M  V30 5869 H 533.48 -1.33237 4.60201 0
M  V30 5870 H 531.844 -0.800749 2.41785 0
M  V30 5871 H 532.627 0.561125 3.38683 0
M  V30 5872 N 535.072 -1.5615 -0.213296 0
M  V30 5873 C 535.982 -1.96265 -1.28519 0
M  V30 5874 C 536.998 -0.86765 -1.50824 0
M  V30 5875 O 538.174 -1.17191 -1.63793 0
M  V30 5876 C 535.239 -2.27836 -2.61327 0
M  V30 5877 C 534.3 -3.50949 -2.47252 0
M  V30 5878 C 533.533 -3.81004 -3.73727 0
M  V30 5879 O 533.756 -3.12612 -4.77106 0
M  V30 5880 O 532.69 -4.74477 -3.70344 0
M  V30 5881 H 536.516 -2.87631 -0.974795 0
M  V30 5882 H 534.101 -1.43467 -0.416832 0
M  V30 5883 H 535.983 -2.49299 -3.39747 0
M  V30 5884 H 534.658 -1.39643 -2.9203 0
M  V30 5885 H 533.565 -3.34754 -1.67004 0
M  V30 5886 H 534.898 -4.39551 -2.21486 0
M  V30 5887 N 536.55 0.480323 -1.50102 0
M  V30 5888 C 537.48 1.58769 -1.71215 0
M  V30 5889 C 538.461 1.60583 -0.560997 0
M  V30 5890 O 539.646 1.76996 -0.799127 0
M  V30 5891 C 536.776 2.97148 -1.79778 0
M  V30 5892 C 535.73 3.10201 -2.94888 0
M  V30 5893 C 535.056 4.50137 -2.88584 0
M  V30 5894 C 536.356 2.88283 -4.35534 0
M  V30 5895 H 538.05 1.41354 -2.6393 0
M  V30 5896 H 535.596 0.678591 -1.27008 0
M  V30 5897 H 537.549 3.74536 -1.93133 0
M  V30 5898 H 536.273 3.15699 -0.836772 0
M  V30 5899 H 534.932 2.35244 -2.81169 0
M  V30 5900 H 534.58 4.65593 -1.90349 0
M  V30 5901 H 534.28 4.59808 -3.65856 0
M  V30 5902 H 535.804 5.29558 -3.03976 0
M  V30 5903 H 537.218 3.55427 -4.49827 0
M  V30 5904 H 535.615 3.09408 -5.14186 0
M  V30 5905 H 536.685 1.84219 -4.48544 0
M  V30 5906 N 538.028 1.39524 0.732853 0
M  V30 5907 C 538.958 1.41153 1.86005 0
M  V30 5908 C 539.939 0.274614 1.67869 0
M  V30 5909 O 541.124 0.480745 1.88155 0
M  V30 5910 C 538.254 1.25638 3.23778 0
M  V30 5911 C 537.208 2.36752 3.56556 0
M  V30 5912 C 536.534 2.06326 4.93289 0
M  V30 5913 C 537.834 3.79069 3.5931 0
M  V30 5914 H 539.528 2.35484 1.84899 0
M  V30 5915 H 537.074 1.13348 0.888162 0
M  V30 5916 H 539.027 1.25398 4.0231 0
M  V30 5917 H 537.751 0.277772 3.25417 0
M  V30 5918 H 536.41 2.36213 2.80355 0
M  V30 5919 H 536.058 1.06897 4.9151 0
M  V30 5920 H 535.758 2.80757 5.16187 0
M  V30 5921 H 537.282 2.07739 5.74175 0
M  V30 5922 H 538.696 3.81526 4.27914 0
M  V30 5923 H 537.093 4.52878 3.93728 0
M  V30 5924 H 538.163 4.09893 2.59068 0
M  V30 5925 N 539.506 -0.963266 1.24736 0
M  V30 5926 C 540.753 -1.7068 1.0897 0
M  V30 5927 C 541.081 -1.90934 -0.370751 0
M  V30 5928 O 540.336 -1.47155 -1.29011 0
M  V30 5929 C 540.635 -3.09944 1.7796 0
M  V30 5930 C 540.301 -3.09518 3.27887 0
M  V30 5931 C 538.963 -3.09109 3.68789 0
M  V30 5932 C 541.315 -3.03509 4.23712 0
M  V30 5933 C 538.643 -3.00429 5.03944 0
M  V30 5934 C 540.995 -2.96371 5.5888 0
M  V30 5935 C 539.659 -2.94293 5.99123 0
M  V30 5936 H 538.929 -0.624564 0.398749 0
M  V30 5937 H 541.576 -1.12603 1.54896 0
M  V30 5938 H 539.881 -3.71513 1.2444 0
M  V30 5939 H 541.578 -3.66278 1.63222 0
M  V30 5940 H 538.168 -3.10603 2.95337 0
M  V30 5941 H 542.352 -3.0295 3.93109 0
M  V30 5942 H 537.608 -2.97183 5.34314 0
M  V30 5943 H 541.782 -2.90681 6.32833 0
M  V30 5944 H 539.409 -2.87322 7.03811 0
M  V30 5945 N 540.985 -1.06182 -1.16461 0
M  V30 5946 C 542.233 -0.776326 -1.86595 0
M  V30 5947 C 542.554 0.69921 -1.82033 0
M  V30 5948 O 541.824 1.50579 -1.2531 0
M  V30 5949 H 540.404 -0.284184 -0.690832 0
M  V30 5950 H 543.066 -1.34308 -1.41235 0
M  V30 5951 H 542.162 -1.10022 -2.92064 0
M  V30 5952 N 542.463 1.3308 -0.844243 0
M  V30 5953 C 543.709 1.97898 -0.443206 0
M  V30 5954 C 544.042 1.66699 0.99625 0
M  V30 5955 O 543.317 0.949704 1.69738 0
M  V30 5956 C 543.6 3.53801 -0.670606 0
M  V30 5957 C 543.453 3.94667 -2.15772 0
M  V30 5958 C 544.772 4.39936 -0.120226 0
M  V30 5959 H 541.891 0.718861 -0.162504 0
M  V30 5960 H 544.533 1.57633 -1.06075 0
M  V30 5961 H 542.683 3.88229 -0.14496 0
M  V30 5962 H 544.355 3.70469 -2.74865 0
M  V30 5963 H 542.598 3.44203 -2.6402 0
M  V30 5964 H 543.269 5.03275 -2.26757 0
M  V30 5965 H 545.745 4.12183 -0.5696 0
M  V30 5966 H 544.621 5.4803 -0.308984 0
M  V30 5967 H 544.882 4.31184 0.976347 0
M  V30 5968 N 543.941 0.601185 1.45683 0
M  V30 5969 C 544.873 -0.159446 2.28645 0
M  V30 5970 C 545.886 -0.837882 1.39583 0
M  V30 5971 O 547.075 -0.704344 1.64016 0
M  V30 5972 C 544.175 -1.24641 3.15147 0
M  V30 5973 C 543.348 -0.656334 4.32448 0
M  V30 5974 C 542.407 -1.63337 5.00208 0
M  V30 5975 O 541.433 -1.16217 5.57209 0
M  V30 5976 N 542.635 -2.96773 4.98905 0
M  V30 5977 H 545.4 0.5524 2.94565 0
M  V30 5978 H 542.961 0.440223 1.558 0
M  V30 5979 H 544.953 -1.8997 3.57342 0
M  V30 5980 H 543.523 -1.86087 2.51178 0
M  V30 5981 H 542.743 0.174879 3.93812 0
M  V30 5982 H 544.031 -0.242211 5.08223 0
M  V30 5983 H 543.429 -3.37662 4.53873 0
M  V30 5984 H 541.986 -3.57541 5.44984 0
M  V30 5985 N 545.419 -1.53889 0.339982 0
M  V30 5986 C 546.666 -2.00855 -0.257621 0
M  V30 5987 C 546.994 -1.22788 -1.50842 0
M  V30 5988 O 546.249 -0.302567 -1.93347 0
M  V30 5989 C 546.548 -3.51968 -0.620735 0
M  V30 5990 C 546.214 -4.47741 0.532771 0
M  V30 5991 C 544.876 -4.73645 0.849339 0
M  V30 5992 C 547.228 -5.04551 1.3068 0
M  V30 5993 C 544.556 -5.53614 1.94237 0
M  V30 5994 C 546.908 -5.85713 2.39005 0
M  V30 5995 C 545.572 -6.09912 2.71225 0
M  V30 5996 H 544.842 -0.734979 -0.0942703 0
M  V30 5997 H 547.489 -1.85714 0.467159 0
M  V30 5998 H 545.794 -3.64921 -1.42618 0
M  V30 5999 H 547.491 -3.85762 -1.09495 0
M  V30 6000 H 544.081 -4.27711 0.275973 0
M  V30 6001 H 548.265 -4.84507 1.07549 0
M  V30 6002 H 543.521 -5.7059 2.19628 0
M  V30 6003 H 547.695 -6.28748 2.99415 0
M  V30 6004 H 545.322 -6.71665 3.56047 0
M  V30 6005 N 546.897 -0.0685191 -1.57451 0
M  V30 6006 C 547.829 0.929372 -2.09512 0
M  V30 6007 C 548.842 1.26354 -1.02657 0
M  V30 6008 O 550.031 1.2213 -1.30179 0
M  V30 6009 C 547.131 2.24612 -2.53777 0
M  V30 6010 C 546.304 2.09128 -3.84167 0
M  V30 6011 C 545.363 3.24079 -4.14559 0
M  V30 6012 O 544.389 2.99215 -4.8421 0
M  V30 6013 N 545.591 4.49077 -3.67845 0
M  V30 6014 H 548.356 0.484901 -2.95751 0
M  V30 6015 H 545.917 0.11729 -1.61475 0
M  V30 6016 H 547.909 3.00412 -2.71172 0
M  V30 6017 H 546.479 2.60569 -1.72692 0
M  V30 6018 H 545.699 1.17815 -3.76182 0
M  V30 6019 H 546.987 1.9603 -4.69521 0
M  V30 6020 H 546.385 4.72165 -3.11571 0
M  V30 6021 H 544.942 5.21915 -3.90446 0
M  V30 6022 N 548.375 1.56261 0.205012 0
M  V30 6023 C 549.605 1.83874 0.942018 0
M  V30 6024 C 550.013 0.647595 1.77772 0
M  V30 6025 O 549.356 -0.393098 1.79445 0
M  V30 6026 C 549.418 3.05453 1.89575 0
M  V30 6027 C 549.082 4.39772 1.24296 0
M  V30 6028 C 550.079 5.16133 0.624724 0
M  V30 6029 C 547.764 4.86504 1.24978 0
M  V30 6030 C 549.758 6.37396 0.0220117 0
M  V30 6031 C 547.445 6.07705 0.643232 0
M  V30 6032 C 548.443 6.82993 0.0304164 0
M  V30 6033 O 548.131 8.019 -0.566654 0
M  V30 6034 H 547.863 0.614896 0.280854 0
M  V30 6035 H 550.417 2.04215 0.220285 0
M  V30 6036 H 548.647 2.80972 2.65691 0
M  V30 6037 H 550.336 3.19797 2.4997 0
M  V30 6038 H 551.102 4.81127 0.611666 0
M  V30 6039 H 546.981 4.27865 1.71616 0
M  V30 6040 H 550.525 6.96102 -0.456926 0
M  V30 6041 H 546.422 6.42181 0.653759 0
M  V30 6042 H 547.19 8.17192 -0.462588 0
M  V30 6043 N 549.853 -0.472356 1.50355 0
M  V30 6044 C 551.269 -0.806001 1.37753 0
M  V30 6045 C 551.469 -1.968 0.432649 0
M  V30 6046 O 550.525 -2.52189 -0.12519 0
M  V30 6047 C 551.838 -1.11926 2.79093 0
M  V30 6048 C 553.386 -1.22579 2.87999 0
M  V30 6049 C 553.861 -1.57218 4.3017 0
M  V30 6050 N 555.352 -1.64212 4.33115 0
M  V30 6051 C 556.087 -1.92517 5.40116 0
M  V30 6052 N 555.583 -2.1885 6.57325 0
M  V30 6053 N 557.376 -1.94008 5.27558 0
M  V30 6054 H 549.527 0.293451 2.10363 0
M  V30 6055 H 551.79 0.0687672 0.945503 0
M  V30 6056 H 551.496 -0.338504 3.50067 0
M  V30 6057 H 551.37 -2.05577 3.16256 0
M  V30 6058 H 553.757 -1.99722 2.17245 0
M  V30 6059 H 553.838 -0.269107 2.54381 0
M  V30 6060 H 553.482 -0.806154 5.01461 0
M  V30 6061 H 553.412 -2.54034 4.61275 0
M  V30 6062 H 555.903 -1.45906 3.48597 0
M  V30 6063 H 556.216 -2.39718 7.3468 0
M  V30 6064 H 554.561 -2.16245 6.60502 0
M  V30 6065 H 557.752 -1.72931 4.34986 0
M  V30 6066 H 557.925 -2.15731 6.11035 0
M  V30 6067 N 551.331 -1.39911 -0.725443 0
M  V30 6068 C 552.279 -1.39552 -1.86086 0
M  V30 6069 C 553.273 -0.277334 -1.67114 0
M  V30 6070 O 554.479 -0.447865 -1.74339 0
M  V30 6071 H 550.854 -0.435993 -0.612711 0
M  V30 6072 H 552.825 -2.35305 -1.83505 0
M  V30 6073 C 551.574 -1.26529 -3.2386 0
M  V30 6074 H 550.897 -2.11845 -3.3906 0
M  V30 6075 H 552.337 -1.30336 -4.03471 0
M  V30 6076 C 550.796 0.0254168 -3.3689 0
M  V30 6077 O 551.326 0.992048 -3.89257 0
M  V30 6078 N 549.532 0.0916528 -2.90455 0
M  V30 6079 H 549.079 -0.695675 -2.48028 0
M  V30 6080 H 549.037 0.954745 -2.99553 0
M  V30 6081 N 552.809 0.956637 -1.25245 0
M  V30 6082 C 554.225 1.22733 -1.02023 0
M  V30 6083 C 554.425 1.99761 0.264186 0
M  V30 6084 O 553.481 2.32814 0.977436 0
M  V30 6085 C 554.794 2.00367 -2.24217 0
M  V30 6086 C 556.342 2.13418 -2.28958 0
M  V30 6087 C 556.817 2.9445 -3.50803 0
M  V30 6088 N 558.308 3.02029 -3.51187 0
M  V30 6089 C 559.043 3.65116 -4.42129 0
M  V30 6090 N 558.539 4.2983 -5.43339 0
M  V30 6091 N 560.332 3.62237 -4.29815 0
M  V30 6092 H 552.483 0.441282 -2.07765 0
M  V30 6093 H 554.746 0.257686 -0.912306 0
M  V30 6094 H 554.452 1.51165 -3.17556 0
M  V30 6095 H 554.326 3.01077 -2.27228 0
M  V30 6096 H 556.713 2.61819 -1.36143 0
M  V30 6097 H 556.794 1.1202 -2.29968 0
M  V30 6098 H 556.438 2.46741 -4.43939 0
M  V30 6099 H 556.368 3.9607 -3.47039 0
M  V30 6100 H 558.859 2.56007 -2.77973 0
M  V30 6101 H 559.172 4.75819 -6.08947 0
M  V30 6102 H 557.517 4.28465 -5.47214 0
M  V30 6103 H 560.708 3.10863 -3.49974 0
M  V30 6104 H 560.881 4.11117 -5.00886 0
M  V30 6105 N 554.287 1.06798 1.15896 0
M  V30 6106 C 555.536 0.782796 1.8589 0
M  V30 6107 C 555.849 -0.693498 1.82893 0
M  V30 6108 O 557.055 -1.09325 2.48516 0
M  V30 6109 C 555.511 1.3502 3.33613 0
M  V30 6110 C 555.119 2.8571 3.45071 0
M  V30 6111 C 556.863 1.14278 4.08829 0
M  V30 6112 C 554.77 3.35669 4.86909 0
M  V30 6113 H 553.7 0.289149 0.696354 0
M  V30 6114 H 556.351 1.28734 1.30766 0
M  V30 6115 H 554.733 0.773407 3.88374 0
M  V30 6116 H 555.907 3.49385 3.00445 0
M  V30 6117 H 554.222 3.05178 2.83294 0
M  V30 6118 H 556.819 1.49087 5.13495 0
M  V30 6119 H 557.162 0.0814575 4.1622 0
M  V30 6120 H 557.695 1.68563 3.60321 0
M  V30 6121 H 554.434 4.41302 4.84698 0
M  V30 6122 H 553.954 2.76745 5.32139 0
M  V30 6123 H 555.633 3.31296 5.55745 0
M  V30 6124 N 555.766 -1.3263 0.851289 0
M  V30 6125 C 556.729 -2.27247 0.298541 0
M  V30 6126 C 557.729 -1.51467 -0.539847 0
M  V30 6127 O 558.919 -1.7061 -0.351843 0
M  V30 6128 C 556.051 -3.35964 -0.578004 0
M  V30 6129 H 557.244 -2.7765 1.13359 0
M  V30 6130 H 554.797 -1.43245 0.625354 0
M  V30 6131 H 555.532 -2.90823 -1.435 0
M  V30 6132 H 555.317 -3.92094 0.0220539 0
M  V30 6133 H 556.807 -4.06472 -0.957626 0
M  V30 6134 N 557.244 -0.608902 -1.45362 0
M  V30 6135 C 558.177 0.158059 -2.27652 0
M  V30 6136 C 559.155 0.872397 -1.37215 0
M  V30 6137 O 560.339 0.881002 -1.66645 0
M  V30 6138 C 557.466 1.22896 -3.15617 0
M  V30 6139 C 556.512 0.617607 -4.22005 0
M  V30 6140 S 557.345 -0.575518 -5.32398 0
M  V30 6141 C 558.501 0.495938 -6.23932 0
M  V30 6142 H 558.734 -0.540095 -2.92353 0
M  V30 6143 H 556.267 -0.396456 -1.49223 0
M  V30 6144 H 558.225 1.84195 -3.66855 0
M  V30 6145 H 556.886 1.89919 -2.50179 0
M  V30 6146 H 556.079 1.42341 -4.83482 0
M  V30 6147 H 555.681 0.0797273 -3.73915 0
M  V30 6148 H 557.973 1.37465 -6.63408 0
M  V30 6149 H 558.916 -0.0827108 -7.08052 0
M  V30 6150 H 559.324 0.811856 -5.58631 0
M  V30 6151 N 558.722 1.53707 -0.348139 0
M  V30 6152 C 559.632 2.28881 0.514857 0
M  V30 6153 C 560.648 1.34168 1.10793 0
M  V30 6154 O 561.824 1.6721 1.12262 0
M  V30 6155 C 558.889 3.05042 1.64774 0
M  V30 6156 C 557.95 4.15389 1.08398 0
M  V30 6157 C 557.183 4.87909 2.16287 0
M  V30 6158 O 557.406 4.60137 3.3709 0
M  V30 6159 O 556.34 5.74254 1.80323 0
M  V30 6160 H 560.166 3.03547 -0.0963699 0
M  V30 6161 H 557.751 1.48972 -0.113043 0
M  V30 6162 H 559.633 3.52656 2.30677 0
M  V30 6163 H 558.308 2.33228 2.24469 0
M  V30 6164 H 557.215 3.72068 0.389341 0
M  V30 6165 H 558.548 4.89318 0.531829 0
M  V30 6166 N 560.2 0.0768682 1.57412 0
M  V30 6167 C 561.447 -0.591085 1.93681 0
M  V30 6168 C 561.775 -1.69311 0.957286 0
M  V30 6169 O 561.03 -1.95682 -0.0262428 0
M  V30 6170 C 561.329 -1.20268 3.36557 0
M  V30 6171 C 560.995 -0.226286 4.50332 0
M  V30 6172 C 559.657 0.0423142 4.81181 0
M  V30 6173 C 562.009 0.441415 5.19327 0
M  V30 6174 C 559.337 0.985616 5.78362 0
M  V30 6175 C 561.689 1.37307 6.17519 0
M  V30 6176 C 560.353 1.65009 6.46783 0
M  V30 6177 H 559.623 -0.216293 0.70873 0
M  V30 6178 H 562.27 0.148824 1.90921 0
M  V30 6179 H 560.575 -2.01844 3.35807 0
M  V30 6180 H 562.272 -1.72688 3.61911 0
M  V30 6181 H 558.862 -0.445821 4.26275 0
M  V30 6182 H 563.046 0.247023 4.95685 0
M  V30 6183 H 558.302 1.20743 5.99359 0
M  V30 6184 H 562.476 1.89637 6.70083 0
M  V30 6185 H 560.103 2.38263 7.21897 0
M  V30 6186 N 561.678 -1.56367 -0.196722 0
M  V30 6187 C 562.626 -1.95304 -1.2633 0
M  V30 6188 C 563.62 -0.838252 -1.47206 0
M  V30 6189 O 564.826 -1.02325 -1.48087 0
M  V30 6190 H 561.201 -0.621013 -0.424083 0
M  V30 6191 H 563.172 -2.84254 -0.907879 0
M  V30 6192 C 561.921 -2.3074 -2.60104 0
M  V30 6193 H 561.244 -3.16047 -2.44856 0
M  V30 6194 H 562.684 -2.61849 -3.33484 0
M  V30 6195 C 561.143 -1.14143 -3.16975 0
M  V30 6196 O 561.673 -0.415602 -3.99544 0
M  V30 6197 N 559.879 -0.91867 -2.75697 0
M  V30 6198 H 559.426 -1.51065 -2.08656 0
M  V30 6199 H 559.384 -0.140321 -3.14087 0
M  V30 6200 N 563.156 0.464375 -1.50603 0
M  V30 6201 C 564.106 1.55929 -1.66343 0
M  V30 6202 C 565.09 1.52338 -0.517887 0
M  V30 6203 O 566.282 1.59248 -0.772601 0
M  V30 6204 C 563.411 2.94327 -1.7671 0
M  V30 6205 C 562.497 3.02777 -2.96962 0
M  V30 6206 N 562.888 2.81026 -4.20545 0
M  V30 6207 C 561.186 3.33919 -2.95659 0
M  V30 6208 C 561.887 2.94618 -5.01573 0
M  V30 6209 N 560.863 3.25112 -4.35664 0
M  V30 6210 H 564.665 1.37822 -2.59581 0
M  V30 6211 H 562.179 0.671227 -1.47879 0
M  V30 6212 H 564.176 3.73063 -1.86091 0
M  V30 6213 H 562.836 3.13476 -0.846353 0
M  V30 6214 H 563.847 2.56477 -4.49933 0
M  V30 6215 H 560.524 3.59013 -2.13111 0
M  V30 6216 H 561.914 2.81984 -6.09865 0
M  V30 6217 N 564.634 1.40294 0.718013 0
M  V30 6218 C 565.564 1.43118 1.84498 0
M  V30 6219 C 566.545 0.292403 1.67568 0
M  V30 6220 O 567.73 0.500675 1.87635 0
M  V30 6221 C 564.86 1.29065 3.22427 0
M  V30 6222 C 563.814 2.40521 3.54025 0
M  V30 6223 C 563.14 2.11546 4.91073 0
M  V30 6224 C 564.44 3.82859 3.55269 0
M  V30 6225 H 566.134 2.37432 1.82391 0
M  V30 6226 H 563.68 1.14283 0.87609 0
M  V30 6227 H 565.633 1.29658 4.00957 0
M  V30 6228 H 564.357 0.312271 3.25104 0
M  V30 6229 H 563.016 2.39173 2.77834 0
M  V30 6230 H 562.664 1.12104 4.90348 0
M  V30 6231 H 562.364 2.86216 5.1318 0
M  V30 6232 H 563.888 2.13817 5.71939 0
M  V30 6233 H 565.302 3.86044 4.23843 0
M  V30 6234 H 563.699 4.57029 3.88902 0
M  V30 6235 H 564.769 4.12617 2.54706 0
M  V30 6236 N 566.112 -0.949982 1.2575 0
M  V30 6237 C 567.342 -1.72721 1.13363 0
M  V30 6238 C 567.75 -1.86562 -0.314842 0
M  V30 6239 O 567.093 -1.36621 -1.22803 0
M  V30 6240 C 567.155 -3.15695 1.7198 0
M  V30 6241 C 566.819 -3.25268 3.21014 0
M  V30 6242 C 567.816 -3.09222 4.17945 0
M  V30 6243 C 565.501 -3.4894 3.61312 0
M  V30 6244 C 567.495 -3.16701 5.53154 0
M  V30 6245 C 565.182 -3.56055 4.96657 0
M  V30 6246 C 566.18 -3.3995 5.92387 0
M  V30 6247 O 565.868 -3.46757 7.25269 0
M  V30 6248 H 565.6 -0.547888 0.395973 0
M  V30 6249 H 568.154 -1.20009 1.66694 0
M  V30 6250 H 566.384 -3.69791 1.13101 0
M  V30 6251 H 568.073 -3.75295 1.54624 0
M  V30 6252 H 568.839 -2.90798 3.88151 0
M  V30 6253 H 564.718 -3.60534 2.87291 0
M  V30 6254 H 568.262 -3.04048 6.27854 0
M  V30 6255 H 564.159 -3.73997 5.26115 0
M  V30 6256 H 564.927 -3.63358 7.33426 0
M  V30 6257 N 567.59 -1.07411 -1.15328 0
M  V30 6258 C 568.54 -0.664788 -2.18093 0
M  V30 6259 C 569.524 0.310395 -1.57878 0
M  V30 6260 O 570.716 0.124026 -1.76565 0
M  V30 6261 C 567.845 -0.0647822 -3.43239 0
M  V30 6262 C 566.931 -1.06514 -4.10506 0
M  V30 6263 N 567.322 -2.24491 -4.53252 0
M  V30 6264 C 565.62 -0.898613 -4.36853 0
M  V30 6265 C 566.321 -2.8796 -5.05424 0
M  V30 6266 N 565.297 -2.15622 -4.99007 0
M  V30 6267 H 569.099 -1.56333 -2.48872 0
M  V30 6268 H 566.613 -0.947393 -1.31902 0
M  V30 6269 H 568.61 0.246363 -4.16171 0
M  V30 6270 H 567.27 0.828866 -3.13943 0
M  V30 6271 H 568.281 -2.62205 -4.46619 0
M  V30 6272 H 564.958 -0.0579118 -4.1746 0
M  V30 6273 H 566.348 -3.88137 -5.48452 0
M  V30 6274 N 569.068 1.32177 -0.85831 0
M  V30 6275 C 570.314 1.97813 -0.47346 0
M  V30 6276 C 570.669 1.66674 0.961122 0
M  V30 6277 O 569.962 0.94657 1.66585 0
M  V30 6278 C 570.156 3.51372 -0.653658 0
M  V30 6279 C 569.985 3.97433 -2.1042 0
M  V30 6280 C 568.755 4.24338 -2.74345 0
M  V30 6281 C 570.953 4.12233 -3.0752 0
M  V30 6282 N 568.935 4.56672 -4.10272 0
M  V30 6283 C 570.306 4.48146 -4.28445 0
M  V30 6284 C 572.361 3.94577 -3.03667 0
M  V30 6285 C 571.064 4.68246 -5.4602 0
M  V30 6286 C 573.09 4.15864 -4.20489 0
M  V30 6287 C 572.452 4.52098 -5.40173 0
M  V30 6288 H 568.551 0.749808 -0.222061 0
M  V30 6289 H 571.135 1.59927 -1.11047 0
M  V30 6290 H 569.306 3.88372 -0.0463267 0
M  V30 6291 H 571.038 4.03998 -0.238343 0
M  V30 6292 H 567.793 4.16544 -2.25362 0
M  V30 6293 H 568.217 4.77019 -4.80398 0
M  V30 6294 H 572.859 3.65662 -2.12252 0
M  V30 6295 H 570.577 4.96014 -6.37962 0
M  V30 6296 H 574.163 4.03702 -4.18947 0
M  V30 6297 H 573.043 4.68238 -6.29065 0
M  V30 6298 N 570.547 0.616602 1.45037 0
M  V30 6299 C 571.497 -0.118543 2.27692 0
M  V30 6300 C 572.481 -0.830025 1.37838 0
M  V30 6301 O 573.673 -0.718528 1.6176 0
M  V30 6302 C 570.802 -1.10924 3.24886 0
M  V30 6303 C 569.888 -0.398134 4.22227 0
M  V30 6304 N 570.279 0.565233 5.02632 0
M  V30 6305 C 568.577 -0.644506 4.41319 0
M  V30 6306 C 569.278 0.984043 5.73316 0
M  V30 6307 N 568.254 0.325879 5.42622 0
M  V30 6308 H 572.056 0.621239 2.87259 0
M  V30 6309 H 569.57 0.440968 1.56299 0
M  V30 6310 H 571.567 -1.65038 3.82842 0
M  V30 6311 H 570.227 -1.84948 2.66879 0
M  V30 6312 H 571.238 0.942395 5.09254 0
M  V30 6313 H 567.915 -1.36873 3.94426 0
M  V30 6314 H 569.305 1.77911 6.47918 0
M  V30 6315 N 572.025 -1.5352 0.356285 0
M  V30 6316 C 573.436 -1.86282 -0.12492 0
M  V30 6317 C 573.787 -1.27717 -1.48939 0
M  V30 6318 O 572.912 -0.595614 -2.08042 0
M  V30 6319 C 573.507 -3.37995 -0.23345 0
M  V30 6320 C 572.066 -3.70588 -0.658899 0
M  V30 6321 C 571.213 -2.76581 0.199596 0
M  V30 6322 H 574.164 -1.47901 0.575423 0
M  V30 6323 H 574.185 -3.65475 -1.0587 0
M  V30 6324 H 573.697 -3.8059 0.759776 0
M  V30 6325 H 571.798 -3.33544 -1.66069 0
M  V30 6326 H 571.911 -4.77076 -0.439957 0
M  V30 6327 H 570.275 -2.52552 -0.330076 0
M  V30 6328 H 571.058 -3.22008 1.19019 0
M  V30 6329 N 573.503 -0.0852151 -1.57369 0
M  V30 6330 C 574.433 0.874556 -2.16503 0
M  V30 6331 C 575.414 1.30111 -1.09568 0
M  V30 6332 O 576.599 1.36977 -1.37662 0
M  V30 6333 C 573.729 2.13731 -2.73745 0
M  V30 6334 C 572.683 1.84971 -3.85966 0
M  V30 6335 C 572.009 3.17991 -4.29867 0
M  V30 6336 C 573.309 1.14442 -5.09608 0
M  V30 6337 H 575.003 0.381899 -2.96954 0
M  V30 6338 H 572.549 0.18225 -1.42842 0
M  V30 6339 H 574.502 2.81302 -3.13763 0
M  V30 6340 H 573.226 2.65263 -1.90534 0
M  V30 6341 H 571.885 1.19801 -3.46473 0
M  V30 6342 H 571.533 3.6739 -3.4356 0
M  V30 6343 H 571.233 2.99534 -5.05523 0
M  V30 6344 H 572.757 3.86737 -4.72511 0
M  V30 6345 H 574.171 1.72105 -5.46857 0
M  V30 6346 H 572.568 1.06197 -5.90629 0
M  V30 6347 H 573.638 0.12559 -4.84737 0
M  V30 6348 N 574.981 1.5647 0.188427 0
M  V30 6349 C 575.914 1.90146 1.26173 0
M  V30 6350 C 576.892 0.762294 1.43624 0
M  V30 6351 O 578.076 1.01395 1.58907 0
M  V30 6352 C 575.203 2.13748 2.62735 0
M  V30 6353 C 574.249 3.36448 2.62116 0
M  V30 6354 S 575.082 4.91364 2.12889 0
M  V30 6355 C 576.238 5.18041 3.51261 0
M  V30 6356 H 576.471 2.80886 0.974192 0
M  V30 6357 H 574.004 1.49335 0.392226 0
M  V30 6358 H 575.962 2.28028 3.41341 0
M  V30 6359 H 574.623 1.23747 2.88696 0
M  V30 6360 H 573.816 3.50109 3.62546 0
M  V30 6361 H 573.418 3.21196 1.91596 0
M  V30 6362 H 575.71 5.0897 4.47164 0
M  V30 6363 H 576.653 6.19764 3.42489 0
M  V30 6364 H 577.061 4.45657 3.46482 0
M  V30 6365 N 576.459 -0.456382 1.50847 0
M  V30 6366 C 577.87 -1.03685 1.55262 0
M  V30 6367 C 578.221 -1.92779 0.364771 0
M  V30 6368 O 577.346 -2.10043 -0.52068 0
M  V30 6369 C 577.941 -1.88718 2.81374 0
M  V30 6370 C 576.5 -2.41847 2.88422 0
M  V30 6371 C 575.647 -1.20564 2.49719 0
M  V30 6372 H 578.598 -0.238399 1.56899 0
M  V30 6373 H 578.619 -2.73957 2.6406 0
M  V30 6374 H 578.131 -1.23847 3.67809 0
M  V30 6375 H 576.232 -3.10228 2.06372 0
M  V30 6376 H 576.345 -2.75947 3.9165 0
M  V30 6377 H 574.709 -1.54504 2.02486 0
M  V30 6378 H 575.492 -0.573326 3.38479 0
M  V30 6379 N 577.937 -1.40673 -0.710563 0
M  V30 6380 C 579.214 -1.29718 -1.46398 0
M  V30 6381 C 579.594 0.082177 -2.1094 0
M  V30 6382 O 578.942 1.09536 -2.00534 0
M  V30 6383 C 579.152 -2.43967 -2.49562 0
M  V30 6384 C 580.5 -2.84436 -3.15248 0
M  V30 6385 O 581.524 -2.43597 -2.59883 0
M  V30 6386 O 580.383 -3.55008 -4.1549 0
M  V30 6387 H 577.477 -0.509697 -0.651258 0
M  V30 6388 H 580.023 -1.52603 -0.742312 0
M  V30 6389 H 578.795 -3.36076 -2.0042 0
M  V30 6390 H 578.418 -2.22879 -3.29258 0
M  V30 6391 N 579.415 0.9433 -1.26252 0
M  V30 6392 C 580.64 1.72898 -1.14547 0
M  V30 6393 C 581.065 1.85761 0.295743 0
M  V30 6394 O 580.423 1.3463 1.21427 0
M  V30 6395 C 580.471 3.11471 -1.8171 0
M  V30 6396 O 579.575 3.97336 -1.10445 0
M  V30 6397 H 578.916 0.530555 -0.399259 0
M  V30 6398 H 581.446 1.18159 -1.67032 0
M  V30 6399 H 581.456 3.61872 -1.88449 0
M  V30 6400 H 580.131 3.01425 -2.86558 0
M  V30 6401 H 578.708 3.55788 -1.11666 0
M  V30 6402 N 580.893 1.08022 1.14757 0
M  V30 6403 C 582.14 0.807509 1.85703 0
M  V30 6404 C 582.468 -0.666617 1.8272 0
M  V30 6405 O 581.723 -1.50562 1.25018 0
M  V30 6406 C 582.022 1.26964 3.34088 0
M  V30 6407 C 581.688 2.7509 3.57262 0
M  V30 6408 C 580.35 3.15547 3.63296 0
M  V30 6409 C 582.702 3.70667 3.66409 0
M  V30 6410 C 580.03 4.50384 3.75994 0
M  V30 6411 C 582.382 5.05274 3.80632 0
M  V30 6412 C 581.046 5.45342 3.84913 0
M  V30 6413 H 580.316 0.295488 0.679535 0
M  V30 6414 H 582.963 1.35245 1.35577 0
M  V30 6415 H 581.268 0.644216 3.86467 0
M  V30 6416 H 582.965 1.03544 3.87401 0
M  V30 6417 H 579.555 2.42775 3.53212 0
M  V30 6418 H 583.739 3.40533 3.61041 0
M  V30 6419 H 578.995 4.80886 3.77569 0
M  V30 6420 H 583.169 5.79201 3.86652 0
M  V30 6421 H 580.796 6.49823 3.94505 0
M  V30 6422 N 582.371 -1.3172 0.865308 0
M  V30 6423 C 583.318 -2.2863 0.315736 0
M  V30 6424 C 584.288 -1.55524 -0.583213 0
M  V30 6425 O 585.473 -1.83694 -0.51585 0
M  V30 6426 C 582.613 -3.41735 -0.480773 0
M  V30 6427 C 581.726 -4.297 0.445167 0
M  V30 6428 C 580.861 -5.29944 -0.365012 0
M  V30 6429 C 579.9 -6.09554 0.557651 0
M  V30 6430 N 579.037 -7.01768 -0.215994 0
M  V30 6431 H 583.877 -2.75026 1.14736 0
M  V30 6432 H 581.414 -1.35302 0.577209 0
M  V30 6433 H 583.372 -4.06045 -0.958306 0
M  V30 6434 H 582.002 -2.96461 -1.27714 0
M  V30 6435 H 581.054 -3.65875 1.04113 0
M  V30 6436 H 582.366 -4.85295 1.15284 0
M  V30 6437 H 581.52 -5.99908 -0.905255 0
M  V30 6438 H 580.259 -4.74994 -1.106 0
M  V30 6439 H 579.264 -5.38485 1.10969 0
M  V30 6440 H 580.489 -6.66591 1.29742 0
M  V30 6441 H 578.435 -6.49232 -0.939878 0
M  V30 6442 H 578.352 -7.54762 0.432431 0
M  V30 6443 H 579.62 -7.76002 -0.737618 0
M  V30 6444 N 583.85 -0.624285 -1.44708 0
M  V30 6445 C 585.096 -0.126237 -2.02407 0
M  V30 6446 C 585.428 1.24618 -1.48943 0
M  V30 6447 O 584.704 1.82569 -0.670742 0
M  V30 6448 C 584.986 -0.105449 -3.59946 0
M  V30 6449 C 584.84 -1.50972 -4.23707 0
M  V30 6450 C 586.159 0.573629 -4.36346 0
M  V30 6451 H 583.278 -0.0473472 -0.735478 0
M  V30 6452 H 585.92 -0.799452 -1.72362 0
M  V30 6453 H 584.07 0.46783 -3.85673 0
M  V30 6454 H 585.742 -2.13136 -4.0911 0
M  V30 6455 H 583.985 -2.0656 -3.81465 0
M  V30 6456 H 584.656 -1.44727 -5.32689 0
M  V30 6457 H 587.132 0.0861787 -4.16011 0
M  V30 6458 H 586.008 0.557338 -5.46063 0
M  V30 6459 H 586.269 1.64276 -4.10446 0
M  V30 6460 N 585.328 1.53329 -0.364422 0
M  V30 6461 C 586.576 2.00842 0.225189 0
M  V30 6462 C 586.897 1.25345 1.49378 0
M  V30 6463 O 586.167 0.366396 1.92443 0
M  V30 6464 H 584.747 0.742009 0.0862027 0
M  V30 6465 H 587.409 1.8863 -0.490389 0
M  V30 6466 H 586.505 3.08795 0.452987 0
M  V30 6467 N 586.806 0.0935595 1.57322 0
M  V30 6468 C 588.031 -0.582324 1.99057 0
M  V30 6469 C 588.456 -1.61025 0.972242 0
M  V30 6470 O 587.814 -1.81202 -0.0594622 0
M  V30 6471 C 587.862 -1.20799 3.39765 0
M  V30 6472 O 586.966 -2.32382 3.40694 0
M  V30 6473 H 586.307 -0.147884 0.647323 0
M  V30 6474 H 588.837 0.174516 2.03854 0
M  V30 6475 H 588.847 -1.54966 3.77425 0
M  V30 6476 H 587.522 -0.454914 4.13405 0
M  V30 6477 H 586.099 -1.99845 3.14827 0
M  V30 6478 N 588.284 -1.56567 -0.180126 0
M  V30 6479 C 589.216 -1.92275 -1.24751 0
M  V30 6480 C 590.229 -0.814922 -1.40936 0
M  V30 6481 O 591.418 -1.09336 -1.41095 0
M  V30 6482 C 588.518 -2.15265 -2.61752 0
M  V30 6483 C 587.691 -3.46467 -2.66981 0
M  V30 6484 C 586.75 -3.58391 -3.85283 0
M  V30 6485 O 585.776 -4.31086 -3.7169 0
M  V30 6486 N 586.978 -2.92587 -5.01371 0
M  V30 6487 H 589.743 -2.84435 -0.944302 0
M  V30 6488 H 587.304 -1.57617 -0.369952 0
M  V30 6489 H 589.296 -2.20515 -3.39345 0
M  V30 6490 H 587.866 -1.29533 -2.845 0
M  V30 6491 H 587.086 -3.52953 -1.75549 0
M  V30 6492 H 588.374 -4.32819 -2.67479 0
M  V30 6493 H 587.772 -2.3338 -5.15316 0
M  V30 6494 H 586.329 -3.03444 -5.76858 0
M  V30 6495 N 589.762 0.448376 -1.51087 0
M  V30 6496 C 590.672 1.56882 -1.74428 0
M  V30 6497 C 591.688 1.62268 -0.62809 0
M  V30 6498 O 592.864 1.79716 -0.909075 0
M  V30 6499 C 589.929 2.92947 -1.85426 0
M  V30 6500 C 588.99 2.97766 -3.09247 0
M  V30 6501 C 588.223 4.27341 -3.19711 0
M  V30 6502 O 588.446 5.19112 -2.36387 0
M  V30 6503 O 587.38 4.38219 -4.12611 0
M  V30 6504 H 591.206 1.40104 -2.69452 0
M  V30 6505 H 588.791 0.630247 -1.35456 0
M  V30 6506 H 590.673 3.73719 -1.94709 0
M  V30 6507 H 589.348 3.09876 -0.935887 0
M  V30 6508 H 588.255 2.15989 -3.0545 0
M  V30 6509 H 589.588 2.8578 -4.00738 0
M  V30 6510 N 591.24 1.41047 0.703093 0
M  V30 6511 C 592.47 1.43133 1.48985 0
M  V30 6512 C 592.878 0.0328537 1.89171 0
M  V30 6513 O 592.221 -0.956469 1.56835 0
M  V30 6514 C 592.283 2.26991 2.78775 0
M  V30 6515 C 591.947 3.7525 2.60837 0
M  V30 6516 C 592.944 4.67591 2.27276 0
M  V30 6517 C 590.629 4.19208 2.76712 0
M  V30 6518 C 592.623 6.01877 2.09817 0
M  V30 6519 C 590.31 5.53561 2.5887 0
M  V30 6520 C 591.308 6.4471 2.25472 0
M  V30 6521 O 590.996 7.76584 2.07778 0
M  V30 6522 H 590.728 0.489788 0.465922 0
M  V30 6523 H 593.282 1.85886 0.873822 0
M  V30 6524 H 591.512 1.79038 3.42757 0
M  V30 6525 H 593.201 2.20867 3.40547 0
M  V30 6526 H 593.967 4.34923 2.14633 0
M  V30 6527 H 589.846 3.48572 3.01693 0
M  V30 6528 H 593.39 6.72986 1.83671 0
M  V30 6529 H 589.287 5.85811 2.71102 0
M  V30 6530 H 590.055 7.87649 2.22601 0
M  V30 6531 N 592.718 -0.936591 1.26751 0
M  V30 6532 C 593.943 -1.72288 1.15462 0
M  V30 6533 C 594.368 -1.85915 -0.285887 0
M  V30 6534 O 593.726 -1.35272 -1.20711 0
M  V30 6535 C 593.774 -3.10503 1.83359 0
M  V30 6536 O 592.878 -3.96745 1.1255 0
M  V30 6537 H 592.219 -0.52843 0.402067 0
M  V30 6538 H 594.749 -1.17271 1.67656 0
M  V30 6539 H 594.759 -3.60867 1.90365 0
M  V30 6540 H 593.434 -2.99901 2.88153 0
M  V30 6541 H 592.011 -3.55191 1.13551 0
M  V30 6542 N 594.196 -1.08629 -1.14182 0
M  V30 6543 C 595.426 -0.837673 -1.88856 0
M  V30 6544 C 595.834 0.614024 -1.78959 0
M  V30 6545 O 595.177 1.43384 -1.14833 0
M  V30 6546 C 595.239 -1.18355 -3.39459 0
M  V30 6547 C 594.903 -2.63848 -3.73139 0
M  V30 6548 C 595.9 -3.62099 -3.73069 0
M  V30 6549 C 593.585 -2.99761 -4.03049 0
M  V30 6550 C 595.579 -4.94292 -4.02435 0
M  V30 6551 C 593.266 -4.32147 -4.32078 0
M  V30 6552 C 594.264 -5.29223 -4.31755 0
M  V30 6553 O 593.952 -6.59229 -4.60079 0
M  V30 6554 H 593.684 -0.301609 -0.604986 0
M  V30 6555 H 596.238 -1.44961 -1.45518 0
M  V30 6556 H 594.468 -0.514628 -3.8326 0
M  V30 6557 H 596.157 -0.915391 -3.95443 0
M  V30 6558 H 596.923 -3.35698 -3.50046 0
M  V30 6559 H 592.802 -2.2484 -4.02453 0
M  V30 6560 H 596.346 -5.70055 -4.02098 0
M  V30 6561 H 592.243 -4.58296 -4.54571 0
M  V30 6562 H 593.011 -6.64578 -4.77785 0
M  V30 6563 N 595.674 1.31259 -0.872281 0
M  V30 6564 C 596.584 2.32221 -0.333255 0
M  V30 6565 C 597.6 1.6481 0.558013 0
M  V30 6566 O 598.776 1.96212 0.454175 0
M  V30 6567 C 595.841 3.43708 0.454479 0
M  V30 6568 C 594.902 4.26774 -0.465024 0
M  V30 6569 C 594.135 5.32937 0.28521 0
M  V30 6570 O 594.358 5.49968 1.513 0
M  V30 6571 O 593.292 6.00834 -0.358126 0
M  V30 6572 H 597.118 2.80252 -1.17016 0
M  V30 6573 H 594.703 1.352 -0.635724 0
M  V30 6574 H 596.585 4.11656 0.900963 0
M  V30 6575 H 595.26 2.97836 1.26789 0
M  V30 6576 H 594.167 3.61571 -0.960055 0
M  V30 6577 H 595.5 4.76217 -1.2441 0
M  V30 6578 N 597.152 0.631951 1.44375 0
M  V30 6579 C 598.084 -0.110911 2.28931 0
M  V30 6580 C 599.097 -0.808086 1.41329 0
M  V30 6581 O 600.286 -0.669396 1.65473 0
M  V30 6582 C 597.386 -1.17928 3.1772 0
M  V30 6583 C 596.559 -0.564458 4.33743 0
M  V30 6584 C 595.618 -1.5269 5.0356 0
M  V30 6585 O 594.644 -1.04372 5.59549 0
M  V30 6586 N 595.846 -2.86123 5.05088 0
M  V30 6587 H 598.611 0.614758 2.93327 0
M  V30 6588 H 596.172 0.473171 1.54831 0
M  V30 6589 H 598.164 -1.82348 3.61291 0
M  V30 6590 H 596.734 -1.80717 2.55069 0
M  V30 6591 H 595.954 0.258373 3.93352 0
M  V30 6592 H 597.242 -0.134355 5.08623 0
M  V30 6593 H 596.64 -3.27959 4.60933 0
M  V30 6594 H 595.197 -3.45901 5.52445 0
M  V30 6595 N 598.631 -1.53133 0.372548 0
M  V30 6596 C 599.878 -2.01356 -0.214959 0
M  V30 6597 C 600.206 -1.2596 -1.48204 0
M  V30 6598 O 599.461 -0.343511 -1.92662 0
M  V30 6599 C 599.76 -3.53206 -0.545938 0
M  V30 6600 C 599.426 -4.46511 0.627624 0
M  V30 6601 C 598.088 -4.71737 0.949615 0
M  V30 6602 C 600.44 -5.01666 1.41353 0
M  V30 6603 C 597.768 -5.4937 2.05936 0
M  V30 6604 C 600.12 -5.80511 2.51375 0
M  V30 6605 C 598.784 -6.04022 2.84101 0
M  V30 6606 H 598.054 -0.736813 -0.078659 0
M  V30 6607 H 600.701 -1.84682 0.506447 0
M  V30 6608 H 599.006 -3.67864 -1.34845 0
M  V30 6609 H 600.703 -3.87997 -1.01287 0
M  V30 6610 H 597.293 -4.27029 0.366635 0
M  V30 6611 H 601.477 -4.82117 1.17802 0
M  V30 6612 H 596.733 -5.65803 2.31682 0
M  V30 6613 H 600.907 -6.22255 3.12684 0
M  V30 6614 H 598.534 -6.63962 3.70214 0
M  V30 6615 N 600.109 -0.101901 -1.5727 0
M  V30 6616 C 601.039 0.851544 -2.17419 0
M  V30 6617 C 602.02 1.28942 -1.10941 0
M  V30 6618 O 603.205 1.35509 -1.39107 0
M  V30 6619 C 600.335 2.10816 -2.75996 0
M  V30 6620 C 599.289 1.80867 -3.87906 0
M  V30 6621 C 598.615 3.13413 -4.33216 0
M  V30 6622 C 599.915 1.0903 -5.10793 0
M  V30 6623 H 601.609 0.350381 -2.97343 0
M  V30 6624 H 599.155 0.16709 -1.43027 0
M  V30 6625 H 601.108 2.77959 -3.16729 0
M  V30 6626 H 599.832 2.63227 -1.93337 0
M  V30 6627 H 598.491 1.16119 -3.47724 0
M  V30 6628 H 598.139 3.63725 -3.47438 0
M  V30 6629 H 597.839 2.94155 -5.08671 0
M  V30 6630 H 599.363 3.81704 -4.76586 0
M  V30 6631 H 600.777 1.66295 -5.48652 0
M  V30 6632 H 599.174 0.99927 -5.91722 0
M  V30 6633 H 600.244 0.0741704 -4.84843 0
M  V30 6634 N 601.587 1.56661 0.17182 0
M  V30 6635 C 602.834 1.81965 0.888529 0
M  V30 6636 C 603.162 0.6789 1.82267 0
M  V30 6637 O 602.417 -0.333875 1.92831 0
M  V30 6638 C 602.716 3.13435 1.71736 0
M  V30 6639 C 602.382 4.41159 0.932184 0
M  V30 6640 C 601.044 4.75851 0.715481 0
M  V30 6641 C 603.396 5.19803 0.381387 0
M  V30 6642 C 600.724 5.86666 -0.063126 0
M  V30 6643 C 603.076 6.31433 -0.384129 0
M  V30 6644 C 601.74 6.64692 -0.611637 0
M  V30 6645 H 601.01 0.665859 0.325136 0
M  V30 6646 H 603.657 1.90884 0.153495 0
M  V30 6647 H 601.962 2.99857 2.52177 0
M  V30 6648 H 603.659 3.30224 2.27493 0
M  V30 6649 H 600.249 4.13947 1.11112 0
M  V30 6650 H 604.433 4.93396 0.536148 0
M  V30 6651 H 599.689 6.10892 -0.249136 0
M  V30 6652 H 603.863 6.91577 -0.818185 0
M  V30 6653 H 601.49 7.50398 -1.21684 0
M  V30 6654 N 603.065 -0.440357 1.51323 0
M  V30 6655 C 604.013 -1.55492 1.72988 0
M  V30 6656 C 605.007 -1.58564 0.596138 0
M  V30 6657 O 606.213 -1.62345 0.777443 0
M  V30 6658 H 602.588 -0.516532 0.546533 0
M  V30 6659 H 604.559 -1.34392 2.66423 0
M  V30 6660 C 603.308 -2.93176 1.86931 0
M  V30 6661 H 602.631 -2.91543 2.73574 0
M  V30 6662 H 604.071 -3.70537 2.06103 0
M  V30 6663 C 602.53 -3.30988 0.628365 0
M  V30 6664 O 603.06 -4.01106 -0.218367 0
M  V30 6665 N 601.266 -2.86719 0.473339 0
M  V30 6666 H 600.813 -2.2983 1.16345 0
M  V30 6667 H 600.771 -3.12381 -0.355727 0
M  V30 6668 N 604.543 -1.41418 -0.695603 0
M  V30 6669 C 605.771 -1.4413 -1.48439 0
M  V30 6670 C 606.186 -0.0465698 -1.88743 0
M  V30 6671 O 605.543 0.934117 -1.56782 0
M  V30 6672 C 605.594 -2.34998 -2.74696 0
M  V30 6673 O 605.315 -3.69043 -2.36091 0
M  V30 6674 C 606.816 -2.46513 -3.68438 0
M  V30 6675 H 604.036 -0.490905 -0.457442 0
M  V30 6676 H 606.58 -1.85702 -0.856454 0
M  V30 6677 H 604.735 -1.96735 -3.33728 0
M  V30 6678 H 605.149 -4.17505 -3.17474 0
M  V30 6679 H 606.623 -3.1426 -4.53811 0
M  V30 6680 H 607.1 -1.49638 -4.12922 0
M  V30 6681 H 607.706 -2.85412 -3.1531 0
M  V30 6682 N 606.021 0.929856 -1.27246 0
M  V30 6683 C 607.246 1.71674 -1.16374 0
M  V30 6684 C 607.671 1.86064 0.276024 0
M  V30 6685 O 607.029 1.3591 1.19992 0
M  V30 6686 C 607.077 3.09526 -1.85003 0
M  V30 6687 O 606.181 3.96142 -1.14653 0
M  V30 6688 H 605.522 0.52629 -0.404863 0
M  V30 6689 H 608.052 1.16381 -1.68276 0
M  V30 6690 H 608.062 3.59852 -1.92276 0
M  V30 6691 H 606.737 2.98369 -2.89739 0
M  V30 6692 H 605.314 3.54584 -1.15433 0
M  V30 6693 N 607.499 1.09233 1.13605 0
M  V30 6694 C 608.432 0.6739 2.18023 0
M  V30 6695 C 609.41 -0.318603 1.59448 0
M  V30 6696 O 610.594 -0.220452 1.87206 0
M  V30 6697 C 607.721 -0.00751458 3.38699 0
M  V30 6698 C 606.767 0.946481 4.15865 0
M  V30 6699 S 607.6 2.45753 4.75779 0
M  V30 6700 C 608.756 1.78846 5.99804 0
M  V30 6701 H 608.989 1.55846 2.53178 0
M  V30 6702 H 606.522 0.908118 1.2487 0
M  V30 6703 H 608.48 -0.394368 4.08601 0
M  V30 6704 H 607.141 -0.868693 3.01849 0
M  V30 6705 H 606.334 0.416742 5.02274 0
M  V30 6706 H 605.936 1.27464 3.51609 0
M  V30 6707 H 608.228 1.11135 6.68323 0
M  V30 6708 H 609.171 2.63163 6.57382 0
M  V30 6709 H 609.579 1.25823 5.50299 0
M  V30 6710 N 608.977 -1.30795 0.87923 0
M  V30 6711 C 609.907 -2.30742 0.357796 0
M  V30 6712 C 610.888 -1.60747 -0.556283 0
M  V30 6713 O 612.073 -1.88393 -0.47135 0
M  V30 6714 C 609.203 -3.44583 -0.433555 0
M  V30 6715 C 608.157 -4.26235 0.388251 0
M  V30 6716 C 607.483 -5.32073 -0.529352 0
M  V30 6717 C 608.783 -4.96303 1.62729 0
M  V30 6718 H 610.477 -2.74605 1.19299 0
M  V30 6719 H 608.023 -1.32017 0.575104 0
M  V30 6720 H 609.976 -4.13563 -0.808934 0
M  V30 6721 H 608.7 -2.99511 -1.30234 0
M  V30 6722 H 607.359 -3.58936 0.745695 0
M  V30 6723 H 607.007 -4.83249 -1.39569 0
M  V30 6724 H 606.707 -5.87598 0.0166741 0
M  V30 6725 H 608.231 -6.0391 -0.901373 0
M  V30 6726 H 609.645 -5.5783 1.32283 0
M  V30 6727 H 608.042 -5.61666 2.11309 0
M  V30 6728 H 609.112 -4.22758 2.37494 0
M  V30 6729 N 610.455 -0.639598 -1.44038 0
M  V30 6730 C 611.701 -0.147698 -2.02261 0
M  V30 6731 C 612.034 1.23031 -1.50256 0
M  V30 6732 O 611.309 1.81847 -0.690068 0
M  V30 6733 C 611.592 -0.14362 -3.59813 0
M  V30 6734 C 611.445 -1.55458 -4.22082 0
M  V30 6735 C 612.764 0.527317 -4.36929 0
M  V30 6736 H 609.883 -0.0551453 -0.734934 0
M  V30 6737 H 612.525 -0.817688 -1.71505 0
M  V30 6738 H 610.675 0.426898 -3.86147 0
M  V30 6739 H 612.347 -2.17464 -4.06826 0
M  V30 6740 H 610.59 -2.10594 -3.79253 0
M  V30 6741 H 611.261 -1.50369 -5.31124 0
M  V30 6742 H 613.737 0.0420504 -4.16079 0
M  V30 6743 H 612.613 0.499389 -5.46624 0
M  V30 6744 H 612.874 1.59914 -4.12165 0
M  V30 6745 N 611.933 1.52934 -0.380664 0
M  V30 6746 C 613.21 1.93845 0.261417 0
M  V30 6747 C 613.59 1.31544 1.65104 0
M  V30 6748 O 612.938 0.480234 2.23397 0
M  V30 6749 C 613.148 3.47739 0.296466 0
M  V30 6750 C 614.496 4.21284 0.529578 0
M  V30 6751 O 615.52 3.54199 0.377041 0
M  V30 6752 O 614.379 5.40195 0.827753 0
M  V30 6753 H 611.473 0.811318 0.160285 0
M  V30 6754 H 614.019 1.64042 -0.434544 0
M  V30 6755 H 612.791 3.85395 -0.67724 0
M  V30 6756 H 612.414 3.8382 1.0377 0
M  V30 6757 N 613.412 0.11024 1.57214 0
M  V30 6758 C 614.642 -0.557025 1.98949 0
M  V30 6759 C 615.05 -1.61317 0.988606 0
M  V30 6760 O 614.393 -1.83679 -0.0279159 0
M  V30 6761 C 614.455 -1.24956 3.37085 0
M  V30 6762 C 614.119 -0.342398 4.55716 0
M  V30 6763 C 615.116 0.415511 5.18237 0
M  V30 6764 C 612.801 -0.256029 5.01647 0
M  V30 6765 C 614.795 1.24761 6.25071 0
M  V30 6766 C 612.482 0.579713 6.08344 0
M  V30 6767 C 613.48 1.33017 6.69922 0
M  V30 6768 O 613.168 2.15205 7.74559 0
M  V30 6769 H 612.9 -0.152792 0.658506 0
M  V30 6770 H 615.454 0.19076 2.04512 0
M  V30 6771 H 613.684 -2.04424 3.2825 0
M  V30 6772 H 615.373 -1.81286 3.63167 0
M  V30 6773 H 616.139 0.358605 4.83672 0
M  V30 6774 H 612.018 -0.829831 4.5347 0
M  V30 6775 H 615.562 1.83386 6.73064 0
M  V30 6776 H 611.459 0.638044 6.42339 0
M  V30 6777 H 612.227 2.08052 7.91617 0
M  V30 6778 N 614.89 -1.56749 -0.16351 0
M  V30 6779 C 616.138 -1.82074 -0.87713 0
M  V30 6780 C 616.459 -0.688503 -1.82441 0
M  V30 6781 O 615.729 0.291085 -1.93725 0
M  V30 6782 H 614.309 -0.671677 -0.326893 0
M  V30 6783 H 616.971 -1.9423 -0.161459 0
M  V30 6784 H 616.067 -2.76407 -1.44934 0
M  V30 6785 N 616.368 0.432326 -1.51554 0
M  V30 6786 C 617.614 1.18309 -1.64714 0
M  V30 6787 C 617.947 1.90745 -0.364696 0
M  V30 6788 O 617.222 1.8381 0.635936 0
M  V30 6789 C 617.505 2.1961 -2.85383 0
M  V30 6790 C 617.358 1.51223 -4.23617 0
M  V30 6791 C 618.677 3.20538 -3.01569 0
M  V30 6792 H 615.796 0.428751 -0.599451 0
M  V30 6793 H 618.438 0.471689 -1.84052 0
M  V30 6794 H 616.588 2.8028 -2.69027 0
M  V30 6795 H 618.26 0.938516 -4.51652 0
M  V30 6796 H 616.503 0.814501 -4.26085 0
M  V30 6797 H 617.174 2.25024 -5.04052 0
M  V30 6798 H 619.65 2.69926 -3.16669 0
M  V30 6799 H 618.526 3.88706 -3.87555 0
M  V30 6800 H 618.787 3.86933 -2.13859 0
M  V30 6801 N 617.846 1.41785 0.688094 0
M  V30 6802 C 618.756 1.46596 1.83158 0
M  V30 6803 C 619.772 0.355862 1.70322 0
M  V30 6804 O 620.948 0.604737 1.92106 0
M  V30 6805 C 618.013 1.35322 3.192 0
M  V30 6806 C 617.074 2.56711 3.4409 0
M  V30 6807 C 616.307 2.45965 4.73642 0
M  V30 6808 O 616.53 1.48827 5.50642 0
M  V30 6809 O 615.464 3.35859 4.99482 0
M  V30 6810 H 619.29 2.43083 1.82056 0
M  V30 6811 H 616.875 1.23404 0.842126 0
M  V30 6812 H 618.757 1.31347 4.00407 0
M  V30 6813 H 617.432 0.419536 3.2097 0
M  V30 6814 H 616.339 2.66262 2.62784 0
M  V30 6815 H 617.672 3.48933 3.47141 0
M  V30 6816 N 619.324 -0.923095 1.27737 0
M  V30 6817 C 620.287 -2.00587 1.10894 0
M  V30 6818 C 621.287 -1.60718 0.0514927 0
M  V30 6819 O 622.477 -1.71658 0.296481 0
M  V30 6820 C 619.609 -3.33829 0.690717 0
M  V30 6821 H 620.802 -2.16959 2.07048 0
M  V30 6822 H 618.355 -1.10451 1.1059 0
M  V30 6823 H 619.09 -3.23157 -0.272 0
M  V30 6824 H 618.875 -3.64125 1.45448 0
M  V30 6825 H 620.365 -4.13336 0.595252 0
M  V30 6826 N 620.802 -1.09834 -1.13024 0
M  V30 6827 C 621.732 -0.763451 -2.20666 0
M  V30 6828 C 622.713 0.260778 -1.68089 0
M  V30 6829 O 623.898 0.127915 -1.93778 0
M  V30 6830 C 621.028 -0.187744 -3.46792 0
M  V30 6831 C 619.982 -1.14196 -4.12484 0
M  V30 6832 C 619.308 -0.427755 -5.32986 0
M  V30 6833 C 620.608 -2.48607 -4.59338 0
M  V30 6834 H 622.302 -1.66347 -2.48936 0
M  V30 6835 H 619.848 -0.801261 -1.19649 0
M  V30 6836 H 621.801 0.0586375 -4.21359 0
M  V30 6837 H 620.525 0.747485 -3.17931 0
M  V30 6838 H 619.184 -1.37369 -3.3989 0
M  V30 6839 H 618.832 0.511747 -5.0039 0
M  V30 6840 H 618.532 -1.06403 -5.77886 0
M  V30 6841 H 620.056 -0.189772 -6.10305 0
M  V30 6842 H 621.47 -2.29618 -5.25308 0
M  V30 6843 H 619.867 -3.08062 -5.14993 0
M  V30 6844 H 620.937 -3.09062 -3.73642 0
M  V30 6845 N 622.28 1.30327 -0.886154 0
M  V30 6846 C 623.526 1.96388 -0.505941 0
M  V30 6847 C 623.859 1.69784 0.942712 0
M  V30 6848 O 623.134 1.00322 1.6663 0
M  V30 6849 C 623.417 3.51488 -0.782826 0
M  V30 6850 C 623.27 3.87603 -2.28219 0
M  V30 6851 C 624.589 4.39331 -0.260128 0
M  V30 6852 H 621.708 0.713327 -0.185292 0
M  V30 6853 H 624.35 1.54178 -1.11036 0
M  V30 6854 H 622.5 3.87572 -0.268399 0
M  V30 6855 H 624.172 3.61537 -2.86512 0
M  V30 6856 H 622.415 3.3563 -2.74837 0
M  V30 6857 H 623.086 4.95806 -2.42653 0
M  V30 6858 H 625.562 4.10162 -0.700444 0
M  V30 6859 H 624.438 5.46769 -0.483179 0
M  V30 6860 H 624.699 4.34072 0.838674 0
M  V30 6861 N 623.758 0.647228 1.43697 0
M  V30 6862 C 625.035 0.0883758 1.954 0
M  V30 6863 C 625.415 -1.39006 1.58873 0
M  V30 6864 O 624.763 -2.11255 0.87083 0
M  V30 6865 C 624.973 0.328263 3.47453 0
M  V30 6866 C 626.321 0.230009 4.23977 0
M  V30 6867 O 627.345 0.260496 3.55246 0
M  V30 6868 O 626.204 0.148615 5.46298 0
M  V30 6869 H 623.298 -0.0130683 0.826897 0
M  V30 6870 H 625.844 0.72005 1.53666 0
M  V30 6871 H 624.616 1.3535 3.67146 0
M  V30 6872 H 624.239 -0.336772 3.96171 0
M  V30 6873 N 625.236 -1.5273 0.388769 0
M  V30 6874 C 626.199 -2.25043 -0.434544 0
M  V30 6875 C 627.199 -1.26661 -0.990644 0
M  V30 6876 O 628.389 -1.50762 -0.872731 0
M  V30 6877 C 625.521 -3.00507 -1.60961 0
M  V30 6878 H 626.714 -2.99242 0.198549 0
M  V30 6879 H 624.267 -1.55664 0.140875 0
M  V30 6880 H 625.002 -2.30607 -2.28015 0
M  V30 6881 H 624.787 -3.72716 -1.21757 0
M  V30 6882 H 626.277 -3.55413 -2.19251 0
M  V30 6883 N 626.714 -0.118576 -1.57153 0
M  V30 6884 C 627.961 0.539526 -1.9518 0
M  V30 6885 C 628.289 1.66714 -1.00184 0
M  V30 6886 O 627.544 1.95683 -0.0256482 0
M  V30 6887 C 627.843 1.11303 -3.39627 0
M  V30 6888 C 627.509 0.106809 -4.50773 0
M  V30 6889 C 626.171 -0.169876 -4.809 0
M  V30 6890 C 628.523 -0.57895 -5.17975 0
M  V30 6891 C 625.851 -1.13861 -5.75545 0
M  V30 6892 C 628.203 -1.53631 -6.13661 0
M  V30 6893 C 626.867 -1.82099 -6.42181 0
M  V30 6894 H 626.137 0.197427 -0.714215 0
M  V30 6895 H 628.784 -0.199391 -1.90459 0
M  V30 6896 H 627.089 1.92869 -3.4104 0
M  V30 6897 H 628.786 1.63032 -3.66363 0
M  V30 6898 H 625.376 0.332645 -4.27307 0
M  V30 6899 H 629.56 -0.378359 -4.94856 0
M  V30 6900 H 624.816 -1.36592 -5.95947 0
M  V30 6901 H 628.99 -2.07337 -6.64819 0
M  V30 6902 H 626.617 -2.57319 -7.15326 0
M  V30 6903 N 628.193 1.56834 0.155195 0
M  V30 6904 C 629.418 1.87412 0.888337 0
M  V30 6905 C 629.843 0.70671 1.74319 0
M  V30 6906 O 629.201 -0.343892 1.78009 0
M  V30 6907 C 629.249 3.1652 1.72765 0
M  V30 6908 O 628.353 2.99877 2.83103 0
M  V30 6909 H 627.694 0.615983 0.247914 0
M  V30 6910 H 630.224 2.04061 0.148478 0
M  V30 6911 H 630.234 3.48334 2.12433 0
M  V30 6912 H 628.909 4.01094 1.09985 0
M  V30 6913 H 627.486 2.79453 2.46902 0
M  V30 6914 N 629.671 -0.424282 1.51781 0
M  V30 6915 C 631.087 -0.761768 1.40247 0
M  V30 6916 C 631.287 -1.95324 0.495041 0
M  V30 6917 O 630.343 -2.5246 -0.0448949 0
M  V30 6918 C 631.656 -1.0299 2.82513 0
M  V30 6919 C 633.204 -1.13354 2.91753 0
M  V30 6920 C 633.679 -1.43453 4.34954 0
M  V30 6921 N 635.17 -1.5035 4.3812 0
M  V30 6922 C 635.905 -1.75236 5.45967 0
M  V30 6923 N 635.401 -1.97827 6.63955 0
M  V30 6924 N 637.194 -1.77126 5.33463 0
M  V30 6925 H 629.345 0.360228 2.09323 0
M  V30 6926 H 631.608 0.0988128 0.942836 0
M  V30 6927 H 631.314 -0.226961 3.50967 0
M  V30 6928 H 631.188 -1.95411 3.22637 0
M  V30 6929 H 633.575 -1.92709 2.23489 0
M  V30 6930 H 633.656 -0.188041 2.55108 0
M  V30 6931 H 633.3 -0.646209 5.03772 0
M  V30 6932 H 633.23 -2.3923 4.69123 0
M  V30 6933 H 635.721 -1.34742 3.53062 0
M  V30 6934 H 636.034 -2.16223 7.41935 0
M  V30 6935 H 634.379 -1.95123 6.67047 0
M  V30 6936 H 637.57 -1.59005 4.40267 0
M  V30 6937 H 637.743 -1.96182 6.17589 0
M  V30 6938 N 631.149 -1.42148 -0.680565 0
M  V30 6939 C 632.081 -1.41119 -1.80605 0
M  V30 6940 C 633.094 -0.311099 -1.598 0
M  V30 6941 O 634.283 -0.573813 -1.69026 0
M  V30 6942 C 631.383 -1.18204 -3.17618 0
M  V30 6943 C 630.556 -2.40537 -3.65322 0
M  V30 6944 C 629.615 -2.13254 -4.8105 0
M  V30 6945 O 628.641 -2.8641 -4.91892 0
M  V30 6946 N 629.843 -1.13208 -5.69354 0
M  V30 6947 H 632.608 -2.38128 -1.81975 0
M  V30 6948 H 630.169 -1.36953 -0.863446 0
M  V30 6949 H 632.161 -0.97878 -3.92686 0
M  V30 6950 H 630.731 -0.29738 -3.11182 0
M  V30 6951 H 629.951 -2.76468 -2.80996 0
M  V30 6952 H 631.239 -3.22012 -3.93936 0
M  V30 6953 H 630.637 -0.526893 -5.63241 0
M  V30 6954 H 629.194 -0.988699 -6.44258 0
M  V30 6955 N 632.627 0.916307 -1.28225 0
M  V30 6956 C 633.876 1.65975 -1.14608 0
M  V30 6957 C 634.189 1.93204 0.305191 0
M  V30 6958 O 635.395 2.65611 0.562432 0
M  V30 6959 C 633.851 2.98989 -2.00333 0
M  V30 6960 C 633.459 2.79417 -3.50186 0
M  V30 6961 C 635.203 3.76856 -1.95397 0
M  V30 6962 C 633.11 4.08056 -4.28071 0
M  V30 6963 H 632.04 0.622587 -0.425324 0
M  V30 6964 H 634.691 1.01705 -1.52736 0
M  V30 6965 H 633.073 3.6438 -1.5506 0
M  V30 6966 H 634.247 2.22723 -4.034 0
M  V30 6967 H 632.562 2.14966 -3.56621 0
M  V30 6968 H 635.159 4.72203 -2.50856 0
M  V30 6969 H 635.502 4.05776 -0.930137 0
M  V30 6970 H 636.035 3.1828 -2.38626 0
M  V30 6971 H 632.774 3.8431 -5.31024 0
M  V30 6972 H 632.294 4.64371 -3.79631 0
M  V30 6973 H 633.973 4.76333 -4.37854 0
M  V30 6974 N 634.105 1.10431 1.1244 0
M  V30 6975 C 635.068 0.756542 2.16354 0
M  V30 6976 C 636.068 -0.21899 1.59302 0
M  V30 6977 O 637.258 0.00415969 1.742 0
M  V30 6978 C 634.39 0.120612 3.40687 0
M  V30 6979 H 635.583 1.67696 2.48632 0
M  V30 6980 H 633.136 0.904832 1.27446 0
M  V30 6981 H 633.871 -0.810536 3.14008 0
M  V30 6982 H 633.656 0.822693 3.83372 0
M  V30 6983 H 635.146 -0.106945 4.17463 0
M  V30 6984 N 635.583 -1.29855 0.893053 0
M  V30 6985 C 636.831 -1.9544 0.514566 0
M  V30 6986 C 637.152 -1.70795 -0.940959 0
M  V30 6987 O 636.422 -1.03601 -1.66264 0
M  V30 6988 H 635.002 -0.723137 0.187302 0
M  V30 6989 H 637.664 -1.58234 1.13789 0
M  V30 6990 H 636.76 -3.04341 0.691581 0
M  V30 6991 N 637.061 -0.65484 -1.43351 0
M  V30 6992 C 638.477 -0.32255 -1.56307 0
M  V30 6993 C 638.677 1.17324 -1.63821 0
M  V30 6994 O 637.733 1.95813 -1.59417 0
M  V30 6995 C 639.046 -1.03533 -2.82314 0
M  V30 6996 C 640.594 -1.01574 -2.9606 0
M  V30 6997 C 641.069 -1.70945 -4.24902 0
M  V30 6998 N 642.56 -1.67716 -4.3177 0
M  V30 6999 C 643.295 -2.18265 -5.30234 0
M  V30 7000 N 642.791 -2.7711 -6.34966 0
M  V30 7001 N 644.584 -2.08756 -5.21898 0
M  V30 7002 H 636.735 -1.62549 -1.36717 0
M  V30 7003 H 638.998 -0.683676 -0.656727 0
M  V30 7004 H 638.704 -2.09045 -2.8283 0
M  V30 7005 H 638.578 -0.587913 -3.7259 0
M  V30 7006 H 640.965 0.0309834 -2.95084 0
M  V30 7007 H 641.046 -1.50186 -2.07069 0
M  V30 7008 H 640.69 -2.75574 -4.26639 0
M  V30 7009 H 640.62 -1.19797 -5.12793 0
M  V30 7010 H 643.111 -1.24777 -3.56706 0
M  V30 7011 H 643.424 -3.13353 -7.06421 0
M  V30 7012 H 641.769 -2.81171 -6.35585 0
M  V30 7013 H 644.96 -1.62488 -4.38994 0
M  V30 7014 H 645.133 -2.48459 -5.98475 0
M  V30 7015 N 638.539 1.52521 -0.396863 0
M  V30 7016 C 639.788 2.00857 0.184184 0
M  V30 7017 C 640.101 1.28733 1.47265 0
M  V30 7018 O 641.307 1.67821 2.13421 0
M  V30 7019 C 639.763 3.57901 0.378787 0
M  V30 7020 C 639.371 4.38931 -0.896873 0
M  V30 7021 C 641.115 4.14504 0.915789 0
M  V30 7022 C 639.022 5.87591 -0.670133 0
M  V30 7023 H 637.952 0.750496 0.0726055 0
M  V30 7024 H 640.603 1.75965 -0.520425 0
M  V30 7025 H 638.985 3.79072 1.14543 0
M  V30 7026 H 640.159 4.29524 -1.66872 0
M  V30 7027 H 638.474 3.93586 -1.35938 0
M  V30 7028 H 641.071 5.23236 1.10126 0
M  V30 7029 H 641.414 3.71076 1.88701 0
M  V30 7030 H 641.947 3.97253 0.208523 0
M  V30 7031 H 638.686 6.35355 -1.61257 0
M  V30 7032 H 638.206 5.99767 0.0626368 0
M  V30 7033 H 639.885 6.46268 -0.307577 0
M  V30 7034 N 640.017 0.126909 1.57088 0
M  V30 7035 C 641.265 -0.528123 1.95078 0
M  V30 7036 C 641.586 -1.66708 1.0116 0
M  V30 7037 O 640.856 -1.95777 0.0693527 0
M  V30 7038 H 639.436 -0.198087 0.720257 0
M  V30 7039 H 642.098 0.197703 1.93895 0
M  V30 7040 H 641.194 -0.917507 2.98309 0
M  V30 7041 N 641.495 -1.56914 -0.146875 0
M  V30 7042 C 642.743 -1.82994 -0.85777 0
M  V30 7043 C 643.064 -0.707814 -1.817 0
M  V30 7044 O 642.334 0.270521 -1.94023 0
M  V30 7045 H 640.914 -0.675106 -0.319751 0
M  V30 7046 H 643.576 -1.9439 -0.140849 0
M  V30 7047 H 642.672 -2.77928 -1.41994 0
M  V30 7048 N 642.974 0.416227 -1.52004 0
M  V30 7049 C 644.222 1.16153 -1.65387 0
M  V30 7050 C 644.543 1.91208 -0.382669 0
M  V30 7051 O 643.813 1.86413 0.602231 0
M  V30 7052 H 642.393 0.431765 -0.60958 0
M  V30 7053 H 645.055 0.475151 -1.89019 0
M  V30 7054 H 644.151 1.87952 -2.4916 0
M  V30 7055 N 644.452 1.42507 0.673017 0
M  V30 7056 C 645.868 1.25472 0.986355 0
M  V30 7057 C 646.068 0.160181 2.00862 0
M  V30 7058 O 645.124 -0.467993 2.48125 0
M  V30 7059 C 646.437 2.61219 1.48947 0
M  V30 7060 C 647.985 2.68589 1.60715 0
M  V30 7061 C 648.46 4.04707 2.14422 0
M  V30 7062 N 649.951 4.0667 2.21752 0
M  V30 7063 C 650.686 5.0881 2.64386 0
M  V30 7064 N 650.182 6.21332 3.0646 0
M  V30 7065 N 651.975 4.96166 2.64151 0
M  V30 7066 H 644.126 2.124 -0.00378532 0
M  V30 7067 H 646.389 0.946046 0.0608367 0
M  V30 7068 H 646.095 3.42179 0.812812 0
M  V30 7069 H 645.969 2.85261 2.46791 0
M  V30 7070 H 648.356 1.87974 2.27486 0
M  V30 7071 H 648.437 2.48333 0.613552 0
M  V30 7072 H 648.081 4.8578 1.48258 0
M  V30 7073 H 648.011 4.22315 3.14575 0
M  V30 7074 H 650.502 3.25438 1.92089 0
M  V30 7075 H 650.815 6.95118 3.37684 0
M  V30 7076 H 649.16 6.24835 3.04313 0
M  V30 7077 H 652.351 4.07334 2.30644 0
M  V30 7078 H 652.524 5.759 2.97057 0
M  V30 7079 N 645.93 -0.909495 1.28709 0
M  V30 7080 C 646.878 -2.03381 1.12866 0
M  V30 7081 C 647.872 -1.69335 0.0468074 0
M  V30 7082 O 649.078 -1.78819 0.205891 0
M  V30 7083 H 645.453 -0.666452 0.348348 0
M  V30 7084 H 647.424 -2.13885 2.08077 0
M  V30 7085 C 646.173 -3.38092 0.811742 0
M  V30 7086 H 645.496 -3.64786 1.63619 0
M  V30 7087 H 646.936 -4.17477 0.740869 0
M  V30 7088 C 645.395 -3.33395 -0.484679 0
M  V30 7089 O 645.925 -3.72089 -1.5137 0
M  V30 7090 N 644.131 -2.86491 -0.486961 0
M  V30 7091 H 643.678 -2.55199 0.350877 0
M  V30 7092 H 643.636 -2.83731 -1.3544 0
M  V30 7093 N 647.408 -1.11026 -1.11852 0
M  V30 7094 C 648.341 -0.708501 -2.16923 0
M  V30 7095 C 649.319 0.293196 -1.59935 0
M  V30 7096 O 650.503 0.190641 -1.87533 0
M  V30 7097 C 647.63 -0.0463705 -3.38668 0
M  V30 7098 C 646.676 -1.01252 -4.14307 0
M  V30 7099 S 647.509 -2.53291 -4.71809 0
M  V30 7100 C 648.665 -1.88366 -5.96883 0
M  V30 7101 H 648.898 -1.59854 -2.50667 0
M  V30 7102 H 646.431 -0.927869 -1.2341 0
M  V30 7103 H 648.389 0.329314 -4.09177 0
M  V30 7104 H 647.05 0.820562 -3.03192 0
M  V30 7105 H 646.243 -0.496596 -5.01548 0
M  V30 7106 H 645.845 -1.33042 -3.49537 0
M  V30 7107 H 648.137 -1.21753 -6.6647 0
M  V30 7108 H 649.08 -2.73588 -6.53112 0
M  V30 7109 H 649.488 -1.34562 -5.48227 0
M  V30 7110 N 648.886 1.2938 -0.899927 0
M  V30 7111 C 650.163 1.9046 -0.445443 0
M  V30 7112 C 650.543 1.81683 1.07492 0
M  V30 7113 O 649.891 1.24371 1.91688 0
M  V30 7114 C 650.101 3.35529 -0.960279 0
M  V30 7115 C 651.449 4.12556 -1.00412 0
M  V30 7116 O 652.473 3.44434 -0.907965 0
M  V30 7117 O 651.332 5.34294 -1.14857 0
M  V30 7118 H 648.426 0.815253 -0.138893 0
M  V30 7119 H 650.972 1.37844 -0.989808 0
M  V30 7120 H 649.744 3.36074 -2.00425 0
M  V30 7121 H 649.367 3.95624 -0.395939 0
M  V30 7122 N 650.364 0.662433 1.43002 0
M  V30 7123 C 651.314 -0.0460442 2.27954 0
M  V30 7124 C 652.298 -0.785753 1.40409 0
M  V30 7125 O 653.49 -0.666701 1.63964 0
M  V30 7126 C 650.619 -1.00532 3.2825 0
M  V30 7127 C 649.705 -0.263604 4.2328 0
M  V30 7128 N 650.096 0.724855 5.00579 0
M  V30 7129 C 648.394 -0.503778 4.43146 0
M  V30 7130 C 649.095 1.16594 5.69895 0
M  V30 7131 N 648.071 0.498345 5.41311 0
M  V30 7132 H 651.873 0.712314 2.85137 0
M  V30 7133 H 649.387 0.490469 1.54817 0
M  V30 7134 H 651.384 -1.52775 3.87899 0
M  V30 7135 H 650.044 -1.76364 2.72628 0
M  V30 7136 H 651.055 1.10393 5.05998 0
M  V30 7137 H 647.732 -1.24255 3.98581 0
M  V30 7138 H 649.122 1.98434 6.4193 0
M  V30 7139 N 651.842 -1.52309 0.404946 0
M  V30 7140 C 652.792 -2.23717 -0.439864 0
M  V30 7141 C 653.776 -1.24692 -1.0169 0
M  V30 7142 O 654.968 -1.49951 -0.940409 0
M  V30 7143 C 652.097 -3.05898 -1.55825 0
M  V30 7144 C 651.183 -4.12331 -0.992188 0
M  V30 7145 N 651.574 -5.0557 -0.152424 0
M  V30 7146 C 649.872 -4.2774 -1.26312 0
M  V30 7147 C 650.573 -5.81474 0.162041 0
M  V30 7148 N 649.549 -5.41767 -0.44601 0
M  V30 7149 H 653.351 -2.93162 0.208084 0
M  V30 7150 H 650.865 -1.60969 0.215131 0
M  V30 7151 H 652.862 -3.55605 -2.17603 0
M  V30 7152 H 651.522 -2.37991 -2.20886 0
M  V30 7153 H 652.533 -5.17468 0.211556 0
M  V30 7154 H 649.21 -3.71062 -1.91362 0
M  V30 7155 H 650.6 -6.66585 0.843423 0
M  V30 7156 N 653.32 -0.135238 -1.57019 0
M  V30 7157 C 654.569 0.518694 -1.94917 0
M  V30 7158 C 654.882 1.66783 -1.0219 0
M  V30 7159 O 656.088 2.38561 -1.29619 0
M  V30 7160 C 654.544 0.974123 -3.46466 0
M  V30 7161 C 654.152 -0.147439 -4.47757 0
M  V30 7162 C 655.896 1.59851 -3.93253 0
M  V30 7163 C 653.803 0.325599 -5.90503 0
M  V30 7164 H 652.733 0.19754 -0.727663 0
M  V30 7165 H 655.384 -0.217698 -1.82204 0
M  V30 7166 H 653.766 1.76542 -3.5447 0
M  V30 7167 H 654.94 -0.924122 -4.51438 0
M  V30 7168 H 653.255 -0.679496 -4.10818 0
M  V30 7169 H 655.852 1.96385 -4.9733 0
M  V30 7170 H 656.195 2.48306 -3.3414 0
M  V30 7171 H 656.728 0.872323 -3.88118 0
M  V30 7172 H 653.467 -0.523295 -6.53408 0
M  V30 7173 H 652.987 1.06841 -5.90208 0
M  V30 7174 H 654.666 0.781498 -6.42263 0
M  V30 7175 N 654.798 1.5699 0.138552 0
M  V30 7176 C 655.728 2.01933 1.17241 0
M  V30 7177 C 656.709 0.90033 1.44319 0
M  V30 7178 O 657.894 1.16872 1.55095 0
M  V30 7179 C 655.024 2.40711 2.50351 0
M  V30 7180 C 653.978 3.55874 2.37776 0
M  V30 7181 C 653.304 3.80491 3.75674 0
M  V30 7182 C 654.604 4.8826 1.85472 0
M  V30 7183 H 656.298 2.88551 0.798672 0
M  V30 7184 H 653.844 1.3882 0.382743 0
M  V30 7185 H 655.797 2.70754 3.22909 0
M  V30 7186 H 654.521 1.5104 2.89576 0
M  V30 7187 H 653.18 3.2601 1.67669 0
M  V30 7188 H 652.828 2.88057 4.12349 0
M  V30 7189 H 652.528 4.57998 3.68119 0
M  V30 7190 H 654.052 4.12967 4.49767 0
M  V30 7191 H 655.466 5.16965 2.4783 0
M  V30 7192 H 653.863 5.69631 1.88787 0
M  V30 7193 H 654.933 4.78071 0.810935 0
M  V30 7194 N 656.276 -0.40816 1.52223 0
M  V30 7195 C 657.226 -1.49648 1.72016 0
M  V30 7196 C 658.21 -1.50311 0.574069 0
M  V30 7197 O 659.402 -1.56271 0.831173 0
M  V30 7198 C 656.531 -2.87566 1.87512 0
M  V30 7199 C 655.617 -2.91547 3.07995 0
M  V30 7200 N 656.008 -2.65225 4.30685 0
M  V30 7201 C 654.306 -3.22715 3.07849 0
M  V30 7202 C 655.007 -2.75799 5.12162 0
M  V30 7203 N 653.983 -3.08719 4.4743 0
M  V30 7204 H 657.785 -1.28093 2.64517 0
M  V30 7205 H 655.299 -0.61588 1.50269 0
M  V30 7206 H 657.296 -3.65899 1.99809 0
M  V30 7207 H 655.956 -3.10118 0.962114 0
M  V30 7208 H 656.967 -2.39601 4.59142 0
M  V30 7209 H 653.644 -3.50856 2.26289 0
M  V30 7210 H 655.034 -2.59155 6.1991 0
M  V30 7211 N 657.755 -1.42862 -0.66545 0
M  V30 7212 C 659.001 -1.44043 -1.42757 0
M  V30 7213 C 659.334 -0.0599629 -1.94107 0
M  V30 7214 O 658.609 0.917286 -1.71511 0
M  V30 7215 C 658.892 -2.47266 -2.61786 0
M  V30 7216 C 658.745 -3.94539 -2.16007 0
M  V30 7217 C 660.064 -2.47365 -3.64003 0
M  V30 7218 H 657.183 -0.524506 -0.517748 0
M  V30 7219 H 659.825 -1.74335 -0.755466 0
M  V30 7220 H 657.975 -2.21565 -3.19126 0
M  V30 7221 H 659.647 -4.31254 -1.63762 0
M  V30 7222 H 657.89 -4.07957 -1.47491 0
M  V30 7223 H 658.561 -4.62357 -3.01546 0
M  V30 7224 H 661.037 -2.70243 -3.16399 0
M  V30 7225 H 659.913 -3.21552 -4.44854 0
M  V30 7226 H 660.174 -1.50299 -4.15767 0
M  V30 7227 N 659.233 0.902656 -1.29189 0
M  V30 7228 C 660.196 1.98797 -1.14071 0
M  V30 7229 C 661.196 1.60615 -0.0770549 0
M  V30 7230 O 662.386 1.71165 -0.323753 0
M  V30 7231 C 659.518 3.32688 -0.743739 0
M  V30 7232 H 660.711 2.13637 -2.10473 0
M  V30 7233 H 658.264 1.08678 -1.12334 0
M  V30 7234 H 658.999 3.23549 0.220554 0
M  V30 7235 H 658.784 3.61765 -1.51223 0
M  V30 7236 H 660.274 4.12337 -0.660935 0
M  V30 7237 N 660.711 1.11618 1.11262 0
M  V30 7238 C 661.957 0.867463 1.83311 0
M  V30 7239 C 662.29 -0.605366 1.84524 0
M  V30 7240 O 661.565 -1.44704 1.29965 0
M  V30 7241 C 661.848 1.43207 3.30399 0
M  V30 7242 C 661.701 2.97265 3.3757 0
M  V30 7243 C 663.02 1.08454 4.26528 0
M  V30 7244 H 660.139 0.316578 0.665543 0
M  V30 7245 H 662.781 1.38137 1.30454 0
M  V30 7246 H 660.931 0.994982 3.75543 0
M  V30 7247 H 662.603 3.49591 3.00971 0
M  V30 7248 H 660.846 3.33237 2.77733 0
M  V30 7249 H 661.517 3.31859 4.41105 0
M  V30 7250 H 663.993 1.4619 3.89574 0
M  V30 7251 H 662.869 1.50633 5.27826 0
M  V30 7252 H 663.13 -0.00444568 4.421 0
M  V30 7253 N 662.189 -1.289 0.906776 0
M  V30 7254 C 663.466 -1.90221 0.455537 0
M  V30 7255 C 663.846 -1.82251 -1.06527 0
M  V30 7256 O 663.194 -1.25385 -1.91026 0
M  V30 7257 C 663.404 -3.35015 0.97806 0
M  V30 7258 C 664.752 -4.12018 1.02598 0
M  V30 7259 O 665.776 -3.43947 0.926218 0
M  V30 7260 O 664.635 -5.33677 1.17689 0
M  V30 7261 H 661.729 -0.814505 0.143214 0
M  V30 7262 H 664.275 -1.37317 0.997104 0
M  V30 7263 H 663.047 -3.35006 2.02204 0
M  V30 7264 H 662.67 -3.95408 0.416914 0
M  V30 7265 N 663.667 -0.670007 -1.42649 0
M  V30 7266 C 664.913 -0.190568 -2.01903 0
M  V30 7267 C 665.246 1.19817 -1.52832 0
M  V30 7268 O 664.521 1.80342 -0.728485 0
M  V30 7269 C 664.804 -0.21991 -3.59428 0
M  V30 7270 C 664.657 -1.64376 -4.18689 0
M  V30 7271 C 665.976 0.434519 -4.3795 0
M  V30 7272 H 663.095 -0.0707219 -0.733599 0
M  V30 7273 H 665.737 -0.853883 -1.69732 0
M  V30 7274 H 663.887 0.344894 -3.86966 0
M  V30 7275 H 665.559 -2.26044 -4.02122 0
M  V30 7276 H 663.802 -2.18591 -3.747 0
M  V30 7277 H 664.473 -1.61601 -5.27815 0
M  V30 7278 H 666.949 -0.0462156 -4.16074 0
M  V30 7279 H 665.825 0.38333 -5.4756 0
M  V30 7280 H 666.086 1.51135 -4.15464 0
M  V30 7281 N 665.145 1.52092 -0.413018 0
M  V30 7282 C 666.394 2.01041 0.16287 0
M  V30 7283 C 666.707 1.30288 1.45892 0
M  V30 7284 O 667.913 1.70075 2.11629 0
M  V30 7285 C 666.369 3.58283 0.340806 0
M  V30 7286 C 665.977 4.37955 -0.943377 0
M  V30 7287 C 667.721 4.15452 0.871774 0
M  V30 7288 C 665.628 5.86847 -0.732417 0
M  V30 7289 H 664.558 0.751224 0.0646414 0
M  V30 7290 H 667.209 1.75404 -0.539059 0
M  V30 7291 H 665.591 3.80266 1.10516 0
M  V30 7292 H 666.765 4.2773 -1.71418 0
M  V30 7293 H 665.08 3.92122 -1.40105 0
M  V30 7294 H 667.677 5.24375 1.0457 0
M  V30 7295 H 668.02 3.73057 1.84755 0
M  V30 7296 H 668.553 3.97452 0.166377 0
M  V30 7297 H 665.292 6.33609 -1.67986 0
M  V30 7298 H 664.812 5.998 -0.000980058 0
M  V30 7299 H 666.491 6.45906 -0.376105 0
M  V30 7300 N 666.623 0.143563 1.56945 0
M  V30 7301 C 668.039 -0.212877 1.58174 0
M  V30 7302 C 668.239 -1.64926 1.15766 0
M  V30 7303 O 667.295 -2.37535 0.856361 0
M  V30 7304 C 668.608 0.0427573 3.0067 0
M  V30 7305 C 670.156 -0.0212221 3.12993 0
M  V30 7306 C 670.631 0.207036 4.57532 0
M  V30 7307 N 672.122 0.153845 4.62944 0
M  V30 7308 C 672.857 0.305018 5.72588 0
M  V30 7309 N 672.353 0.513722 6.90893 0
M  V30 7310 N 674.146 0.242862 5.61575 0
M  V30 7311 H 666.297 1.08148 1.82805 0
M  V30 7312 H 668.56 0.427831 0.84597 0
M  V30 7313 H 668.266 1.03672 3.36073 0
M  V30 7314 H 668.14 -0.678195 3.71053 0
M  V30 7315 H 670.527 -1.00574 2.77433 0
M  V30 7316 H 670.608 0.732004 2.45103 0
M  V30 7317 H 670.252 1.18863 4.93795 0
M  V30 7318 H 670.182 -0.566473 5.23544 0
M  V30 7319 H 672.673 -0.00294866 3.779 0
M  V30 7320 H 672.986 0.619273 7.70315 0
M  V30 7321 H 671.331 0.550001 6.9282 0
M  V30 7322 H 674.522 0.0806015 4.68031 0
M  V30 7323 H 674.695 0.364112 6.46976 0
M  V30 7324 N 668.101 -1.57061 -0.130224 0
M  V30 7325 C 669.011 -2.02802 -1.17934 0
M  V30 7326 C 670.027 -0.946378 -1.46013 0
M  V30 7327 O 671.203 -1.25708 -1.57351 0
M  V30 7328 C 668.268 -2.41368 -2.48882 0
M  V30 7329 C 667.329 -3.63561 -2.28301 0
M  V30 7330 C 666.562 -4.00279 -3.53005 0
M  V30 7331 O 666.785 -3.37463 -4.59864 0
M  V30 7332 O 665.719 -4.93441 -3.44673 0
M  V30 7333 H 669.545 -2.92394 -0.820958 0
M  V30 7334 H 667.13 -1.45475 -0.340197 0
M  V30 7335 H 669.012 -2.66958 -3.26054 0
M  V30 7336 H 667.687 -1.54926 -2.84217 0
M  V30 7337 H 666.594 -3.43136 -1.49025 0
M  V30 7338 H 667.927 -4.50673 -1.97875 0
M  V30 7339 N 669.579 0.400081 -1.52437 0
M  V30 7340 C 670.804 1.17221 -1.71096 0
M  V30 7341 C 671.229 1.83269 -0.423565 0
M  V30 7342 O 670.587 1.70378 0.619751 0
M  V30 7343 C 670.635 2.20425 -2.85386 0
M  V30 7344 O 669.739 3.26769 -2.51586 0
M  V30 7345 H 669.08 0.341766 -0.569291 0
M  V30 7346 H 671.61 0.467772 -1.99181 0
M  V30 7347 H 671.62 2.64605 -3.10561 0
M  V30 7348 H 670.295 1.71737 -3.78786 0
M  V30 7349 H 668.872 2.87804 -2.37114 0
M  V30 7350 N 671.057 1.43213 0.657864 0
M  V30 7351 C 672.473 1.26511 0.972992 0
M  V30 7352 C 672.673 0.181477 2.00681 0
M  V30 7353 O 671.729 -0.441649 2.48608 0
M  V30 7354 C 673.042 2.62784 1.46168 0
M  V30 7355 C 674.59 2.70278 1.57857 0
M  V30 7356 C 675.065 4.06958 2.10117 0
M  V30 7357 N 676.556 4.08999 2.17426 0
M  V30 7358 C 677.291 5.11585 2.58975 0
M  V30 7359 N 676.787 6.24548 2.99853 0
M  V30 7360 N 678.58 4.9894 2.58873 0
M  V30 7361 H 670.731 2.12384 -0.0263129 0
M  V30 7362 H 672.994 0.946638 0.0507992 0
M  V30 7363 H 672.7 3.43022 0.776474 0
M  V30 7364 H 672.574 2.87863 2.43751 0
M  V30 7365 H 674.961 1.90376 2.25479 0
M  V30 7366 H 675.042 2.4897 0.587179 0
M  V30 7367 H 674.686 4.87325 1.43098 0
M  V30 7368 H 674.616 4.25628 3.10078 0
M  V30 7369 H 677.107 3.27457 1.88627 0
M  V30 7370 H 677.42 6.98661 3.30292 0
M  V30 7371 H 675.765 6.28027 2.97669 0
M  V30 7372 H 678.956 4.09757 2.26311 0
M  V30 7373 H 679.129 5.79019 2.90932 0
M  V30 7374 N 672.536 -0.895792 1.29666 0
M  V30 7375 C 673.446 -2.03329 1.17024 0
M  V30 7376 C 674.462 -1.73753 0.0925962 0
M  V30 7377 O 675.638 -1.99071 0.305431 0
M  V30 7378 C 672.703 -3.36072 0.851841 0
M  V30 7379 C 671.764 -3.7914 2.01373 0
M  V30 7380 C 670.997 -5.05549 1.71043 0
M  V30 7381 O 671.22 -5.66874 0.633213 0
M  V30 7382 O 670.154 -5.44764 2.5596 0
M  V30 7383 H 673.98 -2.16918 2.12556 0
M  V30 7384 H 671.565 -1.02007 1.09156 0
M  V30 7385 H 673.447 -4.15729 0.689006 0
M  V30 7386 H 672.122 -3.23616 -0.0736634 0
M  V30 7387 H 671.029 -3.00233 2.23183 0
M  V30 7388 H 672.362 -3.96186 2.92058 0
M  V30 7389 N 674.014 -1.12206 -1.10668 0
M  V30 7390 C 674.947 -0.731468 -2.16159 0
M  V30 7391 C 675.925 0.276216 -1.60237 0
M  V30 7392 O 677.109 0.17074 -1.87725 0
M  V30 7393 C 674.236 -0.0822882 -3.386 0
M  V30 7394 C 673.282 -1.05641 -4.1321 0
M  V30 7395 S 674.115 -2.58281 -4.69096 0
M  V30 7396 C 675.271 -1.94686 -5.94851 0
M  V30 7397 H 675.504 -1.62504 -2.48957 0
M  V30 7398 H 673.037 -0.940906 -1.22419 0
M  V30 7399 H 674.995 0.285896 -4.09503 0
M  V30 7400 H 673.656 0.788358 -3.04046 0
M  V30 7401 H 672.849 -0.549764 -5.00993 0
M  V30 7402 H 672.451 -1.36741 -3.48106 0
M  V30 7403 H 674.743 -1.28815 -6.65141 0
M  V30 7404 H 675.686 -2.80499 -6.50174 0
M  V30 7405 H 676.094 -1.40369 -5.46769 0
M  V30 7406 N 675.492 1.28418 -0.913599 0
M  V30 7407 C 676.908 1.47411 -0.611728 0
M  V30 7408 C 677.108 1.83018 0.843008 0
M  V30 7409 O 676.164 1.93505 1.6221 0
M  V30 7410 C 677.477 2.57703 -1.5495 0
M  V30 7411 C 679.025 2.71572 -1.5562 0
M  V30 7412 C 679.5 3.85008 -2.48058 0
M  V30 7413 N 680.991 3.92361 -2.46184 0
M  V30 7414 C 681.726 4.79516 -3.14407 0
M  V30 7415 N 681.222 5.71262 -3.91958 0
M  V30 7416 N 683.015 4.73125 -3.03495 0
M  V30 7417 H 675.166 1.03585 -1.85429 0
M  V30 7418 H 677.429 0.515907 -0.795326 0
M  V30 7419 H 677.135 2.38298 -2.58663 0
M  V30 7420 H 677.009 3.54801 -1.28048 0
M  V30 7421 H 679.396 2.90366 -0.526441 0
M  V30 7422 H 679.477 1.75006 -1.86565 0
M  V30 7423 H 679.121 3.66969 -3.51136 0
M  V30 7424 H 679.051 4.80971 -2.14416 0
M  V30 7425 H 681.542 3.26749 -1.89851 0
M  V30 7426 H 681.855 6.34593 -4.41034 0
M  V30 7427 H 680.2 5.71103 -3.96063 0
M  V30 7428 H 683.391 4.00442 -2.42413 0
M  V30 7429 H 683.564 5.40834 -3.56935 0
M  V30 7430 N 676.97 0.677563 1.42291 0
M  V30 7431 C 677.9 0.014968 2.33495 0
M  V30 7432 C 678.881 -0.786376 1.50831 0
M  V30 7433 O 680.066 -0.742975 1.79426 0
M  V30 7434 C 677.196 -0.935023 3.34477 0
M  V30 7435 C 676.15 -0.242074 4.27315 0
M  V30 7436 C 675.476 -1.30519 5.18526 0
M  V30 7437 C 676.776 0.880604 5.14823 0
M  V30 7438 H 678.47 0.776671 2.89151 0
M  V30 7439 H 676.016 0.37494 1.39033 0
M  V30 7440 H 677.969 -1.40766 3.97194 0
M  V30 7441 H 676.693 -1.72818 2.77131 0
M  V30 7442 H 675.352 0.210351 3.65996 0
M  V30 7443 H 675 -2.09041 4.57505 0
M  V30 7444 H 674.7 -0.846652 5.81468 0
M  V30 7445 H 676.224 -1.7787 5.84119 0
M  V30 7446 H 677.638 0.489062 5.7121 0
M  V30 7447 H 676.035 1.26511 5.86613 0
M  V30 7448 H 677.105 1.72818 4.53059 0
M  V30 7449 N 678.448 -1.51871 0.421078 0
M  V30 7450 C 679.38 -2.25052 -0.434065 0
M  V30 7451 C 680.393 -1.28458 -1.00013 0
M  V30 7452 O 681.582 -1.54323 -0.897033 0
M  V30 7453 C 678.682 -2.97813 -1.61743 0
M  V30 7454 C 677.855 -4.21374 -1.17315 0
M  V30 7455 C 676.914 -4.76854 -2.22478 0
M  V30 7456 O 675.94 -5.39123 -1.82577 0
M  V30 7457 N 677.142 -4.59467 -3.54782 0
M  V30 7458 H 679.907 -2.99077 0.193073 0
M  V30 7459 H 677.468 -1.59972 0.249088 0
M  V30 7460 H 679.46 -3.3182 -2.31685 0
M  V30 7461 H 678.03 -2.26899 -2.15024 0
M  V30 7462 H 677.25 -3.93046 -0.3014 0
M  V30 7463 H 678.538 -5.01591 -0.853444 0
M  V30 7464 H 677.936 -4.09832 -3.89941 0
M  V30 7465 H 676.493 -4.9788 -4.20665 0
M  V30 7466 N 679.926 -0.151884 -1.56866 0
M  V30 7467 C 681.337 0.368128 -1.83035 0
M  V30 7468 C 681.688 1.64402 -1.07082 0
M  V30 7469 O 680.813 2.14056 -0.317647 0
M  V30 7470 C 681.408 0.674676 -3.32014 0
M  V30 7471 C 679.967 1.13919 -3.58747 0
M  V30 7472 C 679.114 0.164833 -2.7681 0
M  V30 7473 H 682.065 -0.376499 -1.54169 0
M  V30 7474 H 682.086 1.52883 -3.48435 0
M  V30 7475 H 681.598 -0.254113 -3.87267 0
M  V30 7476 H 679.699 2.08375 -3.08886 0
M  V30 7477 H 679.812 1.06179 -4.67186 0
M  V30 7478 H 678.176 0.658419 -2.46043 0
M  V30 7479 H 678.959 -0.757633 -3.34836 0
M  V30 7480 N 681.404 1.57128 0.121893 0
M  V30 7481 C 682.651 1.847 0.830188 0
M  V30 7482 C 682.979 0.736543 1.80015 0
M  V30 7483 O 682.234 -0.272358 1.93796 0
M  V30 7484 C 682.533 3.1874 1.61677 0
M  V30 7485 C 682.199 4.43901 0.791361 0
M  V30 7486 C 680.861 4.77887 0.563731 0
M  V30 7487 C 683.213 5.20753 0.215823 0
M  V30 7488 C 680.541 5.86168 -0.249737 0
M  V30 7489 C 682.893 6.29891 -0.584821 0
M  V30 7490 C 681.557 6.6241 -0.822794 0
M  V30 7491 H 680.827 0.675866 0.303787 0
M  V30 7492 H 683.474 1.91276 0.0926894 0
M  V30 7493 H 681.779 3.07728 2.42509 0
M  V30 7494 H 683.476 3.37295 2.16872 0
M  V30 7495 H 680.066 4.17272 0.978867 0
M  V30 7496 H 684.25 4.94851 0.378907 0
M  V30 7497 H 679.506 6.0979 -0.44336 0
M  V30 7498 H 683.68 6.88624 -1.03779 0
M  V30 7499 H 681.307 7.46147 -1.45496 0
M  V30 7500 N 682.882 -0.391992 1.52647 0
M  V30 7501 C 683.83 -1.4991 1.77848 0
M  V30 7502 C 684.824 -1.56587 0.646282 0
M  V30 7503 O 686.03 -1.59789 0.828698 0
M  V30 7504 H 682.405 -0.498883 0.56269 0
M  V30 7505 H 684.376 -1.25847 2.70564 0
M  V30 7506 C 683.125 -2.87081 1.96163 0
M  V30 7507 H 682.448 -2.82692 2.82711 0
M  V30 7508 H 683.888 -3.63792 2.17787 0
M  V30 7509 C 682.347 -3.28822 0.733348 0
M  V30 7510 O 682.877 -4.01598 -0.0906481 0
M  V30 7511 N 681.083 -2.85068 0.564317 0
M  V30 7512 H 680.63 -2.26012 1.23598 0
M  V30 7513 H 680.588 -3.13355 -0.256166 0
M  V30 7514 N 684.36 -1.4356 -0.65026 0
M  V30 7515 C 685.27 -1.514 -1.79207 0
M  V30 7516 C 686.286 -0.400895 -1.69319 0
M  V30 7517 O 687.462 -0.655458 -1.90436 0
M  V30 7518 C 684.527 -1.43737 -3.155 0
M  V30 7519 C 683.588 -2.65743 -3.37163 0
M  V30 7520 C 682.821 -2.58436 -4.66954 0
M  V30 7521 O 683.044 -1.63374 -5.46503 0
M  V30 7522 O 681.978 -3.48984 -4.90402 0
M  V30 7523 H 685.804 -2.47825 -1.75547 0
M  V30 7524 H 683.389 -1.25594 -0.809111 0
M  V30 7525 H 685.271 -1.41916 -3.96784 0
M  V30 7526 H 683.946 -0.504488 -3.19745 0
M  V30 7527 H 682.853 -2.73136 -2.55632 0
M  V30 7528 H 684.186 -3.58014 -3.37768 0
M  V30 7529 N 685.838 0.888903 -1.30139 0
M  V30 7530 C 687.068 1.67115 -1.21474 0
M  V30 7531 C 687.476 1.87852 0.225472 0
M  V30 7532 O 686.819 1.42324 1.16145 0
M  V30 7533 C 686.881 3.0713 -1.86846 0
M  V30 7534 C 686.545 3.09582 -3.36167 0
M  V30 7535 C 687.542 2.88929 -4.32222 0
M  V30 7536 C 685.227 3.31304 -3.77549 0
M  V30 7537 C 687.221 2.89949 -5.67634 0
M  V30 7538 C 684.908 3.31954 -5.13079 0
M  V30 7539 C 685.906 3.113 -6.07932 0
M  V30 7540 O 685.594 3.11758 -7.40987 0
M  V30 7541 H 685.326 0.528372 -0.421662 0
M  V30 7542 H 687.88 1.11919 -1.7223 0
M  V30 7543 H 686.11 3.63973 -1.30615 0
M  V30 7544 H 687.799 3.6749 -1.72354 0
M  V30 7545 H 688.565 2.71948 -4.01584 0
M  V30 7546 H 684.444 3.46417 -3.04165 0
M  V30 7547 H 687.988 2.73746 -6.41645 0
M  V30 7548 H 683.885 3.48469 -5.43359 0
M  V30 7549 H 684.653 3.27951 -7.49927 0
M  V30 7550 N 687.317 1.12792 1.10072 0
M  V30 7551 C 688.733 0.864745 1.34143 0
M  V30 7552 C 688.933 -0.503201 1.95116 0
M  V30 7553 O 687.989 -1.25111 2.19325 0
M  V30 7554 C 689.302 1.98413 2.25949 0
M  V30 7555 C 690.85 2.01545 2.39476 0
M  V30 7556 C 691.325 3.12727 3.34613 0
M  V30 7557 N 692.816 3.12194 3.42183 0
M  V30 7558 C 693.551 3.94862 4.15779 0
M  V30 7559 N 693.047 4.87528 4.92228 0
M  V30 7560 N 694.84 3.82985 4.11435 0
M  V30 7561 H 686.991 2.00926 0.68866 0
M  V30 7562 H 689.254 0.874564 0.365844 0
M  V30 7563 H 688.96 2.97005 1.88364 0
M  V30 7564 H 688.834 1.89254 3.26287 0
M  V30 7565 H 691.221 1.0357 2.76328 0
M  V30 7566 H 691.302 2.14777 1.3894 0
M  V30 7567 H 690.946 4.10936 2.98486 0
M  V30 7568 H 690.876 2.96732 4.35037 0
M  V30 7569 H 693.367 2.45065 2.87666 0
M  V30 7570 H 693.68 5.47109 5.45794 0
M  V30 7571 H 692.025 4.91539 4.9134 0
M  V30 7572 H 695.216 3.09923 3.50807 0
M  V30 7573 H 695.389 4.47641 4.68531 0
M  V30 7574 N 688.795 -1.27931 0.920396 0
M  V30 7575 C 689.742 -2.27085 0.412422 0
M  V30 7576 C 690.712 -1.57858 -0.516725 0
M  V30 7577 O 691.897 -1.85717 -0.437475 0
M  V30 7578 C 689.037 -3.43466 -0.335399 0
M  V30 7579 C 688.15 -4.27425 0.627017 0
M  V30 7580 C 687.285 -5.31016 -0.139916 0
M  V30 7581 C 686.324 -6.06641 0.815683 0
M  V30 7582 N 685.461 -7.02052 0.0818439 0
M  V30 7583 H 690.301 -2.69913 1.26298 0
M  V30 7584 H 687.838 -1.32732 0.634076 0
M  V30 7585 H 689.796 -4.09744 -0.785226 0
M  V30 7586 H 688.426 -3.01611 -1.15025 0
M  V30 7587 H 687.478 -3.6113 1.19537 0
M  V30 7588 H 688.79 -4.79969 1.35763 0
M  V30 7589 H 687.944 -6.03208 -0.649998 0
M  V30 7590 H 686.683 -4.79257 -0.903543 0
M  V30 7591 H 685.688 -5.33294 1.33708 0
M  V30 7592 H 686.913 -6.60489 1.57897 0
M  V30 7593 H 684.859 -6.52634 -0.663671 0
M  V30 7594 H 684.776 -7.52249 0.752163 0
M  V30 7595 H 686.044 -7.78432 -0.407825 0
M  V30 7596 N 690.273 -0.685099 -1.4193 0
M  V30 7597 C 691.689 -0.355632 -1.55587 0
M  V30 7598 C 691.889 1.13823 -1.66273 0
M  V30 7599 O 690.945 1.92387 -1.63534 0
M  V30 7600 C 692.258 -1.09498 -2.80055 0
M  V30 7601 C 693.806 -1.07831 -2.93839 0
M  V30 7602 C 694.281 -1.79919 -4.21181 0
M  V30 7603 N 695.772 -1.76837 -4.28115 0
M  V30 7604 C 696.507 -2.29463 -5.25485 0
M  V30 7605 N 696.003 -2.90516 -6.28945 0
M  V30 7606 N 697.796 -2.19779 -5.17353 0
M  V30 7607 H 689.947 -1.65412 -1.33239 0
M  V30 7608 H 692.21 -0.697453 -0.642078 0
M  V30 7609 H 691.916 -2.14997 -2.78333 0
M  V30 7610 H 691.79 -0.666813 -3.71259 0
M  V30 7611 H 694.177 -0.0316152 -2.95083 0
M  V30 7612 H 694.258 -1.54545 -2.03837 0
M  V30 7613 H 693.902 -2.84562 -4.20698 0
M  V30 7614 H 693.832 -1.30647 -5.10136 0
M  V30 7615 H 696.323 -1.32315 -3.53979 0
M  V30 7616 H 696.636 -3.28266 -6.99615 0
M  V30 7617 H 694.981 -2.94589 -6.29478 0
M  V30 7618 H 698.172 -1.71763 -4.35448 0
M  V30 7619 H 698.345 -2.61097 -5.9307 0
M  V30 7620 N 691.751 1.51645 -0.429126 0
M  V30 7621 C 692.998 2.02015 0.140079 0
M  V30 7622 C 693.326 1.31374 1.43427 0
M  V30 7623 O 692.581 0.414779 1.91254 0
M  V30 7624 C 692.88 3.54989 0.414472 0
M  V30 7625 C 692.546 4.43874 -0.792911 0
M  V30 7626 C 691.208 4.67887 -1.12404 0
M  V30 7627 C 693.56 4.96074 -1.59875 0
M  V30 7628 C 690.888 5.41348 -2.26184 0
M  V30 7629 C 693.24 5.70782 -2.72747 0
M  V30 7630 C 691.904 5.93062 -3.06324 0
M  V30 7631 H 691.174 0.739225 0.0512585 0
M  V30 7632 H 693.821 1.82675 -0.574641 0
M  V30 7633 H 692.126 3.72615 1.21099 0
M  V30 7634 H 693.823 3.91489 0.868173 0
M  V30 7635 H 690.413 4.25374 -0.524871 0
M  V30 7636 H 694.597 4.77412 -1.35614 0
M  V30 7637 H 689.853 5.56815 -2.52522 0
M  V30 7638 H 694.027 6.10221 -3.35564 0
M  V30 7639 H 691.654 6.49764 -3.94602 0
M  V30 7640 N 693.229 0.160201 1.56784 0
M  V30 7641 C 694.477 -0.486625 1.96154 0
M  V30 7642 C 694.798 -1.64525 1.04673 0
M  V30 7643 O 694.068 -1.95586 0.110864 0
M  V30 7644 H 692.648 -0.182764 0.724297 0
M  V30 7645 H 695.31 0.238787 1.93432 0
M  V30 7646 H 694.406 -0.854025 3.00188 0
M  V30 7647 N 694.707 -1.5719 -0.113559 0
M  V30 7648 C 695.64 -1.9595 -1.16957 0
M  V30 7649 C 696.618 -0.829951 -1.39823 0
M  V30 7650 O 697.802 -1.08861 -1.53888 0
M  V30 7651 C 694.929 -2.2604 -2.52237 0
M  V30 7652 C 693.975 -3.48571 -2.45765 0
M  V30 7653 S 694.808 -5.00962 -1.89203 0
M  V30 7654 C 695.964 -5.3421 -3.26145 0
M  V30 7655 H 696.197 -2.85214 -0.839069 0
M  V30 7656 H 693.73 -1.51036 -0.320529 0
M  V30 7657 H 695.688 -2.44054 -3.30073 0
M  V30 7658 H 694.349 -1.3738 -2.82463 0
M  V30 7659 H 693.542 -3.67008 -3.45429 0
M  V30 7660 H 693.144 -3.29972 -1.76053 0
M  V30 7661 H 695.436 -5.29725 -4.22371 0
M  V30 7662 H 696.379 -6.35398 -3.12529 0
M  V30 7663 H 696.787 -4.61681 -3.24825 0
M  V30 7664 N 696.185 0.383891 -1.52853 0
M  V30 7665 C 697.132 1.46924 -1.77995 0
M  V30 7666 C 698.102 1.53958 -0.623396 0
M  V30 7667 O 699.287 1.70134 -0.863657 0
M  V30 7668 C 696.427 2.84093 -1.95921 0
M  V30 7669 C 695.54 2.86171 -3.23621 0
M  V30 7670 C 694.675 4.14799 -3.31836 0
M  V30 7671 C 693.714 4.10948 -4.53639 0
M  V30 7672 N 692.851 5.31192 -4.59107 0
M  V30 7673 H 697.691 1.24786 -2.70615 0
M  V30 7674 H 695.228 0.605265 -1.34071 0
M  V30 7675 H 697.186 3.63755 -2.04299 0
M  V30 7676 H 695.816 3.04671 -1.06656 0
M  V30 7677 H 694.868 1.9885 -3.24288 0
M  V30 7678 H 696.18 2.79194 -4.13343 0
M  V30 7679 H 695.334 5.02867 -3.39425 0
M  V30 7680 H 694.073 4.24505 -2.40097 0
M  V30 7681 H 693.078 3.21268 -4.46169 0
M  V30 7682 H 694.303 4.0286 -5.467 0
M  V30 7683 H 692.249 5.41518 -3.70262 0
M  V30 7684 H 692.166 5.26311 -5.42708 0
M  V30 7685 H 693.434 6.21143 -4.70958 0
M  V30 7686 N 697.663 1.43903 0.642637 0
M  V30 7687 C 699.074 1.40975 1.22404 0
M  V30 7688 C 699.425 0.1192 1.95838 0
M  V30 7689 O 698.55 -0.780939 2.01818 0
M  V30 7690 C 699.145 2.5538 2.22636 0
M  V30 7691 C 697.704 2.55684 2.76229 0
M  V30 7692 C 696.851 2.32556 1.51039 0
M  V30 7693 H 699.802 1.5265 0.434006 0
M  V30 7694 H 699.823 2.27474 3.05017 0
M  V30 7695 H 699.335 3.49294 1.69161 0
M  V30 7696 H 697.436 1.65679 3.33738 0
M  V30 7697 H 697.549 3.53799 3.23053 0
M  V30 7698 H 695.913 1.81427 1.78764 0
M  V30 7699 H 696.696 3.28569 0.99484 0
M  V30 7700 N 699.141 -0.881989 1.30609 0
M  V30 7701 C 700.371 -1.66469 1.22359 0
M  V30 7702 C 700.779 -1.87969 -0.215507 0
M  V30 7703 O 700.122 -1.42938 -1.15388 0
M  V30 7704 C 700.184 -3.06135 1.88472 0
M  V30 7705 C 699.848 -3.07795 3.37804 0
M  V30 7706 C 700.845 -2.86633 4.33749 0
M  V30 7707 C 698.53 -3.29297 3.793 0
M  V30 7708 C 700.524 -2.86934 5.69164 0
M  V30 7709 C 698.211 -3.29228 5.14832 0
M  V30 7710 C 699.209 -3.08071 6.09574 0
M  V30 7711 O 698.897 -3.07824 7.4263 0
M  V30 7712 H 698.629 -0.526129 0.424458 0
M  V30 7713 H 701.183 -1.11004 1.72821 0
M  V30 7714 H 699.413 -3.63276 1.32543 0
M  V30 7715 H 701.102 -3.66571 1.74301 0
M  V30 7716 H 701.868 -2.69814 4.0302 0
M  V30 7717 H 697.747 -3.44799 3.05998 0
M  V30 7718 H 701.291 -2.70339 6.43088 0
M  V30 7719 H 697.188 -3.45583 5.452 0
M  V30 7720 H 697.956 -3.2397 7.51656 0
M  V30 7721 N 700.619 -1.13374 -1.09472 0
M  V30 7722 C 701.847 -0.918351 -1.85402 0
M  V30 7723 C 702.262 0.53281 -1.81126 0
M  V30 7724 O 701.619 1.36879 -1.20708 0
M  V30 7725 C 701.67 -1.39743 -3.33398 0
M  V30 7726 O 701.391 -2.79172 -3.37631 0
M  V30 7727 C 702.892 -1.22042 -4.2617 0
M  V30 7728 H 700.112 -0.327511 -0.585643 0
M  V30 7729 H 702.656 -1.50617 -1.38328 0
M  V30 7730 H 700.811 -0.852619 -3.77901 0
M  V30 7731 H 701.225 -3.00428 -4.29934 0
M  V30 7732 H 702.699 -1.60438 -5.2817 0
M  V30 7733 H 703.176 -0.162047 -4.38901 0
M  V30 7734 H 703.782 -1.75323 -3.87482 0
M  V30 7735 N 702.098 1.27442 -0.927168 0
M  V30 7736 C 703.323 1.99036 -0.583042 0
M  V30 7737 C 703.748 1.68711 0.83176 0
M  V30 7738 O 703.106 0.927081 1.55804 0
M  V30 7739 C 703.154 3.51271 -0.814925 0
M  V30 7740 O 702.258 4.12226 0.119742 0
M  V30 7741 H 701.599 0.624883 -0.224538 0
M  V30 7742 H 704.129 1.62263 -1.24628 0
M  V30 7743 H 704.139 4.01411 -0.730282 0
M  V30 7744 H 702.814 3.72676 -1.84623 0
M  V30 7745 H 701.391 3.72897 -0.0147688 0
M  V30 7746 N 703.576 0.692616 1.41565 0
M  V30 7747 C 704.823 0.222335 2.01276 0
M  V30 7748 C 705.151 -1.17706 1.5484 0
M  V30 7749 O 704.406 -1.80795 0.749118 0
M  V30 7750 C 704.705 0.225073 3.56691 0
M  V30 7751 C 704.371 1.57158 4.22625 0
M  V30 7752 C 703.033 1.94022 4.40351 0
M  V30 7753 C 705.385 2.45758 4.59622 0
M  V30 7754 C 702.713 3.19076 4.92349 0
M  V30 7755 C 705.065 3.70141 5.13009 0
M  V30 7756 C 703.729 4.07152 5.28946 0
M  V30 7757 H 702.999 0.0813581 0.73652 0
M  V30 7758 H 705.646 0.891123 1.69503 0
M  V30 7759 H 703.951 -0.527259 3.88236 0
M  V30 7760 H 705.648 -0.156283 4.00695 0
M  V30 7761 H 702.238 1.27486 4.09201 0
M  V30 7762 H 706.422 2.18558 4.45585 0
M  V30 7763 H 701.678 3.4775 5.02872 0
M  V30 7764 H 705.852 4.38983 5.40617 0
M  V30 7765 H 703.479 5.04125 5.69001 0
M  V30 7766 N 705.054 -1.51416 0.437162 0
M  V30 7767 C 705.986 -2.255 -0.410171 0
M  V30 7768 C 706.999 -1.29511 -0.986444 0
M  V30 7769 O 708.188 -1.55266 -0.880614 0
M  V30 7770 C 705.288 -2.99511 -1.58575 0
M  V30 7771 C 704.461 -4.22595 -1.12839 0
M  V30 7772 C 703.52 -4.79187 -2.17407 0
M  V30 7773 O 702.546 -5.4103 -1.76849 0
M  V30 7774 N 703.748 -4.63204 -3.49889 0
M  V30 7775 H 706.513 -2.98856 0.224783 0
M  V30 7776 H 704.074 -1.59699 0.266041 0
M  V30 7777 H 706.066 -3.34258 -2.28152 0
M  V30 7778 H 704.636 -2.29167 -2.12606 0
M  V30 7779 H 703.856 -3.93344 -0.259695 0
M  V30 7780 H 705.144 -5.02468 -0.800196 0
M  V30 7781 H 704.542 -4.13945 -3.85573 0
M  V30 7782 H 703.099 -5.02313 -4.15361 0
M  V30 7783 N 706.532 -0.168513 -1.56696 0
M  V30 7784 C 707.442 0.775435 -2.21414 0
M  V30 7785 C 708.458 1.25529 -1.20492 0
M  V30 7786 O 709.634 1.30801 -1.53144 0
M  V30 7787 C 706.699 1.9886 -2.83999 0
M  V30 7788 C 705.76 1.5559 -4.00113 0
M  V30 7789 C 704.993 2.71124 -4.59704 0
M  V30 7790 O 705.216 3.87917 -4.18182 0
M  V30 7791 O 704.15 2.4536 -5.4962 0
M  V30 7792 H 707.976 0.254416 -3.02632 0
M  V30 7793 H 705.561 0.0595507 -1.49281 0
M  V30 7794 H 707.443 2.69816 -3.23693 0
M  V30 7795 H 706.118 2.49874 -2.05779 0
M  V30 7796 H 705.025 0.815924 -3.65094 0
M  V30 7797 H 706.358 1.09271 -4.79917 0
M  V30 7798 N 708.01 1.57248 0.105221 0
M  V30 7799 C 708.94 2.04374 1.12931 0
M  V30 7800 C 709.921 0.93074 1.42377 0
M  V30 7801 O 711.106 1.20136 1.52581 0
M  V30 7802 C 708.236 2.45967 2.45189 0
M  V30 7803 C 707.19 3.60838 2.30174 0
M  V30 7804 C 706.516 3.88374 3.67518 0
M  V30 7805 C 707.816 4.92084 1.75073 0
M  V30 7806 H 709.51 2.9018 0.737287 0
M  V30 7807 H 707.056 1.39601 0.353211 0
M  V30 7808 H 709.009 2.77542 3.17094 0
M  V30 7809 H 707.733 1.57148 2.86308 0
M  V30 7810 H 706.392 3.29493 1.60716 0
M  V30 7811 H 706.04 2.96739 4.06147 0
M  V30 7812 H 705.74 4.65703 3.58321 0
M  V30 7813 H 707.264 4.22415 4.40906 0
M  V30 7814 H 708.678 5.22106 2.36809 0
M  V30 7815 H 707.075 5.73507 1.76662 0
M  V30 7816 H 708.145 4.79684 0.709347 0
M  V30 7817 N 709.488 -0.375779 1.53054 0
M  V30 7818 C 710.734 -1.12114 1.68992 0
M  V30 7819 C 711.067 -1.8926 0.435238 0
M  V30 7820 O 710.342 -1.86044 -0.567278 0
M  V30 7821 C 710.625 -2.08867 2.93337 0
M  V30 7822 C 710.478 -1.35397 4.28938 0
M  V30 7823 C 711.797 -3.09124 3.13257 0
M  V30 7824 H 708.916 -0.406207 0.614951 0
M  V30 7825 H 711.558 -0.403054 1.85676 0
M  V30 7826 H 709.708 -2.70102 2.79244 0
M  V30 7827 H 711.38 -0.770242 4.54824 0
M  V30 7828 H 709.623 -0.655801 4.28814 0
M  V30 7829 H 710.294 -2.06161 5.12056 0
M  V30 7830 H 712.77 -2.57987 3.26469 0
M  V30 7831 H 711.646 -3.74054 4.01715 0
M  V30 7832 H 711.907 -3.78729 2.28072 0
M  V30 7833 N 710.966 -1.44241 -0.634997 0
M  V30 7834 C 712.214 -1.46531 -1.39187 0
M  V30 7835 C 712.535 -0.0976441 -1.94755 0
M  V30 7836 O 711.805 0.869528 -1.75545 0
M  V30 7837 H 710.385 -0.539544 -0.516625 0
M  V30 7838 H 713.047 -1.79989 -0.747655 0
M  V30 7839 H 712.143 -2.18848 -2.22513 0
M  V30 7840 N 712.444 0.87505 -1.31075 0
M  V30 7841 C 713.354 2.01441 -1.20244 0
M  V30 7842 C 714.37 1.73584 -0.120227 0
M  V30 7843 O 715.546 1.98559 -0.337063 0
M  V30 7844 C 712.611 3.34675 -0.905199 0
M  V30 7845 C 711.672 3.75889 -2.0738 0
M  V30 7846 C 710.905 5.02764 -1.79064 0
M  V30 7847 O 711.128 5.65795 -0.723318 0
M  V30 7848 O 710.062 5.40623 -2.64594 0
M  V30 7849 H 713.888 2.13509 -2.1598 0
M  V30 7850 H 711.473 1.00257 -1.10765 0
M  V30 7851 H 713.355 4.1458 -0.755057 0
M  V30 7852 H 712.03 3.23692 0.0221695 0
M  V30 7853 H 710.937 2.96645 -2.27931 0
M  V30 7854 H 712.27 3.91489 -2.98324 0
M  V30 7855 N 713.922 1.13953 1.08869 0
M  V30 7856 C 714.869 0.82213 2.15661 0
M  V30 7857 C 715.839 -0.218274 1.6466 0
M  V30 7858 O 717.024 -0.0892475 1.90591 0
M  V30 7859 C 714.164 0.300572 3.43789 0
M  V30 7860 C 713.277 1.40071 4.08661 0
M  V30 7861 C 712.412 0.836897 5.24566 0
M  V30 7862 C 711.451 1.91504 5.81371 0
M  V30 7863 N 710.588 1.36875 6.88629 0
M  V30 7864 H 715.428 1.73683 2.42153 0
M  V30 7865 H 712.965 0.866879 1.18843 0
M  V30 7866 H 714.923 -0.0199943 4.17195 0
M  V30 7867 H 713.553 -0.577248 3.17597 0
M  V30 7868 H 712.605 1.83776 3.33062 0
M  V30 7869 H 713.917 2.21534 4.46905 0
M  V30 7870 H 713.071 0.467953 6.04893 0
M  V30 7871 H 711.81 -0.00874207 4.87699 0
M  V30 7872 H 710.815 2.29299 4.99702 0
M  V30 7873 H 712.04 2.76419 6.20298 0
M  V30 7874 H 709.986 0.545211 6.5373 0
M  V30 7875 H 709.903 2.1198 7.25672 0
M  V30 7876 H 711.171 1.02756 7.72698 0
M  V30 7877 N 715.4 -1.26948 0.933913 0
M  V30 7878 C 716.31 -2.30366 0.443671 0
M  V30 7879 C 717.326 -1.67284 -0.478745 0
M  V30 7880 O 718.502 -1.98156 -0.360043 0
M  V30 7881 C 715.567 -3.45485 -0.289974 0
M  V30 7882 C 714.628 -4.24069 0.668114 0
M  V30 7883 C 713.861 -5.33691 -0.0306138 0
M  V30 7884 O 714.084 -5.5656 -1.24888 0
M  V30 7885 O 713.018 -5.98441 0.644384 0
M  V30 7886 H 716.844 -2.74349 1.30254 0
M  V30 7887 H 714.429 -1.32012 0.699506 0
M  V30 7888 H 716.311 -4.15486 -0.70353 0
M  V30 7889 H 714.986 -3.03546 -1.12435 0
M  V30 7890 H 713.893 -3.56579 1.13147 0
M  V30 7891 H 715.226 -4.69739 1.46989 0
M  V30 7892 N 716.879 -0.700114 -1.41195 0
M  V30 7893 C 717.812 0.0129614 -2.28196 0
M  V30 7894 C 718.79 0.783367 -1.42486 0
M  V30 7895 O 719.974 0.773238 -1.71911 0
M  V30 7896 C 717.101 1.02575 -3.22794 0
M  V30 7897 C 716.147 0.347977 -4.25078 0
M  V30 7898 S 716.98 -0.912938 -5.27661 0
M  V30 7899 C 718.136 0.0981362 -6.25823 0
M  V30 7900 H 718.369 -0.724927 -2.88326 0
M  V30 7901 H 715.902 -0.490554 -1.464 0
M  V30 7902 H 717.86 1.60491 -3.77826 0
M  V30 7903 H 716.521 1.73624 -2.61751 0
M  V30 7904 H 715.714 1.11305 -4.91556 0
M  V30 7905 H 715.316 -0.15823 -3.73665 0
M  V30 7906 H 717.608 0.949965 -6.70807 0
M  V30 7907 H 718.551 -0.532838 -7.06092 0
M  V30 7908 H 718.959 0.454944 -5.62664 0
M  V30 7909 N 718.357 1.51182 -0.445186 0
M  V30 7910 C 719.32 2.26501 0.350722 0
M  V30 7911 C 720.32 1.3025 0.942952 0
M  V30 7912 O 721.51 1.53897 0.816175 0
M  V30 7913 C 718.642 3.06274 1.49697 0
M  V30 7914 H 719.835 2.98299 -0.309474 0
M  V30 7915 H 717.388 1.55034 -0.198551 0
M  V30 7916 H 718.123 2.38911 2.19299 0
M  V30 7917 H 717.908 3.76979 1.0784 0
M  V30 7918 H 719.398 3.63306 2.05909 0
M  V30 7919 N 719.835 0.176821 1.56605 0
M  V30 7920 C 720.798 -0.737429 2.17013 0
M  V30 7921 C 721.798 -1.15414 1.11965 0
M  V30 7922 O 722.988 -1.0702 1.37449 0
M  V30 7923 C 720.12 -2.00445 2.75744 0
M  V30 7924 H 721.313 -0.211455 2.99154 0
M  V30 7925 H 718.866 -0.0727582 1.56131 0
M  V30 7926 H 719.601 -2.57338 1.97352 0
M  V30 7927 H 719.386 -1.71456 3.52626 0
M  V30 7928 H 720.876 -2.65679 3.22187 0
M  V30 7929 N 721.313 -1.57302 -0.09688 0
M  V30 7930 C 722.223 -2.05258 -1.13606 0
M  V30 7931 C 723.239 -0.977137 -1.43972 0
M  V30 7932 O 724.415 -1.29018 -1.54649 0
M  V30 7933 C 721.48 -2.46593 -2.43706 0
M  V30 7934 C 720.541 -3.68322 -2.20538 0
M  V30 7935 C 719.774 -4.07676 -3.44435 0
M  V30 7936 O 719.997 -3.47141 -4.52603 0
M  V30 7937 O 718.931 -5.00641 -3.34129 0
M  V30 7938 H 722.757 -2.94069 -0.758752 0
M  V30 7939 H 720.342 -1.46164 -0.309263 0
M  V30 7940 H 722.224 -2.73814 -3.20318 0
M  V30 7941 H 720.899 -1.6092 -2.80867 0
M  V30 7942 H 719.806 -3.4622 -1.41713 0
M  V30 7943 H 721.139 -4.54769 -1.88271 0
M  V30 7944 N 722.791 0.367657 -1.53252 0
M  V30 7945 C 723.721 1.45632 -1.8252 0
M  V30 7946 C 724.702 1.55979 -0.678568 0
M  V30 7947 O 725.887 1.70581 -0.928217 0
M  V30 7948 C 723.017 2.82994 -2.01325 0
M  V30 7949 C 721.971 2.87473 -3.17086 0
M  V30 7950 C 721.297 4.2749 -3.21179 0
M  V30 7951 C 722.597 2.55182 -4.55719 0
M  V30 7952 H 724.291 1.21387 -2.73689 0
M  V30 7953 H 721.837 0.58251 -1.31692 0
M  V30 7954 H 723.79 3.59179 -2.20383 0
M  V30 7955 H 722.514 3.08622 -1.06864 0
M  V30 7956 H 721.173 2.13739 -2.97844 0
M  V30 7957 H 720.821 4.5019 -2.24361 0
M  V30 7958 H 720.521 4.31403 -3.98955 0
M  V30 7959 H 722.045 5.0555 -3.42419 0
M  V30 7960 H 723.459 3.21081 -4.74953 0
M  V30 7961 H 721.856 2.70414 -5.3572 0
M  V30 7962 H 722.926 1.5044 -4.60973 0
M  V30 7963 N 724.269 1.44576 0.627338 0
M  V30 7964 C 725.179 1.54232 1.76776 0
M  V30 7965 C 726.195 0.427782 1.6866 0
M  V30 7966 O 727.371 0.685671 1.89369 0
M  V30 7967 C 724.436 1.48738 3.13174 0
M  V30 7968 C 723.497 2.71074 3.32893 0
M  V30 7969 C 722.73 2.65832 4.62784 0
M  V30 7970 O 722.953 1.72048 5.43834 0
M  V30 7971 O 721.887 3.56742 4.84787 0
M  V30 7972 H 725.713 2.50586 1.71582 0
M  V30 7973 H 723.298 1.26865 0.789028 0
M  V30 7974 H 725.18 1.48211 3.94476 0
M  V30 7975 H 723.855 0.555292 3.18902 0
M  V30 7976 H 722.762 2.77168 2.51254 0
M  V30 7977 H 724.095 3.63342 3.32029 0
M  V30 7978 N 725.747 -0.868086 1.31537 0
M  V30 7979 C 726.657 -2.00801 1.21311 0
M  V30 7980 C 727.673 -1.73518 0.129431 0
M  V30 7981 O 728.849 -1.98378 0.347588 0
M  V30 7982 C 725.914 -3.3419 0.922935 0
M  V30 7983 C 724.975 -3.74783 2.0937 0
M  V30 7984 C 724.208 -5.01807 1.81728 0
M  V30 7985 O 724.431 -5.65404 0.753313 0
M  V30 7986 O 723.365 -5.39213 2.67457 0
M  V30 7987 H 727.191 -2.12361 2.17109 0
M  V30 7988 H 724.776 -0.996684 1.11295 0
M  V30 7989 H 726.658 -4.14174 0.777033 0
M  V30 7990 H 725.333 -3.237 -0.00500301 0
M  V30 7991 H 724.24 -2.95432 2.29501 0
M  V30 7992 H 725.573 -3.89902 3.00396 0
M  V30 7993 N 727.225 -1.14528 -1.08264 0
M  V30 7994 C 728.155 -0.856356 -2.1723 0
M  V30 7995 C 729.136 0.189251 -1.69044 0
M  V30 7996 O 730.321 0.0456119 -1.94146 0
M  V30 7997 C 727.451 -0.334662 -3.45684 0
M  V30 7998 C 726.405 -1.31588 -4.0727 0
M  V30 7999 C 725.731 -0.653428 -5.30692 0
M  V30 8000 C 727.031 -2.67866 -4.48381 0
M  V30 8001 H 728.725 -1.76755 -2.41657 0
M  V30 8002 H 726.271 -0.851287 -1.16143 0
M  V30 8003 H 728.224 -0.120128 -4.21229 0
M  V30 8004 H 726.948 0.611967 -3.20815 0
M  V30 8005 H 725.607 -1.51661 -3.33758 0
M  V30 8006 H 725.255 0.299054 -5.0211 0
M  V30 8007 H 724.955 -1.30817 -5.72853 0
M  V30 8008 H 726.479 -0.448453 -6.08951 0
M  V30 8009 H 727.893 -2.51692 -5.15096 0
M  V30 8010 H 726.29 -3.29627 -5.01464 0
M  V30 8011 H 727.36 -3.24632 -3.60198 0
M  V30 8012 N 728.703 1.26451 -0.940633 0
M  V30 8013 C 729.933 1.97581 -0.603766 0
M  V30 8014 C 730.341 1.70246 0.825395 0
M  V30 8015 O 729.684 0.967001 1.56188 0
M  V30 8016 C 729.746 3.51256 -0.765463 0
M  V30 8017 C 729.41 4.0224 -2.16915 0
M  V30 8018 C 730.407 4.1402 -3.14457 0
M  V30 8019 C 728.092 4.36263 -2.48958 0
M  V30 8020 C 730.086 4.59117 -4.42143 0
M  V30 8021 C 727.773 4.81048 -3.76877 0
M  V30 8022 C 728.771 4.92436 -4.73282 0
M  V30 8023 O 728.459 5.36234 -5.98923 0
M  V30 8024 H 728.191 0.636948 -0.226436 0
M  V30 8025 H 730.745 1.61941 -1.2635 0
M  V30 8026 H 728.975 3.86669 -0.0485956 0
M  V30 8027 H 730.664 4.03597 -0.431738 0
M  V30 8028 H 731.43 3.87981 -2.91026 0
M  V30 8029 H 727.309 4.26634 -1.74656 0
M  V30 8030 H 730.853 4.6792 -5.17394 0
M  V30 8031 H 726.75 5.06531 -4.00121 0
M  V30 8032 H 727.518 5.54456 -6.02097 0
M  V30 8033 N 730.181 0.707592 1.40822 0
M  V30 8034 C 731.429 0.243189 2.00632 0
M  V30 8035 C 731.75 -1.16512 1.56365 0
M  V30 8036 O 731.02 -1.78841 0.799553 0
M  V30 8037 H 729.6 0.0869203 0.741926 0
M  V30 8038 H 732.262 0.911438 1.72275 0
M  V30 8039 H 731.358 0.270014 3.1093 0
M  V30 8040 N 731.66 -1.50943 0.453197 0
M  V30 8041 C 732.937 -1.94872 -0.168633 0
M  V30 8042 C 733.317 -1.39272 -1.5864 0
M  V30 8043 O 732.665 -0.586272 -2.20851 0
M  V30 8044 C 732.875 -3.48757 -0.130217 0
M  V30 8045 C 734.223 -4.23331 -0.327975 0
M  V30 8046 O 735.247 -3.55594 -0.207619 0
M  V30 8047 O 734.106 -5.43529 -0.569077 0
M  V30 8048 H 731.2 -0.818042 -0.121394 0
M  V30 8049 H 733.746 -1.61782 0.512316 0
M  V30 8050 H 732.518 -3.81725 0.860346 0
M  V30 8051 H 732.141 -3.88333 -0.853397 0
M  V30 8052 N 733.138 -0.185124 -1.56509 0
M  V30 8053 C 734.387 0.456421 -1.96468 0
M  V30 8054 C 734.7 1.63448 -1.07444 0
M  V30 8055 O 735.906 2.34316 -1.37143 0
M  V30 8056 C 734.362 0.863404 -3.4939 0
M  V30 8057 C 733.97 -0.289815 -4.47062 0
M  V30 8058 C 735.714 1.47259 -3.98139 0
M  V30 8059 C 733.621 0.137571 -5.9124 0
M  V30 8060 H 732.551 0.17429 -0.733579 0
M  V30 8061 H 735.202 -0.275554 -1.81419 0
M  V30 8062 H 733.584 1.65176 -3.59907 0
M  V30 8063 H 734.758 -1.06728 -4.4827 0
M  V30 8064 H 733.073 -0.809851 -4.08449 0
M  V30 8065 H 735.67 1.80463 -5.03326 0
M  V30 8066 H 736.013 2.3755 -3.41871 0
M  V30 8067 H 736.546 0.748405 -3.90696 0
M  V30 8068 H 733.285 -0.730907 -6.51412 0
M  V30 8069 H 732.805 0.8801 -5.93308 0
M  V30 8070 H 734.484 0.576771 -6.44424 0
M  V30 8071 N 734.616 1.57351 0.0885366 0
M  V30 8072 C 735.893 1.77449 0.822873 0
M  V30 8073 C 736.273 0.768463 1.96616 0
M  V30 8074 O 735.621 -0.201757 2.27608 0
M  V30 8075 C 735.831 3.23425 1.31137 0
M  V30 8076 C 737.179 3.86791 1.75152 0
M  V30 8077 O 738.203 3.27215 1.40745 0
M  V30 8078 O 737.062 4.91568 2.38794 0
M  V30 8079 H 734.156 0.727653 0.393002 0
M  V30 8080 H 736.702 1.69556 0.0699095 0
M  V30 8081 H 735.474 3.88188 0.49254 0
M  V30 8082 H 735.097 3.35977 2.12615 0
M  V30 8083 N 736.094 -0.359525 1.53444 0
M  V30 8084 C 737.057 -1.42357 1.7963 0
M  V30 8085 C 738.057 -1.46319 0.666884 0
M  V30 8086 O 739.247 -1.46974 0.935113 0
M  V30 8087 C 736.379 -2.81425 1.92387 0
M  V30 8088 H 737.572 -1.20409 2.74666 0
M  V30 8089 H 735.125 -0.593007 1.44614 0
M  V30 8090 H 735.86 -3.08679 0.994384 0
M  V30 8091 H 735.645 -2.79947 2.74539 0
M  V30 8092 H 737.135 -3.5847 2.14218 0
M  V30 8093 N 737.572 -1.44907 -0.619662 0
M  V30 8094 C 738.502 -1.55488 -1.742 0
M  V30 8095 C 739.483 -0.407143 -1.65156 0
M  V30 8096 O 740.668 -0.628743 -1.8374 0
M  V30 8097 C 737.798 -1.5097 -3.1277 0
M  V30 8098 C 736.752 -2.64337 -3.36615 0
M  V30 8099 C 736.078 -2.44872 -4.75333 0
M  V30 8100 C 737.378 -4.06423 -3.28051 0
M  V30 8101 H 739.072 -2.49432 -1.65602 0
M  V30 8102 H 736.618 -1.20047 -0.795281 0
M  V30 8103 H 738.571 -1.56971 -3.91073 0
M  V30 8104 H 737.295 -0.535486 -3.2218 0
M  V30 8105 H 735.954 -2.57744 -2.60698 0
M  V30 8106 H 735.602 -1.45617 -4.81461 0
M  V30 8107 H 735.302 -3.20888 -4.92244 0
M  V30 8108 H 736.826 -2.52709 -5.55851 0
M  V30 8109 H 738.24 -4.14324 -3.96243 0
M  V30 8110 H 736.637 -4.82733 -3.56495 0
M  V30 8111 H 737.707 -4.29183 -2.25676 0
M  V30 8112 N 739.05 0.861098 -1.31996 0
M  V30 8113 C 739.96 2.00154 -1.22374 0
M  V30 8114 C 740.976 1.73447 -0.138631 0
M  V30 8115 O 742.152 1.98191 -0.358104 0
M  V30 8116 C 739.217 3.33696 -0.940645 0
M  V30 8117 C 738.278 3.73668 -2.11355 0
M  V30 8118 C 737.511 5.00837 -1.84386 0
M  V30 8119 O 737.734 5.64996 -0.783287 0
M  V30 8120 O 736.668 5.37787 -2.70313 0
M  V30 8121 H 740.494 2.11207 -2.18233 0
M  V30 8122 H 738.079 0.990768 -1.11822 0
M  V30 8123 H 739.961 4.13756 -0.798987 0
M  V30 8124 H 738.636 3.23698 -0.0121636 0
M  V30 8125 H 737.543 2.94211 -2.31065 0
M  V30 8126 H 738.876 3.88303 -3.02459 0
M  V30 8127 N 740.528 1.15101 1.07655 0
M  V30 8128 C 741.775 0.923974 1.80191 0
M  V30 8129 C 742.103 -0.549065 1.86589 0
M  V30 8130 O 741.358 -1.42307 1.3434 0
M  V30 8131 C 741.657 1.47954 3.25337 0
M  V30 8132 C 741.323 2.97253 3.39044 0
M  V30 8133 C 739.985 3.38012 3.42493 0
M  V30 8134 C 742.337 3.93219 3.42094 0
M  V30 8135 C 739.665 4.73384 3.4659 0
M  V30 8136 C 742.017 5.28458 3.47728 0
M  V30 8137 C 740.681 5.68717 3.49453 0
M  V30 8138 H 739.951 0.338106 0.659367 0
M  V30 8139 H 742.598 1.43594 1.26701 0
M  V30 8140 H 740.903 0.888691 3.81588 0
M  V30 8141 H 742.6 1.27972 3.80032 0
M  V30 8142 H 739.19 2.64746 3.37057 0
M  V30 8143 H 743.374 3.62805 3.38654 0
M  V30 8144 H 738.63 5.03925 3.46222 0
M  V30 8145 H 742.804 6.02618 3.49034 0
M  V30 8146 H 740.431 6.73596 3.5238 0
M  V30 8147 N 742.006 -1.2595 0.947325 0
M  V30 8148 C 743.236 -1.97258 0.614235 0
M  V30 8149 C 743.644 -1.70682 -0.816355 0
M  V30 8150 O 742.987 -0.97527 -1.55673 0
M  V30 8151 C 743.049 -3.50845 0.784081 0
M  V30 8152 C 742.713 -4.01084 2.19045 0
M  V30 8153 C 743.71 -4.12347 3.16648 0
M  V30 8154 C 741.395 -4.34936 2.51268 0
M  V30 8155 C 743.389 -4.56766 4.44572 0
M  V30 8156 C 741.076 -4.79043 3.79422 0
M  V30 8157 C 742.074 -4.89919 4.75887 0
M  V30 8158 O 741.762 -5.3305 6.01758 0
M  V30 8159 H 741.494 -0.635738 0.22981 0
M  V30 8160 H 744.048 -1.61268 1.27207 0
M  V30 8161 H 742.278 -3.86638 0.069101 0
M  V30 8162 H 743.967 -4.03363 0.453135 0
M  V30 8163 H 744.733 -3.86432 2.93079 0
M  V30 8164 H 740.612 -4.25702 1.76916 0
M  V30 8165 H 744.156 -4.6517 5.19868 0
M  V30 8166 H 740.053 -5.04402 4.02802 0
M  V30 8167 H 740.821 -5.51255 6.05029 0
M  V30 8168 N 743.484 -0.715051 -1.40445 0
M  V30 8169 C 744.895 -0.326763 -1.83818 0
M  V30 8170 C 745.246 1.13851 -1.59789 0
M  V30 8171 O 744.371 1.87611 -1.07848 0
M  V30 8172 C 744.966 -0.586297 -3.33688 0
M  V30 8173 C 743.525 -0.251724 -3.75557 0
M  V30 8174 C 742.672 -0.858928 -2.63662 0
M  V30 8175 H 745.623 -0.914241 -1.2972 0
M  V30 8176 H 745.644 0.148636 -3.8021 0
M  V30 8177 H 745.156 -1.65281 -3.51146 0
M  V30 8178 H 743.257 0.809754 -3.63695 0
M  V30 8179 H 743.37 -0.720348 -4.73654 0
M  V30 8180 H 741.734 -0.287013 -2.53078 0
M  V30 8181 H 742.517 -1.9297 -2.83932 0
M  V30 8182 N 744.962 1.50701 -0.461195 0
M  V30 8183 C 746.21 2.01867 0.0970051 0
M  V30 8184 C 746.531 1.34591 1.41104 0
M  V30 8185 O 745.801 0.488041 1.89723 0
M  V30 8186 H 744.381 0.74599 0.0388392 0
M  V30 8187 H 747.043 1.85129 -0.609357 0
M  V30 8188 H 746.139 3.11051 0.255688 0
M  V30 8189 N 746.441 0.193421 1.56409 0
M  V30 8190 C 747.371 -0.723334 2.22014 0
M  V30 8191 C 748.352 -1.22254 1.1827 0
M  V30 8192 O 749.537 -1.27168 1.46771 0
M  V30 8193 C 746.667 -1.94366 2.87818 0
M  V30 8194 C 745.621 -1.57943 3.97791 0
M  V30 8195 C 744.947 -2.87623 4.50752 0
M  V30 8196 C 746.247 -0.790639 5.16281 0
M  V30 8197 H 747.941 -0.176426 2.9888 0
M  V30 8198 H 745.487 -0.0834166 1.43758 0
M  V30 8199 H 747.44 -2.5902 3.32396 0
M  V30 8200 H 746.164 -2.51507 2.08355 0
M  V30 8201 H 744.823 -0.956482 3.53903 0
M  V30 8202 H 744.471 -3.4285 3.68053 0
M  V30 8203 H 744.171 -2.63998 5.24956 0
M  V30 8204 H 745.695 -3.53268 4.9803 0
M  V30 8205 H 747.109 -1.34024 5.57414 0
M  V30 8206 H 745.506 -0.65258 5.96541 0
M  V30 8207 H 746.576 0.208633 4.84451 0
M  V30 8208 N 747.919 -1.57396 -0.0801906 0
M  V30 8209 C 748.849 -2.06145 -1.09665 0
M  V30 8210 C 749.83 -0.953273 -1.40878 0
M  V30 8211 O 751.015 -1.22548 -1.50651 0
M  V30 8212 C 748.145 -2.49836 -2.41245 0
M  V30 8213 C 747.099 -3.64454 -2.24405 0
M  V30 8214 C 746.425 -3.94172 -3.61293 0
M  V30 8215 C 747.725 -4.94807 -1.67223 0
M  V30 8216 H 749.419 -2.91316 -0.691028 0
M  V30 8217 H 746.965 -1.40145 -0.330957 0
M  V30 8218 H 748.918 -2.82552 -3.12638 0
M  V30 8219 H 747.642 -1.61683 -2.83771 0
M  V30 8220 H 746.301 -3.32008 -1.55454 0
M  V30 8221 H 745.949 -3.03163 -4.01374 0
M  V30 8222 H 745.649 -4.71345 -3.50867 0
M  V30 8223 H 747.173 -4.29376 -4.3413 0
M  V30 8224 H 748.587 -5.25807 -2.28472 0
M  V30 8225 H 746.984 -5.76245 -1.67515 0
M  V30 8226 H 748.054 -4.80751 -0.632944 0
M  V30 8227 N 749.397 0.351382 -1.53633 0
M  V30 8228 C 750.327 1.43688 -1.84055 0
M  V30 8229 C 751.308 1.55251 -0.695073 0
M  V30 8230 O 752.493 1.69587 -0.946257 0
M  V30 8231 C 749.623 2.80843 -2.04315 0
M  V30 8232 C 748.577 2.84094 -3.20117 0
M  V30 8233 C 747.903 4.2406 -3.25696 0
M  V30 8234 C 749.203 2.50334 -4.58399 0
M  V30 8235 H 750.897 1.18478 -2.74961 0
M  V30 8236 H 748.443 0.568509 -1.32303 0
M  V30 8237 H 750.396 3.56821 -2.2418 0
M  V30 8238 H 749.12 3.07471 -1.10132 0
M  V30 8239 H 747.779 2.10568 -3.00094 0
M  V30 8240 H 747.427 4.47785 -2.29123 0
M  V30 8241 H 747.127 4.27147 -4.03509 0
M  V30 8242 H 748.651 5.0189 -3.47762 0
M  V30 8243 H 750.065 3.16025 -4.78332 0
M  V30 8244 H 748.462 2.64717 -5.38558 0
M  V30 8245 H 749.532 1.45542 -4.62543 0
M  V30 8246 N 750.875 1.45233 0.611969 0
M  V30 8247 C 751.785 1.56098 1.7513 0
M  V30 8248 C 752.801 0.445646 1.68196 0
M  V30 8249 O 753.977 0.705718 1.88631 0
M  V30 8250 C 751.042 1.52052 3.11579 0
M  V30 8251 C 750.103 2.74589 3.29999 0
M  V30 8252 C 749.336 2.70726 4.59938 0
M  V30 8253 O 749.559 1.77806 5.41979 0
M  V30 8254 O 748.493 3.61864 4.80976 0
M  V30 8255 H 752.319 2.52392 1.68914 0
M  V30 8256 H 749.904 1.27695 0.775528 0
M  V30 8257 H 751.786 1.52387 3.92882 0
M  V30 8258 H 750.461 0.589085 3.18295 0
M  V30 8259 H 749.368 2.79817 2.48301 0
M  V30 8260 H 750.701 3.66843 3.28157 0
M  V30 8261 N 752.353 -0.854086 1.3245 0
M  V30 8262 C 753.3 -1.96271 1.21434 0
M  V30 8263 C 754.27 -1.6582 0.0963851 0
M  V30 8264 O 755.455 -1.88851 0.27203 0
M  V30 8265 C 752.595 -3.31939 0.943952 0
M  V30 8266 C 751.708 -3.74885 2.14675 0
M  V30 8267 C 750.843 -4.99347 1.81179 0
M  V30 8268 C 749.882 -5.34785 2.97777 0
M  V30 8269 N 749.019 -6.50425 2.6437 0
M  V30 8270 H 753.859 -2.05025 2.16261 0
M  V30 8271 H 751.396 -1.00348 1.07558 0
M  V30 8272 H 753.354 -4.10076 0.767675 0
M  V30 8273 H 751.984 -3.22784 0.0324763 0
M  V30 8274 H 751.036 -2.92396 2.43328 0
M  V30 8275 H 752.348 -3.97068 3.01891 0
M  V30 8276 H 751.502 -5.85193 1.60107 0
M  V30 8277 H 750.241 -4.79101 0.911777 0
M  V30 8278 H 749.246 -4.47451 3.1948 0
M  V30 8279 H 750.471 -5.56988 3.88511 0
M  V30 8280 H 748.417 -6.31695 1.7691 0
M  V30 8281 H 748.334 -6.7263 3.45116 0
M  V30 8282 H 749.602 -7.39422 2.46729 0
M  V30 8283 N 753.831 -1.1567 -1.07043 0
M  V30 8284 C 755.071 -0.944089 -1.81291 0
M  V30 8285 C 755.435 0.519305 -1.84844 0
M  V30 8286 O 756.636 0.850357 -2.54995 0
M  V30 8287 C 754.907 -1.54528 -3.22267 0
M  V30 8288 S 756.466 -1.47623 -4.13223 0
M  V30 8289 H 753.284 -0.339696 -0.624602 0
M  V30 8290 H 755.886 -1.47277 -1.28568 0
M  V30 8291 H 754.59 -2.60321 -3.17271 0
M  V30 8292 H 754.121 -1.0156 -3.80065 0
M  V30 8293 H 756.136 -0.471261 -4.93957 0
M  V30 8294 N 755.309 1.25446 -0.953992 0
M  V30 8295 C 756.259 2.23627 -0.444413 0
M  V30 8296 C 757.243 1.54004 0.465993 0
M  V30 8297 O 758.435 1.74454 0.29915 0
M  V30 8298 C 755.564 3.42179 0.277175 0
M  V30 8299 C 754.65 4.1907 -0.651263 0
M  V30 8300 N 755.041 4.73346 -1.78262 0
M  V30 8301 C 753.339 4.43628 -0.459338 0
M  V30 8302 C 754.04 5.31576 -2.36224 0
M  V30 8303 N 753.016 5.17991 -1.64884 0
M  V30 8304 H 756.818 2.63197 -1.30785 0
M  V30 8305 H 754.332 1.40677 -0.811402 0
M  V30 8306 H 756.329 4.11653 0.659367 0
M  V30 8307 H 754.989 3.04134 1.13723 0
M  V30 8308 H 756 4.705 -2.1645 0
M  V30 8309 H 752.677 4.15963 0.357885 0
M  V30 8310 H 754.067 5.84361 -3.3162 0
M  V30 8311 N 756.787 0.722489 1.40064 0
M  V30 8312 C 758.198 0.336507 1.83642 0
M  V30 8313 C 758.549 -1.13002 1.6039 0
M  V30 8314 O 757.674 -1.87036 1.08842 0
M  V30 8315 C 758.269 0.603985 3.33373 0
M  V30 8316 C 756.828 0.271637 3.75419 0
M  V30 8317 C 755.975 0.872898 2.63203 0
M  V30 8318 H 758.926 0.921108 1.29233 0
M  V30 8319 H 758.947 -0.128471 3.80283 0
M  V30 8320 H 758.459 1.67141 3.50265 0
M  V30 8321 H 756.56 -0.790455 3.64119 0
M  V30 8322 H 756.673 0.745457 4.73265 0
M  V30 8323 H 755.037 0.300431 2.52922 0
M  V30 8324 H 755.82 1.94473 2.82905 0
M  V30 8325 N 758.265 -1.50454 0.469181 0
M  V30 8326 C 759.213 -2.30101 -0.340033 0
M  V30 8327 C 760.207 -1.37306 -0.992135 0
M  V30 8328 O 761.413 -1.54506 -0.923458 0
M  V30 8329 H 757.788 -0.740941 -0.128495 0
M  V30 8330 H 759.759 -2.96315 0.352144 0
M  V30 8331 C 758.508 -3.17804 -1.41052 0
M  V30 8332 H 757.831 -3.89115 -0.918124 0
M  V30 8333 H 759.271 -3.76533 -1.94934 0
M  V30 8334 C 757.73 -2.35272 -2.4114 0
M  V30 8335 O 758.26 -2.03448 -3.4637 0
M  V30 8336 N 756.466 -1.97889 -2.1281 0
M  V30 8337 H 756.013 -2.2397 -1.27261 0
M  V30 8338 H 755.971 -1.42971 -2.80012 0
M  V30 8339 N 759.743 -0.201713 -1.56304 0
M  V30 8340 C 760.968 0.443815 -2.02596 0
M  V30 8341 C 761.393 1.53945 -1.08086 0
M  V30 8342 O 760.751 1.81182 -0.0655056 0
M  V30 8343 C 760.799 0.971066 -3.47279 0
M  V30 8344 O 759.903 2.0836 -3.55893 0
M  V30 8345 H 759.244 0.10294 -0.655972 0
M  V30 8346 H 761.774 -0.314533 -2.02168 0
M  V30 8347 H 761.784 1.28598 -3.87204 0
M  V30 8348 H 760.459 0.169048 -4.15556 0
M  V30 8349 H 759.036 1.77683 -3.27846 0
M  V30 8350 N 761.222 1.57436 0.0718424 0
M  V30 8351 C 762.471 1.86431 0.769826 0
M  V30 8352 C 762.784 0.794355 1.78744 0
M  V30 8353 O 763.99 0.972148 2.53499 0
M  V30 8354 C 762.446 3.307 1.42006 0
M  V30 8355 C 762.054 4.45824 0.441017 0
M  V30 8356 C 763.798 3.68894 2.10041 0
M  V30 8357 C 761.705 5.81134 1.09717 0
M  V30 8358 H 760.635 0.695474 0.291259 0
M  V30 8359 H 763.286 1.83485 0.0231224 0
M  V30 8360 H 761.668 3.28257 2.21502 0
M  V30 8361 H 762.842 4.59659 -0.32413 0
M  V30 8362 H 761.157 4.16181 -0.134886 0
M  V30 8363 H 763.754 4.67281 2.59908 0
M  V30 8364 H 764.097 2.98692 2.89981 0
M  V30 8365 H 764.63 3.73326 1.37376 0
M  V30 8366 H 761.369 6.54628 0.338095 0
M  V30 8367 H 760.889 5.711 1.83317 0
M  V30 8368 H 762.568 6.26468 1.617 0
M  V30 8369 N 762.7 -0.34323 1.53817 0
M  V30 8370 C 763.947 -1.08344 1.71079 0
M  V30 8371 C 764.275 -1.88633 0.474133 0
M  V30 8372 O 763.53 -1.87984 -0.544116 0
M  V30 8373 C 763.829 -2.05195 2.92626 0
M  V30 8374 C 763.495 -1.41215 4.28216 0
M  V30 8375 C 762.157 -1.23495 4.65083 0
M  V30 8376 C 764.509 -0.951273 5.12445 0
M  V30 8377 C 761.837 -0.583065 5.83796 0
M  V30 8378 C 764.189 -0.313292 6.31824 0
M  V30 8379 C 762.853 -0.123779 6.67385 0
M  V30 8380 H 762.123 -0.396458 0.626021 0
M  V30 8381 H 764.77 -0.362689 1.88034 0
M  V30 8382 H 763.075 -2.83653 2.70275 0
M  V30 8383 H 764.772 -2.62462 3.03175 0
M  V30 8384 H 761.362 -1.56005 3.992 0
M  V30 8385 H 765.546 -1.07602 4.84495 0
M  V30 8386 H 760.802 -0.424854 6.09922 0
M  V30 8387 H 764.976 0.0519179 6.96381 0
M  V30 8388 H 762.603 0.383398 7.59233 0
M  V30 8389 N 764.178 -1.45556 -0.604258 0
M  V30 8390 C 765.426 -1.4945 -1.36048 0
M  V30 8391 C 765.747 -0.138933 -1.94504 0
M  V30 8392 O 765.017 0.832097 -1.7735 0
M  V30 8393 H 763.597 -0.550381 -0.505064 0
M  V30 8394 H 766.259 -1.81535 -0.709308 0
M  V30 8395 H 765.355 -2.23519 -2.17821 0
M  V30 8396 N 765.656 0.84705 -1.32902 0
M  V30 8397 C 766.566 1.98845 -1.2449 0
M  V30 8398 C 767.582 1.7329 -0.15702 0
M  V30 8399 O 768.758 1.978 -0.379104 0
M  V30 8400 C 765.823 3.32679 -0.975985 0
M  V30 8401 C 764.884 3.71405 -2.15306 0
M  V30 8402 C 764.117 4.98853 -1.89688 0
M  V30 8403 O 764.34 5.64134 -0.843168 0
M  V30 8404 O 763.274 5.34889 -2.76002 0
M  V30 8405 H 767.1 2.0888 -2.2046 0
M  V30 8406 H 764.685 0.978852 -1.12867 0
M  V30 8407 H 766.567 4.12885 -0.842826 0
M  V30 8408 H 765.242 3.23667 -0.0464954 0
M  V30 8409 H 764.149 2.91743 -2.34172 0
M  V30 8410 H 765.482 3.85073 -3.06561 0
M  V30 8411 N 767.134 1.16236 1.06428 0
M  V30 8412 C 768.359 0.967688 1.83441 0
M  V30 8413 C 768.784 -0.479167 1.81894 0
M  V30 8414 O 768.142 -1.34224 1.21875 0
M  V30 8415 C 768.19 1.49806 3.2801 0
M  V30 8416 O 767.294 0.703481 4.06356 0
M  V30 8417 H 766.635 0.344468 0.56766 0
M  V30 8418 H 769.165 1.54442 1.34197 0
M  V30 8419 H 769.175 1.51495 3.78831 0
M  V30 8420 H 767.85 2.55133 3.2845 0
M  V30 8421 H 766.427 0.756986 3.65136 0
M  V30 8422 N 768.612 -1.24939 0.960631 0
M  V30 8423 C 769.545 -2.24116 0.429804 0
M  V30 8424 C 770.523 -1.54972 -0.492188 0
M  V30 8425 O 771.707 -1.83642 -0.42519 0
M  V30 8426 C 768.834 -3.36558 -0.380312 0
M  V30 8427 C 767.88 -4.23757 0.482941 0
M  V30 8428 S 768.713 -4.9994 1.91885 0
M  V30 8429 C 769.869 -6.15846 1.11732 0
M  V30 8430 H 770.102 -2.68795 1.27029 0
M  V30 8431 H 767.635 -1.34108 0.765141 0
M  V30 8432 H 769.593 -4.01777 -0.841764 0
M  V30 8433 H 768.254 -2.90451 -1.19569 0
M  V30 8434 H 767.447 -5.03809 -0.138699 0
M  V30 8435 H 767.049 -3.63504 0.879839 0
M  V30 8436 H 769.341 -6.76495 0.368898 0
M  V30 8437 H 770.284 -6.82356 1.89198 0
M  V30 8438 H 770.692 -5.60805 0.644812 0
M  V30 8439 N 770.09 -0.729906 -1.39679 0
M  V30 8440 C 771.339 -0.272534 -1.9985 0
M  V30 8441 C 771.652 1.14519 -1.58571 0
M  V30 8442 O 772.858 1.70182 -2.11543 0
M  V30 8443 C 771.314 -0.436322 -3.57245 0
M  V30 8444 C 770.922 -1.86161 -4.0749 0
M  V30 8445 C 772.666 -0.0404679 -4.24481 0
M  V30 8446 C 770.573 -1.97522 -5.5744 0
M  V30 8447 H 769.503 -0.0981428 -0.747585 0
M  V30 8448 H 772.154 -0.903056 -1.59741 0
M  V30 8449 H 770.536 0.263015 -3.95126 0
M  V30 8450 H 771.71 -2.59248 -3.80955 0
M  V30 8451 H 770.025 -2.21021 -3.529 0
M  V30 8452 H 772.622 -0.104437 -5.34598 0
M  V30 8453 H 772.965 1.00357 -4.04023 0
M  V30 8454 H 773.498 -0.690774 -3.91757 0
M  V30 8455 H 770.237 -3.00096 -5.82771 0
M  V30 8456 H 769.757 -1.28864 -5.85794 0
M  V30 8457 H 771.436 -1.754 -6.22771 0
M  V30 8458 N 771.568 1.50203 -0.477153 0
M  V30 8459 C 772.478 2.32421 0.319027 0
M  V30 8460 C 773.494 1.43075 0.990233 0
M  V30 8461 O 774.67 1.76123 0.976873 0
M  V30 8462 C 771.735 3.17909 1.38328 0
M  V30 8463 C 770.796 4.23082 0.728036 0
M  V30 8464 C 770.029 5.04484 1.74158 0
M  V30 8465 O 770.252 4.8705 2.96881 0
M  V30 8466 O 769.186 5.8747 1.31006 0
M  V30 8467 H 773.012 3.01638 -0.353281 0
M  V30 8468 H 770.597 1.47478 -0.238891 0
M  V30 8469 H 772.479 3.70937 1.9996 0
M  V30 8470 H 771.154 2.51413 2.03895 0
M  V30 8471 H 770.061 3.7403 0.07261 0
M  V30 8472 H 771.394 4.92065 0.115216 0
M  V30 8473 N 773.046 0.209999 1.56195 0
M  V30 8474 C 774.295 -0.425106 1.97169 0
M  V30 8475 C 774.608 -1.61718 1.10031 0
M  V30 8476 O 775.814 -2.32105 1.40853 0
M  V30 8477 C 774.27 -0.80771 3.50719 0
M  V30 8478 C 773.878 0.360902 4.46544 0
M  V30 8479 C 775.622 -1.40906 4.00432 0
M  V30 8480 C 773.529 -0.0434919 5.91384 0
M  V30 8481 H 772.459 -0.162598 0.736259 0
M  V30 8482 H 775.11 0.304382 1.80958 0
M  V30 8483 H 773.492 -1.59429 3.62489 0
M  V30 8484 H 774.666 1.13846 4.46515 0
M  V30 8485 H 772.981 0.874729 4.07109 0
M  V30 8486 H 775.578 -1.72433 5.06133 0
M  V30 8487 H 775.921 -2.32081 3.45607 0
M  V30 8488 H 776.454 -0.686154 3.91838 0
M  V30 8489 H 773.193 0.834448 6.50167 0
M  V30 8490 H 772.713 -0.785598 5.94633 0
M  V30 8491 H 774.392 -0.474176 6.4526 0
M  V30 8492 N 774.524 -1.57472 -0.0634922 0
M  V30 8493 C 775.772 -1.87283 -0.759563 0
M  V30 8494 C 776.093 -0.803135 -1.77693 0
M  V30 8495 O 775.363 0.167293 -1.95184 0
M  V30 8496 H 773.943 -0.691106 -0.283516 0
M  V30 8497 H 776.605 -1.94864 -0.0376091 0
M  V30 8498 H 775.701 -2.85064 -1.27062 0
M  V30 8499 N 776.003 0.335068 -1.53997 0
M  V30 8500 C 776.966 1.39481 -1.81872 0
M  V30 8501 C 777.966 1.4524 -0.690078 0
M  V30 8502 O 779.156 1.45467 -0.958377 0
M  V30 8503 C 776.288 2.78329 -1.9684 0
M  V30 8504 H 777.481 1.16024 -2.76547 0
M  V30 8505 H 775.034 0.569926 -1.45539 0
M  V30 8506 H 775.769 3.07058 -1.04337 0
M  V30 8507 H 775.554 2.75544 -2.78958 0
M  V30 8508 H 777.044 3.55016 -2.19894 0
M  V30 8509 N 777.481 1.45874 0.596531 0
M  V30 8510 C 778.892 1.44798 1.17857 0
M  V30 8511 C 779.243 0.181443 1.95359 0
M  V30 8512 O 778.368 -0.716336 2.042 0
M  V30 8513 C 778.963 2.62333 2.14398 0
M  V30 8514 C 777.522 2.64342 2.67955 0
M  V30 8515 C 776.669 2.37244 1.43564 0
M  V30 8516 H 779.62 1.53954 0.385222 0
M  V30 8517 H 779.641 2.37063 2.97626 0
M  V30 8518 H 779.153 3.54499 1.57963 0
M  V30 8519 H 777.254 1.76213 3.28298 0
M  V30 8520 H 777.367 3.63897 3.11634 0
M  V30 8521 H 775.731 1.87022 1.72901 0
M  V30 8522 H 776.514 3.31568 0.889805 0
M  V30 8523 N 778.959 -0.83999 1.33349 0
M  V30 8524 C 780.206 -1.59517 1.24742 0
M  V30 8525 C 780.534 -1.93598 -0.187077 0
M  V30 8526 O 779.789 -1.58782 -1.14398 0
M  V30 8527 C 780.088 -2.91571 2.06691 0
M  V30 8528 C 779.754 -2.76856 3.55895 0
M  V30 8529 C 778.416 -2.72551 3.96572 0
M  V30 8530 C 780.768 -2.61741 4.50712 0
M  V30 8531 C 778.096 -2.51028 5.30285 0
M  V30 8532 C 780.448 -2.41752 5.84584 0
M  V30 8533 C 779.112 -2.35848 6.24445 0
M  V30 8534 H 778.382 -0.583714 0.456463 0
M  V30 8535 H 781.029 -0.973261 1.64924 0
M  V30 8536 H 779.334 -3.57961 1.59284 0
M  V30 8537 H 781.031 -3.49053 1.9739 0
M  V30 8538 H 777.621 -2.81039 3.23597 0
M  V30 8539 H 781.805 -2.64102 4.20195 0
M  V30 8540 H 777.061 -2.44903 5.60208 0
M  V30 8541 H 781.235 -2.2904 6.57658 0
M  V30 8542 H 778.862 -2.18931 7.27993 0
M  V30 8543 N 780.437 -1.16799 -1.0581 0
M  V30 8544 C 781.662 -0.977402 -1.82925 0
M  V30 8545 C 782.087 0.469514 -1.82146 0
M  V30 8546 O 781.445 1.33576 -1.22585 0
M  V30 8547 C 781.493 -1.51543 -3.27211 0
M  V30 8548 O 780.597 -0.725021 -4.05977 0
M  V30 8549 H 779.938 -0.347474 -0.565825 0
M  V30 8550 H 782.468 -1.55151 -1.33376 0
M  V30 8551 H 782.478 -1.53502 -3.78023 0
M  V30 8552 H 781.153 -2.56872 -3.27093 0
M  V30 8553 H 779.73 -0.77634 -3.64729 0
M  V30 8554 N 781.915 1.24427 -0.967243 0
M  V30 8555 C 782.845 2.2773 -0.515899 0
M  V30 8556 C 783.826 1.64197 0.444227 0
M  V30 8557 O 785.011 1.91193 0.340451 0
M  V30 8558 C 782.141 3.46751 0.195149 0
M  V30 8559 C 781.095 4.22548 -0.680953 0
M  V30 8560 C 780.421 5.34456 0.161561 0
M  V30 8561 C 781.721 4.83914 -1.96532 0
M  V30 8562 H 783.415 2.65735 -1.37933 0
M  V30 8563 H 780.961 1.27742 -0.664681 0
M  V30 8564 H 782.914 4.18153 0.522117 0
M  V30 8565 H 781.638 3.07771 1.09292 0
M  V30 8566 H 780.297 3.52946 -0.991186 0
M  V30 8567 H 779.945 4.91716 1.05947 0
M  V30 8568 H 779.645 5.86087 -0.421418 0
M  V30 8569 H 781.169 6.08685 0.483211 0
M  V30 8570 H 782.583 5.47392 -1.70396 0
M  V30 8571 H 780.98 5.45775 -2.49499 0
M  V30 8572 H 782.05 4.05393 -2.66053 0
M  V30 8573 N 783.393 0.737304 1.3929 0
M  V30 8574 C 784.34 0.0988364 2.30588 0
M  V30 8575 C 785.31 -0.727206 1.49335 0
M  V30 8576 O 786.495 -0.686694 1.78014 0
M  V30 8577 C 783.635 -0.800734 3.35682 0
M  V30 8578 C 782.748 0.0381731 4.31983 0
M  V30 8579 C 781.883 -0.862884 5.24145 0
M  V30 8580 C 780.922 -0.0193639 6.12097 0
M  V30 8581 N 780.059 -0.87648 6.96608 0
M  V30 8582 H 784.899 0.883031 2.84617 0
M  V30 8583 H 782.436 0.447111 1.4014 0
M  V30 8584 H 784.394 -1.33676 3.95205 0
M  V30 8585 H 783.024 -1.55088 2.83103 0
M  V30 8586 H 782.076 0.691641 3.74059 0
M  V30 8587 H 783.388 0.690294 4.94 0
M  V30 8588 H 782.542 -1.46667 5.88705 0
M  V30 8589 H 781.281 -1.54878 4.62454 0
M  V30 8590 H 780.286 0.597202 5.46547 0
M  V30 8591 H 781.511 0.663348 6.75852 0
M  V30 8592 H 779.457 -1.54762 6.37483 0
M  V30 8593 H 779.374 -0.280892 7.55478 0
M  V30 8594 H 780.642 -1.46575 7.65595 0
M  V30 8595 N 784.871 -1.49948 0.485112 0
M  V30 8596 C 786.119 -2.01996 -0.0648775 0
M  V30 8597 C 786.44 -1.36819 -1.38945 0
M  V30 8598 O 785.71 -0.518163 -1.88923 0
M  V30 8599 H 784.29 -0.746513 -0.0269662 0
M  V30 8600 H 786.952 -1.84136 0.638733 0
M  V30 8601 H 786.048 -3.11418 -0.20617 0
M  V30 8602 N 786.349 -0.21828 -1.56081 0
M  V30 8603 C 787.279 0.687922 -2.23136 0
M  V30 8604 C 788.26 1.20357 -1.202 0
M  V30 8605 O 789.445 1.24817 -1.48776 0
M  V30 8606 C 786.575 1.89762 -2.90874 0
M  V30 8607 C 785.529 1.51595 -4.00254 0
M  V30 8608 C 784.855 2.80415 -4.55271 0
M  V30 8609 C 786.155 0.708404 -5.17474 0
M  V30 8610 H 787.849 0.128854 -2.99123 0
M  V30 8611 H 785.395 0.0605354 -1.43873 0
M  V30 8612 H 787.348 2.53699 -3.36474 0
M  V30 8613 H 786.072 2.4816 -2.1233 0
M  V30 8614 H 784.731 0.900058 -3.55379 0
M  V30 8615 H 784.379 3.36951 -3.73461 0
M  V30 8616 H 784.079 2.55613 -5.2909 0
M  V30 8617 H 785.603 3.453 -5.03587 0
M  V30 8618 H 787.017 1.2514 -5.59476 0
M  V30 8619 H 785.414 0.557593 -5.97504 0
M  V30 8620 H 786.484 -0.285679 -4.84058 0
M  V30 8621 N 787.827 1.57504 0.0551401 0
M  V30 8622 C 788.757 2.07864 1.06372 0
M  V30 8623 C 789.738 0.975565 1.39344 0
M  V30 8624 O 790.923 1.24929 1.48682 0
M  V30 8625 C 788.053 2.53643 2.3724 0
M  V30 8626 C 787.007 3.67978 2.18578 0
M  V30 8627 C 786.333 3.9987 3.54976 0
M  V30 8628 C 787.633 4.97405 1.59329 0
M  V30 8629 H 789.327 2.92379 0.644595 0
M  V30 8630 H 786.873 1.40654 0.308619 0
M  V30 8631 H 788.826 2.8749 3.08103 0
M  V30 8632 H 787.55 1.66177 2.81163 0
M  V30 8633 H 786.209 3.3444 1.50152 0
M  V30 8634 H 785.857 3.0951 3.965 0
M  V30 8635 H 785.557 4.76867 3.43324 0
M  V30 8636 H 787.081 4.36228 4.27244 0
M  V30 8637 H 788.495 5.29375 2.20078 0
M  V30 8638 H 786.892 5.78837 1.58327 0
M  V30 8639 H 787.962 4.81697 0.55638 0
M  V30 8640 N 789.305 -0.326896 1.54172 0
M  V30 8641 C 790.553 -1.06313 1.71878 0
M  V30 8642 C 790.874 -1.88652 0.493498 0
M  V30 8643 O 790.144 -1.89608 -0.492522 0
M  V30 8644 H 788.724 -0.39549 0.633716 0
M  V30 8645 H 791.386 -0.364139 1.91468 0
M  V30 8646 H 790.482 -1.73105 2.59694 0
M  V30 8647 N 790.784 -1.46188 -0.588786 0
M  V30 8648 C 791.732 -1.56653 -1.71938 0
M  V30 8649 C 792.726 -0.435354 -1.6371 0
M  V30 8650 O 793.932 -0.611996 -1.69277 0
M  V30 8651 H 790.307 -0.492408 -0.568365 0
M  V30 8652 H 792.278 -2.51724 -1.60242 0
M  V30 8653 C 791.027 -1.56822 -3.10326 0
M  V30 8654 H 790.35 -2.43198 -3.17325 0
M  V30 8655 H 791.79 -1.68199 -3.89211 0
M  V30 8656 C 790.249 -0.295802 -3.35599 0
M  V30 8657 O 790.779 0.616515 -3.96941 0
M  V30 8658 N 788.985 -0.185609 -2.90007 0
M  V30 8659 H 788.532 -0.928914 -2.40269 0
M  V30 8660 H 788.49 0.664883 -3.07289 0
M  V30 8661 N 792.262 0.832906 -1.33792 0
M  V30 8662 C 793.673 1.40489 -1.22963 0
M  V30 8663 C 794.024 1.95633 0.149026 0
M  V30 8664 O 793.149 1.8928 1.04891 0
M  V30 8665 C 793.744 2.55387 -2.22627 0
M  V30 8666 C 792.303 3.08522 -2.15618 0
M  V30 8667 C 791.45 1.81347 -2.09782 0
M  V30 8668 H 794.401 0.638156 -1.45304 0
M  V30 8669 H 794.422 3.33193 -1.83746 0
M  V30 8670 H 793.934 2.15222 -3.22957 0
M  V30 8671 H 792.035 3.53217 -1.18611 0
M  V30 8672 H 792.148 3.6829 -3.0643 0
M  V30 8673 H 790.512 2.01839 -1.55349 0
M  V30 8674 H 791.295 1.43369 -3.1193 0
M  V30 8675 N 793.74 1.17359 1.05189 0
M  V30 8676 C 794.989 0.956412 1.77583 0
M  V30 8677 C 795.302 -0.516018 1.88671 0
M  V30 8678 O 796.508 -0.851401 2.57805 0
M  V30 8679 C 794.964 1.66203 3.19225 0
M  V30 8680 C 794.572 3.17299 3.16267 0
M  V30 8681 C 796.316 1.52725 3.96075 0
M  V30 8682 C 794.223 3.8055 4.52698 0
M  V30 8683 H 793.153 0.354204 0.665624 0
M  V30 8684 H 795.804 1.40612 1.17901 0
M  V30 8685 H 794.186 1.14006 3.79234 0
M  V30 8686 H 795.36 3.76431 2.65776 0
M  V30 8687 H 793.675 3.3079 2.52917 0
M  V30 8688 H 796.272 1.97351 4.96947 0
M  V30 8689 H 796.615 0.477803 4.13549 0
M  V30 8690 H 797.148 2.02139 3.42614 0
M  V30 8691 H 793.887 4.85492 4.4043 0
M  V30 8692 H 793.407 3.26206 5.03339 0
M  V30 8693 H 795.086 3.82757 5.21638 0
M  V30 8694 N 795.218 -1.23913 0.973828 0
M  V30 8695 C 796.458 -1.93889 0.647015 0
M  V30 8696 C 796.822 -1.74368 -0.803735 0
M  V30 8697 O 798.023 -2.38435 -1.24106 0
M  V30 8698 C 796.294 -3.4257 1.01885 0
M  V30 8699 S 797.853 -4.31306 0.807517 0
M  V30 8700 H 794.671 -0.670279 0.237165 0
M  V30 8701 H 797.273 -1.50144 1.25208 0
M  V30 8702 H 795.977 -3.54286 2.07146 0
M  V30 8703 H 795.508 -3.91312 0.404812 0
M  V30 8704 H 797.523 -4.95218 -0.311986 0
M  V30 8705 N 796.696 -0.74468 -1.38897 0
M  V30 8706 C 797.921 -0.306119 -2.05128 0
M  V30 8707 C 798.346 1.0541 -1.55789 0
M  V30 8708 O 797.704 1.66993 -0.705909 0
M  V30 8709 C 797.752 -0.328195 -3.59103 0
M  V30 8710 O 796.856 0.680876 -4.06741 0
M  V30 8711 H 796.197 -0.137209 -0.649669 0
M  V30 8712 H 798.727 -1.01331 -1.77745 0
M  V30 8713 H 798.737 -0.175956 -4.0762 0
M  V30 8714 H 797.412 -1.32067 -3.94374 0
M  V30 8715 H 795.989 0.49398 -3.69614 0
M  V30 8716 N 798.174 1.49689 -0.493057 0
M  V30 8717 C 799.585 1.8665 -0.0433032 0
M  V30 8718 C 799.936 1.40607 1.36836 0
M  V30 8719 O 799.061 0.780503 2.01834 0
M  V30 8720 C 799.656 3.38724 -0.0718069 0
M  V30 8721 C 798.215 3.75015 0.32257 0
M  V30 8722 C 797.362 2.7366 -0.4478 0
M  V30 8723 H 800.313 1.42119 -0.706246 0
M  V30 8724 H 800.334 3.73522 0.725347 0
M  V30 8725 H 799.846 3.72204 -1.09935 0
M  V30 8726 H 797.947 3.47142 1.35364 0
M  V30 8727 H 798.06 4.79099 0.00864259 0
M  V30 8728 H 796.424 2.54498 0.101354 0
M  V30 8729 H 797.207 3.09985 -1.47527 0
M  V30 8730 N 799.652 0.226554 1.55963 0
M  V30 8731 C 800.562 -0.692725 2.24139 0
M  V30 8732 C 801.578 -1.20971 1.25068 0
M  V30 8733 O 802.754 -1.25027 1.57893 0
M  V30 8734 C 799.819 -1.88183 2.91184 0
M  V30 8735 C 798.88 -1.40633 4.05612 0
M  V30 8736 C 798.113 -2.53875 4.6945 0
M  V30 8737 O 798.336 -3.72129 4.32292 0
M  V30 8738 O 797.27 -2.24792 5.58348 0
M  V30 8739 H 801.096 -0.141921 3.03368 0
M  V30 8740 H 798.681 -0.0041049 1.49399 0
M  V30 8741 H 800.563 -2.57617 3.33484 0
M  V30 8742 H 799.238 -2.42064 2.14911 0
M  V30 8743 H 798.145 -0.67986 3.67871 0
M  V30 8744 H 799.478 -0.913838 4.83642 0
M  V30 8745 N 801.13 -1.57531 -0.0467866 0
M  V30 8746 C 802.36 -1.92417 -0.752279 0
M  V30 8747 C 802.768 -0.823134 -1.70356 0
M  V30 8748 O 802.111 0.210598 -1.82489 0
M  V30 8749 C 802.173 -3.22974 -1.57887 0
M  V30 8750 C 801.837 -4.50045 -0.794285 0
M  V30 8751 C 802.834 -5.19799 -0.102368 0
M  V30 8752 C 800.519 -4.96608 -0.754061 0
M  V30 8753 C 802.513 -6.34385 0.619267 0
M  V30 8754 C 800.2 -6.11093 -0.0286682 0
M  V30 8755 C 801.198 -6.79835 0.656772 0
M  V30 8756 O 800.886 -7.92133 1.37042 0
M  V30 8757 H 800.618 -0.640029 -0.217576 0
M  V30 8758 H 803.172 -2.05395 -0.0137438 0
M  V30 8759 H 801.402 -3.06273 -2.3608 0
M  V30 8760 H 803.091 -3.43319 -2.16533 0
M  V30 8761 H 803.857 -4.8484 -0.124589 0
M  V30 8762 H 799.736 -4.42958 -1.27706 0
M  V30 8763 H 803.28 -6.87975 1.15483 0
M  V30 8764 H 799.177 -6.455 -0.00446214 0
M  V30 8765 H 799.945 -8.08394 1.28227 0
M  V30 8766 N 802.608 0.318715 -1.54344 0
M  V30 8767 C 803.854 1.05383 -1.73971 0
M  V30 8768 C 804.209 1.85524 -0.509781 0
M  V30 8769 O 803.502 1.8502 0.49782 0
M  V30 8770 C 803.696 2.00514 -2.95853 0
M  V30 8771 C 803.525 1.29728 -4.30582 0
M  V30 8772 C 802.295 1.03177 -4.94654 0
M  V30 8773 C 804.493 0.710718 -5.09366 0
M  V30 8774 N 802.475 0.29232 -6.13204 0
M  V30 8775 C 803.846 0.103132 -6.19914 0
M  V30 8776 C 805.901 0.614011 -4.94099 0
M  V30 8777 C 804.604 -0.591782 -7.16862 0
M  V30 8778 C 806.63 -0.0672115 -5.91362 0
M  V30 8779 C 805.992 -0.663721 -7.01266 0
M  V30 8780 H 802.091 0.369157 -0.689382 0
M  V30 8781 H 804.675 0.334453 -1.91806 0
M  V30 8782 H 802.846 2.69719 -2.79475 0
M  V30 8783 H 804.578 2.67046 -3.04086 0
M  V30 8784 H 801.333 1.32536 -4.54677 0
M  V30 8785 H 801.757 -0.0634005 -6.7697 0
M  V30 8786 H 806.399 1.06091 -4.09273 0
M  V30 8787 H 804.117 -1.0505 -8.01243 0
M  V30 8788 H 807.703 -0.141742 -5.81627 0
M  V30 8789 H 806.583 -1.18248 -7.75234 0
M  V30 8790 N 804.086 1.46499 0.581025 0
M  V30 8791 C 805.033 1.5719 1.68997 0
M  V30 8792 C 806.003 0.416114 1.60803 0
M  V30 8793 O 807.188 0.633086 1.79991 0
M  V30 8794 C 804.328 1.56973 3.07333 0
M  V30 8795 C 803.441 2.83298 3.26139 0
M  V30 8796 C 802.576 2.74574 4.54734 0
M  V30 8797 C 801.615 3.9583 4.66889 0
M  V30 8798 N 800.752 3.85482 5.86811 0
M  V30 8799 H 805.592 2.51914 1.59196 0
M  V30 8800 H 803.129 1.24975 0.775857 0
M  V30 8801 H 805.087 1.54832 3.87405 0
M  V30 8802 H 803.717 0.657803 3.16027 0
M  V30 8803 H 802.769 2.95411 2.3966 0
M  V30 8804 H 804.081 3.7316 3.30988 0
M  V30 8805 H 803.235 2.70548 5.43036 0
M  V30 8806 H 801.974 1.82354 4.52325 0
M  V30 8807 H 800.979 4.00186 3.77003 0
M  V30 8808 H 802.204 4.89148 4.71075 0
M  V30 8809 H 800.15 2.96051 5.85397 0
M  V30 8810 H 800.067 4.69002 5.92936 0
M  V30 8811 H 801.335 3.85434 6.7754 0
M  V30 8812 N 805.565 -0.825799 1.34232 0
M  V30 8813 C 806.976 -1.39835 1.23706 0
M  V30 8814 C 807.327 -1.95709 -0.138649 0
M  V30 8815 O 806.452 -1.89833 -1.03886 0
M  V30 8816 C 807.047 -2.54203 2.23978 0
M  V30 8817 C 805.606 -3.07374 2.17251 0
M  V30 8818 C 804.753 -1.80232 2.10741 0
M  V30 8819 H 807.704 -0.630442 1.4564 0
M  V30 8820 H 807.725 -3.32214 1.8551 0
M  V30 8821 H 807.237 -2.13506 3.24094 0
M  V30 8822 H 805.338 -3.52583 1.20483 0
M  V30 8823 H 805.451 -3.6666 3.08379 0
M  V30 8824 H 803.815 -2.01012 1.56417 0
M  V30 8825 H 804.598 -1.41713 3.12686 0
M  V30 8826 N 807.043 -1.17915 -1.04565 0
M  V30 8827 C 808.268 -0.996749 -1.81878 0
M  V30 8828 C 808.693 0.450169 -1.82634 0
M  V30 8829 O 808.051 1.32268 -1.23995 0
M  V30 8830 C 808.099 -1.55005 -3.25585 0
M  V30 8831 O 807.203 -0.76804 -4.05185 0
M  V30 8832 H 806.544 -0.353456 -0.562108 0
M  V30 8833 H 809.074 -1.56557 -1.31723 0
M  V30 8834 H 809.084 -1.57503 -3.76373 0
M  V30 8835 H 807.759 -2.60327 -3.2435 0
M  V30 8836 H 806.336 -0.81498 -3.63885 0
M  V30 8837 N 808.521 1.23394 -0.980386 0
M  V30 8838 C 809.749 1.95844 -0.667286 0
M  V30 8839 C 810.164 1.72574 0.765735 0
M  V30 8840 O 809.521 1.01715 1.51526 0
M  V30 8841 C 809.572 3.48844 -0.948151 0
M  V30 8842 O 809.293 3.71325 -2.32485 0
M  V30 8843 C 810.794 4.38494 -0.651002 0
M  V30 8844 H 808.014 0.623535 -0.247882 0
M  V30 8845 H 810.558 1.56885 -1.31176 0
M  V30 8846 H 808.713 3.85819 -0.349681 0
M  V30 8847 H 809.127 4.65619 -2.41452 0
M  V30 8848 H 810.601 5.44648 -0.897887 0
M  V30 8849 H 811.078 4.37236 0.414922 0
M  V30 8850 H 811.684 4.07127 -1.22995 0
M  V30 8851 N 809.999 0.752036 1.385 0
M  V30 8852 C 811.246 0.307503 2.00152 0
M  V30 8853 C 811.574 -1.11033 1.59693 0
M  V30 8854 O 810.829 -1.77455 0.825125 0
M  V30 8855 C 811.128 0.376155 3.55415 0
M  V30 8856 C 810.794 1.74942 4.15579 0
M  V30 8857 C 809.456 2.12525 4.31725 0
M  V30 8858 C 811.808 2.65031 4.48785 0
M  V30 8859 C 809.136 3.39671 4.78373 0
M  V30 8860 C 811.488 3.91567 4.96848 0
M  V30 8861 C 810.152 4.2922 5.11201 0
M  V30 8862 H 809.422 0.112523 0.732407 0
M  V30 8863 H 812.069 0.962213 1.65571 0
M  V30 8864 H 810.374 -0.362121 3.90123 0
M  V30 8865 H 812.071 0.0138065 4.00998 0
M  V30 8866 H 808.661 1.44726 4.03426 0
M  V30 8867 H 812.845 2.3726 4.35914 0
M  V30 8868 H 808.101 3.68765 4.8767 0
M  V30 8869 H 812.275 4.61517 5.21512 0
M  V30 8870 H 809.902 5.27805 5.47107 0
M  V30 8871 N 811.477 -1.49425 0.500989 0
M  V30 8872 C 812.725 -2.02053 -0.0434495 0
M  V30 8873 C 813.046 -1.38285 -1.37486 0
M  V30 8874 O 812.316 -0.538171 -1.88363 0
M  V30 8875 H 810.896 -0.746757 -0.0190469 0
M  V30 8876 H 813.558 -1.83449 0.658227 0
M  V30 8877 H 812.654 -3.11619 -0.173129 0
M  V30 8878 N 812.955 -0.234822 -1.55841 0
M  V30 8879 C 814.203 0.392483 -1.98252 0
M  V30 8880 C 814.524 1.59344 -1.12404 0
M  V30 8881 O 813.794 1.94834 -0.204055 0
M  V30 8882 H 812.374 0.147999 -0.732192 0
M  V30 8883 H 815.036 -0.330804 -1.92072 0
M  V30 8884 H 814.132 0.709829 -3.03921 0
M  V30 8885 N 814.433 1.57553 0.0384317 0
M  V30 8886 C 815.343 2.09333 1.0591 0
M  V30 8887 C 816.359 1.0299 1.40247 0
M  V30 8888 O 817.535 1.34669 1.49754 0
M  V30 8889 C 814.6 2.55468 2.34386 0
M  V30 8890 C 813.661 3.76254 2.06716 0
M  V30 8891 C 812.894 4.20179 3.29067 0
M  V30 8892 O 813.117 3.637 4.39407 0
M  V30 8893 O 812.051 5.12697 3.15317 0
M  V30 8894 H 815.877 2.96683 0.649087 0
M  V30 8895 H 813.462 1.47211 0.254802 0
M  V30 8896 H 815.344 2.85514 3.09935 0
M  V30 8897 H 814.019 1.71234 2.74701 0
M  V30 8898 H 812.926 3.51241 1.28766 0
M  V30 8899 H 814.259 4.61443 1.71263 0
M  V30 8900 N 815.911 -0.310526 1.54511 0
M  V30 8901 C 817.157 -1.04846 1.73595 0
M  V30 8902 C 817.49 -1.87244 0.515118 0
M  V30 8903 O 816.765 -1.88282 -0.48786 0
M  V30 8904 C 817.048 -1.96237 3.01932 0
M  V30 8905 C 816.901 -1.17082 4.34295 0
M  V30 8906 C 818.22 -2.9556 3.26086 0
M  V30 8907 H 815.339 -0.37976 0.631626 0
M  V30 8908 H 817.981 -0.32394 1.87218 0
M  V30 8909 H 816.131 -2.58015 2.90449 0
M  V30 8910 H 817.803 -0.576643 4.57682 0
M  V30 8911 H 816.046 -0.473336 4.3121 0
M  V30 8912 H 816.717 -1.84257 5.20339 0
M  V30 8913 H 819.193 -2.43908 3.37117 0
M  V30 8914 H 818.069 -3.5668 4.17218 0
M  V30 8915 H 818.33 -3.68715 2.4393 0
M  V30 8916 N 817.389 -1.46805 -0.573248 0
M  V30 8917 C 818.637 -1.52302 -1.32847 0
M  V30 8918 C 818.958 -0.180159 -1.94166 0
M  V30 8919 O 818.228 0.794291 -1.79075 0
M  V30 8920 H 816.808 -0.56097 -0.493276 0
M  V30 8921 H 819.47 -1.82998 -0.670642 0
M  V30 8922 H 818.566 -2.28089 -2.13031 0
M  V30 8923 N 818.867 0.818669 -1.34668 0
M  V30 8924 C 820.114 1.57512 -1.27264 0
M  V30 8925 C 820.442 1.93871 0.156254 0
M  V30 8926 O 819.697 1.60582 1.11857 0
M  V30 8927 C 819.996 2.88245 -2.11304 0
M  V30 8928 C 819.662 2.71159 -3.60255 0
M  V30 8929 C 818.324 2.66207 -4.00858 0
M  V30 8930 C 820.676 2.54538 -4.54819 0
M  V30 8931 C 818.004 2.4256 -5.34211 0
M  V30 8932 C 820.356 2.32421 -5.88356 0
M  V30 8933 C 819.02 2.25884 -6.28118 0
M  V30 8934 H 818.29 0.576378 -0.465692 0
M  V30 8935 H 820.937 0.9469 -1.66451 0
M  V30 8936 H 819.242 3.55381 -1.64958 0
M  V30 8937 H 820.939 3.45869 -2.02919 0
M  V30 8938 H 817.529 2.75856 -3.28027 0
M  V30 8939 H 821.713 2.57384 -4.24343 0
M  V30 8940 H 816.969 2.35959 -5.64033 0
M  V30 8941 H 821.143 2.18548 -6.61218 0
M  V30 8942 H 818.77 2.07322 -7.31383 0
M  V30 8943 N 820.346 1.18468 1.03938 0
M  V30 8944 C 821.294 0.909286 2.14091 0
M  V30 8945 C 822.288 -0.130928 1.68893 0
M  V30 8946 O 823.494 0.0173403 1.79992 0
M  V30 8947 H 819.869 0.27658 0.699291 0
M  V30 8948 H 821.84 1.84514 2.34515 0
M  V30 8949 C 820.589 0.452922 3.44737 0
M  V30 8950 H 819.912 1.24485 3.79926 0
M  V30 8951 H 821.352 0.299238 4.22943 0
M  V30 8952 C 819.811 -0.831435 3.26479 0
M  V30 8953 O 820.341 -1.89535 3.54174 0
M  V30 8954 N 818.547 -0.784545 2.79809 0
M  V30 8955 H 818.094 0.0814746 2.57471 0
M  V30 8956 H 818.052 -1.64431 2.67973 0
M  V30 8957 N 821.824 -1.22873 0.986916 0
M  V30 8958 C 823.073 -1.90772 0.654911 0
M  V30 8959 C 823.386 -1.77768 -0.81595 0
M  V30 8960 O 824.592 -2.40529 -1.25929 0
M  V30 8961 C 823.048 -3.42003 1.12081 0
M  V30 8962 C 822.656 -3.63655 2.61647 0
M  V30 8963 C 824.4 -4.15638 0.862854 0
M  V30 8964 C 822.307 -5.08555 3.01871 0
M  V30 8965 H 821.237 -0.714362 0.241252 0
M  V30 8966 H 823.888 -1.39196 1.19568 0
M  V30 8967 H 822.27 -3.92725 0.508207 0
M  V30 8968 H 823.444 -3.2345 3.28202 0
M  V30 8969 H 821.759 -3.03341 2.8526 0
M  V30 8970 H 824.356 -5.22425 1.13915 0
M  V30 8971 H 824.699 -4.15814 -0.201036 0
M  V30 8972 H 825.232 -3.70924 1.43736 0
M  V30 8973 H 821.971 -5.13514 4.07411 0
M  V30 8974 H 821.491 -5.49684 2.40015 0
M  V30 8975 H 823.17 -5.76936 2.92839 0
M  V30 8976 N 823.302 -0.75937 -1.38099 0
M  V30 8977 C 824.548 -0.318584 -2.00282 0
M  V30 8978 C 824.881 1.09854 -1.60143 0
M  V30 8979 O 824.156 1.75344 -0.841702 0
M  V30 8980 C 824.439 -0.448047 -3.57302 0
M  V30 8981 C 824.292 -1.9067 -4.07388 0
M  V30 8982 C 825.611 0.155119 -4.39827 0
M  V30 8983 H 822.73 -0.117233 -0.727616 0
M  V30 8984 H 825.372 -0.960097 -1.63958 0
M  V30 8985 H 823.522 0.0981003 -3.88376 0
M  V30 8986 H 825.194 -2.5116 -3.86932 0
M  V30 8987 H 823.437 -2.41979 -3.6004 0
M  V30 8988 H 824.108 -1.94841 -5.1647 0
M  V30 8989 H 826.584 -0.31073 -4.14938 0
M  V30 8990 H 825.46 0.0343264 -5.48889 0
M  V30 8991 H 825.721 1.24407 -4.24235 0
M  V30 8992 N 824.78 1.49157 -0.508906 0
M  V30 8993 C 825.727 2.2927 0.265288 0
M  V30 8994 C 826.697 1.3603 0.953162 0
M  V30 8995 O 827.882 1.64989 0.958291 0
M  V30 8996 C 825.022 3.18897 1.31904 0
M  V30 8997 C 824.135 4.27201 0.642144 0
M  V30 8998 C 823.27 5.04033 1.67701 0
M  V30 8999 C 822.309 6.04165 0.982422 0
M  V30 9000 N 821.446 6.74133 1.96186 0
M  V30 9001 H 826.286 2.94967 -0.424107 0
M  V30 9002 H 823.823 1.45431 -0.220991 0
M  V30 9003 H 825.781 3.69242 1.94206 0
M  V30 9004 H 824.411 2.55168 1.97709 0
M  V30 9005 H 823.463 3.80283 -0.0943395 0
M  V30 9006 H 824.775 4.98708 0.0957507 0
M  V30 9007 H 823.929 5.58287 2.37487 0
M  V30 9008 H 822.668 4.32317 2.25728 0
M  V30 9009 H 821.673 5.49135 0.270378 0
M  V30 9010 H 822.898 6.7787 0.408554 0
M  V30 9011 H 820.844 6.05183 2.53159 0
M  V30 9012 H 820.761 7.41643 1.46634 0
M  V30 9013 H 822.029 7.32987 2.65236 0
M  V30 9014 N 826.258 0.243083 1.55714 0
M  V30 9015 C 827.486 -0.386971 2.03249 0
M  V30 9016 C 827.901 -1.51812 1.12243 0
M  V30 9017 O 827.258 -1.81992 0.136119 0
M  V30 9018 C 827.309 -0.898361 3.5016 0
M  V30 9019 O 827.03 0.187708 4.37698 0
M  V30 9020 C 828.531 -1.59949 4.13438 0
M  V30 9021 H 825.751 -0.0923981 0.664608 0
M  V30 9022 H 828.295 0.365832 2.01201 0
M  V30 9023 H 826.45 -1.60136 3.52754 0
M  V30 9024 H 826.864 -0.200001 5.24119 0
M  V30 9025 H 828.338 -1.90907 5.17937 0
M  V30 9026 H 828.815 -2.52014 3.59702 0
M  V30 9027 H 829.421 -0.941163 4.14756 0
M  V30 9028 N 827.736 -1.57571 -0.0300757 0
M  V30 9029 C 828.699 -2.05468 -1.01565 0
M  V30 9030 C 829.699 -0.958628 -1.29101 0
M  V30 9031 O 830.889 -1.22228 -1.24121 0
M  V30 9032 C 828.021 -2.47077 -2.34874 0
M  V30 9033 H 829.214 -2.93797 -0.601936 0
M  V30 9034 H 826.767 -1.53828 -0.276878 0
M  V30 9035 H 827.502 -1.61901 -2.80996 0
M  V30 9036 H 827.287 -3.27097 -2.16218 0
M  V30 9037 H 828.777 -2.84564 -3.05635 0
M  V30 9038 N 829.214 0.302327 -1.54673 0
M  V30 9039 C 830.442 1.05669 -1.77881 0
M  V30 9040 C 830.857 1.80983 -0.537648 0
M  V30 9041 O 830.214 1.7573 0.492467 0
M  V30 9042 C 830.265 2.03828 -2.98557 0
M  V30 9043 O 829.986 1.3157 -4.17877 0
M  V30 9044 C 831.487 2.91314 -3.34143 0
M  V30 9045 H 828.707 0.313436 -0.593295 0
M  V30 9046 H 831.251 0.342003 -2.0162 0
M  V30 9047 H 829.406 2.70801 -2.7703 0
M  V30 9048 H 829.82 1.97481 -4.85903 0
M  V30 9049 H 831.294 3.56042 -4.21827 0
M  V30 9050 H 831.771 3.59544 -2.52239 0
M  V30 9051 H 832.377 2.29874 -3.57824 0
M  V30 9052 N 830.692 1.47107 0.565454 0
M  V30 9053 C 831.622 1.61846 1.68309 0
M  V30 9054 C 832.603 0.468159 1.63531 0
M  V30 9055 O 833.788 0.696504 1.8128 0
M  V30 9056 C 830.918 1.62474 3.06952 0
M  V30 9057 C 829.872 2.76649 3.26572 0
M  V30 9058 C 829.198 2.62345 4.65917 0
M  V30 9059 C 830.498 4.18319 3.12741 0
M  V30 9060 H 832.192 2.55407 1.5623 0
M  V30 9061 H 829.738 1.22916 0.750179 0
M  V30 9062 H 831.691 1.71378 3.84977 0
M  V30 9063 H 830.415 0.654692 3.19971 0
M  V30 9064 H 829.074 2.67242 2.50952 0
M  V30 9065 H 828.722 1.63386 4.75725 0
M  V30 9066 H 828.422 3.38936 4.79996 0
M  V30 9067 H 829.946 2.73165 5.46089 0
M  V30 9068 H 831.36 4.28745 3.80593 0
M  V30 9069 H 829.757 4.95632 3.38333 0
M  V30 9070 H 830.827 4.37263 2.09592 0
M  V30 9071 N 832.17 -0.811516 1.35101 0
M  V30 9072 C 833.117 -1.92308 1.27617 0
M  V30 9073 C 834.087 -1.6543 0.149091 0
M  V30 9074 O 835.272 -1.8789 0.331974 0
M  V30 9075 C 832.412 -3.28768 1.04908 0
M  V30 9076 C 831.525 -3.67865 2.26493 0
M  V30 9077 C 830.66 -4.9333 1.96974 0
M  V30 9078 C 829.699 -5.25041 3.1464 0
M  V30 9079 N 828.836 -6.41685 2.84929 0
M  V30 9080 H 833.676 -1.98041 2.22674 0
M  V30 9081 H 831.213 -0.968755 1.10696 0
M  V30 9082 H 833.171 -4.07426 0.897749 0
M  V30 9083 H 831.801 -3.22517 0.135151 0
M  V30 9084 H 830.853 -2.84507 2.52507 0
M  V30 9085 H 832.165 -3.87263 3.14371 0
M  V30 9086 H 831.319 -5.79803 1.78643 0
M  V30 9087 H 830.058 -4.75958 1.06374 0
M  V30 9088 H 829.063 -4.3706 3.33554 0
M  V30 9089 H 830.288 -5.44346 4.06035 0
M  V30 9090 H 828.234 -6.25747 1.96918 0
M  V30 9091 H 828.151 -6.6131 3.66341 0
M  V30 9092 H 829.419 -7.31198 2.70128 0
M  V30 9093 N 833.648 -1.19017 -1.03309 0
M  V30 9094 C 834.595 -0.924088 -2.11493 0
M  V30 9095 C 835.565 0.139464 -1.65513 0
M  V30 9096 O 836.75 -0.00178761 -1.908 0
M  V30 9097 C 833.89 -0.464255 -3.41963 0
M  V30 9098 C 833.003 -1.5941 -4.01513 0
M  V30 9099 C 832.138 -1.08622 -5.19976 0
M  V30 9100 C 831.177 -2.19024 -5.71572 0
M  V30 9101 N 830.314 -1.69575 -6.81314 0
M  V30 9102 H 835.154 -1.85039 -2.33591 0
M  V30 9103 H 832.691 -0.922593 -1.14572 0
M  V30 9104 H 834.649 -0.179078 -4.16815 0
M  V30 9105 H 833.279 0.425062 -3.19989 0
M  V30 9106 H 832.331 -1.99458 -3.23915 0
M  V30 9107 H 833.643 -2.42604 -4.35826 0
M  V30 9108 H 832.797 -0.756022 -6.01971 0
M  V30 9109 H 831.536 -0.223955 -4.87186 0
M  V30 9110 H 830.541 -2.5288 -4.88193 0
M  V30 9111 H 831.766 -3.05699 -6.06403 0
M  V30 9112 H 829.712 -0.856494 -6.50385 0
M  V30 9113 H 829.629 -2.46361 -7.14732 0
M  V30 9114 H 830.897 -1.39505 -7.66915 0
M  V30 9115 N 835.127 1.22348 -0.993418 0
M  V30 9116 C 836.057 2.26584 -0.564088 0
M  V30 9117 C 837.038 1.65102 0.409298 0
M  V30 9118 O 838.223 1.91872 0.299819 0
M  V30 9119 C 835.353 3.47087 0.121554 0
M  V30 9120 C 834.307 4.21009 -0.770429 0
M  V30 9121 C 833.633 5.34678 0.0481586 0
M  V30 9122 C 834.933 4.79636 -2.06752 0
M  V30 9123 H 836.627 2.62749 -1.43538 0
M  V30 9124 H 834.173 1.26303 -0.691628 0
M  V30 9125 H 836.126 4.19166 0.433303 0
M  V30 9126 H 834.85 3.1002 1.0274 0
M  V30 9127 H 833.509 3.50764 -1.06583 0
M  V30 9128 H 833.157 4.93852 0.954933 0
M  V30 9129 H 832.857 5.85061 -0.545641 0
M  V30 9130 H 834.381 6.09573 0.353991 0
M  V30 9131 H 835.795 5.43654 -1.81969 0
M  V30 9132 H 834.192 5.4036 -2.61019 0
M  V30 9133 H 835.262 3.99659 -2.74592 0
M  V30 9134 N 836.605 0.766683 1.37694 0
M  V30 9135 C 837.851 0.329201 2.0011 0
M  V30 9136 C 838.184 -1.09004 1.60723 0
M  V30 9137 O 837.459 -1.74895 0.850989 0
M  V30 9138 C 837.742 0.466989 3.57059 0
M  V30 9139 C 837.595 1.92828 4.06371 0
M  V30 9140 C 838.914 -0.131792 4.39903 0
M  V30 9141 H 836.033 0.12109 0.726984 0
M  V30 9142 H 838.675 0.968779 1.63446 0
M  V30 9143 H 836.825 -0.0775023 3.88423 0
M  V30 9144 H 838.497 2.53208 3.85595 0
M  V30 9145 H 836.74 2.43884 3.58752 0
M  V30 9146 H 837.411 1.97577 5.15429 0
M  V30 9147 H 839.887 0.332731 4.14768 0
M  V30 9148 H 838.763 -0.005217 5.489 0
M  V30 9149 H 839.024 -1.22156 4.24889 0
M  V30 9150 N 838.083 -1.48885 0.516809 0
M  V30 9151 C 839.323 -2.0439 -0.0202232 0
M  V30 9152 C 839.687 -1.38652 -1.32814 0
M  V30 9153 O 840.888 -1.84968 -1.95039 0
M  V30 9154 C 839.159 -3.57071 -0.153257 0
M  V30 9155 S 840.718 -4.34074 -0.642256 0
M  V30 9156 H 837.536 -0.710977 0.00576322 0
M  V30 9157 H 840.138 -1.82753 0.694376 0
M  V30 9158 H 838.842 -4.02454 0.803695 0
M  V30 9159 H 838.373 -3.83139 -0.892627 0
M  V30 9160 H 840.388 -4.58011 -1.90893 0
M  V30 9161 N 839.561 -0.251338 -1.55583 0
M  V30 9162 C 840.491 0.640437 -2.24545 0
M  V30 9163 C 841.472 1.17781 -1.22726 0
M  V30 9164 O 842.657 1.21633 -1.5139 0
M  V30 9165 C 839.787 1.8355 -2.94834 0
M  V30 9166 C 838.741 1.4307 -4.03379 0
M  V30 9167 C 838.067 2.70695 -4.61116 0
M  V30 9168 C 839.367 0.59848 -5.1886 0
M  V30 9169 H 841.061 0.0653772 -2.99329 0
M  V30 9170 H 838.607 0.0300042 -1.43969 0
M  V30 9171 H 840.56 2.46505 -3.4178 0
M  V30 9172 H 839.284 2.43601 -2.17546 0
M  V30 9173 H 837.943 0.824474 -3.57209 0
M  V30 9174 H 837.591 3.28954 -3.80524 0
M  V30 9175 H 837.291 2.44332 -5.34393 0
M  V30 9176 H 838.815 3.34541 -5.10798 0
M  V30 9177 H 840.229 1.13244 -5.62004 0
M  V30 9178 H 838.626 0.430728 -5.98552 0
M  V30 9179 H 839.696 -0.38829 -4.83343 0
M  V30 9180 N 841.039 1.57585 0.0217189 0
M  V30 9181 C 841.987 2.08134 1.03842 0
M  V30 9182 C 842.981 0.996662 1.36978 0
M  V30 9183 O 844.187 1.18149 1.35797 0
M  V30 9184 H 840.562 0.664298 0.352438 0
M  V30 9185 H 842.533 2.92583 0.58634 0
M  V30 9186 C 841.282 2.58218 2.32849 0
M  V30 9187 H 840.605 3.41302 2.08214 0
M  V30 9188 H 842.045 2.97289 3.02316 0
M  V30 9189 C 840.504 1.48664 3.02325 0
M  V30 9190 O 841.034 0.857075 3.9245 0
M  V30 9191 N 839.24 1.21938 2.63779 0
M  V30 9192 H 838.787 1.73319 1.90574 0
M  V30 9193 H 838.745 0.488523 3.10581 0
M  V30 9194 N 842.517 -0.29412 1.54831 0
M  V30 9195 C 843.745 -1.04724 1.78439 0
M  V30 9196 C 844.16 -1.80695 0.547239 0
M  V30 9197 O 843.517 -1.75989 -0.483141 0
M  V30 9198 C 843.568 -2.02242 2.99634 0
M  V30 9199 O 843.289 -1.29352 4.18568 0
M  V30 9200 C 844.79 -2.89537 3.35683 0
M  V30 9201 H 842.01 -0.310285 0.594949 0
M  V30 9202 H 844.554 -0.331306 2.01798 0
M  V30 9203 H 842.709 -2.69328 2.78462 0
M  V30 9204 H 843.123 -1.94901 4.86943 0
M  V30 9205 H 844.597 -3.538 4.23709 0
M  V30 9206 H 845.074 -3.58201 2.54143 0
M  V30 9207 H 845.68 -2.27973 3.59038 0
M  V30 9208 N 843.995 -1.47404 -0.557645 0
M  V30 9209 C 844.942 -1.59859 -1.66475 0
M  V30 9210 C 845.912 -0.441644 -1.60121 0
M  V30 9211 O 847.097 -0.661641 -1.78961 0
M  V30 9212 C 844.237 -1.61843 -3.04797 0
M  V30 9213 C 843.35 -2.8845 -3.2159 0
M  V30 9214 C 842.485 -2.81773 -4.50308 0
M  V30 9215 C 841.524 -4.03208 -4.60532 0
M  V30 9216 N 840.661 -3.94769 -5.80604 0
M  V30 9217 H 845.501 -2.54415 -1.55168 0
M  V30 9218 H 843.038 -1.26194 -0.755876 0
M  V30 9219 H 844.996 -1.60976 -3.84893 0
M  V30 9220 H 843.626 -0.707997 -3.1494 0
M  V30 9221 H 842.678 -2.99186 -2.34929 0
M  V30 9222 H 843.99 -3.78379 -3.25009 0
M  V30 9223 H 843.144 -2.79153 -5.38663 0
M  V30 9224 H 841.883 -1.89527 -4.49367 0
M  V30 9225 H 840.888 -4.06133 -3.70589 0
M  V30 9226 H 842.113 -4.9658 -4.63233 0
M  V30 9227 H 840.059 -3.05326 -5.80613 0
M  V30 9228 H 839.976 -4.78375 -5.854 0
M  V30 9229 H 841.244 -3.96165 -6.71322 0
M  V30 9230 N 845.473 0.80434 -1.35529 0
M  V30 9231 C 846.701 1.59283 -1.32048 0
M  V30 9232 C 847.116 1.88527 0.101556 0
M  V30 9233 O 846.473 1.48975 1.05417 0
M  V30 9234 C 846.524 2.92276 -2.12737 0
M  V30 9235 O 846.245 2.64299 -3.49396 0
M  V30 9236 C 847.746 3.86631 -2.16867 0
M  V30 9237 H 844.966 0.494523 -0.453528 0
M  V30 9238 H 847.51 0.999415 -1.78415 0
M  V30 9239 H 845.665 3.48125 -1.69964 0
M  V30 9240 H 846.079 3.4923 -3.91329 0
M  V30 9241 H 847.553 4.77053 -2.77712 0
M  V30 9242 H 848.03 4.23384 -1.16803 0
M  V30 9243 H 848.636 3.36717 -2.59811 0
M  V30 9244 N 846.951 1.19563 1.02676 0
M  V30 9245 C 848.191 1.01072 1.77662 0
M  V30 9246 C 848.555 -0.450344 1.86644 0
M  V30 9247 O 849.756 -0.755132 2.57975 0
M  V30 9248 C 848.027 1.66383 3.16309 0
M  V30 9249 S 849.586 1.62858 4.07459 0
M  V30 9250 H 846.404 0.362644 0.611564 0
M  V30 9251 H 849.006 1.51947 1.23014 0
M  V30 9252 H 847.71 2.71917 3.07391 0
M  V30 9253 H 847.241 1.15596 3.76033 0
M  V30 9254 H 849.256 0.654265 4.91868 0
M  V30 9255 N 848.429 -1.21819 0.999893 0
M  V30 9256 C 849.84 -1.72517 0.713775 0
M  V30 9257 C 850.191 -1.80505 -0.768922 0
M  V30 9258 O 849.316 -1.45611 -1.60083 0
M  V30 9259 C 849.911 -3.13321 1.28901 0
M  V30 9260 C 848.47 -3.61396 1.05212 0
M  V30 9261 C 847.617 -2.39074 1.40494 0
M  V30 9262 H 850.568 -1.07068 1.17141 0
M  V30 9263 H 850.589 -3.74535 0.671084 0
M  V30 9264 H 850.101 -3.07475 2.36814 0
M  V30 9265 H 848.202 -3.72599 -0.0100732 0
M  V30 9266 H 848.315 -4.47145 1.72042 0
M  V30 9267 H 846.679 -2.41015 0.823642 0
M  V30 9268 H 847.462 -2.35884 2.49427 0
M  V30 9269 N 849.908 -0.773975 -1.37286 0
M  V30 9270 C 851.138 -0.350249 -2.03609 0
M  V30 9271 C 851.546 1.03313 -1.58502 0
M  V30 9272 O 850.889 1.67118 -0.7627 0
M  V30 9273 C 850.951 -0.317215 -3.58098 0
M  V30 9274 C 850.615 -1.64556 -4.26345 0
M  V30 9275 C 851.612 -2.59839 -4.50311 0
M  V30 9276 C 849.297 -1.92061 -4.64131 0
M  V30 9277 C 851.291 -3.80833 -5.11122 0
M  V30 9278 C 848.978 -3.13325 -5.24663 0
M  V30 9279 C 849.976 -4.0753 -5.48095 0
M  V30 9280 O 849.664 -5.26658 -6.0736 0
M  V30 9281 H 849.396 -0.144456 -0.660385 0
M  V30 9282 H 851.95 -1.0496 -1.76557 0
M  V30 9283 H 850.18 0.438528 -3.84205 0
M  V30 9284 H 851.869 0.0797428 -4.05822 0
M  V30 9285 H 852.635 -2.39872 -4.21529 0
M  V30 9286 H 848.514 -1.19562 -4.45226 0
M  V30 9287 H 852.058 -4.54377 -5.29327 0
M  V30 9288 H 847.955 -3.33177 -5.52869 0
M  V30 9289 H 848.723 -5.27513 -6.25837 0
M  V30 9290 N 851.386 1.48609 -0.524698 0
M  V30 9291 C 852.632 2.02797 0.0113382 0
M  V30 9292 C 852.965 1.40147 1.34433 0
M  V30 9293 O 852.24 0.545368 1.86698 0
M  V30 9294 C 852.523 3.59832 0.138931 0
M  V30 9295 C 852.376 4.32971 -1.21886 0
M  V30 9296 C 853.695 4.3145 0.868265 0
M  V30 9297 H 850.814 0.736995 0.00264645 0
M  V30 9298 H 853.456 1.77388 -0.680704 0
M  V30 9299 H 851.606 3.81612 0.72834 0
M  V30 9300 H 853.278 4.22624 -1.84897 0
M  V30 9301 H 851.521 3.94597 -1.80211 0
M  V30 9302 H 852.192 5.41279 -1.08263 0
M  V30 9303 H 854.668 4.14468 0.368145 0
M  V30 9304 H 853.544 5.41025 0.926428 0
M  V30 9305 H 853.805 3.98358 1.91737 0
M  V30 9306 N 852.864 0.259585 1.55447 0
M  V30 9307 C 854.089 -0.368317 2.04103 0
M  V30 9308 C 854.514 -1.49827 1.13725 0
M  V30 9309 O 853.872 -1.80814 0.132705 0
M  V30 9310 C 853.92 -0.841506 3.50644 0
M  V30 9311 O 853.024 -1.95008 3.63381 0
M  V30 9312 H 852.365 -0.0785227 0.659341 0
M  V30 9313 H 854.895 0.389349 2.00861 0
M  V30 9314 H 854.905 -1.14138 3.9171 0
M  V30 9315 H 853.58 -0.0147001 4.15897 0
M  V30 9316 H 852.157 -1.65393 3.34215 0
M  V30 9317 N 854.342 -1.57594 -0.0133615 0
M  V30 9318 C 855.589 -1.8998 -0.70098 0
M  V30 9319 C 855.917 -0.858802 -1.74513 0
M  V30 9320 O 855.172 0.138209 -1.95211 0
M  V30 9321 C 855.471 -3.29121 -1.39336 0
M  V30 9322 C 855.137 -4.48298 -0.483687 0
M  V30 9323 C 853.799 -4.80635 -0.233186 0
M  V30 9324 C 856.151 -5.21003 0.143426 0
M  V30 9325 C 853.479 -5.83055 0.652943 0
M  V30 9326 C 855.831 -6.24366 1.01735 0
M  V30 9327 C 854.495 -6.55168 1.27716 0
M  V30 9328 H 853.765 -0.695187 -0.256507 0
M  V30 9329 H 856.412 -1.9146 0.0392965 0
M  V30 9330 H 854.717 -3.23703 -2.20735 0
M  V30 9331 H 856.414 -3.51433 -1.93121 0
M  V30 9332 H 853.004 -4.23024 -0.689092 0
M  V30 9333 H 857.188 -4.96286 -0.0371139 0
M  V30 9334 H 852.444 -6.05288 0.862379 0
M  V30 9335 H 856.618 -6.79839 1.5097 0
M  V30 9336 H 854.245 -7.34351 1.9655 0
M  V30 9337 N 855.82 0.285905 -1.54985 0
M  V30 9338 C 857.236 0.632405 -1.46536 0
M  V30 9339 C 857.436 1.90074 -0.668888 0
M  V30 9340 O 856.492 2.51839 -0.182586 0
M  V30 9341 C 857.805 0.771361 -2.90638 0
M  V30 9342 C 859.353 0.866262 -3.00774 0
M  V30 9343 C 859.828 1.0371 -4.46103 0
M  V30 9344 N 861.319 1.10294 -4.49877 0
M  V30 9345 C 862.054 1.25369 -5.59527 0
M  V30 9346 N 861.55 1.37246 -6.7907 0
M  V30 9347 N 863.343 1.28377 -5.47244 0
M  V30 9348 H 855.494 -0.547226 -2.0523 0
M  V30 9349 H 857.757 -0.183298 -0.930111 0
M  V30 9350 H 857.463 -0.0899485 -3.51585 0
M  V30 9351 H 857.337 1.65569 -3.3892 0
M  V30 9352 H 859.724 1.71805 -2.39931 0
M  V30 9353 H 859.805 -0.0424049 -2.55765 0
M  V30 9354 H 859.449 0.190021 -5.07544 0
M  V30 9355 H 859.379 1.96022 -4.88757 0
M  V30 9356 H 861.87 1.02407 -3.6376 0
M  V30 9357 H 862.183 1.48546 -7.58389 0
M  V30 9358 H 860.528 1.34274 -6.81906 0
M  V30 9359 H 863.719 1.1872 -4.52795 0
M  V30 9360 H 863.892 1.39782 -6.32744 0
M  V30 9361 N 857.298 1.47698 0.54982 0
M  V30 9362 C 858.544 1.54931 1.30859 0
M  V30 9363 C 858.877 0.214021 1.93017 0
M  V30 9364 O 858.152 -0.778093 1.78258 0
M  V30 9365 C 858.435 2.67286 2.41309 0
M  V30 9366 C 858.288 4.10457 1.83971 0
M  V30 9367 C 859.607 2.75509 3.43195 0
M  V30 9368 H 856.726 0.56399 0.474431 0
M  V30 9369 H 859.368 1.79787 0.614541 0
M  V30 9370 H 857.518 2.46224 3.0051 0
M  V30 9371 H 859.19 4.42903 1.28974 0
M  V30 9372 H 857.433 4.18387 1.14606 0
M  V30 9373 H 858.104 4.84857 2.63851 0
M  V30 9374 H 860.58 2.94531 2.93923 0
M  V30 9375 H 859.456 3.55886 4.17895 0
M  V30 9376 H 859.717 1.82863 4.02509 0
M  V30 9377 N 858.776 -0.797141 1.35954 0
M  V30 9378 C 860.187 -1.37179 1.26644 0
M  V30 9379 C 860.538 -1.9596 -0.0971046 0
M  V30 9380 O 859.663 -1.91994 -0.998355 0
M  V30 9381 C 860.258 -2.49395 2.2932 0
M  V30 9382 C 858.817 -3.02697 2.23722 0
M  V30 9383 C 857.964 -1.75721 2.14517 0
M  V30 9384 H 860.915 -0.599407 1.46945 0
M  V30 9385 H 860.936 -3.28204 1.92515 0
M  V30 9386 H 860.448 -2.06584 3.2855 0
M  V30 9387 H 858.549 -3.49948 1.27934 0
M  V30 9388 H 858.662 -3.60036 3.16087 0
M  V30 9389 H 857.026 -1.97649 1.60646 0
M  V30 9390 H 857.809 -1.35049 3.15621 0
M  V30 9391 N 860.254 -1.20106 -1.0204 0
M  V30 9392 C 861.531 -0.918029 -1.72718 0
M  V30 9393 C 861.911 0.574163 -2.03142 0
M  V30 9394 O 861.259 1.53476 -1.69285 0
M  V30 9395 C 861.469 -1.78698 -2.9978 0
M  V30 9396 C 862.817 -2.02648 -3.7312 0
M  V30 9397 O 863.841 -1.75919 -3.09727 0
M  V30 9398 O 862.7 -2.47767 -4.87107 0
M  V30 9399 H 859.794 -0.342904 -0.752559 0
M  V30 9400 H 862.34 -1.30961 -1.07923 0
M  V30 9401 H 861.112 -2.79757 -2.7359 0
M  V30 9402 H 860.735 -1.39522 -3.72316 0
M  V30 9403 N 861.732 1.21287 -1.00634 0
M  V30 9404 C 862.695 2.21927 -0.572821 0
M  V30 9405 C 863.695 1.5691 0.351541 0
M  V30 9406 O 864.885 1.73623 0.141643 0
M  V30 9407 C 862.017 3.40501 0.164932 0
M  V30 9408 H 863.21 2.61795 -1.463 0
M  V30 9409 H 860.763 1.34571 -0.794998 0
M  V30 9410 H 861.498 3.06123 1.07049 0
M  V30 9411 H 861.283 3.88912 -0.498962 0
M  V30 9412 H 862.773 4.15103 0.455945 0
M  V30 9413 N 863.21 0.781244 1.36873 0
M  V30 9414 C 864.435 0.360398 2.04245 0
M  V30 9415 C 864.86 -1.01242 1.58529 0
M  V30 9416 O 864.218 -1.65063 0.749936 0
M  V30 9417 C 864.266 0.42329 3.58107 0
M  V30 9418 O 863.37 -0.572796 4.08403 0
M  V30 9419 H 862.711 0.154386 0.645803 0
M  V30 9420 H 865.241 1.06008 1.74996 0
M  V30 9421 H 865.251 0.283967 4.07011 0
M  V30 9422 H 863.926 1.42477 3.90734 0
M  V30 9423 H 862.503 -0.395809 3.70793 0
M  V30 9424 N 864.689 -1.48329 0.532571 0
M  V30 9425 C 865.621 -2.27652 -0.265931 0
M  V30 9426 C 866.634 -1.35522 -0.902083 0
M  V30 9427 O 867.823 -1.60552 -0.780088 0
M  V30 9428 C 864.923 -3.0899 -1.39207 0
M  V30 9429 C 864.096 -4.28915 -0.857349 0
M  V30 9430 C 863.155 -4.92044 -1.86493 0
M  V30 9431 O 862.181 -5.51181 -1.42084 0
M  V30 9432 N 863.383 -4.84518 -3.19723 0
M  V30 9433 H 866.148 -2.96821 0.414389 0
M  V30 9434 H 863.709 -1.57684 0.367066 0
M  V30 9435 H 865.701 -3.48091 -2.06433 0
M  V30 9436 H 864.271 -2.42224 -1.97601 0
M  V30 9437 H 863.491 -3.94199 -0.00901765 0
M  V30 9438 H 864.779 -5.0654 -0.479025 0
M  V30 9439 H 864.177 -4.37628 -3.58467 0
M  V30 9440 H 862.734 -5.27712 -3.82575 0
M  V30 9441 N 866.167 -0.267825 -1.55308 0
M  V30 9442 C 867.444 0.402449 -1.91415 0
M  V30 9443 C 867.824 1.7428 -1.1912 0
M  V30 9444 O 867.172 2.2631 -0.315609 0
M  V30 9445 C 867.382 0.549926 -3.4464 0
M  V30 9446 C 868.73 0.836188 -4.16285 0
M  V30 9447 O 869.754 0.635009 -3.50494 0
M  V30 9448 O 868.613 1.22051 -5.32697 0
M  V30 9449 H 865.707 0.219177 -0.797427 0
M  V30 9450 H 868.253 -0.313439 -1.6678 0
M  V30 9451 H 867.025 -0.393641 -3.89315 0
M  V30 9452 H 866.648 1.31556 -3.75205 0
M  V30 9453 N 867.645 1.57599 0.00500368 0
M  V30 9454 C 868.922 1.81561 0.727654 0
M  V30 9455 C 869.302 0.871604 1.92266 0
M  V30 9456 O 868.65 -0.0808232 2.28357 0
M  V30 9457 C 868.86 3.29922 1.13809 0
M  V30 9458 C 870.208 3.95531 1.54403 0
M  V30 9459 O 871.232 3.34215 1.23202 0
M  V30 9460 O 870.091 5.03535 2.12402 0
M  V30 9461 H 867.185 0.747462 0.353878 0
M  V30 9462 H 869.731 1.69688 -0.0200667 0
M  V30 9463 H 868.503 3.90253 0.286078 0
M  V30 9464 H 868.126 3.46775 1.94507 0
M  V30 9465 N 869.123 -0.277682 1.55134 0
M  V30 9466 C 870.371 -1.00791 1.75173 0
M  V30 9467 C 870.692 -1.86987 0.553266 0
M  V30 9468 O 869.962 -1.91079 -0.43195 0
M  V30 9469 H 868.542 -0.375129 0.645978 0
M  V30 9470 H 871.204 -0.303041 1.9253 0
M  V30 9471 H 870.3 -1.64756 2.6507 0
M  V30 9472 N 870.601 -1.47988 -0.541979 0
M  V30 9473 C 872.012 -1.49073 -1.12402 0
M  V30 9474 C 872.363 -0.253825 -1.94551 0
M  V30 9475 O 871.488 0.640056 -2.06718 0
M  V30 9476 C 872.083 -2.7011 -2.04514 0
M  V30 9477 C 870.642 -2.74105 -2.5796 0
M  V30 9478 C 869.789 -2.42409 -1.3466 0
M  V30 9479 H 872.74 -1.55277 -0.327818 0
M  V30 9480 H 872.761 -2.47946 -2.88623 0
M  V30 9481 H 872.273 -3.60117 -1.44697 0
M  V30 9482 H 870.374 -1.88276 -3.21532 0
M  V30 9483 H 870.487 -3.75213 -2.97913 0
M  V30 9484 H 868.851 -1.9331 -1.65841 0
M  V30 9485 H 869.634 -3.34642 -0.766133 0
M  V30 9486 N 872.079 0.78992 -1.36375 0
M  V30 9487 C 873.042 1.88414 -1.30509 0
M  V30 9488 C 874.042 1.59384 -0.2129 0
M  V30 9489 O 875.232 1.67805 -0.467651 0
M  V30 9490 C 872.364 3.25188 -1.02302 0
M  V30 9491 H 873.557 1.95031 -2.27822 0
M  V30 9492 H 871.11 0.987664 -1.2114 0
M  V30 9493 H 871.845 3.24254 -0.0544486 0
M  V30 9494 H 871.63 3.47647 -1.81338 0
M  V30 9495 H 873.12 4.05252 -1.00801 0
M  V30 9496 N 873.557 1.20646 1.01402 0
M  V30 9497 C 874.803 1.0197 1.753 0
M  V30 9498 C 875.136 -0.446803 1.8899 0
M  V30 9499 O 874.411 -1.33169 1.41762 0
M  V30 9500 C 874.694 1.70693 3.17074 0
M  V30 9501 C 874.547 3.24805 3.11162 0
M  V30 9502 C 875.866 1.44212 4.15802 0
M  V30 9503 H 872.985 0.371844 0.636318 0
M  V30 9504 H 875.627 1.48696 1.18277 0
M  V30 9505 H 873.777 1.30968 3.65759 0
M  V30 9506 H 875.449 3.73841 2.70261 0
M  V30 9507 H 873.692 3.55576 2.48492 0
M  V30 9508 H 874.363 3.68049 4.11393 0
M  V30 9509 H 876.839 1.7868 3.75783 0
M  V30 9510 H 875.715 1.94825 5.13161 0
M  V30 9511 H 875.976 0.370252 4.40547 0
M  V30 9512 N 875.035 -1.20752 1.01276 0
M  V30 9513 C 875.945 -2.27079 0.589277 0
M  V30 9514 C 876.961 -1.6999 -0.371389 0
M  V30 9515 O 878.137 -2.00044 -0.233294 0
M  V30 9516 C 875.202 -3.4663 -0.0696715 0
M  V30 9517 C 874.263 -4.18962 0.936454 0
M  V30 9518 C 873.496 -5.32806 0.308856 0
M  V30 9519 O 873.719 -5.63376 -0.8924 0
M  V30 9520 O 872.653 -5.93131 1.02367 0
M  V30 9521 H 876.479 -2.6551 1.47438 0
M  V30 9522 H 874.064 -1.27297 0.782045 0
M  V30 9523 H 875.946 -4.19119 -0.437873 0
M  V30 9524 H 874.621 -3.10082 -0.929029 0
M  V30 9525 H 873.528 -3.48661 1.35595 0
M  V30 9526 H 874.861 -4.59441 1.76565 0
M  V30 9527 N 876.513 -0.788492 -1.36457 0
M  V30 9528 C 877.929 -0.470063 -1.52521 0
M  V30 9529 C 878.129 1.01176 -1.74258 0
M  V30 9530 O 877.185 1.79726 -1.77355 0
M  V30 9531 C 878.498 -1.2997 -2.71161 0
M  V30 9532 C 880.046 -1.2933 -2.85031 0
M  V30 9533 C 880.521 -2.10665 -4.06674 0
M  V30 9534 N 882.012 -2.08107 -4.13819 0
M  V30 9535 C 882.747 -2.6781 -5.07016 0
M  V30 9536 N 882.243 -3.36369 -6.05663 0
M  V30 9537 N 884.036 -2.57549 -4.99625 0
M  V30 9538 H 876.187 -1.7484 -1.20602 0
M  V30 9539 H 878.45 -0.743159 -0.588574 0
M  V30 9540 H 878.156 -2.35051 -2.61618 0
M  V30 9541 H 878.03 -0.940367 -3.6529 0
M  V30 9542 H 880.417 -0.250414 -2.94036 0
M  V30 9543 H 880.498 -1.69239 -1.91812 0
M  V30 9544 H 880.142 -3.14984 -3.98431 0
M  V30 9545 H 880.072 -1.68128 -4.9904 0
M  V30 9546 H 882.563 -1.58208 -3.43189 0
M  V30 9547 H 882.876 -3.79258 -6.73338 0
M  V30 9548 H 881.221 -3.40471 -6.05891 0
M  V30 9549 H 884.412 -2.0359 -4.21508 0
M  V30 9550 H 884.585 -3.0437 -5.72069 0
M  V30 9551 N 877.991 1.48044 -0.54043 0
M  V30 9552 C 879.402 1.86418 -0.102662 0
M  V30 9553 C 879.753 1.4489 1.32293 0
M  V30 9554 O 878.878 0.844319 1.99249 0
M  V30 9555 C 879.473 3.38324 -0.179533 0
M  V30 9556 C 878.032 3.75852 0.203098 0
M  V30 9557 C 877.179 2.72097 -0.534637 0
M  V30 9558 H 880.13 1.398 -0.751103 0
M  V30 9559 H 880.151 3.75641 0.606147 0
M  V30 9560 H 879.663 3.68518 -1.21721 0
M  V30 9561 H 877.764 3.51272 1.24252 0
M  V30 9562 H 877.877 4.78884 -0.143784 0
M  V30 9563 H 876.241 2.54692 0.0203358 0
M  V30 9564 H 877.024 3.05135 -1.57314 0
M  V30 9565 N 879.47 0.276058 1.55163 0
M  V30 9566 C 880.695 -0.346648 2.04483 0
M  V30 9567 C 881.12 -1.48613 1.15308 0
M  V30 9568 O 880.478 -1.80663 0.151875 0
M  V30 9569 C 880.526 -0.804268 3.51517 0
M  V30 9570 O 879.63 -1.91143 3.65429 0
M  V30 9571 H 878.971 -0.0715251 0.660136 0
M  V30 9572 H 881.501 0.410631 2.00437 0
M  V30 9573 H 881.511 -1.09977 3.92898 0
M  V30 9574 H 880.186 0.0294123 4.1589 0
M  V30 9575 H 878.763 -1.61839 3.3595 0
M  V30 9576 N 880.948 -1.576 0.00335426 0
M  V30 9577 C 882.176 -1.94996 -0.691685 0
M  V30 9578 C 882.591 -0.878405 -1.67121 0
M  V30 9579 O 881.948 0.142343 -1.81944 0
M  V30 9580 C 881.999 -3.32416 -1.42063 0
M  V30 9581 O 881.72 -4.35458 -0.48038 0
M  V30 9582 C 883.221 -3.84291 -2.20987 0
M  V30 9583 H 880.441 -0.642814 -0.192434 0
M  V30 9584 H 882.985 -2.04425 0.0554706 0
M  V30 9585 H 881.14 -3.24285 -2.11939 0
M  V30 9586 H 881.554 -5.14975 -0.995054 0
M  V30 9587 H 883.028 -4.82863 -2.67483 0
M  V30 9588 H 883.505 -3.17174 -3.03805 0
M  V30 9589 H 884.111 -3.95609 -1.56121 0
M  V30 9590 N 882.426 0.269451 -1.5528 0
M  V30 9591 C 883.336 1.35511 -1.91505 0
M  V30 9592 C 884.352 1.53854 -0.812712 0
M  V30 9593 O 885.528 1.67912 -1.1121 0
M  V30 9594 C 882.593 2.6937 -2.18267 0
M  V30 9595 C 881.654 2.59743 -3.41807 0
M  V30 9596 C 880.887 3.87219 -3.67283 0
M  V30 9597 O 881.11 4.88066 -2.95208 0
M  V30 9598 O 880.044 3.87209 -4.60818 0
M  V30 9599 H 883.87 1.07785 -2.8393 0
M  V30 9600 H 881.455 0.468282 -1.41871 0
M  V30 9601 H 883.337 3.48513 -2.36889 0
M  V30 9602 H 882.012 2.96874 -1.29024 0
M  V30 9603 H 880.919 1.78964 -3.28516 0
M  V30 9604 H 882.252 2.37188 -4.3128 0
M  V30 9605 N 883.904 1.48273 0.534124 0
M  V30 9606 C 884.834 1.6538 1.64839 0
M  V30 9607 C 885.815 0.502741 1.62501 0
M  V30 9608 O 887 0.734799 1.79762 0
M  V30 9609 C 884.13 1.68949 3.03436 0
M  V30 9610 C 883.084 2.83513 3.20631 0
M  V30 9611 C 882.41 2.72169 4.60248 0
M  V30 9612 C 883.71 4.24858 3.03797 0
M  V30 9613 H 885.404 2.58663 1.50777 0
M  V30 9614 H 882.95 1.24479 0.723937 0
M  V30 9615 H 884.903 1.79505 3.81256 0
M  V30 9616 H 883.627 0.722415 3.1851 0
M  V30 9617 H 882.286 2.72505 2.45227 0
M  V30 9618 H 881.934 1.7344 4.72152 0
M  V30 9619 H 881.634 3.49042 4.72698 0
M  V30 9620 H 883.158 2.84687 5.40172 0
M  V30 9621 H 884.572 4.36721 3.71413 0
M  V30 9622 H 882.969 5.02697 3.27743 0
M  V30 9623 H 884.039 4.41611 2.0027 0
M  V30 9624 O 885.421 -0.679058 1.4653 0
M  V30 9625 H 886.112 -1.33158 1.40672 0
M  V30 END ATOM
M  V30 BEGIN BOND
M  V30 END BOND
M  V30 END CTAB
M  END
$$$$
