drugbank_target|P43490 Nicotinamide phosphoribosyltransferase (DB05217; DB12731)
 OpenBabel12092120143D

  0  0  0     0  0            999 V3000
M  V30 BEGIN CTAB
M  V30 COUNTS 7833 7925 0 0 0
M  V30 BEGIN ATOM
M  V30 1 H -0.908 1.98254 -0.117106 0
M  V30 2 N 0 1.576 0 0
M  V30 3 C 0.933 2.03868 1.02534 0
M  V30 4 C 1.911 0.928543 1.3348 0
M  V30 5 O 3.095 1.19667 1.45644 0
M  V30 6 C 0.222 2.43627 2.35294 0
M  V30 7 C -0.732 3.65373 2.2001 0
M  V30 8 S 0.101 5.13292 1.52614 0
M  V30 9 C 1.257 5.56322 2.86805 0
M  V30 10 H 1.49 2.90518 0.631377 0
M  V30 11 H -0.977 1.52953 0.210867 0
M  V30 12 H 0.981 2.67203 3.11629 0
M  V30 13 H -0.358 1.57376 2.7183 0
M  V30 14 H -1.165 3.90944 3.18086 0
M  V30 15 H -1.563 3.418 1.51819 0
M  V30 16 H 0.729 5.58782 3.83104 0
M  V30 17 H 1.672 6.56266 2.65933 0
M  V30 18 H 2.08 4.83886 2.90714 0
M  V30 19 N 1.4781 -0.272755 1.55222 0
M  V30 20 C 2.4261 -1.35705 1.88909 0
M  V30 21 C 3.4201 -1.5112 0.765456 0
M  V30 22 O 4.6261 -1.52901 0.949802 0
M  V30 23 H 1.0011 -0.453868 0.59959 0
M  V30 24 H 2.9721 -1.04544 2.79487 0
M  V30 25 C 1.7211 -2.71049 2.17779 0
M  V30 26 H 1.0441 -2.59979 3.03728 0
M  V30 27 H 2.4841 -3.45858 2.45272 0
M  V30 28 C 0.9431 -3.22165 0.985473 0
M  V30 29 O 1.4731 -4.01096 0.220233 0
M  V30 30 N -0.3209 -2.7985 0.783108 0
M  V30 31 H -0.7739 -2.15775 1.40708 0
M  V30 32 H -0.8159 -3.14397 -0.0130392 0
M  V30 33 N 2.9562 -1.48159 -0.537278 0
M  V30 34 C 4.3672 -1.49429 -1.11928 0
M  V30 35 C 4.7182 -0.26 -1.9447 0
M  V30 36 O 3.8432 0.633489 -2.0692 0
M  V30 37 C 4.4382 -2.70758 -2.03656 0
M  V30 38 C 2.9972 -2.74923 -2.57088 0
M  V30 39 C 2.1442 -2.42835 -1.3389 0
M  V30 40 H 5.0952 -1.55381 -0.322886 0
M  V30 41 H 5.1162 -2.48861 -2.87834 0
M  V30 42 H 4.6282 -3.60575 -1.43553 0
M  V30 43 H 2.7292 -1.89296 -3.20933 0
M  V30 44 H 2.8422 -3.76157 -2.9672 0
M  V30 45 H 1.2062 -1.93836 -1.65226 0
M  V30 46 H 1.9892 -3.34884 -0.755504 0
M  V30 47 N 4.4343 0.785586 -1.36625 0
M  V30 48 C 5.3973 1.87999 -1.31107 0
M  V30 49 C 6.3973 1.59316 -0.217959 0
M  V30 50 O 7.5873 1.67656 -0.472977 0
M  V30 51 C 4.7193 3.24861 -1.03334 0
M  V30 52 H 5.9123 1.94307 -2.2844 0
M  V30 53 H 3.4653 0.983813 -1.21453 0
M  V30 54 H 4.2003 3.24235 -0.0647432 0
M  V30 55 H 3.9853 3.4707 -1.82441 0
M  V30 56 H 5.4753 4.04929 -1.02088 0
M  V30 57 N 5.9124 1.20967 1.01018 0
M  V30 58 C 6.8754 0.965918 2.07853 0
M  V30 59 C 7.8754 -0.0610545 1.60684 0
M  V30 60 O 9.0654 0.175681 1.73312 0
M  V30 61 C 6.1974 0.455513 3.37843 0
M  V30 62 H 7.3904 1.91365 2.3091 0
M  V30 63 H 4.9434 1.02594 1.17916 0
M  V30 64 H 5.6784 -0.497381 3.20463 0
M  V30 65 H 5.4634 1.19622 3.73407 0
M  V30 66 H 6.9534 0.304667 4.16487 0
M  V30 67 N 7.3905 -1.2043 1.01659 0
M  V30 68 C 8.3005 -2.2689 0.596484 0
M  V30 69 C 9.3165 -1.70107 -0.36599 0
M  V30 70 O 10.4925 -2.00117 -0.226942 0
M  V30 71 C 7.5575 -3.4665 -0.0586659 0
M  V30 72 C 6.6185 -4.18662 0.949751 0
M  V30 73 C 5.8515 -5.32705 0.32577 0
M  V30 74 O 6.0745 -5.63656 -0.874509 0
M  V30 75 O 5.0085 -5.92803 1.04249 0
M  V30 76 H 8.8345 -2.65041 1.4828 0
M  V30 77 H 6.4195 -1.27048 0.786082 0
M  V30 78 H 8.3015 -4.19256 -0.424564 0
M  V30 79 H 6.9765 -3.10375 -0.91918 0
M  V30 80 H 5.8835 -3.48229 1.36702 0
M  V30 81 H 7.2165 -4.58878 1.78023 0
M  V30 82 N 8.8686 -0.792821 -1.36206 0
M  V30 83 C 9.8316 -0.199459 -2.2833 0
M  V30 84 C 10.8316 0.605189 -1.48977 0
M  V30 85 O 12.0216 0.425685 -1.68919 0
M  V30 86 C 9.1536 0.723523 -3.33134 0
M  V30 87 H 10.3466 -1.01181 -2.82316 0
M  V30 88 H 7.8996 -0.562485 -1.45828 0
M  V30 89 H 8.6346 1.56008 -2.84309 0
M  V30 90 H 8.4196 0.148436 -3.91819 0
M  V30 91 H 9.9096 1.13344 -4.01924 0
M  V30 92 N 10.3467 1.47872 -0.545128 0
M  V30 93 C 11.2567 2.33633 0.212746 0
M  V30 94 C 12.2727 1.4744 0.923983 0
M  V30 95 O 13.4487 1.80393 0.895572 0
M  V30 96 C 10.5137 3.23884 1.23693 0
M  V30 97 C 9.5747 4.25961 0.534417 0
M  V30 98 C 8.8077 5.11899 1.5098 0
M  V30 99 O 9.0307 5.00077 2.7437 0
M  V30 100 O 7.9647 5.92831 1.0409 0
M  V30 101 H 11.7907 2.99714 -0.490416 0
M  V30 102 H 9.3757 1.46235 -0.305871 0
M  V30 103 H 11.2577 3.79666 1.82843 0
M  V30 104 H 9.9327 2.60446 1.92222 0
M  V30 105 H 8.8397 3.73972 -0.0979679 0
M  V30 106 H 10.1727 4.92079 -0.109213 0
M  V30 107 N 11.8248 0.280983 1.55075 0
M  V30 108 C 13.0718 -0.334115 1.99725 0
M  V30 109 C 13.3998 -1.5542 1.1694 0
M  V30 110 O 12.6548 -1.94361 0.228531 0
M  V30 111 C 12.9538 -0.754656 3.49342 0
M  V30 112 C 12.6198 0.361445 4.49449 0
M  V30 113 C 11.2818 0.667893 4.76542 0
M  V30 114 C 13.6338 1.11322 5.09173 0
M  V30 115 C 10.9618 1.7296 5.60626 0
M  V30 116 C 13.3138 2.1647 5.9441 0
M  V30 117 C 11.9778 2.47742 6.19822 0
M  V30 118 H 11.2478 -0.122261 0.730844 0
M  V30 119 H 13.8948 0.395917 1.87363 0
M  V30 120 H 12.1998 -1.56446 3.5921 0
M  V30 121 H 13.8968 -1.24142 3.813 0
M  V30 122 H 10.4868 0.112481 4.28452 0
M  V30 123 H 14.6708 0.88973 4.8826 0
M  V30 124 H 9.9268 1.97684 5.78559 0
M  V30 125 H 14.1008 2.75193 6.3972 0
M  V30 126 H 11.7278 3.30145 6.84769 0
M  V30 127 N 13.3029 -1.57598 0.00835791 0
M  V30 128 C 14.2509 -2.10078 -0.998508 0
M  V30 129 C 15.2449 -1.02262 -1.35051 0
M  V30 130 O 16.4509 -1.20719 -1.33518 0
M  V30 131 H 12.8259 -0.670903 -0.339696 0
M  V30 132 H 14.7969 -2.93648 -0.530398 0
M  V30 133 C 13.5459 -2.62615 -2.27879 0
M  V30 134 H 12.8689 -3.45213 -2.01662 0
M  V30 135 H 14.3089 -3.03004 -2.96588 0
M  V30 136 C 12.7679 -1.54407 -2.99433 0
M  V30 137 O 13.2979 -0.931812 -3.90743 0
M  V30 138 N 11.5039 -1.2695 -2.61404 0
M  V30 139 H 11.0509 -1.76924 -1.87232 0
M  V30 140 H 11.0089 -0.547704 -3.09593 0
M  V30 141 N 14.781 0.264519 -1.55364 0
M  V30 142 C 16.03 0.992812 -1.75574 0
M  V30 143 C 16.343 1.87142 -0.568979 0
M  V30 144 O 17.549 2.63513 -0.653682 0
M  V30 145 C 16.005 1.81519 -3.10771 0
M  V30 146 C 15.613 0.984839 -4.37041 0
M  V30 147 C 17.357 2.53727 -3.40327 0
M  V30 148 C 15.264 1.80209 -5.63275 0
M  V30 149 H 14.194 0.374412 -0.65447 0
M  V30 150 H 16.845 0.248138 -1.81815 0
M  V30 151 H 15.227 2.60115 -2.98591 0
M  V30 152 H 16.401 0.242455 -4.60162 0
M  V30 153 H 14.716 0.37691 -4.14691 0
M  V30 154 H 17.313 3.15292 -4.3185 0
M  V30 155 H 17.656 3.24447 -2.60845 0
M  V30 156 H 18.189 1.82156 -3.53644 0
M  V30 157 H 14.928 1.13896 -6.45529 0
M  V30 158 H 14.448 2.52022 -5.44284 0
M  V30 159 H 16.127 2.37364 -6.01887 0
M  V30 160 N 16.2591 1.48442 0.529413 0
M  V30 161 C 17.1891 1.65902 1.64313 0
M  V30 162 C 18.1701 0.507897 1.6234 0
M  V30 163 O 19.3551 0.740503 1.79528 0
M  V30 164 C 16.4851 1.69911 3.02898 0
M  V30 165 C 15.4391 2.8453 3.19729 0
M  V30 166 C 14.7651 2.73629 4.59381 0
M  V30 167 C 16.0651 4.25821 3.02447 0
M  V30 168 H 17.7591 2.5914 1.49955 0
M  V30 169 H 15.3051 1.24709 0.719982 0
M  V30 170 H 17.2581 1.80715 3.80684 0
M  V30 171 H 15.9821 0.732524 3.18279 0
M  V30 172 H 14.6411 2.73283 2.44361 0
M  V30 173 H 14.2891 1.74938 4.71599 0
M  V30 174 H 13.9891 3.50541 4.71588 0
M  V30 175 H 15.5131 2.86401 5.39265 0
M  V30 176 H 16.9271 4.37898 3.70024 0
M  V30 177 H 15.3241 5.03735 3.26146 0
M  V30 178 H 16.3941 4.42244 1.98867 0
M  V30 179 N 17.7372 -0.778329 1.37039 0
M  V30 180 C 18.6672 -1.90546 1.34962 0
M  V30 181 C 19.6482 -1.68681 0.219274 0
M  V30 182 O 20.8332 -1.89634 0.418624 0
M  V30 183 C 17.9632 -3.27734 1.14925 0
M  V30 184 C 16.9172 -3.64147 2.24902 0
M  V30 185 C 16.2432 -4.99806 1.89996 0
M  V30 186 C 17.5432 -3.71579 3.67051 0
M  V30 187 H 19.2372 -1.92541 2.29277 0
M  V30 188 H 16.7832 -0.924948 1.10366 0
M  V30 189 H 18.7362 -4.06215 1.12104 0
M  V30 190 H 17.4602 -3.26154 0.170631 0
M  V30 191 H 16.1192 -2.8797 2.26868 0
M  V30 192 H 15.7672 -4.94759 0.906796 0
M  V30 193 H 15.4672 -5.25139 2.63634 0
M  V30 194 H 16.9912 -5.80694 1.88749 0
M  V30 195 H 18.4052 -4.40227 3.67251 0
M  V30 196 H 16.8022 -4.08405 4.39688 0
M  V30 197 H 17.8722 -2.72404 4.01154 0
M  V30 198 N 19.2153 -1.21501 -1.00376 0
M  V30 199 C 20.1783 -0.976927 -2.07337 0
M  V30 200 C 21.1783 0.0525322 -1.60714 0
M  V30 201 O 22.3683 -0.184869 -1.73216 0
M  V30 202 C 19.5003 -0.473423 -3.37597 0
M  V30 203 H 20.6933 -1.92587 -2.29892 0
M  V30 204 H 18.2463 -1.03217 -1.17371 0
M  V30 205 H 18.9813 0.480379 -3.20722 0
M  V30 206 H 18.7663 -1.216 -3.72768 0
M  V30 207 H 20.2563 -0.32675 -4.1632 0
M  V30 208 N 20.6934 1.19889 -1.02296 0
M  V30 209 C 21.9214 1.9339 -0.735399 0
M  V30 210 C 22.3364 1.75148 0.704887 0
M  V30 211 O 21.6934 1.06954 1.47875 0
M  V30 212 C 21.7444 3.45313 -1.06962 0
M  V30 213 O 21.4654 3.62964 -2.45334 0
M  V30 214 C 22.9664 4.35948 -0.804021 0
M  V30 215 H 20.1864 0.61448 -0.269546 0
M  V30 216 H 22.7304 1.522 -1.36585 0
M  V30 217 H 20.8854 3.84359 -0.484455 0
M  V30 218 H 21.2994 4.56886 -2.57595 0
M  V30 219 H 22.7734 5.41174 -1.0879 0
M  V30 220 H 23.2504 4.3842 0.261691 0
M  V30 221 H 23.8564 4.02574 -1.37164 0
M  V30 222 N 22.1715 0.800033 1.35784 0
M  V30 223 C 23.4485 0.30088 1.93272 0
M  V30 224 C 23.8285 -1.20857 1.73081 0
M  V30 225 O 23.1765 -2.00502 1.09596 0
M  V30 226 C 23.3865 0.70511 3.41803 0
M  V30 227 C 24.7345 0.690871 4.18942 0
M  V30 228 O 25.7585 0.646244 3.50289 0
M  V30 229 O 24.6175 0.74332 5.41421 0
M  V30 230 H 21.7115 0.0771605 0.823393 0
M  V30 231 H 24.2575 0.88329 1.449 0
M  V30 232 H 23.0295 1.74571 3.50201 0
M  V30 233 H 22.6525 0.0971541 3.97481 0
M  V30 234 N 23.6496 -1.47581 0.552962 0
M  V30 235 C 24.8746 -2.07378 0.0300593 0
M  V30 236 C 25.2996 -1.40355 -1.25229 0
M  V30 237 O 24.6576 -0.477099 -1.7491 0
M  V30 238 C 24.7056 -3.60274 -0.153231 0
M  V30 239 O 23.8096 -3.94041 -1.21678 0
M  V30 240 H 23.1506 -0.662158 0.0494182 0
M  V30 241 H 25.6806 -1.89662 0.767434 0
M  V30 242 H 25.6906 -4.0633 -0.368761 0
M  V30 243 H 24.3656 -4.08455 0.783397 0
M  V30 244 H 22.9426 -3.59735 -0.982079 0
M  V30 245 N 25.1277 -0.289203 -1.54924 0
M  V30 246 C 26.3577 0.325989 -2.04012 0
M  V30 247 C 26.7657 1.48961 -1.1665 0
M  V30 248 O 26.1087 1.82794 -0.1822 0
M  V30 249 C 26.1707 0.856112 -3.49158 0
M  V30 250 C 25.8347 -0.180697 -4.56643 0
M  V30 251 C 26.8317 -1.0051 -5.10092 0
M  V30 252 C 24.5167 -0.318998 -5.01286 0
M  V30 253 C 26.5107 -1.95385 -6.06715 0
M  V30 254 C 24.1977 -1.27121 -5.97732 0
M  V30 255 C 25.1957 -2.08713 -6.50329 0
M  V30 256 O 24.8837 -3.02322 -7.44887 0
M  V30 257 H 24.6157 0.0765276 -0.671654 0
M  V30 258 H 27.1697 -0.423254 -2.00992 0
M  V30 259 H 25.3997 1.65567 -3.49463 0
M  V30 260 H 27.0887 1.38591 -3.81507 0
M  V30 261 H 27.8547 -0.90906 -4.76404 0
M  V30 262 H 23.7337 0.306108 -4.59983 0
M  V30 263 H 27.2777 -2.59111 -6.47694 0
M  V30 264 H 23.1747 -1.36801 -6.30837 0
M  V30 265 H 23.9427 -2.97165 -7.6265 0
M  V30 266 N 26.6058 1.57591 -0.0167156 0
M  V30 267 C 27.5528 2.09462 0.969251 0
M  V30 268 C 28.5228 0.99381 1.33089 0
M  V30 269 O 29.7078 1.26726 1.42636 0
M  V30 270 C 26.8478 2.61622 2.25051 0
M  V30 271 C 25.9608 3.85666 1.94642 0
M  V30 272 C 25.0958 4.26266 3.16972 0
M  V30 273 C 24.1348 5.43101 2.82326 0
M  V30 274 N 23.2718 5.78915 3.97243 0
M  V30 275 H 28.1118 2.93428 0.519997 0
M  V30 276 H 25.6488 1.45044 0.245087 0
M  V30 277 H 27.6068 2.89949 2.99976 0
M  V30 278 H 26.2368 1.80505 2.67615 0
M  V30 279 H 25.2888 3.64145 1.10013 0
M  V30 280 H 26.6008 4.70678 1.65117 0
M  V30 281 H 25.7548 4.55963 4.00228 0
M  V30 282 H 24.4938 3.39996 3.49648 0
M  V30 283 H 23.4988 5.1311 1.97479 0
M  V30 284 H 24.7238 6.3106 2.50879 0
M  V30 285 H 22.6698 4.95602 4.29785 0
M  V30 286 H 22.5868 6.58539 3.71299 0
M  V30 287 H 23.8548 6.13212 4.81239 0
M  V30 288 N 28.0839 -0.256276 1.55502 0
M  V30 289 C 29.3299 -0.987079 1.77157 0
M  V30 290 C 29.6629 -1.85327 0.580315 0
M  V30 291 O 28.9379 -1.89874 -0.421686 0
M  V30 292 C 29.2209 -1.85553 3.08613 0
M  V30 293 C 29.0739 -1.01816 4.38125 0
M  V30 294 C 30.3929 -2.8397 3.36228 0
M  V30 295 H 27.5119 -0.357428 0.644526 0
M  V30 296 H 30.1539 -0.258239 1.88237 0
M  V30 297 H 28.3039 -2.47695 2.99298 0
M  V30 298 H 29.9759 -0.416159 4.59419 0
M  V30 299 H 28.2189 -0.322178 4.32602 0
M  V30 300 H 28.8899 -1.65939 5.26468 0
M  V30 301 H 31.3659 -2.31964 3.45445 0
M  V30 302 H 30.2419 -3.41864 4.29442 0
M  V30 303 H 30.5029 -3.59955 2.56681 0
M  V30 304 N 29.562 -1.4872 -0.521534 0
M  V30 305 C 30.79 -1.60843 -1.30142 0
M  V30 306 C 31.205 -0.271897 -1.86832 0
M  V30 307 O 30.562 0.739969 -1.66825 0
M  V30 308 C 30.613 -2.66155 -2.4463 0
M  V30 309 O 30.334 -3.94623 -1.90275 0
M  V30 310 C 31.835 -2.88795 -3.36322 0
M  V30 311 H 29.055 -0.542075 -0.395468 0
M  V30 312 H 31.599 -1.94609 -0.628285 0
M  V30 313 H 29.754 -2.35224 -3.07812 0
M  V30 314 H 30.168 -4.52468 -2.65279 0
M  V30 315 H 31.642 -3.66264 -4.12983 0
M  V30 316 H 32.119 -1.97934 -3.9207 0
M  V30 317 H 32.725 -3.21063 -2.78924 0
M  V30 318 N 31.0401 0.771051 -1.3745 0
M  V30 319 C 31.9901 1.87456 -1.29785 0
M  V30 320 C 32.9741 1.59827 -0.185541 0
M  V30 321 O 34.1661 1.71945 -0.419997 0
M  V30 322 C 31.2951 3.24935 -1.1078 0
M  V30 323 C 30.3811 3.58514 -2.26558 0
M  V30 324 N 30.7721 3.6327 -3.5195 0
M  V30 325 C 29.0701 3.88683 -2.18727 0
M  V30 326 C 29.7711 3.93616 -4.283 0
M  V30 327 N 28.7471 4.09551 -3.57448 0
M  V30 328 H 32.5491 1.89386 -2.24745 0
M  V30 329 H 30.0631 0.967531 -1.30432 0
M  V30 330 H 32.0601 4.03881 -1.03374 0
M  V30 331 H 30.7201 3.24268 -0.16738 0
M  V30 332 H 31.7311 3.45458 -3.85848 0
M  V30 333 H 28.4081 3.95834 -1.32746 0
M  V30 334 H 29.7981 4.04066 -5.36824 0
M  V30 335 N 32.5182 1.22032 0.997298 0
M  V30 336 C 33.7482 1.06686 1.76923 0
M  V30 337 C 34.1562 -0.385838 1.85224 0
M  V30 338 O 33.4992 -1.27929 1.31833 0
M  V30 339 C 33.5612 1.59802 3.22031 0
M  V30 340 C 33.2252 3.08362 3.37286 0
M  V30 341 C 34.2222 4.05835 3.24952 0
M  V30 342 C 31.9072 3.47727 3.6248 0
M  V30 343 C 33.9012 5.4066 3.37588 0
M  V30 344 C 31.5882 4.82701 3.74757 0
M  V30 345 C 32.5862 5.78977 3.62319 0
M  V30 346 O 32.2742 7.11502 3.74193 0
M  V30 347 H 32.0062 0.374767 0.562606 0
M  V30 348 H 34.5602 1.61991 1.26286 0
M  V30 349 H 32.7902 0.989003 3.73839 0
M  V30 350 H 34.4792 1.40184 3.80924 0
M  V30 351 H 35.2452 3.76766 3.05405 0
M  V30 352 H 31.1242 2.73317 3.7124 0
M  V30 353 H 34.6682 6.15788 3.27796 0
M  V30 354 H 30.5652 5.11453 3.9381 0
M  V30 355 H 31.3332 7.19019 3.91093 0
M  V30 356 N 33.9963 -1.19345 1.0293 0
M  V30 357 C 34.9433 -2.2258 0.610464 0
M  V30 358 C 35.9133 -1.6179 -0.375946 0
M  V30 359 O 37.0983 -1.88844 -0.272511 0
M  V30 360 C 34.2383 -3.45085 -0.0321473 0
M  V30 361 C 33.3513 -4.20258 1.00035 0
M  V30 362 C 32.4863 -5.3019 0.32746 0
M  V30 363 C 31.5253 -5.97121 1.34584 0
M  V30 364 N 30.6623 -6.98615 0.698726 0
M  V30 365 H 35.5023 -2.57764 1.49538 0
M  V30 366 H 33.0393 -1.26644 0.748311 0
M  V30 367 H 34.9973 -4.15061 -0.421966 0
M  V30 368 H 33.6273 -3.10555 -0.88064 0
M  V30 369 H 32.6793 -3.49223 1.50823 0
M  V30 370 H 33.9913 -4.66175 1.77433 0
M  V30 371 H 33.1453 -6.06587 -0.11718 0
M  V30 372 H 31.8843 -4.85345 -0.478713 0
M  V30 373 H 30.8893 -5.19474 1.80074 0
M  V30 374 H 32.1143 -6.4405 2.15352 0
M  V30 375 H 30.0603 -6.55942 -0.0873471 0
M  V30 376 H 29.9773 -7.42724 1.41058 0
M  V30 377 H 31.2453 -7.79004 0.278102 0
M  V30 378 N 35.4744 -0.807222 -1.35358 0
M  V30 379 C 36.4064 -0.175717 -2.28525 0
M  V30 380 C 37.4194 0.625354 -1.5031 0
M  V30 381 O 38.6084 0.457611 -1.72535 0
M  V30 382 C 35.7084 0.773471 -3.29956 0
M  V30 383 C 34.8814 0.0186296 -4.37396 0
M  V30 384 C 33.9404 0.886395 -5.18681 0
M  V30 385 O 32.9664 0.337106 -5.68201 0
M  V30 386 N 34.1684 2.20839 -5.36852 0
M  V30 387 H 36.9334 -0.976091 -2.83359 0
M  V30 388 H 34.4944 -0.662737 -1.47714 0
M  V30 389 H 36.4864 1.35824 -3.81227 0
M  V30 390 H 35.0564 1.47465 -2.75632 0
M  V30 391 H 34.2764 -0.747349 -3.87051 0
M  V30 392 H 35.5644 -0.501577 -5.06322 0
M  V30 393 H 34.9624 2.67858 -4.98265 0
M  V30 394 H 33.5194 2.74237 -5.91301 0
M  V30 395 N 36.9525 1.47285 -0.560781 0
M  V30 396 C 38.1825 2.06555 -0.0429638 0
M  V30 397 C 38.5905 1.41339 1.25777 0
M  V30 398 O 37.9335 0.505182 1.76617 0
M  V30 399 C 37.9955 3.58827 0.219887 0
M  V30 400 C 37.6595 4.46105 -0.991944 0
M  V30 401 C 38.6565 4.84 -1.89843 0
M  V30 402 C 36.3415 4.87567 -1.20762 0
M  V30 403 C 38.3355 5.6216 -3.00425 0
M  V30 404 C 36.0225 5.65491 -2.31653 0
M  V30 405 C 37.0205 6.02699 -3.21315 0
M  V30 406 O 36.7085 6.79052 -4.30283 0
M  V30 407 H 36.4405 0.674537 -0.0444468 0
M  V30 408 H 38.9945 1.90225 -0.774818 0
M  V30 409 H 37.2245 3.73383 1.00609 0
M  V30 410 H 38.9135 4.00103 0.683522 0
M  V30 411 H 39.6795 4.52564 -1.74387 0
M  V30 412 H 35.5585 4.5807 -0.518893 0
M  V30 413 H 39.1025 5.9112 -3.70436 0
M  V30 414 H 34.9995 5.9634 -2.47081 0
M  V30 415 H 35.7675 6.9745 -4.28376 0
M  V30 416 N 38.4306 0.297415 1.54768 0
M  V30 417 C 39.8416 -0.195947 1.85669 0
M  V30 418 C 40.1926 -1.53707 1.21937 0
M  V30 419 O 39.3176 -2.10164 0.515754 0
M  V30 420 C 39.9126 -0.362318 3.36857 0
M  V30 421 C 38.4716 -0.799901 3.67802 0
M  V30 422 C 37.6186 0.0938578 2.77141 0
M  V30 423 H 40.5696 0.518538 1.4999 0
M  V30 424 H 40.5906 -1.19745 3.61167 0
M  V30 425 H 40.1026 0.613921 3.83214 0
M  V30 426 H 38.2036 -1.78682 3.26961 0
M  V30 427 H 38.3166 -0.621773 4.75048 0
M  V30 428 H 36.6806 -0.426254 2.51108 0
M  V30 429 H 37.4636 1.06639 3.26318 0
M  V30 430 N 39.9087 -1.5758 0.0250728 0
M  V30 431 C 41.3197 -1.79476 -0.514323 0
M  V30 432 C 41.6707 -0.934956 -1.72491 0
M  V30 433 O 40.7957 -0.144245 -2.15919 0
M  V30 434 C 41.3907 -3.25503 -0.939842 0
M  V30 435 C 39.9497 -3.48408 -1.42438 0
M  V30 436 C 39.0967 -2.74583 -0.387201 0
M  V30 437 H 42.0477 -1.567 0.25113 0
M  V30 438 H 42.0687 -3.34992 -1.80445 0
M  V30 439 H 41.5807 -3.88056 -0.0585628 0
M  V30 440 H 39.6817 -2.91103 -2.32572 0
M  V30 441 H 39.7947 -4.57119 -1.43455 0
M  V30 442 H 38.1587 -2.39942 -0.854409 0
M  V30 443 H 38.9417 -3.39849 0.485543 0
M  V30 444 N 41.3868 0.248026 -1.55636 0
M  V30 445 C 42.3348 1.32683 -1.91045 0
M  V30 446 C 43.3288 1.49883 -0.789401 0
M  V30 447 O 44.5348 1.51371 -0.974007 0
M  V30 448 H 40.9098 0.444272 -0.606734 0
M  V30 449 H 42.8808 1.00085 -2.81115 0
M  V30 450 C 41.6298 2.6755 -2.22064 0
M  V30 451 H 40.9528 2.55114 -3.07826 0
M  V30 452 H 42.3928 3.41912 -2.50743 0
M  V30 453 C 40.8518 3.20556 -1.0366 0
M  V30 454 O 41.3818 4.00695 -0.284016 0
M  V30 455 N 39.5878 2.78568 -0.82753 0
M  V30 456 H 39.1348 2.1351 -1.44123 0
M  V30 457 H 39.0928 3.14378 -0.0369803 0
M  V30 458 N 42.8649 1.48995 0.513639 0
M  V30 459 C 44.0929 1.61531 1.29288 0
M  V30 460 C 44.5079 0.281801 1.86685 0
M  V30 461 O 43.8649 -0.731111 1.67215 0
M  V30 462 C 43.9159 2.67449 2.43215 0
M  V30 463 O 43.6369 3.95626 1.88179 0
M  V30 464 C 45.1379 2.90575 3.34785 0
M  V30 465 H 42.3579 0.544165 0.392588 0
M  V30 466 H 44.9019 1.9494 0.617956 0
M  V30 467 H 43.0569 2.36853 3.0656 0
M  V30 468 H 43.4709 4.53868 2.62876 0
M  V30 469 H 44.9449 3.68449 4.11035 0
M  V30 470 H 45.4219 2.00011 3.91015 0
M  V30 471 H 46.0279 3.22538 2.77218 0
M  V30 472 N 44.343 -0.763751 1.37857 0
M  V30 473 C 45.568 -1.55805 1.36893 0
M  V30 474 C 45.993 -1.88054 -0.0416135 0
M  V30 475 O 45.351 -1.49825 -1.02089 0
M  V30 476 C 45.399 -2.84012 2.22192 0
M  V30 477 O 44.503 -3.78732 1.63204 0
M  V30 478 H 43.844 -0.471638 0.46739 0
M  V30 479 H 46.374 -0.944657 1.81487 0
M  V30 480 H 46.384 -3.33037 2.35691 0
M  V30 481 H 45.059 -2.59869 3.24716 0
M  V30 482 H 43.636 -3.37402 1.58791 0
M  V30 483 N 45.8211 -1.22559 -0.990812 0
M  V30 484 C 46.7681 -0.997519 -2.0813 0
M  V30 485 C 47.7381 0.0814702 -1.659 0
M  V30 486 O 48.9231 -0.0685424 -1.90677 0
M  V30 487 C 46.0631 -0.583615 -3.40129 0
M  V30 488 C 45.1761 -1.7336 -3.9569 0
M  V30 489 C 44.3111 -1.26748 -5.15857 0
M  V30 490 C 43.3501 -2.38888 -5.63559 0
M  V30 491 N 42.4871 -1.93308 -6.74964 0
M  V30 492 H 47.3271 -1.93099 -2.26973 0
M  V30 493 H 44.8641 -0.962114 -1.11273 0
M  V30 494 H 46.8221 -0.324801 -4.15934 0
M  V30 495 H 45.4521 0.312845 -3.2128 0
M  V30 496 H 44.5041 -2.10669 -3.16738 0
M  V30 497 H 45.8161 -2.57704 -4.27071 0
M  V30 498 H 44.9701 -0.966173 -5.98957 0
M  V30 499 H 43.7091 -0.394272 -4.86104 0
M  V30 500 H 42.7141 -2.69805 -4.79046 0
M  V30 501 H 43.9391 -3.26728 -5.95336 0
M  V30 502 H 41.8851 -1.08352 -6.4699 0
M  V30 503 H 41.8021 -2.71217 -7.05675 0
M  V30 504 H 43.0701 -1.66252 -7.61564 0
M  V30 505 N 47.2992 1.18797 -1.03562 0
M  V30 506 C 48.5452 1.8893 -0.737113 0
M  V30 507 C 48.8782 1.79837 0.732956 0
M  V30 508 O 48.1532 1.19525 1.5344 0
M  V30 509 C 48.4362 3.39607 -1.19745 0
M  V30 510 C 48.2892 3.57537 -2.72924 0
M  V30 511 C 49.6082 4.33069 -0.783526 0
M  V30 512 H 46.7272 0.686057 -0.269249 0
M  V30 513 H 49.3692 1.39797 -1.28673 0
M  V30 514 H 47.5192 3.81583 -0.729855 0
M  V30 515 H 49.1912 3.24688 -3.27682 0
M  V30 516 H 47.4342 3.00363 -3.12993 0
M  V30 517 H 48.1052 4.63238 -3.00191 0
M  V30 518 H 50.5812 3.98846 -1.18581 0
M  V30 519 H 49.4572 5.3707 -1.13343 0
M  V30 520 H 49.7182 4.40986 0.313681 0
M  V30 521 N 48.7773 0.814389 1.34928 0
M  V30 522 C 50.0073 0.41054 2.0248 0
M  V30 523 C 50.4153 -0.985625 1.61499 0
M  V30 524 O 49.7583 -1.64781 0.811976 0
M  V30 525 C 49.8203 0.423384 3.56998 0
M  V30 526 C 49.4843 1.77141 4.21272 0
M  V30 527 C 50.4813 2.73093 4.42398 0
M  V30 528 C 48.1663 2.05755 4.58225 0
M  V30 529 C 50.1603 3.95838 4.9959 0
M  V30 530 C 47.8473 3.28762 5.1513 0
M  V30 531 C 48.8453 4.23621 5.35755 0
M  V30 532 O 48.5333 5.44456 5.91458 0
M  V30 533 H 48.2653 0.163997 0.655806 0
M  V30 534 H 50.8193 1.10155 1.73364 0
M  V30 535 H 49.0493 -0.324276 3.85338 0
M  V30 536 H 50.7383 0.0407683 4.0588 0
M  V30 537 H 51.5043 2.5228 4.14222 0
M  V30 538 H 47.3833 1.32727 4.4148 0
M  V30 539 H 50.9273 4.69891 5.15605 0
M  V30 540 H 46.8243 3.49443 5.42734 0
M  V30 541 H 47.5923 5.4586 6.09901 0
M  V30 542 N 50.2554 -1.46986 0.568584 0
M  V30 543 C 51.4804 -2.07335 0.0520528 0
M  V30 544 C 51.9054 -1.41675 -1.23733 0
M  V30 545 O 51.2634 -0.495623 -1.74394 0
M  V30 546 C 51.3114 -3.60417 -0.11501 0
M  V30 547 O 50.4154 -3.95309 -1.17492 0
M  V30 548 H 49.7564 -0.661597 0.0564385 0
M  V30 549 H 52.2864 -1.88837 0.787507 0
M  V30 550 H 52.2964 -4.06698 -0.325644 0
M  V30 551 H 50.9714 -4.07601 0.826675 0
M  V30 552 H 49.5484 -3.60757 -0.943869 0
M  V30 553 N 51.7335 -0.305618 -1.54608 0
M  V30 554 C 52.9635 0.304333 -2.04346 0
M  V30 555 C 53.3715 1.47715 -1.18224 0
M  V30 556 O 52.7145 1.82591 -0.201577 0
M  V30 557 C 52.7765 0.819031 -3.50046 0
M  V30 558 C 52.4405 -0.22912 -4.56425 0
M  V30 559 C 53.4375 -1.05914 -5.08997 0
M  V30 560 C 51.1225 -0.372148 -5.0092 0
M  V30 561 C 53.1165 -2.01809 -6.04609 0
M  V30 562 C 50.8035 -1.33454 -5.9635 0
M  V30 563 C 51.8015 -2.15599 -6.48079 0
M  V30 564 O 51.4895 -3.10205 -7.41639 0
M  V30 565 H 51.2215 0.0693996 -0.672428 0
M  V30 566 H 53.7755 -0.444548 -2.00532 0
M  V30 567 H 52.0055 1.61852 -3.51199 0
M  V30 568 H 53.6945 1.34537 -3.82955 0
M  V30 569 H 54.4605 -0.959538 -4.75413 0
M  V30 570 H 50.3395 0.257304 -4.60281 0
M  V30 571 H 53.8835 -2.65966 -6.44909 0
M  V30 572 H 49.7805 -1.43485 -6.29351 0
M  V30 573 H 50.5485 -3.05237 -7.59455 0
M  V30 574 N 53.2116 1.57565 -0.0334293 0
M  V30 575 C 54.4586 1.91978 0.644272 0
M  V30 576 C 54.7866 0.910231 1.71887 0
M  V30 577 O 54.0416 -0.0801961 1.95536 0
M  V30 578 C 54.3406 3.33112 1.29504 0
M  V30 579 C 54.0066 4.49537 0.350388 0
M  V30 580 C 52.6686 4.81115 0.0903974 0
M  V30 581 C 55.0206 5.20347 -0.298032 0
M  V30 582 C 52.3486 5.8086 -0.825746 0
M  V30 583 C 54.7006 6.2107 -1.20226 0
M  V30 584 C 53.3646 6.51088 -1.4711 0
M  V30 585 H 52.6346 0.702496 0.235756 0
M  V30 586 H 55.2816 1.91259 -0.0961176 0
M  V30 587 H 53.5866 3.30113 2.11028 0
M  V30 588 H 55.2836 3.57011 1.82603 0
M  V30 589 H 51.8736 4.24883 0.563205 0
M  V30 590 H 56.0576 4.96178 -0.110234 0
M  V30 591 H 51.3136 6.02461 -1.04169 0
M  V30 592 H 55.4876 6.75057 -1.71086 0
M  V30 593 H 53.1146 7.28193 -2.18264 0
M  V30 594 N 54.6897 -0.239769 1.55765 0
M  V30 595 C 55.5997 -1.31831 1.94056 0
M  V30 596 C 56.6157 -1.52275 0.841925 0
M  V30 597 O 57.7917 -1.65759 1.14394 0
M  V30 598 C 54.8567 -2.65156 2.23368 0
M  V30 599 C 53.9177 -2.53173 3.46701 0
M  V30 600 C 53.1507 -3.8014 3.74606 0
M  V30 601 O 53.3737 -4.82343 3.04469 0
M  V30 602 O 52.3077 -3.78344 4.68123 0
M  V30 603 H 56.1337 -1.02347 2.85935 0
M  V30 604 H 53.7187 -0.441123 1.42739 0
M  V30 605 H 55.6007 -3.43929 2.43497 0
M  V30 606 H 54.2757 -2.94358 1.34666 0
M  V30 607 H 53.1827 -1.72662 3.31871 0
M  V30 608 H 54.5157 -2.28915 4.35728 0
M  V30 609 N 56.1678 -1.49265 -0.50573 0
M  V30 610 C 57.4078 -1.60128 -1.27038 0
M  V30 611 C 57.7718 -0.279557 -1.89954 0
M  V30 612 O 58.9728 -0.263329 -2.67507 0
M  V30 613 C 57.2438 -2.72507 -2.31246 0
M  V30 614 S 58.8028 -3.0329 -3.17113 0
M  V30 615 H 55.6208 -0.564863 -0.4318 0
M  V30 616 H 58.2228 -1.86902 -0.573397 0
M  V30 617 H 56.9268 -3.67068 -1.83546 0
M  V30 618 H 56.4578 -2.4771 -3.05619 0
M  V30 619 H 58.4728 -2.44448 -4.31809 0
M  V30 620 N 57.6459 0.756429 -1.3826 0
M  V30 621 C 59.0619 1.0591 -1.19395 0
M  V30 622 C 59.2619 2.01459 -0.0406567 0
M  V30 623 O 58.3179 2.44909 0.614467 0
M  V30 624 C 59.6309 1.64191 -2.51916 0
M  V30 625 C 61.1789 1.76376 -2.58574 0
M  V30 626 C 61.6539 2.38069 -3.91264 0
M  V30 627 N 63.1449 2.45503 -3.92788 0
M  V30 628 C 63.8799 2.94126 -4.92217 0
M  V30 629 N 63.3759 3.42805 -6.02043 0
M  V30 630 N 65.1689 2.9314 -4.7961 0
M  V30 631 H 57.3199 0.122313 -2.12048 0
M  V30 632 H 59.5829 0.116892 -0.940766 0
M  V30 633 H 59.2889 1.01451 -3.3675 0
M  V30 634 H 59.1629 2.6329 -2.70108 0
M  V30 635 H 61.5499 2.38244 -1.74137 0
M  V30 636 H 61.6309 0.759894 -2.44252 0
M  V30 637 H 61.2749 1.76835 -4.76121 0
M  V30 638 H 61.2049 3.39091 -4.02895 0
M  V30 639 H 63.6959 2.1107 -3.13461 0
M  V30 640 H 64.0089 3.78354 -6.73846 0
M  V30 641 H 62.3539 3.4087 -6.05667 0
M  V30 642 H 65.5449 2.54419 -3.92923 0
M  V30 643 H 65.7179 3.30721 -5.5725 0
M  V30 644 N 59.124 1.23083 0.984299 0
M  V30 645 C 60.034 1.02515 2.11016 0
M  V30 646 C 61.05 -0.0291702 1.73976 0
M  V30 647 O 62.226 0.165434 2.00719 0
M  V30 648 C 59.291 0.614673 3.41208 0
M  V30 649 C 58.352 1.74359 3.92297 0
M  V30 650 C 57.585 1.35261 5.16275 0
M  V30 651 O 57.808 0.235136 5.69915 0
M  V30 652 O 56.742 2.17227 5.61334 0
M  V30 653 H 60.568 1.96862 2.31255 0
M  V30 654 H 58.153 1.01753 1.09392 0
M  V30 655 H 60.035 0.396518 4.1953 0
M  V30 656 H 58.71 -0.299851 3.22308 0
M  V30 657 H 57.617 2.01635 3.1511 0
M  V30 658 H 58.95 2.63629 4.15645 0
M  V30 659 N 60.6021 -1.18246 1.0419 0
M  V30 660 C 61.5491 -2.2192 0.634037 0
M  V30 661 C 62.5191 -1.62179 -0.358765 0
M  V30 662 O 63.7041 -1.89122 -0.252466 0
M  V30 663 C 60.8441 -3.451 0.00445535 0
M  V30 664 C 59.9571 -4.19174 1.04487 0
M  V30 665 C 59.0921 -5.29813 0.383676 0
M  V30 666 C 58.1311 -5.9566 1.4091 0
M  V30 667 N 57.2681 -6.97834 0.772784 0
M  V30 668 H 62.1081 -2.56164 1.52263 0
M  V30 669 H 59.6451 -1.25843 0.761701 0
M  V30 670 H 61.6031 -4.15485 -0.377919 0
M  V30 671 H 60.2331 -3.11472 -0.847652 0
M  V30 672 H 59.2851 -3.47604 1.54518 0
M  V30 673 H 60.5971 -4.64267 1.82368 0
M  V30 674 H 59.7511 -6.06677 -0.0528366 0
M  V30 675 H 58.4901 -4.85825 -0.427208 0
M  V30 676 H 57.4951 -5.17535 1.85574 0
M  V30 677 H 58.7201 -6.4173 2.22171 0
M  V30 678 H 56.6661 -6.55998 -0.0177708 0
M  V30 679 H 56.5831 -7.41186 1.48928 0
M  V30 680 H 57.8511 -7.78665 0.36071 0
M  V30 681 N 62.0802 -0.821533 -1.34494 0
M  V30 682 C 63.0272 -0.240397 -2.29545 0
M  V30 683 C 63.9972 0.634031 -1.53523 0
M  V30 684 O 65.1822 0.575966 -1.81899 0
M  V30 685 C 62.3222 0.592869 -3.39969 0
M  V30 686 C 61.4352 -0.30365 -4.30932 0
M  V30 687 C 60.5702 0.539049 -5.28458 0
M  V30 688 C 59.6092 -0.356942 -6.11058 0
M  V30 689 N 58.7462 0.446603 -7.00678 0
M  V30 690 H 63.5862 -1.05632 -2.7865 0
M  V30 691 H 61.1232 -0.532413 -1.37127 0
M  V30 692 H 63.0812 1.09129 -4.02675 0
M  V30 693 H 61.7112 1.37392 -2.92102 0
M  V30 694 H 60.7632 -0.920276 -3.691 0
M  V30 695 H 62.0752 -0.992661 -4.88823 0
M  V30 696 H 61.2292 1.102 -5.96608 0
M  V30 697 H 59.9682 1.26157 -4.71101 0
M  V30 698 H 58.9732 -0.932047 -5.41842 0
M  V30 699 H 60.1982 -1.07755 -6.70497 0
M  V30 700 H 58.1442 1.15282 -6.45791 0
M  V30 701 H 58.0612 -0.184048 -7.55776 0
M  V30 702 H 59.3292 0.992352 -7.73158 0
M  V30 703 N 63.5583 1.46682 -0.576371 0
M  V30 704 C 64.7863 2.06798 -0.0649635 0
M  V30 705 C 65.2013 1.42612 1.23723 0
M  V30 706 O 64.5583 0.529203 1.74659 0
M  V30 707 C 64.6093 3.6132 0.114202 0
M  V30 708 O 64.3303 4.23104 -1.13644 0
M  V30 709 C 65.8313 4.38349 0.66069 0
M  V30 710 H 63.0513 0.668778 -0.0545616 0
M  V30 711 H 65.5953 1.88404 -0.795237 0
M  V30 712 H 63.7503 3.79162 0.794673 0
M  V30 713 H 64.1643 5.15894 -0.946253 0
M  V30 714 H 65.6383 5.47081 0.73526 0
M  V30 715 H 66.1153 4.05953 1.67627 0
M  V30 716 H 66.7213 4.25297 0.0152951 0
M  V30 717 N 65.0364 0.313813 1.54444 0
M  V30 718 C 65.9464 -0.565714 2.27677 0
M  V30 719 C 66.9624 -1.13754 1.31666 0
M  V30 720 O 68.1384 -1.15959 1.64668 0
M  V30 721 C 65.2034 -1.71528 3.01296 0
M  V30 722 C 64.2644 -1.17624 4.12872 0
M  V30 723 C 63.4974 -2.27102 4.8297 0
M  V30 724 O 63.7204 -3.47256 4.52514 0
M  V30 725 O 62.6544 -1.9307 5.70094 0
M  V30 726 H 66.4804 0.0287296 3.03686 0
M  V30 727 H 64.0654 0.0798312 1.49187 0
M  V30 728 H 65.9474 -2.38476 3.4743 0
M  V30 729 H 64.6224 -2.29608 2.2817 0
M  V30 730 H 63.5294 -0.472124 3.71109 0
M  V30 731 H 64.8624 -0.640695 4.88012 0
M  V30 732 N 66.5145 -1.57545 0.0417849 0
M  V30 733 C 67.4625 -2.12148 -0.953723 0
M  V30 734 C 68.4565 -1.05104 -1.32852 0
M  V30 735 O 69.6625 -1.23524 -1.30927 0
M  V30 736 H 66.0375 -0.677957 -0.325389 0
M  V30 737 H 68.0085 -2.94707 -0.467991 0
M  V30 738 C 66.7575 -2.6739 -2.22257 0
M  V30 739 H 66.0805 -3.49413 -1.94295 0
M  V30 740 H 67.5205 -3.09227 -2.90094 0
M  V30 741 C 65.9795 -1.60723 -2.96091 0
M  V30 742 O 66.5095 -1.01449 -3.88679 0
M  V30 743 N 64.7155 -1.32466 -2.58652 0
M  V30 744 H 64.2625 -1.80856 -1.83437 0
M  V30 745 H 64.2205 -0.61325 -3.08361 0
M  V30 746 N 67.9926 0.231505 -1.5589 0
M  V30 747 C 69.2176 0.978689 -1.82856 0
M  V30 748 C 69.6426 1.77559 -0.620846 0
M  V30 749 O 69.0006 1.76119 0.430305 0
M  V30 750 C 69.0486 1.87997 -3.07716 0
M  V30 751 O 68.1526 2.97393 -2.85712 0
M  V30 752 H 67.4936 0.277663 -0.603158 0
M  V30 753 H 70.0236 0.24783 -2.03093 0
M  V30 754 H 70.0336 2.2917 -3.37558 0
M  V30 755 H 68.7086 1.29417 -3.95252 0
M  V30 756 H 67.2856 2.60238 -2.67078 0
M  V30 757 N 69.4707 1.49531 0.497807 0
M  V30 758 C 70.4177 1.66436 1.59899 0
M  V30 759 C 71.3877 0.505793 1.58212 0
M  V30 760 O 72.5727 0.733202 1.7615 0
M  V30 761 C 69.7127 1.7399 2.98029 0
M  V30 762 C 68.8257 3.01172 3.09708 0
M  V30 763 C 67.9607 2.99686 4.38591 0
M  V30 764 C 66.9997 4.21434 4.43914 0
M  V30 765 N 66.1367 4.1784 5.64229 0
M  V30 766 H 70.9767 2.60459 1.44793 0
M  V30 767 H 68.5137 1.29137 0.704423 0
M  V30 768 H 70.4717 1.76352 3.78095 0
M  V30 769 H 69.1017 0.834301 3.11832 0
M  V30 770 H 68.1537 3.08408 2.22685 0
M  V30 771 H 69.4657 3.91165 3.09502 0
M  V30 772 H 68.6197 3.00628 5.2698 0
M  V30 773 H 67.3587 2.07477 4.41367 0
M  V30 774 H 66.3637 4.20733 3.53926 0
M  V30 775 H 67.5887 5.14839 4.42851 0
M  V30 776 H 65.5347 3.28469 5.67841 0
M  V30 777 H 65.4517 5.01571 5.65652 0
M  V30 778 H 66.7197 4.22889 6.54817 0
M  V30 779 N 70.9488 -0.749086 1.3866 0
M  V30 780 C 71.8788 -1.8764 1.38973 0
M  V30 781 C 72.8598 -1.68178 0.255004 0
M  V30 782 O 74.0448 -1.88704 0.458754 0
M  V30 783 C 71.1748 -3.25222 1.21851 0
M  V30 784 C 70.1288 -3.59295 2.32575 0
M  V30 785 C 69.4548 -4.95663 2.00555 0
M  V30 786 C 70.7548 -3.63709 3.7485 0
M  V30 787 H 72.4488 -1.87635 2.3331 0
M  V30 788 H 69.9948 -0.901329 1.12303 0
M  V30 789 H 71.9478 -4.03746 1.20695 0
M  V30 790 H 70.6718 -3.25719 0.239775 0
M  V30 791 H 69.3308 -2.83093 2.32925 0
M  V30 792 H 68.9788 -4.92724 1.01154 0
M  V30 793 H 68.6788 -5.19429 2.74714 0
M  V30 794 H 70.2028 -5.7656 2.01024 0
M  V30 795 H 71.6168 -4.32338 3.76506 0
M  V30 796 H 70.0138 -3.98986 4.48252 0
M  V30 797 H 71.0838 -2.63834 4.06841 0
M  V30 798 N 72.4269 -1.23603 -0.977757 0
M  V30 799 C 73.8429 -0.999251 -1.24447 0
M  V30 800 C 74.0429 0.298053 -1.99283 0
M  V30 801 O 73.0989 1.01681 -2.31122 0
M  V30 802 C 74.4119 -2.20784 -2.04144 0
M  V30 803 C 75.9599 -2.25303 -2.17273 0
M  V30 804 C 76.4349 -3.45755 -3.00362 0
M  V30 805 N 77.9259 -3.4601 -3.07947 0
M  V30 806 C 78.6609 -4.35868 -3.72568 0
M  V30 807 N 78.1569 -5.35966 -4.38991 0
M  V30 808 N 79.9499 -4.23605 -3.6948 0
M  V30 809 H 72.1009 -2.06986 -0.476483 0
M  V30 810 H 74.3639 -0.907801 -0.273134 0
M  V30 811 H 74.0699 -3.14945 -1.56533 0
M  V30 812 H 73.9439 -2.22085 -3.04891 0
M  V30 813 H 76.3309 -1.3168 -2.64092 0
M  V30 814 H 76.4119 -2.28033 -1.15907 0
M  V30 815 H 76.0559 -4.39687 -2.5424 0
M  V30 816 H 75.9859 -3.40266 -4.01904 0
M  V30 817 H 78.4769 -2.73588 -2.60688 0
M  V30 818 H 78.7899 -6.00783 -4.86086 0
M  V30 819 H 77.1349 -5.39863 -4.37691 0
M  V30 820 H 80.3259 -3.44647 -3.16759 0
M  V30 821 H 80.4989 -4.93836 -4.1956 0
M  V30 822 N 73.905 1.17692 -1.04816 0
M  V30 823 C 74.852 2.21581 -0.645797 0
M  V30 824 C 75.822 1.62367 0.350159 0
M  V30 825 O 77.007 1.89254 0.242433 0
M  V30 826 C 74.147 3.45092 -0.0227568 0
M  V30 827 C 73.26 4.18613 -1.06709 0
M  V30 828 C 72.395 5.29602 -0.411767 0
M  V30 829 C 71.434 5.94904 -1.44067 0
M  V30 830 N 70.571 6.97414 -0.809781 0
M  V30 831 H 75.411 2.55353 -1.5362 0
M  V30 832 H 72.948 1.25438 -0.768364 0
M  V30 833 H 74.906 4.15679 0.35588 0
M  V30 834 H 73.536 3.11917 0.831122 0
M  V30 835 H 72.588 3.46779 -1.5636 0
M  V30 836 H 73.9 4.63293 -1.84827 0
M  V30 837 H 73.054 6.06696 0.0206623 0
M  V30 838 H 71.793 4.86045 0.401438 0
M  V30 839 H 70.798 5.16544 -1.88316 0
M  V30 840 H 72.023 6.40542 -2.25571 0
M  V30 841 H 69.969 6.55998 -0.0170186 0
M  V30 842 H 69.886 7.40386 -1.52856 0
M  V30 843 H 71.154 7.78463 -0.401999 0
M  V30 844 N 75.3831 0.828654 1.34056 0
M  V30 845 C 76.6291 0.42008 1.98402 0
M  V30 846 C 76.9621 -1.01564 1.65525 0
M  V30 847 O 76.2371 -1.70834 0.929831 0
M  V30 848 C 76.5201 0.62927 3.54559 0
M  V30 849 C 76.3731 2.11152 3.97159 0
M  V30 850 C 77.6921 0.0688756 4.40046 0
M  V30 851 H 74.8111 0.154104 0.720709 0
M  V30 852 H 77.4531 1.04228 1.5886 0
M  V30 853 H 75.6031 0.0996418 3.88372 0
M  V30 854 H 77.2751 2.70522 3.73651 0
M  V30 855 H 75.5181 2.59985 3.47261 0
M  V30 856 H 76.1891 2.20868 5.05887 0
M  V30 857 H 78.6651 0.521458 4.1282 0
M  V30 858 H 77.5411 0.245006 5.48353 0
M  V30 859 H 77.8021 -1.0266 4.30015 0
M  V30 860 N 76.8612 -1.46375 0.584142 0
M  V30 861 C 77.8082 -2.30323 -0.148286 0
M  V30 862 C 78.7782 -1.40703 -0.882713 0
M  V30 863 O 79.9632 -1.69651 -0.873099 0
M  V30 864 C 77.1032 -3.25196 -1.15507 0
M  V30 865 C 76.2162 -4.29915 -0.423943 0
M  V30 866 C 75.3512 -5.11914 -1.41838 0
M  V30 867 C 74.3902 -6.08381 -0.673736 0
M  V30 868 N 73.5272 -6.83242 -1.6163 0
M  V30 869 H 78.3672 -2.92427 0.573644 0
M  V30 870 H 75.9042 -1.44118 0.294703 0
M  V30 871 H 77.8622 -3.78646 -1.75166 0
M  V30 872 H 76.4922 -2.64898 -1.8447 0
M  V30 873 H 75.5442 -3.7931 0.287714 0
M  V30 874 H 76.8562 -4.98549 0.158128 0
M  V30 875 H 76.0102 -5.69648 -2.08773 0
M  V30 876 H 74.7492 -4.43243 -2.03438 0
M  V30 877 H 73.7542 -5.49799 0.00938483 0
M  V30 878 H 74.9792 -6.79071 -0.0631082 0
M  V30 879 H 72.9252 -6.1728 -2.22038 0
M  V30 880 H 72.8422 -7.48144 -1.08707 0
M  V30 881 H 74.1102 -7.45534 -2.27596 0
M  V30 882 N 78.3393 -0.321999 -1.54275 0
M  V30 883 C 79.5693 0.282642 -2.04658 0
M  V30 884 C 79.9773 1.46453 -1.19784 0
M  V30 885 O 79.3203 1.82367 -0.220932 0
M  V30 886 C 79.3823 0.781857 -3.50895 0
M  V30 887 C 79.0463 -0.277517 -4.56157 0
M  V30 888 C 80.0433 -1.11307 -5.07845 0
M  V30 889 C 77.7283 -0.425256 -5.00497 0
M  V30 890 C 79.7223 -2.08211 -6.02434 0
M  V30 891 C 77.4093 -1.39771 -5.94901 0
M  V30 892 C 78.4073 -2.2246 -6.45756 0
M  V30 893 O 78.0953 -3.18054 -7.38307 0
M  V30 894 H 77.8273 0.0622636 -0.673126 0
M  V30 895 H 80.3813 -0.465792 -2.00049 0
M  V30 896 H 78.6113 1.58118 -3.52896 0
M  V30 897 H 80.3003 1.30467 -3.84361 0
M  V30 898 H 81.0663 -1.00991 -4.74369 0
M  V30 899 H 76.9453 0.20847 -4.60528 0
M  V30 900 H 80.4893 -2.72791 -6.42052 0
M  V30 901 H 76.3863 -1.50152 -6.27794 0
M  V30 902 H 77.1543 -3.13275 -7.56175 0
M  V30 903 N 79.8174 1.5752 -0.0501392 0
M  V30 904 C 80.7274 2.14952 0.939827 0
M  V30 905 C 81.7434 1.10706 1.34239 0
M  V30 906 O 82.9194 1.42869 1.41952 0
M  V30 907 C 79.9844 2.68232 2.19665 0
M  V30 908 C 79.0454 3.87272 1.85253 0
M  V30 909 C 78.2784 4.38002 3.04943 0
M  V30 910 O 78.5014 3.87811 4.18281 0
M  V30 911 O 77.4354 5.29602 2.86017 0
M  V30 912 H 81.2614 2.9986 0.481392 0
M  V30 913 H 78.8464 1.4841 0.171699 0
M  V30 914 H 80.7284 3.02475 2.93406 0
M  V30 915 H 79.4034 1.86395 2.64648 0
M  V30 916 H 78.3104 3.5792 1.0883 0
M  V30 917 H 79.6434 4.70336 1.4507 0
M  V30 918 N 81.2955 -0.223234 1.56011 0
M  V30 919 C 82.2055 -1.29766 1.95443 0
M  V30 920 C 83.2215 -1.51373 0.858028 0
M  V30 921 O 84.3975 -1.64536 1.16146 0
M  V30 922 C 81.4625 -2.62772 2.26167 0
M  V30 923 C 80.5235 -2.49482 3.49367 0
M  V30 924 C 79.7565 -3.76145 3.78616 0
M  V30 925 O 79.9795 -4.79087 3.09568 0
M  V30 926 O 78.9135 -3.73358 4.72109 0
M  V30 927 H 82.7395 -0.99309 2.87004 0
M  V30 928 H 80.3245 -0.425958 1.43199 0
M  V30 929 H 82.2065 -3.41327 2.47131 0
M  V30 930 H 80.8815 -2.92913 1.37781 0
M  V30 931 H 79.7885 -1.69133 3.33684 0
M  V30 932 H 81.1215 -2.2428 4.38131 0
M  V30 933 N 82.7736 -1.49793 -0.48987 0
M  V30 934 C 84.0016 -1.63568 -1.26701 0
M  V30 935 C 84.4166 -0.311465 -1.86213 0
M  V30 936 O 83.7736 0.704416 -1.68357 0
M  V30 937 C 83.8246 -2.71284 -2.38929 0
M  V30 938 O 83.5456 -3.9857 -1.81861 0
M  V30 939 C 85.0466 -2.95864 -3.3012 0
M  V30 940 H 82.2666 -0.550342 -0.383881 0
M  V30 941 H 84.8106 -1.95898 -0.586864 0
M  V30 942 H 82.9656 -2.417 -3.02753 0
M  V30 943 H 83.3796 -4.57993 -2.55622 0
M  V30 944 H 84.8536 -3.74941 -4.05121 0
M  V30 945 H 85.3306 -2.06206 -3.87783 0
M  V30 946 H 85.9366 -3.26907 -2.72051 0
M  V30 947 N 84.2517 0.741722 -1.39055 0
M  V30 948 C 85.4977 1.50336 -1.36113 0
M  V30 949 C 85.8307 1.94148 0.0450796 0
M  V30 950 O 85.1057 1.66301 1.00868 0
M  V30 951 C 85.3887 2.74773 -2.32749 0
M  V30 952 C 85.2417 2.37023 -3.82283 0
M  V30 953 C 86.5607 3.76846 -2.27322 0
M  V30 954 H 83.6797 0.545351 -0.495743 0
M  V30 955 H 86.3217 0.848624 -1.69995 0
M  V30 956 H 84.4717 3.30639 -2.03986 0
M  V30 957 H 86.1437 1.8684 -4.21768 0
M  V30 958 H 84.3867 1.69334 -3.99385 0
M  V30 959 H 85.0577 3.26104 -4.45376 0
M  V30 960 H 87.5337 3.30548 -2.5274 0
M  V30 961 H 86.4097 4.6159 -2.97028 0
M  V30 962 H 86.6707 4.23286 -1.27599 0
M  V30 963 N 85.7298 1.2412 0.971189 0
M  V30 964 C 86.9768 1.07881 1.71371 0
M  V30 965 C 87.3048 -0.382901 1.90694 0
M  V30 966 O 86.5598 -1.29945 1.46331 0
M  V30 967 C 86.8588 1.75983 3.11071 0
M  V30 968 C 86.5248 3.25909 3.11599 0
M  V30 969 C 85.1868 3.66813 3.11451 0
M  V30 970 C 87.5388 4.21771 3.062 0
M  V30 971 C 84.8668 5.02021 3.03631 0
M  V30 972 C 87.2188 5.56982 2.99923 0
M  V30 973 C 85.8828 5.97237 2.98102 0
M  V30 974 H 85.1528 0.394764 0.62709 0
M  V30 975 H 87.7998 1.54176 1.13587 0
M  V30 976 H 86.1048 1.22072 3.72298 0
M  V30 977 H 87.8018 1.60887 3.6731 0
M  V30 978 H 84.3918 2.93353 3.12477 0
M  V30 979 H 88.5758 3.91172 3.05447 0
M  V30 980 H 83.8318 5.32411 3.0058 0
M  V30 981 H 88.0058 6.30969 2.94704 0
M  V30 982 H 85.6328 7.01967 2.91798 0
M  V30 983 N 87.2079 -1.17134 1.05439 0
M  V30 984 C 88.4379 -1.91094 0.785274 0
M  V30 985 C 88.8459 -1.77198 -0.663142 0
M  V30 986 O 88.1889 -1.10835 -1.46497 0
M  V30 987 C 88.2509 -3.42594 1.08949 0
M  V30 988 C 87.9149 -3.80274 2.53458 0
M  V30 989 C 88.9119 -3.82912 3.51673 0
M  V30 990 C 86.5969 -4.11162 2.88532 0
M  V30 991 C 88.5909 -4.15913 4.83006 0
M  V30 992 C 86.2779 -4.43831 4.20068 0
M  V30 993 C 87.2759 -4.46185 5.17115 0
M  V30 994 O 86.9639 -4.78083 6.46291 0
M  V30 995 H 86.6959 -0.613073 0.284811 0
M  V30 996 H 89.2499 -1.49461 1.40893 0
M  V30 997 H 87.4799 -3.84534 0.408741 0
M  V30 998 H 89.1689 -3.97817 0.805991 0
M  V30 999 H 89.9349 -3.5917 3.25917 0
M  V30 1000 H 85.8139 -4.085 2.13656 0
M  V30 1001 H 89.3579 -4.17665 5.5875 0
M  V30 1002 H 85.2549 -4.67037 4.45586 0
M  V30 1003 H 86.0229 -4.9593 6.51149 0
M  V30 1004 N 88.686 -0.835752 -1.33615 0
M  V30 1005 C 89.934 -0.429109 -1.97492 0
M  V30 1006 C 90.255 1.01433 -1.66543 0
M  V30 1007 O 89.525 1.70611 -0.962744 0
M  V30 1008 H 88.105 -0.155686 -0.730596 0
M  V30 1009 H 90.767 -1.06802 -1.63031 0
M  V30 1010 H 89.863 -0.55861 -3.0706 0
M  V30 1011 N 90.1641 1.46063 -0.591896 0
M  V30 1012 C 91.0941 2.33172 0.123673 0
M  V30 1013 C 92.0751 1.45897 0.87453 0
M  V30 1014 O 93.2601 1.74698 0.848181 0
M  V30 1015 C 90.3901 3.28336 1.13194 0
M  V30 1016 C 89.3441 4.25124 0.495324 0
M  V30 1017 C 88.6701 5.09863 1.61071 0
M  V30 1018 C 89.9701 5.19143 -0.573425 0
M  V30 1019 H 91.6641 2.93252 -0.603646 0
M  V30 1020 H 89.2101 1.41014 -0.291741 0
M  V30 1021 H 91.1631 3.88137 1.64097 0
M  V30 1022 H 89.8871 2.66383 1.88965 0
M  V30 1023 H 88.5461 3.66599 0.00729452 0
M  V30 1024 H 88.1941 4.44288 2.35832 0
M  V30 1025 H 87.8941 5.75417 1.19035 0
M  V30 1026 H 89.4181 5.72529 2.12233 0
M  V30 1027 H 90.8321 5.73106 -0.1491 0
M  V30 1028 H 89.2291 5.93089 -0.914636 0
M  V30 1029 H 90.2991 4.62519 -1.45617 0
M  V30 1030 N 91.6422 0.330177 1.54103 0
M  V30 1031 C 92.5742 -0.566902 2.22079 0
M  V30 1032 C 93.5872 -1.07462 1.22294 0
M  V30 1033 O 94.7762 -0.987065 1.48726 0
M  V30 1034 C 91.8762 -1.79138 2.87685 0
M  V30 1035 C 91.0492 -1.42123 4.13666 0
M  V30 1036 C 90.1082 -2.50394 4.62806 0
M  V30 1037 O 89.1342 -2.14261 5.27334 0
M  V30 1038 N 90.3362 -3.81433 4.37595 0
M  V30 1039 H 93.1012 0.0151844 2.99696 0
M  V30 1040 H 90.6622 0.153681 1.61169 0
M  V30 1041 H 92.6542 -2.50975 3.1748 0
M  V30 1042 H 91.2242 -2.28115 2.13734 0
M  V30 1043 H 90.4442 -0.534201 3.90564 0
M  V30 1044 H 91.7322 -1.14971 4.9564 0
M  V30 1045 H 91.1302 -4.13584 3.8596 0
M  V30 1046 H 89.6872 -4.4948 4.72029 0
M  V30 1047 N 93.1203 -1.57491 0.0584922 0
M  V30 1048 C 94.3503 -1.9701 -0.622134 0
M  V30 1049 C 94.7583 -0.935034 -1.6448 0
M  V30 1050 O 94.1013 0.0882904 -1.83488 0
M  V30 1051 C 94.1633 -3.32794 -1.35972 0
M  V30 1052 C 93.8273 -4.54343 -0.492043 0
M  V30 1053 C 94.8243 -5.19323 0.244901 0
M  V30 1054 C 92.5093 -5.00534 -0.420821 0
M  V30 1055 C 94.5033 -6.28835 1.04143 0
M  V30 1056 C 92.1903 -6.09921 0.379389 0
M  V30 1057 C 93.1883 -6.73933 1.10919 0
M  V30 1058 O 92.8763 -7.81216 1.89623 0
M  V30 1059 H 92.6083 -0.653127 -0.174359 0
M  V30 1060 H 95.1623 -2.05029 0.123418 0
M  V30 1061 H 93.3923 -3.21351 -2.15105 0
M  V30 1062 H 95.0813 -3.5701 -1.93129 0
M  V30 1063 H 95.8473 -4.8459 0.19939 0
M  V30 1064 H 91.7263 -4.50496 -0.978474 0
M  V30 1065 H 95.2703 -6.7873 1.61157 0
M  V30 1066 H 91.1673 -6.44089 0.426512 0
M  V30 1067 H 91.9353 -7.98029 1.81913 0
M  V30 1068 N 94.5984 0.214957 -1.56127 0
M  V30 1069 C 95.8474 0.936451 -1.78643 0
M  V30 1070 C 96.1604 1.85237 -0.628229 0
M  V30 1071 O 97.3664 2.613 -0.737186 0
M  V30 1072 C 95.8224 1.7154 -3.16389 0
M  V30 1073 C 95.4304 0.845299 -4.39953 0
M  V30 1074 C 97.1744 2.42772 -3.48227 0
M  V30 1075 C 95.0814 1.62198 -5.68723 0
M  V30 1076 H 94.0114 0.353401 -0.666051 0
M  V30 1077 H 96.6624 0.190169 -1.82512 0
M  V30 1078 H 95.0444 2.50484 -3.06715 0
M  V30 1079 H 96.2184 0.0959353 -4.607 0
M  V30 1080 H 94.5334 0.244789 -4.1568 0
M  V30 1081 H 97.1304 3.01394 -4.41663 0
M  V30 1082 H 97.4734 3.15984 -2.71035 0
M  V30 1083 H 98.0064 1.70813 -3.5926 0
M  V30 1084 H 94.7454 0.933011 -6.48826 0
M  V30 1085 H 94.2654 2.34579 -5.52026 0
M  V30 1086 H 95.9444 2.18095 -6.09133 0
M  V30 1087 N 96.0765 1.50051 0.48192 0
M  V30 1088 C 97.0065 1.71046 1.58951 0
M  V30 1089 C 97.9875 0.559288 1.60642 0
M  V30 1090 O 99.1725 0.797243 1.77081 0
M  V30 1091 C 96.3025 1.79462 2.97339 0
M  V30 1092 C 95.2565 2.94558 3.10515 0
M  V30 1093 C 94.5825 2.88105 4.50444 0
M  V30 1094 C 95.8825 4.35227 2.88747 0
M  V30 1095 H 97.5765 2.6378 1.41635 0
M  V30 1096 H 95.1225 1.26936 0.679942 0
M  V30 1097 H 97.0755 1.92734 3.74742 0
M  V30 1098 H 95.7995 0.833412 3.15788 0
M  V30 1099 H 94.4585 2.80918 2.35543 0
M  V30 1100 H 94.1065 1.89853 4.65795 0
M  V30 1101 H 93.8065 3.65366 4.60197 0
M  V30 1102 H 95.3305 3.03412 5.29881 0
M  V30 1103 H 96.7445 4.49449 3.55905 0
M  V30 1104 H 95.1415 5.13856 3.09955 0
M  V30 1105 H 96.2115 4.48347 1.84696 0
M  V30 1106 N 97.5546 -0.734337 1.39446 0
M  V30 1107 C 98.5026 -1.86971 1.38364 0
M  V30 1108 C 99.4966 -1.67288 0.266687 0
M  V30 1109 O 100.703 -1.74621 0.436755 0
M  V30 1110 H 97.0776 -0.615474 0.432082 0
M  V30 1111 H 99.0486 -1.85 2.34132 0
M  V30 1112 C 97.7976 -3.2466 1.24465 0
M  V30 1113 H 97.1206 -3.40402 2.09682 0
M  V30 1114 H 98.5606 -4.04292 1.27764 0
M  V30 1115 C 97.0196 -3.36867 -0.0468674 0
M  V30 1116 O 97.5496 -3.88618 -1.01681 0
M  V30 1117 N 95.7556 -2.90391 -0.110145 0
M  V30 1118 H 95.3026 -2.48466 0.679868 0
M  V30 1119 H 95.2606 -2.98939 -0.973799 0
M  V30 1120 N 99.0327 -1.24633 -0.964593 0
M  V30 1121 C 99.9797 -1.04144 -2.05968 0
M  V30 1122 C 100.95 0.046262 -1.66036 0
M  V30 1123 O 102.135 -0.108972 -1.90489 0
M  V30 1124 C 99.2747 -0.65563 -3.38815 0
M  V30 1125 C 98.3877 -1.81714 -3.91923 0
M  V30 1126 C 97.5227 -1.37662 -5.13052 0
M  V30 1127 C 96.5617 -2.50788 -5.58365 0
M  V30 1128 N 95.6987 -2.07582 -6.70712 0
M  V30 1129 H 100.539 -1.9787 -2.22827 0
M  V30 1130 H 98.0757 -0.9855 -1.09208 0
M  V30 1131 H 100.034 -0.412954 -4.15151 0
M  V30 1132 H 98.6637 0.244627 -3.21872 0
M  V30 1133 H 97.7157 -2.1734 -3.12198 0
M  V30 1134 H 99.0277 -2.66705 -4.21509 0
M  V30 1135 H 98.1817 -1.093 -5.96773 0
M  V30 1136 H 96.9207 -0.497293 -4.85158 0
M  V30 1137 H 95.9257 -2.79906 -4.73215 0
M  V30 1138 H 97.1507 -3.39283 -5.88272 0
M  V30 1139 H 95.0967 -1.22051 -6.44546 0
M  V30 1140 H 95.0137 -2.86125 -6.99763 0
M  V30 1141 H 96.2817 -1.82369 -7.57867 0
M  V30 1142 N 100.511 1.16574 -1.06058 0
M  V30 1143 C 101.741 1.90675 -0.795397 0
M  V30 1144 C 102.149 1.77547 0.653735 0
M  V30 1145 O 101.492 1.11611 1.45907 0
M  V30 1146 C 101.554 3.42011 -1.10764 0
M  V30 1147 C 101.218 3.78924 -2.55471 0
M  V30 1148 C 102.215 3.81042 -3.53699 0
M  V30 1149 C 99.8998 4.09626 -2.90708 0
M  V30 1150 C 101.894 4.13346 -4.85205 0
M  V30 1151 C 99.5808 4.41597 -4.22416 0
M  V30 1152 C 100.579 4.43436 -5.19474 0
M  V30 1153 O 100.267 4.74649 -6.48817 0
M  V30 1154 H 99.9988 0.611554 -0.288058 0
M  V30 1155 H 102.553 1.48711 -1.41683 0
M  V30 1156 H 100.783 3.84312 -0.429128 0
M  V30 1157 H 102.472 3.97384 -0.827077 0
M  V30 1158 H 103.238 3.57437 -3.27817 0
M  V30 1159 H 99.1168 4.07361 -2.15819 0
M  V30 1160 H 102.661 4.14696 -5.60957 0
M  V30 1161 H 98.5578 4.64667 -4.48056 0
M  V30 1162 H 99.3258 4.9247 -6.5377 0
M  V30 1163 N 101.989 0.842826 1.3317 0
M  V30 1164 C 102.919 0.294028 2.31641 0
M  V30 1165 C 103.9 -0.600401 1.59151 0
M  V30 1166 O 105.085 -0.523124 1.87022 0
M  V30 1167 C 102.215 -0.528416 3.43257 0
M  V30 1168 C 101.169 0.27056 4.27144 0
M  V30 1169 C 100.495 -0.675881 5.30411 0
M  V30 1170 C 101.795 1.48981 5.00602 0
M  V30 1171 H 103.489 1.11681 2.77791 0
M  V30 1172 H 101.035 0.538478 1.33553 0
M  V30 1173 H 102.988 -0.922674 4.11175 0
M  V30 1174 H 101.712 -1.38445 2.95805 0
M  V30 1175 H 100.371 0.646427 3.60856 0
M  V30 1176 H 100.019 -1.52842 4.79216 0
M  V30 1177 H 99.7189 -0.145374 5.8742 0
M  V30 1178 H 101.243 -1.06757 6.01195 0
M  V30 1179 H 102.657 1.16849 5.61266 0
M  V30 1180 H 101.054 1.95739 5.6728 0
M  V30 1181 H 102.124 2.25746 4.29147 0
M  V30 1182 N 103.467 -1.45747 0.599634 0
M  V30 1183 C 104.414 -2.30467 -0.123849 0
M  V30 1184 C 105.384 -1.41632 -0.86774 0
M  V30 1185 O 106.569 -1.70568 -0.855056 0
M  V30 1186 C 103.709 -3.26402 -1.12051 0
M  V30 1187 C 102.822 -4.3034 -0.37832 0
M  V30 1188 C 101.957 -5.13389 -1.364 0
M  V30 1189 C 100.996 -6.09061 -0.609171 0
M  V30 1190 N 100.133 -6.84918 -1.54374 0
M  V30 1191 H 104.973 -2.91802 0.604627 0
M  V30 1192 H 102.51 -1.43797 0.309972 0
M  V30 1193 H 104.468 -3.80482 -1.7114 0
M  V30 1194 H 103.098 -2.66839 -1.8165 0
M  V30 1195 H 102.15 -3.78984 0.327929 0
M  V30 1196 H 103.462 -4.98354 0.210997 0
M  V30 1197 H 102.616 -5.7183 -2.02719 0
M  V30 1198 H 101.355 -4.45376 -1.98725 0
M  V30 1199 H 100.36 -5.49758 0.0676979 0
M  V30 1200 H 101.585 -6.79099 0.00891991 0
M  V30 1201 H 99.531 -6.19601 -2.15478 0
M  V30 1202 H 99.448 -7.49254 -1.00766 0
M  V30 1203 H 100.716 -7.47906 -2.19676 0
M  V30 1204 N 104.945 -0.338344 -1.53925 0
M  V30 1205 C 106.193 0.259245 -2.0043 0
M  V30 1206 C 106.514 1.51484 -1.22791 0
M  V30 1207 O 105.784 1.93037 -0.33368 0
M  V30 1208 H 104.364 0.0987845 -0.740439 0
M  V30 1209 H 107.026 -0.458302 -1.89435 0
M  V30 1210 H 106.122 0.505334 -3.07982 0
M  V30 1211 N 106.423 1.57458 -0.0668435 0
M  V30 1212 C 107.37 2.12439 0.902122 0
M  V30 1213 C 108.34 1.03565 1.2986 0
M  V30 1214 O 109.525 1.312 1.38532 0
M  V30 1215 C 106.665 2.6865 2.16614 0
M  V30 1216 C 105.778 3.91663 1.82274 0
M  V30 1217 C 104.913 4.36134 3.0325 0
M  V30 1218 C 103.952 5.51808 2.64904 0
M  V30 1219 N 103.089 5.9126 3.78624 0
M  V30 1220 H 107.929 2.94934 0.426382 0
M  V30 1221 H 105.466 1.4575 0.198819 0
M  V30 1222 H 107.424 2.99346 2.90599 0
M  V30 1223 H 106.054 1.88928 2.61737 0
M  V30 1224 H 105.106 3.6746 0.983719 0
M  V30 1225 H 106.418 4.75693 1.50059 0
M  V30 1226 H 105.572 4.68465 3.85519 0
M  V30 1227 H 104.311 3.50948 3.38655 0
M  V30 1228 H 103.316 5.19133 1.81055 0
M  V30 1229 H 104.541 6.38722 2.30675 0
M  V30 1230 H 102.487 5.09024 4.138 0
M  V30 1231 H 102.404 6.70018 3.5016 0
M  V30 1232 H 103.672 6.28212 4.61486 0
M  V30 1233 N 107.901 -0.206675 1.56239 0
M  V30 1234 C 109.147 -0.930218 1.80208 0
M  V30 1235 C 109.48 -1.83387 0.638981 0
M  V30 1236 O 108.755 -1.91119 -0.361066 0
M  V30 1237 C 109.038 -1.75641 3.1436 0
M  V30 1238 C 108.891 -0.878257 4.41142 0
M  V30 1239 C 110.21 -2.73129 3.45092 0
M  V30 1240 H 107.329 -0.336742 0.655571 0
M  V30 1241 H 109.971 -0.198222 1.88963 0
M  V30 1242 H 108.121 -2.38048 3.07027 0
M  V30 1243 H 109.793 -0.269787 4.6051 0
M  V30 1244 H 108.036 -0.184385 4.33408 0
M  V30 1245 H 108.707 -1.49106 5.3148 0
M  V30 1246 H 111.183 -2.20856 3.52649 0
M  V30 1247 H 110.059 -3.28028 4.40101 0
M  V30 1248 H 110.32 -3.51606 2.68003 0
M  V30 1249 N 109.379 -1.50304 -0.473955 0
M  V30 1250 C 110.625 -1.61389 -1.22806 0
M  V30 1251 C 110.958 -0.311955 -1.91678 0
M  V30 1252 O 110.233 0.686384 -1.81986 0
M  V30 1253 C 110.516 -2.79219 -2.27396 0
M  V30 1254 C 110.369 -4.19286 -1.62848 0
M  V30 1255 C 111.688 -2.92614 -3.28732 0
M  V30 1256 H 108.807 -0.587399 -0.445119 0
M  V30 1257 H 111.449 -1.82681 -0.522265 0
M  V30 1258 H 109.599 -2.61195 -2.87592 0
M  V30 1259 H 111.271 -4.48892 -1.06271 0
M  V30 1260 H 109.514 -4.23677 -0.931693 0
M  V30 1261 H 110.185 -4.97655 -2.38838 0
M  V30 1262 H 112.661 -3.09105 -2.78556 0
M  V30 1263 H 111.537 -3.76688 -3.99246 0
M  V30 1264 H 111.798 -2.03107 -3.92683 0
M  V30 1265 N 110.857 0.726932 -1.39834 0
M  V30 1266 C 112.085 1.51613 -1.40787 0
M  V30 1267 C 112.5 1.88799 -0.00451505 0
M  V30 1268 O 111.857 1.54662 0.968809 0
M  V30 1269 C 111.908 2.79863 -2.28821 0
M  V30 1270 O 111.629 2.44253 -3.63692 0
M  V30 1271 C 113.13 3.73837 -2.38245 0
M  V30 1272 H 110.35 0.468264 -0.480593 0
M  V30 1273 H 112.894 0.897607 -1.83748 0
M  V30 1274 H 111.049 3.38027 -1.89252 0
M  V30 1275 H 111.463 3.26695 -4.1033 0
M  V30 1276 H 112.937 4.60699 -3.04073 0
M  V30 1277 H 113.414 4.16153 -1.40403 0
M  V30 1278 H 114.02 3.21589 -2.78317 0
M  V30 1279 N 112.336 1.25143 0.95797 0
M  V30 1280 C 113.283 1.05235 2.05412 0
M  V30 1281 C 114.253 -0.0374561 1.66058 0
M  V30 1282 O 115.438 0.119073 1.90428 0
M  V30 1283 C 112.578 0.673589 3.38462 0
M  V30 1284 C 111.691 1.8379 3.90954 0
M  V30 1285 C 110.826 1.40381 5.12315 0
M  V30 1286 C 109.865 2.53746 5.57027 0
M  V30 1287 N 109.002 2.11136 6.69601 0
M  V30 1288 H 113.842 1.99048 2.21774 0
M  V30 1289 H 111.379 0.991277 1.08683 0
M  V30 1290 H 113.337 0.434964 4.14926 0
M  V30 1291 H 111.967 -0.227554 3.21997 0
M  V30 1292 H 111.019 2.18992 3.11041 0
M  V30 1293 H 112.331 2.68937 4.20089 0
M  V30 1294 H 111.485 1.12464 5.96185 0
M  V30 1295 H 110.224 0.523015 4.84887 0
M  V30 1296 H 109.229 2.82412 4.71724 0
M  V30 1297 H 110.454 3.42398 5.86464 0
M  V30 1298 H 108.4 1.25468 6.4389 0
M  V30 1299 H 108.317 2.89832 6.98236 0
M  V30 1300 H 109.585 1.86385 7.56889 0
M  V30 1301 N 113.814 -1.1601 1.06675 0
M  V30 1302 C 114.724 -2.24156 0.692179 0
M  V30 1303 C 115.74 -1.71507 -0.293513 0
M  V30 1304 O 116.916 -2.009 -0.141861 0
M  V30 1305 C 113.981 -3.46587 0.0884131 0
M  V30 1306 C 113.042 -4.14257 1.12646 0
M  V30 1307 C 112.275 -5.30844 0.551416 0
M  V30 1308 O 112.498 -5.66858 -0.634656 0
M  V30 1309 O 111.432 -5.87848 1.29298 0
M  V30 1310 H 115.258 -2.58513 1.59388 0
M  V30 1311 H 112.843 -1.23599 0.83926 0
M  V30 1312 H 114.725 -4.20679 -0.246361 0
M  V30 1313 H 113.4 -3.13994 -0.786712 0
M  V30 1314 H 112.307 -3.42118 1.51348 0
M  V30 1315 H 113.64 -4.50914 1.97325 0
M  V30 1316 N 115.292 -0.849877 -1.32721 0
M  V30 1317 C 116.239 -0.289033 -2.28983 0
M  V30 1318 C 117.209 0.601324 -1.54833 0
M  V30 1319 O 118.394 0.537253 -1.8308 0
M  V30 1320 C 115.534 0.520623 -3.4115 0
M  V30 1321 C 114.647 -0.394989 -4.3019 0
M  V30 1322 C 113.782 0.426834 -5.29482 0
M  V30 1323 C 112.821 -0.486476 -6.10164 0
M  V30 1324 N 111.958 0.297879 -7.01468 0
M  V30 1325 H 116.798 -1.11519 -2.76347 0
M  V30 1326 H 114.335 -0.56138 -1.35967 0
M  V30 1327 H 116.293 1.00563 -4.04899 0
M  V30 1328 H 114.923 1.31165 -2.9495 0
M  V30 1329 H 113.975 -0.99836 -3.67065 0
M  V30 1330 H 115.287 -1.09612 -4.86607 0
M  V30 1331 H 114.441 0.975205 -5.98811 0
M  V30 1332 H 113.18 1.16136 -4.73671 0
M  V30 1333 H 112.185 -1.04677 -5.39743 0
M  V30 1334 H 113.41 -1.21953 -6.6806 0
M  V30 1335 H 111.356 1.01558 -6.48091 0
M  V30 1336 H 111.273 -0.344318 -7.55216 0
M  V30 1337 H 112.541 0.828131 -7.75089 0
M  V30 1338 N 116.77 1.45427 -0.607355 0
M  V30 1339 C 118.019 2.01452 -0.100036 0
M  V30 1340 C 118.332 1.48159 1.27704 0
M  V30 1341 O 119.538 1.96159 1.87707 0
M  V30 1342 C 117.994 3.59672 -0.128158 0
M  V30 1343 C 117.602 4.21962 -1.50507 0
M  V30 1344 C 119.346 4.23262 0.323932 0
M  V30 1345 C 117.253 5.72333 -1.48959 0
M  V30 1346 H 116.183 0.75325 -0.0336299 0
M  V30 1347 H 118.834 1.66901 -0.76265 0
M  V30 1348 H 117.216 3.91411 0.601105 0
M  V30 1349 H 118.39 4.01796 -2.25602 0
M  V30 1350 H 116.705 3.70565 -1.89923 0
M  V30 1351 H 119.302 5.33522 0.354691 0
M  V30 1352 H 119.645 3.93921 1.34656 0
M  V30 1353 H 120.178 3.96239 -0.352056 0
M  V30 1354 H 116.917 6.06373 -2.48981 0
M  V30 1355 H 116.437 5.94691 -0.781214 0
M  V30 1356 H 118.116 6.35525 -1.21313 0
M  V30 1357 N 118.248 0.346503 1.53744 0
M  V30 1358 C 119.18 -0.543316 2.22667 0
M  V30 1359 C 120.193 -1.06159 1.23427 0
M  V30 1360 O 121.382 -0.971235 1.49764 0
M  V30 1361 C 118.482 -1.76076 2.89569 0
M  V30 1362 C 117.655 -1.37727 4.15151 0
M  V30 1363 C 116.714 -2.45471 4.65436 0
M  V30 1364 O 115.74 -2.08655 5.29577 0
M  V30 1365 N 116.942 -3.7677 4.41616 0
M  V30 1366 H 119.707 0.0469703 2.99663 0
M  V30 1367 H 117.268 0.170766 1.60997 0
M  V30 1368 H 119.26 -2.47593 3.20125 0
M  V30 1369 H 117.83 -2.25835 2.16142 0
M  V30 1370 H 117.05 -0.492746 3.91108 0
M  V30 1371 H 118.338 -1.09708 4.96832 0
M  V30 1372 H 117.736 -4.09467 3.90325 0
M  V30 1373 H 116.293 -4.44448 4.7677 0
M  V30 1374 N 119.726 -1.57421 0.075193 0
M  V30 1375 C 120.636 -2.1642 -0.905511 0
M  V30 1376 C 121.652 -1.12828 -1.32461 0
M  V30 1377 O 122.828 -1.45109 -1.39661 0
M  V30 1378 C 119.893 -2.71693 -2.15369 0
M  V30 1379 C 118.954 -3.90171 -1.79068 0
M  V30 1380 C 118.187 -4.42798 -2.97936 0
M  V30 1381 O 118.41 -3.94416 -4.12058 0
M  V30 1382 O 117.344 -5.34085 -2.77555 0
M  V30 1383 H 121.17 -3.00588 -0.433626 0
M  V30 1384 H 118.755 -1.48664 -0.148067 0
M  V30 1385 H 120.637 -3.07104 -2.88557 0
M  V30 1386 H 119.312 -1.90582 -2.61649 0
M  V30 1387 H 118.219 -3.59606 -1.03122 0
M  V30 1388 H 119.552 -4.72584 -1.37569 0
M  V30 1389 N 121.204 0.198386 -1.56346 0
M  V30 1390 C 122.167 1.22952 -1.93431 0
M  V30 1391 C 123.167 1.38611 -0.815092 0
M  V30 1392 O 124.357 1.36479 -1.08255 0
M  V30 1393 C 121.489 2.59946 -2.20546 0
M  V30 1394 H 122.682 0.912626 -2.85677 0
M  V30 1395 H 120.235 0.43977 -1.49986 0
M  V30 1396 H 120.97 2.96696 -1.30927 0
M  V30 1397 H 120.755 2.49953 -3.02102 0
M  V30 1398 H 122.245 3.3431 -2.50253 0
M  V30 1399 N 122.682 1.50554 0.465978 0
M  V30 1400 C 123.629 1.6979 1.56333 0
M  V30 1401 C 124.599 0.539239 1.57103 0
M  V30 1402 O 125.784 0.770401 1.74555 0
M  V30 1403 C 122.924 1.80273 2.94271 0
M  V30 1404 C 122.037 3.07674 3.0325 0
M  V30 1405 C 121.172 3.08922 4.32135 0
M  V30 1406 C 120.211 4.30755 4.34875 0
M  V30 1407 N 119.348 4.29714 5.55239 0
M  V30 1408 H 124.188 2.63472 1.39235 0
M  V30 1409 H 121.725 1.30602 0.676873 0
M  V30 1410 H 123.683 1.84332 3.74269 0
M  V30 1411 H 122.313 0.900258 3.09992 0
M  V30 1412 H 121.365 3.13062 2.16094 0
M  V30 1413 H 122.677 3.97642 3.01135 0
M  V30 1414 H 121.831 3.11738 5.20485 0
M  V30 1415 H 120.57 2.16792 4.36866 0
M  V30 1416 H 119.575 4.28146 3.44922 0
M  V30 1417 H 120.8 5.24117 4.31831 0
M  V30 1418 H 118.746 3.4044 5.60746 0
M  V30 1419 H 118.663 5.13456 5.54886 0
M  V30 1420 H 119.931 4.36683 6.457 0
M  V30 1421 N 124.16 -0.719506 1.40217 0
M  V30 1422 C 125.437 -1.47221 1.28784 0
M  V30 1423 C 125.817 -2.10883 -0.0956067 0
M  V30 1424 O 125.165 -1.99833 -1.10811 0
M  V30 1425 C 125.375 -2.5111 2.42373 0
M  V30 1426 C 126.723 -3.17053 2.82423 0
M  V30 1427 O 127.747 -2.61429 2.41937 0
M  V30 1428 O 126.606 -4.17742 3.52355 0
M  V30 1429 H 123.7 -0.654491 0.50554 0
M  V30 1430 H 126.246 -0.752014 1.52128 0
M  V30 1431 H 125.018 -2.02556 3.34793 0
M  V30 1432 H 124.641 -3.3067 2.20778 0
M  V30 1433 N 125.638 -1.25649 -0.95132 0
M  V30 1434 C 126.884 -1.10757 -1.69884 0
M  V30 1435 C 127.217 0.350061 -1.91019 0
M  V30 1436 O 126.492 1.25783 -1.48354 0
M  V30 1437 C 126.775 -1.86606 -3.07978 0
M  V30 1438 C 126.628 -3.40217 -2.94232 0
M  V30 1439 C 127.947 -1.65182 -4.07925 0
M  V30 1440 H 125.066 -0.40374 -0.616574 0
M  V30 1441 H 127.708 -1.54521 -1.10558 0
M  V30 1442 H 125.858 -1.49409 -3.58621 0
M  V30 1443 H 127.53 -3.87108 -2.50889 0
M  V30 1444 H 125.773 -3.67759 -2.30078 0
M  V30 1445 H 126.444 -3.88505 -3.92133 0
M  V30 1446 H 128.92 -1.9757 -3.66204 0
M  V30 1447 H 127.796 -2.20683 -5.02583 0
M  V30 1448 H 128.057 -0.593933 -4.38092 0
M  V30 1449 N 127.117 1.15442 -1.07289 0
M  V30 1450 C 128.347 1.89821 -0.815576 0
M  V30 1451 C 128.755 1.7823 0.634867 0
M  V30 1452 O 128.098 1.13152 1.44715 0
M  V30 1453 C 128.16 3.40817 -1.14385 0
M  V30 1454 C 127.824 3.76193 -2.59476 0
M  V30 1455 C 128.821 3.77269 -3.57721 0
M  V30 1456 C 126.506 4.0652 -2.95037 0
M  V30 1457 C 128.5 4.08176 -4.89562 0
M  V30 1458 C 126.187 4.37092 -4.27076 0
M  V30 1459 C 127.185 4.37902 -5.24148 0
M  V30 1460 O 126.873 4.67741 -6.53815 0
M  V30 1461 H 126.605 0.608465 -0.294528 0
M  V30 1462 H 129.159 1.472 -1.43252 0
M  V30 1463 H 127.389 3.83835 -0.469865 0
M  V30 1464 H 129.078 3.96485 -0.869179 0
M  V30 1465 H 129.844 3.5394 -3.3159 0
M  V30 1466 H 125.723 4.05049 -2.20128 0
M  V30 1467 H 129.267 4.08723 -5.65324 0
M  V30 1468 H 125.164 4.59889 -4.5296 0
M  V30 1469 H 125.932 4.85509 -6.58957 0
M  V30 1470 N 128.595 0.856903 1.32268 0
M  V30 1471 C 129.542 0.301172 2.28827 0
M  V30 1472 C 130.512 -0.593104 1.5515 0
M  V30 1473 O 131.697 -0.527537 1.83362 0
M  V30 1474 C 128.837 -0.502523 3.41422 0
M  V30 1475 C 127.95 0.417797 4.29975 0
M  V30 1476 C 127.085 -0.398749 5.29701 0
M  V30 1477 C 126.124 0.518827 6.09897 0
M  V30 1478 N 125.261 -0.260674 7.01616 0
M  V30 1479 H 130.101 1.12983 2.75751 0
M  V30 1480 H 127.638 0.568582 1.35667 0
M  V30 1481 H 129.596 -0.984141 4.05426 0
M  V30 1482 H 128.226 -1.29599 2.95642 0
M  V30 1483 H 127.278 1.01781 3.66531 0
M  V30 1484 H 128.59 1.12191 4.86019 0
M  V30 1485 H 127.744 -0.943435 5.9932 0
M  V30 1486 H 126.483 -1.13622 4.7428 0
M  V30 1487 H 125.488 1.07538 5.39181 0
M  V30 1488 H 126.713 1.25495 6.67404 0
M  V30 1489 H 124.659 -0.981198 6.4862 0
M  V30 1490 H 124.576 0.384364 7.55022 0
M  V30 1491 H 125.844 -0.787014 7.75517 0
M  V30 1492 N 130.073 -1.45103 0.615059 0
M  V30 1493 C 130.983 -2.34382 -0.101034 0
M  V30 1494 C 131.999 -1.51681 -0.852585 0
M  V30 1495 O 133.175 -1.8446 -0.808484 0
M  V30 1496 C 130.24 -3.29417 -1.08099 0
M  V30 1497 C 129.301 -4.28025 -0.330577 0
M  V30 1498 C 128.534 -5.1852 -1.26385 0
M  V30 1499 O 128.757 -5.12598 -2.50198 0
M  V30 1500 O 127.691 -5.97122 -0.756866 0
M  V30 1501 H 131.517 -2.97033 0.632855 0
M  V30 1502 H 129.102 -1.4461 0.375293 0
M  V30 1503 H 130.984 -3.87958 -1.6452 0
M  V30 1504 H 129.659 -2.69321 -1.79577 0
M  V30 1505 H 128.566 -3.73078 0.276283 0
M  V30 1506 H 129.899 -4.90997 0.343866 0
M  V30 1507 N 131.551 -0.354651 -1.53558 0
M  V30 1508 C 132.501 0.513179 -2.2215 0
M  V30 1509 C 133.485 1.05734 -1.21281 0
M  V30 1510 O 134.677 0.989202 -1.46778 0
M  V30 1511 C 131.806 1.65798 -3.00609 0
M  V30 1512 C 130.892 1.12722 -4.08845 0
M  V30 1513 N 131.283 0.318563 -5.04796 0
M  V30 1514 C 129.581 1.40307 -4.23356 0
M  V30 1515 C 130.282 0.0292224 -5.81693 0
M  V30 1516 N 129.258 0.623891 -5.40008 0
M  V30 1517 H 133.06 -0.111586 -2.93688 0
M  V30 1518 H 130.574 -0.162091 -1.61589 0
M  V30 1519 H 132.571 2.29176 -3.48258 0
M  V30 1520 H 131.231 2.28591 -2.306 0
M  V30 1521 H 132.242 -0.0413091 -5.17884 0
M  V30 1522 H 128.919 2.03458 -3.6457 0
M  V30 1523 H 130.309 -0.623808 -6.68998 0
M  V30 1524 N 133.029 1.57378 -0.0835403 0
M  V30 1525 C 134.276 1.9393 0.58287 0
M  V30 1526 C 134.604 0.964455 1.68904 0
M  V30 1527 O 133.859 -0.0179474 1.95692 0
M  V30 1528 C 134.158 3.37063 1.1884 0
M  V30 1529 C 133.824 4.50424 0.207194 0
M  V30 1530 C 132.486 4.81159 -0.0627115 0
M  V30 1531 C 134.838 5.19136 -0.463426 0
M  V30 1532 C 132.166 5.77939 -1.01012 0
M  V30 1533 C 134.518 6.16931 -1.39924 0
M  V30 1534 C 133.182 6.46078 -1.67749 0
M  V30 1535 H 132.452 0.70964 0.213287 0
M  V30 1536 H 135.099 1.90856 -0.156916 0
M  V30 1537 H 133.404 3.3666 2.00418 0
M  V30 1538 H 135.101 3.6264 1.71153 0
M  V30 1539 H 131.691 4.2646 0.427747 0
M  V30 1540 H 135.875 4.95576 -0.268034 0
M  V30 1541 H 131.131 5.98842 -1.23283 0
M  V30 1542 H 135.305 6.69273 -1.92476 0
M  V30 1543 H 132.932 7.2088 -2.41321 0
M  V30 1544 N 134.507 -0.190092 1.56449 0
M  V30 1545 C 135.439 -1.25973 1.91477 0
M  V30 1546 C 136.452 -1.41452 0.805931 0
M  V30 1547 O 137.641 -1.41789 1.08435 0
M  V30 1548 C 134.741 -2.63117 2.13594 0
M  V30 1549 C 133.914 -2.69182 3.4476 0
M  V30 1550 C 132.973 -3.87557 3.5593 0
M  V30 1551 O 131.999 -3.74427 4.28711 0
M  V30 1552 N 133.201 -5.03224 2.89388 0
M  V30 1553 H 135.966 -0.962394 2.83828 0
M  V30 1554 H 133.527 -0.379981 1.57378 0
M  V30 1555 H 135.519 -3.40742 2.1835 0
M  V30 1556 H 134.089 -2.85319 1.27719 0
M  V30 1557 H 133.309 -1.77793 3.51828 0
M  V30 1558 H 134.597 -2.70229 4.31107 0
M  V30 1559 H 133.995 -5.16791 2.30094 0
M  V30 1560 H 132.552 -5.78778 2.99764 0
M  V30 1561 N 135.985 -1.50799 -0.457987 0
M  V30 1562 C 137.262 -1.52968 -1.21902 0
M  V30 1563 C 137.642 -0.281906 -2.09209 0
M  V30 1564 O 136.99 0.734076 -2.16388 0
M  V30 1565 C 137.2 -2.8326 -2.03875 0
M  V30 1566 C 138.548 -3.34425 -2.6162 0
M  V30 1567 O 139.572 -2.8467 -2.14106 0
M  V30 1568 O 138.431 -4.21188 -3.48228 0
M  V30 1569 H 135.525 -0.614129 -0.553873 0
M  V30 1570 H 138.071 -1.63098 -0.468739 0
M  V30 1571 H 136.843 -3.65543 -1.39621 0
M  V30 1572 H 136.466 -2.76195 -2.8601 0
M  V30 1573 N 137.463 0.71206 -1.40597 0
M  V30 1574 C 138.74 1.46536 -1.29563 0
M  V30 1575 C 139.12 2.10931 0.0844217 0
M  V30 1576 O 138.468 2.00418 1.0975 0
M  V30 1577 C 138.678 2.49821 -2.43701 0
M  V30 1578 C 140.026 3.15551 -2.841 0
M  V30 1579 O 141.05 2.60142 -2.4332 0
M  V30 1580 O 139.909 4.15867 -3.54566 0
M  V30 1581 H 137.003 0.651801 -0.509004 0
M  V30 1582 H 139.549 0.743935 -1.52524 0
M  V30 1583 H 138.321 2.00778 -3.35863 0
M  V30 1584 H 137.944 3.29495 -2.22528 0
M  V30 1585 N 138.941 1.26152 0.944643 0
M  V30 1586 C 140.187 1.11657 1.69294 0
M  V30 1587 C 140.52 -0.339926 1.91202 0
M  V30 1588 O 139.795 -1.24994 1.49019 0
M  V30 1589 C 140.078 1.88236 3.06984 0
M  V30 1590 C 139.931 3.41772 2.92424 0
M  V30 1591 C 141.25 1.67343 4.07043 0
M  V30 1592 H 138.369 0.407004 0.614424 0
M  V30 1593 H 141.011 1.55106 1.09737 0
M  V30 1594 H 139.161 1.51308 3.57824 0
M  V30 1595 H 140.833 3.88433 2.48832 0
M  V30 1596 H 139.076 3.68974 2.28124 0
M  V30 1597 H 139.747 3.90579 3.90067 0
M  V30 1598 H 142.223 1.99509 3.65151 0
M  V30 1599 H 141.099 2.23346 5.01406 0
M  V30 1600 H 141.36 0.617158 4.37771 0
M  V30 1601 N 140.419 -1.14872 1.07899 0
M  V30 1602 C 141.666 -1.85789 0.805532 0
M  V30 1603 C 141.994 -1.82649 -0.668561 0
M  V30 1604 O 141.249 -1.24858 -1.50695 0
M  V30 1605 C 141.548 -3.34223 1.26609 0
M  V30 1606 C 141.214 -3.57555 2.74709 0
M  V30 1607 C 139.876 -3.63631 3.1516 0
M  V30 1608 C 142.228 -3.66803 3.70277 0
M  V30 1609 C 139.556 -3.76473 4.49983 0
M  V30 1610 C 141.908 -3.8117 5.04869 0
M  V30 1611 C 140.572 -3.85494 5.44932 0
M  V30 1612 H 139.842 -0.679849 0.294765 0
M  V30 1613 H 142.489 -1.3572 1.35101 0
M  V30 1614 H 140.794 -3.86536 0.640103 0
M  V30 1615 H 142.491 -3.87511 1.03132 0
M  V30 1616 H 139.081 -3.5347 2.42398 0
M  V30 1617 H 143.265 -3.61404 3.40149 0
M  V30 1618 H 138.521 -3.7808 4.80484 0
M  V30 1619 H 142.695 -3.87268 5.78789 0
M  V30 1620 H 140.322 -3.95197 6.49403 0
M  V30 1621 N 141.898 -0.863906 -1.31812 0
M  V30 1622 C 142.846 -0.30422 -2.30602 0
M  V30 1623 C 143.84 0.577419 -1.59255 0
M  V30 1624 O 145.046 0.464194 -1.73912 0
M  V30 1625 H 141.421 -0.0796877 -0.747766 0
M  V30 1626 H 143.392 -1.15148 -2.75288 0
M  V30 1627 C 142.141 0.484617 -3.44306 0
M  V30 1628 H 141.464 -0.18451 -3.99374 0
M  V30 1629 H 142.904 0.841664 -4.15562 0
M  V30 1630 C 141.363 1.6735 -2.92396 0
M  V30 1631 O 141.893 2.77273 -2.90659 0
M  V30 1632 N 140.099 1.50362 -2.48676 0
M  V30 1633 H 139.646 0.609402 -2.50288 0
M  V30 1634 H 139.604 2.30051 -2.14299 0
M  V30 1635 N 143.376 1.44774 -0.622745 0
M  V30 1636 C 144.286 2.34433 0.0886031 0
M  V30 1637 C 145.302 1.52131 0.844529 0
M  V30 1638 O 146.478 1.84886 0.798691 0
M  V30 1639 C 143.543 3.29986 1.0635 0
M  V30 1640 C 142.604 4.28195 0.307873 0
M  V30 1641 C 141.837 5.19183 1.23633 0
M  V30 1642 O 142.06 5.13918 2.47476 0
M  V30 1643 O 140.994 5.97515 0.725189 0
M  V30 1644 H 144.82 2.96693 -0.648599 0
M  V30 1645 H 142.405 1.44408 -0.382957 0
M  V30 1646 H 144.287 3.88825 1.6246 0
M  V30 1647 H 142.962 2.70269 1.78146 0
M  V30 1648 H 141.869 3.72927 -0.296064 0
M  V30 1649 H 143.202 4.90808 -0.3699 0
M  V30 1650 N 144.854 0.36279 1.53368 0
M  V30 1651 C 145.801 -0.485008 2.25646 0
M  V30 1652 C 146.771 -1.07982 1.2621 0
M  V30 1653 O 147.956 -1.11284 1.54986 0
M  V30 1654 C 145.096 -1.62023 3.04701 0
M  V30 1655 C 144.209 -1.05086 4.19024 0
M  V30 1656 C 143.344 -2.15496 4.85525 0
M  V30 1657 C 142.383 -1.5601 5.91884 0
M  V30 1658 N 141.52 -2.60241 6.52088 0
M  V30 1659 H 146.36 0.137864 2.97681 0
M  V30 1660 H 143.897 0.0798061 1.46883 0
M  V30 1661 H 145.855 -2.28887 3.48807 0
M  V30 1662 H 144.485 -2.2138 2.34927 0
M  V30 1663 H 143.537 -0.27259 3.79422 0
M  V30 1664 H 144.849 -0.575926 4.95464 0
M  V30 1665 H 144.003 -2.90186 5.32801 0
M  V30 1666 H 142.742 -2.66341 4.08551 0
M  V30 1667 H 141.747 -0.798338 5.43973 0
M  V30 1668 H 142.972 -1.05994 6.70777 0
M  V30 1669 H 140.918 -3.10304 5.77968 0
M  V30 1670 H 140.835 -2.17426 7.24059 0
M  V30 1671 H 142.103 -3.34641 7.04014 0
M  V30 1672 N 146.332 -1.57332 0.0918853 0
M  V30 1673 C 147.58 -1.93853 -0.571446 0
M  V30 1674 C 147.901 -0.974212 -1.6892 0
M  V30 1675 O 147.171 -0.0257254 -1.95883 0
M  V30 1676 H 145.751 -0.715666 -0.214082 0
M  V30 1677 H 148.413 -1.94287 0.154464 0
M  V30 1678 H 147.509 -2.96191 -0.983729 0
M  V30 1679 N 147.81 0.181792 -1.56548 0
M  V30 1680 C 149.056 0.896803 -1.82562 0
M  V30 1681 C 149.411 1.80324 -0.670908 0
M  V30 1682 O 148.704 1.8868 0.333235 0
M  V30 1683 C 148.898 1.73728 -3.12335 0
M  V30 1684 C 148.727 0.913714 -4.4032 0
M  V30 1685 C 147.497 0.592903 -5.01809 0
M  V30 1686 C 149.695 0.260164 -5.13642 0
M  V30 1687 N 147.677 -0.247901 -6.13399 0
M  V30 1688 C 149.048 -0.442256 -6.18421 0
M  V30 1689 C 151.103 0.177253 -4.97584 0
M  V30 1690 C 149.806 -1.21971 -7.08883 0
M  V30 1691 C 151.832 -0.586839 -5.88481 0
M  V30 1692 C 151.194 -1.27766 -6.92716 0
M  V30 1693 H 147.293 0.307122 -0.719166 0
M  V30 1694 H 149.877 0.164535 -1.94004 0
M  V30 1695 H 148.048 2.44105 -3.02105 0
M  V30 1696 H 149.78 2.39279 -3.26386 0
M  V30 1697 H 146.535 0.920502 -4.64568 0
M  V30 1698 H 146.959 -0.658304 -6.73792 0
M  V30 1699 H 151.601 0.696993 -4.17015 0
M  V30 1700 H 149.319 -1.75083 -7.88905 0
M  V30 1701 H 152.905 -0.652522 -5.78129 0
M  V30 1702 H 151.785 -1.85943 -7.61836 0
M  V30 1703 N 149.288 1.51039 0.449983 0
M  V30 1704 C 150.236 1.71995 1.5659 0
M  V30 1705 C 151.23 0.586029 1.5894 0
M  V30 1706 O 152.436 0.76709 1.62837 0
M  V30 1707 H 148.811 0.543233 0.520001 0
M  V30 1708 H 150.782 2.65562 1.36085 0
M  V30 1709 C 149.531 1.8506 2.9436 0
M  V30 1710 H 148.854 2.71712 2.93279 0
M  V30 1711 H 150.294 2.0374 3.71842 0
M  V30 1712 C 148.753 0.607277 3.31382 0
M  V30 1713 O 149.283 -0.243903 4.00959 0
M  V30 1714 N 147.489 0.455073 2.87015 0
M  V30 1715 H 147.036 1.14879 2.30566 0
M  V30 1716 H 146.994 -0.375611 3.12148 0
M  V30 1717 N 150.766 -0.704594 1.40972 0
M  V30 1718 C 151.996 -1.49138 1.42974 0
M  V30 1719 C 152.404 -1.89175 0.0308406 0
M  V30 1720 O 151.747 -1.56734 -0.958138 0
M  V30 1721 C 151.809 -2.79016 2.26694 0
M  V30 1722 C 151.473 -2.61236 3.74973 0
M  V30 1723 C 152.47 -2.27773 4.67349 0
M  V30 1724 C 150.155 -2.77158 4.18914 0
M  V30 1725 C 152.149 -2.10457 6.01653 0
M  V30 1726 C 149.836 -2.59459 5.53285 0
M  V30 1727 C 150.834 -2.26158 6.4447 0
M  V30 1728 O 150.522 -2.08605 7.76363 0
M  V30 1729 H 150.254 -0.466443 0.489292 0
M  V30 1730 H 152.808 -0.8758 1.85793 0
M  V30 1731 H 151.038 -3.42947 1.78673 0
M  V30 1732 H 152.727 -3.40782 2.20504 0
M  V30 1733 H 153.493 -2.15095 4.34694 0
M  V30 1734 H 149.372 -3.02064 3.48251 0
M  V30 1735 H 152.916 -1.84387 6.72791 0
M  V30 1736 H 148.813 -2.71725 5.85522 0
M  V30 1737 H 149.581 -2.23439 7.87412 0
M  V30 1738 N 152.244 -1.26651 -0.937939 0
M  V30 1739 C 153.493 -1.11775 -1.67897 0
M  V30 1740 C 153.806 0.33794 -1.92659 0
M  V30 1741 O 155.012 0.607434 -2.64618 0
M  V30 1742 C 153.468 -1.9523 -3.02346 0
M  V30 1743 C 153.076 -3.45393 -2.8532 0
M  V30 1744 C 154.82 -1.88972 -3.80118 0
M  V30 1745 C 152.727 -4.21083 -4.15263 0
M  V30 1746 H 151.657 -0.414696 -0.629717 0
M  V30 1747 H 154.308 -1.50988 -1.04283 0
M  V30 1748 H 152.69 -1.48853 -3.66959 0
M  V30 1749 H 153.864 -3.99561 -2.29537 0
M  V30 1750 H 152.179 -3.52921 -2.20988 0
M  V30 1751 H 154.776 -2.42805 -4.76392 0
M  V30 1752 H 155.119 -0.86113 -4.07296 0
M  V30 1753 H 155.652 -2.33189 -3.22285 0
M  V30 1754 H 152.391 -5.24425 -3.93267 0
M  V30 1755 H 151.911 -3.71695 -4.70747 0
M  V30 1756 H 153.59 -4.29706 -4.83696 0
M  V30 1757 N 153.722 1.14298 -1.08507 0
M  V30 1758 C 154.652 2.21542 -0.737646 0
M  V30 1759 C 155.633 1.67773 0.280377 0
M  V30 1760 O 156.818 1.93616 0.150521 0
M  V30 1761 C 153.948 3.46988 -0.147259 0
M  V30 1762 C 152.902 4.13789 -1.09374 0
M  V30 1763 C 152.228 5.33449 -0.365524 0
M  V30 1764 C 153.528 4.62208 -2.4323 0
M  V30 1765 H 155.222 2.5086 -1.6343 0
M  V30 1766 H 152.768 1.20576 -0.787243 0
M  V30 1767 H 154.721 4.21262 0.107808 0
M  V30 1768 H 153.445 3.17037 0.784538 0
M  V30 1769 H 152.104 3.4147 -1.33393 0
M  V30 1770 H 151.752 4.99759 0.57011 0
M  V30 1771 H 151.452 5.79088 -0.996512 0
M  V30 1772 H 152.976 6.10485 -0.118534 0
M  V30 1773 H 154.39 5.27952 -2.23472 0
M  V30 1774 H 152.787 5.18553 -3.02031 0
M  V30 1775 H 153.857 3.77224 -3.04681 0
M  V30 1776 N 155.201 0.870884 1.31352 0
M  V30 1777 C 156.111 0.330783 2.32256 0
M  V30 1778 C 157.127 -0.559767 1.6475 0
M  V30 1779 O 158.303 -0.456263 1.96164 0
M  V30 1780 C 155.368 -0.458137 3.4366 0
M  V30 1781 C 154.429 0.460482 4.26823 0
M  V30 1782 C 153.662 -0.290881 5.32907 0
M  V30 1783 O 153.885 -1.51885 5.49806 0
M  V30 1784 O 152.819 0.351732 6.00871 0
M  V30 1785 H 156.645 1.16718 2.80376 0
M  V30 1786 H 154.23 0.634285 1.35267 0
M  V30 1787 H 156.112 -0.905343 4.1156 0
M  V30 1788 H 154.787 -1.27106 2.97701 0
M  V30 1789 H 153.694 0.956207 3.61673 0
M  V30 1790 H 155.027 1.23903 4.7635 0
M  V30 1791 N 156.679 -1.44442 0.630414 0
M  V30 1792 C 157.626 -2.30678 -0.0749355 0
M  V30 1793 C 158.596 -1.4344 -0.837502 0
M  V30 1794 O 159.781 -1.72343 -0.818684 0
M  V30 1795 C 156.921 -3.28706 -1.05103 0
M  V30 1796 C 156.034 -4.31046 -0.286954 0
M  V30 1797 C 155.169 -5.16167 -1.2548 0
M  V30 1798 C 154.208 -6.10216 -0.479843 0
M  V30 1799 N 153.345 -6.88039 -1.39811 0
M  V30 1800 H 158.185 -2.90454 0.666386 0
M  V30 1801 H 155.722 -1.43107 0.340404 0
M  V30 1802 H 157.68 -3.84027 -1.63031 0
M  V30 1803 H 156.31 -2.70632 -1.75949 0
M  V30 1804 H 155.362 -3.78203 0.408243 0
M  V30 1805 H 156.674 -4.97794 0.316657 0
M  V30 1806 H 155.828 -5.76002 -1.90544 0
M  V30 1807 H 154.567 -4.49491 -1.89233 0
M  V30 1808 H 153.572 -5.49491 0.184295 0
M  V30 1809 H 154.797 -6.78928 0.152965 0
M  V30 1810 H 152.743 -6.24032 -2.02287 0
M  V30 1811 H 152.66 -7.51223 -0.848508 0
M  V30 1812 H 153.928 -7.52397 -2.03762 0
M  V30 1813 N 158.157 -0.370918 -1.53173 0
M  V30 1814 C 159.387 0.217389 -2.05453 0
M  V30 1815 C 159.795 1.42568 -1.24382 0
M  V30 1816 O 159.138 1.81571 -0.278839 0
M  V30 1817 C 159.2 0.669827 -3.53205 0
M  V30 1818 C 158.864 -0.4225 -4.55043 0
M  V30 1819 C 159.861 -1.27407 -5.04047 0
M  V30 1820 C 157.546 -0.58427 -4.9889 0
M  V30 1821 C 159.54 -2.27271 -5.95505 0
M  V30 1822 C 157.227 -1.58627 -5.90153 0
M  V30 1823 C 158.225 -2.42892 -6.38351 0
M  V30 1824 O 157.913 -3.41382 -7.27814 0
M  V30 1825 H 157.645 0.0408171 -0.674767 0
M  V30 1826 H 160.199 -0.5292 -1.98466 0
M  V30 1827 H 158.429 1.4681 -3.57748 0
M  V30 1828 H 160.118 1.18173 -3.88317 0
M  V30 1829 H 160.884 -1.16031 -4.70916 0
M  V30 1830 H 156.763 0.061851 -4.60959 0
M  V30 1831 H 160.307 -2.93079 -6.33049 0
M  V30 1832 H 156.204 -1.70048 -6.22699 0
M  V30 1833 H 156.972 -3.37173 -7.45826 0
M  V30 1834 N 159.635 1.57281 -0.100228 0
M  V30 1835 C 160.912 1.86014 0.604812 0
M  V30 1836 C 161.292 0.998025 1.86018 0
M  V30 1837 O 160.64 0.0718184 2.28387 0
M  V30 1838 C 160.85 3.36784 0.915278 0
M  V30 1839 C 162.198 4.04957 1.27651 0
M  V30 1840 O 163.222 3.41695 1.00613 0
M  V30 1841 O 162.081 5.16593 1.7831 0
M  V30 1842 H 159.175 0.76942 0.303185 0
M  V30 1843 H 161.721 1.69176 -0.133313 0
M  V30 1844 H 160.493 3.91292 0.0248896 0
M  V30 1845 H 160.116 3.58987 1.70921 0
M  V30 1846 N 161.113 -0.173488 1.56642 0
M  V30 1847 C 162.361 -0.888706 1.81512 0
M  V30 1848 C 162.682 -1.82875 0.676872 0
M  V30 1849 O 161.952 -1.93536 -0.303414 0
M  V30 1850 H 160.532 -0.331164 0.669582 0
M  V30 1851 H 163.194 -0.173823 1.94123 0
M  V30 1852 H 162.29 -1.46691 2.75478 0
M  V30 1853 N 162.591 -1.51276 -0.441967 0
M  V30 1854 C 163.541 -1.6864 -1.53442 0
M  V30 1855 C 164.525 -0.540444 -1.51552 0
M  V30 1856 O 165.717 -0.796157 -1.58083 0
M  V30 1857 C 162.846 -1.8106 -2.91672 0
M  V30 1858 C 161.932 -3.01424 -2.98336 0
M  V30 1859 N 162.323 -4.2467 -2.74752 0
M  V30 1860 C 160.621 -3.00584 -3.29493 0
M  V30 1861 C 161.322 -5.05891 -2.87139 0
M  V30 1862 N 160.298 -4.40442 -3.18609 0
M  V30 1863 H 164.1 -2.61598 -1.33954 0
M  V30 1864 H 161.614 -1.4886 -0.6492 0
M  V30 1865 H 163.611 -1.91609 -3.70259 0
M  V30 1866 H 162.271 -0.892795 -3.12185 0
M  V30 1867 H 163.282 -4.53691 -2.49769 0
M  V30 1868 H 159.959 -2.18417 -3.55809 0
M  V30 1869 H 161.349 -6.13983 -2.72899 0
M  V30 1870 N 164.069 0.697108 -1.41344 0
M  V30 1871 C 164.999 1.82353 -1.45841 0
M  V30 1872 C 165.98 1.67115 -0.317247 0
M  V30 1873 O 167.165 1.86871 -0.528474 0
M  V30 1874 C 164.295 3.20476 -1.33838 0
M  V30 1875 C 163.249 3.50415 -2.4575 0
M  V30 1876 C 162.575 4.87878 -2.18813 0
M  V30 1877 C 163.875 3.49546 -3.88091 0
M  V30 1878 H 165.569 1.78846 -2.40113 0
M  V30 1879 H 163.115 0.859028 -1.15571 0
M  V30 1880 H 165.068 3.98988 -1.35596 0
M  V30 1881 H 163.792 3.24604 -0.360498 0
M  V30 1882 H 162.451 2.74253 -2.43271 0
M  V30 1883 H 162.099 4.8863 -1.19371 0
M  V30 1884 H 161.799 5.08875 -2.93803 0
M  V30 1885 H 163.323 5.68702 -2.22284 0
M  V30 1886 H 164.737 4.18066 -3.92293 0
M  V30 1887 H 163.134 3.82075 -4.62751 0
M  V30 1888 H 164.204 2.48552 -4.16353 0
M  V30 1889 N 165.547 1.27147 0.931209 0
M  V30 1890 C 166.958 1.12044 1.49342 0
M  V30 1891 C 167.309 -0.295795 1.93957 0
M  V30 1892 O 166.434 -1.18835 1.80852 0
M  V30 1893 C 167.029 2.02781 2.71414 0
M  V30 1894 C 165.588 1.91794 3.2387 0
M  V30 1895 C 164.735 1.95543 1.96617 0
M  V30 1896 H 167.686 1.40091 0.745672 0
M  V30 1897 H 167.707 1.58156 3.46074 0
M  V30 1898 H 167.219 3.05848 2.38911 0
M  V30 1899 H 165.32 0.916992 3.6114 0
M  V30 1900 H 165.433 2.77852 3.90302 0
M  V30 1901 H 163.797 1.39722 2.12955 0
M  V30 1902 H 164.58 3.00259 1.66432 0
M  V30 1903 N 167.025 -1.13721 1.09112 0
M  V30 1904 C 168.274 -1.84275 0.82009 0
M  V30 1905 C 168.587 -1.84253 -0.656509 0
M  V30 1906 O 169.793 -2.50668 -1.04296 0
M  V30 1907 C 168.249 -3.30825 1.41714 0
M  V30 1908 C 167.857 -3.39244 2.92605 0
M  V30 1909 C 169.601 -4.06443 1.22492 0
M  V30 1910 C 167.508 -4.80047 3.45411 0
M  V30 1911 H 166.438 -0.690387 0.30312 0
M  V30 1912 H 169.089 -1.28146 1.31343 0
M  V30 1913 H 167.471 -3.86737 0.851498 0
M  V30 1914 H 168.645 -2.93344 3.55367 0
M  V30 1915 H 166.96 -2.77088 3.10823 0
M  V30 1916 H 169.557 -5.10387 1.59402 0
M  V30 1917 H 169.9 -4.15972 0.165299 0
M  V30 1918 H 170.433 -3.56852 1.75788 0
M  V30 1919 H 167.172 -4.75709 4.50978 0
M  V30 1920 H 166.692 -5.26455 2.87411 0
M  V30 1921 H 168.371 -5.48957 3.42425 0
M  V30 1922 N 168.503 -0.877838 -1.30888 0
M  V30 1923 C 169.413 -0.343096 -2.32078 0
M  V30 1924 C 170.429 0.551022 -1.65045 0
M  V30 1925 O 171.605 0.445854 -1.96403 0
M  V30 1926 C 168.67 0.439905 -3.43898 0
M  V30 1927 C 167.731 -0.483111 -4.26573 0
M  V30 1928 C 166.964 0.262616 -5.33053 0
M  V30 1929 O 167.187 1.48967 -5.50604 0
M  V30 1930 O 166.121 -0.383593 -6.00676 0
M  V30 1931 H 169.947 -1.18203 -2.79753 0
M  V30 1932 H 167.532 -0.64145 -1.34929 0
M  V30 1933 H 169.414 0.883504 -4.12034 0
M  V30 1934 H 168.089 1.25526 -2.98371 0
M  V30 1935 H 166.996 -0.975374 -3.61161 0
M  V30 1936 H 168.329 -1.26427 -4.75686 0
M  V30 1937 N 169.982 1.44106 -0.638065 0
M  V30 1938 C 171.231 2.01194 -0.142744 0
M  V30 1939 C 171.544 1.50835 1.24532 0
M  V30 1940 O 172.75 2.00096 1.83504 0
M  V30 1941 C 171.206 3.59319 -0.20442 0
M  V30 1942 C 170.814 4.18674 -1.59423 0
M  V30 1943 C 172.558 4.23854 0.234079 0
M  V30 1944 C 170.465 5.69045 -1.61065 0
M  V30 1945 H 169.395 0.752367 -0.0495998 0
M  V30 1946 H 172.046 1.65246 -0.797881 0
M  V30 1947 H 170.428 3.92598 0.517946 0
M  V30 1948 H 171.602 3.96921 -2.34074 0
M  V30 1949 H 169.917 3.66453 -1.97741 0
M  V30 1950 H 172.514 5.34155 0.241443 0
M  V30 1951 H 172.857 3.96688 1.2627 0
M  V30 1952 H 173.39 3.95403 -0.436025 0
M  V30 1953 H 170.129 6.00956 -2.61787 0
M  V30 1954 H 169.649 5.929 -0.90718 0
M  V30 1955 H 171.328 6.32809 -1.34766 0
M  V30 1956 N 171.46 0.379036 1.52974 0
M  V30 1957 C 172.407 -0.461048 2.26148 0
M  V30 1958 C 173.377 -1.06637 1.27349 0
M  V30 1959 O 174.562 -1.09633 1.56157 0
M  V30 1960 C 171.702 -1.58782 3.06402 0
M  V30 1961 C 170.815 -1.00636 4.20115 0
M  V30 1962 C 169.95 -2.10334 4.87784 0
M  V30 1963 C 168.989 -1.49724 5.93506 0
M  V30 1964 N 168.126 -2.5331 6.54812 0
M  V30 1965 H 172.966 0.169429 2.97518 0
M  V30 1966 H 170.503 0.0953806 1.4679 0
M  V30 1967 H 172.461 -2.25174 3.51215 0
M  V30 1968 H 171.091 -2.18876 2.37261 0
M  V30 1969 H 170.143 -0.232332 3.7969 0
M  V30 1970 H 171.455 -0.523343 4.96047 0
M  V30 1971 H 170.609 -2.84519 5.35849 0
M  V30 1972 H 169.348 -2.61992 4.11353 0
M  V30 1973 H 168.353 -0.740598 5.44789 0
M  V30 1974 H 169.578 -0.988732 6.71864 0
M  V30 1975 H 167.524 -3.04156 5.81227 0
M  V30 1976 H 167.441 -2.09734 7.26325 0
M  V30 1977 H 168.709 -3.27155 7.07524 0
M  V30 1978 N 172.938 -1.57226 0.108567 0
M  V30 1979 C 173.901 -2.13602 -0.831082 0
M  V30 1980 C 174.901 -1.06841 -1.20173 0
M  V30 1981 O 176.091 -1.32666 -1.12895 0
M  V30 1982 C 173.223 -2.66769 -2.12243 0
M  V30 1983 H 174.416 -2.97951 -0.341317 0
M  V30 1984 H 171.969 -1.55667 -0.14057 0
M  V30 1985 H 172.704 -1.85977 -2.65675 0
M  V30 1986 H 172.489 -3.44839 -1.86625 0
M  V30 1987 H 173.979 -3.10332 -2.79435 0
M  V30 1988 N 174.416 0.165178 -1.56732 0
M  V30 1989 C 175.662 0.882112 -1.82611 0
M  V30 1990 C 175.995 1.81628 -0.687378 0
M  V30 1991 O 175.27 1.92009 0.310267 0
M  V30 1992 C 175.553 1.67245 -3.18906 0
M  V30 1993 C 175.406 0.760987 -4.43316 0
M  V30 1994 C 176.725 2.63884 -3.52212 0
M  V30 1995 H 173.844 0.319242 -0.664269 0
M  V30 1996 H 176.486 0.148052 -1.89422 0
M  V30 1997 H 174.636 2.29824 -3.1323 0
M  V30 1998 H 176.308 0.147596 -4.61064 0
M  V30 1999 H 174.551 0.0694102 -4.33744 0
M  V30 2000 H 175.222 1.34962 -5.35247 0
M  V30 2001 H 177.698 2.11429 -3.58381 0
M  V30 2002 H 176.574 3.16245 -4.48643 0
M  V30 2003 H 176.835 3.44377 -2.77231 0
M  V30 2004 N 175.894 1.51508 0.433938 0
M  V30 2005 C 177.305 1.56784 1.01369 0
M  V30 2006 C 177.656 0.393349 1.92217 0
M  V30 2007 O 176.781 -0.489441 2.10792 0
M  V30 2008 C 177.376 2.84144 1.8452 0
M  V30 2009 C 175.935 2.9198 2.37539 0
M  V30 2010 C 175.082 2.51482 1.16843 0
M  V30 2011 H 178.033 1.57236 0.215081 0
M  V30 2012 H 178.054 2.68098 2.70007 0
M  V30 2013 H 177.566 3.69607 1.18373 0
M  V30 2014 H 175.667 2.10955 3.0713 0
M  V30 2015 H 175.78 3.95704 2.70103 0
M  V30 2016 H 174.144 2.04758 1.51481 0
M  V30 2017 H 174.927 3.39293 0.523015 0
M  V30 2018 N 177.372 -0.689602 1.41712 0
M  V30 2019 C 178.282 -1.83314 1.46401 0
M  V30 2020 C 179.298 -1.7036 0.35405 0
M  V30 2021 O 180.474 -1.92171 0.602692 0
M  V30 2022 C 177.539 -3.19344 1.34982 0
M  V30 2023 C 176.6 -3.44363 2.56344 0
M  V30 2024 C 175.833 -4.73904 2.45461 0
M  V30 2025 O 176.056 -5.508 1.48241 0
M  V30 2026 O 174.99 -4.99839 3.35328 0
M  V30 2027 H 178.816 -1.82314 2.42889 0
M  V30 2028 H 176.401 -0.843438 1.23315 0
M  V30 2029 H 178.283 -4.00547 1.3092 0
M  V30 2030 H 176.958 -3.21014 0.41612 0
M  V30 2031 H 175.865 -2.63067 2.65982 0
M  V30 2032 H 177.198 -3.47512 3.48563 0
M  V30 2033 N 178.85 -1.27639 -0.924453 0
M  V30 2034 C 180.098 -1.13941 -1.66918 0
M  V30 2035 C 180.419 0.314589 -1.92446 0
M  V30 2036 O 179.689 1.21964 -1.53303 0
M  V30 2037 H 178.269 -0.418678 -0.618642 0
M  V30 2038 H 180.931 -1.60213 -1.10985 0
M  V30 2039 H 180.027 -1.67094 -2.63602 0
M  V30 2040 N 180.328 1.1314 -1.09713 0
M  V30 2041 C 181.575 1.84484 -0.834987 0
M  V30 2042 C 181.903 1.83689 0.639418 0
M  V30 2043 O 181.158 1.2724 1.4869 0
M  V30 2044 C 181.457 3.32167 -1.3191 0
M  V30 2045 C 181.123 3.53139 -2.80363 0
M  V30 2046 C 179.785 3.58571 -3.20905 0
M  V30 2047 C 182.137 3.60866 -3.76065 0
M  V30 2048 C 179.465 3.69267 -4.55916 0
M  V30 2049 C 181.817 3.73089 -5.10869 0
M  V30 2050 C 180.481 3.76775 -5.50996 0
M  V30 2051 H 179.751 0.675073 -0.305544 0
M  V30 2052 H 182.398 1.33554 -1.37243 0
M  V30 2053 H 180.703 3.85469 -0.701517 0
M  V30 2054 H 182.4 3.85821 -1.09284 0
M  V30 2055 H 178.99 3.49569 -2.47991 0
M  V30 2056 H 183.174 3.55946 -3.45855 0
M  V30 2057 H 178.43 3.70388 -4.86438 0
M  V30 2058 H 182.604 3.78011 -5.84877 0
M  V30 2059 H 180.231 3.84815 -6.55608 0
M  V30 2060 N 181.806 0.884767 1.30421 0
M  V30 2061 C 183.052 0.503851 1.96441 0
M  V30 2062 C 183.385 -0.944518 1.69684 0
M  V30 2063 O 182.66 -1.66737 1.00145 0
M  V30 2064 C 182.943 0.779085 3.51571 0
M  V30 2065 C 182.796 2.27807 3.87846 0
M  V30 2066 C 184.115 0.255452 4.39358 0
M  V30 2067 H 181.234 0.184533 0.713524 0
M  V30 2068 H 183.876 1.10872 1.54297 0
M  V30 2069 H 182.026 0.264274 3.876 0
M  V30 2070 H 183.698 2.86127 3.61841 0
M  V30 2071 H 181.941 2.74479 3.35922 0
M  V30 2072 H 182.612 2.42125 4.96064 0
M  V30 2073 H 185.088 0.696079 4.10236 0
M  V30 2074 H 183.964 0.477361 5.4682 0
M  V30 2075 H 184.225 -0.843293 4.33983 0
M  V30 2076 N 183.284 -1.43765 0.645699 0
M  V30 2077 C 184.533 -2.01116 0.153412 0
M  V30 2078 C 184.846 -1.51493 -1.23731 0
M  V30 2079 O 186.052 -2.01067 -1.8244 0
M  V30 2080 C 184.508 -3.59206 0.223473 0
M  V30 2081 C 184.116 -4.17823 1.61642 0
M  V30 2082 C 185.86 -4.23972 -0.211597 0
M  V30 2083 C 183.767 -5.68183 1.64081 0
M  V30 2084 H 182.697 -0.752093 0.0535891 0
M  V30 2085 H 185.348 -1.6482 0.806633 0
M  V30 2086 H 183.73 -3.92867 -0.497118 0
M  V30 2087 H 184.904 -3.95674 2.36176 0
M  V30 2088 H 183.219 -3.65399 1.99681 0
M  V30 2089 H 185.816 -5.34275 -0.213112 0
M  V30 2090 H 186.159 -3.97352 -1.24165 0
M  V30 2091 H 186.692 -3.95166 0.456988 0
M  V30 2092 H 183.431 -5.99559 2.64971 0
M  V30 2093 H 182.951 -5.9241 0.938611 0
M  V30 2094 H 184.63 -6.32085 1.3812 0
M  V30 2095 N 184.763 -0.387143 -1.52771 0
M  V30 2096 C 186.174 0.0873634 -1.86495 0
M  V30 2097 C 186.525 1.46336 -1.30691 0
M  V30 2098 O 185.65 2.068 -0.637409 0
M  V30 2099 C 186.245 0.165305 -3.38396 0
M  V30 2100 C 184.804 0.584101 -3.7184 0
M  V30 2101 C 183.951 -0.255279 -2.76122 0
M  V30 2102 H 186.902 -0.605104 -1.46711 0
M  V30 2103 H 186.923 0.984848 -3.67534 0
M  V30 2104 H 186.435 -0.836301 -3.78982 0
M  V30 2105 H 184.536 1.59315 -3.36823 0
M  V30 2106 H 184.649 0.343749 -4.77865 0
M  V30 2107 H 183.013 0.279126 -2.53166 0
M  V30 2108 H 183.796 -1.25482 -3.19545 0
M  V30 2109 N 186.241 1.57166 -0.116904 0
M  V30 2110 C 187.657 1.5779 0.239693 0
M  V30 2111 C 187.857 1.1295 1.66867 0
M  V30 2112 O 186.913 0.81592 2.38954 0
M  V30 2113 C 188.226 3.00699 0.00828202 0
M  V30 2114 C 189.774 3.12912 0.0743438 0
M  V30 2115 C 190.249 4.57817 -0.129348 0
M  V30 2116 N 191.74 4.63139 -0.075247 0
M  V30 2117 C 192.475 5.73023 -0.207788 0
M  V30 2118 N 191.971 6.91665 -0.396382 0
M  V30 2119 N 193.764 5.61906 -0.14751 0
M  V30 2120 H 185.915 1.84615 -1.05029 0
M  V30 2121 H 188.178 0.85311 -0.41341 0
M  V30 2122 H 187.884 3.37784 -0.979531 0
M  V30 2123 H 187.758 3.69848 0.741077 0
M  V30 2124 H 190.145 2.75686 1.05268 0
M  V30 2125 H 190.226 2.4631 -0.690297 0
M  V30 2126 H 189.87 4.95742 -1.10465 0
M  V30 2127 H 189.8 5.22507 0.655253 0
M  V30 2128 H 192.291 3.7784 0.0670898 0
M  V30 2129 H 192.604 7.71255 -0.488437 0
M  V30 2130 H 190.949 6.93654 -0.432329 0
M  V30 2131 H 194.14 4.681 -0.00115036 0
M  V30 2132 H 194.313 6.47501 -0.254247 0
M  V30 2133 N 187.719 -0.156864 1.56817 0
M  V30 2134 C 188.967 -0.869404 1.82444 0
M  V30 2135 C 189.288 -1.82147 0.69623 0
M  V30 2136 O 188.558 -1.93847 -0.28287 0
M  V30 2137 H 187.138 -0.324043 0.673056 0
M  V30 2138 H 189.8 -0.153224 1.94297 0
M  V30 2139 H 188.896 -1.43761 2.77019 0
M  V30 2140 N 189.197 -1.51736 -0.425897 0
M  V30 2141 C 190.145 -1.74464 -1.53834 0
M  V30 2142 C 191.139 -0.611241 -1.57988 0
M  V30 2143 O 192.345 -0.792899 -1.61596 0
M  V30 2144 H 188.72 -0.551437 -0.511293 0
M  V30 2145 H 190.691 -2.67694 -1.31843 0
M  V30 2146 C 189.44 -1.8972 -2.91379 0
M  V30 2147 H 188.763 -2.76344 -2.88919 0
M  V30 2148 H 190.203 -2.09629 -3.68553 0
M  V30 2149 C 188.662 -0.65992 -3.30374 0
M  V30 2150 O 189.192 0.180083 -4.01296 0
M  V30 2151 N 187.398 -0.500677 -2.86254 0
M  V30 2152 H 186.945 -1.18532 -2.28709 0
M  V30 2153 H 186.903 0.325903 -3.12706 0
M  V30 2154 N 190.675 0.682077 -1.42076 0
M  V30 2155 C 191.921 1.44428 -1.42367 0
M  V30 2156 C 192.254 1.94164 -0.0373056 0
M  V30 2157 O 191.529 1.70429 0.937239 0
M  V30 2158 C 191.812 2.64654 -2.44194 0
M  V30 2159 C 191.665 2.20596 -3.91991 0
M  V30 2160 C 192.984 3.66865 -2.431 0
M  V30 2161 H 190.103 0.523834 -0.518428 0
M  V30 2162 H 192.745 0.77576 -1.73442 0
M  V30 2163 H 190.895 3.2169 -2.17826 0
M  V30 2164 H 192.567 1.68783 -4.29313 0
M  V30 2165 H 190.81 1.52242 -4.06208 0
M  V30 2166 H 191.481 3.06921 -4.58807 0
M  V30 2167 H 193.957 3.19531 -2.66532 0
M  V30 2168 H 192.833 4.48577 -3.16339 0
M  V30 2169 H 193.094 4.17493 -1.45437 0
M  V30 2170 N 192.153 1.28127 0.917671 0
M  V30 2171 C 193.083 1.14248 2.03641 0
M  V30 2172 C 194.064 0.0412748 1.7005 0
M  V30 2173 O 195.249 0.217566 1.92977 0
M  V30 2174 C 192.379 0.799431 3.37974 0
M  V30 2175 C 191.333 1.85497 3.85713 0
M  V30 2176 C 190.659 1.36565 5.16966 0
M  V30 2177 C 191.959 3.26085 4.08002 0
M  V30 2178 H 193.653 2.07835 2.15511 0
M  V30 2179 H 191.199 1.00064 1.03553 0
M  V30 2180 H 193.152 0.689114 4.15727 0
M  V30 2181 H 191.876 -0.172145 3.26146 0
M  V30 2182 H 190.535 1.95437 3.10161 0
M  V30 2183 H 190.183 0.383253 5.01538 0
M  V30 2184 H 189.883 2.07143 5.49878 0
M  V30 2185 H 191.407 1.26848 5.97279 0
M  V30 2186 H 192.821 3.19089 4.76293 0
M  V30 2187 H 191.218 3.94462 4.52238 0
M  V30 2188 H 192.288 3.70394 3.12948 0
M  V30 2189 N 193.631 -1.12557 1.10312 0
M  V30 2190 C 194.878 -1.84038 0.844759 0
M  V30 2191 C 195.206 -1.84026 -0.629668 0
M  V30 2192 O 194.461 -1.28026 -1.48013 0
M  V30 2193 C 194.76 -3.31462 1.33669 0
M  V30 2194 C 194.426 -3.51647 2.82232 0
M  V30 2195 C 193.088 -3.56864 3.22802 0
M  V30 2196 C 195.44 -3.58867 3.77974 0
M  V30 2197 C 192.768 -3.66844 4.57867 0
M  V30 2198 C 195.12 -3.70375 5.1284 0
M  V30 2199 C 193.784 -3.73848 5.52986 0
M  V30 2200 H 193.054 -0.673444 0.309119 0
M  V30 2201 H 195.701 -1.32824 1.37949 0
M  V30 2202 H 194.006 -3.85091 0.721949 0
M  V30 2203 H 195.703 -3.85236 1.11329 0
M  V30 2204 H 192.293 -3.48249 2.49842 0
M  V30 2205 H 196.477 -3.54107 3.47738 0
M  V30 2206 H 191.733 -3.67804 4.88396 0
M  V30 2207 H 195.907 -3.74904 5.86873 0
M  V30 2208 H 193.534 -3.81333 6.57639 0
M  V30 2209 N 195.109 -0.891671 -1.2995 0
M  V30 2210 C 196.337 -0.52866 -2.00032 0
M  V30 2211 C 196.752 0.884574 -1.66795 0
M  V30 2212 O 196.109 1.5827 -0.908669 0
M  V30 2213 C 196.16 -0.701814 -3.54622 0
M  V30 2214 O 195.881 -2.05942 -3.86678 0
M  V30 2215 C 197.382 -0.342683 -4.41973 0
M  V30 2216 H 194.602 -0.203659 -0.639347 0
M  V30 2217 H 197.146 -1.19881 -1.65677 0
M  V30 2218 H 195.301 -0.0789468 -3.8732 0
M  V30 2219 H 195.715 -2.08291 -4.81368 0
M  V30 2220 H 197.189 -0.514709 -5.49595 0
M  V30 2221 H 197.666 0.71975 -4.33262 0
M  V30 2222 H 198.272 -0.942154 -4.14733 0
M  V30 2223 N 196.587 1.43421 -0.653314 0
M  V30 2224 C 197.833 2.02111 -0.166992 0
M  V30 2225 C 198.166 1.51423 1.21592 0
M  V30 2226 O 197.441 0.707389 1.8118 0
M  V30 2227 C 197.724 3.5966 -0.177948 0
M  V30 2228 C 197.577 4.20579 -1.59478 0
M  V30 2229 C 198.896 4.37413 0.4856 0
M  V30 2230 H 196.015 0.734374 -0.0621557 0
M  V30 2231 H 198.657 1.70717 -0.834016 0
M  V30 2232 H 196.807 3.86537 0.390032 0
M  V30 2233 H 198.479 4.04732 -2.21336 0
M  V30 2234 H 196.722 3.77226 -2.14204 0
M  V30 2235 H 197.393 5.29665 -1.5543 0
M  V30 2236 H 199.869 4.161 0.00234528 0
M  V30 2237 H 198.745 5.47075 0.447207 0
M  V30 2238 H 199.006 4.13672 1.55974 0
M  V30 2239 N 198.065 0.39524 1.52563 0
M  V30 2240 C 198.975 -0.444232 2.30356 0
M  V30 2241 C 199.991 -1.06615 1.37511 0
M  V30 2242 O 201.167 -1.07067 1.70583 0
M  V30 2243 C 198.232 -1.55315 3.09964 0
M  V30 2244 C 197.293 -0.955734 4.18526 0
M  V30 2245 C 196.526 -2.01181 4.9433 0
M  V30 2246 O 196.749 -3.22781 4.70285 0
M  V30 2247 O 195.683 -1.62579 5.79527 0
M  V30 2248 H 199.509 0.189667 3.03107 0
M  V30 2249 H 197.094 0.1588 1.48554 0
M  V30 2250 H 198.976 -2.19724 3.59582 0
M  V30 2251 H 197.651 -2.17191 2.4002 0
M  V30 2252 H 196.558 -0.274743 3.7309 0
M  V30 2253 H 197.891 -0.381109 4.90722 0
M  V30 2254 N 199.544 -1.57102 0.125237 0
M  V30 2255 C 200.492 -2.16905 -0.839927 0
M  V30 2256 C 201.486 -1.11998 -1.27094 0
M  V30 2257 O 202.692 -1.3029 -1.24195 0
M  V30 2258 H 199.067 -0.694252 -0.288995 0
M  V30 2259 H 201.038 -2.96774 -0.311115 0
M  V30 2260 C 199.787 -2.78795 -2.07771 0
M  V30 2261 H 199.11 -3.59221 -1.755 0
M  V30 2262 H 200.55 -3.2417 -2.73295 0
M  V30 2263 C 199.009 -1.76193 -2.87155 0
M  V30 2264 O 199.539 -1.21909 -3.82755 0
M  V30 2265 N 197.745 -1.45991 -2.51267 0
M  V30 2266 H 197.292 -1.90325 -1.73592 0
M  V30 2267 H 197.25 -0.775844 -3.04677 0
M  V30 2268 N 201.022 0.148545 -1.56898 0
M  V30 2269 C 202.25 0.876389 -1.87422 0
M  V30 2270 C 202.665 1.74809 -0.713256 0
M  V30 2271 O 202.022 1.79725 0.317025 0
M  V30 2272 C 202.073 1.73438 -3.17178 0
M  V30 2273 O 201.794 0.897809 -4.28802 0
M  V30 2274 C 203.295 2.56993 -3.61205 0
M  V30 2275 H 200.515 0.253489 -0.621277 0
M  V30 2276 H 203.059 0.141798 -2.04008 0
M  V30 2277 H 201.214 2.42205 -3.0235 0
M  V30 2278 H 201.628 1.48672 -5.02988 0
M  V30 2279 H 203.102 3.12773 -4.54838 0
M  V30 2280 H 203.579 3.32958 -2.86419 0
M  V30 2281 H 204.185 1.9352 -3.78722 0
M  V30 2282 N 202.5 1.5196 0.417844 0
M  V30 2283 C 203.777 1.56146 1.17803 0
M  V30 2284 C 204.157 0.337275 2.08388 0
M  V30 2285 O 203.505 -0.676447 2.18258 0
M  V30 2286 C 203.715 2.88566 1.96293 0
M  V30 2287 C 205.063 3.41244 2.52662 0
M  V30 2288 O 206.087 2.90247 2.06483 0
M  V30 2289 O 204.946 4.30273 3.36938 0
M  V30 2290 H 202.04 0.628598 0.537395 0
M  V30 2291 H 204.586 1.64283 0.425331 0
M  V30 2292 H 203.358 3.69116 1.2988 0
M  V30 2293 H 202.981 2.83681 2.78587 0
M  V30 2294 N 203.978 -0.674533 1.42435 0
M  V30 2295 C 205.389 -1.25514 1.38214 0
M  V30 2296 C 205.74 -1.96055 0.0755464 0
M  V30 2297 O 204.865 -2.00028 -0.8257 0
M  V30 2298 C 205.46 -2.28269 2.50357 0
M  V30 2299 C 204.019 -2.81856 2.49467 0
M  V30 2300 C 203.166 -1.56182 2.29134 0
M  V30 2301 H 206.117 -0.467902 1.51646 0
M  V30 2302 H 206.138 -3.10009 2.20624 0
M  V30 2303 H 205.65 -1.769 3.45439 0
M  V30 2304 H 203.751 -3.37346 1.58204 0
M  V30 2305 H 203.864 -3.30854 3.46515 0
M  V30 2306 H 202.228 -1.82761 1.774 0
M  V30 2307 H 203.011 -1.06778 3.26272 0
M  V30 2308 N 205.456 -1.28612 -0.910864 0
M  V30 2309 C 206.366 -1.14643 -2.0468 0
M  V30 2310 C 207.382 -0.0723121 -1.7385 0
M  V30 2311 O 208.558 -0.282178 -1.99413 0
M  V30 2312 C 205.623 -0.812561 -3.37044 0
M  V30 2313 C 204.684 -1.96935 -3.81465 0
M  V30 2314 C 203.917 -1.65131 -5.07511 0
M  V30 2315 O 204.14 -0.567013 -5.67575 0
M  V30 2316 O 203.074 -2.49585 -5.47714 0
M  V30 2317 H 206.9 -2.1001 -2.19384 0
M  V30 2318 H 204.485 -1.07958 -1.03274 0
M  V30 2319 H 206.367 -0.640441 -4.16505 0
M  V30 2320 H 205.042 0.111426 -3.23508 0
M  V30 2321 H 203.949 -2.19664 -3.02818 0
M  V30 2322 H 205.282 -2.87414 -3.99567 0
M  V30 2323 N 206.934 1.1197 -1.10907 0
M  V30 2324 C 208.174 1.85224 -0.864378 0
M  V30 2325 C 208.538 1.82411 0.599178 0
M  V30 2326 O 209.739 2.51057 0.960416 0
M  V30 2327 C 208.01 3.2868 -1.40371 0
M  V30 2328 S 209.569 4.1925 -1.29518 0
M  V30 2329 H 206.387 0.63878 -0.312219 0
M  V30 2330 H 208.989 1.3485 -1.41548 0
M  V30 2331 H 207.693 3.28289 -2.46281 0
M  V30 2332 H 207.224 3.84121 -0.849402 0
M  V30 2333 H 209.239 4.95539 -0.256059 0
M  V30 2334 N 208.412 0.89855 1.29475 0
M  V30 2335 C 209.642 0.538479 1.99459 0
M  V30 2336 C 210.05 -0.880922 1.67441 0
M  V30 2337 O 209.393 -1.59283 0.915127 0
M  V30 2338 C 209.455 0.649564 3.53583 0
M  V30 2339 C 209.119 2.03573 4.09154 0
M  V30 2340 C 210.116 3.00675 4.24135 0
M  V30 2341 C 207.801 2.3448 4.44212 0
M  V30 2342 C 209.795 4.26809 4.73405 0
M  V30 2343 C 207.482 3.60857 4.93179 0
M  V30 2344 C 208.48 4.56836 5.0773 0
M  V30 2345 O 208.168 5.80969 5.55635 0
M  V30 2346 H 207.9 0.205372 0.644048 0
M  V30 2347 H 210.454 1.20958 1.66007 0
M  V30 2348 H 208.684 -0.0785592 3.8662 0
M  V30 2349 H 210.373 0.29881 4.04799 0
M  V30 2350 H 211.139 2.78112 3.97339 0
M  V30 2351 H 207.018 1.60534 4.32145 0
M  V30 2352 H 210.562 5.0173 4.84678 0
M  V30 2353 H 206.459 3.83251 5.19412 0
M  V30 2354 H 207.227 5.83542 5.73952 0
M  V30 2355 N 209.89 -1.43072 0.660911 0
M  V30 2356 C 211.136 -2.02545 0.186337 0
M  V30 2357 C 211.491 -1.51253 -1.18913 0
M  V30 2358 O 210.784 -0.699167 -1.78388 0
M  V30 2359 C 210.978 -3.57103 0.145563 0
M  V30 2360 C 210.807 -4.23393 1.51554 0
M  V30 2361 C 209.577 -4.59144 2.10984 0
M  V30 2362 C 211.775 -4.51897 2.45548 0
M  V30 2363 N 209.757 -5.10545 3.40907 0
M  V30 2364 C 211.128 -5.04698 3.6011 0
M  V30 2365 C 213.183 -4.33872 2.44253 0
M  V30 2366 C 211.886 -5.41371 4.73613 0
M  V30 2367 C 213.912 -4.71612 3.56842 0
M  V30 2368 C 213.274 -5.24553 4.70131 0
M  V30 2369 H 209.373 -0.773823 0.112792 0
M  V30 2370 H 211.957 -1.74137 0.870885 0
M  V30 2371 H 210.128 -3.85059 -0.508353 0
M  V30 2372 H 211.86 -4.03264 -0.340598 0
M  V30 2373 H 208.615 -4.4444 1.63615 0
M  V30 2374 H 209.039 -5.40689 4.07411 0
M  V30 2375 H 213.681 -3.92208 1.579 0
M  V30 2376 H 211.399 -5.81975 5.60652 0
M  V30 2377 H 214.985 -4.59354 3.57051 0
M  V30 2378 H 213.865 -5.53213 5.5581 0
M  V30 2379 N 211.368 -0.403325 -1.52352 0
M  V30 2380 C 212.298 0.416205 -2.29761 0
M  V30 2381 C 213.279 1.05123 -1.33728 0
M  V30 2382 O 214.464 1.06134 -1.62632 0
M  V30 2383 C 211.594 1.53624 -3.11475 0
M  V30 2384 C 210.548 1.02653 -4.15507 0
M  V30 2385 C 209.874 2.23971 -4.85532 0
M  V30 2386 C 211.174 0.08463 -5.22231 0
M  V30 2387 H 212.868 -0.229701 -2.98518 0
M  V30 2388 H 210.414 -0.111913 -1.43564 0
M  V30 2389 H 212.367 2.1165 -3.64393 0
M  V30 2390 H 211.091 2.20994 -2.40477 0
M  V30 2391 H 209.75 0.46871 -3.63591 0
M  V30 2392 H 209.398 2.89883 -4.11068 0
M  V30 2393 H 209.098 1.90521 -5.55856 0
M  V30 2394 H 210.622 2.82614 -5.41259 0
M  V30 2395 H 212.036 0.573509 -5.70424 0
M  V30 2396 H 210.433 -0.160783 -5.99885 0
M  V30 2397 H 211.503 -0.86237 -4.7717 0
M  V30 2398 N 212.846 1.57033 -0.133567 0
M  V30 2399 C 214.074 2.00044 0.528195 0
M  V30 2400 C 214.489 1.01349 1.59291 0
M  V30 2401 O 213.846 0.00848369 1.82498 0
M  V30 2402 C 213.897 3.43018 1.1411 0
M  V30 2403 O 213.618 4.37939 0.11892 0
M  V30 2404 C 215.119 4.01237 1.88477 0
M  V30 2405 H 212.339 0.656517 0.138661 0
M  V30 2406 H 214.883 2.03267 -0.224196 0
M  V30 2407 H 213.038 3.40688 1.84418 0
M  V30 2408 H 213.452 5.21436 0.56613 0
M  V30 2409 H 214.926 5.03314 2.26669 0
M  V30 2410 H 215.403 3.41193 2.76558 0
M  V30 2411 H 216.009 4.07156 1.22898 0
M  V30 2412 N 214.325 -0.140222 1.56975 0
M  V30 2413 C 215.273 -1.19207 1.99731 0
M  V30 2414 C 216.267 -1.44089 0.890777 0
M  V30 2415 O 217.473 -1.44301 1.07597 0
M  V30 2416 H 213.848 -0.40142 0.635898 0
M  V30 2417 H 215.819 -0.804813 2.87342 0
M  V30 2418 C 214.568 -2.51617 2.39967 0
M  V30 2419 H 213.891 -2.33303 3.24669 0
M  V30 2420 H 215.331 -3.23827 2.73701 0
M  V30 2421 C 213.79 -3.12654 1.25496 0
M  V30 2422 O 214.32 -3.97786 0.559371 0
M  V30 2423 N 212.526 -2.72206 1.01746 0
M  V30 2424 H 212.073 -2.03074 1.58489 0
M  V30 2425 H 212.031 -3.13377 0.253461 0
M  V30 2426 N 215.803 -1.52179 -0.40978 0
M  V30 2427 C 217.049 -1.67408 -1.15525 0
M  V30 2428 C 217.404 -0.398746 -1.88223 0
M  V30 2429 O 216.697 0.60678 -1.81738 0
M  V30 2430 C 216.891 -2.83428 -2.17723 0
M  V30 2431 C 216.72 -4.22121 -1.55061 0
M  V30 2432 C 215.49 -4.87657 -1.3236 0
M  V30 2433 C 217.688 -5.04248 -1.01185 0
M  V30 2434 N 215.67 -6.10387 -0.655834 0
M  V30 2435 C 217.041 -6.18209 -0.470963 0
M  V30 2436 C 219.096 -4.89583 -0.906252 0
M  V30 2437 C 217.799 -7.1911 0.165172 0
M  V30 2438 C 219.825 -5.90718 -0.28397 0
M  V30 2439 C 219.187 -7.03969 0.246243 0
M  V30 2440 H 215.286 -0.666251 -0.409431 0
M  V30 2441 H 217.87 -1.89482 -0.447729 0
M  V30 2442 H 216.041 -2.6297 -2.85834 0
M  V30 2443 H 217.773 -2.87697 -2.84627 0
M  V30 2444 H 214.528 -4.46007 -1.59294 0
M  V30 2445 H 214.952 -6.76153 -0.338596 0
M  V30 2446 H 219.594 -4.02253 -1.302 0
M  V30 2447 H 217.312 -8.06066 0.572986 0
M  V30 2448 H 220.898 -5.81443 -0.203792 0
M  V30 2449 H 219.778 -7.80886 0.720173 0
M  V30 2450 N 217.281 0.66697 -1.42791 0
M  V30 2451 C 218.53 1.42278 -1.42968 0
M  V30 2452 C 218.843 1.9553 -0.0524489 0
M  V30 2453 O 220.049 2.71414 0.068363 0
M  V30 2454 C 218.505 2.57418 -2.51524 0
M  V30 2455 C 218.113 2.10832 -3.9529 0
M  V30 2456 C 219.857 3.34878 -2.60877 0
M  V30 2457 C 217.764 3.23101 -4.95338 0
M  V30 2458 H 216.694 0.534533 -0.531781 0
M  V30 2459 H 219.345 0.721302 -1.68729 0
M  V30 2460 H 217.727 3.29971 -2.18941 0
M  V30 2461 H 218.901 1.4538 -4.37266 0
M  V30 2462 H 217.216 1.46289 -3.89857 0
M  V30 2463 H 219.813 4.18505 -3.32802 0
M  V30 2464 H 220.156 3.81993 -1.6549 0
M  V30 2465 H 220.689 2.69398 -2.92693 0
M  V30 2466 H 217.428 2.80969 -5.9223 0
M  V30 2467 H 216.948 3.87309 -4.57987 0
M  V30 2468 H 218.627 3.88447 -5.17415 0
M  V30 2469 N 218.759 1.29093 0.90403 0
M  V30 2470 C 219.669 1.15727 2.0407 0
M  V30 2471 C 220.685 0.0815308 1.73809 0
M  V30 2472 O 221.861 0.292749 1.99261 0
M  V30 2473 C 218.926 0.830424 3.36608 0
M  V30 2474 C 217.987 1.98955 3.80415 0
M  V30 2475 C 217.22 1.6782 5.06628 0
M  V30 2476 O 217.443 0.597105 5.67266 0
M  V30 2477 O 216.377 2.52486 5.46383 0
M  V30 2478 H 220.203 2.11171 2.18267 0
M  V30 2479 H 217.788 1.08504 1.027 0
M  V30 2480 H 219.67 0.662521 4.16159 0
M  V30 2481 H 218.345 -0.0942678 3.23563 0
M  V30 2482 H 217.252 2.21267 3.01648 0
M  V30 2483 H 218.585 2.89529 3.98037 0
M  V30 2484 N 220.237 -1.11381 1.11499 0
M  V30 2485 C 221.465 -1.86934 0.88675 0
M  V30 2486 C 221.88 -1.80195 -0.563476 0
M  V30 2487 O 221.237 -1.18367 -1.38908 0
M  V30 2488 C 221.288 -3.35722 1.34064 0
M  V30 2489 O 221.009 -3.4232 2.73401 0
M  V30 2490 C 222.51 -4.2818 1.14791 0
M  V30 2491 H 219.73 -0.591117 0.317523 0
M  V30 2492 H 222.274 -1.40865 1.48248 0
M  V30 2493 H 220.429 -3.79294 0.788355 0
M  V30 2494 H 220.843 -4.34971 2.93087 0
M  V30 2495 H 222.317 -5.30817 1.5145 0
M  V30 2496 H 222.794 -4.39113 0.0875279 0
M  V30 2497 H 223.4 -3.90402 1.68721 0
M  V30 2498 N 221.715 -0.905404 -1.28997 0
M  V30 2499 C 222.964 -0.530191 -1.94607 0
M  V30 2500 C 223.277 0.929185 -1.72121 0
M  V30 2501 O 224.483 1.41218 -2.31883 0
M  V30 2502 C 222.939 -0.897333 -3.48534 0
M  V30 2503 C 222.547 -2.37587 -3.79811 0
M  V30 2504 C 224.291 -0.592304 -4.20347 0
M  V30 2505 C 222.198 -2.68357 -5.27009 0
M  V30 2506 H 221.128 -0.194558 -0.728466 0
M  V30 2507 H 223.779 -1.10318 -1.46636 0
M  V30 2508 H 222.161 -0.253214 -3.9519 0
M  V30 2509 H 223.335 -3.06602 -3.43994 0
M  V30 2510 H 221.65 -2.6505 -3.2115 0
M  V30 2511 H 224.247 -0.798975 -5.28697 0
M  V30 2512 H 224.59 0.469474 -4.13644 0
M  V30 2513 H 225.123 -1.19452 -3.79442 0
M  V30 2514 H 221.862 -3.73355 -5.38782 0
M  V30 2515 H 221.382 -2.03971 -5.64053 0
M  V30 2516 H 223.061 -2.54922 -5.94663 0
M  V30 2517 N 223.193 1.4272 -0.668489 0
M  V30 2518 C 224.123 2.335 -0.000100175 0
M  V30 2519 C 225.104 1.50328 0.795964 0
M  V30 2520 O 226.289 1.78949 0.754385 0
M  V30 2521 C 223.419 3.33874 0.956302 0
M  V30 2522 C 222.373 4.27152 0.269278 0
M  V30 2523 C 221.699 5.17684 1.33818 0
M  V30 2524 C 222.999 5.15373 -0.847805 0
M  V30 2525 H 224.693 2.89639 -0.758244 0
M  V30 2526 H 222.239 1.39269 -0.366079 0
M  V30 2527 H 224.192 3.9629 1.43292 0
M  V30 2528 H 222.916 2.76025 1.74579 0
M  V30 2529 H 221.575 3.66123 -0.187042 0
M  V30 2530 H 221.223 4.56165 2.1195 0
M  V30 2531 H 220.923 5.80918 0.883659 0
M  V30 2532 H 222.447 5.82974 1.81586 0
M  V30 2533 H 223.861 5.7151 -0.452681 0
M  V30 2534 H 222.258 5.87407 -1.22773 0
M  V30 2535 H 223.328 4.5415 -1.69929 0
M  V30 2536 N 224.671 0.411399 1.52136 0
M  V30 2537 C 225.917 -0.163888 2.02137 0
M  V30 2538 C 226.25 -1.44597 1.29636 0
M  V30 2539 O 225.525 -1.90272 0.403353 0
M  V30 2540 C 225.808 -0.40927 3.57767 0
M  V30 2541 C 225.661 0.889643 4.40914 0
M  V30 2542 C 226.98 -1.19042 4.23694 0
M  V30 2543 H 224.099 -0.0580896 0.734707 0
M  V30 2544 H 226.741 0.54531 1.82007 0
M  V30 2545 H 224.891 -1.0134 3.7505 0
M  V30 2546 H 226.563 1.52575 4.35337 0
M  V30 2547 H 224.806 1.50011 4.07037 0
M  V30 2548 H 225.477 0.672314 5.4789 0
M  V30 2549 H 227.953 -0.678942 4.10524 0
M  V30 2550 H 226.829 -1.33086 5.32522 0
M  V30 2551 H 227.09 -2.21166 3.82803 0
M  V30 2552 N 226.149 -1.5696 0.141893 0
M  V30 2553 C 227.081 -2.13619 -0.830627 0
M  V30 2554 C 228.094 -1.08439 -1.21428 0
M  V30 2555 O 229.283 -1.35734 -1.15925 0
M  V30 2556 C 226.383 -2.63978 -2.12529 0
M  V30 2557 C 225.556 -3.93504 -1.9098 0
M  V30 2558 C 224.615 -4.29225 -3.04388 0
M  V30 2559 O 223.641 -4.97641 -2.76302 0
M  V30 2560 N 224.843 -3.88393 -4.31429 0
M  V30 2561 H 227.608 -2.97691 -0.34641 0
M  V30 2562 H 225.169 -1.61846 -0.0418375 0
M  V30 2563 H 227.161 -2.84891 -2.87436 0
M  V30 2564 H 225.731 -1.84659 -2.52229 0
M  V30 2565 H 224.951 -3.81269 -1.00139 0
M  V30 2566 H 226.239 -4.78154 -1.73914 0
M  V30 2567 H 225.637 -3.33257 -4.57117 0
M  V30 2568 H 224.194 -4.14368 -5.03133 0
M  V30 2569 N 227.627 0.131896 -1.57047 0
M  V30 2570 C 228.852 0.860418 -1.8871 0
M  V30 2571 C 229.277 1.73251 -0.73251 0
M  V30 2572 O 228.635 1.785 0.317429 0
M  V30 2573 C 228.683 1.68047 -3.19049 0
M  V30 2574 O 227.787 2.7862 -3.04047 0
M  V30 2575 H 227.128 0.238743 -0.619595 0
M  V30 2576 H 229.658 0.118169 -2.04258 0
M  V30 2577 H 229.668 2.07238 -3.51449 0
M  V30 2578 H 228.343 1.04018 -4.02682 0
M  V30 2579 H 226.92 2.42726 -2.83088 0
M  V30 2580 N 229.106 1.52395 0.401703 0
M  V30 2581 C 230.352 1.68019 1.14635 0
M  V30 2582 C 230.707 0.408722 1.88009 0
M  V30 2583 O 230 -0.597133 1.82057 0
M  V30 2584 C 230.194 2.84578 2.16217 0
M  V30 2585 C 230.023 4.22938 1.5282 0
M  V30 2586 C 228.793 4.88352 1.29772 0
M  V30 2587 C 230.991 5.04778 0.985094 0
M  V30 2588 N 228.973 6.10726 0.623455 0
M  V30 2589 C 230.344 6.1845 0.438172 0
M  V30 2590 C 232.399 4.90057 0.880275 0
M  V30 2591 C 231.102 7.19013 -0.203306 0
M  V30 2592 C 233.128 5.9086 0.252639 0
M  V30 2593 C 232.49 7.03829 -0.283573 0
M  V30 2594 H 228.589 0.668413 0.405892 0
M  V30 2595 H 231.173 1.89717 0.437674 0
M  V30 2596 H 229.344 2.64483 2.84435 0
M  V30 2597 H 231.076 2.89202 2.83098 0
M  V30 2598 H 227.831 4.46846 1.56926 0
M  V30 2599 H 228.255 6.76323 0.302733 0
M  V30 2600 H 232.897 4.02938 1.28065 0
M  V30 2601 H 230.615 8.05751 -0.615726 0
M  V30 2602 H 234.201 5.81543 0.172954 0
M  V30 2603 H 233.081 7.80493 -0.761575 0
M  V30 2604 N 230.584 -0.659388 1.43143 0
M  V30 2605 C 231.814 -1.44513 1.47646 0
M  V30 2606 C 232.222 -1.88981 0.0910095 0
M  V30 2607 O 231.565 -1.59702 -0.907789 0
M  V30 2608 C 231.627 -2.71663 2.35456 0
M  V30 2609 C 231.291 -2.49175 3.83094 0
M  V30 2610 C 232.288 -2.1279 4.74359 0
M  V30 2611 C 229.973 -2.63691 4.27519 0
M  V30 2612 C 231.967 -1.9121 6.08044 0
M  V30 2613 C 229.654 -2.41726 5.61259 0
M  V30 2614 C 230.652 -2.0554 6.51339 0
M  V30 2615 O 230.34 -1.838 7.82606 0
M  V30 2616 H 230.072 -0.45064 0.503884 0
M  V30 2617 H 232.626 -0.816248 1.88485 0
M  V30 2618 H 230.856 -3.37089 1.89493 0
M  V30 2619 H 232.545 -3.33595 2.31235 0
M  V30 2620 H 233.311 -2.01157 4.41317 0
M  V30 2621 H 229.19 -2.90832 3.57684 0
M  V30 2622 H 232.734 -1.62889 6.78316 0
M  V30 2623 H 228.631 -2.52959 5.9387 0
M  V30 2624 H 229.399 -1.98275 7.94122 0
M  V30 2625 N 232.062 -1.29571 -0.897171 0
M  V30 2626 C 233.473 -1.15964 -1.46319 0
M  V30 2627 C 233.824 0.244267 -1.94674 0
M  V30 2628 O 232.949 1.13998 -1.83939 0
M  V30 2629 C 233.544 -2.09906 -2.65942 0
M  V30 2630 C 232.103 -2.00314 -3.18671 0
M  V30 2631 C 231.25 -2.00687 -1.91363 0
M  V30 2632 H 234.201 -1.42019 -0.708268 0
M  V30 2633 H 234.222 -1.67276 -3.41759 0
M  V30 2634 H 233.734 -3.12075 -2.30718 0
M  V30 2635 H 231.835 -1.01242 -3.58582 0
M  V30 2636 H 231.948 -2.88102 -3.82798 0
M  V30 2637 H 230.312 -1.45319 -2.09175 0
M  V30 2638 H 231.095 -3.04566 -1.58413 0
M  V30 2639 N 233.54 1.10788 -1.12088 0
M  V30 2640 C 234.789 1.82036 -0.868659 0
M  V30 2641 C 235.102 1.85929 0.607426 0
M  V30 2642 O 236.308 2.53346 0.97613 0
M  V30 2643 C 234.764 3.26951 -1.50435 0
M  V30 2644 C 234.372 3.31367 -3.01496 0
M  V30 2645 C 236.116 4.03053 -1.33225 0
M  V30 2646 C 234.023 4.7072 -3.58017 0
M  V30 2647 H 232.953 0.682108 -0.321318 0
M  V30 2648 H 235.604 1.24618 -1.34694 0
M  V30 2649 H 233.986 3.84343 -0.953735 0
M  V30 2650 H 235.16 2.83819 -3.6302 0
M  V30 2651 H 233.475 2.6875 -3.18061 0
M  V30 2652 H 236.072 5.05981 -1.72878 0
M  V30 2653 H 236.415 4.15387 -0.275529 0
M  V30 2654 H 236.948 3.52066 -1.85188 0
M  V30 2655 H 233.687 4.63585 -4.63432 0
M  V30 2656 H 233.207 5.1865 -3.01268 0
M  V30 2657 H 234.886 5.39685 -3.56859 0
M  V30 2658 N 235.018 0.912232 1.28515 0
M  V30 2659 C 236.246 0.560416 1.99166 0
M  V30 2660 C 236.661 -0.857927 1.68182 0
M  V30 2661 O 236.018 -1.56805 0.933733 0
M  V30 2662 C 236.069 0.758142 3.53461 0
M  V30 2663 O 235.79 2.12067 3.83352 0
M  V30 2664 C 237.291 0.412954 4.41372 0
M  V30 2665 H 234.511 0.213805 0.636026 0
M  V30 2666 H 237.055 1.22502 1.63749 0
M  V30 2667 H 235.21 0.140556 3.87145 0
M  V30 2668 H 235.624 2.15923 4.77993 0
M  V30 2669 H 237.098 0.60208 5.48707 0
M  V30 2670 H 237.575 -0.65073 4.34353 0
M  V30 2671 H 238.181 1.00802 4.13182 0
M  V30 2672 N 236.496 -1.42363 0.676048 0
M  V30 2673 C 237.742 -2.0182 0.199125 0
M  V30 2674 C 238.075 -1.53339 -1.19168 0
M  V30 2675 O 237.35 -0.736124 -1.80032 0
M  V30 2676 C 237.633 -3.59331 0.235144 0
M  V30 2677 C 237.486 -4.17989 1.66149 0
M  V30 2678 C 238.805 -4.3813 -0.41595 0
M  V30 2679 H 235.924 -0.733293 0.0738311 0
M  V30 2680 H 238.566 -1.69368 0.86107 0
M  V30 2681 H 236.716 -3.87109 -0.328487 0
M  V30 2682 H 238.388 -4.0116 2.27747 0
M  V30 2683 H 236.631 -3.7377 2.20178 0
M  V30 2684 H 237.302 -5.27126 1.63837 0
M  V30 2685 H 239.778 -4.16051 0.0638529 0
M  V30 2686 H 238.654 -5.47717 -0.360115 0
M  V30 2687 H 238.915 -4.16101 -1.49373 0
M  V30 2688 N 237.974 -0.419461 -1.51915 0
M  V30 2689 C 238.937 0.389116 -2.25873 0
M  V30 2690 C 239.937 0.964924 -1.28631 0
M  V30 2691 O 241.127 0.842179 -1.52489 0
M  V30 2692 C 238.259 1.54874 -3.03689 0
M  V30 2693 H 239.452 -0.258799 -2.98781 0
M  V30 2694 H 237.005 -0.172209 -1.55348 0
M  V30 2695 H 237.74 2.23323 -2.35154 0
M  V30 2696 H 237.525 1.14223 -3.75094 0
M  V30 2697 H 239.015 2.12046 -3.59759 0
M  V30 2698 N 239.452 1.56882 -0.150215 0
M  V30 2699 C 240.68 2.00593 0.506948 0
M  V30 2700 C 241.095 1.03033 1.58208 0
M  V30 2701 O 240.452 0.0278396 1.82479 0
M  V30 2702 C 240.503 3.44209 1.10465 0
M  V30 2703 O 240.224 4.3804 0.0724636 0
M  V30 2704 C 241.725 4.03214 1.84211 0
M  V30 2705 H 238.945 0.65795 0.13169 0
M  V30 2706 H 241.489 2.03018 -0.245743 0
M  V30 2707 H 239.644 3.42625 1.80795 0
M  V30 2708 H 240.058 5.22007 0.510793 0
M  V30 2709 H 241.532 5.0569 2.21318 0
M  V30 2710 H 242.009 3.44107 2.72923 0
M  V30 2711 H 242.615 4.08437 1.18572 0
M  V30 2712 N 240.93 -0.123565 1.57115 0
M  V30 2713 C 241.878 -1.17082 2.00984 0
M  V30 2714 C 242.872 -1.43136 0.906009 0
M  V30 2715 O 244.078 -1.43152 1.09121 0
M  V30 2716 H 240.453 -0.394653 0.64012 0
M  V30 2717 H 242.424 -0.774292 2.88179 0
M  V30 2718 C 241.173 -2.49057 2.42623 0
M  V30 2719 H 240.496 -2.29846 3.27125 0
M  V30 2720 H 241.936 -3.20906 2.7712 0
M  V30 2721 C 240.395 -3.11305 1.28805 0
M  V30 2722 O 240.925 -3.97171 0.60153 0
M  V30 2723 N 239.131 -2.71111 1.04628 0
M  V30 2724 H 238.678 -2.01382 1.60634 0
M  V30 2725 H 238.636 -3.1309 0.286685 0
M  V30 2726 N 242.408 -1.52605 -0.393616 0
M  V30 2727 C 243.633 -1.71592 -1.16495 0
M  V30 2728 C 244.058 -0.43133 -1.83088 0
M  V30 2729 O 243.416 0.612523 -1.7064 0
M  V30 2730 C 243.464 -2.86318 -2.19213 0
M  V30 2731 O 242.568 -2.52969 -3.257 0
M  V30 2732 H 241.909 -0.570734 -0.33935 0
M  V30 2733 H 244.439 -1.99377 -0.459324 0
M  V30 2734 H 244.449 -3.1168 -2.63286 0
M  V30 2735 H 243.124 -3.79511 -1.7013 0
M  V30 2736 H 241.701 -2.38332 -2.86797 0
M  V30 2737 N 243.887 0.651787 -1.4349 0
M  V30 2738 C 245.303 0.96762 -1.26922 0
M  V30 2739 C 245.503 2.00602 -0.189982 0
M  V30 2740 O 244.559 2.48793 0.431107 0
M  V30 2741 C 245.872 1.45052 -2.63401 0
M  V30 2742 C 247.42 1.5671 -2.70945 0
M  V30 2743 C 247.895 2.0839 -4.07845 0
M  V30 2744 N 249.386 2.1569 -4.09917 0
M  V30 2745 C 250.121 2.56804 -5.12679 0
M  V30 2746 N 249.617 2.97203 -6.25813 0
M  V30 2747 N 251.41 2.56756 -5.00033 0
M  V30 2748 H 243.561 -0.0353158 -2.12371 0
M  V30 2749 H 245.824 0.0467858 -0.946845 0
M  V30 2750 H 245.53 0.761926 -3.43348 0
M  V30 2751 H 245.404 2.42529 -2.88894 0
M  V30 2752 H 247.791 2.2467 -1.9133 0
M  V30 2753 H 247.872 0.57662 -2.49216 0
M  V30 2754 H 247.516 1.41031 -4.87927 0
M  V30 2755 H 247.446 3.08271 -4.26938 0
M  V30 2756 H 249.937 1.87237 -3.28254 0
M  V30 2757 H 250.25 3.27328 -7.00055 0
M  V30 2758 H 248.595 2.95004 -6.29283 0
M  V30 2759 H 251.786 2.24572 -4.10713 0
M  V30 2760 H 251.959 2.88475 -5.80247 0
M  V30 2761 N 245.365 1.30045 0.890287 0
M  V30 2762 C 246.275 1.17885 2.02831 0
M  V30 2763 C 247.291 0.0999609 1.73713 0
M  V30 2764 O 248.467 0.313867 1.98939 0
M  V30 2765 C 245.532 0.866079 3.35708 0
M  V30 2766 C 244.593 2.02979 3.78283 0
M  V30 2767 C 243.826 1.73184 5.0482 0
M  V30 2768 O 244.049 0.657237 5.66601 0
M  V30 2769 O 242.983 2.58267 5.43674 0
M  V30 2770 H 246.809 2.13474 2.16015 0
M  V30 2771 H 244.394 1.09587 1.01543 0
M  V30 2772 H 246.276 0.706623 4.15433 0
M  V30 2773 H 244.951 -0.0599443 3.23644 0
M  V30 2774 H 243.858 2.24454 2.99285 0
M  V30 2775 H 245.191 2.93734 3.94944 0
M  V30 2776 N 246.843 -1.10192 1.12674 0
M  V30 2777 C 247.775 -2.16418 0.754701 0
M  V30 2778 C 248.788 -1.61309 -0.21986 0
M  V30 2779 O 249.977 -1.785 -0.000826841 0
M  V30 2780 C 247.077 -3.38762 0.096698 0
M  V30 2781 C 246.25 -4.23307 1.10136 0
M  V30 2782 C 245.309 -5.24092 0.470513 0
M  V30 2783 O 244.335 -5.57906 1.12824 0
M  V30 2784 N 245.537 -5.75491 -0.760948 0
M  V30 2785 H 248.302 -2.48943 1.66875 0
M  V30 2786 H 245.863 -1.25834 1.01869 0
M  V30 2787 H 247.855 -4.03291 -0.337384 0
M  V30 2788 H 246.425 -3.04192 -0.720153 0
M  V30 2789 H 245.645 -3.55036 1.71299 0
M  V30 2790 H 246.933 -4.76624 1.78064 0
M  V30 2791 H 246.331 -5.50222 -1.31424 0
M  V30 2792 H 244.888 -6.41792 -1.13781 0
M  V30 2793 N 248.321 -0.919034 -1.28029 0
M  V30 2794 C 249.268 -0.410005 -2.27129 0
M  V30 2795 C 250.238 0.518405 -1.57803 0
M  V30 2796 O 251.423 0.439451 -1.8567 0
M  V30 2797 C 248.563 0.339054 -3.4343 0
M  V30 2798 C 247.676 -0.622468 -4.27492 0
M  V30 2799 C 246.811 0.145567 -5.31001 0
M  V30 2800 C 245.85 -0.809226 -6.06727 0
M  V30 2801 N 244.987 -0.0743728 -7.02061 0
M  V30 2802 H 249.827 -1.26011 -2.70047 0
M  V30 2803 H 247.364 -0.632663 -1.328 0
M  V30 2804 H 249.322 0.789586 -4.0966 0
M  V30 2805 H 247.952 1.15346 -3.01488 0
M  V30 2806 H 247.004 -1.19153 -3.61257 0
M  V30 2807 H 248.316 -1.35252 -4.80113 0
M  V30 2808 H 247.47 0.656417 -6.03139 0
M  V30 2809 H 246.209 0.908643 -4.79161 0
M  V30 2810 H 245.214 -1.3314 -5.33436 0
M  V30 2811 H 246.439 -1.57194 -6.60656 0
M  V30 2812 H 244.385 0.670616 -6.52563 0
M  V30 2813 H 244.302 -0.744157 -7.52329 0
M  V30 2814 H 245.57 0.416109 -7.78389 0
M  V30 2815 N 249.799 1.42003 -0.683588 0
M  V30 2816 C 250.746 2.30798 -0.0107309 0
M  V30 2817 C 251.716 1.4645 0.783688 0
M  V30 2818 O 252.901 1.75263 0.754156 0
M  V30 2819 C 250.041 3.3238 0.928306 0
M  V30 2820 C 249.154 4.31814 0.126776 0
M  V30 2821 C 248.289 5.20468 1.06236 0
M  V30 2822 C 247.328 6.11577 0.253035 0
M  V30 2823 N 246.465 6.92754 1.14179 0
M  V30 2824 H 251.305 2.8778 -0.773727 0
M  V30 2825 H 248.842 1.41745 -0.393283 0
M  V30 2826 H 250.8 3.89813 1.48666 0
M  V30 2827 H 249.43 2.76976 1.65783 0
M  V30 2828 H 248.482 3.76427 -0.54833 0
M  V30 2829 H 249.794 4.96276 -0.501192 0
M  V30 2830 H 248.948 5.82677 1.69035 0
M  V30 2831 H 247.687 4.56204 1.7242 0
M  V30 2832 H 246.692 5.48428 -0.388108 0
M  V30 2833 H 247.917 6.77892 -0.404839 0
M  V30 2834 H 245.863 6.3111 1.78987 0
M  V30 2835 H 245.78 7.53855 0.569111 0
M  V30 2836 H 247.048 7.59441 1.75697 0
M  V30 2837 N 251.277 0.427512 1.51691 0
M  V30 2838 C 252.526 -0.143679 2.01188 0
M  V30 2839 C 252.839 -1.44642 1.31674 0
M  V30 2840 O 254.045 -2.09997 1.72086 0
M  V30 2841 C 252.501 -0.306602 3.58592 0
M  V30 2842 C 252.109 0.985125 4.37035 0
M  V30 2843 C 253.853 -0.832091 4.16265 0
M  V30 2844 C 251.76 0.788382 5.86122 0
M  V30 2845 H 250.69 -0.0574701 0.751807 0
M  V30 2846 H 253.341 0.555772 1.74881 0
M  V30 2847 H 251.723 -1.06882 3.81303 0
M  V30 2848 H 252.897 1.75492 4.26074 0
M  V30 2849 H 251.212 1.4384 3.90767 0
M  V30 2850 H 253.809 -0.995617 5.25349 0
M  V30 2851 H 254.152 -1.81186 3.74803 0
M  V30 2852 H 254.685 -0.128444 3.97593 0
M  V30 2853 H 251.424 1.74025 6.31978 0
M  V30 2854 H 250.944 0.0582143 5.99772 0
M  V30 2855 H 252.623 0.437722 6.45518 0
M  V30 2856 N 252.755 -1.56801 0.158532 0
M  V30 2857 C 253.685 -2.20347 -0.772609 0
M  V30 2858 C 254.666 -1.15518 -1.24859 0
M  V30 2859 O 255.851 -1.43902 -1.30406 0
M  V30 2860 C 252.981 -2.83417 -2.00729 0
M  V30 2861 C 251.935 -3.94174 -1.66765 0
M  V30 2862 C 251.261 -4.44233 -2.97592 0
M  V30 2863 C 252.561 -5.14392 -0.905447 0
M  V30 2864 H 254.255 -2.98413 -0.242959 0
M  V30 2865 H 251.801 -1.43537 -0.115419 0
M  V30 2866 H 253.754 -3.26543 -2.6636 0
M  V30 2867 H 252.478 -2.02701 -2.56086 0
M  V30 2868 H 251.137 -3.51684 -1.03508 0
M  V30 2869 H 250.785 -3.60325 -3.50963 0
M  V30 2870 H 250.485 -5.18945 -2.75626 0
M  V30 2871 H 252.009 -4.90037 -3.64274 0
M  V30 2872 H 253.423 -5.5429 -1.46408 0
M  V30 2873 H 251.82 -5.9494 -0.7853 0
M  V30 2874 H 252.89 -4.84795 0.100668 0
M  V30 2875 N 254.233 0.115231 -1.57178 0
M  V30 2876 C 255.196 1.12526 -1.99676 0
M  V30 2877 C 256.196 1.34095 -0.88742 0
M  V30 2878 O 257.386 1.30548 -1.15337 0
M  V30 2879 C 254.518 2.4789 -2.34015 0
M  V30 2880 H 255.711 0.759912 -2.90113 0
M  V30 2881 H 253.264 0.359648 -1.52106 0
M  V30 2882 H 253.999 2.89339 -1.4647 0
M  V30 2883 H 253.784 2.33588 -3.14927 0
M  V30 2884 H 255.274 3.20575 -2.67622 0
M  V30 2885 N 255.711 1.52812 0.385517 0
M  V30 2886 C 256.658 1.77838 1.47113 0
M  V30 2887 C 257.628 0.621757 1.54024 0
M  V30 2888 O 258.813 0.861846 1.70226 0
M  V30 2889 C 255.953 1.95618 2.84302 0
M  V30 2890 C 255.066 3.23316 2.86515 0
M  V30 2891 C 254.201 3.31394 4.15152 0
M  V30 2892 C 253.24 4.53201 4.1143 0
M  V30 2893 N 252.377 4.58542 5.3168 0
M  V30 2894 H 257.217 2.70482 1.25073 0
M  V30 2895 H 254.754 1.34006 0.606692 0
M  V30 2896 H 256.712 2.03912 3.63972 0
M  V30 2897 H 255.342 1.06331 3.04784 0
M  V30 2898 H 254.394 3.24076 1.99195 0
M  V30 2899 H 255.706 4.13045 2.79634 0
M  V30 2900 H 254.86 3.3889 5.03228 0
M  V30 2901 H 253.599 2.39645 4.24761 0
M  V30 2902 H 252.604 4.45827 3.21742 0
M  V30 2903 H 253.829 5.46271 4.03442 0
M  V30 2904 H 251.775 3.69686 5.41912 0
M  V30 2905 H 251.692 5.42148 5.26889 0
M  V30 2906 H 252.96 4.70296 6.21644 0
M  V30 2907 N 257.189 -0.644168 1.43834 0
M  V30 2908 C 258.419 -1.42939 1.49171 0
M  V30 2909 C 258.827 -1.88874 0.111048 0
M  V30 2910 O 258.17 -1.60656 -0.8908 0
M  V30 2911 C 258.232 -2.69151 2.38324 0
M  V30 2912 C 257.896 -2.45097 3.85715 0
M  V30 2913 C 258.893 -2.07747 4.76589 0
M  V30 2914 C 256.578 -2.59141 4.30292 0
M  V30 2915 C 258.572 -1.8475 6.10038 0
M  V30 2916 C 256.259 -2.35759 5.63792 0
M  V30 2917 C 257.257 -1.9862 6.53482 0
M  V30 2918 O 256.945 -1.75489 7.84512 0
M  V30 2919 H 256.677 -0.445271 0.508635 0
M  V30 2920 H 259.231 -0.79621 1.8934 0
M  V30 2921 H 257.461 -3.3506 1.93058 0
M  V30 2922 H 259.15 -3.31123 2.3476 0
M  V30 2923 H 259.916 -1.96465 4.43426 0
M  V30 2924 H 255.795 -2.87022 3.60749 0
M  V30 2925 H 259.339 -1.55686 6.80006 0
M  V30 2926 H 255.236 -2.46646 5.9652 0
M  V30 2927 H 256.004 -1.89841 7.9618 0
M  V30 2928 N 258.668 -1.30515 -0.883378 0
M  V30 2929 C 259.598 -1.19607 -2.00541 0
M  V30 2930 C 260.579 -0.086346 -1.69881 0
M  V30 2931 O 261.764 -0.268654 -1.92333 0
M  V30 2932 C 258.894 -0.888758 -3.35736 0
M  V30 2933 C 257.848 -1.95659 -3.8066 0
M  V30 2934 C 257.174 -1.50224 -5.13164 0
M  V30 2935 C 258.474 -3.36788 -3.99213 0
M  V30 2936 H 260.168 -2.13476 -2.09925 0
M  V30 2937 H 257.714 -1.02775 -1.00863 0
M  V30 2938 H 259.667 -0.799094 -4.13754 0
M  V30 2939 H 258.391 0.0856125 -3.26488 0
M  V30 2940 H 257.05 -2.03591 -3.04871 0
M  V30 2941 H 256.698 -0.516092 -5.00345 0
M  V30 2942 H 256.398 -2.2165 -5.44192 0
M  V30 2943 H 257.922 -1.42639 -5.93706 0
M  V30 2944 H 259.336 -3.31605 -4.67665 0
M  V30 2945 H 257.733 -4.06314 -4.41621 0
M  V30 2946 H 258.803 -3.78561 -3.03017 0
M  V30 2947 N 260.146 1.09593 -1.13257 0
M  V30 2948 C 261.076 2.18214 -0.830946 0
M  V30 2949 C 262.057 1.68812 0.208966 0
M  V30 2950 O 263.242 1.9408 0.0682666 0
M  V30 2951 C 260.372 3.46051 -0.294296 0
M  V30 2952 C 259.326 4.08778 -1.26826 0
M  V30 2953 C 258.652 5.31419 -0.591449 0
M  V30 2954 C 259.952 4.51476 -2.62615 0
M  V30 2955 H 261.646 2.43703 -1.73923 0
M  V30 2956 H 259.192 1.17128 -0.837675 0
M  V30 2957 H 261.145 4.2134 -0.0709606 0
M  V30 2958 H 259.869 3.20079 0.649366 0
M  V30 2959 H 258.528 3.35505 -1.47756 0
M  V30 2960 H 258.176 5.01727 0.357633 0
M  V30 2961 H 257.876 5.74341 -1.24123 0
M  V30 2962 H 259.4 6.09433 -0.377355 0
M  V30 2963 H 260.814 5.17999 -2.45663 0
M  V30 2964 H 259.211 5.05277 -3.23752 0
M  V30 2965 H 260.281 3.63962 -3.20406 0
M  V30 2966 N 261.624 0.925811 1.2754 0
M  V30 2967 C 262.534 0.428993 2.30644 0
M  V30 2968 C 263.55 -0.489387 1.66976 0
M  V30 2969 O 264.726 -0.372653 1.97922 0
M  V30 2970 C 261.791 -0.311967 3.45294 0
M  V30 2971 C 260.852 0.641098 4.24486 0
M  V30 2972 C 260.085 -0.0645955 5.33661 0
M  V30 2973 O 260.308 -1.28429 5.55754 0
M  V30 2974 O 259.242 0.606265 5.98839 0
M  V30 2975 H 263.068 1.28504 2.75173 0
M  V30 2976 H 260.653 0.691086 1.32455 0
M  V30 2977 H 262.535 -0.729972 4.15029 0
M  V30 2978 H 261.21 -1.14365 3.02824 0
M  V30 2979 H 260.117 1.10874 3.57292 0
M  V30 2980 H 261.45 1.43995 4.70666 0
M  V30 2981 N 263.102 -1.41638 0.69111 0
M  V30 2982 C 264.33 -2.05628 0.22909 0
M  V30 2983 C 264.745 -1.51992 -1.11999 0
M  V30 2984 O 264.102 -0.666322 -1.69901 0
M  V30 2985 C 264.153 -3.61084 0.173283 0
M  V30 2986 O 263.874 -4.12735 1.46907 0
M  V30 2987 C 265.375 -4.42213 -0.310266 0
M  V30 2988 H 262.595 -0.662327 0.107534 0
M  V30 2989 H 265.139 -1.81489 0.942438 0
M  V30 2990 H 263.294 -3.84278 -0.490858 0
M  V30 2991 H 263.708 -5.06743 1.35322 0
M  V30 2992 H 265.182 -5.51194 -0.298196 0
M  V30 2993 H 265.659 -4.1799 -1.34838 0
M  V30 2994 H 266.265 -4.24074 0.322716 0
M  V30 2995 N 264.58 -0.43555 -1.51462 0
M  V30 2996 C 265.805 0.132627 -2.06976 0
M  V30 2997 C 266.23 1.35848 -1.30104 0
M  V30 2998 O 265.588 1.78112 -0.338493 0
M  V30 2999 C 265.636 0.43523 -3.57964 0
M  V30 3000 O 264.74 1.52198 -3.83288 0
M  V30 3001 H 264.081 0.00265 -0.663995 0
M  V30 3002 H 266.611 -0.616369 -1.95095 0
M  V30 3003 H 266.621 0.686206 -4.02188 0
M  V30 3004 H 265.296 -0.460739 -4.1334 0
M  V30 3005 H 263.873 1.2611 -3.50928 0
M  V30 3006 N 266.058 1.56714 -0.166846 0
M  V30 3007 C 267.306 1.96358 0.478305 0
M  V30 3008 C 267.627 1.0537 1.6408 0
M  V30 3009 O 266.897 0.119154 1.95537 0
M  V30 3010 H 265.477 0.725065 0.179692 0
M  V30 3011 H 268.139 1.93329 -0.246985 0
M  V30 3012 H 267.235 3.00547 0.841292 0
M  V30 3013 N 267.536 -0.106894 1.57237 0
M  V30 3014 C 268.484 -1.14944 2.02215 0
M  V30 3015 C 269.478 -1.42167 0.92114 0
M  V30 3016 O 270.684 -1.41987 1.10634 0
M  V30 3017 H 267.059 -0.387841 0.64427 0
M  V30 3018 H 269.03 -0.743683 2.88984 0
M  V30 3019 C 267.779 -2.4647 2.4525 0
M  V30 3020 H 267.102 -2.26363 3.29545 0
M  V30 3021 H 268.542 -3.17948 2.80508 0
M  V30 3022 C 267.001 -3.09921 1.321 0
M  V30 3023 O 267.531 -3.9651 0.643622 0
M  V30 3024 N 265.737 -2.69986 1.07497 0
M  V30 3025 H 265.284 -1.99667 1.62761 0
M  V30 3026 H 265.242 -3.12769 0.319876 0
M  V30 3027 N 269.014 -1.53014 -0.377408 0
M  V30 3028 C 269.944 -1.81589 -1.46791 0
M  V30 3029 C 270.925 -0.668622 -1.56408 0
M  V30 3030 O 272.11 -0.917337 -1.71168 0
M  V30 3031 C 269.24 -1.99519 -2.8427 0
M  V30 3032 C 268.194 -3.15249 -2.89486 0
M  V30 3033 C 267.52 -3.18451 -4.29527 0
M  V30 3034 C 268.82 -4.54084 -2.58079 0
M  V30 3035 H 270.514 -2.7291 -1.23127 0
M  V30 3036 H 268.06 -1.31319 -0.590883 0
M  V30 3037 H 270.013 -2.18092 -3.60575 0
M  V30 3038 H 268.737 -1.04897 -3.09296 0
M  V30 3039 H 267.396 -2.96477 -2.15631 0
M  V30 3040 H 267.044 -2.2149 -4.5161 0
M  V30 3041 H 266.744 -3.962 -4.33934 0
M  V30 3042 H 268.268 -3.39193 -5.07721 0
M  V30 3043 H 269.682 -4.72899 -3.24098 0
M  V30 3044 H 268.079 -5.33987 -2.7382 0
M  V30 3045 H 269.149 -4.60006 -1.53372 0
M  V30 3046 N 270.492 0.636531 -1.44174 0
M  V30 3047 C 271.769 1.39463 -1.37148 0
M  V30 3048 C 272.149 2.11082 -0.027507 0
M  V30 3049 O 271.497 2.05954 0.989716 0
M  V30 3050 C 271.707 2.36552 -2.56601 0
M  V30 3051 C 273.055 3.00048 -3.00427 0
M  V30 3052 O 274.079 2.46878 -2.56767 0
M  V30 3053 O 272.938 3.96488 -3.76111 0
M  V30 3054 H 270.032 0.623903 -0.542839 0
M  V30 3055 H 272.578 0.662039 -1.56253 0
M  V30 3056 H 271.35 1.82692 -3.46034 0
M  V30 3057 H 270.973 3.17236 -2.39681 0
M  V30 3058 N 271.97 1.30982 0.876444 0
M  V30 3059 C 273.218 1.20058 1.62575 0
M  V30 3060 C 273.539 -0.242947 1.93481 0
M  V30 3061 O 272.809 -1.1619 1.57724 0
M  V30 3062 H 271.389 0.44135 0.602677 0
M  V30 3063 H 274.051 1.64222 1.04962 0
M  V30 3064 H 273.147 1.76762 2.57219 0
M  V30 3065 N 273.449 -1.08991 1.13837 0
M  V30 3066 C 274.379 -2.17771 0.842507 0
M  V30 3067 C 275.36 -1.6892 -0.20001 0
M  V30 3068 O 276.545 -1.94113 -0.0579731 0
M  V30 3069 C 273.675 -3.4589 0.312644 0
M  V30 3070 C 272.629 -4.08099 1.28992 0
M  V30 3071 C 271.955 -5.31098 0.619623 0
M  V30 3072 C 273.255 -4.50077 2.65005 0
M  V30 3073 H 274.949 -2.42777 1.75213 0
M  V30 3074 H 272.495 -1.16682 0.843875 0
M  V30 3075 H 274.448 -4.21297 0.0933043 0
M  V30 3076 H 273.172 -3.20419 -0.632382 0
M  V30 3077 H 271.831 -3.34717 1.49533 0
M  V30 3078 H 271.479 -5.0191 -0.33102 0
M  V30 3079 H 271.179 -5.73674 1.27167 0
M  V30 3080 H 272.703 -6.09224 0.409669 0
M  V30 3081 H 274.117 -5.16688 2.48407 0
M  V30 3082 H 272.514 -5.03553 3.26427 0
M  V30 3083 H 273.584 -3.62257 3.22332 0
M  V30 3084 N 274.927 -0.932562 -1.27047 0
M  V30 3085 C 275.837 -0.441219 -2.30414 0
M  V30 3086 C 276.853 0.480525 -1.67233 0
M  V30 3087 O 278.029 0.362151 -1.98117 0
M  V30 3088 C 275.094 0.293651 -3.45454 0
M  V30 3089 C 274.155 -0.663601 -4.2414 0
M  V30 3090 C 273.388 0.0362932 -5.33688 0
M  V30 3091 O 273.611 1.2548 -5.56427 0
M  V30 3092 O 272.545 -0.638015 -5.98509 0
M  V30 3093 H 276.371 -1.29962 -2.74488 0
M  V30 3094 H 273.956 -0.6981 -1.32087 0
M  V30 3095 H 275.838 0.707951 -4.15411 0
M  V30 3096 H 274.513 1.12758 -3.03426 0
M  V30 3097 H 273.42 -1.12768 -3.56699 0
M  V30 3098 H 274.753 -1.46489 -4.69896 0
M  V30 3099 N 276.405 1.4127 -0.698611 0
M  V30 3100 C 277.635 2.05205 -0.239644 0
M  V30 3101 C 278.043 1.52684 1.11733 0
M  V30 3102 O 277.386 0.671222 1.70998 0
M  V30 3103 C 277.448 3.59289 -0.123126 0
M  V30 3104 C 277.112 4.34619 -1.41263 0
M  V30 3105 C 278.109 4.63701 -2.35111 0
M  V30 3106 C 275.794 4.73837 -1.66684 0
M  V30 3107 C 277.788 5.30966 -3.52639 0
M  V30 3108 C 275.475 5.40837 -2.84498 0
M  V30 3109 C 276.473 5.69329 -3.77298 0
M  V30 3110 O 276.161 6.34949 -4.93047 0
M  V30 3111 H 275.893 0.66723 -0.108537 0
M  V30 3112 H 278.447 1.81974 -0.952602 0
M  V30 3113 H 276.677 3.81272 0.645628 0
M  V30 3114 H 278.366 4.04797 0.299056 0
M  V30 3115 H 279.132 4.33882 -2.16729 0
M  V30 3116 H 275.011 4.51039 -0.953135 0
M  V30 3117 H 278.555 5.53121 -4.25091 0
M  V30 3118 H 274.452 5.70075 -3.02795 0
M  V30 3119 H 275.22 6.53445 -4.92902 0
M  V30 3120 N 277.883 0.443576 1.51229 0
M  V30 3121 C 278.83 -0.364716 2.279 0
M  V30 3122 C 279.8 -1.0114 1.31757 0
M  V30 3123 O 280.985 -1.02912 1.60667 0
M  V30 3124 C 278.125 -1.45644 3.12861 0
M  V30 3125 C 277.238 -0.827269 4.24005 0
M  V30 3126 C 276.373 -1.89456 4.96266 0
M  V30 3127 C 275.412 -1.24416 5.99322 0
M  V30 3128 N 274.549 -2.25309 6.64966 0
M  V30 3129 H 279.389 0.295464 2.96532 0
M  V30 3130 H 276.926 0.157554 1.46254 0
M  V30 3131 H 278.884 -2.10076 3.6045 0
M  V30 3132 H 277.514 -2.08616 2.46331 0
M  V30 3133 H 276.566 -0.0710839 3.80334 0
M  V30 3134 H 277.878 -0.312481 4.9782 0
M  V30 3135 H 277.032 -2.61535 5.47434 0
M  V30 3136 H 275.771 -2.4431 4.22095 0
M  V30 3137 H 274.776 -0.508868 5.4744 0
M  V30 3138 H 276.001 -0.702882 6.75453 0
M  V30 3139 H 273.947 -2.79231 5.93604 0
M  V30 3140 H 273.864 -1.78739 7.34567 0
M  V30 3141 H 275.132 -2.96853 7.20763 0
M  V30 3142 N 279.361 -1.56624 0.175154 0
M  V30 3143 C 280.291 -2.21155 -0.749195 0
M  V30 3144 C 281.272 -1.16836 -1.23626 0
M  V30 3145 O 282.457 -1.45277 -1.28873 0
M  V30 3146 C 279.587 -2.8553 -1.97711 0
M  V30 3147 C 278.541 -3.95921 -1.62575 0
M  V30 3148 C 277.867 -4.47365 -2.92864 0
M  V30 3149 C 279.167 -5.15323 -0.850838 0
M  V30 3150 H 280.861 -2.98653 -0.211295 0
M  V30 3151 H 278.407 -1.43651 -0.100188 0
M  V30 3152 H 280.36 -3.2935 -2.62881 0
M  V30 3153 H 279.084 -2.05406 -2.53921 0
M  V30 3154 H 277.743 -3.52762 -0.997719 0
M  V30 3155 H 277.391 -3.64027 -3.47122 0
M  V30 3156 H 277.091 -5.21839 -2.70106 0
M  V30 3157 H 278.615 -4.93873 -3.59056 0
M  V30 3158 H 280.029 -5.55812 -1.40521 0
M  V30 3159 H 278.426 -5.95739 -0.722154 0
M  V30 3160 H 279.496 -4.84661 0.152082 0
M  V30 3161 N 280.839 0.0985539 -1.57292 0
M  V30 3162 C 281.789 1.1261 -1.9825 0
M  V30 3163 C 282.773 1.35961 -0.860426 0
M  V30 3164 O 283.965 1.36711 -1.12424 0
M  V30 3165 C 281.094 2.44727 -2.40757 0
M  V30 3166 C 280.18 2.24764 -3.59642 0
M  V30 3167 N 280.571 1.74661 -4.74687 0
M  V30 3168 C 278.869 2.55344 -3.65672 0
M  V30 3169 C 279.57 1.68887 -5.56644 0
M  V30 3170 N 278.546 2.13976 -4.99715 0
M  V30 3171 H 282.348 0.731604 -2.84648 0
M  V30 3172 H 279.862 0.306029 -1.59491 0
M  V30 3173 H 281.859 3.19072 -2.68326 0
M  V30 3174 H 280.519 2.84917 -1.55733 0
M  V30 3175 H 281.53 1.43908 -4.97505 0
M  V30 3176 H 278.207 2.99081 -2.91302 0
M  V30 3177 H 279.597 1.3123 -6.5896 0
M  V30 3178 N 282.317 1.53212 0.369288 0
M  V30 3179 C 283.594 1.59815 1.12776 0
M  V30 3180 C 283.974 0.403402 2.0721 0
M  V30 3181 O 283.322 -0.606667 2.20299 0
M  V30 3182 C 283.532 2.94664 1.87013 0
M  V30 3183 C 284.88 3.49109 2.41677 0
M  V30 3184 O 285.904 2.96669 1.97144 0
M  V30 3185 O 284.763 4.40775 3.23079 0
M  V30 3186 H 281.857 0.645376 0.517125 0
M  V30 3187 H 284.403 1.65553 0.37285 0
M  V30 3188 H 283.175 3.73061 1.18071 0
M  V30 3189 H 282.798 2.92401 2.69421 0
M  V30 3190 N 283.795 -0.628877 1.44509 0
M  V30 3191 C 285.042 -1.38839 1.47411 0
M  V30 3192 C 285.37 -1.94202 0.10757 0
M  V30 3193 O 284.625 -1.74243 -0.890947 0
M  V30 3194 C 284.924 -2.56995 2.48371 0
M  V30 3195 C 284.59 -2.19908 3.93639 0
M  V30 3196 C 283.252 -2.09506 4.33198 0
M  V30 3197 C 285.604 -1.9064 4.85083 0
M  V30 3198 C 282.932 -1.68028 5.62124 0
M  V30 3199 C 285.284 -1.50655 6.14399 0
M  V30 3200 C 283.948 -1.38796 6.5291 0
M  V30 3201 H 283.218 -0.508048 0.539414 0
M  V30 3202 H 285.865 -0.712913 1.77735 0
M  V30 3203 H 284.17 -3.29786 2.11538 0
M  V30 3204 H 285.867 -3.15223 2.47861 0
M  V30 3205 H 282.457 -2.28922 3.62343 0
M  V30 3206 H 286.641 -1.97585 4.55273 0
M  V30 3207 H 281.897 -1.57452 5.90778 0
M  V30 3208 H 286.071 -1.27048 6.84713 0
M  V30 3209 H 283.698 -1.06429 7.52713 0
M  V30 3210 N 285.273 -1.31445 -0.869486 0
M  V30 3211 C 286.521 -1.20918 -1.61936 0
M  V30 3212 C 286.842 0.232683 -1.93607 0
M  V30 3213 O 286.112 1.15352 -1.58338 0
M  V30 3214 H 284.692 -0.44454 -0.600328 0
M  V30 3215 H 287.354 -1.64776 -1.0409 0
M  V30 3216 H 286.45 -1.78124 -2.56278 0
M  V30 3217 N 286.751 1.08385 -1.14413 0
M  V30 3218 C 287.981 1.8425 -0.934644 0
M  V30 3219 C 288.389 1.81907 0.520234 0
M  V30 3220 O 287.732 1.22126 1.37226 0
M  V30 3221 C 287.794 3.32853 -1.35828 0
M  V30 3222 C 287.458 3.5893 -2.82875 0
M  V30 3223 C 288.455 3.53756 -3.80989 0
M  V30 3224 C 286.14 3.86934 -3.20293 0
M  V30 3225 C 288.134 3.76216 -5.14529 0
M  V30 3226 C 285.821 4.09047 -4.54008 0
M  V30 3227 C 286.819 4.03682 -5.50936 0
M  V30 3228 O 286.507 4.25214 -6.82238 0
M  V30 3229 H 286.239 0.588502 -0.332628 0
M  V30 3230 H 288.793 1.37792 -1.52324 0
M  V30 3231 H 287.023 3.8007 -0.713019 0
M  V30 3232 H 288.712 3.90154 -1.11957 0
M  V30 3233 H 289.478 3.32135 -3.53428 0
M  V30 3234 H 285.357 3.9023 -2.45442 0
M  V30 3235 H 288.901 3.71943 -5.90173 0
M  V30 3236 H 284.798 4.30151 -4.8129 0
M  V30 3237 H 285.566 4.42619 -6.88499 0
M  V30 3238 N 288.23 0.939286 1.26551 0
M  V30 3239 C 289.646 0.641304 1.46149 0
M  V30 3240 C 289.846 -0.805964 1.84679 0
M  V30 3241 O 288.902 -1.58278 1.96734 0
M  V30 3242 C 290.215 1.6011 2.54529 0
M  V30 3243 C 291.763 1.6106 2.68382 0
M  V30 3244 C 292.238 2.55765 3.79932 0
M  V30 3245 N 293.729 2.5404 3.87322 0
M  V30 3246 C 294.464 3.24004 4.73085 0
M  V30 3247 N 293.96 4.03388 5.63249 0
M  V30 3248 N 295.753 3.12965 4.66914 0
M  V30 3249 H 287.904 1.87478 0.998285 0
M  V30 3250 H 290.167 0.805559 0.499779 0
M  V30 3251 H 289.873 2.63412 2.33039 0
M  V30 3252 H 289.747 1.35171 3.52149 0
M  V30 3253 H 292.134 0.584835 2.89247 0
M  V30 3254 H 292.215 1.90053 1.71212 0
M  V30 3255 H 291.859 3.58458 3.5982 0
M  V30 3256 H 291.789 2.24063 4.76554 0
M  V30 3257 H 294.28 1.96396 3.22858 0
M  V30 3258 H 294.593 4.5373 6.25579 0
M  V30 3259 H 292.938 4.07489 5.63008 0
M  V30 3260 H 296.129 2.50432 3.95476 0
M  V30 3261 H 296.302 3.67759 5.33533 0
M  V30 3262 N 289.708 -1.40897 0.706093 0
M  V30 3263 C 290.956 -2.00657 0.241054 0
M  V30 3264 C 291.277 -1.56241 -1.16678 0
M  V30 3265 O 290.547 -0.79765 -1.78926 0
M  V30 3266 H 289.127 -0.742018 0.0861308 0
M  V30 3267 H 291.789 -1.72372 0.909604 0
M  V30 3268 H 290.885 -3.10958 0.266705 0
M  V30 3269 N 291.186 -0.45159 -1.50991 0
M  V30 3270 C 292.432 0.110237 -2.025 0
M  V30 3271 C 292.765 1.41109 -1.33424 0
M  V30 3272 O 292.04 1.89135 -0.453659 0
M  V30 3273 C 292.323 0.314271 -3.58726 0
M  V30 3274 C 292.176 -1.00623 -4.38401 0
M  V30 3275 C 293.495 1.07767 -4.26702 0
M  V30 3276 H 290.614 0.0385897 -0.735989 0
M  V30 3277 H 293.256 -0.593374 -1.80497 0
M  V30 3278 H 291.406 0.913601 -3.77605 0
M  V30 3279 H 293.078 -1.64064 -4.31139 0
M  V30 3280 H 291.321 -1.6075 -4.02917 0
M  V30 3281 H 291.992 -0.817341 -5.45915 0
M  V30 3282 H 294.468 0.56986 -4.12179 0
M  V30 3283 H 293.344 1.18921 -5.35863 0
M  V30 3284 H 293.605 2.10939 -3.88532 0
M  V30 3285 N 292.664 1.56529 -0.183458 0
M  V30 3286 C 293.889 2.02064 0.467428 0
M  V30 3287 C 294.314 1.06282 1.55196 0
M  V30 3288 O 293.672 0.0443565 1.81246 0
M  V30 3289 C 293.72 3.46122 1.01153 0
M  V30 3290 O 292.824 3.53437 2.12499 0
M  V30 3291 H 292.165 0.654726 0.110588 0
M  V30 3292 H 294.695 2.02521 -0.290917 0
M  V30 3293 H 294.705 3.85676 1.33108 0
M  V30 3294 H 293.38 4.15331 0.217533 0
M  V30 3295 H 291.957 3.2575 1.81497 0
M  V30 3296 N 294.142 -0.090211 1.57342 0
M  V30 3297 C 295.367 -0.810082 1.90925 0
M  V30 3298 C 295.792 -1.71248 0.778187 0
M  V30 3299 O 295.15 -1.79278 -0.269991 0
M  V30 3300 C 295.198 -1.59529 3.23393 0
M  V30 3301 O 294.302 -2.70461 3.11327 0
M  V30 3302 H 293.643 -0.222231 0.625707 0
M  V30 3303 H 296.173 -0.0639716 2.045 0
M  V30 3304 H 296.183 -1.97847 3.5682 0
M  V30 3305 H 294.858 -0.933055 4.05299 0
M  V30 3306 H 293.435 -2.35135 2.89423 0
M  V30 3307 N 295.62 -1.53406 -0.361157 0
M  V30 3308 C 296.552 -1.76446 -1.46286 0
M  V30 3309 C 297.565 -0.645322 -1.49464 0
M  V30 3310 O 298.754 -0.921681 -1.52864 0
M  V30 3311 C 295.854 -1.83332 -2.85031 0
M  V30 3312 C 295.027 -3.13033 -3.05498 0
M  V30 3313 C 294.086 -3.11104 -4.24383 0
M  V30 3314 O 293.112 -3.84888 -4.19344 0
M  V30 3315 N 294.314 -2.32234 -5.32022 0
M  V30 3316 H 297.079 -2.71508 -1.26899 0
M  V30 3317 H 294.64 -1.52238 -0.550915 0
M  V30 3318 H 296.632 -1.79514 -3.62708 0
M  V30 3319 H 295.202 -0.955342 -2.97644 0
M  V30 3320 H 294.422 -3.30119 -2.15442 0
M  V30 3321 H 295.71 -3.9874 -3.16044 0
M  V30 3322 H 295.108 -1.71807 -5.38979 0
M  V30 3323 H 293.665 -2.3423 -6.08259 0
M  V30 3324 N 297.098 0.621204 -1.44841 0
M  V30 3325 C 298.008 1.7612 -1.5498 0
M  V30 3326 C 299.024 1.68477 -0.434927 0
M  V30 3327 O 300.2 1.89076 -0.693693 0
M  V30 3328 C 297.265 3.1254 -1.50065 0
M  V30 3329 C 296.326 3.31741 -2.72482 0
M  V30 3330 C 295.559 4.61653 -2.67792 0
M  V30 3331 O 295.782 5.431 -1.74352 0
M  V30 3332 O 294.716 4.83271 -3.58794 0
M  V30 3333 H 298.542 1.70518 -2.51311 0
M  V30 3334 H 296.127 0.783643 -1.27198 0
M  V30 3335 H 298.009 3.93844 -1.49882 0
M  V30 3336 H 296.684 3.18663 -0.568806 0
M  V30 3337 H 295.591 2.50077 -2.7823 0
M  V30 3338 H 296.924 3.30486 -3.64746 0
M  V30 3339 N 298.576 1.31904 0.862503 0
M  V30 3340 C 299.804 1.24998 1.64873 0
M  V30 3341 C 300.219 -0.183425 1.87907 0
M  V30 3342 O 299.576 -1.11794 1.44251 0
M  V30 3343 C 299.627 1.99829 3.01248 0
M  V30 3344 O 299.348 3.37575 2.79239 0
M  V30 3345 C 300.849 1.99852 3.95694 0
M  V30 3346 H 298.069 0.431599 0.513773 0
M  V30 3347 H 300.613 1.73901 1.07604 0
M  V30 3348 H 298.768 1.54668 3.55185 0
M  V30 3349 H 299.182 3.75776 3.65914 0
M  V30 3350 H 300.656 2.56709 4.88676 0
M  V30 3351 H 301.133 0.982852 4.28062 0
M  V30 3352 H 301.739 2.44926 3.47694 0
M  V30 3353 N 300.054 -1.07777 1.14986 0
M  V30 3354 C 301.017 -2.13041 0.845358 0
M  V30 3355 C 302.017 -1.60071 -0.152931 0
M  V30 3356 O 303.207 -1.74033 0.0761879 0
M  V30 3357 C 300.339 -3.39896 0.261383 0
M  V30 3358 H 301.532 -2.41485 1.77834 0
M  V30 3359 H 299.085 -1.23595 0.956757 0
M  V30 3360 H 299.82 -3.17091 -0.68 0
M  V30 3361 H 299.605 -3.79642 0.980514 0
M  V30 3362 H 301.095 -4.17548 0.0657687 0
M  V30 3363 N 301.532 -0.945985 -1.26051 0
M  V30 3364 C 302.78 -0.594941 -1.93145 0
M  V30 3365 C 303.101 0.86953 -1.7454 0
M  V30 3366 O 302.371 1.61838 -1.10387 0
M  V30 3367 H 300.951 -0.217044 -0.714773 0
M  V30 3368 H 303.613 -1.20235 -1.53393 0
M  V30 3369 H 302.709 -0.816835 -3.01221 0
M  V30 3370 N 303.011 1.40521 -0.713556 0
M  V30 3371 C 304.26 2.00155 -0.249192 0
M  V30 3372 C 304.573 1.57224 1.16362 0
M  V30 3373 O 305.779 2.09542 1.72639 0
M  V30 3374 C 304.235 3.5773 -0.3946 0
M  V30 3375 C 303.843 4.09635 -1.81392 0
M  V30 3376 C 305.587 4.24499 0.00907364 0
M  V30 3377 C 303.494 5.59707 -1.91003 0
M  V30 3378 H 302.424 0.74868 -0.0894114 0
M  V30 3379 H 305.075 1.60784 -0.884352 0
M  V30 3380 H 303.457 3.94792 0.30911 0
M  V30 3381 H 304.631 3.83955 -2.54785 0
M  V30 3382 H 302.946 3.55456 -2.16888 0
M  V30 3383 H 305.543 5.34683 -0.0420404 0
M  V30 3384 H 305.886 4.02824 1.05065 0
M  V30 3385 H 306.419 3.92536 -0.645007 0
M  V30 3386 H 303.158 5.86234 -2.93275 0
M  V30 3387 H 302.678 5.87258 -1.22019 0
M  V30 3388 H 304.357 6.24776 -1.6812 0
M  V30 3389 N 304.489 0.459591 1.5075 0
M  V30 3390 C 305.737 -0.0991532 2.01857 0
M  V30 3391 C 306.058 -1.41247 1.34441 0
M  V30 3392 O 305.328 -1.89775 0.486022 0
M  V30 3393 H 303.908 -0.039633 0.745948 0
M  V30 3394 H 306.57 0.607387 1.85194 0
M  V30 3395 H 305.666 -0.258998 3.11023 0
M  V30 3396 N 305.967 -1.56429 0.191757 0
M  V30 3397 C 306.93 -2.17707 -0.716688 0
M  V30 3398 C 307.93 -1.13061 -1.14341 0
M  V30 3399 O 309.12 -1.38464 -1.05704 0
M  V30 3400 C 306.252 -2.77644 -1.97804 0
M  V30 3401 H 307.445 -2.99342 -0.1829 0
M  V30 3402 H 304.998 -1.56193 -0.0578566 0
M  V30 3403 H 305.733 -1.99799 -2.55443 0
M  V30 3404 H 305.518 -3.54246 -1.68083 0
M  V30 3405 H 307.008 -3.24708 -2.62592 0
M  V30 3406 N 307.445 0.0818655 -1.57387 0
M  V30 3407 C 308.67 0.799946 -1.91352 0
M  V30 3408 C 309.095 1.70833 -0.787258 0
M  V30 3409 O 308.453 1.79419 0.26048 0
M  V30 3410 C 308.501 1.57812 -3.24234 0
M  V30 3411 O 307.605 2.68806 -3.12757 0
M  V30 3412 H 306.946 0.21891 -0.626877 0
M  V30 3413 H 309.476 0.0531256 -2.04531 0
M  V30 3414 H 309.486 1.95952 -3.57864 0
M  V30 3415 H 308.161 0.911548 -4.05788 0
M  V30 3416 H 306.738 2.33597 -2.90666 0
M  V30 3417 N 308.923 1.53595 0.353017 0
M  V30 3418 C 309.886 1.80232 1.41594 0
M  V30 3419 C 310.886 0.673081 1.46035 0
M  V30 3420 O 312.076 0.941335 1.46576 0
M  V30 3421 C 309.208 1.93578 2.80607 0
M  V30 3422 H 310.401 2.75174 1.19244 0
M  V30 3423 H 307.954 1.44864 0.586872 0
M  V30 3424 H 308.689 1.00746 3.08254 0
M  V30 3425 H 308.474 2.75724 2.78781 0
M  V30 3426 H 309.964 2.15735 3.57558 0
M  V30 3427 N 310.401 -0.613514 1.45168 0
M  V30 3428 C 311.351 -1.71871 1.49815 0
M  V30 3429 C 312.335 -1.56774 0.362021 0
M  V30 3430 O 313.527 -1.66212 0.608493 0
M  V30 3431 C 310.656 -3.1061 1.46207 0
M  V30 3432 C 309.742 -3.31114 2.64999 0
M  V30 3433 N 310.133 -3.21904 3.90143 0
M  V30 3434 C 308.431 -3.61966 2.6057 0
M  V30 3435 C 309.132 -3.43577 4.69393 0
M  V30 3436 N 308.108 -3.67287 4.00751 0
M  V30 3437 H 311.91 -1.63235 2.444 0
M  V30 3438 H 309.424 -0.816577 1.40377 0
M  V30 3439 H 311.421 -3.8989 1.4762 0
M  V30 3440 H 310.081 -3.20399 0.52673 0
M  V30 3441 H 311.092 -3.00436 4.21852 0
M  V30 3442 H 307.769 -3.78629 1.75916 0
M  V30 3443 H 309.159 -3.41901 5.78406 0
M  V30 3444 N 311.879 -1.3236 -0.855495 0
M  V30 3445 C 312.809 -1.23833 -1.97958 0
M  V30 3446 C 313.79 -0.122361 -1.69659 0
M  V30 3447 O 314.975 -0.30939 -1.9172 0
M  V30 3448 C 312.105 -0.959772 -3.33775 0
M  V30 3449 C 311.059 -2.03689 -3.76424 0
M  V30 3450 C 310.385 -1.61075 -5.09862 0
M  V30 3451 C 311.685 -3.4518 -3.9198 0
M  V30 3452 H 313.379 -2.1788 -2.0535 0
M  V30 3453 H 310.925 -1.04891 -0.986605 0
M  V30 3454 H 312.878 -0.886678 -4.11966 0
M  V30 3455 H 311.602 0.0163404 -3.26596 0
M  V30 3456 H 310.261 -2.10012 -3.00484 0
M  V30 3457 H 309.909 -0.622107 -4.99138 0
M  V30 3458 H 309.609 -2.33143 -5.39368 0
M  V30 3459 H 311.133 -1.55201 -5.90546 0
M  V30 3460 H 312.547 -3.4145 -4.60526 0
M  V30 3461 H 310.944 -4.1559 -4.32903 0
M  V30 3462 H 312.014 -3.84903 -2.94919 0
M  V30 3463 N 313.357 1.07166 -1.15556 0
M  V30 3464 C 314.603 1.80065 -0.932984 0
M  V30 3465 C 314.936 1.86586 0.53845 0
M  V30 3466 O 314.211 1.35098 1.39924 0
M  V30 3467 C 314.494 3.25022 -1.55025 0
M  V30 3468 C 314.347 3.26634 -3.09242 0
M  V30 3469 C 315.666 4.22341 -1.2376 0
M  V30 3470 H 312.785 0.653697 -0.340366 0
M  V30 3471 H 315.427 1.25389 -1.4275 0
M  V30 3472 H 313.577 3.71712 -1.12972 0
M  V30 3473 H 315.249 2.88173 -3.60214 0
M  V30 3474 H 313.492 2.65539 -3.43033 0
M  V30 3475 H 314.163 4.28854 -3.47546 0
M  V30 3476 H 316.639 3.8405 -1.60139 0
M  V30 3477 H 315.515 5.22053 -1.69564 0
M  V30 3478 H 315.776 4.41828 -0.154938 0
M  V30 3479 N 314.835 0.952656 1.25548 0
M  V30 3480 C 315.783 0.462354 2.27958 0
M  V30 3481 C 316.777 -0.46634 1.62855 0
M  V30 3482 O 317.983 -0.343287 1.76696 0
M  V30 3483 H 314.358 0.13101 0.7405 0
M  V30 3484 H 316.329 1.33839 2.66702 0
M  V30 3485 C 315.078 -0.24628 3.46827 0
M  V30 3486 H 314.401 0.459192 3.97154 0
M  V30 3487 H 315.841 -0.553393 4.20373 0
M  V30 3488 C 314.3 -1.4681 3.0323 0
M  V30 3489 O 314.83 -2.56591 3.09069 0
M  V30 3490 N 313.036 -1.32874 2.58443 0
M  V30 3491 H 312.583 -0.435536 2.53891 0
M  V30 3492 H 312.541 -2.14742 2.29637 0
M  V30 3493 N 316.313 -1.40141 0.720998 0
M  V30 3494 C 317.56 -2.00787 0.262842 0
M  V30 3495 C 317.888 -1.5718 -1.14563 0
M  V30 3496 O 317.143 -0.785391 -1.79249 0
M  V30 3497 C 317.442 -3.56165 0.296892 0
M  V30 3498 C 317.108 -4.19373 1.65641 0
M  V30 3499 C 315.77 -4.36352 2.02855 0
M  V30 3500 C 318.122 -4.54578 2.54968 0
M  V30 3501 C 315.45 -4.8582 3.28931 0
M  V30 3502 C 317.802 -5.05447 3.80402 0
M  V30 3503 C 316.466 -5.20635 4.17726 0
M  V30 3504 H 315.736 -0.734731 0.0961807 0
M  V30 3505 H 318.383 -1.67673 0.925093 0
M  V30 3506 H 316.688 -3.8922 -0.448932 0
M  V30 3507 H 318.385 -4.00929 -0.0755208 0
M  V30 3508 H 314.975 -4.06549 1.35704 0
M  V30 3509 H 319.159 -4.41091 2.27491 0
M  V30 3510 H 314.415 -4.95764 3.57811 0
M  V30 3511 H 318.589 -5.31663 4.49786 0
M  V30 3512 H 316.216 -5.58728 5.15487 0
M  V30 3513 N 317.792 -0.46758 -1.50504 0
M  V30 3514 C 318.739 0.328413 -2.28452 0
M  V30 3515 C 319.709 0.990313 -1.33349 0
M  V30 3516 O 320.894 1.00343 -1.62284 0
M  V30 3517 C 318.034 1.40648 -3.15138 0
M  V30 3518 C 317.147 0.759709 -4.25267 0
M  V30 3519 C 316.282 1.81537 -4.99217 0
M  V30 3520 C 315.321 1.14866 -6.01226 0
M  V30 3521 N 314.458 2.14702 -6.68467 0
M  V30 3522 H 319.298 -0.342603 -2.96024 0
M  V30 3523 H 316.835 -0.180801 -1.45985 0
M  V30 3524 H 318.793 2.04315 -3.63746 0
M  V30 3525 H 317.423 2.04671 -2.49619 0
M  V30 3526 H 316.475 0.0105671 -3.80399 0
M  V30 3527 H 317.787 0.233243 -4.98254 0
M  V30 3528 H 316.941 2.52793 -5.51526 0
M  V30 3529 H 315.68 2.37564 -4.25928 0
M  V30 3530 H 314.685 0.42171 -5.4818 0
M  V30 3531 H 315.91 0.595334 -6.76485 0
M  V30 3532 H 313.856 2.69752 -5.97972 0
M  V30 3533 H 313.773 1.6703 -7.37317 0
M  V30 3534 H 315.041 2.85348 -7.25394 0
M  V30 3535 N 319.27 1.56325 -0.20005 0
M  V30 3536 C 320.518 1.97329 0.436547 0
M  V30 3537 C 320.839 1.08826 1.61808 0
M  V30 3538 O 320.109 0.160604 1.95241 0
M  V30 3539 H 318.689 0.728714 0.164272 0
M  V30 3540 H 321.351 1.92761 -0.287937 0
M  V30 3541 H 320.447 3.02264 0.777353 0
M  V30 3542 N 320.748 -0.0735177 1.57428 0
M  V30 3543 C 321.976 -0.785969 1.9139 0
M  V30 3544 C 322.391 -1.71207 0.795847 0
M  V30 3545 O 321.748 -1.81033 -0.230915 0
M  V30 3546 C 321.799 -1.58107 3.25091 0
M  V30 3547 O 321.52 -0.6922 4.32597 0
M  V30 3548 C 323.021 -2.39467 3.73055 0
M  V30 3549 H 320.241 -0.223558 0.632663 0
M  V30 3550 H 322.785 -0.044302 2.04452 0
M  V30 3551 H 320.94 -2.27503 3.13562 0
M  V30 3552 H 321.354 -1.24504 5.09508 0
M  V30 3553 H 322.828 -2.90716 4.69242 0
M  V30 3554 H 323.305 -3.18913 3.01979 0
M  V30 3555 H 323.911 -1.7523 3.87523 0
M  V30 3556 N 322.226 -1.5378 -0.344866 0
M  V30 3557 C 323.503 -1.61589 -1.10219 0
M  V30 3558 C 323.883 -0.436316 -2.06542 0
M  V30 3559 O 323.231 0.571543 -2.21237 0
M  V30 3560 C 323.441 -2.97602 -1.82301 0
M  V30 3561 C 324.789 -3.5291 -2.36093 0
M  V30 3562 O 325.813 -2.99768 -1.924 0
M  V30 3563 O 324.672 -4.45859 -3.16026 0
M  V30 3564 H 321.766 -0.653522 -0.506792 0
M  V30 3565 H 324.312 -1.66126 -0.346465 0
M  V30 3566 H 323.084 -3.74893 -1.12121 0
M  V30 3567 H 322.707 -2.9665 -2.64735 0
M  V30 3568 N 323.704 0.605807 -1.45491 0
M  V30 3569 C 324.932 1.39136 -1.5313 0
M  V30 3570 C 325.347 1.88082 -0.164507 0
M  V30 3571 O 324.704 1.62316 0.834247 0
M  V30 3572 C 324.755 2.59463 -2.51716 0
M  V30 3573 O 324.476 2.12551 -3.83084 0
M  V30 3574 C 325.977 3.52301 -2.6907 0
M  V30 3575 H 323.197 0.425849 -0.51855 0
M  V30 3576 H 325.741 0.73865 -1.90694 0
M  V30 3577 H 323.896 3.20772 -2.17219 0
M  V30 3578 H 324.31 2.90744 -4.36541 0
M  V30 3579 H 325.784 4.33271 -3.42024 0
M  V30 3580 H 326.261 4.02757 -1.75167 0
M  V30 3581 H 326.867 2.96845 -3.04571 0
M  V30 3582 N 325.182 1.32811 0.848464 0
M  V30 3583 C 326.428 1.23907 1.60546 0
M  V30 3584 C 326.761 -0.197161 1.93197 0
M  V30 3585 O 326.036 -1.13596 1.5788 0
M  V30 3586 C 326.319 2.10489 2.92175 0
M  V30 3587 C 326.172 3.62522 2.66266 0
M  V30 3588 C 327.491 1.97075 3.93509 0
M  V30 3589 H 324.61 0.451459 0.58254 0
M  V30 3590 H 327.252 1.62818 0.979296 0
M  V30 3591 H 325.402 1.77434 3.45614 0
M  V30 3592 H 327.074 4.05821 2.19334 0
M  V30 3593 H 325.317 3.84879 2.00126 0
M  V30 3594 H 325.988 4.18437 3.6002 0
M  V30 3595 H 328.464 2.26045 3.49346 0
M  V30 3596 H 327.34 2.59923 4.83457 0
M  V30 3597 H 327.601 0.940186 4.31987 0
M  V30 3598 N 326.66 -1.06551 1.16123 0
M  V30 3599 C 327.623 -2.12132 0.867906 0
M  V30 3600 C 328.623 -1.60224 -0.135944 0
M  V30 3601 O 329.813 -1.73943 0.0946422 0
M  V30 3602 C 326.945 -3.396 0.297419 0
M  V30 3603 H 328.138 -2.39586 1.80385 0
M  V30 3604 H 325.691 -1.22574 0.969812 0
M  V30 3605 H 326.426 -3.17794 -0.64633 0
M  V30 3606 H 326.211 -3.78581 1.02073 0
M  V30 3607 H 327.701 -4.17455 0.110052 0
M  V30 3608 N 328.138 -0.959301 -1.25041 0
M  V30 3609 C 329.386 -0.615393 -1.92503 0
M  V30 3610 C 329.707 0.850969 -1.75452 0
M  V30 3611 O 328.977 1.60658 -1.12098 0
M  V30 3612 H 327.557 -0.224613 -0.712431 0
M  V30 3613 H 330.219 -1.21855 -1.5211 0
M  V30 3614 H 329.315 -0.848738 -3.00338 0
M  V30 3615 N 329.616 1.39756 -0.72842 0
M  V30 3616 C 330.546 2.33289 -0.0991354 0
M  V30 3617 C 331.527 1.53568 0.731489 0
M  V30 3618 O 332.712 1.81987 0.677807 0
M  V30 3619 C 329.842 3.3763 0.813834 0
M  V30 3620 C 328.796 4.2791 0.0878663 0
M  V30 3621 C 328.122 5.22894 1.11741 0
M  V30 3622 C 329.422 5.11314 -1.06563 0
M  V30 3623 H 331.116 2.86163 -0.880408 0
M  V30 3624 H 328.662 1.37591 -0.424819 0
M  V30 3625 H 330.615 4.0201 1.26355 0
M  V30 3626 H 329.339 2.83181 1.62715 0
M  V30 3627 H 327.998 3.65 -0.342159 0
M  V30 3628 H 327.646 4.64744 1.92412 0
M  V30 3629 H 327.346 5.84143 0.636477 0
M  V30 3630 H 328.87 5.90151 1.56697 0
M  V30 3631 H 330.284 5.69076 -0.694671 0
M  V30 3632 H 328.681 5.81671 -1.47577 0
M  V30 3633 H 329.751 4.46534 -1.89038 0
M  V30 3634 N 331.094 0.475555 1.50254 0
M  V30 3635 C 332.057 -0.305016 2.27161 0
M  V30 3636 C 333.057 -0.916519 1.32123 0
M  V30 3637 O 334.247 -0.785003 1.5551 0
M  V30 3638 C 331.379 -1.43496 3.09227 0
M  V30 3639 H 332.572 0.369511 2.97615 0
M  V30 3640 H 330.125 0.229747 1.54602 0
M  V30 3641 H 330.86 -2.14441 2.43281 0
M  V30 3642 H 330.645 -1.00223 3.79075 0
M  V30 3643 H 332.135 -1.98548 3.67381 0
M  V30 3644 N 332.573 -1.56217 0.208337 0
M  V30 3645 C 333.503 -2.22694 -0.702116 0
M  V30 3646 C 334.484 -1.19432 -1.2112 0
M  V30 3647 O 335.669 -1.47978 -1.25762 0
M  V30 3648 C 332.799 -2.8966 -1.9161 0
M  V30 3649 C 331.753 -3.9928 -1.5414 0
M  V30 3650 C 331.079 -4.53476 -2.83308 0
M  V30 3651 C 332.379 -5.17012 -0.741339 0
M  V30 3652 H 334.073 -2.99034 -0.147898 0
M  V30 3653 H 331.619 -1.43831 -0.0696951 0
M  V30 3654 H 333.572 -3.34852 -2.55836 0
M  V30 3655 H 332.296 -2.10746 -2.49507 0
M  V30 3656 H 330.955 -3.54799 -0.922668 0
M  V30 3657 H 330.603 -3.71308 -3.39322 0
M  V30 3658 H 330.303 -5.27451 -2.58976 0
M  V30 3659 H 331.827 -5.01378 -3.485 0
M  V30 3660 H 333.241 -5.58667 -1.28699 0
M  V30 3661 H 331.638 -5.97137 -0.595627 0
M  V30 3662 H 332.708 -4.8423 0.254851 0
M  V30 3663 N 334.051 0.0651679 -1.57465 0
M  V30 3664 C 335.3 0.761916 -1.86756 0
M  V30 3665 C 335.613 1.78406 -0.801925 0
M  V30 3666 O 336.819 2.53084 -0.982885 0
M  V30 3667 C 335.275 1.40603 -3.31299 0
M  V30 3668 C 334.883 0.422115 -4.46007 0
M  V30 3669 C 336.627 2.08476 -3.69781 0
M  V30 3670 C 334.534 1.07252 -5.81593 0
M  V30 3671 H 333.464 0.288308 -0.696702 0
M  V30 3672 H 336.115 0.015344 -1.83494 0
M  V30 3673 H 334.497 2.20109 -3.29193 0
M  V30 3674 H 335.671 -0.343613 -4.59517 0
M  V30 3675 H 333.986 -0.152527 -4.16121 0
M  V30 3676 H 336.583 2.57925 -4.68379 0
M  V30 3677 H 336.926 2.88712 -2.99919 0
M  V30 3678 H 337.459 1.35792 -3.73905 0
M  V30 3679 H 334.198 0.310342 -6.54765 0
M  V30 3680 H 333.718 1.80895 -5.71872 0
M  V30 3681 H 335.397 1.59043 -6.27148 0
M  V30 3682 N 335.529 1.53961 0.336706 0
M  V30 3683 C 336.476 1.82428 1.41381 0
M  V30 3684 C 337.446 0.670444 1.51968 0
M  V30 3685 O 338.631 0.915565 1.67398 0
M  V30 3686 C 335.771 2.04564 2.77934 0
M  V30 3687 C 334.884 3.32267 2.76084 0
M  V30 3688 C 334.019 3.44434 4.04399 0
M  V30 3689 C 333.058 4.66061 3.96804 0
M  V30 3690 N 332.195 4.75224 5.16823 0
M  V30 3691 H 337.035 2.74324 1.16405 0
M  V30 3692 H 334.572 1.35869 0.563752 0
M  V30 3693 H 336.53 2.15388 3.57301 0
M  V30 3694 H 335.16 1.15974 3.01247 0
M  V30 3695 H 334.212 3.3025 1.88784 0
M  V30 3696 H 335.524 4.21733 2.66351 0
M  V30 3697 H 334.678 3.54728 4.92192 0
M  V30 3698 H 333.417 2.53037 4.16921 0
M  V30 3699 H 332.422 4.55838 3.07396 0
M  V30 3700 H 333.647 5.58829 3.85858 0
M  V30 3701 H 331.593 3.86739 5.29876 0
M  V30 3702 H 331.51 5.58636 5.09374 0
M  V30 3703 H 332.778 4.89835 6.06367 0
M  V30 3704 N 337.007 -0.598083 1.45811 0
M  V30 3705 C 337.954 -1.7082 1.55207 0
M  V30 3706 C 338.924 -1.61278 0.39732 0
M  V30 3707 O 340.109 -1.80717 0.612038 0
M  V30 3708 C 337.249 -3.09144 1.53376 0
M  V30 3709 C 336.362 -3.29423 2.79472 0
M  V30 3710 C 335.497 -4.57907 2.69248 0
M  V30 3711 C 334.536 -4.71476 3.90354 0
M  V30 3712 N 333.673 -5.9127 3.78608 0
M  V30 3713 H 338.513 -1.62125 2.50039 0
M  V30 3714 H 336.05 -0.790389 1.24062 0
M  V30 3715 H 338.008 -3.89186 1.50301 0
M  V30 3716 H 336.638 -3.16773 0.620876 0
M  V30 3717 H 335.69 -2.43091 2.92594 0
M  V30 3718 H 337.002 -3.3532 3.69272 0
M  V30 3719 H 336.156 -5.46157 2.64192 0
M  V30 3720 H 334.895 -4.54423 1.77063 0
M  V30 3721 H 333.9 -3.81648 3.95759 0
M  V30 3722 H 335.125 -4.76751 4.83617 0
M  V30 3723 H 333.071 -5.88813 2.89199 0
M  V30 3724 H 332.988 -5.98369 4.6205 0
M  V30 3725 H 334.256 -6.81992 3.77501 0
M  V30 3726 N 338.485 -1.33259 -0.841409 0
M  V30 3727 C 339.715 -1.2742 -1.62628 0
M  V30 3728 C 340.123 0.157604 -1.88542 0
M  V30 3729 O 339.466 1.10938 -1.46419 0
M  V30 3730 C 339.528 -1.97797 -3.00194 0
M  V30 3731 C 339.192 -3.47109 -2.97261 0
M  V30 3732 C 340.189 -4.42358 -2.73159 0
M  V30 3733 C 337.874 -3.89247 -3.17478 0
M  V30 3734 C 339.868 -5.77718 -2.69296 0
M  V30 3735 C 337.555 -5.24713 -3.13241 0
M  V30 3736 C 338.553 -6.1876 -2.89181 0
M  V30 3737 O 338.241 -7.51745 -2.84843 0
M  V30 3738 H 337.973 -0.440436 -0.512827 0
M  V30 3739 H 340.527 -1.76153 -1.05638 0
M  V30 3740 H 338.757 -1.43652 -3.59028 0
M  V30 3741 H 340.446 -1.8549 -3.61038 0
M  V30 3742 H 341.212 -4.11127 -2.57294 0
M  V30 3743 H 337.091 -3.16456 -3.35226 0
M  V30 3744 H 340.635 -6.51097 -2.50436 0
M  V30 3745 H 336.532 -5.55569 -3.28654 0
M  V30 3746 H 337.3 -7.61262 -3.00702 0
M  V30 3747 N 339.963 1.05934 -1.16686 0
M  V30 3748 C 341.193 1.82226 -0.973515 0
M  V30 3749 C 341.601 1.8297 0.481532 0
M  V30 3750 O 340.944 1.25009 1.34604 0
M  V30 3751 C 341.006 3.29897 -1.42858 0
M  V30 3752 C 340.67 3.52849 -2.90425 0
M  V30 3753 C 341.667 3.45595 -3.88407 0
M  V30 3754 C 339.352 3.80053 -3.28428 0
M  V30 3755 C 341.346 3.65217 -5.22394 0
M  V30 3756 C 339.033 3.99325 -4.62583 0
M  V30 3757 C 340.031 3.91905 -5.59374 0
M  V30 3758 O 339.719 4.10647 -6.91104 0
M  V30 3759 H 339.451 0.581314 -0.345036 0
M  V30 3760 H 342.005 1.3453 -1.55212 0
M  V30 3761 H 340.235 3.78472 -0.793477 0
M  V30 3762 H 341.924 3.87692 -1.20207 0
M  V30 3763 H 342.69 3.24564 -3.60393 0
M  V30 3764 H 338.569 3.84936 -2.53664 0
M  V30 3765 H 342.113 3.59341 -5.9793 0
M  V30 3766 H 338.01 4.19846 -4.90306 0
M  V30 3767 H 338.778 4.27915 -6.97733 0
M  V30 3768 N 341.441 0.965919 1.2453 0
M  V30 3769 C 342.689 0.625593 1.92174 0
M  V30 3770 C 343.01 -0.841652 1.75901 0
M  V30 3771 O 342.28 -1.60061 1.12948 0
M  V30 3772 H 340.86 0.228388 0.71123 0
M  V30 3773 H 343.522 1.2266 1.51461 0
M  V30 3774 H 342.618 0.864653 2.99884 0
M  V30 3775 N 342.919 -1.39368 0.735821 0
M  V30 3776 C 344.147 -2.04795 0.294393 0
M  V30 3777 C 344.562 -1.55478 -1.07107 0
M  V30 3778 O 343.919 -0.720038 -1.67695 0
M  V30 3779 C 343.97 -3.6035 0.288071 0
M  V30 3780 O 343.691 -4.07852 1.59963 0
M  V30 3781 C 345.192 -4.42976 -0.169422 0
M  V30 3782 H 342.412 -0.658571 0.128551 0
M  V30 3783 H 344.956 -1.78399 0.999701 0
M  V30 3784 H 343.111 -3.85645 -0.368355 0
M  V30 3785 H 343.525 -5.02181 1.51375 0
M  V30 3786 H 344.999 -5.51864 -0.122687 0
M  V30 3787 H 345.476 -4.22068 -1.21472 0
M  V30 3788 H 346.082 -4.22832 0.457469 0
M  V30 3789 N 344.397 -0.483516 -1.5 0
M  V30 3790 C 345.344 0.304164 -2.28787 0
M  V30 3791 C 346.314 0.976114 -1.34392 0
M  V30 3792 O 347.499 0.986156 -1.63339 0
M  V30 3793 C 344.639 1.37298 -3.16612 0
M  V30 3794 C 343.752 0.714561 -4.26049 0
M  V30 3795 C 342.887 1.76232 -5.01114 0
M  V30 3796 C 341.926 1.08483 -6.0241 0
M  V30 3797 N 341.063 2.076 -6.70706 0
M  V30 3798 H 345.903 -0.373981 -2.95644 0
M  V30 3799 H 343.44 -0.196275 -1.45785 0
M  V30 3800 H 345.398 2.00445 -3.65893 0
M  V30 3801 H 344.028 2.02012 -2.51776 0
M  V30 3802 H 343.08 -0.0297798 -3.80388 0
M  V30 3803 H 344.392 0.180383 -4.98474 0
M  V30 3804 H 343.546 2.46929 -5.54176 0
M  V30 3805 H 342.285 2.33033 -4.28424 0
M  V30 3806 H 341.29 0.363545 -5.48597 0
M  V30 3807 H 342.515 0.523551 -6.77079 0
M  V30 3808 H 340.461 2.63394 -6.00799 0
M  V30 3809 H 340.378 1.59201 -7.39047 0
M  V30 3810 H 341.646 2.77639 -7.2838 0
M  V30 3811 N 345.875 1.56104 -0.216619 0
M  V30 3812 C 347.152 1.89988 0.465165 0
M  V30 3813 C 347.532 1.13326 1.78102 0
M  V30 3814 O 346.88 0.241033 2.27225 0
M  V30 3815 C 347.09 3.42646 0.662939 0
M  V30 3816 C 348.438 4.13311 0.972602 0
M  V30 3817 O 349.462 3.48217 0.749901 0
M  V30 3818 O 348.321 5.28396 1.39499 0
M  V30 3819 H 345.415 0.78979 0.245276 0
M  V30 3820 H 347.961 1.67721 -0.258436 0
M  V30 3821 H 346.733 3.90399 -0.26543 0
M  V30 3822 H 346.356 3.70677 1.43821 0
M  V30 3823 N 347.353 -0.0568162 1.57498 0
M  V30 3824 C 348.764 -0.606858 1.76562 0
M  V30 3825 C 349.115 -1.77114 0.844094 0
M  V30 3826 O 348.24 -2.16376 0.0318911 0
M  V30 3827 C 348.835 -1.10766 3.20182 0
M  V30 3828 C 347.394 -1.60344 3.40539 0
M  V30 3829 C 346.541 -0.529311 2.72201 0
M  V30 3830 H 349.492 0.169393 1.57793 0
M  V30 3831 H 349.513 -1.97602 3.25167 0
M  V30 3832 H 349.025 -0.26006 3.87228 0
M  V30 3833 H 347.126 -2.47379 2.78629 0
M  V30 3834 H 347.239 -1.67006 4.4905 0
M  V30 3835 H 345.603 -0.977893 2.35179 0
M  V30 3836 H 346.386 0.308352 3.41912 0
M  V30 3837 N 348.832 -1.54138 -0.328536 0
M  V30 3838 C 350.078 -1.7236 -1.06865 0
M  V30 3839 C 350.411 -0.493231 -1.87832 0
M  V30 3840 O 349.686 0.5098 -1.877 0
M  V30 3841 C 349.969 -2.99621 -1.99747 0
M  V30 3842 C 349.822 -4.32899 -1.22143 0
M  V30 3843 C 351.141 -3.22615 -2.99345 0
M  V30 3844 H 348.26 -0.627151 -0.387105 0
M  V30 3845 H 350.902 -1.86827 -0.345767 0
M  V30 3846 H 349.052 -2.87418 -2.61387 0
M  V30 3847 H 350.724 -4.56978 -0.630017 0
M  V30 3848 H 348.967 -4.30628 -0.523628 0
M  V30 3849 H 349.638 -5.18154 -1.90318 0
M  V30 3850 H 352.114 -3.34248 -2.47826 0
M  V30 3851 H 350.99 -4.13027 -3.61524 0
M  V30 3852 H 351.251 -2.3961 -3.71536 0
M  V30 3853 N 350.31 0.590341 -1.46126 0
M  V30 3854 C 351.721 1.17243 -1.45296 0
M  V30 3855 C 352.072 1.95281 -0.189723 0
M  V30 3856 O 351.197 2.04502 0.707674 0
M  V30 3857 C 351.792 2.13284 -2.6324 0
M  V30 3858 C 350.351 2.66832 -2.65476 0
M  V30 3859 C 349.498 1.42557 -2.3785 0
M  V30 3860 H 352.449 0.378692 -1.54116 0
M  V30 3861 H 352.47 2.96619 -2.38323 0
M  V30 3862 H 351.982 1.56459 -3.55165 0
M  V30 3863 H 350.083 3.27548 -1.77603 0
M  V30 3864 H 350.196 3.10088 -3.65215 0
M  V30 3865 H 348.56 1.72107 -1.87753 0
M  V30 3866 H 349.343 0.875741 -3.31942 0
M  V30 3867 N 351.788 1.33704 0.83433 0
M  V30 3868 C 353.036 1.25169 1.58673 0
M  V30 3869 C 353.357 -0.18127 1.94156 0
M  V30 3870 O 352.627 -1.11113 1.6134 0
M  V30 3871 H 351.207 0.4603 0.58833 0
M  V30 3872 H 353.869 1.67478 0.996847 0
M  V30 3873 H 352.965 1.84856 2.51465 0
M  V30 3874 N 353.266 -1.05314 1.17247 0
M  V30 3875 C 354.496 -1.81707 0.983166 0
M  V30 3876 C 354.904 -1.83222 -0.471822 0
M  V30 3877 O 354.247 -1.25721 -1.3394 0
M  V30 3878 C 354.309 -3.29134 1.44606 0
M  V30 3879 C 353.973 -3.51304 2.92292 0
M  V30 3880 C 354.97 -3.4353 3.90235 0
M  V30 3881 C 352.655 -3.78306 3.30439 0
M  V30 3882 C 354.649 -3.62442 5.24323 0
M  V30 3883 C 352.336 -3.96866 4.64694 0
M  V30 3884 C 353.334 -3.88933 5.61445 0
M  V30 3885 O 353.022 -4.06976 6.93272 0
M  V30 3886 H 352.754 -0.579476 0.348114 0
M  V30 3887 H 355.308 -1.33705 1.55924 0
M  V30 3888 H 353.538 -3.78046 0.813537 0
M  V30 3889 H 355.227 -3.87049 1.22262 0
M  V30 3890 H 355.993 -3.22648 3.62109 0
M  V30 3891 H 351.872 -3.83585 2.55702 0
M  V30 3892 H 355.416 -3.56165 5.99827 0
M  V30 3893 H 351.313 -4.1724 4.92525 0
M  V30 3894 H 352.081 -4.24209 6.99992 0
M  V30 3895 N 354.744 -0.972509 -1.24016 0
M  V30 3896 C 355.969 -0.654417 -1.96805 0
M  V30 3897 C 356.394 0.770398 -1.716 0
M  V30 3898 O 355.752 1.52361 -0.982647 0
M  V30 3899 C 355.8 -0.941031 -3.48105 0
M  V30 3900 O 354.904 -0.0289472 -4.1239 0
M  V30 3901 H 354.245 -0.24692 -0.616382 0
M  V30 3902 H 356.775 -1.30396 -1.57664 0
M  V30 3903 H 356.785 -0.87452 -3.98517 0
M  V30 3904 H 355.46 -1.97939 -3.65777 0
M  V30 3905 H 354.037 -0.149192 -3.72601 0
M  V30 3906 N 356.222 1.38976 -0.743202 0
M  V30 3907 C 357.468 2.0064 -0.295189 0
M  V30 3908 C 357.801 1.5885 1.11716 0
M  V30 3909 O 357.076 0.821181 1.76315 0
M  V30 3910 C 357.359 3.578 -0.406318 0
M  V30 3911 C 357.212 4.09586 -1.85903 0
M  V30 3912 C 358.531 4.39616 0.206439 0
M  V30 3913 H 355.65 0.728935 -0.108733 0
M  V30 3914 H 358.292 1.65067 -0.940897 0
M  V30 3915 H 356.442 3.88235 0.143419 0
M  V30 3916 H 358.114 3.89837 -2.46627 0
M  V30 3917 H 356.357 3.6284 -2.3776 0
M  V30 3918 H 357.028 5.18708 -1.888 0
M  V30 3919 H 359.504 4.15273 -0.262283 0
M  V30 3920 H 358.38 5.48812 0.0983819 0
M  V30 3921 H 358.641 4.22754 1.2935 0
M  V30 3922 N 357.7 0.491464 1.49741 0
M  V30 3923 C 359.111 0.0413169 1.86654 0
M  V30 3924 C 359.462 -1.36985 1.40462 0
M  V30 3925 O 358.587 -2.01917 0.778354 0
M  V30 3926 C 359.182 0.0682023 3.38731 0
M  V30 3927 C 357.741 -0.32656 3.74981 0
M  V30 3928 C 356.888 0.444888 2.73708 0
M  V30 3929 H 359.839 0.704733 1.42194 0
M  V30 3930 H 359.86 -0.729322 3.73445 0
M  V30 3931 H 359.372 1.09539 3.72321 0
M  V30 3932 H 357.473 -1.35734 3.46997 0
M  V30 3933 H 357.586 -0.013741 4.79098 0
M  V30 3934 H 355.95 -0.104062 2.54487 0
M  V30 3935 H 356.733 1.47197 3.10142 0
M  V30 3936 N 359.178 -1.55987 0.224894 0
M  V30 3937 C 360.141 -2.19178 -0.670348 0
M  V30 3938 C 361.141 -1.15461 -1.11917 0
M  V30 3939 O 362.331 -1.40675 -1.02743 0
M  V30 3940 C 359.463 -2.81777 -1.9187 0
M  V30 3941 H 360.656 -2.99662 -0.119364 0
M  V30 3942 H 358.209 -1.5628 -0.0247128 0
M  V30 3943 H 358.944 -2.05172 -2.51147 0
M  V30 3944 H 358.729 -3.57732 -1.60531 0
M  V30 3945 H 360.219 -3.30205 -2.55645 0
M  V30 3946 N 360.656 0.0484629 -1.57525 0
M  V30 3947 C 361.619 1.03956 -2.04269 0
M  V30 3948 C 362.619 1.30211 -0.943496 0
M  V30 3949 O 363.809 1.25539 -1.20771 0
M  V30 3950 C 360.941 2.37742 -2.44319 0
M  V30 3951 H 362.134 0.636182 -2.93075 0
M  V30 3952 H 359.687 0.294811 -1.53494 0
M  V30 3953 H 360.422 2.82866 -1.5861 0
M  V30 3954 H 360.207 2.20021 -3.24551 0
M  V30 3955 H 361.697 3.08936 -2.80978 0
M  V30 3956 N 362.134 1.5431 0.320358 0
M  V30 3957 C 363.044 1.86946 1.41734 0
M  V30 3958 C 364.06 0.761689 1.56443 0
M  V30 3959 O 365.236 1.05629 1.71477 0
M  V30 3960 C 362.301 2.09293 2.76401 0
M  V30 3961 C 361.362 3.33082 2.70841 0
M  V30 3962 C 360.595 3.54353 3.99086 0
M  V30 3963 O 360.818 2.79002 4.97508 0
M  V30 3964 O 359.752 4.47838 4.0215 0
M  V30 3965 H 363.578 2.80232 1.17062 0
M  V30 3966 H 361.163 1.40255 0.514673 0
M  V30 3967 H 363.045 2.25303 3.56113 0
M  V30 3968 H 361.72 1.19194 3.00956 0
M  V30 3969 H 360.627 3.22454 1.89668 0
M  V30 3970 H 361.96 4.23249 2.5124 0
M  V30 3971 N 363.613 -0.582584 1.46437 0
M  V30 3972 C 364.563 -1.68654 1.53426 0
M  V30 3973 C 365.547 -1.55971 0.395194 0
M  V30 3974 O 366.739 -1.64884 0.643612 0
M  V30 3975 C 363.868 -3.07439 1.52762 0
M  V30 3976 C 362.954 -3.25418 2.71963 0
M  V30 3977 N 363.345 -3.13556 3.96883 0
M  V30 3978 C 361.643 -3.56357 2.68189 0
M  V30 3979 C 362.344 -3.33543 4.76575 0
M  V30 3980 N 361.32 -3.58704 4.08451 0
M  V30 3981 H 365.122 -1.58014 2.47808 0
M  V30 3982 H 362.636 -0.786617 1.42078 0
M  V30 3983 H 364.633 -3.86671 1.55857 0
M  V30 3984 H 363.293 -3.1921 0.594573 0
M  V30 3985 H 364.304 -2.9142 4.28129 0
M  V30 3986 H 360.981 -3.74812 1.83908 0
M  V30 3987 H 362.371 -3.29555 5.85528 0
M  V30 3988 N 365.091 -1.34144 -0.827227 0
M  V30 3989 C 366.316 -1.29476 -1.62021 0
M  V30 3990 C 366.741 0.129292 -1.87655 0
M  V30 3991 O 366.099 1.08967 -1.449 0
M  V30 3992 C 366.147 -2.08702 -2.94068 0
M  V30 3993 O 365.251 -1.45359 -3.85933 0
M  V30 3994 H 364.592 -0.444881 -0.492927 0
M  V30 3995 H 367.122 -1.76882 -1.02829 0
M  V30 3996 H 367.132 -2.19898 -3.43669 0
M  V30 3997 H 365.807 -3.12241 -2.74734 0
M  V30 3998 H 364.384 -1.42879 -3.44442 0
M  V30 3999 N 366.569 1.04691 -1.17803 0
M  V30 4000 C 367.797 1.81446 -0.99423 0
M  V30 4001 C 368.212 1.83174 0.457459 0
M  V30 4002 O 367.569 1.26265 1.31771 0
M  V30 4003 C 367.62 3.27334 -1.5341 0
M  V30 4004 O 367.341 3.25798 -2.92895 0
M  V30 4005 C 368.842 4.20759 -1.39559 0
M  V30 4006 H 366.062 0.571599 -0.351447 0
M  V30 4007 H 368.606 1.31982 -1.56208 0
M  V30 4008 H 366.761 3.74052 -1.00815 0
M  V30 4009 H 367.175 4.17144 -3.17949 0
M  V30 4010 H 368.649 5.21084 -1.82141 0
M  V30 4011 H 369.126 4.37856 -0.343394 0
M  V30 4012 H 369.732 3.79901 -1.91195 0
M  V30 4013 N 368.047 0.979072 1.23499 0
M  V30 4014 C 369.296 0.642751 1.91185 0
M  V30 4015 C 369.609 -0.827253 1.77245 0
M  V30 4016 O 370.815 -1.27458 2.39722 0
M  V30 4017 C 369.271 1.09901 3.42709 0
M  V30 4018 C 368.879 2.59327 3.65313 0
M  V30 4019 C 370.623 0.836371 4.16179 0
M  V30 4020 C 368.53 2.98627 5.10467 0
M  V30 4021 H 367.46 0.236698 0.715884 0
M  V30 4022 H 370.111 1.1868 1.39955 0
M  V30 4023 H 368.493 0.48319 3.93041 0
M  V30 4024 H 369.667 3.26136 3.25533 0
M  V30 4025 H 367.982 2.83323 3.05151 0
M  V30 4026 H 370.579 1.10586 5.23139 0
M  V30 4027 H 370.922 -0.227509 4.15678 0
M  V30 4028 H 371.455 1.41371 3.71832 0
M  V30 4029 H 368.194 4.04133 5.16098 0
M  V30 4030 H 367.714 2.3651 5.51201 0
M  V30 4031 H 369.393 2.89159 5.78788 0
M  V30 4032 N 369.525 -1.3858 0.750561 0
M  V30 4033 C 370.753 -2.04471 0.316098 0
M  V30 4034 C 371.168 -1.56606 -1.05452 0
M  V30 4035 O 370.525 -0.737784 -1.66922 0
M  V30 4036 C 370.576 -3.60025 0.326275 0
M  V30 4037 O 370.297 -4.06133 1.6428 0
M  V30 4038 C 371.798 -4.43131 -0.122429 0
M  V30 4039 H 369.018 -0.65717 0.135528 0
M  V30 4040 H 371.562 -1.77329 1.01857 0
M  V30 4041 H 369.717 -3.86014 -0.327431 0
M  V30 4042 H 370.131 -5.00547 1.56693 0
M  V30 4043 H 371.605 -5.51963 -0.0641473 0
M  V30 4044 H 372.082 -4.23333 -1.16988 0
M  V30 4045 H 372.688 -4.22323 0.50229 0
M  V30 4046 N 371.003 -0.499398 -1.49478 0
M  V30 4047 C 371.966 0.268838 -2.27618 0
M  V30 4048 C 372.966 0.895383 -1.33565 0
M  V30 4049 O 374.156 0.760164 -1.56739 0
M  V30 4050 C 371.288 1.38559 -3.11471 0
M  V30 4051 H 372.481 -0.416812 -2.96989 0
M  V30 4052 H 370.034 -0.254313 -1.54217 0
M  V30 4053 H 370.769 2.10544 -2.46661 0
M  V30 4054 H 370.554 0.941797 -3.80621 0
M  V30 4055 H 372.044 1.92678 -3.70493 0
M  V30 4056 N 372.481 1.55866 -0.233164 0
M  V30 4057 C 373.727 1.99643 0.389148 0
M  V30 4058 C 374.082 1.11836 1.56558 0
M  V30 4059 O 373.375 0.170848 1.90837 0
M  V30 4060 C 373.569 3.46856 0.861724 0
M  V30 4061 C 373.398 4.48904 -0.267376 0
M  V30 4062 C 372.168 4.99888 -0.737577 0
M  V30 4063 C 374.366 5.02624 -1.08966 0
M  V30 4064 N 372.348 5.8566 -1.84052 0
M  V30 4065 C 373.719 5.85434 -2.04125 0
M  V30 4066 C 375.774 4.84959 -1.12779 0
M  V30 4067 C 374.477 6.52466 -3.02789 0
M  V30 4068 C 376.503 5.52759 -2.10266 0
M  V30 4069 C 375.865 6.35346 -3.04162 0
M  V30 4070 H 371.964 0.774402 0.108742 0
M  V30 4071 H 374.548 1.91572 -0.347596 0
M  V30 4072 H 372.719 3.55352 1.5678 0
M  V30 4073 H 374.451 3.77531 1.45783 0
M  V30 4074 H 371.206 4.7249 -0.324122 0
M  V30 4075 H 371.63 6.33246 -2.39434 0
M  V30 4076 H 376.272 4.20751 -0.415749 0
M  V30 4077 H 373.99 7.15849 -3.74948 0
M  V30 4078 H 377.576 5.41051 -2.13905 0
M  V30 4079 H 376.456 6.86883 -3.78366 0
M  V30 4080 N 373.959 -0.0401083 1.57549 0
M  V30 4081 C 375.207 -0.731677 1.8839 0
M  V30 4082 C 375.528 -1.76481 0.829425 0
M  V30 4083 O 374.798 -1.95411 -0.1383 0
M  V30 4084 H 373.378 -0.273225 0.695239 0
M  V30 4085 H 376.04 -0.00867725 1.94898 0
M  V30 4086 H 375.136 -1.22816 2.86919 0
M  V30 4087 N 375.437 -1.54477 -0.31217 0
M  V30 4088 C 376.384 -1.84655 -1.38461 0
M  V30 4089 C 377.354 -0.694536 -1.50882 0
M  V30 4090 O 378.539 -0.942081 -1.6592 0
M  V30 4091 C 375.679 -2.0896 -2.74645 0
M  V30 4092 C 374.792 -3.36618 -2.70763 0
M  V30 4093 C 373.927 -3.50824 -3.98868 0
M  V30 4094 C 372.966 -4.72315 -3.89339 0
M  V30 4095 N 372.103 -4.83387 -5.09197 0
M  V30 4096 H 376.943 -2.76142 -1.12026 0
M  V30 4097 H 374.48 -1.36748 -0.542065 0
M  V30 4098 H 376.438 -2.21045 -3.53829 0
M  V30 4099 H 375.068 -1.20752 -2.99364 0
M  V30 4100 H 374.12 -3.33211 -1.83506 0
M  V30 4101 H 375.432 -4.25917 -2.59608 0
M  V30 4102 H 374.586 -3.62513 -4.86486 0
M  V30 4103 H 373.325 -2.59638 -4.12843 0
M  V30 4104 H 372.33 -4.6067 -3.00105 0
M  V30 4105 H 373.555 -5.64897 -3.76919 0
M  V30 4106 H 371.501 -3.9512 -5.23657 0
M  V30 4107 H 371.418 -5.66669 -5.00422 0
M  V30 4108 H 372.686 -4.9942 -5.98498 0
M  V30 4109 N 376.915 0.57481 -1.46744 0
M  V30 4110 C 378.192 1.3352 -1.4294 0
M  V30 4111 C 378.572 2.10775 -0.117009 0
M  V30 4112 O 377.92 2.09966 0.901474 0
M  V30 4113 C 378.13 2.25456 -2.66403 0
M  V30 4114 C 379.478 2.87035 -3.12883 0
M  V30 4115 O 380.502 2.35766 -2.67007 0
M  V30 4116 O 379.361 3.80179 -3.92589 0
M  V30 4117 H 376.455 0.600318 -0.568812 0
M  V30 4118 H 379.001 0.595171 -1.58921 0
M  V30 4119 H 377.773 1.67851 -3.53471 0
M  V30 4120 H 377.396 3.06785 -2.52921 0
M  V30 4121 N 378.394 1.34581 0.820102 0
M  V30 4122 C 379.344 1.22943 1.92013 0
M  V30 4123 C 380.328 0.127802 1.60392 0
M  V30 4124 O 381.52 0.357737 1.73347 0
M  V30 4125 C 378.649 0.989938 3.28717 0
M  V30 4126 C 377.735 2.13486 3.66449 0
M  V30 4127 N 378.126 3.38625 3.75722 0
M  V30 4128 C 376.424 2.04573 3.96315 0
M  V30 4129 C 377.125 4.13832 4.08801 0
M  V30 4130 N 376.101 3.42451 4.22171 0
M  V30 4131 H 379.903 2.17771 1.97365 0
M  V30 4132 H 377.417 1.2686 1.01392 0
M  V30 4133 H 379.414 0.887462 4.07345 0
M  V30 4134 H 378.074 0.0503691 3.24661 0
M  V30 4135 H 379.085 3.73143 3.59144 0
M  V30 4136 H 375.762 1.1839 4.00362 0
M  V30 4137 H 377.152 5.21909 4.23156 0
M  V30 4138 N 379.872 -1.04064 1.18357 0
M  V30 4139 C 380.782 -2.15569 0.925596 0
M  V30 4140 C 381.798 -1.7365 -0.110295 0
M  V30 4141 O 382.974 -2.01273 0.0716218 0
M  V30 4142 C 380.039 -3.43704 0.454836 0
M  V30 4143 C 379.1 -4.00004 1.55869 0
M  V30 4144 C 378.333 -5.22023 1.1103 0
M  V30 4145 O 378.556 -5.70392 -0.0309756 0
M  V30 4146 O 377.49 -5.70856 1.90805 0
M  V30 4147 H 381.316 -2.40187 1.8586 0
M  V30 4148 H 378.901 -1.1402 0.965394 0
M  V30 4149 H 380.783 -4.20923 0.200382 0
M  V30 4150 H 379.458 -3.20559 -0.449876 0
M  V30 4151 H 378.365 -3.24172 1.86716 0
M  V30 4152 H 379.698 -4.2749 2.43953 0
M  V30 4153 N 381.35 -0.985608 -1.22978 0
M  V30 4154 C 382.297 -0.529825 -2.24636 0
M  V30 4155 C 383.267 0.434028 -1.60329 0
M  V30 4156 O 384.452 0.340414 -1.87739 0
M  V30 4157 C 381.592 0.156533 -3.44745 0
M  V30 4158 C 380.705 -0.848197 -4.23591 0
M  V30 4159 C 379.84 -0.136109 -5.31026 0
M  V30 4160 C 378.879 -1.1297 -6.01585 0
M  V30 4161 N 378.016 -0.446415 -7.00679 0
M  V30 4162 H 382.856 -1.40148 -2.62988 0
M  V30 4163 H 380.393 -0.702168 -1.29259 0
M  V30 4164 H 382.351 0.571324 -4.1327 0
M  V30 4165 H 380.981 0.992025 -3.07179 0
M  V30 4166 H 380.033 -1.38135 -3.54433 0
M  V30 4167 H 381.345 -1.60512 -4.72268 0
M  V30 4168 H 380.499 0.335784 -6.0577 0
M  V30 4169 H 379.238 0.653373 -4.83304 0
M  V30 4170 H 378.243 -1.6123 -5.25628 0
M  V30 4171 H 379.468 -1.91993 -6.51395 0
M  V30 4172 H 377.414 0.323763 -6.55201 0
M  V30 4173 H 377.331 -1.1419 -7.47326 0
M  V30 4174 H 378.599 0.00291697 -7.795 0
M  V30 4175 N 382.828 1.3818 -0.7579 0
M  V30 4176 C 384.105 1.94106 -0.241306 0
M  V30 4177 C 384.485 1.69282 1.26122 0
M  V30 4178 O 383.833 1.03378 2.03777 0
M  V30 4179 C 384.043 3.43809 -0.59967 0
M  V30 4180 C 385.391 4.20868 -0.561717 0
M  V30 4181 O 386.415 3.5211 -0.538222 0
M  V30 4182 O 385.274 5.43451 -0.576478 0
M  V30 4183 H 382.368 0.825376 -0.0518042 0
M  V30 4184 H 384.914 1.47548 -0.838315 0
M  V30 4185 H 383.686 3.55403 -1.6372 0
M  V30 4186 H 383.309 3.97592 0.0251197 0
M  V30 4187 N 384.306 0.507319 1.49211 0
M  V30 4188 C 385.269 -0.256763 2.27757 0
M  V30 4189 C 386.269 -0.888287 1.34038 0
M  V30 4190 O 387.459 -0.751841 1.5714 0
M  V30 4191 C 384.591 -1.36905 3.12202 0
M  V30 4192 H 385.784 0.432557 2.96764 0
M  V30 4193 H 383.337 0.262488 1.5408 0
M  V30 4194 H 384.072 -2.09233 2.47775 0
M  V30 4195 H 383.857 -0.921599 3.81115 0
M  V30 4196 H 385.347 -1.9071 3.7151 0
M  V30 4197 N 385.784 -1.5574 0.241426 0
M  V30 4198 C 387.031 -1.9881 -0.384836 0
M  V30 4199 C 387.359 -1.12947 -1.58346 0
M  V30 4200 O 386.614 -0.178993 -1.9488 0
M  V30 4201 C 386.913 -3.47308 -0.843317 0
M  V30 4202 C 386.579 -4.50223 0.246946 0
M  V30 4203 C 385.241 -4.78088 0.546399 0
M  V30 4204 C 387.593 -5.11841 0.983282 0
M  V30 4205 C 384.921 -5.64846 1.58636 0
M  V30 4206 C 387.273 -5.99727 2.01272 0
M  V30 4207 C 385.937 -6.25927 2.31888 0
M  V30 4208 H 385.207 -0.727496 -0.140821 0
M  V30 4209 H 387.854 -1.8831 0.348106 0
M  V30 4210 H 386.159 -3.55112 -1.65537 0
M  V30 4211 H 387.856 -3.78017 -1.33806 0
M  V30 4212 H 384.446 -4.286 0.00340639 0
M  V30 4213 H 388.63 -4.90366 0.765182 0
M  V30 4214 H 383.886 -5.83403 1.82896 0
M  V30 4215 H 388.06 -6.46517 2.58823 0
M  V30 4216 H 385.687 -6.92949 3.12611 0
M  V30 4217 N 387.262 0.0317525 -1.57568 0
M  V30 4218 C 388.172 1.05021 -2.0978 0
M  V30 4219 C 389.188 1.39809 -1.03583 0
M  V30 4220 O 390.364 1.49182 -1.35302 0
M  V30 4221 C 387.429 2.33301 -2.56459 0
M  V30 4222 C 386.49 2.0512 -3.77127 0
M  V30 4223 C 385.723 3.27283 -4.2157 0
M  V30 4224 O 385.946 4.37861 -3.65559 0
M  V30 4225 O 384.88 3.13141 -5.14029 0
M  V30 4226 H 388.706 0.636505 -2.96955 0
M  V30 4227 H 386.291 0.248559 -1.47318 0
M  V30 4228 H 388.173 3.08722 -2.86825 0
M  V30 4229 H 386.848 2.73973 -1.72397 0
M  V30 4230 H 385.755 1.27276 -3.51784 0
M  V30 4231 H 387.088 1.69305 -4.62165 0
M  V30 4232 N 388.74 1.54641 0.303973 0
M  V30 4233 C 389.69 1.8177 1.37636 0
M  V30 4234 C 390.674 0.674697 1.46071 0
M  V30 4235 O 391.866 0.935251 1.50273 0
M  V30 4236 C 388.995 2.06584 2.74186 0
M  V30 4237 C 388.081 3.2706 2.69986 0
M  V30 4238 N 388.472 4.47682 2.35402 0
M  V30 4239 C 386.77 3.29028 3.01092 0
M  V30 4240 C 387.471 5.29689 2.40426 0
M  V30 4241 N 386.447 4.67339 2.7766 0
M  V30 4242 H 390.249 2.72596 1.09857 0
M  V30 4243 H 387.763 1.541 0.51254 0
M  V30 4244 H 389.76 2.24166 3.51504 0
M  V30 4245 H 388.42 1.17024 3.02879 0
M  V30 4246 H 389.431 4.74336 2.07908 0
M  V30 4247 H 386.108 2.49565 3.34699 0
M  V30 4248 H 387.498 6.3606 2.16512 0
M  V30 4249 N 390.218 -0.567019 1.47046 0
M  V30 4250 C 391.467 -1.32091 1.5243 0
M  V30 4251 C 391.78 -1.94704 0.187021 0
M  V30 4252 O 392.986 -2.7124 0.118771 0
M  V30 4253 C 391.442 -2.39479 2.68659 0
M  V30 4254 C 391.05 -1.831 4.08874 0
M  V30 4255 C 392.794 -3.16111 2.83327 0
M  V30 4256 C 390.701 -2.8821 5.16419 0
M  V30 4257 H 389.631 -0.496629 0.56734 0
M  V30 4258 H 392.282 -0.603354 1.73297 0
M  V30 4259 H 390.664 -3.14105 2.41152 0
M  V30 4260 H 391.838 -1.14913 4.46242 0
M  V30 4261 H 390.153 -1.19085 3.99008 0
M  V30 4262 H 392.75 -3.94585 3.60842 0
M  V30 4263 H 393.093 -3.69686 1.91411 0
M  V30 4264 H 393.626 -2.48595 3.10556 0
M  V30 4265 H 390.365 -2.39504 6.10179 0
M  V30 4266 H 389.885 -3.54839 4.8358 0
M  V30 4267 H 391.564 -3.51881 5.42945 0
M  V30 4268 N 391.696 -1.35014 -0.812953 0
M  V30 4269 C 392.942 -1.2812 -1.57204 0
M  V30 4270 C 393.275 0.145869 -1.93651 0
M  V30 4271 O 392.55 1.0937 -1.60836 0
M  V30 4272 C 392.833 -2.18162 -2.86492 0
M  V30 4273 C 392.686 -3.69454 -2.56561 0
M  V30 4274 C 394.005 -2.07439 -3.88145 0
M  V30 4275 H 391.124 -0.466746 -0.570366 0
M  V30 4276 H 393.766 -1.65357 -0.935783 0
M  V30 4277 H 391.916 -1.86535 -3.40789 0
M  V30 4278 H 393.588 -4.11493 -2.08497 0
M  V30 4279 H 391.831 -3.9005 -1.89851 0
M  V30 4280 H 392.502 -4.27835 -3.48799 0
M  V30 4281 H 394.978 -2.35228 -3.4323 0
M  V30 4282 H 393.854 -2.7265 -4.76396 0
M  V30 4283 H 394.115 -1.05439 -4.29343 0
M  V30 4284 N 393.175 1.03435 -1.18907 0
M  V30 4285 C 394.403 1.80381 -1.01342 0
M  V30 4286 C 394.818 1.83649 0.438005 0
M  V30 4287 O 394.175 1.27655 1.30424 0
M  V30 4288 C 394.226 3.25689 -1.56873 0
M  V30 4289 O 393.947 3.22673 -2.96334 0
M  V30 4290 C 395.448 4.19255 -1.44014 0
M  V30 4291 H 392.668 0.56784 -0.35749 0
M  V30 4292 H 395.212 1.30317 -1.576 0
M  V30 4293 H 393.367 3.72962 -1.04777 0
M  V30 4294 H 393.781 4.13748 -3.22355 0
M  V30 4295 H 395.255 5.19123 -1.87657 0
M  V30 4296 H 395.732 4.37467 -0.389815 0
M  V30 4297 H 396.338 3.77851 -1.95214 0
M  V30 4298 N 394.653 0.992116 1.22453 0
M  V30 4299 C 395.585 0.500024 2.23679 0
M  V30 4300 C 396.598 -0.404463 1.57696 0
M  V30 4301 O 397.787 -0.206722 1.77299 0
M  V30 4302 C 394.887 -0.294711 3.37616 0
M  V30 4303 C 394.06 0.605723 4.33186 0
M  V30 4304 C 393.119 -0.13717 5.26021 0
M  V30 4305 O 392.145 0.477164 5.67196 0
M  V30 4306 N 393.347 -1.4197 5.62872 0
M  V30 4307 H 396.112 1.37045 2.66531 0
M  V30 4308 H 393.673 0.866741 1.36745 0
M  V30 4309 H 395.665 -0.800329 3.96707 0
M  V30 4310 H 394.235 -1.06623 2.93854 0
M  V30 4311 H 393.455 1.29202 3.72425 0
M  V30 4312 H 394.743 1.21896 4.93983 0
M  V30 4313 H 394.141 -1.94015 5.31389 0
M  V30 4314 H 392.698 -1.87052 6.24383 0
M  V30 4315 N 396.131 -1.37776 0.765217 0
M  V30 4316 C 397.378 -1.99849 0.326588 0
M  V30 4317 C 397.706 -1.60746 -1.09504 0
M  V30 4318 O 396.961 -0.84202 -1.76659 0
M  V30 4319 C 397.26 -3.5504 0.410053 0
M  V30 4320 C 396.926 -4.13891 1.78899 0
M  V30 4321 C 395.588 -4.29678 2.16635 0
M  V30 4322 C 397.94 -4.46236 2.69301 0
M  V30 4323 C 395.268 -4.7511 3.44221 0
M  V30 4324 C 397.62 -4.93089 3.9629 0
M  V30 4325 C 396.284 -5.07082 4.34078 0
M  V30 4326 H 395.554 -0.7313 0.119507 0
M  V30 4327 H 398.201 -1.64645 0.977968 0
M  V30 4328 H 396.506 -3.90451 -0.324878 0
M  V30 4329 H 398.203 -4.00966 0.0520699 0
M  V30 4330 H 394.793 -4.02026 1.48569 0
M  V30 4331 H 398.977 -4.3363 2.41409 0
M  V30 4332 H 394.233 -4.84129 3.73402 0
M  V30 4333 H 398.407 -5.17084 4.66472 0
M  V30 4334 H 396.034 -5.42046 5.33001 0
M  V30 4335 N 397.609 -0.515225 -1.4894 0
M  V30 4336 C 398.834 0.022727 -2.07388 0
M  V30 4337 C 399.259 1.2876 -1.37122 0
M  V30 4338 O 398.617 1.76067 -0.432431 0
M  V30 4339 C 398.665 0.244869 -3.59768 0
M  V30 4340 O 397.769 1.31667 -3.90817 0
M  V30 4341 H 397.11 -0.0325506 -0.663202 0
M  V30 4342 H 399.64 -0.718918 -1.91553 0
M  V30 4343 H 399.65 0.47205 -4.0526 0
M  V30 4344 H 398.325 -0.679194 -4.10317 0
M  V30 4345 H 396.902 1.07331 -3.5712 0
M  V30 4346 N 399.087 1.5561 -0.249682 0
M  V30 4347 C 400.312 2.03865 0.381305 0
M  V30 4348 C 400.737 1.12769 1.50548 0
M  V30 4349 O 400.095 0.121189 1.80895 0
M  V30 4350 C 400.143 3.50101 0.863816 0
M  V30 4351 O 399.247 3.62132 1.97318 0
M  V30 4352 H 398.588 0.658827 0.0827194 0
M  V30 4353 H 401.118 2.01105 -0.376552 0
M  V30 4354 H 401.128 3.90975 1.1663 0
M  V30 4355 H 399.803 4.1588 0.0411816 0
M  V30 4356 H 398.38 3.33155 1.67517 0
M  V30 4357 N 400.565 -0.0233959 1.57583 0
M  V30 4358 C 401.811 -0.714119 1.89811 0
M  V30 4359 C 402.144 -1.74702 0.848113 0
M  V30 4360 O 401.419 -1.94023 -0.136135 0
M  V30 4361 C 401.702 -1.37853 3.32669 0
M  V30 4362 C 401.555 -0.358764 4.48367 0
M  V30 4363 C 402.874 -2.31101 3.7454 0
M  V30 4364 H 399.993 -0.25814 0.690314 0
M  V30 4365 H 402.635 0.0230927 1.89986 0
M  V30 4366 H 400.785 -2.00689 3.3265 0
M  V30 4367 H 402.457 0.268115 4.6052 0
M  V30 4368 H 400.7 0.321387 4.32608 0
M  V30 4369 H 401.371 -0.862242 5.45224 0
M  V30 4370 H 403.847 -1.78304 3.75961 0
M  V30 4371 H 402.723 -2.74567 4.75294 0
M  V30 4372 H 402.984 -3.18018 3.0711 0
M  V30 4373 N 402.043 -1.548 -0.295768 0
M  V30 4374 C 403.454 -1.65274 -0.868411 0
M  V30 4375 C 403.805 -0.56481 -1.87894 0
M  V30 4376 O 402.93 0.29767 -2.14343 0
M  V30 4377 C 403.525 -2.99603 -1.58188 0
M  V30 4378 C 402.084 -3.12181 -2.10286 0
M  V30 4379 C 401.231 -2.6098 -0.93727 0
M  V30 4380 H 404.182 -1.58534 -0.0726422 0
M  V30 4381 H 404.203 -2.91319 -2.44772 0
M  V30 4382 H 403.715 -3.78764 -0.846151 0
M  V30 4383 H 401.816 -2.3775 -2.8689 0
M  V30 4384 H 401.929 -4.18415 -2.33379 0
M  V30 4385 H 400.293 -2.17564 -1.32431 0
M  V30 4386 H 401.076 -3.42623 -0.215414 0
M  V30 4387 N 403.521 0.559213 -1.47345 0
M  V30 4388 C 404.767 1.31843 -1.54095 0
M  V30 4389 C 405.1 1.93149 -0.201726 0
M  V30 4390 O 404.375 1.77759 0.789428 0
M  V30 4391 C 404.658 2.43006 -2.65744 0
M  V30 4392 C 404.511 1.86581 -4.09277 0
M  V30 4393 C 405.83 3.44943 -2.73318 0
M  V30 4394 H 402.949 0.478012 -0.560957 0
M  V30 4395 H 405.591 0.625977 -1.79392 0
M  V30 4396 H 403.741 3.02072 -2.44305 0
M  V30 4397 H 405.413 1.31792 -4.42073 0
M  V30 4398 H 403.656 1.17268 -4.17649 0
M  V30 4399 H 404.327 2.66933 -4.83168 0
M  V30 4400 H 406.803 2.95793 -2.92653 0
M  V30 4401 H 405.679 4.20153 -3.53218 0
M  V30 4402 H 405.94 4.03665 -1.80296 0
M  V30 4403 N 404.999 1.35443 0.805782 0
M  V30 4404 C 406.224 1.32037 1.59941 0
M  V30 4405 C 406.649 -0.0994215 1.87837 0
M  V30 4406 O 406.007 -1.06648 1.46615 0
M  V30 4407 C 406.055 2.13354 2.90711 0
M  V30 4408 O 405.159 1.5148 3.83572 0
M  V30 4409 H 404.5 0.452666 0.485787 0
M  V30 4410 H 407.03 1.78496 1.00002 0
M  V30 4411 H 407.04 2.25338 3.40128 0
M  V30 4412 H 405.715 3.16572 2.69732 0
M  V30 4413 H 404.292 1.4834 3.42125 0
M  V30 4414 N 406.477 -1.02803 1.19454 0
M  V30 4415 C 407.723 -1.76478 0.999171 0
M  V30 4416 C 408.056 -1.88456 -0.468828 0
M  V30 4417 O 407.331 -1.40198 -1.34814 0
M  V30 4418 C 407.614 -3.19044 1.66981 0
M  V30 4419 C 407.467 -3.14932 3.21151 0
M  V30 4420 C 408.786 -4.17456 1.39349 0
M  V30 4421 H 405.905 -0.640614 0.364393 0
M  V30 4422 H 408.547 -1.20005 1.47305 0
M  V30 4423 H 406.697 -3.67263 1.2669 0
M  V30 4424 H 408.369 -2.74605 3.70661 0
M  V30 4425 H 406.612 -2.52625 3.52652 0
M  V30 4426 H 407.283 -4.1566 3.63223 0
M  V30 4427 H 409.759 -3.77842 1.74283 0
M  V30 4428 H 408.635 -5.154 1.88823 0
M  V30 4429 H 408.896 -4.40949 0.318813 0
M  V30 4430 N 407.956 -0.998596 -1.21925 0
M  V30 4431 C 409.202 -0.678667 -1.91107 0
M  V30 4432 C 409.535 0.78791 -1.77498 0
M  V30 4433 O 408.81 1.57043 -1.1475 0
M  V30 4434 C 409.093 -1.09245 -3.43129 0
M  V30 4435 C 408.946 -2.61801 -3.6576 0
M  V30 4436 C 410.265 -0.649984 -4.35274 0
M  V30 4437 H 407.384 -0.248025 -0.694012 0
M  V30 4438 H 410.026 -1.24314 -1.43688 0
M  V30 4439 H 408.176 -0.612171 -3.83647 0
M  V30 4440 H 409.848 -3.17543 -3.34611 0
M  V30 4441 H 408.091 -3.03609 -3.09845 0
M  V30 4442 H 408.762 -2.85804 -4.7225 0
M  V30 4443 H 411.238 -1.0626 -4.02303 0
M  V30 4444 H 410.114 -0.967743 -5.40302 0
M  V30 4445 H 410.375 0.449139 -4.39813 0
M  V30 4446 N 409.434 1.37368 -0.772513 0
M  V30 4447 C 410.659 2.0447 -0.347386 0
M  V30 4448 C 411.084 1.57882 1.0225 0
M  V30 4449 O 410.442 0.73941 1.65537 0
M  V30 4450 C 410.49 3.58369 -0.400479 0
M  V30 4451 O 409.594 4.0803 0.598789 0
M  V30 4452 H 408.935 0.646773 -0.15027 0
M  V30 4453 H 411.465 1.75667 -1.04892 0
M  V30 4454 H 411.475 4.07183 -0.258045 0
M  V30 4455 H 410.15 3.91633 -1.39986 0
M  V30 4456 H 408.727 3.70534 0.419411 0
M  V30 4457 N 410.912 0.523116 1.48665 0
M  V30 4458 C 412.189 -0.0775449 1.95446 0
M  V30 4459 C 412.569 -1.5197 1.4652 0
M  V30 4460 O 411.917 -2.17876 0.688657 0
M  V30 4461 C 412.127 0.0326135 3.48985 0
M  V30 4462 C 413.475 -0.130141 4.24401 0
M  V30 4463 O 414.499 -0.0415142 3.56176 0
M  V30 4464 O 413.358 -0.31491 5.45592 0
M  V30 4465 H 410.452 -0.0831012 0.822814 0
M  V30 4466 H 412.998 0.587227 1.59216 0
M  V30 4467 H 411.77 1.03748 3.77296 0
M  V30 4468 H 411.393 -0.671317 3.91892 0
M  V30 4469 N 412.39 -1.55475 0.257931 0
M  V30 4470 C 413.615 -2.04064 -0.370488 0
M  V30 4471 C 414.04 -1.13565 -1.49948 0
M  V30 4472 O 413.398 -0.130781 -1.80828 0
M  V30 4473 C 413.446 -3.50554 -0.845237 0
M  V30 4474 O 412.55 -3.63173 -1.95394 0
M  V30 4475 H 411.891 -0.659257 -0.0792243 0
M  V30 4476 H 414.421 -2.00903 0.387212 0
M  V30 4477 H 414.431 -3.91588 -1.14555 0
M  V30 4478 H 413.106 -4.15896 -0.0191259 0
M  V30 4479 H 411.683 -3.34039 -1.65748 0
M  V30 4480 N 413.868 0.0150385 -1.57593 0
M  V30 4481 C 415.098 0.713359 -1.93894 0
M  V30 4482 C 415.506 1.68663 -0.857289 0
M  V30 4483 O 414.849 1.82876 0.173788 0
M  V30 4484 C 414.911 1.51348 -3.26089 0
M  V30 4485 C 414.575 0.703451 -4.51554 0
M  V30 4486 C 415.572 -0.00237924 -5.199 0
M  V30 4487 C 413.257 0.653854 -4.98026 0
M  V30 4488 C 415.251 -0.746955 -6.33008 0
M  V30 4489 C 412.938 -0.0944578 -6.11027 0
M  V30 4490 C 413.936 -0.793609 -6.78374 0
M  V30 4491 O 413.624 -1.52974 -7.89211 0
M  V30 4492 H 413.356 0.204637 -0.644282 0
M  V30 4493 H 415.91 -0.0276411 -2.05381 0
M  V30 4494 H 414.14 2.29862 -3.10967 0
M  V30 4495 H 415.829 2.09572 -3.47612 0
M  V30 4496 H 416.595 0.0268803 -4.84993 0
M  V30 4497 H 412.474 1.18756 -4.45441 0
M  V30 4498 H 416.018 -1.2932 -6.85509 0
M  V30 4499 H 411.915 -0.125591 -6.45378 0
M  V30 4500 H 412.683 -1.44488 -8.05646 0
M  V30 4501 N 415.346 1.54954 0.287554 0
M  V30 4502 C 416.623 1.65569 1.04146 0
M  V30 4503 C 417.003 0.512672 2.0478 0
M  V30 4504 O 416.351 -0.489038 2.23205 0
M  V30 4505 C 416.561 3.04163 1.71131 0
M  V30 4506 C 417.909 3.61429 2.22832 0
M  V30 4507 O 418.933 3.06702 1.81141 0
M  V30 4508 O 417.792 4.57281 2.9926 0
M  V30 4509 H 414.886 0.671881 0.482188 0
M  V30 4510 H 417.432 1.67297 0.28457 0
M  V30 4511 H 416.204 3.78796 0.981303 0
M  V30 4512 H 415.827 3.06271 2.53543 0
M  V30 4513 N 416.824 -0.551391 1.4764 0
M  V30 4514 C 418.073 -1.30467 1.53822 0
M  V30 4515 C 418.386 -1.94495 0.207661 0
M  V30 4516 O 419.592 -2.71099 0.147533 0
M  V30 4517 C 418.048 -2.36616 2.71184 0
M  V30 4518 C 417.656 -1.78754 4.10793 0
M  V30 4519 C 419.4 -3.13088 2.86663 0
M  V30 4520 C 417.307 -2.82717 5.19447 0
M  V30 4521 H 416.237 -0.490584 0.572576 0
M  V30 4522 H 418.888 -0.58494 1.73927 0
M  V30 4523 H 417.27 -3.11529 2.4447 0
M  V30 4524 H 418.444 -1.10173 4.47435 0
M  V30 4525 H 416.759 -1.14846 4.00249 0
M  V30 4526 H 419.356 -3.90736 3.65007 0
M  V30 4527 H 419.699 -3.67635 1.95321 0
M  V30 4528 H 420.232 -2.45288 3.13175 0
M  V30 4529 H 416.971 -2.33018 6.12685 0
M  V30 4530 H 416.491 -3.4969 4.87316 0
M  V30 4531 H 418.17 -3.46102 5.46646 0
M  V30 4532 N 418.302 -1.35869 -0.798587 0
M  V30 4533 C 419.532 -1.32529 -1.58491 0
M  V30 4534 C 419.94 0.0975405 -1.88948 0
M  V30 4535 O 419.283 1.06224 -1.49874 0
M  V30 4536 C 419.345 -2.07247 -2.9375 0
M  V30 4537 C 419.009 -3.56391 -2.86068 0
M  V30 4538 C 420.006 -4.50824 -2.58947 0
M  V30 4539 C 417.691 -3.9915 -3.04933 0
M  V30 4540 C 419.685 -5.85993 -2.5078 0
M  V30 4541 C 417.372 -5.34413 -2.96389 0
M  V30 4542 C 418.37 -6.27646 -2.69349 0
M  V30 4543 O 418.058 -7.60426 -2.60782 0
M  V30 4544 H 417.79 -0.456529 -0.498556 0
M  V30 4545 H 420.344 -1.79425 -0.999799 0
M  V30 4546 H 418.574 -1.55001 -3.54276 0
M  V30 4547 H 420.263 -1.96883 -3.54954 0
M  V30 4548 H 421.029 -4.19104 -2.44084 0
M  V30 4549 H 416.908 -3.26961 -3.24989 0
M  V30 4550 H 420.452 -6.58735 -2.29595 0
M  V30 4551 H 416.349 -5.65743 -3.10813 0
M  V30 4552 H 417.117 -7.70444 -2.76331 0
M  V30 4553 N 419.78 1.02168 -1.19998 0
M  V30 4554 C 420.728 2.12717 -0.940967 0
M  V30 4555 C 421.722 1.69069 0.105841 0
M  V30 4556 O 422.928 1.79946 -0.0440583 0
M  V30 4557 H 419.303 0.695108 -0.28693 0
M  V30 4558 H 421.274 2.3175 -1.87975 0
M  V30 4559 C 420.023 3.44027 -0.504049 0
M  V30 4560 H 419.346 3.78036 -1.30112 0
M  V30 4561 H 420.786 4.22452 -0.361991 0
M  V30 4562 C 419.245 3.27678 0.782878 0
M  V30 4563 O 419.775 3.56949 1.84256 0
M  V30 4564 N 417.981 2.80943 0.742921 0
M  V30 4565 H 417.528 2.57322 -0.119687 0
M  V30 4566 H 417.486 2.70385 1.60435 0
M  V30 4567 N 421.258 1.00505 1.21394 0
M  V30 4568 C 422.221 0.570459 2.21987 0
M  V30 4569 C 423.221 -0.353211 1.56873 0
M  V30 4570 O 424.411 -0.14349 1.73608 0
M  V30 4571 C 421.543 -0.168555 3.40483 0
M  V30 4572 H 422.736 1.46021 2.6195 0
M  V30 4573 H 420.289 0.793565 1.34656 0
M  V30 4574 H 421.024 -1.07374 3.06009 0
M  V30 4575 H 420.809 0.494823 3.88965 0
M  V30 4576 H 422.299 -0.460362 4.15055 0
M  V30 4577 N 422.737 -1.36956 0.779787 0
M  V30 4578 C 423.977 -2.01328 0.353043 0
M  V30 4579 C 424.341 -1.60558 -1.05286 0
M  V30 4580 O 425.542 -2.1745 -1.58016 0
M  V30 4581 C 423.813 -3.53874 0.500822 0
M  V30 4582 S 425.372 -4.38506 0.16053 0
M  V30 4583 H 422.19 -0.69799 0.13539 0
M  V30 4584 H 424.792 -1.67016 1.01617 0
M  V30 4585 H 423.496 -3.81034 1.52451 0
M  V30 4586 H 423.027 -3.92994 -0.178574 0
M  V30 4587 H 425.042 -4.85153 -1.04121 0
M  V30 4588 N 424.215 -0.530993 -1.48385 0
M  V30 4589 C 425.125 0.23503 -2.3342 0
M  V30 4590 C 426.141 0.93801 -1.46552 0
M  V30 4591 O 427.317 0.912745 -1.7953 0
M  V30 4592 C 424.382 1.26778 -3.22689 0
M  V30 4593 C 423.443 0.575038 -4.25431 0
M  V30 4594 C 422.676 1.55858 -5.10435 0
M  V30 4595 O 422.899 2.79129 -4.97437 0
M  V30 4596 O 421.833 1.09742 -5.91811 0
M  V30 4597 H 425.659 -0.461794 -3.00169 0
M  V30 4598 H 423.244 -0.291903 -1.46521 0
M  V30 4599 H 425.126 1.86457 -3.77904 0
M  V30 4600 H 423.801 1.94699 -2.586 0
M  V30 4601 H 422.708 -0.0622782 -3.74048 0
M  V30 4602 H 424.041 -0.062253 -4.92161 0
M  V30 4603 N 425.693 1.55336 -0.266172 0
M  V30 4604 C 426.64 2.22172 0.625165 0
M  V30 4605 C 427.61 1.19211 1.15663 0
M  V30 4606 O 428.795 1.47723 1.20758 0
M  V30 4607 C 425.935 2.93972 1.8076 0
M  V30 4608 C 425.048 4.11632 1.31084 0
M  V30 4609 C 424.183 4.71099 2.45436 0
M  V30 4610 C 423.222 5.8097 1.92718 0
M  V30 4611 N 422.359 6.34538 3.00509 0
M  V30 4612 H 427.199 2.9796 0.0485582 0
M  V30 4613 H 424.736 1.47095 0.0122024 0
M  V30 4614 H 426.694 3.33811 2.50251 0
M  V30 4615 H 425.324 2.20623 2.35638 0
M  V30 4616 H 424.376 3.76975 0.509326 0
M  V30 4617 H 425.688 4.90893 0.884633 0
M  V30 4618 H 424.842 5.13612 3.22936 0
M  V30 4619 H 423.581 3.91096 2.91368 0
M  V30 4620 H 422.586 5.37916 1.13695 0
M  V30 4621 H 423.811 6.62836 1.47733 0
M  V30 4622 H 421.757 5.57433 3.45839 0
M  V30 4623 H 421.674 7.09046 2.62279 0
M  V30 4624 H 422.942 6.81709 3.78011 0
M  V30 4625 N 427.171 -0.0066808 1.57599 0
M  V30 4626 C 428.42 -0.692078 1.89455 0
M  V30 4627 C 428.733 -1.75306 0.867586 0
M  V30 4628 O 429.939 -2.49262 1.07614 0
M  V30 4629 C 428.395 -1.2821 3.36289 0
M  V30 4630 C 428.003 -0.256291 4.47266 0
M  V30 4631 C 429.747 -1.94608 3.77264 0
M  V30 4632 C 427.654 -0.855927 5.85173 0
M  V30 4633 H 426.584 -0.262252 0.706923 0
M  V30 4634 H 429.235 0.052769 1.83424 0
M  V30 4635 H 427.617 -2.0774 3.37135 0
M  V30 4636 H 428.791 0.513923 4.57925 0
M  V30 4637 H 427.106 0.306862 4.15268 0
M  V30 4638 H 429.703 -2.40364 4.77629 0
M  V30 4639 H 430.046 -2.77382 3.10427 0
M  V30 4640 H 430.579 -1.21822 3.78688 0
M  V30 4641 H 427.318 -0.0671161 6.55466 0
M  V30 4642 H 426.838 -1.59546 5.78191 0
M  V30 4643 H 428.517 -1.35658 6.32618 0
M  V30 4644 N 428.649 -1.55105 -0.279332 0
M  V30 4645 C 429.895 -1.76597 -1.00921 0
M  V30 4646 C 430.25 -0.556831 -1.84166 0
M  V30 4647 O 429.543 0.450573 -1.86227 0
M  V30 4648 C 429.737 -3.0086 -1.92919 0
M  V30 4649 C 429.566 -4.33744 -1.18728 0
M  V30 4650 C 428.336 -4.9712 -0.905545 0
M  V30 4651 C 430.534 -5.11009 -0.580857 0
M  V30 4652 N 428.516 -6.13749 -0.136169 0
M  V30 4653 C 429.887 -6.19976 0.0546661 0
M  V30 4654 C 431.942 -4.95502 -0.488067 0
M  V30 4655 C 430.645 -7.15123 0.774028 0
M  V30 4656 C 432.671 -5.90999 0.217688 0
M  V30 4657 C 432.033 -6.9935 0.841975 0
M  V30 4658 H 428.132 -0.698553 -0.351493 0
M  V30 4659 H 430.716 -1.92595 -0.285531 0
M  V30 4660 H 428.887 -2.86249 -2.62519 0
M  V30 4661 H 430.619 -3.10784 -2.59221 0
M  V30 4662 H 427.374 -4.57903 -1.20921 0
M  V30 4663 H 427.798 -6.7659 0.235665 0
M  V30 4664 H 432.44 -4.11841 -0.956406 0
M  V30 4665 H 430.158 -7.9831 1.25407 0
M  V30 4666 H 433.744 -5.81078 0.289717 0
M  V30 4667 H 432.624 -7.71973 1.37939 0
M  V30 4668 N 430.127 0.543554 -1.4793 0
M  V30 4669 C 431.375 1.29752 -1.54948 0
M  V30 4670 C 431.696 1.93764 -0.219242 0
M  V30 4671 O 430.966 1.80639 0.75805 0
M  V30 4672 H 429.546 0.481874 -0.570795 0
M  V30 4673 H 432.208 0.633636 -1.84312 0
M  V30 4674 H 431.304 2.08392 -2.32334 0
M  V30 4675 N 431.605 1.3629 0.791371 0
M  V30 4676 C 432.515 1.32606 1.93527 0
M  V30 4677 C 433.531 0.228541 1.72493 0
M  V30 4678 O 434.707 0.460571 1.96063 0
M  V30 4679 C 431.772 1.11271 3.28359 0
M  V30 4680 C 430.833 2.3048 3.62185 0
M  V30 4681 C 430.066 2.10154 4.90583 0
M  V30 4682 O 430.289 1.07572 5.60165 0
M  V30 4683 O 429.223 2.97884 5.23019 0
M  V30 4684 H 433.049 2.28909 1.99585 0
M  V30 4685 H 430.634 1.16818 0.931344 0
M  V30 4686 H 432.516 1.01283 4.09047 0
M  V30 4687 H 431.191 0.180292 3.23198 0
M  V30 4688 H 430.098 2.46036 2.81811 0
M  V30 4689 H 431.431 3.22221 3.72068 0
M  V30 4690 N 433.083 -1.0153 1.20538 0
M  V30 4691 C 434.36 -1.72327 0.925343 0
M  V30 4692 C 434.74 -2.03383 -0.565547 0
M  V30 4693 O 434.088 -1.69934 -1.52757 0
M  V30 4694 C 434.298 -2.9902 1.79967 0
M  V30 4695 C 435.646 -3.72258 2.04228 0
M  V30 4696 O 436.67 -3.08979 1.77231 0
M  V30 4697 O 435.529 -4.86053 2.4983 0
M  V30 4698 H 432.623 -0.751099 0.346092 0
M  V30 4699 H 435.169 -1.07366 1.31417 0
M  V30 4700 H 433.941 -2.72402 2.80915 0
M  V30 4701 H 433.564 -3.71721 1.41099 0
M  V30 4702 N 434.561 -1.01147 -1.20859 0
M  V30 4703 C 435.491 -0.597663 -2.25722 0
M  V30 4704 C 436.472 0.384744 -1.65692 0
M  V30 4705 O 437.657 0.271303 -1.92296 0
M  V30 4706 C 434.787 0.0700149 -3.47229 0
M  V30 4707 C 433.741 -0.832843 -4.19819 0
M  V30 4708 C 433.067 -0.0312202 -5.34691 0
M  V30 4709 C 434.367 -2.1385 -4.76514 0
M  V30 4710 H 436.061 -1.47423 -2.60589 0
M  V30 4711 H 433.607 -0.710301 -1.25263 0
M  V30 4712 H 435.56 0.37103 -4.19763 0
M  V30 4713 H 434.284 0.981259 -3.11511 0
M  V30 4714 H 432.943 -1.11778 -3.49144 0
M  V30 4715 H 432.591 0.881515 -4.95215 0
M  V30 4716 H 432.291 -0.632434 -5.84187 0
M  V30 4717 H 433.815 0.26346 -6.10031 0
M  V30 4718 H 435.229 -1.9002 -5.40893 0
M  V30 4719 H 433.626 -2.69012 -5.36426 0
M  V30 4720 H 434.696 -2.80495 -3.95538 0
M  V30 4721 N 436.039 1.36541 -0.78704 0
M  V30 4722 C 437.455 1.52571 -0.46844 0
M  V30 4723 C 437.655 1.7415 1.01361 0
M  V30 4724 O 436.711 1.77163 1.79915 0
M  V30 4725 C 438.024 2.71299 -1.29682 0
M  V30 4726 C 439.572 2.85169 -1.29027 0
M  V30 4727 C 440.047 4.06898 -2.10233 0
M  V30 4728 N 441.538 4.1404 -2.07666 0
M  V30 4729 C 442.273 5.07301 -2.67271 0
M  V30 4730 N 441.769 6.06021 -3.35724 0
M  V30 4731 N 443.562 4.99898 -2.57018 0
M  V30 4732 H 435.713 1.20788 -1.74711 0
M  V30 4733 H 437.976 0.589364 -0.742532 0
M  V30 4734 H 437.682 2.61868 -2.34773 0
M  V30 4735 H 437.556 3.6539 -0.936479 0
M  V30 4736 H 439.943 2.94062 -0.247284 0
M  V30 4737 H 440.024 1.91992 -1.69035 0
M  V30 4738 H 439.668 3.98766 -3.1456 0
M  V30 4739 H 439.598 4.99218 -1.67597 0
M  V30 4740 H 442.089 3.43357 -1.57843 0
M  V30 4741 H 442.402 6.73741 -3.78541 0
M  V30 4742 H 440.747 6.06253 -3.39826 0
M  V30 4743 H 443.938 4.21724 -2.03142 0
M  V30 4744 H 444.111 5.72392 -3.03761 0
M  V30 4745 N 437.518 0.538854 1.48102 0
M  V30 4746 C 438.468 -0.23907 2.26743 0
M  V30 4747 C 439.452 -0.901923 1.33245 0
M  V30 4748 O 440.644 -0.803263 1.57723 0
M  V30 4749 C 437.773 -1.2799 3.18549 0
M  V30 4750 C 436.859 -0.621388 4.19523 0
M  V30 4751 N 437.25 0.298004 5.04921 0
M  V30 4752 C 435.548 -0.877533 4.37282 0
M  V30 4753 C 436.249 0.678757 5.77726 0
M  V30 4754 N 435.225 0.0377881 5.43587 0
M  V30 4755 H 439.027 0.468096 2.90148 0
M  V30 4756 H 436.541 0.357497 1.58416 0
M  V30 4757 H 438.538 -1.851 3.73555 0
M  V30 4758 H 437.198 -1.98835 2.567 0
M  V30 4759 H 438.209 0.671126 5.13533 0
M  V30 4760 H 434.886 -1.57588 3.86616 0
M  V30 4761 H 436.276 1.43316 6.56437 0
M  V30 4762 N 438.996 -1.55193 0.274407 0
M  V30 4763 C 439.926 -2.25471 -0.607032 0
M  V30 4764 C 440.907 -1.24461 -1.15946 0
M  V30 4765 O 442.092 -1.53179 -1.19373 0
M  V30 4766 C 439.222 -2.97526 -1.79153 0
M  V30 4767 C 438.176 -4.05459 -1.37067 0
M  V30 4768 C 437.502 -4.65084 -2.6382 0
M  V30 4769 C 438.802 -5.19691 -0.521389 0
M  V30 4770 H 440.496 -2.99393 -0.0209343 0
M  V30 4771 H 438.042 -1.43997 -0.00862866 0
M  V30 4772 H 439.995 -3.45402 -2.41404 0
M  V30 4773 H 438.719 -2.21138 -2.40344 0
M  V30 4774 H 437.378 -3.58393 -0.771355 0
M  V30 4775 H 437.026 -3.85365 -3.23268 0
M  V30 4776 H 436.726 -5.37961 -2.36372 0
M  V30 4777 H 438.25 -5.15708 -3.26921 0
M  V30 4778 H 439.664 -5.63623 -1.04889 0
M  V30 4779 H 438.061 -5.99126 -0.341825 0
M  V30 4780 H 439.131 -4.82713 0.46 0
M  V30 4781 N 440.474 -0.00167713 -1.576 0
M  V30 4782 C 441.723 0.682021 -1.89819 0
M  V30 4783 C 442.036 1.74844 -0.876871 0
M  V30 4784 O 443.242 2.48688 -1.08934 0
M  V30 4785 C 441.698 1.26425 -3.36964 0
M  V30 4786 C 441.306 0.232568 -4.47396 0
M  V30 4787 C 443.05 1.92604 -3.78291 0
M  V30 4788 C 440.957 0.824882 -5.85619 0
M  V30 4789 H 439.887 0.258499 -0.708304 0
M  V30 4790 H 442.538 -0.0624957 -1.83394 0
M  V30 4791 H 440.92 2.05949 -3.38232 0
M  V30 4792 H 442.094 -0.5382 -4.57646 0
M  V30 4793 H 440.409 -0.32888 -4.15099 0
M  V30 4794 H 443.006 2.37827 -4.78897 0
M  V30 4795 H 443.349 2.75732 -3.11894 0
M  V30 4796 H 443.882 1.19812 -3.79328 0
M  V30 4797 H 440.621 0.0323542 -6.55492 0
M  V30 4798 H 440.141 1.56477 -5.79029 0
M  V30 4799 H 441.82 1.32301 -6.33329 0
M  V30 4800 N 441.952 1.55251 0.271103 0
M  V30 4801 C 443.198 1.76207 1.00394 0
M  V30 4802 C 443.531 0.562604 1.85872 0
M  V30 4803 O 442.806 -0.439785 1.89463 0
M  V30 4804 C 443.089 3.06828 1.8849 0
M  V30 4805 C 442.942 4.37134 1.05992 0
M  V30 4806 C 444.261 3.33503 2.87165 0
M  V30 4807 H 441.38 0.641086 0.363562 0
M  V30 4808 H 444.022 1.87982 0.276189 0
M  V30 4809 H 442.172 2.96921 2.5054 0
M  V30 4810 H 443.844 4.59001 0.459978 0
M  V30 4811 H 442.087 4.32275 0.363443 0
M  V30 4812 H 442.758 5.2486 1.70955 0
M  V30 4813 H 445.234 3.43215 2.3525 0
M  V30 4814 H 444.11 4.2616 3.45946 0
M  V30 4815 H 444.371 2.53235 3.62387 0
M  V30 4816 N 443.43 -0.535701 1.48216 0
M  V30 4817 C 444.655 -1.32149 1.59848 0
M  V30 4818 C 445.08 -1.86338 0.256842 0
M  V30 4819 O 444.438 -1.64107 -0.770632 0
M  V30 4820 C 444.486 -2.45224 2.64381 0
M  V30 4821 O 443.59 -3.48093 2.21144 0
M  V30 4822 H 442.931 -0.391634 0.536208 0
M  V30 4823 H 445.461 -0.645202 1.94161 0
M  V30 4824 H 445.471 -2.91491 2.85476 0
M  V30 4825 H 444.146 -2.05143 3.61786 0
M  V30 4826 H 442.723 -3.07984 2.10239 0
M  V30 4827 N 444.908 -1.36708 -0.784132 0
M  V30 4828 C 446.324 -1.17237 -1.08294 0
M  V30 4829 C 446.524 -5.93947e-05 -2.015 0
M  V30 4830 O 445.58 0.663686 -2.43622 0
M  V30 4831 C 446.893 -2.48557 -1.69233 0
M  V30 4832 C 448.441 -2.54968 -1.8155 0
M  V30 4833 C 448.916 -3.86388 -2.45904 0
M  V30 4834 N 450.407 -3.87762 -2.53367 0
M  V30 4835 C 451.142 -4.86191 -3.03983 0
M  V30 4836 N 450.638 -5.95015 -3.54866 0
M  V30 4837 N 452.431 -4.73606 -3.02743 0
M  V30 4838 H 444.582 -2.11758 -0.16501 0
M  V30 4839 H 446.845 -0.93822 -0.135822 0
M  V30 4840 H 446.551 -3.34638 -1.08215 0
M  V30 4841 H 446.425 -2.64748 -2.68679 0
M  V30 4842 H 448.812 -1.69302 -2.41704 0
M  V30 4843 H 448.893 -2.42672 -0.80895 0
M  V30 4844 H 448.537 -4.72462 -1.86392 0
M  V30 4845 H 448.467 -3.95982 -3.4714 0
M  V30 4846 H 450.958 -3.09145 -2.17343 0
M  V30 4847 H 451.271 -6.66086 -3.91854 0
M  V30 4848 H 449.616 -5.98676 -3.53003 0
M  V30 4849 H 452.807 -3.87717 -2.62284 0
M  V30 4850 H 452.98 -5.50473 -3.41881 0
M  V30 4851 N 446.386 1.0089 -1.21074 0
M  V30 4852 C 447.611 1.78727 -1.05221 0
M  V30 4853 C 448.036 1.83932 0.393795 0
M  V30 4854 O 447.394 1.28004 1.28393 0
M  V30 4855 C 447.442 3.20665 -1.64944 0
M  V30 4856 O 446.546 4.02632 -0.892273 0
M  V30 4857 H 445.887 0.550973 -0.370574 0
M  V30 4858 H 448.417 1.26847 -1.60534 0
M  V30 4859 H 448.427 3.71352 -1.69002 0
M  V30 4860 H 447.102 3.16191 -2.70177 0
M  V30 4861 H 445.679 3.61207 -0.926492 0
M  V30 4862 N 447.864 1.01787 1.20321 0
M  V30 4863 C 449.092 0.727194 1.937 0
M  V30 4864 C 449.507 -0.712305 1.74848 0
M  V30 4865 O 448.864 -1.48327 1.06327 0
M  V30 4866 C 448.915 1.05497 3.45764 0
M  V30 4867 O 448.636 2.43794 3.64 0
M  V30 4868 C 450.137 0.785534 4.36285 0
M  V30 4869 H 447.357 0.266939 0.615617 0
M  V30 4870 H 449.901 1.35939 1.52777 0
M  V30 4871 H 448.056 0.468158 3.84561 0
M  V30 4872 H 448.47 2.55656 4.57974 0
M  V30 4873 H 449.944 1.06495 5.4163 0
M  V30 4874 H 450.421 -0.280273 4.38305 0
M  V30 4875 H 451.027 1.35456 4.03152 0
M  V30 4876 N 449.342 -1.36122 0.79427 0
M  V30 4877 C 450.274 -2.28683 0.153903 0
M  V30 4878 C 451.287 -1.49707 -0.639669 0
M  V30 4879 O 452.476 -1.7209 -0.474054 0
M  V30 4880 C 449.576 -3.29202 -0.804921 0
M  V30 4881 C 448.749 -4.37358 -0.060366 0
M  V30 4882 C 447.808 -5.17811 -0.935849 0
M  V30 4883 O 446.834 -5.67853 -0.391309 0
M  V30 4884 N 448.036 -5.34721 -2.25951 0
M  V30 4885 H 450.801 -2.84278 0.949008 0
M  V30 4886 H 448.362 -1.4834 0.648611 0
M  V30 4887 H 450.354 -3.79914 -1.39455 0
M  V30 4888 H 448.924 -2.74212 -1.50088 0
M  V30 4889 H 448.144 -3.87746 0.710382 0
M  V30 4890 H 449.432 -5.06777 0.45324 0
M  V30 4891 H 448.83 -4.95687 -2.72601 0
M  V30 4892 H 447.387 -5.88657 -2.79867 0
M  V30 4893 N 450.82 -0.546701 -1.47814 0
M  V30 4894 C 451.783 0.196287 -2.28358 0
M  V30 4895 C 452.783 0.852437 -1.36346 0
M  V30 4896 O 453.973 0.709913 -1.59078 0
M  V30 4897 C 451.105 1.28579 -3.15722 0
M  V30 4898 H 452.298 -0.511086 -2.95513 0
M  V30 4899 H 449.851 -0.303248 -1.5333 0
M  V30 4900 H 450.586 2.0259 -2.53235 0
M  V30 4901 H 450.371 0.820229 -3.83425 0
M  V30 4902 H 451.861 1.80793 -3.76435 0
M  V30 4903 N 452.299 1.55045 -0.282633 0
M  V30 4904 C 453.71 1.85473 0.213655 0
M  V30 4905 C 454.061 1.20465 1.54863 0
M  V30 4906 O 453.186 0.495676 2.10647 0
M  V30 4907 C 453.781 3.36496 0.394445 0
M  V30 4908 C 452.34 3.67022 0.834961 0
M  V30 4909 C 451.487 2.77218 -0.0674081 0
M  V30 4910 H 454.438 1.50478 -0.504202 0
M  V30 4911 H 454.459 3.60007 1.23186 0
M  V30 4912 H 453.971 3.83782 -0.577326 0
M  V30 4913 H 452.072 3.25241 1.81794 0
M  V30 4914 H 452.185 4.74433 0.667075 0
M  V30 4915 H 450.549 2.5069 0.450196 0
M  V30 4916 H 451.332 3.2732 -1.0352 0
M  V30 4917 N 453.777 0.010035 1.57597 0
M  V30 4918 C 454.707 -0.976857 2.12084 0
M  V30 4919 C 455.688 -1.35191 1.03235 0
M  V30 4920 O 456.873 -1.43389 1.3097 0
M  V30 4921 C 454.003 -2.26548 2.63236 0
M  V30 4922 C 452.957 -2.03175 3.76701 0
M  V30 4923 C 452.283 -3.38138 4.14206 0
M  V30 4924 C 453.583 -1.38625 5.03568 0
M  V30 4925 H 455.277 -0.523145 2.94794 0
M  V30 4926 H 452.823 -0.250195 1.4181 0
M  V30 4927 H 454.776 -2.95952 2.99984 0
M  V30 4928 H 453.5 -2.74051 1.77661 0
M  V30 4929 H 452.159 -1.36195 3.40362 0
M  V30 4930 H 451.807 -3.83363 3.25641 0
M  V30 4931 H 451.507 -3.23312 4.90656 0
M  V30 4932 H 453.031 -4.08841 4.53521 0
M  V30 4933 H 454.445 -1.98 5.38023 0
M  V30 4934 H 452.842 -1.34256 5.84889 0
M  V30 4935 H 453.912 -0.356722 4.83586 0
M  V30 4936 N 455.255 -1.55392 -0.262866 0
M  V30 4937 C 456.504 -1.75679 -0.990943 0
M  V30 4938 C 456.817 -0.57097 -1.87081 0
M  V30 4939 O 458.023 -0.656486 -2.63444 0
M  V30 4940 C 456.479 -3.10964 -1.81188 0
M  V30 4941 C 456.087 -4.37146 -0.980188 0
M  V30 4942 C 457.831 -3.40597 -2.53365 0
M  V30 4943 C 455.738 -5.63466 -1.7961 0
M  V30 4944 H 454.668 -0.654868 -0.373716 0
M  V30 4945 H 457.319 -1.81841 -0.246203 0
M  V30 4946 H 455.701 -2.98867 -2.59797 0
M  V30 4947 H 456.875 -4.60187 -0.237558 0
M  V30 4948 H 455.19 -4.14731 -0.372497 0
M  V30 4949 H 457.787 -4.32186 -3.14833 0
M  V30 4950 H 458.13 -2.6119 -3.24169 0
M  V30 4951 H 458.663 -3.53838 -1.81779 0
M  V30 4952 H 455.402 -6.4565 -1.13209 0
M  V30 4953 H 454.922 -5.44552 -2.51443 0
M  V30 4954 H 456.601 -6.02139 -2.36723 0
M  V30 4955 N 456.733 0.527833 -1.48498 0
M  V30 4956 C 457.982 1.28003 -1.55878 0
M  V30 4957 C 458.295 1.9414 -0.238577 0
M  V30 4958 O 459.501 2.7083 -0.190643 0
M  V30 4959 C 457.957 2.32272 -2.74914 0
M  V30 4960 C 457.565 1.72196 -4.13585 0
M  V30 4961 C 459.309 3.08488 -2.91608 0
M  V30 4962 C 457.216 2.74417 -5.23879 0
M  V30 4963 H 456.146 0.481413 -0.580308 0
M  V30 4964 H 458.797 0.557195 -1.74836 0
M  V30 4965 H 457.179 3.07601 -2.49395 0
M  V30 4966 H 458.353 1.03041 -4.49132 0
M  V30 4967 H 456.668 1.08464 -4.02025 0
M  V30 4968 H 459.265 3.84879 -3.71177 0
M  V30 4969 H 459.608 3.64481 -2.01145 0
M  V30 4970 H 460.141 2.40274 -3.17038 0
M  V30 4971 H 456.88 2.23242 -6.16314 0
M  V30 4972 H 456.4 3.41893 -4.92818 0
M  V30 4973 H 458.079 3.37362 -5.52083 0
M  V30 4974 N 458.211 1.37122 0.776871 0
M  V30 4975 C 459.627 1.1781 1.07671 0
M  V30 4976 C 459.827 0.0107454 2.01497 0
M  V30 4977 O 458.883 -0.650756 2.4397 0
M  V30 4978 C 460.196 2.49451 1.67913 0
M  V30 4979 C 461.744 2.55927 1.80195 0
M  V30 4980 C 462.219 3.87686 2.43851 0
M  V30 4981 N 463.71 3.891 2.51307 0
M  V30 4982 C 464.445 4.87797 3.014 0
M  V30 4983 N 463.941 5.96888 3.51705 0
M  V30 4984 N 465.734 4.75205 3.00227 0
M  V30 4985 H 457.885 2.11843 0.153778 0
M  V30 4986 H 460.148 0.938927 0.130844 0
M  V30 4987 H 459.854 3.35207 1.06439 0
M  V30 4988 H 459.728 2.66169 2.67271 0
M  V30 4989 H 462.115 1.70582 2.40803 0
M  V30 4990 H 462.196 2.43097 0.796069 0
M  V30 4991 H 461.84 4.73444 1.83884 0
M  V30 4992 H 461.77 3.97817 3.45035 0
M  V30 4993 H 464.261 3.10293 2.157 0
M  V30 4994 H 464.574 6.68155 3.88316 0
M  V30 4995 H 462.919 6.0054 3.49824 0
M  V30 4996 H 466.11 3.89103 2.60224 0
M  V30 4997 H 466.283 5.52279 3.38957 0
M  V30 4998 N 459.689 -1.00246 1.21608 0
M  V30 4999 C 461.1 -1.55511 1.03312 0
M  V30 5000 C 461.451 -1.91946 -0.406332 0
M  V30 5001 O 460.576 -1.73753 -1.28992 0
M  V30 5002 C 461.171 -2.82576 1.86913 0
M  V30 5003 C 459.73 -3.34318 1.72941 0
M  V30 5004 C 458.877 -2.07487 1.83968 0
M  V30 5005 H 461.828 -0.824638 1.35593 0
M  V30 5006 H 461.849 -3.54559 1.38087 0
M  V30 5007 H 461.361 -2.56026 2.91672 0
M  V30 5008 H 459.462 -3.65797 0.70877 0
M  V30 5009 H 459.575 -4.05566 2.55055 0
M  V30 5010 H 457.939 -2.20603 1.27304 0
M  V30 5011 H 458.722 -1.83346 2.9024 0
M  V30 5012 N 461.167 -1.02423 -1.1978 0
M  V30 5013 C 462.444 -0.632802 -1.85081 0
M  V30 5014 C 462.824 0.888745 -1.9148 0
M  V30 5015 O 462.172 1.78357 -1.42832 0
M  V30 5016 C 462.382 -1.28947 -3.24305 0
M  V30 5017 C 463.73 -1.40976 -4.00513 0
M  V30 5018 O 464.754 -1.24628 -3.33686 0
M  V30 5019 O 463.613 -1.67467 -5.20209 0
M  V30 5020 H 460.707 -0.219348 -0.79738 0
M  V30 5021 H 463.253 -1.12209 -1.27307 0
M  V30 5022 H 462.025 -2.3288 -3.14456 0
M  V30 5023 H 461.648 -0.787748 -3.89718 0
M  V30 5024 N 462.645 1.35699 -0.801477 0
M  V30 5025 C 463.87 2.03687 -0.390678 0
M  V30 5026 C 464.295 1.60015 0.988778 0
M  V30 5027 O 463.653 0.774357 1.63931 0
M  V30 5028 C 463.701 3.57439 -0.476404 0
M  V30 5029 O 462.805 4.09208 0.512106 0
M  V30 5030 H 462.146 0.64344 -0.163956 0
M  V30 5031 H 464.676 1.73403 -1.08594 0
M  V30 5032 H 464.686 4.06544 -0.344357 0
M  V30 5033 H 463.361 3.88576 -1.48262 0
M  V30 5034 H 461.938 3.7134 0.340721 0
M  V30 5035 N 464.123 0.554532 1.47522 0
M  V30 5036 C 465.371 0.0294208 2.02079 0
M  V30 5037 C 465.692 -1.32411 1.43151 0
M  V30 5038 O 464.962 -1.863 0.605728 0
M  V30 5039 H 463.542 0.00788672 0.746958 0
M  V30 5040 H 466.204 0.723934 1.80956 0
M  V30 5041 H 465.3 -0.0606745 3.12041 0
M  V30 5042 N 465.601 -1.54893 0.290851 0
M  V30 5043 C 466.549 -2.24579 -0.605576 0
M  V30 5044 C 467.543 -1.24824 -1.14522 0
M  V30 5045 O 468.749 -1.42706 -1.09704 0
M  V30 5046 H 465.124 -0.720946 -0.213872 0
M  V30 5047 H 467.095 -2.984 0.0048173 0
M  V30 5048 C 465.844 -2.99224 -1.77088 0
M  V30 5049 H 465.167 -3.75782 -1.36484 0
M  V30 5050 H 466.607 -3.51281 -2.3744 0
M  V30 5051 C 465.066 -2.05602 -2.66888 0
M  V30 5052 O 465.596 -1.61745 -3.67698 0
M  V30 5053 N 463.802 -1.71771 -2.34399 0
M  V30 5054 H 463.349 -2.07633 -1.52468 0
M  V30 5055 H 463.307 -1.09403 -2.94751 0
M  V30 5056 N 467.08 -0.0183926 -1.57589 0
M  V30 5057 C 468.491 0.521927 -1.79256 0
M  V30 5058 C 468.842 1.72885 -0.927636 0
M  V30 5059 O 467.967 2.15978 -0.135091 0
M  V30 5060 C 468.562 0.953632 -3.25102 0
M  V30 5061 C 467.121 1.43913 -3.47801 0
M  V30 5062 C 466.268 0.398837 -2.74417 0
M  V30 5063 H 469.219 -0.244485 -1.56805 0
M  V30 5064 H 469.24 1.81863 -3.34224 0
M  V30 5065 H 468.752 0.0750123 -3.88028 0
M  V30 5066 H 466.853 2.33804 -2.90115 0
M  V30 5067 H 466.966 1.45391 -4.56507 0
M  V30 5068 H 465.33 0.864572 -2.39577 0
M  V30 5069 H 466.113 -0.471132 -3.40052 0
M  V30 5070 N 468.558 1.5553 0.254621 0
M  V30 5071 C 469.488 1.9268 1.31897 0
M  V30 5072 C 470.469 0.790797 1.506 0
M  V30 5073 O 471.654 1.05045 1.63337 0
M  V30 5074 C 468.784 2.21477 2.67517 0
M  V30 5075 C 467.738 3.37256 2.63519 0
M  V30 5076 C 467.064 3.51576 4.02862 0
M  V30 5077 C 468.364 4.73157 2.21179 0
M  V30 5078 H 470.058 2.81832 1.01051 0
M  V30 5079 H 467.604 1.35599 0.484662 0
M  V30 5080 H 469.557 2.46055 3.42104 0
M  V30 5081 H 468.281 1.29144 2.99982 0
M  V30 5082 H 466.94 3.12675 1.9139 0
M  V30 5083 H 466.588 2.56676 4.32581 0
M  V30 5084 H 466.288 4.2943 4.01078 0
M  V30 5085 H 467.812 3.78467 4.79161 0
M  V30 5086 H 469.226 4.97158 2.85494 0
M  V30 5087 H 467.623 5.54058 2.30521 0
M  V30 5088 H 468.693 4.70739 1.16332 0
M  V30 5089 N 470.036 -0.519951 1.48776 0
M  V30 5090 C 471.313 -1.28123 1.47797 0
M  V30 5091 C 471.693 -2.10196 0.195157 0
M  V30 5092 O 471.041 -2.13167 -0.822925 0
M  V30 5093 C 471.251 -2.15413 2.74587 0
M  V30 5094 C 472.599 -2.75225 3.23321 0
M  V30 5095 O 473.623 -2.25694 2.75574 0
M  V30 5096 O 472.482 -3.65346 4.06429 0
M  V30 5097 H 469.576 -0.578793 0.590701 0
M  V30 5098 H 472.122 -0.535779 1.6102 0
M  V30 5099 H 470.894 -1.54617 3.59457 0
M  V30 5100 H 470.517 -2.97186 2.64132 0
M  V30 5101 N 471.514 -1.37532 -0.769588 0
M  V30 5102 C 472.742 -1.36059 -1.55871 0
M  V30 5103 C 473.157 0.053544 -1.88724 0
M  V30 5104 O 472.514 1.01591 -1.5161 0
M  V30 5105 C 472.565 -2.20107 -2.86767 0
M  V30 5106 O 472.286 -3.56009 -2.55321 0
M  V30 5107 C 473.787 -2.26636 -3.80987 0
M  V30 5108 H 471.007 -0.465967 -0.482821 0
M  V30 5109 H 473.551 -1.80901 -0.953686 0
M  V30 5110 H 471.706 -1.78768 -3.43687 0
M  V30 5111 H 472.12 -4.0009 -3.39158 0
M  V30 5112 H 473.594 -2.89763 -4.69831 0
M  V30 5113 H 474.071 -1.2754 -4.20274 0
M  V30 5114 H 474.677 -2.68296 -3.29996 0
M  V30 5115 N 472.992 0.995999 -1.22138 0
M  V30 5116 C 474.238 1.73767 -1.04561 0
M  V30 5117 C 474.571 1.89633 0.418698 0
M  V30 5118 O 473.846 1.43723 1.3105 0
M  V30 5119 C 474.129 3.14505 -1.75382 0
M  V30 5120 C 473.982 3.06306 -3.29388 0
M  V30 5121 C 475.301 4.13615 -1.50369 0
M  V30 5122 H 472.42 0.630728 -0.38125 0
M  V30 5123 H 475.062 1.16057 -1.50435 0
M  V30 5124 H 473.212 3.63775 -1.36383 0
M  V30 5125 H 474.884 2.64681 -3.77812 0
M  V30 5126 H 473.127 2.43186 -3.59226 0
M  V30 5127 H 473.798 4.05884 -3.74116 0
M  V30 5128 H 476.274 3.73089 -1.84239 0
M  V30 5129 H 475.15 5.10212 -2.02421 0
M  V30 5130 H 475.411 4.39949 -0.435611 0
M  V30 5131 N 474.47 1.03057 1.19235 0
M  V30 5132 C 475.4 0.633497 2.24742 0
M  V30 5133 C 476.381 -0.358335 1.66283 0
M  V30 5134 O 477.566 -0.240676 1.92703 0
M  V30 5135 C 474.696 -0.0147648 3.47297 0
M  V30 5136 C 473.65 0.899527 4.18441 0
M  V30 5137 C 472.976 0.116281 5.34574 0
M  V30 5138 C 474.276 2.21404 4.73051 0
M  V30 5139 H 475.97 1.5155 2.58211 0
M  V30 5140 H 473.516 0.73014 1.24117 0
M  V30 5141 H 475.469 -0.304202 4.20301 0
M  V30 5142 H 474.193 -0.931577 3.13032 0
M  V30 5143 H 472.852 1.17319 3.47321 0
M  V30 5144 H 472.5 -0.802619 4.96555 0
M  V30 5145 H 472.2 0.725293 5.83107 0
M  V30 5146 H 473.724 -0.166376 6.10373 0
M  V30 5147 H 475.138 1.98601 5.37802 0
M  V30 5148 H 473.535 2.77512 5.32078 0
M  V30 5149 H 474.605 2.86752 3.91026 0
M  V30 5150 N 475.948 -1.35272 0.808662 0
M  V30 5151 C 476.895 -2.29764 0.218482 0
M  V30 5152 C 477.865 -1.52911 -0.648652 0
M  V30 5153 O 479.05 -1.81341 -0.593297 0
M  V30 5154 C 476.19 -3.39388 -0.625282 0
M  V30 5155 C 475.303 -4.31202 0.262516 0
M  V30 5156 C 474.438 -5.27919 -0.589451 0
M  V30 5157 C 473.477 -6.11371 0.298617 0
M  V30 5158 N 472.614 -7.0022 -0.513443 0
M  V30 5159 H 477.454 -2.79645 1.02968 0
M  V30 5160 H 474.991 -1.37629 0.519303 0
M  V30 5161 H 476.949 -4.01615 -1.12966 0
M  V30 5162 H 475.579 -2.90777 -1.40173 0
M  V30 5163 H 474.631 -3.69962 0.885013 0
M  V30 5164 H 475.943 -4.89748 0.945971 0
M  V30 5165 H 475.097 -5.95529 -1.15888 0
M  V30 5166 H 473.836 -4.69875 -1.30647 0
M  V30 5167 H 472.841 -5.42707 0.880301 0
M  V30 5168 H 474.066 -6.71494 1.01352 0
M  V30 5169 H 472.012 -6.44662 -1.21439 0
M  V30 5170 H 471.929 -7.55917 0.111922 0
M  V30 5171 H 473.197 -7.72175 -1.06608 0
M  V30 5172 N 477.426 -0.562348 -1.47226 0
M  V30 5173 C 478.672 -0.0402761 -2.0276 0
M  V30 5174 C 479.005 1.30823 -1.43523 0
M  V30 5175 O 478.28 1.85249 -0.592705 0
M  V30 5176 C 478.563 0.047311 -3.60069 0
M  V30 5177 C 478.416 -1.32865 -4.29729 0
M  V30 5178 C 479.735 0.758182 -4.3352 0
M  V30 5179 H 476.854 -0.0161105 -0.736824 0
M  V30 5180 H 479.496 -0.725628 -1.75598 0
M  V30 5181 H 477.646 0.630986 -3.83342 0
M  V30 5182 H 479.318 -1.95593 -4.17781 0
M  V30 5183 H 477.561 -1.90195 -3.89882 0
M  V30 5184 H 478.232 -1.22004 -5.38349 0
M  V30 5185 H 480.708 0.262546 -4.15271 0
M  V30 5186 H 479.584 0.78844 -5.43208 0
M  V30 5187 H 479.845 1.81537 -4.03109 0
M  V30 5188 N 478.904 1.54736 -0.299062 0
M  V30 5189 C 479.834 2.26409 0.571085 0
M  V30 5190 C 480.815 1.2629 1.13951 0
M  V30 5191 O 482 1.55059 1.16921 0
M  V30 5192 C 479.13 3.00338 1.74396 0
M  V30 5193 C 478.084 4.07588 1.30599 0
M  V30 5194 C 477.41 4.69222 2.56387 0
M  V30 5195 C 478.71 5.20455 0.438645 0
M  V30 5196 H 480.404 2.99388 -0.0266991 0
M  V30 5197 H 477.95 1.43993 -0.0142812 0
M  V30 5198 H 479.903 3.49198 2.35878 0
M  V30 5199 H 478.627 2.24934 2.36796 0
M  V30 5200 H 477.286 3.59575 0.71424 0
M  V30 5201 H 476.934 3.9046 3.17097 0
M  V30 5202 H 476.634 5.41653 2.27784 0
M  V30 5203 H 478.158 5.20844 3.18675 0
M  V30 5204 H 479.572 5.65221 0.959085 0
M  V30 5205 H 477.969 5.99594 0.246466 0
M  V30 5206 H 479.039 4.8192 -0.536738 0
M  V30 5207 N 480.382 0.0267497 1.57577 0
M  V30 5208 C 481.292 -0.971633 2.13533 0
M  V30 5209 C 482.308 -1.35868 1.08701 0
M  V30 5210 O 483.484 -1.44058 1.40746 0
M  V30 5211 C 480.549 -2.23622 2.64941 0
M  V30 5212 C 479.61 -1.90982 3.8448 0
M  V30 5213 C 478.843 -3.11411 4.33427 0
M  V30 5214 O 479.066 -4.23992 3.81558 0
M  V30 5215 O 478 -2.93848 5.25297 0
M  V30 5216 H 481.826 -0.525853 2.99113 0
M  V30 5217 H 479.411 -0.193712 1.48139 0
M  V30 5218 H 481.293 -2.97864 2.98086 0
M  V30 5219 H 479.968 -2.67386 1.82446 0
M  V30 5220 H 478.875 -1.14132 3.56265 0
M  V30 5221 H 480.208 -1.52036 4.6813 0
M  V30 5222 N 481.861 -1.55662 -0.24637 0
M  V30 5223 C 483.11 -1.7672 -0.972254 0
M  V30 5224 C 483.423 -0.59078 -1.86465 0
M  V30 5225 O 484.629 -0.684391 -2.62732 0
M  V30 5226 C 483.085 -3.12869 -1.7788 0
M  V30 5227 C 482.693 -4.38161 -0.933768 0
M  V30 5228 C 484.437 -3.43265 -2.49738 0
M  V30 5229 C 482.344 -5.6534 -1.73623 0
M  V30 5230 H 481.274 -0.658795 -0.366749 0
M  V30 5231 H 483.925 -1.82092 -0.226902 0
M  V30 5232 H 482.307 -3.01606 -2.56612 0
M  V30 5233 H 483.481 -4.60413 -0.188736 0
M  V30 5234 H 481.796 -4.15102 -0.328488 0
M  V30 5235 H 484.393 -4.35501 -3.10231 0
M  V30 5236 H 484.736 -2.64614 -3.2138 0
M  V30 5237 H 485.269 -3.55746 -1.78016 0
M  V30 5238 H 482.008 -6.46814 -1.06354 0
M  V30 5239 H 481.528 -5.47188 -2.45653 0
M  V30 5240 H 483.207 -6.04616 -2.30323 0
M  V30 5241 N 483.339 0.512053 -1.4905 0
M  V30 5242 C 484.269 1.62365 -1.67809 0
M  V30 5243 C 485.25 1.61737 -0.526809 0
M  V30 5244 O 486.435 1.78651 -0.761404 0
M  V30 5245 C 483.565 3.00895 -1.73435 0
M  V30 5246 C 482.519 3.16387 -2.88242 0
M  V30 5247 C 481.845 4.56157 -2.78971 0
M  V30 5248 C 483.145 2.97457 -4.29321 0
M  V30 5249 H 484.839 1.46921 -2.60873 0
M  V30 5250 H 482.385 0.705379 -1.2554 0
M  V30 5251 H 484.338 3.78549 -1.85145 0
M  V30 5252 H 483.062 3.17403 -0.769619 0
M  V30 5253 H 481.721 2.41155 -2.76116 0
M  V30 5254 H 481.369 4.69525 -1.8043 0
M  V30 5255 H 481.069 4.67465 -3.5602 0
M  V30 5256 H 482.593 5.35886 -2.92675 0
M  V30 5257 H 484.007 3.64888 -4.42187 0
M  V30 5258 H 482.404 3.20245 -5.07507 0
M  V30 5259 H 483.474 1.93692 -4.44535 0
M  V30 5260 N 484.817 1.37938 0.762283 0
M  V30 5261 C 486.065 1.33404 1.51815 0
M  V30 5262 C 486.386 -0.0780975 1.94844 0
M  V30 5263 O 485.656 -1.02405 1.67003 0
M  V30 5264 H 484.236 0.490839 0.563104 0
M  V30 5265 H 486.898 1.72527 0.906669 0
M  V30 5266 H 485.994 1.97926 2.41313 0
M  V30 5267 N 486.295 -0.989507 1.22664 0
M  V30 5268 C 487.242 -2.08024 0.999733 0
M  V30 5269 C 488.212 -1.65909 -0.0797047 0
M  V30 5270 O 489.397 -1.90669 0.0705715 0
M  V30 5271 C 486.537 -3.40067 0.587234 0
M  V30 5272 C 485.65 -3.95505 1.73781 0
M  V30 5273 C 484.785 -5.15722 1.27297 0
M  V30 5274 C 483.824 -5.63305 2.39488 0
M  V30 5275 N 482.961 -6.74758 1.94026 0
M  V30 5276 H 487.801 -2.26768 1.9334 0
M  V30 5277 H 485.338 -1.11171 0.963297 0
M  V30 5278 H 487.296 -4.15899 0.329227 0
M  V30 5279 H 485.926 -3.21314 -0.309426 0
M  V30 5280 H 484.978 -3.16513 2.11006 0
M  V30 5281 H 486.29 -4.26797 2.58158 0
M  V30 5282 H 485.444 -5.98854 0.972546 0
M  V30 5283 H 484.183 -4.86061 0.399445 0
M  V30 5284 H 483.188 -4.78759 2.70315 0
M  V30 5285 H 484.413 -5.94988 3.27362 0
M  V30 5286 H 482.359 -6.46874 1.09041 0
M  V30 5287 H 482.276 -7.05386 2.71968 0
M  V30 5288 H 483.544 -7.61387 1.67062 0
M  V30 5289 N 487.773 -1.03688 -1.18687 0
M  V30 5290 C 488.72 -0.624624 -2.22187 0
M  V30 5291 C 489.69 0.365636 -1.62026 0
M  V30 5292 O 490.875 0.260481 -1.89014 0
M  V30 5293 C 488.015 0.0101738 -3.45099 0
M  V30 5294 C 487.128 -1.02709 -4.19613 0
M  V30 5295 C 486.263 -0.361213 -5.2997 0
M  V30 5296 C 485.302 -1.38384 -5.96252 0
M  V30 5297 N 484.439 -0.743196 -6.98155 0
M  V30 5298 H 489.279 -1.51176 -2.56807 0
M  V30 5299 H 486.816 -0.75636 -1.26165 0
M  V30 5300 H 488.774 0.395528 -4.15321 0
M  V30 5301 H 487.404 0.860848 -3.1111 0
M  V30 5302 H 486.456 -1.53043 -3.48256 0
M  V30 5303 H 487.768 -1.80398 -4.65036 0
M  V30 5304 H 486.922 0.0785537 -6.06649 0
M  V30 5305 H 485.661 0.447799 -4.8564 0
M  V30 5306 H 484.666 -1.83378 -5.18317 0
M  V30 5307 H 485.891 -2.19448 -6.42666 0
M  V30 5308 H 483.837 0.0455789 -6.55984 0
M  V30 5309 H 483.754 -1.45784 -7.41811 0
M  V30 5310 H 485.022 -0.327698 -7.78811 0
M  V30 5311 N 489.251 1.34841 -0.815825 0
M  V30 5312 C 490.498 1.98499 -0.400535 0
M  V30 5313 C 490.826 1.64699 1.03463 0
M  V30 5314 O 490.081 0.907006 1.73412 0
M  V30 5315 C 490.38 3.53273 -0.541541 0
M  V30 5316 C 490.046 4.06966 -1.94138 0
M  V30 5317 C 488.708 4.21341 -2.32433 0
M  V30 5318 C 491.06 4.35933 -2.85677 0
M  V30 5319 C 488.388 4.62007 -3.61617 0
M  V30 5320 C 490.74 4.78042 -4.14317 0
M  V30 5321 C 489.404 4.90622 -4.52599 0
M  V30 5322 H 488.674 0.72636 -0.146566 0
M  V30 5323 H 491.321 1.60902 -1.0384 0
M  V30 5324 H 489.626 3.91387 0.179741 0
M  V30 5325 H 491.323 4.00497 -0.20085 0
M  V30 5326 H 487.913 3.96235 -1.63388 0
M  V30 5327 H 492.097 4.24372 -2.57337 0
M  V30 5328 H 487.353 4.69937 -3.91113 0
M  V30 5329 H 491.527 4.99415 -4.85342 0
M  V30 5330 H 489.154 5.2189 -5.52752 0
M  V30 5331 N 490.729 0.570148 1.46925 0
M  V30 5332 C 492.14 0.1402 1.86173 0
M  V30 5333 C 492.491 -1.29347 1.47526 0
M  V30 5334 O 491.616 -1.97508 0.884292 0
M  V30 5335 C 492.211 0.247661 3.37894 0
M  V30 5336 C 490.77 -0.127332 3.76185 0
M  V30 5337 C 489.917 0.589349 2.70965 0
M  V30 5338 H 492.868 0.779117 1.38259 0
M  V30 5339 H 492.889 -0.530341 3.76786 0
M  V30 5340 H 492.401 1.29121 3.65991 0
M  V30 5341 H 490.502 -1.17149 3.53704 0
M  V30 5342 H 490.615 0.240238 4.78497 0
M  V30 5343 H 488.979 0.0309824 2.54681 0
M  V30 5344 H 489.762 1.6343 3.01903 0
M  V30 5345 N 492.207 -1.54576 0.307264 0
M  V30 5346 C 493.453 -2.0056 -0.300612 0
M  V30 5347 C 493.786 -1.1953 -1.53057 0
M  V30 5348 O 493.061 -0.27337 -1.92569 0
M  V30 5349 C 493.344 -3.54167 -0.650987 0
M  V30 5350 C 493.197 -4.45933 0.588539 0
M  V30 5351 C 494.516 -4.14645 -1.47506 0
M  V30 5352 H 491.635 -0.729075 -0.107788 0
M  V30 5353 H 494.277 -1.85286 0.420606 0
M  V30 5354 H 492.427 -3.67313 -1.26544 0
M  V30 5355 H 494.099 -4.44683 1.22697 0
M  V30 5356 H 492.342 -4.16274 1.22058 0
M  V30 5357 H 493.013 -5.51189 0.299153 0
M  V30 5358 H 495.489 -4.04973 -0.955821 0
M  V30 5359 H 494.365 -5.22269 -1.68899 0
M  V30 5360 H 494.626 -3.66921 -2.4662 0
M  V30 5361 N 493.685 -0.035106 -1.57561 0
M  V30 5362 C 494.913 0.652258 -1.9635 0
M  V30 5363 C 495.328 1.65317 -0.911897 0
M  V30 5364 O 494.685 1.82194 0.105657 0
M  V30 5365 C 494.736 1.35337 -3.35211 0
M  V30 5366 O 494.457 0.392548 -4.36338 0
M  V30 5367 C 495.958 2.13199 -3.88666 0
M  V30 5368 H 493.178 0.179444 -0.646561 0
M  V30 5369 H 495.722 -0.0966459 -2.04271 0
M  V30 5370 H 493.877 2.05362 -3.28489 0
M  V30 5371 H 494.291 0.891097 -5.16875 0
M  V30 5372 H 495.765 2.577 -4.88154 0
M  V30 5373 H 496.242 2.97353 -3.23231 0
M  V30 5374 H 496.848 1.48118 -3.98674 0
M  V30 5375 N 495.163 1.55791 0.238111 0
M  V30 5376 C 496.073 1.94196 1.31625 0
M  V30 5377 C 497.089 0.843545 1.52185 0
M  V30 5378 O 498.265 1.1457 1.65637 0
M  V30 5379 C 495.33 2.2365 2.64918 0
M  V30 5380 C 494.391 3.46971 2.52804 0
M  V30 5381 C 493.624 3.7501 3.79741 0
M  V30 5382 O 493.847 3.04982 4.82019 0
M  V30 5383 O 492.781 4.68525 3.77846 0
M  V30 5384 H 496.607 2.86044 1.02043 0
M  V30 5385 H 494.192 1.42786 0.439603 0
M  V30 5386 H 496.074 2.43863 3.4367 0
M  V30 5387 H 494.749 1.34979 2.94215 0
M  V30 5388 H 493.656 3.32055 1.72309 0
M  V30 5389 H 494.989 4.35971 2.28451 0
M  V30 5390 N 496.642 -0.504142 1.49319 0
M  V30 5391 C 497.59 -1.62689 1.66238 0
M  V30 5392 C 498.584 -1.6095 0.528349 0
M  V30 5393 O 499.79 -1.65496 0.707887 0
M  V30 5394 H 496.165 -0.539247 0.524134 0
M  V30 5395 H 498.136 -1.45571 2.60484 0
M  V30 5396 C 496.885 -3.00841 1.74328 0
M  V30 5397 H 496.208 -3.02884 2.60963 0
M  V30 5398 H 497.648 -3.78945 1.90202 0
M  V30 5399 C 496.107 -3.33355 0.487416 0
M  V30 5400 O 496.637 -3.99819 -0.388294 0
M  V30 5401 N 494.843 -2.88469 0.351306 0
M  V30 5402 H 494.39 -2.34557 1.06492 0
M  V30 5403 H 494.348 -3.10591 -0.487899 0
M  V30 5404 N 498.12 -1.38341 -0.754957 0
M  V30 5405 C 499.345 -1.37882 -1.5493 0
M  V30 5406 C 499.77 0.0296385 -1.88077 0
M  V30 5407 O 499.128 1.01133 -1.50472 0
M  V30 5408 C 499.176 -2.23996 -2.82592 0
M  V30 5409 O 498.28 -1.65612 -3.77686 0
M  V30 5410 H 497.621 -0.470384 -0.468652 0
M  V30 5411 H 500.151 -1.82084 -0.933082 0
M  V30 5412 H 500.161 -2.37806 -3.3153 0
M  V30 5413 H 498.836 -3.26365 -2.57796 0
M  V30 5414 H 497.413 -1.60936 -3.36384 0
M  V30 5415 N 499.598 0.982988 -1.23187 0
M  V30 5416 C 500.545 2.07491 -1.01075 0
M  V30 5417 C 501.515 1.65949 0.070905 0
M  V30 5418 O 502.7 1.90629 -0.0806822 0
M  V30 5419 C 499.84 3.39751 -0.605261 0
M  V30 5420 C 498.953 3.94578 -1.75876 0
M  V30 5421 C 498.088 5.15039 -1.3003 0
M  V30 5422 C 497.127 5.62027 -2.42472 0
M  V30 5423 N 496.264 6.73719 -1.97602 0
M  V30 5424 H 501.104 2.25739 -1.9454 0
M  V30 5425 H 498.641 1.10659 -0.969179 0
M  V30 5426 H 500.599 4.15719 -0.351279 0
M  V30 5427 H 499.229 3.21473 0.292382 0
M  V30 5428 H 498.281 3.1539 -2.12681 0
M  V30 5429 H 499.593 4.25422 -2.60418 0
M  V30 5430 H 498.747 5.9833 -1.00429 0
M  V30 5431 H 497.486 4.85843 -0.425216 0
M  V30 5432 H 496.491 4.77318 -2.7285 0
M  V30 5433 H 497.716 5.93244 -3.30512 0
M  V30 5434 H 495.662 6.46287 -1.1247 0
M  V30 5435 H 495.579 7.03934 -2.75705 0
M  V30 5436 H 496.847 7.6049 -1.71098 0
M  V30 5437 N 501.076 1.04316 1.18135 0
M  V30 5438 C 502.324 0.746542 1.87806 0
M  V30 5439 C 502.645 -0.728082 1.80898 0
M  V30 5440 O 501.915 -1.52554 1.22899 0
M  V30 5441 H 500.495 0.273157 0.695265 0
M  V30 5442 H 503.157 1.32044 1.43354 0
M  V30 5443 H 502.253 1.05362 2.93778 0
M  V30 5444 N 502.554 -1.34406 0.822964 0
M  V30 5445 C 503.784 -2.02214 0.423424 0
M  V30 5446 C 504.192 -1.62124 -0.975322 0
M  V30 5447 O 503.535 -0.822452 -1.6426 0
M  V30 5448 C 503.597 -3.56721 0.446107 0
M  V30 5449 C 503.261 -4.20136 1.79819 0
M  V30 5450 C 504.258 -4.4065 2.75904 0
M  V30 5451 C 501.943 -4.56906 2.08669 0
M  V30 5452 C 503.937 -4.9706 3.99012 0
M  V30 5453 C 501.624 -5.13026 3.32036 0
M  V30 5454 C 502.622 -5.33047 4.27024 0
M  V30 5455 O 502.31 -5.87979 5.48211 0
M  V30 5456 H 502.042 -0.654748 0.168169 0
M  V30 5457 H 504.596 -1.72659 1.11257 0
M  V30 5458 H 502.826 -3.85537 -0.299734 0
M  V30 5459 H 504.515 -4.05845 0.0666114 0
M  V30 5460 H 505.281 -4.12607 2.54912 0
M  V30 5461 H 501.16 -4.40626 1.35535 0
M  V30 5462 H 504.704 -5.12603 4.73164 0
M  V30 5463 H 500.601 -5.40498 3.52891 0
M  V30 5464 H 501.369 -6.06413 5.49732 0
M  V30 5465 N 504.032 -0.577932 -1.46621 0
M  V30 5466 C 504.979 0.158048 -2.30258 0
M  V30 5467 C 505.949 0.888669 -1.40328 0
M  V30 5468 O 507.134 0.880283 -1.6928 0
M  V30 5469 C 504.274 1.16884 -3.24703 0
M  V30 5470 C 503.387 0.442163 -4.29731 0
M  V30 5471 C 502.522 1.44007 -5.11308 0
M  V30 5472 C 501.561 0.69952 -6.0809 0
M  V30 5473 N 500.698 1.64525 -6.82551 0
M  V30 5474 H 505.538 -0.561242 -2.92667 0
M  V30 5475 H 503.075 -0.288591 -1.44241 0
M  V30 5476 H 505.033 1.7677 -3.779 0
M  V30 5477 H 503.663 1.85591 -2.64113 0
M  V30 5478 H 502.715 -0.271632 -3.79429 0
M  V30 5479 H 504.027 -0.136992 -4.98612 0
M  V30 5480 H 503.181 2.11186 -5.68758 0
M  V30 5481 H 501.92 2.05315 -4.42377 0
M  V30 5482 H 500.925 0.0139217 -5.49798 0
M  V30 5483 H 502.15 0.091894 -6.79038 0
M  V30 5484 H 500.096 2.24653 -6.16334 0
M  V30 5485 H 500.013 1.11878 -7.47676 0
M  V30 5486 H 501.281 2.30754 -7.44562 0
M  V30 5487 N 505.51 1.54411 -0.315457 0
M  V30 5488 C 506.44 2.27002 0.547039 0
M  V30 5489 C 507.421 1.27492 1.12605 0
M  V30 5490 O 508.606 1.5629 1.15269 0
M  V30 5491 C 505.736 3.02171 1.71201 0
M  V30 5492 C 504.69 4.0895 1.26268 0
M  V30 5493 C 504.016 4.71915 2.51396 0
M  V30 5494 C 505.316 5.20891 0.383419 0
M  V30 5495 H 507.01 2.99343 -0.0584517 0
M  V30 5496 H 504.556 1.4397 -0.0295527 0
M  V30 5497 H 506.509 3.51681 2.32161 0
M  V30 5498 H 505.233 2.27433 2.34397 0
M  V30 5499 H 503.892 3.60312 0.676062 0
M  V30 5500 H 503.54 3.93801 3.12937 0
M  V30 5501 H 503.24 5.44039 2.22026 0
M  V30 5502 H 504.764 5.24195 3.13133 0
M  V30 5503 H 506.178 5.66206 0.899082 0
M  V30 5504 H 504.575 5.99821 0.182857 0
M  V30 5505 H 505.645 4.81324 -0.587821 0
M  V30 5506 N 506.988 0.0434614 1.5754 0
M  V30 5507 C 507.918 -0.931651 2.14109 0
M  V30 5508 C 508.899 -1.32971 1.06079 0
M  V30 5509 O 510.084 -1.40579 1.33982 0
M  V30 5510 C 507.214 -2.20914 2.67982 0
M  V30 5511 C 506.168 -1.95139 3.80926 0
M  V30 5512 C 505.494 -3.29276 4.21285 0
M  V30 5513 C 506.794 -1.27913 5.06395 0
M  V30 5514 H 508.488 -0.460497 2.95837 0
M  V30 5515 H 506.034 -0.220058 1.42309 0
M  V30 5516 H 507.987 -2.89522 3.06194 0
M  V30 5517 H 506.711 -2.70221 1.83434 0
M  V30 5518 H 505.37 -1.28945 3.43175 0
M  V30 5519 H 505.018 -3.76369 3.33699 0
M  V30 5520 H 504.718 -3.12831 4.97404 0
M  V30 5521 H 506.242 -3.99129 4.62091 0
M  V30 5522 H 507.656 -1.86544 5.42102 0
M  V30 5523 H 506.053 -1.2182 5.87605 0
M  V30 5524 H 507.123 -0.254066 4.84234 0
M  V30 5525 N 508.466 -1.55915 -0.229846 0
M  V30 5526 C 509.877 -1.68809 -0.797531 0
M  V30 5527 C 510.228 -0.643995 -1.8533 0
M  V30 5528 O 509.353 0.206492 -2.15413 0
M  V30 5529 C 509.948 -3.06043 -1.45338 0
M  V30 5530 C 508.507 -3.20819 -1.96856 0
M  V30 5531 C 507.654 -2.6472 -0.825736 0
M  V30 5532 H 510.605 -1.58699 -0.00533733 0
M  V30 5533 H 510.626 -3.01438 -2.32196 0
M  V30 5534 H 510.138 -3.82012 -0.684743 0
M  V30 5535 H 508.239 -2.49704 -2.76548 0
M  V30 5536 H 508.352 -4.27937 -2.15423 0
M  V30 5537 H 506.716 -2.22985 -1.23084 0
M  V30 5538 H 507.499 -3.43229 -0.0699019 0
M  V30 5539 N 509.944 0.496216 -1.49584 0
M  V30 5540 C 511.355 1.07765 -1.52459 0
M  V30 5541 C 511.706 1.93679 -0.31353 0
M  V30 5542 O 510.831 2.08588 0.576186 0
M  V30 5543 C 511.426 1.96111 -2.76271 0
M  V30 5544 C 509.985 2.49409 -2.81908 0
M  V30 5545 C 509.132 1.27142 -2.46435 0
M  V30 5546 H 512.083 0.279914 -1.56212 0
M  V30 5547 H 512.104 2.80862 -2.56704 0
M  V30 5548 H 511.616 1.33555 -3.64396 0
M  V30 5549 H 509.717 3.1559 -1.98074 0
M  V30 5550 H 509.83 2.86234 -3.84196 0
M  V30 5551 H 508.194 1.59818 -1.98319 0
M  V30 5552 H 508.977 0.662866 -3.3684 0
M  V30 5553 N 511.423 1.38739 0.74761 0
M  V30 5554 C 512.653 1.3832 1.53464 0
M  V30 5555 C 513.061 -0.0273464 1.8918 0
M  V30 5556 O 512.404 -1.00588 1.53713 0
M  V30 5557 C 512.466 2.18007 2.85855 0
M  V30 5558 C 512.13 3.66762 2.72644 0
M  V30 5559 C 513.127 4.60124 2.42037 0
M  V30 5560 C 510.812 4.10193 2.89909 0
M  V30 5561 C 512.806 5.94897 2.28859 0
M  V30 5562 C 510.493 5.45045 2.7635 0
M  V30 5563 C 511.491 6.37211 2.45869 0
M  V30 5564 O 511.179 7.69581 2.3238 0
M  V30 5565 H 510.911 0.474718 0.481268 0
M  V30 5566 H 513.465 1.83012 0.932518 0
M  V30 5567 H 511.695 1.68043 3.48279 0
M  V30 5568 H 513.384 2.09921 3.47402 0
M  V30 5569 H 514.15 4.27874 2.28361 0
M  V30 5570 H 510.029 3.38797 3.1263 0
M  V30 5571 H 513.573 6.66802 2.04989 0
M  V30 5572 H 509.47 5.76889 2.89601 0
M  V30 5573 H 510.238 7.80169 2.47546 0
M  V30 5574 N 512.901 -0.976442 1.23707 0
M  V30 5575 C 513.831 -2.08749 1.04624 0
M  V30 5576 C 514.812 -1.70057 -0.0380956 0
M  V30 5577 O 515.997 -1.93782 0.127308 0
M  V30 5578 C 513.127 -3.41335 0.640902 0
M  V30 5579 C 512.081 -3.93947 1.67302 0
M  V30 5580 C 511.407 -5.22774 1.12301 0
M  V30 5581 C 512.707 -4.22769 3.06697 0
M  V30 5582 H 514.401 -2.24972 1.97555 0
M  V30 5583 H 511.947 -1.08108 0.951247 0
M  V30 5584 H 513.9 -4.18489 0.494434 0
M  V30 5585 H 512.624 -3.24988 -0.324099 0
M  V30 5586 H 511.283 -3.18941 1.80755 0
M  V30 5587 H 510.931 -5.0278 0.148877 0
M  V30 5588 H 510.631 -5.58942 1.81267 0
M  V30 5589 H 512.155 -6.02546 0.988479 0
M  V30 5590 H 513.569 -4.90659 2.96524 0
M  V30 5591 H 511.966 -4.70147 3.72937 0
M  V30 5592 H 513.036 -3.29885 3.55392 0
M  V30 5593 N 514.379 -1.04941 -1.1758 0
M  V30 5594 C 515.795 -0.770282 -1.39781 0
M  V30 5595 C 515.995 0.636417 -1.91186 0
M  V30 5596 O 515.051 1.39923 -2.10185 0
M  V30 5597 C 516.364 -1.82376 -2.3908 0
M  V30 5598 C 517.912 -1.84569 -2.52791 0
M  V30 5599 C 518.387 -2.88933 -3.55361 0
M  V30 5600 N 519.878 -2.8788 -3.62877 0
M  V30 5601 C 520.613 -3.65282 -4.41992 0
M  V30 5602 N 520.109 -4.52461 -5.24643 0
M  V30 5603 N 521.902 -3.53732 -4.36841 0
M  V30 5604 H 514.053 -1.95705 -0.825438 0
M  V30 5605 H 516.316 -0.847284 -0.425222 0
M  V30 5606 H 516.022 -2.83323 -2.08376 0
M  V30 5607 H 515.896 -1.66327 -3.38549 0
M  V30 5608 H 518.283 -0.842879 -2.82807 0
M  V30 5609 H 518.364 -2.04696 -1.53406 0
M  V30 5610 H 518.008 -3.89398 -3.26085 0
M  V30 5611 H 517.938 -2.66059 -4.54445 0
M  V30 5612 H 520.429 -2.24666 -3.03864 0
M  V30 5613 H 520.742 -5.08211 -5.82187 0
M  V30 5614 H 519.087 -4.56524 -5.24033 0
M  V30 5615 H 522.278 -2.85021 -3.71323 0
M  V30 5616 H 522.451 -4.14302 -4.98255 0
M  V30 5617 N 515.857 1.33968 -0.830081 0
M  V30 5618 C 517.103 1.98357 -0.422191 0
M  V30 5619 C 517.436 1.65633 1.01387 0
M  V30 5620 O 516.711 0.931648 1.70735 0
M  V30 5621 C 516.994 3.54492 -0.633043 0
M  V30 5622 C 516.847 3.96934 -2.11574 0
M  V30 5623 C 518.166 4.40039 -0.0735584 0
M  V30 5624 H 515.285 0.720544 -0.154871 0
M  V30 5625 H 517.927 1.58749 -1.04397 0
M  V30 5626 H 516.077 3.88361 -0.103775 0
M  V30 5627 H 517.749 3.73363 -2.7092 0
M  V30 5628 H 515.992 3.46984 -2.60354 0
M  V30 5629 H 516.663 5.05651 -2.21406 0
M  V30 5630 H 519.139 4.12764 -0.52585 0
M  V30 5631 H 518.015 5.48327 -0.250841 0
M  V30 5632 H 518.276 4.30124 1.02202 0
M  V30 5633 N 517.335 0.585699 1.46312 0
M  V30 5634 C 518.584 0.0701192 2.01578 0
M  V30 5635 C 518.897 -1.29889 1.46247 0
M  V30 5636 O 520.103 -1.90598 1.93351 0
M  V30 5637 C 518.559 0.0747499 3.59822 0
M  V30 5638 C 518.167 1.44226 4.24149 0
M  V30 5639 C 519.911 -0.38673 4.22735 0
M  V30 5640 C 517.818 1.40446 5.74481 0
M  V30 5641 H 516.748 0.0224441 0.753666 0
M  V30 5642 H 519.399 0.737789 1.68015 0
M  V30 5643 H 517.781 -0.659144 3.90476 0
M  V30 5644 H 518.955 2.19612 4.05101 0
M  V30 5645 H 517.27 1.84401 3.73343 0
M  V30 5646 H 519.867 -0.433853 5.32937 0
M  V30 5647 H 520.21 -1.40489 3.91878 0
M  V30 5648 H 520.743 0.293195 3.96718 0
M  V30 5649 H 517.482 2.39952 6.10003 0
M  V30 5650 H 517.002 0.692845 5.95785 0
M  V30 5651 H 518.681 1.11865 6.37256 0
M  V30 5652 N 518.813 -1.54241 0.323641 0
M  V30 5653 C 519.745 -2.21836 -0.576311 0
M  V30 5654 C 520.758 -1.21837 -1.07979 0
M  V30 5655 O 521.947 -1.48306 -0.99336 0
M  V30 5656 C 519.047 -2.86923 -1.80356 0
M  V30 5657 C 518.22 -4.1306 -1.43875 0
M  V30 5658 C 517.279 -4.6174 -2.52353 0
M  V30 5659 O 516.305 -5.26421 -2.16494 0
M  V30 5660 N 517.507 -4.35974 -3.83284 0
M  V30 5661 H 520.272 -2.997 0.00247987 0
M  V30 5662 H 517.833 -1.61233 0.146848 0
M  V30 5663 H 519.825 -3.16414 -2.52318 0
M  V30 5664 H 518.395 -2.12765 -2.29019 0
M  V30 5665 H 517.615 -3.90334 -0.550752 0
M  V30 5666 H 518.903 -4.95148 -1.17071 0
M  V30 5667 H 518.301 -3.84203 -4.15216 0
M  V30 5668 H 516.858 -4.70119 -4.51477 0
M  V30 5669 N 520.291 -0.0518155 -1.57515 0
M  V30 5670 C 521.539 0.620595 -1.92336 0
M  V30 5671 C 521.86 1.71345 -0.930907 0
M  V30 5672 O 521.13 1.95885 0.0241341 0
M  V30 5673 H 519.71 0.232226 -0.709986 0
M  V30 5674 H 522.372 -0.104969 -1.94617 0
M  V30 5675 H 521.468 1.05879 -2.93592 0
M  V30 5676 N 521.769 1.56035 0.221574 0
M  V30 5677 C 523.046 1.69837 0.970301 0
M  V30 5678 C 523.426 0.599065 2.02421 0
M  V30 5679 O 522.774 -0.393929 2.25079 0
M  V30 5680 C 522.984 3.11148 1.58076 0
M  V30 5681 C 524.332 3.70555 2.07302 0
M  V30 5682 O 525.356 3.14109 1.6797 0
M  V30 5683 O 524.215 4.69562 2.79596 0
M  V30 5684 H 521.309 0.691727 0.453257 0
M  V30 5685 H 523.855 1.68353 0.213358 0
M  V30 5686 H 522.627 3.82617 0.819759 0
M  V30 5687 H 522.25 3.16749 2.40324 0
M  V30 5688 N 523.247 -0.488276 1.49845 0
M  V30 5689 C 524.495 -1.23911 1.59657 0
M  V30 5690 C 524.816 -1.92816 0.291005 0
M  V30 5691 O 524.086 -1.83328 -0.690485 0
M  V30 5692 H 522.666 -0.460357 0.588286 0
M  V30 5693 H 525.328 -0.564794 1.86537 0
M  V30 5694 H 524.424 -1.99625 2.39909 0
M  V30 5695 N 524.725 -1.39134 -0.740242 0
M  V30 5696 C 525.971 -1.36273 -1.50192 0
M  V30 5697 C 526.304 0.0430136 -1.94152 0
M  V30 5698 O 525.579 1.00691 -1.66408 0
M  V30 5699 C 525.862 -2.33041 -2.74525 0
M  V30 5700 C 525.715 -3.82535 -2.36617 0
M  V30 5701 C 527.034 -2.27723 -3.76604 0
M  V30 5702 H 524.153 -0.496323 -0.544823 0
M  V30 5703 H 526.795 -1.70085 -0.846815 0
M  V30 5704 H 524.945 -2.04337 -3.30422 0
M  V30 5705 H 526.617 -4.21967 -1.86391 0
M  V30 5706 H 524.86 -3.99565 -1.68909 0
M  V30 5707 H 525.531 -4.45723 -3.2563 0
M  V30 5708 H 528.007 -2.53091 -3.30279 0
M  V30 5709 H 526.883 -2.97519 -4.61274 0
M  V30 5710 H 527.144 -1.28049 -4.2315 0
M  V30 5711 N 526.204 0.969867 -1.24223 0
M  V30 5712 C 527.481 1.68774 -0.988664 0
M  V30 5713 C 527.861 2.05342 0.489673 0
M  V30 5714 O 527.209 1.75486 1.46345 0
M  V30 5715 C 527.419 2.92135 -1.90941 0
M  V30 5716 C 528.767 3.64422 -2.17903 0
M  V30 5717 O 529.791 3.02188 -1.88576 0
M  V30 5718 O 528.65 4.76446 -2.67697 0
M  V30 5719 H 525.744 0.737736 -0.37373 0
M  V30 5720 H 528.29 1.02415 -1.35312 0
M  V30 5721 H 527.062 2.61788 -2.90831 0
M  V30 5722 H 526.685 3.66228 -1.54798 0
M  V30 5723 N 527.682 1.05563 1.17022 0
M  V30 5724 C 528.931 0.763036 1.8671 0
M  V30 5725 C 529.244 -0.712857 1.82147 0
M  V30 5726 O 530.45 -1.11955 2.47343 0
M  V30 5727 C 528.906 1.31474 3.35026 0
M  V30 5728 C 528.514 2.82034 3.48081 0
M  V30 5729 C 530.258 1.09935 4.10018 0
M  V30 5730 C 528.165 3.30486 4.90442 0
M  V30 5731 H 527.095 0.281747 0.699382 0
M  V30 5732 H 529.746 1.2734 1.32124 0
M  V30 5733 H 528.128 0.732171 3.89173 0
M  V30 5734 H 529.302 3.46178 3.04133 0
M  V30 5735 H 527.617 3.02156 2.86515 0
M  V30 5736 H 530.214 1.43632 5.15048 0
M  V30 5737 H 530.557 0.0373072 4.16283 0
M  V30 5738 H 531.09 1.64732 3.62089 0
M  V30 5739 H 527.829 4.36137 4.89352 0
M  V30 5740 H 527.349 2.71086 5.35044 0
M  V30 5741 H 529.028 3.25382 5.59227 0
M  V30 5742 N 529.16 -1.33526 0.837174 0
M  V30 5743 C 530.108 -2.31168 0.257698 0
M  V30 5744 C 531.102 -1.5806 -0.609388 0
M  V30 5745 O 532.308 -1.72941 -0.499139 0
M  V30 5746 H 528.683 -0.74922 0.0646058 0
M  V30 5747 H 530.654 -2.77552 1.09578 0
M  V30 5748 C 529.403 -3.4326 -0.553887 0
M  V30 5749 H 528.726 -3.99665 0.104008 0
M  V30 5750 H 530.166 -4.13782 -0.925219 0
M  V30 5751 C 528.625 -2.88965 -1.73207 0
M  V30 5752 O 529.155 -2.85013 -2.83073 0
M  V30 5753 N 527.361 -2.45596 -1.55342 0
M  V30 5754 H 526.908 -2.49009 -0.659705 0
M  V30 5755 H 526.866 -2.0962 -2.34322 0
M  V30 5756 N 530.638 -0.59345 -1.46 0
M  V30 5757 C 531.866 -0.0890934 -2.06708 0
M  V30 5758 C 532.281 1.2205 -1.44046 0
M  V30 5759 O 531.638 1.74029 -0.549551 0
M  V30 5760 C 531.689 0.0720263 -3.61428 0
M  V30 5761 O 531.41 -1.18574 -4.21748 0
M  V30 5762 C 532.911 0.609487 -4.3909 0
M  V30 5763 H 530.131 -0.0623628 -0.668096 0
M  V30 5764 H 532.675 -0.817171 -1.87464 0
M  V30 5765 H 530.83 0.750369 -3.80063 0
M  V30 5766 H 531.244 -1.0064 -5.14754 0
M  V30 5767 H 532.718 0.671363 -5.47902 0
M  V30 5768 H 533.195 1.62878 -4.07882 0
M  V30 5769 H 533.801 -0.03434 -4.25286 0
M  V30 5770 N 532.116 1.54067 -0.331816 0
M  V30 5771 C 533.046 2.27569 0.522932 0
M  V30 5772 C 534.027 1.28679 1.11247 0
M  V30 5773 O 535.212 1.57504 1.13605 0
M  V30 5774 C 532.342 3.0397 1.67987 0
M  V30 5775 C 531.296 4.10267 1.21924 0
M  V30 5776 C 530.622 4.74555 2.46377 0
M  V30 5777 C 531.922 5.21268 0.32815 0
M  V30 5778 H 533.616 2.99264 -0.0901977 0
M  V30 5779 H 531.162 1.4393 -0.044821 0
M  V30 5780 H 533.115 3.54123 2.28418 0
M  V30 5781 H 531.839 2.29906 2.31971 0
M  V30 5782 H 530.498 3.61009 0.637809 0
M  V30 5783 H 530.146 3.97098 3.08743 0
M  V30 5784 H 529.846 5.46363 2.16243 0
M  V30 5785 H 531.37 5.27487 3.07555 0
M  V30 5786 H 532.784 5.67128 0.838978 0
M  V30 5787 H 531.181 5.99982 0.119228 0
M  V30 5788 H 532.251 4.80673 -0.638839 0
M  V30 5789 N 533.594 0.0601682 1.57485 0
M  V30 5790 C 534.526 -0.94047 2.09016 0
M  V30 5791 C 535.539 -1.26897 1.01985 0
M  V30 5792 O 536.728 -1.22819 1.29529 0
M  V30 5793 C 533.828 -2.25955 2.52582 0
M  V30 5794 C 533.001 -2.11163 3.83052 0
M  V30 5795 C 532.06 -3.26273 4.12835 0
M  V30 5796 O 531.086 -3.01779 4.82616 0
M  V30 5797 N 532.288 -4.51022 3.65458 0
M  V30 5798 H 535.053 -0.500578 2.9549 0
M  V30 5799 H 532.614 -0.125852 1.6141 0
M  V30 5800 H 534.606 -3.01846 2.69575 0
M  V30 5801 H 533.176 -2.61481 1.71308 0
M  V30 5802 H 532.396 -1.19808 3.75552 0
M  V30 5803 H 533.684 -1.98517 4.68475 0
M  V30 5804 H 533.082 -4.73811 3.09062 0
M  V30 5805 H 531.639 -5.23978 3.87673 0
M  V30 5806 N 535.072 -1.5615 -0.213296 0
M  V30 5807 C 535.982 -1.96265 -1.28519 0
M  V30 5808 C 536.998 -0.86765 -1.50824 0
M  V30 5809 O 538.174 -1.17191 -1.63793 0
M  V30 5810 C 535.239 -2.27836 -2.61327 0
M  V30 5811 C 534.3 -3.50949 -2.47252 0
M  V30 5812 C 533.533 -3.81004 -3.73727 0
M  V30 5813 O 533.756 -3.12612 -4.77106 0
M  V30 5814 O 532.69 -4.74477 -3.70344 0
M  V30 5815 H 536.516 -2.87631 -0.974795 0
M  V30 5816 H 534.101 -1.43467 -0.416832 0
M  V30 5817 H 535.983 -2.49299 -3.39747 0
M  V30 5818 H 534.658 -1.39643 -2.9203 0
M  V30 5819 H 533.565 -3.34754 -1.67004 0
M  V30 5820 H 534.898 -4.39551 -2.21486 0
M  V30 5821 N 536.55 0.480323 -1.50102 0
M  V30 5822 C 537.799 1.22979 -1.59872 0
M  V30 5823 C 538.112 1.93282 -0.30022 0
M  V30 5824 O 539.318 2.70086 -0.276709 0
M  V30 5825 C 537.774 2.23408 -2.82164 0
M  V30 5826 C 537.382 1.5895 -4.18854 0
M  V30 5827 C 539.126 2.99055 -3.01275 0
M  V30 5828 C 537.033 2.57611 -5.32344 0
M  V30 5829 H 535.963 0.462707 -0.59533 0
M  V30 5830 H 538.614 0.501291 -1.7652 0
M  V30 5831 H 536.996 2.99511 -2.59055 0
M  V30 5832 H 538.17 0.887 -4.52182 0
M  V30 5833 H 536.485 0.956191 -4.05273 0
M  V30 5834 H 539.082 3.72876 -3.83233 0
M  V30 5835 H 539.425 3.57897 -2.12639 0
M  V30 5836 H 539.958 2.30066 -3.24522 0
M  V30 5837 H 536.697 2.03521 -6.23105 0
M  V30 5838 H 536.217 3.26041 -5.03445 0
M  V30 5839 H 537.896 3.19627 -5.62537 0
M  V30 5840 N 538.028 1.39524 0.732853 0
M  V30 5841 C 539.274 1.37068 1.49467 0
M  V30 5842 C 539.607 -0.0327166 1.94172 0
M  V30 5843 O 538.882 -0.998071 1.66939 0
M  V30 5844 C 539.165 2.34494 2.73285 0
M  V30 5845 C 539.018 3.83784 2.34585 0
M  V30 5846 C 540.337 2.29717 3.75391 0
M  V30 5847 H 537.456 0.499206 0.542183 0
M  V30 5848 H 540.098 1.70532 0.837783 0
M  V30 5849 H 538.248 2.06087 3.29333 0
M  V30 5850 H 539.92 4.22949 1.84151 0
M  V30 5851 H 538.163 4.00455 1.66787 0
M  V30 5852 H 538.834 4.47444 3.23262 0
M  V30 5853 H 541.31 2.54839 3.28932 0
M  V30 5854 H 540.186 2.99962 4.59689 0
M  V30 5855 H 540.447 1.30291 4.22465 0
M  V30 5856 N 539.506 -0.963266 1.24736 0
M  V30 5857 C 540.416 -2.09246 1.06082 0
M  V30 5858 C 541.432 -1.74 0.000363101 0
M  V30 5859 O 542.608 -2.0041 0.199479 0
M  V30 5860 C 539.673 -3.40115 0.672498 0
M  V30 5861 C 538.734 -3.89282 1.80993 0
M  V30 5862 C 537.967 -5.13905 1.44004 0
M  V30 5863 O 538.19 -5.69434 0.331835 0
M  V30 5864 O 537.124 -5.57566 2.26723 0
M  V30 5865 H 540.95 -2.27881 2.00759 0
M  V30 5866 H 538.535 -1.07649 1.03595 0
M  V30 5867 H 540.417 -4.18797 0.467668 0
M  V30 5868 H 539.092 -3.22771 -0.245102 0
M  V30 5869 H 537.999 -3.11642 2.06955 0
M  V30 5870 H 539.332 -4.1111 2.70646 0
M  V30 5871 N 540.985 -1.06182 -1.16461 0
M  V30 5872 C 542.233 -0.776326 -1.86595 0
M  V30 5873 C 542.554 0.69921 -1.82033 0
M  V30 5874 O 541.824 1.50579 -1.2531 0
M  V30 5875 H 540.404 -0.284184 -0.690832 0
M  V30 5876 H 543.066 -1.34308 -1.41235 0
M  V30 5877 H 542.162 -1.10022 -2.92064 0
M  V30 5878 N 542.463 1.3308 -0.844243 0
M  V30 5879 C 543.396 2.27075 -0.226279 0
M  V30 5880 C 544.374 1.49911 0.629716 0
M  V30 5881 O 545.558 1.79068 0.588803 0
M  V30 5882 C 542.685 3.31767 0.681782 0
M  V30 5883 C 541.731 4.26384 -0.0994565 0
M  V30 5884 S 542.564 5.15186 -1.46094 0
M  V30 5885 C 543.72 6.23405 -0.558319 0
M  V30 5886 H 543.953 2.79141 -1.02312 0
M  V30 5887 H 541.486 1.40452 -0.641292 0
M  V30 5888 H 543.444 3.92566 1.20008 0
M  V30 5889 H 542.105 2.78507 1.45234 0
M  V30 5890 H 541.298 5.00514 0.591733 0
M  V30 5891 H 540.9 3.69949 -0.548991 0
M  V30 5892 H 543.192 6.77069 0.241672 0
M  V30 5893 H 544.135 6.96619 -1.26995 0
M  V30 5894 H 544.543 5.64333 -0.13728 0
M  V30 5895 N 543.941 0.601185 1.45683 0
M  V30 5896 C 544.888 -0.121396 2.30481 0
M  V30 5897 C 545.858 -0.866232 1.41724 0
M  V30 5898 O 547.043 -0.85324 1.70659 0
M  V30 5899 C 544.183 -1.11704 3.26521 0
M  V30 5900 C 543.296 -0.373741 4.3038 0
M  V30 5901 C 542.431 -1.35854 5.13534 0
M  V30 5902 C 541.47 -0.602689 6.09126 0
M  V30 5903 N 540.607 -1.53645 6.85082 0
M  V30 5904 H 545.447 0.607732 2.91737 0
M  V30 5905 H 542.984 0.311502 1.43764 0
M  V30 5906 H 544.942 -1.70735 3.80664 0
M  V30 5907 H 543.572 -1.81366 2.67032 0
M  V30 5908 H 542.624 0.331962 3.78949 0
M  V30 5909 H 543.936 0.2163 4.98331 0
M  V30 5910 H 543.09 -2.02111 5.72046 0
M  V30 5911 H 541.829 -1.98251 4.45587 0
M  V30 5912 H 540.834 0.0735482 5.49751 0
M  V30 5913 H 542.059 0.0161467 6.79098 0
M  V30 5914 H 540.005 -2.14819 6.1983 0
M  V30 5915 H 539.922 -0.999688 7.49361 0
M  V30 5916 H 541.19 -2.1888 7.48139 0
M  V30 5917 N 545.419 -1.53889 0.339982 0
M  V30 5918 C 546.351 -2.22435 -0.55275 0
M  V30 5919 C 547.364 -1.22975 -1.06681 0
M  V30 5920 O 548.553 -1.49351 -0.977575 0
M  V30 5921 C 545.653 -2.8882 -1.77302 0
M  V30 5922 C 544.826 -4.14563 -1.39486 0
M  V30 5923 C 543.885 -4.64391 -2.47442 0
M  V30 5924 O 542.911 -5.28687 -2.10899 0
M  V30 5925 N 544.113 -4.40015 -3.78639 0
M  V30 5926 H 546.878 -2.9968 0.0342669 0
M  V30 5927 H 544.439 -1.61068 0.16394 0
M  V30 5928 H 546.431 -3.19072 -2.48948 0
M  V30 5929 H 545.001 -2.15182 -2.26749 0
M  V30 5930 H 544.221 -3.90896 -0.509321 0
M  V30 5931 H 545.509 -4.96362 -1.11813 0
M  V30 5932 H 544.907 -3.88586 -4.11118 0
M  V30 5933 H 543.464 -4.74881 -4.46465 0
M  V30 5934 N 546.897 -0.0685191 -1.57451 0
M  V30 5935 C 547.844 0.899861 -2.12535 0
M  V30 5936 C 548.814 1.29749 -1.03703 0
M  V30 5937 O 549.999 1.38392 -1.31348 0
M  V30 5938 C 547.139 2.16328 -2.6888 0
M  V30 5939 C 546.252 1.81857 -3.91857 0
M  V30 5940 C 545.387 3.02786 -4.36457 0
M  V30 5941 C 544.426 2.64317 -5.5209 0
M  V30 5942 N 543.563 3.77994 -5.91663 0
M  V30 5943 H 548.403 0.423243 -2.94979 0
M  V30 5944 H 545.94 0.197268 -1.45771 0
M  V30 5945 H 547.898 2.90281 -2.99655 0
M  V30 5946 H 546.528 2.61536 -1.89206 0
M  V30 5947 H 545.58 0.979808 -3.67565 0
M  V30 5948 H 546.892 1.49553 -4.75852 0
M  V30 5949 H 546.046 3.85021 -4.68875 0
M  V30 5950 H 544.785 3.38281 -3.51308 0
M  V30 5951 H 543.79 1.80503 -5.19325 0
M  V30 5952 H 545.015 2.29995 -6.38967 0
M  V30 5953 H 542.961 4.13258 -5.09464 0
M  V30 5954 H 542.878 3.49447 -6.7039 0
M  V30 5955 H 544.146 4.60818 -6.28703 0
M  V30 5956 N 548.375 1.56261 0.205012 0
M  V30 5957 C 549.308 1.88797 1.28183 0
M  V30 5958 C 550.286 0.747018 1.44424 0
M  V30 5959 O 551.47 0.997039 1.59973 0
M  V30 5960 C 548.597 2.10949 2.64987 0
M  V30 5961 C 547.643 3.33649 2.6567 0
M  V30 5962 S 548.476 4.89078 2.18088 0
M  V30 5963 C 549.632 5.14286 3.56736 0
M  V30 5964 H 549.865 2.79837 1.00393 0
M  V30 5965 H 547.398 1.48911 0.408042 0
M  V30 5966 H 549.356 2.24395 3.4374 0
M  V30 5967 H 548.017 1.20678 2.89993 0
M  V30 5968 H 547.21 3.46245 3.66239 0
M  V30 5969 H 546.812 3.19146 1.94992 0
M  V30 5970 H 549.104 5.04198 4.52537 0
M  V30 5971 H 550.047 6.16096 3.49043 0
M  V30 5972 H 550.455 4.41957 3.51189 0
M  V30 5973 N 549.853 -0.472356 1.50355 0
M  V30 5974 C 551.099 -1.22348 1.62488 0
M  V30 5975 C 551.454 -1.89711 0.320574 0
M  V30 5976 O 550.747 -1.79074 -0.68141 0
M  V30 5977 C 550.941 -2.29257 2.74182 0
M  V30 5978 C 550.77 -1.72383 4.15348 0
M  V30 5979 C 549.54 -1.52411 4.81766 0
M  V30 5980 C 551.738 -1.21949 4.99633 0
M  V30 5981 N 549.72 -0.907669 6.07153 0
M  V30 5982 C 551.091 -0.726191 6.15732 0
M  V30 5983 C 553.146 -1.10792 4.85417 0
M  V30 5984 C 551.849 -0.132322 7.19178 0
M  V30 5985 C 553.875 -0.52799 5.89038 0
M  V30 5986 C 553.237 -0.0450604 7.04386 0
M  V30 5987 H 549.336 -0.436631 0.648751 0
M  V30 5988 H 551.92 -0.525698 1.87469 0
M  V30 5989 H 550.091 -2.96464 2.50926 0
M  V30 5990 H 551.823 -2.9628 2.75681 0
M  V30 5991 H 548.578 -1.776 4.39039 0
M  V30 5992 H 549.002 -0.617897 6.74174 0
M  V30 5993 H 553.644 -1.46722 3.96525 0
M  V30 5994 H 551.362 0.239187 8.07746 0
M  V30 5995 H 554.948 -0.444046 5.80103 0
M  V30 5996 H 553.828 0.396659 7.83196 0
M  V30 5997 N 551.331 -1.39911 -0.725443 0
M  V30 5998 C 552.556 -1.41137 -1.5197 0
M  V30 5999 C 552.981 -0.010262 -1.88097 0
M  V30 6000 O 552.339 0.979184 -1.52583 0
M  V30 6001 C 552.387 -2.2994 -2.77777 0
M  V30 6002 O 551.491 -1.73586 -3.74088 0
M  V30 6003 H 550.832 -0.480219 -0.458569 0
M  V30 6004 H 553.362 -1.84023 -0.894249 0
M  V30 6005 H 553.372 -2.44785 -3.26411 0
M  V30 6006 H 552.047 -3.31759 -2.50816 0
M  V30 6007 H 550.624 -1.68035 -3.32894 0
M  V30 6008 N 552.809 0.956637 -1.25245 0
M  V30 6009 C 554.058 1.69537 -1.0927 0
M  V30 6010 C 554.371 1.92136 0.366503 0
M  V30 6011 O 555.577 2.63687 0.64665 0
M  V30 6012 C 554.033 3.05211 -1.9072 0
M  V30 6013 C 553.641 2.90416 -3.41119 0
M  V30 6014 C 555.385 3.82882 -1.83308 0
M  V30 6015 C 553.292 4.21468 -4.14872 0
M  V30 6016 H 552.222 0.635804 -0.405302 0
M  V30 6017 H 554.873 1.06513 -1.49423 0
M  V30 6018 H 553.255 3.69128 -1.43389 0
M  V30 6019 H 554.429 2.35444 -3.9611 0
M  V30 6020 H 552.744 2.26203 -3.49602 0
M  V30 6021 H 555.341 4.79944 -2.35706 0
M  V30 6022 H 555.684 4.0853 -0.800572 0
M  V30 6023 H 556.217 3.25711 -2.28379 0
M  V30 6024 H 552.956 4.01009 -5.18529 0
M  V30 6025 H 552.476 4.76213 -3.64665 0
M  V30 6026 H 554.155 4.90022 -4.22478 0
M  V30 6027 N 554.287 1.06798 1.15896 0
M  V30 6028 C 555.197 0.694564 2.24083 0
M  V30 6029 C 556.213 -0.291687 1.71538 0
M  V30 6030 O 557.389 -0.139723 2.00915 0
M  V30 6031 C 554.454 0.0921014 3.46578 0
M  V30 6032 C 553.515 1.13087 4.14137 0
M  V30 6033 C 552.748 0.557064 5.30785 0
M  V30 6034 O 552.971 -0.628623 5.66925 0
M  V30 6035 O 551.905 1.29924 5.8771 0
M  V30 6036 H 555.731 1.59663 2.58344 0
M  V30 6037 H 553.316 0.840575 1.2351 0
M  V30 6038 H 555.198 -0.241884 4.20705 0
M  V30 6039 H 553.873 -0.78337 3.14078 0
M  V30 6040 H 552.78 1.51712 3.41957 0
M  V30 6041 H 554.113 1.97805 4.50704 0
M  V30 6042 N 555.766 -1.3263 0.851289 0
M  V30 6043 C 556.714 -2.30882 0.282202 0
M  V30 6044 C 557.708 -1.58697 -0.592589 0
M  V30 6045 O 558.914 -1.73461 -0.480768 0
M  V30 6046 H 555.289 -0.748492 0.0725487 0
M  V30 6047 H 557.26 -2.76374 1.12516 0
M  V30 6048 C 556.009 -3.43828 -0.517449 0
M  V30 6049 H 555.332 -3.99532 0.146392 0
M  V30 6050 H 556.772 -4.1474 -0.88128 0
M  V30 6051 C 555.231 -2.90786 -1.70133 0
M  V30 6052 O 555.761 -2.88 -2.80034 0
M  V30 6053 N 553.967 -2.4723 -1.52728 0
M  V30 6054 H 553.514 -2.49695 -0.633257 0
M  V30 6055 H 553.472 -2.12094 -2.32085 0
M  V30 6056 N 557.244 -0.608902 -1.45362 0
M  V30 6057 C 558.493 -0.10218 -2.01441 0
M  V30 6058 C 558.806 1.27546 -1.48295 0
M  V30 6059 O 560.012 1.87498 -1.96359 0
M  V30 6060 C 558.468 -0.131985 -3.59658 0
M  V30 6061 C 558.076 -1.50956 -4.21801 0
M  V30 6062 C 559.82 0.319427 -4.23296 0
M  V30 6063 C 557.727 -1.49568 -5.72174 0
M  V30 6064 H 556.657 -0.0344314 -0.753213 0
M  V30 6065 H 559.308 -0.764426 -1.6682 0
M  V30 6066 H 557.69 0.596939 -3.91475 0
M  V30 6067 H 558.864 -2.26029 -4.01556 0
M  V30 6068 H 557.179 -1.90318 -3.70362 0
M  V30 6069 H 559.776 0.349013 -5.3356 0
M  V30 6070 H 560.119 1.34237 -3.94064 0
M  V30 6071 H 560.652 -0.356273 -3.96201 0
M  V30 6072 H 557.391 -2.49626 -6.06108 0
M  V30 6073 H 556.911 -0.787542 -5.94607 0
M  V30 6074 H 558.59 -1.21989 -6.35396 0
M  V30 6075 N 558.722 1.53707 -0.348139 0
M  V30 6076 C 559.685 2.23812 0.494058 0
M  V30 6077 C 560.685 1.23989 1.02388 0
M  V30 6078 O 561.875 1.48395 0.912396 0
M  V30 6079 C 559.007 2.96133 1.68872 0
M  V30 6080 H 560.2 2.99663 -0.119141 0
M  V30 6081 H 557.753 1.55983 -0.0995539 0
M  V30 6082 H 558.488 2.24481 2.34049 0
M  V30 6083 H 558.273 3.69357 1.31596 0
M  V30 6084 H 559.763 3.49475 2.28597 0
M  V30 6085 N 560.2 0.0768682 1.57412 0
M  V30 6086 C 561.447 -0.591085 1.93681 0
M  V30 6087 C 561.775 -1.69311 0.957286 0
M  V30 6088 O 561.03 -1.95682 -0.0262428 0
M  V30 6089 C 561.329 -1.20268 3.36557 0
M  V30 6090 C 560.995 -0.226286 4.50332 0
M  V30 6091 C 559.657 0.0423142 4.81181 0
M  V30 6092 C 562.009 0.441415 5.19327 0
M  V30 6093 C 559.337 0.985616 5.78362 0
M  V30 6094 C 561.689 1.37307 6.17519 0
M  V30 6095 C 560.353 1.65009 6.46783 0
M  V30 6096 H 559.623 -0.216293 0.70873 0
M  V30 6097 H 562.27 0.148824 1.90921 0
M  V30 6098 H 560.575 -2.01844 3.35807 0
M  V30 6099 H 562.272 -1.72688 3.61911 0
M  V30 6100 H 558.862 -0.445821 4.26275 0
M  V30 6101 H 563.046 0.247023 4.95685 0
M  V30 6102 H 558.302 1.20743 5.99359 0
M  V30 6103 H 562.476 1.89637 6.70083 0
M  V30 6104 H 560.103 2.38263 7.21897 0
M  V30 6105 N 561.678 -1.56367 -0.196722 0
M  V30 6106 C 562.926 -1.80172 -0.915554 0
M  V30 6107 C 563.247 -0.649649 -1.8386 0
M  V30 6108 O 562.517 0.332111 -1.93064 0
M  V30 6109 H 561.097 -0.664592 -0.341067 0
M  V30 6110 H 563.759 -1.93844 -0.202622 0
M  V30 6111 H 562.855 -2.7327 -1.50764 0
M  V30 6112 N 563.156 0.464375 -1.50603 0
M  V30 6113 C 564.381 1.24372 -1.65971 0
M  V30 6114 C 564.806 1.84901 -0.345453 0
M  V30 6115 O 564.164 1.67596 0.691457 0
M  V30 6116 C 564.212 2.32331 -2.7578 0
M  V30 6117 O 563.316 3.37146 -2.375 0
M  V30 6118 H 562.657 0.365604 -0.554283 0
M  V30 6119 H 565.187 0.55183 -1.97018 0
M  V30 6120 H 565.197 2.77539 -2.99059 0
M  V30 6121 H 563.872 1.87648 -3.71162 0
M  V30 6122 H 562.449 2.97602 -2.24694 0
M  V30 6123 N 564.634 1.40294 0.718013 0
M  V30 6124 C 565.882 1.38167 1.47494 0
M  V30 6125 C 566.203 -0.01607 1.94993 0
M  V30 6126 O 565.473 -0.970396 1.70177 0
M  V30 6127 H 564.053 0.508505 0.547203 0
M  V30 6128 H 566.715 1.75324 0.851322 0
M  V30 6129 H 565.811 2.05503 2.34894 0
M  V30 6130 N 566.112 -0.949982 1.2575 0
M  V30 6131 C 567.36 -1.6918 1.10555 0
M  V30 6132 C 567.681 -1.91773 -0.353298 0
M  V30 6133 O 566.951 -1.50814 -1.25027 0
M  V30 6134 H 565.531 -0.626952 0.406129 0
M  V30 6135 H 568.193 -1.1419 1.57945 0
M  V30 6136 H 567.289 -2.66915 1.61749 0
M  V30 6137 N 567.59 -1.07411 -1.15328 0
M  V30 6138 C 568.838 -0.796073 -1.85761 0
M  V30 6139 C 569.159 0.679864 -1.82764 0
M  V30 6140 O 568.429 1.49242 -1.269 0
M  V30 6141 H 567.009 -0.291495 -0.687779 0
M  V30 6142 H 569.671 -1.35799 -1.39802 0
M  V30 6143 H 568.767 -1.13114 -2.90881 0
M  V30 6144 N 569.068 1.32177 -0.85831 0
M  V30 6145 C 569.998 2.31282 -0.321041 0
M  V30 6146 C 570.979 1.59841 0.581786 0
M  V30 6147 O 572.164 1.87619 0.501262 0
M  V30 6148 C 569.294 3.4385 0.48832 0
M  V30 6149 C 568.248 4.26799 -0.320391 0
M  V30 6150 C 567.574 5.31164 0.613934 0
M  V30 6151 C 568.874 4.98829 -1.54813 0
M  V30 6152 H 570.568 2.76469 -1.14915 0
M  V30 6153 H 568.114 1.32916 -0.554028 0
M  V30 6154 H 570.067 4.12224 0.874626 0
M  V30 6155 H 568.791 2.97401 1.34983 0
M  V30 6156 H 567.45 3.60077 -0.688497 0
M  V30 6157 H 567.098 4.80967 1.47239 0
M  V30 6158 H 566.798 5.8755 0.0768097 0
M  V30 6159 H 568.322 6.024 0.997336 0
M  V30 6160 H 569.736 5.59864 -1.23392 0
M  V30 6161 H 568.133 5.64957 -2.02346 0
M  V30 6162 H 569.203 4.26483 -2.30739 0
M  V30 6163 N 570.547 0.616602 1.45037 0
M  V30 6164 C 571.477 -0.0840787 2.33349 0
M  V30 6165 C 572.458 -0.849641 1.4736 0
M  V30 6166 O 573.643 -0.818407 1.76113 0
M  V30 6167 C 570.773 -1.07604 3.3021 0
M  V30 6168 C 569.727 -0.423096 4.25904 0
M  V30 6169 C 569.053 -1.52394 5.12523 0
M  V30 6170 C 570.353 0.661457 5.18095 0
M  V30 6171 H 572.047 0.653333 2.92185 0
M  V30 6172 H 569.593 0.315634 1.40498 0
M  V30 6173 H 571.546 -1.57485 3.90866 0
M  V30 6174 H 570.27 -1.84416 2.69552 0
M  V30 6175 H 568.929 0.05493 3.66559 0
M  V30 6176 H 568.577 -2.28257 4.48227 0
M  V30 6177 H 568.277 -1.09251 5.77354 0
M  V30 6178 H 569.801 -2.02485 5.76049 0
M  V30 6179 H 571.215 0.246353 5.7277 0
M  V30 6180 H 569.612 1.01517 5.91451 0
M  V30 6181 H 570.682 1.53446 4.59981 0
M  V30 6182 N 572.025 -1.5352 0.356285 0
M  V30 6183 C 572.957 -2.23009 -0.529127 0
M  V30 6184 C 573.97 -1.241 -1.05371 0
M  V30 6185 O 575.159 -1.50379 -0.961679 0
M  V30 6186 C 572.259 -2.90685 -1.74229 0
M  V30 6187 C 571.432 -4.16019 -1.35081 0
M  V30 6188 C 570.491 -4.66989 -2.42502 0
M  V30 6189 O 569.517 -5.30895 -2.05279 0
M  V30 6190 N 570.719 -4.44006 -3.7395 0
M  V30 6191 H 573.484 -2.99627 0.0660501 0
M  V30 6192 H 571.045 -1.60885 0.181014 0
M  V30 6193 H 573.037 -3.21695 -2.4555 0
M  V30 6194 H 571.607 -2.17575 -2.24454 0
M  V30 6195 H 570.827 -3.91414 -0.467833 0
M  V30 6196 H 572.115 -4.9752 -1.06542 0
M  V30 6197 H 571.513 -3.92924 -4.06973 0
M  V30 6198 H 570.07 -4.7959 -4.41403 0
M  V30 6199 N 573.503 -0.0852151 -1.57369 0
M  V30 6200 C 574.45 0.877268 -2.13478 0
M  V30 6201 C 575.42 1.28642 -1.05073 0
M  V30 6202 O 576.605 1.36992 -1.32808 0
M  V30 6203 C 573.745 2.13464 -2.71159 0
M  V30 6204 C 572.858 1.77691 -3.93764 0
M  V30 6205 C 571.993 2.98139 -4.39643 0
M  V30 6206 C 571.032 2.58447 -5.54862 0
M  V30 6207 N 570.169 3.71698 -5.95639 0
M  V30 6208 H 575.009 0.391933 -2.95411 0
M  V30 6209 H 572.546 0.181796 -1.45972 0
M  V30 6210 H 574.504 2.87086 -3.02717 0
M  V30 6211 H 573.134 2.59514 -1.91969 0
M  V30 6212 H 572.186 0.940768 -3.68583 0
M  V30 6213 H 573.498 1.44497 -4.77412 0
M  V30 6214 H 572.652 3.80026 -4.72933 0
M  V30 6215 H 571.391 3.34536 -3.54876 0
M  V30 6216 H 570.396 1.74984 -5.21211 0
M  V30 6217 H 571.621 2.23205 -6.41371 0
M  V30 6218 H 569.567 4.07831 -5.13819 0
M  V30 6219 H 569.484 3.42317 -6.74059 0
M  V30 6220 H 570.752 4.54123 -6.33555 0
M  V30 6221 N 574.981 1.5647 0.188427 0
M  V30 6222 C 575.911 1.98101 1.23606 0
M  V30 6223 C 576.892 0.853961 1.47111 0
M  V30 6224 O 578.077 1.11879 1.58735 0
M  V30 6225 C 575.207 2.32624 2.57882 0
M  V30 6226 C 574.161 3.48129 2.48978 0
M  V30 6227 C 573.487 3.68347 3.87588 0
M  V30 6228 C 574.787 4.82112 2.00911 0
M  V30 6229 H 576.481 2.85864 0.890068 0
M  V30 6230 H 574.027 1.37532 0.426714 0
M  V30 6231 H 575.98 2.60343 3.3136 0
M  V30 6232 H 574.704 1.41751 2.94235 0
M  V30 6233 H 573.363 3.20511 1.77956 0
M  V30 6234 H 573.011 2.74793 4.21305 0
M  V30 6235 H 572.711 4.46055 3.82503 0
M  V30 6236 H 574.235 3.98449 4.62678 0
M  V30 6237 H 575.649 5.08819 2.64151 0
M  V30 6238 H 574.046 5.63337 2.06814 0
M  V30 6239 H 575.116 4.75249 0.96262 0
M  V30 6240 N 576.459 -0.456382 1.50847 0
M  V30 6241 C 577.687 -1.23026 1.66349 0
M  V30 6242 C 578.102 -1.85473 0.352868 0
M  V30 6243 O 577.459 -1.69885 -0.666739 0
M  V30 6244 C 577.51 -2.32827 2.76539 0
M  V30 6245 O 577.231 -1.72938 4.02522 0
M  V30 6246 C 578.732 -3.23448 3.03144 0
M  V30 6247 H 575.952 -0.371527 0.558756 0
M  V30 6248 H 578.496 -0.543082 1.97157 0
M  V30 6249 H 576.651 -2.97294 2.48384 0
M  V30 6250 H 577.065 -2.45357 4.63573 0
M  V30 6251 H 578.539 -3.96669 3.83872 0
M  V30 6252 H 579.016 -3.83094 2.14793 0
M  V30 6253 H 579.622 -2.64702 3.32886 0
M  V30 6254 N 577.937 -1.40673 -0.710563 0
M  V30 6255 C 579.353 -1.22813 -1.01928 0
M  V30 6256 C 579.553 -0.10687 -2.01216 0
M  V30 6257 O 578.609 0.533614 -2.46797 0
M  V30 6258 C 579.922 -2.57178 -1.5582 0
M  V30 6259 C 581.47 -2.64233 -1.67779 0
M  V30 6260 C 581.945 -3.98879 -2.25076 0
M  V30 6261 N 583.436 -4.00647 -2.32456 0
M  V30 6262 C 584.171 -5.01621 -2.77784 0
M  V30 6263 N 583.667 -6.12989 -3.22826 0
M  V30 6264 N 585.46 -4.88988 -2.77213 0
M  V30 6265 H 577.611 -2.12335 -0.05253 0
M  V30 6266 H 579.874 -0.9441 -0.085898 0
M  V30 6267 H 579.58 -3.39903 -0.903249 0
M  V30 6268 H 579.454 -2.78618 -2.54267 0
M  V30 6269 H 581.841 -1.81876 -2.3239 0
M  V30 6270 H 581.922 -2.46619 -0.679178 0
M  V30 6271 H 581.566 -4.81678 -1.61086 0
M  V30 6272 H 581.496 -4.13826 -3.25661 0
M  V30 6273 H 583.987 -3.20231 -2.0065 0
M  V30 6274 H 584.3 -6.85921 -3.55995 0
M  V30 6275 H 582.645 -6.16547 -3.20773 0
M  V30 6276 H 585.836 -4.01075 -2.41363 0
M  V30 6277 H 586.009 -5.67822 -3.12221 0
M  V30 6278 N 579.415 0.9433 -1.26252 0
M  V30 6279 C 580.692 1.66639 -1.02424 0
M  V30 6280 C 581.072 2.06335 0.446006 0
M  V30 6281 O 580.42 1.78551 1.42589 0
M  V30 6282 C 580.63 2.88019 -1.97094 0
M  V30 6283 C 581.978 3.59718 -2.25584 0
M  V30 6284 O 583.002 2.9812 -1.94943 0
M  V30 6285 O 581.861 4.7066 -2.77743 0
M  V30 6286 H 578.955 0.729643 -0.389294 0
M  V30 6287 H 581.501 0.995218 -1.37454 0
M  V30 6288 H 580.273 2.5556 -2.96319 0
M  V30 6289 H 579.896 3.62863 -1.62532 0
M  V30 6290 N 580.893 1.08022 1.14757 0
M  V30 6291 C 581.823 0.728248 2.21853 0
M  V30 6292 C 582.804 -0.287486 1.67653 0
M  V30 6293 O 583.989 -0.158727 1.9355 0
M  V30 6294 C 581.119 0.132549 3.47047 0
M  V30 6295 C 580.073 1.07619 4.14249 0
M  V30 6296 C 579.399 0.342907 5.33599 0
M  V30 6297 C 580.699 2.41268 4.63235 0
M  V30 6298 H 582.393 1.62365 2.51551 0
M  V30 6299 H 579.939 0.782125 1.20908 0
M  V30 6300 H 581.892 -0.125665 4.21213 0
M  V30 6301 H 580.616 -0.797971 3.16702 0
M  V30 6302 H 579.275 1.31944 3.42033 0
M  V30 6303 H 578.923 -0.59129 4.99513 0
M  V30 6304 H 578.623 0.971955 5.79506 0
M  V30 6305 H 580.147 0.0926538 6.1053 0
M  V30 6306 H 581.561 2.21232 5.28894 0
M  V30 6307 H 579.958 2.9983 5.19829 0
M  V30 6308 H 581.028 3.03079 3.78512 0
M  V30 6309 N 582.371 -1.3172 0.865308 0
M  V30 6310 C 583.301 -2.31109 0.333302 0
M  V30 6311 C 584.282 -1.60148 -0.573301 0
M  V30 6312 O 585.467 -1.87882 -0.491305 0
M  V30 6313 C 582.597 -3.44104 -0.470078 0
M  V30 6314 C 581.551 -4.26623 0.343021 0
M  V30 6315 C 580.877 -5.31482 -0.585756 0
M  V30 6316 C 582.177 -4.98001 1.57456 0
M  V30 6317 H 583.871 -2.75855 1.1638 0
M  V30 6318 H 581.417 -1.3262 0.561069 0
M  V30 6319 H 583.37 -4.12682 -0.852752 0
M  V30 6320 H 582.094 -2.98112 -1.33404 0
M  V30 6321 H 580.753 -3.59707 0.707583 0
M  V30 6322 H 580.401 -4.81741 -1.44686 0
M  V30 6323 H 580.101 -5.87582 -0.0456494 0
M  V30 6324 H 581.625 -6.0292 -0.965375 0
M  V30 6325 H 583.039 -5.59201 1.26359 0
M  V30 6326 H 581.436 -5.63876 2.05339 0
M  V30 6327 H 582.506 -4.25253 2.32997 0
M  V30 6328 N 583.85 -0.624285 -1.44708 0
M  V30 6329 C 584.798 0.0969952 -2.32398 0
M  V30 6330 C 585.792 0.842762 -1.46949 0
M  V30 6331 O 586.998 0.756436 -1.63334 0
M  V30 6332 H 583.373 0.0501306 -0.750327 0
M  V30 6333 H 585.344 -0.660767 -2.90992 0
M  V30 6334 C 584.093 1.06967 -3.30837 0
M  V30 6335 H 583.416 0.505242 -3.96595 0
M  V30 6336 H 584.856 1.54397 -3.94889 0
M  V30 6337 C 583.315 2.15153 -2.5925 0
M  V30 6338 O 583.845 3.23139 -2.3863 0
M  V30 6339 N 582.051 1.90898 -2.19103 0
M  V30 6340 H 581.598 1.03086 -2.36074 0
M  V30 6341 H 581.556 2.63485 -1.71531 0
M  V30 6342 N 585.328 1.53329 -0.364422 0
M  V30 6343 C 586.568 2.0315 0.22572 0
M  V30 6344 C 586.932 1.24589 1.46087 0
M  V30 6345 O 588.133 1.64411 2.12656 0
M  V30 6346 C 586.404 3.53718 0.511663 0
M  V30 6347 S 587.963 4.25412 1.07564 0
M  V30 6348 H 584.781 0.70795 0.0657843 0
M  V30 6349 H 587.383 1.88811 -0.507019 0
M  V30 6350 H 586.087 4.08497 -0.394784 0
M  V30 6351 H 585.618 3.72217 1.27351 0
M  V30 6352 H 587.633 4.36486 2.35997 0
M  V30 6353 N 586.806 0.0935595 1.57322 0
M  V30 6354 C 588.031 -0.582324 1.99057 0
M  V30 6355 C 588.456 -1.61025 0.972242 0
M  V30 6356 O 587.814 -1.81202 -0.0594622 0
M  V30 6357 C 587.862 -1.20799 3.39765 0
M  V30 6358 O 586.966 -2.32382 3.40694 0
M  V30 6359 H 586.307 -0.147884 0.647323 0
M  V30 6360 H 588.837 0.174516 2.03854 0
M  V30 6361 H 588.847 -1.54966 3.77425 0
M  V30 6362 H 587.522 -0.454914 4.13405 0
M  V30 6363 H 586.099 -1.99845 3.14827 0
M  V30 6364 N 588.284 -1.56567 -0.180126 0
M  V30 6365 C 589.531 -1.81492 -0.898167 0
M  V30 6366 C 589.859 -0.669225 -1.82624 0
M  V30 6367 O 589.114 0.344096 -1.92651 0
M  V30 6368 C 589.413 -3.1252 -1.73395 0
M  V30 6369 C 589.079 -4.40658 -0.955567 0
M  V30 6370 C 587.741 -4.75465 -0.740707 0
M  V30 6371 C 590.093 -5.19593 -0.408948 0
M  V30 6372 C 587.421 -5.86691 0.0320128 0
M  V30 6373 C 589.773 -6.31627 0.350638 0
M  V30 6374 C 588.437 -6.65007 0.576378 0
M  V30 6375 H 587.707 -0.664125 -0.328662 0
M  V30 6376 H 590.354 -1.908 -0.163616 0
M  V30 6377 H 588.659 -2.98515 -2.53763 0
M  V30 6378 H 590.356 -3.29013 -2.29241 0
M  V30 6379 H 586.946 -4.13352 -1.13306 0
M  V30 6380 H 591.13 -4.93104 -0.562307 0
M  V30 6381 H 586.386 -6.11016 0.216735 0
M  V30 6382 H 590.56 -6.92001 0.781497 0
M  V30 6383 H 588.187 -7.51033 1.17703 0
M  V30 6384 N 589.762 0.448376 -1.51087 0
M  V30 6385 C 590.709 1.54341 -1.71603 0
M  V30 6386 C 591.679 1.56463 -0.557536 0
M  V30 6387 O 592.864 1.73644 -0.79072 0
M  V30 6388 C 590.004 2.92148 -1.83695 0
M  V30 6389 C 589.117 2.99639 -3.11192 0
M  V30 6390 C 588.252 4.285 -3.13944 0
M  V30 6391 C 587.291 4.29819 -4.35801 0
M  V30 6392 N 586.428 5.50186 -4.36164 0
M  V30 6393 H 591.268 1.36151 -2.65079 0
M  V30 6394 H 588.805 0.661585 -1.31383 0
M  V30 6395 H 590.763 3.72093 -1.88687 0
M  V30 6396 H 589.393 3.0892 -0.936374 0
M  V30 6397 H 588.445 2.12425 -3.15562 0
M  V30 6398 H 589.757 2.96474 -4.01129 0
M  V30 6399 H 588.911 5.16811 -3.17791 0
M  V30 6400 H 587.65 4.34307 -2.21876 0
M  V30 6401 H 586.655 3.39902 -4.32142 0
M  V30 6402 H 587.88 4.25685 -5.29121 0
M  V30 6403 H 585.826 5.56735 -3.46961 0
M  V30 6404 H 585.743 5.48856 -5.19897 0
M  V30 6405 H 587.011 6.40559 -4.44189 0
M  V30 6406 N 591.24 1.41047 0.703093 0
M  V30 6407 C 592.48 1.41461 1.4754 0
M  V30 6408 C 592.844 0.0199013 1.9199 0
M  V30 6409 O 594.045 -0.101138 2.6861 0
M  V30 6410 C 592.316 2.38703 2.66 0
M  V30 6411 S 593.875 2.57582 3.55242 0
M  V30 6412 H 590.693 0.501226 0.504275 0
M  V30 6413 H 593.295 1.77422 0.821074 0
M  V30 6414 H 591.999 3.3885 2.31536 0
M  V30 6415 H 591.53 2.04069 3.36333 0
M  V30 6416 H 593.545 1.83758 4.6092 0
M  V30 6417 N 592.718 -0.936591 1.26751 0
M  V30 6418 C 593.943 -1.72288 1.15462 0
M  V30 6419 C 594.368 -1.85915 -0.285887 0
M  V30 6420 O 593.726 -1.35272 -1.20711 0
M  V30 6421 C 593.774 -3.10503 1.83359 0
M  V30 6422 O 592.878 -3.96745 1.1255 0
M  V30 6423 H 592.219 -0.52843 0.402067 0
M  V30 6424 H 594.749 -1.17271 1.67656 0
M  V30 6425 H 594.759 -3.60867 1.90365 0
M  V30 6426 H 593.434 -2.99901 2.88153 0
M  V30 6427 H 592.011 -3.55191 1.13551 0
M  V30 6428 N 594.196 -1.08629 -1.14182 0
M  V30 6429 C 595.426 -0.837673 -1.88856 0
M  V30 6430 C 595.834 0.614024 -1.78959 0
M  V30 6431 O 595.177 1.43384 -1.14833 0
M  V30 6432 C 595.239 -1.18355 -3.39459 0
M  V30 6433 C 594.903 -2.63848 -3.73139 0
M  V30 6434 C 595.9 -3.62099 -3.73069 0
M  V30 6435 C 593.585 -2.99761 -4.03049 0
M  V30 6436 C 595.579 -4.94292 -4.02435 0
M  V30 6437 C 593.266 -4.32147 -4.32078 0
M  V30 6438 C 594.264 -5.29223 -4.31755 0
M  V30 6439 O 593.952 -6.59229 -4.60079 0
M  V30 6440 H 593.684 -0.301609 -0.604986 0
M  V30 6441 H 596.238 -1.44961 -1.45518 0
M  V30 6442 H 594.468 -0.514628 -3.8326 0
M  V30 6443 H 596.157 -0.915391 -3.95443 0
M  V30 6444 H 596.923 -3.35698 -3.50046 0
M  V30 6445 H 592.802 -2.2484 -4.02453 0
M  V30 6446 H 596.346 -5.70055 -4.02098 0
M  V30 6447 H 592.243 -4.58296 -4.54571 0
M  V30 6448 H 593.011 -6.64578 -4.77785 0
M  V30 6449 N 595.674 1.31259 -0.872281 0
M  V30 6450 C 596.92 1.96913 -0.485083 0
M  V30 6451 C 597.253 1.68774 0.960667 0
M  V30 6452 O 596.528 0.985495 1.67685 0
M  V30 6453 C 596.811 3.52299 -0.745502 0
M  V30 6454 C 596.664 3.90002 -2.24095 0
M  V30 6455 C 597.983 4.39582 -0.213516 0
M  V30 6456 H 595.102 0.715252 -0.177716 0
M  V30 6457 H 597.744 1.55347 -1.09395 0
M  V30 6458 H 595.894 3.87835 -0.227276 0
M  V30 6459 H 597.566 3.64555 -2.82661 0
M  V30 6460 H 595.809 3.38526 -2.71261 0
M  V30 6461 H 596.48 4.98352 -2.37381 0
M  V30 6462 H 598.956 4.10882 -0.656902 0
M  V30 6463 H 597.832 5.47251 -0.42516 0
M  V30 6464 H 598.093 4.33158 0.884666 0
M  V30 6465 N 597.152 0.631951 1.44375 0
M  V30 6466 C 598.398 0.13697 2.02337 0
M  V30 6467 C 598.731 -1.23826 1.49602 0
M  V30 6468 O 598.006 -1.8221 0.680415 0
M  V30 6469 C 598.289 0.124536 3.59885 0
M  V30 6470 C 598.142 1.53217 4.229 0
M  V30 6471 C 599.461 -0.550481 4.36644 0
M  V30 6472 H 596.58 0.051247 0.735216 0
M  V30 6473 H 599.222 0.808581 1.71936 0
M  V30 6474 H 597.372 -0.44737 3.85916 0
M  V30 6475 H 599.044 2.15303 4.07973 0
M  V30 6476 H 597.287 2.0858 3.80364 0
M  V30 6477 H 597.958 1.4755 5.31914 0
M  V30 6478 H 600.434 -0.0641154 4.16051 0
M  V30 6479 H 599.31 -0.528371 5.46351 0
M  V30 6480 H 599.571 -1.62097 4.11311 0
M  V30 6481 N 598.631 -1.53133 0.372548 0
M  V30 6482 C 599.859 -2.05774 -0.215515 0
M  V30 6483 C 600.274 -1.24555 -1.41886 0
M  V30 6484 O 599.631 -0.287951 -1.80214 0
M  V30 6485 C 599.682 -3.5645 -0.602161 0
M  V30 6486 O 599.403 -4.34591 0.553359 0
M  V30 6487 C 600.904 -4.25374 -1.24787 0
M  V30 6488 H 598.124 -0.670009 -0.0364529 0
M  V30 6489 H 600.668 -1.97434 0.532934 0
M  V30 6490 H 598.823 -3.64918 -1.30052 0
M  V30 6491 H 599.237 -5.23954 0.239336 0
M  V30 6492 H 600.711 -5.32097 -1.46891 0
M  V30 6493 H 601.188 -3.79531 -2.21026 0
M  V30 6494 H 601.794 -4.21177 -0.590752 0
M  V30 6495 N 600.109 -0.101901 -1.5727 0
M  V30 6496 C 601.057 0.872034 -2.15635 0
M  V30 6497 C 602.051 1.28742 -1.10099 0
M  V30 6498 O 603.257 1.26116 -1.28432 0
M  V30 6499 H 599.632 0.299269 -0.689886 0
M  V30 6500 H 601.603 0.355137 -2.96279 0
M  V30 6501 C 600.352 2.11886 -2.7568 0
M  V30 6502 H 599.675 1.80813 -3.56576 0
M  V30 6503 H 601.115 2.78077 -3.20077 0
M  V30 6504 C 599.574 2.89739 -1.7191 0
M  V30 6505 O 600.104 3.84522 -1.16213 0
M  V30 6506 N 598.31 2.53407 -1.42245 0
M  V30 6507 H 597.857 1.76398 -1.87727 0
M  V30 6508 H 597.815 3.05795 -0.730529 0
M  V30 6509 N 601.587 1.56661 0.17182 0
M  V30 6510 C 602.835 1.81606 0.886774 0
M  V30 6511 C 603.156 0.678818 1.82803 0
M  V30 6512 O 602.426 -0.301354 1.93568 0
M  V30 6513 H 601.006 0.669934 0.330451 0
M  V30 6514 H 603.668 1.94142 0.171757 0
M  V30 6515 H 602.764 2.75634 1.46398 0
M  V30 6516 N 603.065 -0.440357 1.51323 0
M  V30 6517 C 603.995 -1.54174 1.75364 0
M  V30 6518 C 604.976 -1.59039 0.603375 0
M  V30 6519 O 606.161 -1.74815 0.845774 0
M  V30 6520 C 603.291 -2.92277 1.87593 0
M  V30 6521 C 602.245 -3.02274 3.03009 0
M  V30 6522 C 601.571 -4.42327 3.00418 0
M  V30 6523 C 602.871 -2.76634 4.43024 0
M  V30 6524 H 604.565 -1.34307 2.67585 0
M  V30 6525 H 602.111 -0.644678 1.28763 0
M  V30 6526 H 604.064 -3.69284 2.02995 0
M  V30 6527 H 602.788 -3.13369 0.920179 0
M  V30 6528 H 601.447 -2.27706 2.87307 0
M  V30 6529 H 601.095 -4.60382 2.02626 0
M  V30 6530 H 600.795 -4.49946 3.77918 0
M  V30 6531 H 602.319 -5.21312 3.17909 0
M  V30 6532 H 603.733 -3.43376 4.59093 0
M  V30 6533 H 602.13 -2.95666 5.22208 0
M  V30 6534 H 603.2 -1.72262 4.5327 0
M  V30 6535 N 604.543 -1.41418 -0.695603 0
M  V30 6536 C 605.791 -1.40496 -1.45277 0
M  V30 6537 C 606.112 -0.0149538 -1.94994 0
M  V30 6538 O 605.382 0.9432 -1.71699 0
M  V30 6539 H 603.962 -0.517147 -0.539044 0
M  V30 6540 H 606.624 -1.76656 -0.823321 0
M  V30 6541 H 605.72 -2.09214 -2.31595 0
M  V30 6542 N 606.021 0.929856 -1.27246 0
M  V30 6543 C 607.27 1.67182 -1.12842 0
M  V30 6544 C 607.583 1.9287 0.325666 0
M  V30 6545 O 608.789 2.64999 0.590572 0
M  V30 6546 C 607.245 3.01097 -1.97151 0
M  V30 6547 C 606.853 2.83115 -3.47203 0
M  V30 6548 C 608.597 3.78907 -1.91389 0
M  V30 6549 C 606.504 4.12573 -4.23719 0
M  V30 6550 H 605.434 0.627064 -0.418697 0
M  V30 6551 H 608.085 1.0332 -1.51649 0
M  V30 6552 H 606.467 3.66004 -1.51186 0
M  V30 6553 H 607.641 2.26989 -4.01015 0
M  V30 6554 H 605.956 2.18736 -3.54321 0
M  V30 6555 H 608.553 4.74837 -2.45834 0
M  V30 6556 H 608.896 4.0674 -0.887047 0
M  V30 6557 H 609.429 3.20794 -2.35237 0
M  V30 6558 H 606.168 3.8992 -5.26918 0
M  V30 6559 H 605.688 4.68371 -3.74685 0
M  V30 6560 H 607.367 4.8095 -4.32777 0
M  V30 6561 N 607.499 1.09233 1.13605 0
M  V30 6562 C 608.447 0.724572 2.21027 0
M  V30 6563 C 609.441 -0.273595 1.67176 0
M  V30 6564 O 610.647 -0.135266 1.79491 0
M  V30 6565 H 607.022 0.216319 0.720215 0
M  V30 6566 H 608.993 1.63975 2.49309 0
M  V30 6567 C 607.742 0.159126 3.47336 0
M  V30 6568 H 607.065 0.918387 3.89109 0
M  V30 6569 H 608.505 -0.0602851 4.23957 0
M  V30 6570 C 606.964 -1.10514 3.18258 0
M  V30 6571 O 607.494 -2.18869 3.36837 0
M  V30 6572 N 605.7 -1.01886 2.72154 0
M  V30 6573 H 605.247 -0.137027 2.57235 0
M  V30 6574 H 605.205 -1.8655 2.53074 0
M  V30 6575 N 608.977 -1.30795 0.87923 0
M  V30 6576 C 610.223 -1.96653 0.495519 0
M  V30 6577 C 610.556 -1.69282 -0.951703 0
M  V30 6578 O 609.831 -0.994374 -1.6716 0
M  V30 6579 C 610.114 -3.51898 0.764174 0
M  V30 6580 C 609.967 -3.88808 2.2616 0
M  V30 6581 C 611.286 -4.39462 0.236825 0
M  V30 6582 H 608.405 -0.7143 0.181507 0
M  V30 6583 H 611.047 -1.54765 1.10217 0
M  V30 6584 H 609.197 -3.87709 0.247841 0
M  V30 6585 H 610.869 -3.63051 2.8459 0
M  V30 6586 H 609.112 -3.37082 2.73053 0
M  V30 6587 H 609.783 -4.97086 2.4002 0
M  V30 6588 H 612.259 -4.10528 0.678683 0
M  V30 6589 H 611.135 -5.47018 0.454176 0
M  V30 6590 H 611.396 -4.33621 -0.861683 0
M  V30 6591 N 610.455 -0.639598 -1.44038 0
M  V30 6592 C 611.702 -0.14748 -2.01962 0
M  V30 6593 C 612.03 1.23372 -1.50365 0
M  V30 6594 O 611.285 1.8345 -0.681501 0
M  V30 6595 C 611.584 -0.0925348 -3.5728 0
M  V30 6596 C 611.25 -1.41365 -4.28167 0
M  V30 6597 C 609.912 -1.77545 -4.47248 0
M  V30 6598 C 612.264 -2.2853 -4.68427 0
M  V30 6599 C 609.592 -3.00583 -5.03852 0
M  V30 6600 C 611.944 -3.50846 -5.26393 0
M  V30 6601 C 610.608 -3.8724 -5.43692 0
M  V30 6602 H 609.878 -0.0539666 -0.739032 0
M  V30 6603 H 612.525 -0.827599 -1.72694 0
M  V30 6604 H 610.83 0.670987 -3.86012 0
M  V30 6605 H 612.527 0.304891 -3.99839 0
M  V30 6606 H 609.117 -1.1221 -4.13651 0
M  V30 6607 H 613.301 -2.0187 -4.5339 0
M  V30 6608 H 608.557 -3.28846 -5.15432 0
M  V30 6609 H 612.731 -4.18616 -5.56537 0
M  V30 6610 H 610.358 -4.8266 -5.87319 0
M  V30 6611 N 611.933 1.52934 -0.380664 0
M  V30 6612 C 612.88 2.26197 0.458641 0
M  V30 6613 C 613.85 1.27462 1.06502 0
M  V30 6614 O 615.035 1.56274 1.09467 0
M  V30 6615 C 612.175 3.06571 1.58456 0
M  V30 6616 C 611.288 4.20222 1.00189 0
M  V30 6617 C 610.423 4.88007 2.09815 0
M  V30 6618 C 609.462 5.93665 1.49092 0
M  V30 6619 N 608.599 6.55081 2.52613 0
M  V30 6620 H 613.439 2.975 -0.172595 0
M  V30 6621 H 610.976 1.4678 -0.0969426 0
M  V30 6622 H 612.934 3.51455 2.24801 0
M  V30 6623 H 611.564 2.37494 2.18624 0
M  V30 6624 H 610.616 3.79714 0.228292 0
M  V30 6625 H 611.928 4.96102 0.518064 0
M  V30 6626 H 611.082 5.36151 2.83948 0
M  V30 6627 H 609.821 4.11632 2.61555 0
M  V30 6628 H 608.826 5.44868 0.7348 0
M  V30 6629 H 610.051 6.71969 0.981582 0
M  V30 6630 H 607.997 5.8155 3.03538 0
M  V30 6631 H 607.914 7.26548 2.08961 0
M  V30 6632 H 609.182 7.07871 3.26402 0
M  V30 6633 N 613.412 0.11024 1.57214 0
M  V30 6634 C 614.689 -0.592956 1.86396 0
M  V30 6635 C 615.069 -1.85379 1.00985 0
M  V30 6636 O 614.417 -2.28337 0.0863592 0
M  V30 6637 C 614.627 -0.893816 3.3736 0
M  V30 6638 C 615.975 -1.25069 4.05762 0
M  V30 6639 O 616.999 -0.984356 3.42329 0
M  V30 6640 O 615.858 -1.75017 5.17718 0
M  V30 6641 H 612.952 -0.29828 0.771335 0
M  V30 6642 H 615.498 0.144083 1.69087 0
M  V30 6643 H 614.27 2.6031e-05 3.913 0
M  V30 6644 H 613.893 -1.68631 3.60068 0
M  V30 6645 N 614.89 -1.56749 -0.16351 0
M  V30 6646 C 616.301 -1.72039 -0.725216 0
M  V30 6647 C 616.652 -0.72202 -1.82432 0
M  V30 6648 O 615.777 0.114942 -2.16095 0
M  V30 6649 C 616.372 -3.11932 -1.32227 0
M  V30 6650 C 614.931 -3.28879 -1.83072 0
M  V30 6651 C 614.078 -2.67984 -0.712716 0
M  V30 6652 H 617.029 -1.58579 0.0619772 0
M  V30 6653 H 617.05 -3.11015 -2.19202 0
M  V30 6654 H 616.562 -3.84572 -0.522103 0
M  V30 6655 H 614.663 -2.61209 -2.65708 0
M  V30 6656 H 614.776 -4.36688 -1.97079 0
M  V30 6657 H 613.14 -2.28005 -1.13515 0
M  V30 6658 H 613.923 -3.43216 0.0757361 0
M  V30 6659 N 616.368 0.432326 -1.51554 0
M  V30 6660 C 617.614 1.18309 -1.64714 0
M  V30 6661 C 617.947 1.90745 -0.364696 0
M  V30 6662 O 617.222 1.8381 0.635936 0
M  V30 6663 C 617.505 2.1961 -2.85383 0
M  V30 6664 C 617.358 1.51223 -4.23617 0
M  V30 6665 C 618.677 3.20538 -3.01569 0
M  V30 6666 H 615.796 0.428751 -0.599451 0
M  V30 6667 H 618.438 0.471689 -1.84052 0
M  V30 6668 H 616.588 2.8028 -2.69027 0
M  V30 6669 H 618.26 0.938516 -4.51652 0
M  V30 6670 H 616.503 0.814501 -4.26085 0
M  V30 6671 H 617.174 2.25024 -5.04052 0
M  V30 6672 H 619.65 2.69926 -3.16669 0
M  V30 6673 H 618.526 3.88706 -3.87555 0
M  V30 6674 H 618.787 3.86933 -2.13859 0
M  V30 6675 N 617.846 1.41785 0.688094 0
M  V30 6676 C 618.809 1.43936 1.78368 0
M  V30 6677 C 619.809 0.328866 1.57401 0
M  V30 6678 O 620.999 0.589093 1.63937 0
M  V30 6679 C 618.131 1.25804 3.16838 0
M  V30 6680 H 619.324 2.41472 1.77852 0
M  V30 6681 H 616.877 1.28037 0.896448 0
M  V30 6682 H 617.612 0.291386 3.22988 0
M  V30 6683 H 617.397 2.06272 3.33458 0
M  V30 6684 H 618.887 1.30162 3.96797 0
M  V30 6685 N 619.324 -0.923095 1.27737 0
M  V30 6686 C 620.601 -1.64989 1.05062 0
M  V30 6687 C 620.981 -2.07018 -0.413124 0
M  V30 6688 O 620.329 -1.80797 -1.39731 0
M  V30 6689 C 620.539 -2.84847 2.01652 0
M  V30 6690 C 621.887 -3.56083 2.31279 0
M  V30 6691 O 622.911 -2.94981 1.99662 0
M  V30 6692 O 621.77 -4.66182 2.85196 0
M  V30 6693 H 618.864 -0.723357 0.400853 0
M  V30 6694 H 621.41 -0.973224 1.3902 0
M  V30 6695 H 620.182 -2.50814 3.00347 0
M  V30 6696 H 619.805 -3.60231 1.68284 0
M  V30 6697 N 620.802 -1.09834 -1.13024 0
M  V30 6698 C 622.213 -0.855651 -1.65938 0
M  V30 6699 C 622.564 0.615159 -1.86307 0
M  V30 6700 O 621.689 1.47335 -1.58497 0
M  V30 6701 C 622.284 -1.5467 -3.01434 0
M  V30 6702 C 620.843 -1.35088 -3.51323 0
M  V30 6703 C 619.99 -1.6001 -2.26478 0
M  V30 6704 H 622.941 -1.25691 -0.968889 0
M  V30 6705 H 622.962 -0.982179 -3.67605 0
M  V30 6706 H 622.474 -2.61715 -2.86578 0
M  V30 6707 H 620.575 -0.30179 -3.71376 0
M  V30 6708 H 620.688 -2.0886 -4.31178 0
M  V30 6709 H 619.052 -1.02246 -2.33276 0
M  V30 6710 H 619.835 -2.68293 -2.14182 0
M  V30 6711 N 622.28 1.30327 -0.886154 0
M  V30 6712 C 623.228 2.30052 -0.343317 0
M  V30 6713 C 624.222 1.60212 0.550305 0
M  V30 6714 O 625.428 1.74674 0.434609 0
M  V30 6715 H 621.803 0.746306 -0.0923681 0
M  V30 6716 H 623.774 2.73294 -1.19804 0
M  V30 6717 C 622.523 3.45079 0.426107 0
M  V30 6718 H 621.846 3.99003 -0.25227 0
M  V30 6719 H 623.286 4.16931 0.771009 0
M  V30 6720 C 621.745 2.95195 1.62363 0
M  V30 6721 O 622.275 2.95323 2.723 0
M  V30 6722 N 620.481 2.51192 1.4612 0
M  V30 6723 H 620.028 2.51286 0.566832 0
M  V30 6724 H 619.986 2.18173 2.2638 0
M  V30 6725 N 623.758 0.647228 1.43697 0
M  V30 6726 C 624.705 -0.0480092 2.3075 0
M  V30 6727 C 625.675 -0.820705 1.44408 0
M  V30 6728 O 626.86 -0.798515 1.73287 0
M  V30 6729 C 624 -1.01259 3.2991 0
M  V30 6730 C 623.113 -0.236629 4.31351 0
M  V30 6731 C 622.248 -1.19447 5.17596 0
M  V30 6732 C 621.287 -0.408595 6.10735 0
M  V30 6733 N 620.424 -1.31772 6.89623 0
M  V30 6734 H 625.264 0.700238 2.89656 0
M  V30 6735 H 622.801 0.357082 1.427 0
M  V30 6736 H 624.759 -1.58538 3.85903 0
M  V30 6737 H 623.389 -1.72778 2.72667 0
M  V30 6738 H 622.441 0.452353 3.77701 0
M  V30 6739 H 623.753 0.374731 4.9739 0
M  V30 6740 H 622.907 -1.83809 5.78186 0
M  V30 6741 H 621.646 -1.83975 4.51669 0
M  V30 6742 H 620.651 0.24841 5.49239 0
M  V30 6743 H 621.876 0.232188 6.78703 0
M  V30 6744 H 619.822 -1.94991 6.2635 0
M  V30 6745 H 619.739 -0.760779 7.52162 0
M  V30 6746 H 621.007 -1.94967 7.54724 0
M  V30 6747 N 625.236 -1.5273 0.388769 0
M  V30 6748 C 626.652 -1.59553 0.0387049 0
M  V30 6749 C 626.852 -1.40278 -1.44652 0
M  V30 6750 O 625.908 -1.21951 -2.21098 0
M  V30 6751 C 627.221 -2.9625 0.515409 0
M  V30 6752 C 628.769 -3.09426 0.471621 0
M  V30 6753 C 629.244 -4.48572 0.924505 0
M  V30 6754 N 630.735 -4.54754 0.880496 0
M  V30 6755 C 631.47 -5.60653 1.20234 0
M  V30 6756 N 630.966 -6.74198 1.59463 0
M  V30 6757 N 632.759 -5.50755 1.12363 0
M  V30 6758 H 624.91 -1.63508 1.35569 0
M  V30 6759 H 627.173 -0.768097 0.555636 0
M  V30 6760 H 626.879 -3.15569 1.5527 0
M  V30 6761 H 626.753 -3.77102 -0.085792 0
M  V30 6762 H 629.14 -2.89804 -0.556588 0
M  V30 6763 H 629.221 -2.30528 1.10862 0
M  V30 6764 H 628.865 -4.68936 1.95094 0
M  V30 6765 H 628.795 -5.25935 0.264524 0
M  V30 6766 H 631.286 -3.73237 0.591815 0
M  V30 6767 H 631.599 -7.5097 1.82385 0
M  V30 6768 H 629.944 -6.75531 1.63349 0
M  V30 6769 H 633.135 -4.6093 0.816169 0
M  V30 6770 H 633.308 -6.33184 1.37777 0
M  V30 6771 N 626.714 -0.118576 -1.57153 0
M  V30 6772 C 627.939 0.550582 -1.99958 0
M  V30 6773 C 628.364 1.59458 -0.997736 0
M  V30 6774 O 627.722 1.81274 0.0306269 0
M  V30 6775 C 627.77 1.15379 -3.41643 0
M  V30 6776 O 626.874 2.26932 -3.44348 0
M  V30 6777 H 626.215 0.137567 -0.649593 0
M  V30 6778 H 628.745 -0.206926 -2.03551 0
M  V30 6779 H 628.755 1.48942 -3.79843 0
M  V30 6780 H 627.43 0.389087 -4.14076 0
M  V30 6781 H 626.007 1.94812 -3.17967 0
M  V30 6782 N 628.193 1.56834 0.155195 0
M  V30 6783 C 629.14 1.97646 1.19184 0
M  V30 6784 C 630.11 0.842788 1.4313 0
M  V30 6785 O 631.295 1.1042 1.55602 0
M  V30 6786 C 628.435 2.35527 2.52232 0
M  V30 6787 C 627.548 3.62147 2.35529 0
M  V30 6788 C 626.683 3.89167 3.61555 0
M  V30 6789 C 625.722 5.09084 3.39853 0
M  V30 6790 N 624.859 5.32156 4.5799 0
M  V30 6791 H 629.699 2.8601 0.836802 0
M  V30 6792 H 627.236 1.41507 0.401758 0
M  V30 6793 H 629.194 2.55516 3.29799 0
M  V30 6794 H 627.824 1.50253 2.85699 0
M  V30 6795 H 626.876 3.4998 1.49057 0
M  V30 6796 H 628.188 4.49871 2.15448 0
M  V30 6797 H 627.342 4.09611 4.47553 0
M  V30 6798 H 626.081 2.9985 3.84632 0
M  V30 6799 H 625.086 4.88522 2.52243 0
M  V30 6800 H 626.311 5.99947 3.18183 0
M  V30 6801 H 624.257 4.45791 4.81255 0
M  V30 6802 H 624.174 6.14133 4.40882 0
M  V30 6803 H 625.442 5.57091 5.45225 0
M  V30 6804 N 629.671 -0.424282 1.51781 0
M  V30 6805 C 630.618 -1.51591 1.74037 0
M  V30 6806 C 631.588 -1.55556 0.582358 0
M  V30 6807 O 632.773 -1.72364 0.818245 0
M  V30 6808 C 629.913 -2.89188 1.8832 0
M  V30 6809 C 629.026 -2.9465 3.1592 0
M  V30 6810 C 628.161 -4.23452 3.20721 0
M  V30 6811 C 627.2 -4.22831 4.42584 0
M  V30 6812 N 626.337 -5.43178 4.44862 0
M  V30 6813 H 631.177 -1.31917 2.67212 0
M  V30 6814 H 628.714 -0.640599 1.32419 0
M  V30 6815 H 630.672 -3.69044 1.94583 0
M  V30 6816 H 629.302 -3.07392 0.985402 0
M  V30 6817 H 628.354 -2.07378 3.18902 0
M  V30 6818 H 629.666 -2.90055 4.05795 0
M  V30 6819 H 628.82 -5.1169 3.25973 0
M  V30 6820 H 627.559 -4.30722 2.28757 0
M  V30 6821 H 626.564 -3.32984 4.37495 0
M  V30 6822 H 627.789 -4.17213 5.35826 0
M  V30 6823 H 625.735 -5.51145 3.55775 0
M  V30 6824 H 625.652 -5.40515 5.28563 0
M  V30 6825 H 626.92 -6.33412 4.54324 0
M  V30 6826 N 631.149 -1.42148 -0.680565 0
M  V30 6827 C 632.397 -1.42029 -1.43779 0
M  V30 6828 C 632.718 -0.0356347 -1.94967 0
M  V30 6829 O 631.988 0.924936 -1.7269 0
M  V30 6830 H 630.568 -0.522835 -0.533529 0
M  V30 6831 H 633.23 -1.7752 -0.804538 0
M  V30 6832 H 632.326 -2.11658 -2.29363 0
M  V30 6833 N 632.627 0.916307 -1.28225 0
M  V30 6834 C 634.043 1.19425 -1.05876 0
M  V30 6835 C 634.243 2.005 0.2005 0
M  V30 6836 O 633.299 2.35806 0.902873 0
M  V30 6837 C 634.612 1.93133 -2.30478 0
M  V30 6838 C 636.16 2.06026 -2.35632 0
M  V30 6839 C 636.635 2.83141 -3.59994 0
M  V30 6840 N 638.126 2.90704 -3.60618 0
M  V30 6841 C 638.861 3.50865 -4.53521 0
M  V30 6842 N 638.357 4.12327 -5.56739 0
M  V30 6843 N 640.15 3.48379 -4.41122 0
M  V30 6844 H 632.301 0.37496 -2.09064 0
M  V30 6845 H 634.564 0.228531 -0.920042 0
M  V30 6846 H 634.27 1.40985 -3.22205 0
M  V30 6847 H 634.144 2.93696 -2.36691 0
M  V30 6848 H 636.531 2.57355 -1.44404 0
M  V30 6849 H 636.612 1.04647 -2.33415 0
M  V30 6850 H 636.256 2.32492 -4.51564 0
M  V30 6851 H 636.186 3.84829 -3.59464 0
M  V30 6852 H 638.677 2.47034 -2.85977 0
M  V30 6853 H 638.99 4.56205 -6.23776 0
M  V30 6854 H 637.335 4.10839 -5.60568 0
M  V30 6855 H 640.526 2.99572 -3.59686 0
M  V30 6856 H 640.699 3.94974 -5.13712 0
M  V30 6857 N 634.105 1.10431 1.1244 0
M  V30 6858 C 635.035 0.775143 2.20258 0
M  V30 6859 C 636.016 -0.25186 1.68225 0
M  V30 6860 O 637.201 -0.117637 1.93843 0
M  V30 6861 C 634.331 0.206133 3.46688 0
M  V30 6862 C 633.285 1.16382 4.11873 0
M  V30 6863 C 632.611 0.456014 5.32752 0
M  V30 6864 C 633.911 2.5104 4.58013 0
M  V30 6865 H 635.605 1.67665 2.4805 0
M  V30 6866 H 633.151 0.807595 1.19222 0
M  V30 6867 H 635.104 -0.036291 4.21384 0
M  V30 6868 H 633.828 -0.730614 3.18323 0
M  V30 6869 H 632.487 1.39169 3.39157 0
M  V30 6870 H 632.135 -0.485203 5.00654 0
M  V30 6871 H 631.835 1.09466 5.77314 0
M  V30 6872 H 633.359 0.222135 6.10196 0
M  V30 6873 H 634.773 2.32401 5.24083 0
M  V30 6874 H 633.17 3.10789 5.13352 0
M  V30 6875 H 634.24 3.11039 3.71998 0
M  V30 6876 N 635.583 -1.29855 0.893053 0
M  V30 6877 C 636.808 -2.00512 0.530066 0
M  V30 6878 C 637.233 -1.66446 -0.876199 0
M  V30 6879 O 636.591 -0.885446 -1.58207 0
M  V30 6880 C 636.639 -3.53308 0.721505 0
M  V30 6881 O 635.743 -4.11764 -0.228994 0
M  V30 6882 H 635.084 -0.630617 0.207891 0
M  V30 6883 H 637.614 -1.6551 1.20282 0
M  V30 6884 H 637.624 -4.03206 0.623599 0
M  V30 6885 H 636.299 -3.77439 1.74678 0
M  V30 6886 H 634.876 -3.72805 -0.0841034 0
M  V30 6887 N 637.061 -0.65484 -1.43351 0
M  V30 6888 C 637.991 0.0221809 -2.33489 0
M  V30 6889 C 638.972 0.810272 -1.49561 0
M  V30 6890 O 640.157 0.771426 -1.78221 0
M  V30 6891 C 637.287 0.988117 -3.32947 0
M  V30 6892 C 636.241 0.310026 -4.26876 0
M  V30 6893 C 635.567 1.38752 -5.16384 0
M  V30 6894 C 636.867 -0.798589 -5.16159 0
M  V30 6895 H 638.561 -0.730571 -2.9035 0
M  V30 6896 H 636.107 -0.352773 -1.39612 0
M  V30 6897 H 638.06 1.47067 -3.94904 0
M  V30 6898 H 636.784 1.77205 -2.74346 0
M  V30 6899 H 635.443 -0.152097 -3.66284 0
M  V30 6900 H 635.091 2.16293 -4.54121 0
M  V30 6901 H 634.791 0.939051 -5.80048 0
M  V30 6902 H 636.315 1.87141 -5.81215 0
M  V30 6903 H 637.729 -0.398126 -5.71916 0
M  V30 6904 H 636.126 -1.17163 -5.88552 0
M  V30 6905 H 637.196 -1.65588 -4.55751 0
M  V30 6906 N 638.539 1.52521 -0.396863 0
M  V30 6907 C 639.489 2.2348 0.451722 0
M  V30 6908 C 640.473 1.2415 1.0235 0
M  V30 6909 O 641.665 1.4945 0.948348 0
M  V30 6910 C 638.794 3.05067 1.57445 0
M  V30 6911 C 637.88 4.11799 1.01404 0
M  V30 6912 N 638.271 5.05482 0.179234 0
M  V30 6913 C 636.569 4.27064 1.28578 0
M  V30 6914 C 637.27 5.81552 -0.131202 0
M  V30 6915 N 636.246 5.41523 0.474735 0
M  V30 6916 H 640.048 2.93269 -0.192534 0
M  V30 6917 H 637.562 1.61081 -0.206591 0
M  V30 6918 H 639.559 3.54446 2.19485 0
M  V30 6919 H 638.219 2.36816 2.22145 0
M  V30 6920 H 639.23 5.17573 -0.18411 0
M  V30 6921 H 635.907 3.70042 1.93327 0
M  V30 6922 H 637.297 6.67023 -0.808061 0
M  V30 6923 N 640.017 0.126909 1.57088 0
M  V30 6924 C 641.433 -0.229641 1.57939 0
M  V30 6925 C 641.633 -1.66145 1.1401 0
M  V30 6926 O 640.689 -2.3843 0.831119 0
M  V30 6927 C 642.002 0.0108648 3.00698 0
M  V30 6928 C 643.55 -0.054418 3.12953 0
M  V30 6929 C 644.025 0.158497 4.57726 0
M  V30 6930 N 645.516 0.104735 4.63082 0
M  V30 6931 C 646.251 0.24427 5.72879 0
M  V30 6932 N 645.747 0.440415 6.91399 0
M  V30 6933 N 647.54 0.183286 5.61801 0
M  V30 6934 H 639.691 1.06203 1.83942 0
M  V30 6935 H 641.954 0.418834 0.85046 0
M  V30 6936 H 641.66 1.00102 3.37154 0
M  V30 6937 H 641.534 -0.717512 3.70313 0
M  V30 6938 H 643.921 -1.0351 2.7635 0
M  V30 6939 H 644.002 0.705967 2.45865 0
M  V30 6940 H 643.646 1.13619 4.95028 0
M  V30 6941 H 643.576 -0.62197 5.22914 0
M  V30 6942 H 646.067 -0.0430298 3.77876 0
M  V30 6943 H 646.38 0.537536 7.70928 0
M  V30 6944 H 644.725 0.476488 6.93365 0
M  V30 6945 H 647.916 0.0309561 4.6809 0
M  V30 6946 H 648.089 0.295471 6.47326 0
M  V30 6947 N 641.495 -1.56914 -0.146875 0
M  V30 6948 C 642.723 -1.87515 -0.874394 0
M  V30 6949 C 643.138 -0.715116 -1.74733 0
M  V30 6950 O 642.495 0.315113 -1.79759 0
M  V30 6951 C 642.546 -3.17362 -1.731 0
M  V30 6952 O 642.267 -4.28897 -0.893245 0
M  V30 6953 C 643.768 -3.61479 -2.56609 0
M  V30 6954 H 640.988 -0.621546 -0.252827 0
M  V30 6955 H 643.532 -2.04023 -0.139627 0
M  V30 6956 H 641.687 -3.02608 -2.41883 0
M  V30 6957 H 642.101 -5.03146 -1.48137 0
M  V30 6958 H 643.575 -4.5517 -3.12289 0
M  V30 6959 H 644.052 -2.86773 -3.32653 0
M  V30 6960 H 644.658 -3.78927 -1.93117 0
M  V30 6961 N 642.974 0.416227 -1.52004 0
M  V30 6962 C 644.385 0.995319 -1.57957 0
M  V30 6963 C 644.736 1.91744 -0.415754 0
M  V30 6964 O 643.861 2.11349 0.464808 0
M  V30 6965 C 644.456 1.81191 -2.86278 0
M  V30 6966 C 643.015 2.34115 -2.94732 0
M  V30 6967 C 642.162 1.139 -2.52828 0
M  V30 6968 H 645.113 0.196716 -1.57476 0
M  V30 6969 H 645.134 2.66859 -2.71231 0
M  V30 6970 H 644.646 1.14051 -3.70963 0
M  V30 6971 H 642.747 3.04647 -2.14525 0
M  V30 6972 H 642.86 2.65466 -3.98829 0
M  V30 6973 H 641.224 1.49081 -2.06511 0
M  V30 6974 H 642.007 0.483383 -3.3988 0
M  V30 6975 N 644.452 1.42507 0.673017 0
M  V30 6976 C 645.415 1.4582 1.76831 0
M  V30 6977 C 646.415 0.345542 1.57043 0
M  V30 6978 O 647.605 0.606447 1.63303 0
M  V30 6979 C 644.737 1.29158 3.15485 0
M  V30 6980 H 645.93 2.43345 1.7528 0
M  V30 6981 H 643.483 1.28981 0.882817 0
M  V30 6982 H 644.218 0.325626 3.22661 0
M  V30 6983 H 644.003 2.09797 3.31252 0
M  V30 6984 H 645.493 1.34363 3.95394 0
M  V30 6985 N 645.93 -0.909495 1.28709 0
M  V30 6986 C 647.178 -1.65577 1.15882 0
M  V30 6987 C 647.499 -1.928 -0.292108 0
M  V30 6988 O 646.769 -1.54716 -1.20166 0
M  V30 6989 H 645.349 -0.613714 0.425869 0
M  V30 6990 H 648.011 -1.09108 1.61498 0
M  V30 6991 H 647.107 -2.61634 1.70159 0
M  V30 6992 N 647.408 -1.11026 -1.11852 0
M  V30 6993 C 648.356 -0.759643 -2.19846 0
M  V30 6994 C 649.35 0.246964 -1.6759 0
M  V30 6995 O 650.556 0.106693 -1.79684 0
M  V30 6996 H 646.931 -0.22775 -0.716683 0
M  V30 6997 H 648.902 -1.6792 -2.46669 0
M  V30 6998 C 647.651 -0.214364 -3.47039 0
M  V30 6999 H 646.974 -0.980175 -3.87599 0
M  V30 7000 H 648.414 -0.00717047 -4.23999 0
M  V30 7001 C 646.873 1.05436 -3.19976 0
M  V30 7002 O 647.403 2.13483 -3.40276 0
M  V30 7003 N 645.609 0.975436 -2.7374 0
M  V30 7004 H 645.156 0.0960853 -2.57421 0
M  V30 7005 H 645.114 1.82501 -2.5601 0
M  V30 7006 N 648.886 1.2938 -0.899927 0
M  V30 7007 C 650.133 1.9555 -0.525963 0
M  V30 7008 C 650.461 1.70945 0.927789 0
M  V30 7009 O 649.716 1.01545 1.67293 0
M  V30 7010 C 650.015 3.49114 -0.765113 0
M  V30 7011 C 649.681 3.93796 -2.19626 0
M  V30 7012 C 648.343 4.05707 -2.58758 0
M  V30 7013 C 650.695 4.16883 -3.12823 0
M  V30 7014 C 648.023 4.38074 -3.90267 0
M  V30 7015 C 650.375 4.50725 -4.4388 0
M  V30 7016 C 649.039 4.60845 -4.82885 0
M  V30 7017 H 648.309 0.715569 -0.192463 0
M  V30 7018 H 650.956 1.53972 -1.13863 0
M  V30 7019 H 649.261 3.91738 -0.069531 0
M  V30 7020 H 650.958 3.98409 -0.455144 0
M  V30 7021 H 647.548 3.85042 -1.88256 0
M  V30 7022 H 651.732 4.07147 -2.83804 0
M  V30 7023 H 646.988 4.44112 -4.20207 0
M  V30 7024 H 651.162 4.67538 -5.16121 0
M  V30 7025 H 648.789 4.85681 -5.84823 0
M  V30 7026 N 650.364 0.662433 1.43002 0
M  V30 7027 C 651.61 0.179857 2.02001 0
M  V30 7028 C 651.943 -1.20625 1.52195 0
M  V30 7029 O 651.218 -1.80726 0.718911 0
M  V30 7030 C 651.501 0.200845 3.59539 0
M  V30 7031 C 651.354 1.62153 4.19555 0
M  V30 7032 C 652.673 -0.457738 4.37713 0
M  V30 7033 H 649.792 0.0668305 0.733964 0
M  V30 7034 H 652.434 0.84487 1.70182 0
M  V30 7035 H 650.584 -0.365411 3.86778 0
M  V30 7036 H 652.256 2.23908 4.03315 0
M  V30 7037 H 650.499 2.16601 3.75854 0
M  V30 7038 H 651.17 1.58799 5.28665 0
M  V30 7039 H 653.646 0.0241495 4.16093 0
M  V30 7040 H 652.522 -0.412363 5.47349 0
M  V30 7041 H 652.783 -1.53336 4.14657 0
M  V30 7042 N 651.842 -1.52309 0.404946 0
M  V30 7043 C 653.07 -2.06185 -0.171818 0
M  V30 7044 C 653.485 -1.27536 -1.39212 0
M  V30 7045 O 652.842 -0.326112 -1.79563 0
M  V30 7046 C 652.893 -3.57647 -0.526417 0
M  V30 7047 O 652.614 -4.3332 0.645417 0
M  V30 7048 C 654.115 -4.27925 -1.15736 0
M  V30 7049 H 651.335 -0.670632 -0.0222328 0
M  V30 7050 H 653.879 -1.96259 0.574692 0
M  V30 7051 H 652.034 -3.67595 -1.22282 0
M  V30 7052 H 652.448 -5.23328 0.35042 0
M  V30 7053 H 653.922 -5.35093 -1.35572 0
M  V30 7054 H 654.399 -3.84134 -2.12926 0
M  V30 7055 H 655.005 -4.22335 -0.501281 0
M  V30 7056 N 653.32 -0.135238 -1.57019 0
M  V30 7057 C 654.25 0.805235 -2.19176 0
M  V30 7058 C 655.231 1.2656 -1.13651 0
M  V30 7059 O 656.416 1.32528 -1.4195 0
M  V30 7060 C 653.546 2.04914 -2.80406 0
M  V30 7061 C 652.5 1.72598 -3.91655 0
M  V30 7062 C 651.826 3.04154 -4.39766 0
M  V30 7063 C 653.126 0.981709 -5.12991 0
M  V30 7064 H 654.82 0.287232 -2.98019 0
M  V30 7065 H 652.366 0.136714 -1.4335 0
M  V30 7066 H 654.319 2.71178 -3.22553 0
M  V30 7067 H 653.043 2.59067 -1.98877 0
M  V30 7068 H 651.702 1.08717 -3.50109 0
M  V30 7069 H 651.35 3.56274 -3.55075 0
M  V30 7070 H 651.05 2.83299 -5.14796 0
M  V30 7071 H 652.574 3.71509 -4.84576 0
M  V30 7072 H 653.988 1.5462 -5.52056 0
M  V30 7073 H 652.385 0.873533 -5.93708 0
M  V30 7074 H 653.455 -0.0286887 -4.84892 0
M  V30 7075 N 654.798 1.5699 0.138552 0
M  V30 7076 C 655.708 2.02174 1.19008 0
M  V30 7077 C 656.724 0.938622 1.46512 0
M  V30 7078 O 657.9 1.24872 1.58016 0
M  V30 7079 C 654.965 2.40045 2.50159 0
M  V30 7080 C 654.026 3.62346 2.30226 0
M  V30 7081 C 653.259 3.98401 3.55123 0
M  V30 7082 O 653.482 3.35019 4.61647 0
M  V30 7083 O 652.416 4.91606 3.47285 0
M  V30 7084 H 656.242 2.91954 0.836452 0
M  V30 7085 H 653.827 1.45293 0.347907 0
M  V30 7086 H 655.709 2.65225 3.27465 0
M  V30 7087 H 654.384 1.53417 2.85035 0
M  V30 7088 H 653.291 3.42341 1.50843 0
M  V30 7089 H 654.624 4.49617 2.00262 0
M  V30 7090 N 656.276 -0.40816 1.52223 0
M  V30 7091 C 657.186 -1.52202 1.78526 0
M  V30 7092 C 658.202 -1.60546 0.670892 0
M  V30 7093 O 659.378 -1.77242 0.956404 0
M  V30 7094 C 656.443 -2.87928 1.93128 0
M  V30 7095 C 655.504 -2.89463 3.17033 0
M  V30 7096 C 654.737 -4.18715 3.30929 0
M  V30 7097 O 654.96 -5.12662 2.50067 0
M  V30 7098 O 653.894 -4.27125 4.24084 0
M  V30 7099 H 657.72 -1.32911 2.73072 0
M  V30 7100 H 655.305 -0.594112 1.37079 0
M  V30 7101 H 657.187 -3.68426 2.04549 0
M  V30 7102 H 655.862 -3.07285 1.01772 0
M  V30 7103 H 654.769 -2.07815 3.11069 0
M  V30 7104 H 656.102 -2.75055 4.08174 0
M  V30 7105 N 657.755 -1.42862 -0.66545 0
M  V30 7106 C 659.003 -1.43546 -1.42264 0
M  V30 7107 C 659.324 -0.0563116 -1.94919 0
M  V30 7108 O 658.594 0.906568 -1.73661 0
M  V30 7109 H 657.174 -0.528464 -0.527953 0
M  V30 7110 H 659.836 -1.78363 -0.785665 0
M  V30 7111 H 658.932 -2.14079 -2.27105 0
M  V30 7112 N 659.233 0.902656 -1.29189 0
M  V30 7113 C 660.18 2.00643 -1.14066 0
M  V30 7114 C 661.15 1.66064 -0.0347756 0
M  V30 7115 O 662.335 1.8973 -0.201752 0
M  V30 7116 C 659.475 3.35214 -0.820104 0
M  V30 7117 C 658.588 3.82594 -2.00614 0
M  V30 7118 C 657.723 5.05727 -1.62522 0
M  V30 7119 C 656.762 5.45469 -2.77724 0
M  V30 7120 N 655.899 6.59789 -2.40048 0
M  V30 7121 H 660.739 2.1291 -2.08502 0
M  V30 7122 H 658.276 1.04271 -1.03759 0
M  V30 7123 H 660.234 4.12643 -0.614949 0
M  V30 7124 H 658.864 3.22682 0.0873452 0
M  V30 7125 H 657.916 3.01226 -2.32308 0
M  V30 7126 H 659.228 4.07999 -2.86946 0
M  V30 7127 H 658.382 5.90732 -1.38277 0
M  V30 7128 H 657.121 4.82155 -0.733333 0
M  V30 7129 H 656.126 4.59 -3.02653 0
M  V30 7130 H 657.351 5.71024 -3.67572 0
M  V30 7131 H 655.297 6.37826 -1.53343 0
M  V30 7132 H 655.214 6.84975 -3.19914 0
M  V30 7133 H 656.482 7.4807 -2.19116 0
M  V30 7134 N 660.711 1.11618 1.11262 0
M  V30 7135 C 661.959 0.864469 1.82678 0
M  V30 7136 C 662.28 -0.611564 1.85162 0
M  V30 7137 O 661.55 -1.44429 1.32352 0
M  V30 7138 H 660.13 0.316821 0.676486 0
M  V30 7139 H 662.792 1.40894 1.34666 0
M  V30 7140 H 661.888 1.23832 2.86482 0
M  V30 7141 N 662.189 -1.289 0.906776 0
M  V30 7142 C 663.466 -1.90221 0.455537 0
M  V30 7143 C 663.846 -1.82251 -1.06527 0
M  V30 7144 O 663.194 -1.25385 -1.91026 0
M  V30 7145 C 663.404 -3.35015 0.97806 0
M  V30 7146 C 664.752 -4.12018 1.02598 0
M  V30 7147 O 665.776 -3.43947 0.926218 0
M  V30 7148 O 664.635 -5.33677 1.17689 0
M  V30 7149 H 661.729 -0.814505 0.143214 0
M  V30 7150 H 664.275 -1.37317 0.997104 0
M  V30 7151 H 663.047 -3.35006 2.02204 0
M  V30 7152 H 662.67 -3.95408 0.416914 0
M  V30 7153 N 663.667 -0.670007 -1.42649 0
M  V30 7154 C 664.597 -0.00258501 -2.335 0
M  V30 7155 C 665.578 0.794364 -1.50412 0
M  V30 7156 O 666.763 0.75248 -1.79029 0
M  V30 7157 C 663.893 0.952748 -3.33976 0
M  V30 7158 C 662.847 0.264733 -4.2718 0
M  V30 7159 C 662.173 1.33267 -5.17826 0
M  V30 7160 C 663.473 -0.853289 -5.15283 0
M  V30 7161 H 665.167 -0.761326 -2.89559 0
M  V30 7162 H 662.713 -0.367561 -1.3923 0
M  V30 7163 H 664.666 1.4287 -3.96442 0
M  V30 7164 H 663.39 1.74285 -2.7621 0
M  V30 7165 H 662.049 -0.190938 -3.66102 0
M  V30 7166 H 661.697 2.11464 -4.5639 0
M  V30 7167 H 661.397 0.877476 -5.81011 0
M  V30 7168 H 662.921 1.80965 -5.83167 0
M  V30 7169 H 664.335 -0.458763 -5.71462 0
M  V30 7170 H 662.732 -1.23398 -5.87276 0
M  V30 7171 H 663.802 -1.70412 -4.53969 0
M  V30 7172 N 665.145 1.52092 -0.413018 0
M  V30 7173 C 666.055 2.30858 0.417318 0
M  V30 7174 C 667.071 1.38746 1.05003 0
M  V30 7175 O 668.247 1.71821 1.05069 0
M  V30 7176 C 665.312 3.11756 1.51687 0
M  V30 7177 C 664.373 4.19613 0.906825 0
M  V30 7178 C 663.606 4.96644 1.95399 0
M  V30 7179 O 663.829 4.7402 3.17271 0
M  V30 7180 O 662.763 5.81385 1.55805 0
M  V30 7181 H 666.589 3.02865 -0.225028 0
M  V30 7182 H 664.174 1.48358 -0.176126 0
M  V30 7183 H 666.056 3.62122 2.15512 0
M  V30 7184 H 664.731 2.42539 2.14375 0
M  V30 7185 H 663.638 3.73385 0.231183 0
M  V30 7186 H 664.971 4.91134 0.323814 0
M  V30 7187 N 666.623 0.143563 1.56945 0
M  V30 7188 C 667.533 -0.810562 2.20152 0
M  V30 7189 C 668.549 -1.27431 1.1848 0
M  V30 7190 O 669.725 -1.33221 1.51044 0
M  V30 7191 C 666.79 -2.03353 2.80799 0
M  V30 7192 C 665.851 -1.61936 3.97587 0
M  V30 7193 C 665.084 -2.78403 4.55332 0
M  V30 7194 O 665.307 -3.94521 4.11958 0
M  V30 7195 O 664.241 -2.54073 5.45647 0
M  V30 7196 H 668.067 -0.30253 3.02189 0
M  V30 7197 H 665.652 -0.0832925 1.49168 0
M  V30 7198 H 667.534 -2.74932 3.19359 0
M  V30 7199 H 666.209 -2.53116 2.01777 0
M  V30 7200 H 665.116 -0.873904 3.6375 0
M  V30 7201 H 666.449 -1.16892 4.78118 0
M  V30 7202 N 668.101 -1.57061 -0.130224 0
M  V30 7203 C 669.331 -1.88159 -0.853217 0
M  V30 7204 C 669.739 -0.731675 -1.7448 0
M  V30 7205 O 669.082 0.307035 -1.81116 0
M  V30 7206 C 669.144 -3.1415 -1.74785 0
M  V30 7207 C 668.808 -4.45202 -1.03173 0
M  V30 7208 C 669.805 -5.18526 -0.377759 0
M  V30 7209 C 667.49 -4.91912 -1.01624 0
M  V30 7210 C 669.484 -6.36775 0.282123 0
M  V30 7211 C 667.171 -6.10082 -0.352555 0
M  V30 7212 C 668.169 -6.82361 0.295483 0
M  V30 7213 O 667.857 -7.98284 0.948606 0
M  V30 7214 H 667.589 -0.627596 -0.251197 0
M  V30 7215 H 670.143 -2.05034 -0.1226 0
M  V30 7216 H 668.373 -2.93328 -2.51983 0
M  V30 7217 H 670.062 -3.31359 -2.34427 0
M  V30 7218 H 670.828 -4.83498 -0.381417 0
M  V30 7219 H 666.707 -4.35566 -1.51007 0
M  V30 7220 H 670.251 -6.93129 0.788525 0
M  V30 7221 H 666.148 -6.44569 -0.346621 0
M  V30 7222 H 666.916 -8.14054 0.851954 0
M  V30 7223 N 669.579 0.400081 -1.52437 0
M  V30 7224 C 670.827 1.14392 -1.6661 0
M  V30 7225 C 671.148 1.90792 -0.402927 0
M  V30 7226 O 670.418 1.87042 0.582425 0
M  V30 7227 H 668.998 0.425275 -0.614125 0
M  V30 7228 H 671.66 0.455076 -1.89513 0
M  V30 7229 H 670.756 1.85298 -2.51139 0
M  V30 7230 N 671.057 1.43213 0.657864 0
M  V30 7231 C 671.989 1.43974 1.78337 0
M  V30 7232 C 673.002 0.336482 1.59285 0
M  V30 7233 O 674.191 0.600631 1.68091 0
M  V30 7234 C 671.291 1.23242 3.15697 0
M  V30 7235 C 670.464 2.46319 3.61449 0
M  V30 7236 C 669.523 2.2088 4.77597 0
M  V30 7237 O 668.549 2.942 4.87273 0
M  V30 7238 N 669.751 1.22251 5.67481 0
M  V30 7239 H 672.516 2.40993 1.78164 0
M  V30 7240 H 670.077 1.3831 0.841549 0
M  V30 7241 H 672.069 1.04113 3.91079 0
M  V30 7242 H 670.639 0.346849 3.1067 0
M  V30 7243 H 669.859 2.80904 2.76563 0
M  V30 7244 H 671.147 3.28239 3.88763 0
M  V30 7245 H 670.545 0.616433 5.62331 0
M  V30 7246 H 669.102 1.09107 6.42603 0
M  V30 7247 N 672.536 -0.895792 1.29666 0
M  V30 7248 C 673.813 -1.62723 1.08538 0
M  V30 7249 C 674.193 -2.07848 -0.369119 0
M  V30 7250 O 673.541 -1.8372 -1.35864 0
M  V30 7251 C 673.751 -2.80505 2.07648 0
M  V30 7252 C 675.099 -3.51098 2.3878 0
M  V30 7253 O 676.123 -2.90679 2.05874 0
M  V30 7254 O 674.982 -4.60028 2.9502 0
M  V30 7255 H 672.076 -0.714692 0.416106 0
M  V30 7256 H 674.622 -0.943517 1.41053 0
M  V30 7257 H 673.394 -2.44386 3.05599 0
M  V30 7258 H 673.017 -3.5658 1.75887 0
M  V30 7259 N 674.014 -1.12206 -1.10668 0
M  V30 7260 C 674.944 -0.810086 -2.18997 0
M  V30 7261 C 675.925 0.225065 -1.68604 0
M  V30 7262 O 677.11 0.086783 -1.94006 0
M  V30 7263 C 674.24 -0.261262 -3.46316 0
M  V30 7264 C 673.194 -1.2292 -4.09969 0
M  V30 7265 C 672.52 -0.540713 -5.31959 0
M  V30 7266 C 673.82 -2.58295 -4.53962 0
M  V30 7267 H 675.514 -1.7159 -2.45352 0
M  V30 7268 H 673.06 -0.82646 -1.17922 0
M  V30 7269 H 675.013 -0.0307522 -4.21389 0
M  V30 7270 H 673.737 0.679879 -3.19445 0
M  V30 7271 H 672.396 -1.44548 -3.369 0
M  V30 7272 H 672.044 0.405492 -5.01363 0
M  V30 7273 H 671.744 -1.18637 -5.75499 0
M  V30 7274 H 673.268 -0.319184 -6.09765 0
M  V30 7275 H 674.682 -2.40709 -5.20319 0
M  V30 7276 H 673.079 -3.18916 -5.08343 0
M  V30 7277 H 674.149 -3.16918 -3.67002 0
M  V30 7278 N 675.492 1.28418 -0.913599 0
M  V30 7279 C 676.422 2.29713 -0.418847 0
M  V30 7280 C 677.403 1.62165 0.513469 0
M  V30 7281 O 678.588 1.89576 0.421235 0
M  V30 7282 C 675.718 3.45612 0.342042 0
M  V30 7283 C 674.672 4.25056 -0.501123 0
M  V30 7284 C 673.998 5.3329 0.388097 0
M  V30 7285 C 675.298 4.91814 -1.75831 0
M  V30 7286 H 676.992 2.71346 -1.26538 0
M  V30 7287 H 674.538 1.30446 -0.609903 0
M  V30 7288 H 676.491 4.15562 0.699 0
M  V30 7289 H 675.215 3.02858 1.22248 0
M  V30 7290 H 673.874 3.56833 -0.840598 0
M  V30 7291 H 673.522 4.8678 1.26707 0
M  V30 7292 H 673.222 5.87347 -0.172459 0
M  V30 7293 H 674.746 6.06088 0.74094 0
M  V30 7294 H 676.16 5.54126 -1.47026 0
M  V30 7295 H 674.557 5.55866 -2.26126 0
M  V30 7296 H 675.627 4.16313 -2.4862 0
M  V30 7297 N 676.97 0.677563 1.42291 0
M  V30 7298 C 677.92 -0.0218641 2.2799 0
M  V30 7299 C 678.904 -0.770816 1.41235 0
M  V30 7300 O 680.096 -0.649273 1.64662 0
M  V30 7301 C 677.225 -0.970449 3.29298 0
M  V30 7302 C 676.311 -0.218695 4.23536 0
M  V30 7303 N 676.702 0.777908 4.99782 0
M  V30 7304 C 675 -0.456748 4.43655 0
M  V30 7305 C 675.701 1.22632 5.68627 0
M  V30 7306 N 674.677 0.55573 5.40752 0
M  V30 7307 H 678.479 0.742516 2.84366 0
M  V30 7308 H 675.993 0.506862 1.54288 0
M  V30 7309 H 677.99 -1.48652 3.89497 0
M  V30 7310 H 676.65 -1.73463 2.74483 0
M  V30 7311 H 677.661 1.15754 5.04798 0
M  V30 7312 H 674.338 -1.20021 3.99877 0
M  V30 7313 H 675.728 2.05231 6.39789 0
M  V30 7314 N 678.448 -1.51871 0.421078 0
M  V30 7315 C 679.676 -2.06356 -0.14994 0
M  V30 7316 C 680.091 -1.29006 -1.37851 0
M  V30 7317 O 679.448 -0.345139 -1.79207 0
M  V30 7318 C 679.499 -3.58185 -0.488454 0
M  V30 7319 O 679.22 -4.32611 0.691341 0
M  V30 7320 C 680.721 -4.29129 -1.11191 0
M  V30 7321 H 677.941 -0.67083 -0.0151186 0
M  V30 7322 H 680.485 -1.95638 0.595476 0
M  V30 7323 H 678.64 -3.68871 -1.18376 0
M  V30 7324 H 679.054 -5.22927 0.405906 0
M  V30 7325 H 680.528 -5.36501 -1.29889 0
M  V30 7326 H 681.005 -3.86371 -2.0884 0
M  V30 7327 H 681.611 -4.22843 -0.456458 0
M  V30 7328 N 679.926 -0.151884 -1.56866 0
M  V30 7329 C 681.172 0.498742 -1.96572 0
M  V30 7330 C 681.505 1.64194 -1.03702 0
M  V30 7331 O 680.78 1.94334 -0.0803432 0
M  V30 7332 C 681.063 1.00027 -3.45929 0
M  V30 7333 C 680.916 -0.141767 -4.49577 0
M  V30 7334 C 682.235 1.88044 -3.97904 0
M  V30 7335 H 679.354 0.17982 -0.714726 0
M  V30 7336 H 681.996 -0.234097 -1.88552 0
M  V30 7337 H 680.146 1.62476 -3.52894 0
M  V30 7338 H 681.818 -0.778269 -4.54687 0
M  V30 7339 H 680.061 -0.80019 -4.26356 0
M  V30 7340 H 680.732 0.250947 -5.51429 0
M  V30 7341 H 683.208 1.35416 -3.93449 0
M  V30 7342 H 682.084 2.20043 -5.02864 0
M  V30 7343 H 682.345 2.81916 -3.40552 0
M  V30 7344 N 681.404 1.57128 0.121893 0
M  V30 7345 C 682.651 1.847 0.830188 0
M  V30 7346 C 682.979 0.736543 1.80015 0
M  V30 7347 O 682.234 -0.272358 1.93796 0
M  V30 7348 C 682.533 3.1874 1.61677 0
M  V30 7349 C 682.199 4.43901 0.791361 0
M  V30 7350 C 680.861 4.77887 0.563731 0
M  V30 7351 C 683.213 5.20753 0.215823 0
M  V30 7352 C 680.541 5.86168 -0.249737 0
M  V30 7353 C 682.893 6.29891 -0.584821 0
M  V30 7354 C 681.557 6.6241 -0.822794 0
M  V30 7355 H 680.827 0.675866 0.303787 0
M  V30 7356 H 683.474 1.91276 0.0926894 0
M  V30 7357 H 681.779 3.07728 2.42509 0
M  V30 7358 H 683.476 3.37295 2.16872 0
M  V30 7359 H 680.066 4.17272 0.978867 0
M  V30 7360 H 684.25 4.94851 0.378907 0
M  V30 7361 H 679.506 6.0979 -0.44336 0
M  V30 7362 H 683.68 6.88624 -1.03779 0
M  V30 7363 H 681.307 7.46147 -1.45496 0
M  V30 7364 N 682.882 -0.391992 1.52647 0
M  V30 7365 C 683.829 -1.47866 1.77213 0
M  V30 7366 C 684.799 -1.54286 0.615223 0
M  V30 7367 O 685.984 -1.7059 0.854622 0
M  V30 7368 C 683.124 -2.85129 1.94411 0
M  V30 7369 C 682.237 -2.87883 3.22098 0
M  V30 7370 C 681.372 -4.16553 3.29631 0
M  V30 7371 C 680.411 -4.13348 4.51453 0
M  V30 7372 N 679.548 -5.33619 4.56284 0
M  V30 7373 H 684.388 -1.26219 2.6995 0
M  V30 7374 H 681.925 -0.612367 1.33748 0
M  V30 7375 H 683.883 -3.64833 2.02367 0
M  V30 7376 H 682.513 -3.05232 1.05038 0
M  V30 7377 H 681.565 -2.00567 3.23229 0
M  V30 7378 H 682.877 -2.81382 4.11856 0
M  V30 7379 H 682.031 -5.0466 3.36753 0
M  V30 7380 H 680.77 -4.25773 2.37842 0
M  V30 7381 H 679.775 -3.23629 4.44459 0
M  V30 7382 H 681 -4.05754 5.44555 0
M  V30 7383 H 678.946 -5.43474 3.67385 0
M  V30 7384 H 678.863 -5.29182 5.3991 0
M  V30 7385 H 680.131 -6.23632 4.67657 0
M  V30 7386 N 684.36 -1.4356 -0.65026 0
M  V30 7387 C 685.308 -1.49219 -1.78427 0
M  V30 7388 C 686.302 -0.365528 -1.65409 0
M  V30 7389 O 687.508 -0.539649 -1.7172 0
M  V30 7390 H 683.883 -0.467858 -0.588738 0
M  V30 7391 H 685.854 -2.44701 -1.70774 0
M  V30 7392 C 684.603 -1.43519 -3.16698 0
M  V30 7393 H 683.926 -2.2952 -3.27354 0
M  V30 7394 H 685.366 -1.5154 -3.95995 0
M  V30 7395 C 683.825 -0.153197 -3.36552 0
M  V30 7396 O 684.355 0.784317 -3.93969 0
M  V30 7397 N 682.561 -0.0624402 -2.90533 0
M  V30 7398 H 682.108 -0.826172 -2.43992 0
M  V30 7399 H 682.066 0.794616 -3.04193 0
M  V30 7400 N 685.838 0.888903 -1.30139 0
M  V30 7401 C 687.086 1.63713 -1.18501 0
M  V30 7402 C 687.407 1.9324 0.261399 0
M  V30 7403 O 686.677 1.56608 1.17689 0
M  V30 7404 H 685.257 0.606861 -0.435579 0
M  V30 7405 H 687.919 1.06525 -1.63213 0
M  V30 7406 H 687.015 2.58894 -1.743 0
M  V30 7407 N 687.317 1.12792 1.10072 0
M  V30 7408 C 688.264 0.79921 2.16521 0
M  V30 7409 C 689.234 -0.235726 1.64419 0
M  V30 7410 O 690.419 -0.109457 1.90486 0
M  V30 7411 C 687.559 0.264091 3.44088 0
M  V30 7412 C 686.672 1.35729 4.10124 0
M  V30 7413 C 685.807 0.781212 5.25424 0
M  V30 7414 C 684.846 1.85327 5.8337 0
M  V30 7415 N 683.983 1.29564 6.90042 0
M  V30 7416 H 688.823 1.71105 2.43981 0
M  V30 7417 H 686.36 0.854225 1.19756 0
M  V30 7418 H 688.318 -0.0642423 4.17151 0
M  V30 7419 H 686.948 -0.610901 3.16967 0
M  V30 7420 H 686 1.80234 3.34993 0
M  V30 7421 H 687.312 2.16782 4.4923 0
M  V30 7422 H 686.466 0.403769 6.05355 0
M  V30 7423 H 685.205 -0.0604686 4.87663 0
M  V30 7424 H 684.21 2.23986 5.02106 0
M  V30 7425 H 685.435 2.69824 6.23195 0
M  V30 7426 H 683.381 0.475844 6.54272 0
M  V30 7427 H 683.298 2.04271 7.2788 0
M  V30 7428 H 684.566 0.945545 7.73744 0
M  V30 7429 N 688.795 -1.27931 0.920396 0
M  V30 7430 C 690.041 -1.94977 0.557832 0
M  V30 7431 C 690.374 -1.72224 -0.897365 0
M  V30 7432 O 689.649 -1.04705 -1.63912 0
M  V30 7433 C 689.932 -3.49289 0.875741 0
M  V30 7434 C 689.785 -3.81416 2.38416 0
M  V30 7435 C 691.104 -4.38486 0.376517 0
M  V30 7436 H 688.223 -0.708164 0.20414 0
M  V30 7437 H 690.865 -1.5118 1.15085 0
M  V30 7438 H 689.015 -3.86724 0.371062 0
M  V30 7439 H 690.687 -3.53813 2.95997 0
M  V30 7440 H 688.93 -3.28225 2.83639 0
M  V30 7441 H 689.601 -4.89198 2.55713 0
M  V30 7442 H 692.077 -4.08161 0.808945 0
M  V30 7443 H 690.953 -5.45296 0.627976 0
M  V30 7444 H 691.214 -4.36143 -0.723293 0
M  V30 7445 N 690.273 -0.685099 -1.4193 0
M  V30 7446 C 691.501 -0.220372 -2.05723 0
M  V30 7447 C 691.916 1.12642 -1.51516 0
M  V30 7448 O 691.273 1.70182 -0.659114 0
M  V30 7449 C 691.324 -0.157974 -3.61155 0
M  V30 7450 O 691.045 -1.45156 -4.13354 0
M  V30 7451 C 692.546 0.329009 -4.42077 0
M  V30 7452 H 689.766 -0.104725 -0.662777 0
M  V30 7453 H 692.31 -0.934736 -1.81887 0
M  V30 7454 H 690.465 0.507144 -3.84066 0
M  V30 7455 H 690.879 -1.33172 -5.07312 0
M  V30 7456 H 692.353 0.321559 -5.51063 0
M  V30 7457 H 692.83 1.36608 -4.17414 0
M  V30 7458 H 693.436 -0.304737 -4.24207 0
M  V30 7459 N 691.751 1.51645 -0.429126 0
M  V30 7460 C 692.698 2.27542 0.386446 0
M  V30 7461 C 693.668 1.30786 1.02393 0
M  V30 7462 O 694.853 1.59678 1.0444 0
M  V30 7463 C 691.993 3.11457 1.48623 0
M  V30 7464 C 691.106 4.23196 0.867691 0
M  V30 7465 C 690.241 4.94435 1.94183 0
M  V30 7466 C 689.28 5.98108 1.30129 0
M  V30 7467 N 688.417 6.62786 2.31644 0
M  V30 7468 H 693.257 2.968 -0.267155 0
M  V30 7469 H 690.794 1.46397 -0.143591 0
M  V30 7470 H 692.752 3.58429 2.13506 0
M  V30 7471 H 691.382 2.44329 2.10957 0
M  V30 7472 H 690.434 3.80248 0.107373 0
M  V30 7473 H 691.746 4.97499 0.35997 0
M  V30 7474 H 690.9 5.44914 2.66747 0
M  V30 7475 H 689.639 4.19744 2.48326 0
M  V30 7476 H 688.644 5.4693 0.561082 0
M  V30 7477 H 689.869 6.74751 0.767303 0
M  V30 7478 H 687.815 5.90913 2.84883 0
M  V30 7479 H 687.732 7.32828 1.85741 0
M  V30 7480 H 689 7.17897 3.03717 0
M  V30 7481 N 693.229 0.160201 1.56784 0
M  V30 7482 C 694.454 -0.497373 2.01348 0
M  V30 7483 C 694.879 -1.56757 1.03966 0
M  V30 7484 O 694.237 -1.81292 0.0174455 0
M  V30 7485 C 694.285 -1.0628 3.44582 0
M  V30 7486 O 693.389 -2.17723 3.50244 0
M  V30 7487 H 692.73 -0.120295 0.653012 0
M  V30 7488 H 695.26 0.260821 2.02931 0
M  V30 7489 H 695.27 -1.38819 3.83658 0
M  V30 7490 H 693.945 -0.279166 4.14962 0
M  V30 7491 H 692.522 -1.86313 3.2302 0
M  V30 7492 N 694.707 -1.5719 -0.113559 0
M  V30 7493 C 695.937 -1.89053 -0.833212 0
M  V30 7494 C 696.345 -0.750139 -1.73694 0
M  V30 7495 O 695.688 0.287808 -1.81431 0
M  V30 7496 C 695.75 -3.15986 -1.71443 0
M  V30 7497 C 695.414 -4.46271 -0.984449 0
M  V30 7498 C 696.411 -5.18897 -0.322741 0
M  V30 7499 C 694.096 -4.92963 -0.964011 0
M  V30 7500 C 696.09 -6.3644 0.349646 0
M  V30 7501 C 693.777 -6.10422 -0.287828 0
M  V30 7502 C 694.775 -6.82009 0.36784 0
M  V30 7503 O 694.463 -7.97233 1.03322 0
M  V30 7504 H 694.195 -0.630225 -0.244526 0
M  V30 7505 H 696.749 -2.05152 -0.100847 0
M  V30 7506 H 694.979 -2.95984 -2.48858 0
M  V30 7507 H 696.668 -3.33826 -2.309 0
M  V30 7508 H 697.434 -4.83875 -0.330114 0
M  V30 7509 H 693.313 -4.37143 -1.46379 0
M  V30 7510 H 696.857 -6.92254 0.861996 0
M  V30 7511 H 692.754 -6.449 -0.278237 0
M  V30 7512 H 693.522 -8.13105 0.938247 0
M  V30 7513 N 696.185 0.383891 -1.52853 0
M  V30 7514 C 697.41 1.154 -1.7233 0
M  V30 7515 C 697.835 1.82809 -0.44298 0
M  V30 7516 O 697.193 1.71026 0.601645 0
M  V30 7517 C 697.241 2.17386 -2.87708 0
M  V30 7518 O 696.345 3.24082 -2.55038 0
M  V30 7519 H 695.686 0.335709 -0.572883 0
M  V30 7520 H 698.216 0.44662 -1.99666 0
M  V30 7521 H 698.226 2.61296 -3.1335 0
M  V30 7522 H 696.901 1.6771 -3.80587 0
M  V30 7523 H 695.478 2.85273 -2.40153 0
M  V30 7524 N 697.663 1.43903 0.642637 0
M  V30 7525 C 698.91 1.46079 1.40239 0
M  V30 7526 C 699.238 0.0890335 1.94296 0
M  V30 7527 O 698.493 -0.907533 1.73385 0
M  V30 7528 C 698.792 2.45907 2.59354 0
M  V30 7529 C 698.458 3.91522 2.23654 0
M  V30 7530 C 697.12 4.31179 2.1363 0
M  V30 7531 C 699.472 4.83242 1.95261 0
M  V30 7532 C 696.8 5.60495 1.73384 0
M  V30 7533 C 699.152 6.12933 1.56511 0
M  V30 7534 C 697.816 6.51556 1.4502 0
M  V30 7535 H 697.086 0.534542 0.513172 0
M  V30 7536 H 699.733 1.77047 0.72984 0
M  V30 7537 H 698.038 2.08381 3.3179 0
M  V30 7538 H 699.735 2.44842 3.17574 0
M  V30 7539 H 696.325 3.60142 2.32369 0
M  V30 7540 H 700.509 4.53367 2.0192 0
M  V30 7541 H 695.765 5.89249 1.63082 0
M  V30 7542 H 699.939 6.83469 1.33576 0
M  V30 7543 H 697.566 7.51663 1.13606 0
M  V30 7544 N 699.141 -0.881989 1.30609 0
M  V30 7545 C 700.418 -1.61563 1.10258 0
M  V30 7546 C 700.798 -2.08228 -0.347053 0
M  V30 7547 O 700.146 -1.85151 -1.33908 0
M  V30 7548 C 700.356 -2.78287 2.10612 0
M  V30 7549 C 701.704 -3.48545 2.4249 0
M  V30 7550 O 702.728 -2.88479 2.08945 0
M  V30 7551 O 701.587 -4.56873 2.99883 0
M  V30 7552 H 698.681 -0.710238 0.423663 0
M  V30 7553 H 701.227 -0.928503 1.42045 0
M  V30 7554 H 699.999 -2.41131 3.08174 0
M  V30 7555 H 699.622 -3.54695 1.79659 0
M  V30 7556 N 700.619 -1.13374 -1.09472 0
M  V30 7557 C 701.529 -0.824029 -2.19652 0
M  V30 7558 C 702.545 0.19118 -1.72947 0
M  V30 7559 O 703.721 0.0223464 -2.01388 0
M  V30 7560 C 700.786 -0.294009 -3.45451 0
M  V30 7561 C 699.847 -1.3704 -4.0684 0
M  V30 7562 C 699.08 -0.86558 -5.26634 0
M  V30 7563 O 699.303 0.29702 -5.69626 0
M  V30 7564 O 698.237 -1.63968 -5.79136 0
M  V30 7565 H 702.063 -1.74454 -2.48595 0
M  V30 7566 H 699.648 -0.911155 -1.18399 0
M  V30 7567 H 701.53 -0.00381039 -4.214 0
M  V30 7568 H 700.205 0.598921 -3.18111 0
M  V30 7569 H 699.112 -1.71391 -3.3253 0
M  V30 7570 H 700.445 -2.23746 -4.38405 0
M  V30 7571 N 702.098 1.27442 -0.927168 0
M  V30 7572 C 703.347 1.93679 -0.563146 0
M  V30 7573 C 703.66 1.73673 0.899837 0
M  V30 7574 O 704.866 2.34247 1.37262 0
M  V30 7575 C 703.322 3.46961 -0.95636 0
M  V30 7576 C 702.93 3.75724 -2.43999 0
M  V30 7577 C 704.674 4.19282 -0.663565 0
M  V30 7578 C 702.581 5.22378 -2.77263 0
M  V30 7579 H 701.511 0.725059 -0.206894 0
M  V30 7580 H 704.162 1.44743 -1.12791 0
M  V30 7581 H 702.544 3.94703 -0.320254 0
M  V30 7582 H 703.718 3.38741 -3.12396 0
M  V30 7583 H 702.033 3.16605 -2.70463 0
M  V30 7584 H 704.63 5.27265 -0.888596 0
M  V30 7585 H 704.973 4.14382 0.399198 0
M  V30 7586 H 705.506 3.7736 -1.25875 0
M  V30 7587 H 702.245 5.32367 -3.82446 0
M  V30 7588 H 701.765 5.6051 -2.13516 0
M  V30 7589 H 703.444 5.9025 -2.64979 0
M  V30 7590 N 703.576 0.692616 1.41565 0
M  V30 7591 C 704.992 0.363878 1.55397 0
M  V30 7592 C 705.192 -1.1294 1.66874 0
M  V30 7593 O 704.248 -1.91517 1.64552 0
M  V30 7594 C 705.561 1.10982 2.7947 0
M  V30 7595 C 707.109 1.09387 2.93263 0
M  V30 7596 C 707.584 1.8215 4.20221 0
M  V30 7597 N 709.075 1.79105 4.27172 0
M  V30 7598 C 709.81 2.32247 5.2426 0
M  V30 7599 N 709.306 2.93847 6.27396 0
M  V30 7600 N 711.099 2.22519 5.1618 0
M  V30 7601 H 703.25 1.66116 1.3236 0
M  V30 7602 H 705.513 0.700848 0.63837 0
M  V30 7603 H 705.219 2.1647 2.77188 0
M  V30 7604 H 705.093 0.686492 3.709 0
M  V30 7605 H 707.48 0.0472638 2.95062 0
M  V30 7606 H 707.561 1.55623 2.03015 0
M  V30 7607 H 707.205 2.86789 4.19183 0
M  V30 7608 H 707.135 1.33351 5.09436 0
M  V30 7609 H 709.626 1.34191 3.53272 0
M  V30 7610 H 709.939 3.31972 6.97864 0
M  V30 7611 H 708.284 2.97924 6.27906 0
M  V30 7612 H 711.475 1.7407 4.34531 0
M  V30 7613 H 711.648 2.64239 5.91677 0
M  V30 7614 N 705.054 -1.51416 0.437162 0
M  V30 7615 C 706.001 -2.27743 -0.374374 0
M  V30 7616 C 706.971 -1.31327 -1.01698 0
M  V30 7617 O 708.156 -1.60229 -1.03592 0
M  V30 7618 C 705.296 -3.12241 -1.46969 0
M  V30 7619 C 704.409 -4.23651 -0.845236 0
M  V30 7620 C 703.544 -4.95458 -1.91559 0
M  V30 7621 C 702.583 -5.98789 -1.26956 0
M  V30 7622 N 701.72 -6.64005 -2.28126 0
M  V30 7623 H 706.56 -2.96654 0.282892 0
M  V30 7624 H 704.097 -1.46319 0.151352 0
M  V30 7625 H 706.055 -3.59556 -2.11602 0
M  V30 7626 H 704.685 -2.45445 -2.09659 0
M  V30 7627 H 703.737 -3.803 -0.0872059 0
M  V30 7628 H 705.049 -4.97683 -0.333582 0
M  V30 7629 H 704.203 -5.46321 -2.63854 0
M  V30 7630 H 702.942 -4.21055 -2.46097 0
M  V30 7631 H 701.947 -5.47219 -0.53207 0
M  V30 7632 H 703.172 -6.75149 -0.731509 0
M  V30 7633 H 701.118 -5.92415 -2.81745 0
M  V30 7634 H 701.035 -7.33802 -1.81852 0
M  V30 7635 H 702.303 -7.19498 -2.99905 0
M  V30 7636 N 706.532 -0.168513 -1.56696 0
M  V30 7637 C 707.48 0.779791 -2.19139 0
M  V30 7638 C 708.474 1.23957 -1.1546 0
M  V30 7639 O 709.68 1.20555 -1.33666 0
M  V30 7640 H 706.055 0.269739 -0.701958 0
M  V30 7641 H 708.026 0.229156 -2.97519 0
M  V30 7642 C 706.775 2.00003 -2.84419 0
M  V30 7643 H 706.098 1.65527 -3.63924 0
M  V30 7644 H 707.538 2.64251 -3.31583 0
M  V30 7645 C 705.997 2.82187 -1.84044 0
M  V30 7646 O 706.527 3.79247 -1.32418 0
M  V30 7647 N 704.733 2.47145 -1.52864 0
M  V30 7648 H 704.28 1.68277 -1.9504 0
M  V30 7649 H 704.238 3.02422 -0.859569 0
M  V30 7650 N 708.01 1.57248 0.105221 0
M  V30 7651 C 708.973 2.00388 1.11252 0
M  V30 7652 C 709.973 0.89594 1.33527 0
M  V30 7653 O 711.163 1.16166 1.29811 0
M  V30 7654 C 708.295 2.35589 2.46395 0
M  V30 7655 H 709.488 2.90591 0.741424 0
M  V30 7656 H 707.041 1.52332 0.349956 0
M  V30 7657 H 707.776 1.4831 2.884 0
M  V30 7658 H 707.561 3.16408 2.31578 0
M  V30 7659 H 709.051 2.69658 3.18864 0
M  V30 7660 N 709.488 -0.375779 1.53054 0
M  V30 7661 C 710.42 -1.47963 1.75042 0
M  V30 7662 C 711.433 -1.50073 0.631031 0
M  V30 7663 O 712.622 -1.53736 0.907052 0
M  V30 7664 C 709.722 -2.86767 1.80604 0
M  V30 7665 C 708.895 -3.08471 3.10104 0
M  V30 7666 C 707.954 -4.27332 3.07041 0
M  V30 7667 O 706.98 -4.22998 3.80869 0
M  V30 7668 N 708.182 -5.34214 2.27147 0
M  V30 7669 H 710.947 -1.29484 2.70285 0
M  V30 7670 H 708.508 -0.565416 1.51706 0
M  V30 7671 H 710.5 -3.64404 1.76045 0
M  V30 7672 H 709.07 -2.98542 0.926897 0
M  V30 7673 H 708.29 -2.18583 3.28048 0
M  V30 7674 H 709.578 -3.19834 3.95706 0
M  V30 7675 H 708.976 -5.40594 1.66656 0
M  V30 7676 H 707.533 -6.10467 2.28415 0
M  V30 7677 N 710.966 -1.44241 -0.634997 0
M  V30 7678 C 711.896 -1.53632 -1.7584 0
M  V30 7679 C 712.877 -0.389603 -1.65578 0
M  V30 7680 O 714.062 -0.609219 -1.84397 0
M  V30 7681 C 711.192 -1.47644 -3.14354 0
M  V30 7682 C 710.146 -2.60752 -3.394 0
M  V30 7683 C 709.472 -2.39817 -4.77904 0
M  V30 7684 C 710.772 -4.02921 -3.32343 0
M  V30 7685 H 712.466 -2.47662 -1.68238 0
M  V30 7686 H 710.012 -1.19197 -0.807969 0
M  V30 7687 H 711.965 -1.52815 -3.92716 0
M  V30 7688 H 710.689 -0.501284 -3.2273 0
M  V30 7689 H 709.348 -2.54965 -2.63417 0
M  V30 7690 H 708.996 -1.40502 -4.82978 0
M  V30 7691 H 708.696 -3.15649 -4.9562 0
M  V30 7692 H 710.22 -2.46799 -5.585 0
M  V30 7693 H 711.634 -4.10098 -4.00615 0
M  V30 7694 H 710.031 -4.78925 -3.61595 0
M  V30 7695 H 711.101 -4.26766 -2.30215 0
M  V30 7696 N 712.444 0.87505 -1.31075 0
M  V30 7697 C 713.392 2.00317 -1.18219 0
M  V30 7698 C 714.386 1.69152 -0.0916872 0
M  V30 7699 O 715.592 1.7821 -0.253229 0
M  V30 7700 H 711.967 0.656981 -0.365895 0
M  V30 7701 H 713.938 2.08293 -2.13674 0
M  V30 7702 C 712.687 3.35821 -0.901095 0
M  V30 7703 H 712.01 3.6032 -1.73233 0
M  V30 7704 H 713.45 4.15366 -0.851295 0
M  V30 7705 C 711.909 3.34563 0.396114 0
M  V30 7706 O 712.439 3.75971 1.41452 0
M  V30 7707 N 710.645 2.87681 0.410832 0
M  V30 7708 H 710.192 2.54179 -0.418415 0
M  V30 7709 H 710.15 2.87223 1.27869 0
M  V30 7710 N 713.922 1.13953 1.08869 0
M  V30 7711 C 715.171 0.899431 1.80536 0
M  V30 7712 C 715.484 -0.575781 1.86933 0
M  V30 7713 O 716.69 -0.932988 2.54966 0
M  V30 7714 C 715.146 1.55963 3.24351 0
M  V30 7715 C 714.754 3.07077 3.26202 0
M  V30 7716 C 716.498 1.40046 4.00733 0
M  V30 7717 C 714.405 3.65955 4.64576 0
M  V30 7718 H 713.335 0.332849 0.676556 0
M  V30 7719 H 715.986 1.3679 1.22314 0
M  V30 7720 H 714.368 1.01883 3.82669 0
M  V30 7721 H 715.542 3.67785 2.77617 0
M  V30 7722 H 713.857 3.22576 2.63312 0
M  V30 7723 H 716.454 1.81441 5.02974 0
M  V30 7724 H 716.797 0.345993 4.1486 0
M  V30 7725 H 717.33 1.91137 3.48872 0
M  V30 7726 H 714.069 4.71234 4.55652 0
M  V30 7727 H 713.589 3.10027 5.13462 0
M  V30 7728 H 715.268 3.65968 5.33551 0
M  V30 7729 N 715.4 -1.26948 0.933913 0
M  V30 7730 C 716.31 -2.30366 0.443671 0
M  V30 7731 C 717.326 -1.67284 -0.478745 0
M  V30 7732 O 718.502 -1.98156 -0.360043 0
M  V30 7733 C 715.567 -3.45485 -0.289974 0
M  V30 7734 C 714.628 -4.24069 0.668114 0
M  V30 7735 C 713.861 -5.33691 -0.0306138 0
M  V30 7736 O 714.084 -5.5656 -1.24888 0
M  V30 7737 O 713.018 -5.98441 0.644384 0
M  V30 7738 H 716.844 -2.74349 1.30254 0
M  V30 7739 H 714.429 -1.32012 0.699506 0
M  V30 7740 H 716.311 -4.15486 -0.70353 0
M  V30 7741 H 714.986 -3.03546 -1.12435 0
M  V30 7742 H 713.893 -3.56579 1.13147 0
M  V30 7743 H 715.226 -4.69739 1.46989 0
M  V30 7744 N 716.879 -0.700114 -1.41195 0
M  V30 7745 C 717.809 -0.0521132 -2.33442 0
M  V30 7746 C 718.79 0.76228 -1.52063 0
M  V30 7747 O 719.975 0.714336 -1.80585 0
M  V30 7748 C 717.105 0.881693 -3.35922 0
M  V30 7749 C 716.059 0.174062 -4.27646 0
M  V30 7750 C 715.385 1.22254 -5.20536 0
M  V30 7751 C 716.685 -0.962396 -5.13357 0
M  V30 7752 H 718.379 -0.822574 -2.87879 0
M  V30 7753 H 715.925 -0.397011 -1.38419 0
M  V30 7754 H 717.878 1.34429 -3.99383 0
M  V30 7755 H 716.602 1.68387 -2.79845 0
M  V30 7756 H 715.261 -0.268551 -3.65615 0
M  V30 7757 H 714.909 2.01736 -4.60773 0
M  V30 7758 H 714.609 0.754038 -5.82742 0
M  V30 7759 H 716.133 1.68555 -5.86874 0
M  V30 7760 H 717.547 -0.579875 -5.7036 0
M  V30 7761 H 715.944 -1.35828 -5.84526 0
M  V30 7762 H 717.014 -1.80003 -4.50252 0
M  V30 7763 N 718.357 1.51182 -0.445186 0
M  V30 7764 C 719.267 2.31692 0.368255 0
M  V30 7765 C 720.283 1.40942 1.02036 0
M  V30 7766 O 721.459 1.74011 1.01401 0
M  V30 7767 C 718.524 3.14903 1.45041 0
M  V30 7768 C 717.585 4.21442 0.817615 0
M  V30 7769 C 716.818 5.00677 1.8482 0
M  V30 7770 O 717.041 4.80644 3.07145 0
M  V30 7771 O 715.975 5.84559 1.43438 0
M  V30 7772 H 719.801 3.0232 -0.289219 0
M  V30 7773 H 717.386 1.47951 -0.207555 0
M  V30 7774 H 719.268 3.66612 2.07783 0
M  V30 7775 H 717.943 2.47031 2.09182 0
M  V30 7776 H 716.85 3.73791 0.151931 0
M  V30 7777 H 718.183 4.9171 0.219564 0
M  V30 7778 N 719.835 0.176821 1.56605 0
M  V30 7779 C 720.798 -0.737429 2.17013 0
M  V30 7780 C 721.798 -1.15414 1.11965 0
M  V30 7781 O 722.988 -1.0702 1.37449 0
M  V30 7782 C 720.12 -2.00445 2.75744 0
M  V30 7783 H 721.313 -0.211455 2.99154 0
M  V30 7784 H 718.866 -0.0727582 1.56131 0
M  V30 7785 H 719.601 -2.57338 1.97352 0
M  V30 7786 H 719.386 -1.71456 3.52626 0
M  V30 7787 H 720.876 -2.65679 3.22187 0
M  V30 7788 N 721.313 -1.57302 -0.09688 0
M  V30 7789 C 722.276 -2.00976 -1.10188 0
M  V30 7790 C 723.276 -0.903009 -1.3305 0
M  V30 7791 O 724.466 -1.16853 -1.29194 0
M  V30 7792 C 721.598 -2.36893 -2.45142 0
M  V30 7793 H 722.791 -2.9098 -0.726003 0
M  V30 7794 H 720.344 -1.52515 -0.341872 0
M  V30 7795 H 721.079 -1.49837 -2.8761 0
M  V30 7796 H 720.864 -3.17632 -2.29897 0
M  V30 7797 H 722.354 -2.71345 -3.1743 0
M  V30 7798 N 722.791 0.367657 -1.53252 0
M  V30 7799 C 723.741 1.45035 -1.75923 0
M  V30 7800 C 724.725 1.48736 -0.613719 0
M  V30 7801 O 725.917 1.54012 -0.872313 0
M  V30 7802 C 723.046 2.82493 -1.9507 0
M  V30 7803 C 722.132 2.83279 -3.15617 0
M  V30 7804 N 722.523 2.53712 -4.37566 0
M  V30 7805 C 720.821 3.1444 -3.16297 0
M  V30 7806 C 721.522 2.62123 -5.19294 0
M  V30 7807 N 720.498 2.96747 -4.55458 0
M  V30 7808 H 724.3 1.21035 -2.6782 0
M  V30 7809 H 721.814 0.575822 -1.51849 0
M  V30 7810 H 723.811 3.60473 -2.0944 0
M  V30 7811 H 722.471 3.07459 -1.044 0
M  V30 7812 H 723.482 2.27344 -4.65333 0
M  V30 7813 H 720.159 3.44733 -2.35511 0
M  V30 7814 H 721.549 2.42628 -6.26563 0
M  V30 7815 N 724.269 1.44576 0.627338 0
M  V30 7816 C 725.219 1.48168 1.73293 0
M  V30 7817 C 726.203 0.347045 1.57113 0
M  V30 7818 O 727.395 0.592605 1.66785 0
M  V30 7819 C 724.524 1.43236 3.11991 0
M  V30 7820 C 723.61 2.61828 3.33627 0
M  V30 7821 N 724.001 3.87053 3.25612 0
M  V30 7822 C 722.299 2.57104 3.64436 0
M  V30 7823 C 723 4.66093 3.48041 0
M  V30 7824 N 721.976 3.97228 3.71095 0
M  V30 7825 H 725.778 2.42832 1.6556 0
M  V30 7826 H 723.292 1.39592 0.829934 0
M  V30 7827 H 725.289 1.43893 3.91281 0
M  V30 7828 H 723.949 0.496133 3.20887 0
M  V30 7829 H 724.96 4.18966 3.04447 0
M  V30 7830 H 721.637 1.72295 3.8029 0
M  V30 7831 H 723.027 5.75117 3.47404 0
M  V30 7832 O 725.786 -0.770871 1.41915 0
M  V30 7833 H 726.477 -1.41834 1.31919 0
M  V30 END ATOM
M  V30 BEGIN BOND
M  V30 END BOND
M  V30 END CTAB
M  END
$$$$
