drugbank_target|O76083 High affinity cGMP-specific 3',5'-cyclic phosphodiesterase 9A (DB03597; DB07954)
 OpenBabel12092120283D

  0  0  0     0  0            999 V3000
M  V30 BEGIN CTAB
M  V30 COUNTS 9557 9656 0 0 0
M  V30 BEGIN ATOM
M  V30 1 H -0.908 1.98254 -0.117106 0
M  V30 2 N 0 1.576 0 0
M  V30 3 C 0.933 2.03868 1.02534 0
M  V30 4 C 1.911 0.928543 1.3348 0
M  V30 5 O 3.095 1.19667 1.45644 0
M  V30 6 C 0.222 2.43627 2.35294 0
M  V30 7 C -0.732 3.65373 2.2001 0
M  V30 8 S 0.101 5.13292 1.52614 0
M  V30 9 C 1.257 5.56322 2.86805 0
M  V30 10 H 1.49 2.90518 0.631377 0
M  V30 11 H -0.977 1.52953 0.210867 0
M  V30 12 H 0.981 2.67203 3.11629 0
M  V30 13 H -0.358 1.57376 2.7183 0
M  V30 14 H -1.165 3.90944 3.18086 0
M  V30 15 H -1.563 3.418 1.51819 0
M  V30 16 H 0.729 5.58782 3.83104 0
M  V30 17 H 1.672 6.56266 2.65933 0
M  V30 18 H 2.08 4.83886 2.90714 0
M  V30 19 N 1.4781 -0.272755 1.55222 0
M  V30 20 C 2.7261 -1.00234 1.75492 0
M  V30 21 C 3.0471 -1.8681 0.5592 0
M  V30 22 O 2.3171 -1.91215 -0.425882 0
M  V30 23 H 0.8971 -0.373076 0.647166 0
M  V30 24 H 3.5591 -0.296926 1.92625 0
M  V30 25 H 2.6551 -1.63913 2.65592 0
M  V30 26 N 2.9562 -1.48159 -0.537278 0
M  V30 27 C 4.1812 -1.59707 -1.32319 0
M  V30 28 C 4.6062 -0.254859 -1.86365 0
M  V30 29 O 3.9642 0.772378 -1.64024 0
M  V30 30 C 4.0122 -2.6412 -2.45505 0
M  V30 31 O 3.1162 -2.20774 -3.48328 0
M  V30 32 H 2.4572 -0.535791 -0.392204 0
M  V30 33 H 4.9872 -1.94092 -0.647268 0
M  V30 34 H 4.9972 -2.85166 -2.91795 0
M  V30 35 H 3.6722 -3.61567 -2.05528 0
M  V30 36 H 2.2492 -2.09911 -3.08207 0
M  V30 37 N 4.4343 0.785586 -1.36625 0
M  V30 38 C 5.6823 1.54057 -1.30808 0
M  V30 39 C 6.0033 1.94683 0.111157 0
M  V30 40 O 5.2733 1.65241 1.05224 0
M  V30 41 H 3.8533 0.571354 -0.481211 0
M  V30 42 H 6.5153 0.935821 -1.70963 0
M  V30 43 H 5.6113 2.44637 -1.93801 0
M  V30 44 N 5.9124 1.20967 1.01018 0
M  V30 45 C 7.1374 1.0503 1.78839 0
M  V30 46 C 7.5624 -0.395752 1.8389 0
M  V30 47 O 6.9204 -1.28529 1.27867 0
M  V30 48 C 6.9684 1.64602 3.2084 0
M  V30 49 O 6.0724 0.887988 4.02726 0
M  V30 50 H 5.4134 0.369987 0.551367 0
M  V30 51 H 7.9434 1.60399 1.27018 0
M  V30 52 H 7.9534 1.68607 3.71532 0
M  V30 53 H 6.6284 2.69841 3.16479 0
M  V30 54 H 5.2054 0.922648 3.61305 0
M  V30 55 N 7.3905 -1.2043 1.01659 0
M  V30 56 C 8.6155 -1.94318 0.724942 0
M  V30 57 C 9.0405 -1.74266 -0.708034 0
M  V30 58 O 8.3985 -1.03694 -1.48719 0
M  V30 59 C 8.4465 -3.44486 1.06591 0
M  V30 60 O 7.5505 -4.12017 0.177599 0
M  V30 61 H 6.8915 -0.60708 0.26898 0
M  V30 62 H 9.4215 -1.52861 1.35995 0
M  V30 63 H 9.4315 -3.95106 1.01762 0
M  V30 64 H 8.1065 -3.58404 2.10997 0
M  V30 65 H 6.6835 -3.71821 0.283421 0
M  V30 66 N 8.8686 -0.792821 -1.36206 0
M  V30 67 C 10.0936 -0.377701 -2.03932 0
M  V30 68 C 10.5186 0.998947 -1.59382 0
M  V30 69 O 9.8766 1.64421 -0.763903 0
M  V30 70 C 9.9246 -0.453635 -3.57735 0
M  V30 71 O 9.0286 0.538151 -4.08874 0
M  V30 72 H 8.3696 -0.159855 -0.644471 0
M  V30 73 H 10.8996 -1.07488 -1.7409 0
M  V30 74 H 10.9096 -0.318464 -4.06755 0
M  V30 75 H 9.5846 -1.45784 -3.89512 0
M  V30 76 H 8.1616 0.364359 -3.71116 0
M  V30 77 N 10.3467 1.47872 -0.545128 0
M  V30 78 C 11.5767 2.06589 -0.0210534 0
M  V30 79 C 11.9847 1.39997 1.27269 0
M  V30 80 O 11.3277 0.486421 1.77143 0
M  V30 81 C 11.3897 3.58574 0.257933 0
M  V30 82 C 11.0537 4.47132 -0.944573 0
M  V30 83 C 12.0507 4.85986 -1.84699 0
M  V30 84 C 9.7357 4.88821 -1.15584 0
M  V30 85 C 11.7297 5.65314 -2.94446 0
M  V30 86 C 9.4167 5.67916 -2.25642 0
M  V30 87 C 10.4147 6.06073 -3.14905 0
M  V30 88 O 10.1027 6.83578 -4.23057 0
M  V30 89 H 9.8347 0.674971 -0.0372899 0
M  V30 90 H 12.3887 1.91037 -0.754599 0
M  V30 91 H 10.6187 3.72295 1.04564 0
M  V30 92 H 12.3077 3.99356 0.72592 0
M  V30 93 H 13.0737 4.54388 -1.69577 0
M  V30 94 H 8.9527 4.58595 -0.470279 0
M  V30 95 H 12.4967 5.95016 -3.64145 0
M  V30 96 H 8.3937 5.98927 -2.40742 0
M  V30 97 H 9.1617 7.01954 -4.20954 0
M  V30 98 N 11.8248 0.280983 1.55075 0
M  V30 99 C 13.2408 -0.0729964 1.59433 0
M  V30 100 C 13.4408 -1.5411 1.29817 0
M  V30 101 O 12.4968 -2.29086 1.06187 0
M  V30 102 C 13.8098 0.306921 2.9913 0
M  V30 103 C 15.3578 0.254023 3.11968 0
M  V30 104 C 15.8328 0.608467 4.5394 0
M  V30 105 N 17.3238 0.560241 4.59799 0
M  V30 106 C 18.0588 0.80722 5.6769 0
M  V30 107 N 17.5548 1.11912 6.83701 0
M  V30 108 N 19.3478 0.735623 5.57266 0
M  V30 109 H 11.4988 1.238 1.7259 0
M  V30 110 H 13.7618 0.500547 0.805082 0
M  V30 111 H 13.4678 1.32816 3.25657 0
M  V30 112 H 13.3418 -0.349363 3.75579 0
M  V30 113 H 15.7288 -0.75794 2.852 0
M  V30 114 H 15.8098 0.944649 2.37718 0
M  V30 115 H 15.4538 1.61814 4.81434 0
M  V30 116 H 15.3838 -0.104013 5.26497 0
M  V30 117 H 17.8748 0.329288 3.76463 0
M  V30 118 H 18.1878 1.29409 7.61888 0
M  V30 119 H 16.5328 1.15695 6.85303 0
M  V30 120 H 19.7238 0.491752 4.6551 0
M  V30 121 H 19.8968 0.931482 6.4127 0
M  V30 122 N 13.3029 -1.57598 0.00835791 0
M  V30 123 C 14.7139 -1.7892 -0.53333 0
M  V30 124 C 15.0649 -0.916609 -1.73473 0
M  V30 125 O 14.1899 -0.121336 -2.1606 0
M  V30 126 C 14.7849 -3.24488 -0.974313 0
M  V30 127 C 13.3439 -3.46878 -1.46125 0
M  V30 128 C 12.4909 -2.74157 -0.416302 0
M  V30 129 H 15.4419 -1.56958 0.234495 0
M  V30 130 H 15.4629 -3.3306 -1.83988 0
M  V30 131 H 14.9749 -3.87972 -0.099718 0
M  V30 132 H 13.0759 -2.8862 -2.35646 0
M  V30 133 H 13.1889 -4.55572 -1.48295 0
M  V30 134 H 11.5529 -2.39022 -0.87981 0
M  V30 135 H 12.3359 -3.40345 0.44947 0
M  V30 136 N 14.781 0.264519 -1.55364 0
M  V30 137 C 15.728 1.32717 -1.88825 0
M  V30 138 C 16.698 1.48675 -0.740605 0
M  V30 139 O 17.883 1.62945 -0.992657 0
M  V30 140 C 15.023 2.68089 -2.17307 0
M  V30 141 C 14.136 2.60284 -3.44785 0
M  V30 142 C 13.271 3.87892 -3.62924 0
M  V30 143 C 12.31 3.74631 -4.84064 0
M  V30 144 N 11.447 4.94092 -4.98816 0
M  V30 145 H 16.287 1.03481 -2.79456 0
M  V30 146 H 13.824 0.499757 -1.3835 0
M  V30 147 H 15.782 3.46864 -2.31821 0
M  V30 148 H 14.412 2.95509 -1.299 0
M  V30 149 H 13.464 1.73173 -3.38697 0
M  V30 150 H 14.776 2.46388 -4.33698 0
M  V30 151 H 13.93 4.75109 -3.77302 0
M  V30 152 H 12.669 4.04664 -2.7221 0
M  V30 153 H 11.674 2.85797 -4.69681 0
M  V30 154 H 12.899 3.5937 -5.76221 0
M  V30 155 H 10.845 5.11259 -4.11036 0
M  V30 156 H 10.762 4.8276 -5.81789 0
M  V30 157 H 12.03 5.82857 -5.17588 0
M  V30 158 N 16.2591 1.48442 0.529413 0
M  V30 159 C 17.2221 1.62524 1.61612 0
M  V30 160 C 18.2221 0.498509 1.52877 0
M  V30 161 O 19.4121 0.76431 1.56537 0
M  V30 162 C 16.5441 1.59597 3.01233 0
M  V30 163 H 17.7371 2.59423 1.50465 0
M  V30 164 H 15.2901 1.37047 0.751514 0
M  V30 165 H 16.0251 0.641781 3.17886 0
M  V30 166 H 15.8101 2.41397 3.08982 0
M  V30 167 H 17.3001 1.72646 3.80241 0
M  V30 168 N 17.7372 -0.778329 1.37039 0
M  V30 169 C 18.9862 -1.53189 1.3121 0
M  V30 170 C 19.2992 -1.95328 -0.103095 0
M  V30 171 O 20.5052 -2.70012 -0.283826 0
M  V30 172 C 18.9612 -2.76591 2.30272 0
M  V30 173 C 18.5692 -2.41577 3.77286 0
M  V30 174 C 20.3132 -3.5455 2.33441 0
M  V30 175 C 18.2202 -3.61441 4.68096 0
M  V30 176 H 17.1502 -0.5751 0.487622 0
M  V30 177 H 19.8012 -0.853101 1.62464 0
M  V30 178 H 18.1832 -3.46326 1.92027 0
M  V30 179 H 19.3572 -1.79668 4.2433 0
M  V30 180 H 17.6722 -1.76806 3.76999 0
M  V30 181 H 20.2692 -4.43628 2.98493 0
M  V30 182 H 20.6122 -3.93936 1.34611 0
M  V30 183 H 21.1452 -2.91805 2.7036 0
M  V30 184 H 17.8842 -3.27142 5.6803 0
M  V30 185 H 17.4042 -4.22478 4.25761 0
M  V30 186 H 19.0832 -4.28335 4.8491 0
M  V30 187 N 19.2153 -1.21501 -1.00376 0
M  V30 188 C 20.4453 -1.05746 -1.77486 0
M  V30 189 C 20.8533 0.395655 -1.85017 0
M  V30 190 O 20.1963 1.28626 -1.31152 0
M  V30 191 C 20.2583 -1.58092 -3.22873 0
M  V30 192 C 19.9223 -3.06568 -3.38917 0
M  V30 193 C 20.9193 -4.04106 -3.271 0
M  V30 194 C 18.6043 -3.45799 -3.64319 0
M  V30 195 C 20.5983 -5.38862 -3.40451 0
M  V30 196 C 18.2853 -4.80707 -3.77311 0
M  V30 197 C 19.2833 -5.77047 -3.65384 0
M  V30 198 O 18.9713 -7.09507 -3.77961 0
M  V30 199 H 18.7033 -0.371778 -0.564586 0
M  V30 200 H 21.2573 -1.61319 -1.27143 0
M  V30 201 H 19.4873 -0.969163 -3.74358 0
M  V30 202 H 21.1763 -1.38162 -3.81662 0
M  V30 203 H 21.9423 -3.75141 -3.07399 0
M  V30 204 H 17.8213 -2.71344 -3.72684 0
M  V30 205 H 21.3653 -6.14041 -3.31058 0
M  V30 206 H 17.2623 -5.09357 -3.96517 0
M  V30 207 H 18.0303 -7.16935 -3.94901 0
M  V30 208 N 20.6934 1.19889 -1.02296 0
M  V30 209 C 21.6234 2.25141 -0.619174 0
M  V30 210 C 22.6044 1.66051 0.368915 0
M  V30 211 O 23.7894 1.92546 0.252941 0
M  V30 212 C 20.9194 3.4728 0.0368783 0
M  V30 213 C 19.8734 4.19005 -0.872865 0
M  V30 214 C 19.1994 5.34637 -0.0822402 0
M  V30 215 C 20.4994 4.74452 -2.18387 0
M  V30 216 H 22.1934 2.59171 -1.49903 0
M  V30 217 H 19.7394 1.24579 -0.722222 0
M  V30 218 H 21.6924 4.20098 0.330958 0
M  V30 219 H 20.4164 3.12433 0.95149 0
M  V30 220 H 19.0754 3.48061 -1.15105 0
M  V30 221 H 18.7234 4.96034 0.83422 0
M  V30 222 H 18.4234 5.83557 -0.688149 0
M  V30 223 H 19.9474 6.10255 0.205238 0
M  V30 224 H 21.3614 5.39055 -1.95172 0
M  V30 225 H 19.7584 5.33834 -2.74119 0
M  V30 226 H 20.8284 3.92844 -2.84257 0
M  V30 227 N 22.1715 0.800033 1.35784 0
M  V30 228 C 23.4485 0.30088 1.93272 0
M  V30 229 C 23.8285 -1.20857 1.73081 0
M  V30 230 O 23.1765 -2.00502 1.09596 0
M  V30 231 C 23.3865 0.70511 3.41803 0
M  V30 232 C 24.7345 0.690871 4.18942 0
M  V30 233 O 25.7585 0.646244 3.50289 0
M  V30 234 O 24.6175 0.74332 5.41421 0
M  V30 235 H 21.7115 0.0771605 0.823393 0
M  V30 236 H 24.2575 0.88329 1.449 0
M  V30 237 H 23.0295 1.74571 3.50201 0
M  V30 238 H 22.6525 0.0971541 3.97481 0
M  V30 239 N 23.6496 -1.47581 0.552962 0
M  V30 240 C 24.8986 -2.01684 0.0251995 0
M  V30 241 C 25.2116 -1.43317 -1.33115 0
M  V30 242 O 26.4176 -1.89057 -1.94858 0
M  V30 243 C 24.8736 -3.599 -0.00542052 0
M  V30 244 C 24.4816 -4.27257 1.34742 0
M  V30 245 C 26.2256 -4.21768 -0.4808 0
M  V30 246 C 24.1326 -5.77467 1.27614 0
M  V30 247 H 23.0626 -0.753979 0.00565033 0
M  V30 248 H 25.7136 -1.69616 0.70018 0
M  V30 249 H 24.0956 -3.88911 -0.745961 0
M  V30 250 H 25.2696 -4.09893 2.10534 0
M  V30 251 H 23.5846 -3.77358 1.76039 0
M  V30 252 H 26.1816 -5.31838 -0.55246 0
M  V30 253 H 26.5246 -3.88651 -1.49184 0
M  V30 254 H 27.0576 -3.97273 0.204752 0
M  V30 255 H 23.7966 -6.15196 2.26304 0
M  V30 256 H 23.3166 -5.9718 0.55996 0
M  V30 257 H 24.9956 -6.3959 0.976421 0
M  V30 258 N 25.1277 -0.289203 -1.54924 0
M  V30 259 C 26.4047 0.376032 -1.91951 0
M  V30 260 C 26.7847 1.72622 -1.21511 0
M  V30 261 O 26.1327 2.25853 -0.346767 0
M  V30 262 C 26.3427 0.502378 -3.45365 0
M  V30 263 C 27.6907 0.778741 -4.17398 0
M  V30 264 O 28.7147 0.586647 -3.51336 0
M  V30 265 O 27.5737 1.14698 -5.34328 0
M  V30 266 H 24.6677 0.208167 -0.800372 0
M  V30 267 H 27.2137 -0.336394 -1.66332 0
M  V30 268 H 25.9857 -0.447255 -3.88736 0
M  V30 269 H 25.6087 1.26373 -3.76982 0
M  V30 270 N 26.6058 1.57591 -0.0167156 0
M  V30 271 C 27.8538 1.90906 0.663285 0
M  V30 272 C 28.1748 0.892509 1.73376 0
M  V30 273 O 27.4448 -0.0677623 1.95783 0
M  V30 274 H 26.0248 0.704637 0.247983 0
M  V30 275 H 28.6868 1.94803 -0.0615909 0
M  V30 276 H 27.7828 2.9116 1.12393 0
M  V30 277 N 28.0839 -0.256276 1.55502 0
M  V30 278 C 29.4999 -0.604325 1.47716 0
M  V30 279 C 29.6999 -1.88763 0.705039 0
M  V30 280 O 28.7559 -2.51445 0.230613 0
M  V30 281 C 30.0689 -0.715756 2.92057 0
M  V30 282 C 31.6169 -0.808706 3.02372 0
M  V30 283 C 32.0919 -0.951777 4.48001 0
M  V30 284 N 33.5829 -1.01688 4.519 0
M  V30 285 C 34.3179 -1.14668 5.61817 0
M  V30 286 N 33.8139 -1.24261 6.81565 0
M  V30 287 N 35.6069 -1.1791 5.49594 0
M  V30 288 H 27.7579 0.586291 2.04148 0
M  V30 289 H 30.0209 0.201015 0.926443 0
M  V30 290 H 29.7269 0.157027 3.51349 0
M  V30 291 H 29.6009 -1.59071 3.42018 0
M  V30 292 H 31.9879 -1.67195 2.43166 0
M  V30 293 H 32.0689 0.0912063 2.55637 0
M  V30 294 H 31.7129 -0.0931291 5.07815 0
M  V30 295 H 31.6429 -1.86659 4.92408 0
M  V30 296 H 34.1339 -0.954468 3.65648 0
M  V30 297 H 34.4469 -1.34046 7.61086 0
M  V30 298 H 32.7919 -1.21236 6.84344 0
M  V30 299 H 35.9829 -1.10057 4.54978 0
M  V30 300 H 36.1559 -1.27681 6.35296 0
M  V30 301 N 29.562 -1.4872 -0.521534 0
M  V30 302 C 30.811 -1.56419 -1.27341 0
M  V30 303 C 31.124 -0.246805 -1.94037 0
M  V30 304 O 32.33 -0.202122 -2.70747 0
M  V30 305 C 30.786 -2.75896 -2.31105 0
M  V30 306 C 30.394 -4.14311 -1.70441 0
M  V30 307 C 32.138 -2.92913 -3.07249 0
M  V30 308 C 30.045 -5.25038 -2.72194 0
M  V30 309 H 28.975 -0.582344 -0.478949 0
M  V30 310 H 31.626 -1.75071 -0.549779 0
M  V30 311 H 30.008 -2.50697 -3.06541 0
M  V30 312 H 31.182 -4.49564 -1.01136 0
M  V30 313 H 29.497 -4.02482 -1.06759 0
M  V30 314 H 32.094 -3.72805 -3.83302 0
M  V30 315 H 32.437 -2.02689 -3.63625 0
M  V30 316 H 32.97 -3.18054 -2.38928 0
M  V30 317 H 29.709 -6.17255 -2.20627 0
M  V30 318 H 29.229 -4.94263 -3.39801 0
M  V30 319 H 30.908 -5.53508 -3.35019 0
M  V30 320 N 31.0401 0.771051 -1.3745 0
M  V30 321 C 31.9721 1.89352 -1.29146 0
M  V30 322 C 32.9851 1.61477 -0.207124 0
M  V30 323 O 34.1741 1.72382 -0.463324 0
M  V30 324 C 31.2741 3.24596 -0.974195 0
M  V30 325 C 30.4471 3.80111 -2.16413 0
M  V30 326 C 29.5061 4.93832 -1.81703 0
M  V30 327 O 28.5321 5.09382 -2.54006 0
M  V30 328 N 29.7341 5.75483 -0.761573 0
M  V30 329 H 32.4991 1.96991 -2.25864 0
M  V30 330 H 30.0601 0.950191 -1.31084 0
M  V30 331 H 32.0521 3.98193 -0.722828 0
M  V30 332 H 30.6221 3.12454 -0.0955527 0
M  V30 333 H 29.8421 2.98284 -2.57721 0
M  V30 334 H 31.1301 4.13932 -2.95867 0
M  V30 335 H 30.5281 5.65469 -0.161609 0
M  V30 336 H 29.0851 6.49302 -0.570064 0
M  V30 337 N 32.5182 1.22032 0.997298 0
M  V30 338 C 33.4652 0.986467 2.08656 0
M  V30 339 C 34.4352 -0.0902671 1.65855 0
M  V30 340 O 35.6202 0.0584294 1.90711 0
M  V30 341 C 32.7602 0.565569 3.40434 0
M  V30 342 C 31.8732 1.71259 3.96604 0
M  V30 343 C 31.0082 1.24011 5.16522 0
M  V30 344 C 30.0472 2.35896 5.64818 0
M  V30 345 N 29.1842 1.89726 6.7598 0
M  V30 346 H 34.0242 1.91892 2.27994 0
M  V30 347 H 31.5612 0.956199 1.11782 0
M  V30 348 H 33.5192 0.302738 4.161 0
M  V30 349 H 32.1492 -0.329879 3.2111 0
M  V30 350 H 31.2012 2.08986 3.17851 0
M  V30 351 H 32.5132 2.55436 4.28432 0
M  V30 352 H 31.6672 0.934395 5.99461 0
M  V30 353 H 30.4062 0.368487 4.86306 0
M  V30 354 H 29.4112 2.67261 4.8047 0
M  V30 355 H 30.6362 3.23567 5.97061 0
M  V30 356 H 28.5822 1.0492 6.47555 0
M  V30 357 H 28.4992 2.67471 7.07103 0
M  V30 358 H 29.7672 1.62211 7.62435 0
M  V30 359 N 33.9963 -1.19345 1.0293 0
M  V30 360 C 35.2423 -1.89318 0.727083 0
M  V30 361 C 35.5753 -1.79446 -0.742483 0
M  V30 362 O 34.8503 -1.1871 -1.54072 0
M  V30 363 C 35.1333 -3.40238 1.17942 0
M  V30 364 C 34.9863 -3.58979 2.71024 0
M  V30 365 C 36.3053 -4.33479 0.760548 0
M  V30 366 H 33.4243 -0.687475 0.265606 0
M  V30 367 H 36.0663 -1.40477 1.2793 0
M  V30 368 H 34.2163 -3.81964 0.709608 0
M  V30 369 H 35.8883 -3.26421 3.25955 0
M  V30 370 H 34.1313 -3.02018 3.11396 0
M  V30 371 H 34.8023 -4.64823 2.9773 0
M  V30 372 H 37.2783 -3.99469 1.16464 0
M  V30 373 H 36.1543 -5.37664 1.10493 0
M  V30 374 H 36.4153 -4.40813 -0.337063 0
M  V30 375 N 35.4744 -0.807222 -1.35358 0
M  V30 376 C 36.7234 -0.384376 -1.98004 0
M  V30 377 C 37.0364 1.0543 -1.64754 0
M  V30 378 O 38.2424 1.58029 -2.20769 0
M  V30 379 C 36.6984 -0.636326 -3.5423 0
M  V30 380 C 36.3064 -2.08759 -3.96388 0
M  V30 381 C 38.0504 -0.278869 -4.23583 0
M  V30 382 C 35.9574 -2.28525 -5.45463 0
M  V30 383 H 34.8874 -0.139986 -0.740891 0
M  V30 384 H 37.5384 -0.991369 -1.54415 0
M  V30 385 H 35.9204 0.0406256 -3.95979 0
M  V30 386 H 37.0944 -2.8024 -3.6579 0
M  V30 387 H 35.4094 -2.40497 -3.39926 0
M  V30 388 H 38.0064 -0.404599 -5.33167 0
M  V30 389 H 38.3494 0.775012 -4.09022 0
M  V30 390 H 38.8824 -0.909764 -3.87257 0
M  V30 391 H 35.6214 -3.32361 -5.64992 0
M  V30 392 H 35.1414 -1.61569 -5.77629 0
M  V30 393 H 36.8204 -2.10109 -6.11934 0
M  V30 394 N 36.9525 1.47285 -0.560781 0
M  V30 395 C 38.1995 2.02464 -0.038062 0
M  V30 396 C 38.5275 1.43474 1.31322 0
M  V30 397 O 37.7825 0.581311 1.86867 0
M  V30 398 C 38.0815 3.57258 0.100784 0
M  V30 399 C 37.7475 4.35184 -1.18007 0
M  V30 400 C 36.4095 4.56194 -1.53103 0
M  V30 401 C 38.7615 4.80098 -2.02867 0
M  V30 402 C 36.0895 5.19367 -2.729 0
M  V30 403 C 38.4415 5.44593 -3.21871 0
M  V30 404 C 37.1055 5.63835 -3.57276 0
M  V30 405 H 36.3755 0.740869 -0.0139279 0
M  V30 406 H 39.0225 1.76916 -0.733012 0
M  V30 407 H 37.3275 3.81819 0.878724 0
M  V30 408 H 39.0245 3.97606 0.520639 0
M  V30 409 H 35.6145 4.19113 -0.8968 0
M  V30 410 H 39.7985 4.63642 -1.7706 0
M  V30 411 H 35.0545 5.32459 -3.00496 0
M  V30 412 H 39.2285 5.78358 -3.87911 0
M  V30 413 H 36.8555 6.12557 -4.50197 0
M  V30 414 N 38.4306 0.297415 1.54768 0
M  V30 415 C 39.6556 -0.318435 2.04941 0
M  V30 416 C 40.0806 -1.4701 1.17345 0
M  V30 417 O 39.4386 -1.80436 0.176758 0
M  V30 418 C 39.4866 -0.755749 3.52592 0
M  V30 419 O 38.5906 -1.86088 3.68028 0
M  V30 420 H 37.9316 -0.062421 0.661059 0
M  V30 421 H 40.4616 0.438215 1.99852 0
M  V30 422 H 40.4716 -1.04552 3.94376 0
M  V30 423 H 39.1466 0.0867233 4.1581 0
M  V30 424 H 37.7236 -1.57193 3.38149 0
M  V30 425 N 39.9087 -1.5758 0.0250728 0
M  V30 426 C 40.8557 -2.09973 -0.958129 0
M  V30 427 C 41.8257 -1.00085 -1.3256 0
M  V30 428 O 43.0107 -1.27481 -1.41962 0
M  V30 429 C 40.1507 -2.62812 -2.2366 0
M  V30 430 C 39.2637 -3.86693 -1.92594 0
M  V30 431 C 38.3987 -4.27941 -3.14707 0
M  V30 432 C 37.4377 -5.44591 -2.79442 0
M  V30 433 N 36.5747 -5.81014 -3.94167 0
M  V30 434 H 41.4147 -2.937 -0.504428 0
M  V30 435 H 38.9517 -1.45172 -0.237392 0
M  V30 436 H 40.9097 -2.91536 -2.98434 0
M  V30 437 H 39.5397 -1.81922 -2.66654 0
M  V30 438 H 38.5917 -3.64723 -1.0808 0
M  V30 439 H 39.9037 -4.71547 -1.62619 0
M  V30 440 H 39.0577 -4.58079 -3.97804 0
M  V30 441 H 37.7967 -3.41845 -3.4784 0
M  V30 442 H 36.8017 -5.1415 -1.94755 0
M  V30 443 H 38.0267 -6.32382 -2.47528 0
M  V30 444 H 35.9727 -4.97874 -4.2715 0
M  V30 445 H 35.8897 -6.60498 -3.67801 0
M  V30 446 H 37.1577 -6.15756 -4.7798 0
M  V30 447 N 41.3868 0.248026 -1.55636 0
M  V30 448 C 42.6168 0.992367 -1.81206 0
M  V30 449 C 43.0248 1.7949 -0.598324 0
M  V30 450 O 42.3678 1.78292 0.442434 0
M  V30 451 C 42.4298 1.97926 -3.00109 0
M  V30 452 C 42.0938 1.36377 -4.36177 0
M  V30 453 C 43.0908 0.76682 -5.14214 0
M  V30 454 C 40.7758 1.38347 -4.82872 0
M  V30 455 C 42.7698 0.197778 -6.37093 0
M  V30 456 C 40.4568 0.810574 -6.057 0
M  V30 457 C 41.4548 0.218754 -6.8265 0
M  V30 458 O 41.1428 -0.345298 -8.03158 0
M  V30 459 H 40.8748 0.297704 -0.606917 0
M  V30 460 H 43.4288 0.276517 -2.0353 0
M  V30 461 H 41.6588 2.73339 -2.73538 0
M  V30 462 H 43.3478 2.58694 -3.12781 0
M  V30 463 H 44.1138 0.744114 -4.79258 0
M  V30 464 H 39.9928 1.8335 -4.2297 0
M  V30 465 H 43.5368 -0.264788 -6.97097 0
M  V30 466 H 39.4338 0.830604 -6.40134 0
M  V30 467 H 40.2018 -0.237055 -8.18157 0
M  V30 468 N 42.8649 1.48995 0.513639 0
M  V30 469 C 44.1049 1.59452 1.27885 0
M  V30 470 C 44.4689 0.269479 1.90099 0
M  V30 471 O 45.6699 0.249139 2.67643 0
M  V30 472 C 43.9409 2.71277 2.32688 0
M  V30 473 S 45.4999 3.01604 3.18717 0
M  V30 474 H 42.3179 0.562565 0.434789 0
M  V30 475 H 44.9199 1.86595 0.583301 0
M  V30 476 H 43.6239 3.66089 1.8549 0
M  V30 477 H 43.1549 2.46086 3.06929 0
M  V30 478 H 45.1699 2.42155 4.331 0
M  V30 479 N 44.343 -0.763751 1.37857 0
M  V30 480 C 45.291 -1.89864 1.34367 0
M  V30 481 C 46.285 -1.67816 0.231143 0
M  V30 482 O 47.491 -1.75508 0.399617 0
M  V30 483 H 43.866 -0.624501 0.41893 0
M  V30 484 H 45.837 -1.89925 2.30155 0
M  V30 485 C 44.586 -3.27227 1.1755 0
M  V30 486 H 43.909 -3.44773 2.02414 0
M  V30 487 H 45.349 -4.06911 1.1916 0
M  V30 488 C 43.808 -3.36692 -0.118311 0
M  V30 489 O 44.338 -3.86374 -1.09902 0
M  V30 490 N 42.544 -2.90092 -0.171717 0
M  V30 491 H 42.091 -2.49853 0.627012 0
M  V30 492 H 42.049 -2.96806 -1.03699 0
M  V30 493 N 45.8211 -1.22559 -0.990812 0
M  V30 494 C 47.0461 -1.07862 -1.77145 0
M  V30 495 C 47.4711 0.366447 -1.84496 0
M  V30 496 O 46.8291 1.26478 -1.29896 0
M  V30 497 C 46.8771 -1.69686 -3.18181 0
M  V30 498 O 45.9811 -0.951946 -4.01263 0
M  V30 499 H 45.3221 -0.378712 -0.545411 0
M  V30 500 H 47.8521 -1.62399 -1.2445 0
M  V30 501 H 47.8621 -1.74496 -3.68802 0
M  V30 502 H 46.5371 -2.74841 -3.12146 0
M  V30 503 H 45.1141 -0.980011 -3.59792 0
M  V30 504 N 47.2992 1.18797 -1.03562 0
M  V30 505 C 48.5242 1.9314 -0.755764 0
M  V30 506 C 48.9492 1.7537 0.68022 0
M  V30 507 O 48.3072 1.06046 1.47051 0
M  V30 508 C 48.3552 3.42747 -1.12058 0
M  V30 509 O 47.4592 4.11683 -0.243124 0
M  V30 510 H 46.8002 0.602724 -0.278604 0
M  V30 511 H 49.3302 1.50678 -1.3841 0
M  V30 512 H 49.3402 3.93437 -1.08035 0
M  V30 513 H 48.0152 3.55002 -2.16672 0
M  V30 514 H 46.5922 3.71323 -0.342539 0
M  V30 515 N 48.7773 0.814389 1.34928 0
M  V30 516 C 50.0543 0.321363 1.92942 0
M  V30 517 C 50.4343 -1.19014 1.74353 0
M  V30 518 O 49.7823 -1.99328 1.11716 0
M  V30 519 C 49.9923 0.741323 3.41036 0
M  V30 520 C 51.3403 0.735266 4.18185 0
M  V30 521 O 52.3643 0.68336 3.49584 0
M  V30 522 O 51.2233 0.800703 5.40602 0
M  V30 523 H 48.3173 0.0858893 0.822528 0
M  V30 524 H 50.8633 0.898609 1.43955 0
M  V30 525 H 49.6353 1.78276 3.4833 0
M  V30 526 H 49.2583 0.139307 3.97356 0
M  V30 527 N 50.2554 -1.46986 0.568584 0
M  V30 528 C 51.5044 -2.01646 0.0465894 0
M  V30 529 C 51.8174 -1.44721 -1.31587 0
M  V30 530 O 53.0234 -1.91113 -1.92842 0
M  V30 531 C 51.4794 -3.59885 0.032752 0
M  V30 532 C 51.0874 -4.25804 1.39266 0
M  V30 533 C 52.8314 -4.22255 -0.436038 0
M  V30 534 C 50.7384 -5.76081 1.33732 0
M  V30 535 H 49.6684 -0.753876 0.013647 0
M  V30 536 H 52.3194 -1.68864 0.718131 0
M  V30 537 H 50.7014 -3.8968 -0.704669 0
M  V30 538 H 51.8754 -4.07637 2.1487 0
M  V30 539 H 50.1904 -3.7547 1.80032 0
M  V30 540 H 52.7874 -5.32394 -0.49602 0
M  V30 541 H 53.1304 -3.90212 -1.45053 0
M  V30 542 H 53.6634 -3.97033 0.246877 0
M  V30 543 H 50.4024 -6.12761 2.32817 0
M  V30 544 H 49.9224 -5.96553 0.623267 0
M  V30 545 H 51.6014 -6.38518 1.0442 0
M  V30 546 N 51.7335 -0.305618 -1.54608 0
M  V30 547 C 52.6665 0.610536 -2.19881 0
M  V30 548 C 53.6445 1.1294 -1.16976 0
M  V30 549 O 54.8285 1.19673 -1.45638 0
M  V30 550 C 51.9555 1.83583 -2.84631 0
M  V30 551 C 51.0015 1.4498 -4.01102 0
M  V30 552 S 51.8345 0.501793 -5.33144 0
M  V30 553 C 52.9905 1.73478 -6.01379 0
M  V30 554 H 53.2235 0.0560177 -2.97247 0
M  V30 555 H 50.7565 -0.0897434 -1.54139 0
M  V30 556 H 52.7145 2.53898 -3.22562 0
M  V30 557 H 51.3755 2.36152 -2.07102 0
M  V30 558 H 50.5685 2.36236 -4.45206 0
M  V30 559 H 50.1705 0.826553 -3.64752 0
M  V30 560 H 52.4625 2.67473 -6.22467 0
M  V30 561 H 53.4055 1.33622 -6.95378 0
M  V30 562 H 53.8135 1.9136 -5.31076 0
M  V30 563 N 53.2116 1.57565 -0.0334293 0
M  V30 564 C 54.4886 1.83282 0.683163 0
M  V30 565 C 54.8686 0.91823 1.90084 0
M  V30 566 O 54.2166 -0.025113 2.28486 0
M  V30 567 C 54.4266 3.32599 1.0573 0
M  V30 568 C 55.7746 3.99179 1.44711 0
M  V30 569 O 56.7986 3.3712 1.15015 0
M  V30 570 O 55.6576 5.08565 2.0006 0
M  V30 571 H 52.7516 0.755869 0.335546 0
M  V30 572 H 55.2976 1.69589 -0.0614402 0
M  V30 573 H 54.0696 3.90834 0.190828 0
M  V30 574 H 53.6926 3.51415 1.85993 0
M  V30 575 N 54.6897 -0.239769 1.55765 0
M  V30 576 C 55.6197 -1.30052 1.9393 0
M  V30 577 C 56.6007 -1.49839 0.805132 0
M  V30 578 O 57.7857 -1.62328 1.06599 0
M  V30 579 C 54.9157 -2.65391 2.2402 0
M  V30 580 C 53.8697 -2.60289 3.39755 0
M  V30 581 C 53.1957 -3.99489 3.55405 0
M  V30 582 C 54.4957 -2.16654 4.75246 0
M  V30 583 H 56.1897 -0.983573 2.82783 0
M  V30 584 H 53.7357 -0.471701 1.36055 0
M  V30 585 H 55.6887 -3.3974 2.49308 0
M  V30 586 H 54.4127 -2.98736 1.32 0
M  V30 587 H 53.0717 -1.88398 3.14487 0
M  V30 588 H 52.7197 -4.30112 2.60793 0
M  V30 589 H 52.4197 -3.96962 4.33238 0
M  V30 590 H 53.9437 -4.75528 3.83022 0
M  V30 591 H 55.3577 -2.80737 4.99859 0
M  V30 592 H 53.7547 -2.25223 5.56232 0
M  V30 593 H 54.8247 -1.11835 4.71827 0
M  V30 594 N 56.1678 -1.49265 -0.50573 0
M  V30 595 C 57.4148 -1.58513 -1.26015 0
M  V30 596 C 57.7428 -0.26972 -1.92621 0
M  V30 597 O 56.9978 0.741997 -1.81088 0
M  V30 598 C 57.2968 -2.69008 -2.35308 0
M  V30 599 C 56.9628 -4.10662 -1.86192 0
M  V30 600 C 55.6248 -4.49212 -1.72516 0
M  V30 601 C 57.9768 -4.99336 -1.49375 0
M  V30 602 C 55.3048 -5.74214 -1.20394 0
M  V30 603 C 57.6568 -6.24852 -0.987072 0
M  V30 604 C 56.3208 -6.62236 -0.836669 0
M  V30 605 H 55.5908 -0.580041 -0.461122 0
M  V30 606 H 58.2378 -1.83078 -0.561665 0
M  V30 607 H 56.5428 -2.38396 -3.10926 0
M  V30 608 H 58.2398 -2.73373 -2.93374 0
M  V30 609 H 54.8298 -3.8023 -1.97795 0
M  V30 610 H 59.0138 -4.70212 -1.5879 0
M  V30 611 H 54.2698 -6.01883 -1.07458 0
M  V30 612 H 58.4438 -6.92944 -0.692983 0
M  V30 613 H 56.0708 -7.58979 -0.430607 0
M  V30 614 N 57.6459 0.756429 -1.3826 0
M  V30 615 C 58.8859 1.52833 -1.35725 0
M  V30 616 C 59.2499 1.91926 0.0534106 0
M  V30 617 O 60.4509 2.68028 0.203613 0
M  V30 618 C 58.7219 2.74919 -2.28373 0
M  V30 619 S 60.2809 3.64817 -2.43832 0
M  V30 620 H 57.0989 0.523043 -0.481608 0
M  V30 621 H 59.7009 0.888212 -1.74158 0
M  V30 622 H 58.4049 2.44304 -3.29763 0
M  V30 623 H 57.9359 3.43878 -1.91079 0
M  V30 624 H 59.9509 4.676 -1.66027 0
M  V30 625 N 59.124 1.23083 0.984299 0
M  V30 626 C 60.373 1.05466 1.71929 0
M  V30 627 C 60.686 -0.409211 1.91272 0
M  V30 628 O 61.892 -0.705226 2.62181 0
M  V30 629 C 60.348 1.83874 3.09384 0
M  V30 630 C 59.956 3.34566 2.97943 0
M  V30 631 C 61.7 1.74734 3.8687 0
M  V30 632 C 59.607 4.05381 4.30605 0
M  V30 633 H 58.537 0.391039 0.644674 0
M  V30 634 H 61.188 1.47013 1.09815 0
M  V30 635 H 59.57 1.35131 3.72231 0
M  V30 636 H 60.744 3.90767 2.44209 0
M  V30 637 H 59.059 3.44476 2.33934 0
M  V30 638 H 61.656 2.24957 4.85076 0
M  V30 639 H 61.999 0.709372 4.10212 0
M  V30 640 H 62.532 2.21067 3.30717 0
M  V30 641 H 59.271 5.09467 4.1246 0
M  V30 642 H 58.791 3.53967 4.84218 0
M  V30 643 H 60.47 4.11458 4.99311 0
M  V30 644 N 60.6021 -1.18246 1.0419 0
M  V30 645 C 61.5651 -2.20128 0.638452 0
M  V30 646 C 62.5651 -1.57885 -0.304805 0
M  V30 647 O 63.7551 -1.73967 -0.0900369 0
M  V30 648 C 60.8871 -3.4084 -0.0637751 0
M  V30 649 H 62.0801 -2.57336 1.54007 0
M  V30 650 H 59.6331 -1.32152 0.834598 0
M  V30 651 H 60.3681 -3.09166 -0.979136 0
M  V30 652 H 60.1531 -3.8726 0.614198 0
M  V30 653 H 61.6431 -4.16274 -0.332512 0
M  V30 654 N 62.0802 -0.821533 -1.34494 0
M  V30 655 C 63.3082 -0.421884 -2.02553 0
M  V30 656 C 63.7232 0.971745 -1.61872 0
M  V30 657 O 63.0802 1.62864 -0.823496 0
M  V30 658 C 63.1312 -0.51285 -3.57844 0
M  V30 659 O 62.8522 -1.85155 -3.97051 0
M  V30 660 C 64.3532 -0.107921 -4.43169 0
M  V30 661 H 61.5732 -0.169482 -0.649243 0
M  V30 662 H 64.1172 -1.1093 -1.71798 0
M  V30 663 H 62.2722 0.126474 -3.87193 0
M  V30 664 H 62.6862 -1.82482 -4.91732 0
M  V30 665 H 64.1602 -0.222657 -5.51551 0
M  V30 666 H 64.6372 0.948401 -4.28838 0
M  V30 667 H 65.2432 -0.720989 -4.19144 0
M  V30 668 N 63.5583 1.46682 -0.576371 0
M  V30 669 C 64.8063 2.02013 -0.0594163 0
M  V30 670 C 65.1273 1.45101 1.30271 0
M  V30 671 O 64.3973 0.633317 1.8538 0
M  V30 672 H 62.9773 0.746759 -0.0189745 0
M  V30 673 H 65.6393 1.79862 -0.750717 0
M  V30 674 H 64.7353 3.12097 0.014345 0
M  V30 675 N 65.0364 0.313813 1.54444 0
M  V30 676 C 65.9664 -0.549454 2.26943 0
M  V30 677 C 66.9474 -1.12741 1.27372 0
M  V30 678 O 68.1324 -1.15436 1.56167 0
M  V30 679 C 65.2624 -1.71523 3.01989 0
M  V30 680 C 64.2164 -1.26703 4.08816 0
M  V30 681 C 63.5424 -2.51898 4.71647 0
M  V30 682 C 64.8424 -0.388962 5.2085 0
M  V30 683 H 66.5364 0.0552661 2.99349 0
M  V30 684 H 64.0824 0.0280207 1.43973 0
M  V30 685 H 66.0354 -2.32535 3.51433 0
M  V30 686 H 64.7594 -2.34639 2.27183 0
M  V30 687 H 63.4184 -0.679896 3.6024 0
M  V30 688 H 63.0664 -3.13356 3.93468 0
M  V30 689 H 62.7664 -2.22605 5.43802 0
M  V30 690 H 64.2904 -3.1369 5.23861 0
M  V30 691 H 65.7044 -0.905107 5.6611 0
M  V30 692 H 64.1014 -0.18924 5.99802 0
M  V30 693 H 65.1714 0.582699 4.81386 0
M  V30 694 N 66.5145 -1.57545 0.0417849 0
M  V30 695 C 67.9255 -1.80011 -0.495259 0
M  V30 696 C 68.2765 -0.953199 -1.71489 0
M  V30 697 O 67.4015 -0.167138 -2.15754 0
M  V30 698 C 67.9965 -3.26482 -0.905265 0
M  V30 699 C 66.5555 -3.499 -1.38734 0
M  V30 700 C 65.7025 -2.74979 -0.358056 0
M  V30 701 H 68.6535 -1.56425 0.267736 0
M  V30 702 H 68.6745 -3.36887 -1.76882 0
M  V30 703 H 68.1865 -3.88096 -0.017401 0
M  V30 704 H 66.2875 -2.93553 -2.29471 0
M  V30 705 H 66.4005 -4.58615 -1.38598 0
M  V30 706 H 64.7645 -2.40834 -0.828912 0
M  V30 707 H 65.5475 -3.39315 0.521561 0
M  V30 708 N 67.9926 0.231505 -1.5589 0
M  V30 709 C 69.4086 0.580748 -1.48659 0
M  V30 710 C 69.6086 1.87617 -0.73498 0
M  V30 711 O 68.6646 2.51046 -0.270586 0
M  V30 712 C 69.9776 0.669202 -2.93159 0
M  V30 713 C 71.5256 0.760499 -3.03621 0
M  V30 714 C 72.0006 0.880383 -4.49459 0
M  V30 715 N 73.4916 0.944861 -4.53461 0
M  V30 716 C 74.2266 1.05716 -5.63571 0
M  V30 717 N 73.7226 1.13403 -6.83456 0
M  V30 718 N 75.5156 1.09152 -5.514 0
M  V30 719 H 67.6666 -0.618695 -2.03189 0
M  V30 720 H 69.9296 -0.215728 -0.923128 0
M  V30 721 H 69.6356 -0.212904 -3.51055 0
M  V30 722 H 69.5096 1.5361 -3.44505 0
M  V30 723 H 71.8966 1.63305 -2.45796 0
M  V30 724 H 71.9776 -0.131864 -2.5546 0
M  V30 725 H 71.6216 0.0123284 -5.07899 0
M  V30 726 H 71.5516 1.78802 -4.95316 0
M  V30 727 H 74.0426 0.896176 -3.6712 0
M  V30 728 H 74.3556 1.21921 -7.63122 0
M  V30 729 H 72.7006 1.10333 -6.86186 0
M  V30 730 H 75.8916 1.02805 -4.56671 0
M  V30 731 H 76.0646 1.17558 -6.37247 0
M  V30 732 N 69.4707 1.49531 0.497807 0
M  V30 733 C 70.4187 1.66926 1.61983 0
M  V30 734 C 71.4127 0.535167 1.60724 0
M  V30 735 O 72.6187 0.714896 1.65195 0
M  V30 736 H 68.9937 0.526415 0.537021 0
M  V30 737 H 70.9647 2.61098 1.44465 0
M  V30 738 C 69.7137 1.75602 3.00099 0
M  V30 739 H 69.0367 2.62244 3.01775 0
M  V30 740 H 70.4767 1.91807 3.78135 0
M  V30 741 C 68.9357 0.501543 3.33146 0
M  V30 742 O 69.4657 -0.371342 3.9998 0
M  V30 743 N 67.6717 0.363531 2.88317 0
M  V30 744 H 67.2187 1.07485 2.34104 0
M  V30 745 H 67.1767 -0.474728 3.10795 0
M  V30 746 N 70.9488 -0.749086 1.3866 0
M  V30 747 C 72.1768 -1.53834 1.38358 0
M  V30 748 C 72.5918 -1.88783 -0.0255219 0
M  V30 749 O 71.9488 -1.53101 -0.993292 0
M  V30 750 C 71.9998 -2.83468 2.2434 0
M  V30 751 O 71.7208 -2.50008 3.5976 0
M  V30 752 C 73.2218 -3.7758 2.32267 0
M  V30 753 H 70.4418 -0.47585 0.473083 0
M  V30 754 H 72.9858 -0.926726 1.82297 0
M  V30 755 H 71.1408 -3.40995 1.83851 0
M  V30 756 H 71.5548 -3.33182 4.05081 0
M  V30 757 H 73.0288 -4.65478 2.96706 0
M  V30 758 H 73.5058 -4.18334 1.33765 0
M  V30 759 H 74.1118 -3.25976 2.73166 0
M  V30 760 N 72.4269 -1.23603 -0.977757 0
M  V30 761 C 73.6549 -1.09646 -1.75458 0
M  V30 762 C 74.0699 0.351859 -1.85492 0
M  V30 763 O 73.4269 1.24327 -1.336 0
M  V30 764 C 73.4779 -1.71895 -3.18016 0
M  V30 765 O 73.1989 -3.11063 -3.08498 0
M  V30 766 C 74.6999 -1.63415 -4.12081 0
M  V30 767 H 71.9199 -0.38359 -0.550545 0
M  V30 768 H 74.4639 -1.63507 -1.22824 0
M  V30 769 H 72.6189 -1.22061 -3.67668 0
M  V30 770 H 73.0329 -3.41305 -3.9826 0
M  V30 771 H 74.5069 -2.11669 -5.09804 0
M  V30 772 H 74.9839 -0.593462 -4.35172 0
M  V30 773 H 75.5899 -2.12628 -3.68334 0
M  V30 774 N 73.905 1.17692 -1.04816 0
M  V30 775 C 75.154 1.87192 -0.751132 0
M  V30 776 C 75.467 1.8169 0.724441 0
M  V30 777 O 76.673 2.46625 1.13527 0
M  V30 778 C 75.129 3.35857 -1.29338 0
M  V30 779 C 74.737 3.4987 -2.79812 0
M  V30 780 C 76.481 4.10709 -1.07322 0
M  V30 781 C 74.388 4.92536 -3.27356 0
M  V30 782 H 73.318 0.701162 -0.277288 0
M  V30 783 H 75.969 1.32932 -1.26496 0
M  V30 784 H 74.351 3.89631 -0.707376 0
M  V30 785 H 75.525 3.06332 -3.44235 0
M  V30 786 H 73.84 2.88433 -3.00325 0
M  V30 787 H 76.437 5.15952 -1.4035 0
M  V30 788 H 76.78 4.16299 -0.0108001 0
M  V30 789 H 77.313 3.6313 -1.62423 0
M  V30 790 H 74.052 4.92119 -4.33012 0
M  V30 791 H 73.572 5.3676 -2.67673 0
M  V30 792 H 75.251 5.61288 -3.21815 0
M  V30 793 N 75.3831 0.828654 1.34056 0
M  V30 794 C 76.6081 0.431637 2.02859 0
M  V30 795 C 77.0331 -0.956339 1.61975 0
M  V30 796 O 76.3911 -1.62338 0.807228 0
M  V30 797 C 76.4391 0.548323 3.56407 0
M  V30 798 O 75.5431 -0.429556 4.10157 0
M  V30 799 H 74.8841 0.176886 0.640006 0
M  V30 800 H 77.4141 1.12066 1.71179 0
M  V30 801 H 77.4241 0.426196 4.05768 0
M  V30 802 H 76.0991 1.5606 3.8551 0
M  V30 803 H 74.6761 -0.265836 3.71951 0
M  V30 804 N 76.8612 -1.46375 0.584142 0
M  V30 805 C 77.7912 -2.33103 -0.136037 0
M  V30 806 C 78.7722 -1.45431 -0.882255 0
M  V30 807 O 79.9572 -1.74246 -0.857434 0
M  V30 808 C 77.0872 -3.27731 -1.14933 0
M  V30 809 C 76.0412 -4.24855 -0.517862 0
M  V30 810 C 75.3672 -5.09001 -1.63773 0
M  V30 811 C 76.6672 -5.19439 0.545886 0
M  V30 812 H 78.3612 -2.93568 0.588086 0
M  V30 813 H 75.9072 -1.41166 0.284259 0
M  V30 814 H 77.8602 -3.87261 -1.66153 0
M  V30 815 H 76.5842 -2.65377 -1.90375 0
M  V30 816 H 75.2432 -3.6659 -0.0267361 0
M  V30 817 H 74.8912 -4.43031 -2.38185 0
M  V30 818 H 74.5912 -5.74777 -1.22085 0
M  V30 819 H 76.1152 -5.71396 -2.15266 0
M  V30 820 H 77.5292 -5.73177 0.118704 0
M  V30 821 H 75.9262 -5.93566 0.88317 0
M  V30 822 H 76.9962 -4.63285 1.43162 0
M  V30 823 N 78.3393 -0.321999 -1.54275 0
M  V30 824 C 79.2693 0.537411 -2.27231 0
M  V30 825 C 80.2503 1.12064 -1.27968 0
M  V30 826 O 81.4353 1.14606 -1.56777 0
M  V30 827 C 78.5653 1.69919 -3.02894 0
M  V30 828 C 77.5193 1.24534 -4.09482 0
M  V30 829 C 76.8453 2.49394 -4.72977 0
M  V30 830 C 78.1453 0.361335 -5.21049 0
M  V30 831 H 79.8393 -0.0711406 -2.99315 0
M  V30 832 H 77.3853 -0.0356555 -1.43956 0
M  V30 833 H 79.3383 2.30668 -3.52662 0
M  V30 834 H 78.0623 2.33431 -2.28424 0
M  V30 835 H 76.7213 0.660782 -3.60596 0
M  V30 836 H 76.3693 3.11265 -3.95124 0
M  V30 837 H 76.0693 2.19718 -5.44975 0
M  V30 838 H 77.5933 3.10908 -5.25517 0
M  V30 839 H 79.0073 0.875072 -5.66582 0
M  V30 840 H 77.4043 0.157428 -5.99893 0
M  V30 841 H 78.4743 -0.60822 -4.8107 0
M  V30 842 N 79.8174 1.5752 -0.0501392 0
M  V30 843 C 81.0454 1.96963 0.633492 0
M  V30 844 C 81.4604 0.927631 1.6444 0
M  V30 845 O 80.8174 -0.0882665 1.82286 0
M  V30 846 C 80.8684 3.36487 1.32132 0
M  V30 847 O 80.5894 4.36693 0.350894 0
M  V30 848 C 82.0904 3.90682 2.09481 0
M  V30 849 H 79.3104 0.648244 0.173266 0
M  V30 850 H 81.8544 2.0417 -0.116134 0
M  V30 851 H 80.0094 3.30434 2.02218 0
M  V30 852 H 80.4234 5.17702 0.841735 0
M  V30 853 H 81.8974 4.90591 2.5303 0
M  V30 854 H 82.3744 3.26053 2.94255 0
M  V30 855 H 82.9804 4.00069 1.44307 0
M  V30 856 N 81.2955 -0.223234 1.56011 0
M  V30 857 C 82.5235 -0.964812 1.83027 0
M  V30 858 C 82.9385 -1.78013 0.62904 0
M  V30 859 O 82.2955 -1.78008 -0.402414 0
M  V30 860 C 82.3465 -1.88373 3.08542 0
M  V30 861 O 82.0675 -1.10137 4.2403 0
M  V30 862 C 83.5685 -2.73934 3.48533 0
M  V30 863 H 80.7885 -0.282842 0.608475 0
M  V30 864 H 83.3325 -0.238971 2.03099 0
M  V30 865 H 81.4875 -2.56354 2.9045 0
M  V30 866 H 81.9015 -1.72501 4.95322 0
M  V30 867 H 83.3755 -3.34117 4.39397 0
M  V30 868 H 83.8525 -3.46244 2.70207 0
M  V30 869 H 84.4585 -2.11369 3.69057 0
M  V30 870 N 82.7736 -1.49793 -0.48987 0
M  V30 871 C 84.0506 -1.50348 -1.25119 0
M  V30 872 C 84.4306 -0.237466 -2.0976 0
M  V30 873 O 83.7786 0.77981 -2.14782 0
M  V30 874 C 83.9886 -2.78872 -2.09837 0
M  V30 875 C 85.3366 -3.288 -2.68655 0
M  V30 876 O 86.3606 -2.80065 -2.20096 0
M  V30 877 O 85.2196 -4.13707 -3.57083 0
M  V30 878 H 82.3136 -0.602242 -0.566775 0
M  V30 879 H 84.8596 -1.62067 -0.503229 0
M  V30 880 H 83.6316 -3.62499 -1.47343 0
M  V30 881 H 83.2546 -2.70066 -2.91805 0
M  V30 882 N 84.2517 0.741722 -1.39055 0
M  V30 883 C 85.5287 1.49252 -1.26425 0
M  V30 884 C 85.9087 2.10705 0.129144 0
M  V30 885 O 85.2567 1.98045 1.13976 0
M  V30 886 C 85.4667 2.54934 -2.38347 0
M  V30 887 C 86.8147 3.21506 -2.77343 0
M  V30 888 O 87.8387 2.65245 -2.37747 0
M  V30 889 O 86.6977 4.23294 -3.45665 0
M  V30 890 H 83.7917 0.662451 -0.495064 0
M  V30 891 H 86.3377 0.776121 -1.50912 0
M  V30 892 H 85.1097 2.07857 -3.31529 0
M  V30 893 H 84.7327 3.34141 -2.15489 0
M  V30 894 N 85.7298 1.2412 0.971189 0
M  V30 895 C 86.6928 1.03156 2.04674 0
M  V30 896 C 87.6928 -0.00990322 1.60797 0
M  V30 897 O 88.8828 0.230729 1.72665 0
M  V30 898 C 86.0148 0.562765 3.36223 0
M  V30 899 H 87.2078 1.98614 2.24705 0
M  V30 900 H 84.7608 1.06293 1.14593 0
M  V30 901 H 85.4958 -0.395176 3.21883 0
M  V30 902 H 85.2808 1.31441 3.69413 0
M  V30 903 H 86.7708 0.437015 4.15307 0
M  V30 904 N 87.2079 -1.17134 1.05439 0
M  V30 905 C 88.1409 -2.2012 0.601855 0
M  V30 906 C 89.1189 -1.58314 -0.370854 0
M  V30 907 O 90.3029 -1.8638 -0.281882 0
M  V30 908 C 87.4299 -3.38491 -0.118868 0
M  V30 909 C 86.4759 -4.18752 0.809242 0
M  V30 910 S 87.3089 -4.83602 2.29977 0
M  V30 911 C 88.4649 -6.0536 1.59029 0
M  V30 912 H 88.6979 -2.58165 1.47438 0
M  V30 913 H 86.2309 -1.27788 0.866573 0
M  V30 914 H 88.1889 -4.07084 -0.528495 0
M  V30 915 H 86.8499 -2.98829 -0.967465 0
M  V30 916 H 86.0429 -5.03373 0.251379 0
M  V30 917 H 85.6449 -3.5561 1.15835 0
M  V30 918 H 87.9369 -6.71615 0.891017 0
M  V30 919 H 88.8799 -6.65679 2.41407 0
M  V30 920 H 89.2879 -5.54138 1.07663 0
M  V30 921 N 88.686 -0.835752 -1.33615 0
M  V30 922 C 89.932 -0.430596 -1.98176 0
M  V30 923 C 90.265 1.00684 -1.66061 0
M  V30 924 O 89.54 1.70339 -0.938877 0
M  V30 925 C 89.823 -0.648065 -3.5422 0
M  V30 926 C 89.676 -2.13255 -3.96033 0
M  V30 927 C 90.995 -0.0922113 -4.40003 0
M  V30 928 H 88.114 -0.157924 -0.719881 0
M  V30 929 H 90.756 -1.05069 -1.58305 0
M  V30 930 H 88.906 -0.120237 -3.88314 0
M  V30 931 H 90.578 -2.725 -3.72211 0
M  V30 932 H 88.821 -2.61823 -3.45878 0
M  V30 933 H 89.492 -2.23547 -5.04708 0
M  V30 934 H 91.968 -0.543343 -4.12537 0
M  V30 935 H 90.844 -0.274083 -5.48215 0
M  V30 936 H 91.105 1.00378 -4.30554 0
M  V30 937 N 90.1641 1.46063 -0.591896 0
M  V30 938 C 91.3891 2.07226 -0.0850314 0
M  V30 939 C 91.8141 1.43625 1.21463 0
M  V30 940 O 91.1721 0.523305 1.73583 0
M  V30 941 C 91.2201 3.60554 0.0576567 0
M  V30 942 O 90.3241 3.97128 1.11188 0
M  V30 943 H 89.6651 0.660615 -0.0669568 0
M  V30 944 H 92.1951 1.8756 -0.81745 0
M  V30 945 H 92.2051 4.07165 0.2609 0
M  V30 946 H 90.8801 4.06235 -0.891416 0
M  V30 947 H 89.4571 3.62213 0.886356 0
M  V30 948 N 91.6422 0.330177 1.54103 0
M  V30 949 C 92.8912 -0.271336 1.99867 0
M  V30 950 C 93.2042 -1.52723 1.22209 0
M  V30 951 O 94.4102 -2.20515 1.58383 0
M  V30 952 C 92.8662 -0.534032 3.55916 0
M  V30 953 C 92.4742 0.705193 4.42415 0
M  V30 954 C 94.2182 -1.09514 4.1013 0
M  V30 955 C 92.1252 0.414035 5.89949 0
M  V30 956 H 91.0552 -0.105166 0.74663 0
M  V30 957 H 93.7062 0.443429 1.78062 0
M  V30 958 H 92.0882 -1.30915 3.73734 0
M  V30 959 H 93.2622 1.4804 4.36372 0
M  V30 960 H 91.5772 1.18698 3.99124 0
M  V30 961 H 94.1742 -1.3277 5.17954 0
M  V30 962 H 94.5172 -2.04656 3.62521 0
M  V30 963 H 95.0502 -0.381038 3.95971 0
M  V30 964 H 91.7892 1.33481 6.41766 0
M  V30 965 H 91.3092 -0.323336 5.98928 0
M  V30 966 H 92.9882 0.0263105 6.46995 0
M  V30 967 N 93.1203 -1.57491 0.0584922 0
M  V30 968 C 94.3973 -1.84346 -0.653918 0
M  V30 969 C 94.7773 -0.948355 -1.88599 0
M  V30 970 O 94.1253 -0.0112403 -2.28497 0
M  V30 971 C 94.3353 -3.34239 -1.00425 0
M  V30 972 C 95.6833 -4.01431 -1.38342 0
M  V30 973 O 96.7073 -3.38907 -1.09637 0
M  V30 974 O 95.5663 -5.11683 -1.91943 0
M  V30 975 H 92.6603 -0.761112 -0.323478 0
M  V30 976 H 95.2063 -1.6947 0.0884125 0
M  V30 977 H 93.9783 -3.91089 -0.128625 0
M  V30 978 H 93.6013 -3.54329 -1.80378 0
M  V30 979 N 94.5984 0.214957 -1.56127 0
M  V30 980 C 96.0094 0.781386 -1.69562 0
M  V30 981 C 96.3604 1.84707 -0.66165 0
M  V30 982 O 95.4854 2.156 0.185927 0
M  V30 983 C 96.0804 1.42411 -3.07416 0
M  V30 984 C 94.6394 1.93786 -3.22683 0
M  V30 985 C 93.7864 0.800438 -2.65496 0
M  V30 986 H 96.7374 -0.00980633 -1.58697 0
M  V30 987 H 96.7584 2.29309 -3.0364 0
M  V30 988 H 96.2704 0.64826 -3.82648 0
M  V30 989 H 94.3714 2.74152 -2.52332 0
M  V30 990 H 94.4844 2.1133 -4.29973 0
M  V30 991 H 92.8484 1.2095 -2.2415 0
M  V30 992 H 93.6314 0.0371471 -3.4328 0
M  V30 993 N 96.0765 1.50051 0.48192 0
M  V30 994 C 97.3045 1.64237 1.25832 0
M  V30 995 C 97.7195 0.321336 1.86045 0
M  V30 996 O 97.0765 -0.695478 1.68729 0
M  V30 997 C 97.1275 2.72548 2.37487 0
M  V30 998 O 96.8485 3.99529 1.79745 0
M  V30 999 C 98.3495 2.9761 3.28547 0
M  V30 1000 H 95.5695 0.55237 0.380957 0
M  V30 1001 H 98.1135 1.96207 0.576467 0
M  V30 1002 H 96.2685 2.43303 3.01467 0
M  V30 1003 H 96.6825 4.59342 2.5319 0
M  V30 1004 H 98.1565 3.77084 4.03127 0
M  V30 1005 H 98.6335 2.0826 3.86684 0
M  V30 1006 H 99.2395 3.28345 2.70314 0
M  V30 1007 N 97.5546 -0.734337 1.39446 0
M  V30 1008 C 98.4876 -1.85715 1.32609 0
M  V30 1009 C 99.4656 -1.6137 0.199636 0
M  V30 1010 O 100.65 -1.84626 0.380195 0
M  V30 1011 C 97.7766 -3.21709 1.05929 0
M  V30 1012 C 96.8226 -3.64913 2.20773 0
M  V30 1013 S 97.6556 -3.74203 3.83056 0
M  V30 1014 C 98.8116 -5.12986 3.58603 0
M  V30 1015 H 99.0446 -1.91232 2.27635 0
M  V30 1016 H 96.5776 -0.899263 1.25509 0
M  V30 1017 H 98.5356 -4.00236 0.912203 0
M  V30 1018 H 97.1966 -3.13848 0.125883 0
M  V30 1019 H 96.3896 -4.63606 1.97699 0
M  V30 1020 H 95.9916 -2.93593 2.31688 0
M  V30 1021 H 98.2836 -5.99339 3.15909 0
M  V30 1022 H 99.2266 -5.41088 4.5676 0
M  V30 1023 H 99.6346 -4.82694 2.9269 0
M  V30 1024 N 99.0327 -1.24633 -0.964593 0
M  V30 1025 C 100.444 -1.08045 -1.5226 0
M  V30 1026 C 100.795 0.347116 -1.93105 0
M  V30 1027 O 99.9197 1.23588 -1.77637 0
M  V30 1028 C 100.515 -1.95514 -2.76695 0
M  V30 1029 C 99.0737 -1.8314 -3.28841 0
M  V30 1030 C 98.2207 -1.90262 -2.01732 0
M  V30 1031 H 101.172 -1.38064 -0.782553 0
M  V30 1032 H 101.193 -1.48925 -3.50145 0
M  V30 1033 H 100.705 -2.99407 -2.46936 0
M  V30 1034 H 98.8057 -0.82092 -3.63444 0
M  V30 1035 H 98.9187 -2.67406 -3.97531 0
M  V30 1036 H 97.2827 -1.34027 -2.16584 0
M  V30 1037 H 98.0657 -2.9574 -1.74334 0
M  V30 1038 N 100.511 1.16574 -1.06058 0
M  V30 1039 C 101.474 2.19085 -0.673392 0
M  V30 1040 C 102.474 1.5835 0.279648 0
M  V30 1041 O 103.664 1.74088 0.0623488 0
M  V30 1042 C 100.796 3.40899 0.00954234 0
M  V30 1043 H 101.989 2.54853 -1.58081 0
M  V30 1044 H 99.5418 1.30808 -0.855516 0
M  V30 1045 H 100.277 3.10684 0.929826 0
M  V30 1046 H 100.062 3.86233 -0.67573 0
M  V30 1047 H 101.552 4.1675 0.266245 0
M  V30 1048 N 101.989 0.842826 1.3317 0
M  V30 1049 C 102.937 0.267495 2.31057 0
M  V30 1050 C 103.931 -0.602682 1.58316 0
M  V30 1051 O 105.137 -0.491803 1.73151 0
M  V30 1052 H 101.512 0.0677813 0.748939 0
M  V30 1053 H 103.483 1.10754 2.77085 0
M  V30 1054 C 102.232 -0.539331 3.43492 0
M  V30 1055 H 101.555 0.12095 3.99617 0
M  V30 1056 H 102.995 -0.90767 4.14171 0
M  V30 1057 C 101.454 -1.71981 2.89697 0
M  V30 1058 O 101.984 -2.81862 2.86211 0
M  V30 1059 N 100.19 -1.54299 2.46252 0
M  V30 1060 H 99.7369 -0.649143 2.49287 0
M  V30 1061 H 99.6949 -2.33431 2.10612 0
M  V30 1062 N 103.467 -1.45747 0.599634 0
M  V30 1063 C 104.692 -2.07178 0.0960198 0
M  V30 1064 C 105.117 -1.44268 -1.207 0
M  V30 1065 O 104.475 -0.532503 -1.73303 0
M  V30 1066 C 104.523 -3.60579 -0.0385348 0
M  V30 1067 O 103.627 -3.97713 -1.0908 0
M  V30 1068 H 102.968 -0.660251 0.0704593 0
M  V30 1069 H 105.498 -1.87124 0.827385 0
M  V30 1070 H 105.508 -4.07298 -0.239304 0
M  V30 1071 H 104.183 -4.05756 0.912947 0
M  V30 1072 H 102.76 -3.62678 -0.867135 0
M  V30 1073 N 104.945 -0.338344 -1.53925 0
M  V30 1074 C 105.855 0.529421 -2.28548 0
M  V30 1075 C 106.871 1.11645 -1.3346 0
M  V30 1076 O 108.047 1.13325 -1.66492 0
M  V30 1077 C 105.112 1.66713 -3.03987 0
M  V30 1078 C 104.173 1.11041 -4.14691 0
M  V30 1079 C 103.406 2.19389 -4.86522 0
M  V30 1080 O 103.629 3.40013 -4.57982 0
M  V30 1081 O 102.563 1.83976 -5.73094 0
M  V30 1082 H 106.389 -0.0770399 -3.03602 0
M  V30 1083 H 103.974 -0.103555 -1.49041 0
M  V30 1084 H 105.856 2.32918 -3.5118 0
M  V30 1085 H 104.531 2.25949 -2.31794 0
M  V30 1086 H 103.438 0.413024 -3.71813 0
M  V30 1087 H 104.771 0.562975 -4.8897 0
M  V30 1088 N 106.423 1.57458 -0.0668435 0
M  V30 1089 C 107.839 1.56947 0.289772 0
M  V30 1090 C 108.039 1.07584 1.70376 0
M  V30 1091 O 107.095 0.739486 2.41429 0
M  V30 1092 C 108.408 3.0052 0.103943 0
M  V30 1093 C 109.956 3.12517 0.173857 0
M  V30 1094 C 110.431 4.57997 0.0163682 0
M  V30 1095 N 111.922 4.63144 0.0721352 0
M  V30 1096 C 112.657 5.73394 -0.0253794 0
M  V30 1097 N 112.153 6.92576 -0.176133 0
M  V30 1098 N 113.946 5.62091 0.0313305 0
M  V30 1099 H 106.097 1.87863 -0.991027 0
M  V30 1100 H 108.36 0.86583 -0.38606 0
M  V30 1101 H 108.066 3.40729 -0.871572 0
M  V30 1102 H 107.94 3.67304 0.858366 0
M  V30 1103 H 110.327 2.72197 1.13985 0
M  V30 1104 H 110.408 2.48381 -0.611586 0
M  V30 1105 H 110.052 4.99005 -0.946374 0
M  V30 1106 H 109.982 5.20158 0.821153 0
M  V30 1107 H 112.473 3.77436 0.187263 0
M  V30 1108 H 112.786 7.72418 -0.242821 0
M  V30 1109 H 111.131 6.94678 -0.211429 0
M  V30 1110 H 114.322 4.67867 0.147773 0
M  V30 1111 H 114.495 6.47982 -0.048121 0
M  V30 1112 N 107.901 -0.206675 1.56239 0
M  V30 1113 C 109.129 -0.945345 1.8404 0
M  V30 1114 C 109.544 -1.77336 0.647885 0
M  V30 1115 O 108.901 -1.78425 -0.383511 0
M  V30 1116 C 108.952 -1.8509 3.10522 0
M  V30 1117 O 108.673 -1.05634 4.25174 0
M  V30 1118 C 110.174 -2.70222 3.51418 0
M  V30 1119 H 107.394 -0.276372 0.61144 0
M  V30 1120 H 109.938 -0.217417 2.03341 0
M  V30 1121 H 108.093 -2.53259 2.93153 0
M  V30 1122 H 108.507 -1.67238 4.97124 0
M  V30 1123 H 109.981 -3.29438 4.42916 0
M  V30 1124 H 110.458 -3.43358 2.73864 0
M  V30 1125 H 111.064 -2.07443 3.71278 0
M  V30 1126 N 109.379 -1.50304 -0.473955 0
M  V30 1127 C 110.79 -1.54042 -1.0549 0
M  V30 1128 C 111.141 -0.342248 -1.93192 0
M  V30 1129 O 110.266 0.545157 -2.09421 0
M  V30 1130 C 110.861 -2.79152 -1.91989 0
M  V30 1131 C 109.42 -2.8558 -2.45196 0
M  V30 1132 C 108.567 -2.48295 -1.2347 0
M  V30 1133 H 111.518 -1.5661 -0.256693 0
M  V30 1134 H 111.539 -2.60845 -2.7702 0
M  V30 1135 H 111.051 -3.66339 -1.28131 0
M  V30 1136 H 109.152 -2.02738 -3.12615 0
M  V30 1137 H 109.265 -3.88403 -2.80499 0
M  V30 1138 H 107.629 -2.00669 -1.56856 0
M  V30 1139 H 108.412 -3.37787 -0.612789 0
M  V30 1140 N 110.857 0.726932 -1.39834 0
M  V30 1141 C 112.087 1.51393 -1.40583 0
M  V30 1142 C 112.495 1.892 -0.000740625 0
M  V30 1143 O 111.838 1.55189 0.982951 0
M  V30 1144 C 111.9 2.82588 -2.22226 0
M  V30 1145 C 111.564 2.67169 -3.70769 0
M  V30 1146 C 112.561 2.3518 -4.63666 0
M  V30 1147 C 110.246 2.83788 -4.14451 0
M  V30 1148 C 112.24 2.20002 -5.98229 0
M  V30 1149 C 109.927 2.68229 -5.49087 0
M  V30 1150 C 110.925 2.36382 -6.4079 0
M  V30 1151 O 110.613 2.2093 -7.72946 0
M  V30 1152 H 110.345 0.474168 -0.48181 0
M  V30 1153 H 112.899 0.905247 -1.84376 0
M  V30 1154 H 111.129 3.45746 -1.73195 0
M  V30 1155 H 112.818 3.44247 -2.15055 0
M  V30 1156 H 113.584 2.21984 -4.31217 0
M  V30 1157 H 109.463 3.07566 -3.43401 0
M  V30 1158 H 113.007 1.95067 -6.69772 0
M  V30 1159 H 108.904 2.81006 -5.81125 0
M  V30 1160 H 109.672 2.35937 -7.83757 0
M  V30 1161 N 112.336 1.25143 0.95797 0
M  V30 1162 C 113.283 1.05235 2.05412 0
M  V30 1163 C 114.253 -0.0374561 1.66058 0
M  V30 1164 O 115.438 0.119073 1.90428 0
M  V30 1165 C 112.578 0.673589 3.38462 0
M  V30 1166 C 111.691 1.8379 3.90954 0
M  V30 1167 C 110.826 1.40381 5.12315 0
M  V30 1168 C 109.865 2.53746 5.57027 0
M  V30 1169 N 109.002 2.11136 6.69601 0
M  V30 1170 H 113.842 1.99048 2.21774 0
M  V30 1171 H 111.379 0.991277 1.08683 0
M  V30 1172 H 113.337 0.434964 4.14926 0
M  V30 1173 H 111.967 -0.227554 3.21997 0
M  V30 1174 H 111.019 2.18992 3.11041 0
M  V30 1175 H 112.331 2.68937 4.20089 0
M  V30 1176 H 111.485 1.12464 5.96185 0
M  V30 1177 H 110.224 0.523015 4.84887 0
M  V30 1178 H 109.229 2.82412 4.71724 0
M  V30 1179 H 110.454 3.42398 5.86464 0
M  V30 1180 H 108.4 1.25468 6.4389 0
M  V30 1181 H 108.317 2.89832 6.98236 0
M  V30 1182 H 109.585 1.86385 7.56889 0
M  V30 1183 N 113.814 -1.1601 1.06675 0
M  V30 1184 C 115.06 -1.86909 0.786945 0
M  V30 1185 C 115.393 -1.81717 -0.685018 0
M  V30 1186 O 114.668 -1.23551 -1.50218 0
M  V30 1187 C 114.951 -3.36313 1.28707 0
M  V30 1188 C 114.804 -3.50175 2.82308 0
M  V30 1189 C 116.123 -4.3084 0.898071 0
M  V30 1190 H 113.242 -0.678677 0.287343 0
M  V30 1191 H 115.884 -1.36336 1.32334 0
M  V30 1192 H 114.034 -3.79513 0.830768 0
M  V30 1193 H 115.706 -3.15886 3.36175 0
M  V30 1194 H 113.949 -2.91959 3.20847 0
M  V30 1195 H 114.62 -4.55116 3.12368 0
M  V30 1196 H 117.096 -3.95561 1.29114 0
M  V30 1197 H 115.972 -5.33876 1.27543 0
M  V30 1198 H 116.233 -4.41662 -0.196651 0
M  V30 1199 N 115.292 -0.849877 -1.32721 0
M  V30 1200 C 116.708 -0.539102 -1.50219 0
M  V30 1201 C 116.908 0.931271 -1.78689 0
M  V30 1202 O 115.964 1.71455 -1.85363 0
M  V30 1203 C 117.277 -1.42196 -2.64954 0
M  V30 1204 C 118.825 -1.42189 -2.78839 0
M  V30 1205 C 119.3 -2.28985 -3.96648 0
M  V30 1206 N 120.791 -2.26754 -4.03902 0
M  V30 1207 C 121.526 -2.90644 -4.94281 0
M  V30 1208 N 121.022 -3.63629 -5.897 0
M  V30 1209 N 122.815 -2.80057 -4.87365 0
M  V30 1210 H 114.966 -1.80156 -1.12506 0
M  V30 1211 H 117.229 -0.769217 -0.554085 0
M  V30 1212 H 116.935 -2.46733 -2.50631 0
M  V30 1213 H 116.809 -1.10591 -3.60624 0
M  V30 1214 H 119.196 -0.38419 -2.92588 0
M  V30 1215 H 119.277 -1.77807 -1.83898 0
M  V30 1216 H 118.921 -3.32819 -3.83658 0
M  V30 1217 H 118.851 -1.90702 -4.90857 0
M  V30 1218 H 121.342 -1.73688 -3.3562 0
M  V30 1219 H 121.655 -4.09558 -6.55349 0
M  V30 1220 H 120 -3.67737 -5.89741 0
M  V30 1221 H 123.191 -2.22593 -4.11789 0
M  V30 1222 H 123.364 -3.30132 -5.57599 0
M  V30 1223 N 116.77 1.45427 -0.607355 0
M  V30 1224 C 118.181 1.85756 -0.187535 0
M  V30 1225 C 118.532 1.5077 1.25551 0
M  V30 1226 O 117.657 0.93427 1.95193 0
M  V30 1227 C 118.252 3.37154 -0.333572 0
M  V30 1228 C 116.811 3.76387 0.0315542 0
M  V30 1229 C 115.958 2.69377 -0.658117 0
M  V30 1230 H 118.909 1.36231 -0.81405 0
M  V30 1231 H 118.93 3.78014 0.43428 0
M  V30 1232 H 118.442 3.62586 -1.38393 0
M  V30 1233 H 116.543 3.56571 1.0811 0
M  V30 1234 H 116.656 4.77731 -0.361935 0
M  V30 1235 H 115.02 2.5452 -0.0957873 0
M  V30 1236 H 115.803 2.97646 -1.7106 0
M  V30 1237 N 118.248 0.346503 1.53744 0
M  V30 1238 C 119.494 -0.249473 2.0126 0
M  V30 1239 C 119.827 -1.49965 1.23386 0
M  V30 1240 O 119.102 -1.91811 0.32229 0
M  V30 1241 C 119.385 -0.560643 3.55709 0
M  V30 1242 C 119.238 0.701836 4.44291 0
M  V30 1243 C 120.557 -1.36905 4.18264 0
M  V30 1244 H 117.676 -0.0891987 0.731582 0
M  V30 1245 H 120.318 0.467624 1.84156 0
M  V30 1246 H 118.468 -1.17156 3.70414 0
M  V30 1247 H 120.14 1.33974 4.41417 0
M  V30 1248 H 118.383 1.32612 4.13033 0
M  V30 1249 H 119.054 0.43933 5.50249 0
M  V30 1250 H 121.53 -0.852448 4.07275 0
M  V30 1251 H 120.406 -1.55553 5.26398 0
M  V30 1252 H 120.667 -2.37203 3.73078 0
M  V30 1253 N 119.726 -1.57421 0.075193 0
M  V30 1254 C 120.689 -2.11791 -0.876203 0
M  V30 1255 C 121.689 -1.04268 -1.22412 0
M  V30 1256 O 122.879 -1.30242 -1.15684 0
M  V30 1257 C 120.011 -2.62207 -2.17854 0
M  V30 1258 H 121.204 -2.9716 -0.40444 0
M  V30 1259 H 118.757 -1.55333 -0.173557 0
M  V30 1260 H 119.492 -1.803 -2.6956 0
M  V30 1261 H 119.277 -3.40802 -1.93897 0
M  V30 1262 H 120.767 -3.04335 -2.85955 0
M  V30 1263 N 121.204 0.198386 -1.56346 0
M  V30 1264 C 122.453 0.917451 -1.79627 0
M  V30 1265 C 122.766 1.8456 -0.64784 0
M  V30 1266 O 123.972 2.60504 -0.764859 0
M  V30 1267 C 122.428 1.68175 -3.18191 0
M  V30 1268 C 122.036 0.798589 -4.40825 0
M  V30 1269 C 123.78 2.39065 -3.50782 0
M  V30 1270 C 121.687 1.56157 -5.70411 0
M  V30 1271 H 120.617 0.346317 -0.669762 0
M  V30 1272 H 123.268 0.170801 -1.82703 0
M  V30 1273 H 121.65 2.47216 -3.09354 0
M  V30 1274 H 122.824 0.0470665 -4.60776 0
M  V30 1275 H 121.139 0.200686 -4.15916 0
M  V30 1276 H 123.736 2.96692 -4.44835 0
M  V30 1277 H 124.079 3.13091 -2.74371 0
M  V30 1278 H 124.612 1.66993 -3.61052 0
M  V30 1279 H 121.351 0.864142 -6.49779 0
M  V30 1280 H 120.871 2.2871 -5.54483 0
M  V30 1281 H 122.55 2.11622 -6.11412 0
M  V30 1282 N 122.682 1.50554 0.465978 0
M  V30 1283 C 123.629 1.6979 1.56333 0
M  V30 1284 C 124.599 0.539239 1.57103 0
M  V30 1285 O 125.784 0.770401 1.74555 0
M  V30 1286 C 122.924 1.80273 2.94271 0
M  V30 1287 C 122.037 3.07674 3.0325 0
M  V30 1288 C 121.172 3.08922 4.32135 0
M  V30 1289 C 120.211 4.30755 4.34875 0
M  V30 1290 N 119.348 4.29714 5.55239 0
M  V30 1291 H 124.188 2.63472 1.39235 0
M  V30 1292 H 121.725 1.30602 0.676873 0
M  V30 1293 H 123.683 1.84332 3.74269 0
M  V30 1294 H 122.313 0.900258 3.09992 0
M  V30 1295 H 121.365 3.13062 2.16094 0
M  V30 1296 H 122.677 3.97642 3.01135 0
M  V30 1297 H 121.831 3.11738 5.20485 0
M  V30 1298 H 120.57 2.16792 4.36866 0
M  V30 1299 H 119.575 4.28146 3.44922 0
M  V30 1300 H 120.8 5.24117 4.31831 0
M  V30 1301 H 118.746 3.4044 5.60746 0
M  V30 1302 H 118.663 5.13456 5.54886 0
M  V30 1303 H 119.931 4.36683 6.457 0
M  V30 1304 N 124.16 -0.719506 1.40217 0
M  V30 1305 C 125.092 -1.84428 1.36084 0
M  V30 1306 C 126.105 -1.60597 0.266913 0
M  V30 1307 O 127.294 -1.70544 0.526983 0
M  V30 1308 C 124.394 -3.20757 1.094 0
M  V30 1309 C 123.567 -3.71817 2.30372 0
M  V30 1310 C 122.626 -4.86748 1.99907 0
M  V30 1311 O 121.652 -4.99603 2.72737 0
M  V30 1312 N 122.854 -5.7226 0.974635 0
M  V30 1313 H 125.619 -1.88473 2.33019 0
M  V30 1314 H 123.18 -0.900885 1.3452 0
M  V30 1315 H 125.172 -3.95235 0.870116 0
M  V30 1316 H 123.742 -3.11884 0.211452 0
M  V30 1317 H 122.962 -2.88514 2.68614 0
M  V30 1318 H 124.25 -4.02666 3.11026 0
M  V30 1319 H 123.648 -5.6448 0.371368 0
M  V30 1320 H 122.205 -6.46739 0.810656 0
M  V30 1321 N 125.638 -1.25649 -0.95132 0
M  V30 1322 C 126.568 -1.08808 -2.06599 0
M  V30 1323 C 127.549 0.00382547 -1.701 0
M  V30 1324 O 128.734 -0.166325 -1.93486 0
M  V30 1325 C 125.864 -0.709542 -3.39975 0
M  V30 1326 C 124.818 -1.75206 -3.90496 0
M  V30 1327 C 124.144 -1.22811 -5.20405 0
M  V30 1328 C 125.444 -3.15153 -4.16504 0
M  V30 1329 H 127.138 -2.02048 -2.20946 0
M  V30 1330 H 124.684 -0.972835 -1.06169 0
M  V30 1331 H 126.637 -0.578649 -4.17408 0
M  V30 1332 H 125.361 0.258556 -3.25575 0
M  V30 1333 H 124.02 -1.87145 -3.15234 0
M  V30 1334 H 123.668 -0.250145 -5.02378 0
M  V30 1335 H 123.368 -1.92492 -5.55176 0
M  V30 1336 H 124.892 -1.10968 -6.00432 0
M  V30 1337 H 126.306 -3.06349 -4.84586 0
M  V30 1338 H 124.703 -3.82333 -4.62538 0
M  V30 1339 H 125.773 -3.61966 -3.22658 0
M  V30 1340 N 127.117 1.15442 -1.07289 0
M  V30 1341 C 128.342 1.90638 -0.816828 0
M  V30 1342 C 128.767 1.77445 0.624083 0
M  V30 1343 O 128.125 1.10671 1.43602 0
M  V30 1344 C 128.173 3.39008 -1.22906 0
M  V30 1345 O 127.277 4.10701 -0.373975 0
M  V30 1346 H 126.618 0.593555 -0.297638 0
M  V30 1347 H 129.148 1.46198 -1.43134 0
M  V30 1348 H 129.158 3.89801 -1.20497 0
M  V30 1349 H 127.833 3.47929 -2.27856 0
M  V30 1350 H 126.41 3.70046 -0.460499 0
M  V30 1351 N 128.595 0.856903 1.32268 0
M  V30 1352 C 129.558 0.308171 2.27119 0
M  V30 1353 C 130.558 -0.533421 1.51695 0
M  V30 1354 O 131.748 -0.344607 1.70757 0
M  V30 1355 C 128.88 -0.563757 3.36206 0
M  V30 1356 H 130.073 1.14535 2.77167 0
M  V30 1357 H 127.626 0.631421 1.42978 0
M  V30 1358 H 128.361 -1.42266 2.91429 0
M  V30 1359 H 128.146 0.0386749 3.92081 0
M  V30 1360 H 129.636 -0.940386 4.06874 0
M  V30 1361 N 130.073 -1.45103 0.615059 0
M  V30 1362 C 131.321 -2.01784 0.112955 0
M  V30 1363 C 131.642 -1.48504 -1.26378 0
M  V30 1364 O 130.912 -0.682245 -1.83636 0
M  V30 1365 H 129.492 -0.745993 0.0387668 0
M  V30 1366 H 132.154 -1.77808 0.798141 0
M  V30 1367 H 131.25 -3.12025 0.0684069 0
M  V30 1368 N 131.551 -0.354651 -1.53558 0
M  V30 1369 C 132.797 0.238797 -2.01389 0
M  V30 1370 C 133.13 1.49309 -1.2418 0
M  V30 1371 O 132.405 1.91638 -0.332457 0
M  V30 1372 C 132.688 0.541771 -3.56001 0
M  V30 1373 C 132.541 -0.725388 -4.43912 0
M  V30 1374 C 133.86 1.34685 -4.18984 0
M  V30 1375 H 130.979 0.0853177 -0.732045 0
M  V30 1376 H 133.621 -0.477384 -1.83905 0
M  V30 1377 H 131.771 1.15189 -3.71031 0
M  V30 1378 H 133.443 -1.36313 -4.407 0
M  V30 1379 H 131.686 -1.34801 -4.12324 0
M  V30 1380 H 132.357 -0.468505 -5.50008 0
M  V30 1381 H 134.833 0.830837 -4.07721 0
M  V30 1382 H 133.709 1.52759 -5.27215 0
M  V30 1383 H 133.97 2.35221 -3.74331 0
M  V30 1384 N 133.029 1.57378 -0.0835403 0
M  V30 1385 C 133.939 2.16897 0.894021 0
M  V30 1386 C 134.955 1.13528 1.31861 0
M  V30 1387 O 136.131 1.45848 1.3889 0
M  V30 1388 C 133.196 2.72831 2.13925 0
M  V30 1389 C 132.257 3.91115 1.76997 0
M  V30 1390 C 131.49 4.44371 2.95584 0
M  V30 1391 O 131.713 3.96596 4.09961 0
M  V30 1392 O 130.647 5.35549 2.74719 0
M  V30 1393 H 134.473 3.00814 0.417679 0
M  V30 1394 H 132.058 1.48741 0.140181 0
M  V30 1395 H 133.94 3.0863 2.86924 0
M  V30 1396 H 132.615 1.91967 2.60635 0
M  V30 1397 H 131.522 3.60148 1.01214 0
M  V30 1398 H 132.855 4.73307 1.3506 0
M  V30 1399 N 134.507 -0.190092 1.56449 0
M  V30 1400 C 135.784 -0.935886 1.71757 0
M  V30 1401 C 136.164 -2.01173 0.639726 0
M  V30 1402 O 135.512 -2.25827 -0.348502 0
M  V30 1403 C 135.722 -1.51775 3.1427 0
M  V30 1404 C 137.07 -1.99794 3.74656 0
M  V30 1405 O 138.094 -1.61607 3.1743 0
M  V30 1406 O 136.953 -2.70079 4.751 0
M  V30 1407 H 134.047 -0.439229 0.700719 0
M  V30 1408 H 136.593 -0.179395 1.68749 0
M  V30 1409 H 135.365 -0.742505 3.84191 0
M  V30 1410 H 134.988 -2.33894 3.21527 0
M  V30 1411 N 135.985 -1.50799 -0.457987 0
M  V30 1412 C 136.932 -1.70617 -1.5543 0
M  V30 1413 C 137.902 -0.547562 -1.56815 0
M  V30 1414 O 139.087 -0.779647 -1.74144 0
M  V30 1415 C 136.227 -1.81831 -2.93311 0
M  V30 1416 C 135.34 -3.09278 -3.01615 0
M  V30 1417 C 134.475 -3.11209 -4.30491 0
M  V30 1418 C 133.514 -4.33055 -4.32585 0
M  V30 1419 N 132.651 -4.32652 -5.52952 0
M  V30 1420 H 137.491 -2.64207 -1.37836 0
M  V30 1421 H 135.028 -1.30959 -0.669937 0
M  V30 1422 H 136.986 -1.86314 -3.73287 0
M  V30 1423 H 135.616 -0.916685 -3.0951 0
M  V30 1424 H 134.668 -3.14203 -2.1443 0
M  V30 1425 H 135.98 -3.99233 -2.99022 0
M  V30 1426 H 135.134 -3.14494 -5.18824 0
M  V30 1427 H 133.873 -2.19106 -4.35711 0
M  V30 1428 H 132.878 -4.29969 -3.42647 0
M  V30 1429 H 134.103 -5.264 -4.29046 0
M  V30 1430 H 132.049 -3.43409 -5.58933 0
M  V30 1431 H 131.966 -5.16392 -5.52155 0
M  V30 1432 H 133.234 -4.40101 -6.43375 0
M  V30 1433 N 137.463 0.71206 -1.40597 0
M  V30 1434 C 138.879 1.02058 -1.22704 0
M  V30 1435 C 139.079 2.01228 -0.104729 0
M  V30 1436 O 138.135 2.4674 0.53624 0
M  V30 1437 C 139.448 1.56094 -2.57012 0
M  V30 1438 C 140.996 1.6806 -2.64054 0
M  V30 1439 C 141.471 2.25501 -3.9864 0
M  V30 1440 N 142.962 2.32882 -4.004 0
M  V30 1441 C 143.697 2.78317 -5.01325 0
M  V30 1442 N 143.193 3.23478 -6.12645 0
M  V30 1443 N 144.986 2.77733 -4.88693 0
M  V30 1444 H 137.137 0.0547896 -2.12329 0
M  V30 1445 H 139.4 0.0869027 -0.944008 0
M  V30 1446 H 139.106 0.906865 -3.39807 0
M  V30 1447 H 138.98 2.54564 -2.78347 0
M  V30 1448 H 141.367 2.32583 -1.81629 0
M  V30 1449 H 141.448 0.681802 -2.46546 0
M  V30 1450 H 141.092 1.61598 -4.81506 0
M  V30 1451 H 141.022 3.26102 -4.13479 0
M  V30 1452 H 143.513 2.00991 -3.20017 0
M  V30 1453 H 143.826 3.56725 -6.85542 0
M  V30 1454 H 142.171 3.21429 -6.16205 0
M  V30 1455 H 145.362 2.4179 -4.00818 0
M  V30 1456 H 145.535 3.12826 -5.67489 0
M  V30 1457 N 138.941 1.26152 0.944643 0
M  V30 1458 C 140.169 1.14259 1.72489 0
M  V30 1459 C 140.584 -0.302555 1.8636 0
M  V30 1460 O 139.941 -1.20741 1.36849 0
M  V30 1461 C 139.992 1.80266 3.13347 0
M  V30 1462 O 139.713 3.19133 3.00143 0
M  V30 1463 C 141.214 1.74283 4.07603 0
M  V30 1464 H 138.434 0.398051 0.540181 0
M  V30 1465 H 140.978 1.66706 1.18446 0
M  V30 1466 H 139.133 1.31766 3.64303 0
M  V30 1467 H 139.547 3.51744 3.89071 0
M  V30 1468 H 141.021 2.25111 5.04013 0
M  V30 1469 H 141.498 0.708631 4.33446 0
M  V30 1470 H 142.104 2.22319 3.62567 0
M  V30 1471 N 140.419 -1.14872 1.07899 0
M  V30 1472 C 141.647 -1.89661 0.82683 0
M  V30 1473 C 142.062 -1.78312 -0.620519 0
M  V30 1474 O 141.419 -1.13888 -1.42604 0
M  V30 1475 C 141.47 -3.39817 1.23316 0
M  V30 1476 O 141.191 -3.50845 2.62372 0
M  V30 1477 C 142.692 -4.31615 1.0111 0
M  V30 1478 H 139.912 -0.60092 0.298557 0
M  V30 1479 H 142.456 -1.4551 1.43691 0
M  V30 1480 H 140.611 -3.8161 0.667286 0
M  V30 1481 H 141.025 -4.44076 2.79101 0
M  V30 1482 H 142.499 -5.35367 1.34486 0
M  V30 1483 H 142.976 -4.39169 -0.0522168 0
M  V30 1484 H 143.582 -3.95572 1.56215 0
M  V30 1485 N 141.898 -0.863906 -1.31812 0
M  V30 1486 C 143.123 -0.48527 -2.01643 0
M  V30 1487 C 143.548 0.913058 -1.64453 0
M  V30 1488 O 142.906 1.6014 -0.849985 0
M  V30 1489 C 142.954 -0.642625 -3.54828 0
M  V30 1490 O 142.058 0.320659 -4.11151 0
M  V30 1491 H 141.399 -0.193793 -0.635091 0
M  V30 1492 H 143.929 -1.16565 -1.68148 0
M  V30 1493 H 143.939 -0.533628 -4.04495 0
M  V30 1494 H 142.614 -1.66227 -3.81237 0
M  V30 1495 H 141.191 0.167126 -3.72525 0
M  V30 1496 N 143.376 1.44774 -0.622745 0
M  V30 1497 C 144.792 1.56986 -0.287652 0
M  V30 1498 C 144.992 1.61167 1.20944 0
M  V30 1499 O 144.048 1.55015 1.99315 0
M  V30 1500 C 145.361 2.84551 -0.972188 0
M  V30 1501 C 146.909 2.9825 -0.949536 0
M  V30 1502 C 147.384 4.28605 -1.61437 0
M  V30 1503 N 148.875 4.35399 -1.58057 0
M  V30 1504 C 149.61 5.34964 -2.064 0
M  V30 1505 N 149.106 6.40981 -2.62897 0
M  V30 1506 N 150.899 5.26419 -1.97078 0
M  V30 1507 H 143.05 1.40304 -1.59463 0
M  V30 1508 H 145.313 0.671794 -0.668878 0
M  V30 1509 H 145.019 2.87417 -2.02693 0
M  V30 1510 H 144.893 3.73807 -0.504771 0
M  V30 1511 H 147.28 2.94941 0.0967067 0
M  V30 1512 H 147.361 2.10364 -1.45536 0
M  V30 1513 H 147.005 4.32672 -2.66002 0
M  V30 1514 H 146.935 5.15334 -1.08344 0
M  V30 1515 H 149.426 3.59397 -1.16801 0
M  V30 1516 H 149.739 7.13225 -2.97539 0
M  V30 1517 H 148.084 6.4169 -2.66943 0
M  V30 1518 H 151.275 4.42504 -1.52669 0
M  V30 1519 H 151.448 6.03861 -2.35066 0
M  V30 1520 N 144.854 0.36279 1.53368 0
M  V30 1521 C 146.102 -0.227326 2.00817 0
M  V30 1522 C 146.423 -1.49511 1.25186 0
M  V30 1523 O 145.693 -1.92482 0.364348 0
M  V30 1524 H 144.273 -0.0869923 0.741917 0
M  V30 1525 H 146.935 0.488381 1.88682 0
M  V30 1526 H 146.031 -0.456273 3.08747 0
M  V30 1527 N 146.332 -1.57332 0.0918853 0
M  V30 1528 C 147.264 -2.10869 -0.898168 0
M  V30 1529 C 148.277 -1.04521 -1.24817 0
M  V30 1530 O 149.466 -1.31977 -1.20184 0
M  V30 1531 C 146.566 -2.57083 -2.2082 0
M  V30 1532 C 145.739 -3.87229 -2.03402 0
M  V30 1533 C 144.798 -4.19324 -3.17889 0
M  V30 1534 O 143.824 -4.88598 -2.91994 0
M  V30 1535 N 145.026 -3.74471 -4.43567 0
M  V30 1536 H 147.791 -2.96439 -0.440943 0
M  V30 1537 H 145.352 -1.61631 -0.0933064 0
M  V30 1538 H 147.344 -2.75602 -2.96354 0
M  V30 1539 H 145.914 -1.76541 -2.57977 0
M  V30 1540 H 145.134 -3.7789 -1.12218 0
M  V30 1541 H 146.422 -4.72379 -1.89038 0
M  V30 1542 H 145.82 -3.18546 -4.67488 0
M  V30 1543 H 144.377 -3.98151 -5.16061 0
M  V30 1544 N 147.81 0.181792 -1.56548 0
M  V30 1545 C 149.035 0.920019 -1.85877 0
M  V30 1546 C 149.46 1.75494 -0.677021 0
M  V30 1547 O 148.818 1.77399 0.374056 0
M  V30 1548 C 148.866 1.78112 -3.13542 0
M  V30 1549 O 147.97 2.88152 -2.95029 0
M  V30 1550 H 147.311 0.258334 -0.611686 0
M  V30 1551 H 149.841 0.183092 -2.03779 0
M  V30 1552 H 149.851 2.18314 -3.44678 0
M  V30 1553 H 148.526 1.16777 -3.99169 0
M  V30 1554 H 147.103 2.51609 -2.75222 0
M  V30 1555 N 149.288 1.51039 0.449983 0
M  V30 1556 C 150.251 1.70863 1.5277 0
M  V30 1557 C 151.251 0.578846 1.5002 0
M  V30 1558 O 152.441 0.846213 1.52266 0
M  V30 1559 C 149.573 1.75341 2.9235 0
M  V30 1560 H 150.766 2.67034 1.36502 0
M  V30 1561 H 148.319 1.40838 0.677812 0
M  V30 1562 H 149.054 0.809383 3.14037 0
M  V30 1563 H 148.839 2.57436 2.95752 0
M  V30 1564 H 150.329 1.92559 3.70555 0
M  V30 1565 N 150.766 -0.704594 1.40972 0
M  V30 1566 C 151.676 -1.84856 1.44448 0
M  V30 1567 C 152.692 -1.70726 0.335961 0
M  V30 1568 O 153.868 -1.92799 0.582276 0
M  V30 1569 C 150.933 -3.20758 1.31587 0
M  V30 1570 C 149.994 -3.47063 2.52677 0
M  V30 1571 C 149.227 -4.76481 2.4042 0
M  V30 1572 O 149.45 -5.52341 1.42391 0
M  V30 1573 O 148.384 -5.03367 3.30007 0
M  V30 1574 H 152.21 -1.8488 2.40942 0
M  V30 1575 H 149.795 -0.85647 1.22413 0
M  V30 1576 H 151.677 -4.01913 1.26665 0
M  V30 1577 H 150.352 -3.21438 0.382049 0
M  V30 1578 H 149.259 -2.65873 2.63177 0
M  V30 1579 H 150.592 -3.5119 3.44858 0
M  V30 1580 N 152.244 -1.26651 -0.937939 0
M  V30 1581 C 153.66 -1.03834 -1.21205 0
M  V30 1582 C 153.86 0.234502 -2.00131 0
M  V30 1583 O 152.916 0.942767 -2.3424 0
M  V30 1584 C 154.229 -2.27167 -1.97017 0
M  V30 1585 C 155.777 -2.32101 -2.09996 0
M  V30 1586 C 156.252 -3.55136 -2.8921 0
M  V30 1587 N 157.743 -3.55632 -2.96783 0
M  V30 1588 C 158.478 -4.475 -3.58512 0
M  V30 1589 N 157.974 -5.4966 -4.21717 0
M  V30 1590 N 159.767 -4.35145 -3.55816 0
M  V30 1591 H 151.918 -2.08398 -0.410391 0
M  V30 1592 H 154.181 -0.916031 -0.244114 0
M  V30 1593 H 153.887 -3.19765 -1.46434 0
M  V30 1594 H 153.761 -2.31672 -2.97671 0
M  V30 1595 H 156.148 -1.40015 -2.59769 0
M  V30 1596 H 156.229 -2.31605 -1.08594 0
M  V30 1597 H 155.873 -4.47553 -2.40123 0
M  V30 1598 H 155.803 -3.5288 -3.90875 0
M  V30 1599 H 158.294 -2.81743 -2.51852 0
M  V30 1600 H 158.607 -6.15943 -4.66727 0
M  V30 1601 H 156.952 -5.53514 -4.20294 0
M  V30 1602 H 160.143 -3.5455 -3.05634 0
M  V30 1603 H 160.316 -5.06934 -4.03636 0
M  V30 1604 N 153.722 1.14298 -1.08507 0
M  V30 1605 C 155.133 1.66926 -0.836227 0
M  V30 1606 C 155.484 1.85576 0.63686 0
M  V30 1607 O 154.609 1.56767 1.49175 0
M  V30 1608 C 155.204 3.03219 -1.51142 0
M  V30 1609 C 153.763 3.52876 -1.30979 0
M  V30 1610 C 152.91 2.2833 -1.57356 0
M  V30 1611 H 155.861 0.983491 -1.24552 0
M  V30 1612 H 155.882 3.68726 -0.939211 0
M  V30 1613 H 155.394 2.89612 -2.58353 0
M  V30 1614 H 153.495 3.71703 -0.258429 0
M  V30 1615 H 153.608 4.33586 -2.03814 0
M  V30 1616 H 151.972 2.34454 -0.995164 0
M  V30 1617 H 152.755 2.17298 -2.65775 0
M  V30 1618 N 155.201 0.870884 1.31352 0
M  V30 1619 C 156.131 0.343096 2.30966 0
M  V30 1620 C 157.112 -0.566507 1.60389 0
M  V30 1621 O 158.297 -0.483336 1.88089 0
M  V30 1622 C 155.427 -0.455487 3.443 0
M  V30 1623 C 154.381 0.361103 4.26474 0
M  V30 1624 C 153.707 -0.563221 5.31725 0
M  V30 1625 C 155.007 1.59566 4.97329 0
M  V30 1626 H 156.701 1.17548 2.75359 0
M  V30 1627 H 154.247 0.566686 1.32381 0
M  V30 1628 H 156.2 -0.83525 4.13039 0
M  V30 1629 H 154.924 -1.32139 2.98675 0
M  V30 1630 H 153.583 0.722825 3.59403 0
M  V30 1631 H 153.231 -1.42643 4.82351 0
M  V30 1632 H 152.931 -0.0207409 5.87596 0
M  V30 1633 H 154.455 -0.939808 6.03324 0
M  V30 1634 H 155.869 1.28728 5.58661 0
M  V30 1635 H 154.266 2.07728 5.63 0
M  V30 1636 H 155.336 2.34798 4.24262 0
M  V30 1637 N 156.679 -1.44442 0.630414 0
M  V30 1638 C 158.095 -1.56832 0.295973 0
M  V30 1639 C 158.295 -1.61806 -1.20088 0
M  V30 1640 O 157.351 -1.5607 -1.9849 0
M  V30 1641 C 158.664 -2.84031 0.987264 0
M  V30 1642 C 160.212 -2.97742 0.96534 0
M  V30 1643 C 160.687 -4.27743 1.63708 0
M  V30 1644 N 162.178 -4.34555 1.60364 0
M  V30 1645 C 162.913 -5.33862 2.09234 0
M  V30 1646 N 162.409 -6.39578 2.66292 0
M  V30 1647 N 164.202 -5.25366 1.99867 0
M  V30 1648 H 156.353 -1.39457 1.60205 0
M  V30 1649 H 158.616 -0.668237 0.672431 0
M  V30 1650 H 158.322 -2.86338 2.04215 0
M  V30 1651 H 158.196 -3.73534 0.524588 0
M  V30 1652 H 160.583 -2.94989 -0.0810639 0
M  V30 1653 H 160.664 -2.09589 1.4665 0
M  V30 1654 H 160.308 -4.31255 2.68293 0
M  V30 1655 H 160.238 -5.14752 1.11076 0
M  V30 1656 H 162.729 -3.58772 1.18705 0
M  V30 1657 H 163.042 -7.11637 3.01317 0
M  V30 1658 H 161.387 -6.40265 2.70343 0
M  V30 1659 H 164.578 -4.41688 1.55013 0
M  V30 1660 H 164.751 -6.02606 2.38265 0
M  V30 1661 N 158.157 -0.370918 -1.53173 0
M  V30 1662 C 159.434 0.273754 -1.93675 0
M  V30 1663 C 159.814 1.65938 -1.3049 0
M  V30 1664 O 159.162 2.23698 -0.465999 0
M  V30 1665 C 159.372 0.318602 -3.47543 0
M  V30 1666 C 160.72 0.556392 -4.20939 0
M  V30 1667 O 161.744 0.399587 -3.53952 0
M  V30 1668 O 160.603 0.862133 -5.39657 0
M  V30 1669 H 157.697 0.165448 -0.810281 0
M  V30 1670 H 160.243 -0.42409 -1.64315 0
M  V30 1671 H 159.015 -0.652687 -3.85818 0
M  V30 1672 H 158.638 1.06212 -3.83151 0
M  V30 1673 N 159.635 1.57281 -0.100228 0
M  V30 1674 C 161.051 1.57527 0.256416 0
M  V30 1675 C 161.251 1.11173 1.68056 0
M  V30 1676 O 160.307 0.79053 2.39806 0
M  V30 1677 C 161.62 3.00673 0.0401747 0
M  V30 1678 C 163.168 3.12815 0.107528 0
M  V30 1679 C 163.643 4.57929 -0.0807834 0
M  V30 1680 N 165.134 4.63193 -0.0261207 0
M  V30 1681 C 165.869 5.73212 -0.146999 0
M  V30 1682 N 165.365 6.92047 -0.322999 0
M  V30 1683 N 167.158 5.62031 -0.0879044 0
M  V30 1684 H 159.309 1.85718 -1.03065 0
M  V30 1685 H 161.572 0.857446 -0.404339 0
M  V30 1686 H 161.278 3.38804 -0.943649 0
M  V30 1687 H 161.152 3.69042 0.780262 0
M  V30 1688 H 163.539 2.74554 1.08186 0
M  V30 1689 H 163.62 2.47028 -0.664134 0
M  V30 1690 H 163.264 4.96886 -1.05201 0
M  V30 1691 H 163.194 5.21783 0.710635 0
M  V30 1692 H 165.685 3.77748 0.107161 0
M  V30 1693 H 165.998 7.7173 -0.406608 0
M  V30 1694 H 164.343 6.94074 -0.358733 0
M  V30 1695 H 167.534 4.68075 0.048498 0
M  V30 1696 H 167.707 6.47734 -0.185557 0
M  V30 1697 N 161.113 -0.173488 1.56642 0
M  V30 1698 C 162.529 -0.525174 1.50712 0
M  V30 1699 C 162.729 -1.8476 0.804107 0
M  V30 1700 O 161.785 -2.49869 0.363574 0
M  V30 1701 C 163.098 -0.559937 2.95441 0
M  V30 1702 C 164.646 -0.647288 3.06234 0
M  V30 1703 C 165.121 -0.712963 4.52417 0
M  V30 1704 N 166.612 -0.775911 4.56655 0
M  V30 1705 C 167.347 -0.847264 5.67106 0
M  V30 1706 N 166.843 -0.879585 6.87194 0
M  V30 1707 N 168.636 -0.886117 5.55071 0
M  V30 1708 H 160.787 0.693681 2.00753 0
M  V30 1709 H 163.05 0.249841 0.914485 0
M  V30 1710 H 162.756 0.343049 3.50023 0
M  V30 1711 H 162.63 -1.40718 3.49969 0
M  V30 1712 H 165.017 -1.5407 2.51687 0
M  V30 1713 H 165.098 0.226586 2.54794 0
M  V30 1714 H 164.742 0.176183 5.07594 0
M  V30 1715 H 164.672 -1.60295 5.0161 0
M  V30 1716 H 167.163 -0.759304 3.70193 0
M  V30 1717 H 167.476 -0.935144 7.67121 0
M  V30 1718 H 165.821 -0.847898 6.89808 0
M  V30 1719 H 169.012 -0.857853 4.60172 0
M  V30 1720 H 169.185 -0.938263 6.41171 0
M  V30 1721 N 162.591 -1.51276 -0.441967 0
M  V30 1722 C 163.837 -1.63958 -1.19355 0
M  V30 1723 C 164.17 -0.352543 -1.90973 0
M  V30 1724 O 163.445 0.647627 -1.83401 0
M  V30 1725 C 163.728 -2.83979 -2.21422 0
M  V30 1726 C 163.581 -4.22646 -1.53918 0
M  V30 1727 C 164.9 -2.99521 -3.22451 0
M  V30 1728 H 162.019 -0.596709 -0.432559 0
M  V30 1729 H 164.661 -1.83748 -0.483398 0
M  V30 1730 H 162.811 -2.67237 -2.81987 0
M  V30 1731 H 164.483 -4.51045 -0.967256 0
M  V30 1732 H 162.726 -4.25558 -0.841615 0
M  V30 1733 H 163.397 -5.02609 -2.28229 0
M  V30 1734 H 165.873 -3.14944 -2.71937 0
M  V30 1735 H 164.749 -3.85072 -3.91166 0
M  V30 1736 H 165.01 -2.11391 -3.88287 0
M  V30 1737 N 164.069 0.697108 -1.41344 0
M  V30 1738 C 165.315 1.4593 -1.40827 0
M  V30 1739 C 165.648 1.94193 -0.0167098 0
M  V30 1740 O 164.923 1.69425 0.955263 0
M  V30 1741 C 165.206 2.67229 -2.41373 0
M  V30 1742 C 165.059 2.24741 -3.8963 0
M  V30 1743 C 166.378 3.69423 -2.39196 0
M  V30 1744 H 163.497 0.529303 -0.512842 0
M  V30 1745 H 166.139 0.794112 -1.72609 0
M  V30 1746 H 164.289 3.23982 -2.14401 0
M  V30 1747 H 165.961 1.73327 -4.27499 0
M  V30 1748 H 164.204 1.56542 -4.0457 0
M  V30 1749 H 164.875 3.1177 -4.55525 0
M  V30 1750 H 167.351 3.2234 -2.63128 0
M  V30 1751 H 166.227 4.51907 -3.11563 0
M  V30 1752 H 166.488 4.19012 -1.41001 0
M  V30 1753 N 165.547 1.27147 0.931209 0
M  V30 1754 C 166.795 1.13055 1.6752 0
M  V30 1755 C 167.116 -0.324791 1.92276 0
M  V30 1756 O 166.386 -1.22775 1.52654 0
M  V30 1757 H 164.966 0.415391 0.620854 0
M  V30 1758 H 167.628 1.59623 1.11833 0
M  V30 1759 H 166.724 1.65694 2.64485 0
M  V30 1760 N 167.025 -1.13721 1.09112 0
M  V30 1761 C 167.955 -2.21148 0.749385 0
M  V30 1762 C 168.936 -1.6792 -0.271475 0
M  V30 1763 O 170.121 -1.93693 -0.140251 0
M  V30 1764 C 167.251 -3.46905 0.165659 0
M  V30 1765 C 166.205 -4.13203 1.11567 0
M  V30 1766 C 165.531 -5.33248 0.393809 0
M  V30 1767 C 166.831 -4.60912 2.45678 0
M  V30 1768 H 168.525 -2.4999 1.64758 0
M  V30 1769 H 166.071 -1.20156 0.793626 0
M  V30 1770 H 168.024 -4.21313 -0.085466 0
M  V30 1771 H 166.748 -3.17449 -0.767714 0
M  V30 1772 H 165.407 -3.40758 1.35202 0
M  V30 1773 H 165.055 -5.00054 -0.543599 0
M  V30 1774 H 164.755 -5.78552 1.02721 0
M  V30 1775 H 166.279 -6.10413 0.150908 0
M  V30 1776 H 167.693 -5.26759 2.26269 0
M  V30 1777 H 166.09 -5.16944 3.04776 0
M  V30 1778 H 167.16 -3.75603 3.06677 0
M  V30 1779 N 168.503 -0.877838 -1.30888 0
M  V30 1780 C 169.413 -0.343096 -2.32078 0
M  V30 1781 C 170.429 0.551022 -1.65045 0
M  V30 1782 O 171.605 0.445854 -1.96403 0
M  V30 1783 C 168.67 0.439905 -3.43898 0
M  V30 1784 C 167.731 -0.483111 -4.26573 0
M  V30 1785 C 166.964 0.262616 -5.33053 0
M  V30 1786 O 167.187 1.48967 -5.50604 0
M  V30 1787 O 166.121 -0.383593 -6.00676 0
M  V30 1788 H 169.947 -1.18203 -2.79753 0
M  V30 1789 H 167.532 -0.64145 -1.34929 0
M  V30 1790 H 169.414 0.883504 -4.12034 0
M  V30 1791 H 168.089 1.25526 -2.98371 0
M  V30 1792 H 166.996 -0.975374 -3.61161 0
M  V30 1793 H 168.329 -1.26427 -4.75686 0
M  V30 1794 N 169.982 1.44106 -0.638065 0
M  V30 1795 C 170.914 2.28976 0.101205 0
M  V30 1796 C 171.927 1.4167 0.802088 0
M  V30 1797 O 173.116 1.65755 0.662375 0
M  V30 1798 C 170.216 3.18217 1.16581 0
M  V30 1799 C 169.389 4.33978 0.546066 0
M  V30 1800 C 168.448 5.04202 1.50554 0
M  V30 1801 O 167.474 5.59986 1.01999 0
M  V30 1802 N 168.676 5.06296 2.8398 0
M  V30 1803 H 171.441 2.93064 -0.627186 0
M  V30 1804 H 169.002 1.54629 -0.479731 0
M  V30 1805 H 170.994 3.62061 1.80815 0
M  V30 1806 H 169.564 2.55833 1.79634 0
M  V30 1807 H 168.784 3.93239 -0.275046 0
M  V30 1808 H 170.072 5.08675 0.112793 0
M  V30 1809 H 169.47 4.62319 3.26002 0
M  V30 1810 H 168.027 5.53907 3.43556 0
M  V30 1811 N 171.46 0.379036 1.52974 0
M  V30 1812 C 172.871 -0.0972525 1.86447 0
M  V30 1813 C 173.222 -1.47027 1.29914 0
M  V30 1814 O 172.347 -2.07135 0.626433 0
M  V30 1815 C 172.942 -0.183248 3.38304 0
M  V30 1816 C 171.501 -0.603812 3.71525 0
M  V30 1817 C 170.648 0.240632 2.76254 0
M  V30 1818 H 173.599 0.597316 1.4703 0
M  V30 1819 H 173.62 -1.00432 3.67006 0
M  V30 1820 H 173.132 0.816191 3.79421 0
M  V30 1821 H 171.233 -1.61099 3.35973 0
M  V30 1822 H 171.346 -0.369086 4.77676 0
M  V30 1823 H 169.71 -0.292548 2.53014 0
M  V30 1824 H 170.493 1.23786 3.20206 0
M  V30 1825 N 172.938 -1.57226 0.108567 0
M  V30 1826 C 174.354 -1.5766 -0.248058 0
M  V30 1827 C 174.554 -1.12063 -1.67464 0
M  V30 1828 O 173.61 -0.803236 -2.39383 0
M  V30 1829 C 174.923 -3.0069 -0.0242287 0
M  V30 1830 C 176.471 -3.12868 -0.0909372 0
M  V30 1831 C 176.946 -4.57879 0.105067 0
M  V30 1832 N 178.437 -4.63172 0.0506846 0
M  V30 1833 C 179.172 -5.73126 0.177396 0
M  V30 1834 N 178.668 -6.91866 0.359696 0
M  V30 1835 N 180.461 -5.61977 0.117709 0
M  V30 1836 H 172.612 -1.85169 1.04049 0
M  V30 1837 H 174.875 -0.85529 0.40888 0
M  V30 1838 H 174.581 -3.38299 0.961604 0
M  V30 1839 H 174.455 -3.6945 -0.76068 0
M  V30 1840 H 176.842 -2.75124 -1.06729 0
M  V30 1841 H 176.923 -2.46672 0.677225 0
M  V30 1842 H 176.567 -4.96321 1.07834 0
M  V30 1843 H 176.497 -5.22153 -0.682954 0
M  V30 1844 H 178.988 -3.778 -0.0871266 0
M  V30 1845 H 179.301 -7.71503 0.447529 0
M  V30 1846 H 177.646 -6.93874 0.395536 0
M  V30 1847 H 180.837 -4.68094 -0.0236741 0
M  V30 1848 H 181.01 -6.47627 0.219905 0
M  V30 1849 N 174.416 0.165178 -1.56732 0
M  V30 1850 C 175.832 0.517174 -1.50988 0
M  V30 1851 C 176.032 1.84331 -0.813894 0
M  V30 1852 O 175.088 2.49672 -0.37682 0
M  V30 1853 C 176.401 0.544261 -2.95733 0
M  V30 1854 C 177.949 0.631039 -3.06573 0
M  V30 1855 C 178.424 0.68896 -4.52788 0
M  V30 1856 N 179.915 0.751683 -4.5706 0
M  V30 1857 C 180.65 0.817177 -5.67547 0
M  V30 1858 N 180.146 0.843129 -6.8765 0
M  V30 1859 N 181.939 0.856668 -5.55534 0
M  V30 1860 H 174.09 -0.704318 -2.00382 0
M  V30 1861 H 176.353 -0.254687 -0.913148 0
M  V30 1862 H 176.059 -0.361607 -3.49836 0
M  V30 1863 H 175.933 1.3886 -3.5071 0
M  V30 1864 H 178.32 1.52733 -2.52501 0
M  V30 1865 H 178.401 -0.240095 -2.54671 0
M  V30 1866 H 178.045 -0.2031 -5.07494 0
M  V30 1867 H 177.975 1.57633 -5.02454 0
M  V30 1868 H 180.466 0.739661 -3.70591 0
M  V30 1869 H 180.779 0.894448 -7.67606 0
M  V30 1870 H 179.124 0.811304 -6.90248 0
M  V30 1871 H 182.315 0.833437 -4.60621 0
M  V30 1872 H 182.488 0.904247 -6.4166 0
M  V30 1873 N 175.894 1.51508 0.433938 0
M  V30 1874 C 176.804 1.75917 1.5521 0
M  V30 1875 C 177.82 0.643545 1.61662 0
M  V30 1876 O 178.996 0.926183 1.7884 0
M  V30 1877 C 176.061 1.88213 2.91164 0
M  V30 1878 C 175.122 3.12074 2.94802 0
M  V30 1879 C 174.355 3.23774 4.24271 0
M  V30 1880 O 174.578 2.4133 5.16833 0
M  V30 1881 O 173.512 4.16774 4.34262 0
M  V30 1882 H 177.338 2.70777 1.37527 0
M  V30 1883 H 174.923 1.36051 0.617293 0
M  V30 1884 H 176.805 1.98267 3.71845 0
M  V30 1885 H 175.48 0.965413 3.08968 0
M  V30 1886 H 174.387 3.07497 2.13065 0
M  V30 1887 H 175.72 4.03446 2.81943 0
M  V30 1888 N 177.372 -0.689602 1.41712 0
M  V30 1889 C 178.62 -1.4468 1.4111 0
M  V30 1890 C 178.941 -1.94986 0.0232196 0
M  V30 1891 O 178.211 -1.72097 -0.935913 0
M  V30 1892 H 176.791 -0.536847 0.519427 0
M  V30 1893 H 179.453 -0.815825 1.77004 0
M  V30 1894 H 178.549 -2.30706 2.10193 0
M  V30 1895 N 178.85 -1.27639 -0.924453 0
M  V30 1896 C 179.813 -1.10681 -2.00705 0
M  V30 1897 C 180.813 -0.0497823 -1.60723 0
M  V30 1898 O 182.003 -0.294654 -1.7169 0
M  V30 1899 C 179.135 -0.687164 -3.33902 0
M  V30 1900 H 180.328 -2.06817 -2.17179 0
M  V30 1901 H 177.881 -1.10473 -1.10569 0
M  V30 1902 H 178.616 0.275439 -3.23128 0
M  V30 1903 H 178.401 -1.45061 -3.6428 0
M  V30 1904 H 179.891 -0.590853 -4.13399 0
M  V30 1905 N 180.328 1.1314 -1.09713 0
M  V30 1906 C 181.575 1.84484 -0.834987 0
M  V30 1907 C 181.903 1.83689 0.639418 0
M  V30 1908 O 181.158 1.2724 1.4869 0
M  V30 1909 C 181.457 3.32167 -1.3191 0
M  V30 1910 C 181.123 3.53139 -2.80363 0
M  V30 1911 C 179.785 3.58571 -3.20905 0
M  V30 1912 C 182.137 3.60866 -3.76065 0
M  V30 1913 C 179.465 3.69267 -4.55916 0
M  V30 1914 C 181.817 3.73089 -5.10869 0
M  V30 1915 C 180.481 3.76775 -5.50996 0
M  V30 1916 H 179.751 0.675073 -0.305544 0
M  V30 1917 H 182.398 1.33554 -1.37243 0
M  V30 1918 H 180.703 3.85469 -0.701517 0
M  V30 1919 H 182.4 3.85821 -1.09284 0
M  V30 1920 H 178.99 3.49569 -2.47991 0
M  V30 1921 H 183.174 3.55946 -3.45855 0
M  V30 1922 H 178.43 3.70388 -4.86438 0
M  V30 1923 H 182.604 3.78011 -5.84877 0
M  V30 1924 H 180.231 3.84815 -6.55608 0
M  V30 1925 N 181.806 0.884767 1.30421 0
M  V30 1926 C 182.716 0.355398 2.31892 0
M  V30 1927 C 183.732 -0.542261 1.65335 0
M  V30 1928 O 184.908 -0.435432 1.96637 0
M  V30 1929 C 181.973 -0.421661 3.44126 0
M  V30 1930 C 181.034 0.505727 4.26311 0
M  V30 1931 C 180.267 -0.234343 5.33185 0
M  V30 1932 O 180.49 -1.46045 5.51386 0
M  V30 1933 O 179.424 0.415443 6.00465 0
M  V30 1934 H 183.25 1.19685 2.79122 0
M  V30 1935 H 180.835 0.648596 1.34587 0
M  V30 1936 H 182.717 -0.861641 4.12497 0
M  V30 1937 H 181.392 -1.23942 2.99032 0
M  V30 1938 H 180.299 0.994513 3.60639 0
M  V30 1939 H 181.632 1.28948 4.75009 0
M  V30 1940 N 183.284 -1.43765 0.645699 0
M  V30 1941 C 184.509 -2.06767 0.161883 0
M  V30 1942 C 184.934 -1.48034 -1.16049 0
M  V30 1943 O 184.292 -0.587369 -1.71522 0
M  V30 1944 C 184.34 -3.60519 0.0762003 0
M  V30 1945 O 183.444 -4.00982 -0.963721 0
M  V30 1946 H 182.785 -0.657675 0.091429 0
M  V30 1947 H 185.315 -1.84397 0.886499 0
M  V30 1948 H 185.325 -4.07853 -0.109604 0
M  V30 1949 H 184 -4.02646 1.04157 0
M  V30 1950 H 182.577 -3.65253 -0.751312 0
M  V30 1951 N 184.763 -0.387143 -1.52771 0
M  V30 1952 C 186.011 0.195349 -2.01154 0
M  V30 1953 C 186.332 1.475 -1.27549 0
M  V30 1954 O 185.602 1.91878 -0.394924 0
M  V30 1955 H 184.182 0.075178 -0.743207 0
M  V30 1956 H 186.844 -0.518337 -1.87881 0
M  V30 1957 H 185.94 0.407096 -3.09434 0
M  V30 1958 N 186.241 1.57166 -0.116904 0
M  V30 1959 C 187.173 2.12271 0.864507 0
M  V30 1960 C 188.186 1.06494 1.23138 0
M  V30 1961 O 189.375 1.33873 1.18069 0
M  V30 1962 C 186.475 2.60564 2.16702 0
M  V30 1963 C 185.648 3.90416 1.97216 0
M  V30 1964 C 184.707 4.24329 3.11178 0
M  V30 1965 O 183.733 4.93182 2.84184 0
M  V30 1966 N 184.935 3.8148 4.37554 0
M  V30 1967 H 187.7 2.97102 0.393726 0
M  V30 1968 H 185.261 1.61759 0.0675805 0
M  V30 1969 H 187.253 2.80282 2.91932 0
M  V30 1970 H 185.823 1.80623 2.55135 0
M  V30 1971 H 185.043 3.79627 1.06192 0
M  V30 1972 H 186.331 4.75327 1.81499 0
M  V30 1973 H 185.729 3.25943 4.62361 0
M  V30 1974 H 184.286 4.06311 5.09661 0
M  V30 1975 N 187.719 -0.156864 1.56817 0
M  V30 1976 C 188.965 -0.872416 1.83076 0
M  V30 1977 C 189.298 -1.81261 0.697001 0
M  V30 1978 O 188.573 -1.92171 -0.30008 0
M  V30 1979 C 188.856 -1.65551 3.19789 0
M  V30 1980 C 188.709 -0.737467 4.43713 0
M  V30 1981 C 190.028 -2.62012 3.53606 0
M  V30 1982 H 187.147 -0.315715 0.665953 0
M  V30 1983 H 189.789 -0.138004 1.89498 0
M  V30 1984 H 187.939 -2.28159 3.14445 0
M  V30 1985 H 189.611 -0.123143 4.61136 0
M  V30 1986 H 187.854 -0.0464067 4.33775 0
M  V30 1987 H 188.525 -1.32122 5.35955 0
M  V30 1988 H 191.001 -2.09525 3.59497 0
M  V30 1989 H 189.877 -3.13861 4.50314 0
M  V30 1990 H 190.138 -3.42902 2.79053 0
M  V30 1991 N 189.197 -1.51736 -0.425897 0
M  V30 1992 C 190.107 -1.76738 -1.54275 0
M  V30 1993 C 191.123 -0.65211 -1.61318 0
M  V30 1994 O 192.299 -0.935654 -1.78346 0
M  V30 1995 C 189.364 -1.89755 -2.90162 0
M  V30 1996 C 188.425 -3.13633 -2.93143 0
M  V30 1997 C 187.658 -3.2602 -4.22548 0
M  V30 1998 O 187.881 -2.44067 -5.15546 0
M  V30 1999 O 186.815 -4.19071 -4.32046 0
M  V30 2000 H 190.641 -2.71502 -1.36089 0
M  V30 2001 H 188.226 -1.36376 -0.610069 0
M  V30 2002 H 190.108 -2.00236 -3.70788 0
M  V30 2003 H 188.783 -0.981785 -3.08452 0
M  V30 2004 H 187.69 -3.08622 -2.11431 0
M  V30 2005 H 189.023 -4.04936 -2.798 0
M  V30 2006 N 190.675 0.682077 -1.42076 0
M  V30 2007 C 192.086 1.26246 -1.37546 0
M  V30 2008 C 192.437 1.96092 -0.0651481 0
M  V30 2009 O 191.562 1.99587 0.836297 0
M  V30 2010 C 192.157 2.29594 -2.49143 0
M  V30 2011 C 190.716 2.83175 -2.47969 0
M  V30 2012 C 189.863 1.57395 -2.28303 0
M  V30 2013 H 192.814 0.475937 -1.51395 0
M  V30 2014 H 192.835 3.11175 -2.18976 0
M  V30 2015 H 192.347 1.78729 -3.44496 0
M  V30 2016 H 190.448 3.3818 -1.56413 0
M  V30 2017 H 190.561 3.32687 -3.44755 0
M  V30 2018 H 188.925 1.83699 -1.76428 0
M  V30 2019 H 189.708 1.08507 -3.25701 0
M  V30 2020 N 192.153 1.28127 0.917671 0
M  V30 2021 C 193.569 1.05749 1.19538 0
M  V30 2022 C 193.769 -0.202633 2.00479 0
M  V30 2023 O 192.825 -0.905382 2.3571 0
M  V30 2024 C 194.138 2.30273 1.93378 0
M  V30 2025 C 195.686 2.35412 2.06277 0
M  V30 2026 C 196.161 3.59692 2.83524 0
M  V30 2027 N 197.652 3.60309 2.91087 0
M  V30 2028 C 198.387 4.53147 3.51348 0
M  V30 2029 N 197.883 5.563 4.12919 0
M  V30 2030 N 199.676 4.40751 3.48849 0
M  V30 2031 H 191.827 2.09024 0.377184 0
M  V30 2032 H 194.09 0.919798 0.22951 0
M  V30 2033 H 193.796 3.22055 1.41328 0
M  V30 2034 H 193.67 2.36378 2.93947 0
M  V30 2035 H 196.057 1.4413 2.57508 0
M  V30 2036 H 196.138 2.33304 1.04895 0
M  V30 2037 H 195.782 4.51316 2.32973 0
M  V30 2038 H 195.712 3.59054 3.85211 0
M  V30 2039 H 198.203 2.85714 2.47338 0
M  V30 2040 H 198.516 6.2329 4.56869 0
M  V30 2041 H 196.861 5.60131 4.11435 0
M  V30 2042 H 200.052 3.59367 2.99955 0
M  V30 2043 H 200.225 5.13291 3.9552 0
M  V30 2044 N 193.631 -1.12557 1.10312 0
M  V30 2045 C 195.042 -1.65574 0.862678 0
M  V30 2046 C 195.393 -1.86566 -0.607256 0
M  V30 2047 O 194.518 -1.59121 -1.46662 0
M  V30 2048 C 195.113 -3.00776 1.55947 0
M  V30 2049 C 193.672 -3.50748 1.36576 0
M  V30 2050 C 192.819 -2.25797 1.60968 0
M  V30 2051 H 195.77 -0.963552 1.26101 0
M  V30 2052 H 195.791 -3.67185 0.997753 0
M  V30 2053 H 195.303 -2.85465 2.62928 0
M  V30 2054 H 193.404 -3.71245 0.317531 0
M  V30 2055 H 193.517 -4.30289 2.10686 0
M  V30 2056 H 191.881 -2.32841 1.03234 0
M  V30 2057 H 192.664 -2.13043 2.69198 0
M  V30 2058 N 195.109 -0.891671 -1.2995 0
M  V30 2059 C 196.525 -0.58662 -1.48428 0
M  V30 2060 C 196.725 0.873951 -1.81561 0
M  V30 2061 O 195.781 1.65471 -1.90724 0
M  V30 2062 C 197.094 -1.50553 -2.60296 0
M  V30 2063 C 198.642 -1.50988 -2.74175 0
M  V30 2064 C 199.117 -2.41488 -3.89163 0
M  V30 2065 N 200.608 -2.39489 -3.96483 0
M  V30 2066 C 201.343 -3.06223 -4.84784 0
M  V30 2067 N 200.839 -3.82206 -5.77833 0
M  V30 2068 N 202.632 -2.95421 -4.78208 0
M  V30 2069 H 194.783 -1.83644 -1.06718 0
M  V30 2070 H 197.046 -0.786455 -0.529332 0
M  V30 2071 H 196.752 -2.54581 -2.42654 0
M  V30 2072 H 196.626 -1.22008 -3.56923 0
M  V30 2073 H 199.013 -0.47708 -2.91218 0
M  V30 2074 H 199.094 -1.83567 -1.78148 0
M  V30 2075 H 198.738 -3.44857 -3.72876 0
M  V30 2076 H 198.668 -2.06222 -4.84541 0
M  V30 2077 H 201.159 -1.84278 -3.29924 0
M  V30 2078 H 201.472 -4.302 -6.41988 0
M  V30 2079 H 199.817 -3.86313 -5.77743 0
M  V30 2080 H 203.008 -2.35581 -4.04499 0
M  V30 2081 H 203.181 -3.47704 -5.46814 0
M  V30 2082 N 196.587 1.43421 -0.653314 0
M  V30 2083 C 197.497 2.34568 0.0388565 0
M  V30 2084 C 198.513 1.53888 0.81207 0
M  V30 2085 O 199.689 1.86539 0.759294 0
M  V30 2086 C 196.754 3.32167 0.993269 0
M  V30 2087 C 195.815 4.28751 0.216977 0
M  V30 2088 C 195.048 5.21688 1.12593 0
M  V30 2089 O 195.271 5.19052 2.36519 0
M  V30 2090 O 194.205 5.98919 0.598284 0
M  V30 2091 H 198.031 2.95251 -0.711386 0
M  V30 2092 H 195.616 1.43564 -0.413502 0
M  V30 2093 H 197.498 3.92183 1.54176 0
M  V30 2094 H 196.173 2.73987 1.72374 0
M  V30 2095 H 195.08 3.72215 -0.375101 0
M  V30 2096 H 196.413 4.89913 -0.473924 0
M  V30 2097 N 198.065 0.39524 1.52563 0
M  V30 2098 C 199.476 -0.0774719 1.86539 0
M  V30 2099 C 199.827 -1.45641 1.31466 0
M  V30 2100 O 198.952 -2.06459 0.648367 0
M  V30 2101 C 199.547 -0.147356 3.38479 0
M  V30 2102 C 198.106 -0.564373 3.72145 0
M  V30 2103 C 197.253 0.269919 2.75983 0
M  V30 2104 H 200.204 0.612876 1.46388 0
M  V30 2105 H 200.225 -0.965343 3.68051 0
M  V30 2106 H 199.737 0.856387 3.78534 0
M  V30 2107 H 197.838 -1.57527 3.37663 0
M  V30 2108 H 197.951 -0.318402 4.78041 0
M  V30 2109 H 196.315 -0.265696 2.5331 0
M  V30 2110 H 197.098 1.27175 3.18875 0
M  V30 2111 N 199.544 -1.57102 0.125237 0
M  V30 2112 C 200.476 -2.12726 -0.853237 0
M  V30 2113 C 201.489 -1.07145 -1.22571 0
M  V30 2114 O 202.678 -1.34497 -1.17358 0
M  V30 2115 C 199.778 -2.61709 -2.15317 0
M  V30 2116 C 198.951 -3.91456 -1.95143 0
M  V30 2117 C 198.01 -4.25973 -3.08923 0
M  V30 2118 O 197.036 -4.94682 -2.81564 0
M  V30 2119 N 198.238 -3.83795 -4.35524 0
M  V30 2120 H 201.003 -2.97307 -0.377964 0
M  V30 2121 H 198.564 -1.61792 -0.0590011 0
M  V30 2122 H 200.556 -2.81826 -2.90441 0
M  V30 2123 H 199.126 -1.81974 -2.54174 0
M  V30 2124 H 198.346 -3.80185 -1.04177 0
M  V30 2125 H 199.634 -4.76283 -1.78976 0
M  V30 2126 H 199.032 -3.2839 -4.60626 0
M  V30 2127 H 197.589 -4.09008 -5.07499 0
M  V30 2128 N 201.022 0.148545 -1.56898 0
M  V30 2129 C 202.27 0.859717 -1.82902 0
M  V30 2130 C 202.591 1.81775 -0.70588 0
M  V30 2131 O 201.861 1.93994 0.272586 0
M  V30 2132 H 200.441 0.320469 -0.674766 0
M  V30 2133 H 203.103 0.142918 -1.94375 0
M  V30 2134 H 202.199 1.4229 -2.77777 0
M  V30 2135 N 202.5 1.5196 0.417844 0
M  V30 2136 C 203.74 1.67262 1.17486 0
M  V30 2137 C 204.104 0.38983 1.88001 0
M  V30 2138 O 205.305 0.418845 2.65517 0
M  V30 2139 C 203.576 2.85526 2.14965 0
M  V30 2140 S 205.135 3.21263 2.98891 0
M  V30 2141 H 201.953 0.589077 0.398132 0
M  V30 2142 H 204.555 1.89927 0.463452 0
M  V30 2143 H 203.259 3.77145 1.61833 0
M  V30 2144 H 202.79 2.65107 2.90657 0
M  V30 2145 H 204.805 2.69208 4.16823 0
M  V30 2146 N 203.978 -0.674533 1.42435 0
M  V30 2147 C 205.208 -1.46071 1.46105 0
M  V30 2148 C 205.616 -1.89067 0.0709605 0
M  V30 2149 O 204.959 -1.58731 -0.924677 0
M  V30 2150 C 205.021 -2.74145 2.32561 0
M  V30 2151 C 204.685 -2.53224 3.8043 0
M  V30 2152 C 205.682 -2.17809 4.72075 0
M  V30 2153 C 203.367 -2.6821 4.24698 0
M  V30 2154 C 205.361 -1.97648 6.05982 0
M  V30 2155 C 203.048 -2.47665 5.58664 0
M  V30 2156 C 204.046 -2.12437 6.49122 0
M  V30 2157 O 203.734 -1.9209 7.80613 0
M  V30 2158 H 203.466 -0.455959 0.499076 0
M  V30 2159 H 206.02 -0.836193 1.87609 0
M  V30 2160 H 204.25 -3.3908 1.85908 0
M  V30 2161 H 205.939 -3.36028 2.27683 0
M  V30 2162 H 206.705 -2.05826 4.39159 0
M  V30 2163 H 202.584 -2.94609 3.54579 0
M  V30 2164 H 206.128 -1.70075 6.7655 0
M  V30 2165 H 202.025 -2.59244 5.91154 0
M  V30 2166 H 202.793 -2.06686 7.91974 0
M  V30 2167 N 205.456 -1.28612 -0.910864 0
M  V30 2168 C 206.388 -1.08589 -2.01844 0
M  V30 2169 C 207.401 -0.0367419 -1.62759 0
M  V30 2170 O 208.59 -0.280101 -1.76289 0
M  V30 2171 C 205.69 -0.628626 -3.33019 0
M  V30 2172 C 204.863 -1.75382 -4.00699 0
M  V30 2173 C 203.922 -1.28945 -5.10156 0
M  V30 2174 O 202.948 -1.9922 -5.33198 0
M  V30 2175 N 204.15 -0.154224 -5.80295 0
M  V30 2176 H 206.915 -2.03973 -2.19579 0
M  V30 2177 H 204.476 -1.20403 -1.08234 0
M  V30 2178 H 206.468 -0.301508 -4.03575 0
M  V30 2179 H 205.038 0.232451 -3.11735 0
M  V30 2180 H 204.258 -2.25039 -3.23653 0
M  V30 2181 H 205.546 -2.50854 -4.42662 0
M  V30 2182 H 204.944 0.43194 -5.64049 0
M  V30 2183 H 203.501 0.113599 -6.51701 0
M  V30 2184 N 206.934 1.1197 -1.10907 0
M  V30 2185 C 207.844 2.21433 -0.774896 0
M  V30 2186 C 208.86 1.72478 0.229657 0
M  V30 2187 O 210.036 2.01288 0.0672008 0
M  V30 2188 C 207.101 3.4602 -0.216986 0
M  V30 2189 C 206.162 4.09791 -1.27944 0
M  V30 2190 C 205.395 5.28431 -0.748055 0
M  V30 2191 O 205.618 5.68823 0.423833 0
M  V30 2192 O 204.552 5.82644 -1.51027 0
M  V30 2193 H 208.378 2.5242 -1.68873 0
M  V30 2194 H 205.963 1.20399 -0.884555 0
M  V30 2195 H 207.845 4.21304 0.090059 0
M  V30 2196 H 206.52 3.16698 0.669633 0
M  V30 2197 H 205.427 3.36265 -1.63941 0
M  V30 2198 H 206.76 4.4328 -2.13925 0
M  V30 2199 N 208.412 0.89855 1.29475 0
M  V30 2200 C 209.66 0.522847 1.9522 0
M  V30 2201 C 209.981 -0.93371 1.71192 0
M  V30 2202 O 209.251 -1.65823 1.04305 0
M  V30 2203 H 207.831 0.190366 0.722336 0
M  V30 2204 H 210.493 1.14459 1.5775 0
M  V30 2205 H 209.589 0.704476 3.04045 0
M  V30 2206 N 209.89 -1.43072 0.660911 0
M  V30 2207 C 210.822 -2.29108 -0.0647641 0
M  V30 2208 C 211.835 -1.42928 -0.779448 0
M  V30 2209 O 213.024 -1.66788 -0.635921 0
M  V30 2210 C 210.124 -3.20032 -1.11503 0
M  V30 2211 C 209.297 -4.34792 -0.476955 0
M  V30 2212 C 208.356 -5.06534 -1.42513 0
M  V30 2213 O 207.382 -5.61538 -0.930771 0
M  V30 2214 N 208.584 -5.1075 -2.75889 0
M  V30 2215 H 211.349 -2.92029 0.673731 0
M  V30 2216 H 208.91 -1.53846 0.50427 0
M  V30 2217 H 210.902 -3.64892 -1.75032 0
M  V30 2218 H 209.472 -2.58658 -1.75541 0
M  V30 2219 H 208.692 -3.92752 0.337572 0
M  V30 2220 H 209.98 -5.0879 -0.0318525 0
M  V30 2221 H 209.378 -4.67447 -3.18606 0
M  V30 2222 H 207.935 -5.59302 -3.347 0
M  V30 2223 N 211.368 -0.403325 -1.52352 0
M  V30 2224 C 212.784 -0.0539281 -1.59509 0
M  V30 2225 C 212.984 1.43307 -1.41652 0
M  V30 2226 O 212.04 2.19924 -1.24056 0
M  V30 2227 C 213.353 -0.543654 -2.95745 0
M  V30 2228 C 214.901 -0.501125 -3.08962 0
M  V30 2229 C 215.376 -0.967267 -4.47669 0
M  V30 2230 N 216.867 -0.923849 -4.53893 0
M  V30 2231 C 217.602 -1.25578 -5.5948 0
M  V30 2232 N 217.098 -1.65889 -6.72646 0
M  V30 2233 N 218.891 -1.17613 -5.49658 0
M  V30 2234 H 211.042 -1.37123 -1.62206 0
M  V30 2235 H 213.305 -0.56294 -0.76276 0
M  V30 2236 H 213.011 -1.58275 -3.14073 0
M  V30 2237 H 212.885 0.0498042 -3.77167 0
M  V30 2238 H 215.272 0.528909 -2.90321 0
M  V30 2239 H 215.353 -1.13056 -2.2946 0
M  V30 2240 H 214.997 -1.9956 -4.67053 0
M  V30 2241 H 214.927 -0.314698 -5.25659 0
M  V30 2242 H 217.418 -0.627403 -3.72655 0
M  V30 2243 H 217.731 -1.89543 -7.49195 0
M  V30 2244 H 216.076 -1.69787 -6.73942 0
M  V30 2245 H 219.267 -0.860115 -4.6013 0
M  V30 2246 H 219.44 -1.43812 -6.3184 0
M  V30 2247 N 212.846 1.57033 -0.133567 0
M  V30 2248 C 214.095 1.94861 0.520768 0
M  V30 2249 C 214.408 1.02012 1.66892 0
M  V30 2250 O 215.614 1.29365 2.38699 0
M  V30 2251 C 214.07 3.46362 0.977809 0
M  V30 2252 C 213.678 4.47773 -0.142674 0
M  V30 2253 C 215.422 3.93083 1.60269 0
M  V30 2254 C 213.329 5.90468 0.331883 0
M  V30 2255 H 212.259 0.727453 0.198315 0
M  V30 2256 H 214.91 1.82227 -0.215759 0
M  V30 2257 H 213.292 3.54282 1.7692 0
M  V30 2258 H 214.466 4.51536 -0.919317 0
M  V30 2259 H 212.781 4.10891 -0.675124 0
M  V30 2260 H 215.378 4.97121 1.96914 0
M  V30 2261 H 215.721 3.33876 2.48662 0
M  V30 2262 H 216.254 3.88025 0.876453 0
M  V30 2263 H 212.993 6.53463 -0.516341 0
M  V30 2264 H 212.513 5.90094 1.07469 0
M  V30 2265 H 214.192 6.42179 0.788332 0
M  V30 2266 N 214.325 -0.140222 1.56975 0
M  V30 2267 C 215.736 -0.699596 1.73097 0
M  V30 2268 C 216.087 -1.8134 0.749022 0
M  V30 2269 O 215.212 -2.16241 -0.0828503 0
M  V30 2270 C 215.807 -1.27582 3.1386 0
M  V30 2271 C 214.366 -1.78169 3.31561 0
M  V30 2272 C 213.513 -0.672855 2.69013 0
M  V30 2273 H 216.464 0.0855115 1.58469 0
M  V30 2274 H 216.485 -2.14561 3.14235 0
M  V30 2275 H 215.997 -0.464955 3.85305 0
M  V30 2276 H 214.098 -2.61801 2.65124 0
M  V30 2277 H 214.211 -1.90574 4.39566 0
M  V30 2278 H 212.575 -1.10118 2.29665 0
M  V30 2279 H 213.358 0.126679 3.43066 0
M  V30 2280 N 215.803 -1.52179 -0.40978 0
M  V30 2281 C 217.214 -1.58377 -0.988615 0
M  V30 2282 C 217.565 -0.423879 -1.91566 0
M  V30 2283 O 216.69 0.455844 -2.11544 0
M  V30 2284 C 217.285 -2.87044 -1.79976 0
M  V30 2285 C 215.844 -2.95722 -2.32863 0
M  V30 2286 C 214.991 -2.53309 -1.12828 0
M  V30 2287 H 217.942 -1.57558 -0.190039 0
M  V30 2288 H 217.963 -2.7236 -2.65707 0
M  V30 2289 H 217.475 -3.71444 -1.12478 0
M  V30 2290 H 215.576 -2.15814 -3.03735 0
M  V30 2291 H 215.689 -3.99951 -2.63773 0
M  V30 2292 H 214.053 -2.07142 -1.48204 0
M  V30 2293 H 214.836 -3.40082 -0.46897 0
M  V30 2294 N 217.281 0.66697 -1.42791 0
M  V30 2295 C 218.191 1.80962 -1.49299 0
M  V30 2296 C 219.207 1.69775 -0.381108 0
M  V30 2297 O 220.383 1.91188 -0.633188 0
M  V30 2298 C 217.448 3.17156 -1.40045 0
M  V30 2299 C 216.509 3.40242 -2.6179 0
M  V30 2300 C 215.742 4.69939 -2.52969 0
M  V30 2301 O 215.965 5.48372 -1.56985 0
M  V30 2302 O 214.899 4.94441 -3.43237 0
M  V30 2303 H 218.725 1.78427 -2.45759 0
M  V30 2304 H 216.31 0.823713 -1.24641 0
M  V30 2305 H 218.192 3.98413 -1.37276 0
M  V30 2306 H 216.867 3.20312 -0.467138 0
M  V30 2307 H 215.774 2.58802 -2.70134 0
M  V30 2308 H 217.107 3.41923 -3.54047 0
M  V30 2309 N 218.759 1.29093 0.90403 0
M  V30 2310 C 220.175 1.07011 1.1841 0
M  V30 2311 C 220.375 -0.181358 2.00682 0
M  V30 2312 O 219.431 -0.880331 2.36657 0
M  V30 2313 C 220.744 2.32311 1.90924 0
M  V30 2314 C 222.292 2.37587 2.03768 0
M  V30 2315 C 222.767 3.62679 2.79693 0
M  V30 2316 N 224.258 3.63376 2.87249 0
M  V30 2317 C 224.993 4.56848 3.46522 0
M  V30 2318 N 224.489 5.60648 4.06996 0
M  V30 2319 N 226.282 4.44426 3.44154 0
M  V30 2320 H 218.433 2.09412 0.354993 0
M  V30 2321 H 220.696 0.922181 0.219742 0
M  V30 2322 H 220.402 3.23536 1.37905 0
M  V30 2323 H 220.276 2.39483 2.91424 0
M  V30 2324 H 222.663 1.46853 2.55965 0
M  V30 2325 H 222.744 2.34403 1.02415 0
M  V30 2326 H 222.388 4.53762 2.28173 0
M  V30 2327 H 222.318 3.63119 3.81381 0
M  V30 2328 H 224.809 2.88321 2.44293 0
M  V30 2329 H 225.122 6.28101 4.50232 0
M  V30 2330 H 223.467 5.64463 4.05471 0
M  V30 2331 H 226.658 3.62529 2.96126 0
M  V30 2332 H 226.831 5.17457 3.90054 0
M  V30 2333 N 220.237 -1.11381 1.11499 0
M  V30 2334 C 221.147 -2.21019 0.786628 0
M  V30 2335 C 222.163 -1.72597 -0.220507 0
M  V30 2336 O 223.339 -2.01321 -0.0565251 0
M  V30 2337 C 220.404 -3.459 0.235333 0
M  V30 2338 C 219.465 -4.09107 1.30115 0
M  V30 2339 C 218.698 -5.28027 0.776068 0
M  V30 2340 O 218.921 -5.6904 -0.393661 0
M  V30 2341 O 217.855 -5.81835 1.54114 0
M  V30 2342 H 221.681 -2.51521 1.70209 0
M  V30 2343 H 219.266 -1.19928 0.890928 0
M  V30 2344 H 221.148 -4.21346 -0.067715 0
M  V30 2345 H 219.823 -3.17049 -0.652828 0
M  V30 2346 H 218.73 -3.35391 1.65722 0
M  V30 2347 H 220.063 -4.42139 2.16273 0
M  V30 2348 N 221.715 -0.905404 -1.28997 0
M  V30 2349 C 222.625 -0.392246 -2.31298 0
M  V30 2350 C 223.641 0.515889 -1.66176 0
M  V30 2351 O 224.817 0.404093 -1.97304 0
M  V30 2352 C 221.882 0.36686 -3.44754 0
M  V30 2353 C 220.943 -0.573485 -4.25452 0
M  V30 2354 C 220.176 0.149488 -5.33491 0
M  V30 2355 O 220.399 1.37255 -5.5364 0
M  V30 2356 O 219.333 -0.510919 -5.99728 0
M  V30 2357 H 223.159 -1.2411 -2.77183 0
M  V30 2358 H 220.744 -0.669926 -1.33538 0
M  V30 2359 H 222.626 0.795907 -4.13816 0
M  V30 2360 H 221.301 1.19169 -3.00966 0
M  V30 2361 H 220.208 -1.05176 -3.59011 0
M  V30 2362 H 221.541 -1.36489 -4.72897 0
M  V30 2363 N 223.193 1.4272 -0.668489 0
M  V30 2364 C 224.123 2.335 -0.000100175 0
M  V30 2365 C 225.104 1.50328 0.795964 0
M  V30 2366 O 226.289 1.78949 0.754385 0
M  V30 2367 C 223.419 3.33874 0.956302 0
M  V30 2368 C 222.373 4.27152 0.269278 0
M  V30 2369 C 221.699 5.17684 1.33818 0
M  V30 2370 C 222.999 5.15373 -0.847805 0
M  V30 2371 H 224.693 2.89639 -0.758244 0
M  V30 2372 H 222.239 1.39269 -0.366079 0
M  V30 2373 H 224.192 3.9629 1.43292 0
M  V30 2374 H 222.916 2.76025 1.74579 0
M  V30 2375 H 221.575 3.66123 -0.187042 0
M  V30 2376 H 221.223 4.56165 2.1195 0
M  V30 2377 H 220.923 5.80918 0.883659 0
M  V30 2378 H 222.447 5.82974 1.81586 0
M  V30 2379 H 223.861 5.7151 -0.452681 0
M  V30 2380 H 222.258 5.87407 -1.22773 0
M  V30 2381 H 223.328 4.5415 -1.69929 0
M  V30 2382 N 224.671 0.411399 1.52136 0
M  V30 2383 C 225.92 -0.165009 2.01024 0
M  V30 2384 C 226.233 -1.4603 1.30133 0
M  V30 2385 O 227.439 -2.1181 1.69849 0
M  V30 2386 C 225.895 -0.344618 3.58246 0
M  V30 2387 C 225.503 0.938716 4.38055 0
M  V30 2388 C 227.247 -0.876195 4.15359 0
M  V30 2389 C 225.154 0.726172 5.86925 0
M  V30 2390 H 224.084 -0.0654407 0.751155 0
M  V30 2391 H 226.735 0.537192 1.75461 0
M  V30 2392 H 225.117 -1.10921 3.80148 0
M  V30 2393 H 226.291 1.70963 4.27912 0
M  V30 2394 H 224.606 1.39688 3.92271 0
M  V30 2395 H 227.203 -1.05128 5.24263 0
M  V30 2396 H 227.546 -1.85152 3.7286 0
M  V30 2397 H 228.079 -0.170607 3.97434 0
M  V30 2398 H 224.818 1.67312 6.33788 0
M  V30 2399 H 224.338 -0.00540283 5.998 0
M  V30 2400 H 226.017 0.369231 6.45946 0
M  V30 2401 N 226.149 -1.5696 0.141893 0
M  V30 2402 C 227.081 -2.13619 -0.830627 0
M  V30 2403 C 228.094 -1.08439 -1.21428 0
M  V30 2404 O 229.283 -1.35734 -1.15925 0
M  V30 2405 C 226.383 -2.63978 -2.12529 0
M  V30 2406 C 225.556 -3.93504 -1.9098 0
M  V30 2407 C 224.615 -4.29225 -3.04388 0
M  V30 2408 O 223.641 -4.97641 -2.76302 0
M  V30 2409 N 224.843 -3.88393 -4.31429 0
M  V30 2410 H 227.608 -2.97691 -0.34641 0
M  V30 2411 H 225.169 -1.61846 -0.0418375 0
M  V30 2412 H 227.161 -2.84891 -2.87436 0
M  V30 2413 H 225.731 -1.84659 -2.52229 0
M  V30 2414 H 224.951 -3.81269 -1.00139 0
M  V30 2415 H 226.239 -4.78154 -1.73914 0
M  V30 2416 H 225.637 -3.33257 -4.57117 0
M  V30 2417 H 224.194 -4.14368 -5.03133 0
M  V30 2418 N 227.627 0.131896 -1.57047 0
M  V30 2419 C 228.852 0.860418 -1.8871 0
M  V30 2420 C 229.277 1.73251 -0.73251 0
M  V30 2421 O 228.635 1.785 0.317429 0
M  V30 2422 C 228.683 1.68047 -3.19049 0
M  V30 2423 O 227.787 2.7862 -3.04047 0
M  V30 2424 H 227.128 0.238743 -0.619595 0
M  V30 2425 H 229.658 0.118169 -2.04258 0
M  V30 2426 H 229.668 2.07238 -3.51449 0
M  V30 2427 H 228.343 1.04018 -4.02682 0
M  V30 2428 H 226.92 2.42726 -2.83088 0
M  V30 2429 N 229.106 1.52395 0.401703 0
M  V30 2430 C 230.352 1.67065 1.14966 0
M  V30 2431 C 230.685 0.403052 1.89971 0
M  V30 2432 O 229.96 -0.598774 1.85054 0
M  V30 2433 C 230.243 2.8975 2.13815 0
M  V30 2434 C 230.096 4.26578 1.42658 0
M  V30 2435 C 231.415 3.07965 3.14397 0
M  V30 2436 H 228.534 0.607968 0.416587 0
M  V30 2437 H 231.176 1.84965 0.434511 0
M  V30 2438 H 229.326 2.74619 2.74803 0
M  V30 2439 H 230.998 4.53451 0.847329 0
M  V30 2440 H 229.241 4.27639 0.72849 0
M  V30 2441 H 229.912 5.08483 2.14823 0
M  V30 2442 H 232.388 3.22043 2.63491 0
M  V30 2443 H 231.264 3.95308 3.80819 0
M  V30 2444 H 231.525 2.21611 3.82545 0
M  V30 2445 N 230.584 -0.659388 1.43143 0
M  V30 2446 C 231.514 -1.78422 1.50625 0
M  V30 2447 C 232.495 -1.66216 0.361443 0
M  V30 2448 O 233.68 -1.85404 0.577834 0
M  V30 2449 C 230.81 -3.16815 1.42287 0
M  V30 2450 C 229.764 -3.43777 2.54954 0
M  V30 2451 C 229.09 -4.81905 2.31671 0
M  V30 2452 C 230.39 -3.39134 3.97222 0
M  V30 2453 H 232.084 -1.72417 2.44771 0
M  V30 2454 H 229.63 -0.828084 1.17808 0
M  V30 2455 H 231.583 -3.95253 1.46127 0
M  V30 2456 H 230.307 -3.23534 0.446435 0
M  V30 2457 H 228.966 -2.67707 2.50457 0
M  V30 2458 H 228.614 -4.85294 1.32284 0
M  V30 2459 H 228.314 -5.00906 3.07192 0
M  V30 2460 H 229.838 -5.62609 2.37284 0
M  V30 2461 H 231.252 -4.07518 4.03239 0
M  V30 2462 H 229.649 -3.69671 4.72719 0
M  V30 2463 H 230.719 -2.37426 4.22797 0
M  V30 2464 N 232.062 -1.29571 -0.897171 0
M  V30 2465 C 233.025 -1.14913 -1.98312 0
M  V30 2466 C 234.025 -0.0838629 -1.60581 0
M  V30 2467 O 235.215 -0.331006 -1.71026 0
M  V30 2468 C 232.347 -0.757835 -3.3237 0
M  V30 2469 H 233.54 -2.11377 -2.12743 0
M  V30 2470 H 231.093 -1.12793 -1.08201 0
M  V30 2471 H 231.828 0.206837 -3.2364 0
M  V30 2472 H 231.613 -1.52755 -3.61121 0
M  V30 2473 H 233.103 -0.678408 -4.12053 0
M  V30 2474 N 233.54 1.10788 -1.12088 0
M  V30 2475 C 234.472 2.16816 -0.743213 0
M  V30 2476 C 235.485 1.6119 0.228412 0
M  V30 2477 O 236.674 1.78497 0.0102931 0
M  V30 2478 C 233.774 3.38809 -0.0787313 0
M  V30 2479 C 232.947 4.23885 -1.0789 0
M  V30 2480 C 232.006 5.24334 -0.442713 0
M  V30 2481 O 231.032 5.58497 -1.09864 0
M  V30 2482 N 232.234 5.75079 0.791457 0
M  V30 2483 H 234.999 2.49825 -1.65552 0
M  V30 2484 H 232.56 1.26373 -1.012 0
M  V30 2485 H 234.552 4.03107 0.358766 0
M  V30 2486 H 233.122 3.03805 0.736275 0
M  V30 2487 H 232.342 3.55939 -1.69414 0
M  V30 2488 H 233.63 4.77562 -1.75533 0
M  V30 2489 H 233.028 5.49517 1.3434 0
M  V30 2490 H 231.585 6.4118 1.17183 0
M  V30 2491 N 235.018 0.912232 1.28515 0
M  V30 2492 C 236.264 0.545405 1.95328 0
M  V30 2493 C 236.597 -0.908313 1.71649 0
M  V30 2494 O 235.872 -1.64575 1.03659 0
M  V30 2495 C 236.155 0.853483 3.4984 0
M  V30 2496 C 236.008 2.35982 3.82926 0
M  V30 2497 C 237.327 0.348589 4.38717 0
M  V30 2498 H 234.446 0.199626 0.709449 0
M  V30 2499 H 237.088 1.1412 1.5191 0
M  V30 2500 H 235.238 0.34643 3.86952 0
M  V30 2501 H 236.91 2.93738 3.55691 0
M  V30 2502 H 235.153 2.81543 3.30024 0
M  V30 2503 H 235.824 2.52593 4.90816 0
M  V30 2504 H 238.3 0.78294 4.08668 0
M  V30 2505 H 237.176 0.593242 5.45685 0
M  V30 2506 H 237.437 -0.751049 4.35674 0
M  V30 2507 N 236.496 -1.42363 0.676048 0
M  V30 2508 C 237.459 -2.29199 0.00766941 0
M  V30 2509 C 238.459 -1.43389 -0.727745 0
M  V30 2510 O 239.649 -1.64764 -0.56556 0
M  V30 2511 C 236.781 -3.2591 -0.999785 0
M  V30 2512 H 237.974 -2.89794 0.771988 0
M  V30 2513 H 235.527 -1.50024 0.438468 0
M  V30 2514 H 236.262 -2.70256 -1.79255 0
M  V30 2515 H 236.047 -3.89202 -0.475829 0
M  V30 2516 H 237.537 -3.91028 -1.46583 0
M  V30 2517 N 237.974 -0.419461 -1.51915 0
M  V30 2518 C 238.884 0.407528 -2.31033 0
M  V30 2519 C 239.9 1.04413 -1.3919 0
M  V30 2520 O 241.076 1.0434 -1.72265 0
M  V30 2521 C 238.141 1.50365 -3.12396 0
M  V30 2522 C 237.202 0.889029 -4.19994 0
M  V30 2523 C 236.435 1.93291 -4.97468 0
M  V30 2524 O 236.658 3.15259 -4.75361 0
M  V30 2525 O 235.592 1.53339 -5.8204 0
M  V30 2526 H 239.418 -0.237865 -3.02767 0
M  V30 2527 H 237.003 -0.182413 -1.48282 0
M  V30 2528 H 238.885 2.13975 -3.63032 0
M  V30 2529 H 237.56 2.13345 -2.43445 0
M  V30 2530 H 236.467 0.215353 -3.7348 0
M  V30 2531 H 237.8 0.302991 -4.91267 0
M  V30 2532 N 239.452 1.56882 -0.150215 0
M  V30 2533 C 240.384 2.14057 0.819286 0
M  V30 2534 C 241.397 1.09082 1.20851 0
M  V30 2535 O 242.586 1.36347 1.15203 0
M  V30 2536 C 239.686 2.65102 2.11127 0
M  V30 2537 C 238.859 3.94511 1.88891 0
M  V30 2538 C 237.918 4.30834 3.02107 0
M  V30 2539 O 236.944 4.99099 2.73659 0
M  V30 2540 N 238.146 3.90676 4.29363 0
M  V30 2541 H 240.911 2.97871 0.330618 0
M  V30 2542 H 238.472 1.61866 0.0332538 0
M  V30 2543 H 240.464 2.86411 2.85921 0
M  V30 2544 H 239.034 1.85994 2.51247 0
M  V30 2545 H 238.254 3.81795 0.981152 0
M  V30 2546 H 239.542 4.7907 1.71376 0
M  V30 2547 H 238.94 3.35677 4.55343 0
M  V30 2548 H 237.497 4.1703 5.00928 0
M  V30 2549 N 240.93 -0.123565 1.57115 0
M  V30 2550 C 242.177 -0.832153 1.84612 0
M  V30 2551 C 242.505 -1.80093 0.734627 0
M  V30 2552 O 241.76 -1.93766 -0.27442 0
M  V30 2553 C 242.059 -1.62016 3.18568 0
M  V30 2554 C 241.725 -0.796084 4.43817 0
M  V30 2555 C 240.387 -0.568816 4.77826 0
M  V30 2556 C 242.739 -0.221364 5.2073 0
M  V30 2557 C 240.067 0.243499 5.86194 0
M  V30 2558 C 242.419 0.578117 6.29953 0
M  V30 2559 C 241.083 0.815744 6.62497 0
M  V30 2560 H 240.353 -0.304507 0.675542 0
M  V30 2561 H 243 -0.0947248 1.91266 0
M  V30 2562 H 241.305 -2.42837 3.0747 0
M  V30 2563 H 243.002 -2.17231 3.37064 0
M  V30 2564 H 239.592 -0.983307 4.17168 0
M  V30 2565 H 243.776 -0.384173 4.94811 0
M  V30 2566 H 239.032 0.436871 6.09837 0
M  V30 2567 H 243.206 1.03046 6.88734 0
M  V30 2568 H 240.833 1.44701 7.46301 0
M  V30 2569 N 242.408 -1.52605 -0.393616 0
M  V30 2570 C 243.633 -1.71592 -1.16495 0
M  V30 2571 C 244.058 -0.43133 -1.83088 0
M  V30 2572 O 243.416 0.612523 -1.7064 0
M  V30 2573 C 243.464 -2.86318 -2.19213 0
M  V30 2574 O 242.568 -2.52969 -3.257 0
M  V30 2575 H 241.909 -0.570734 -0.33935 0
M  V30 2576 H 244.439 -1.99377 -0.459324 0
M  V30 2577 H 244.449 -3.1168 -2.63286 0
M  V30 2578 H 243.124 -3.79511 -1.7013 0
M  V30 2579 H 241.701 -2.38332 -2.86797 0
M  V30 2580 N 243.887 0.651787 -1.4349 0
M  V30 2581 C 245.303 0.96762 -1.26922 0
M  V30 2582 C 245.503 2.00602 -0.189982 0
M  V30 2583 O 244.559 2.48793 0.431107 0
M  V30 2584 C 245.872 1.45052 -2.63401 0
M  V30 2585 C 247.42 1.5671 -2.70945 0
M  V30 2586 C 247.895 2.0839 -4.07845 0
M  V30 2587 N 249.386 2.1569 -4.09917 0
M  V30 2588 C 250.121 2.56804 -5.12679 0
M  V30 2589 N 249.617 2.97203 -6.25813 0
M  V30 2590 N 251.41 2.56756 -5.00033 0
M  V30 2591 H 243.561 -0.0353158 -2.12371 0
M  V30 2592 H 245.824 0.0467858 -0.946845 0
M  V30 2593 H 245.53 0.761926 -3.43348 0
M  V30 2594 H 245.404 2.42529 -2.88894 0
M  V30 2595 H 247.791 2.2467 -1.9133 0
M  V30 2596 H 247.872 0.57662 -2.49216 0
M  V30 2597 H 247.516 1.41031 -4.87927 0
M  V30 2598 H 247.446 3.08271 -4.26938 0
M  V30 2599 H 249.937 1.87237 -3.28254 0
M  V30 2600 H 250.25 3.27328 -7.00055 0
M  V30 2601 H 248.595 2.95004 -6.29283 0
M  V30 2602 H 251.786 2.24572 -4.10713 0
M  V30 2603 H 251.959 2.88475 -5.80247 0
M  V30 2604 N 245.365 1.30045 0.890287 0
M  V30 2605 C 246.328 1.15963 1.977 0
M  V30 2606 C 247.328 0.0923777 1.60534 0
M  V30 2607 O 248.518 0.340071 1.70848 0
M  V30 2608 C 245.65 0.775451 3.31963 0
M  V30 2609 H 246.843 2.12502 2.11619 0
M  V30 2610 H 244.396 1.13366 1.07601 0
M  V30 2611 H 245.131 -0.189671 3.23745 0
M  V30 2612 H 244.916 1.54668 3.60306 0
M  V30 2613 H 246.406 0.700251 4.11687 0
M  V30 2614 N 246.843 -1.10192 1.12674 0
M  V30 2615 C 248.09 -1.82205 0.883606 0
M  V30 2616 C 248.418 -1.8532 -0.590492 0
M  V30 2617 O 247.673 -1.31137 -1.45264 0
M  V30 2618 C 247.972 -3.28552 1.4067 0
M  V30 2619 C 247.638 -3.45582 2.89627 0
M  V30 2620 C 246.3 -3.49937 3.30299 0
M  V30 2621 C 248.652 -3.50768 3.85501 0
M  V30 2622 C 245.98 -3.57049 4.65546 0
M  V30 2623 C 248.332 -3.59414 5.20581 0
M  V30 2624 C 246.996 -3.62034 5.60792 0
M  V30 2625 H 246.266 -0.666735 0.323334 0
M  V30 2626 H 248.913 -1.29868 1.40736 0
M  V30 2627 H 247.218 -3.83473 0.80347 0
M  V30 2628 H 248.915 -3.82788 1.19475 0
M  V30 2629 H 245.505 -3.42871 2.57172 0
M  V30 2630 H 249.689 -3.46651 3.55171 0
M  V30 2631 H 244.945 -3.57361 4.96088 0
M  V30 2632 H 249.119 -3.62371 5.94693 0
M  V30 2633 H 246.746 -3.67298 6.6558 0
M  V30 2634 N 248.321 -0.919034 -1.28029 0
M  V30 2635 C 249.268 -0.410005 -2.27129 0
M  V30 2636 C 250.238 0.518405 -1.57803 0
M  V30 2637 O 251.423 0.439451 -1.8567 0
M  V30 2638 C 248.563 0.339054 -3.4343 0
M  V30 2639 C 247.676 -0.622468 -4.27492 0
M  V30 2640 C 246.811 0.145567 -5.31001 0
M  V30 2641 C 245.85 -0.809226 -6.06727 0
M  V30 2642 N 244.987 -0.0743728 -7.02061 0
M  V30 2643 H 249.827 -1.26011 -2.70047 0
M  V30 2644 H 247.364 -0.632663 -1.328 0
M  V30 2645 H 249.322 0.789586 -4.0966 0
M  V30 2646 H 247.952 1.15346 -3.01488 0
M  V30 2647 H 247.004 -1.19153 -3.61257 0
M  V30 2648 H 248.316 -1.35252 -4.80113 0
M  V30 2649 H 247.47 0.656417 -6.03139 0
M  V30 2650 H 246.209 0.908643 -4.79161 0
M  V30 2651 H 245.214 -1.3314 -5.33436 0
M  V30 2652 H 246.439 -1.57194 -6.60656 0
M  V30 2653 H 244.385 0.670616 -6.52563 0
M  V30 2654 H 244.302 -0.744157 -7.52329 0
M  V30 2655 H 245.57 0.416109 -7.78389 0
M  V30 2656 N 249.799 1.42003 -0.683588 0
M  V30 2657 C 251.048 2.00638 -0.206681 0
M  V30 2658 C 251.361 1.5472 1.19671 0
M  V30 2659 O 252.567 2.05833 1.77045 0
M  V30 2660 C 251.023 3.58487 -0.318632 0
M  V30 2661 C 250.631 4.1339 -1.72663 0
M  V30 2662 C 252.375 4.24384 0.0991141 0
M  V30 2663 C 250.282 5.63633 -1.79087 0
M  V30 2664 H 249.212 0.750408 -0.0735107 0
M  V30 2665 H 251.863 1.62624 -0.850048 0
M  V30 2666 H 250.245 3.94047 0.392781 0
M  V30 2667 H 251.419 3.89273 -2.46583 0
M  V30 2668 H 249.734 3.59976 -2.09299 0
M  V30 2669 H 252.331 5.34652 0.0713833 0
M  V30 2670 H 252.674 4.00505 1.13586 0
M  V30 2671 H 253.207 3.93816 -0.561599 0
M  V30 2672 H 249.946 5.92323 -2.80774 0
M  V30 2673 H 249.466 5.89714 -1.09535 0
M  V30 2674 H 251.145 6.28201 -1.5483 0
M  V30 2675 N 251.277 0.427512 1.51691 0
M  V30 2676 C 252.225 -0.403359 2.29076 0
M  V30 2677 C 253.219 -1.02962 1.34518 0
M  V30 2678 O 254.425 -0.965715 1.51901 0
M  V30 2679 H 250.8 -0.148879 0.737115 0
M  V30 2680 H 252.771 0.270295 2.97173 0
M  V30 2681 C 251.52 -1.49763 3.13794 0
M  V30 2682 H 250.843 -1.02508 3.86435 0
M  V30 2683 H 252.283 -2.05244 3.71014 0
M  V30 2684 C 250.742 -2.47536 2.28533 0
M  V30 2685 O 251.272 -3.51848 1.93819 0
M  V30 2686 N 249.478 -2.18187 1.91945 0
M  V30 2687 H 249.025 -1.33389 2.20375 0
M  V30 2688 H 248.983 -2.83848 1.35195 0
M  V30 2689 N 252.755 -1.56801 0.158532 0
M  V30 2690 C 253.665 -2.20916 -0.789518 0
M  V30 2691 C 254.681 -1.1969 -1.26294 0
M  V30 2692 O 255.857 -1.52308 -1.31773 0
M  V30 2693 C 252.922 -2.82727 -2.00665 0
M  V30 2694 C 251.983 -3.99114 -1.58134 0
M  V30 2695 C 251.216 -4.57968 -2.74045 0
M  V30 2696 O 251.439 -4.15704 -3.90572 0
M  V30 2697 O 250.373 -5.48047 -2.48855 0
M  V30 2698 H 254.199 -3.02464 -0.273681 0
M  V30 2699 H 251.784 -1.4924 -0.0690548 0
M  V30 2700 H 253.666 -3.21968 -2.71872 0
M  V30 2701 H 252.341 -2.04184 -2.51179 0
M  V30 2702 H 251.248 -3.64567 -0.839155 0
M  V30 2703 H 252.581 -4.79212 -1.12325 0
M  V30 2704 N 254.233 0.115231 -1.57178 0
M  V30 2705 C 255.163 1.1423 -2.03651 0
M  V30 2706 C 256.144 1.42967 -0.921655 0
M  V30 2707 O 257.329 1.53343 -1.19162 0
M  V30 2708 C 254.459 2.4675 -2.44401 0
M  V30 2709 C 253.413 2.32467 -3.59365 0
M  V30 2710 C 252.739 3.69984 -3.86026 0
M  V30 2711 C 254.039 1.78203 -4.90959 0
M  V30 2712 H 255.733 0.755749 -2.89705 0
M  V30 2713 H 253.279 0.362093 -1.39373 0
M  V30 2714 H 255.232 3.18854 -2.75517 0
M  V30 2715 H 253.956 2.87302 -1.55322 0
M  V30 2716 H 252.615 1.62811 -3.28463 0
M  V30 2717 H 252.263 4.08028 -2.94147 0
M  V30 2718 H 251.963 3.61279 -4.63412 0
M  V30 2719 H 253.487 4.43587 -4.19599 0
M  V30 2720 H 254.901 2.40128 -5.20587 0
M  V30 2721 H 253.298 1.8031 -5.72371 0
M  V30 2722 H 254.368 0.739876 -4.79222 0
M  V30 2723 N 255.711 1.52812 0.385517 0
M  V30 2724 C 256.658 1.77838 1.47113 0
M  V30 2725 C 257.628 0.621757 1.54024 0
M  V30 2726 O 258.813 0.861846 1.70226 0
M  V30 2727 C 255.953 1.95618 2.84302 0
M  V30 2728 C 255.066 3.23316 2.86515 0
M  V30 2729 C 254.201 3.31394 4.15152 0
M  V30 2730 C 253.24 4.53201 4.1143 0
M  V30 2731 N 252.377 4.58542 5.3168 0
M  V30 2732 H 257.217 2.70482 1.25073 0
M  V30 2733 H 254.754 1.34006 0.606692 0
M  V30 2734 H 256.712 2.03912 3.63972 0
M  V30 2735 H 255.342 1.06331 3.04784 0
M  V30 2736 H 254.394 3.24076 1.99195 0
M  V30 2737 H 255.706 4.13045 2.79634 0
M  V30 2738 H 254.86 3.3889 5.03228 0
M  V30 2739 H 253.599 2.39645 4.24761 0
M  V30 2740 H 252.604 4.45827 3.21742 0
M  V30 2741 H 253.829 5.46271 4.03442 0
M  V30 2742 H 251.775 3.69686 5.41912 0
M  V30 2743 H 251.692 5.42148 5.26889 0
M  V30 2744 H 252.96 4.70296 6.21644 0
M  V30 2745 N 257.189 -0.644168 1.43834 0
M  V30 2746 C 258.152 -1.73857 1.49353 0
M  V30 2747 C 259.152 -1.56315 0.377112 0
M  V30 2748 O 260.342 -1.62048 0.639226 0
M  V30 2749 C 257.474 -3.12819 1.35488 0
M  V30 2750 H 258.667 -1.70342 2.46827 0
M  V30 2751 H 256.22 -0.856652 1.30733 0
M  V30 2752 H 256.955 -3.2194 0.390569 0
M  V30 2753 H 256.74 -3.26958 2.16428 0
M  V30 2754 H 258.23 -3.92606 1.42302 0
M  V30 2755 N 258.668 -1.30515 -0.883378 0
M  V30 2756 C 259.578 -1.18959 -2.02203 0
M  V30 2757 C 260.594 -0.109172 -1.73657 0
M  V30 2758 O 261.77 -0.324413 -1.9877 0
M  V30 2759 C 258.835 -0.883871 -3.35244 0
M  V30 2760 C 257.896 -2.04982 -3.77201 0
M  V30 2761 C 257.129 -1.75859 -5.03894 0
M  V30 2762 O 257.352 -0.687276 -5.66244 0
M  V30 2763 O 256.286 -2.61146 -5.42297 0
M  V30 2764 H 260.112 -2.14616 -2.1488 0
M  V30 2765 H 257.697 -1.10124 -1.0096 0
M  V30 2766 H 259.579 -0.728644 -4.15053 0
M  V30 2767 H 258.254 0.0427798 -3.23672 0
M  V30 2768 H 257.161 -2.26038 -2.9809 0
M  V30 2769 H 258.494 -2.95825 -3.93381 0
M  V30 2770 N 260.146 1.09593 -1.13257 0
M  V30 2771 C 261.392 1.82003 -0.89458 0
M  V30 2772 C 261.725 1.85402 0.577906 0
M  V30 2773 O 261 1.32099 1.42759 0
M  V30 2774 C 261.283 3.28237 -1.48096 0
M  V30 2775 C 261.136 3.3312 -3.02244 0
M  V30 2776 C 262.455 4.24871 -1.14774 0
M  V30 2777 H 259.574 0.66077 -0.326424 0
M  V30 2778 H 262.216 1.28389 -1.40058 0
M  V30 2779 H 260.366 3.74024 -1.05062 0
M  V30 2780 H 262.038 2.95748 -3.54021 0
M  V30 2781 H 260.281 2.72756 -3.37323 0
M  V30 2782 H 260.952 4.3613 -3.38371 0
M  V30 2783 H 263.428 3.87361 -1.51957 0
M  V30 2784 H 262.304 5.25532 -1.58452 0
M  V30 2785 H 262.565 4.42058 -0.0611849 0
M  V30 2786 N 261.624 0.925811 1.2754 0
M  V30 2787 C 262.587 0.428129 2.25166 0
M  V30 2788 C 263.587 -0.452261 1.54309 0
M  V30 2789 O 264.777 -0.253608 1.72344 0
M  V30 2790 C 261.909 -0.384749 3.38722 0
M  V30 2791 H 263.102 1.29066 2.70706 0
M  V30 2792 H 260.655 0.706323 1.3943 0
M  V30 2793 H 261.39 -1.26618 2.98561 0
M  V30 2794 H 261.175 0.246454 3.91325 0
M  V30 2795 H 262.665 -0.723389 4.11287 0
M  V30 2796 N 263.102 -1.41638 0.69111 0
M  V30 2797 C 264.05 -2.32597 0.0115199 0
M  V30 2798 C 265.044 -1.5072 -0.773296 0
M  V30 2799 O 266.25 -1.66685 -0.67942 0
M  V30 2800 H 262.625 -0.751849 -0.0150746 0
M  V30 2801 H 264.596 -2.87593 0.795791 0
M  V30 2802 C 263.345 -3.35467 -0.914172 0
M  V30 2803 H 262.668 -3.9852 -0.319687 0
M  V30 2804 H 264.108 -4.01662 -1.35808 0
M  V30 2805 C 262.567 -2.69004 -2.02826 0
M  V30 2806 O 263.097 -2.53444 -3.11655 0
M  V30 2807 N 261.303 -2.2777 -1.80469 0
M  V30 2808 H 260.85 -2.40626 -0.919615 0
M  V30 2809 H 260.808 -1.83635 -2.55197 0
M  V30 2810 N 264.58 -0.43555 -1.51462 0
M  V30 2811 C 265.53 0.394701 -2.24558 0
M  V30 2812 C 266.514 0.99157 -1.26715 0
M  V30 2813 O 267.706 0.910007 -1.51815 0
M  V30 2814 C 264.835 1.4963 -3.08975 0
M  V30 2815 C 263.921 0.908912 -4.14246 0
M  V30 2816 N 264.312 0.0505335 -5.05775 0
M  V30 2817 C 262.61 1.17668 -4.30198 0
M  V30 2818 C 263.311 -0.279161 -5.8103 0
M  V30 2819 N 262.287 0.336767 -5.42556 0
M  V30 2820 H 266.089 -0.267106 -2.92684 0
M  V30 2821 H 263.603 -0.247518 -1.60503 0
M  V30 2822 H 265.6 2.10394 -3.59917 0
M  V30 2823 H 264.26 2.16046 -2.42393 0
M  V30 2824 H 265.271 -0.31577 -5.16936 0
M  V30 2825 H 261.948 1.83847 -3.74842 0
M  V30 2826 H 263.338 -0.977553 -6.64751 0
M  V30 2827 N 266.058 1.56714 -0.166846 0
M  V30 2828 C 266.988 2.20754 0.760913 0
M  V30 2829 C 267.969 1.16178 1.24244 0
M  V30 2830 O 269.154 1.44592 1.29641 0
M  V30 2831 C 266.284 2.84478 1.99223 0
M  V30 2832 C 265.238 3.95053 1.64672 0
M  V30 2833 C 264.564 4.45805 2.95232 0
M  V30 2834 C 265.864 5.14865 0.878155 0
M  V30 2835 H 267.558 2.98537 0.22713 0
M  V30 2836 H 265.104 1.43596 0.107805 0
M  V30 2837 H 267.057 3.27951 2.64624 0
M  V30 2838 H 265.781 2.04056 2.55007 0
M  V30 2839 H 264.44 3.52228 1.01641 0
M  V30 2840 H 264.088 3.62181 3.49047 0
M  V30 2841 H 263.788 5.204 2.7287 0
M  V30 2842 H 265.312 4.91962 3.6167 0
M  V30 2843 H 266.726 5.55059 1.43466 0
M  V30 2844 H 265.123 5.95348 0.753738 0
M  V30 2845 H 266.193 4.84735 -0.126377 0
M  V30 2846 N 267.536 -0.106894 1.57237 0
M  V30 2847 C 268.499 -1.11466 2.0027 0
M  V30 2848 C 269.499 -1.33623 0.894519 0
M  V30 2849 O 270.689 -1.29935 1.16028 0
M  V30 2850 C 267.821 -2.46646 2.35327 0
M  V30 2851 H 269.014 -0.744516 2.90512 0
M  V30 2852 H 266.567 -0.351576 1.52295 0
M  V30 2853 H 267.302 -2.88558 1.48003 0
M  V30 2854 H 267.087 -2.31915 3.16161 0
M  V30 2855 H 268.577 -3.19151 2.69318 0
M  V30 2856 N 269.014 -1.53014 -0.377408 0
M  V30 2857 C 270.26 -1.68872 -1.12294 0
M  V30 2858 C 270.593 -0.433224 -1.89306 0
M  V30 2859 O 269.868 0.569258 -1.85983 0
M  V30 2860 C 270.151 -2.93115 -2.09179 0
M  V30 2861 C 270.004 -4.28794 -1.35853 0
M  V30 2862 C 271.323 -3.12928 -3.09458 0
M  V30 2863 H 268.442 -0.614518 -0.406862 0
M  V30 2864 H 271.084 -1.85633 -0.40503 0
M  V30 2865 H 269.234 -2.78956 -2.70399 0
M  V30 2866 H 270.906 -4.54742 -0.775082 0
M  V30 2867 H 269.149 -4.28744 -0.660364 0
M  V30 2868 H 269.82 -5.11837 -2.06706 0
M  V30 2869 H 272.296 -3.26194 -2.58334 0
M  V30 2870 H 271.172 -4.01316 -3.74482 0
M  V30 2871 H 271.433 -2.27669 -3.78971 0
M  V30 2872 N 270.492 0.636531 -1.44174 0
M  V30 2873 C 271.422 1.76003 -1.53444 0
M  V30 2874 C 272.403 1.65619 -0.387841 0
M  V30 2875 O 273.588 1.84461 -0.607257 0
M  V30 2876 C 270.718 3.14511 -1.4731 0
M  V30 2877 C 269.672 3.39677 -2.60391 0
M  V30 2878 C 268.998 4.78159 -2.39308 0
M  V30 2879 C 270.298 3.32772 -4.02567 0
M  V30 2880 H 271.992 1.68501 -2.47483 0
M  V30 2881 H 269.538 0.809237 -1.19111 0
M  V30 2882 H 271.491 3.92878 -1.52397 0
M  V30 2883 H 270.215 3.22783 -0.49785 0
M  V30 2884 H 268.874 2.63688 -2.54684 0
M  V30 2885 H 268.522 4.83128 -1.39988 0
M  V30 2886 H 268.222 4.95956 -3.15122 0
M  V30 2887 H 269.746 5.58762 -2.46205 0
M  V30 2888 H 271.16 4.01051 -4.09672 0
M  V30 2889 H 269.557 3.62104 -4.7854 0
M  V30 2890 H 270.627 2.30669 -4.2652 0
M  V30 2891 N 271.97 1.30982 0.876444 0
M  V30 2892 C 272.88 1.2003 2.01569 0
M  V30 2893 C 273.896 0.11838 1.73597 0
M  V30 2894 O 275.072 0.33495 1.98595 0
M  V30 2895 C 272.137 0.901637 3.34771 0
M  V30 2896 C 271.198 2.06979 3.76109 0
M  V30 2897 C 270.431 1.78529 5.02954 0
M  V30 2898 O 270.654 0.717296 5.65872 0
M  V30 2899 O 269.588 2.64019 5.40905 0
M  V30 2900 H 273.414 2.15753 2.13739 0
M  V30 2901 H 270.999 1.10658 1.00375 0
M  V30 2902 H 272.881 0.750645 4.1466 0
M  V30 2903 H 271.556 -0.0256141 3.2369 0
M  V30 2904 H 270.463 2.27616 2.96887 0
M  V30 2905 H 271.796 2.97907 3.91807 0
M  V30 2906 N 273.449 -1.08991 1.13837 0
M  V30 2907 C 274.396 -2.15748 0.819835 0
M  V30 2908 C 275.366 -1.64636 -0.220026 0
M  V30 2909 O 276.551 -1.90582 -0.0912757 0
M  V30 2910 C 273.691 -3.4382 0.296913 0
M  V30 2911 C 272.804 -4.0881 1.39636 0
M  V30 2912 C 271.939 -5.24655 0.831314 0
M  V30 2913 C 270.978 -5.81575 1.90886 0
M  V30 2914 N 270.115 -6.88774 1.36142 0
M  V30 2915 H 274.955 -2.42338 1.73426 0
M  V30 2916 H 272.492 -1.18935 0.865613 0
M  V30 2917 H 274.45 -4.17193 -0.0244339 0
M  V30 2918 H 273.08 -3.17535 -0.580628 0
M  V30 2919 H 272.132 -3.33258 1.83422 0
M  V30 2920 H 273.444 -4.47141 2.21058 0
M  V30 2921 H 272.598 -6.04942 0.461515 0
M  V30 2922 H 271.337 -4.87698 -0.013932 0
M  V30 2923 H 270.342 -4.99946 2.28767 0
M  V30 2924 H 271.567 -6.20592 2.75758 0
M  V30 2925 H 269.513 -6.53788 0.538254 0
M  V30 2926 H 269.43 -7.25898 2.11208 0
M  V30 2927 H 270.698 -7.72806 1.01933 0
M  V30 2928 N 274.927 -0.932562 -1.27047 0
M  V30 2929 C 276.343 -0.633544 -1.46487 0
M  V30 2930 C 276.543 0.815746 -1.84249 0
M  V30 2931 O 275.599 1.59319 -1.95892 0
M  V30 2932 C 276.912 -1.58758 -2.55375 0
M  V30 2933 C 278.46 -1.59634 -2.69232 0
M  V30 2934 C 278.935 -2.53747 -3.81283 0
M  V30 2935 N 280.426 -2.51982 -3.88664 0
M  V30 2936 C 281.161 -3.21491 -4.74796 0
M  V30 2937 N 280.657 -4.00395 -5.65381 0
M  V30 2938 N 282.45 -3.10485 -4.68568 0
M  V30 2939 H 274.601 -1.86946 -1.00821 0
M  V30 2940 H 276.864 -0.802897 -0.504044 0
M  V30 2941 H 276.57 -2.62172 -2.34432 0
M  V30 2942 H 276.444 -1.33301 -3.52861 0
M  V30 2943 H 278.831 -0.569488 -2.89553 0
M  V30 2944 H 278.912 -1.89142 -1.72218 0
M  V30 2945 H 278.556 -3.56545 -3.61715 0
M  V30 2946 H 278.486 -2.21532 -4.77735 0
M  V30 2947 H 280.977 -1.94681 -3.23895 0
M  V30 2948 H 281.29 -4.50406 -6.27976 0
M  V30 2949 H 279.635 -4.04498 -5.65161 0
M  V30 2950 H 282.826 -2.48331 -3.96799 0
M  V30 2951 H 282.999 -3.64925 -5.35475 0
M  V30 2952 N 276.405 1.4127 -0.698611 0
M  V30 2953 C 277.651 2.01478 -0.231207 0
M  V30 2954 C 277.984 1.55215 1.16713 0
M  V30 2955 O 277.259 0.764672 1.78838 0
M  V30 2956 C 277.542 3.58912 -0.292281 0
M  V30 2957 C 277.395 4.15293 -1.72778 0
M  V30 2958 C 278.714 4.38736 0.346194 0
M  V30 2959 H 275.833 0.732025 -0.0854878 0
M  V30 2960 H 278.475 1.67977 -0.887906 0
M  V30 2961 H 276.625 3.87582 0.26686 0
M  V30 2962 H 278.297 3.97486 -2.341 0
M  V30 2963 H 276.54 3.7022 -2.26096 0
M  V30 2964 H 277.211 5.24452 -1.72202 0
M  V30 2965 H 279.687 4.15897 -0.130035 0
M  V30 2966 H 278.563 5.48221 0.272932 0
M  V30 2967 H 278.824 4.18425 1.42734 0
M  V30 2968 N 277.883 0.443576 1.51229 0
M  V30 2969 C 278.793 -0.370721 2.31652 0
M  V30 2970 C 279.809 -1.02186 1.40833 0
M  V30 2971 O 280.985 -1.01586 1.73903 0
M  V30 2972 C 278.05 -1.45376 3.14749 0
M  V30 2973 C 277.111 -0.822099 4.21355 0
M  V30 2974 C 276.344 -1.85353 5.0048 0
M  V30 2975 O 276.567 -3.07656 4.80316 0
M  V30 2976 O 275.501 -1.4406 5.84406 0
M  V30 2977 H 279.327 0.286002 3.0235 0
M  V30 2978 H 276.912 0.20598 1.47973 0
M  V30 2979 H 278.794 -2.08173 3.66391 0
M  V30 2980 H 277.469 -2.09445 2.46809 0
M  V30 2981 H 276.376 -0.155909 3.73775 0
M  V30 2982 H 277.709 -0.224797 4.91686 0
M  V30 2983 N 279.361 -1.56624 0.175154 0
M  V30 2984 C 280.291 -2.21155 -0.749195 0
M  V30 2985 C 281.272 -1.16836 -1.23626 0
M  V30 2986 O 282.457 -1.45277 -1.28873 0
M  V30 2987 C 279.587 -2.8553 -1.97711 0
M  V30 2988 C 278.541 -3.95921 -1.62575 0
M  V30 2989 C 277.867 -4.47365 -2.92864 0
M  V30 2990 C 279.167 -5.15323 -0.850838 0
M  V30 2991 H 280.861 -2.98653 -0.211295 0
M  V30 2992 H 278.407 -1.43651 -0.100188 0
M  V30 2993 H 280.36 -3.2935 -2.62881 0
M  V30 2994 H 279.084 -2.05406 -2.53921 0
M  V30 2995 H 277.743 -3.52762 -0.997719 0
M  V30 2996 H 277.391 -3.64027 -3.47122 0
M  V30 2997 H 277.091 -5.21839 -2.70106 0
M  V30 2998 H 278.615 -4.93873 -3.59056 0
M  V30 2999 H 280.029 -5.55812 -1.40521 0
M  V30 3000 H 278.426 -5.95739 -0.722154 0
M  V30 3001 H 279.496 -4.84661 0.152082 0
M  V30 3002 N 280.839 0.0985539 -1.57292 0
M  V30 3003 C 281.749 1.13824 -2.05137 0
M  V30 3004 C 282.765 1.44076 -0.975604 0
M  V30 3005 O 283.941 1.54786 -1.28853 0
M  V30 3006 C 281.006 2.43969 -2.46333 0
M  V30 3007 C 280.067 2.2093 -3.68087 0
M  V30 3008 C 279.3 3.44869 -4.0731 0
M  V30 3009 O 279.523 4.52972 -3.46659 0
M  V30 3010 O 278.457 3.34661 -5.00285 0
M  V30 3011 H 282.283 0.761881 -2.93988 0
M  V30 3012 H 279.868 0.310818 -1.46131 0
M  V30 3013 H 281.75 3.20609 -2.73473 0
M  V30 3014 H 280.425 2.81038 -1.60621 0
M  V30 3015 H 279.332 1.42081 -3.46069 0
M  V30 3016 H 280.665 1.88755 -4.54568 0
M  V30 3017 N 282.317 1.53212 0.369288 0
M  V30 3018 C 283.565 1.68881 1.11012 0
M  V30 3019 C 283.886 0.441285 1.89941 0
M  V30 3020 O 283.156 -0.544623 1.88177 0
M  V30 3021 H 281.736 0.622569 0.412816 0
M  V30 3022 H 284.398 1.90391 0.416802 0
M  V30 3023 H 283.494 2.54822 1.80201 0
M  V30 3024 N 283.795 -0.628877 1.44509 0
M  V30 3025 C 284.725 -1.75187 1.54376 0
M  V30 3026 C 285.706 -1.65411 0.396618 0
M  V30 3027 O 286.891 -1.84137 0.617031 0
M  V30 3028 C 284.021 -3.13725 1.48976 0
M  V30 3029 C 282.975 -3.38291 2.62189 0
M  V30 3030 C 282.301 -4.76883 2.41841 0
M  V30 3031 C 283.601 -3.30632 4.04326 0
M  V30 3032 H 285.295 -1.67187 2.48373 0
M  V30 3033 H 282.841 -0.802909 1.19538 0
M  V30 3034 H 284.794 -3.92064 1.54478 0
M  V30 3035 H 283.518 -3.22515 0.514961 0
M  V30 3036 H 282.177 -2.62334 2.56079 0
M  V30 3037 H 281.825 -4.82378 1.42548 0
M  V30 3038 H 281.525 -4.94278 3.17747 0
M  V30 3039 H 283.049 -5.57449 2.49165 0
M  V30 3040 H 284.463 -3.98873 4.11793 0
M  V30 3041 H 282.86 -3.59561 4.80454 0
M  V30 3042 H 283.93 -2.28404 4.27738 0
M  V30 3043 N 285.273 -1.31445 -0.869486 0
M  V30 3044 C 286.22 -1.19135 -1.97675 0
M  V30 3045 C 287.19 -0.0770266 -1.65921 0
M  V30 3046 O 288.375 -0.249972 -1.89155 0
M  V30 3047 C 285.515 -0.905149 -3.33018 0
M  V30 3048 C 284.628 -2.10285 -3.77365 0
M  V30 3049 C 283.763 -1.75339 -5.01427 0
M  V30 3050 C 282.802 -2.91515 -5.38224 0
M  V30 3051 N 281.939 -2.56762 -6.53466 0
M  V30 3052 H 286.779 -2.13853 -2.07535 0
M  V30 3053 H 284.316 -1.06379 -1.01597 0
M  V30 3054 H 286.274 -0.719765 -4.10944 0
M  V30 3055 H 284.904 0.00519624 -3.228 0
M  V30 3056 H 283.956 -2.39899 -2.95216 0
M  V30 3057 H 285.268 -2.97237 -4.00564 0
M  V30 3058 H 284.422 -1.53266 -5.87022 0
M  V30 3059 H 283.161 -0.855801 -4.80133 0
M  V30 3060 H 282.166 -3.14237 -4.51149 0
M  V30 3061 H 283.391 -3.81985 -5.61484 0
M  V30 3062 H 281.337 -1.69526 -6.33717 0
M  V30 3063 H 281.254 -3.37243 -6.76612 0
M  V30 3064 H 282.522 -2.38083 -7.42251 0
M  V30 3065 N 286.751 1.08385 -1.14413 0
M  V30 3066 C 287.997 1.81044 -0.913834 0
M  V30 3067 C 288.33 1.86004 0.558209 0
M  V30 3068 O 287.605 1.33606 1.4135 0
M  V30 3069 C 287.888 3.26648 -1.51569 0
M  V30 3070 C 287.741 3.29895 -3.0576 0
M  V30 3071 C 289.06 4.23629 -1.19273 0
M  V30 3072 H 286.179 0.65727 -0.333414 0
M  V30 3073 H 288.821 1.26896 -1.41412 0
M  V30 3074 H 286.971 3.72889 -1.09023 0
M  V30 3075 H 288.643 2.91977 -3.57137 0
M  V30 3076 H 286.886 2.69163 -3.40197 0
M  V30 3077 H 287.557 4.32516 -3.42977 0
M  V30 3078 H 290.033 3.85727 -1.56057 0
M  V30 3079 H 288.909 5.23822 -1.64017 0
M  V30 3080 H 289.17 4.41968 -0.108068 0
M  V30 3081 N 288.23 0.939286 1.26551 0
M  V30 3082 C 289.476 0.586715 1.94128 0
M  V30 3083 C 289.809 -0.8717 1.73537 0
M  V30 3084 O 289.084 -1.62339 1.07127 0
M  V30 3085 C 289.367 0.927497 3.4795 0
M  V30 3086 C 289.22 2.44052 3.77834 0
M  V30 3087 C 290.539 0.441569 4.37879 0
M  V30 3088 H 287.658 0.21463 0.705055 0
M  V30 3089 H 290.3 1.17316 1.49455 0
M  V30 3090 H 288.45 0.428431 3.8613 0
M  V30 3091 H 290.122 3.01216 3.4938 0
M  V30 3092 H 288.365 2.8848 3.23978 0
M  V30 3093 H 289.036 2.62947 4.85348 0
M  V30 3094 H 291.512 0.869448 4.06915 0
M  V30 3095 H 290.388 0.708856 5.44304 0
M  V30 3096 H 290.649 -0.658467 4.37169 0
M  V30 3097 N 289.708 -1.40897 0.706093 0
M  V30 3098 C 290.618 -2.3455 0.0482286 0
M  V30 3099 C 291.634 -1.56796 -0.754396 0
M  V30 3100 O 292.81 -1.89228 -0.689538 0
M  V30 3101 C 289.875 -3.35625 -0.869303 0
M  V30 3102 C 288.936 -4.29261 -0.0576994 0
M  V30 3103 C 288.169 -5.25508 -0.931531 0
M  V30 3104 O 288.392 -5.27472 -2.17092 0
M  V30 3105 O 287.326 -6.00727 -0.375587 0
M  V30 3106 H 291.152 -2.92407 0.820476 0
M  V30 3107 H 288.737 -1.4193 0.4665 0
M  V30 3108 H 290.619 -3.97635 -1.39514 0
M  V30 3109 H 289.294 -2.80196 -1.62086 0
M  V30 3110 H 288.201 -3.70566 0.512988 0
M  V30 3111 H 289.534 -4.87817 0.655426 0
M  V30 3112 N 291.186 -0.45159 -1.50991 0
M  V30 3113 C 292.435 0.111653 -2.01391 0
M  V30 3114 C 292.748 1.42529 -1.33959 0
M  V30 3115 O 293.954 2.07232 -1.75405 0
M  V30 3116 C 292.41 0.249514 -3.59034 0
M  V30 3117 C 292.018 -1.05453 -4.35412 0
M  V30 3118 C 293.762 0.765762 -4.17536 0
M  V30 3119 C 291.669 -0.881529 -5.84793 0
M  V30 3120 H 290.599 0.0455022 -0.752626 0
M  V30 3121 H 293.25 -0.583524 -1.73975 0
M  V30 3122 H 291.632 1.00803 -3.82955 0
M  V30 3123 H 292.806 -1.82248 -4.23229 0
M  V30 3124 H 291.121 -1.50039 -3.88429 0
M  V30 3125 H 293.718 0.911913 -5.26866 0
M  V30 3126 H 294.061 1.75201 -3.77638 0
M  V30 3127 H 294.594 0.0651744 -3.97747 0
M  V30 3128 H 291.333 -1.84057 -6.29129 0
M  V30 3129 H 290.853 -0.153625 -5.99603 0
M  V30 3130 H 292.532 -0.540363 -6.4474 0
M  V30 3131 N 292.664 1.56529 -0.183458 0
M  V30 3132 C 293.574 2.22144 0.754272 0
M  V30 3133 C 294.59 1.21684 1.24374 0
M  V30 3134 O 295.766 1.54385 1.29333 0
M  V30 3135 C 292.831 2.85884 1.96141 0
M  V30 3136 C 291.892 4.01579 1.51765 0
M  V30 3137 C 291.125 4.6227 2.66725 0
M  V30 3138 O 291.348 4.21865 3.83909 0
M  V30 3139 O 290.282 5.51936 2.40104 0
M  V30 3140 H 294.108 3.02861 0.225527 0
M  V30 3141 H 291.693 1.49331 0.0453032 0
M  V30 3142 H 293.575 3.26253 2.66715 0
M  V30 3143 H 292.25 2.08154 2.47899 0
M  V30 3144 H 291.157 3.65856 0.781049 0
M  V30 3145 H 292.49 4.80938 1.04686 0
M  V30 3146 N 294.142 -0.090211 1.57342 0
M  V30 3147 C 295.089 -1.10909 2.02405 0
M  V30 3148 C 296.059 -1.39523 0.901252 0
M  V30 3149 O 297.244 -1.50903 1.1676 0
M  V30 3150 C 294.384 -2.42277 2.45755 0
M  V30 3151 C 293.497 -2.20352 3.71576 0
M  V30 3152 C 292.632 -3.45154 4.03785 0
M  V30 3153 C 291.671 -3.18512 5.22701 0
M  V30 3154 N 290.808 -4.35593 5.50639 0
M  V30 3155 H 295.648 -0.71782 2.89225 0
M  V30 3156 H 293.185 -0.342901 1.43048 0
M  V30 3157 H 295.143 -3.18951 2.68935 0
M  V30 3158 H 293.773 -2.79242 1.61938 0
M  V30 3159 H 292.825 -1.34458 3.55844 0
M  V30 3160 H 294.137 -1.96661 4.58395 0
M  V30 3161 H 293.291 -4.30233 4.27767 0
M  V30 3162 H 292.03 -3.71904 3.15498 0
M  V30 3163 H 291.035 -2.31827 4.98534 0
M  V30 3164 H 292.26 -2.93103 6.12591 0
M  V30 3165 H 290.206 -4.6241 4.6531 0
M  V30 3166 H 290.123 -4.1511 6.31838 0
M  V30 3167 H 291.391 -5.21723 5.7916 0
M  V30 3168 N 295.62 -1.53406 -0.361157 0
M  V30 3169 C 296.86 -1.71507 -1.11197 0
M  V30 3170 C 297.224 -0.459337 -1.86425 0
M  V30 3171 O 298.425 -0.517102 -2.63779 0
M  V30 3172 C 296.696 -2.93307 -2.0422 0
M  V30 3173 S 298.255 -3.32135 -2.86761 0
M  V30 3174 H 295.073 -0.603448 -0.375995 0
M  V30 3175 H 297.675 -1.91516 -0.392642 0
M  V30 3176 H 296.379 -3.82891 -1.47724 0
M  V30 3177 H 295.91 -2.75712 -2.80618 0
M  V30 3178 H 297.925 -2.84493 -4.06544 0
M  V30 3179 N 297.098 0.621204 -1.44841 0
M  V30 3180 C 298.045 1.73267 -1.5247 0
M  V30 3181 C 299.015 1.6189 -0.371611 0
M  V30 3182 O 300.2 1.81668 -0.58321 0
M  V30 3183 C 297.34 3.11545 -1.48438 0
M  V30 3184 C 296.453 3.33827 -2.74196 0
M  V30 3185 C 295.588 4.62133 -2.61929 0
M  V30 3186 C 294.627 4.77627 -3.82804 0
M  V30 3187 N 293.764 5.97219 -3.69153 0
M  V30 3188 H 298.604 1.66082 -2.47428 0
M  V30 3189 H 296.141 0.810026 -1.22788 0
M  V30 3190 H 298.099 3.91528 -1.4409 0
M  V30 3191 H 296.729 3.1772 -0.570402 0
M  V30 3192 H 295.781 2.47715 -2.88689 0
M  V30 3193 H 297.093 3.41153 -3.6389 0
M  V30 3194 H 296.247 5.50291 -2.5547 0
M  V30 3195 H 294.986 4.57182 -1.69811 0
M  V30 3196 H 293.991 3.87896 -3.89637 0
M  V30 3197 H 295.216 4.84385 -4.75971 0
M  V30 3198 H 293.162 5.93339 -2.79794 0
M  V30 3199 H 293.079 6.05644 -4.52472 0
M  V30 3200 H 294.347 6.87912 -3.66603 0
M  V30 3201 N 298.576 1.31904 0.862503 0
M  V30 3202 C 299.801 1.25135 1.65397 0
M  V30 3203 C 300.226 -0.179 1.87246 0
M  V30 3204 O 299.584 -1.1277 1.4196 0
M  V30 3205 C 299.632 2.00832 2.99498 0
M  V30 3206 O 298.736 1.35075 3.89652 0
M  V30 3207 H 298.077 0.431655 0.504549 0
M  V30 3208 H 300.607 1.74094 1.07483 0
M  V30 3209 H 300.617 2.10709 3.49379 0
M  V30 3210 H 299.292 3.04847 2.82916 0
M  V30 3211 H 297.869 1.33696 3.48109 0
M  V30 3212 N 300.054 -1.07777 1.14986 0
M  V30 3213 C 301.331 -1.7699 0.832695 0
M  V30 3214 C 301.711 -2.001 -0.672561 0
M  V30 3215 O 301.059 -1.61598 -1.6155 0
M  V30 3216 C 301.269 -3.08139 1.63863 0
M  V30 3217 C 302.617 -3.8256 1.84208 0
M  V30 3218 O 303.641 -3.17939 1.60603 0
M  V30 3219 O 302.5 -4.98612 2.23714 0
M  V30 3220 H 299.594 -0.768389 0.305791 0
M  V30 3221 H 302.14 -1.14182 1.25541 0
M  V30 3222 H 300.912 -2.86909 2.6608 0
M  V30 3223 H 300.535 -3.78678 1.21197 0
M  V30 3224 N 301.532 -0.945985 -1.26051 0
M  V30 3225 C 302.781 -0.591836 -1.92822 0
M  V30 3226 C 303.094 0.873956 -1.7499 0
M  V30 3227 O 304.3 1.33769 -2.36259 0
M  V30 3228 C 302.756 -1.00776 -3.45503 0
M  V30 3229 C 302.364 -2.4955 -3.7206 0
M  V30 3230 C 304.108 -0.725735 -4.1825 0
M  V30 3231 C 302.015 -2.84988 -5.18205 0
M  V30 3232 H 300.945 -0.217635 -0.721908 0
M  V30 3233 H 303.596 -1.14927 -1.43052 0
M  V30 3234 H 301.978 -0.378812 -3.94184 0
M  V30 3235 H 303.152 -3.1739 -3.34066 0
M  V30 3236 H 301.467 -2.75133 -3.12555 0
M  V30 3237 H 304.064 -0.966771 -5.25887 0
M  V30 3238 H 304.407 0.337639 -4.14929 0
M  V30 3239 H 304.94 -1.31463 -3.7545 0
M  V30 3240 H 301.679 -3.90307 -5.26631 0
M  V30 3241 H 301.199 -2.21813 -5.57278 0
M  V30 3242 H 302.878 -2.73712 -5.86252 0
M  V30 3243 N 303.011 1.40521 -0.713556 0
M  V30 3244 C 303.958 2.30723 -0.059684 0
M  V30 3245 C 304.928 1.48079 0.752448 0
M  V30 3246 O 306.113 1.76823 0.71681 0
M  V30 3247 C 303.253 3.34274 0.857594 0
M  V30 3248 C 302.366 4.31986 0.0351536 0
M  V30 3249 C 301.501 5.22605 0.951724 0
M  V30 3250 C 300.54 6.11976 0.123253 0
M  V30 3251 N 299.677 6.9502 0.99459 0
M  V30 3252 H 304.517 2.86074 -0.834596 0
M  V30 3253 H 302.054 1.40879 -0.42326 0
M  V30 3254 H 304.012 3.92879 1.40364 0
M  V30 3255 H 302.642 2.8043 1.59871 0
M  V30 3256 H 301.694 3.7518 -0.628052 0
M  V30 3257 H 303.006 4.95101 -0.606347 0
M  V30 3258 H 302.16 5.86131 1.56638 0
M  V30 3259 H 300.899 4.59759 1.62705 0
M  V30 3260 H 299.904 5.47482 -0.50435 0
M  V30 3261 H 301.129 6.76881 -0.548539 0
M  V30 3262 H 299.075 6.34764 1.6556 0
M  V30 3263 H 298.992 7.54892 0.40908 0
M  V30 3264 H 300.26 7.62997 1.59549 0
M  V30 3265 N 304.489 0.459591 1.5075 0
M  V30 3266 C 305.436 -0.340524 2.28274 0
M  V30 3267 C 306.406 -0.997371 1.32822 0
M  V30 3268 O 307.591 -1.01202 1.61749 0
M  V30 3269 C 304.731 -1.42317 3.14388 0
M  V30 3270 C 303.844 -0.782251 4.24859 0
M  V30 3271 C 302.979 -1.84182 4.98247 0
M  V30 3272 C 302.018 -1.18053 6.00608 0
M  V30 3273 N 301.155 -2.18244 6.67319 0
M  V30 3274 H 305.995 0.326899 2.96202 0
M  V30 3275 H 303.532 0.173057 1.46078 0
M  V30 3276 H 305.49 -2.06241 3.62658 0
M  V30 3277 H 304.12 -2.05992 2.4853 0
M  V30 3278 H 303.172 -0.0307404 3.80388 0
M  V30 3279 H 304.484 -0.259663 4.98124 0
M  V30 3280 H 303.638 -2.55714 5.50177 0
M  V30 3281 H 302.377 -2.39819 4.24662 0
M  V30 3282 H 301.382 -0.450776 5.47949 0
M  V30 3283 H 302.607 -0.631202 6.7616 0
M  V30 3284 H 300.553 -2.72919 5.96533 0
M  V30 3285 H 300.47 -1.70938 7.36421 0
M  V30 3286 H 301.738 -2.89191 7.23871 0
M  V30 3287 N 305.967 -1.56429 0.191757 0
M  V30 3288 C 306.9 -2.14829 -0.76967 0
M  V30 3289 C 307.878 -1.08405 -1.2119 0
M  V30 3290 O 309.062 -1.36498 -1.30002 0
M  V30 3291 C 306.189 -2.70446 -2.03903 0
M  V30 3292 C 305.235 -3.89428 -1.7392 0
M  V30 3293 S 306.068 -5.28048 -0.890265 0
M  V30 3294 C 307.224 -5.87085 -2.16984 0
M  V30 3295 H 307.457 -2.96042 -0.273204 0
M  V30 3296 H 304.99 -1.54383 -0.0231975 0
M  V30 3297 H 306.948 -3.03134 -2.76803 0
M  V30 3298 H 305.609 -1.89281 -2.50662 0
M  V30 3299 H 304.802 -4.26742 -2.68155 0
M  V30 3300 H 304.404 -3.57732 -1.09103 0
M  V30 3301 H 306.696 -6.01244 -3.12269 0
M  V30 3302 H 307.639 -6.83747 -1.84108 0
M  V30 3303 H 308.047 -5.15663 -2.29678 0
M  V30 3304 N 307.445 0.0818655 -1.57387 0
M  V30 3305 C 308.861 0.436412 -1.53517 0
M  V30 3306 C 309.061 1.79758 -0.910459 0
M  V30 3307 O 308.117 2.47324 -0.508636 0
M  V30 3308 C 309.43 0.386734 -2.98203 0
M  V30 3309 C 310.978 0.467644 -3.09487 0
M  V30 3310 C 311.453 0.447978 -4.55804 0
M  V30 3311 N 312.944 0.508348 -4.60402 0
M  V30 3312 C 313.679 0.515184 -5.71081 0
M  V30 3313 N 313.175 0.477435 -6.91153 0
M  V30 3314 N 314.968 0.560988 -5.59294 0
M  V30 3315 H 307.119 -0.809546 -1.96367 0
M  V30 3316 H 309.382 -0.302733 -0.898363 0
M  V30 3317 H 309.088 -0.546539 -3.47427 0
M  V30 3318 H 308.962 1.20075 -3.57578 0
M  V30 3319 H 311.349 1.39134 -2.60242 0
M  V30 3320 H 311.43 -0.374753 -2.5304 0
M  V30 3321 H 311.074 -0.471826 -5.05704 0
M  V30 3322 H 311.004 1.30777 -5.10103 0
M  V30 3323 H 313.495 0.54218 -3.7399 0
M  V30 3324 H 313.808 0.486299 -7.71268 0
M  V30 3325 H 312.153 0.444278 -6.93579 0
M  V30 3326 H 315.344 0.5881 -4.64391 0
M  V30 3327 H 315.517 0.562846 -6.45551 0
M  V30 3328 N 308.923 1.53595 0.353017 0
M  V30 3329 C 309.833 1.83897 1.45667 0
M  V30 3330 C 310.849 0.728334 1.58023 0
M  V30 3331 O 312.025 1.01968 1.73679 0
M  V30 3332 C 309.09 2.03383 2.80778 0
M  V30 3333 C 308.151 3.27262 2.77845 0
M  V30 3334 C 307.384 3.45809 4.06512 0
M  V30 3335 O 307.607 2.68387 5.03314 0
M  V30 3336 O 306.541 4.39207 4.11559 0
M  V30 3337 H 310.367 2.77686 1.2298 0
M  V30 3338 H 307.952 1.39132 0.544308 0
M  V30 3339 H 309.834 2.17698 3.60812 0
M  V30 3340 H 308.509 1.12783 3.03417 0
M  V30 3341 H 307.416 3.18359 1.96465 0
M  V30 3342 H 308.749 4.17824 2.60161 0
M  V30 3343 N 310.401 -0.613514 1.45168 0
M  V30 3344 C 311.311 -1.75296 1.55912 0
M  V30 3345 C 312.327 -1.68244 0.443856 0
M  V30 3346 O 313.503 -1.88706 0.70371 0
M  V30 3347 C 310.568 -3.1174 1.5172 0
M  V30 3348 C 309.629 -3.30291 2.74238 0
M  V30 3349 C 308.862 -4.60226 2.70236 0
M  V30 3350 O 309.085 -5.42168 1.77229 0
M  V30 3351 O 308.019 -4.81361 3.61352 0
M  V30 3352 H 311.845 -1.69183 2.52212 0
M  V30 3353 H 309.43 -0.776886 1.27612 0
M  V30 3354 H 311.312 -3.93044 1.51968 0
M  V30 3355 H 309.987 -3.18357 0.585697 0
M  V30 3356 H 308.894 -2.48598 2.79553 0
M  V30 3357 H 310.227 -3.28547 3.66494 0
M  V30 3358 N 311.879 -1.3236 -0.855495 0
M  V30 3359 C 312.809 -1.23833 -1.97958 0
M  V30 3360 C 313.79 -0.122361 -1.69659 0
M  V30 3361 O 314.975 -0.30939 -1.9172 0
M  V30 3362 C 312.105 -0.959772 -3.33775 0
M  V30 3363 C 311.059 -2.03689 -3.76424 0
M  V30 3364 C 310.385 -1.61075 -5.09862 0
M  V30 3365 C 311.685 -3.4518 -3.9198 0
M  V30 3366 H 313.379 -2.1788 -2.0535 0
M  V30 3367 H 310.925 -1.04891 -0.986605 0
M  V30 3368 H 312.878 -0.886678 -4.11966 0
M  V30 3369 H 311.602 0.0163404 -3.26596 0
M  V30 3370 H 310.261 -2.10012 -3.00484 0
M  V30 3371 H 309.909 -0.622107 -4.99138 0
M  V30 3372 H 309.609 -2.33143 -5.39368 0
M  V30 3373 H 311.133 -1.55201 -5.90546 0
M  V30 3374 H 312.547 -3.4145 -4.60526 0
M  V30 3375 H 310.944 -4.1559 -4.32903 0
M  V30 3376 H 312.014 -3.84903 -2.94919 0
M  V30 3377 N 313.357 1.07166 -1.15556 0
M  V30 3378 C 314.32 2.12589 -0.856644 0
M  V30 3379 C 315.32 1.6015 0.14444 0
M  V30 3380 O 316.51 1.7399 -0.0854163 0
M  V30 3381 C 313.642 3.39753 -0.279405 0
M  V30 3382 H 314.835 2.40539 -1.79112 0
M  V30 3383 H 312.388 1.23086 -0.963298 0
M  V30 3384 H 313.123 3.17447 0.663174 0
M  V30 3385 H 312.908 3.79117 -1.00063 0
M  V30 3386 H 314.398 4.17507 -0.0879113 0
M  V30 3387 N 314.835 0.952656 1.25548 0
M  V30 3388 C 315.798 0.475794 2.24207 0
M  V30 3389 C 316.798 -0.419428 1.55234 0
M  V30 3390 O 317.988 -0.216994 1.72843 0
M  V30 3391 C 315.12 -0.312814 3.39462 0
M  V30 3392 H 316.313 1.34779 2.67908 0
M  V30 3393 H 313.866 0.735739 1.37901 0
M  V30 3394 H 314.601 -1.20257 3.01179 0
M  V30 3395 H 314.386 0.329404 3.90714 0
M  V30 3396 H 315.876 -0.635986 4.12729 0
M  V30 3397 N 316.313 -1.40141 0.720998 0
M  V30 3398 C 317.729 -1.54632 0.395113 0
M  V30 3399 C 317.929 -1.69115 -1.09555 0
M  V30 3400 O 316.985 -1.68377 -1.88163 0
M  V30 3401 C 318.298 -2.77177 1.1659 0
M  V30 3402 C 319.846 -2.91 1.15274 0
M  V30 3403 C 320.321 -4.16465 1.90579 0
M  V30 3404 N 321.812 -4.23476 1.87675 0
M  V30 3405 C 322.547 -5.19475 2.42762 0
M  V30 3406 N 322.043 -6.21348 3.06428 0
M  V30 3407 N 323.836 -5.11592 2.32874 0
M  V30 3408 H 315.987 -1.28986 1.68749 0
M  V30 3409 H 318.25 -0.62412 0.713567 0
M  V30 3410 H 317.956 -2.72771 2.22011 0
M  V30 3411 H 317.83 -3.69442 0.76108 0
M  V30 3412 H 320.217 -2.94907 0.106702 0
M  V30 3413 H 320.298 -1.99838 1.59682 0
M  V30 3414 H 319.942 -4.1332 2.95176 0
M  V30 3415 H 319.872 -5.06646 1.43587 0
M  V30 3416 H 322.363 -3.50497 1.41281 0
M  V30 3417 H 322.676 -6.91034 3.45965 0
M  V30 3418 H 321.021 -6.21777 3.10514 0
M  V30 3419 H 324.212 -4.30936 1.82789 0
M  V30 3420 H 324.385 -5.86233 2.76106 0
M  V30 3421 N 317.792 -0.46758 -1.50504 0
M  V30 3422 C 319.017 0.0886943 -2.0721 0
M  V30 3423 C 319.442 1.33057 -1.32956 0
M  V30 3424 O 318.8 1.77354 -0.376197 0
M  V30 3425 C 318.848 0.359202 -3.58806 0
M  V30 3426 O 317.952 1.44034 -3.8643 0
M  V30 3427 H 317.293 -0.0114349 -0.663902 0
M  V30 3428 H 319.823 -0.657613 -1.93744 0
M  V30 3429 H 319.833 0.600742 -4.03553 0
M  V30 3430 H 318.508 -0.548311 -4.1227 0
M  V30 3431 H 317.085 1.18638 -3.53524 0
M  V30 3432 N 319.27 1.56325 -0.20005 0
M  V30 3433 C 320.495 2.02548 0.44597 0
M  V30 3434 C 320.92 1.07922 1.5406 0
M  V30 3435 O 320.278 0.0635775 1.81188 0
M  V30 3436 C 320.326 3.47175 0.974761 0
M  V30 3437 O 319.43 3.55671 2.08739 0
M  V30 3438 H 318.771 0.655862 0.103638 0
M  V30 3439 H 321.301 2.02201 -0.312381 0
M  V30 3440 H 321.311 3.87067 1.2901 0
M  V30 3441 H 319.986 4.15538 0.17347 0
M  V30 3442 H 318.563 3.27657 1.78032 0
M  V30 3443 N 320.748 -0.0735177 1.57428 0
M  V30 3444 C 322.164 -0.428264 1.53747 0
M  V30 3445 C 322.364 -1.79272 0.91998 0
M  V30 3446 O 321.42 -2.47051 0.521745 0
M  V30 3447 C 322.733 -0.370914 2.98404 0
M  V30 3448 C 324.281 -0.451224 3.0973 0
M  V30 3449 C 324.756 -0.4238 4.56035 0
M  V30 3450 N 326.247 -0.483925 4.60665 0
M  V30 3451 C 326.982 -0.484891 5.71346 0
M  V30 3452 N 326.478 -0.440775 6.91396 0
M  V30 3453 N 328.271 -0.531319 5.59583 0
M  V30 3454 H 320.422 0.819949 1.95935 0
M  V30 3455 H 322.685 0.307493 0.896745 0
M  V30 3456 H 322.391 0.564956 3.47133 0
M  V30 3457 H 322.265 -1.18176 3.5821 0
M  V30 3458 H 324.652 -1.37752 2.60976 0
M  V30 3459 H 324.733 0.388167 2.52838 0
M  V30 3460 H 324.377 0.498638 5.05446 0
M  V30 3461 H 324.307 -1.2807 5.10789 0
M  V30 3462 H 326.798 -0.522338 3.74273 0
M  V30 3463 H 327.111 -0.44539 7.71515 0
M  V30 3464 H 325.456 -0.40749 6.93804 0
M  V30 3465 H 328.647 -0.563464 4.64696 0
M  V30 3466 H 328.82 -0.528603 6.4584 0
M  V30 3467 N 322.226 -1.5378 -0.344866 0
M  V30 3468 C 323.454 -1.74899 -1.10534 0
M  V30 3469 C 323.869 -0.487534 -1.82397 0
M  V30 3470 O 323.226 0.540741 -1.74305 0
M  V30 3471 C 323.277 -2.92822 -2.11984 0
M  V30 3472 O 322.998 -4.14089 -1.43044 0
M  V30 3473 C 324.499 -3.25982 -3.00417 0
M  V30 3474 H 321.719 -0.584426 -0.329678 0
M  V30 3475 H 324.263 -2.006 -0.397474 0
M  V30 3476 H 322.418 -2.69457 -2.78338 0
M  V30 3477 H 322.832 -4.80272 -2.10805 0
M  V30 3478 H 324.306 -4.11848 -3.67539 0
M  V30 3479 H 324.783 -2.42228 -3.66363 0
M  V30 3480 H 325.389 -3.51349 -2.39654 0
M  V30 3481 N 323.704 0.605807 -1.45491 0
M  V30 3482 C 324.652 1.73754 -1.54636 0
M  V30 3483 C 325.646 1.64207 -0.416219 0
M  V30 3484 O 326.852 1.69979 -0.592199 0
M  V30 3485 H 323.227 0.574073 -0.485741 0
M  V30 3486 H 325.198 1.63169 -2.49837 0
M  V30 3487 C 323.947 3.12135 -1.53189 0
M  V30 3488 H 323.27 3.20141 -2.39478 0
M  V30 3489 H 324.71 3.91147 -1.63645 0
M  V30 3490 C 323.169 3.35921 -0.256616 0
M  V30 3491 O 323.699 3.96194 0.662798 0
M  V30 3492 N 321.905 2.90204 -0.151751 0
M  V30 3493 H 321.452 2.41336 -0.90081 0
M  V30 3494 H 321.41 3.06492 0.700699 0
M  V30 3495 N 325.182 1.32811 0.848464 0
M  V30 3496 C 326.422 1.25046 1.61687 0
M  V30 3497 C 326.786 -0.183464 1.91121 0
M  V30 3498 O 327.987 -0.384937 2.66029 0
M  V30 3499 C 326.258 2.09201 2.89775 0
M  V30 3500 S 327.817 2.18526 3.80515 0
M  V30 3501 H 324.635 0.445023 0.554505 0
M  V30 3502 H 327.237 1.67733 1.00429 0
M  V30 3503 H 325.941 3.12433 2.66108 0
M  V30 3504 H 325.472 1.67315 3.56047 0
M  V30 3505 H 327.487 1.3393 4.77784 0
M  V30 3506 N 326.66 -1.06551 1.16123 0
M  V30 3507 C 328.071 -1.60768 0.949232 0
M  V30 3508 C 328.422 -1.89523 -0.507508 0
M  V30 3509 O 327.547 -1.66671 -1.38021 0
M  V30 3510 C 328.142 -2.92086 1.71671 0
M  V30 3511 C 326.701 -3.43015 1.54977 0
M  V30 3512 C 325.848 -2.16947 1.72711 0
M  V30 3513 H 328.799 -0.895354 1.31031 0
M  V30 3514 H 328.82 -3.6138 1.19099 0
M  V30 3515 H 328.332 -2.71127 2.7769 0
M  V30 3516 H 326.433 -3.69039 0.513873 0
M  V30 3517 H 326.546 -4.18516 2.33198 0
M  V30 3518 H 324.91 -2.27041 1.15431 0
M  V30 3519 H 325.693 -1.98473 2.80113 0
M  V30 3520 N 328.138 -0.959301 -1.25041 0
M  V30 3521 C 329.378 -0.624343 -1.94631 0
M  V30 3522 C 329.742 0.82403 -1.73418 0
M  V30 3523 O 330.943 1.26881 -2.3697 0
M  V30 3524 C 329.214 -0.978805 -3.43736 0
M  V30 3525 S 330.773 -0.757127 -4.32219 0
M  V30 3526 H 327.591 -0.229327 -0.673001 0
M  V30 3527 H 330.193 -1.23447 -1.51595 0
M  V30 3528 H 328.897 -2.02997 -3.56679 0
M  V30 3529 H 328.428 -0.359117 -3.91757 0
M  V30 3530 H 330.443 0.369759 -4.9482 0
M  V30 3531 N 329.616 1.39756 -0.72842 0
M  V30 3532 C 330.563 2.30647 -0.0841519 0
M  V30 3533 C 331.533 1.48869 0.7367 0
M  V30 3534 O 332.718 1.77574 0.698015 0
M  V30 3535 C 329.858 3.35165 0.822091 0
M  V30 3536 C 328.971 4.31999 -0.0106663 0
M  V30 3537 C 328.106 5.23585 0.896241 0
M  V30 3538 C 327.145 6.12072 0.0583381 0
M  V30 3539 N 326.282 6.96035 0.920818 0
M  V30 3540 H 331.122 2.85173 -0.864891 0
M  V30 3541 H 328.659 1.40422 -0.438179 0
M  V30 3542 H 330.617 3.94345 1.36189 0
M  V30 3543 H 329.247 2.8211 1.56888 0
M  V30 3544 H 328.299 3.74492 -0.66781 0
M  V30 3545 H 329.611 4.9443 -0.658825 0
M  V30 3546 H 328.765 5.87759 1.50412 0
M  V30 3547 H 327.504 4.61459 1.57819 0
M  V30 3548 H 326.509 5.46916 -0.562389 0
M  V30 3549 H 327.734 6.76261 -0.6203 0
M  V30 3550 H 325.68 6.36485 1.58818 0
M  V30 3551 H 325.597 7.55284 0.32899 0
M  V30 3552 H 326.865 7.64646 1.51447 0
M  V30 3553 N 331.094 0.475555 1.50254 0
M  V30 3554 C 332.324 -0.0753399 2.06463 0
M  V30 3555 C 332.732 -1.33661 1.33908 0
M  V30 3556 O 332.075 -1.79219 0.403257 0
M  V30 3557 C 332.137 -0.424921 3.5698 0
M  V30 3558 C 331.801 0.734965 4.51051 0
M  V30 3559 C 332.798 1.61827 4.94073 0
M  V30 3560 C 330.483 0.926557 4.9368 0
M  V30 3561 C 332.477 2.67754 5.78434 0
M  V30 3562 C 330.164 1.98904 5.77824 0
M  V30 3563 C 331.162 2.8629 6.20103 0
M  V30 3564 O 330.85 3.90708 7.02568 0
M  V30 3565 H 330.582 0.00576308 0.675975 0
M  V30 3566 H 333.136 0.664662 1.94349 0
M  V30 3567 H 331.366 -1.21817 3.67012 0
M  V30 3568 H 333.055 -0.911422 3.95535 0
M  V30 3569 H 333.821 1.48196 4.61804 0
M  V30 3570 H 329.7 0.25584 4.6029 0
M  V30 3571 H 333.244 3.35992 6.11355 0
M  V30 3572 H 329.141 2.12541 6.09505 0
M  V30 3573 H 329.909 3.87751 7.20827 0
M  V30 3574 N 332.573 -1.56217 0.208337 0
M  V30 3575 C 333.798 -2.02782 -0.435222 0
M  V30 3576 C 334.223 -1.08738 -1.53485 0
M  V30 3577 O 333.581 -0.0731855 -1.81152 0
M  V30 3578 C 333.629 -3.47687 -0.956335 0
M  V30 3579 O 332.733 -3.56773 -2.06849 0
M  V30 3580 H 332.074 -0.656403 -0.100158 0
M  V30 3581 H 334.604 -2.02033 0.3231 0
M  V30 3582 H 334.614 -3.87745 -1.26955 0
M  V30 3583 H 333.289 -4.15624 -0.15143 0
M  V30 3584 H 331.866 -3.28597 -1.76292 0
M  V30 3585 N 334.051 0.0651679 -1.57465 0
M  V30 3586 C 335.298 0.763063 -1.87573 0
M  V30 3587 C 335.626 1.77242 -0.800961 0
M  V30 3588 O 334.881 1.94651 0.202316 0
M  V30 3589 C 335.18 1.50081 -3.24362 0
M  V30 3590 C 334.846 0.630816 -4.46466 0
M  V30 3591 C 333.508 0.391082 -4.79608 0
M  V30 3592 C 335.86 0.0279465 -5.21193 0
M  V30 3593 C 333.188 -0.460894 -5.84887 0
M  V30 3594 C 335.54 -0.811522 -6.27373 0
M  V30 3595 C 334.204 -1.06106 -6.59013 0
M  V30 3596 H 333.474 0.279224 -0.686378 0
M  V30 3597 H 336.121 0.0236726 -1.91485 0
M  V30 3598 H 334.426 2.31258 -3.16271 0
M  V30 3599 H 336.123 2.04571 -3.44894 0
M  V30 3600 H 332.713 0.8278 -4.2053 0
M  V30 3601 H 336.897 0.200262 -4.95896 0
M  V30 3602 H 332.153 -0.662907 -6.07796 0
M  V30 3603 H 336.327 -1.28537 -6.84435 0
M  V30 3604 H 333.954 -1.723 -7.40417 0
M  V30 3605 N 335.529 1.53961 0.336706 0
M  V30 3606 C 336.459 1.85417 1.41925 0
M  V30 3607 C 337.44 0.709856 1.5458 0
M  V30 3608 O 338.625 0.962396 1.68676 0
M  V30 3609 C 335.755 2.06985 2.78881 0
M  V30 3610 C 334.709 3.22813 2.81026 0
M  V30 3611 C 334.035 3.29727 4.20932 0
M  V30 3612 C 335.335 4.60767 2.45949 0
M  V30 3613 H 337.029 2.76079 1.15848 0
M  V30 3614 H 334.575 1.32839 0.555859 0
M  V30 3615 H 336.528 2.27575 3.54665 0
M  V30 3616 H 335.252 1.13061 3.06406 0
M  V30 3617 H 333.911 3.0209 2.07695 0
M  V30 3618 H 333.559 2.33385 4.45579 0
M  V30 3619 H 333.259 4.07566 4.23277 0
M  V30 3620 H 334.783 3.52536 4.98549 0
M  V30 3621 H 336.197 4.81325 3.11446 0
M  V30 3622 H 334.594 5.4106 2.59566 0
M  V30 3623 H 335.664 4.6391 1.41122 0
M  V30 3624 N 337.007 -0.598083 1.45811 0
M  V30 3625 C 338.284 -1.35777 1.40797 0
M  V30 3626 C 338.664 -2.10935 0.083462 0
M  V30 3627 O 338.012 -2.08505 -0.934763 0
M  V30 3628 C 338.222 -2.29666 2.62783 0
M  V30 3629 C 339.57 -2.91977 3.08277 0
M  V30 3630 O 340.594 -2.39984 2.63223 0
M  V30 3631 O 339.453 -3.86376 3.86491 0
M  V30 3632 H 336.547 -0.609291 0.55919 0
M  V30 3633 H 339.093 -0.620379 1.57954 0
M  V30 3634 H 337.865 -1.73454 3.50756 0
M  V30 3635 H 337.488 -3.1077 2.48008 0
M  V30 3636 N 338.485 -1.33259 -0.841409 0
M  V30 3637 C 339.433 -1.23279 -1.97244 0
M  V30 3638 C 340.427 -0.134706 -1.68864 0
M  V30 3639 O 341.633 -0.298501 -1.77508 0
M  V30 3640 H 338.008 -0.382497 -0.647457 0
M  V30 3641 H 339.979 -2.18906 -2.02787 0
M  V30 3642 C 338.728 -0.986268 -3.33419 0
M  V30 3643 H 338.051 -1.82347 -3.55794 0
M  V30 3644 H 339.491 -0.956728 -4.13065 0
M  V30 3645 C 337.95 0.310842 -3.35463 0
M  V30 3646 O 338.48 1.31838 -3.79449 0
M  V30 3647 N 336.686 0.337485 -2.88634 0
M  V30 3648 H 336.233 -0.482967 -2.53032 0
M  V30 3649 H 336.191 1.20518 -2.90384 0
M  V30 3650 N 339.963 1.05934 -1.16686 0
M  V30 3651 C 340.913 2.11764 -0.844978 0
M  V30 3652 C 341.897 1.59922 0.177178 0
M  V30 3653 O 343.089 1.76983 -0.0241768 0
M  V30 3654 C 340.218 3.41493 -0.351812 0
M  V30 3655 C 339.304 4.00152 -1.40496 0
M  V30 3656 N 339.695 4.32874 -2.61636 0
M  V30 3657 C 337.993 4.278 -1.26106 0
M  V30 3658 C 338.694 4.79552 -3.29249 0
M  V30 3659 N 337.67 4.79211 -2.56628 0
M  V30 3660 H 341.472 2.34916 -1.76612 0
M  V30 3661 H 338.986 1.23511 -1.05446 0
M  V30 3662 H 340.983 4.16773 -0.102796 0
M  V30 3663 H 339.643 3.19778 0.56322 0
M  V30 3664 H 340.654 4.23109 -2.98663 0
M  V30 3665 H 337.331 4.15511 -0.407081 0
M  V30 3666 H 338.721 5.14045 -4.32675 0
M  V30 3667 N 341.441 0.965919 1.2453 0
M  V30 3668 C 342.388 0.49402 2.25451 0
M  V30 3669 C 343.358 -0.45948 1.59618 0
M  V30 3670 O 344.543 -0.370238 1.87173 0
M  V30 3671 C 341.683 -0.211359 3.44452 0
M  V30 3672 C 340.796 0.7807 4.24887 0
M  V30 3673 C 339.931 0.0516105 5.31175 0
M  V30 3674 C 338.97 1.03385 6.03306 0
M  V30 3675 N 338.107 0.334887 7.01301 0
M  V30 3676 H 342.947 1.35946 2.65184 0
M  V30 3677 H 340.484 0.681515 1.3036 0
M  V30 3678 H 342.442 -0.637 4.12308 0
M  V30 3679 H 341.072 -1.04077 3.05562 0
M  V30 3680 H 340.124 1.32479 3.56586 0
M  V30 3681 H 341.436 1.52978 4.74762 0
M  V30 3682 H 340.59 -0.432114 6.05159 0
M  V30 3683 H 339.329 -0.730179 4.82203 0
M  V30 3684 H 338.334 1.52847 5.28127 0
M  V30 3685 H 339.559 1.81606 6.54367 0
M  V30 3686 H 337.505 -0.427959 6.54603 0
M  V30 3687 H 337.422 1.02287 7.49048 0
M  V30 3688 H 338.69 -0.126928 7.79397 0
M  V30 3689 N 342.919 -1.39368 0.735821 0
M  V30 3690 C 343.866 -2.30599 0.0963825 0
M  V30 3691 C 344.836 -1.49257 -0.728794 0
M  V30 3692 O 346.021 -1.77941 -0.688588 0
M  V30 3693 C 343.161 -3.35596 -0.804305 0
M  V30 3694 C 342.274 -4.31987 0.0335761 0
M  V30 3695 C 341.409 -5.24053 -0.868461 0
M  V30 3696 C 340.448 -6.12095 -0.0258776 0
M  V30 3697 N 339.585 -6.96514 -0.883893 0
M  V30 3698 H 344.425 -2.8471 0.880002 0
M  V30 3699 H 341.962 -1.40188 0.445619 0
M  V30 3700 H 343.92 -3.95062 -1.34096 0
M  V30 3701 H 342.55 -2.82938 -1.55389 0
M  V30 3702 H 341.602 -3.74133 0.68766 0
M  V30 3703 H 342.914 -4.94074 0.685036 0
M  V30 3704 H 342.068 -5.88549 -1.47293 0
M  V30 3705 H 340.807 -4.62289 -1.5537 0
M  V30 3706 H 339.812 -5.4661 0.591386 0
M  V30 3707 H 341.037 -6.75923 0.656156 0
M  V30 3708 H 338.983 -6.37318 -1.55441 0
M  V30 3709 H 338.9 -7.55448 -0.288931 0
M  V30 3710 H 340.168 -7.65439 -1.4739 0
M  V30 3711 N 344.397 -0.483516 -1.5 0
M  V30 3712 C 345.327 0.293829 -2.31644 0
M  V30 3713 C 346.308 0.978864 -1.39112 0
M  V30 3714 O 347.493 0.973644 -1.68029 0
M  V30 3715 C 344.623 1.36897 -3.19181 0
M  V30 3716 C 343.577 0.804833 -4.20365 0
M  V30 3717 C 342.903 1.9792 -4.96721 0
M  V30 3718 C 344.203 -0.192313 -5.21946 0
M  V30 3719 H 345.897 -0.387616 -2.9688 0
M  V30 3720 H 343.443 -0.187856 -1.42769 0
M  V30 3721 H 345.396 1.92037 -3.751 0
M  V30 3722 H 344.12 2.07936 -2.51853 0
M  V30 3723 H 342.779 0.275319 -3.65565 0
M  V30 3724 H 342.427 2.67686 -4.25856 0
M  V30 3725 H 342.127 1.60789 -5.65173 0
M  V30 3726 H 343.651 2.53526 -5.55479 0
M  V30 3727 H 345.065 0.270333 -5.72662 0
M  V30 3728 H 343.462 -0.478543 -5.98189 0
M  V30 3729 H 344.532 -1.11409 -4.71928 0
M  V30 3730 N 345.875 1.56104 -0.216619 0
M  V30 3731 C 347.103 2.02563 0.421413 0
M  V30 3732 C 347.518 1.0965 1.53695 0
M  V30 3733 O 346.875 0.10521 1.82196 0
M  V30 3734 C 346.926 3.48584 0.957665 0
M  V30 3735 O 346.647 4.37953 -0.113389 0
M  V30 3736 C 348.148 4.10664 1.66943 0
M  V30 3737 H 345.368 0.662944 0.103665 0
M  V30 3738 H 347.912 2.01793 -0.331629 0
M  V30 3739 H 346.067 3.49985 1.661 0
M  V30 3740 H 346.481 5.23704 0.288932 0
M  V30 3741 H 347.955 5.14622 1.99671 0
M  V30 3742 H 348.432 3.55373 2.58083 0
M  V30 3743 H 349.038 4.13098 1.01142 0
M  V30 3744 N 347.353 -0.0568162 1.57498 0
M  V30 3745 C 348.764 -0.606858 1.76562 0
M  V30 3746 C 349.115 -1.77114 0.844094 0
M  V30 3747 O 348.24 -2.16376 0.0318911 0
M  V30 3748 C 348.835 -1.10766 3.20182 0
M  V30 3749 C 347.394 -1.60344 3.40539 0
M  V30 3750 C 346.541 -0.529311 2.72201 0
M  V30 3751 H 349.492 0.169393 1.57793 0
M  V30 3752 H 349.513 -1.97602 3.25167 0
M  V30 3753 H 349.025 -0.26006 3.87228 0
M  V30 3754 H 347.126 -2.47379 2.78629 0
M  V30 3755 H 347.239 -1.67006 4.4905 0
M  V30 3756 H 345.603 -0.977893 2.35179 0
M  V30 3757 H 346.386 0.308352 3.41912 0
M  V30 3758 N 348.832 -1.54138 -0.328536 0
M  V30 3759 C 350.248 -1.44736 -0.672574 0
M  V30 3760 C 350.448 -0.616217 -1.91846 0
M  V30 3761 O 349.504 -0.113067 -2.52247 0
M  V30 3762 C 350.817 -2.884 -0.851217 0
M  V30 3763 C 352.365 -2.98271 -0.948877 0
M  V30 3764 C 352.84 -4.43074 -1.15973 0
M  V30 3765 N 354.331 -4.46665 -1.22658 0
M  V30 3766 C 355.066 -5.55857 -1.40751 0
M  V30 3767 N 354.562 -6.75026 -1.5592 0
M  V30 3768 N 356.355 -5.43495 -1.4342 0
M  V30 3769 H 348.506 -2.06661 0.490421 0
M  V30 3770 H 350.769 -0.934812 0.157579 0
M  V30 3771 H 350.475 -3.51699 -0.00704236 0
M  V30 3772 H 350.349 -3.34225 -1.74853 0
M  V30 3773 H 352.736 -2.35102 -1.78356 0
M  V30 3774 H 352.817 -2.55785 -0.0281435 0
M  V30 3775 H 352.461 -5.06827 -0.329915 0
M  V30 3776 H 352.391 -4.83165 -2.09426 0
M  V30 3777 H 354.882 -3.60797 -1.124 0
M  V30 3778 H 355.195 -7.54004 -1.69404 0
M  V30 3779 H 353.54 -6.77944 -1.53027 0
M  V30 3780 H 356.731 -4.49349 -1.31162 0
M  V30 3781 H 356.904 -6.28649 -1.57178 0
M  V30 3782 N 350.31 0.590341 -1.46126 0
M  V30 3783 C 351.726 0.912917 -1.30912 0
M  V30 3784 C 351.926 1.99616 -0.274893 0
M  V30 3785 O 350.982 2.50397 0.325197 0
M  V30 3786 C 352.295 1.3375 -2.69317 0
M  V30 3787 C 353.843 1.45077 -2.77348 0
M  V30 3788 C 354.318 1.90904 -4.16317 0
M  V30 3789 N 355.809 1.9811 -4.18696 0
M  V30 3790 C 356.544 2.34828 -5.23109 0
M  V30 3791 N 356.04 2.70393 -6.37856 0
M  V30 3792 N 357.833 2.35317 -5.10473 0
M  V30 3793 H 349.984 -0.125358 -2.1203 0
M  V30 3794 H 352.247 0.00658481 -0.947977 0
M  V30 3795 H 351.953 0.615614 -3.4627 0
M  V30 3796 H 351.827 2.30058 -2.9892 0
M  V30 3797 H 354.214 2.16353 -2.00687 0
M  V30 3798 H 354.295 0.4704 -2.51438 0
M  V30 3799 H 353.939 1.20209 -4.9347 0
M  V30 3800 H 353.869 2.89886 -4.39629 0
M  V30 3801 H 356.36 1.73146 -3.359 0
M  V30 3802 H 356.673 2.97341 -7.13308 0
M  V30 3803 H 355.018 2.68048 -6.41229 0
M  V30 3804 H 358.209 2.0695 -4.19868 0
M  V30 3805 H 358.382 2.63605 -5.9196 0
M  V30 3806 N 351.788 1.33704 0.83433 0
M  V30 3807 C 353.065 1.16011 1.57483 0
M  V30 3808 C 353.445 -0.27176 2.09343 0
M  V30 3809 O 352.793 -1.27146 1.89858 0
M  V30 3810 C 353.003 2.20507 2.70514 0
M  V30 3811 C 354.351 2.54898 3.39577 0
M  V30 3812 O 355.375 2.19209 2.80759 0
M  V30 3813 O 354.234 3.16158 4.45765 0
M  V30 3814 H 351.328 0.448992 0.694503 0
M  V30 3815 H 353.874 1.453 0.876691 0
M  V30 3816 H 352.646 3.16667 2.29865 0
M  V30 3817 H 352.269 1.92329 3.47987 0
M  V30 3818 N 353.266 -1.05314 1.17247 0
M  V30 3819 C 354.512 -1.78557 0.961513 0
M  V30 3820 C 354.845 -1.87419 -0.508697 0
M  V30 3821 O 354.12 -1.37307 -1.37757 0
M  V30 3822 C 354.403 -3.22514 1.60176 0
M  V30 3823 C 354.256 -3.21673 3.14399 0
M  V30 3824 C 355.575 -4.20318 1.30463 0
M  V30 3825 H 352.694 -0.6482 0.350723 0
M  V30 3826 H 355.336 -1.23102 1.44727 0
M  V30 3827 H 353.486 -3.69867 1.18871 0
M  V30 3828 H 355.158 -2.82405 3.64753 0
M  V30 3829 H 353.401 -2.60048 3.47214 0
M  V30 3830 H 354.072 -4.23271 3.54324 0
M  V30 3831 H 356.548 -3.81454 1.66229 0
M  V30 3832 H 355.424 -5.19289 1.77848 0
M  V30 3833 H 355.685 -4.41526 0.22521 0
M  V30 3834 N 354.744 -0.972509 -1.24016 0
M  V30 3835 C 356.155 -0.67517 -1.74064 0
M  V30 3836 C 356.506 0.808939 -1.78747 0
M  V30 3837 O 355.631 1.63286 -1.42009 0
M  V30 3838 C 356.226 -1.21889 -3.16115 0
M  V30 3839 C 354.785 -0.971358 -3.6365 0
M  V30 3840 C 353.932 -1.35134 -2.42145 0
M  V30 3841 H 356.883 -1.14727 -1.09651 0
M  V30 3842 H 356.904 -0.587489 -3.75937 0
M  V30 3843 H 356.416 -2.29906 -3.12674 0
M  V30 3844 H 354.517 0.0930686 -3.72484 0
M  V30 3845 H 354.63 -1.62039 -4.50866 0
M  V30 3846 H 352.994 -0.769751 -2.4279 0
M  V30 3847 H 353.777 -2.4411 -2.41381 0
M  V30 3848 N 356.222 1.38976 -0.743202 0
M  V30 3849 C 357.45 2.04636 -0.30525 0
M  V30 3850 C 357.865 1.56044 1.06281 0
M  V30 3851 O 357.222 0.728921 1.67311 0
M  V30 3852 C 357.273 3.60193 -0.307177 0
M  V30 3853 O 356.994 4.06998 -1.62124 0
M  V30 3854 C 358.495 4.4306 0.145928 0
M  V30 3855 H 355.715 0.65788 -0.132041 0
M  V30 3856 H 358.259 1.77866 -1.00915 0
M  V30 3857 H 356.414 3.85835 0.347898 0
M  V30 3858 H 356.828 5.01371 -1.54036 0
M  V30 3859 H 358.302 5.51921 0.0934183 0
M  V30 3860 H 358.779 4.22706 1.19231 0
M  V30 3861 H 359.385 4.22584 -0.479886 0
M  V30 3862 N 357.7 0.491464 1.49741 0
M  V30 3863 C 358.93 -0.0534375 2.06531 0
M  V30 3864 C 359.338 -1.32233 1.35318 0
M  V30 3865 O 358.681 -1.78781 0.422243 0
M  V30 3866 C 358.743 -0.387034 3.57411 0
M  V30 3867 C 358.407 0.782764 4.50246 0
M  V30 3868 C 359.404 1.67059 4.92329 0
M  V30 3869 C 357.089 0.978866 4.9267 0
M  V30 3870 C 359.083 2.73874 5.75562 0
M  V30 3871 C 356.77 2.05022 5.75682 0
M  V30 3872 C 357.768 2.92851 6.17031 0
M  V30 3873 O 357.456 3.98138 6.98385 0
M  V30 3874 H 357.188 0.0129324 0.675876 0
M  V30 3875 H 359.742 0.685238 1.93633 0
M  V30 3876 H 357.972 -1.17918 3.68283 0
M  V30 3877 H 359.661 -0.869419 3.96479 0
M  V30 3878 H 360.427 1.53086 4.60206 0
M  V30 3879 H 356.306 0.304646 4.59992 0
M  V30 3880 H 359.85 3.42458 6.07757 0
M  V30 3881 H 355.747 2.18993 6.07217 0
M  V30 3882 H 356.515 3.95374 7.16674 0
M  V30 3883 N 359.178 -1.55987 0.224894 0
M  V30 3884 C 360.589 -1.84553 -0.282345 0
M  V30 3885 C 360.94 -1.14634 -1.59227 0
M  V30 3886 O 360.065 -0.417155 -2.12341 0
M  V30 3887 C 360.66 -3.348 -0.519062 0
M  V30 3888 C 359.219 -3.63671 -0.970604 0
M  V30 3889 C 358.366 -2.77277 -0.0355261 0
M  V30 3890 H 361.317 -1.52245 0.448006 0
M  V30 3891 H 361.338 -3.55187 -1.36463 0
M  V30 3892 H 360.85 -3.8566 0.43449 0
M  V30 3893 H 358.951 -3.1827 -1.9374 0
M  V30 3894 H 359.064 -4.71631 -0.842698 0
M  V30 3895 H 357.428 -2.48846 -0.542927 0
M  V30 3896 H 358.211 -3.30937 0.913003 0
M  V30 3897 N 360.656 0.0484629 -1.57525 0
M  V30 3898 C 361.603 1.05504 -2.05275 0
M  V30 3899 C 362.573 1.37084 -0.937927 0
M  V30 3900 O 363.758 1.47754 -1.2072 0
M  V30 3901 C 360.898 2.35676 -2.52093 0
M  V30 3902 C 360.011 2.10423 -3.77288 0
M  V30 3903 C 359.146 3.34327 -4.12794 0
M  V30 3904 C 358.185 3.04542 -5.30962 0
M  V30 3905 N 357.322 4.20841 -5.61994 0
M  V30 3906 H 362.162 0.640885 -2.91027 0
M  V30 3907 H 359.699 0.304854 -1.43906 0
M  V30 3908 H 361.657 3.11709 -2.77297 0
M  V30 3909 H 360.287 2.7485 -1.69285 0
M  V30 3910 H 359.339 1.24976 -3.59284 0
M  V30 3911 H 360.651 1.84438 -4.63448 0
M  V30 3912 H 359.805 4.1874 -4.39024 0
M  V30 3913 H 358.544 3.63408 -3.25247 0
M  V30 3914 H 357.549 2.18528 -5.04505 0
M  V30 3915 H 358.774 2.76758 -6.20146 0
M  V30 3916 H 356.72 4.4991 -4.77406 0
M  V30 3917 H 356.637 3.98212 -6.42622 0
M  V30 3918 H 357.905 5.06184 -5.92789 0
M  V30 3919 N 362.134 1.5431 0.320358 0
M  V30 3920 C 363.364 1.7638 1.07582 0
M  V30 3921 C 363.772 0.513944 1.82086 0
M  V30 3922 O 363.115 -0.525123 1.76035 0
M  V30 3923 C 363.177 2.9055 2.1171 0
M  V30 3924 C 362.841 4.2934 1.56575 0
M  V30 3925 C 363.838 5.10077 1.00586 0
M  V30 3926 C 361.523 4.75893 1.60722 0
M  V30 3927 C 363.517 6.35477 0.494756 0
M  V30 3928 C 361.204 6.0126 1.09224 0
M  V30 3929 C 362.202 6.80886 0.53696 0
M  V30 3930 O 361.89 8.03894 0.0297371 0
M  V30 3931 H 361.622 0.592369 0.325692 0
M  V30 3932 H 364.176 2.02019 0.37116 0
M  V30 3933 H 362.406 2.60489 2.85801 0
M  V30 3934 H 364.095 3.00373 2.73003 0
M  V30 3935 H 364.861 4.75265 0.966869 0
M  V30 3936 H 360.74 4.13957 2.02882 0
M  V30 3937 H 364.284 6.97574 0.0606842 0
M  V30 3938 H 360.181 6.35562 1.12831 0
M  V30 3939 H 360.949 8.18372 0.14486 0
M  V30 3940 N 363.613 -0.582584 1.46437 0
M  V30 3941 C 364.543 -1.70187 1.59871 0
M  V30 3942 C 365.524 -1.64066 0.449042 0
M  V30 3943 O 366.709 -1.82081 0.6753 0
M  V30 3944 C 363.839 -3.08827 1.58881 0
M  V30 3945 C 362.793 -3.29779 2.72819 0
M  V30 3946 C 362.119 -4.68947 2.5689 0
M  V30 3947 C 363.419 -3.17601 4.1464 0
M  V30 3948 H 365.113 -1.592 2.53566 0
M  V30 3949 H 362.659 -0.764472 1.22032 0
M  V30 3950 H 364.612 -3.86951 1.66873 0
M  V30 3951 H 363.336 -3.20713 0.617306 0
M  V30 3952 H 361.995 -2.54054 2.64296 0
M  V30 3953 H 361.643 -4.77599 1.57823 0
M  V30 3954 H 361.343 -4.83919 3.33312 0
M  V30 3955 H 362.867 -5.4924 2.66773 0
M  V30 3956 H 364.281 -3.8557 4.24274 0
M  V30 3957 H 362.678 -3.44094 4.9165 0
M  V30 3958 H 363.748 -2.14681 4.34788 0
M  V30 3959 N 365.091 -1.34144 -0.827227 0
M  V30 3960 C 366.021 -1.28005 -1.95287 0
M  V30 3961 C 367.002 -0.158321 -1.69362 0
M  V30 3962 O 368.187 -0.349987 -1.9102 0
M  V30 3963 C 365.317 -1.03036 -3.31664 0
M  V30 3964 C 364.271 -2.11628 -3.72019 0
M  V30 3965 C 363.597 -1.71854 -5.0633 0
M  V30 3966 C 364.897 -3.53417 -3.8457 0
M  V30 3967 H 366.591 -2.22187 -2.00682 0
M  V30 3968 H 364.137 -1.0696 -0.964135 0
M  V30 3969 H 366.09 -0.973863 -4.09993 0
M  V30 3970 H 364.814 -0.0529391 -3.26557 0
M  V30 3971 H 363.473 -2.16339 -2.95961 0
M  V30 3972 H 363.121 -0.727841 -4.97706 0
M  V30 3973 H 362.821 -2.44531 -5.34302 0
M  V30 3974 H 364.345 -1.67692 -5.87122 0
M  V30 3975 H 365.759 -3.51142 -4.5318 0
M  V30 3976 H 364.156 -4.24679 -4.2399 0
M  V30 3977 H 365.226 -3.91072 -2.86689 0
M  V30 3978 N 366.569 1.04691 -1.17803 0
M  V30 3979 C 367.794 1.81984 -0.994813 0
M  V30 3980 C 368.219 1.82586 0.452112 0
M  V30 3981 O 367.577 1.23854 1.324 0
M  V30 3982 C 367.625 3.2575 -1.54659 0
M  V30 3983 O 366.729 4.05267 -0.763728 0
M  V30 3984 H 366.07 0.562483 -0.352857 0
M  V30 3985 H 368.6 1.3189 -1.56417 0
M  V30 3986 H 368.61 3.76541 -1.57102 0
M  V30 3987 H 367.285 3.24627 -2.59981 0
M  V30 3988 H 365.862 3.63972 -0.811108 0
M  V30 3989 N 368.047 0.979072 1.23499 0
M  V30 3990 C 369.458 0.684391 1.73704 0
M  V30 3991 C 369.809 -0.799448 1.79174 0
M  V30 3992 O 368.934 -1.62531 1.42873 0
M  V30 3993 C 369.529 1.23564 3.15464 0
M  V30 3994 C 368.088 0.99063 3.6313 0
M  V30 3995 C 367.235 1.36416 2.41425 0
M  V30 3996 H 370.186 1.15307 1.09041 0
M  V30 3997 H 370.207 0.607417 3.7562 0
M  V30 3998 H 369.719 2.31561 3.1145 0
M  V30 3999 H 367.82 -0.0733136 3.72528 0
M  V30 4000 H 367.933 1.64427 4.5 0
M  V30 4001 H 366.297 0.782616 2.42378 0
M  V30 4002 H 367.08 2.45387 2.40083 0
M  V30 4003 N 369.525 -1.3858 0.750561 0
M  V30 4004 C 370.435 -2.34278 0.122825 0
M  V30 4005 C 371.451 -1.59116 -0.704131 0
M  V30 4006 O 372.627 -1.91326 -0.628987 0
M  V30 4007 C 369.692 -3.38221 -0.762086 0
M  V30 4008 C 368.753 -4.29227 0.078896 0
M  V30 4009 C 367.986 -5.28205 -0.763874 0
M  V30 4010 O 368.209 -5.34112 -2.00201 0
M  V30 4011 O 367.143 -6.01618 -0.18428 0
M  V30 4012 H 370.969 -2.89649 0.913088 0
M  V30 4013 H 368.554 -1.40374 0.511417 0
M  V30 4014 H 370.436 -4.01872 -1.26793 0
M  V30 4015 H 369.111 -2.85211 -1.5309 0
M  V30 4016 H 368.018 -3.68747 0.630621 0
M  V30 4017 H 369.351 -4.85484 0.810289 0
M  V30 4018 N 371.003 -0.499398 -1.49478 0
M  V30 4019 C 372.231 0.0425456 -2.06856 0
M  V30 4020 C 372.646 1.30964 -1.35992 0
M  V30 4021 O 372.003 1.77172 -0.437762 0
M  V30 4022 C 372.054 0.301735 -3.60239 0
M  V30 4023 O 371.775 -0.915127 -4.28436 0
M  V30 4024 C 373.276 0.887499 -4.34325 0
M  V30 4025 H 370.496 -0.0197482 -0.670709 0
M  V30 4026 H 373.04 -0.696297 -1.92281 0
M  V30 4027 H 371.195 0.990556 -3.74522 0
M  V30 4028 H 371.609 -0.676993 -5.20113 0
M  V30 4029 H 373.083 1.01845 -5.42523 0
M  V30 4030 H 373.56 1.88488 -3.96698 0
M  V30 4031 H 374.166 0.236196 -4.24644 0
M  V30 4032 N 372.481 1.55866 -0.233164 0
M  V30 4033 C 373.73 1.97779 0.39579 0
M  V30 4034 C 374.043 1.12419 1.60066 0
M  V30 4035 O 375.249 1.44283 2.29988 0
M  V30 4036 C 373.705 3.5188 0.755556 0
M  V30 4037 C 373.313 4.45959 -0.427152 0
M  V30 4038 C 375.057 4.02479 1.34946 0
M  V30 4039 C 372.964 5.91383 -0.0443043 0
M  V30 4040 H 371.894 0.738592 0.15165 0
M  V30 4041 H 374.545 1.80486 -0.331212 0
M  V30 4042 H 372.927 3.64816 1.5403 0
M  V30 4043 H 374.101 4.44776 -1.20462 0
M  V30 4044 H 372.416 4.05765 -0.935068 0
M  V30 4045 H 375.013 5.08637 1.649 0
M  V30 4046 H 375.356 3.49014 2.26925 0
M  V30 4047 H 375.889 3.92813 0.62791 0
M  V30 4048 H 372.628 6.48857 -0.930874 0
M  V30 4049 H 372.148 5.95734 0.697238 0
M  V30 4050 H 373.827 6.45893 0.378334 0
M  V30 4051 N 373.959 -0.0401083 1.57549 0
M  V30 4052 C 374.869 -1.06133 2.0922 0
M  V30 4053 C 375.885 -1.40356 1.0284 0
M  V30 4054 O 377.061 -1.49897 1.34509 0
M  V30 4055 C 374.126 -2.34658 2.55218 0
M  V30 4056 C 373.187 -2.07117 3.76033 0
M  V30 4057 C 372.42 -3.29514 4.19829 0
M  V30 4058 O 372.643 -4.39794 3.63232 0
M  V30 4059 O 371.577 -3.15863 5.12362 0
M  V30 4060 H 375.403 -0.652244 2.96613 0
M  V30 4061 H 372.988 -0.256368 1.47184 0
M  V30 4062 H 374.87 -3.10239 2.85184 0
M  V30 4063 H 373.545 -2.74883 1.70941 0
M  V30 4064 H 372.452 -1.29139 3.51104 0
M  V30 4065 H 373.785 -1.71754 4.61261 0
M  V30 4066 N 375.437 -1.54477 -0.31217 0
M  V30 4067 C 376.4 -1.83923 -1.36766 0
M  V30 4068 C 377.4 -0.711563 -1.44199 0
M  V30 4069 O 378.59 -0.979866 -1.44029 0
M  V30 4070 C 375.722 -2.0095 -2.75376 0
M  V30 4071 H 376.915 -2.78239 -1.11906 0
M  V30 4072 H 374.468 -1.46369 -0.548257 0
M  V30 4073 H 375.203 -1.08883 -3.05475 0
M  V30 4074 H 374.988 -2.83018 -2.71373 0
M  V30 4075 H 376.478 -2.2514 -3.51713 0
M  V30 4076 N 376.915 0.57481 -1.46744 0
M  V30 4077 C 377.845 1.69337 -1.60771 0
M  V30 4078 C 378.826 1.63825 -0.457736 0
M  V30 4079 O 380.011 1.8172 -0.684947 0
M  V30 4080 C 377.141 3.0798 -1.60517 0
M  V30 4081 C 376.095 3.28327 -2.74564 0
M  V30 4082 C 375.421 4.67578 -2.59373 0
M  V30 4083 C 376.721 3.15398 -4.16319 0
M  V30 4084 H 378.415 1.57853 -2.54407 0
M  V30 4085 H 375.961 0.75799 -1.22436 0
M  V30 4086 H 377.914 3.86061 -1.68923 0
M  V30 4087 H 376.638 3.20381 -0.634305 0
M  V30 4088 H 375.297 2.52649 -2.65639 0
M  V30 4089 H 374.945 4.76755 -1.60353 0
M  V30 4090 H 374.645 4.82144 -3.35873 0
M  V30 4091 H 376.169 5.47817 -2.69682 0
M  V30 4092 H 377.583 3.83315 -4.26313 0
M  V30 4093 H 375.98 3.41482 -4.93468 0
M  V30 4094 H 377.05 2.12372 -4.3592 0
M  V30 4095 N 378.394 1.34581 0.820102 0
M  V30 4096 C 379.81 1.14325 1.11364 0
M  V30 4097 C 380.01 -0.0533648 2.01429 0
M  V30 4098 O 379.066 -0.728044 2.41776 0
M  V30 4099 C 380.379 2.43983 1.75764 0
M  V30 4100 C 381.927 2.50065 1.88246 0
M  V30 4101 C 382.402 3.79732 2.56061 0
M  V30 4102 N 383.893 3.80908 2.63558 0
M  V30 4103 C 384.628 4.77961 3.16766 0
M  V30 4104 N 384.124 5.85397 3.70517 0
M  V30 4105 N 385.917 4.65413 3.15194 0
M  V30 4106 H 378.068 2.11246 0.221096 0
M  V30 4107 H 380.331 0.934289 0.160649 0
M  V30 4108 H 380.037 3.31651 1.1705 0
M  V30 4109 H 379.911 2.57531 2.75604 0
M  V30 4110 H 382.298 1.62834 2.46108 0
M  V30 4111 H 382.379 2.40442 0.873006 0
M  V30 4112 H 382.023 4.67354 1.98853 0
M  V30 4113 H 381.953 3.86639 3.57516 0
M  V30 4114 H 384.444 3.03274 2.25463 0
M  V30 4115 H 384.757 6.55463 4.09376 0
M  V30 4116 H 383.102 5.89107 3.68752 0
M  V30 4117 H 386.293 3.80627 2.72471 0
M  V30 4118 H 386.466 5.41216 3.56356 0
M  V30 4119 N 379.872 -1.04064 1.18357 0
M  V30 4120 C 380.819 -2.12077 0.910603 0
M  V30 4121 C 381.789 -1.65421 -0.15 0
M  V30 4122 O 382.974 -1.90797 -0.0103614 0
M  V30 4123 C 380.114 -3.42252 0.442472 0
M  V30 4124 C 379.227 -4.0252 1.5685 0
M  V30 4125 C 378.362 -5.20657 1.05309 0
M  V30 4126 C 377.401 -5.72955 2.1538 0
M  V30 4127 N 376.538 -6.8238 1.65233 0
M  V30 4128 H 381.378 -2.34764 1.83548 0
M  V30 4129 H 378.915 -1.15157 0.915279 0
M  V30 4130 H 380.873 -4.16921 0.152534 0
M  V30 4131 H 379.503 -3.19712 -0.445428 0
M  V30 4132 H 378.555 -3.25178 1.97391 0
M  V30 4133 H 379.867 -4.37362 2.39824 0
M  V30 4134 H 379.021 -6.0244 0.717677 0
M  V30 4135 H 377.76 -4.87318 0.19293 0
M  V30 4136 H 376.765 -4.89793 2.49766 0
M  V30 4137 H 377.99 -6.08337 3.01832 0
M  V30 4138 H 375.936 -6.50917 0.815064 0
M  V30 4139 H 375.853 -7.16286 2.41805 0
M  V30 4140 H 377.121 -7.67788 1.34619 0
M  V30 4141 N 381.35 -0.985608 -1.22978 0
M  V30 4142 C 382.761 -0.693593 -1.73338 0
M  V30 4143 C 383.112 0.789935 -1.79595 0
M  V30 4144 O 382.237 1.61771 -1.43733 0
M  V30 4145 C 382.832 -1.25235 -3.14804 0
M  V30 4146 C 381.391 -1.00987 -3.626 0
M  V30 4147 C 380.538 -1.37695 -2.40698 0
M  V30 4148 H 383.489 -1.15884 -1.08428 0
M  V30 4149 H 383.51 -0.627329 -3.75293 0
M  V30 4150 H 383.022 -2.33209 -3.10218 0
M  V30 4151 H 381.123 0.0535565 -3.72562 0
M  V30 4152 H 381.236 -1.66812 -4.49122 0
M  V30 4153 H 379.6 -0.795459 -2.4196 0
M  V30 4154 H 380.383 -2.46657 -2.38779 0
M  V30 4155 N 382.828 1.3818 -0.7579 0
M  V30 4156 C 384.056 2.04301 -0.326937 0
M  V30 4157 C 384.471 1.57163 1.0462 0
M  V30 4158 O 383.828 0.746626 1.66529 0
M  V30 4159 C 383.879 3.59846 -0.345363 0
M  V30 4160 O 383.6 4.05256 -1.66432 0
M  V30 4161 C 385.101 4.4319 0.098927 0
M  V30 4162 H 382.321 0.656443 -0.139012 0
M  V30 4163 H 384.865 1.76786 -1.02796 0
M  V30 4164 H 383.02 3.86182 0.306955 0
M  V30 4165 H 383.434 4.99709 -1.59345 0
M  V30 4166 H 384.908 5.51989 0.0348745 0
M  V30 4167 H 385.385 4.23947 1.14741 0
M  V30 4168 H 385.991 4.22051 -0.52468 0
M  V30 4169 N 384.306 0.507319 1.49211 0
M  V30 4170 C 385.553 -0.0349529 2.0247 0
M  V30 4171 C 385.881 -1.36409 1.38647 0
M  V30 4172 O 385.136 -1.88841 0.513566 0
M  V30 4173 C 385.435 -0.229513 3.56662 0
M  V30 4174 C 385.101 1.02241 4.39156 0
M  V30 4175 C 383.763 1.36557 4.61417 0
M  V30 4176 C 386.115 1.85428 4.871 0
M  V30 4177 C 383.443 2.53999 5.28868 0
M  V30 4178 C 385.795 3.02028 5.55843 0
M  V30 4179 C 384.459 3.36717 5.76349 0
M  V30 4180 H 383.729 -0.0127902 0.74089 0
M  V30 4181 H 386.376 0.668756 1.79443 0
M  V30 4182 H 384.681 -1.0158 3.78403 0
M  V30 4183 H 386.378 -0.663641 3.9547 0
M  V30 4184 H 382.968 0.745124 4.22073 0
M  V30 4185 H 387.152 1.6023 4.69723 0
M  V30 4186 H 382.408 2.81105 5.42946 0
M  V30 4187 H 386.582 3.66808 5.91967 0
M  V30 4188 H 384.209 4.27821 6.28389 0
M  V30 4189 N 385.784 -1.5574 0.241426 0
M  V30 4190 C 387.061 -1.90704 -0.434881 0
M  V30 4191 C 387.441 -1.16145 -1.76277 0
M  V30 4192 O 386.789 -0.277152 -2.26813 0
M  V30 4193 C 386.999 -3.43657 -0.608343 0
M  V30 4194 C 388.347 -4.14806 -0.906725 0
M  V30 4195 O 389.371 -3.49366 -0.694408 0
M  V30 4196 O 388.23 -5.30548 -1.31075 0
M  V30 4197 H 385.324 -0.793592 -0.23268 0
M  V30 4198 H 387.87 -1.67288 0.285086 0
M  V30 4199 H 386.642 -3.89927 0.327505 0
M  V30 4200 H 386.265 -3.72918 -1.37906 0
M  V30 4201 N 387.262 0.0317525 -1.57568 0
M  V30 4202 C 388.508 0.724175 -1.8943 0
M  V30 4203 C 388.841 1.75149 -0.838836 0
M  V30 4204 O 388.116 1.93948 0.146422 0
M  V30 4205 C 388.399 1.39615 -3.31933 0
M  V30 4206 C 388.252 0.382537 -4.4817 0
M  V30 4207 C 389.571 2.33084 -3.73309 0
M  V30 4208 H 386.69 0.261797 -0.688935 0
M  V30 4209 H 389.332 -0.013017 -1.89996 0
M  V30 4210 H 387.482 2.02451 -3.31581 0
M  V30 4211 H 389.154 -0.243689 -4.60656 0
M  V30 4212 H 387.397 -0.29844 -4.32772 0
M  V30 4213 H 388.068 0.891145 -5.44759 0
M  V30 4214 H 390.544 1.80295 -3.7501 0
M  V30 4215 H 389.42 2.77084 -4.73831 0
M  V30 4216 H 389.681 3.19643 -3.05419 0
M  V30 4217 N 388.74 1.54641 0.303973 0
M  V30 4218 C 389.986 1.74969 1.03718 0
M  V30 4219 C 390.341 0.527461 1.85029 0
M  V30 4220 O 389.634 -0.480143 1.85486 0
M  V30 4221 C 389.828 2.97753 1.97681 0
M  V30 4222 C 389.657 4.318 1.25613 0
M  V30 4223 C 388.427 4.95616 0.984518 0
M  V30 4224 C 390.625 5.10021 0.662081 0
M  V30 4225 N 388.607 6.13455 0.233794 0
M  V30 4226 C 389.978 6.19984 0.0439736 0
M  V30 4227 C 392.033 4.94663 0.566835 0
M  V30 4228 C 390.736 7.16264 -0.66016 0
M  V30 4229 C 392.762 5.91271 -0.123637 0
M  V30 4230 C 392.124 7.00601 -0.730608 0
M  V30 4231 H 388.223 0.692873 0.362562 0
M  V30 4232 H 390.807 1.92116 0.316135 0
M  V30 4233 H 388.978 2.82036 2.6704 0
M  V30 4234 H 390.71 3.06621 2.64132 0
M  V30 4235 H 387.465 4.55921 1.28191 0
M  V30 4236 H 387.889 6.76879 -0.127996 0
M  V30 4237 H 392.531 4.10267 1.02181 0
M  V30 4238 H 390.249 8.00204 -1.12691 0
M  V30 4239 H 393.835 5.81466 -0.197236 0
M  V30 4240 H 392.715 7.7407 -1.2564 0
M  V30 4241 N 390.218 -0.567019 1.47046 0
M  V30 4242 C 391.148 -1.68482 1.61667 0
M  V30 4243 C 392.129 -1.6358 0.466418 0
M  V30 4244 O 393.314 -1.81354 0.694574 0
M  V30 4245 C 390.444 -3.07124 1.62148 0
M  V30 4246 C 389.398 -3.26867 2.76301 0
M  V30 4247 C 388.724 -4.66196 2.61849 0
M  V30 4248 C 390.024 -3.13186 4.17986 0
M  V30 4249 H 391.718 -1.56502 2.5524 0
M  V30 4250 H 389.264 -0.751486 1.22836 0
M  V30 4251 H 391.217 -3.8516 1.70968 0
M  V30 4252 H 389.941 -3.2004 0.651287 0
M  V30 4253 H 388.6 -2.51237 2.66975 0
M  V30 4254 H 388.248 -4.75898 1.62879 0
M  V30 4255 H 387.948 -4.80356 3.38425 0
M  V30 4256 H 389.472 -5.46379 2.72584 0
M  V30 4257 H 390.886 -3.81049 4.2834 0
M  V30 4258 H 389.283 -3.3886 4.95272 0
M  V30 4259 H 390.353 -2.10057 4.3704 0
M  V30 4260 N 391.696 -1.35014 -0.812953 0
M  V30 4261 C 392.942 -1.29129 -1.57154 0
M  V30 4262 C 393.297 0.134922 -1.91926 0
M  V30 4263 O 392.59 1.08373 -1.58006 0
M  V30 4264 C 392.784 -2.12524 -2.87347 0
M  V30 4265 C 392.613 -3.6311 -2.65294 0
M  V30 4266 C 391.383 -4.32363 -2.61516 0
M  V30 4267 C 393.581 -4.56897 -2.36114 0
M  V30 4268 N 391.563 -5.68735 -2.31113 0
M  V30 4269 C 392.934 -5.81345 -2.15494 0
M  V30 4270 C 394.989 -4.45706 -2.21925 0
M  V30 4271 C 393.692 -6.95862 -1.82122 0
M  V30 4272 C 395.718 -5.60066 -1.89948 0
M  V30 4273 C 395.08 -6.83539 -1.7016 0
M  V30 4274 H 391.179 -0.527764 -0.577052 0
M  V30 4275 H 393.763 -1.6983 -0.952146 0
M  V30 4276 H 391.934 -1.74104 -3.47192 0
M  V30 4277 H 393.666 -1.98207 -3.5284 0
M  V30 4278 H 390.421 -3.84907 -2.75941 0
M  V30 4279 H 390.845 -6.40694 -2.18724 0
M  V30 4280 H 395.487 -3.50855 -2.35925 0
M  V30 4281 H 393.205 -7.90685 -1.6686 0
M  V30 4282 H 396.791 -5.53357 -1.79687 0
M  V30 4283 H 395.671 -7.70531 -1.45777 0
M  V30 4284 N 393.175 1.03435 -1.18907 0
M  V30 4285 C 394.085 2.15075 -0.937015 0
M  V30 4286 C 395.101 1.73706 0.101085 0
M  V30 4287 O 396.277 2.01232 -0.0822948 0
M  V30 4288 C 393.342 3.43458 -0.473057 0
M  V30 4289 C 392.403 3.99172 -1.57989 0
M  V30 4290 C 391.636 5.21427 -1.13797 0
M  V30 4291 O 391.859 5.704 0.000725941 0
M  V30 4292 O 390.793 5.69837 -1.9383 0
M  V30 4293 H 394.619 2.39198 -1.87131 0
M  V30 4294 H 392.204 1.13506 -0.971427 0
M  V30 4295 H 394.086 4.20811 -0.222702 0
M  V30 4296 H 392.761 3.20793 0.432869 0
M  V30 4297 H 391.668 3.23178 -1.88433 0
M  V30 4298 H 393.001 4.2619 -2.46217 0
M  V30 4299 N 394.653 0.992116 1.22453 0
M  V30 4300 C 396.064 0.702776 1.72968 0
M  V30 4301 C 396.415 -0.780399 1.80012 0
M  V30 4302 O 395.54 -1.61007 1.44589 0
M  V30 4303 C 396.135 1.26903 3.14135 0
M  V30 4304 C 394.694 1.02909 3.62059 0
M  V30 4305 C 393.841 1.38969 2.39964 0
M  V30 4306 H 396.792 1.16457 1.07812 0
M  V30 4307 H 396.813 0.647223 3.74955 0
M  V30 4308 H 396.325 2.34851 3.08977 0
M  V30 4309 H 394.426 -0.0337979 3.72585 0
M  V30 4310 H 394.539 1.69191 4.48231 0
M  V30 4311 H 392.903 0.808279 2.41535 0
M  V30 4312 H 393.686 2.4792 2.37467 0
M  V30 4313 N 396.131 -1.37776 0.765217 0
M  V30 4314 C 397.079 -2.32209 0.134798 0
M  V30 4315 C 398.073 -1.54607 -0.692315 0
M  V30 4316 O 399.279 -1.70052 -0.590109 0
M  V30 4317 H 395.654 -0.751591 0.0248005 0
M  V30 4318 H 397.625 -2.8297 0.947119 0
M  V30 4319 C 396.374 -3.39841 -0.735063 0
M  V30 4320 H 395.697 -3.99654 -0.107991 0
M  V30 4321 H 397.137 -4.08296 -1.14326 0
M  V30 4322 C 395.596 -2.79378 -1.88281 0
M  V30 4323 O 396.126 -2.69608 -2.97783 0
M  V30 4324 N 394.332 -2.37016 -1.68142 0
M  V30 4325 H 393.879 -2.45162 -0.790772 0
M  V30 4326 H 393.837 -1.96905 -2.45104 0
M  V30 4327 N 397.609 -0.515225 -1.4894 0
M  V30 4328 C 398.519 0.259774 -2.33157 0
M  V30 4329 C 399.535 0.953501 -1.45548 0
M  V30 4330 O 400.711 0.931735 -1.78552 0
M  V30 4331 C 397.776 1.30193 -3.21326 0
M  V30 4332 C 396.837 0.620129 -4.24797 0
M  V30 4333 C 396.07 1.61263 -5.08753 0
M  V30 4334 O 396.293 2.84389 -4.94448 0
M  V30 4335 O 395.227 1.16013 -5.90614 0
M  V30 4336 H 399.053 -0.429932 -3.00641 0
M  V30 4337 H 396.638 -0.276346 -1.46822 0
M  V30 4338 H 398.52 1.90455 -3.75905 0
M  V30 4339 H 397.195 1.97431 -2.56521 0
M  V30 4340 H 396.102 -0.0226019 -3.74093 0
M  V30 4341 H 397.435 -0.0100493 -4.92199 0
M  V30 4342 N 399.087 1.5561 -0.249682 0
M  V30 4343 C 400.02 2.17537 0.689408 0
M  V30 4344 C 400.998 1.12829 1.17083 0
M  V30 4345 O 402.182 1.41229 1.24846 0
M  V30 4346 C 399.309 2.77828 1.93725 0
M  V30 4347 C 398.355 3.95615 1.59346 0
M  V30 4348 S 399.188 5.30988 0.69367 0
M  V30 4349 C 400.344 5.94734 1.95046 0
M  V30 4350 H 400.577 2.96852 0.163142 0
M  V30 4351 H 398.11 1.54362 -0.0341166 0
M  V30 4352 H 400.068 3.13199 2.65361 0
M  V30 4353 H 398.729 1.98454 2.43465 0
M  V30 4354 H 397.922 4.364 2.52132 0
M  V30 4355 H 397.524 3.61535 0.957512 0
M  V30 4356 H 399.816 6.12419 2.89739 0
M  V30 4357 H 400.759 6.90109 1.58604 0
M  V30 4358 H 401.167 5.23832 2.10381 0
M  V30 4359 N 400.565 -0.0233959 1.57583 0
M  V30 4360 C 401.495 -1.02162 2.09965 0
M  V30 4361 C 402.476 -1.3735 1.00344 0
M  V30 4362 O 403.661 -1.46135 1.27899 0
M  V30 4363 C 400.791 -2.32081 2.58371 0
M  V30 4364 C 399.745 -2.1112 3.72307 0
M  V30 4365 C 399.071 -3.46848 4.06941 0
M  V30 4366 C 400.371 -1.49276 5.00514 0
M  V30 4367 H 402.065 -0.585557 2.93618 0
M  V30 4368 H 399.611 -0.280218 1.41247 0
M  V30 4369 H 401.564 -3.02249 2.93639 0
M  V30 4370 H 400.288 -2.77758 1.71808 0
M  V30 4371 H 398.947 -1.43384 3.37397 0
M  V30 4372 H 398.595 -3.90184 3.17436 0
M  V30 4373 H 398.295 -3.33646 4.83688 0
M  V30 4374 H 399.819 -4.18369 4.44747 0
M  V30 4375 H 401.233 -2.09368 5.33702 0
M  V30 4376 H 399.63 -1.46632 5.8191 0
M  V30 4377 H 400.7 -0.459217 4.82721 0
M  V30 4378 N 402.043 -1.548 -0.295768 0
M  V30 4379 C 403.268 -1.78653 -1.05346 0
M  V30 4380 C 403.693 -0.546894 -1.79974 0
M  V30 4381 O 403.051 0.502763 -1.7419 0
M  V30 4382 C 403.099 -2.99679 -2.00561 0
M  V30 4383 O 402.203 -2.7317 -3.08953 0
M  V30 4384 H 401.544 -0.59116 -0.302367 0
M  V30 4385 H 404.074 -2.01895 -0.331598 0
M  V30 4386 H 404.084 -3.27793 -2.42932 0
M  V30 4387 H 402.759 -3.89562 -1.4565 0
M  V30 4388 H 401.336 -2.56089 -2.71059 0
M  V30 4389 N 403.521 0.559213 -1.47345 0
M  V30 4390 C 404.761 1.32728 -1.55444 0
M  V30 4391 C 405.125 1.90838 -0.210895 0
M  V30 4392 O 406.326 2.68282 -0.166719 0
M  V30 4393 C 404.597 2.4092 -2.63993 0
M  V30 4394 S 406.156 3.2784 -2.91661 0
M  V30 4395 H 402.974 0.451883 -0.548929 0
M  V30 4396 H 405.576 0.640404 -1.84714 0
M  V30 4397 H 404.28 1.9666 -3.60212 0
M  V30 4398 H 403.811 3.14351 -2.36531 0
M  V30 4399 H 405.826 4.40341 -2.28722 0
M  V30 4400 N 404.999 1.35443 0.805782 0
M  V30 4401 C 405.929 1.31095 1.93226 0
M  V30 4402 C 406.91 0.185244 1.69088 0
M  V30 4403 O 408.095 0.380332 1.90439 0
M  V30 4404 C 405.225 1.08299 3.29983 0
M  V30 4405 C 404.179 2.17519 3.68605 0
M  V30 4406 C 403.505 1.79887 5.03532 0
M  V30 4407 C 404.805 3.5949 3.78898 0
M  V30 4408 H 406.499 2.25352 1.97122 0
M  V30 4409 H 404.045 1.0848 0.946996 0
M  V30 4410 H 405.998 1.03897 4.08391 0
M  V30 4411 H 404.722 0.104885 3.26432 0
M  V30 4412 H 403.381 2.2102 2.92482 0
M  V30 4413 H 403.029 0.80693 4.96485 0
M  V30 4414 H 402.729 2.53001 5.30344 0
M  V30 4415 H 404.253 1.77011 5.84379 0
M  V30 4416 H 405.667 3.58307 4.47536 0
M  V30 4417 H 404.064 4.31371 4.1718 0
M  V30 4418 H 405.134 3.95584 2.80431 0
M  V30 4419 N 406.477 -1.02803 1.19454 0
M  V30 4420 C 407.387 -2.14575 0.948408 0
M  V30 4421 C 408.403 -1.73757 -0.091871 0
M  V30 4422 O 409.579 -2.01185 0.0929654 0
M  V30 4423 C 406.644 -3.43202 0.491265 0
M  V30 4424 C 405.705 -3.98328 1.60103 0
M  V30 4425 C 404.938 -5.20816 1.16561 0
M  V30 4426 O 405.161 -5.70392 0.0295238 0
M  V30 4427 O 404.095 -5.68801 1.96849 0
M  V30 4428 H 407.921 -2.38202 1.88397 0
M  V30 4429 H 405.506 -1.12989 0.977433 0
M  V30 4430 H 407.388 -4.20687 0.245015 0
M  V30 4431 H 406.063 -3.21018 -0.415851 0
M  V30 4432 H 404.97 -3.22174 1.90144 0
M  V30 4433 H 406.303 -4.24879 2.48473 0
M  V30 4434 N 407.956 -0.998596 -1.21925 0
M  V30 4435 C 408.906 -0.524743 -2.21879 0
M  V30 4436 C 409.89 0.41017 -1.55584 0
M  V30 4437 O 411.082 0.236063 -1.75419 0
M  V30 4438 C 408.211 0.153636 -3.42956 0
M  V30 4439 C 407.297 -0.801918 -4.16449 0
M  V30 4440 N 407.688 -1.95211 -4.66611 0
M  V30 4441 C 405.986 -0.618972 -4.41684 0
M  V30 4442 C 406.687 -2.55234 -5.22715 0
M  V30 4443 N 405.663 -1.83451 -5.1171 0
M  V30 4444 H 409.465 -1.40189 -2.58311 0
M  V30 4445 H 406.979 -0.86159 -1.3766 0
M  V30 4446 H 408.976 0.510534 -4.13762 0
M  V30 4447 H 407.636 1.02684 -3.08036 0
M  V30 4448 H 408.647 -2.33271 -4.62391 0
M  V30 4449 H 405.324 0.207694 -4.16983 0
M  V30 4450 H 406.714 -3.52471 -5.72026 0
M  V30 4451 N 409.434 1.37368 -0.772513 0
M  V30 4452 C 410.367 2.27956 -0.105593 0
M  V30 4453 C 411.345 1.46362 0.708295 0
M  V30 4454 O 412.529 1.75695 0.682895 0
M  V30 4455 C 409.656 3.27687 0.856686 0
M  V30 4456 C 408.702 4.26312 0.1267 0
M  V30 4457 S 409.535 5.22206 -1.1858 0
M  V30 4458 C 410.691 6.25488 -0.227081 0
M  V30 4459 H 410.924 2.84171 -0.87372 0
M  V30 4460 H 408.457 1.43654 -0.565939 0
M  V30 4461 H 410.415 3.85653 1.40648 0
M  V30 4462 H 409.076 2.70417 1.59793 0
M  V30 4463 H 408.269 4.96674 0.856212 0
M  V30 4464 H 407.871 3.72339 -0.352117 0
M  V30 4465 H 410.163 6.74836 0.600231 0
M  V30 4466 H 411.106 7.02371 -0.898899 0
M  V30 4467 H 411.514 5.64267 0.162053 0
M  V30 4468 N 410.912 0.523116 1.48665 0
M  V30 4469 C 412.142 -0.00961724 2.06598 0
M  V30 4470 C 412.55 -1.29333 1.38093 0
M  V30 4471 O 411.893 -1.77846 0.46007 0
M  V30 4472 C 411.955 -0.311135 3.58151 0
M  V30 4473 C 411.619 0.878092 4.48485 0
M  V30 4474 C 412.616 1.77464 4.88674 0
M  V30 4475 C 410.301 1.08315 4.90483 0
M  V30 4476 C 412.295 2.86021 5.69623 0
M  V30 4477 C 409.982 2.17187 5.71203 0
M  V30 4478 C 410.98 3.05873 6.10681 0
M  V30 4479 O 410.668 4.12862 6.89783 0
M  V30 4480 H 410.4 0.0272658 0.67545 0
M  V30 4481 H 412.954 0.726156 1.92136 0
M  V30 4482 H 411.184 -1.10079 3.70701 0
M  V30 4483 H 412.873 -0.785125 3.98234 0
M  V30 4484 H 413.639 1.62813 4.56855 0
M  V30 4485 H 409.518 0.402149 4.59243 0
M  V30 4486 H 413.062 3.55272 6.00356 0
M  V30 4487 H 408.959 2.31824 6.02435 0
M  V30 4488 H 409.727 4.10487 7.08126 0
M  V30 4489 N 412.39 -1.55475 0.257931 0
M  V30 4490 C 413.34 -2.18506 -0.651094 0
M  V30 4491 C 414.324 -1.14431 -1.13112 0
M  V30 4492 O 415.516 -1.40305 -1.07905 0
M  V30 4493 C 412.645 -2.89653 -1.84272 0
M  V30 4494 C 411.731 -4.00996 -1.38068 0
M  V30 4495 N 412.122 -5.01816 -0.633609 0
M  V30 4496 C 410.42 -4.13753 -1.66506 0
M  V30 4497 C 411.121 -5.80371 -0.392922 0
M  V30 4498 N 410.097 -5.3505 -0.960359 0
M  V30 4499 H 413.899 -2.93811 -0.0722883 0
M  V30 4500 H 411.413 -1.62286 0.0607256 0
M  V30 4501 H 413.41 -3.33245 -2.50506 0
M  V30 4502 H 412.07 -2.15854 -2.42564 0
M  V30 4503 H 413.081 -5.17128 -0.282626 0
M  V30 4504 H 409.758 -3.51133 -2.25858 0
M  V30 4505 H 411.148 -6.7159 0.204235 0
M  V30 4506 N 413.868 0.0150385 -1.57593 0
M  V30 4507 C 415.145 0.7392 -1.81094 0
M  V30 4508 C 415.525 1.92817 -0.859344 0
M  V30 4509 O 414.873 2.28301 0.095362 0
M  V30 4510 C 415.083 1.15907 -3.29191 0
M  V30 4511 C 416.431 1.56918 -3.9454 0
M  V30 4512 O 417.455 1.25328 -3.33424 0
M  V30 4513 O 416.314 2.15604 -5.02173 0
M  V30 4514 H 413.408 0.358631 -0.745193 0
M  V30 4515 H 415.954 -0.00926156 -1.69697 0
M  V30 4516 H 414.726 0.310921 -3.90063 0
M  V30 4517 H 414.349 1.96711 -3.45529 0
M  V30 4518 N 415.346 1.54954 0.287554 0
M  V30 4519 C 416.276 1.89839 1.35954 0
M  V30 4520 C 417.257 0.758675 1.52244 0
M  V30 4521 O 418.442 1.01557 1.65529 0
M  V30 4522 C 415.572 2.15753 2.72154 0
M  V30 4523 C 414.526 3.3159 2.70614 0
M  V30 4524 C 413.852 3.42952 4.10229 0
M  V30 4525 C 415.152 4.68359 2.31165 0
M  V30 4526 H 416.846 2.79625 1.07007 0
M  V30 4527 H 414.392 1.3454 0.513316 0
M  V30 4528 H 416.345 2.38743 3.47246 0
M  V30 4529 H 415.069 1.22752 3.02654 0
M  V30 4530 H 413.728 3.08545 1.97979 0
M  V30 4531 H 413.376 2.47443 4.37928 0
M  V30 4532 H 413.076 4.20826 4.10097 0
M  V30 4533 H 414.6 3.68218 4.87081 0
M  V30 4534 H 416.014 4.9099 2.95976 0
M  V30 4535 H 414.411 5.49044 2.42221 0
M  V30 4536 H 415.481 4.68165 1.26291 0
M  V30 4537 N 416.824 -0.551391 1.4764 0
M  V30 4538 C 418.072 -1.30572 1.54258 0
M  V30 4539 C 418.393 -1.93877 0.208963 0
M  V30 4540 O 417.663 -1.80234 -0.767619 0
M  V30 4541 H 416.243 -0.484894 0.568231 0
M  V30 4542 H 418.905 -0.643402 1.83974 0
M  V30 4543 H 418.001 -2.09621 2.31226 0
M  V30 4544 N 418.302 -1.35869 -0.798587 0
M  V30 4545 C 419.232 -1.32118 -1.92528 0
M  V30 4546 C 420.213 -0.194209 -1.68988 0
M  V30 4547 O 421.398 -0.390426 -1.90235 0
M  V30 4548 C 418.528 -1.10047 -3.29404 0
M  V30 4549 C 417.482 -2.19471 -3.67446 0
M  V30 4550 C 416.808 -1.82555 -5.02571 0
M  V30 4551 C 418.108 -3.61495 -3.76987 0
M  V30 4552 H 419.802 -2.26394 -1.95924 0
M  V30 4553 H 417.348 -1.08981 -0.94123 0
M  V30 4554 H 419.301 -1.06061 -4.07835 0
M  V30 4555 H 418.025 -0.122195 -3.26371 0
M  V30 4556 H 416.684 -2.22568 -2.91306 0
M  V30 4557 H 416.332 -0.833249 -4.9605 0
M  V30 4558 H 416.032 -2.5581 -5.28995 0
M  V30 4559 H 417.556 -1.80108 -5.83432 0
M  V30 4560 H 418.97 -3.60676 -4.4563 0
M  V30 4561 H 417.367 -4.33577 -4.14887 0
M  V30 4562 H 418.437 -3.97065 -2.78329 0
M  V30 4563 N 419.78 1.02168 -1.19998 0
M  V30 4564 C 421.026 1.75945 -1.00852 0
M  V30 4565 C 421.359 1.88702 0.458828 0
M  V30 4566 O 420.634 1.40911 1.34069 0
M  V30 4567 C 420.917 3.18154 -1.68671 0
M  V30 4568 C 420.77 3.13224 -3.22817 0
M  V30 4569 C 422.089 4.16711 -1.41561 0
M  V30 4570 H 419.208 0.638673 -0.367785 0
M  V30 4571 H 421.85 1.19222 -1.4794 0
M  V30 4572 H 420 3.66586 -1.28636 0
M  V30 4573 H 421.672 2.72635 -3.72112 0
M  V30 4574 H 419.915 2.50751 -3.53986 0
M  V30 4575 H 420.586 4.13728 -3.65422 0
M  V30 4576 H 423.062 3.76913 -1.76284 0
M  V30 4577 H 421.938 5.14391 -1.91553 0
M  V30 4578 H 422.199 4.40774 -0.342193 0
M  V30 4579 N 421.258 1.00505 1.21394 0
M  V30 4580 C 422.674 0.717873 1.42544 0
M  V30 4581 C 422.874 -0.706936 1.88692 0
M  V30 4582 O 421.93 -1.47627 2.04847 0
M  V30 4583 C 423.243 1.73377 2.45684 0
M  V30 4584 C 424.791 1.75059 2.59467 0
M  V30 4585 C 425.266 2.75545 3.6584 0
M  V30 4586 N 426.757 2.74213 3.73311 0
M  V30 4587 C 427.492 3.48626 4.55245 0
M  V30 4588 N 426.988 4.32678 5.41075 0
M  V30 4589 N 428.781 3.37276 4.49668 0
M  V30 4590 H 420.932 1.92506 0.897503 0
M  V30 4591 H 423.195 0.830919 0.456375 0
M  V30 4592 H 422.901 2.75395 2.18748 0
M  V30 4593 H 422.775 1.53647 3.44489 0
M  V30 4594 H 425.162 0.737337 2.8574 0
M  V30 4595 H 425.243 1.98861 1.60897 0
M  V30 4596 H 424.887 3.77028 3.40313 0
M  V30 4597 H 424.817 2.49009 4.64007 0
M  V30 4598 H 427.308 2.13234 3.11993 0
M  V30 4599 H 427.621 4.86253 6.00648 0
M  V30 4600 H 425.966 4.3676 5.40616 0
M  V30 4601 H 429.157 2.71043 3.81646 0
M  V30 4602 H 429.33 3.95524 5.13288 0
M  V30 4603 N 422.737 -1.36956 0.779787 0
M  V30 4604 C 424.014 -1.93697 0.272156 0
M  V30 4605 C 424.394 -1.71267 -1.23413 0
M  V30 4606 O 423.742 -1.06607 -2.02107 0
M  V30 4607 C 423.952 -3.42812 0.654291 0
M  V30 4608 C 425.3 -4.19921 0.628602 0
M  V30 4609 O 426.324 -3.51209 0.594172 0
M  V30 4610 O 425.183 -5.42465 0.662864 0
M  V30 4611 H 422.277 -0.824447 0.0649286 0
M  V30 4612 H 424.823 -1.46196 0.861682 0
M  V30 4613 H 423.595 -3.52754 1.69353 0
M  V30 4614 H 423.218 -3.97582 0.0381369 0
M  V30 4615 N 424.215 -0.530993 -1.48385 0
M  V30 4616 C 425.462 0.0027373 -2.025 0
M  V30 4617 C 425.79 1.34186 -1.40799 0
M  V30 4618 O 425.045 1.88 -0.543544 0
M  V30 4619 C 425.344 0.172742 -3.56982 0
M  V30 4620 C 425.01 -1.09215 -4.37473 0
M  V30 4621 C 423.672 -1.43881 -4.59186 0
M  V30 4622 C 426.024 -1.93153 -4.84088 0
M  V30 4623 C 423.352 -2.62381 -5.2476 0
M  V30 4624 C 425.704 -3.10833 -5.50968 0
M  V30 4625 C 424.368 -3.45843 -5.70919 0
M  V30 4626 H 423.638 0.00100165 -0.740999 0
M  V30 4627 H 426.285 -0.697219 -1.78357 0
M  V30 4628 H 424.59 0.955473 -3.79971 0
M  V30 4629 H 426.287 0.600642 -3.96476 0
M  V30 4630 H 422.877 -0.812177 -4.20834 0
M  V30 4631 H 427.061 -1.67683 -4.67115 0
M  V30 4632 H 422.317 -2.89707 -5.38405 0
M  V30 4633 H 426.491 -3.7618 -5.86056 0
M  V30 4634 H 424.118 -4.37764 -6.21503 0
M  V30 4635 N 425.693 1.55336 -0.266172 0
M  V30 4636 C 426.918 2.04258 0.359661 0
M  V30 4637 C 427.343 1.14359 1.49344 0
M  V30 4638 O 426.701 0.140369 1.80756 0
M  V30 4639 C 426.749 3.50997 0.826635 0
M  V30 4640 O 425.853 3.64204 1.93466 0
M  V30 4641 H 425.194 0.659668 0.075727 0
M  V30 4642 H 427.724 2.00694 -0.39786 0
M  V30 4643 H 427.734 3.9219 1.12477 0
M  V30 4644 H 426.409 4.159 -0.00293032 0
M  V30 4645 H 424.986 3.34913 1.63974 0
M  V30 4646 N 427.171 -0.0066808 1.57599 0
M  V30 4647 C 428.42 -0.692078 1.89455 0
M  V30 4648 C 428.733 -1.75306 0.867586 0
M  V30 4649 O 429.939 -2.49262 1.07614 0
M  V30 4650 C 428.395 -1.2821 3.36289 0
M  V30 4651 C 428.003 -0.256291 4.47266 0
M  V30 4652 C 429.747 -1.94608 3.77264 0
M  V30 4653 C 427.654 -0.855927 5.85173 0
M  V30 4654 H 426.584 -0.262252 0.706923 0
M  V30 4655 H 429.235 0.052769 1.83424 0
M  V30 4656 H 427.617 -2.0774 3.37135 0
M  V30 4657 H 428.791 0.513923 4.57925 0
M  V30 4658 H 427.106 0.306862 4.15268 0
M  V30 4659 H 429.703 -2.40364 4.77629 0
M  V30 4660 H 430.046 -2.77382 3.10427 0
M  V30 4661 H 430.579 -1.21822 3.78688 0
M  V30 4662 H 427.318 -0.0671161 6.55466 0
M  V30 4663 H 426.838 -1.59546 5.78191 0
M  V30 4664 H 428.517 -1.35658 6.32618 0
M  V30 4665 N 428.649 -1.55105 -0.279332 0
M  V30 4666 C 429.597 -1.88333 -1.36505 0
M  V30 4667 C 430.591 -0.759043 -1.51443 0
M  V30 4668 O 431.797 -0.943312 -1.53302 0
M  V30 4669 H 428.172 -0.59766 -0.456406 0
M  V30 4670 H 430.143 -2.79041 -1.05728 0
M  V30 4671 C 428.892 -2.16628 -2.7197 0
M  V30 4672 H 428.215 -3.02624 -2.61264 0
M  V30 4673 H 429.655 -2.43803 -3.46895 0
M  V30 4674 C 428.114 -0.971807 -3.22579 0
M  V30 4675 O 428.644 -0.203228 -4.01186 0
M  V30 4676 N 426.85 -0.771238 -2.80179 0
M  V30 4677 H 426.397 -1.39792 -2.1637 0
M  V30 4678 H 426.355 0.0263667 -3.14389 0
M  V30 4679 N 430.127 0.543554 -1.4793 0
M  V30 4680 C 431.538 1.12561 -1.48953 0
M  V30 4681 C 431.889 1.94578 -0.251754 0
M  V30 4682 O 431.014 2.0665 0.642255 0
M  V30 4683 C 431.609 2.04801 -2.69892 0
M  V30 4684 C 430.168 2.58251 -2.73831 0
M  V30 4685 C 429.315 1.34918 -2.42265 0
M  V30 4686 H 432.266 0.32947 -1.55242 0
M  V30 4687 H 432.287 2.88886 -2.47639 0
M  V30 4688 H 431.799 1.4508 -3.59963 0
M  V30 4689 H 429.9 3.21732 -1.87934 0
M  V30 4690 H 430.013 2.98312 -3.74895 0
M  V30 4691 H 428.377 1.66046 -1.93134 0
M  V30 4692 H 429.16 0.769693 -3.3456 0
M  V30 4693 N 431.605 1.3629 0.791371 0
M  V30 4694 C 432.851 1.30605 1.55146 0
M  V30 4695 C 433.184 -0.115042 1.93859 0
M  V30 4696 O 432.459 -1.06798 1.62556 0
M  V30 4697 C 432.742 2.22692 2.82985 0
M  V30 4698 C 432.595 3.73489 2.50651 0
M  V30 4699 C 433.914 2.13588 3.84796 0
M  V30 4700 H 431.033 0.475761 0.562868 0
M  V30 4701 H 433.675 1.66825 0.909358 0
M  V30 4702 H 431.825 1.91933 3.37778 0
M  V30 4703 H 433.497 4.14758 2.01924 0
M  V30 4704 H 431.74 3.93021 1.83622 0
M  V30 4705 H 432.411 4.3333 3.41949 0
M  V30 4706 H 434.887 2.40659 3.39445 0
M  V30 4707 H 433.763 2.80195 4.71998 0
M  V30 4708 H 434.024 1.12256 4.27611 0
M  V30 4709 N 433.083 -1.0153 1.20538 0
M  V30 4710 C 434.311 -1.78746 1.04199 0
M  V30 4711 C 434.726 -1.84323 -0.408733 0
M  V30 4712 O 434.083 -1.29714 -1.28377 0
M  V30 4713 C 434.134 -3.23152 1.62035 0
M  V30 4714 O 433.855 -3.17918 3.0143 0
M  V30 4715 C 435.356 -4.16911 1.50666 0
M  V30 4716 H 432.576 -0.56208 0.366479 0
M  V30 4717 H 435.12 -1.27794 1.59653 0
M  V30 4718 H 433.275 -3.71248 1.10697 0
M  V30 4719 H 433.689 -4.08567 3.28897 0
M  V30 4720 H 435.163 -5.16072 1.95892 0
M  V30 4721 H 435.64 -4.36791 0.459363 0
M  V30 4722 H 436.246 -3.74698 2.01201 0
M  V30 4723 N 434.561 -1.01147 -1.20859 0
M  V30 4724 C 435.491 -0.597663 -2.25722 0
M  V30 4725 C 436.472 0.384744 -1.65692 0
M  V30 4726 O 437.657 0.271303 -1.92296 0
M  V30 4727 C 434.787 0.0700149 -3.47229 0
M  V30 4728 C 433.741 -0.832843 -4.19819 0
M  V30 4729 C 433.067 -0.0312202 -5.34691 0
M  V30 4730 C 434.367 -2.1385 -4.76514 0
M  V30 4731 H 436.061 -1.47423 -2.60589 0
M  V30 4732 H 433.607 -0.710301 -1.25263 0
M  V30 4733 H 435.56 0.37103 -4.19763 0
M  V30 4734 H 434.284 0.981259 -3.11511 0
M  V30 4735 H 432.943 -1.11778 -3.49144 0
M  V30 4736 H 432.591 0.881515 -4.95215 0
M  V30 4737 H 432.291 -0.632434 -5.84187 0
M  V30 4738 H 433.815 0.26346 -6.10031 0
M  V30 4739 H 435.229 -1.9002 -5.40893 0
M  V30 4740 H 433.626 -2.69012 -5.36426 0
M  V30 4741 H 434.696 -2.80495 -3.95538 0
M  V30 4742 N 436.039 1.36541 -0.78704 0
M  V30 4743 C 437.455 1.52571 -0.46844 0
M  V30 4744 C 437.655 1.7415 1.01361 0
M  V30 4745 O 436.711 1.77163 1.79915 0
M  V30 4746 C 438.024 2.71299 -1.29682 0
M  V30 4747 C 439.572 2.85169 -1.29027 0
M  V30 4748 C 440.047 4.06898 -2.10233 0
M  V30 4749 N 441.538 4.1404 -2.07666 0
M  V30 4750 C 442.273 5.07301 -2.67271 0
M  V30 4751 N 441.769 6.06021 -3.35724 0
M  V30 4752 N 443.562 4.99898 -2.57018 0
M  V30 4753 H 435.713 1.20788 -1.74711 0
M  V30 4754 H 437.976 0.589364 -0.742532 0
M  V30 4755 H 437.682 2.61868 -2.34773 0
M  V30 4756 H 437.556 3.6539 -0.936479 0
M  V30 4757 H 439.943 2.94062 -0.247284 0
M  V30 4758 H 440.024 1.91992 -1.69035 0
M  V30 4759 H 439.668 3.98766 -3.1456 0
M  V30 4760 H 439.598 4.99218 -1.67597 0
M  V30 4761 H 442.089 3.43357 -1.57843 0
M  V30 4762 H 442.402 6.73741 -3.78541 0
M  V30 4763 H 440.747 6.06253 -3.39826 0
M  V30 4764 H 443.938 4.21724 -2.03142 0
M  V30 4765 H 444.111 5.72392 -3.03761 0
M  V30 4766 N 437.518 0.538854 1.48102 0
M  V30 4767 C 438.934 0.19732 1.58376 0
M  V30 4768 C 439.134 -1.29971 1.5398 0
M  V30 4769 O 438.19 -2.07861 1.43352 0
M  V30 4770 C 439.503 0.807716 2.89649 0
M  V30 4771 C 441.051 0.77726 3.03196 0
M  V30 4772 C 441.526 1.36639 4.37143 0
M  V30 4773 N 443.017 1.32875 4.43732 0
M  V30 4774 C 443.752 1.7544 5.45901 0
M  V30 4775 N 443.248 2.25776 6.54979 0
M  V30 4776 N 445.041 1.66623 5.36836 0
M  V30 4777 H 437.192 1.5117 1.49202 0
M  V30 4778 H 439.455 0.629327 0.708979 0
M  V30 4779 H 439.161 1.85909 2.98548 0
M  V30 4780 H 439.035 0.289975 3.76084 0
M  V30 4781 H 441.422 -0.265374 2.93904 0
M  V30 4782 H 441.503 1.33256 2.18349 0
M  V30 4783 H 441.147 2.408 4.47189 0
M  V30 4784 H 441.077 0.786689 5.20691 0
M  V30 4785 H 443.568 0.96037 3.65493 0
M  V30 4786 H 443.881 2.56226 7.29087 0
M  V30 4787 H 442.226 2.29775 6.55918 0
M  V30 4788 H 445.417 1.27089 4.50517 0
M  V30 4789 H 445.59 2.00115 6.16326 0
M  V30 4790 N 438.996 -1.55193 0.274407 0
M  V30 4791 C 440.242 -2.00604 -0.33608 0
M  V30 4792 C 440.597 -1.15948 -1.53538 0
M  V30 4793 O 439.89 -0.221385 -1.90317 0
M  V30 4794 C 440.084 -3.49019 -0.769458 0
M  V30 4795 C 439.913 -4.48038 0.386301 0
M  V30 4796 C 438.683 -4.97757 0.869854 0
M  V30 4797 C 440.881 -4.99558 1.22254 0
M  V30 4798 N 438.863 -5.80575 1.99515 0
M  V30 4799 C 440.234 -5.79816 2.19575 0
M  V30 4800 C 442.289 -4.81799 1.25597 0
M  V30 4801 C 440.992 -6.44208 3.19981 0
M  V30 4802 C 443.018 -5.46989 2.24848 0
M  V30 4803 C 442.38 -6.27058 3.20901 0
M  V30 4804 H 438.479 -0.777013 -0.088172 0
M  V30 4805 H 441.063 -1.90583 0.398266 0
M  V30 4806 H 439.234 -3.59383 -1.47303 0
M  V30 4807 H 440.966 -3.81263 -1.35722 0
M  V30 4808 H 437.721 -4.71464 0.449281 0
M  V30 4809 H 438.145 -6.26675 2.5614 0
M  V30 4810 H 442.787 -4.19501 0.527158 0
M  V30 4811 H 440.505 -7.05656 3.93796 0
M  V30 4812 H 444.091 -5.35189 2.28174 0
M  V30 4813 H 442.971 -6.7661 3.96445 0
M  V30 4814 N 440.474 -0.00167713 -1.576 0
M  V30 4815 C 441.404 0.988091 -2.11563 0
M  V30 4816 C 442.385 1.35736 -1.02517 0
M  V30 4817 O 443.57 1.44082 -1.30208 0
M  V30 4818 C 440.7 2.27941 -2.62031 0
M  V30 4819 C 439.654 2.0517 -3.75619 0
M  V30 4820 C 438.98 3.4033 -4.12407 0
M  V30 4821 C 440.28 1.41294 -5.02825 0
M  V30 4822 H 441.974 0.538771 -2.94513 0
M  V30 4823 H 439.52 0.257712 -1.41675 0
M  V30 4824 H 441.473 2.97539 -2.9841 0
M  V30 4825 H 440.197 2.74989 -1.76205 0
M  V30 4826 H 438.856 1.37998 -3.39635 0
M  V30 4827 H 438.504 3.85085 -3.23603 0
M  V30 4828 H 438.204 3.25909 -4.88935 0
M  V30 4829 H 439.728 4.1124 -4.51347 0
M  V30 4830 H 441.142 2.00851 -5.36965 0
M  V30 4831 H 439.539 1.37356 -5.84169 0
M  V30 4832 H 440.609 0.382362 -4.8339 0
M  V30 4833 N 441.952 1.55251 0.271103 0
M  V30 4834 C 443.199 1.75946 1.00245 0
M  V30 4835 C 443.527 0.561611 1.86215 0
M  V30 4836 O 442.782 -0.455832 1.90317 0
M  V30 4837 C 443.081 3.01879 1.91321 0
M  V30 4838 C 442.747 4.34337 1.21086 0
M  V30 4839 C 441.409 4.70338 1.01666 0
M  V30 4840 C 443.761 5.16325 0.71119 0
M  V30 4841 C 441.089 5.8588 0.310099 0
M  V30 4842 C 443.441 6.32597 0.0182157 0
M  V30 4843 C 442.105 6.67236 -0.18768 0
M  V30 4844 H 441.375 0.643833 0.366824 0
M  V30 4845 H 444.022 1.89521 0.27458 0
M  V30 4846 H 442.327 2.83212 2.70736 0
M  V30 4847 H 444.024 3.15088 2.48033 0
M  V30 4848 H 440.614 4.06043 1.37213 0
M  V30 4849 H 444.798 4.88987 0.848844 0
M  V30 4850 H 440.054 6.1124 0.139873 0
M  V30 4851 H 444.228 6.9538 -0.376711 0
M  V30 4852 H 441.855 7.56618 -0.73715 0
M  V30 4853 N 443.43 -0.535701 1.48216 0
M  V30 4854 C 444.67 -1.30238 1.57536 0
M  V30 4855 C 445.034 -1.90479 0.241229 0
M  V30 4856 O 446.235 -2.67983 0.20938 0
M  V30 4857 C 444.506 -2.3669 2.67792 0
M  V30 4858 S 446.065 -3.23159 2.9684 0
M  V30 4859 H 442.883 -0.443093 0.556048 0
M  V30 4860 H 445.485 -0.610937 1.85709 0
M  V30 4861 H 444.189 -1.90905 3.63296 0
M  V30 4862 H 443.72 -3.10548 2.41502 0
M  V30 4863 H 445.735 -4.36647 2.35699 0
M  V30 4864 N 444.908 -1.36708 -0.784132 0
M  V30 4865 C 446.154 -1.31426 -1.54451 0
M  V30 4866 C 446.487 0.10476 -1.93917 0
M  V30 4867 O 445.762 1.05934 -1.6312 0
M  V30 4868 C 446.045 -2.24189 -2.818 0
M  V30 4869 C 445.898 -3.74813 -2.48667 0
M  V30 4870 C 447.217 -2.15626 -3.83658 0
M  V30 4871 H 444.336 -0.478739 -0.560337 0
M  V30 4872 H 446.978 -1.67305 -0.900498 0
M  V30 4873 H 445.128 -1.93722 -3.36755 0
M  V30 4874 H 446.8 -4.15823 -1.99722 0
M  V30 4875 H 445.043 -3.93989 -1.81535 0
M  V30 4876 H 445.714 -4.35138 -3.39646 0
M  V30 4877 H 448.19 -2.42456 -3.38163 0
M  V30 4878 H 447.066 -2.82694 -4.70506 0
M  V30 4879 H 447.327 -1.14522 -4.27009 0
M  V30 4880 N 446.386 1.0089 -1.21074 0
M  V30 4881 C 447.336 2.0799 -0.934034 0
M  V30 4882 C 448.32 1.60529 0.10919 0
M  V30 4883 O 449.512 1.76722 -0.0992198 0
M  V30 4884 C 446.641 3.39693 -0.496334 0
M  V30 4885 C 445.727 3.93833 -1.57341 0
M  V30 4886 N 446.118 4.21388 -2.7976 0
M  V30 4887 C 444.416 4.22067 -1.44137 0
M  V30 4888 C 445.117 4.65156 -3.49292 0
M  V30 4889 N 444.093 4.67895 -2.76722 0
M  V30 4890 H 447.895 2.27213 -1.86417 0
M  V30 4891 H 445.409 1.18927 -1.10589 0
M  V30 4892 H 447.406 4.15962 -0.279471 0
M  V30 4893 H 446.066 3.21879 0.427084 0
M  V30 4894 H 447.077 4.10061 -3.1634 0
M  V30 4895 H 443.754 4.1341 -0.582947 0
M  V30 4896 H 445.144 4.95231 -4.54088 0
M  V30 4897 N 447.864 1.01787 1.20321 0
M  V30 4898 C 449.141 0.622978 1.85414 0
M  V30 4899 C 449.521 -0.898887 1.91006 0
M  V30 4900 O 448.869 -1.79112 1.41884 0
M  V30 4901 C 449.079 1.27226 3.24984 0
M  V30 4902 C 450.427 1.3885 4.01255 0
M  V30 4903 O 451.451 1.22857 3.34342 0
M  V30 4904 O 450.31 1.64705 5.2109 0
M  V30 4905 H 447.404 0.215116 0.798533 0
M  V30 4906 H 449.95 1.11533 1.27901 0
M  V30 4907 H 448.722 2.31209 3.15687 0
M  V30 4908 H 448.345 0.767069 3.90131 0
M  V30 4909 N 449.342 -1.36122 0.79427 0
M  V30 4910 C 450.29 -2.31871 0.184023 0
M  V30 4911 C 451.284 -1.56041 -0.659365 0
M  V30 4912 O 452.49 -1.71266 -0.553906 0
M  V30 4913 H 448.865 -0.750896 0.0407373 0
M  V30 4914 H 450.836 -2.80898 1.00693 0
M  V30 4915 C 449.585 -3.41324 -0.662813 0
M  V30 4916 H 448.908 -3.99793 -0.0231944 0
M  V30 4917 H 450.348 -4.10629 -1.05639 0
M  V30 4918 C 448.807 -2.83308 -1.82313 0
M  V30 4919 O 449.337 -2.75863 -2.91997 0
M  V30 4920 N 447.543 -2.40529 -1.63077 0
M  V30 4921 H 447.09 -2.46785 -0.738591 0
M  V30 4922 H 447.048 -2.02059 -2.40872 0
M  V30 4923 N 450.82 -0.546701 -1.47814 0
M  V30 4924 C 452.05 -0.0232519 -2.06587 0
M  V30 4925 C 452.458 1.2712 -1.40133 0
M  V30 4926 O 451.801 1.77091 -0.488305 0
M  V30 4927 C 451.863 0.254117 -3.58601 0
M  V30 4928 C 451.527 -0.949331 -4.47031 0
M  V30 4929 C 452.524 -1.85216 -4.85789 0
M  V30 4930 C 450.209 -1.16104 -4.88697 0
M  V30 4931 C 452.203 -2.95047 -5.65001 0
M  V30 4932 C 449.89 -2.26247 -5.67676 0
M  V30 4933 C 450.888 -3.1555 -6.05737 0
M  V30 4934 O 450.576 -4.23784 -6.83127 0
M  V30 4935 H 450.308 -0.0380082 -0.674931 0
M  V30 4936 H 452.862 -0.756631 -1.90956 0
M  V30 4937 H 451.092 1.04168 -3.72406 0
M  V30 4938 H 452.781 0.72167 -3.99433 0
M  V30 4939 H 453.547 -1.70061 -4.54207 0
M  V30 4940 H 449.426 -0.475159 -4.58545 0
M  V30 4941 H 452.97 -3.64778 -5.94628 0
M  V30 4942 H 448.867 -2.41379 -5.98671 0
M  V30 4943 H 449.635 -4.21701 -7.01506 0
M  V30 4944 N 452.299 1.55045 -0.282633 0
M  V30 4945 C 453.715 1.59441 0.0712997 0
M  V30 4946 C 453.915 1.2998 1.53972 0
M  V30 4947 O 452.971 1.06431 2.28973 0
M  V30 4948 C 454.284 2.99097 -0.310104 0
M  V30 4949 C 455.832 3.1194 -0.257343 0
M  V30 4950 C 456.307 4.53875 -0.613297 0
M  V30 4951 N 457.798 4.5974 -0.565134 0
M  V30 4952 C 458.533 5.67603 -0.81326 0
M  V30 4953 N 458.029 6.83582 -1.1264 0
M  V30 4954 N 459.822 5.57187 -0.741553 0
M  V30 4955 H 451.973 1.72458 -1.23984 0
M  V30 4956 H 454.236 0.804549 -0.501403 0
M  V30 4957 H 453.942 3.25516 -1.33163 0
M  V30 4958 H 453.816 3.75616 0.345366 0
M  V30 4959 H 456.203 2.85281 0.754905 0
M  V30 4960 H 456.284 2.37618 -0.947178 0
M  V30 4961 H 455.928 4.81261 -1.62327 0
M  V30 4962 H 455.858 5.26508 0.09841 0
M  V30 4963 H 458.349 3.76427 -0.333294 0
M  V30 4964 H 458.662 7.6175 -1.30219 0
M  V30 4965 H 457.007 6.85179 -1.16425 0
M  V30 4966 H 460.198 4.65457 -0.496705 0
M  V30 4967 H 460.371 6.41171 -0.938306 0
M  V30 4968 N 453.777 0.010035 1.57597 0
M  V30 4969 C 454.725 -0.996272 2.10184 0
M  V30 4970 C 455.719 -1.34942 1.02406 0
M  V30 4971 O 456.925 -1.33389 1.20861 0
M  V30 4972 H 453.3 -0.338982 0.671264 0
M  V30 4973 H 455.271 -0.527272 2.93705 0
M  V30 4974 C 454.02 -2.27599 2.62857 0
M  V30 4975 H 453.343 -2.01295 3.45428 0
M  V30 4976 H 454.783 -2.96265 3.0332 0
M  V30 4977 C 453.242 -2.99269 1.54725 0
M  V30 4978 O 453.772 -3.90644 0.93597 0
M  V30 4979 N 451.978 -2.61269 1.27228 0
M  V30 4980 H 451.525 -1.87043 1.77123 0
M  V30 4981 H 451.483 -3.09534 0.550999 0
M  V30 4982 N 455.255 -1.55392 -0.262866 0
M  V30 4983 C 456.203 -1.8977 -1.345 0
M  V30 4984 C 457.197 -0.775063 -1.50629 0
M  V30 4985 O 458.403 -0.959519 -1.52293 0
M  V30 4986 H 454.778 -0.602467 -0.450041 0
M  V30 4987 H 456.749 -2.80147 -1.02762 0
M  V30 4988 C 455.498 -2.19501 -2.69657 0
M  V30 4989 H 454.821 -3.05378 -2.5804 0
M  V30 4990 H 456.261 -2.47469 -3.44289 0
M  V30 4991 C 454.72 -1.00597 -3.21531 0
M  V30 4992 O 455.25 -0.245768 -4.00947 0
M  V30 4993 N 453.456 -0.800911 -2.79345 0
M  V30 4994 H 453.003 -1.42079 -2.14875 0
M  V30 4995 H 452.961 -0.00697996 -3.14399 0
M  V30 4996 N 456.733 0.527833 -1.48498 0
M  V30 4997 C 458.144 1.10975 -1.50138 0
M  V30 4998 C 458.495 1.943 -0.272378 0
M  V30 4999 O 457.62 2.07319 0.620301 0
M  V30 5000 C 458.215 2.01927 -2.72049 0
M  V30 5001 C 456.774 2.55332 -2.76554 0
M  V30 5002 C 455.921 1.32341 -2.43683 0
M  V30 5003 H 458.872 0.312986 -1.55583 0
M  V30 5004 H 458.893 2.86244 -2.50689 0
M  V30 5005 H 458.405 1.41254 -3.61481 0
M  V30 5006 H 456.506 3.19721 -1.91336 0
M  V30 5007 H 456.619 2.94319 -3.78038 0
M  V30 5008 H 454.983 1.63989 -1.94884 0
M  V30 5009 H 455.766 0.734165 -3.35358 0
M  V30 5010 N 458.211 1.37122 0.776871 0
M  V30 5011 C 459.458 1.32047 1.53524 0
M  V30 5012 C 459.786 -0.0965631 1.9426 0
M  V30 5013 O 459.041 -1.06866 1.63945 0
M  V30 5014 C 459.34 2.20068 2.81611 0
M  V30 5015 C 459.006 3.68423 2.59953 0
M  V30 5016 C 457.668 4.08854 2.53755 0
M  V30 5017 C 460.02 4.62431 2.40431 0
M  V30 5018 C 457.348 5.41417 2.26018 0
M  V30 5019 C 459.7 5.95225 2.14219 0
M  V30 5020 C 458.364 6.34767 2.06462 0
M  V30 5021 H 457.634 0.483196 0.561785 0
M  V30 5022 H 460.281 1.69284 0.895268 0
M  V30 5023 H 458.586 1.75809 3.50141 0
M  V30 5024 H 460.283 2.13458 3.39465 0
M  V30 5025 H 456.873 3.36354 2.65638 0
M  V30 5026 H 461.057 4.32057 2.44213 0
M  V30 5027 H 456.313 5.71022 2.18504 0
M  V30 5028 H 460.487 6.67626 1.98112 0
M  V30 5029 H 458.114 7.37413 1.84733 0
M  V30 5030 N 459.689 -1.00246 1.21608 0
M  V30 5031 C 460.639 -2.07492 0.945051 0
M  V30 5032 C 461.623 -1.60585 -0.100675 0
M  V30 5033 O 462.815 -1.76667 0.10859 0
M  V30 5034 C 459.944 -3.39425 0.514342 0
M  V30 5035 C 459.03 -3.92993 1.59428 0
M  V30 5036 N 459.421 -4.19898 2.81991 0
M  V30 5037 C 457.719 -4.21297 1.46374 0
M  V30 5038 C 458.42 -4.63297 3.51754 0
M  V30 5039 N 457.396 -4.66421 2.79199 0
M  V30 5040 H 461.198 -2.26222 1.87619 0
M  V30 5041 H 458.712 -1.18339 1.11219 0
M  V30 5042 H 460.709 -4.15808 0.301527 0
M  V30 5043 H 459.369 -3.22101 -0.410008 0
M  V30 5044 H 460.38 -4.08377 3.1851 0
M  V30 5045 H 457.057 -4.13095 0.604863 0
M  V30 5046 H 458.447 -4.92816 4.56708 0
M  V30 5047 N 461.167 -1.02423 -1.1978 0
M  V30 5048 C 462.115 -0.594474 -2.24875 0
M  V30 5049 C 463.109 0.370598 -1.65296 0
M  V30 5050 O 464.315 0.239684 -1.78397 0
M  V30 5051 H 460.69 -0.173961 -0.731602 0
M  V30 5052 H 462.661 -1.4916 -2.58445 0
M  V30 5053 C 461.41 0.0436512 -3.47673 0
M  V30 5054 H 460.733 -0.689963 -3.93801 0
M  V30 5055 H 462.173 0.307362 -4.22884 0
M  V30 5056 C 460.632 1.28881 -3.11274 0
M  V30 5057 O 461.162 2.38135 -3.23503 0
M  V30 5058 N 459.368 1.1758 -2.6575 0
M  V30 5059 H 458.915 0.286769 -2.55999 0
M  V30 5060 H 458.873 2.00988 -2.41767 0
M  V30 5061 N 462.645 1.35699 -0.801477 0
M  V30 5062 C 463.892 1.98913 -0.379459 0
M  V30 5063 C 464.22 1.63592 1.05204 0
M  V30 5064 O 463.475 0.888563 1.74365 0
M  V30 5065 C 463.774 3.53828 -0.504041 0
M  V30 5066 C 463.44 4.09002 -1.8981 0
M  V30 5067 C 462.102 4.23783 -2.27951 0
M  V30 5068 C 464.454 4.38939 -2.81038 0
M  V30 5069 C 461.782 4.65816 -3.56696 0
M  V30 5070 C 464.134 4.82409 -4.09224 0
M  V30 5071 C 462.798 4.95395 -4.4737 0
M  V30 5072 H 462.068 0.727874 -0.138854 0
M  V30 5073 H 464.715 1.61994 -1.02128 0
M  V30 5074 H 463.02 3.91175 0.221242 0
M  V30 5075 H 464.717 4.00687 -0.158361 0
M  V30 5076 H 461.307 3.97946 -1.59176 0
M  V30 5077 H 465.491 4.27077 -2.52821 0
M  V30 5078 H 460.747 4.74059 -3.86106 0
M  V30 5079 H 464.921 5.04535 -4.80018 0
M  V30 5080 H 462.548 5.27724 -5.47185 0
M  V30 5081 N 464.123 0.554532 1.47522 0
M  V30 5082 C 465.539 0.214107 1.58157 0
M  V30 5083 C 465.739 -1.28331 1.55349 0
M  V30 5084 O 464.795 -2.06329 1.45549 0
M  V30 5085 C 466.108 0.838391 2.88776 0
M  V30 5086 C 467.656 0.809374 3.02354 0
M  V30 5087 C 468.131 1.41268 4.35669 0
M  V30 5088 N 469.622 1.37574 4.42298 0
M  V30 5089 C 470.357 1.8122 5.4401 0
M  V30 5090 N 469.853 2.3271 6.52547 0
M  V30 5091 N 471.646 1.72307 5.35039 0
M  V30 5092 H 463.797 1.52744 1.4759 0
M  V30 5093 H 466.06 0.636812 0.702264 0
M  V30 5094 H 465.766 1.89065 2.96559 0
M  V30 5095 H 465.64 0.329847 3.75755 0
M  V30 5096 H 468.027 -0.234187 2.94169 0
M  V30 5097 H 468.108 1.35565 2.16924 0
M  V30 5098 H 467.752 2.45529 4.4461 0
M  V30 5099 H 467.682 0.841871 5.19827 0
M  V30 5100 H 470.173 0.999081 3.64454 0
M  V30 5101 H 470.486 2.63944 7.26329 0
M  V30 5102 H 468.831 2.36719 6.53444 0
M  V30 5103 H 472.022 1.3186 4.49144 0
M  V30 5104 H 472.195 2.06641 6.14169 0
M  V30 5105 N 465.601 -1.54893 0.290851 0
M  V30 5106 C 466.551 -2.19838 -0.604599 0
M  V30 5107 C 467.535 -1.16805 -1.10659 0
M  V30 5108 O 468.727 -1.42562 -1.04905 0
M  V30 5109 C 465.856 -2.93497 -1.78086 0
M  V30 5110 C 464.942 -4.03835 -1.29531 0
M  V30 5111 N 465.333 -5.03047 -0.527024 0
M  V30 5112 C 463.631 -4.17192 -1.57693 0
M  V30 5113 C 464.332 -5.81074 -0.269728 0
M  V30 5114 N 463.308 -5.36966 -0.846651 0
M  V30 5115 H 467.11 -2.93898 -0.00995032 0
M  V30 5116 H 464.624 -1.62121 0.0951353 0
M  V30 5117 H 466.621 -3.38484 -2.43381 0
M  V30 5118 H 465.281 -2.2095 -2.37931 0
M  V30 5119 H 466.292 -5.17611 -0.172872 0
M  V30 5120 H 462.969 -3.55845 -2.18359 0
M  V30 5121 H 464.359 -6.71005 0.346643 0
M  V30 5122 N 467.08 -0.0183926 -1.57589 0
M  V30 5123 C 468.32 0.666846 -1.93216 0
M  V30 5124 C 468.684 1.69905 -0.894215 0
M  V30 5125 O 469.885 2.436 -1.13633 0
M  V30 5126 C 468.156 1.27684 -3.33814 0
M  V30 5127 S 469.715 1.98464 -3.91353 0
M  V30 5128 H 466.533 0.219826 -0.676164 0
M  V30 5129 H 469.135 -0.0794893 -1.95338 0
M  V30 5130 H 467.839 0.513006 -4.07181 0
M  V30 5131 H 467.37 2.06071 -3.3511 0
M  V30 5132 H 469.385 3.26189 -3.73918 0
M  V30 5133 N 468.558 1.5553 0.254621 0
M  V30 5134 C 469.805 1.77 0.983736 0
M  V30 5135 C 470.133 0.58133 1.85609 0
M  V30 5136 O 469.388 -0.435621 1.9079 0
M  V30 5137 C 469.687 3.03891 1.88109 0
M  V30 5138 C 469.353 4.35597 1.16472 0
M  V30 5139 C 468.015 4.7139 0.966714 0
M  V30 5140 C 470.367 5.1705 0.656387 0
M  V30 5141 C 467.695 5.86176 0.247942 0
M  V30 5142 C 470.047 6.32581 -0.0488807 0
M  V30 5143 C 468.711 6.67 -0.258438 0
M  V30 5144 H 467.981 0.647688 0.359974 0
M  V30 5145 H 470.628 1.89802 0.254463 0
M  V30 5146 H 468.933 2.86068 2.67717 0
M  V30 5147 H 470.63 3.17701 2.44677 0
M  V30 5148 H 467.22 4.07475 1.32899 0
M  V30 5149 H 471.404 4.8986 0.796933 0
M  V30 5150 H 466.66 6.11354 0.075035 0
M  V30 5151 H 470.834 6.94942 -0.450444 0
M  V30 5152 H 468.461 7.55793 -0.817358 0
M  V30 5153 N 470.036 -0.519951 1.48776 0
M  V30 5154 C 471.276 -1.2856 1.58908 0
M  V30 5155 C 471.64 -1.90212 0.261418 0
M  V30 5156 O 472.841 -2.67746 0.237791 0
M  V30 5157 C 471.112 -2.33836 2.70288 0
M  V30 5158 S 472.671 -3.19992 3.0025 0
M  V30 5159 H 469.489 -0.43717 0.560717 0
M  V30 5160 H 472.091 -0.591205 1.86346 0
M  V30 5161 H 470.795 -1.87041 3.653 0
M  V30 5162 H 470.326 -3.07969 2.44783 0
M  V30 5163 H 472.341 -4.34122 2.40317 0
M  V30 5164 N 471.514 -1.37532 -0.769588 0
M  V30 5165 C 472.76 -1.33057 -1.53048 0
M  V30 5166 C 473.093 0.0841865 -1.94017 0
M  V30 5167 O 472.368 1.04198 -1.64235 0
M  V30 5168 C 472.651 -2.27166 -2.79406 0
M  V30 5169 C 472.504 -3.77429 -2.44677 0
M  V30 5170 C 473.823 -2.19683 -3.81349 0
M  V30 5171 H 470.942 -0.484655 -0.555228 0
M  V30 5172 H 473.584 -1.68251 -0.882702 0
M  V30 5173 H 471.734 -1.97283 -3.34682 0
M  V30 5174 H 473.406 -4.17918 -1.953 0
M  V30 5175 H 471.649 -3.95892 -1.77346 0
M  V30 5176 H 472.32 -4.38716 -3.35011 0
M  V30 5177 H 474.796 -2.46029 -3.35573 0
M  V30 5178 H 473.672 -2.87668 -4.67481 0
M  V30 5179 H 473.933 -1.19045 -4.25771 0
M  V30 5180 N 472.992 0.995999 -1.22138 0
M  V30 5181 C 473.955 2.06711 -0.990109 0
M  V30 5182 C 474.955 1.60744 0.0422978 0
M  V30 5183 O 476.145 1.73095 -0.195895 0
M  V30 5184 C 473.277 3.37288 -0.49491 0
M  V30 5185 H 474.47 2.28661 -1.94047 0
M  V30 5186 H 472.023 1.16711 -1.03963 0
M  V30 5187 H 472.758 3.21022 0.459948 0
M  V30 5188 H 472.543 3.71986 -1.23971 0
M  V30 5189 H 474.033 4.16103 -0.353253 0
M  V30 5190 N 474.47 1.03057 1.19235 0
M  V30 5191 C 475.402 0.570932 2.21975 0
M  V30 5192 C 476.415 -0.354088 1.58903 0
M  V30 5193 O 477.604 -0.150211 1.77867 0
M  V30 5194 C 474.704 -0.187152 3.38383 0
M  V30 5195 C 473.877 0.743231 4.31039 0
M  V30 5196 C 472.936 0.0302493 5.26191 0
M  V30 5197 O 471.962 0.657371 5.65391 0
M  V30 5198 N 473.164 -1.23991 5.67104 0
M  V30 5199 H 475.929 1.45456 2.62036 0
M  V30 5200 H 473.49 0.909807 1.33918 0
M  V30 5201 H 475.482 -0.673715 3.99053 0
M  V30 5202 H 474.052 -0.972205 2.97098 0
M  V30 5203 H 473.272 1.40985 3.68126 0
M  V30 5204 H 474.56 1.3755 4.89854 0
M  V30 5205 H 473.958 -1.77011 5.37293 0
M  V30 5206 H 472.515 -1.67093 6.30018 0
M  V30 5207 N 475.948 -1.35272 0.808662 0
M  V30 5208 C 476.881 -2.27595 0.165994 0
M  V30 5209 C 477.859 -1.48189 -0.669241 0
M  V30 5210 O 479.043 -1.77444 -0.636073 0
M  V30 5211 C 476.17 -3.29843 -0.769505 0
M  V30 5212 C 475.216 -4.26498 -0.0136267 0
M  V30 5213 S 476.049 -5.18878 1.32384 0
M  V30 5214 C 477.205 -6.24666 0.392838 0
M  V30 5215 H 477.438 -2.81755 0.948756 0
M  V30 5216 H 474.971 -1.42103 0.603828 0
M  V30 5217 H 476.929 -3.89247 -1.30374 0
M  V30 5218 H 475.59 -2.74558 -1.52567 0
M  V30 5219 H 474.783 -4.98769 -0.724227 0
M  V30 5220 H 474.385 -3.71274 0.450713 0
M  V30 5221 H 476.677 -6.7619 -0.4211 0
M  V30 5222 H 477.62 -6.99741 1.0848 0
M  V30 5223 H 478.028 -5.64499 -0.0123908 0
M  V30 5224 N 477.426 -0.562348 -1.47226 0
M  V30 5225 C 478.359 0.230405 -2.27034 0
M  V30 5226 C 479.337 0.915609 -1.3437 0
M  V30 5227 O 480.521 0.933573 -1.63758 0
M  V30 5228 C 477.648 1.32874 -3.11548 0
M  V30 5229 C 476.694 0.751552 -4.19826 0
M  V30 5230 S 477.527 -0.405848 -5.3396 0
M  V30 5231 C 478.683 0.694186 -6.22038 0
M  V30 5232 H 478.916 -0.446811 -2.93923 0
M  V30 5233 H 476.449 -0.348781 -1.50409 0
M  V30 5234 H 478.407 1.95773 -3.60809 0
M  V30 5235 H 477.068 1.97782 -2.44011 0
M  V30 5236 H 476.261 1.57651 -4.78709 0
M  V30 5237 H 475.863 0.198645 -3.73472 0
M  V30 5238 H 478.155 1.58501 -6.58698 0
M  V30 5239 H 479.098 0.142592 -7.07956 0
M  V30 5240 H 479.506 0.989169 -5.55766 0
M  V30 5241 N 478.904 1.54736 -0.299062 0
M  V30 5242 C 480.134 2.04215 0.312992 0
M  V30 5243 C 480.542 1.17596 1.48215 0
M  V30 5244 O 479.885 0.193835 1.82674 0
M  V30 5245 C 479.947 3.49696 0.833862 0
M  V30 5246 C 479.611 4.56518 -0.20977 0
M  V30 5247 C 480.608 5.09442 -1.03756 0
M  V30 5248 C 478.293 5.01073 -0.35091 0
M  V30 5249 C 480.287 6.05459 -1.99244 0
M  V30 5250 C 477.974 5.9691 -1.30924 0
M  V30 5251 C 478.972 6.48987 -2.1285 0
M  V30 5252 O 478.66 7.42947 -3.07059 0
M  V30 5253 H 478.392 0.672128 0.0722494 0
M  V30 5254 H 480.946 2.00718 -0.436043 0
M  V30 5255 H 479.176 3.5051 1.63339 0
M  V30 5256 H 480.865 3.82381 1.36159 0
M  V30 5257 H 481.631 4.75816 -0.939376 0
M  V30 5258 H 477.51 4.60168 0.276813 0
M  V30 5259 H 481.054 6.46031 -2.63229 0
M  V30 5260 H 476.951 6.29953 -1.40815 0
M  V30 5261 H 477.719 7.60743 -3.02015 0
M  V30 5262 N 480.382 0.0267497 1.57577 0
M  V30 5263 C 481.607 -0.666227 1.96408 0
M  V30 5264 C 482.032 -1.65004 0.903071 0
M  V30 5265 O 481.39 -1.80787 -0.136263 0
M  V30 5266 C 481.438 -1.35101 3.34335 0
M  V30 5267 O 480.542 -2.46623 3.30531 0
M  V30 5268 H 479.883 -0.175206 0.640468 0
M  V30 5269 H 482.413 0.0878977 2.04411 0
M  V30 5270 H 482.423 -1.70834 3.70513 0
M  V30 5271 H 481.098 -0.629844 4.11103 0
M  V30 5272 H 479.675 -2.13019 3.06068 0
M  V30 5273 N 481.861 -1.55662 -0.24637 0
M  V30 5274 C 482.794 -1.85332 -1.33143 0
M  V30 5275 C 483.772 -0.708464 -1.46354 0
M  V30 5276 O 484.956 -0.954274 -1.6256 0
M  V30 5277 C 482.083 -2.0385 -2.70487 0
M  V30 5278 C 481.129 -3.26488 -2.74423 0
M  V30 5279 S 481.962 -4.83124 -2.30979 0
M  V30 5280 C 483.118 -5.04647 -3.70246 0
M  V30 5281 H 483.351 -2.77077 -1.07777 0
M  V30 5282 H 480.884 -1.47776 -0.44738 0
M  V30 5283 H 482.842 -2.15202 -3.49569 0
M  V30 5284 H 481.503 -1.12947 -2.9309 0
M  V30 5285 H 480.696 -3.36413 -3.7529 0
M  V30 5286 H 480.298 -3.13864 -2.03385 0
M  V30 5287 H 482.59 -4.92023 -4.65746 0
M  V30 5288 H 483.533 -6.06625 -3.65255 0
M  V30 5289 H 483.941 -4.32491 -3.62784 0
M  V30 5290 N 483.339 0.512053 -1.4905 0
M  V30 5291 C 484.585 1.26874 -1.58212 0
M  V30 5292 C 484.918 1.9241 -0.263073 0
M  V30 5293 O 484.193 1.80181 0.732476 0
M  V30 5294 C 484.476 2.34428 -2.73341 0
M  V30 5295 C 484.329 1.73466 -4.15006 0
M  V30 5296 C 485.648 3.36073 -2.84154 0
M  V30 5297 H 482.767 0.459924 -0.575881 0
M  V30 5298 H 485.409 0.568587 -1.81293 0
M  V30 5299 H 483.559 2.94146 -2.53792 0
M  V30 5300 H 485.231 1.17661 -4.46042 0
M  V30 5301 H 483.474 1.03921 -4.21168 0
M  V30 5302 H 484.145 2.51426 -4.91415 0
M  V30 5303 H 486.621 2.86332 -3.01916 0
M  V30 5304 H 485.497 4.08703 -3.66406 0
M  V30 5305 H 485.758 3.97725 -1.93048 0
M  V30 5306 N 484.817 1.37938 0.762283 0
M  V30 5307 C 486.063 1.34873 1.52253 0
M  V30 5308 C 486.418 -0.0635972 1.92295 0
M  V30 5309 O 485.711 -1.02434 1.61919 0
M  V30 5310 C 485.905 2.23042 2.79261 0
M  V30 5311 C 485.734 3.72706 2.51635 0
M  V30 5312 C 484.504 4.41771 2.45289 0
M  V30 5313 C 486.702 4.65345 2.18994 0
M  V30 5314 N 484.684 5.76921 2.09846 0
M  V30 5315 C 486.055 5.88943 1.9377 0
M  V30 5316 C 488.11 4.53636 2.0523 0
M  V30 5317 C 486.813 7.02142 1.5617 0
M  V30 5318 C 488.839 5.6673 1.69031 0
M  V30 5319 C 488.201 6.89383 1.44673 0
M  V30 5320 H 484.3 0.548818 0.557067 0
M  V30 5321 H 486.884 1.73247 0.888458 0
M  V30 5322 H 485.055 1.8687 3.40491 0
M  V30 5323 H 486.787 2.11165 3.45241 0
M  V30 5324 H 483.542 3.94883 2.61465 0
M  V30 5325 H 483.966 6.4837 1.94794 0
M  V30 5326 H 488.608 3.5937 2.2274 0
M  V30 5327 H 486.326 7.96334 1.37399 0
M  V30 5328 H 489.912 5.59645 1.59026 0
M  V30 5329 H 488.792 7.75411 1.17079 0
M  V30 5330 N 486.295 -0.989507 1.22664 0
M  V30 5331 C 487.225 -2.09847 1.02404 0
M  V30 5332 C 488.206 -1.70007 -0.0561303 0
M  V30 5333 O 489.391 -1.93906 0.106748 0
M  V30 5334 C 486.521 -3.41996 0.604663 0
M  V30 5335 C 485.475 -3.95699 1.63115 0
M  V30 5336 C 484.801 -5.23936 1.0675 0
M  V30 5337 C 486.101 -4.25999 3.02196 0
M  V30 5338 H 487.795 -2.27054 1.95158 0
M  V30 5339 H 485.341 -1.09111 0.939727 0
M  V30 5340 H 487.294 -4.1899 0.45002 0
M  V30 5341 H 486.018 -3.24626 -0.35855 0
M  V30 5342 H 484.677 -3.2084 1.77362 0
M  V30 5343 H 484.325 -5.02909 0.0955422 0
M  V30 5344 H 484.025 -5.60833 1.75328 0
M  V30 5345 H 485.549 -6.0356 0.924516 0
M  V30 5346 H 486.963 -4.93777 2.91303 0
M  V30 5347 H 485.36 -4.74076 3.67929 0
M  V30 5348 H 486.43 -3.33636 3.51873 0
M  V30 5349 N 487.773 -1.03688 -1.18687 0
M  V30 5350 C 489.013 -0.746858 -1.90267 0
M  V30 5351 C 489.377 0.712075 -1.78307 0
M  V30 5352 O 490.578 1.11553 -2.44559 0
M  V30 5353 C 488.849 -1.19543 -3.36815 0
M  V30 5354 S 490.408 -1.03047 -4.26529 0
M  V30 5355 H 487.226 -0.271663 -0.657054 0
M  V30 5356 H 489.828 -1.32838 -1.43437 0
M  V30 5357 H 488.532 -2.2527 -3.43047 0
M  V30 5358 H 488.063 -0.607533 -3.88681 0
M  V30 5359 H 490.078 0.0543232 -4.9617 0
M  V30 5360 N 489.251 1.34841 -0.815825 0
M  V30 5361 C 490.476 2.03261 -0.41226 0
M  V30 5362 C 490.901 1.61055 0.971751 0
M  V30 5363 O 490.259 0.7917 1.63101 0
M  V30 5364 C 490.307 3.56914 -0.514289 0
M  V30 5365 O 489.411 4.09728 0.468675 0
M  V30 5366 H 488.752 0.641664 -0.170771 0
M  V30 5367 H 491.282 1.72241 -1.10427 0
M  V30 5368 H 491.292 4.06156 -0.387457 0
M  V30 5369 H 489.967 3.86982 -1.52375 0
M  V30 5370 H 488.544 3.71681 0.301316 0
M  V30 5371 N 490.729 0.570148 1.46925 0
M  V30 5372 C 491.659 -0.158274 2.32963 0
M  V30 5373 C 492.64 -0.896093 1.44583 0
M  V30 5374 O 493.825 -0.874022 1.7342 0
M  V30 5375 C 490.955 -1.18055 3.26619 0
M  V30 5376 C 489.909 -0.558379 4.24342 0
M  V30 5377 C 489.235 -1.68623 5.07415 0
M  V30 5378 C 490.535 0.496295 5.19937 0
M  V30 5379 H 492.229 0.560046 2.94115 0
M  V30 5380 H 489.775 0.270775 1.41431 0
M  V30 5381 H 491.728 -1.69841 3.85658 0
M  V30 5382 H 490.452 -1.92899 2.63548 0
M  V30 5383 H 489.111 -0.0617157 3.66548 0
M  V30 5384 H 488.759 -2.42402 4.40738 0
M  V30 5385 H 488.459 -1.27564 5.73586 0
M  V30 5386 H 489.983 -2.20709 5.69315 0
M  V30 5387 H 491.397 0.0640052 5.73264 0
M  V30 5388 H 489.794 0.82649 5.94381 0
M  V30 5389 H 490.864 1.38735 4.6463 0
M  V30 5390 N 492.207 -1.54576 0.307264 0
M  V30 5391 C 493.139 -2.21212 -0.599807 0
M  V30 5392 C 494.152 -1.20685 -1.09266 0
M  V30 5393 O 495.341 -1.47244 -1.00903 0
M  V30 5394 C 492.441 -2.84994 -1.83389 0
M  V30 5395 C 491.614 -4.11511 -1.48248 0
M  V30 5396 C 490.673 -4.59038 -2.57237 0
M  V30 5397 O 489.699 -5.24095 -2.22065 0
M  V30 5398 N 490.901 -4.31884 -3.87887 0
M  V30 5399 H 493.666 -2.99686 -0.0293075 0
M  V30 5400 H 491.227 -1.61379 0.129738 0
M  V30 5401 H 493.219 -3.1372 -2.5566 0
M  V30 5402 H 491.789 -2.10324 -2.31263 0
M  V30 5403 H 491.009 -3.89728 -0.592122 0
M  V30 5404 H 492.297 -4.93879 -1.22316 0
M  V30 5405 H 491.695 -3.79778 -4.19268 0
M  V30 5406 H 490.252 -4.65304 -4.56438 0
M  V30 5407 N 493.685 -0.035106 -1.57561 0
M  V30 5408 C 494.595 0.960295 -2.14046 0
M  V30 5409 C 495.611 1.3529 -1.0942 0
M  V30 5410 O 496.787 1.43309 -1.41508 0
M  V30 5411 C 493.852 2.22214 -2.66124 0
M  V30 5412 C 492.913 1.8894 -3.85487 0
M  V30 5413 C 492.146 3.09109 -4.35072 0
M  V30 5414 O 492.369 4.21963 -3.83802 0
M  V30 5415 O 491.303 2.91058 -5.26848 0
M  V30 5416 H 495.129 0.509983 -2.99387 0
M  V30 5417 H 492.714 0.185853 -1.48239 0
M  V30 5418 H 494.596 2.96279 -2.99661 0
M  V30 5419 H 493.271 2.66414 -1.83862 0
M  V30 5420 H 492.178 1.12241 -3.56865 0
M  V30 5421 H 493.511 1.49551 -4.6893 0
M  V30 5422 N 495.163 1.55791 0.238111 0
M  V30 5423 C 496.11 1.9105 1.29493 0
M  V30 5424 C 497.08 0.765733 1.47397 0
M  V30 5425 O 498.265 1.02017 1.61236 0
M  V30 5426 C 495.405 2.21826 2.64362 0
M  V30 5427 C 494.518 3.49153 2.54394 0
M  V30 5428 C 493.653 3.69455 3.81676 0
M  V30 5429 C 492.692 4.90353 3.66361 0
M  V30 5430 N 491.829 5.07131 4.85554 0
M  V30 5431 H 496.669 2.81172 0.987233 0
M  V30 5432 H 494.206 1.39179 0.476203 0
M  V30 5433 H 496.164 2.37675 3.4288 0
M  V30 5434 H 494.794 1.34897 2.93262 0
M  V30 5435 H 493.846 3.41587 1.67399 0
M  V30 5436 H 495.158 4.37818 2.38991 0
M  V30 5437 H 494.312 3.85311 4.68636 0
M  V30 5438 H 493.051 2.7904 3.99985 0
M  V30 5439 H 492.056 4.74464 2.77784 0
M  V30 5440 H 493.281 5.82237 3.49538 0
M  V30 5441 H 491.227 4.19654 5.04209 0
M  V30 5442 H 491.144 5.89899 4.72816 0
M  V30 5443 H 492.412 5.27407 5.73988 0
M  V30 5444 N 496.642 -0.504142 1.49319 0
M  V30 5445 C 497.889 -1.25846 1.58647 0
M  V30 5446 C 498.217 -1.92592 0.27177 0
M  V30 5447 O 497.472 -1.81167 -0.74007 0
M  V30 5448 C 497.771 -2.35021 2.69258 0
M  V30 5449 C 497.437 -1.85755 4.1086 0
M  V30 5450 C 496.099 -1.72038 4.49395 0
M  V30 5451 C 498.451 -1.48844 4.99495 0
M  V30 5452 C 495.779 -1.19783 5.74342 0
M  V30 5453 C 498.131 -0.980422 6.24956 0
M  V30 5454 C 496.795 -0.829622 6.62324 0
M  V30 5455 H 496.065 -0.460505 0.580531 0
M  V30 5456 H 498.712 -0.559716 1.83138 0
M  V30 5457 H 497.017 -3.10672 2.38726 0
M  V30 5458 H 498.714 -2.93083 2.73685 0
M  V30 5459 H 495.304 -1.9739 3.80441 0
M  V30 5460 H 499.488 -1.5829 4.70381 0
M  V30 5461 H 494.744 -1.06817 6.01997 0
M  V30 5462 H 498.918 -0.685608 6.93017 0
M  V30 5463 H 496.545 -0.42253 7.59025 0
M  V30 5464 N 498.12 -1.38341 -0.754957 0
M  V30 5465 C 499.345 -1.37882 -1.5493 0
M  V30 5466 C 499.77 0.0296385 -1.88077 0
M  V30 5467 O 499.128 1.01133 -1.50472 0
M  V30 5468 C 499.176 -2.23996 -2.82592 0
M  V30 5469 O 498.28 -1.65612 -3.77686 0
M  V30 5470 H 497.621 -0.470384 -0.468652 0
M  V30 5471 H 500.151 -1.82084 -0.933082 0
M  V30 5472 H 500.161 -2.37806 -3.3153 0
M  V30 5473 H 498.836 -3.26365 -2.57796 0
M  V30 5474 H 497.413 -1.60936 -3.36384 0
M  V30 5475 N 499.598 0.982988 -1.23187 0
M  V30 5476 C 500.53 2.07729 -0.968572 0
M  V30 5477 C 501.543 1.62702 0.0564821 0
M  V30 5478 O 502.732 1.77603 -0.178733 0
M  V30 5479 C 499.832 3.36071 -0.436974 0
M  V30 5480 C 499.005 4.10081 -1.52159 0
M  V30 5481 C 498.064 5.16701 -0.99532 0
M  V30 5482 O 497.09 5.43727 -1.68373 0
M  V30 5483 N 498.292 5.80226 0.178192 0
M  V30 5484 H 501.057 2.30894 -1.9107 0
M  V30 5485 H 498.618 1.14949 -1.1401 0
M  V30 5486 H 500.61 4.04639 -0.0700051 0
M  V30 5487 H 499.18 3.09893 0.410509 0
M  V30 5488 H 498.4 3.36004 -2.06144 0
M  V30 5489 H 499.688 4.56295 -2.25105 0
M  V30 5490 H 499.086 5.60651 0.754096 0
M  V30 5491 H 497.643 6.49982 0.486449 0
M  V30 5492 N 501.076 1.04316 1.18135 0
M  V30 5493 C 502.304 0.768117 1.92113 0
M  V30 5494 C 502.719 -0.675057 1.76319 0
M  V30 5495 O 502.076 -1.46038 1.09449 0
M  V30 5496 C 502.127 1.12808 3.43448 0
M  V30 5497 O 501.848 2.5146 3.58747 0
M  V30 5498 C 503.349 0.8779 4.3452 0
M  V30 5499 H 500.569 0.279937 0.609817 0
M  V30 5500 H 503.113 1.39149 1.49859 0
M  V30 5501 H 501.268 0.549623 3.83481 0
M  V30 5502 H 501.682 2.65313 4.52448 0
M  V30 5503 H 503.156 1.17959 5.39249 0
M  V30 5504 H 503.633 -0.187239 4.38801 0
M  V30 5505 H 504.239 1.43977 4.00188 0
M  V30 5506 N 502.554 -1.34406 0.822964 0
M  V30 5507 C 503.831 -1.92733 0.333641 0
M  V30 5508 C 504.211 -1.75107 -1.17901 0
M  V30 5509 O 503.559 -1.12983 -1.98613 0
M  V30 5510 C 503.769 -3.40557 0.763023 0
M  V30 5511 C 505.117 -4.17709 0.761879 0
M  V30 5512 O 506.141 -3.49141 0.705606 0
M  V30 5513 O 505 -5.40082 0.835109 0
M  V30 5514 H 502.094 -0.821964 0.0911249 0
M  V30 5515 H 504.64 -1.4338 0.907757 0
M  V30 5516 H 503.412 -3.47187 1.8049 0
M  V30 5517 H 503.035 -3.97259 0.164605 0
M  V30 5518 N 504.032 -0.577932 -1.46621 0
M  V30 5519 C 505.281 -0.0594281 -2.01612 0
M  V30 5520 C 505.594 1.30663 -1.45556 0
M  V30 5521 O 506.8 1.91621 -1.92337 0
M  V30 5522 C 505.256 -0.0556666 -3.59857 0
M  V30 5523 C 504.864 -1.41975 -4.24908 0
M  V30 5524 C 506.608 0.409143 -4.22524 0
M  V30 5525 C 504.515 -1.37397 -5.75218 0
M  V30 5526 H 503.445 -0.0184469 -0.753774 0
M  V30 5527 H 506.096 -0.728869 -1.68404 0
M  V30 5528 H 504.478 0.679843 -3.90121 0
M  V30 5529 H 505.652 -2.17461 -4.0626 0
M  V30 5530 H 503.967 -1.82419 -3.74316 0
M  V30 5531 H 506.564 0.46211 -5.32699 0
M  V30 5532 H 506.907 1.42565 -3.91128 0
M  V30 5533 H 507.44 -0.272152 -3.96868 0
M  V30 5534 H 504.179 -2.36714 -6.11267 0
M  V30 5535 H 503.699 -0.661239 -5.96144 0
M  V30 5536 H 505.378 -1.08484 -6.3784 0
M  V30 5537 N 505.51 1.54411 -0.315457 0
M  V30 5538 C 506.44 2.27002 0.547039 0
M  V30 5539 C 507.421 1.27492 1.12605 0
M  V30 5540 O 508.606 1.5629 1.15269 0
M  V30 5541 C 505.736 3.02171 1.71201 0
M  V30 5542 C 504.69 4.0895 1.26268 0
M  V30 5543 C 504.016 4.71915 2.51396 0
M  V30 5544 C 505.316 5.20891 0.383419 0
M  V30 5545 H 507.01 2.99343 -0.0584517 0
M  V30 5546 H 504.556 1.4397 -0.0295527 0
M  V30 5547 H 506.509 3.51681 2.32161 0
M  V30 5548 H 505.233 2.27433 2.34397 0
M  V30 5549 H 503.892 3.60312 0.676062 0
M  V30 5550 H 503.54 3.93801 3.12937 0
M  V30 5551 H 503.24 5.44039 2.22026 0
M  V30 5552 H 504.764 5.24195 3.13133 0
M  V30 5553 H 506.178 5.66206 0.899082 0
M  V30 5554 H 504.575 5.99821 0.182857 0
M  V30 5555 H 505.645 4.81324 -0.587821 0
M  V30 5556 N 506.988 0.0434614 1.5754 0
M  V30 5557 C 508.237 -0.631454 1.91561 0
M  V30 5558 C 508.55 -1.72457 0.92292 0
M  V30 5559 O 509.756 -2.45712 1.15489 0
M  V30 5560 C 508.212 -1.17447 3.40197 0
M  V30 5561 C 507.82 -0.113867 4.47855 0
M  V30 5562 C 509.564 -1.82507 3.83264 0
M  V30 5563 C 507.471 -0.669326 5.876 0
M  V30 5564 H 506.401 -0.239629 0.714908 0
M  V30 5565 H 509.052 0.111097 1.83163 0
M  V30 5566 H 507.434 -1.96909 3.43574 0
M  V30 5567 H 508.608 0.659348 4.56058 0
M  V30 5568 H 506.923 0.438821 4.14081 0
M  V30 5569 H 509.52 -2.25047 4.85034 0
M  V30 5570 H 509.863 -2.67365 3.19095 0
M  V30 5571 H 510.396 -1.09712 3.82372 0
M  V30 5572 H 507.135 0.141449 6.55347 0
M  V30 5573 H 506.655 -1.4107 5.82974 0
M  V30 5574 H 508.334 -1.15463 6.36614 0
M  V30 5575 N 508.466 -1.55915 -0.229846 0
M  V30 5576 C 509.396 -1.94754 -1.28815 0
M  V30 5577 C 510.377 -0.814657 -1.49323 0
M  V30 5578 O 511.562 -1.07631 -1.61645 0
M  V30 5579 C 508.692 -2.25705 -2.63959 0
M  V30 5580 C 507.646 -3.41406 -2.5812 0
M  V30 5581 C 506.972 -3.57941 -3.97218 0
M  V30 5582 C 508.272 -4.76616 -2.13623 0
M  V30 5583 H 509.966 -2.83404 -0.965547 0
M  V30 5584 H 507.512 -1.36353 -0.463028 0
M  V30 5585 H 509.465 -2.51467 -3.38146 0
M  V30 5586 H 508.189 -1.339 -2.9789 0
M  V30 5587 H 506.848 -3.1568 -1.86391 0
M  V30 5588 H 506.496 -2.63526 -4.28443 0
M  V30 5589 H 506.196 -4.35757 -3.94195 0
M  V30 5590 H 507.72 -3.86042 -4.73079 0
M  V30 5591 H 509.134 -5.01637 -2.77549 0
M  V30 5592 H 507.531 -5.57655 -2.21677 0
M  V30 5593 H 508.601 -4.7253 -1.08829 0
M  V30 5594 N 509.944 0.496216 -1.49584 0
M  V30 5595 C 510.877 1.61508 -1.61215 0
M  V30 5596 C 511.855 1.55927 -0.461045 0
M  V30 5597 O 513.039 1.75914 -0.677231 0
M  V30 5598 C 510.166 3.00035 -1.57152 0
M  V30 5599 C 509.212 3.23861 -2.77518 0
M  V30 5600 S 510.045 3.06466 -4.39134 0
M  V30 5601 C 511.201 4.4738 -4.37724 0
M  V30 5602 H 511.434 1.51398 -2.55863 0
M  V30 5603 H 508.967 0.681727 -1.38535 0
M  V30 5604 H 510.925 3.7991 -1.55494 0
M  V30 5605 H 509.586 3.07556 -0.637834 0
M  V30 5606 H 508.779 4.25 -2.70908 0
M  V30 5607 H 508.381 2.51716 -2.76614 0
M  V30 5608 H 510.673 5.39556 -4.09738 0
M  V30 5609 H 511.616 4.59038 -5.39156 0
M  V30 5610 H 512.024 4.28283 -3.67742 0
M  V30 5611 N 511.423 1.38739 0.74761 0
M  V30 5612 C 512.651 1.38521 1.53686 0
M  V30 5613 C 513.066 -0.0235129 1.88785 0
M  V30 5614 O 512.423 -0.991662 1.53207 0
M  V30 5615 C 512.474 2.24641 2.83229 0
M  V30 5616 O 512.195 3.60026 2.49625 0
M  V30 5617 C 513.696 2.32669 3.77333 0
M  V30 5618 H 510.916 0.473589 0.475347 0
M  V30 5619 H 513.46 1.82395 0.924786 0
M  V30 5620 H 511.615 1.84213 3.40799 0
M  V30 5621 H 512.029 4.05435 3.3275 0
M  V30 5622 H 513.503 2.97201 4.65162 0
M  V30 5623 H 513.98 1.3421 4.18192 0
M  V30 5624 H 514.586 2.73512 3.25685 0
M  V30 5625 N 512.901 -0.976442 1.23707 0
M  V30 5626 C 513.864 -2.0511 1.02287 0
M  V30 5627 C 514.864 -1.60791 -0.0167195 0
M  V30 5628 O 516.054 -1.72761 0.223408 0
M  V30 5629 C 513.186 -3.36458 0.548507 0
M  V30 5630 H 514.379 -2.25545 1.9766 0
M  V30 5631 H 511.932 -1.15042 1.05806 0
M  V30 5632 H 512.667 -3.21713 -0.408818 0
M  V30 5633 H 512.452 -3.69967 1.29874 0
M  V30 5634 H 513.942 -4.15489 0.419406 0
M  V30 5635 N 514.379 -1.04941 -1.1758 0
M  V30 5636 C 515.342 -0.652456 -2.19717 0
M  V30 5637 C 516.342 0.294745 -1.58076 0
M  V30 5638 O 517.532 0.0789579 -1.74021 0
M  V30 5639 C 514.664 0.0420712 -3.40874 0
M  V30 5640 H 515.857 -1.55642 -2.5635 0
M  V30 5641 H 513.41 -0.842995 -1.31618 0
M  V30 5642 H 514.145 0.95943 -3.09783 0
M  V30 5643 H 513.93 -0.638844 -3.86861 0
M  V30 5644 H 515.42 0.306 -4.16477 0
M  V30 5645 N 515.857 1.33968 -0.830081 0
M  V30 5646 C 517.106 1.97323 -0.417928 0
M  V30 5647 C 517.419 1.6652 1.02618 0
M  V30 5648 O 518.625 2.2342 1.54259 0
M  V30 5649 C 517.081 3.53099 -0.696359 0
M  V30 5650 C 516.689 3.92788 -2.15457 0
M  V30 5651 C 518.433 4.23049 -0.350724 0
M  V30 5652 C 516.34 5.41506 -2.37751 0
M  V30 5653 H 515.27 0.738409 -0.152541 0
M  V30 5654 H 517.921 1.52711 -1.01744 0
M  V30 5655 H 516.303 3.95991 -0.0265904 0
M  V30 5656 H 517.477 3.6098 -2.86408 0
M  V30 5657 H 515.792 3.35795 -2.46232 0
M  V30 5658 H 518.389 5.32403 -0.495036 0
M  V30 5659 H 518.732 4.10279 0.705476 0
M  V30 5660 H 519.265 3.85657 -0.975362 0
M  V30 5661 H 516.004 5.5927 -3.41903 0
M  V30 5662 H 515.524 5.74804 -1.7135 0
M  V30 5663 H 517.203 6.0828 -2.20465 0
M  V30 5664 N 517.335 0.585699 1.46312 0
M  V30 5665 C 518.575 0.0751432 2.04262 0
M  V30 5666 C 518.939 -1.26201 1.44697 0
M  V30 5667 O 520.14 -1.86198 1.93865 0
M  V30 5668 C 518.411 0.013478 3.57397 0
M  V30 5669 S 519.97 -0.439068 4.36598 0
M  V30 5670 H 516.788 0.0389228 0.709934 0
M  V30 5671 H 519.39 0.778871 1.79315 0
M  V30 5672 H 518.094 0.990558 3.98266 0
M  V30 5673 H 517.625 -0.712927 3.86886 0
M  V30 5674 H 519.64 -1.6932 4.66417 0
M  V30 5675 N 518.813 -1.54241 0.323641 0
M  V30 5676 C 519.763 -2.21071 -0.557833 0
M  V30 5677 C 520.747 -1.19126 -1.08157 0
M  V30 5678 O 521.939 -1.44755 -1.01857 0
M  V30 5679 C 519.068 -2.97208 -1.71821 0
M  V30 5680 C 518.154 -4.06491 -1.20936 0
M  V30 5681 N 518.545 -5.04052 -0.420202 0
M  V30 5682 C 516.843 -4.20443 -1.48808 0
M  V30 5683 C 517.544 -5.81516 -0.146413 0
M  V30 5684 N 516.52 -5.38641 -0.732562 0
M  V30 5685 H 520.322 -2.93853 0.0523921 0
M  V30 5686 H 517.836 -1.61883 0.129502 0
M  V30 5687 H 519.833 -3.4357 -2.36146 0
M  V30 5688 H 518.493 -2.25947 -2.33191 0
M  V30 5689 H 519.504 -5.17862 -0.0630401 0
M  V30 5690 H 516.181 -3.60396 -2.10762 0
M  V30 5691 H 517.571 -6.70119 0.488895 0
M  V30 5692 N 520.291 -0.0518155 -1.57515 0
M  V30 5693 C 521.568 0.661727 -1.84067 0
M  V30 5694 C 521.948 1.88999 -0.940351 0
M  V30 5695 O 521.296 2.285 -0.00155404 0
M  V30 5696 C 521.506 1.01841 -3.3381 0
M  V30 5697 C 522.854 1.40043 -4.00841 0
M  V30 5698 O 523.878 1.11073 -3.38439 0
M  V30 5699 O 522.737 1.94111 -5.10865 0
M  V30 5700 H 519.831 0.326702 -0.759733 0
M  V30 5701 H 522.377 -0.0812277 -1.69505 0
M  V30 5702 H 521.149 0.145202 -3.91031 0
M  V30 5703 H 520.772 1.81879 -3.53562 0
M  V30 5704 N 521.769 1.56035 0.221574 0
M  V30 5705 C 522.699 1.95434 1.2778 0
M  V30 5706 C 523.68 0.822564 1.48889 0
M  V30 5707 O 524.865 1.08486 1.61072 0
M  V30 5708 C 521.995 2.27102 2.62759 0
M  V30 5709 C 520.949 3.4277 2.56306 0
M  V30 5710 C 520.275 3.60043 3.95314 0
M  V30 5711 C 521.575 4.77742 2.11093 0
M  V30 5712 H 523.269 2.83912 0.950504 0
M  V30 5713 H 520.815 1.36596 0.455791 0
M  V30 5714 H 522.768 2.53256 3.36807 0
M  V30 5715 H 521.492 1.35478 2.97176 0
M  V30 5716 H 520.151 3.16664 1.84715 0
M  V30 5717 H 519.799 2.65794 4.27039 0
M  V30 5718 H 519.499 4.37841 3.91879 0
M  V30 5719 H 521.023 3.88545 4.71025 0
M  V30 5720 H 522.437 5.03102 2.74885 0
M  V30 5721 H 520.834 5.58823 2.18716 0
M  V30 5722 H 521.904 4.731 1.06321 0
M  V30 5723 N 523.247 -0.488276 1.49845 0
M  V30 5724 C 524.524 -1.24959 1.50481 0
M  V30 5725 C 524.904 -2.09735 0.239698 0
M  V30 5726 O 524.252 -2.14865 -0.777524 0
M  V30 5727 C 524.462 -2.0954 2.79095 0
M  V30 5728 C 525.81 -2.68305 3.29086 0
M  V30 5729 O 526.834 -2.19797 2.80299 0
M  V30 5730 O 525.693 -3.56643 4.14087 0
M  V30 5731 H 522.787 -0.566133 0.602845 0
M  V30 5732 H 525.333 -0.501504 1.6212 0
M  V30 5733 H 524.105 -1.46958 3.62656 0
M  V30 5734 H 523.728 -2.91517 2.70377 0
M  V30 5735 N 524.725 -1.39134 -0.740242 0
M  V30 5736 C 525.675 -1.33928 -1.84519 0
M  V30 5737 C 526.659 -0.221097 -1.59374 0
M  V30 5738 O 527.851 -0.458195 -1.70967 0
M  V30 5739 C 524.98 -1.17991 -3.22387 0
M  V30 5740 C 524.066 -2.34488 -3.53378 0
M  V30 5741 N 524.457 -3.59954 -3.5534 0
M  V30 5742 C 522.755 -2.27331 -3.83714 0
M  V30 5743 C 523.456 -4.36962 -3.83978 0
M  V30 5744 N 522.432 -3.66482 -4.01487 0
M  V30 5745 H 526.234 -2.28907 -1.84333 0
M  V30 5746 H 523.748 -1.32555 -0.938237 0
M  V30 5747 H 525.745 -1.12345 -4.01478 0
M  V30 5748 H 524.405 -0.23957 -3.23815 0
M  V30 5749 H 525.416 -3.93448 -3.36778 0
M  V30 5750 H 522.093 -1.41531 -3.92779 0
M  V30 5751 H 523.483 -5.45692 -3.92008 0
M  V30 5752 N 526.204 0.969867 -1.24223 0
M  V30 5753 C 527.615 1.52717 -1.07399 0
M  V30 5754 C 527.966 1.92956 0.355298 0
M  V30 5755 O 527.091 1.77112 1.2434 0
M  V30 5756 C 527.686 2.77521 -1.94339 0
M  V30 5757 C 526.245 3.29615 -1.81744 0
M  V30 5758 C 525.392 2.02537 -1.89405 0
M  V30 5759 H 528.343 0.788399 -1.37732 0
M  V30 5760 H 528.364 3.50773 -1.47439 0
M  V30 5761 H 527.876 2.48203 -2.98357 0
M  V30 5762 H 525.977 3.63789 -0.805505 0
M  V30 5763 H 526.09 3.98661 -2.65718 0
M  V30 5764 H 524.454 2.17151 -1.33108 0
M  V30 5765 H 525.237 1.75587 -2.94999 0
M  V30 5766 N 527.682 1.05563 1.17022 0
M  V30 5767 C 528.93 0.76642 1.87004 0
M  V30 5768 C 529.251 -0.708854 1.8166 0
M  V30 5769 O 528.521 -1.51242 1.2451 0
M  V30 5770 H 527.101 0.280516 0.692329 0
M  V30 5771 H 529.763 1.33557 1.41945 0
M  V30 5772 H 528.859 1.08472 2.92644 0
M  V30 5773 N 529.16 -1.33526 0.837174 0
M  V30 5774 C 530.39 -2.01754 0.444848 0
M  V30 5775 C 530.798 -1.63149 -0.958072 0
M  V30 5776 O 530.141 -0.839827 -1.63379 0
M  V30 5777 C 530.203 -3.56228 0.483917 0
M  V30 5778 C 529.867 -4.18205 1.84265 0
M  V30 5779 C 530.864 -4.37699 2.80563 0
M  V30 5780 C 528.549 -4.54667 2.13503 0
M  V30 5781 C 530.543 -4.928 4.04261 0
M  V30 5782 C 528.23 -5.09475 3.37458 0
M  V30 5783 C 529.228 -5.28488 4.32654 0
M  V30 5784 O 528.916 -5.82132 5.54417 0
M  V30 5785 H 528.648 -0.652928 0.175104 0
M  V30 5786 H 531.202 -1.71469 1.13082 0
M  V30 5787 H 529.432 -3.85833 -0.258826 0
M  V30 5788 H 531.121 -4.05752 0.109653 0
M  V30 5789 H 531.887 -4.0988 2.59274 0
M  V30 5790 H 527.766 -4.39164 1.40201 0
M  V30 5791 H 531.31 -5.07555 4.78574 0
M  V30 5792 H 527.207 -5.36725 3.58604 0
M  V30 5793 H 527.975 -6.00548 5.56133 0
M  V30 5794 N 530.638 -0.59345 -1.46 0
M  V30 5795 C 531.586 0.146268 -2.3214 0
M  V30 5796 C 532.58 0.873743 -1.45128 0
M  V30 5797 O 533.786 0.790912 -1.61693 0
M  V30 5798 H 530.161 0.0660349 -0.749095 0
M  V30 5799 H 532.132 -0.598895 -2.92328 0
M  V30 5800 C 530.881 1.1396 -3.28494 0
M  V30 5801 H 530.204 0.589252 -3.95434 0
M  V30 5802 H 531.644 1.62738 -3.91526 0
M  V30 5803 C 530.103 2.20604 -2.54628 0
M  V30 5804 O 530.633 3.28128 -2.31722 0
M  V30 5805 N 528.839 1.95502 -2.15005 0
M  V30 5806 H 528.386 1.0807 -2.33834 0
M  V30 5807 H 528.344 2.67064 -1.65904 0
M  V30 5808 N 532.116 1.54067 -0.331816 0
M  V30 5809 C 533.064 2.26105 0.54582 0
M  V30 5810 C 534.058 1.27816 1.11173 0
M  V30 5811 O 535.264 1.45565 1.05882 0
M  V30 5812 H 531.639 0.726363 0.194683 0
M  V30 5813 H 533.61 2.98282 -0.083931 0
M  V30 5814 C 532.359 3.03814 1.69092 0
M  V30 5815 H 531.682 3.79269 1.26473 0
M  V30 5816 H 533.122 3.57453 2.28043 0
M  V30 5817 C 531.581 2.12606 2.61343 0
M  V30 5818 O 532.111 1.71437 3.6328 0
M  V30 5819 N 530.317 1.77925 2.29763 0
M  V30 5820 H 529.864 2.11602 1.46909 0
M  V30 5821 H 529.822 1.1718 2.91747 0
M  V30 5822 N 533.594 0.0601682 1.57485 0
M  V30 5823 C 534.822 -0.620937 1.97363 0
M  V30 5824 C 535.237 -1.63846 0.938082 0
M  V30 5825 O 534.594 -1.82339 -0.0766578 0
M  V30 5826 C 534.645 -1.29987 3.37321 0
M  V30 5827 O 534.366 -0.323081 4.36907 0
M  V30 5828 C 535.867 -2.06989 3.92008 0
M  V30 5829 H 533.087 -0.169135 0.649334 0
M  V30 5830 H 535.631 0.129132 2.04092 0
M  V30 5831 H 533.786 -2.0011 3.31715 0
M  V30 5832 H 534.2 -0.808754 5.18227 0
M  V30 5833 H 535.674 -2.49901 4.92192 0
M  V30 5834 H 536.151 -2.92173 3.2792 0
M  V30 5835 H 536.757 -1.41757 4.0098 0
M  V30 5836 N 535.072 -1.5615 -0.213296 0
M  V30 5837 C 536.302 -1.83372 -0.951757 0
M  V30 5838 C 536.71 -0.638158 -1.78113 0
M  V30 5839 O 536.053 0.402609 -1.79234 0
M  V30 5840 C 536.115 -3.04444 -1.91192 0
M  V30 5841 C 535.779 -4.39107 -1.26627 0
M  V30 5842 C 536.776 -5.15794 -0.652087 0
M  V30 5843 C 534.461 -4.85834 -1.27556 0
M  V30 5844 C 536.455 -6.37376 -0.055814 0
M  V30 5845 C 534.142 -6.07356 -0.675451 0
M  V30 5846 C 535.14 -6.82967 -0.0666367 0
M  V30 5847 O 534.828 -8.0219 0.524119 0
M  V30 5848 H 534.56 -0.613398 -0.284111 0
M  V30 5849 H 537.114 -2.04096 -0.231112 0
M  V30 5850 H 535.344 -2.79559 -2.67178 0
M  V30 5851 H 537.033 -3.18466 -2.51662 0
M  V30 5852 H 537.799 -4.80796 -0.637172 0
M  V30 5853 H 533.678 -4.26949 -1.73883 0
M  V30 5854 H 537.222 -6.96334 0.420004 0
M  V30 5855 H 533.119 -6.41825 -0.687806 0
M  V30 5856 H 533.887 -8.17426 0.419243 0
M  V30 5857 N 536.55 0.480323 -1.50102 0
M  V30 5858 C 537.482 1.59669 -1.64433 0
M  V30 5859 C 538.495 1.54063 -0.52615 0
M  V30 5860 O 539.684 1.59619 -0.798992 0
M  V30 5861 C 536.784 2.98527 -1.6042 0
M  V30 5862 C 535.957 3.291 -2.88117 0
M  V30 5863 C 535.016 4.47468 -2.76873 0
M  V30 5864 O 534.042 4.4823 -3.50825 0
M  V30 5865 N 535.244 5.48593 -1.89806 0
M  V30 5866 H 538.009 1.47795 -2.60723 0
M  V30 5867 H 535.57 0.66858 -1.4745 0
M  V30 5868 H 537.562 3.75666 -1.50523 0
M  V30 5869 H 536.132 3.04218 -0.719036 0
M  V30 5870 H 535.352 2.40662 -3.12211 0
M  V30 5871 H 536.64 3.46334 -3.72734 0
M  V30 5872 H 536.038 5.50791 -1.2902 0
M  V30 5873 H 534.595 6.24752 -1.85819 0
M  V30 5874 N 538.028 1.39524 0.732853 0
M  V30 5875 C 539.277 1.36175 1.48792 0
M  V30 5876 C 539.59 -0.0388195 1.95561 0
M  V30 5877 O 540.796 -0.194899 2.708 0
M  V30 5878 C 539.252 2.39242 2.68871 0
M  V30 5879 C 538.86 3.85024 2.29042 0
M  V30 5880 C 540.604 2.44972 3.46683 0
M  V30 5881 C 538.511 4.79727 3.45856 0
M  V30 5882 H 537.441 0.506267 0.558757 0
M  V30 5883 H 540.092 1.65181 0.799226 0
M  V30 5884 H 538.474 2.0331 3.39825 0
M  V30 5885 H 539.648 4.30008 1.6562 0
M  V30 5886 H 537.963 3.82609 1.64316 0
M  V30 5887 H 540.56 3.12918 4.33574 0
M  V30 5888 H 540.903 1.4749 3.89297 0
M  V30 5889 H 541.436 2.79808 2.82759 0
M  V30 5890 H 538.175 5.78479 3.08289 0
M  V30 5891 H 537.695 4.39421 4.08251 0
M  V30 5892 H 539.374 4.98731 4.12161 0
M  V30 5893 N 539.506 -0.963266 1.24736 0
M  V30 5894 C 540.454 -2.07985 1.04139 0
M  V30 5895 C 541.448 -1.69381 -0.0250556 0
M  V30 5896 O 542.654 -1.79531 0.129863 0
M  V30 5897 H 539.029 -0.680627 0.319768 0
M  V30 5898 H 541 -2.22517 1.98818 0
M  V30 5899 C 539.749 -3.4123 0.667615 0
M  V30 5900 H 539.072 -3.71397 1.48 0
M  V30 5901 H 540.512 -4.20244 0.563136 0
M  V30 5902 C 538.971 -3.3104 -0.625647 0
M  V30 5903 O 539.501 -3.65334 -1.67016 0
M  V30 5904 N 537.707 -2.84168 -0.608033 0
M  V30 5905 H 537.254 -2.56458 0.242323 0
M  V30 5906 H 537.212 -2.77732 -1.47352 0
M  V30 5907 N 540.985 -1.06182 -1.16461 0
M  V30 5908 C 541.948 -0.675723 -2.19013 0
M  V30 5909 C 542.948 0.277963 -1.58379 0
M  V30 5910 O 544.138 0.0604962 -1.74095 0
M  V30 5911 C 541.27 0.00591459 -3.40899 0
M  V30 5912 H 542.463 -1.58353 -2.54685 0
M  V30 5913 H 540.016 -0.856908 -1.30716 0
M  V30 5914 H 540.751 0.92652 -3.10783 0
M  V30 5915 H 540.536 -0.67984 -3.86161 0
M  V30 5916 H 542.026 0.26181 -4.16778 0
M  V30 5917 N 542.463 1.3308 -0.844243 0
M  V30 5918 C 543.879 1.50447 -0.532729 0
M  V30 5919 C 544.079 1.78292 0.938837 0
M  V30 5920 O 543.135 1.84635 1.72239 0
M  V30 5921 C 544.448 2.65555 -1.41072 0
M  V30 5922 C 545.996 2.7944 -1.41005 0
M  V30 5923 C 546.471 3.97616 -2.27301 0
M  V30 5924 N 547.962 4.0486 -2.2504 0
M  V30 5925 C 548.697 4.95508 -2.88547 0
M  V30 5926 N 548.193 5.91236 -3.61126 0
M  V30 5927 N 549.986 4.88548 -2.77989 0
M  V30 5928 H 542.137 1.13269 -1.79677 0
M  V30 5929 H 544.4 0.55734 -0.766861 0
M  V30 5930 H 544.106 2.51675 -2.45668 0
M  V30 5931 H 543.98 3.61089 -1.09061 0
M  V30 5932 H 546.367 2.92749 -0.371784 0
M  V30 5933 H 546.448 1.8465 -1.77026 0
M  V30 5934 H 546.092 3.85066 -3.3119 0
M  V30 5935 H 546.022 4.91661 -1.88619 0
M  V30 5936 H 548.513 3.36353 -1.72264 0
M  V30 5937 H 548.826 6.57079 -4.06776 0
M  V30 5938 H 547.171 5.91295 -3.65234 0
M  V30 5939 H 550.362 4.12729 -2.20846 0
M  V30 5940 H 550.535 5.58994 -3.27765 0
M  V30 5941 N 543.941 0.601185 1.45683 0
M  V30 5942 C 545.169 0.100054 2.06658 0
M  V30 5943 C 545.584 -1.21285 1.44691 0
M  V30 5944 O 544.941 -1.73735 0.558772 0
M  V30 5945 C 544.992 -0.0528579 3.61461 0
M  V30 5946 O 544.713 1.20809 4.21114 0
M  V30 5947 C 546.214 -0.586193 4.39407 0
M  V30 5948 H 543.434 0.065905 0.667756 0
M  V30 5949 H 545.978 0.827101 1.87028 0
M  V30 5950 H 544.133 -0.730203 3.80456 0
M  V30 5951 H 544.547 1.03368 5.14213 0
M  V30 5952 H 546.021 -0.642297 5.4825 0
M  V30 5953 H 546.498 -1.60713 4.0874 0
M  V30 5954 H 547.104 0.0568935 4.25262 0
M  V30 5955 N 545.419 -1.53889 0.339982 0
M  V30 5956 C 546.329 -2.28604 -0.526988 0
M  V30 5957 C 547.345 -1.33578 -1.11503 0
M  V30 5958 O 548.521 -1.66612 -1.13148 0
M  V30 5959 C 545.586 -3.04164 -1.66389 0
M  V30 5960 C 544.647 -4.14809 -1.10599 0
M  V30 5961 C 543.88 -4.86756 -2.18871 0
M  V30 5962 O 544.103 -4.58343 -3.39526 0
M  V30 5963 O 543.037 -5.73289 -1.83366 0
M  V30 5964 H 546.863 -3.03594 0.0802707 0
M  V30 5965 H 544.448 -1.4903 0.105141 0
M  V30 5966 H 546.33 -3.51427 -2.32544 0
M  V30 5967 H 545.005 -2.32035 -2.25703 0
M  V30 5968 H 543.912 -3.71857 -0.409067 0
M  V30 5969 H 545.245 -4.89029 -0.557771 0
M  V30 5970 N 546.897 -0.0685191 -1.57451 0
M  V30 5971 C 547.827 0.89747 -2.15564 0
M  V30 5972 C 548.808 1.31266 -1.08181 0
M  V30 5973 O 549.993 1.38429 -1.36202 0
M  V30 5974 C 547.123 2.16623 -2.71463 0
M  V30 5975 C 546.077 1.89054 -3.83982 0
M  V30 5976 C 545.403 3.22532 -4.26471 0
M  V30 5977 C 546.703 1.1984 -5.08366 0
M  V30 5978 H 548.397 0.413373 -2.96533 0
M  V30 5979 H 545.943 0.197391 -1.42641 0
M  V30 5980 H 547.896 2.84614 -3.10761 0
M  V30 5981 H 546.62 2.67269 -1.8771 0
M  V30 5982 H 545.279 1.23469 -3.45183 0
M  V30 5983 H 544.927 3.71013 -3.39644 0
M  V30 5984 H 544.627 3.04879 -5.02317 0
M  V30 5985 H 546.151 3.91727 -4.68383 0
M  V30 5986 H 547.565 1.77896 -5.45001 0
M  V30 5987 H 545.962 1.12456 -5.89469 0
M  V30 5988 H 547.032 0.176996 -4.84577 0
M  V30 5989 N 548.375 1.56261 0.205012 0
M  V30 5990 C 549.338 1.92908 1.23771 0
M  V30 5991 C 550.338 0.809208 1.38955 0
M  V30 5992 O 551.528 1.07676 1.36936 0
M  V30 5993 C 548.66 2.19442 2.60879 0
M  V30 5994 H 549.853 2.85287 0.924728 0
M  V30 5995 H 547.406 1.49798 0.446125 0
M  V30 5996 H 548.141 1.29668 2.97248 0
M  V30 5997 H 547.926 3.0104 2.51232 0
M  V30 5998 H 549.416 2.48833 3.35368 0
M  V30 5999 N 549.853 -0.472356 1.50355 0
M  V30 6000 C 551.099 -1.22634 1.6152 0
M  V30 6001 C 551.432 -1.91645 0.313995 0
M  V30 6002 O 550.707 -1.82059 -0.684446 0
M  V30 6003 C 550.99 -2.27099 2.7946 0
M  V30 6004 C 550.843 -1.62402 4.19459 0
M  V30 6005 C 552.162 -3.28421 2.92964 0
M  V30 6006 H 549.281 -0.444494 0.587873 0
M  V30 6007 H 551.923 -0.520321 1.82737 0
M  V30 6008 H 550.073 -2.87314 2.61501 0
M  V30 6009 H 551.745 -1.05793 4.49005 0
M  V30 6010 H 549.988 -0.927184 4.23776 0
M  V30 6011 H 550.659 -2.38309 4.97909 0
M  V30 6012 H 553.135 -2.78227 3.09401 0
M  V30 6013 H 552.011 -3.98845 3.77113 0
M  V30 6014 H 552.272 -3.92467 2.03525 0
M  V30 6015 N 551.331 -1.39911 -0.725443 0
M  V30 6016 C 552.747 -1.21725 -1.03224 0
M  V30 6017 C 552.947 -0.0855224 -2.01318 0
M  V30 6018 O 552.003 0.55976 -2.46217 0
M  V30 6019 C 553.316 -2.55511 -1.58539 0
M  V30 6020 C 554.864 -2.62439 -1.70572 0
M  V30 6021 C 555.339 -3.9647 -2.29294 0
M  V30 6022 N 556.83 -3.98159 -2.36692 0
M  V30 6023 C 557.565 -4.98647 -2.83088 0
M  V30 6024 N 557.061 -6.0953 -3.2931 0
M  V30 6025 N 558.854 -4.8602 -2.82384 0
M  V30 6026 H 551.005 -2.12267 -0.075048 0
M  V30 6027 H 553.268 -0.943136 -0.0959066 0
M  V30 6028 H 552.974 -3.38926 -0.939249 0
M  V30 6029 H 552.848 -2.75905 -2.57208 0
M  V30 6030 H 555.235 -1.79401 -2.34306 0
M  V30 6031 H 555.316 -2.45885 -0.705297 0
M  V30 6032 H 554.96 -4.79942 -1.66186 0
M  V30 6033 H 554.89 -4.10349 -3.30032 0
M  V30 6034 H 557.381 -3.18085 -2.04035 0
M  V30 6035 H 557.694 -6.82106 -3.6325 0
M  V30 6036 H 556.039 -6.1311 -3.27294 0
M  V30 6037 H 559.23 -3.98493 -2.45603 0
M  V30 6038 H 559.403 -5.64478 -3.18226 0
M  V30 6039 N 552.809 0.956637 -1.25245 0
M  V30 6040 C 554.039 1.7332 -1.12445 0
M  V30 6041 C 554.447 1.86392 0.324732 0
M  V30 6042 O 553.79 1.35967 1.23526 0
M  V30 6043 C 553.852 3.16603 -1.70303 0
M  V30 6044 C 553.516 3.26966 -3.19284 0
M  V30 6045 C 554.513 3.11434 -4.16299 0
M  V30 6046 C 552.198 3.50851 -3.59456 0
M  V30 6047 C 554.192 3.1963 -5.51467 0
M  V30 6048 C 551.879 3.58684 -4.94761 0
M  V30 6049 C 552.877 3.43087 -5.90576 0
M  V30 6050 O 552.565 3.50598 -7.2342 0
M  V30 6051 H 552.297 0.549981 -0.393061 0
M  V30 6052 H 554.851 1.20892 -1.66055 0
M  V30 6053 H 553.081 3.70385 -1.11138 0
M  V30 6054 H 554.77 3.76109 -1.52632 0
M  V30 6055 H 555.536 2.92853 -3.86604 0
M  V30 6056 H 551.415 3.62053 -2.85375 0
M  V30 6057 H 554.959 3.07373 -6.26233 0
M  V30 6058 H 550.856 3.76782 -5.24124 0
M  V30 6059 H 551.624 3.67242 -7.31489 0
M  V30 6060 N 554.287 1.06798 1.15896 0
M  V30 6061 C 555.235 0.677525 2.22514 0
M  V30 6062 C 556.229 -0.308994 1.66558 0
M  V30 6063 O 557.435 -0.173308 1.79164 0
M  V30 6064 H 553.81 0.200994 0.724642 0
M  V30 6065 H 555.781 1.5865 2.52731 0
M  V30 6066 C 554.53 0.0854153 3.47595 0
M  V30 6067 H 553.853 0.835645 3.90969 0
M  V30 6068 H 555.293 -0.150199 4.23734 0
M  V30 6069 C 553.752 -1.1724 3.15843 0
M  V30 6070 O 554.282 -2.25965 3.32119 0
M  V30 6071 N 552.488 -1.07636 2.69931 0
M  V30 6072 H 552.035 -0.191559 2.56887 0
M  V30 6073 H 551.993 -1.91876 2.4906 0
M  V30 6074 N 555.766 -1.3263 0.851289 0
M  V30 6075 C 557.043 -1.91982 0.374448 0
M  V30 6076 C 557.423 -1.77568 -1.14161 0
M  V30 6077 O 556.771 -1.1717 -1.96172 0
M  V30 6078 C 556.981 -3.38862 0.835088 0
M  V30 6079 C 558.329 -4.15999 0.850309 0
M  V30 6080 O 559.353 -3.47566 0.779505 0
M  V30 6081 O 558.212 -5.38189 0.949481 0
M  V30 6082 H 555.306 -0.819846 0.10854 0
M  V30 6083 H 557.852 -1.41422 0.937966 0
M  V30 6084 H 556.624 -3.43281 1.87814 0
M  V30 6085 H 556.247 -3.96821 0.248833 0
M  V30 6086 N 557.244 -0.608902 -1.45362 0
M  V30 6087 C 558.493 -0.10218 -2.01441 0
M  V30 6088 C 558.806 1.27546 -1.48295 0
M  V30 6089 O 560.012 1.87498 -1.96359 0
M  V30 6090 C 558.468 -0.131985 -3.59658 0
M  V30 6091 C 558.076 -1.50956 -4.21801 0
M  V30 6092 C 559.82 0.319427 -4.23296 0
M  V30 6093 C 557.727 -1.49568 -5.72174 0
M  V30 6094 H 556.657 -0.0344314 -0.753213 0
M  V30 6095 H 559.308 -0.764426 -1.6682 0
M  V30 6096 H 557.69 0.596939 -3.91475 0
M  V30 6097 H 558.864 -2.26029 -4.01556 0
M  V30 6098 H 557.179 -1.90318 -3.70362 0
M  V30 6099 H 559.776 0.349013 -5.3356 0
M  V30 6100 H 560.119 1.34237 -3.94064 0
M  V30 6101 H 560.652 -0.356273 -3.96201 0
M  V30 6102 H 557.391 -2.49626 -6.06108 0
M  V30 6103 H 556.911 -0.787542 -5.94607 0
M  V30 6104 H 558.59 -1.21989 -6.35396 0
M  V30 6105 N 558.722 1.53707 -0.348139 0
M  V30 6106 C 559.947 2.05877 0.250883 0
M  V30 6107 C 560.372 1.22115 1.43072 0
M  V30 6108 O 559.73 0.235986 1.79758 0
M  V30 6109 C 559.778 3.54886 0.639416 0
M  V30 6110 O 558.882 3.73948 1.73888 0
M  V30 6111 H 558.223 0.662754 0.040653 0
M  V30 6112 H 560.753 1.98303 -0.503685 0
M  V30 6113 H 560.763 3.97601 0.915295 0
M  V30 6114 H 559.438 4.153 -0.223386 0
M  V30 6115 H 558.015 3.43134 1.45991 0
M  V30 6116 N 560.2 0.0768682 1.57412 0
M  V30 6117 C 561.611 -0.455037 1.8107 0
M  V30 6118 C 561.962 -1.69323 0.991162 0
M  V30 6119 O 561.087 -2.15328 0.215156 0
M  V30 6120 C 561.682 -0.832316 3.28417 0
M  V30 6121 C 560.241 -1.30906 3.52903 0
M  V30 6122 C 559.388 -0.296714 2.75708 0
M  V30 6123 H 562.339 0.302514 1.5579 0
M  V30 6124 H 562.36 -1.69333 3.40744 0
M  V30 6125 H 561.872 0.0690532 3.88039 0
M  V30 6126 H 559.973 -2.22875 2.98592 0
M  V30 6127 H 560.086 -1.28348 4.61588 0
M  V30 6128 H 558.45 -0.775059 2.42621 0
M  V30 6129 H 559.233 0.597015 3.38069 0
M  V30 6130 N 561.678 -1.56367 -0.196722 0
M  V30 6131 C 562.608 -1.97442 -1.24655 0
M  V30 6132 C 563.589 -0.846147 -1.47561 0
M  V30 6133 O 564.774 -1.11035 -1.59326 0
M  V30 6134 C 561.904 -2.31253 -2.59112 0
M  V30 6135 C 560.858 -3.46804 -2.50821 0
M  V30 6136 C 560.184 -3.66286 -3.89536 0
M  V30 6137 C 561.484 -4.8104 -2.03465 0
M  V30 6138 H 563.178 -2.85388 -0.905216 0
M  V30 6139 H 560.724 -1.37304 -0.434002 0
M  V30 6140 H 562.677 -2.58583 -3.32736 0
M  V30 6141 H 561.401 -1.40188 -2.94983 0
M  V30 6142 H 560.06 -3.19563 -1.79653 0
M  V30 6143 H 559.708 -2.72555 -4.22756 0
M  V30 6144 H 559.408 -4.4402 -3.84864 0
M  V30 6145 H 560.932 -3.9599 -4.64784 0
M  V30 6146 H 562.346 -5.07411 -2.66846 0
M  V30 6147 H 560.743 -5.62232 -2.09798 0
M  V30 6148 H 561.813 -4.74732 -0.98781 0
M  V30 6149 N 563.156 0.464375 -1.50603 0
M  V30 6150 C 564.066 1.58723 -1.72754 0
M  V30 6151 C 565.082 1.62925 -0.610844 0
M  V30 6152 O 566.258 1.8067 -0.889963 0
M  V30 6153 C 563.323 2.94897 -1.82309 0
M  V30 6154 C 562.384 3.0103 -3.06071 0
M  V30 6155 C 561.617 4.30708 -3.1516 0
M  V30 6156 O 561.84 5.2159 -2.30868 0
M  V30 6157 O 560.774 4.42571 -4.0794 0
M  V30 6158 H 564.6 1.42954 -2.67951 0
M  V30 6159 H 562.185 0.644579 -1.3478 0
M  V30 6160 H 564.067 3.75764 -1.90735 0
M  V30 6161 H 562.742 3.10851 -0.902967 0
M  V30 6162 H 561.649 2.19217 -3.03142 0
M  V30 6163 H 562.982 2.90014 -3.97684 0
M  V30 6164 N 564.634 1.40294 0.718013 0
M  V30 6165 C 565.582 1.40536 1.85344 0
M  V30 6166 C 566.576 0.286192 1.66965 0
M  V30 6167 O 567.782 0.457105 1.74099 0
M  V30 6168 H 564.157 0.439236 0.61039 0
M  V30 6169 H 566.128 2.36275 1.82255 0
M  V30 6170 C 564.877 1.28245 3.23185 0
M  V30 6171 H 564.2 2.1364 3.37932 0
M  V30 6172 H 565.64 1.32474 4.02774 0
M  V30 6173 C 564.099 -0.0075503 3.36899 0
M  V30 6174 O 564.629 -0.971391 3.89778 0
M  V30 6175 N 562.835 -0.0762479 2.905 0
M  V30 6176 H 562.382 0.708819 2.47656 0
M  V30 6177 H 562.34 -0.938846 3.00055 0
M  V30 6178 N 566.112 -0.949982 1.2575 0
M  V30 6179 C 567.062 -2.03297 1.03221 0
M  V30 6180 C 568.046 -1.60867 -0.0324751 0
M  V30 6181 O 569.238 -1.76047 0.183423 0
M  V30 6182 C 566.367 -3.36938 0.657841 0
M  V30 6183 C 565.453 -3.85878 1.75952 0
M  V30 6184 N 565.844 -4.0756 2.99547 0
M  V30 6185 C 564.142 -4.14709 1.64111 0
M  V30 6186 C 564.843 -4.47961 3.71087 0
M  V30 6187 N 563.819 -4.5416 2.98731 0
M  V30 6188 H 567.621 -2.1806 1.97045 0
M  V30 6189 H 565.135 -1.13516 1.16138 0
M  V30 6190 H 567.132 -4.14155 0.477614 0
M  V30 6191 H 565.792 -3.2355 -0.273025 0
M  V30 6192 H 566.803 -3.94501 3.35544 0
M  V30 6193 H 563.48 -4.10158 0.779527 0
M  V30 6194 H 564.87 -4.73002 4.77199 0
M  V30 6195 N 567.59 -1.07411 -1.15328 0
M  V30 6196 C 568.54 -0.664788 -2.18093 0
M  V30 6197 C 569.524 0.310395 -1.57878 0
M  V30 6198 O 570.716 0.124026 -1.76565 0
M  V30 6199 C 567.845 -0.0647822 -3.43239 0
M  V30 6200 C 566.931 -1.06514 -4.10506 0
M  V30 6201 N 567.322 -2.24491 -4.53252 0
M  V30 6202 C 565.62 -0.898613 -4.36853 0
M  V30 6203 C 566.321 -2.8796 -5.05424 0
M  V30 6204 N 565.297 -2.15622 -4.99007 0
M  V30 6205 H 569.099 -1.56333 -2.48872 0
M  V30 6206 H 566.613 -0.947393 -1.31902 0
M  V30 6207 H 568.61 0.246363 -4.16171 0
M  V30 6208 H 567.27 0.828866 -3.13943 0
M  V30 6209 H 568.281 -2.62205 -4.46619 0
M  V30 6210 H 564.958 -0.0579118 -4.1746 0
M  V30 6211 H 566.348 -3.88137 -5.48452 0
M  V30 6212 N 569.068 1.32177 -0.85831 0
M  V30 6213 C 570.308 1.98927 -0.469822 0
M  V30 6214 C 570.672 1.66423 0.95746 0
M  V30 6215 O 571.873 2.26293 1.45069 0
M  V30 6216 C 570.144 3.50352 -0.706288 0
M  V30 6217 S 571.703 4.36824 -0.415918 0
M  V30 6218 H 568.521 0.688909 -0.175855 0
M  V30 6219 H 571.123 1.60807 -1.11181 0
M  V30 6220 H 569.827 3.71497 -1.74407 0
M  V30 6221 H 569.358 3.93367 -0.0508568 0
M  V30 6222 H 571.373 4.90398 0.756581 0
M  V30 6223 N 570.547 0.616602 1.45037 0
M  V30 6224 C 571.51 -0.0871112 2.29034 0
M  V30 6225 C 572.51 -0.786414 1.40258 0
M  V30 6226 O 573.7 -0.633207 1.62284 0
M  V30 6227 C 570.832 -1.13369 3.21497 0
M  V30 6228 H 572.025 0.651497 2.92738 0
M  V30 6229 H 569.578 0.376058 1.51709 0
M  V30 6230 H 570.313 -1.90277 2.62612 0
M  V30 6231 H 570.098 -0.636358 3.86902 0
M  V30 6232 H 571.588 -1.62627 3.84633 0
M  V30 6233 N 572.025 -1.5352 0.356285 0
M  V30 6234 C 573.271 -2.01414 -0.236653 0
M  V30 6235 C 573.604 -1.24339 -1.49176 0
M  V30 6236 O 572.879 -0.334496 -1.91602 0
M  V30 6237 C 573.162 -3.56059 -0.537982 0
M  V30 6238 C 573.015 -4.43835 0.730112 0
M  V30 6239 C 574.334 -4.19127 -1.34239 0
M  V30 6240 H 571.453 -0.732135 -0.0845386 0
M  V30 6241 H 574.095 -1.83854 0.479341 0
M  V30 6242 H 572.245 -3.71153 -1.14795 0
M  V30 6243 H 573.917 -4.40555 1.36782 0
M  V30 6244 H 572.16 -4.1218 1.3524 0
M  V30 6245 H 572.831 -5.49958 0.474358 0
M  V30 6246 H 575.307 -4.07809 -0.826498 0
M  V30 6247 H 574.183 -5.27378 -1.52198 0
M  V30 6248 H 574.444 -3.74581 -2.34822 0
M  V30 6249 N 573.503 -0.0852151 -1.57369 0
M  V30 6250 C 574.466 0.8627 -2.12344 0
M  V30 6251 C 575.466 1.21746 -1.05046 0
M  V30 6252 O 576.656 1.14852 -1.30976 0
M  V30 6253 C 573.788 2.1618 -2.63589 0
M  V30 6254 H 574.981 0.385511 -2.97412 0
M  V30 6255 H 572.534 0.163663 -1.55441 0
M  V30 6256 H 573.269 2.68406 -1.82013 0
M  V30 6257 H 573.054 1.91723 -3.4203 0
M  V30 6258 H 574.544 2.84011 -3.06149 0
M  V30 6259 N 574.981 1.5647 0.188427 0
M  V30 6260 C 576.228 1.81013 0.907779 0
M  V30 6261 C 576.556 0.65953 1.82977 0
M  V30 6262 O 575.811 -0.354308 1.92466 0
M  V30 6263 C 576.11 3.11596 1.7505 0
M  V30 6264 C 575.776 4.40145 0.978922 0
M  V30 6265 C 574.438 4.75066 0.765912 0
M  V30 6266 C 576.79 5.19369 0.436498 0
M  V30 6267 C 574.118 5.867 -0.00089868 0
M  V30 6268 C 576.47 6.31805 -0.317136 0
M  V30 6269 C 575.134 6.65303 -0.541103 0
M  V30 6270 H 574.404 0.662373 0.33218 0
M  V30 6271 H 577.051 1.9071 0.173732 0
M  V30 6272 H 575.356 2.97165 2.55343 0
M  V30 6273 H 577.053 3.27793 2.30983 0
M  V30 6274 H 573.643 4.12745 1.15497 0
M  V30 6275 H 577.827 4.92799 0.588449 0
M  V30 6276 H 573.083 6.11122 -0.184329 0
M  V30 6277 H 577.257 6.92406 -0.744788 0
M  V30 6278 H 574.884 7.51646 -1.13718 0
M  V30 6279 N 576.459 -0.456382 1.50847 0
M  V30 6280 C 577.391 -1.57033 1.66953 0
M  V30 6281 C 578.404 -1.53207 0.550593 0
M  V30 6282 O 579.593 -1.58328 0.824285 0
M  V30 6283 C 576.693 -2.95937 1.65149 0
M  V30 6284 C 575.866 -3.24475 2.93317 0
M  V30 6285 C 574.925 -4.43007 2.83957 0
M  V30 6286 O 573.951 -4.42592 3.57912 0
M  V30 6287 N 575.153 -5.45503 1.9851 0
M  V30 6288 H 577.918 -1.43629 2.63042 0
M  V30 6289 H 575.479 -0.645037 1.48495 0
M  V30 6290 H 577.471 -3.73224 1.56481 0
M  V30 6291 H 576.041 -3.03036 0.767343 0
M  V30 6292 H 575.261 -2.35664 3.16 0
M  V30 6293 H 576.549 -3.4036 3.78196 0
M  V30 6294 H 575.947 -5.48668 1.37766 0
M  V30 6295 H 574.504 -6.21716 1.95735 0
M  V30 6296 N 577.937 -1.40673 -0.710563 0
M  V30 6297 C 579.186 -1.38525 -1.46607 0
M  V30 6298 C 579.499 0.0077024 -1.95598 0
M  V30 6299 O 580.705 0.151792 -2.71075 0
M  V30 6300 C 579.161 -2.43489 -2.6503 0
M  V30 6301 C 578.769 -3.88619 -2.22888 0
M  V30 6302 C 580.513 -2.50456 -3.42742 0
M  V30 6303 C 578.42 -4.85168 -3.3818 0
M  V30 6304 H 577.35 -0.515092 -0.550632 0
M  V30 6305 H 580.001 -1.66431 -0.772846 0
M  V30 6306 H 578.383 -2.0869 -3.36548 0
M  V30 6307 H 579.557 -4.32588 -1.58758 0
M  V30 6308 H 577.872 -3.85174 -1.58208 0
M  V30 6309 H 580.469 -3.19776 -4.28541 0
M  V30 6310 H 580.812 -1.53665 -3.86902 0
M  V30 6311 H 581.345 -2.84271 -2.78271 0
M  V30 6312 H 578.084 -5.8331 -2.99047 0
M  V30 6313 H 577.604 -4.4586 -4.01209 0
M  V30 6314 H 579.283 -5.05225 -4.04174 0
M  V30 6315 N 579.415 0.9433 -1.26252 0
M  V30 6316 C 580.345 2.05902 -1.10122 0
M  V30 6317 C 581.326 1.70099 -0.00700552 0
M  V30 6318 O 582.511 1.93377 -0.178641 0
M  V30 6319 C 579.641 3.39516 -0.731175 0
M  V30 6320 C 578.595 3.89372 -1.77688 0
M  V30 6321 C 577.921 5.19613 -1.26122 0
M  V30 6322 C 579.221 4.14489 -3.17799 0
M  V30 6323 H 580.915 2.19655 -2.03451 0
M  V30 6324 H 578.461 1.05548 -0.979576 0
M  V30 6325 H 580.414 4.17031 -0.605215 0
M  V30 6326 H 579.138 3.25733 0.23782 0
M  V30 6327 H 577.797 3.14036 -1.89148 0
M  V30 6328 H 577.445 5.02208 -0.282128 0
M  V30 6329 H 577.145 5.53939 -1.96023 0
M  V30 6330 H 578.669 5.99713 -1.14789 0
M  V30 6331 H 580.083 4.82625 -3.09428 0
M  V30 6332 H 578.48 4.60094 -3.85271 0
M  V30 6333 H 579.55 3.20347 -3.64014 0
M  V30 6334 N 580.893 1.08022 1.14757 0
M  V30 6335 C 581.856 0.71048 2.1791 0
M  V30 6336 C 582.856 -0.252731 1.58801 0
M  V30 6337 O 584.046 -0.0327915 1.74169 0
M  V30 6338 C 581.178 0.0483203 3.40866 0
M  V30 6339 H 582.371 1.62384 2.52134 0
M  V30 6340 H 579.924 0.877595 1.29337 0
M  V30 6341 H 580.659 -0.876959 3.12218 0
M  V30 6342 H 580.444 0.741189 3.85031 0
M  V30 6343 H 581.934 -0.195471 4.17142 0
M  V30 6344 N 582.371 -1.3172 0.865308 0
M  V30 6345 C 583.281 -2.32394 0.320935 0
M  V30 6346 C 584.297 -1.64511 -0.566746 0
M  V30 6347 O 585.473 -1.95969 -0.464575 0
M  V30 6348 C 582.538 -3.43462 -0.472701 0
M  V30 6349 C 581.599 -4.27015 0.442385 0
M  V30 6350 C 580.832 -5.32779 -0.313469 0
M  V30 6351 O 581.055 -5.49158 -1.54214 0
M  V30 6352 O 579.989 -6.01015 0.326257 0
M  V30 6353 H 583.815 -2.80868 1.15528 0
M  V30 6354 H 581.4 -1.35535 0.628545 0
M  V30 6355 H 583.282 -4.11172 -0.922781 0
M  V30 6356 H 581.957 -2.97159 -1.28367 0
M  V30 6357 H 580.864 -3.62075 0.940866 0
M  V30 6358 H 582.197 -4.76871 1.21882 0
M  V30 6359 N 583.85 -0.624285 -1.44708 0
M  V30 6360 C 585.26 -0.2092 -1.85524 0
M  V30 6361 C 585.611 1.23783 -1.52225 0
M  V30 6362 O 584.736 1.94089 -0.956986 0
M  V30 6363 C 585.332 -0.372897 -3.36742 0
M  V30 6364 C 583.891 -0.012374 -3.76398 0
M  V30 6365 C 583.038 -0.68951 -2.68591 0
M  V30 6366 H 585.989 -0.829894 -1.35272 0
M  V30 6367 H 586.01 0.390134 -3.78495 0
M  V30 6368 H 585.522 -1.42615 -3.60947 0
M  V30 6369 H 583.623 1.03941 -3.57809 0
M  V30 6370 H 583.736 -0.417663 -4.77276 0
M  V30 6371 H 582.1 -0.125484 -2.54391 0
M  V30 6372 H 582.883 -1.74522 -2.9563 0
M  V30 6373 N 585.328 1.53329 -0.364422 0
M  V30 6374 C 586.238 2.29414 0.490552 0
M  V30 6375 C 587.254 1.35335 1.09363 0
M  V30 6376 O 588.43 1.68391 1.10483 0
M  V30 6377 C 585.495 3.06772 1.61529 0
M  V30 6378 C 584.556 4.16516 1.03986 0
M  V30 6379 C 583.789 4.90176 2.111 0
M  V30 6380 O 584.012 4.63687 3.32191 0
M  V30 6381 O 582.946 5.76134 1.74222 0
M  V30 6382 H 586.772 3.03428 -0.12856 0
M  V30 6383 H 584.357 1.48843 -0.128837 0
M  V30 6384 H 586.239 3.55082 2.26924 0
M  V30 6385 H 584.914 2.35596 2.21983 0
M  V30 6386 H 583.821 3.7246 0.349856 0
M  V30 6387 H 585.154 4.89855 0.4799 0
M  V30 6388 N 586.806 0.0935595 1.57322 0
M  V30 6389 C 588.046 -0.573901 1.96178 0
M  V30 6390 C 588.41 -1.65445 0.97426 0
M  V30 6391 O 589.611 -2.37901 1.25126 0
M  V30 6392 C 587.882 -1.11612 3.39526 0
M  V30 6393 S 589.441 -1.79566 4.00377 0
M  V30 6394 H 586.259 -0.187315 0.685882 0
M  V30 6395 H 588.861 0.172597 1.94737 0
M  V30 6396 H 587.565 -0.31815 4.09165 0
M  V30 6397 H 587.096 -1.89848 3.4456 0
M  V30 6398 H 589.111 -3.07978 3.89056 0
M  V30 6399 N 588.284 -1.56567 -0.180126 0
M  V30 6400 C 589.232 -1.96632 -1.24251 0
M  V30 6401 C 590.226 -0.853818 -1.46309 0
M  V30 6402 O 591.432 -1.0389 -1.46993 0
M  V30 6403 H 587.807 -0.625476 -0.417473 0
M  V30 6404 H 589.778 -2.85201 -0.877679 0
M  V30 6405 C 588.527 -2.33486 -2.57642 0
M  V30 6406 H 587.85 -3.18626 -2.4149 0
M  V30 6407 H 589.29 -2.65371 -3.30688 0
M  V30 6408 C 587.749 -1.17499 -3.15746 0
M  V30 6409 O 588.279 -0.457956 -3.99081 0
M  V30 6410 N 586.485 -0.94786 -2.74707 0
M  V30 6411 H 586.032 -1.53269 -2.07042 0
M  V30 6412 H 585.99 -0.173626 -3.1392 0
M  V30 6413 N 589.762 0.448376 -1.51087 0
M  V30 6414 C 591.011 1.19561 -1.62444 0
M  V30 6415 C 591.324 1.92602 -0.341151 0
M  V30 6416 O 592.53 2.69439 -0.333936 0
M  V30 6417 C 590.986 2.17373 -2.8684 0
M  V30 6418 C 590.594 1.5003 -4.22131 0
M  V30 6419 C 592.338 2.92597 -3.0755 0
M  V30 6420 C 590.245 2.46262 -5.37689 0
M  V30 6421 H 589.175 0.449975 -0.605011 0
M  V30 6422 H 591.826 0.463735 -1.77544 0
M  V30 6423 H 590.208 2.93948 -2.65349 0
M  V30 6424 H 591.382 0.790886 -4.53962 0
M  V30 6425 H 589.697 0.870011 -4.0721 0
M  V30 6426 H 592.294 3.64663 -3.91056 0
M  V30 6427 H 592.637 3.53306 -2.20183 0
M  V30 6428 H 593.17 2.23131 -3.29329 0
M  V30 6429 H 589.909 1.90258 -6.27281 0
M  V30 6430 H 589.429 3.15289 -5.10248 0
M  V30 6431 H 591.108 3.07623 -5.6919 0
M  V30 6432 N 591.24 1.41047 0.703093 0
M  V30 6433 C 592.487 1.4 1.46309 0
M  V30 6434 C 592.815 0.00654574 1.94499 0
M  V30 6435 O 592.07 -0.980255 1.6938 0
M  V30 6436 C 592.369 2.34686 2.6955 0
M  V30 6437 C 592.035 3.81684 2.40058 0
M  V30 6438 C 590.697 4.21731 2.31725 0
M  V30 6439 C 593.049 4.74525 2.15581 0
M  V30 6440 C 590.377 5.52637 1.97001 0
M  V30 6441 C 592.729 6.05744 1.82366 0
M  V30 6442 C 591.393 6.44819 1.72524 0
M  V30 6443 H 590.663 0.512295 0.535382 0
M  V30 6444 H 593.31 1.73792 0.804275 0
M  V30 6445 H 591.615 1.94122 3.40329 0
M  V30 6446 H 593.312 2.31152 3.27673 0
M  V30 6447 H 589.902 3.49963 2.47435 0
M  V30 6448 H 594.086 4.44395 2.20968 0
M  V30 6449 H 589.342 5.81802 1.87928 0
M  V30 6450 H 593.516 6.77189 1.62444 0
M  V30 6451 H 591.143 7.46168 1.45385 0
M  V30 6452 N 592.718 -0.936591 1.26751 0
M  V30 6453 C 593.943 -1.72288 1.15462 0
M  V30 6454 C 594.368 -1.85915 -0.285887 0
M  V30 6455 O 593.726 -1.35272 -1.20711 0
M  V30 6456 C 593.774 -3.10503 1.83359 0
M  V30 6457 O 592.878 -3.96745 1.1255 0
M  V30 6458 H 592.219 -0.52843 0.402067 0
M  V30 6459 H 594.749 -1.17271 1.67656 0
M  V30 6460 H 594.759 -3.60867 1.90365 0
M  V30 6461 H 593.434 -2.99901 2.88153 0
M  V30 6462 H 592.011 -3.55191 1.13551 0
M  V30 6463 N 594.196 -1.08629 -1.14182 0
M  V30 6464 C 595.144 -0.71284 -2.21408 0
M  V30 6465 C 596.138 0.282457 -1.67029 0
M  V30 6466 O 597.344 0.144783 -1.79417 0
M  V30 6467 H 593.719 -0.212497 -0.721352 0
M  V30 6468 H 595.69 -1.6265 -2.50175 0
M  V30 6469 C 594.439 -0.140704 -3.47415 0
M  V30 6470 H 593.762 -0.897739 -3.8959 0
M  V30 6471 H 595.202 0.0827677 -4.23919 0
M  V30 6472 C 593.661 1.122 -3.17668 0
M  V30 6473 O 594.191 2.20652 -3.35672 0
M  V30 6474 N 592.397 1.03328 -2.71609 0
M  V30 6475 H 591.944 0.150666 -2.57159 0
M  V30 6476 H 591.902 1.8789 -2.52081 0
M  V30 6477 N 595.674 1.31259 -0.872281 0
M  V30 6478 C 596.923 1.95893 -0.480493 0
M  V30 6479 C 597.236 1.697 0.972688 0
M  V30 6480 O 598.442 2.28214 1.47073 0
M  V30 6481 C 596.898 3.50705 -0.808342 0
M  V30 6482 C 596.506 3.85735 -2.27844 0
M  V30 6483 C 598.25 4.21719 -0.485136 0
M  V30 6484 C 596.157 5.33668 -2.54858 0
M  V30 6485 H 595.087 0.733182 -0.175955 0
M  V30 6486 H 597.738 1.49396 -1.0655 0
M  V30 6487 H 596.12 3.95706 -0.152558 0
M  V30 6488 H 597.294 3.51686 -2.97748 0
M  V30 6489 H 595.609 3.27792 -2.56791 0
M  V30 6490 H 598.206 5.30559 -0.664166 0
M  V30 6491 H 598.549 4.12316 0.574592 0
M  V30 6492 H 599.082 3.82359 -1.09756 0
M  V30 6493 H 595.821 5.48109 -3.59523 0
M  V30 6494 H 595.341 5.69061 -1.8955 0
M  V30 6495 H 597.02 6.00958 -2.39706 0
M  V30 6496 N 597.152 0.631951 1.44375 0
M  V30 6497 C 598.563 0.219036 1.85411 0
M  V30 6498 C 598.914 -1.22974 1.52879 0
M  V30 6499 O 598.039 -1.93579 0.967266 0
M  V30 6500 C 598.634 0.39075 3.36539 0
M  V30 6501 C 597.193 0.0323351 3.76386 0
M  V30 6502 C 596.34 0.703744 2.68221 0
M  V30 6503 H 599.291 0.837056 1.3483 0
M  V30 6504 H 599.312 -0.370056 3.78696 0
M  V30 6505 H 598.824 1.44527 3.60185 0
M  V30 6506 H 596.925 -1.02042 3.58355 0
M  V30 6507 H 597.038 0.442969 4.77048 0
M  V30 6508 H 595.402 0.138974 2.54321 0
M  V30 6509 H 596.185 1.76088 2.947 0
M  V30 6510 N 598.631 -1.53133 0.372548 0
M  V30 6511 C 600.042 -1.86404 -0.105155 0
M  V30 6512 C 600.393 -1.29289 -1.47576 0
M  V30 6513 O 599.518 -0.617646 -2.07398 0
M  V30 6514 C 600.113 -3.38223 -0.197588 0
M  V30 6515 C 598.672 -3.71266 -0.619556 0
M  V30 6516 C 597.819 -2.76353 0.228919 0
M  V30 6517 H 600.77 -1.47282 0.591077 0
M  V30 6518 H 600.791 -3.66577 -1.01987 0
M  V30 6519 H 600.303 -3.79763 0.800099 0
M  V30 6520 H 598.404 -3.35287 -1.62522 0
M  V30 6521 H 598.517 -4.77515 -0.389332 0
M  V30 6522 H 596.881 -2.52888 -0.303271 0
M  V30 6523 H 597.664 -3.20728 1.22428 0
M  V30 6524 N 600.109 -0.101901 -1.5727 0
M  V30 6525 C 601.386 0.602832 -1.86079 0
M  V30 6526 C 601.766 1.85912 -1 0
M  V30 6527 O 601.114 2.28379 -0.0742488 0
M  V30 6528 C 601.324 0.911694 -3.36881 0
M  V30 6529 C 602.672 1.2722 -4.05093 0
M  V30 6530 O 603.696 1.0025 -3.41802 0
M  V30 6531 O 602.555 1.7776 -5.16782 0
M  V30 6532 H 599.649 0.302366 -0.769743 0
M  V30 6533 H 602.195 -0.135113 -1.69161 0
M  V30 6534 H 600.967 0.0207256 -3.91295 0
M  V30 6535 H 600.59 1.70538 -3.59169 0
M  V30 6536 N 601.587 1.56661 0.17182 0
M  V30 6537 C 602.835 1.81606 0.886774 0
M  V30 6538 C 603.156 0.678818 1.82803 0
M  V30 6539 O 602.426 -0.301354 1.93568 0
M  V30 6540 H 601.006 0.669934 0.330451 0
M  V30 6541 H 603.668 1.94142 0.171757 0
M  V30 6542 H 602.764 2.75634 1.46398 0
M  V30 6543 N 603.065 -0.440357 1.51323 0
M  V30 6544 C 604.312 -1.19004 1.63842 0
M  V30 6545 C 604.64 -1.91266 0.35321 0
M  V30 6546 O 603.895 -1.84143 -0.662565 0
M  V30 6547 C 604.194 -2.2339 2.78984 0
M  V30 6548 C 603.86 -1.68162 4.18369 0
M  V30 6549 C 602.522 -1.52823 4.56288 0
M  V30 6550 C 604.874 -1.27524 5.05358 0
M  V30 6551 C 602.202 -0.953157 5.78906 0
M  V30 6552 C 604.554 -0.714474 6.28552 0
M  V30 6553 C 603.218 -0.547961 6.65247 0
M  V30 6554 H 602.488 -0.435468 0.59954 0
M  V30 6555 H 605.135 -0.481538 1.85347 0
M  V30 6556 H 603.44 -3.00267 2.51688 0
M  V30 6557 H 605.137 -2.81211 2.85869 0
M  V30 6558 H 601.727 -1.81077 3.8847 0
M  V30 6559 H 605.911 -1.38197 4.76671 0
M  V30 6560 H 601.167 -0.811882 6.05986 0
M  V30 6561 H 605.341 -0.391059 6.95301 0
M  V30 6562 H 602.968 -0.100222 7.60134 0
M  V30 6563 N 604.543 -1.41418 -0.695603 0
M  V30 6564 C 605.49 -1.43264 -1.80954 0
M  V30 6565 C 606.46 -0.287016 -1.63601 0
M  V30 6566 O 607.645 -0.488054 -1.84452 0
M  V30 6567 C 604.785 -1.32054 -3.18835 0
M  V30 6568 C 603.898 -2.56485 -3.4762 0
M  V30 6569 C 603.033 -2.3757 -4.75115 0
M  V30 6570 C 602.072 -3.57477 -4.96867 0
M  V30 6571 N 601.209 -3.37632 -6.15588 0
M  V30 6572 H 606.049 -2.38467 -1.78711 0
M  V30 6573 H 603.586 -1.18415 -0.872715 0
M  V30 6574 H 605.544 -1.23558 -3.98484 0
M  V30 6575 H 604.174 -0.404592 -3.20254 0
M  V30 6576 H 603.226 -2.75432 -2.62376 0
M  V30 6577 H 604.538 -3.45678 -3.59594 0
M  V30 6578 H 603.692 -2.2654 -5.62818 0
M  V30 6579 H 602.431 -1.45834 -4.65386 0
M  V30 6580 H 601.436 -3.68961 -4.07612 0
M  V30 6581 H 602.661 -4.50167 -5.08455 0
M  V30 6582 H 600.607 -2.48596 -6.07072 0
M  V30 6583 H 600.524 -4.20401 -6.2833 0
M  V30 6584 H 601.792 -3.30375 -7.06026 0
M  V30 6585 N 606.021 0.929856 -1.27246 0
M  V30 6586 C 606.953 2.03434 -1.0558 0
M  V30 6587 C 607.966 1.62795 -0.0125762 0
M  V30 6588 O 609.155 1.76685 -0.2539 0
M  V30 6589 C 606.255 3.33915 -0.57912 0
M  V30 6590 C 605.428 4.03259 -1.69415 0
M  V30 6591 C 604.487 5.12014 -1.21357 0
M  V30 6592 O 603.513 5.36097 -1.91282 0
M  V30 6593 N 604.715 5.8046 -0.0680622 0
M  V30 6594 H 607.48 2.22583 -2.00691 0
M  V30 6595 H 605.041 1.1001 -1.18783 0
M  V30 6596 H 607.033 4.03978 -0.241563 0
M  V30 6597 H 605.603 3.11355 0.278703 0
M  V30 6598 H 604.823 3.26958 -2.20209 0
M  V30 6599 H 606.111 4.46337 -2.44255 0
M  V30 6600 H 605.509 5.63345 0.515626 0
M  V30 6601 H 604.066 6.51461 0.210332 0
M  V30 6602 N 607.499 1.09233 1.13605 0
M  V30 6603 C 608.748 0.82205 1.84188 0
M  V30 6604 C 609.061 -0.654548 1.84323 0
M  V30 6605 O 610.267 -1.04029 2.50779 0
M  V30 6606 C 608.723 1.42066 3.30674 0
M  V30 6607 C 608.331 2.92965 3.38933 0
M  V30 6608 C 610.075 1.22924 4.06313 0
M  V30 6609 C 607.982 3.45922 4.79679 0
M  V30 6610 H 606.912 0.303854 0.690064 0
M  V30 6611 H 609.563 1.31479 1.28006 0
M  V30 6612 H 607.945 0.855613 3.86646 0
M  V30 6613 H 609.119 3.55679 2.92966 0
M  V30 6614 H 607.434 3.11118 2.76757 0
M  V30 6615 H 610.031 1.59945 5.10217 0
M  V30 6616 H 610.374 0.169726 4.15954 0
M  V30 6617 H 610.907 1.76168 3.56665 0
M  V30 6618 H 607.646 4.51484 4.75229 0
M  V30 6619 H 607.166 2.87971 5.26149 0
M  V30 6620 H 608.845 3.43009 5.48592 0
M  V30 6621 N 608.977 -1.30795 0.87923 0
M  V30 6622 C 610.393 -1.48981 0.57243 0
M  V30 6623 C 610.593 -1.80719 -0.891236 0
M  V30 6624 O 609.649 -1.89136 -1.67283 0
M  V30 6625 C 610.962 -2.61721 1.48063 0
M  V30 6626 C 612.51 -2.75603 1.48365 0
M  V30 6627 C 612.985 -3.91449 2.37763 0
M  V30 6628 N 614.476 -3.98751 2.35695 0
M  V30 6629 C 615.211 -4.87684 3.01583 0
M  V30 6630 N 614.707 -5.81454 3.76674 0
M  V30 6631 N 616.5 -4.81005 2.90844 0
M  V30 6632 H 608.651 -1.08465 1.82617 0
M  V30 6633 H 610.914 -0.536813 0.781368 0
M  V30 6634 H 610.62 -2.45073 2.52254 0
M  V30 6635 H 610.494 -3.58071 1.18596 0
M  V30 6636 H 612.881 -2.9166 0.44927 0
M  V30 6637 H 612.962 -1.79891 1.81859 0
M  V30 6638 H 612.606 -3.76149 3.41283 0
M  V30 6639 H 612.536 -4.86487 2.01589 0
M  V30 6640 H 615.027 -3.31668 1.81121 0
M  V30 6641 H 615.34 -6.46063 4.24054 0
M  V30 6642 H 613.685 -5.81403 3.80782 0
M  V30 6643 H 616.876 -4.06728 2.31711 0
M  V30 6644 H 617.049 -5.50107 3.42471 0
M  V30 6645 N 610.455 -0.639598 -1.44038 0
M  V30 6646 C 611.387 0.0987684 -2.28987 0
M  V30 6647 C 612.4 0.80058 -1.41755 0
M  V30 6648 O 613.589 0.660611 -1.65826 0
M  V30 6649 C 610.689 1.16242 -3.18341 0
M  V30 6650 C 609.862 0.541447 -4.34036 0
M  V30 6651 C 608.921 1.50017 -5.04362 0
M  V30 6652 O 607.947 1.01403 -5.60095 0
M  V30 6653 N 609.149 2.83441 -5.06598 0
M  V30 6654 H 611.914 -0.630305 -2.92997 0
M  V30 6655 H 609.475 -0.481376 -1.54578 0
M  V30 6656 H 611.467 1.80429 -3.62253 0
M  V30 6657 H 610.037 1.79362 -2.56024 0
M  V30 6658 H 609.257 -0.27923 -3.9321 0
M  V30 6659 H 610.545 0.107379 -5.08687 0
M  V30 6660 H 609.943 3.2551 -4.62666 0
M  V30 6661 H 608.5 3.42966 -5.54272 0
M  V30 6662 N 611.933 1.52934 -0.380664 0
M  V30 6663 C 613.181 2.01069 0.203874 0
M  V30 6664 C 613.502 1.26922 1.4804 0
M  V30 6665 O 612.772 0.386787 1.92044 0
M  V30 6666 H 611.352 0.742882 0.0783279 0
M  V30 6667 H 614.014 1.88099 -0.510368 0
M  V30 6668 H 613.11 3.09258 0.42021 0
M  V30 6669 N 613.412 0.11024 1.57214 0
M  V30 6670 C 614.345 -0.880224 2.1054 0
M  V30 6671 C 615.323 -1.26658 1.01964 0
M  V30 6672 O 616.507 -1.36917 1.29561 0
M  V30 6673 C 613.634 -2.17676 2.59489 0
M  V30 6674 C 612.68 -1.93914 3.79868 0
M  V30 6675 S 613.513 -1.16336 5.2271 0
M  V30 6676 C 614.669 -2.47188 5.75021 0
M  V30 6677 H 614.902 -0.426614 2.94223 0
M  V30 6678 H 612.435 -0.10336 1.54054 0
M  V30 6679 H 614.393 -2.92175 2.88347 0
M  V30 6680 H 613.054 -2.60156 1.76005 0
M  V30 6681 H 612.247 -2.8996 4.12236 0
M  V30 6682 H 611.849 -1.27539 3.51582 0
M  V30 6683 H 614.141 -3.43079 5.84211 0
M  V30 6684 H 615.084 -2.19377 6.7326 0
M  V30 6685 H 615.492 -2.56154 5.03036 0
M  V30 6686 N 614.89 -1.56749 -0.16351 0
M  V30 6687 C 616.139 -1.81626 -0.877211 0
M  V30 6688 C 616.452 -0.688791 -1.83071 0
M  V30 6689 O 617.658 -0.822697 -2.58735 0
M  V30 6690 C 616.114 -3.21858 -1.61045 0
M  V30 6691 C 615.722 -4.42494 -0.700195 0
M  V30 6692 C 617.466 -3.56021 -2.31192 0
M  V30 6693 C 615.373 -5.73748 -1.43412 0
M  V30 6694 H 614.303 -0.67731 -0.331312 0
M  V30 6695 H 616.954 -1.83039 -0.13006 0
M  V30 6696 H 615.336 -3.14784 -2.40264 0
M  V30 6697 H 616.51 -4.60766 0.0555849 0
M  V30 6698 H 614.825 -4.1626 -0.10799 0
M  V30 6699 H 617.422 -4.51333 -2.8671 0
M  V30 6700 H 617.765 -2.81277 -3.06902 0
M  V30 6701 H 618.298 -3.64682 -1.58909 0
M  V30 6702 H 615.037 -6.51543 -0.719186 0
M  V30 6703 H 614.557 -5.5944 -2.16302 0
M  V30 6704 H 616.236 -6.15975 -1.9795 0
M  V30 6705 N 616.368 0.432326 -1.51554 0
M  V30 6706 C 617.596 1.20364 -1.68286 0
M  V30 6707 C 618.011 1.84888 -0.38233 0
M  V30 6708 O 617.368 1.70924 0.639627 0
M  V30 6709 C 617.419 2.28398 -2.80208 0
M  V30 6710 O 617.14 1.66512 -4.05223 0
M  V30 6711 C 618.641 3.18584 -3.08251 0
M  V30 6712 H 615.861 0.36259 -0.564596 0
M  V30 6713 H 618.405 0.511647 -1.97996 0
M  V30 6714 H 616.56 2.93305 -2.53083 0
M  V30 6715 H 616.974 2.37951 -4.67418 0
M  V30 6716 H 618.448 3.90511 -3.90135 0
M  V30 6717 H 618.925 3.79628 -2.2086 0
M  V30 6718 H 619.531 2.59372 -3.37055 0
M  V30 6719 N 617.846 1.41785 0.688094 0
M  V30 6720 C 618.776 1.47 1.8142 0
M  V30 6721 C 619.757 0.327881 1.6691 0
M  V30 6722 O 620.942 0.540362 1.86531 0
M  V30 6723 C 618.072 1.35876 3.19617 0
M  V30 6724 C 617.026 2.47976 3.48844 0
M  V30 6725 C 616.352 2.21915 4.86475 0
M  V30 6726 C 617.652 3.90309 3.47068 0
M  V30 6727 H 619.346 2.41247 1.77314 0
M  V30 6728 H 616.892 1.16116 0.851651 0
M  V30 6729 H 618.845 1.38134 3.98117 0
M  V30 6730 H 617.569 0.38116 3.24368 0
M  V30 6731 H 616.228 2.45013 2.72698 0
M  V30 6732 H 615.876 1.2248 4.8786 0
M  V30 6733 H 615.576 2.97037 5.06994 0
M  V30 6734 H 617.1 2.25901 5.67275 0
M  V30 6735 H 618.514 3.94947 4.1556 0
M  V30 6736 H 616.911 4.65175 3.7912 0
M  V30 6737 H 617.981 4.17927 2.45896 0
M  V30 6738 N 619.324 -0.923095 1.27737 0
M  V30 6739 C 620.573 -1.66581 1.13727 0
M  V30 6740 C 620.886 -1.9304 -0.315433 0
M  V30 6741 O 622.092 -2.65309 -0.57651 0
M  V30 6742 C 620.548 -3.00047 1.98745 0
M  V30 6743 C 620.156 -2.8127 3.48699 0
M  V30 6744 C 621.9 -3.77887 1.93395 0
M  V30 6745 C 619.807 -4.1032 4.25901 0
M  V30 6746 H 618.737 -0.624834 0.422017 0
M  V30 6747 H 621.388 -1.02514 1.52194 0
M  V30 6748 H 619.77 -3.65197 1.53125 0
M  V30 6749 H 620.944 -2.24859 4.02213 0
M  V30 6750 H 619.259 -2.16854 3.55476 0
M  V30 6751 H 621.856 -4.73526 2.48348 0
M  V30 6752 H 622.199 -4.06264 0.908605 0
M  V30 6753 H 622.732 -3.19541 2.36935 0
M  V30 6754 H 619.471 -3.8712 5.28978 0
M  V30 6755 H 618.991 -4.66377 3.77163 0
M  V30 6756 H 620.67 -4.78648 4.35321 0
M  V30 6757 N 620.802 -1.09834 -1.13024 0
M  V30 6758 C 621.732 -0.763451 -2.20666 0
M  V30 6759 C 622.713 0.260778 -1.68089 0
M  V30 6760 O 623.898 0.127915 -1.93778 0
M  V30 6761 C 621.028 -0.187744 -3.46792 0
M  V30 6762 C 619.982 -1.14196 -4.12484 0
M  V30 6763 C 619.308 -0.427755 -5.32986 0
M  V30 6764 C 620.608 -2.48607 -4.59338 0
M  V30 6765 H 622.302 -1.66347 -2.48936 0
M  V30 6766 H 619.848 -0.801261 -1.19649 0
M  V30 6767 H 621.801 0.0586375 -4.21359 0
M  V30 6768 H 620.525 0.747485 -3.17931 0
M  V30 6769 H 619.184 -1.37369 -3.3989 0
M  V30 6770 H 618.832 0.511747 -5.0039 0
M  V30 6771 H 618.532 -1.06403 -5.77886 0
M  V30 6772 H 620.056 -0.189772 -6.10305 0
M  V30 6773 H 621.47 -2.29618 -5.25308 0
M  V30 6774 H 619.867 -3.08062 -5.14993 0
M  V30 6775 H 620.937 -3.09062 -3.73642 0
M  V30 6776 N 622.28 1.30327 -0.886154 0
M  V30 6777 C 623.243 2.26376 -0.358687 0
M  V30 6778 C 624.243 1.52845 0.499498 0
M  V30 6779 O 625.433 1.71483 0.306485 0
M  V30 6780 C 622.565 3.37379 0.488726 0
M  V30 6781 H 623.758 2.74547 -1.20681 0
M  V30 6782 H 621.311 1.41536 -0.663113 0
M  V30 6783 H 622.046 2.94526 1.35739 0
M  V30 6784 H 621.831 3.91897 -0.126003 0
M  V30 6785 H 623.321 4.08868 0.84952 0
M  V30 6786 N 623.758 0.647228 1.43697 0
M  V30 6787 C 624.986 0.16575 2.06235 0
M  V30 6788 C 625.401 -1.1662 1.48476 0
M  V30 6789 O 624.758 -1.7187 0.613762 0
M  V30 6790 C 624.809 0.0621651 3.61447 0
M  V30 6791 O 624.53 1.34146 4.17057 0
M  V30 6792 C 626.031 -0.446102 4.4105 0
M  V30 6793 H 623.251 0.0871158 0.665321 0
M  V30 6794 H 625.795 0.886183 1.84301 0
M  V30 6795 H 623.95 -0.608794 3.82587 0
M  V30 6796 H 624.364 1.19675 5.10664 0
M  V30 6797 H 625.838 -0.46755 5.50016 0
M  V30 6798 H 626.315 -1.47627 4.13646 0
M  V30 6799 H 626.921 0.192159 4.24866 0
M  V30 6800 N 625.236 -1.5273 0.388769 0
M  V30 6801 C 626.513 -1.93981 -0.251133 0
M  V30 6802 C 626.893 -1.32418 -1.64404 0
M  V30 6803 O 626.241 -0.492074 -2.23139 0
M  V30 6804 C 626.451 -3.47891 -0.27802 0
M  V30 6805 C 627.799 -4.21559 -0.507229 0
M  V30 6806 O 628.823 -3.54394 -0.358252 0
M  V30 6807 O 627.682 -5.40626 -0.799094 0
M  V30 6808 H 624.776 -0.812157 -0.15598 0
M  V30 6809 H 627.322 -1.63809 0.443237 0
M  V30 6810 H 626.094 -3.8503 0.697669 0
M  V30 6811 H 625.717 -3.84364 -1.01733 0
M  V30 6812 N 626.714 -0.118576 -1.57153 0
M  V30 6813 C 627.647 0.869046 -2.11004 0
M  V30 6814 C 628.625 1.26115 -1.02634 0
M  V30 6815 O 629.809 1.36228 -1.30285 0
M  V30 6816 C 626.936 2.16297 -2.6064 0
M  V30 6817 C 625.982 1.91896 -3.80891 0
M  V30 6818 S 626.815 1.13562 -5.2332 0
M  V30 6819 C 627.971 2.44135 -5.76324 0
M  V30 6820 H 628.204 0.411005 -2.94445 0
M  V30 6821 H 625.737 0.0951891 -1.54106 0
M  V30 6822 H 627.695 2.90642 -2.89892 0
M  V30 6823 H 626.356 2.59219 -1.77382 0
M  V30 6824 H 625.549 2.8777 -4.13768 0
M  V30 6825 H 625.151 1.25672 -3.52253 0
M  V30 6826 H 627.443 3.39976 -5.86022 0
M  V30 6827 H 628.386 2.15803 -6.74414 0
M  V30 6828 H 628.794 2.53483 -5.04387 0
M  V30 6829 N 628.193 1.56834 0.155195 0
M  V30 6830 C 629.156 1.96748 1.17571 0
M  V30 6831 C 630.156 0.853006 1.3631 0
M  V30 6832 O 631.346 1.11978 1.33441 0
M  V30 6833 C 628.478 2.27631 2.53765 0
M  V30 6834 H 629.671 2.88085 0.833498 0
M  V30 6835 H 627.224 1.51141 0.398242 0
M  V30 6836 H 627.959 1.39059 2.92973 0
M  V30 6837 H 627.744 3.0888 2.41527 0
M  V30 6838 H 629.234 2.59377 3.27282 0
M  V30 6839 N 629.671 -0.424282 1.51781 0
M  V30 6840 C 631.087 -0.761768 1.40247 0
M  V30 6841 C 631.287 -1.95324 0.495041 0
M  V30 6842 O 630.343 -2.5246 -0.0448949 0
M  V30 6843 C 631.656 -1.0299 2.82513 0
M  V30 6844 C 633.204 -1.13354 2.91753 0
M  V30 6845 C 633.679 -1.43453 4.34954 0
M  V30 6846 N 635.17 -1.5035 4.3812 0
M  V30 6847 C 635.905 -1.75236 5.45967 0
M  V30 6848 N 635.401 -1.97827 6.63955 0
M  V30 6849 N 637.194 -1.77126 5.33463 0
M  V30 6850 H 629.345 0.360228 2.09323 0
M  V30 6851 H 631.608 0.0988128 0.942836 0
M  V30 6852 H 631.314 -0.226961 3.50967 0
M  V30 6853 H 631.188 -1.95411 3.22637 0
M  V30 6854 H 633.575 -1.92709 2.23489 0
M  V30 6855 H 633.656 -0.188041 2.55108 0
M  V30 6856 H 633.3 -0.646209 5.03772 0
M  V30 6857 H 633.23 -2.3923 4.69123 0
M  V30 6858 H 635.721 -1.34742 3.53062 0
M  V30 6859 H 636.034 -2.16223 7.41935 0
M  V30 6860 H 634.379 -1.95123 6.67047 0
M  V30 6861 H 637.57 -1.59005 4.40267 0
M  V30 6862 H 637.743 -1.96182 6.17589 0
M  V30 6863 N 631.149 -1.42148 -0.680565 0
M  V30 6864 C 632.099 -1.41634 -1.78672 0
M  V30 6865 C 633.083 -0.288494 -1.58293 0
M  V30 6866 O 634.275 -0.530295 -1.68869 0
M  V30 6867 C 631.404 -1.31558 -3.17092 0
M  V30 6868 C 630.49 -2.49265 -3.43115 0
M  V30 6869 N 630.881 -3.74702 -3.39753 0
M  V30 6870 C 629.179 -2.43401 -3.73727 0
M  V30 6871 C 629.88 -4.52854 -3.651 0
M  V30 6872 N 628.856 -3.83181 -3.85582 0
M  V30 6873 H 632.658 -2.3652 -1.74458 0
M  V30 6874 H 630.172 -1.36415 -0.881171 0
M  V30 6875 H 632.169 -1.29272 -3.96351 0
M  V30 6876 H 630.829 -0.376696 -3.22508 0
M  V30 6877 H 631.84 -4.07378 -3.19787 0
M  V30 6878 H 628.517 -1.58062 -3.86423 0
M  V30 6879 H 629.907 -5.61827 -3.6851 0
M  V30 6880 N 632.627 0.916307 -1.28225 0
M  V30 6881 C 633.59 1.99996 -1.11957 0
M  V30 6882 C 634.59 1.60688 -0.0600152 0
M  V30 6883 O 635.78 1.71499 -0.30558 0
M  V30 6884 C 632.912 3.33458 -0.708411 0
M  V30 6885 H 634.105 2.15858 -2.08196 0
M  V30 6886 H 631.658 1.09863 -1.11175 0
M  V30 6887 H 632.393 3.23297 0.254859 0
M  V30 6888 H 632.178 3.63349 -1.47377 0
M  V30 6889 H 633.668 4.13014 -0.617164 0
M  V30 6890 N 634.105 1.10431 1.1244 0
M  V30 6891 C 635.015 0.765502 2.21759 0
M  V30 6892 C 636.031 -0.236966 1.72379 0
M  V30 6893 O 637.207 -0.0757329 2.01258 0
M  V30 6894 C 634.272 0.202316 3.46109 0
M  V30 6895 C 633.333 1.26205 4.1033 0
M  V30 6896 C 632.566 0.725648 5.28744 0
M  V30 6897 O 632.789 -0.447942 5.68638 0
M  V30 6898 O 631.723 1.48555 5.83279 0
M  V30 6899 H 635.549 1.67801 2.53133 0
M  V30 6900 H 633.134 0.879443 1.20773 0
M  V30 6901 H 635.016 -0.107918 4.21262 0
M  V30 6902 H 633.691 -0.683052 3.16411 0
M  V30 6903 H 632.598 1.62514 3.36957 0
M  V30 6904 H 633.931 2.12044 4.44183 0
M  V30 6905 N 635.583 -1.29855 0.893053 0
M  V30 6906 C 636.832 -1.95104 0.511597 0
M  V30 6907 C 637.145 -1.71226 -0.945567 0
M  V30 6908 O 638.351 -2.30525 -1.43424 0
M  V30 6909 C 636.807 -3.49374 0.864034 0
M  V30 6910 C 636.415 -3.82061 2.33952 0
M  V30 6911 C 638.159 -4.20894 0.552167 0
M  V30 6912 C 636.066 -5.29546 2.63316 0
M  V30 6913 H 634.996 -0.73029 0.187597 0
M  V30 6914 H 637.647 -1.47682 1.08914 0
M  V30 6915 H 636.029 -3.95413 0.215493 0
M  V30 6916 H 637.203 -3.46904 3.03305 0
M  V30 6917 H 635.518 -3.23665 2.61973 0
M  V30 6918 H 638.115 -5.29435 0.748489 0
M  V30 6919 H 638.458 -4.13178 -0.508924 0
M  V30 6920 H 638.991 -3.80564 1.15825 0
M  V30 6921 H 635.73 -5.4232 3.68197 0
M  V30 6922 H 635.25 -5.65974 1.9858 0
M  V30 6923 H 636.929 -5.97068 2.49236 0
M  V30 6924 N 637.061 -0.65484 -1.43351 0
M  V30 6925 C 637.994 0.0855537 -2.2804 0
M  V30 6926 C 638.972 0.828301 -1.39921 0
M  V30 6927 O 640.156 0.827539 -1.69364 0
M  V30 6928 C 637.283 1.12792 -3.19368 0
M  V30 6929 C 636.329 0.483037 -4.23756 0
M  V30 6930 S 637.162 -0.744605 -5.30298 0
M  V30 6931 C 638.318 0.297187 -6.25194 0
M  V30 6932 H 638.551 -0.632831 -2.90487 0
M  V30 6933 H 636.084 -0.44373 -1.47886 0
M  V30 6934 H 638.042 1.7243 -3.72529 0
M  V30 6935 H 636.703 1.81863 -2.56095 0
M  V30 6936 H 635.896 1.26888 -4.87766 0
M  V30 6937 H 635.498 -0.0392713 -3.73979 0
M  V30 6938 H 637.79 1.1629 -6.67445 0
M  V30 6939 H 638.733 -0.30793 -7.0743 0
M  V30 6940 H 639.141 0.633721 -5.60932 0
M  V30 6941 N 638.539 1.52521 -0.396863 0
M  V30 6942 C 639.816 1.94112 0.240842 0
M  V30 6943 C 640.196 1.33288 1.637 0
M  V30 6944 O 639.544 0.503901 2.22875 0
M  V30 6945 C 639.754 3.48033 0.259567 0
M  V30 6946 C 641.102 4.21822 0.484866 0
M  V30 6947 O 642.126 3.54579 0.339453 0
M  V30 6948 O 640.985 5.41042 0.770412 0
M  V30 6949 H 638.079 0.812973 0.151671 0
M  V30 6950 H 640.625 1.63572 -0.451918 0
M  V30 6951 H 639.397 3.84655 -0.718078 0
M  V30 6952 H 639.02 3.84899 0.996937 0
M  V30 6953 N 640.017 0.126909 1.57088 0
M  V30 6954 C 641.242 -0.53997 2.00248 0
M  V30 6955 C 641.667 -1.58927 1.00618 0
M  V30 6956 O 641.025 -1.81288 -0.0210131 0
M  V30 6957 C 641.073 -1.13565 3.4225 0
M  V30 6958 O 640.177 -2.25103 3.45547 0
M  V30 6959 H 639.518 -0.13412 0.650314 0
M  V30 6960 H 642.048 0.217718 2.03438 0
M  V30 6961 H 642.058 -1.46925 3.80627 0
M  V30 6962 H 640.733 -0.367122 4.14277 0
M  V30 6963 H 639.31 -1.93123 3.18995 0
M  V30 6964 N 641.495 -1.56914 -0.146875 0
M  V30 6965 C 642.742 -1.83356 -0.859467 0
M  V30 6966 C 643.07 -0.707811 -1.81164 0
M  V30 6967 O 642.325 0.303155 -1.93338 0
M  V30 6968 C 642.624 -3.16128 -1.66727 0
M  V30 6969 C 642.29 -4.42586 -0.861881 0
M  V30 6970 C 640.952 -4.76929 -0.639687 0
M  V30 6971 C 643.304 -5.20344 -0.298643 0
M  V30 6972 C 640.632 -5.86491 0.156451 0
M  V30 6973 C 642.984 -6.30742 0.484536 0
M  V30 6974 C 641.648 -6.63635 0.717306 0
M  V30 6975 H 640.918 -0.670947 -0.314501 0
M  V30 6976 H 643.565 -1.91104 -0.123108 0
M  V30 6977 H 641.87 -3.03831 -2.47374 0
M  V30 6978 H 643.567 -3.33802 -2.2221 0
M  V30 6979 H 640.157 -4.15662 -1.04513 0
M  V30 6980 H 644.341 -4.94186 -0.457585 0
M  V30 6981 H 639.597 -6.10419 0.346292 0
M  V30 6982 H 643.771 -6.90188 0.928105 0
M  V30 6983 H 641.398 -7.48367 1.33607 0
M  V30 6984 N 642.974 0.416227 -1.52004 0
M  V30 6985 C 643.921 1.50666 -1.74838 0
M  V30 6986 C 644.891 1.55245 -0.590599 0
M  V30 6987 O 646.076 1.71928 -0.827374 0
M  V30 6988 C 643.216 2.88185 -1.89851 0
M  V30 6989 C 642.329 2.92971 -3.17478 0
M  V30 6990 C 641.464 4.21745 -3.22962 0
M  V30 6991 C 640.503 4.20478 -4.4482 0
M  V30 6992 N 639.64 5.40811 -4.47736 0
M  V30 6993 H 644.48 1.30498 -2.67907 0
M  V30 6994 H 642.017 0.633568 -1.32757 0
M  V30 6995 H 643.975 3.68007 -1.96537 0
M  V30 6996 H 642.605 3.06865 -1.00169 0
M  V30 6997 H 641.657 2.05684 -3.19997 0
M  V30 6998 H 642.969 2.87899 -4.07328 0
M  V30 6999 H 642.123 5.09954 -3.28682 0
M  V30 7000 H 640.862 4.29503 -2.31038 0
M  V30 7001 H 639.867 3.30659 -4.39254 0
M  V30 7002 H 641.092 4.14366 -5.38031 0
M  V30 7003 H 639.038 5.4925 -3.58692 0
M  V30 7004 H 638.955 5.37705 -5.31422 0
M  V30 7005 H 640.223 6.30993 -4.57676 0
M  V30 7006 N 644.452 1.42507 0.673017 0
M  V30 7007 C 645.362 1.4853 1.81593 0
M  V30 7008 C 646.378 0.373907 1.69935 0
M  V30 7009 O 647.554 0.625078 1.91454 0
M  V30 7010 C 644.619 1.387 3.17747 0
M  V30 7011 C 643.68 2.60346 3.41348 0
M  V30 7012 C 642.913 2.50975 4.71007 0
M  V30 7013 O 643.136 1.54659 5.49033 0
M  V30 7014 O 642.07 3.41138 4.95892 0
M  V30 7015 H 645.896 2.45001 1.79467 0
M  V30 7016 H 643.481 1.2429 0.82899 0
M  V30 7017 H 645.363 1.35586 3.98992 0
M  V30 7018 H 644.038 0.453555 3.20507 0
M  V30 7019 H 642.945 2.69034 2.59945 0
M  V30 7020 H 644.278 3.52595 3.43421 0
M  V30 7021 N 645.93 -0.909495 1.28709 0
M  V30 7022 C 646.877 -2.01245 1.13 0
M  V30 7023 C 647.847 -1.6608 0.0259684 0
M  V30 7024 O 649.032 -1.89835 0.191687 0
M  V30 7025 C 646.172 -3.35644 0.802315 0
M  V30 7026 C 645.285 -3.83653 1.98582 0
M  V30 7027 C 644.42 -5.06582 1.59837 0
M  V30 7028 C 643.459 -5.46934 2.74827 0
M  V30 7029 N 642.596 -6.61053 2.36546 0
M  V30 7030 H 647.436 -2.14013 2.0737 0
M  V30 7031 H 644.973 -1.0482 1.03205 0
M  V30 7032 H 646.931 -4.12963 0.593057 0
M  V30 7033 H 645.561 -3.22631 -0.104457 0
M  V30 7034 H 644.613 -3.02454 2.30708 0
M  V30 7035 H 645.925 -4.09515 2.84779 0
M  V30 7036 H 645.079 -5.91457 1.35143 0
M  V30 7037 H 643.818 -4.82537 0.707753 0
M  V30 7038 H 642.823 -4.60599 3.00215 0
M  V30 7039 H 644.048 -5.72965 3.64538 0
M  V30 7040 H 641.994 -6.3863 1.49959 0
M  V30 7041 H 641.911 -6.86662 3.16277 0
M  V30 7042 H 643.179 -7.49221 2.15146 0
M  V30 7043 N 647.408 -1.11026 -1.11852 0
M  V30 7044 C 648.341 -0.708501 -2.16923 0
M  V30 7045 C 649.319 0.293196 -1.59935 0
M  V30 7046 O 650.503 0.190641 -1.87533 0
M  V30 7047 C 647.63 -0.0463705 -3.38668 0
M  V30 7048 C 646.676 -1.01252 -4.14307 0
M  V30 7049 S 647.509 -2.53291 -4.71809 0
M  V30 7050 C 648.665 -1.88366 -5.96883 0
M  V30 7051 H 648.898 -1.59854 -2.50667 0
M  V30 7052 H 646.431 -0.927869 -1.2341 0
M  V30 7053 H 648.389 0.329314 -4.09177 0
M  V30 7054 H 647.05 0.820562 -3.03192 0
M  V30 7055 H 646.243 -0.496596 -5.01548 0
M  V30 7056 H 645.845 -1.33042 -3.49537 0
M  V30 7057 H 648.137 -1.21753 -6.6647 0
M  V30 7058 H 649.08 -2.73588 -6.53112 0
M  V30 7059 H 649.488 -1.34562 -5.48227 0
M  V30 7060 N 648.886 1.2938 -0.899927 0
M  V30 7061 C 649.796 2.31462 -0.382437 0
M  V30 7062 C 650.812 1.65956 0.522929 0
M  V30 7063 O 651.988 1.97131 0.412454 0
M  V30 7064 C 649.053 3.44595 0.381472 0
M  V30 7065 C 648.114 4.25692 -0.555444 0
M  V30 7066 C 647.347 5.33422 0.172102 0
M  V30 7067 O 647.57 5.53053 1.396 0
M  V30 7068 O 646.504 5.99939 -0.485491 0
M  V30 7069 H 650.33 2.77706 -1.22934 0
M  V30 7070 H 647.915 1.33821 -0.664259 0
M  V30 7071 H 649.797 4.13474 0.813442 0
M  V30 7072 H 648.472 3.00458 1.20443 0
M  V30 7073 H 647.379 3.59453 -1.03653 0
M  V30 7074 H 648.712 4.73471 -1.34483 0
M  V30 7075 N 650.364 0.662433 1.43002 0
M  V30 7076 C 651.312 -0.035345 2.32573 0
M  V30 7077 C 652.306 -0.803505 1.49131 0
M  V30 7078 O 653.512 -0.712865 1.65282 0
M  V30 7079 H 649.887 -0.0302194 0.751393 0
M  V30 7080 H 651.858 0.737686 2.89138 0
M  V30 7081 C 650.607 -0.981575 3.33557 0
M  V30 7082 H 649.93 -0.399914 3.97795 0
M  V30 7083 H 651.37 -1.43873 3.98844 0
M  V30 7084 C 649.829 -2.08204 2.64863 0
M  V30 7085 O 650.359 -3.16698 2.47113 0
M  V30 7086 N 648.565 -1.85022 2.24088 0
M  V30 7087 H 648.112 -0.967909 2.38724 0
M  V30 7088 H 648.07 -2.58845 1.78457 0
M  V30 7089 N 651.842 -1.52309 0.404946 0
M  V30 7090 C 653.089 -2.01767 -0.1722 0
M  V30 7091 C 653.417 -1.29075 -1.45498 0
M  V30 7092 O 652.672 -0.3843 -1.9189 0
M  V30 7093 C 652.971 -3.54284 -0.470895 0
M  V30 7094 C 652.637 -4.45079 0.722194 0
M  V30 7095 C 651.299 -4.69617 1.04946 0
M  V30 7096 C 653.651 -4.98555 1.51962 0
M  V30 7097 C 650.979 -5.44878 2.17543 0
M  V30 7098 C 653.331 -5.75049 2.63632 0
M  V30 7099 C 651.995 -5.9786 2.9685 0
M  V30 7100 H 651.265 -0.738316 -0.0630125 0
M  V30 7101 H 653.912 -1.83566 0.545506 0
M  V30 7102 H 652.217 -3.70642 -1.27012 0
M  V30 7103 H 653.914 -3.90058 -0.930346 0
M  V30 7104 H 650.504 -4.26155 0.457131 0
M  V30 7105 H 654.688 -4.79509 1.28002 0
M  V30 7106 H 649.944 -5.60762 2.43631 0
M  V30 7107 H 654.118 -6.15483 3.25813 0
M  V30 7108 H 651.745 -6.5596 3.84215 0
M  V30 7109 N 653.32 -0.135238 -1.57019 0
M  V30 7110 C 654.597 0.563227 -1.87316 0
M  V30 7111 C 654.977 1.83749 -1.03921 0
M  V30 7112 O 654.325 2.2817 -0.122675 0
M  V30 7113 C 654.535 0.840031 -3.3874 0
M  V30 7114 C 655.883 1.18598 -4.077 0
M  V30 7115 O 656.907 0.92977 -3.43851 0
M  V30 7116 O 655.766 1.66758 -5.20436 0
M  V30 7117 H 652.86 0.285971 -0.775983 0
M  V30 7118 H 655.406 -0.170965 -1.68837 0
M  V30 7119 H 654.178 -0.0622785 -3.9125 0
M  V30 7120 H 653.801 1.62882 -3.62706 0
M  V30 7121 N 654.798 1.5699 0.138552 0
M  V30 7122 C 656.028 1.87704 0.863184 0
M  V30 7123 C 656.436 0.722411 1.74865 0
M  V30 7124 O 655.779 -0.316636 1.80951 0
M  V30 7125 C 655.841 3.13219 1.76449 0
M  V30 7126 C 655.505 4.44648 1.05532 0
M  V30 7127 C 656.502 5.18318 0.405252 0
M  V30 7128 C 654.187 4.91367 1.04231 0
M  V30 7129 C 656.181 6.36916 -0.24835 0
M  V30 7130 C 653.868 6.09887 0.384904 0
M  V30 7131 C 654.866 6.82508 -0.259292 0
M  V30 7132 O 654.554 7.98775 -0.906258 0
M  V30 7133 H 654.286 0.626255 0.254521 0
M  V30 7134 H 656.84 2.04966 0.133472 0
M  V30 7135 H 655.07 2.91988 2.53535 0
M  V30 7136 H 656.759 3.30111 2.36181 0
M  V30 7137 H 657.525 4.83289 0.407053 0
M  V30 7138 H 653.404 4.34759 1.53315 0
M  V30 7139 H 656.948 6.93538 -0.751755 0
M  V30 7140 H 652.845 6.44376 0.380799 0
M  V30 7141 H 653.613 8.14494 -0.80877 0
M  V30 7142 N 656.276 -0.40816 1.52223 0
M  V30 7143 C 657.501 -1.18127 1.70472 0
M  V30 7144 C 657.926 -1.83491 0.41384 0
M  V30 7145 O 657.284 -1.70047 -0.628778 0
M  V30 7146 C 657.332 -2.21935 2.84213 0
M  V30 7147 O 656.436 -3.28099 2.4985 0
M  V30 7148 H 655.777 -0.344781 0.56747 0
M  V30 7149 H 658.307 -0.478328 1.9893 0
M  V30 7150 H 658.317 -2.66248 3.09153 0
M  V30 7151 H 656.992 -1.73744 3.7787 0
M  V30 7152 H 655.569 -2.89058 2.35584 0
M  V30 7153 N 657.755 -1.42862 -0.66545 0
M  V30 7154 C 658.703 -1.47319 -1.8 0
M  V30 7155 C 659.697 -0.347963 -1.65788 0
M  V30 7156 O 660.903 -0.521406 -1.72283 0
M  V30 7157 H 657.278 -0.461588 -0.593667 0
M  V30 7158 H 659.249 -2.42876 -1.7336 0
M  V30 7159 C 657.998 -1.40152 -3.18203 0
M  V30 7160 H 657.321 -2.26035 -3.2977 0
M  V30 7161 H 658.761 -1.47331 -3.9758 0
M  V30 7162 C 657.22 -0.117493 -3.36695 0
M  V30 7163 O 657.75 0.826058 -3.93115 0
M  V30 7164 N 655.956 -0.0316218 -2.90583 0
M  V30 7165 H 655.503 -0.800247 -2.44855 0
M  V30 7166 H 655.461 0.826835 -3.03333 0
M  V30 7167 N 659.233 0.902656 -1.29189 0
M  V30 7168 C 660.143 2.03946 -1.15944 0
M  V30 7169 C 661.159 1.738 -0.0833803 0
M  V30 7170 O 662.335 1.9923 -0.29487 0
M  V30 7171 C 659.4 3.36519 -0.834006 0
M  V30 7172 C 658.461 3.80203 -1.9936 0
M  V30 7173 C 657.694 5.06449 -1.68359 0
M  V30 7174 O 657.917 5.67202 -0.603141 0
M  V30 7175 O 656.851 5.46114 -2.53067 0
M  V30 7176 H 660.677 2.18043 -2.11403 0
M  V30 7177 H 658.262 1.02584 -1.08613 0
M  V30 7178 H 660.144 4.16089 -0.666949 0
M  V30 7179 H 658.819 3.23573 0.0908245 0
M  V30 7180 H 657.726 3.01413 -2.21588 0
M  V30 7181 H 659.059 3.97729 -2.89952 0
M  V30 7182 N 660.711 1.11618 1.11262 0
M  V30 7183 C 661.621 0.78898 2.20935 0
M  V30 7184 C 662.637 -0.21867 1.7262 0
M  V30 7185 O 663.813 -0.0543826 2.01327 0
M  V30 7186 C 660.878 0.239014 3.45875 0
M  V30 7187 C 659.939 1.3055 4.08968 0
M  V30 7188 C 659.172 0.781687 5.27944 0
M  V30 7189 O 659.395 -0.387605 5.69082 0
M  V30 7190 O 658.329 1.54734 5.81671 0
M  V30 7191 H 662.155 1.70477 2.51339 0
M  V30 7192 H 659.74 0.892203 1.19834 0
M  V30 7193 H 661.622 -0.0632312 4.21353 0
M  V30 7194 H 660.297 -0.649454 3.17118 0
M  V30 7195 H 659.204 1.66079 3.35214 0
M  V30 7196 H 660.537 2.16743 4.41909 0
M  V30 7197 N 662.189 -1.289 0.906776 0
M  V30 7198 C 663.139 -2.25122 0.361109 0
M  V30 7199 C 664.123 -1.52169 -0.52283 0
M  V30 7200 O 665.315 -1.73223 -0.363691 0
M  V30 7201 C 662.444 -3.40915 -0.403982 0
M  V30 7202 C 661.53 -4.21198 0.495279 0
M  V30 7203 N 661.921 -4.79636 1.60572 0
M  V30 7204 C 660.219 -4.45027 0.294372 0
M  V30 7205 C 660.92 -5.39977 2.16332 0
M  V30 7206 N 659.896 -5.23753 1.45546 0
M  V30 7207 H 663.698 -2.67869 1.20927 0
M  V30 7208 H 661.212 -1.43592 0.758632 0
M  V30 7209 H 663.209 -4.08922 -0.811695 0
M  V30 7210 H 661.869 -2.99703 -1.24932 0
M  V30 7211 H 662.88 -4.78209 1.98838 0
M  V30 7212 H 659.557 -4.14348 -0.512021 0
M  V30 7213 H 660.947 -5.96266 3.09704 0
M  V30 7214 N 663.667 -0.670007 -1.42649 0
M  V30 7215 C 664.6 0.0613623 -2.28117 0
M  V30 7216 C 665.578 0.813414 -1.40792 0
M  V30 7217 O 666.762 0.809529 -1.70232 0
M  V30 7218 C 663.889 1.09399 -3.20546 0
M  V30 7219 C 662.935 0.438064 -4.24244 0
M  V30 7220 S 663.768 -0.800808 -5.29478 0
M  V30 7221 C 664.924 0.23086 -6.25474 0
M  V30 7222 H 665.157 -0.663606 -2.89799 0
M  V30 7223 H 662.69 -0.45939 -1.47407 0
M  V30 7224 H 664.648 1.68469 -3.74337 0
M  V30 7225 H 663.309 1.79137 -2.58009 0
M  V30 7226 H 662.502 1.21707 -4.89084 0
M  V30 7227 H 662.104 -0.0789346 -3.73917 0
M  V30 7228 H 664.396 1.09204 -6.68641 0
M  V30 7229 H 665.339 -0.382945 -7.07064 0
M  V30 7230 H 665.747 0.574191 -5.61572 0
M  V30 7231 N 665.145 1.52092 -0.413018 0
M  V30 7232 C 666.373 2.06274 0.160881 0
M  V30 7233 C 666.788 1.28273 1.38533 0
M  V30 7234 O 666.145 0.33563 1.79387 0
M  V30 7235 C 666.196 3.57921 0.507443 0
M  V30 7236 O 665.917 4.32971 -0.668388 0
M  V30 7237 C 667.418 4.28533 1.13465 0
M  V30 7238 H 664.638 0.67074 0.0186759 0
M  V30 7239 H 667.182 1.95951 -0.585092 0
M  V30 7240 H 665.337 3.68238 1.20331 0
M  V30 7241 H 665.751 5.23135 -0.378169 0
M  V30 7242 H 667.225 5.35804 1.32732 0
M  V30 7243 H 667.702 3.85258 2.10886 0
M  V30 7244 H 668.308 4.22595 0.478876 0
M  V30 7245 N 666.623 0.143563 1.56945 0
M  V30 7246 C 667.553 -0.7936 2.196 0
M  V30 7247 C 668.534 -1.25955 1.14321 0
M  V30 7248 O 669.719 -1.31773 1.42651 0
M  V30 7249 C 666.849 -2.03424 2.81489 0
M  V30 7250 C 665.803 -1.70519 3.92565 0
M  V30 7251 C 665.129 -3.01817 4.41373 0
M  V30 7252 C 666.429 -0.95449 5.13504 0
M  V30 7253 H 668.123 -0.271423 2.98167 0
M  V30 7254 H 665.669 -0.12911 1.4342 0
M  V30 7255 H 667.622 -2.69463 3.23987 0
M  V30 7256 H 666.346 -2.58008 2.00248 0
M  V30 7257 H 665.005 -1.06859 3.5068 0
M  V30 7258 H 664.653 -3.54386 3.56959 0
M  V30 7259 H 664.353 -2.80565 5.16292 0
M  V30 7260 H 665.877 -3.68934 4.86539 0
M  V30 7261 H 667.291 -1.5169 5.52868 0
M  V30 7262 H 665.688 -0.842035 5.94163 0
M  V30 7263 H 666.758 0.0544033 4.84869 0
M  V30 7264 N 668.101 -1.57061 -0.130224 0
M  V30 7265 C 669.031 -2.02552 -1.16168 0
M  V30 7266 C 670.012 -0.907971 -1.4384 0
M  V30 7267 O 671.197 -1.17693 -1.54473 0
M  V30 7268 C 668.327 -2.42035 -2.49071 0
M  V30 7269 C 667.281 -3.5713 -2.35886 0
M  V30 7270 C 666.607 -3.82478 -3.7365 0
M  V30 7271 C 667.907 -4.89236 -1.8288 0
M  V30 7272 H 669.601 -2.8897 -0.783359 0
M  V30 7273 H 667.147 -1.39021 -0.375376 0
M  V30 7274 H 669.1 -2.72462 -3.21469 0
M  V30 7275 H 667.824 -1.52573 -2.88771 0
M  V30 7276 H 666.483 -3.26895 -1.65938 0
M  V30 7277 H 666.131 -2.9024 -4.10816 0
M  V30 7278 H 665.831 -4.59944 -3.65685 0
M  V30 7279 H 667.355 -4.15347 -4.47571 0
M  V30 7280 H 668.769 -5.18272 -2.45085 0
M  V30 7281 H 667.166 -5.70624 -1.85763 0
M  V30 7282 H 668.236 -4.78494 -0.785571 0
M  V30 7283 N 669.579 0.400081 -1.52437 0
M  V30 7284 C 670.526 1.48803 -1.76426 0
M  V30 7285 C 671.496 1.5461 -0.607032 0
M  V30 7286 O 672.681 1.71041 -0.845563 0
M  V30 7287 C 669.821 2.86156 -1.92896 0
M  V30 7288 C 668.934 2.89587 -3.20567 0
M  V30 7289 C 668.069 4.18296 -3.27417 0
M  V30 7290 C 667.108 4.15736 -4.49255 0
M  V30 7291 N 666.245 5.36032 -4.53447 0
M  V30 7292 H 671.085 1.27649 -2.69276 0
M  V30 7293 H 668.622 0.619451 -1.33421 0
M  V30 7294 H 670.58 3.65901 -2.00429 0
M  V30 7295 H 669.21 3.05785 -1.03418 0
M  V30 7296 H 668.262 2.02278 -3.22161 0
M  V30 7297 H 669.574 2.83562 -4.10358 0
M  V30 7298 H 668.728 5.06439 -3.34072 0
M  V30 7299 H 667.467 4.27028 -2.35581 0
M  V30 7300 H 666.472 3.25982 -4.42737 0
M  V30 7301 H 667.697 4.08636 -5.42396 0
M  V30 7302 H 665.643 5.45415 -3.64498 0
M  V30 7303 H 665.56 5.32038 -5.37096 0
M  V30 7304 H 666.828 6.26104 -4.64343 0
M  V30 7305 N 671.057 1.43213 0.657864 0
M  V30 7306 C 671.99 1.42456 1.78273 0
M  V30 7307 C 672.968 0.286598 1.60054 0
M  V30 7308 O 674.152 0.479467 1.823 0
M  V30 7309 C 671.279 1.23169 3.15511 0
M  V30 7310 C 670.325 2.40181 3.52442 0
M  V30 7311 S 671.158 4.02729 3.52944 0
M  V30 7312 C 672.314 3.85816 4.92846 0
M  V30 7313 H 672.547 2.37642 1.78644 0
M  V30 7314 H 670.08 1.30188 0.830084 0
M  V30 7315 H 672.038 1.12728 3.94719 0
M  V30 7316 H 670.699 0.295398 3.12708 0
M  V30 7317 H 669.892 2.22478 4.52239 0
M  V30 7318 H 669.494 2.47224 2.80636 0
M  V30 7319 H 671.786 3.47853 5.81381 0
M  V30 7320 H 672.729 4.85348 5.15599 0
M  V30 7321 H 673.137 3.18361 4.66162 0
M  V30 7322 N 672.536 -0.895792 1.29666 0
M  V30 7323 C 673.785 -1.64131 1.17234 0
M  V30 7324 C 674.098 -1.93665 -0.274416 0
M  V30 7325 O 675.304 -2.66472 -0.520105 0
M  V30 7326 C 673.76 -2.95764 2.05065 0
M  V30 7327 C 673.368 -2.7381 3.54587 0
M  V30 7328 C 675.112 -3.737 2.01367 0
M  V30 7329 C 673.019 -4.01194 4.34508 0
M  V30 7330 H 671.949 -0.615742 0.435175 0
M  V30 7331 H 674.6 -0.992626 1.54335 0
M  V30 7332 H 672.982 -3.61867 1.60837 0
M  V30 7333 H 674.156 -2.16277 4.06892 0
M  V30 7334 H 672.471 -2.09265 3.59996 0
M  V30 7335 H 675.068 -4.68152 2.58337 0
M  V30 7336 H 675.411 -4.04245 0.994575 0
M  V30 7337 H 675.944 -3.14444 2.43659 0
M  V30 7338 H 672.683 -3.75813 5.37071 0
M  V30 7339 H 672.203 -4.58272 3.86971 0
M  V30 7340 H 673.882 -4.69307 4.45376 0
M  V30 7341 N 674.014 -1.12206 -1.10668 0
M  V30 7342 C 674.944 -0.810086 -2.18997 0
M  V30 7343 C 675.925 0.225065 -1.68604 0
M  V30 7344 O 677.11 0.086783 -1.94006 0
M  V30 7345 C 674.24 -0.261262 -3.46316 0
M  V30 7346 C 673.194 -1.2292 -4.09969 0
M  V30 7347 C 672.52 -0.540713 -5.31959 0
M  V30 7348 C 673.82 -2.58295 -4.53962 0
M  V30 7349 H 675.514 -1.7159 -2.45352 0
M  V30 7350 H 673.06 -0.82646 -1.17922 0
M  V30 7351 H 675.013 -0.0307522 -4.21389 0
M  V30 7352 H 673.737 0.679879 -3.19445 0
M  V30 7353 H 672.396 -1.44548 -3.369 0
M  V30 7354 H 672.044 0.405492 -5.01363 0
M  V30 7355 H 671.744 -1.18637 -5.75499 0
M  V30 7356 H 673.268 -0.319184 -6.09765 0
M  V30 7357 H 674.682 -2.40709 -5.20319 0
M  V30 7358 H 673.079 -3.18916 -5.08343 0
M  V30 7359 H 674.149 -3.16918 -3.67002 0
M  V30 7360 N 675.492 1.28418 -0.913599 0
M  V30 7361 C 676.741 1.94265 -0.542572 0
M  V30 7362 C 677.054 1.72709 0.918207 0
M  V30 7363 O 678.26 2.32778 1.39738 0
M  V30 7364 C 676.716 3.47956 -0.919507 0
M  V30 7365 C 676.324 3.78291 -2.4 0
M  V30 7366 C 678.068 4.19962 -0.619057 0
M  V30 7367 C 675.975 5.2529 -2.71707 0
M  V30 7368 H 674.905 0.727213 -0.199192 0
M  V30 7369 H 677.556 1.45931 -1.11249 0
M  V30 7370 H 675.938 3.9502 -0.278372 0
M  V30 7371 H 677.112 3.42035 -3.08786 0
M  V30 7372 H 675.427 3.19456 -2.67089 0
M  V30 7373 H 678.024 5.28178 -0.832623 0
M  V30 7374 H 678.367 4.13935 0.443126 0
M  V30 7375 H 678.9 3.78674 -1.21865 0
M  V30 7376 H 675.639 5.36394 -3.76778 0
M  V30 7377 H 675.159 5.62743 -2.07559 0
M  V30 7378 H 676.838 5.93027 -2.58703 0
M  V30 7379 N 676.97 0.677563 1.42291 0
M  V30 7380 C 677.917 0.000947061 2.308 0
M  V30 7381 C 678.887 -0.789889 1.46116 0
M  V30 7382 O 680.072 -0.761578 1.74942 0
M  V30 7383 C 677.212 -0.942387 3.31984 0
M  V30 7384 C 676.325 -0.14508 4.31756 0
M  V30 7385 C 675.46 -1.08442 5.20013 0
M  V30 7386 C 674.499 -0.278958 6.11464 0
M  V30 7387 N 673.636 -1.17115 6.92263 0
M  V30 7388 H 678.476 0.761521 2.88106 0
M  V30 7389 H 676.013 0.38727 1.41911 0
M  V30 7390 H 677.971 -1.50317 3.89179 0
M  V30 7391 H 676.601 -1.66956 2.76271 0
M  V30 7392 H 675.653 0.532368 3.76656 0
M  V30 7393 H 676.965 0.48015 4.96484 0
M  V30 7394 H 676.119 -1.71504 5.81955 0
M  V30 7395 H 674.858 -1.74353 4.55469 0
M  V30 7396 H 673.863 0.364856 5.48588 0
M  V30 7397 H 675.088 0.376099 6.78058 0
M  V30 7398 H 673.034 -1.81661 6.30345 0
M  V30 7399 H 672.951 -0.601063 7.53607 0
M  V30 7400 H 674.219 -1.78915 7.58689 0
M  V30 7401 N 678.448 -1.51871 0.421078 0
M  V30 7402 C 679.688 -2.03848 -0.150167 0
M  V30 7403 C 680.052 -1.29925 -1.41363 0
M  V30 7404 O 681.253 -1.7219 -2.06408 0
M  V30 7405 C 679.524 -3.55374 -0.38003 0
M  V30 7406 S 681.083 -4.29111 -0.917011 0
M  V30 7407 H 677.901 -0.709904 -0.0394639 0
M  V30 7408 H 680.503 -1.86799 0.576746 0
M  V30 7409 H 679.207 -4.0675 0.546122 0
M  V30 7410 H 678.738 -3.76687 -1.13448 0
M  V30 7411 H 680.753 -4.44944 -2.19635 0
M  V30 7412 N 679.926 -0.151884 -1.56866 0
M  V30 7413 C 681.166 0.500695 -1.98173 0
M  V30 7414 C 681.53 1.61715 -1.03499 0
M  V30 7415 O 682.731 2.33093 -1.33869 0
M  V30 7416 C 681.002 0.989333 -3.43434 0
M  V30 7417 S 682.561 1.64583 -4.06765 0
M  V30 7418 H 679.379 0.16173 -0.692361 0
M  V30 7419 H 681.981 -0.244754 -1.93962 0
M  V30 7420 H 680.685 0.166072 -4.10064 0
M  V30 7421 H 680.216 1.76929 -3.51368 0
M  V30 7422 H 682.231 2.93326 -4.00218 0
M  V30 7423 N 681.404 1.57128 0.121893 0
M  V30 7424 C 682.681 1.75664 0.860327 0
M  V30 7425 C 683.061 0.726585 1.98202 0
M  V30 7426 O 682.409 -0.24999 2.27128 0
M  V30 7427 C 682.619 3.20571 1.37968 0
M  V30 7428 C 683.967 3.82988 1.83317 0
M  V30 7429 O 684.991 3.24156 1.47654 0
M  V30 7430 O 683.85 4.86393 2.49168 0
M  V30 7431 H 680.944 0.719153 0.408348 0
M  V30 7432 H 683.49 1.6937 0.105859 0
M  V30 7433 H 682.262 3.87056 0.57477 0
M  V30 7434 H 681.885 3.31392 2.19694 0
M  V30 7435 N 682.882 -0.391992 1.52647 0
M  V30 7436 C 684.131 -1.13449 1.6677 0
M  V30 7437 C 684.444 -1.91203 0.412399 0
M  V30 7438 O 685.65 -2.68013 0.433707 0
M  V30 7439 C 684.106 -2.06577 2.9471 0
M  V30 7440 C 683.714 -1.3426 4.27409 0
M  V30 7441 C 685.458 -2.80981 3.18198 0
M  V30 7442 C 683.365 -2.26136 5.46458 0
M  V30 7443 H 682.295 -0.427211 0.621295 0
M  V30 7444 H 684.946 -0.397522 1.79142 0
M  V30 7445 H 683.328 -2.83898 2.76076 0
M  V30 7446 H 684.502 -0.621856 4.56585 0
M  V30 7447 H 682.817 -0.718279 4.10158 0
M  V30 7448 H 685.414 -3.49898 4.04321 0
M  V30 7449 H 685.757 -3.44891 2.33144 0
M  V30 7450 H 686.29 -2.10754 3.37383 0
M  V30 7451 H 683.029 -1.66846 6.33911 0
M  V30 7452 H 682.549 -2.96134 5.21598 0
M  V30 7453 H 684.228 -2.86286 5.80215 0
M  V30 7454 N 684.36 -1.4356 -0.65026 0
M  V30 7455 C 685.585 -1.48995 -1.44275 0
M  V30 7456 C 686.01 -0.109954 -1.87778 0
M  V30 7457 O 685.368 0.896926 -1.57559 0
M  V30 7458 C 685.416 -2.44341 -2.65198 0
M  V30 7459 O 684.52 -1.93172 -3.6436 0
M  V30 7460 H 683.861 -0.503852 -0.432469 0
M  V30 7461 H 686.391 -1.88504 -0.795446 0
M  V30 7462 H 686.401 -2.61743 -3.12977 0
M  V30 7463 H 685.076 -3.44588 -2.32877 0
M  V30 7464 H 683.653 -1.85445 -3.23519 0
M  V30 7465 N 685.838 0.888903 -1.30139 0
M  V30 7466 C 686.786 2.0156 -1.16088 0
M  V30 7467 C 687.78 1.69239 -0.0737413 0
M  V30 7468 O 688.986 1.78468 -0.234313 0
M  V30 7469 H 685.361 0.660825 -0.358907 0
M  V30 7470 H 687.332 2.10547 -2.11453 0
M  V30 7471 C 686.081 3.36758 -0.865426 0
M  V30 7472 H 685.404 3.62137 -1.69402 0
M  V30 7473 H 686.844 4.16246 -0.807192 0
M  V30 7474 C 685.303 3.34124 0.431577 0
M  V30 7475 O 685.833 3.7445 1.45431 0
M  V30 7476 N 684.039 2.87229 0.441321 0
M  V30 7477 H 683.586 2.54609 -0.391433 0
M  V30 7478 H 683.544 2.8585 1.30909 0
M  V30 7479 N 687.317 1.12792 1.10072 0
M  V30 7480 C 688.227 0.812369 2.20086 0
M  V30 7481 C 689.243 -0.200349 1.72843 0
M  V30 7482 O 690.419 -0.0330262 2.01373 0
M  V30 7483 C 687.484 0.275685 3.45602 0
M  V30 7484 C 686.545 1.34881 4.07561 0
M  V30 7485 C 685.778 0.837639 5.27086 0
M  V30 7486 O 686.001 -0.327224 5.69461 0
M  V30 7487 O 684.935 1.60894 5.79997 0
M  V30 7488 H 688.761 1.73133 2.49517 0
M  V30 7489 H 686.346 0.904863 1.18881 0
M  V30 7490 H 688.228 -0.0185375 4.21396 0
M  V30 7491 H 686.903 -0.615783 3.17789 0
M  V30 7492 H 685.81 1.69625 3.33434 0
M  V30 7493 H 687.143 2.21418 4.39585 0
M  V30 7494 N 688.795 -1.27931 0.920396 0
M  V30 7495 C 690.041 -1.94977 0.557832 0
M  V30 7496 C 690.374 -1.72224 -0.897365 0
M  V30 7497 O 689.649 -1.04705 -1.63912 0
M  V30 7498 C 689.932 -3.49289 0.875741 0
M  V30 7499 C 689.785 -3.81416 2.38416 0
M  V30 7500 C 691.104 -4.38486 0.376517 0
M  V30 7501 H 688.223 -0.708164 0.20414 0
M  V30 7502 H 690.865 -1.5118 1.15085 0
M  V30 7503 H 689.015 -3.86724 0.371062 0
M  V30 7504 H 690.687 -3.53813 2.95997 0
M  V30 7505 H 688.93 -3.28225 2.83639 0
M  V30 7506 H 689.601 -4.89198 2.55713 0
M  V30 7507 H 692.077 -4.08161 0.808945 0
M  V30 7508 H 690.953 -5.45296 0.627976 0
M  V30 7509 H 691.214 -4.36143 -0.723293 0
M  V30 7510 N 690.273 -0.685099 -1.4193 0
M  V30 7511 C 691.689 -0.355632 -1.55587 0
M  V30 7512 C 691.889 1.13823 -1.66273 0
M  V30 7513 O 690.945 1.92387 -1.63534 0
M  V30 7514 C 692.258 -1.09498 -2.80055 0
M  V30 7515 C 693.806 -1.07831 -2.93839 0
M  V30 7516 C 694.281 -1.79919 -4.21181 0
M  V30 7517 N 695.772 -1.76837 -4.28115 0
M  V30 7518 C 696.507 -2.29463 -5.25485 0
M  V30 7519 N 696.003 -2.90516 -6.28945 0
M  V30 7520 N 697.796 -2.19779 -5.17353 0
M  V30 7521 H 689.947 -1.65412 -1.33239 0
M  V30 7522 H 692.21 -0.697453 -0.642078 0
M  V30 7523 H 691.916 -2.14997 -2.78333 0
M  V30 7524 H 691.79 -0.666813 -3.71259 0
M  V30 7525 H 694.177 -0.0316152 -2.95083 0
M  V30 7526 H 694.258 -1.54545 -2.03837 0
M  V30 7527 H 693.902 -2.84562 -4.20698 0
M  V30 7528 H 693.832 -1.30647 -5.10136 0
M  V30 7529 H 696.323 -1.32315 -3.53979 0
M  V30 7530 H 696.636 -3.28266 -6.99615 0
M  V30 7531 H 694.981 -2.94589 -6.29478 0
M  V30 7532 H 698.172 -1.71763 -4.35448 0
M  V30 7533 H 698.345 -2.61097 -5.9307 0
M  V30 7534 N 691.751 1.51645 -0.429126 0
M  V30 7535 C 693.162 1.86665 0.0359003 0
M  V30 7536 C 693.513 1.34677 1.42676 0
M  V30 7537 O 692.638 0.694195 2.04963 0
M  V30 7538 C 693.233 3.38724 0.0719221 0
M  V30 7539 C 691.792 3.7331 0.481336 0
M  V30 7540 C 690.939 2.75313 -0.331329 0
M  V30 7541 H 693.89 1.44987 -0.645333 0
M  V30 7542 H 693.911 3.7011 0.883118 0
M  V30 7543 H 693.423 3.76532 -0.940495 0
M  V30 7544 H 691.524 3.41088 1.49966 0
M  V30 7545 H 691.637 4.78631 0.211837 0
M  V30 7546 H 690.001 2.53839 0.209204 0
M  V30 7547 H 690.784 3.15963 -1.34247 0
M  V30 7548 N 693.229 0.160201 1.56784 0
M  V30 7549 C 694.162 -0.812797 2.13234 0
M  V30 7550 C 695.14 -1.2335 1.05942 0
M  V30 7551 O 696.324 -1.32725 1.33852 0
M  V30 7552 C 693.451 -2.09311 2.66283 0
M  V30 7553 C 692.497 -1.8173 3.85845 0
M  V30 7554 S 693.33 -0.996473 5.26147 0
M  V30 7555 C 694.486 -2.28769 5.82594 0
M  V30 7556 H 694.719 -0.332794 2.95432 0
M  V30 7557 H 692.252 -0.0542971 1.54304 0
M  V30 7558 H 694.21 -2.82854 2.97496 0
M  V30 7559 H 692.871 -2.54425 1.84192 0
M  V30 7560 H 692.064 -2.76699 4.21253 0
M  V30 7561 H 691.666 -1.16289 3.55462 0
M  V30 7562 H 693.958 -3.24319 5.9483 0
M  V30 7563 H 694.901 -1.97846 6.79899 0
M  V30 7564 H 695.309 -2.40021 5.10931 0
M  V30 7565 N 694.707 -1.5719 -0.113559 0
M  V30 7566 C 695.617 -2.04041 -1.15777 0
M  V30 7567 C 696.633 -0.961812 -1.45001 0
M  V30 7568 O 697.809 -1.2737 -1.56009 0
M  V30 7569 C 694.874 -2.43994 -2.46308 0
M  V30 7570 C 693.935 -3.65962 -2.24433 0
M  V30 7571 C 693.168 -4.04 -3.4874 0
M  V30 7572 O 693.391 -3.42321 -4.56259 0
M  V30 7573 O 692.325 -4.97069 -3.3942 0
M  V30 7574 H 696.151 -2.93248 -0.789899 0
M  V30 7575 H 693.736 -1.45828 -0.324748 0
M  V30 7576 H 695.618 -2.70401 -3.23204 0
M  V30 7577 H 694.293 -1.57932 -2.82558 0
M  V30 7578 H 693.2 -3.44697 -1.45377 0
M  V30 7579 H 694.533 -4.52746 -1.93084 0
M  V30 7580 N 696.185 0.383891 -1.52853 0
M  V30 7581 C 697.431 1.13009 -1.68395 0
M  V30 7582 C 697.764 1.89488 -0.425195 0
M  V30 7583 O 697.039 1.8574 0.577136 0
M  V30 7584 C 697.322 2.10419 -2.92226 0
M  V30 7585 C 697.175 1.3767 -4.28214 0
M  V30 7586 C 698.494 3.10781 -3.11614 0
M  V30 7587 H 695.613 0.409463 -0.612788 0
M  V30 7588 H 698.255 0.412895 -1.85459 0
M  V30 7589 H 696.405 2.71579 -2.77808 0
M  V30 7590 H 698.077 0.794352 -4.54409 0
M  V30 7591 H 696.32 0.678533 -4.2846 0
M  V30 7592 H 696.991 2.08874 -5.10956 0
M  V30 7593 H 699.467 2.59715 -3.25096 0
M  V30 7594 H 698.343 3.76179 -3.99725 0
M  V30 7595 H 698.604 3.79933 -2.2606 0
M  V30 7596 N 697.663 1.43903 0.642637 0
M  V30 7597 C 698.626 1.49538 1.73698 0
M  V30 7598 C 699.626 0.378776 1.56275 0
M  V30 7599 O 700.816 0.64095 1.6198 0
M  V30 7600 C 697.948 1.35821 3.12675 0
M  V30 7601 H 699.141 2.47008 1.70079 0
M  V30 7602 H 696.694 1.30824 0.85526 0
M  V30 7603 H 697.429 0.393994 3.21898 0
M  V30 7604 H 697.214 2.16776 3.26727 0
M  V30 7605 H 698.704 1.4272 3.92455 0
M  V30 7606 N 699.141 -0.881989 1.30609 0
M  V30 7607 C 700.051 -2.02076 1.19174 0
M  V30 7608 C 701.067 -1.73645 0.11102 0
M  V30 7609 O 702.243 -1.98735 0.326528 0
M  V30 7610 C 699.308 -3.3515 0.887438 0
M  V30 7611 C 698.369 -3.76983 2.05383 0
M  V30 7612 C 697.602 -5.03707 1.76395 0
M  V30 7613 O 697.825 -5.66171 0.693302 0
M  V30 7614 O 696.759 -5.42019 2.61723 0
M  V30 7615 H 700.585 -2.14652 2.14845 0
M  V30 7616 H 698.17 -1.00843 1.10232 0
M  V30 7617 H 700.052 -4.14975 0.73306 0
M  V30 7618 H 698.727 -3.23676 -0.0393354 0
M  V30 7619 H 697.634 -2.97849 2.26355 0
M  V30 7620 H 698.967 -3.93066 2.96243 0
M  V30 7621 N 700.619 -1.13374 -1.09472 0
M  V30 7622 C 702.03 -0.90801 -1.63132 0
M  V30 7623 C 702.381 0.555576 -1.8817 0
M  V30 7624 O 701.506 1.42218 -1.63104 0
M  V30 7625 C 702.101 -1.64182 -2.96361 0
M  V30 7626 C 700.66 -1.46197 -3.46848 0
M  V30 7627 C 699.807 -1.67134 -2.21273 0
M  V30 7628 H 702.758 -1.2871 -0.928411 0
M  V30 7629 H 702.779 -1.09863 -3.64294 0
M  V30 7630 H 702.291 -2.707 -2.78106 0
M  V30 7631 H 700.392 -0.419788 -3.70228 0
M  V30 7632 H 700.505 -2.22472 -4.24315 0
M  V30 7633 H 698.869 -1.09616 -2.29905 0
M  V30 7634 H 699.652 -2.74971 -2.05538 0
M  V30 7635 N 702.098 1.27442 -0.927168 0
M  V30 7636 C 703.344 1.95025 -0.577651 0
M  V30 7637 C 703.699 1.71534 0.871421 0
M  V30 7638 O 702.992 1.03354 1.61333 0
M  V30 7639 C 703.186 3.47413 -0.838994 0
M  V30 7640 C 703.015 3.85721 -2.31192 0
M  V30 7641 C 701.785 4.09199 -2.96452 0
M  V30 7642 C 703.983 3.95352 -3.28939 0
M  V30 7643 N 701.965 4.34283 -4.33903 0
M  V30 7644 C 703.336 4.24805 -4.51598 0
M  V30 7645 C 705.391 3.77926 -3.24155 0
M  V30 7646 C 704.094 4.38645 -5.70073 0
M  V30 7647 C 706.12 3.9299 -4.41942 0
M  V30 7648 C 705.482 4.22829 -5.63379 0
M  V30 7649 H 701.581 0.736983 -0.261495 0
M  V30 7650 H 704.165 1.53816 -1.19368 0
M  V30 7651 H 702.336 3.87581 -0.252129 0
M  V30 7652 H 704.068 4.02166 -0.452158 0
M  V30 7653 H 700.823 4.04013 -2.47125 0
M  V30 7654 H 701.247 4.50883 -5.05008 0
M  V30 7655 H 705.889 3.53897 -2.31337 0
M  V30 7656 H 703.607 4.615 -6.63358 0
M  V30 7657 H 707.193 3.80926 -4.39757 0
M  V30 7658 H 706.073 4.34234 -6.53001 0
M  V30 7659 N 703.576 0.692616 1.41565 0
M  V30 7660 C 704.822 0.222664 2.01574 0
M  V30 7661 C 705.155 -1.1737 1.54719 0
M  V30 7662 O 704.43 -1.79161 0.757084 0
M  V30 7663 C 704.713 0.277064 3.59033 0
M  V30 7664 C 704.566 1.71016 4.16021 0
M  V30 7665 C 705.885 -0.36479 4.38586 0
M  V30 7666 H 703.004 0.0823839 0.732381 0
M  V30 7667 H 705.646 0.880778 1.68352 0
M  V30 7668 H 703.796 -0.283288 3.87466 0
M  V30 7669 H 705.468 2.32413 3.98475 0
M  V30 7670 H 703.711 2.24525 3.71175 0
M  V30 7671 H 704.382 1.69978 5.25178 0
M  V30 7672 H 706.858 0.112404 4.15948 0
M  V30 7673 H 705.734 -0.296169 5.481 0
M  V30 7674 H 705.995 -1.44506 4.17816 0
M  V30 7675 N 705.054 -1.51416 0.437162 0
M  V30 7676 C 706.331 -1.94682 -0.189292 0
M  V30 7677 C 706.711 -1.37581 -1.60108 0
M  V30 7678 O 706.059 -0.562815 -2.2146 0
M  V30 7679 C 706.269 -3.48599 -0.167201 0
M  V30 7680 C 707.617 -4.2296 -0.372856 0
M  V30 7681 O 708.641 -3.55354 -0.245323 0
M  V30 7682 O 707.5 -5.42895 -0.626693 0
M  V30 7683 H 704.594 -0.816708 -0.130063 0
M  V30 7684 H 707.14 -1.62316 0.495128 0
M  V30 7685 H 705.912 -3.82616 0.81981 0
M  V30 7686 H 705.535 -3.87406 -0.894537 0
M  V30 7687 N 706.532 -0.168513 -1.56696 0
M  V30 7688 C 707.772 0.479648 -1.98693 0
M  V30 7689 C 708.136 1.60609 -1.05209 0
M  V30 7690 O 709.337 2.3166 -1.36334 0
M  V30 7691 C 707.608 0.952852 -3.44464 0
M  V30 7692 S 709.167 1.60259 -4.08488 0
M  V30 7693 H 705.985 0.154377 -0.694038 0
M  V30 7694 H 708.587 -0.265312 -1.93691 0
M  V30 7695 H 707.291 0.12257 -4.10217 0
M  V30 7696 H 706.822 1.73192 -3.53225 0
M  V30 7697 H 708.837 2.89065 -4.03307 0
M  V30 7698 N 708.01 1.57248 0.105221 0
M  V30 7699 C 708.94 2.04374 1.12931 0
M  V30 7700 C 709.921 0.93074 1.42377 0
M  V30 7701 O 711.106 1.20136 1.52581 0
M  V30 7702 C 708.236 2.45967 2.45189 0
M  V30 7703 C 707.19 3.60838 2.30174 0
M  V30 7704 C 706.516 3.88374 3.67518 0
M  V30 7705 C 707.816 4.92084 1.75073 0
M  V30 7706 H 709.51 2.9018 0.737287 0
M  V30 7707 H 707.056 1.39601 0.353211 0
M  V30 7708 H 709.009 2.77542 3.17094 0
M  V30 7709 H 707.733 1.57148 2.86308 0
M  V30 7710 H 706.392 3.29493 1.60716 0
M  V30 7711 H 706.04 2.96739 4.06147 0
M  V30 7712 H 705.74 4.65703 3.58321 0
M  V30 7713 H 707.264 4.22415 4.40906 0
M  V30 7714 H 708.678 5.22106 2.36809 0
M  V30 7715 H 707.075 5.73507 1.76662 0
M  V30 7716 H 708.145 4.79684 0.709347 0
M  V30 7717 N 709.488 -0.375779 1.53054 0
M  V30 7718 C 710.418 -1.46598 1.81745 0
M  V30 7719 C 711.399 -1.56337 0.670286 0
M  V30 7720 O 712.584 -1.71071 0.919158 0
M  V30 7721 C 709.714 -2.84058 1.99821 0
M  V30 7722 C 708.668 -2.8915 3.15557 0
M  V30 7723 C 707.994 -4.29187 3.18908 0
M  V30 7724 C 709.294 -2.57595 4.54359 0
M  V30 7725 H 710.988 -1.22837 2.73041 0
M  V30 7726 H 708.534 -0.589485 1.31381 0
M  V30 7727 H 710.487 -3.60342 2.18475 0
M  V30 7728 H 709.211 -3.09184 1.05226 0
M  V30 7729 H 707.87 -2.15316 2.96706 0
M  V30 7730 H 707.518 -4.51374 2.2197 0
M  V30 7731 H 707.218 -4.33512 3.96662 0
M  V30 7732 H 708.742 -5.07359 3.39734 0
M  V30 7733 H 710.156 -3.23595 4.73243 0
M  V30 7734 H 708.553 -2.73252 5.34279 0
M  V30 7735 H 709.623 -1.52882 4.60169 0
M  V30 7736 N 710.966 -1.44241 -0.634997 0
M  V30 7737 C 711.876 -1.53293 -1.77591 0
M  V30 7738 C 712.892 -0.418831 -1.68884 0
M  V30 7739 O 714.068 -0.675619 -1.8973 0
M  V30 7740 C 711.133 -1.47075 -3.13958 0
M  V30 7741 C 710.194 -2.69304 -3.34326 0
M  V30 7742 C 709.427 -2.63374 -4.64187 0
M  V30 7743 O 709.65 -1.69161 -5.44739 0
M  V30 7744 O 708.584 -3.54166 -4.86673 0
M  V30 7745 H 712.41 -2.49673 -1.72908 0
M  V30 7746 H 709.995 -1.26445 -0.795745 0
M  V30 7747 H 711.877 -1.46117 -3.95257 0
M  V30 7748 H 710.552 -0.538373 -3.19192 0
M  V30 7749 H 709.459 -2.75831 -2.52721 0
M  V30 7750 H 710.792 -3.61576 -3.33951 0
M  V30 7751 N 712.444 0.87505 -1.31075 0
M  V30 7752 C 713.354 2.01441 -1.20244 0
M  V30 7753 C 714.37 1.73584 -0.120227 0
M  V30 7754 O 715.546 1.98559 -0.337063 0
M  V30 7755 C 712.611 3.34675 -0.905199 0
M  V30 7756 C 711.672 3.75889 -2.0738 0
M  V30 7757 C 710.905 5.02764 -1.79064 0
M  V30 7758 O 711.128 5.65795 -0.723318 0
M  V30 7759 O 710.062 5.40623 -2.64594 0
M  V30 7760 H 713.888 2.13509 -2.1598 0
M  V30 7761 H 711.473 1.00257 -1.10765 0
M  V30 7762 H 713.355 4.1458 -0.755057 0
M  V30 7763 H 712.03 3.23692 0.0221695 0
M  V30 7764 H 710.937 2.96645 -2.27931 0
M  V30 7765 H 712.27 3.91489 -2.98324 0
M  V30 7766 N 713.922 1.13953 1.08869 0
M  V30 7767 C 715.152 0.926825 1.84644 0
M  V30 7768 C 715.56 -0.527941 1.81685 0
M  V30 7769 O 714.903 -1.37742 1.21543 0
M  V30 7770 C 714.965 1.34416 3.33426 0
M  V30 7771 C 714.629 2.81351 3.60126 0
M  V30 7772 C 715.626 3.79486 3.55368 0
M  V30 7773 C 713.311 3.1865 3.88288 0
M  V30 7774 C 715.305 5.1293 3.78393 0
M  V30 7775 C 712.992 4.5227 4.10968 0
M  V30 7776 C 713.99 5.4922 4.06013 0
M  V30 7777 O 713.678 6.80429 4.28102 0
M  V30 7778 H 713.41 0.33013 0.589907 0
M  V30 7779 H 715.964 1.51738 1.38436 0
M  V30 7780 H 714.194 0.696901 3.80368 0
M  V30 7781 H 715.883 1.10302 3.90626 0
M  V30 7782 H 716.649 3.52017 3.3363 0
M  V30 7783 H 712.528 2.43785 3.91267 0
M  V30 7784 H 716.072 5.88591 3.74442 0
M  V30 7785 H 711.969 4.79462 4.32188 0
M  V30 7786 H 712.737 6.86617 4.45533 0
M  V30 7787 N 715.4 -1.26948 0.933913 0
M  V30 7788 C 716.647 -1.94087 0.577625 0
M  V30 7789 C 716.975 -1.73345 -0.88214 0
M  V30 7790 O 716.23 -1.05945 -1.64542 0
M  V30 7791 C 716.529 -3.46963 0.857406 0
M  V30 7792 C 716.195 -3.87834 2.2999 0
M  V30 7793 C 714.857 -3.98704 2.69423 0
M  V30 7794 C 717.209 -4.08442 3.23766 0
M  V30 7795 C 714.537 -4.27573 4.01744 0
M  V30 7796 C 716.889 -4.38798 4.55675 0
M  V30 7797 C 715.553 -4.47881 4.94934 0
M  V30 7798 H 714.823 -0.710215 0.211368 0
M  V30 7799 H 717.47 -1.50899 1.17905 0
M  V30 7800 H 715.775 -3.91416 0.173369 0
M  V30 7801 H 717.472 -3.97062 0.560615 0
M  V30 7802 H 714.062 -3.79916 1.98399 0
M  V30 7803 H 718.246 -3.99479 2.94499 0
M  V30 7804 H 713.502 -4.32815 4.31834 0
M  V30 7805 H 717.676 -4.5369 5.28335 0
M  V30 7806 H 715.303 -4.70005 5.97495 0
M  V30 7807 N 716.879 -0.700114 -1.41195 0
M  V30 7808 C 717.812 0.0129614 -2.28196 0
M  V30 7809 C 718.79 0.783367 -1.42486 0
M  V30 7810 O 719.974 0.773238 -1.71911 0
M  V30 7811 C 717.101 1.02575 -3.22794 0
M  V30 7812 C 716.147 0.347977 -4.25078 0
M  V30 7813 S 716.98 -0.912938 -5.27661 0
M  V30 7814 C 718.136 0.0981362 -6.25823 0
M  V30 7815 H 718.369 -0.724927 -2.88326 0
M  V30 7816 H 715.902 -0.490554 -1.464 0
M  V30 7817 H 717.86 1.60491 -3.77826 0
M  V30 7818 H 716.521 1.73624 -2.61751 0
M  V30 7819 H 715.714 1.11305 -4.91556 0
M  V30 7820 H 715.316 -0.15823 -3.73665 0
M  V30 7821 H 717.608 0.949965 -6.70807 0
M  V30 7822 H 718.551 -0.532838 -7.06092 0
M  V30 7823 H 718.959 0.454944 -5.62664 0
M  V30 7824 N 718.357 1.51182 -0.445186 0
M  V30 7825 C 719.289 2.25714 0.398206 0
M  V30 7826 C 720.302 1.30032 0.979562 0
M  V30 7827 O 721.491 1.55731 0.872368 0
M  V30 7828 C 718.591 3.00348 1.56985 0
M  V30 7829 C 717.764 4.23187 1.10596 0
M  V30 7830 C 716.823 4.80334 2.14863 0
M  V30 7831 O 715.849 5.4196 1.73977 0
M  V30 7832 N 717.051 4.65053 3.47427 0
M  V30 7833 H 719.816 2.98732 -0.240629 0
M  V30 7834 H 717.377 1.59556 -0.274507 0
M  V30 7835 H 719.369 3.35464 2.26376 0
M  V30 7836 H 717.939 2.30291 2.11387 0
M  V30 7837 H 717.159 3.93476 0.238832 0
M  V30 7838 H 718.447 5.02886 0.773537 0
M  V30 7839 H 717.845 4.15984 3.83372 0
M  V30 7840 H 716.402 5.04509 4.12691 0
M  V30 7841 N 719.835 0.176821 1.56605 0
M  V30 7842 C 721.06 -0.47599 2.01864 0
M  V30 7843 C 721.485 -1.55645 1.05623 0
M  V30 7844 O 720.843 -1.81263 0.0366729 0
M  V30 7845 C 720.891 -1.02619 3.4569 0
M  V30 7846 O 719.995 -2.13996 3.52533 0
M  V30 7847 H 719.336 -0.113363 0.654251 0
M  V30 7848 H 721.866 0.28233 2.02643 0
M  V30 7849 H 721.876 -1.34742 3.85109 0
M  V30 7850 H 720.551 -0.235138 4.15235 0
M  V30 7851 H 719.128 -1.82876 3.24978 0
M  V30 7852 N 721.313 -1.57302 -0.09688 0
M  V30 7853 C 722.59 -1.7701 -0.832272 0
M  V30 7854 C 722.97 -0.758025 -1.97021 0
M  V30 7855 O 722.318 0.213824 -2.27497 0
M  V30 7856 C 722.528 -3.22725 -1.32851 0
M  V30 7857 C 723.876 -3.85856 -1.772 0
M  V30 7858 O 724.9 -3.26464 -1.42478 0
M  V30 7859 O 723.759 -4.90295 -2.41398 0
M  V30 7860 H 720.853 -0.725558 -0.396856 0
M  V30 7861 H 723.399 -1.69516 -0.0789005 0
M  V30 7862 H 722.171 -3.87921 -0.51312 0
M  V30 7863 H 721.794 -3.34845 -2.14394 0
M  V30 7864 N 722.791 0.367657 -1.53252 0
M  V30 7865 C 724.207 0.709191 -1.42978 0
M  V30 7866 C 724.407 1.93352 -0.567193 0
M  V30 7867 O 723.463 2.52453 -0.0488349 0
M  V30 7868 C 724.776 0.924338 -2.86141 0
M  V30 7869 C 726.324 1.02448 -2.95759 0
M  V30 7870 C 726.799 1.27211 -4.39979 0
M  V30 7871 N 728.29 1.33986 -4.43398 0
M  V30 7872 C 729.025 1.54852 -5.52095 0
M  V30 7873 N 728.521 1.73049 -6.7084 0
M  V30 7874 N 730.314 1.57205 -5.39669 0
M  V30 7875 H 722.465 -0.437669 -2.07842 0
M  V30 7876 H 724.728 -0.133737 -0.938519 0
M  V30 7877 H 724.434 0.0965455 -3.51567 0
M  V30 7878 H 724.308 1.83302 -3.29667 0
M  V30 7879 H 726.695 1.84282 -2.30487 0
M  V30 7880 H 726.776 0.0932301 -2.5563 0
M  V30 7881 H 726.42 0.458792 -5.05824 0
M  V30 7882 H 726.35 2.21654 -4.77679 0
M  V30 7883 H 728.841 1.21545 -3.5782 0
M  V30 7884 H 729.154 1.88538 -7.49449 0
M  V30 7885 H 727.499 1.70231 -6.7383 0
M  V30 7886 H 730.69 1.42555 -4.45865 0
M  V30 7887 H 730.863 1.73126 -6.24445 0
M  V30 7888 N 724.269 1.44576 0.627338 0
M  V30 7889 C 725.179 1.54232 1.76776 0
M  V30 7890 C 726.195 0.427782 1.6866 0
M  V30 7891 O 727.371 0.685671 1.89369 0
M  V30 7892 C 724.436 1.48738 3.13174 0
M  V30 7893 C 723.497 2.71074 3.32893 0
M  V30 7894 C 722.73 2.65832 4.62784 0
M  V30 7895 O 722.953 1.72048 5.43834 0
M  V30 7896 O 721.887 3.56742 4.84787 0
M  V30 7897 H 725.713 2.50586 1.71582 0
M  V30 7898 H 723.298 1.26865 0.789028 0
M  V30 7899 H 725.18 1.48211 3.94476 0
M  V30 7900 H 723.855 0.555292 3.18902 0
M  V30 7901 H 722.762 2.77168 2.51254 0
M  V30 7902 H 724.095 3.63342 3.32029 0
M  V30 7903 N 725.747 -0.868086 1.31537 0
M  V30 7904 C 726.694 -1.97548 1.19346 0
M  V30 7905 C 727.664 -1.65913 0.0787922 0
M  V30 7906 O 728.849 -1.89129 0.251985 0
M  V30 7907 C 725.989 -3.32922 0.908692 0
M  V30 7908 C 725.102 -3.77141 2.10687 0
M  V30 7909 C 724.237 -5.01241 1.75873 0
M  V30 7910 C 723.276 -5.37914 2.92088 0
M  V30 7911 N 722.413 -6.53192 2.57457 0
M  V30 7912 H 727.253 -2.07307 2.14074 0
M  V30 7913 H 724.79 -1.01483 1.06487 0
M  V30 7914 H 726.748 -4.10867 0.724138 0
M  V30 7915 H 725.378 -3.228 -0.0017611 0
M  V30 7916 H 724.43 -2.94961 2.40213 0
M  V30 7917 H 725.742 -4.00248 2.97663 0
M  V30 7918 H 724.896 -5.86858 1.53891 0
M  V30 7919 H 723.635 -4.80041 0.86091 0
M  V30 7920 H 722.64 -4.50814 3.14717 0
M  V30 7921 H 723.865 -5.61077 3.82582 0
M  V30 7922 H 721.811 -6.33536 1.702 0
M  V30 7923 H 721.728 -6.76252 3.37963 0
M  V30 7924 H 722.996 -7.41997 2.38873 0
M  V30 7925 N 727.225 -1.14528 -1.08264 0
M  V30 7926 C 728.45 -0.938381 -1.84957 0
M  V30 7927 C 728.875 0.508044 -1.81109 0
M  V30 7928 O 728.233 1.36146 -1.19724 0
M  V30 7929 C 728.281 -1.44568 -3.30352 0
M  V30 7930 O 727.385 -0.638745 -4.07423 0
M  V30 7931 H 726.726 -0.335394 -0.573068 0
M  V30 7932 H 729.256 -1.52287 -1.36637 0
M  V30 7933 H 729.266 -1.45449 -3.81194 0
M  V30 7934 H 727.941 -2.49876 -3.32468 0
M  V30 7935 H 726.518 -0.698801 -3.66294 0
M  V30 7936 N 728.703 1.26451 -0.940633 0
M  V30 7937 C 729.613 2.30128 -0.455881 0
M  V30 7938 C 730.629 1.67536 0.469867 0
M  V30 7939 O 731.805 1.98344 0.349529 0
M  V30 7940 C 728.87 3.45634 0.271648 0
M  V30 7941 C 727.931 4.23709 -0.690594 0
M  V30 7942 C 727.164 5.337 0.00231047 0
M  V30 7943 O 727.387 5.57215 1.21935 0
M  V30 7944 O 726.321 5.98091 -0.676111 0
M  V30 7945 H 730.147 2.73655 -1.31707 0
M  V30 7946 H 727.732 1.3164 -0.706497 0
M  V30 7947 H 729.614 4.15853 0.681486 0
M  V30 7948 H 728.289 3.04138 1.10824 0
M  V30 7949 H 727.196 3.55974 -1.15037 0
M  V30 7950 H 728.529 4.68953 -1.49478 0
M  V30 7951 N 730.181 0.707592 1.40822 0
M  V30 7952 C 731.429 0.243189 2.00632 0
M  V30 7953 C 731.75 -1.16512 1.56365 0
M  V30 7954 O 731.02 -1.78841 0.799553 0
M  V30 7955 H 729.6 0.0869203 0.741926 0
M  V30 7956 H 732.262 0.911438 1.72275 0
M  V30 7957 H 731.358 0.270014 3.1093 0
M  V30 7958 N 731.66 -1.50943 0.453197 0
M  V30 7959 C 732.59 -2.31005 -0.34044 0
M  V30 7960 C 733.571 -1.37112 -1.00669 0
M  V30 7961 O 734.756 -1.66033 -1.0073 0
M  V30 7962 C 731.886 -3.16358 -1.433 0
M  V30 7963 C 730.84 -4.18658 -0.889363 0
M  V30 7964 C 730.166 -4.92633 -2.07887 0
M  V30 7965 C 731.466 -5.22227 0.0871142 0
M  V30 7966 H 733.16 -2.97601 0.327723 0
M  V30 7967 H 730.706 -1.43119 0.159054 0
M  V30 7968 H 732.659 -3.71155 -1.99555 0
M  V30 7969 H 731.383 -2.47613 -2.12968 0
M  V30 7970 H 730.042 -3.64936 -0.348915 0
M  V30 7971 H 729.69 -4.20376 -2.76211 0
M  V30 7972 H 729.39 -5.61819 -1.72143 0
M  V30 7973 H 730.914 -5.50258 -2.64666 0
M  V30 7974 H 732.328 -5.72001 -0.385656 0
M  V30 7975 H 730.725 -5.99032 0.357926 0
M  V30 7976 H 731.795 -4.74077 1.01879 0
M  V30 7977 N 733.138 -0.185124 -1.56509 0
M  V30 7978 C 734.549 0.329221 -1.83774 0
M  V30 7979 C 734.9 1.62093 -1.10545 0
M  V30 7980 O 734.025 2.13334 -0.36298 0
M  V30 7981 C 734.62 0.604099 -3.33371 0
M  V30 7982 C 733.179 1.06284 -3.61083 0
M  V30 7983 C 732.326 0.10608 -2.77097 0
M  V30 7984 H 735.277 -0.409116 -1.53336 0
M  V30 7985 H 735.298 1.45458 -3.51599 0
M  V30 7986 H 734.81 -0.336201 -3.86641 0
M  V30 7987 H 732.911 2.01777 -3.13236 0
M  V30 7988 H 733.024 0.962453 -4.69333 0
M  V30 7989 H 731.388 0.606082 -2.47384 0
M  V30 7990 H 732.171 -0.828486 -3.33153 0
M  V30 7991 N 734.616 1.57351 0.0885366 0
M  V30 7992 C 735.862 1.86696 0.791996 0
M  V30 7993 C 736.195 0.775148 1.78059 0
M  V30 7994 O 735.47 -0.216247 1.93294 0
M  V30 7995 C 735.753 3.26684 1.51491 0
M  V30 7996 C 735.606 4.465 0.543858 0
M  V30 7997 C 736.925 3.64664 2.46391 0
M  V30 7998 H 734.044 0.679049 0.286463 0
M  V30 7999 H 736.686 1.89919 0.0554866 0
M  V30 8000 H 734.836 3.24067 2.14273 0
M  V30 8001 H 736.508 4.61235 -0.0774597 0
M  V30 8002 H 734.751 4.33567 -0.142228 0
M  V30 8003 H 735.422 5.41192 1.08696 0
M  V30 8004 H 737.898 3.68267 1.93698 0
M  V30 8005 H 736.774 4.63534 2.93986 0
M  V30 8006 H 737.035 2.93698 3.30445 0
M  V30 8007 N 736.094 -0.359525 1.53444 0
M  V30 8008 C 737.057 -1.42357 1.7963 0
M  V30 8009 C 738.057 -1.46319 0.666884 0
M  V30 8010 O 739.247 -1.46974 0.935113 0
M  V30 8011 C 736.379 -2.81425 1.92387 0
M  V30 8012 H 737.572 -1.20409 2.74666 0
M  V30 8013 H 735.125 -0.593007 1.44614 0
M  V30 8014 H 735.86 -3.08679 0.994384 0
M  V30 8015 H 735.645 -2.79947 2.74539 0
M  V30 8016 H 737.135 -3.5847 2.14218 0
M  V30 8017 N 737.572 -1.44907 -0.619662 0
M  V30 8018 C 738.983 -1.42905 -1.20146 0
M  V30 8019 C 739.334 -0.150341 -1.95623 0
M  V30 8020 O 738.459 0.748732 -2.03034 0
M  V30 8021 C 739.054 -2.58889 -2.18545 0
M  V30 8022 C 737.613 -2.60046 -2.72127 0
M  V30 8023 C 736.76 -2.3493 -1.4732 0
M  V30 8024 H 739.711 -1.53321 -0.409666 0
M  V30 8025 H 739.732 -2.32298 -3.0136 0
M  V30 8026 H 739.244 -3.51941 -1.63583 0
M  V30 8027 H 737.345 -1.70968 -3.3106 0
M  V30 8028 H 737.458 -3.58893 -3.17384 0
M  V30 8029 H 735.822 -1.84248 -1.75855 0
M  V30 8030 H 736.605 -3.3011 -0.942442 0
M  V30 8031 N 739.05 0.861098 -1.31996 0
M  V30 8032 C 740.297 1.61481 -1.22188 0
M  V30 8033 C 740.625 1.93276 0.217853 0
M  V30 8034 O 739.88 1.56942 1.16909 0
M  V30 8035 C 740.179 2.94822 -2.02027 0
M  V30 8036 C 739.845 2.82483 -3.51446 0
M  V30 8037 C 738.507 2.78825 -3.92186 0
M  V30 8038 C 740.859 2.68878 -4.46491 0
M  V30 8039 C 738.187 2.59433 -5.26224 0
M  V30 8040 C 740.539 2.51022 -5.80664 0
M  V30 8041 C 739.203 2.45753 -6.20614 0
M  V30 8042 H 738.473 0.590902 -0.447119 0
M  V30 8043 H 741.12 0.999376 -1.63355 0
M  V30 8044 H 739.425 3.6045 -1.53569 0
M  V30 8045 H 741.122 3.52149 -1.91812 0
M  V30 8046 H 737.712 2.86152 -3.19085 0
M  V30 8047 H 741.896 2.70754 -4.1594 0
M  V30 8048 H 737.152 2.53784 -5.5624 0
M  V30 8049 H 741.326 2.39473 -6.53931 0
M  V30 8050 H 738.953 2.30485 -7.24417 0
M  V30 8051 N 740.528 1.15101 1.07655 0
M  V30 8052 C 741.461 0.788522 2.14144 0
M  V30 8053 C 742.439 -0.233635 1.60913 0
M  V30 8054 O 743.623 -0.120908 1.88112 0
M  V30 8055 C 740.75 0.172033 3.38263 0
M  V30 8056 C 739.796 1.16559 4.10264 0
M  V30 8057 S 740.629 2.70627 4.62084 0
M  V30 8058 C 741.785 2.10389 5.8948 0
M  V30 8059 H 742.018 1.69047 2.44561 0
M  V30 8060 H 739.551 0.973033 1.19881 0
M  V30 8061 H 741.509 -0.177223 4.10117 0
M  V30 8062 H 740.17 -0.707468 3.06029 0
M  V30 8063 H 739.363 0.6824 4.99359 0
M  V30 8064 H 738.965 1.45923 3.44358 0
M  V30 8065 H 741.257 1.46405 6.61492 0
M  V30 8066 H 742.2 2.97639 6.42508 0
M  V30 8067 H 742.608 1.54816 5.42856 0
M  V30 8068 N 742.006 -1.2595 0.947325 0
M  V30 8069 C 743.283 -1.88676 0.515824 0
M  V30 8070 C 743.663 -1.85547 -1.00675 0
M  V30 8071 O 743.011 -1.31399 -1.8694 0
M  V30 8072 C 743.221 -3.31734 1.08415 0
M  V30 8073 C 744.569 -4.08545 1.15654 0
M  V30 8074 O 745.593 -3.40826 1.03517 0
M  V30 8075 O 744.452 -5.29663 1.34608 0
M  V30 8076 H 741.546 -0.809537 0.169055 0
M  V30 8077 H 744.092 -1.34075 1.04029 0
M  V30 8078 H 742.864 -3.28404 2.1276 0
M  V30 8079 H 742.487 -3.93882 0.542499 0
M  V30 8080 N 743.484 -0.715051 -1.40445 0
M  V30 8081 C 744.9 -0.388555 -1.54798 0
M  V30 8082 C 745.1 1.10271 -1.68649 0
M  V30 8083 O 744.156 1.88875 -1.67578 0
M  V30 8084 C 745.469 -1.15414 -2.77669 0
M  V30 8085 C 747.017 -1.14039 -2.91486 0
M  V30 8086 C 747.492 -1.88812 -4.1727 0
M  V30 8087 N 748.983 -1.85878 -4.24268 0
M  V30 8088 C 749.718 -2.40558 -5.20499 0
M  V30 8089 N 749.214 -3.03791 -6.22642 0
M  V30 8090 N 751.007 -2.30703 -5.12574 0
M  V30 8091 H 743.158 -1.68201 -1.297 0
M  V30 8092 H 745.421 -0.710915 -0.627139 0
M  V30 8093 H 745.127 -2.20853 -2.7371 0
M  V30 8094 H 745.001 -0.745412 -3.69761 0
M  V30 8095 H 747.388 -0.0941996 -2.9495 0
M  V30 8096 H 747.469 -1.58834 -2.00513 0
M  V30 8097 H 747.113 -2.93422 -4.14568 0
M  V30 8098 H 747.043 -1.41438 -5.0725 0
M  V30 8099 H 749.534 -1.39794 -3.51093 0
M  V30 8100 H 749.847 -3.43032 -6.92495 0
M  V30 8101 H 748.192 -3.07875 -6.23087 0
M  V30 8102 H 751.383 -1.80961 -4.31707 0
M  V30 8103 H 751.556 -2.73618 -5.87398 0
M  V30 8104 N 744.962 1.50701 -0.461195 0
M  V30 8105 C 746.239 1.94958 0.158296 0
M  V30 8106 C 746.619 1.40111 1.57899 0
M  V30 8107 O 745.967 0.597976 2.20537 0
M  V30 8108 C 746.177 3.48821 0.11172 0
M  V30 8109 C 747.525 4.23499 0.30552 0
M  V30 8110 O 748.549 3.557 0.188758 0
M  V30 8111 O 747.408 5.43823 0.540244 0
M  V30 8112 H 744.502 0.818674 0.117054 0
M  V30 8113 H 747.048 1.61508 -0.520888 0
M  V30 8114 H 745.82 3.81263 -0.880577 0
M  V30 8115 H 745.443 3.88781 0.832791 0
M  V30 8116 N 746.441 0.193421 1.56409 0
M  V30 8117 C 747.388 -0.728124 2.19014 0
M  V30 8118 C 748.358 -1.21098 1.13686 0
M  V30 8119 O 749.543 -1.27517 1.4193 0
M  V30 8120 C 746.683 -1.94277 2.8522 0
M  V30 8121 C 745.796 -1.50143 4.05069 0
M  V30 8122 C 744.931 -2.67145 4.59137 0
M  V30 8123 C 743.97 -2.19609 5.71348 0
M  V30 8124 N 743.107 -3.29782 6.19829 0
M  V30 8125 H 747.947 -0.187499 2.9741 0
M  V30 8126 H 745.484 -0.0808064 1.46878 0
M  V30 8127 H 747.442 -2.65551 3.21774 0
M  V30 8128 H 746.072 -2.45673 2.09391 0
M  V30 8129 H 745.124 -0.684624 3.74189 0
M  V30 8130 H 746.436 -1.11266 4.86232 0
M  V30 8131 H 745.59 -3.46544 4.97988 0
M  V30 8132 H 744.329 -3.09295 3.77078 0
M  V30 8133 H 743.334 -1.38664 5.32027 0
M  V30 8134 H 744.559 -1.78492 6.55223 0
M  V30 8135 H 742.505 -3.71466 5.40693 0
M  V30 8136 H 742.422 -2.95069 6.96039 0
M  V30 8137 H 743.69 -4.094 6.63334 0
M  V30 8138 N 747.919 -1.57396 -0.0801906 0
M  V30 8139 C 749.165 -1.87113 -0.782083 0
M  V30 8140 C 749.498 -0.78458 -1.77646 0
M  V30 8141 O 748.773 0.205993 -1.93406 0
M  V30 8142 C 749.056 -3.27483 -1.49756 0
M  V30 8143 C 748.909 -4.46782 -0.520171 0
M  V30 8144 C 750.228 -3.65965 -2.44454 0
M  V30 8145 H 747.347 -0.680559 -0.282858 0
M  V30 8146 H 749.989 -1.89946 -0.0454139 0
M  V30 8147 H 748.139 -3.25199 -2.12551 0
M  V30 8148 H 749.811 -4.61187 0.101919 0
M  V30 8149 H 748.054 -4.33485 0.165219 0
M  V30 8150 H 748.725 -5.41761 -1.05824 0
M  V30 8151 H 751.201 -3.69289 -1.91742 0
M  V30 8152 H 750.077 -4.65086 -2.91524 0
M  V30 8153 H 750.338 -2.95446 -3.28883 0
M  V30 8154 N 749.397 0.351382 -1.53633 0
M  V30 8155 C 750.625 1.11275 -1.74429 0
M  V30 8156 C 751.04 1.82602 -0.479798 0
M  V30 8157 O 750.397 1.74074 0.548125 0
M  V30 8158 C 750.448 2.13223 -2.91921 0
M  V30 8159 O 750.169 1.44798 -4.13479 0
M  V30 8160 C 751.67 3.01797 -3.24706 0
M  V30 8161 H 748.89 0.332153 -0.583023 0
M  V30 8162 H 751.434 0.405974 -2.0043 0
M  V30 8163 H 749.589 2.79477 -2.68274 0
M  V30 8164 H 750.003 2.12839 -4.79374 0
M  V30 8165 H 751.477 3.69282 -4.10286 0
M  V30 8166 H 751.954 3.67387 -2.40673 0
M  V30 8167 H 752.56 2.41141 -3.5033 0
M  V30 8168 N 750.875 1.45233 0.611969 0
M  V30 8169 C 751.822 1.5357 1.72293 0
M  V30 8170 C 752.792 0.381912 1.6165 0
M  V30 8171 O 753.977 0.594765 1.81293 0
M  V30 8172 C 751.117 1.50419 3.10593 0
M  V30 8173 C 750.23 2.76316 3.32074 0
M  V30 8174 C 749.365 2.64866 4.60456 0
M  V30 8175 C 748.404 3.85838 4.7518 0
M  V30 8176 N 747.541 3.72949 5.94856 0
M  V30 8177 H 752.381 2.4848 1.64504 0
M  V30 8178 H 749.918 1.23302 0.802191 0
M  V30 8179 H 751.876 1.4658 3.90602 0
M  V30 8180 H 750.506 0.590621 3.17351 0
M  V30 8181 H 749.558 2.90261 2.45872 0
M  V30 8182 H 750.87 3.66055 3.38829 0
M  V30 8183 H 750.024 2.58969 5.48653 0
M  V30 8184 H 748.763 1.72719 4.56092 0
M  V30 8185 H 747.768 3.92099 3.85407 0
M  V30 8186 H 748.993 4.79045 4.81344 0
M  V30 8187 H 746.939 2.83567 5.91545 0
M  V30 8188 H 746.856 4.56319 6.02751 0
M  V30 8189 H 748.124 3.70976 6.85563 0
M  V30 8190 N 752.353 -0.854086 1.3245 0
M  V30 8191 C 753.316 -1.94427 1.21371 0
M  V30 8192 C 754.316 -1.60219 0.136613 0
M  V30 8193 O 755.506 -1.69846 0.387057 0
M  V30 8194 C 752.638 -3.29698 0.866701 0
M  V30 8195 H 753.831 -2.05679 2.18257 0
M  V30 8196 H 751.384 -1.04434 1.1629 0
M  V30 8197 H 752.119 -3.24145 -0.100319 0
M  V30 8198 H 751.904 -3.55903 1.64545 0
M  V30 8199 H 753.394 -4.09599 0.813515 0
M  V30 8200 N 753.831 -1.1567 -1.07043 0
M  V30 8201 C 755.059 -0.957471 -1.83412 0
M  V30 8202 C 755.474 0.494271 -1.82215 0
M  V30 8203 O 754.831 1.34288 -1.23584 0
M  V30 8204 C 754.882 -1.46784 -3.30359 0
M  V30 8205 O 754.603 -2.86271 -3.31633 0
M  V30 8206 C 756.104 -1.31054 -4.23485 0
M  V30 8207 H 753.324 -0.33986 -0.578564 0
M  V30 8208 H 755.868 -1.53518 -1.35102 0
M  V30 8209 H 754.023 -0.932586 -3.76007 0
M  V30 8210 H 754.437 -3.0948 -4.23465 0
M  V30 8211 H 755.911 -1.71605 -5.24648 0
M  V30 8212 H 756.388 -0.255107 -4.38458 0
M  V30 8213 H 756.994 -1.83503 -3.83676 0
M  V30 8214 N 755.309 1.25446 -0.953992 0
M  V30 8215 C 756.272 2.24156 -0.478179 0
M  V30 8216 C 757.272 1.55278 0.417776 0
M  V30 8217 O 758.462 1.72866 0.215155 0
M  V30 8218 C 755.594 3.39495 0.309202 0
M  V30 8219 H 756.787 2.67764 -1.35064 0
M  V30 8220 H 754.34 1.37822 -0.737206 0
M  V30 8221 H 755.075 3.01307 1.19936 0
M  V30 8222 H 754.86 3.90679 -0.333562 0
M  V30 8223 H 756.35 4.12796 0.631594 0
M  V30 8224 N 756.787 0.722489 1.40064 0
M  V30 8225 C 757.719 0.0349057 2.29173 0
M  V30 8226 C 758.732 -0.716571 1.46182 0
M  V30 8227 O 759.921 -0.562806 1.69395 0
M  V30 8228 C 757.021 -0.974839 3.24577 0
M  V30 8229 C 756.194 -0.287471 4.36454 0
M  V30 8230 C 755.253 -1.20356 5.12251 0
M  V30 8231 O 754.279 -0.685753 5.65054 0
M  V30 8232 N 755.481 -2.53422 5.22262 0
M  V30 8233 H 758.246 0.800058 2.88824 0
M  V30 8234 H 755.807 0.57068 1.51509 0
M  V30 8235 H 757.799 -1.59002 3.72157 0
M  V30 8236 H 756.369 -1.6413 2.66046 0
M  V30 8237 H 755.589 0.508008 3.90913 0
M  V30 8238 H 756.877 0.189382 5.08447 0
M  V30 8239 H 756.275 -2.97981 4.80857 0
M  V30 8240 H 754.832 -3.10067 5.73325 0
M  V30 8241 N 758.265 -1.50454 0.469181 0
M  V30 8242 C 759.514 -2.01507 -0.0881425 0
M  V30 8243 C 759.827 -1.35613 -1.40956 0
M  V30 8244 O 761.033 -1.77812 -2.05171 0
M  V30 8245 C 759.489 -3.59301 -0.207596 0
M  V30 8246 C 759.097 -4.34152 1.10527 0
M  V30 8247 C 760.841 -4.18401 -0.716981 0
M  V30 8248 C 758.748 -5.83725 0.949717 0
M  V30 8249 H 757.678 -0.753106 -0.0367156 0
M  V30 8250 H 760.329 -1.73282 0.603788 0
M  V30 8251 H 758.711 -3.84106 -0.963265 0
M  V30 8252 H 759.885 -4.21073 1.87175 0
M  V30 8253 H 758.2 -3.86652 1.54562 0
M  V30 8254 H 760.797 -5.27895 -0.850363 0
M  V30 8255 H 761.14 -3.79657 -1.70782 0
M  V30 8256 H 761.673 -3.97796 -0.0187511 0
M  V30 8257 H 758.412 -6.26938 1.91387 0
M  V30 8258 H 757.932 -5.99383 0.223591 0
M  V30 8259 H 759.611 -6.44065 0.61557 0
M  V30 8260 N 759.743 -0.201713 -1.56304 0
M  V30 8261 C 760.991 0.434447 -1.97375 0
M  V30 8262 C 761.312 1.61692 -1.08998 0
M  V30 8263 O 760.582 1.95223 -0.162682 0
M  V30 8264 H 759.162 0.163497 -0.728888 0
M  V30 8265 H 761.824 -0.289988 -1.92731 0
M  V30 8266 H 760.92 0.774136 -3.02347 0
M  V30 8267 N 761.222 1.57436 0.0718424 0
M  V30 8268 C 762.469 1.87248 0.771007 0
M  V30 8269 C 762.797 0.793441 1.7758 0
M  V30 8270 O 762.052 -0.210565 1.94564 0
M  V30 8271 C 762.351 3.23723 1.51455 0
M  V30 8272 C 762.017 4.46194 0.649736 0
M  V30 8273 C 760.679 4.79438 0.411409 0
M  V30 8274 C 763.031 5.21176 0.05004 0
M  V30 8275 C 760.359 5.85077 -0.436096 0
M  V30 8276 C 762.711 6.27712 -0.784919 0
M  V30 8277 C 761.375 6.59457 -1.03312 0
M  V30 8278 H 760.645 0.685188 0.282132 0
M  V30 8279 H 763.292 1.91474 0.0317896 0
M  V30 8280 H 761.597 3.15287 2.32597 0
M  V30 8281 H 763.294 3.44023 2.06031 0
M  V30 8282 H 759.884 4.20175 0.84562 0
M  V30 8283 H 764.068 4.95806 0.221282 0
M  V30 8284 H 759.324 6.08071 -0.637136 0
M  V30 8285 H 763.498 6.84974 -1.25635 0
M  V30 8286 H 761.125 7.4114 -1.6916 0
M  V30 8287 N 762.7 -0.34323 1.53817 0
M  V30 8288 C 763.949 -1.08086 1.70295 0
M  V30 8289 C 764.262 -1.89794 0.47302 0
M  V30 8290 O 765.468 -2.66498 0.518754 0
M  V30 8291 C 763.924 -1.97097 3.01133 0
M  V30 8292 C 763.532 -1.20594 4.31464 0
M  V30 8293 C 765.276 -2.70715 3.26976 0
M  V30 8294 C 763.183 -2.08636 5.53376 0
M  V30 8295 H 762.113 -0.407228 0.634572 0
M  V30 8296 H 764.764 -0.340328 1.80316 0
M  V30 8297 H 763.146 -2.74971 2.84969 0
M  V30 8298 H 764.32 -0.476282 4.58332 0
M  V30 8299 H 762.635 -0.587426 4.12236 0
M  V30 8300 H 765.232 -3.36857 4.15248 0
M  V30 8301 H 765.575 -3.37299 2.43998 0
M  V30 8302 H 766.108 -1.99914 3.43917 0
M  V30 8303 H 762.847 -1.46594 6.38898 0
M  V30 8304 H 762.367 -2.7939 5.30755 0
M  V30 8305 H 764.046 -2.67682 5.89029 0
M  V30 8306 N 764.178 -1.45556 -0.604258 0
M  V30 8307 C 765.125 -1.54482 -1.71476 0
M  V30 8308 C 766.095 -0.390479 -1.61445 0
M  V30 8309 O 767.28 -0.604371 -1.80975 0
M  V30 8310 C 764.42 -1.52064 -3.09791 0
M  V30 8311 C 763.533 -2.78073 -3.30604 0
M  V30 8312 C 762.668 -2.67304 -4.59044 0
M  V30 8313 C 761.707 -3.88352 -4.73127 0
M  V30 8314 N 760.844 -3.76098 -5.9287 0
M  V30 8315 H 765.684 -2.49349 -1.63184 0
M  V30 8316 H 763.221 -1.23725 -0.795641 0
M  V30 8317 H 765.179 -1.48649 -3.89819 0
M  V30 8318 H 763.809 -0.607442 -3.17033 0
M  V30 8319 H 762.861 -2.91561 -2.44329 0
M  V30 8320 H 764.173 -3.67847 -3.36883 0
M  V30 8321 H 763.327 -2.61875 -5.47272 0
M  V30 8322 H 762.066 -1.75135 -4.55169 0
M  V30 8323 H 761.071 -3.94137 -3.83322 0
M  V30 8324 H 762.296 -4.81591 -4.78797 0
M  V30 8325 H 760.242 -2.867 -5.90033 0
M  V30 8326 H 760.159 -4.59509 -6.00323 0
M  V30 8327 H 761.427 -3.74607 -6.83586 0
M  V30 8328 N 765.656 0.84705 -1.32902 0
M  V30 8329 C 766.903 1.60176 -1.23894 0
M  V30 8330 C 767.231 1.93496 0.197341 0
M  V30 8331 O 766.486 1.58173 1.15238 0
M  V30 8332 C 766.785 2.92663 -2.05142 0
M  V30 8333 C 766.451 2.7874 -3.54422 0
M  V30 8334 C 765.113 2.7465 -3.95121 0
M  V30 8335 C 767.465 2.64128 -4.49317 0
M  V30 8336 C 764.793 2.53837 -5.28946 0
M  V30 8337 C 767.145 2.44849 -5.83294 0
M  V30 8338 C 765.809 2.39156 -6.23186 0
M  V30 8339 H 765.079 0.586127 -0.453361 0
M  V30 8340 H 767.726 0.981994 -1.64405 0
M  V30 8341 H 766.031 3.588 -1.57383 0
M  V30 8342 H 767.728 3.50095 -1.95537 0
M  V30 8343 H 764.318 2.82751 -3.22102 0
M  V30 8344 H 768.502 2.66327 -4.18788 0
M  V30 8345 H 763.758 2.4787 -5.58901 0
M  V30 8346 H 767.932 2.32524 -6.56434 0
M  V30 8347 H 765.559 2.22789 -7.26821 0
M  V30 8348 N 767.134 1.16236 1.06428 0
M  V30 8349 C 768.38 0.944431 1.79467 0
M  V30 8350 C 768.713 -0.526558 1.86925 0
M  V30 8351 O 767.988 -1.39061 1.35986 0
M  V30 8352 C 768.271 1.57092 3.24028 0
M  V30 8353 C 768.124 3.11315 3.24658 0
M  V30 8354 C 769.443 1.26447 4.21544 0
M  V30 8355 H 766.562 0.344521 0.651517 0
M  V30 8356 H 769.204 1.43545 1.24478 0
M  V30 8357 H 767.354 1.15337 3.70985 0
M  V30 8358 H 769.026 3.62042 2.85873 0
M  V30 8359 H 767.269 3.44716 2.6335 0
M  V30 8360 H 767.94 3.50269 4.26633 0
M  V30 8361 H 770.416 1.62581 3.83023 0
M  V30 8362 H 769.292 1.72885 5.20963 0
M  V30 8363 H 769.553 0.183068 4.41721 0
M  V30 8364 N 768.612 -1.24939 0.960631 0
M  V30 8365 C 769.542 -2.28 0.503815 0
M  V30 8366 C 770.523 -1.63959 -0.452928 0
M  V30 8367 O 771.708 -1.91009 -0.350585 0
M  V30 8368 C 768.838 -3.46643 -0.213535 0
M  V30 8369 C 767.792 -4.22903 0.658535 0
M  V30 8370 C 767.118 -5.34363 -0.189902 0
M  V30 8371 C 768.418 -4.84949 1.93963 0
M  V30 8372 H 770.112 -2.66462 1.36521 0
M  V30 8373 H 767.658 -1.28093 0.657897 0
M  V30 8374 H 769.611 -4.1787 -0.544286 0
M  V30 8375 H 768.335 -3.07187 -1.10923 0
M  V30 8376 H 766.994 -3.53467 0.972455 0
M  V30 8377 H 766.642 -4.91147 -1.08553 0
M  V30 8378 H 766.342 -5.86302 0.390331 0
M  V30 8379 H 767.866 -6.0842 -0.515484 0
M  V30 8380 H 769.28 -5.48288 1.67491 0
M  V30 8381 H 767.677 -5.47091 2.46601 0
M  V30 8382 H 768.747 -4.06799 2.639 0
M  V30 8383 N 770.09 -0.729906 -1.39679 0
M  V30 8384 C 771.339 -0.272534 -1.9985 0
M  V30 8385 C 771.652 1.14519 -1.58571 0
M  V30 8386 O 772.858 1.70182 -2.11543 0
M  V30 8387 C 771.314 -0.436322 -3.57245 0
M  V30 8388 C 770.922 -1.86161 -4.0749 0
M  V30 8389 C 772.666 -0.0404679 -4.24481 0
M  V30 8390 C 770.573 -1.97522 -5.5744 0
M  V30 8391 H 769.503 -0.0981428 -0.747585 0
M  V30 8392 H 772.154 -0.903056 -1.59741 0
M  V30 8393 H 770.536 0.263015 -3.95126 0
M  V30 8394 H 771.71 -2.59248 -3.80955 0
M  V30 8395 H 770.025 -2.21021 -3.529 0
M  V30 8396 H 772.622 -0.104437 -5.34598 0
M  V30 8397 H 772.965 1.00357 -4.04023 0
M  V30 8398 H 773.498 -0.690774 -3.91757 0
M  V30 8399 H 770.237 -3.00096 -5.82771 0
M  V30 8400 H 769.757 -1.28864 -5.85794 0
M  V30 8401 H 771.436 -1.754 -6.22771 0
M  V30 8402 N 771.568 1.50203 -0.477153 0
M  V30 8403 C 772.979 1.86685 -0.0235041 0
M  V30 8404 C 773.33 1.39148 1.38319 0
M  V30 8405 O 772.455 0.759051 2.02651 0
M  V30 8406 C 773.05 3.38781 -0.0358767 0
M  V30 8407 C 771.609 3.74652 0.362327 0
M  V30 8408 C 770.756 2.7412 -0.41875 0
M  V30 8409 H 773.707 1.4286 -0.691133 0
M  V30 8410 H 773.728 3.72732 0.764924 0
M  V30 8411 H 773.24 3.73349 -1.05981 0
M  V30 8412 H 771.341 3.45686 1.39039 0
M  V30 8413 H 771.454 4.79063 0.059457 0
M  V30 8414 H 769.818 2.54376 0.128341 0
M  V30 8415 H 770.601 3.11532 -1.44231 0
M  V30 8416 N 773.046 0.209999 1.56195 0
M  V30 8417 C 773.979 -0.744546 2.15712 0
M  V30 8418 C 774.957 -1.19917 1.09812 0
M  V30 8419 O 776.141 -1.284 1.38006 0
M  V30 8420 C 773.268 -2.00733 2.72807 0
M  V30 8421 C 772.314 -1.69363 3.91431 0
M  V30 8422 S 773.147 -0.828579 5.29051 0
M  V30 8423 C 774.303 -2.10118 5.89577 0
M  V30 8424 H 774.536 -0.238636 2.96341 0
M  V30 8425 H 772.069 -0.00517877 1.54399 0
M  V30 8426 H 774.027 -2.73246 3.06344 0
M  V30 8427 H 772.688 -2.48436 1.92193 0
M  V30 8428 H 771.881 -2.63157 4.29842 0
M  V30 8429 H 771.483 -1.04921 3.58981 0
M  V30 8430 H 773.775 -3.05231 6.04847 0
M  V30 8431 H 774.718 -1.76116 6.85849 0
M  V30 8432 H 775.126 -2.23644 5.18308 0
M  V30 8433 N 774.524 -1.57472 -0.0634922 0
M  V30 8434 C 775.771 -1.87654 -0.761066 0
M  V30 8435 C 776.099 -0.802847 -1.77157 0
M  V30 8436 O 775.354 0.200244 -1.94673 0
M  V30 8437 C 775.653 -3.24521 -1.49736 0
M  V30 8438 C 775.319 -4.46532 -0.626065 0
M  V30 8439 C 773.981 -4.7965 -0.385978 0
M  V30 8440 C 776.333 -5.21195 -0.0224001 0
M  V30 8441 C 773.661 -5.84837 0.467118 0
M  V30 8442 C 776.013 -6.27286 0.818198 0
M  V30 8443 C 774.677 -6.58899 1.06808 0
M  V30 8444 H 773.947 -0.686675 -0.278494 0
M  V30 8445 H 776.594 -1.91488 -0.0216348 0
M  V30 8446 H 774.899 -3.16516 -2.30921 0
M  V30 8447 H 776.596 -3.45111 -2.04204 0
M  V30 8448 H 773.186 -4.20618 -0.823325 0
M  V30 8449 H 777.37 -4.95917 -0.194985 0
M  V30 8450 H 772.626 -6.07725 0.669375 0
M  V30 8451 H 776.8 -6.84298 1.29265 0
M  V30 8452 H 774.427 -7.40233 1.73088 0
M  V30 8453 N 776.003 0.335068 -1.53997 0
M  V30 8454 C 776.913 1.43511 -1.85585 0
M  V30 8455 C 777.929 1.57162 -0.746726 0
M  V30 8456 O 779.105 1.72477 -1.03988 0
M  V30 8457 C 776.17 2.78386 -2.06646 0
M  V30 8458 C 775.231 2.74007 -3.30483 0
M  V30 8459 C 774.464 4.02449 -3.50529 0
M  V30 8460 O 774.687 5.00147 -2.74242 0
M  V30 8461 O 773.621 4.06405 -4.4398 0
M  V30 8462 H 777.447 1.19731 -2.79102 0
M  V30 8463 H 775.032 0.528033 -1.39758 0
M  V30 8464 H 776.914 3.58247 -2.21894 0
M  V30 8465 H 775.589 3.0208 -1.16317 0
M  V30 8466 H 774.496 1.92736 -3.2063 0
M  V30 8467 H 775.829 2.55267 -4.20832 0
M  V30 8468 N 777.481 1.45874 0.596531 0
M  V30 8469 C 778.709 1.54013 1.38158 0
M  V30 8470 C 779.124 0.17648 1.87973 0
M  V30 8471 O 778.481 -0.823895 1.62844 0
M  V30 8472 C 778.532 2.53363 2.57855 0
M  V30 8473 O 778.253 3.8443 2.10108 0
M  V30 8474 C 779.754 2.71308 3.50581 0
M  V30 8475 H 776.974 0.521251 0.422538 0
M  V30 8476 H 779.518 1.9116 0.726493 0
M  V30 8477 H 777.673 2.19257 3.19382 0
M  V30 8478 H 778.087 4.38384 2.87958 0
M  V30 8479 H 779.561 3.44776 4.31084 0
M  V30 8480 H 780.038 1.77728 4.01633 0
M  V30 8481 H 780.644 3.06455 2.94899 0
M  V30 8482 N 778.959 -0.83999 1.33349 0
M  V30 8483 C 780.205 -1.59753 1.24927 0
M  V30 8484 C 780.538 -1.93318 -0.184855 0
M  V30 8485 O 779.813 -1.586 -1.12589 0
M  V30 8486 C 780.096 -2.90829 2.12345 0
M  V30 8487 C 779.949 -2.63953 3.6421 0
M  V30 8488 C 781.268 -3.92246 1.99577 0
M  V30 8489 H 778.387 -0.579654 0.45516 0
M  V30 8490 H 781.029 -0.968909 1.63439 0
M  V30 8491 H 779.179 -3.44478 1.79631 0
M  V30 8492 H 780.851 -2.16745 4.07209 0
M  V30 8493 H 779.094 -1.97671 3.86146 0
M  V30 8494 H 779.765 -3.57348 4.20721 0
M  V30 8495 H 782.241 -3.479 2.28265 0
M  V30 8496 H 781.117 -4.81793 2.62996 0
M  V30 8497 H 781.378 -4.3138 0.967673 0
M  V30 8498 N 780.437 -1.16799 -1.0581 0
M  V30 8499 C 781.665 -0.97687 -1.82387 0
M  V30 8500 C 782.08 0.474917 -1.82729 0
M  V30 8501 O 781.437 1.3297 -1.25001 0
M  V30 8502 C 781.488 -1.50279 -3.28783 0
M  V30 8503 O 781.209 -2.89772 -3.28578 0
M  V30 8504 C 782.71 -1.35538 -4.22071 0
M  V30 8505 H 779.93 -0.345977 -0.574927 0
M  V30 8506 H 782.474 -1.54942 -1.33466 0
M  V30 8507 H 780.629 -0.972414 -3.74997 0
M  V30 8508 H 781.043 -3.13954 -4.20159 0
M  V30 8509 H 782.517 -1.7716 -5.22799 0
M  V30 8510 H 782.994 -0.301598 -4.38163 0
M  V30 8511 H 783.6 -1.87562 -3.81708 0
M  V30 8512 N 781.915 1.24427 -0.967243 0
M  V30 8513 C 782.862 2.25398 -0.496419 0
M  V30 8514 C 783.832 1.59667 0.457781 0
M  V30 8515 O 785.017 1.87213 0.368246 0
M  V30 8516 C 782.157 3.44474 0.207693 0
M  V30 8517 C 781.27 4.24804 -0.785221 0
M  V30 8518 C 780.405 5.31169 -0.0572631 0
M  V30 8519 C 779.444 6.03195 -1.04027 0
M  V30 8520 N 778.581 7.01265 -0.34235 0
M  V30 8521 H 783.421 2.65039 -1.36229 0
M  V30 8522 H 780.958 1.30288 -0.682902 0
M  V30 8523 H 782.916 4.12376 0.632612 0
M  V30 8524 H 781.546 3.05672 1.03752 0
M  V30 8525 H 780.598 3.56445 -1.32858 0
M  V30 8526 H 781.91 4.74599 -1.53483 0
M  V30 8527 H 781.064 6.05205 0.425674 0
M  V30 8528 H 779.803 4.8228 0.725047 0
M  V30 8529 H 778.808 5.27964 -1.53409 0
M  V30 8530 H 780.033 6.54173 -1.82302 0
M  V30 8531 H 777.979 6.54648 0.420993 0
M  V30 8532 H 777.896 7.48939 -1.03084 0
M  V30 8533 H 779.164 7.7941 0.118634 0
M  V30 8534 N 783.393 0.737304 1.3929 0
M  V30 8535 C 784.323 0.113988 2.33222 0
M  V30 8536 C 785.304 -0.721695 1.54031 0
M  V30 8537 O 786.489 -0.666206 1.82415 0
M  V30 8538 C 783.619 -0.792319 3.38141 0
M  V30 8539 C 782.573 -0.0606178 4.27957 0
M  V30 8540 C 781.899 -1.08409 5.23595 0
M  V30 8541 C 783.199 1.09817 5.10625 0
M  V30 8542 H 784.893 0.898611 2.85596 0
M  V30 8543 H 782.439 0.433571 1.37318 0
M  V30 8544 H 784.392 -1.23793 4.02807 0
M  V30 8545 H 783.116 -1.60908 2.84211 0
M  V30 8546 H 781.775 0.365393 3.64775 0
M  V30 8547 H 781.423 -1.89449 4.6596 0
M  V30 8548 H 781.123 -0.599269 5.84536 0
M  V30 8549 H 782.647 -1.52936 5.91137 0
M  V30 8550 H 784.061 0.730892 5.68622 0
M  V30 8551 H 782.458 1.51278 5.80719 0
M  V30 8552 H 783.528 1.91878 4.45321 0
M  V30 8553 N 784.871 -1.49948 0.485112 0
M  V30 8554 C 786.118 -2.02396 -0.0650059 0
M  V30 8555 C 786.446 -1.36606 -1.38452 0
M  V30 8556 O 785.701 -0.485476 -1.89583 0
M  V30 8557 C 786 -3.56282 -0.282434 0
M  V30 8558 C 785.666 -4.40625 0.957106 0
M  V30 8559 C 784.328 -4.63393 1.29692 0
M  V30 8560 C 786.68 -4.89799 1.78176 0
M  V30 8561 C 784.008 -5.3258 2.4612 0
M  V30 8562 C 786.36 -5.60266 2.93743 0
M  V30 8563 C 785.024 -5.81284 3.28124 0
M  V30 8564 H 784.294 -0.740618 -0.0237873 0
M  V30 8565 H 786.941 -1.80416 0.642044 0
M  V30 8566 H 785.246 -3.76853 -1.07186 0
M  V30 8567 H 786.943 -3.94442 -0.722276 0
M  V30 8568 H 783.533 -4.23133 0.682384 0
M  V30 8569 H 787.717 -4.7205 1.53239 0
M  V30 8570 H 782.973 -5.47059 2.73014 0
M  V30 8571 H 787.147 -5.97347 3.5798 0
M  V30 8572 H 784.774 -6.34671 4.18446 0
M  V30 8573 N 786.349 -0.21828 -1.56081 0
M  V30 8574 C 787.76 0.290166 -1.84431 0
M  V30 8575 C 788.111 1.59712 -1.13958 0
M  V30 8576 O 787.236 2.12516 -0.40815 0
M  V30 8577 C 787.831 0.53325 -3.34577 0
M  V30 8578 C 786.39 0.986011 -3.63256 0
M  V30 8579 C 785.537 0.0472798 -2.7726 0
M  V30 8580 H 788.488 -0.441548 -1.52434 0
M  V30 8581 H 788.509 1.37967 -3.54606 0
M  V30 8582 H 788.021 -0.418137 -3.85841 0
M  V30 8583 H 786.122 1.95087 -3.17446 0
M  V30 8584 H 786.235 0.862684 -4.71269 0
M  V30 8585 H 784.599 0.553471 -2.48614 0
M  V30 8586 H 785.382 -0.898966 -3.31321 0
M  V30 8587 N 787.827 1.57504 0.0551401 0
M  V30 8588 C 788.76 2.00155 1.09604 0
M  V30 8589 C 789.738 0.881274 1.36647 0
M  V30 8590 O 790.922 1.14498 1.49742 0
M  V30 8591 C 788.049 2.35246 2.43674 0
M  V30 8592 C 787.095 3.57452 2.32659 0
M  V30 8593 S 787.928 5.07639 1.7048 0
M  V30 8594 C 789.084 5.45947 3.06093 0
M  V30 8595 H 789.317 2.88131 0.732635 0
M  V30 8596 H 786.85 1.52122 0.264252 0
M  V30 8597 H 788.808 2.56136 3.20787 0
M  V30 8598 H 787.469 1.47769 2.7717 0
M  V30 8599 H 786.662 3.79576 3.31569 0
M  V30 8600 H 786.264 3.36279 1.63685 0
M  V30 8601 H 788.556 5.45036 4.0242 0
M  V30 8602 H 789.499 6.4656 2.88732 0
M  V30 8603 H 789.907 4.73419 3.07466 0
M  V30 8604 N 789.305 -0.326896 1.54172 0
M  V30 8605 C 790.551 -1.06681 1.72473 0
M  V30 8606 C 790.884 -1.87779 0.49523 0
M  V30 8607 O 790.159 -1.87754 -0.507803 0
M  V30 8608 C 790.442 -1.99429 2.99834 0
M  V30 8609 C 790.295 -1.21682 4.33028 0
M  V30 8610 C 791.614 -2.99002 3.22933 0
M  V30 8611 H 788.733 -0.386438 0.627563 0
M  V30 8612 H 791.375 -0.343779 1.86864 0
M  V30 8613 H 789.525 -2.61081 2.87696 0
M  V30 8614 H 791.197 -0.625153 4.57044 0
M  V30 8615 H 789.44 -0.519045 4.30684 0
M  V30 8616 H 790.111 -1.89766 5.18356 0
M  V30 8617 H 792.587 -2.4747 3.34511 0
M  V30 8618 H 791.463 -3.61085 4.13412 0
M  V30 8619 H 791.724 -3.71281 2.40006 0
M  V30 8620 N 790.784 -1.46188 -0.588786 0
M  V30 8621 C 791.694 -1.58865 -1.72624 0
M  V30 8622 C 792.71 -0.472348 -1.67466 0
M  V30 8623 O 793.886 -0.735638 -1.87484 0
M  V30 8624 C 790.951 -1.56989 -3.0912 0
M  V30 8625 C 790.012 -2.79804 -3.25589 0
M  V30 8626 C 789.245 -2.78009 -4.55573 0
M  V30 8627 O 789.468 -1.86406 -5.39082 0
M  V30 8628 O 788.402 -3.6947 -4.75159 0
M  V30 8629 H 792.228 -2.55047 -1.64878 0
M  V30 8630 H 789.813 -1.28912 -0.755115 0
M  V30 8631 H 791.695 -1.58618 -3.90408 0
M  V30 8632 H 790.37 -0.639648 -3.17317 0
M  V30 8633 H 789.277 -2.83732 -2.43818 0
M  V30 8634 H 790.61 -3.72017 -3.22279 0
M  V30 8635 N 792.262 0.832906 -1.33792 0
M  V30 8636 C 793.172 1.97514 -1.26592 0
M  V30 8637 C 794.188 1.73114 -0.175391 0
M  V30 8638 O 795.364 1.97387 -0.400062 0
M  V30 8639 C 792.429 3.31625 -1.01121 0
M  V30 8640 C 791.49 3.69101 -2.19233 0
M  V30 8641 C 790.723 4.96813 -1.94968 0
M  V30 8642 O 790.946 5.63208 -0.902955 0
M  V30 8643 O 789.88 5.31932 -2.8166 0
M  V30 8644 H 793.706 2.0653 -2.22664 0
M  V30 8645 H 791.291 0.966826 -1.13898 0
M  V30 8646 H 793.173 4.11968 -0.886571 0
M  V30 8647 H 791.848 3.23599 -0.080822 0
M  V30 8648 H 790.755 2.89243 -2.37253 0
M  V30 8649 H 792.088 3.818 -3.10628 0
M  V30 8650 N 793.74 1.17359 1.05189 0
M  V30 8651 C 794.989 0.956412 1.77583 0
M  V30 8652 C 795.302 -0.516018 1.88671 0
M  V30 8653 O 796.508 -0.851401 2.57805 0
M  V30 8654 C 794.964 1.66203 3.19225 0
M  V30 8655 C 794.572 3.17299 3.16267 0
M  V30 8656 C 796.316 1.52725 3.96075 0
M  V30 8657 C 794.223 3.8055 4.52698 0
M  V30 8658 H 793.153 0.354204 0.665624 0
M  V30 8659 H 795.804 1.40612 1.17901 0
M  V30 8660 H 794.186 1.14006 3.79234 0
M  V30 8661 H 795.36 3.76431 2.65776 0
M  V30 8662 H 793.675 3.3079 2.52917 0
M  V30 8663 H 796.272 1.97351 4.96947 0
M  V30 8664 H 796.615 0.477803 4.13549 0
M  V30 8665 H 797.148 2.02139 3.42614 0
M  V30 8666 H 793.887 4.85492 4.4043 0
M  V30 8667 H 793.407 3.26206 5.03339 0
M  V30 8668 H 795.086 3.82757 5.21638 0
M  V30 8669 N 795.218 -1.23913 0.973828 0
M  V30 8670 C 796.151 -2.23647 0.45355 0
M  V30 8671 C 797.129 -1.55485 -0.475724 0
M  V30 8672 O 798.313 -1.84083 -0.405689 0
M  V30 8673 C 795.44 -3.36942 -0.344594 0
M  V30 8674 C 794.486 -4.23221 0.527859 0
M  V30 8675 S 795.319 -4.97877 1.97177 0
M  V30 8676 C 796.475 -6.14627 1.18258 0
M  V30 8677 H 796.708 -2.67433 1.29873 0
M  V30 8678 H 794.241 -1.33289 0.779322 0
M  V30 8679 H 796.199 -4.02647 -0.799103 0
M  V30 8680 H 794.86 -2.91703 -1.16482 0
M  V30 8681 H 794.053 -5.03928 -0.0852555 0
M  V30 8682 H 793.655 -3.6255 0.918344 0
M  V30 8683 H 795.947 -6.76066 0.440629 0
M  V30 8684 H 796.89 -6.80311 1.96425 0
M  V30 8685 H 797.298 -5.6009 0.704256 0
M  V30 8686 N 796.696 -0.74468 -1.38897 0
M  V30 8687 C 797.626 -0.126355 -2.33158 0
M  V30 8688 C 798.607 0.713517 -1.54412 0
M  V30 8689 O 799.792 0.656523 -1.82766 0
M  V30 8690 C 796.922 0.774375 -3.38557 0
M  V30 8691 C 795.876 0.0379214 -4.27983 0
M  V30 8692 C 795.202 1.05631 -5.24162 0
M  V30 8693 C 796.502 -1.12523 -5.10035 0
M  V30 8694 H 798.196 -0.913744 -2.85116 0
M  V30 8695 H 795.742 -0.440847 -1.37086 0
M  V30 8696 H 797.695 1.21655 -4.03458 0
M  V30 8697 H 796.419 1.59399 -2.85061 0
M  V30 8698 H 795.078 -0.384733 -3.64576 0
M  V30 8699 H 794.726 1.86975 -4.66958 0
M  V30 8700 H 794.426 0.568261 -5.84846 0
M  V30 8701 H 795.95 1.49799 -5.9194 0
M  V30 8702 H 797.364 -0.761037 -5.68226 0
M  V30 8703 H 795.761 -1.54355 -5.79909 0
M  V30 8704 H 796.831 -1.94237 -4.44297 0
M  V30 8705 N 798.174 1.49689 -0.493057 0
M  V30 8706 C 799.106 2.26867 0.326195 0
M  V30 8707 C 800.119 1.33083 0.937697 0
M  V30 8708 O 801.308 1.58427 0.822382 0
M  V30 8709 C 798.408 3.0519 1.4735 0
M  V30 8710 C 797.581 4.26491 0.970767 0
M  V30 8711 C 796.64 4.86926 1.99473 0
M  V30 8712 O 795.666 5.47221 1.56647 0
M  V30 8713 N 796.868 4.75871 3.32456 0
M  V30 8714 H 799.633 2.97816 -0.335547 0
M  V30 8715 H 797.194 1.58602 -0.325129 0
M  V30 8716 H 799.186 3.42496 2.15589 0
M  V30 8717 H 797.756 2.369 2.03954 0
M  V30 8718 H 796.976 3.94036 0.113529 0
M  V30 8719 H 798.264 5.05092 0.613156 0
M  V30 8720 H 797.662 4.2797 3.69944 0
M  V30 8721 H 796.219 5.17383 3.96431 0
M  V30 8722 N 799.652 0.226554 1.55963 0
M  V30 8723 C 801.063 -0.280381 1.84583 0
M  V30 8724 C 801.414 -1.59105 1.14804 0
M  V30 8725 O 800.539 -2.12297 0.419414 0
M  V30 8726 C 801.134 -0.515499 3.34855 0
M  V30 8727 C 799.693 -0.966733 3.63774 0
M  V30 8728 C 798.84 -0.0325753 2.77281 0
M  V30 8729 H 801.791 0.449626 1.52197 0
M  V30 8730 H 801.812 -1.36085 3.55332 0
M  V30 8731 H 801.324 0.438594 3.85614 0
M  V30 8732 H 799.425 -1.93401 3.18476 0
M  V30 8733 H 799.538 -0.837679 4.7172 0
M  V30 8734 H 797.902 -0.540279 2.48904 0
M  V30 8735 H 798.685 0.916524 3.30839 0
M  V30 8736 N 801.13 -1.57531 -0.0467866 0
M  V30 8737 C 802.06 -2.08425 -1.05268 0
M  V30 8738 C 803.041 -0.982941 -1.38825 0
M  V30 8739 O 804.226 -1.25716 -1.48018 0
M  V30 8740 C 801.356 -2.54897 -2.35891 0
M  V30 8741 C 800.31 -3.69132 -2.16623 0
M  V30 8742 C 799.636 -4.01747 -3.52851 0
M  V30 8743 C 800.936 -4.98243 -1.56689 0
M  V30 8744 H 802.63 -2.92716 -0.62908 0
M  V30 8745 H 800.176 -1.40816 -0.301156 0
M  V30 8746 H 802.129 -2.8912 -3.06574 0
M  V30 8747 H 800.853 -1.67666 -2.80278 0
M  V30 8748 H 799.512 -3.35231 -1.48377 0
M  V30 8749 H 799.16 -3.11608 -3.94853 0
M  V30 8750 H 798.86 -4.78681 -3.4079 0
M  V30 8751 H 800.384 -4.38487 -4.24925 0
M  V30 8752 H 801.798 -5.30535 -2.17268 0
M  V30 8753 H 800.195 -5.79669 -1.55255 0
M  V30 8754 H 801.265 -4.81986 -0.530827 0
M  V30 8755 N 802.608 0.318715 -1.54344 0
M  V30 8756 C 803.854 1.05383 -1.73971 0
M  V30 8757 C 804.209 1.85524 -0.509781 0
M  V30 8758 O 803.502 1.8502 0.49782 0
M  V30 8759 C 803.696 2.00514 -2.95853 0
M  V30 8760 C 803.525 1.29728 -4.30582 0
M  V30 8761 C 802.295 1.03177 -4.94654 0
M  V30 8762 C 804.493 0.710718 -5.09366 0
M  V30 8763 N 802.475 0.29232 -6.13204 0
M  V30 8764 C 803.846 0.103132 -6.19914 0
M  V30 8765 C 805.901 0.614011 -4.94099 0
M  V30 8766 C 804.604 -0.591782 -7.16862 0
M  V30 8767 C 806.63 -0.0672115 -5.91362 0
M  V30 8768 C 805.992 -0.663721 -7.01266 0
M  V30 8769 H 802.091 0.369157 -0.689382 0
M  V30 8770 H 804.675 0.334453 -1.91806 0
M  V30 8771 H 802.846 2.69719 -2.79475 0
M  V30 8772 H 804.578 2.67046 -3.04086 0
M  V30 8773 H 801.333 1.32536 -4.54677 0
M  V30 8774 H 801.757 -0.0634005 -6.7697 0
M  V30 8775 H 806.399 1.06091 -4.09273 0
M  V30 8776 H 804.117 -1.0505 -8.01243 0
M  V30 8777 H 807.703 -0.141742 -5.81627 0
M  V30 8778 H 806.583 -1.18248 -7.75234 0
M  V30 8779 N 804.086 1.46499 0.581025 0
M  V30 8780 C 804.996 1.59778 1.71779 0
M  V30 8781 C 806.012 0.481223 1.67213 0
M  V30 8782 O 807.188 0.74557 1.87091 0
M  V30 8783 C 804.253 1.58626 3.08283 0
M  V30 8784 C 803.314 2.81527 3.241 0
M  V30 8785 C 802.547 2.80421 4.54092 0
M  V30 8786 O 802.77 1.89262 5.38085 0
M  V30 8787 O 801.704 3.71984 4.73193 0
M  V30 8788 H 805.53 2.55918 1.63523 0
M  V30 8789 H 803.115 1.29311 0.748267 0
M  V30 8790 H 804.997 1.60686 3.89561 0
M  V30 8791 H 803.672 0.656467 3.16973 0
M  V30 8792 H 802.579 2.85021 2.42309 0
M  V30 8793 H 803.912 3.73721 3.20302 0
M  V30 8794 N 805.565 -0.825799 1.34232 0
M  V30 8795 C 806.79 -1.61883 1.29648 0
M  V30 8796 C 807.215 -1.87669 -0.127295 0
M  V30 8797 O 806.573 -1.45016 -1.08813 0
M  V30 8798 C 806.621 -2.93846 2.09014 0
M  V30 8799 O 805.725 -3.85778 1.4577 0
M  V30 8800 H 805.066 -0.492454 0.445405 0
M  V30 8801 H 807.596 -1.02641 1.76992 0
M  V30 8802 H 807.606 -3.43435 2.20264 0
M  V30 8803 H 806.281 -2.74401 3.12533 0
M  V30 8804 H 804.858 -3.4429 1.43245 0
M  V30 8805 N 807.043 -1.17915 -1.04565 0
M  V30 8806 C 808.459 -0.927761 -1.29864 0
M  V30 8807 C 808.659 0.409536 -1.97294 0
M  V30 8808 O 807.715 1.14505 -2.25044 0
M  V30 8809 C 809.028 -2.08967 -2.16225 0
M  V30 8810 C 810.576 -2.12741 -2.29587 0
M  V30 8811 C 811.051 -3.28335 -3.19312 0
M  V30 8812 N 812.542 -3.28164 -3.26898 0
M  V30 8813 C 813.277 -4.14249 -3.96466 0
M  V30 8814 N 812.773 -5.10457 -4.68407 0
M  V30 8815 N 814.566 -4.02179 -3.92694 0
M  V30 8816 H 806.717 -2.03983 -0.592011 0
M  V30 8817 H 808.98 -0.891023 -0.323701 0
M  V30 8818 H 808.686 -3.05654 -1.73979 0
M  V30 8819 H 808.56 -2.04606 -3.16885 0
M  V30 8820 H 810.947 -1.16636 -2.71072 0
M  V30 8821 H 811.028 -2.21162 -1.28535 0
M  V30 8822 H 810.672 -4.2471 -2.78539 0
M  V30 8823 H 810.602 -3.17151 -4.20384 0
M  V30 8824 H 813.093 -2.58511 -2.75646 0
M  V30 8825 H 813.406 -5.72526 -5.1907 0
M  V30 8826 H 811.751 -5.14422 -4.67328 0
M  V30 8827 H 814.942 -3.26308 -3.3562 0
M  V30 8828 H 815.115 -4.69486 -4.4664 0
M  V30 8829 N 808.521 1.23394 -0.980386 0
M  V30 8830 C 809.798 1.87242 -0.565667 0
M  V30 8831 C 810.178 1.88151 0.957197 0
M  V30 8832 O 809.526 1.36309 1.8339 0
M  V30 8833 C 809.736 3.28743 -1.17172 0
M  V30 8834 C 811.084 4.05335 -1.26446 0
M  V30 8835 O 812.108 3.37962 -1.12517 0
M  V30 8836 O 810.967 5.25908 -1.48604 0
M  V30 8837 H 808.061 0.80477 -0.190459 0
M  V30 8838 H 810.607 1.3127 -1.07547 0
M  V30 8839 H 809.379 3.22647 -2.21392 0
M  V30 8840 H 809.002 3.92305 -0.646739 0
M  V30 8841 N 809.999 0.752036 1.385 0
M  V30 8842 C 811.415 0.42946 1.53713 0
M  V30 8843 C 811.615 -1.0576 1.71514 0
M  V30 8844 O 810.671 -1.84366 1.72527 0
M  V30 8845 C 811.984 1.22735 2.74511 0
M  V30 8846 C 813.532 1.21727 2.8836 0
M  V30 8847 C 814.007 1.99809 4.12117 0
M  V30 8848 N 815.498 1.97062 4.19191 0
M  V30 8849 C 816.233 2.54274 5.13938 0
M  V30 8850 N 815.729 3.20193 6.14368 0
M  V30 8851 N 817.522 2.44212 5.06277 0
M  V30 8852 H 809.673 1.71581 1.25195 0
M  V30 8853 H 811.936 0.727293 0.60807 0
M  V30 8854 H 811.642 2.28032 2.67758 0
M  V30 8855 H 811.516 0.843186 3.67655 0
M  V30 8856 H 813.903 0.172367 2.94596 0
M  V30 8857 H 813.984 1.64094 1.96232 0
M  V30 8858 H 813.628 3.0431 4.06642 0
M  V30 8859 H 813.558 1.54837 5.03322 0
M  V30 8860 H 816.049 1.49054 3.47263 0
M  V30 8861 H 816.362 3.61272 6.83156 0
M  V30 8862 H 814.707 3.24287 6.14705 0
M  V30 8863 H 817.898 1.92343 4.26757 0
M  V30 8864 H 818.071 2.89096 5.79937 0
M  V30 8865 N 811.477 -1.49425 0.500989 0
M  V30 8866 C 812.707 -2.06561 -0.0402858 0
M  V30 8867 C 813.115 -1.36157 -1.31369 0
M  V30 8868 O 812.458 -0.433618 -1.78509 0
M  V30 8869 C 812.52 -3.5765 -0.364269 0
M  V30 8870 C 812.184 -4.49739 0.811417 0
M  V30 8871 C 813.181 -4.91255 1.7019 0
M  V30 8872 C 810.866 -4.92036 1.01022 0
M  V30 8873 C 812.86 -5.73806 2.77534 0
M  V30 8874 C 810.547 -5.74364 2.08683 0
M  V30 8875 C 811.545 -6.15154 2.96774 0
M  V30 8876 O 811.233 -6.95836 4.02577 0
M  V30 8877 H 810.965 -0.67578 0.0172357 0
M  V30 8878 H 813.519 -1.93193 0.697553 0
M  V30 8879 H 811.749 -3.69026 -1.1557 0
M  V30 8880 H 813.438 -3.97025 -0.844156 0
M  V30 8881 H 814.204 -4.59222 1.56013 0
M  V30 8882 H 810.083 -4.59789 0.333929 0
M  V30 8883 H 813.627 -6.05564 3.4632 0
M  V30 8884 H 809.524 -6.0581 2.22855 0
M  V30 8885 H 810.292 -7.14142 3.9993 0
M  V30 8886 N 812.955 -0.234822 -1.55841 0
M  V30 8887 C 813.865 0.680828 -2.24504 0
M  V30 8888 C 814.881 1.20306 -1.25708 0
M  V30 8889 O 816.057 1.24188 -1.58554 0
M  V30 8890 C 813.122 1.86636 -2.92178 0
M  V30 8891 C 812.183 1.3848 -4.06352 0
M  V30 8892 C 811.416 2.51382 -4.70789 0
M  V30 8893 O 811.639 3.69831 -4.34259 0
M  V30 8894 O 810.573 2.21828 -5.59532 0
M  V30 8895 H 814.399 0.12583 -3.03439 0
M  V30 8896 H 811.984 -0.00381817 -1.494 0
M  V30 8897 H 813.866 2.55845 -3.34845 0
M  V30 8898 H 812.541 2.40921 -2.16192 0
M  V30 8899 H 811.448 0.660341 -3.68226 0
M  V30 8900 H 812.781 0.888177 -4.8412 0
M  V30 8901 N 814.433 1.57553 0.0384317 0
M  V30 8902 C 815.343 2.09333 1.0591 0
M  V30 8903 C 816.359 1.0299 1.40247 0
M  V30 8904 O 817.535 1.34669 1.49754 0
M  V30 8905 C 814.6 2.55468 2.34386 0
M  V30 8906 C 813.661 3.76254 2.06716 0
M  V30 8907 C 812.894 4.20179 3.29067 0
M  V30 8908 O 813.117 3.637 4.39407 0
M  V30 8909 O 812.051 5.12697 3.15317 0
M  V30 8910 H 815.877 2.96683 0.649087 0
M  V30 8911 H 813.462 1.47211 0.254802 0
M  V30 8912 H 815.344 2.85514 3.09935 0
M  V30 8913 H 814.019 1.71234 2.74701 0
M  V30 8914 H 812.926 3.51241 1.28766 0
M  V30 8915 H 814.259 4.61443 1.71263 0
M  V30 8916 N 815.911 -0.310526 1.54511 0
M  V30 8917 C 816.841 -1.38757 1.878 0
M  V30 8918 C 817.822 -1.53353 0.735991 0
M  V30 8919 O 819.007 -1.67018 0.990887 0
M  V30 8920 C 816.137 -2.75327 2.11689 0
M  V30 8921 C 815.091 -2.75506 3.27537 0
M  V30 8922 C 814.417 -4.15275 3.36824 0
M  V30 8923 C 815.717 -2.38093 4.64875 0
M  V30 8924 H 817.411 -1.11146 2.78005 0
M  V30 8925 H 814.957 -0.533232 1.33763 0
M  V30 8926 H 816.91 -3.50752 2.33562 0
M  V30 8927 H 815.634 -3.04443 1.18245 0
M  V30 8928 H 814.293 -2.02538 3.05572 0
M  V30 8929 H 813.941 -4.41553 2.40915 0
M  V30 8930 H 813.641 -4.16299 4.14692 0
M  V30 8931 H 815.165 -4.92493 3.60947 0
M  V30 8932 H 816.579 -3.03232 4.86542 0
M  V30 8933 H 814.976 -2.50345 5.45387 0
M  V30 8934 H 816.046 -1.33227 4.66239 0
M  V30 8935 N 817.389 -1.46805 -0.573248 0
M  V30 8936 C 818.336 -1.58084 -1.68161 0
M  V30 8937 C 819.306 -0.424636 -1.6058 0
M  V30 8938 O 820.491 -0.642623 -1.79652 0
M  V30 8939 C 817.631 -1.58601 -3.06496 0
M  V30 8940 C 816.744 -2.85023 -3.24632 0
M  V30 8941 C 815.879 -2.76981 -4.53271 0
M  V30 8942 C 814.918 -3.983 -4.64783 0
M  V30 8943 N 814.055 -3.88589 -5.84759 0
M  V30 8944 H 818.895 -2.52755 -1.57858 0
M  V30 8945 H 816.432 -1.25385 -0.769218 0
M  V30 8946 H 818.39 -1.56885 -3.86579 0
M  V30 8947 H 817.02 -0.674553 -3.15673 0
M  V30 8948 H 816.072 -2.96678 -2.38089 0
M  V30 8949 H 817.384 -3.7491 -3.29004 0
M  V30 8950 H 816.538 -2.73424 -5.41594 0
M  V30 8951 H 815.277 -1.84751 -4.51352 0
M  V30 8952 H 814.282 -4.02179 -3.74876 0
M  V30 8953 H 815.507 -4.91639 -4.68474 0
M  V30 8954 H 813.453 -2.99151 -5.83819 0
M  V30 8955 H 813.37 -4.7214 -5.90441 0
M  V30 8956 H 814.638 -3.89022 -6.75486 0
M  V30 8957 N 818.867 0.818669 -1.34668 0
M  V30 8958 C 820.283 1.11243 -1.14443 0
M  V30 8959 C 820.483 2.01435 0.0512212 0
M  V30 8960 O 819.539 2.41854 0.725471 0
M  V30 8961 C 820.852 1.75504 -2.4417 0
M  V30 8962 C 822.4 1.8798 -2.50265 0
M  V30 8963 C 822.875 2.55657 -3.80004 0
M  V30 8964 N 824.366 2.63153 -3.81189 0
M  V30 8965 C 825.101 3.16258 -4.78298 0
M  V30 8966 N 824.597 3.69893 -5.85791 0
M  V30 8967 N 826.39 3.14698 -4.65748 0
M  V30 8968 H 818.541 0.218848 -2.1127 0
M  V30 8969 H 820.804 0.159655 -0.934459 0
M  V30 8970 H 820.51 1.16697 -3.31775 0
M  V30 8971 H 820.384 2.75329 -2.57825 0
M  V30 8972 H 822.771 2.45934 -1.63096 0
M  V30 8973 H 822.852 0.870447 -2.40535 0
M  V30 8974 H 822.496 1.98356 -4.67565 0
M  V30 8975 H 822.426 3.57105 -3.87019 0
M  V30 8976 H 824.917 2.2514 -3.03513 0
M  V30 8977 H 825.23 4.08678 -6.55898 0
M  V30 8978 H 823.575 3.68125 -5.89499 0
M  V30 8979 H 826.766 2.72066 -3.80917 0
M  V30 8980 H 826.939 3.5578 -5.41594 0
M  V30 8981 N 820.346 1.18468 1.03938 0
M  V30 8982 C 821.595 0.975193 1.76558 0
M  V30 8983 C 821.908 -0.495978 1.89207 0
M  V30 8984 O 823.114 -0.824009 2.58694 0
M  V30 8985 C 821.57 1.69579 3.17444 0
M  V30 8986 C 821.178 3.20636 3.12884 0
M  V30 8987 C 822.922 1.56917 3.94433 0
M  V30 8988 C 820.829 3.8533 4.48636 0
M  V30 8989 H 819.759 0.361244 0.66183 0
M  V30 8990 H 822.41 1.41854 1.16403 0
M  V30 8991 H 820.792 1.18022 3.78004 0
M  V30 8992 H 821.966 3.79228 2.61768 0
M  V30 8993 H 820.281 3.33454 2.49394 0
M  V30 8994 H 822.878 2.02611 4.94826 0
M  V30 8995 H 823.221 0.521638 4.13019 0
M  V30 8996 H 823.754 2.05762 3.40451 0
M  V30 8997 H 820.493 4.90136 4.35255 0
M  V30 8998 H 820.013 3.31526 4.99851 0
M  V30 8999 H 821.692 3.88269 5.17549 0
M  V30 9000 N 821.824 -1.22873 0.986916 0
M  V30 9001 C 823.101 -1.86939 0.575589 0
M  V30 9002 C 823.481 -1.88656 -0.947205 0
M  V30 9003 O 822.829 -1.3728 -1.82665 0
M  V30 9004 C 823.039 -3.28117 1.18914 0
M  V30 9005 C 824.387 -4.04659 1.28593 0
M  V30 9006 O 825.411 -3.3736 1.14308 0
M  V30 9007 O 824.27 -5.25112 1.51391 0
M  V30 9008 H 821.364 -0.803748 0.194724 0
M  V30 9009 H 823.91 -1.30698 1.08241 0
M  V30 9010 H 822.682 -3.21468 2.231 0
M  V30 9011 H 822.305 -3.91956 0.667535 0
M  V30 9012 N 823.302 -0.75937 -1.38099 0
M  V30 9013 C 824.579 -0.243371 -1.9408 0
M  V30 9014 C 824.959 1.25942 -1.69416 0
M  V30 9015 O 824.307 2.03667 -1.03595 0
M  V30 9016 C 824.517 -0.603328 -3.43745 0
M  V30 9017 C 825.865 -0.566195 -4.20808 0
M  V30 9018 O 826.889 -0.541969 -3.52053 0
M  V30 9019 O 825.748 -0.582261 -5.43389 0
M  V30 9020 H 822.842 -0.0526825 -0.82532 0
M  V30 9021 H 825.388 -0.839884 -1.47459 0
M  V30 9022 H 824.16 -1.64098 -3.55229 0
M  V30 9023 H 823.783 0.0208887 -3.97595 0
M  V30 9024 N 824.78 1.49157 -0.508906 0
M  V30 9025 C 825.743 2.27784 0.25434 0
M  V30 9026 C 826.743 1.34132 0.88686 0
M  V30 9027 O 827.933 1.5722 0.750168 0
M  V30 9028 C 825.065 3.12347 1.36573 0
M  V30 9029 H 826.258 2.96718 -0.435714 0
M  V30 9030 H 823.811 1.54052 -0.264128 0
M  V30 9031 H 824.546 2.47997 2.08969 0
M  V30 9032 H 824.331 3.81213 0.917543 0
M  V30 9033 H 825.821 3.71712 1.90315 0
M  V30 9034 N 826.258 0.243083 1.55714 0
M  V30 9035 C 827.191 -0.698623 2.17243 0
M  V30 9036 C 828.169 -1.1756 1.12331 0
M  V30 9037 O 829.353 -1.25444 1.40699 0
M  V30 9038 C 826.48 -1.94901 2.77004 0
M  V30 9039 C 825.526 -1.61022 3.94936 0
M  V30 9040 S 826.359 -0.716173 5.30689 0
M  V30 9041 C 827.515 -1.97565 5.93901 0
M  V30 9042 H 827.748 -0.175724 2.9678 0
M  V30 9043 H 825.281 0.0275727 1.54375 0
M  V30 9044 H 827.239 -2.66687 3.12071 0
M  V30 9045 H 825.9 -2.44304 1.9742 0
M  V30 9046 H 825.093 -2.5398 4.35328 0
M  V30 9047 H 824.695 -0.972829 3.61126 0
M  V30 9048 H 826.987 -2.92333 6.11186 0
M  V30 9049 H 827.93 -1.61528 6.8943 0
M  V30 9050 H 828.338 -2.126 5.22935 0
M  V30 9051 N 827.736 -1.57571 -0.0300757 0
M  V30 9052 C 828.683 -2.06492 -1.03101 0
M  V30 9053 C 829.653 -0.953862 -1.3598 0
M  V30 9054 O 830.838 -1.22436 -1.46335 0
M  V30 9055 C 827.978 -2.54826 -2.32718 0
M  V30 9056 C 827.091 -3.79718 -2.06006 0
M  V30 9057 C 826.226 -4.16668 -3.29487 0
M  V30 9058 C 825.265 -5.3448 -2.98324 0
M  V30 9059 N 824.402 -5.66867 -4.14254 0
M  V30 9060 H 829.242 -2.91755 -0.606877 0
M  V30 9061 H 826.779 -1.44252 -0.288038 0
M  V30 9062 H 828.737 -2.80916 -3.08451 0
M  V30 9063 H 827.367 -1.72481 -2.72856 0
M  V30 9064 H 826.419 -3.60718 -1.20774 0
M  V30 9065 H 827.731 -4.65569 -1.79017 0
M  V30 9066 H 826.885 -4.43881 -4.13588 0
M  V30 9067 H 825.624 -3.29466 -3.59588 0
M  V30 9068 H 824.629 -5.07021 -2.12625 0
M  V30 9069 H 825.854 -6.23334 -2.69502 0
M  V30 9070 H 823.8 -4.82625 -4.44308 0
M  V30 9071 H 823.717 -6.47226 -3.90685 0
M  V30 9072 H 824.985 -5.98656 -4.99231 0
M  V30 9073 N 829.214 0.302327 -1.54673 0
M  V30 9074 C 830.124 1.39542 -1.88587 0
M  V30 9075 C 831.14 1.55543 -0.779895 0
M  V30 9076 O 832.316 1.70233 -1.07623 0
M  V30 9077 C 829.381 2.7394 -2.12504 0
M  V30 9078 C 828.442 2.66935 -3.3622 0
M  V30 9079 C 827.675 3.94923 -3.58987 0
M  V30 9080 O 827.898 4.94218 -2.84789 0
M  V30 9081 O 826.832 3.96896 -4.52501 0
M  V30 9082 H 830.658 1.13784 -2.81579 0
M  V30 9083 H 828.243 0.49827 -1.40846 0
M  V30 9084 H 830.125 3.5346 -2.29443 0
M  V30 9085 H 828.8 2.99544 -1.22698 0
M  V30 9086 H 827.707 1.85892 -3.24646 0
M  V30 9087 H 829.04 2.46283 -4.26152 0
M  V30 9088 N 830.692 1.47107 0.565454 0
M  V30 9089 C 831.622 1.61846 1.68309 0
M  V30 9090 C 832.603 0.468159 1.63531 0
M  V30 9091 O 833.788 0.696504 1.8128 0
M  V30 9092 C 830.918 1.62474 3.06952 0
M  V30 9093 C 829.872 2.76649 3.26572 0
M  V30 9094 C 829.198 2.62345 4.65917 0
M  V30 9095 C 830.498 4.18319 3.12741 0
M  V30 9096 H 832.192 2.55407 1.5623 0
M  V30 9097 H 829.738 1.22916 0.750179 0
M  V30 9098 H 831.691 1.71378 3.84977 0
M  V30 9099 H 830.415 0.654692 3.19971 0
M  V30 9100 H 829.074 2.67242 2.50952 0
M  V30 9101 H 828.722 1.63386 4.75725 0
M  V30 9102 H 828.422 3.38936 4.79996 0
M  V30 9103 H 829.946 2.73165 5.46089 0
M  V30 9104 H 831.36 4.28745 3.80593 0
M  V30 9105 H 829.757 4.95632 3.38333 0
M  V30 9106 H 830.827 4.37263 2.09592 0
M  V30 9107 N 832.17 -0.811516 1.35101 0
M  V30 9108 C 833.102 -1.93102 1.23468 0
M  V30 9109 C 834.115 -1.62021 0.159095 0
M  V30 9110 O 835.304 -1.73682 0.411945 0
M  V30 9111 C 832.404 -3.27345 0.877404 0
M  V30 9112 C 831.577 -3.86368 2.05033 0
M  V30 9113 C 830.636 -4.99009 1.66963 0
M  V30 9114 O 829.662 -5.16698 2.38772 0
M  V30 9115 N 830.864 -5.7749 0.590394 0
M  V30 9116 H 833.629 -2.0361 2.19916 0
M  V30 9117 H 831.19 -0.988687 1.28205 0
M  V30 9118 H 833.182 -4.00163 0.604298 0
M  V30 9119 H 831.752 -3.126 0.00275267 0
M  V30 9120 H 830.972 -3.05804 2.48752 0
M  V30 9121 H 832.26 -4.22533 2.83449 0
M  V30 9122 H 831.658 -5.657 -0.00633259 0
M  V30 9123 H 830.215 -6.50708 0.377055 0
M  V30 9124 N 833.648 -1.19017 -1.03309 0
M  V30 9125 C 834.595 -0.924088 -2.11493 0
M  V30 9126 C 835.565 0.139464 -1.65513 0
M  V30 9127 O 836.75 -0.00178761 -1.908 0
M  V30 9128 C 833.89 -0.464255 -3.41963 0
M  V30 9129 C 833.003 -1.5941 -4.01513 0
M  V30 9130 C 832.138 -1.08622 -5.19976 0
M  V30 9131 C 831.177 -2.19024 -5.71572 0
M  V30 9132 N 830.314 -1.69575 -6.81314 0
M  V30 9133 H 835.154 -1.85039 -2.33591 0
M  V30 9134 H 832.691 -0.922593 -1.14572 0
M  V30 9135 H 834.649 -0.179078 -4.16815 0
M  V30 9136 H 833.279 0.425062 -3.19989 0
M  V30 9137 H 832.331 -1.99458 -3.23915 0
M  V30 9138 H 833.643 -2.42604 -4.35826 0
M  V30 9139 H 832.797 -0.756022 -6.01971 0
M  V30 9140 H 831.536 -0.223955 -4.87186 0
M  V30 9141 H 830.541 -2.5288 -4.88193 0
M  V30 9142 H 831.766 -3.05699 -6.06403 0
M  V30 9143 H 829.712 -0.856494 -6.50385 0
M  V30 9144 H 829.629 -2.46361 -7.14732 0
M  V30 9145 H 830.897 -1.39505 -7.66915 0
M  V30 9146 N 835.127 1.22348 -0.993418 0
M  V30 9147 C 836.074 2.24294 -0.544118 0
M  V30 9148 C 837.044 1.60602 0.42381 0
M  V30 9149 O 838.229 1.87952 0.328453 0
M  V30 9150 C 835.369 3.44837 0.134578 0
M  V30 9151 C 834.482 4.23043 -0.875151 0
M  V30 9152 C 833.617 5.30928 -0.169919 0
M  V30 9153 C 832.656 6.00853 -1.16798 0
M  V30 9154 N 831.793 7.00381 -0.491021 0
M  V30 9155 H 836.633 2.6209 -1.4182 0
M  V30 9156 H 834.17 1.2881 -0.710384 0
M  V30 9157 H 836.128 4.13625 0.544998 0
M  V30 9158 H 834.758 3.07804 0.972446 0
M  V30 9159 H 833.81 3.53546 -1.40389 0
M  V30 9160 H 835.122 4.71237 -1.63516 0
M  V30 9161 H 834.276 6.05972 0.297205 0
M  V30 9162 H 833.015 4.8371 0.622586 0
M  V30 9163 H 832.02 5.24591 -1.64573 0
M  V30 9164 H 833.245 6.50159 -1.96137 0
M  V30 9165 H 831.191 6.55393 0.282037 0
M  V30 9166 H 831.108 7.46584 -1.18947 0
M  V30 9167 H 832.376 7.79486 -0.0467169 0
M  V30 9168 N 836.605 0.766683 1.37694 0
M  V30 9169 C 837.833 0.339939 2.04088 0
M  V30 9170 C 838.248 -1.03617 1.57826 0
M  V30 9171 O 837.605 -1.6605 0.757214 0
M  V30 9172 C 837.656 0.368269 3.59619 0
M  V30 9173 O 837.377 1.69009 4.04188 0
M  V30 9174 C 838.878 -0.0707053 4.43244 0
M  V30 9175 H 836.098 0.143189 0.655544 0
M  V30 9176 H 838.642 1.03919 1.76128 0
M  V30 9177 H 836.797 -0.282359 3.8637 0
M  V30 9178 H 837.211 1.62523 4.98685 0
M  V30 9179 H 838.685 0.000273538 5.52 0
M  V30 9180 H 839.162 -1.1204 4.24669 0
M  V30 9181 H 839.768 0.551543 4.21709 0
M  V30 9182 N 838.083 -1.48885 0.516809 0
M  V30 9183 C 839.36 -1.95412 -0.0858293 0
M  V30 9184 C 839.74 -1.45875 -1.5259 0
M  V30 9185 O 839.088 -0.679415 -2.18166 0
M  V30 9186 C 839.298 -3.48995 0.0178194 0
M  V30 9187 C 840.646 -4.24342 -0.14813 0
M  V30 9188 O 841.67 -3.56155 -0.0566125 0
M  V30 9189 O 840.529 -5.45454 -0.338035 0
M  V30 9190 H 837.623 -0.822455 -0.0865884 0
M  V30 9191 H 840.169 -1.59464 0.580472 0
M  V30 9192 H 838.941 -3.77732 1.02147 0
M  V30 9193 H 838.564 -3.91604 -0.687924 0
M  V30 9194 N 839.561 -0.251338 -1.55583 0
M  V30 9195 C 840.786 0.379136 -2.03905 0
M  V30 9196 C 841.211 1.50428 -1.12929 0
M  V30 9197 O 840.569 1.80882 -0.123114 0
M  V30 9198 C 840.617 0.86009 -3.50193 0
M  V30 9199 O 839.721 1.96932 -3.62342 0
M  V30 9200 H 839.062 0.0820183 -0.658915 0
M  V30 9201 H 841.592 -0.378692 -2.01065 0
M  V30 9202 H 841.602 1.16214 -3.91099 0
M  V30 9203 H 840.277 0.0367559 -4.15884 0
M  V30 9204 H 838.854 1.67163 -3.33333 0
M  V30 9205 N 841.039 1.57585 0.0217189 0
M  V30 9206 C 841.969 2.10073 1.01939 0
M  V30 9207 C 842.95 1.0049 1.37243 0
M  V30 9208 O 844.135 1.28055 1.45999 0
M  V30 9209 C 841.265 2.58618 2.31806 0
M  V30 9210 C 840.219 3.72531 2.10724 0
M  V30 9211 C 839.545 4.07309 3.46415 0
M  V30 9212 C 840.845 5.00672 1.48743 0
M  V30 9213 H 842.539 2.9368 0.582432 0
M  V30 9214 H 840.085 1.41277 0.278715 0
M  V30 9215 H 842.038 2.9396 3.01936 0
M  V30 9216 H 840.762 1.72104 2.77575 0
M  V30 9217 H 839.421 3.37549 1.43025 0
M  V30 9218 H 839.069 3.17851 3.89846 0
M  V30 9219 H 838.769 4.84042 3.33132 0
M  V30 9220 H 840.293 4.45192 4.17895 0
M  V30 9221 H 841.707 5.33925 2.088 0
M  V30 9222 H 840.104 5.82065 1.46013 0
M  V30 9223 H 841.174 4.82769 0.45408 0
M  V30 9224 N 842.517 -0.29412 1.54831 0
M  V30 9225 C 843.745 -1.04724 1.78439 0
M  V30 9226 C 844.16 -1.80695 0.547239 0
M  V30 9227 O 843.517 -1.75989 -0.483141 0
M  V30 9228 C 843.568 -2.02242 2.99634 0
M  V30 9229 O 843.289 -1.29352 4.18568 0
M  V30 9230 C 844.79 -2.89537 3.35683 0
M  V30 9231 H 842.01 -0.310285 0.594949 0
M  V30 9232 H 844.554 -0.331306 2.01798 0
M  V30 9233 H 842.709 -2.69328 2.78462 0
M  V30 9234 H 843.123 -1.94901 4.86943 0
M  V30 9235 H 844.597 -3.538 4.23709 0
M  V30 9236 H 845.074 -3.58201 2.54143 0
M  V30 9237 H 845.68 -2.27973 3.59038 0
M  V30 9238 N 843.995 -1.47404 -0.557645 0
M  V30 9239 C 845.22 -1.57868 -1.34508 0
M  V30 9240 C 845.645 -0.229151 -1.86699 0
M  V30 9241 O 845.003 0.794908 -1.62944 0
M  V30 9242 C 845.051 -2.60712 -2.49122 0
M  V30 9243 O 844.155 -2.15952 -3.51338 0
M  V30 9244 H 843.496 -0.530335 -0.399551 0
M  V30 9245 H 846.026 -1.93181 -0.673954 0
M  V30 9246 H 846.036 -2.81118 -2.95697 0
M  V30 9247 H 844.711 -3.58701 -2.10491 0
M  V30 9248 H 843.288 -2.05644 -3.11071 0
M  V30 9249 N 845.473 0.80434 -1.35529 0
M  V30 9250 C 846.721 1.55845 -1.28673 0
M  V30 9251 C 847.042 1.94511 0.137976 0
M  V30 9252 O 846.312 1.63775 1.07492 0
M  V30 9253 H 844.892 0.577931 -0.473291 0
M  V30 9254 H 847.554 0.959293 -1.69657 0
M  V30 9255 H 846.65 2.47285 -1.90411 0
M  V30 9256 N 846.951 1.19563 1.02676 0
M  V30 9257 C 847.914 0.937182 2.09164 0
M  V30 9258 C 848.914 -0.0831927 1.60585 0
M  V30 9259 O 850.104 0.15178 1.73538 0
M  V30 9260 C 847.236 0.408912 3.38439 0
M  V30 9261 H 848.429 1.88164 2.33526 0
M  V30 9262 H 845.982 1.00959 1.19319 0
M  V30 9263 H 846.717 -0.541497 3.19747 0
M  V30 9264 H 846.502 1.14464 3.7502 0
M  V30 9265 H 847.992 0.247242 4.16867 0
M  V30 9266 N 848.429 -1.21819 0.999893 0
M  V30 9267 C 849.657 -1.94758 0.698359 0
M  V30 9268 C 850.072 -1.73771 -0.738183 0
M  V30 9269 O 849.429 -1.04113 -1.49889 0
M  V30 9270 C 849.48 -3.47292 1.00353 0
M  V30 9271 O 849.201 -3.67579 2.38363 0
M  V30 9272 C 850.702 -4.37403 0.72068 0
M  V30 9273 H 847.922 -0.619512 0.257771 0
M  V30 9274 H 850.466 -1.54778 1.33656 0
M  V30 9275 H 848.621 -3.85213 0.411018 0
M  V30 9276 H 849.035 -4.61719 2.48829 0
M  V30 9277 H 850.509 -5.43151 0.984422 0
M  V30 9278 H 850.986 -4.3784 -0.345309 0
M  V30 9279 H 851.592 -4.05119 1.29456 0
M  V30 9280 N 849.908 -0.773975 -1.37286 0
M  V30 9281 C 850.818 -0.162571 -2.34036 0
M  V30 9282 C 851.834 0.677022 -1.60289 0
M  V30 9283 O 853.01 0.596423 -1.92366 0
M  V30 9284 C 850.075 0.70457 -3.39465 0
M  V30 9285 C 849.136 -0.151738 -4.29032 0
M  V30 9286 C 848.369 0.674111 -5.29426 0
M  V30 9287 O 848.592 1.91107 -5.37433 0
M  V30 9288 O 847.526 0.0821398 -6.01844 0
M  V30 9289 H 851.352 -0.962119 -2.88057 0
M  V30 9290 H 848.937 -0.53517 -1.39486 0
M  V30 9291 H 850.819 1.19954 -4.03967 0
M  V30 9292 H 849.494 1.48227 -2.87768 0
M  V30 9293 H 848.401 -0.693118 -3.67623 0
M  V30 9294 H 849.734 -0.892575 -4.84039 0
M  V30 9295 N 851.386 1.48609 -0.524698 0
M  V30 9296 C 852.333 2.29539 0.240956 0
M  V30 9297 C 853.303 1.37033 0.938681 0
M  V30 9298 O 854.488 1.65996 0.940737 0
M  V30 9299 C 851.628 3.20278 1.28514 0
M  V30 9300 C 850.741 4.27858 0.596798 0
M  V30 9301 C 849.876 5.05784 1.62346 0
M  V30 9302 C 848.915 6.05173 0.918287 0
M  V30 9303 N 848.052 6.76176 1.89025 0
M  V30 9304 H 852.892 2.945 -0.455368 0
M  V30 9305 H 850.429 1.45188 -0.236403 0
M  V30 9306 H 852.387 3.71281 1.90279 0
M  V30 9307 H 851.017 2.57251 1.94992 0
M  V30 9308 H 850.069 3.80162 -0.134668 0
M  V30 9309 H 851.381 4.98782 0.0428506 0
M  V30 9310 H 850.535 5.60775 2.31553 0
M  V30 9311 H 849.274 4.34687 2.2113 0
M  V30 9312 H 848.279 5.49391 0.21212 0
M  V30 9313 H 849.504 6.78265 0.336633 0
M  V30 9314 H 847.45 6.07834 2.46726 0
M  V30 9315 H 847.367 7.43157 1.3876 0
M  V30 9316 H 848.635 7.35759 2.57446 0
M  V30 9317 N 852.864 0.259585 1.55447 0
M  V30 9318 C 854.089 -0.368317 2.04103 0
M  V30 9319 C 854.514 -1.49827 1.13725 0
M  V30 9320 O 853.872 -1.80814 0.132705 0
M  V30 9321 C 853.92 -0.841506 3.50644 0
M  V30 9322 O 853.024 -1.95008 3.63381 0
M  V30 9323 H 852.365 -0.0785227 0.659341 0
M  V30 9324 H 854.895 0.389349 2.00861 0
M  V30 9325 H 854.905 -1.14138 3.9171 0
M  V30 9326 H 853.58 -0.0147001 4.15897 0
M  V30 9327 H 852.157 -1.65393 3.34215 0
M  V30 9328 N 854.342 -1.57594 -0.0133615 0
M  V30 9329 C 855.758 -1.5527 -0.369255 0
M  V30 9330 C 855.958 -0.987751 -1.7563 0
M  V30 9331 O 855.014 -0.615683 -2.44879 0
M  V30 9332 C 856.327 -2.99602 -0.25672 0
M  V30 9333 C 857.875 -3.11227 -0.332647 0
M  V30 9334 C 858.35 -4.57321 -0.249387 0
M  V30 9335 N 859.841 -4.62177 -0.3077 0
M  V30 9336 C 860.576 -5.72781 -0.26641 0
M  V30 9337 N 860.072 -6.92575 -0.176494 0
M  V30 9338 N 861.865 -5.61204 -0.317295 0
M  V30 9339 H 854.016 -1.92662 0.894154 0
M  V30 9340 H 856.279 -0.884352 0.341505 0
M  V30 9341 H 855.985 -3.44723 0.697072 0
M  V30 9342 H 855.859 -3.6246 -1.04415 0
M  V30 9343 H 858.246 -2.66045 -1.27688 0
M  V30 9344 H 858.327 -2.51171 0.484412 0
M  V30 9345 H 857.971 -5.03174 0.691242 0
M  V30 9346 H 857.901 -5.15306 -1.08476 0
M  V30 9347 H 860.392 -3.75994 -0.379069 0
M  V30 9348 H 860.705 -7.72653 -0.150518 0
M  V30 9349 H 859.05 -6.94854 -0.142314 0
M  V30 9350 H 862.241 -4.66509 -0.385643 0
M  V30 9351 H 862.414 -6.47388 -0.28165 0
M  V30 9352 N 855.82 0.285905 -1.54985 0
M  V30 9353 C 856.73 1.37534 -1.90057 0
M  V30 9354 C 857.746 1.54707 -0.796348 0
M  V30 9355 O 858.922 1.69082 -1.09423 0
M  V30 9356 C 855.987 2.7167 -2.15398 0
M  V30 9357 C 855.048 2.63354 -3.39033 0
M  V30 9358 C 854.281 3.91093 -3.63155 0
M  V30 9359 O 854.504 4.91169 -2.90015 0
M  V30 9360 O 853.438 3.92075 -4.56685 0
M  V30 9361 H 857.264 1.10791 -2.8277 0
M  V30 9362 H 854.849 0.483303 -1.41367 0
M  V30 9363 H 856.731 3.51006 -2.33179 0
M  V30 9364 H 855.406 2.98226 -1.25868 0
M  V30 9365 H 854.313 1.82438 -3.26599 0
M  V30 9366 H 855.646 2.41749 -4.2874 0
M  V30 9367 N 857.298 1.47698 0.54982 0
M  V30 9368 C 858.714 1.3338 0.876468 0
M  V30 9369 C 858.914 0.329837 1.98782 0
M  V30 9370 O 857.97 -0.256022 2.51199 0
M  V30 9371 C 859.283 2.72903 1.26272 0
M  V30 9372 C 860.831 2.81243 1.37373 0
M  V30 9373 C 861.306 4.21423 1.79351 0
M  V30 9374 N 862.797 4.24 1.86489 0
M  V30 9375 C 863.532 5.29386 2.20313 0
M  V30 9376 N 863.028 6.4507 2.527 0
M  V30 9377 N 864.821 5.16768 2.2115 0
M  V30 9378 H 856.972 2.11603 -0.183781 0
M  V30 9379 H 859.235 0.947798 -0.0195601 0
M  V30 9380 H 858.941 3.47836 0.519889 0
M  V30 9381 H 858.815 3.05151 2.21727 0
M  V30 9382 H 861.202 2.06577 2.10737 0
M  V30 9383 H 861.283 2.52639 0.400882 0
M  V30 9384 H 860.927 4.96597 1.06555 0
M  V30 9385 H 860.857 4.47456 2.77652 0
M  V30 9386 H 863.348 3.40547 1.63817 0
M  V30 9387 H 863.661 7.21236 2.77557 0
M  V30 9388 H 862.006 6.48377 2.50263 0
M  V30 9389 H 865.197 4.25416 1.95293 0
M  V30 9390 H 865.37 5.99004 2.4718 0
M  V30 9391 N 858.776 -0.797141 1.35954 0
M  V30 9392 C 860.001 -1.59097 1.33053 0
M  V30 9393 C 860.426 -1.87897 -0.0874592 0
M  V30 9394 O 859.784 -1.47291 -1.05712 0
M  V30 9395 C 859.832 -2.89346 2.152 0
M  V30 9396 O 858.936 -3.826 1.5392 0
M  V30 9397 H 858.277 -0.482895 0.45575 0
M  V30 9398 H 860.807 -0.988633 1.79129 0
M  V30 9399 H 860.817 -3.38686 2.27499 0
M  V30 9400 H 859.492 -2.6771 3.18283 0
M  V30 9401 H 858.069 -3.41174 1.50516 0
M  V30 9402 N 860.254 -1.20106 -1.0204 0
M  V30 9403 C 861.67 -0.955099 -1.27867 0
M  V30 9404 C 861.87 0.367595 -1.98119 0
M  V30 9405 O 860.926 1.09705 -2.27423 0
M  V30 9406 C 862.239 -2.13507 -2.11744 0
M  V30 9407 C 863.787 -2.17563 -2.25023 0
M  V30 9408 C 864.262 -3.35035 -3.12275 0
M  V30 9409 N 865.753 -3.35024 -3.19864 0
M  V30 9410 C 866.488 -4.22566 -3.8759 0
M  V30 9411 N 865.984 -5.20278 -4.57474 0
M  V30 9412 N 867.777 -4.10418 -3.84075 0
M  V30 9413 H 859.928 -2.05193 -0.54861 0
M  V30 9414 H 862.191 -0.897689 -0.304728 0
M  V30 9415 H 861.897 -3.09275 -1.67456 0
M  V30 9416 H 861.771 -2.11281 -3.12474 0
M  V30 9417 H 864.158 -1.22359 -2.68537 0
M  V30 9418 H 864.239 -2.23838 -1.23815 0
M  V30 9419 H 863.883 -4.30522 -2.69468 0
M  V30 9420 H 863.813 -3.25996 -4.13563 0
M  V30 9421 H 866.304 -2.64299 -2.701 0
M  V30 9422 H 866.617 -5.83408 -5.06809 0
M  V30 9423 H 864.962 -5.24219 -4.56311 0
M  V30 9424 H 868.153 -3.33353 -3.28623 0
M  V30 9425 H 868.326 -4.78854 -4.36581 0
M  V30 9426 N 861.732 1.21287 -1.00634 0
M  V30 9427 C 863.009 1.86 -0.605257 0
M  V30 9428 C 863.389 1.90139 0.917072 0
M  V30 9429 O 862.737 1.40169 1.80458 0
M  V30 9430 C 862.947 3.26183 -1.24119 0
M  V30 9431 C 864.295 4.02562 -1.35015 0
M  V30 9432 O 865.319 3.35499 -1.19661 0
M  V30 9433 O 864.178 5.22638 -1.59726 0
M  V30 9434 H 861.272 0.800549 -0.207486 0
M  V30 9435 H 863.818 1.28959 -1.10307 0
M  V30 9436 H 862.59 3.17878 -2.28186 0
M  V30 9437 H 862.213 3.90845 -0.729807 0
M  V30 9438 N 863.21 0.781244 1.36873 0
M  V30 9439 C 864.456 0.350407 1.9975 0
M  V30 9440 C 864.789 -1.07293 1.6187 0
M  V30 9441 O 864.064 -1.73983 0.869491 0
M  V30 9442 C 864.347 0.504834 3.56544 0
M  V30 9443 C 864.2 1.97127 4.04303 0
M  V30 9444 C 865.519 -0.0851272 4.40018 0
M  V30 9445 H 862.638 0.128794 0.725659 0
M  V30 9446 H 865.28 0.98606 1.6241 0
M  V30 9447 H 863.43 -0.0363006 3.88483 0
M  V30 9448 H 865.102 2.57284 3.82887 0
M  V30 9449 H 863.345 2.47676 3.56145 0
M  V30 9450 H 864.016 2.03033 5.13305 0
M  V30 9451 H 866.492 0.376704 4.14391 0
M  V30 9452 H 865.368 0.0530015 5.48874 0
M  V30 9453 H 865.629 -1.17642 4.2616 0
M  V30 9454 N 864.689 -1.48329 0.532571 0
M  V30 9455 C 865.636 -2.29663 -0.228779 0
M  V30 9456 C 866.606 -1.37529 -0.931401 0
M  V30 9457 O 867.791 -1.66493 -0.931921 0
M  V30 9458 C 864.931 -3.20955 -1.26814 0
M  V30 9459 C 864.044 -4.28168 -0.574099 0
M  V30 9460 C 863.179 -5.06638 -1.59661 0
M  V30 9461 C 862.218 -6.05651 -0.88618 0
M  V30 9462 N 861.355 -6.77169 -1.85436 0
M  V30 9463 H 866.195 -2.94255 0.47098 0
M  V30 9464 H 863.732 -1.45061 0.2441 0
M  V30 9465 H 865.69 -3.72285 -1.88307 0
M  V30 9466 H 864.32 -2.58281 -1.93625 0
M  V30 9467 H 863.372 -3.80085 0.154827 0
M  V30 9468 H 864.684 -4.98797 -0.0163984 0
M  V30 9469 H 863.838 -5.61995 -2.28576 0
M  V30 9470 H 862.577 -4.35854 -2.18821 0
M  V30 9471 H 861.582 -5.49495 -0.182981 0
M  V30 9472 H 862.807 -6.78434 -0.300659 0
M  V30 9473 H 860.753 -6.09134 -2.43499 0
M  V30 9474 H 860.67 -7.43882 -1.34816 0
M  V30 9475 H 861.938 -7.37114 -2.53541 0
M  V30 9476 N 866.167 -0.267825 -1.55308 0
M  V30 9477 C 867.115 0.638848 -2.23655 0
M  V30 9478 C 868.109 1.16363 -1.2311 0
M  V30 9479 O 869.315 1.1181 -1.41062 0
M  V30 9480 H 865.69 0.224551 -0.717691 0
M  V30 9481 H 867.661 0.0394809 -2.98374 0
M  V30 9482 C 866.41 1.8151 -2.96562 0
M  V30 9483 H 865.733 1.42048 -3.73715 0
M  V30 9484 H 867.173 2.42629 -3.47717 0
M  V30 9485 C 865.632 2.69911 -2.01618 0
M  V30 9486 O 866.162 3.70058 -1.56268 0
M  V30 9487 N 864.368 2.36924 -1.68272 0
M  V30 9488 H 863.915 1.55533 -2.05347 0
M  V30 9489 H 863.873 2.96343 -1.05016 0
M  V30 9490 N 867.645 1.57599 0.00500368 0
M  V30 9491 C 868.87 1.95026 0.705663 0
M  V30 9492 C 869.295 0.869643 1.6679 0
M  V30 9493 O 868.653 -0.172659 1.80476 0
M  V30 9494 C 868.701 3.31545 1.4181 0
M  V30 9495 O 867.805 3.25495 2.53232 0
M  V30 9496 H 867.146 0.636808 0.188074 0
M  V30 9497 H 869.676 2.04547 -0.046696 0
M  V30 9498 H 869.686 3.66996 1.78265 0
M  V30 9499 H 868.361 4.09751 0.712543 0
M  V30 9500 H 866.938 3.01714 2.19142 0
M  V30 9501 N 869.123 -0.277682 1.55134 0
M  V30 9502 C 870.033 -1.36524 1.90783 0
M  V30 9503 C 871.049 -1.54283 0.804542 0
M  V30 9504 O 872.225 -1.68499 1.10318 0
M  V30 9505 C 869.29 -2.70524 2.16835 0
M  V30 9506 C 868.351 -2.61552 3.40424 0
M  V30 9507 C 867.584 -3.89162 3.65224 0
M  V30 9508 O 867.807 -4.89624 2.92616 0
M  V30 9509 O 866.741 -3.89647 4.58758 0
M  V30 9510 H 870.567 -1.0929 2.83354 0
M  V30 9511 H 868.152 -0.475799 1.41621 0
M  V30 9512 H 870.034 -3.49765 2.35038 0
M  V30 9513 H 868.709 -2.97555 1.27448 0
M  V30 9514 H 867.616 -1.80704 3.27562 0
M  V30 9515 H 868.949 -2.39472 4.30016 0
M  V30 9516 N 870.601 -1.47988 -0.541979 0
M  V30 9517 C 871.849 -1.55086 -1.29587 0
M  V30 9518 C 872.17 -0.221304 -1.9374 0
M  V30 9519 O 871.44 0.756128 -1.80719 0
M  V30 9520 H 870.02 -0.571307 -0.481266 0
M  V30 9521 H 872.682 -1.8438 -0.631675 0
M  V30 9522 H 871.778 -2.32556 -2.08144 0
M  V30 9523 N 872.079 0.78992 -1.36375 0
M  V30 9524 C 873.356 1.53584 -1.21126 0
M  V30 9525 C 873.736 2.10124 0.202785 0
M  V30 9526 O 873.084 1.93936 1.20835 0
M  V30 9527 C 873.294 2.63117 -2.29282 0
M  V30 9528 C 874.642 3.31013 -2.65924 0
M  V30 9529 O 875.666 2.734 -2.28321 0
M  V30 9530 O 874.525 4.35129 -3.30643 0
M  V30 9531 H 871.619 0.679366 -0.471583 0
M  V30 9532 H 874.165 0.828446 -1.48104 0
M  V30 9533 H 872.937 2.19329 -3.24053 0
M  V30 9534 H 872.56 3.41476 -2.03666 0
M  V30 9535 N 873.557 1.20646 1.01402 0
M  V30 9536 C 874.797 1.02951 1.7658 0
M  V30 9537 C 875.161 -0.430522 1.87111 0
M  V30 9538 O 876.362 -0.727727 2.58762 0
M  V30 9539 C 874.633 1.69728 3.14527 0
M  V30 9540 S 876.192 1.6717 4.05709 0
M  V30 9541 H 873.01 0.36911 0.607683 0
M  V30 9542 H 875.612 1.53243 1.21395 0
M  V30 9543 H 874.316 2.75162 3.0449 0
M  V30 9544 H 873.847 1.19578 3.74786 0
M  V30 9545 H 875.862 0.706397 4.91146 0
M  V30 9546 N 875.035 -1.20752 1.01276 0
M  V30 9547 C 875.998 -2.2162 0.584583 0
M  V30 9548 C 876.998 -1.57094 -0.343215 0
M  V30 9549 O 878.188 -1.73696 -0.132433 0
M  V30 9550 C 875.32 -3.40583 -0.146872 0
M  V30 9551 H 876.513 -2.61015 1.47686 0
M  V30 9552 H 874.066 -1.34148 0.802123 0
M  V30 9553 H 874.801 -3.06686 -1.05424 0
M  V30 9554 H 874.586 -3.88642 0.51958 0
M  V30 9555 H 876.076 -4.15339 -0.433924 0
M  V30 9556 O 876.552 -0.924783 -1.32401 0
M  V30 9557 H 877.243 -0.545902 -1.85848 0
M  V30 END ATOM
M  V30 BEGIN BOND
M  V30 END BOND
M  V30 END CTAB
M  END
$$$$
