drugbank_target|Q8DNV6 UDP-N-acetylmuramoyl-tripeptide--D-alanyl-D-alanine ligase (DB06970)
 OpenBabel12092120393D

  0  0  0     0  0            999 V3000
M  V30 BEGIN CTAB
M  V30 COUNTS 7112 7170 0 0 0
M  V30 BEGIN ATOM
M  V30 1 H -0.908 1.98254 -0.117106 0
M  V30 2 N 0 1.576 0 0
M  V30 3 C 0.933 2.03868 1.02534 0
M  V30 4 C 1.911 0.928543 1.3348 0
M  V30 5 O 3.095 1.19667 1.45644 0
M  V30 6 C 0.222 2.43627 2.35294 0
M  V30 7 C -0.732 3.65373 2.2001 0
M  V30 8 S 0.101 5.13292 1.52614 0
M  V30 9 C 1.257 5.56322 2.86805 0
M  V30 10 H 1.49 2.90518 0.631377 0
M  V30 11 H -0.977 1.52953 0.210867 0
M  V30 12 H 0.981 2.67203 3.11629 0
M  V30 13 H -0.358 1.57376 2.7183 0
M  V30 14 H -1.165 3.90944 3.18086 0
M  V30 15 H -1.563 3.418 1.51819 0
M  V30 16 H 0.729 5.58782 3.83104 0
M  V30 17 H 1.672 6.56266 2.65933 0
M  V30 18 H 2.08 4.83886 2.90714 0
M  V30 19 N 1.4781 -0.272755 1.55222 0
M  V30 20 C 2.4251 -1.33716 1.88119 0
M  V30 21 C 3.3951 -1.49066 0.73271 0
M  V30 22 O 4.5801 -1.63469 0.984002 0
M  V30 23 C 1.7201 -2.69238 2.15882 0
M  V30 24 C 0.8331 -2.62108 3.43399 0
M  V30 25 C -0.0319 -3.89811 3.60861 0
M  V30 26 C -0.9929 -3.77193 4.8207 0
M  V30 27 N -1.8559 -4.9673 4.96189 0
M  V30 28 H 2.9841 -1.04962 2.78903 0
M  V30 29 H 0.5211 -0.507088 1.38083 0
M  V30 30 H 2.4791 -3.48089 2.29978 0
M  V30 31 H 1.1091 -2.96194 1.28331 0
M  V30 32 H 0.1611 -1.74967 3.37773 0
M  V30 33 H 1.4731 -2.48685 4.32386 0
M  V30 34 H 0.6271 -4.77103 3.74777 0
M  V30 35 H -0.6339 -4.06102 2.7006 0
M  V30 36 H -1.6289 -2.88284 4.68159 0
M  V30 37 H -0.4039 -3.62421 5.74307 0
M  V30 38 H -2.4579 -5.13431 4.08319 0
M  V30 39 H -2.5409 -4.85839 5.79221 0
M  V30 40 H -1.2729 -5.85594 5.1449 0
M  V30 41 N 2.9562 -1.48159 -0.537278 0
M  V30 42 C 3.8862 -1.65029 -1.6519 0
M  V30 43 C 4.8672 -0.499281 -1.62607 0
M  V30 44 O 6.0522 -0.730972 -1.79918 0
M  V30 45 C 3.1822 -1.68303 -3.03795 0
M  V30 46 C 2.1362 -2.8283 -3.21234 0
M  V30 47 C 1.4622 -2.71189 -4.60826 0
M  V30 48 C 2.7622 -4.24211 -3.04701 0
M  V30 49 H 4.4562 -2.58341 -1.51328 0
M  V30 50 H 2.0022 -1.24325 -0.726585 0
M  V30 51 H 3.9552 -1.78693 -3.81637 0
M  V30 52 H 2.6792 -0.715635 -3.18663 0
M  V30 53 H 1.3382 -2.71983 -2.45807 0
M  V30 54 H 0.9862 -1.72435 -4.7252 0
M  V30 55 H 0.6862 -3.48035 -4.7344 0
M  V30 56 H 2.2102 -2.83537 -5.40777 0
M  V30 57 H 3.6242 -4.3593 -3.72341 0
M  V30 58 H 2.0212 -5.01998 -3.28813 0
M  V30 59 H 3.0912 -4.41184 -2.01209 0
M  V30 60 N 4.4343 0.785586 -1.36625 0
M  V30 61 C 5.6623 1.57448 -1.3423 0
M  V30 62 C 6.0773 1.88649 0.0755653 0
M  V30 63 O 5.4343 1.50414 1.03354 0
M  V30 64 C 5.4853 2.89316 -2.16745 0
M  V30 65 O 5.2063 2.59459 -3.53005 0
M  V30 66 C 6.7073 3.83606 -2.22174 0
M  V30 67 H 3.9273 0.488226 -0.4603 0
M  V30 68 H 6.4713 0.974733 -1.79775 0
M  V30 69 H 4.6263 3.4575 -1.74745 0
M  V30 70 H 5.0403 3.43804 -3.96105 0
M  V30 71 H 6.5143 4.73181 -2.8426 0
M  V30 72 H 6.9913 4.21734 -1.22627 0
M  V30 73 H 7.5973 3.33104 -2.64427 0
M  V30 74 N 5.9124 1.20967 1.01018 0
M  V30 75 C 7.1614 1.01796 1.74128 0
M  V30 76 C 7.4744 -0.449691 1.90361 0
M  V30 77 O 8.6804 -0.76068 2.60626 0
M  V30 78 C 7.1364 1.7727 3.13215 0
M  V30 79 C 6.7444 3.28171 3.04972 0
M  V30 80 C 8.4884 1.66489 3.90489 0
M  V30 81 C 6.3954 3.96156 4.39107 0
M  V30 82 H 5.3254 0.377276 0.652824 0
M  V30 83 H 7.9764 1.44651 1.12909 0
M  V30 84 H 6.3584 1.27205 3.75013 0
M  V30 85 H 7.5324 3.85499 2.52443 0
M  V30 86 H 5.8474 3.39437 2.41188 0
M  V30 87 H 8.4444 2.14617 4.89738 0
M  V30 88 H 8.7874 0.6222 4.11624 0
M  V30 89 H 9.3204 2.14003 3.35332 0
M  V30 90 H 6.0594 5.00604 4.23174 0
M  V30 91 H 5.5794 3.43617 4.91617 0
M  V30 92 H 7.2584 4.00774 5.07926 0
M  V30 93 N 7.3905 -1.2043 1.01659 0
M  V30 94 C 8.3405 -2.21076 0.557623 0
M  V30 95 C 9.3245 -1.56176 -0.387029 0
M  V30 96 O 10.5165 -1.7575 -0.209996 0
M  V30 97 C 7.6455 -3.43146 -0.102707 0
M  V30 98 C 6.7315 -4.15213 0.863652 0
M  V30 99 N 7.1225 -4.63662 2.02117 0
M  V30 100 C 5.4205 -4.40716 0.684472 0
M  V30 101 C 6.1215 -5.18868 2.62966 0
M  V30 102 N 5.0975 -5.0893 1.91027 0
M  V30 103 H 8.8995 -2.56201 1.44008 0
M  V30 104 H 6.4135 -1.36366 0.881931 0
M  V30 105 H 8.4105 -4.14475 -0.449054 0
M  V30 106 H 7.0705 -3.09526 -0.981003 0
M  V30 107 H 8.0815 -4.58877 2.40109 0
M  V30 108 H 4.7585 -4.17245 -0.14577 0
M  V30 109 H 6.1485 -5.6673 3.60924 0
M  V30 110 N 8.8686 -0.792821 -1.36206 0
M  V30 111 C 9.7786 -0.194808 -2.3379 0
M  V30 112 C 10.7946 0.654869 -1.61206 0
M  V30 113 O 11.9706 0.569856 -1.9317 0
M  V30 114 C 9.0356 0.657721 -3.40404 0
M  V30 115 C 8.0966 -0.210849 -4.28782 0
M  V30 116 C 7.3296 0.601086 -5.30304 0
M  V30 117 O 7.5526 1.83682 -5.40016 0
M  V30 118 O 6.4866 -0.000808277 -6.019 0
M  V30 119 H 10.3126 -1.00172 -2.86704 0
M  V30 120 H 7.8976 -0.554341 -1.38735 0
M  V30 121 H 9.7796 1.14375 -4.05581 0
M  V30 122 H 8.4546 1.44247 -2.89784 0
M  V30 123 H 7.3616 -0.743714 -3.66633 0
M  V30 124 H 8.6946 -0.959195 -4.82763 0
M  V30 125 N 10.3467 1.47872 -0.545128 0
M  V30 126 C 11.5957 2.01695 -0.0145033 0
M  V30 127 C 11.9087 1.42609 1.33873 0
M  V30 128 O 13.1147 1.88021 1.95858 0
M  V30 129 C 11.5707 3.59892 0.0245068 0
M  V30 130 C 11.1787 4.27966 -1.32475 0
M  V30 131 C 12.9227 4.21507 0.50316 0
M  V30 132 C 10.8297 5.78136 -1.2455 0
M  V30 133 H 9.7597 0.753998 -0.00165172 0
M  V30 134 H 12.4107 1.69985 -0.691175 0
M  V30 135 H 10.7927 3.88509 0.766575 0
M  V30 136 H 11.9667 4.11003 -2.08357 0
M  V30 137 H 10.2817 3.78286 -1.74036 0
M  V30 138 H 12.8787 5.31538 0.580656 0
M  V30 139 H 13.2217 3.87855 1.51243 0
M  V30 140 H 13.7547 3.97376 -0.183681 0
M  V30 141 H 10.4937 6.16388 -2.23039 0
M  V30 142 H 10.0137 5.97469 -0.528282 0
M  V30 143 H 11.6927 6.40099 -0.942488 0
M  V30 144 N 11.8248 0.280983 1.55075 0
M  V30 145 C 12.7878 -0.590896 2.21452 0
M  V30 146 C 13.7878 -1.07682 1.19421 0
M  V30 147 O 14.9778 -0.97605 1.44288 0
M  V30 148 C 12.1098 -1.81587 2.88511 0
M  V30 149 H 13.3028 -0.0112554 2.99898 0
M  V30 150 H 10.8558 0.0316438 1.56268 0
M  V30 151 H 11.5908 -2.43587 2.14093 0
M  V30 152 H 11.3758 -1.4753 3.63287 0
M  V30 153 H 12.8658 -2.43575 3.39206 0
M  V30 154 N 13.3029 -1.57598 0.00835791 0
M  V30 155 C 14.2349 -2.05811 -1.00868 0
M  V30 156 C 15.2479 -0.977579 -1.30182 0
M  V30 157 O 16.4369 -1.25421 -1.27011 0
M  V30 158 C 13.5369 -2.45016 -2.34137 0
M  V30 159 C 12.7099 -3.75903 -2.23643 0
M  V30 160 C 11.7689 -4.01884 -3.3967 0
M  V30 161 O 10.7949 -4.72433 -3.17483 0
M  V30 162 N 11.9969 -3.50432 -4.62793 0
M  V30 163 H 14.7619 -2.93684 -0.597458 0
M  V30 164 H 12.3229 -1.60909 -0.178852 0
M  V30 165 H 14.3149 -2.59506 -3.10546 0
M  V30 166 H 12.8849 -1.62618 -2.66972 0
M  V30 167 H 12.1049 -3.7141 -1.32091 0
M  V30 168 H 13.3929 -4.61695 -2.13812 0
M  V30 169 H 12.7909 -2.93317 -4.83716 0
M  V30 170 H 11.3479 -3.70236 -5.3644 0
M  V30 171 N 14.781 0.264519 -1.55364 0
M  V30 172 C 16.027 0.99646 -1.76631 0
M  V30 173 C 16.36 1.85632 -0.570478 0
M  V30 174 O 15.635 1.89647 0.43175 0
M  V30 175 C 15.918 1.87187 -3.07625 0
M  V30 176 C 15.771 1.04138 -4.37579 0
M  V30 177 C 17.09 2.85749 -3.34717 0
M  V30 178 H 14.209 0.360841 -0.642622 0
M  V30 179 H 16.851 0.268218 -1.88097 0
M  V30 180 H 15.001 2.49279 -2.9798 0
M  V30 181 H 16.673 0.440517 -4.59192 0
M  V30 182 H 14.916 0.345115 -4.32425 0
M  V30 183 H 15.587 1.68729 -5.2558 0
M  V30 184 H 18.063 2.33793 -3.4421 0
M  V30 185 H 16.939 3.44136 -4.27623 0
M  V30 186 H 17.2 3.61311 -2.54768 0
M  V30 187 N 16.2591 1.48442 0.529413 0
M  V30 188 C 17.5051 1.5672 1.28711 0
M  V30 189 C 17.8381 0.2406 1.92704 0
M  V30 190 O 17.1131 -0.753454 1.79313 0
M  V30 191 C 17.3961 2.70587 2.37603 0
M  V30 192 C 17.2491 4.12953 1.78297 0
M  V30 193 C 18.5681 2.80212 3.39366 0
M  V30 194 H 15.6871 0.570474 0.466613 0
M  V30 195 H 18.3291 1.80617 0.589706 0
M  V30 196 H 16.4791 2.50342 2.97088 0
M  V30 197 H 18.1511 4.44639 1.22858 0
M  V30 198 H 16.3941 4.19927 1.0883 0
M  V30 199 H 17.0651 4.88448 2.57144 0
M  V30 200 H 19.5411 2.98553 2.89836 0
M  V30 201 H 18.4171 3.61611 4.12951 0
M  V30 202 H 18.6781 1.88393 3.99951 0
M  V30 203 N 17.7372 -0.778329 1.37039 0
M  V30 204 C 18.9852 -1.53361 1.31623 0
M  V30 205 C 19.3062 -1.94739 -0.100831 0
M  V30 206 O 18.5762 -1.65797 -1.04347 0
M  V30 207 H 17.1562 -0.568794 0.484234 0
M  V30 208 H 19.8182 -0.926742 1.71457 0
M  V30 209 H 18.9142 -2.43606 1.95096 0
M  V30 210 N 19.2153 -1.21501 -1.00376 0
M  V30 211 C 20.1783 -0.976927 -2.07337 0
M  V30 212 C 21.1783 0.0525322 -1.60714 0
M  V30 213 O 22.3683 -0.184869 -1.73216 0
M  V30 214 C 19.5003 -0.473423 -3.37597 0
M  V30 215 H 20.6933 -1.92587 -2.29892 0
M  V30 216 H 18.2463 -1.03217 -1.17371 0
M  V30 217 H 18.9813 0.480379 -3.20722 0
M  V30 218 H 18.7663 -1.216 -3.72768 0
M  V30 219 H 20.2563 -0.32675 -4.1632 0
M  V30 220 N 20.6934 1.19889 -1.02296 0
M  V30 221 C 21.6404 2.22901 -0.598651 0
M  V30 222 C 22.6104 1.61588 0.384521 0
M  V30 223 O 23.7954 1.88697 0.282522 0
M  V30 224 C 20.9354 3.45063 0.0504476 0
M  V30 225 C 20.0484 4.20783 -0.978053 0
M  V30 226 C 19.1834 5.30356 -0.299338 0
M  V30 227 C 18.2224 5.97826 -1.31416 0
M  V30 228 N 17.3594 6.98975 -0.661667 0
M  V30 229 H 22.1994 2.58554 -1.48169 0
M  V30 230 H 19.7364 1.27039 -0.741584 0
M  V30 231 H 21.6944 4.14831 0.443971 0
M  V30 232 H 20.3244 3.10084 0.897097 0
M  V30 233 H 19.3764 3.50018 -1.48969 0
M  V30 234 H 20.6884 4.67109 -1.74958 0
M  V30 235 H 19.8424 6.06516 0.149347 0
M  V30 236 H 18.5814 4.85084 0.504445 0
M  V30 237 H 17.5864 5.20422 -1.77317 0
M  V30 238 H 18.8114 6.45183 -2.11933 0
M  V30 239 H 16.7574 6.55886 0.122132 0
M  V30 240 H 16.6744 7.43461 -1.37117 0
M  V30 241 H 17.9424 7.7914 -0.236785 0
M  V30 242 N 22.1715 0.800033 1.35784 0
M  V30 243 C 23.1195 0.193851 2.31791 0
M  V30 244 C 24.1135 -0.652744 1.56319 0
M  V30 245 O 25.3195 -0.546641 1.71499 0
M  V30 246 H 21.6945 0.04392 0.750716 0
M  V30 247 H 23.6655 1.01883 2.80468 0
M  V30 248 C 22.4145 -0.648338 3.41602 0
M  V30 249 H 21.7375 -0.00624665 3.998 0
M  V30 250 H 23.1775 -1.03898 4.11073 0
M  V30 251 C 21.6365 -1.8111 2.84079 0
M  V30 252 O 22.1665 -2.90825 2.77099 0
M  V30 253 N 20.3725 -1.62056 2.41218 0
M  V30 254 H 19.9195 -0.728123 2.47095 0
M  V30 255 H 19.8775 -2.40013 2.03079 0
M  V30 256 N 23.6496 -1.47581 0.552962 0
M  V30 257 C 24.9266 -1.95563 -0.0381515 0
M  V30 258 C 25.3066 -1.49552 -1.48988 0
M  V30 259 O 24.6546 -0.732414 -2.16444 0
M  V30 260 C 24.8646 -3.48848 0.102919 0
M  V30 261 C 26.2126 -4.24577 -0.0446082 0
M  V30 262 O 27.2366 -3.56187 0.0302548 0
M  V30 263 O 26.0956 -5.46116 -0.204923 0
M  V30 264 H 23.1896 -0.824321 -0.0665067 0
M  V30 265 H 25.7356 -1.58001 0.619186 0
M  V30 266 H 24.5076 -3.75129 1.11328 0
M  V30 267 H 24.1306 -3.93165 -0.592224 0
M  V30 268 N 25.1277 -0.289203 -1.54924 0
M  V30 269 C 26.3767 0.324231 -1.99077 0
M  V30 270 C 26.6897 1.5591 -1.18117 0
M  V30 271 O 27.8957 2.24637 -1.52481 0
M  V30 272 C 26.3517 0.628209 -3.54375 0
M  V30 273 C 25.9597 -0.587647 -4.44129 0
M  V30 274 C 27.7037 1.20349 -4.07083 0
M  V30 275 C 25.6107 -0.257475 -5.90839 0
M  V30 276 H 24.5407 0.124924 -0.743579 0
M  V30 277 H 27.1917 -0.396063 -1.79175 0
M  V30 278 H 25.5737 1.40778 -3.70132 0
M  V30 279 H 26.7477 -1.36418 -4.40144 0
M  V30 280 H 25.0627 -1.08074 -4.0213 0
M  V30 281 H 27.6597 1.46456 -5.14252 0
M  V30 282 H 28.0027 2.14195 -3.56968 0
M  V30 283 H 28.5357 0.485889 -3.94821 0
M  V30 284 H 25.2747 -1.16419 -6.45079 0
M  V30 285 H 24.7947 0.482018 -5.9786 0
M  V30 286 H 26.4737 0.145238 -6.46837 0
M  V30 287 N 26.6058 1.57591 -0.0167156 0
M  V30 288 C 27.8308 1.9598 0.67872 0
M  V30 289 C 28.2558 0.892546 1.65575 0
M  V30 290 O 27.6138 -0.147772 1.80697 0
M  V30 291 C 27.6618 3.33468 1.37227 0
M  V30 292 O 26.7658 3.28954 2.48722 0
M  V30 293 H 26.1068 0.639339 0.17928 0
M  V30 294 H 28.6368 2.04463 -0.0748802 0
M  V30 295 H 28.6468 3.69417 1.7319 0
M  V30 296 H 27.3218 4.10694 0.656007 0
M  V30 297 H 25.8988 3.04705 2.14963 0
M  V30 298 N 28.0839 -0.256276 1.55502 0
M  V30 299 C 29.3329 -0.983486 1.76098 0
M  V30 300 C 29.6459 -1.86837 0.578896 0
M  V30 301 O 30.8519 -2.63163 0.667648 0
M  V30 302 C 29.3079 -1.79868 3.1173 0
M  V30 303 C 28.9159 -0.961648 4.37557 0
M  V30 304 C 30.6599 -2.51919 3.41668 0
M  V30 305 C 28.5669 -1.77219 5.64223 0
M  V30 306 H 27.4969 -0.370936 0.656447 0
M  V30 307 H 30.1479 -0.238492 1.81944 0
M  V30 308 H 28.5299 -2.58527 2.99966 0
M  V30 309 H 29.7039 -0.218048 4.60284 0
M  V30 310 H 28.0189 -0.354913 4.14885 0
M  V30 311 H 30.6159 -3.12998 4.33516 0
M  V30 312 H 30.9589 -3.23059 2.62562 0
M  V30 313 H 31.4919 -1.80278 3.54605 0
M  V30 314 H 28.2309 -1.10471 6.46124 0
M  V30 315 H 27.7509 -2.49132 5.45613 0
M  V30 316 H 29.4299 -2.34169 6.03137 0
M  V30 317 N 29.562 -1.4872 -0.521534 0
M  V30 318 C 30.809 -1.57168 -1.27689 0
M  V30 319 C 31.137 -0.249275 -1.92896 0
M  V30 320 O 30.392 0.761162 -1.80291 0
M  V30 321 C 30.691 -2.66497 -2.38148 0
M  V30 322 C 30.357 -4.08664 -1.90538 0
M  V30 323 C 29.019 -4.47357 -1.77271 0
M  V30 324 C 31.371 -4.97724 -1.54663 0
M  V30 325 C 28.699 -5.72905 -1.26478 0
M  V30 326 C 31.051 -6.2377 -1.05329 0
M  V30 327 C 29.715 -6.61311 -0.906861 0
M  V30 328 H 28.985 -0.575117 -0.467249 0
M  V30 329 H 31.632 -1.82472 -0.581051 0
M  V30 330 H 29.937 -2.35085 -3.13437 0
M  V30 331 H 31.634 -2.70246 -2.96257 0
M  V30 332 H 28.224 -3.78111 -2.01816 0
M  V30 333 H 32.408 -4.68501 -1.63768 0
M  V30 334 H 27.664 -6.00709 -1.13835 0
M  V30 335 H 31.838 -6.9217 -0.76644 0
M  V30 336 H 29.465 -7.5848 -0.511083 0
M  V30 337 N 31.0401 0.771051 -1.3745 0
M  V30 338 C 31.9501 1.91538 -1.35464 0
M  V30 339 C 32.9661 1.72134 -0.254123 0
M  V30 340 O 34.1421 1.95358 -0.489626 0
M  V30 341 C 31.2071 3.26671 -1.16134 0
M  V30 342 C 30.2681 3.58723 -2.35831 0
M  V30 343 C 29.5011 4.87409 -2.17413 0
M  V30 344 O 29.7241 5.58506 -1.15876 0
M  V30 345 O 28.6581 5.18539 -3.05615 0
M  V30 346 H 32.4841 1.96165 -2.31847 0
M  V30 347 H 30.0691 0.9139 -1.18187 0
M  V30 348 H 31.9511 4.07499 -1.07345 0
M  V30 349 H 30.6261 3.22894 -0.228251 0
M  V30 350 H 29.5331 2.78127 -2.50192 0
M  V30 351 H 30.8661 3.67243 -3.27709 0
M  V30 352 N 32.5182 1.22032 0.997298 0
M  V30 353 C 33.7952 0.950823 1.70935 0
M  V30 354 C 34.1752 -0.535292 2.042 0
M  V30 355 O 33.5232 -1.50217 1.72183 0
M  V30 356 C 33.7332 1.84386 2.96315 0
M  V30 357 C 35.0812 2.09732 3.69185 0
M  V30 358 O 36.1052 1.81798 3.06314 0
M  V30 359 O 34.9642 2.57018 4.82291 0
M  V30 360 H 32.0582 0.357204 0.745878 0
M  V30 361 H 34.6042 1.32997 1.05404 0
M  V30 362 H 33.3762 2.84928 2.68201 0
M  V30 363 H 32.9992 1.46602 3.69586 0
M  V30 364 N 33.9963 -1.19345 1.0293 0
M  V30 365 C 35.2243 -1.92997 0.745644 0
M  V30 366 C 35.6393 -1.75519 -0.695589 0
M  V30 367 O 34.9963 -1.07737 -1.47306 0
M  V30 368 C 35.0473 -3.44741 1.08792 0
M  V30 369 O 34.7683 -3.61658 2.47256 0
M  V30 370 C 36.2693 -4.35515 0.827129 0
M  V30 371 H 33.4893 -0.613042 0.272801 0
M  V30 372 H 36.0333 -1.51473 1.3739 0
M  V30 373 H 34.1883 -3.84097 0.504832 0
M  V30 374 H 34.6023 -4.55514 2.60015 0
M  V30 375 H 36.0763 -5.40589 1.11658 0
M  V30 376 H 36.5533 -4.38552 -0.238436 0
M  V30 377 H 37.1593 -4.01841 1.39297 0
M  V30 378 N 35.4744 -0.807222 -1.35358 0
M  V30 379 C 36.4064 -0.175717 -2.28525 0
M  V30 380 C 37.4194 0.625354 -1.5031 0
M  V30 381 O 38.6084 0.457611 -1.72535 0
M  V30 382 C 35.7084 0.773471 -3.29956 0
M  V30 383 C 34.8814 0.0186296 -4.37396 0
M  V30 384 C 33.9404 0.886395 -5.18681 0
M  V30 385 O 32.9664 0.337106 -5.68201 0
M  V30 386 N 34.1684 2.20839 -5.36852 0
M  V30 387 H 36.9334 -0.976091 -2.83359 0
M  V30 388 H 34.4944 -0.662737 -1.47714 0
M  V30 389 H 36.4864 1.35824 -3.81227 0
M  V30 390 H 35.0564 1.47465 -2.75632 0
M  V30 391 H 34.2764 -0.747349 -3.87051 0
M  V30 392 H 35.5644 -0.501577 -5.06322 0
M  V30 393 H 34.9624 2.67858 -4.98265 0
M  V30 394 H 33.5194 2.74237 -5.91301 0
M  V30 395 N 36.9525 1.47285 -0.560781 0
M  V30 396 C 37.8825 2.32857 0.173105 0
M  V30 397 C 38.8635 1.44009 0.905281 0
M  V30 398 O 40.0485 1.7286 0.885046 0
M  V30 399 C 37.1785 3.25861 1.20133 0
M  V30 400 C 36.1325 4.23978 0.585388 0
M  V30 401 C 35.4585 5.06332 1.7185 0
M  V30 402 C 36.7585 5.20242 -0.463178 0
M  V30 403 H 38.4525 2.94466 -0.541307 0
M  V30 404 H 35.9985 1.41601 -0.261764 0
M  V30 405 H 37.9515 3.84569 1.72293 0
M  V30 406 H 36.6755 2.62315 1.94573 0
M  V30 407 H 35.3345 3.66501 0.085054 0
M  V30 408 H 34.9825 4.39186 2.45203 0
M  V30 409 H 34.6825 5.72762 1.31213 0
M  V30 410 H 36.2065 5.67899 2.24329 0
M  V30 411 H 37.6205 5.73293 -0.027502 0
M  V30 412 H 36.0175 5.94896 -0.788627 0
M  V30 413 H 37.0875 4.65504 -1.35773 0
M  V30 414 N 38.4306 0.297415 1.54768 0
M  V30 415 C 39.3406 -0.58983 2.27064 0
M  V30 416 C 40.3566 -1.15144 1.30453 0
M  V30 417 O 41.5326 -1.17699 1.63428 0
M  V30 418 C 38.5976 -1.74714 2.9946 0
M  V30 419 C 37.6586 -1.21997 4.11601 0
M  V30 420 C 36.8916 -2.32212 4.80535 0
M  V30 421 O 37.1146 -3.52036 4.48806 0
M  V30 422 O 36.0486 -1.99106 5.68014 0
M  V30 423 H 39.8746 -0.00348199 3.037 0
M  V30 424 H 37.4596 0.0640035 1.49263 0
M  V30 425 H 39.3416 -2.42147 3.44881 0
M  V30 426 H 38.0166 -2.32016 2.25722 0
M  V30 427 H 36.9236 -0.511458 3.70587 0
M  V30 428 H 38.2566 -0.692419 4.87305 0
M  V30 429 N 39.9087 -1.5758 0.0250728 0
M  V30 430 C 40.8557 -2.09973 -0.958129 0
M  V30 431 C 41.8257 -1.00085 -1.3256 0
M  V30 432 O 43.0107 -1.27481 -1.41962 0
M  V30 433 C 40.1507 -2.62812 -2.2366 0
M  V30 434 C 39.2637 -3.86693 -1.92594 0
M  V30 435 C 38.3987 -4.27941 -3.14707 0
M  V30 436 C 37.4377 -5.44591 -2.79442 0
M  V30 437 N 36.5747 -5.81014 -3.94167 0
M  V30 438 H 41.4147 -2.937 -0.504428 0
M  V30 439 H 38.9517 -1.45172 -0.237392 0
M  V30 440 H 40.9097 -2.91536 -2.98434 0
M  V30 441 H 39.5397 -1.81922 -2.66654 0
M  V30 442 H 38.5917 -3.64723 -1.0808 0
M  V30 443 H 39.9037 -4.71547 -1.62619 0
M  V30 444 H 39.0577 -4.58079 -3.97804 0
M  V30 445 H 37.7967 -3.41845 -3.4784 0
M  V30 446 H 36.8017 -5.1415 -1.94755 0
M  V30 447 H 38.0267 -6.32382 -2.47528 0
M  V30 448 H 35.9727 -4.97874 -4.2715 0
M  V30 449 H 35.8897 -6.60498 -3.67801 0
M  V30 450 H 37.1577 -6.15756 -4.7798 0
M  V30 451 N 41.3868 0.248026 -1.55636 0
M  V30 452 C 42.3498 1.29044 -1.89421 0
M  V30 453 C 43.3498 1.41134 -0.770581 0
M  V30 454 O 44.5398 1.39854 -1.03858 0
M  V30 455 C 41.6718 2.66831 -2.12165 0
M  V30 456 H 42.8648 1.00305 -2.82629 0
M  V30 457 H 40.4178 0.487265 -1.48511 0
M  V30 458 H 41.1528 3.00711 -1.21422 0
M  V30 459 H 40.9378 2.59438 -2.93997 0
M  V30 460 H 42.4278 3.42103 -2.3949 0
M  V30 461 N 42.8649 1.48995 0.513639 0
M  V30 462 C 43.7749 1.67443 1.64317 0
M  V30 463 C 44.7909 0.556947 1.64846 0
M  V30 464 O 45.9669 0.830082 1.83498 0
M  V30 465 C 43.0319 1.72515 3.00732 0
M  V30 466 C 42.0929 2.96009 3.1093 0
M  V30 467 C 41.3259 3.00829 4.40837 0
M  V30 468 O 41.5489 2.13594 5.28898 0
M  V30 469 O 40.4829 3.93168 4.55744 0
M  V30 470 H 44.3089 2.63106 1.51687 0
M  V30 471 H 41.8939 1.32588 0.688543 0
M  V30 472 H 43.7759 1.78277 3.81831 0
M  V30 473 H 42.4509 0.800278 3.13651 0
M  V30 474 H 41.3579 2.9577 2.29065 0
M  V30 475 H 42.6909 3.87934 3.02933 0
M  V30 476 N 44.343 -0.763751 1.37857 0
M  V30 477 C 45.59 -1.52257 1.33506 0
M  V30 478 C 45.918 -1.94343 -0.078022 0
M  V30 479 O 45.173 -1.64958 -1.05297 0
M  V30 480 C 45.472 -2.79499 2.22745 0
M  V30 481 C 45.138 -2.56426 3.70886 0
M  V30 482 C 43.8 -2.49842 4.11257 0
M  V30 483 C 46.152 -2.36008 4.64704 0
M  V30 484 C 43.48 -2.20841 5.43549 0
M  V30 485 C 45.832 -2.0853 5.97242 0
M  V30 486 C 44.496 -2.00396 6.36709 0
M  V30 487 H 43.766 -0.557149 0.488534 0
M  V30 488 H 46.413 -0.879073 1.70131 0
M  V30 489 H 44.718 -3.48447 1.79142 0
M  V30 490 H 46.415 -3.37413 2.16688 0
M  V30 491 H 43.005 -2.62416 3.38874 0
M  V30 492 H 47.189 -2.40079 4.34368 0
M  V30 493 H 42.445 -2.13045 5.73081 0
M  V30 494 H 46.619 -1.91732 6.69486 0
M  V30 495 H 44.246 -1.77688 7.39142 0
M  V30 496 N 45.8211 -1.22559 -0.990812 0
M  V30 497 C 47.0981 -0.959875 -1.70428 0
M  V30 498 C 47.4781 0.524455 -2.04481 0
M  V30 499 O 46.8261 1.49302 -1.72977 0
M  V30 500 C 47.0361 -1.85955 -2.95333 0
M  V30 501 C 48.3841 -2.11687 -3.68068 0
M  V30 502 O 49.4081 -1.8342 -3.05345 0
M  V30 503 O 48.2671 -2.59572 -4.80921 0
M  V30 504 H 45.3611 -0.361154 -0.743974 0
M  V30 505 H 47.9071 -1.33554 -1.04697 0
M  V30 506 H 46.6791 -2.86346 -2.66687 0
M  V30 507 H 46.3021 -1.4856 -3.68803 0
M  V30 508 N 47.2992 1.18797 -1.03562 0
M  V30 509 C 48.5242 1.9314 -0.755764 0
M  V30 510 C 48.9492 1.7537 0.68022 0
M  V30 511 O 48.3072 1.06046 1.47051 0
M  V30 512 C 48.3552 3.42747 -1.12058 0
M  V30 513 O 47.4592 4.11683 -0.243124 0
M  V30 514 H 46.8002 0.602724 -0.278604 0
M  V30 515 H 49.3302 1.50678 -1.3841 0
M  V30 516 H 49.3402 3.93437 -1.08035 0
M  V30 517 H 48.0152 3.55002 -2.16672 0
M  V30 518 H 46.5922 3.71323 -0.342539 0
M  V30 519 N 48.7773 0.814389 1.34928 0
M  V30 520 C 50.1933 0.499084 1.51596 0
M  V30 521 C 50.3933 -0.978319 1.76157 0
M  V30 522 O 49.4493 -1.76309 1.80752 0
M  V30 523 C 50.7623 1.35121 2.68631 0
M  V30 524 C 52.3103 1.34746 2.82511 0
M  V30 525 C 52.7853 2.18388 4.0258 0
M  V30 526 N 54.2763 2.15966 4.09772 0
M  V30 527 C 55.0113 2.77437 5.01813 0
M  V30 528 N 54.5073 3.47866 5.99134 0
M  V30 529 N 56.3003 2.67037 4.94619 0
M  V30 530 H 48.4513 1.7711 1.17243 0
M  V30 531 H 50.7143 0.754256 0.574284 0
M  V30 532 H 50.4203 2.40001 2.57085 0
M  V30 533 H 50.2943 1.00991 3.63429 0
M  V30 534 H 52.6813 0.30648 2.93504 0
M  V30 535 H 52.7623 1.72869 1.88547 0
M  V30 536 H 52.4063 3.2253 3.92347 0
M  V30 537 H 52.3363 1.77621 4.9574 0
M  V30 538 H 54.8273 1.64729 3.40107 0
M  V30 539 H 55.1403 3.92038 6.65977 0
M  V30 540 H 53.4853 3.51972 5.99284 0
M  V30 541 H 56.6763 2.11597 4.17546 0
M  V30 542 H 56.8493 3.15232 5.66156 0
M  V30 543 N 50.2554 -1.46986 0.568584 0
M  V30 544 C 51.1854 -2.32946 -0.160753 0
M  V30 545 C 52.1664 -1.44487 -0.897631 0
M  V30 546 O 53.3514 -1.73327 -0.875867 0
M  V30 547 C 50.4814 -3.26494 -1.18403 0
M  V30 548 C 49.4354 -4.24282 -0.562895 0
M  V30 549 C 48.7614 -5.07236 -1.69163 0
M  V30 550 C 50.0614 -5.19989 0.490761 0
M  V30 551 H 51.7554 -2.94175 0.556916 0
M  V30 552 H 49.3014 -1.4146 0.26927 0
M  V30 553 H 51.2544 -3.85477 -1.70251 0
M  V30 554 H 49.9784 -2.63343 -1.93179 0
M  V30 555 H 48.6374 -3.66541 -0.0656164 0
M  V30 556 H 48.2854 -4.4048 -2.42871 0
M  V30 557 H 47.9854 -5.7345 -1.28174 0
M  V30 558 H 49.5094 -5.6908 -2.21314 0
M  V30 559 H 50.9234 -5.73271 0.0579047 0
M  V30 560 H 49.3204 -5.94469 0.820165 0
M  V30 561 H 50.3904 -4.64777 1.3824 0
M  V30 562 N 51.7335 -0.305618 -1.54608 0
M  V30 563 C 52.9825 0.303098 -1.9941 0
M  V30 564 C 53.2955 1.54648 -1.19764 0
M  V30 565 O 54.5015 2.23007 -1.54855 0
M  V30 566 C 52.9575 0.590588 -3.55021 0
M  V30 567 C 52.5655 -0.634719 -4.43481 0
M  V30 568 C 54.3095 1.16025 -4.08336 0
M  V30 569 C 52.2165 -0.320126 -5.90533 0
M  V30 570 H 51.1465 0.117031 -0.744862 0
M  V30 571 H 53.7975 -0.415045 -1.78745 0
M  V30 572 H 52.1795 1.36845 -3.71604 0
M  V30 573 H 53.3535 -1.41079 -4.38672 0
M  V30 574 H 51.6685 -1.12333 -4.00962 0
M  V30 575 H 54.2655 1.40994 -5.15776 0
M  V30 576 H 54.6085 2.10397 -3.5922 0
M  V30 577 H 55.1415 0.443985 -3.95315 0
M  V30 578 H 51.8805 -1.23254 -6.43808 0
M  V30 579 H 51.4005 0.418579 -5.98338 0
M  V30 580 H 53.0795 0.0766241 -6.46955 0
M  V30 581 N 53.2116 1.57565 -0.0334293 0
M  V30 582 C 54.4596 1.91598 0.642999 0
M  V30 583 C 54.7806 0.910847 1.7242 0
M  V30 584 O 54.0506 -0.0469931 1.95844 0
M  V30 585 H 52.6306 0.707228 0.240496 0
M  V30 586 H 55.2926 1.94726 -0.0822488 0
M  V30 587 H 54.3886 2.92336 1.09298 0
M  V30 588 N 54.6897 -0.239769 1.55765 0
M  V30 589 C 55.9177 -0.98417 1.81994 0
M  V30 590 C 56.3327 -1.7867 0.610124 0
M  V30 591 O 55.6897 -1.77571 -0.421271 0
M  V30 592 C 55.7407 -1.91635 3.06526 0
M  V30 593 O 55.4617 -1.14629 4.22838 0
M  V30 594 C 56.9627 -2.77616 3.45607 0
M  V30 595 H 54.1827 -0.28928 0.605441 0
M  V30 596 H 56.7267 -0.260499 2.02834 0
M  V30 597 H 54.8817 -2.5942 2.87715 0
M  V30 598 H 55.2957 -1.77745 4.93464 0
M  V30 599 H 56.7697 -3.38759 4.35828 0
M  V30 600 H 57.2467 -3.4909 2.6652 0
M  V30 601 H 57.8527 -2.15271 3.66795 0
M  V30 602 N 56.1678 -1.49265 -0.50573 0
M  V30 603 C 57.4158 -1.582 -1.25766 0
M  V30 604 C 57.7368 -0.268482 -1.93143 0
M  V30 605 O 57.0068 0.711833 -1.8251 0
M  V30 606 H 55.5868 -0.582873 -0.467191 0
M  V30 607 H 58.2488 -1.85865 -0.586525 0
M  V30 608 H 57.3448 -2.37563 -2.02412 0
M  V30 609 N 57.6459 0.756429 -1.3826 0
M  V30 610 C 58.9229 1.50584 -1.24835 0
M  V30 611 C 59.3029 2.10556 0.151485 0
M  V30 612 O 58.6509 1.96825 1.1607 0
M  V30 613 C 58.8609 2.57448 -2.3563 0
M  V30 614 C 60.2089 3.24429 -2.73917 0
M  V30 615 O 61.2329 2.67751 -2.34921 0
M  V30 616 O 60.0919 4.26937 -3.41156 0
M  V30 617 H 57.1859 0.667664 -0.48801 0
M  V30 618 H 59.7319 0.792083 -1.5008 0
M  V30 619 H 58.5039 2.11362 -3.29305 0
M  V30 620 H 58.1269 3.36408 -2.11933 0
M  V30 621 N 59.124 1.23083 0.984299 0
M  V30 622 C 60.054 1.03292 2.09411 0
M  V30 623 C 61.035 -0.048923 1.7003 0
M  V30 624 O 62.22 0.114967 1.93859 0
M  V30 625 C 59.35 0.619155 3.41736 0
M  V30 626 C 58.304 1.64791 3.95004 0
M  V30 627 C 57.63 1.0897 5.23478 0
M  V30 628 C 58.93 3.03999 4.24714 0
M  V30 629 H 60.624 1.96119 2.26225 0
M  V30 630 H 58.17 0.944344 1.08711 0
M  V30 631 H 60.123 0.467777 4.18796 0
M  V30 632 H 58.847 -0.344786 3.24775 0
M  V30 633 H 57.506 1.78721 3.20085 0
M  V30 634 H 57.154 0.11686 5.02864 0
M  V30 635 H 56.854 1.77704 5.60085 0
M  V30 636 H 58.378 0.950093 6.03163 0
M  V30 637 H 59.792 2.93393 4.92538 0
M  V30 638 H 58.189 3.69936 4.72512 0
M  V30 639 H 59.259 3.53285 3.32142 0
M  V30 640 N 60.6021 -1.18246 1.0419 0
M  V30 641 C 61.8491 -1.88257 0.746017 0
M  V30 642 C 62.1771 -1.80429 -0.726331 0
M  V30 643 O 61.4321 -1.2 -1.54591 0
M  V30 644 C 61.7311 -3.38082 1.15911 0
M  V30 645 C 61.3971 -3.66114 2.63195 0
M  V30 646 C 60.0591 -3.73474 3.03432 0
M  V30 647 C 62.4111 -3.78398 3.5842 0
M  V30 648 C 59.7391 -3.90599 4.37778 0
M  V30 649 C 62.0911 -3.97039 4.92487 0
M  V30 650 C 60.7551 -4.02635 5.32392 0
M  V30 651 H 60.0251 -0.688883 0.272987 0
M  V30 652 H 62.6721 -1.3995 1.30715 0
M  V30 653 H 60.9771 -3.88377 0.516806 0
M  V30 654 H 62.6741 -3.90596 0.907516 0
M  V30 655 H 59.2641 -3.61003 2.3103 0
M  V30 656 H 63.4481 -3.72042 3.28479 0
M  V30 657 H 58.7041 -3.93175 4.68213 0
M  V30 658 H 62.8781 -4.05486 5.66175 0
M  V30 659 H 60.5051 -4.15657 6.36501 0
M  V30 660 N 62.0802 -0.821533 -1.34494 0
M  V30 661 C 63.3262 -0.409552 -1.98622 0
M  V30 662 C 63.6592 1.0244 -1.64984 0
M  V30 663 O 62.9342 1.71325 -0.920758 0
M  V30 664 C 63.2172 -0.610458 -3.54888 0
M  V30 665 C 63.0702 -2.09043 -3.98273 0
M  V30 666 C 64.3892 -0.0455379 -4.40076 0
M  V30 667 H 61.5082 -0.15028 -0.721516 0
M  V30 668 H 64.1502 -1.03384 -1.59411 0
M  V30 669 H 62.3002 -0.079044 -3.8842 0
M  V30 670 H 63.9722 -2.68537 -3.75081 0
M  V30 671 H 62.2152 -2.58139 -3.48635 0
M  V30 672 H 62.8862 -2.18182 -5.07051 0
M  V30 673 H 65.3622 -0.499557 -4.1309 0
M  V30 674 H 64.2382 -0.215922 -5.48475 0
M  V30 675 H 64.4992 1.04939 -4.29465 0
M  V30 676 N 63.5583 1.46682 -0.576371 0
M  V30 677 C 64.9693 1.86112 -0.148091 0
M  V30 678 C 65.3203 1.48073 1.2872 0
M  V30 679 O 64.4453 0.892656 1.97131 0
M  V30 680 C 65.0403 3.37786 -0.261982 0
M  V30 681 C 63.5993 3.76235 0.111384 0
M  V30 682 C 62.7463 2.70713 -0.60083 0
M  V30 683 H 65.6973 1.37927 -0.78497 0
M  V30 684 H 65.7183 3.77007 0.514364 0
M  V30 685 H 65.2303 3.6544 -1.30671 0
M  V30 686 H 63.3313 3.54198 1.15649 0
M  V30 687 H 63.4443 4.78391 -0.26052 0
M  V30 688 H 61.8083 2.54666 -0.0417783 0
M  V30 689 H 62.5913 3.01208 -1.64708 0
M  V30 690 N 65.0364 0.313813 1.54444 0
M  V30 691 C 65.9664 -0.549454 2.26943 0
M  V30 692 C 66.9474 -1.12741 1.27372 0
M  V30 693 O 68.1324 -1.15436 1.56167 0
M  V30 694 C 65.2624 -1.71523 3.01989 0
M  V30 695 C 64.2164 -1.26703 4.08816 0
M  V30 696 C 63.5424 -2.51898 4.71647 0
M  V30 697 C 64.8424 -0.388962 5.2085 0
M  V30 698 H 66.5364 0.0552661 2.99349 0
M  V30 699 H 64.0824 0.0280207 1.43973 0
M  V30 700 H 66.0354 -2.32535 3.51433 0
M  V30 701 H 64.7594 -2.34639 2.27183 0
M  V30 702 H 63.4184 -0.679896 3.6024 0
M  V30 703 H 63.0664 -3.13356 3.93468 0
M  V30 704 H 62.7664 -2.22605 5.43802 0
M  V30 705 H 64.2904 -3.1369 5.23861 0
M  V30 706 H 65.7044 -0.905107 5.6611 0
M  V30 707 H 64.1014 -0.18924 5.99802 0
M  V30 708 H 65.1714 0.582699 4.81386 0
M  V30 709 N 66.5145 -1.57545 0.0417849 0
M  V30 710 C 67.4615 -2.10977 -0.935805 0
M  V30 711 C 68.4315 -1.01486 -1.31491 0
M  V30 712 O 69.6165 -1.2898 -1.40602 0
M  V30 713 C 66.7565 -2.65169 -2.2086 0
M  V30 714 C 65.8695 -3.88714 -1.88482 0
M  V30 715 C 65.0045 -4.31254 -3.1015 0
M  V30 716 C 64.0435 -5.47524 -2.7365 0
M  V30 717 N 63.1805 -5.85162 -3.87982 0
M  V30 718 H 68.0205 -2.94218 -0.473249 0
M  V30 719 H 65.5575 -1.45415 -0.221981 0
M  V30 720 H 67.5155 -2.94685 -2.95325 0
M  V30 721 H 66.1455 -1.8474 -2.64709 0
M  V30 722 H 65.1975 -3.65849 -1.04205 0
M  V30 723 H 66.5095 -4.73245 -1.57608 0
M  V30 724 H 65.6635 -4.62273 -3.92923 0
M  V30 725 H 64.4025 -3.45516 -3.44195 0
M  V30 726 H 63.4075 -5.16187 -1.89291 0
M  V30 727 H 64.6325 -6.34971 -2.40807 0
M  V30 728 H 62.5785 -5.02377 -4.21846 0
M  V30 729 H 62.4955 -6.64362 -3.60775 0
M  V30 730 H 63.7635 -6.20791 -4.71422 0
M  V30 731 N 67.9926 0.231505 -1.5589 0
M  V30 732 C 69.2406 0.955461 -1.78088 0
M  V30 733 C 69.5616 1.85262 -0.608533 0
M  V30 734 O 68.8316 1.92277 0.375035 0
M  V30 735 H 67.4116 0.355787 -0.656829 0
M  V30 736 H 70.0736 0.245751 -1.93344 0
M  V30 737 H 69.1696 1.56814 -2.69844 0
M  V30 738 N 69.4707 1.49531 0.497807 0
M  V30 739 C 70.4337 1.65916 1.58128 0
M  V30 740 C 71.4337 0.530825 1.51786 0
M  V30 741 O 72.6237 0.797342 1.54881 0
M  V30 742 C 69.7557 1.65951 2.9778 0
M  V30 743 H 70.9487 2.62556 1.44929 0
M  V30 744 H 68.5017 1.38611 0.722275 0
M  V30 745 H 69.2367 0.709065 3.16453 0
M  V30 746 H 69.0217 2.47897 3.03792 0
M  V30 747 H 70.5117 1.80673 3.76493 0
M  V30 748 N 70.9488 -0.749086 1.3866 0
M  V30 749 C 72.3648 -1.05276 1.19955 0
M  V30 750 C 72.5648 -2.01435 0.05134 0
M  V30 751 O 71.6208 -2.45232 -0.60147 0
M  V30 752 C 72.9338 -1.62853 2.52783 0
M  V30 753 C 74.4818 -1.75002 2.59506 0
M  V30 754 C 74.9568 -2.35991 3.92521 0
M  V30 755 N 76.4478 -2.43416 3.94085 0
M  V30 756 C 77.1828 -2.91511 4.9377 0
M  V30 757 N 76.6788 -3.39608 6.03853 0
M  V30 758 N 78.4718 -2.90592 4.81157 0
M  V30 759 H 70.6228 -0.111066 2.12109 0
M  V30 760 H 72.8858 -0.111901 0.941373 0
M  V30 761 H 72.5918 -0.99664 3.37283 0
M  V30 762 H 72.4658 -2.61854 2.715 0
M  V30 763 H 74.8528 -2.37317 1.75398 0
M  V30 764 H 74.9338 -0.74693 2.44652 0
M  V30 765 H 74.5778 -1.74308 4.77053 0
M  V30 766 H 74.5078 -3.3695 4.04688 0
M  V30 767 H 76.9988 -2.09405 3.14576 0
M  V30 768 H 77.3118 -3.74775 6.75843 0
M  V30 769 H 75.6568 -3.37653 6.07466 0
M  V30 770 H 78.8478 -2.52332 3.94267 0
M  V30 771 H 79.0208 -3.27762 5.58996 0
M  V30 772 N 72.4269 -1.23603 -0.977757 0
M  V30 773 C 73.7039 -0.977897 -1.69401 0
M  V30 774 C 74.0839 0.502738 -2.05026 0
M  V30 775 O 73.4319 1.47459 -1.74551 0
M  V30 776 C 73.6419 -1.89077 -2.93345 0
M  V30 777 C 74.9899 -2.15579 -3.65802 0
M  V30 778 O 76.0139 -1.86648 -3.03383 0
M  V30 779 O 74.8729 -2.64658 -4.78141 0
M  V30 780 H 71.9669 -0.369025 -0.740101 0
M  V30 781 H 74.5129 -1.34657 -1.03274 0
M  V30 782 H 73.2849 -2.89158 -2.63634 0
M  V30 783 H 72.9079 -1.52463 -3.67207 0
M  V30 784 N 73.905 1.17692 -1.04816 0
M  V30 785 C 75.153 1.87488 -0.754497 0
M  V30 786 C 75.474 1.81205 0.720407 0
M  V30 787 O 74.744 1.23544 1.52032 0
M  V30 788 H 73.324 0.694101 -0.276102 0
M  V30 789 H 75.986 1.42793 -1.32651 0
M  V30 790 H 75.082 2.93328 -1.06606 0
M  V30 791 N 75.3831 0.828654 1.34056 0
M  V30 792 C 76.3331 0.226828 2.26869 0
M  V30 793 C 77.3171 -0.612243 1.48796 0
M  V30 794 O 78.5091 -0.465884 1.70759 0
M  V30 795 C 75.6381 -0.605654 3.37915 0
M  V30 796 C 74.7241 0.244361 4.23395 0
M  V30 797 N 75.1151 1.31815 4.88322 0
M  V30 798 C 73.4131 0.0296616 4.4599 0
M  V30 799 C 74.1141 1.83895 5.51867 0
M  V30 800 N 73.0901 1.14196 5.3147 0
M  V30 801 H 76.8921 1.04811 2.74576 0
M  V30 802 H 74.4061 0.67205 1.47842 0
M  V30 803 H 76.4031 -1.05302 4.03382 0
M  V30 804 H 75.0631 -1.42504 2.91758 0
M  V30 805 H 76.0741 1.70099 4.8917 0
M  V30 806 H 72.7511 -0.757097 4.10578 0
M  V30 807 H 74.1411 2.7376 6.136 0
M  V30 808 N 76.8612 -1.46375 0.584142 0
M  V30 809 C 78.1382 -1.956 0.0033388 0
M  V30 810 C 78.5182 -1.52679 -1.45782 0
M  V30 811 O 77.8662 -0.77816 -2.14842 0
M  V30 812 C 78.0762 -3.48551 0.176891 0
M  V30 813 C 79.4242 -4.24576 0.0454609 0
M  V30 814 O 80.4482 -3.56043 0.105801 0
M  V30 815 O 79.3072 -5.46427 -0.0890376 0
M  V30 816 H 76.4012 -0.825547 -0.0490066 0
M  V30 817 H 78.9472 -1.56652 0.65256 0
M  V30 818 H 77.7192 -3.72683 1.1926 0
M  V30 819 H 77.3422 -3.94332 -0.508695 0
M  V30 820 N 78.3393 -0.321999 -1.54275 0
M  V30 821 C 79.5863 0.281044 -2.0054 0
M  V30 822 C 79.9143 1.52265 -1.21019 0
M  V30 823 O 79.1693 1.93687 -0.279982 0
M  V30 824 C 79.4683 0.661769 -3.5122 0
M  V30 825 C 79.1343 -0.480482 -4.48333 0
M  V30 826 C 77.7963 -0.794005 -4.74604 0
M  V30 827 C 80.1483 -1.24783 -5.06042 0
M  V30 828 C 77.4763 -1.87763 -5.55844 0
M  V30 829 C 79.8283 -2.32153 -5.88462 0
M  V30 830 C 78.4923 -2.64089 -6.13036 0
M  V30 831 H 77.7623 0.102841 -0.733829 0
M  V30 832 H 80.4093 -0.445453 -1.86247 0
M  V30 833 H 78.7143 1.46867 -3.63232 0
M  V30 834 H 80.4113 1.13989 -3.84457 0
M  V30 835 H 77.0013 -0.226039 -4.28004 0
M  V30 836 H 81.1853 -1.01887 -4.85729 0
M  V30 837 H 76.4413 -2.12954 -5.73115 0
M  V30 838 H 80.6153 -2.92057 -6.32199 0
M  V30 839 H 78.2423 -3.48185 -6.75775 0
M  V30 840 N 79.8174 1.5752 -0.0501392 0
M  V30 841 C 81.0664 1.91827 0.623328 0
M  V30 842 C 81.3794 0.930222 1.72065 0
M  V30 843 O 82.5854 1.1653 2.4522 0
M  V30 844 C 81.0414 3.40692 1.16003 0
M  V30 845 C 80.6494 4.479 0.0948811 0
M  V30 846 C 82.3934 3.84034 1.80881 0
M  V30 847 C 80.3004 5.87879 0.644411 0
M  V30 848 H 79.2304 0.715918 0.236596 0
M  V30 849 H 81.8814 1.83115 -0.118861 0
M  V30 850 H 80.2634 3.44405 1.9545 0
M  V30 851 H 81.4374 4.55775 -0.678675 0
M  V30 852 H 79.7524 4.13892 -0.45637 0
M  V30 853 H 82.3494 4.85984 2.22988 0
M  V30 854 H 82.6924 3.20225 2.6601 0
M  V30 855 H 83.2254 3.82833 1.0809 0
M  V30 856 H 79.9644 6.55282 -0.169229 0
M  V30 857 H 79.4844 5.83567 1.38598 0
M  V30 858 H 81.1634 6.37098 1.12763 0
M  V30 859 N 81.2955 -0.223234 1.56011 0
M  V30 860 C 82.2055 -1.29766 1.95443 0
M  V30 861 C 83.2215 -1.51373 0.858028 0
M  V30 862 O 84.3975 -1.64536 1.16146 0
M  V30 863 C 81.4625 -2.62772 2.26167 0
M  V30 864 C 80.5235 -2.49482 3.49367 0
M  V30 865 C 79.7565 -3.76145 3.78616 0
M  V30 866 O 79.9795 -4.79087 3.09568 0
M  V30 867 O 78.9135 -3.73358 4.72109 0
M  V30 868 H 82.7395 -0.99309 2.87004 0
M  V30 869 H 80.3245 -0.425958 1.43199 0
M  V30 870 H 82.2065 -3.41327 2.47131 0
M  V30 871 H 80.8815 -2.92913 1.37781 0
M  V30 872 H 79.7885 -1.69133 3.33684 0
M  V30 873 H 81.1215 -2.2428 4.38131 0
M  V30 874 N 82.7736 -1.49793 -0.48987 0
M  V30 875 C 84.0016 -1.63568 -1.26701 0
M  V30 876 C 84.4166 -0.311465 -1.86213 0
M  V30 877 O 83.7736 0.704416 -1.68357 0
M  V30 878 C 83.8246 -2.71284 -2.38929 0
M  V30 879 O 83.5456 -3.9857 -1.81861 0
M  V30 880 C 85.0466 -2.95864 -3.3012 0
M  V30 881 H 82.2666 -0.550342 -0.383881 0
M  V30 882 H 84.8106 -1.95898 -0.586864 0
M  V30 883 H 82.9656 -2.417 -3.02753 0
M  V30 884 H 83.3796 -4.57993 -2.55622 0
M  V30 885 H 84.8536 -3.74941 -4.05121 0
M  V30 886 H 85.3306 -2.06206 -3.87783 0
M  V30 887 H 85.9366 -3.26907 -2.72051 0
M  V30 888 N 84.2517 0.741722 -1.39055 0
M  V30 889 C 85.2147 1.83733 -1.37021 0
M  V30 890 C 86.2147 1.58542 -0.268534 0
M  V30 891 O 87.4047 1.66067 -0.526076 0
M  V30 892 C 84.5367 3.2141 -1.13617 0
M  V30 893 H 85.7297 1.86941 -2.34506 0
M  V30 894 H 83.2827 0.944676 -1.24521 0
M  V30 895 H 84.0177 3.23865 -0.167863 0
M  V30 896 H 83.8027 3.4109 -1.93391 0
M  V30 897 H 85.2927 4.01477 -1.14918 0
M  V30 898 N 85.7298 1.2412 0.971189 0
M  V30 899 C 86.9768 1.07881 1.71371 0
M  V30 900 C 87.3048 -0.382901 1.90694 0
M  V30 901 O 86.5598 -1.29945 1.46331 0
M  V30 902 C 86.8588 1.75983 3.11071 0
M  V30 903 C 86.5248 3.25909 3.11599 0
M  V30 904 C 85.1868 3.66813 3.11451 0
M  V30 905 C 87.5388 4.21771 3.062 0
M  V30 906 C 84.8668 5.02021 3.03631 0
M  V30 907 C 87.2188 5.56982 2.99923 0
M  V30 908 C 85.8828 5.97237 2.98102 0
M  V30 909 H 85.1528 0.394764 0.62709 0
M  V30 910 H 87.7998 1.54176 1.13587 0
M  V30 911 H 86.1048 1.22072 3.72298 0
M  V30 912 H 87.8018 1.60887 3.6731 0
M  V30 913 H 84.3918 2.93353 3.12477 0
M  V30 914 H 88.5758 3.91172 3.05447 0
M  V30 915 H 83.8318 5.32411 3.0058 0
M  V30 916 H 88.0058 6.30969 2.94704 0
M  V30 917 H 85.6328 7.01967 2.91798 0
M  V30 918 N 87.2079 -1.17134 1.05439 0
M  V30 919 C 88.1179 -2.24878 0.668365 0
M  V30 920 C 89.1339 -1.71186 -0.311687 0
M  V30 921 O 90.3099 -2.00738 -0.163161 0
M  V30 922 C 87.3749 -3.46662 0.051648 0
M  V30 923 C 86.4359 -4.15429 1.08246 0
M  V30 924 C 85.6689 -5.31399 0.495082 0
M  V30 925 O 85.8919 -5.66153 -0.694743 0
M  V30 926 O 84.8259 -5.89187 1.23056 0
M  V30 927 H 88.6519 -2.60189 1.56637 0
M  V30 928 H 86.2369 -1.24482 0.826104 0
M  V30 929 H 88.1189 -4.20394 -0.290966 0
M  V30 930 H 86.7939 -3.13142 -0.819971 0
M  V30 931 H 85.7009 -3.43704 1.47711 0
M  V30 932 H 87.0339 -4.52982 1.92532 0
M  V30 933 N 88.686 -0.835752 -1.33615 0
M  V30 934 C 89.634 -0.255238 -2.31195 0
M  V30 935 C 90.628 0.61107 -1.57995 0
M  V30 936 O 91.834 0.500979 -1.72888 0
M  V30 937 H 88.209 -0.0638085 -0.749288 0
M  V30 938 H 90.18 -1.09283 -2.77669 0
M  V30 939 C 88.929 0.55754 -3.43201 0
M  V30 940 H 88.252 -0.0997553 -3.99676 0
M  V30 941 H 89.692 0.929622 -4.13683 0
M  V30 942 C 88.151 1.73515 -2.88781 0
M  V30 943 O 88.681 2.83376 -2.84712 0
M  V30 944 N 86.887 1.55603 -2.4543 0
M  V30 945 H 86.434 0.662354 -2.48939 0
M  V30 946 H 86.392 2.34545 -2.09371 0
M  V30 947 N 90.1641 1.46063 -0.591896 0
M  V30 948 C 91.4121 2.01938 -0.0808391 0
M  V30 949 C 91.7331 1.46475 1.28725 0
M  V30 950 O 91.0031 0.652944 1.84698 0
M  V30 951 H 89.5831 0.746516 -0.0268938 0
M  V30 952 H 92.2451 1.79055 -0.769752 0
M  V30 953 H 91.3411 3.12094 -0.0187578 0
M  V30 954 N 91.6422 0.330177 1.54103 0
M  V30 955 C 92.6052 -0.520144 2.2322 0
M  V30 956 C 93.6052 -1.03828 1.22786 0
M  V30 957 O 94.7952 -0.929652 1.4732 0
M  V30 958 C 91.9272 -1.72317 2.94142 0
M  V30 959 H 93.1202 0.0841605 2.99782 0
M  V30 960 H 90.6732 0.0813433 1.56088 0
M  V30 961 H 91.4082 -2.36653 2.21734 0
M  V30 962 H 91.1932 -1.35898 3.67796 0
M  V30 963 H 92.6832 -2.3266 3.46784 0
M  V30 964 N 93.1203 -1.57491 0.0584922 0
M  V30 965 C 94.0833 -2.1085 -0.898617 0
M  V30 966 C 95.0833 -1.02964 -1.23511 0
M  V30 967 O 96.2733 -1.29007 -1.17059 0
M  V30 968 C 93.4053 -2.59881 -2.20623 0
M  V30 969 H 94.5983 -2.96715 -0.435936 0
M  V30 970 H 92.1513 -1.55141 -0.190023 0
M  V30 971 H 92.8863 -1.77431 -2.71457 0
M  V30 972 H 92.6713 -3.38727 -1.97501 0
M  V30 973 H 94.1613 -3.01285 -2.89166 0
M  V30 974 N 94.5984 0.214957 -1.56127 0
M  V30 975 C 95.8444 0.939762 -1.79712 0
M  V30 976 C 96.1774 1.83723 -0.629247 0
M  V30 977 O 95.4524 1.90925 0.371197 0
M  V30 978 C 95.7354 1.77306 -3.13424 0
M  V30 979 C 95.5884 0.90164 -4.40671 0
M  V30 980 C 96.9074 2.74956 -3.43638 0
M  V30 981 H 94.0264 0.340214 -0.653776 0
M  V30 982 H 96.6684 0.20824 -1.88855 0
M  V30 983 H 94.8184 2.39673 -3.0576 0
M  V30 984 H 96.4904 0.294206 -4.60361 0
M  V30 985 H 94.7334 0.207368 -4.33304 0
M  V30 986 H 95.4044 1.51923 -5.30682 0
M  V30 987 H 97.8804 2.22724 -3.51473 0
M  V30 988 H 96.7564 3.30358 -4.38355 0
M  V30 989 H 97.0174 3.53023 -2.66134 0
M  V30 990 N 96.0765 1.50051 0.48192 0
M  V30 991 C 97.3045 1.64237 1.25832 0
M  V30 992 C 97.7195 0.321336 1.86045 0
M  V30 993 O 97.0765 -0.695478 1.68729 0
M  V30 994 C 97.1275 2.72548 2.37487 0
M  V30 995 O 96.8485 3.99529 1.79745 0
M  V30 996 C 98.3495 2.9761 3.28547 0
M  V30 997 H 95.5695 0.55237 0.380957 0
M  V30 998 H 98.1135 1.96207 0.576467 0
M  V30 999 H 96.2685 2.43303 3.01467 0
M  V30 1000 H 96.6825 4.59342 2.5319 0
M  V30 1001 H 98.1565 3.77084 4.03127 0
M  V30 1002 H 98.6335 2.0826 3.86684 0
M  V30 1003 H 99.2395 3.28345 2.70314 0
M  V30 1004 N 97.5546 -0.734337 1.39446 0
M  V30 1005 C 98.4846 -1.86155 1.40955 0
M  V30 1006 C 99.4656 -1.67898 0.272827 0
M  V30 1007 O 100.651 -1.88207 0.478743 0
M  V30 1008 C 97.7806 -3.23912 1.25294 0
M  V30 1009 C 96.7346 -3.56808 2.36373 0
M  V30 1010 C 96.0606 -4.93508 2.058 0
M  V30 1011 C 97.3606 -3.59713 3.78687 0
M  V30 1012 H 99.0546 -1.8515 2.35287 0
M  V30 1013 H 96.6006 -0.889367 1.13253 0
M  V30 1014 H 98.5536 -4.02443 1.2497 0
M  V30 1015 H 97.2776 -3.25446 0.274308 0
M  V30 1016 H 95.9366 -2.80606 2.35914 0
M  V30 1017 H 95.5846 -4.91623 1.06374 0
M  V30 1018 H 95.2846 -5.16486 2.80208 0
M  V30 1019 H 96.8086 -5.74396 2.07128 0
M  V30 1020 H 98.2226 -4.2832 3.81071 0
M  V30 1021 H 96.6196 -3.94209 4.52459 0
M  V30 1022 H 97.6896 -2.59504 4.09617 0
M  V30 1023 N 99.0327 -1.24633 -0.964593 0
M  V30 1024 C 100.258 -1.11596 -1.74818 0
M  V30 1025 C 100.683 0.32723 -1.85232 0
M  V30 1026 O 100.041 1.23695 -1.32549 0
M  V30 1027 C 100.089 -1.76397 -3.1451 0
M  V30 1028 O 99.1927 -1.03685 -3.99153 0
M  V30 1029 H 98.5337 -0.390196 -0.537255 0
M  V30 1030 H 101.064 -1.65002 -1.20977 0
M  V30 1031 H 101.074 -1.8228 -3.65018 0
M  V30 1032 H 99.7487 -2.81401 -3.06246 0
M  V30 1033 H 98.3257 -1.05611 -3.57632 0
M  V30 1034 N 100.511 1.16574 -1.06058 0
M  V30 1035 C 101.421 2.2452 -0.680282 0
M  V30 1036 C 102.437 1.71348 0.302604 0
M  V30 1037 O 103.613 2.00822 0.152513 0
M  V30 1038 C 100.678 3.46629 -0.0700315 0
M  V30 1039 C 99.7388 4.14849 -1.10448 0
M  V30 1040 C 98.9718 5.31129 -0.523256 0
M  V30 1041 O 99.1948 5.66514 0.664709 0
M  V30 1042 O 98.1288 5.88526 -1.26179 0
M  V30 1043 H 101.955 2.59355 -1.58015 0
M  V30 1044 H 99.5398 1.24043 -0.832694 0
M  V30 1045 H 101.422 4.20543 0.268667 0
M  V30 1046 H 100.097 3.13573 0.803353 0
M  V30 1047 H 99.0038 3.42916 -1.49532 0
M  V30 1048 H 100.337 4.51954 -1.94931 0
M  V30 1049 N 101.989 0.842826 1.3317 0
M  V30 1050 C 102.936 0.276885 2.29133 0
M  V30 1051 C 103.906 -0.609527 1.54512 0
M  V30 1052 O 105.091 -0.546955 1.82792 0
M  V30 1053 C 102.231 -0.538707 3.40869 0
M  V30 1054 C 101.344 0.372169 4.30394 0
M  V30 1055 C 100.479 -0.454908 5.29249 0
M  V30 1056 C 99.5179 0.45411 6.10413 0
M  V30 1057 N 98.6549 -0.335075 7.013 0
M  V30 1058 H 103.495 1.10052 2.76934 0
M  V30 1059 H 101.032 0.554161 1.36262 0
M  V30 1060 H 102.99 -1.02709 4.0436 0
M  V30 1061 H 101.62 -1.32727 2.9425 0
M  V30 1062 H 100.672 0.97888 3.6759 0
M  V30 1063 H 101.984 1.0703 4.87182 0
M  V30 1064 H 101.138 -1.00695 5.98285 0
M  V30 1065 H 99.8769 -1.18646 4.73048 0
M  V30 1066 H 98.8819 1.01813 5.40291 0
M  V30 1067 H 100.107 1.18409 6.68697 0
M  V30 1068 H 98.0529 -1.04994 6.47543 0
M  V30 1069 H 97.9699 0.304262 7.55387 0
M  V30 1070 H 99.2379 -0.869224 7.74638 0
M  V30 1071 N 103.467 -1.45747 0.599634 0
M  V30 1072 C 104.377 -2.34262 -0.125888 0
M  V30 1073 C 105.393 -1.50768 -0.868625 0
M  V30 1074 O 106.569 -1.83592 -0.828003 0
M  V30 1075 C 103.634 -3.28252 -1.11587 0
M  V30 1076 C 102.695 -4.27651 -0.375956 0
M  V30 1077 C 101.928 -5.1715 -1.31877 0
M  V30 1078 O 102.151 -5.09916 -2.55621 0
M  V30 1079 O 101.085 -5.96286 -0.820157 0
M  V30 1080 H 104.911 -2.97688 0.601315 0
M  V30 1081 H 102.496 -1.44999 0.359934 0
M  V30 1082 H 104.378 -3.86191 -1.68626 0
M  V30 1083 H 103.053 -2.67401 -1.82424 0
M  V30 1084 H 101.96 -3.7335 0.236698 0
M  V30 1085 H 103.293 -4.91334 0.29177 0
M  V30 1086 N 104.945 -0.338344 -1.53925 0
M  V30 1087 C 106.191 0.260143 -2.01125 0
M  V30 1088 C 106.524 1.50617 -1.22589 0
M  V30 1089 O 105.799 1.91979 -0.312113 0
M  V30 1090 C 106.082 0.579499 -3.55407 0
M  V30 1091 C 105.935 -0.678264 -4.44657 0
M  V30 1092 C 107.254 1.39122 -4.17532 0
M  V30 1093 H 104.373 0.0930772 -0.731099 0
M  V30 1094 H 107.015 -0.457852 -1.84401 0
M  V30 1095 H 105.165 1.19118 -3.69788 0
M  V30 1096 H 106.837 -1.31631 -4.42121 0
M  V30 1097 H 105.08 -1.3042 -4.13731 0
M  V30 1098 H 105.751 -0.410143 -5.50474 0
M  V30 1099 H 108.227 0.874035 -4.06817 0
M  V30 1100 H 107.103 1.58342 -5.25565 0
M  V30 1101 H 107.364 2.39178 -3.71815 0
M  V30 1102 N 106.423 1.57458 -0.0668435 0
M  V30 1103 C 107.648 1.9804 0.616027 0
M  V30 1104 C 108.073 0.944771 1.62652 0
M  V30 1105 O 107.431 -0.0902094 1.81075 0
M  V30 1106 C 107.479 3.37665 1.26549 0
M  V30 1107 O 106.583 3.36701 2.38131 0
M  V30 1108 H 105.924 0.644719 0.158849 0
M  V30 1109 H 108.454 2.04121 -0.139891 0
M  V30 1110 H 108.464 3.7474 1.6135 0
M  V30 1111 H 107.139 4.12573 0.525016 0
M  V30 1112 H 105.716 3.1139 2.0516 0
M  V30 1113 N 107.901 -0.206675 1.56239 0
M  V30 1114 C 108.849 -1.27571 1.94495 0
M  V30 1115 C 109.843 -1.47737 0.828862 0
M  V30 1116 O 111.049 -1.48735 1.0138 0
M  V30 1117 H 107.424 -0.428029 0.6183 0
M  V30 1118 H 109.395 -0.925961 2.8367 0
M  V30 1119 C 108.144 -2.61568 2.29079 0
M  V30 1120 H 107.467 -2.46863 3.14482 0
M  V30 1121 H 108.907 -3.35144 2.5972 0
M  V30 1122 C 107.366 -3.17695 1.12123 0
M  V30 1123 O 107.896 -3.99801 0.390153 0
M  V30 1124 N 106.102 -2.76276 0.901097 0
M  V30 1125 H 105.649 -2.09613 1.49733 0
M  V30 1126 H 105.607 -3.1417 0.120319 0
M  V30 1127 N 109.379 -1.50304 -0.473955 0
M  V30 1128 C 110.329 -1.65347 -1.56985 0
M  V30 1129 C 111.313 -0.508176 -1.52664 0
M  V30 1130 O 112.505 -0.762446 -1.59737 0
M  V30 1131 C 109.634 -1.74832 -2.95447 0
M  V30 1132 C 108.72 -2.95028 -3.04662 0
M  V30 1133 N 109.111 -4.18747 -2.83698 0
M  V30 1134 C 107.409 -2.93527 -3.35795 0
M  V30 1135 C 108.11 -4.99687 -2.97805 0
M  V30 1136 N 107.086 -4.33585 -3.2788 0
M  V30 1137 H 110.888 -2.58698 -1.39472 0
M  V30 1138 H 108.402 -1.47449 -0.680629 0
M  V30 1139 H 110.399 -1.83712 -3.7424 0
M  V30 1140 H 109.059 -0.826376 -3.14008 0
M  V30 1141 H 110.07 -4.48291 -2.59337 0
M  V30 1142 H 106.747 -2.10821 -3.60362 0
M  V30 1143 H 108.137 -6.08057 -2.85861 0
M  V30 1144 N 110.857 0.726932 -1.39834 0
M  V30 1145 C 112.268 1.30558 -1.3346 0
M  V30 1146 C 112.619 1.962 -0.00273003 0
M  V30 1147 O 111.744 1.96826 0.899371 0
M  V30 1148 C 112.339 2.37404 -2.41713 0
M  V30 1149 C 110.898 2.90921 -2.38835 0
M  V30 1150 C 110.045 1.64578 -2.2318 0
M  V30 1151 H 112.996 0.523862 -1.49804 0
M  V30 1152 H 113.017 3.17984 -2.08966 0
M  V30 1153 H 112.529 1.89599 -3.38635 0
M  V30 1154 H 110.63 3.42985 -1.45575 0
M  V30 1155 H 110.743 3.43487 -3.33997 0
M  V30 1156 H 109.107 1.89219 -1.70494 0
M  V30 1157 H 109.89 1.18814 -3.22084 0
M  V30 1158 N 112.336 1.25143 0.95797 0
M  V30 1159 C 113.566 1.12261 1.73439 0
M  V30 1160 C 113.974 -0.326715 1.86358 0
M  V30 1161 O 113.317 -1.2367 1.35836 0
M  V30 1162 C 113.379 1.69966 3.16784 0
M  V30 1163 C 113.043 3.18936 3.27305 0
M  V30 1164 C 114.04 4.15968 3.11877 0
M  V30 1165 C 111.725 3.59083 3.51234 0
M  V30 1166 C 113.719 5.51126 3.20217 0
M  V30 1167 C 111.406 4.9438 3.5921 0
M  V30 1168 C 112.404 5.90211 3.43716 0
M  V30 1169 O 112.092 7.23046 3.51368 0
M  V30 1170 H 111.824 0.392476 0.550399 0
M  V30 1171 H 114.378 1.65927 1.21068 0
M  V30 1172 H 112.608 1.10744 3.70503 0
M  V30 1173 H 114.297 1.52232 3.76272 0
M  V30 1174 H 115.063 3.86292 2.93264 0
M  V30 1175 H 110.942 2.84989 3.62356 0
M  V30 1176 H 114.486 6.25905 3.0804 0
M  V30 1177 H 110.383 5.23723 3.77339 0
M  V30 1178 H 111.151 7.31097 3.6802 0
M  V30 1179 N 113.814 -1.1601 1.06675 0
M  V30 1180 C 115.063 -1.85973 0.780818 0
M  V30 1181 C 115.376 -1.82819 -0.695444 0
M  V30 1182 O 116.582 -2.484 -1.09589 0
M  V30 1183 C 115.038 -3.33757 1.34665 0
M  V30 1184 C 114.646 -3.45374 2.85343 0
M  V30 1185 C 116.39 -4.0895 1.13843 0
M  V30 1186 C 114.297 -4.87266 3.35151 0
M  V30 1187 H 113.227 -0.696661 0.288407 0
M  V30 1188 H 115.878 -1.30903 1.28595 0
M  V30 1189 H 114.26 -3.88456 0.769274 0
M  V30 1190 H 115.434 -3.00816 3.49065 0
M  V30 1191 H 113.749 -2.83619 3.04876 0
M  V30 1192 H 116.346 -5.13654 1.4854 0
M  V30 1193 H 116.689 -4.16229 0.0770282 0
M  V30 1194 H 117.222 -3.605 1.68179 0
M  V30 1195 H 113.961 -4.85168 4.40786 0
M  V30 1196 H 113.481 -5.32433 2.76179 0
M  V30 1197 H 115.16 -5.56097 3.30704 0
M  V30 1198 N 115.292 -0.849877 -1.32721 0
M  V30 1199 C 116.222 -0.306308 -2.31482 0
M  V30 1200 C 117.203 0.591952 -1.59468 0
M  V30 1201 O 118.388 0.513199 -1.87296 0
M  V30 1202 C 115.518 0.510204 -3.43532 0
M  V30 1203 C 114.472 -0.293209 -4.26994 0
M  V30 1204 C 113.798 0.647743 -5.30762 0
M  V30 1205 C 115.098 -1.51634 -4.99804 0
M  V30 1206 H 116.792 -1.13153 -2.77195 0
M  V30 1207 H 114.338 -0.545553 -1.33266 0
M  V30 1208 H 116.291 0.900856 -4.11658 0
M  V30 1209 H 115.015 1.36874 -2.96535 0
M  V30 1210 H 113.674 -0.665555 -3.60508 0
M  V30 1211 H 113.322 1.50299 -4.8002 0
M  V30 1212 H 113.022 0.11422 -5.87489 0
M  V30 1213 H 114.546 1.03567 -6.01753 0
M  V30 1214 H 115.96 -1.19824 -5.60638 0
M  V30 1215 H 114.357 -1.98745 -5.66234 0
M  V30 1216 H 115.427 -2.28018 -4.27943 0
M  V30 1217 N 116.77 1.45427 -0.607355 0
M  V30 1218 C 118.016 2.0254 -0.102607 0
M  V30 1219 C 118.349 1.47478 1.26348 0
M  V30 1220 O 117.624 0.64939 1.83339 0
M  V30 1221 C 117.907 3.60044 -0.0634347 0
M  V30 1222 C 117.76 4.2544 -1.46017 0
M  V30 1223 C 119.079 4.35646 0.624514 0
M  V30 1224 H 116.198 0.73598 -0.0387607 0
M  V30 1225 H 118.84 1.73284 -0.779282 0
M  V30 1226 H 116.99 3.85101 0.512808 0
M  V30 1227 H 118.662 4.11569 -2.08347 0
M  V30 1228 H 116.905 3.83849 -2.02094 0
M  V30 1229 H 117.576 5.34342 -1.385 0
M  V30 1230 H 120.052 4.15882 0.134723 0
M  V30 1231 H 118.928 5.45376 0.621028 0
M  V30 1232 H 119.189 4.08501 1.69055 0
M  V30 1233 N 118.248 0.346503 1.53744 0
M  V30 1234 C 119.525 -0.304532 1.93215 0
M  V30 1235 C 119.905 -1.67993 1.27834 0
M  V30 1236 O 119.253 -2.24411 0.430352 0
M  V30 1237 C 119.463 -0.373852 3.46992 0
M  V30 1238 C 120.811 -0.62329 4.2 0
M  V30 1239 O 121.835 -0.455847 3.53271 0
M  V30 1240 O 120.694 -0.947879 5.38217 0
M  V30 1241 H 117.788 -0.178318 0.807547 0
M  V30 1242 H 120.334 0.397895 1.64969 0
M  V30 1243 H 119.106 0.591224 3.86808 0
M  V30 1244 H 118.729 -1.12294 3.81413 0
M  V30 1245 N 119.726 -1.57421 0.075193 0
M  V30 1246 C 121.003 -1.85029 -0.634329 0
M  V30 1247 C 121.383 -0.968305 -1.87582 0
M  V30 1248 O 120.731 -0.0354749 -2.28472 0
M  V30 1249 C 120.941 -3.35286 -0.968742 0
M  V30 1250 C 122.289 -4.02875 -1.34077 0
M  V30 1251 O 123.313 -3.40051 -1.06037 0
M  V30 1252 O 122.172 -5.13691 -1.86506 0
M  V30 1253 H 119.266 -0.7645 -0.315387 0
M  V30 1254 H 121.812 -1.69366 0.106382 0
M  V30 1255 H 120.584 -3.91203 -0.0871376 0
M  V30 1256 H 120.207 -3.56223 -1.7661 0
M  V30 1257 N 121.204 0.198386 -1.56346 0
M  V30 1258 C 122.45 0.920648 -1.80698 0
M  V30 1259 C 122.783 1.83045 -0.648697 0
M  V30 1260 O 122.058 1.91308 0.350925 0
M  V30 1261 C 122.341 1.73971 -3.15287 0
M  V30 1262 C 122.194 0.85485 -4.41602 0
M  V30 1263 C 123.513 2.71296 -3.46535 0
M  V30 1264 H 120.632 0.333261 -0.657348 0
M  V30 1265 H 123.274 0.188198 -1.89066 0
M  V30 1266 H 121.424 2.36416 -3.08285 0
M  V30 1267 H 123.096 0.245362 -4.60647 0
M  V30 1268 H 121.339 0.161398 -4.335 0
M  V30 1269 H 122.01 1.46286 -5.32264 0
M  V30 1270 H 124.486 2.18983 -3.53816 0
M  V30 1271 H 123.362 3.2569 -4.41834 0
M  V30 1272 H 123.623 3.5018 -2.69864 0
M  V30 1273 N 122.682 1.50554 0.465978 0
M  V30 1274 C 123.612 1.72722 1.57128 0
M  V30 1275 C 124.593 0.576294 1.6004 0
M  V30 1276 O 125.778 0.81598 1.76225 0
M  V30 1277 C 122.908 1.82605 2.95419 0
M  V30 1278 C 121.862 2.97835 3.07373 0
M  V30 1279 C 121.188 2.92867 4.47363 0
M  V30 1280 C 122.488 4.38265 2.84114 0
M  V30 1281 H 124.182 2.65267 1.38829 0
M  V30 1282 H 121.728 1.2765 0.666441 0
M  V30 1283 H 123.681 1.96698 3.72677 0
M  V30 1284 H 122.405 0.866858 3.14886 0
M  V30 1285 H 121.064 2.83401 2.3255 0
M  V30 1286 H 120.712 1.94783 4.63755 0
M  V30 1287 H 120.412 3.70227 4.56296 0
M  V30 1288 H 121.936 3.09015 5.26633 0
M  V30 1289 H 123.35 4.53198 3.51118 0
M  V30 1290 H 121.747 5.17115 3.04487 0
M  V30 1291 H 122.817 4.50281 1.7993 0
M  V30 1292 N 124.16 -0.719506 1.40217 0
M  V30 1293 C 125.388 -1.50864 1.41589 0
M  V30 1294 C 125.803 -1.88794 0.0145275 0
M  V30 1295 O 125.16 -1.55174 -0.960594 0
M  V30 1296 C 125.211 -2.78646 2.30302 0
M  V30 1297 O 124.932 -2.42321 3.64983 0
M  V30 1298 C 126.433 -3.72569 2.40224 0
M  V30 1299 H 123.653 -0.465709 0.48307 0
M  V30 1300 H 126.197 -0.88785 1.84221 0
M  V30 1301 H 124.352 -3.37019 1.91042 0
M  V30 1302 H 124.766 -3.24514 4.12057 0
M  V30 1303 H 126.24 -4.5908 3.06512 0
M  V30 1304 H 126.717 -4.15403 1.42608 0
M  V30 1305 H 127.323 -3.20109 2.80019 0
M  V30 1306 N 125.638 -1.25649 -0.95132 0
M  V30 1307 C 126.601 -1.06399 -2.03007 0
M  V30 1308 C 127.601 -0.0156794 -1.60792 0
M  V30 1309 O 128.791 -0.25817 -1.72276 0
M  V30 1310 C 125.923 -0.616184 -3.35285 0
M  V30 1311 H 127.116 -2.02164 -2.21517 0
M  V30 1312 H 124.669 -1.08103 -1.12887 0
M  V30 1313 H 125.404 0.343917 -3.22471 0
M  V30 1314 H 125.189 -1.37301 -3.67275 0
M  V30 1315 H 126.679 -0.503032 -4.14559 0
M  V30 1316 N 127.117 1.15442 -1.07289 0
M  V30 1317 C 128.364 1.86213 -0.795668 0
M  V30 1318 C 128.692 1.82291 0.678238 0
M  V30 1319 O 127.947 1.24057 1.51355 0
M  V30 1320 C 128.246 3.3489 -1.24834 0
M  V30 1321 C 127.912 3.59007 -2.72809 0
M  V30 1322 C 126.574 3.65298 -3.13227 0
M  V30 1323 C 128.926 3.68762 -3.68326 0
M  V30 1324 C 126.254 3.78854 -4.4798 0
M  V30 1325 C 128.606 3.83842 -5.0284 0
M  V30 1326 C 127.27 3.88378 -5.4288 0
M  V30 1327 H 126.54 0.681403 -0.291155 0
M  V30 1328 H 129.187 1.36435 -1.34379 0
M  V30 1329 H 127.492 3.8687 -0.619595 0
M  V30 1330 H 129.189 3.88052 -1.01076 0
M  V30 1331 H 125.779 3.5475 -2.40521 0
M  V30 1332 H 129.963 3.63202 -3.38227 0
M  V30 1333 H 125.219 3.80623 -4.78472 0
M  V30 1334 H 129.393 3.90332 -5.76727 0
M  V30 1335 H 127.02 3.98635 -6.47298 0
M  V30 1336 N 128.595 0.856903 1.32268 0
M  V30 1337 C 129.527 0.260412 2.27716 0
M  V30 1338 C 130.54 -0.569137 1.52528 0
M  V30 1339 O 131.729 -0.39326 1.74114 0
M  V30 1340 C 128.829 -0.650477 3.32599 0
M  V30 1341 C 128.002 0.14372 4.37164 0
M  V30 1342 C 127.061 -0.69328 5.21613 0
M  V30 1343 O 126.087 -0.12599 5.69061 0
M  V30 1344 N 127.289 -2.00761 5.44679 0
M  V30 1345 H 130.054 1.08059 2.79541 0
M  V30 1346 H 127.615 0.717103 1.45152 0
M  V30 1347 H 129.607 -1.21581 3.86005 0
M  V30 1348 H 128.177 -1.37133 2.80915 0
M  V30 1349 H 127.397 0.890486 3.8401 0
M  V30 1350 H 128.685 0.68915 5.04111 0
M  V30 1351 H 128.083 -2.49181 5.07863 0
M  V30 1352 H 126.64 -2.52103 6.01072 0
M  V30 1353 N 130.073 -1.45103 0.615059 0
M  V30 1354 C 131.298 -2.07064 0.117988 0
M  V30 1355 C 131.723 -1.4554 -1.19163 0
M  V30 1356 O 131.081 -0.550855 -1.72729 0
M  V30 1357 C 131.129 -3.606 -0.000288387 0
M  V30 1358 O 130.233 -3.98847 -1.04856 0
M  V30 1359 H 129.574 -0.659467 0.0774581 0
M  V30 1360 H 132.104 -1.86236 0.847186 0
M  V30 1361 H 132.114 -4.07529 -0.196091 0
M  V30 1362 H 130.789 -4.04765 0.955932 0
M  V30 1363 H 129.366 -3.63577 -0.828619 0
M  V30 1364 N 131.551 -0.354651 -1.53558 0
M  V30 1365 C 132.481 0.489091 -2.2832 0
M  V30 1366 C 133.462 1.09324 -1.30316 0
M  V30 1367 O 134.647 1.11255 -1.59173 0
M  V30 1368 C 131.777 1.63456 -3.0643 0
M  V30 1369 C 130.731 1.1582 -4.12031 0
M  V30 1370 C 130.057 2.39305 -4.7816 0
M  V30 1371 C 131.357 0.250731 -5.21698 0
M  V30 1372 H 133.051 -0.134614 -2.99097 0
M  V30 1373 H 130.597 -0.0661826 -1.43848 0
M  V30 1374 H 132.55 2.23136 -3.57475 0
M  V30 1375 H 131.274 2.28533 -2.33325 0
M  V30 1376 H 129.933 0.584146 -3.61916 0
M  V30 1377 H 129.581 3.02814 -4.01637 0
M  V30 1378 H 129.281 2.08109 -5.49513 0
M  V30 1379 H 130.805 2.99691 -5.31994 0
M  V30 1380 H 132.219 0.754695 -5.68311 0
M  V30 1381 H 130.616 0.0301468 -6.00092 0
M  V30 1382 H 131.686 -0.710125 -4.79672 0
M  V30 1383 N 133.029 1.57378 -0.0835403 0
M  V30 1384 C 133.992 2.12252 0.864959 0
M  V30 1385 C 134.992 1.04916 1.21858 0
M  V30 1386 O 136.182 1.30853 1.14991 0
M  V30 1387 C 133.314 2.63358 2.16461 0
M  V30 1388 H 134.507 2.97371 0.388676 0
M  V30 1389 H 132.06 1.55423 0.165317 0
M  V30 1390 H 132.795 1.81727 2.686 0
M  V30 1391 H 132.58 3.41826 1.92087 0
M  V30 1392 H 134.07 3.05847 2.84337 0
M  V30 1393 N 134.507 -0.190092 1.56449 0
M  V30 1394 C 135.732 -0.929864 1.85387 0
M  V30 1395 C 136.157 -1.7585 0.667704 0
M  V30 1396 O 135.515 -1.77198 -0.383459 0
M  V30 1397 C 135.563 -1.79773 3.12593 0
M  V30 1398 O 134.667 -2.89713 2.93496 0
M  V30 1399 H 134.008 -0.261574 0.610307 0
M  V30 1400 H 136.538 -0.193896 2.03679 0
M  V30 1401 H 136.548 -2.20139 3.43515 0
M  V30 1402 H 135.223 -1.18892 3.98544 0
M  V30 1403 H 133.8 -2.53065 2.73884 0
M  V30 1404 N 135.985 -1.50799 -0.457987 0
M  V30 1405 C 137.215 -1.65977 -1.23025 0
M  V30 1406 C 137.623 -0.347918 -1.85974 0
M  V30 1407 O 136.966 0.68148 -1.70592 0
M  V30 1408 C 137.028 -2.70309 -2.3701 0
M  V30 1409 C 136.692 -4.135 -1.94594 0
M  V30 1410 C 137.689 -4.98949 -1.46101 0
M  V30 1411 C 135.374 -4.5949 -2.02915 0
M  V30 1412 C 137.368 -6.28442 -1.06489 0
M  V30 1413 C 135.055 -5.88984 -1.62914 0
M  V30 1414 C 136.053 -6.73286 -1.1478 0
M  V30 1415 O 135.741 -8.00362 -0.75339 0
M  V30 1416 H 135.473 -0.56064 -0.377702 0
M  V30 1417 H 138.027 -1.97857 -0.551537 0
M  V30 1418 H 136.257 -2.337 -3.08093 0
M  V30 1419 H 137.946 -2.74574 -2.98938 0
M  V30 1420 H 138.712 -4.6463 -1.39084 0
M  V30 1421 H 134.591 -3.94009 -2.39328 0
M  V30 1422 H 138.135 -6.94194 -0.688488 0
M  V30 1423 H 134.032 -6.22822 -1.69595 0
M  V30 1424 H 134.8 -8.13744 -0.88108 0
M  V30 1425 N 137.463 0.71206 -1.40597 0
M  V30 1426 C 138.693 1.49894 -1.42181 0
M  V30 1427 C 139.101 1.89189 -0.0208078 0
M  V30 1428 O 138.444 1.56223 0.966436 0
M  V30 1429 C 138.506 2.80215 -2.25211 0
M  V30 1430 C 138.17 2.63221 -3.73582 0
M  V30 1431 C 139.167 2.30249 -4.66135 0
M  V30 1432 C 136.852 2.79376 -4.17438 0
M  V30 1433 C 138.846 2.13645 -6.00529 0
M  V30 1434 C 136.533 2.6239 -5.51901 0
M  V30 1435 C 137.531 2.29573 -6.43262 0
M  V30 1436 O 137.219 2.12719 -7.75246 0
M  V30 1437 H 136.951 0.469031 -0.486812 0
M  V30 1438 H 139.505 0.88564 -1.85326 0
M  V30 1439 H 137.735 3.4389 -1.76852 0
M  V30 1440 H 139.424 3.41947 -2.18694 0
M  V30 1441 H 140.19 2.17398 -4.33547 0
M  V30 1442 H 136.069 3.03906 -3.46644 0
M  V30 1443 H 139.613 1.87953 -6.71803 0
M  V30 1444 H 135.51 2.74826 -5.84073 0
M  V30 1445 H 136.278 2.27611 -7.86216 0
M  V30 1446 N 138.941 1.26152 0.944643 0
M  V30 1447 C 139.871 1.09902 2.06019 0
M  V30 1448 C 140.852 0.00519538 1.70099 0
M  V30 1449 O 142.037 0.176583 1.93396 0
M  V30 1450 C 139.167 0.727562 3.39594 0
M  V30 1451 C 138.121 1.77274 3.89561 0
M  V30 1452 C 137.447 1.25569 5.19747 0
M  V30 1453 C 138.747 3.17357 4.14827 0
M  V30 1454 H 140.441 2.03217 2.19871 0
M  V30 1455 H 137.987 0.978452 1.05652 0
M  V30 1456 H 139.94 0.600777 4.17095 0
M  V30 1457 H 138.664 -0.241287 3.25707 0
M  V30 1458 H 137.323 1.88814 3.14237 0
M  V30 1459 H 136.971 0.276783 5.02238 0
M  V30 1460 H 136.671 1.95433 5.54148 0
M  V30 1461 H 138.195 1.1415 5.99835 0
M  V30 1462 H 139.609 3.08914 4.82954 0
M  V30 1463 H 138.006 3.84781 4.60504 0
M  V30 1464 H 139.076 3.63673 3.20734 0
M  V30 1465 N 140.419 -1.14872 1.07899 0
M  V30 1466 C 141.329 -2.2341 0.715915 0
M  V30 1467 C 142.345 -1.71808 -0.275306 0
M  V30 1468 O 143.521 -2.01039 -0.120545 0
M  V30 1469 C 140.586 -3.46474 0.125168 0
M  V30 1470 C 139.647 -4.13039 1.17034 0
M  V30 1471 C 138.88 -5.30229 0.607688 0
M  V30 1472 O 139.103 -5.675 -0.574497 0
M  V30 1473 O 138.037 -5.86444 1.35526 0
M  V30 1474 H 141.863 -2.56808 1.62121 0
M  V30 1475 H 139.448 -1.22702 0.852322 0
M  V30 1476 H 141.33 -4.20917 -0.201729 0
M  V30 1477 H 140.005 -3.14811 -0.753364 0
M  V30 1478 H 138.912 -3.40493 1.54968 0
M  V30 1479 H 140.245 -4.48796 2.02097 0
M  V30 1480 N 141.898 -0.863906 -1.31812 0
M  V30 1481 C 142.845 -0.313303 -2.28664 0
M  V30 1482 C 143.815 0.584868 -1.55462 0
M  V30 1483 O 145 0.517805 -1.83639 0
M  V30 1484 C 142.14 0.48441 -3.41683 0
M  V30 1485 C 141.253 -0.440594 -4.29747 0
M  V30 1486 C 140.388 0.370652 -5.29905 0
M  V30 1487 C 139.427 -0.551164 -6.09613 0
M  V30 1488 N 138.564 0.223462 -7.01744 0
M  V30 1489 H 143.404 -1.14444 -2.75148 0
M  V30 1490 H 140.941 -0.575769 -1.35364 0
M  V30 1491 H 142.899 0.962627 -4.05943 0
M  V30 1492 H 141.529 1.28029 -2.96325 0
M  V30 1493 H 140.581 -1.03724 -3.65986 0
M  V30 1494 H 141.893 -1.14767 -4.85417 0
M  V30 1495 H 141.047 0.911638 -5.99812 0
M  V30 1496 H 139.786 1.11105 -4.74876 0
M  V30 1497 H 138.791 -1.10396 -5.38603 0
M  V30 1498 H 140.016 -1.29032 -6.66729 0
M  V30 1499 H 137.962 0.946787 -6.49132 0
M  V30 1500 H 137.879 -0.424399 -7.54808 0
M  V30 1501 H 139.147 0.745876 -7.75923 0
M  V30 1502 N 143.376 1.44774 -0.622745 0
M  V30 1503 C 144.604 2.06487 -0.130722 0
M  V30 1504 C 145.019 1.46476 1.19123 0
M  V30 1505 O 144.376 0.584502 1.72887 0
M  V30 1506 C 144.427 3.615 -0.000807207 0
M  V30 1507 O 144.148 4.19274 -1.27048 0
M  V30 1508 C 145.649 4.40229 0.520898 0
M  V30 1509 H 142.869 0.666704 -0.0758106 0
M  V30 1510 H 145.413 1.85779 -0.854774 0
M  V30 1511 H 143.568 3.81498 0.673643 0
M  V30 1512 H 143.982 5.12622 -1.1099 0
M  V30 1513 H 145.456 5.49144 0.560838 0
M  V30 1514 H 145.933 4.1108 1.54627 0
M  V30 1515 H 146.539 4.25131 -0.120018 0
M  V30 1516 N 144.854 0.36279 1.53368 0
M  V30 1517 C 146.082 -0.228613 2.05633 0
M  V30 1518 C 146.497 -1.42676 1.23649 0
M  V30 1519 O 145.854 -1.80394 0.27647 0
M  V30 1520 C 145.905 -0.624845 3.56059 0
M  V30 1521 O 145.626 0.525675 4.34935 0
M  V30 1522 C 147.127 -1.27493 4.24571 0
M  V30 1523 H 144.347 -0.0407183 0.669763 0
M  V30 1524 H 146.891 0.520352 1.97769 0
M  V30 1525 H 145.046 -1.32373 3.64083 0
M  V30 1526 H 145.46 0.205969 5.24095 0
M  V30 1527 H 146.934 -1.50277 5.31151 0
M  V30 1528 H 147.411 -2.23439 3.78116 0
M  V30 1529 H 148.017 -0.617558 4.20792 0
M  V30 1530 N 146.332 -1.57332 0.0918853 0
M  V30 1531 C 147.578 -1.94524 -0.573425 0
M  V30 1532 C 147.911 -0.973578 -1.68033 0
M  V30 1533 O 147.186 -0.00609226 -1.94499 0
M  V30 1534 C 147.469 -3.41858 -1.13161 0
M  V30 1535 C 147.322 -4.4979 -0.0299747 0
M  V30 1536 C 148.641 -3.90435 -2.03098 0
M  V30 1537 H 145.76 -0.70734 -0.206975 0
M  V30 1538 H 148.402 -1.89309 0.161942 0
M  V30 1539 H 146.552 -3.46433 -1.7583 0
M  V30 1540 H 148.224 -4.57327 0.604112 0
M  V30 1541 H 146.467 -4.291 0.636833 0
M  V30 1542 H 147.138 -5.50069 -0.461287 0
M  V30 1543 H 149.614 -3.87992 -1.50338 0
M  V30 1544 H 148.49 -4.94097 -2.39081 0
M  V30 1545 H 148.751 -3.29541 -2.94712 0
M  V30 1546 N 147.81 0.181792 -1.56548 0
M  V30 1547 C 149.087 0.926765 -1.72251 0
M  V30 1548 C 149.467 2.00831 -0.650386 0
M  V30 1549 O 148.815 2.26008 0.336521 0
M  V30 1550 C 149.025 1.50106 -3.1507 0
M  V30 1551 C 150.373 1.97805 -3.75711 0
M  V30 1552 O 151.397 1.59922 -3.18282 0
M  V30 1553 O 150.256 2.67555 -4.76525 0
M  V30 1554 H 147.35 0.435506 -0.703039 0
M  V30 1555 H 149.896 0.170443 -1.68842 0
M  V30 1556 H 148.668 0.72212 -3.84579 0
M  V30 1557 H 148.291 2.32186 -3.22763 0
M  V30 1558 N 149.288 1.51039 0.449983 0
M  V30 1559 C 150.534 1.63322 1.20223 0
M  V30 1560 C 150.867 0.34241 1.91158 0
M  V30 1561 O 150.142 -0.657344 1.83055 0
M  V30 1562 C 150.425 2.82801 2.22925 0
M  V30 1563 C 150.278 4.21823 1.56157 0
M  V30 1564 C 151.597 2.97807 3.24035 0
M  V30 1565 H 148.716 0.594407 0.435718 0
M  V30 1566 H 151.358 1.83489 0.493136 0
M  V30 1567 H 149.508 2.65738 2.834 0
M  V30 1568 H 151.18 4.50526 0.991162 0
M  V30 1569 H 149.423 4.25105 0.864172 0
M  V30 1570 H 150.094 5.01391 2.30891 0
M  V30 1571 H 152.57 3.13497 2.73603 0
M  V30 1572 H 151.446 3.82992 3.93202 0
M  V30 1573 H 151.707 2.09328 3.89402 0
M  V30 1574 N 150.766 -0.704594 1.40972 0
M  V30 1575 C 152.013 -1.46458 1.39844 0
M  V30 1576 C 152.341 -1.94499 0.00447594 0
M  V30 1577 O 151.596 -1.69275 -0.982057 0
M  V30 1578 C 151.895 -2.698 2.34399 0
M  V30 1579 C 151.561 -2.40464 3.81429 0
M  V30 1580 C 150.223 -2.32174 4.21484 0
M  V30 1581 C 152.575 -2.16086 4.74296 0
M  V30 1582 C 149.903 -1.97589 5.52427 0
M  V30 1583 C 152.255 -1.83011 6.05549 0
M  V30 1584 C 150.919 -1.7321 6.44635 0
M  V30 1585 H 150.189 -0.535927 0.511725 0
M  V30 1586 H 152.836 -0.806124 1.73706 0
M  V30 1587 H 151.141 -3.40536 1.93759 0
M  V30 1588 H 152.838 -3.27919 2.30804 0
M  V30 1589 H 149.428 -2.47808 3.49699 0
M  V30 1590 H 153.612 -2.2144 4.4416 0
M  V30 1591 H 148.868 -1.88547 5.81601 0
M  V30 1592 H 153.042 -1.63164 6.77016 0
M  V30 1593 H 150.669 -1.46179 7.46013 0
M  V30 1594 N 152.244 -1.26651 -0.937939 0
M  V30 1595 C 153.207 -1.08546 -2.01867 0
M  V30 1596 C 154.207 -0.0327327 -1.60767 0
M  V30 1597 O 155.397 -0.276427 -1.71993 0
M  V30 1598 C 152.529 -0.651711 -3.34613 0
M  V30 1599 H 153.722 -2.04502 -2.1936 0
M  V30 1600 H 151.275 -1.09294 -1.11734 0
M  V30 1601 H 152.01 0.309696 -3.22818 0
M  V30 1602 H 151.795 -1.41189 -3.65798 0
M  V30 1603 H 153.285 -0.546973 -4.14002 0
M  V30 1604 N 153.722 1.14298 -1.08507 0
M  V30 1605 C 154.968 1.85633 -0.816581 0
M  V30 1606 C 155.301 1.82784 0.656021 0
M  V30 1607 O 154.576 1.25926 1.48233 0
M  V30 1608 C 154.859 3.34223 -1.34041 0
M  V30 1609 C 154.712 3.45639 -2.87843 0
M  V30 1610 C 156.031 4.29356 -0.9665 0
M  V30 1611 H 153.15 0.67402 -0.298104 0
M  V30 1612 H 155.792 1.34214 -1.34487 0
M  V30 1613 H 153.942 3.78144 -0.89104 0
M  V30 1614 H 155.614 3.10498 -3.41158 0
M  V30 1615 H 153.857 2.86817 -3.25451 0
M  V30 1616 H 154.528 4.50089 -3.19569 0
M  V30 1617 H 157.004 3.93457 -1.35391 0
M  V30 1618 H 155.88 5.3178 -1.3602 0
M  V30 1619 H 156.141 4.41919 0.126362 0
M  V30 1620 N 155.201 0.870884 1.31352 0
M  V30 1621 C 156.429 0.49677 2.00848 0
M  V30 1622 C 156.844 -0.910998 1.65367 0
M  V30 1623 O 156.201 -1.59696 0.883374 0
M  V30 1624 C 156.252 0.645308 3.55694 0
M  V30 1625 O 155.973 1.99764 3.89905 0
M  V30 1626 C 157.474 0.272326 4.42463 0
M  V30 1627 H 154.694 0.193462 0.642506 0
M  V30 1628 H 157.238 1.1723 1.67563 0
M  V30 1629 H 155.393 0.0173176 3.87396 0
M  V30 1630 H 155.807 2.00607 4.84621 0
M  V30 1631 H 157.281 0.427208 5.50344 0
M  V30 1632 H 157.758 -0.788587 4.32062 0
M  V30 1633 H 158.364 0.876054 4.1618 0
M  V30 1634 N 156.679 -1.44442 0.630414 0
M  V30 1635 C 157.927 -2.01653 0.134351 0
M  V30 1636 C 158.248 -1.49836 -1.24796 0
M  V30 1637 O 157.518 -0.701684 -1.82902 0
M  V30 1638 H 156.098 -0.74554 0.0466769 0
M  V30 1639 H 158.76 -1.76952 0.816955 0
M  V30 1640 H 157.856 -3.11935 0.101498 0
M  V30 1641 N 158.157 -0.370918 -1.53173 0
M  V30 1642 C 159.382 0.220293 -2.06227 0
M  V30 1643 C 159.807 1.41243 -1.24225 0
M  V30 1644 O 159.165 1.79387 -0.262645 0
M  V30 1645 C 159.213 0.586663 -3.55796 0
M  V30 1646 O 158.317 1.68317 -3.76488 0
M  V30 1647 H 157.658 0.0308099 -0.663285 0
M  V30 1648 H 160.188 -0.533068 -1.97534 0
M  V30 1649 H 160.198 0.85617 -3.98916 0
M  V30 1650 H 158.873 -0.285013 -4.14922 0
M  V30 1651 H 157.45 1.40881 -3.45264 0
M  V30 1652 N 159.635 1.57281 -0.100228 0
M  V30 1653 C 160.583 2.15542 0.874328 0
M  V30 1654 C 161.577 1.09962 1.28859 0
M  V30 1655 O 162.783 1.28298 1.26252 0
M  V30 1656 H 159.158 0.689567 0.300003 0
M  V30 1657 H 161.129 2.96241 0.35829 0
M  V30 1658 C 159.878 2.75454 2.1218 0
M  V30 1659 H 159.201 3.56384 1.81193 0
M  V30 1660 H 160.641 3.19781 2.78417 0
M  V30 1661 C 159.1 1.71602 2.89921 0
M  V30 1662 O 159.63 1.15804 3.84646 0
M  V30 1663 N 157.836 1.41975 2.53558 0
M  V30 1664 H 157.383 1.87539 1.76598 0
M  V30 1665 H 157.341 0.727274 3.05873 0
M  V30 1666 N 161.113 -0.173488 1.56642 0
M  V30 1667 C 162.361 -0.888706 1.81512 0
M  V30 1668 C 162.682 -1.82875 0.676872 0
M  V30 1669 O 161.952 -1.93536 -0.303414 0
M  V30 1670 H 160.532 -0.331164 0.669582 0
M  V30 1671 H 163.194 -0.173823 1.94123 0
M  V30 1672 H 162.29 -1.46691 2.75478 0
M  V30 1673 N 162.591 -1.51276 -0.441967 0
M  V30 1674 C 163.538 -1.72256 -1.53612 0
M  V30 1675 C 164.508 -0.564164 -1.56225 0
M  V30 1676 O 165.693 -0.798074 -1.73307 0
M  V30 1677 C 162.833 -1.84932 -2.91366 0
M  V30 1678 C 161.946 -3.12459 -2.98317 0
M  V30 1679 C 161.081 -3.15758 -4.27166 0
M  V30 1680 C 160.12 -4.37619 -4.27967 0
M  V30 1681 N 159.257 -4.38493 -5.48333 0
M  V30 1682 H 164.097 -2.65654 -1.35026 0
M  V30 1683 H 161.634 -1.31662 -0.656009 0
M  V30 1684 H 163.592 -1.90263 -3.7129 0
M  V30 1685 H 162.222 -0.949461 -3.08521 0
M  V30 1686 H 161.274 -3.1646 -2.11086 0
M  V30 1687 H 162.586 -4.02382 -2.94771 0
M  V30 1688 H 161.74 -3.19979 -5.15459 0
M  V30 1689 H 160.479 -2.23715 -4.33362 0
M  V30 1690 H 159.484 -4.33579 -3.38067 0
M  V30 1691 H 160.709 -5.30921 -4.23438 0
M  V30 1692 H 158.655 -3.49318 -5.55259 0
M  V30 1693 H 158.572 -5.22219 -5.46647 0
M  V30 1694 H 159.84 -4.469 -6.38671 0
M  V30 1695 N 164.069 0.697108 -1.41344 0
M  V30 1696 C 165.297 1.48593 -1.43972 0
M  V30 1697 C 165.712 1.88747 -0.0445612 0
M  V30 1698 O 165.069 1.56682 0.935785 0
M  V30 1699 C 165.12 2.74946 -2.34706 0
M  V30 1700 O 164.841 2.36484 -3.68791 0
M  V30 1701 C 166.342 3.687 -2.46121 0
M  V30 1702 H 163.562 0.457964 -0.490418 0
M  V30 1703 H 166.106 0.858429 -1.8561 0
M  V30 1704 H 164.261 3.33937 -1.9638 0
M  V30 1705 H 164.675 3.17918 -4.17167 0
M  V30 1706 H 166.149 4.54145 -3.13777 0
M  V30 1707 H 166.626 4.13081 -1.49199 0
M  V30 1708 H 167.232 3.15613 -2.85076 0
M  V30 1709 N 165.547 1.27147 0.931209 0
M  V30 1710 C 166.775 1.16082 1.71267 0
M  V30 1711 C 167.19 -0.282772 1.8667 0
M  V30 1712 O 166.547 -1.19283 1.38122 0
M  V30 1713 C 166.598 1.8358 3.11417 0
M  V30 1714 O 166.319 3.22299 2.96741 0
M  V30 1715 C 167.82 1.78597 4.05732 0
M  V30 1716 H 165.04 0.403758 0.535929 0
M  V30 1717 H 167.584 1.67953 1.16671 0
M  V30 1718 H 165.739 1.35623 3.62885 0
M  V30 1719 H 166.153 3.55851 3.85319 0
M  V30 1720 H 167.627 2.30444 5.01597 0
M  V30 1721 H 168.104 0.754564 4.3267 0
M  V30 1722 H 168.71 2.26152 3.60188 0
M  V30 1723 N 167.025 -1.13721 1.09112 0
M  V30 1724 C 168.253 -1.88773 0.846899 0
M  V30 1725 C 168.668 -1.7896 -0.601572 0
M  V30 1726 O 168.025 -1.15394 -1.41388 0
M  V30 1727 C 168.076 -3.3849 1.26913 0
M  V30 1728 O 167.797 -3.48043 2.66079 0
M  V30 1729 C 169.298 -4.30518 1.05682 0
M  V30 1730 H 166.518 -0.59772 0.304914 0
M  V30 1731 H 169.062 -1.43977 1.45227 0
M  V30 1732 H 167.217 -3.80881 0.707723 0
M  V30 1733 H 167.631 -4.4109 2.83795 0
M  V30 1734 H 169.105 -5.3391 1.40156 0
M  V30 1735 H 169.582 -4.392 -0.00563416 0
M  V30 1736 H 170.188 -3.93893 1.60402 0
M  V30 1737 N 168.503 -0.877838 -1.30888 0
M  V30 1738 C 169.45 -0.337538 -2.28318 0
M  V30 1739 C 170.42 0.568346 -1.56074 0
M  V30 1740 O 171.605 0.498298 -1.84178 0
M  V30 1741 C 168.745 0.448142 -3.42178 0
M  V30 1742 C 167.858 -0.48615 -4.29256 0
M  V30 1743 C 166.993 0.314427 -5.30269 0
M  V30 1744 C 166.032 -0.615791 -6.08995 0
M  V30 1745 N 165.169 0.14902 -7.01942 0
M  V30 1746 H 170.009 -1.17356 -2.73919 0
M  V30 1747 H 167.546 -0.590094 -1.34745 0
M  V30 1748 H 169.504 0.919517 -4.06941 0
M  V30 1749 H 168.134 1.24879 -2.97666 0
M  V30 1750 H 167.186 -1.076 -3.64865 0
M  V30 1751 H 168.498 -1.19909 -4.84173 0
M  V30 1752 H 167.652 0.847969 -6.00745 0
M  V30 1753 H 166.391 1.06062 -4.76027 0
M  V30 1754 H 165.396 -1.16102 -5.37401 0
M  V30 1755 H 166.621 -1.36097 -6.65323 0
M  V30 1756 H 164.567 0.877884 -6.50099 0
M  V30 1757 H 164.484 -0.504433 -7.54315 0
M  V30 1758 H 165.752 0.663537 -7.76671 0
M  V30 1759 N 169.982 1.44106 -0.638065 0
M  V30 1760 C 171.259 1.95453 -0.0759321 0
M  V30 1761 C 171.639 1.57984 1.40015 0
M  V30 1762 O 170.987 0.857361 2.11806 0
M  V30 1763 C 171.197 3.47655 -0.306132 0
M  V30 1764 C 172.545 4.24114 -0.203008 0
M  V30 1765 O 173.569 3.55405 -0.237871 0
M  V30 1766 O 172.428 5.46381 -0.113827 0
M  V30 1767 H 169.522 0.826797 0.0183332 0
M  V30 1768 H 172.068 1.54122 -0.710251 0
M  V30 1769 H 170.84 3.68 -1.3301 0
M  V30 1770 H 170.463 3.95949 0.361991 0
M  V30 1771 N 171.46 0.379036 1.52974 0
M  V30 1772 C 172.393 -0.504932 2.22544 0
M  V30 1773 C 173.371 -1.0723 1.22231 0
M  V30 1774 O 174.555 -1.12589 1.51182 0
M  V30 1775 C 171.682 -1.69794 2.93066 0
M  V30 1776 C 170.728 -1.25678 4.07563 0
M  V30 1777 S 171.561 -0.246852 5.34931 0
M  V30 1778 C 172.717 -1.44588 6.08971 0
M  V30 1779 H 172.95 0.0858666 2.97176 0
M  V30 1780 H 170.483 0.163183 1.53535 0
M  V30 1781 H 172.441 -2.38219 3.34308 0
M  V30 1782 H 171.102 -2.26002 2.18133 0
M  V30 1783 H 170.295 -2.14725 4.5597 0
M  V30 1784 H 169.897 -0.651584 3.6828 0
M  V30 1785 H 172.189 -2.37469 6.34519 0
M  V30 1786 H 173.132 -1.00292 7.00962 0
M  V30 1787 H 173.54 -1.65804 5.39601 0
M  V30 1788 N 172.938 -1.57226 0.108567 0
M  V30 1789 C 173.868 -2.17778 -0.84232 0
M  V30 1790 C 174.849 -1.11487 -1.2847 0
M  V30 1791 O 176.034 -1.39681 -1.34918 0
M  V30 1792 C 173.164 -2.76888 -2.09644 0
M  V30 1793 C 172.118 -3.88669 -1.79221 0
M  V30 1794 C 171.444 -4.34541 -3.11574 0
M  V30 1795 C 172.744 -5.11251 -1.06864 0
M  V30 1796 H 174.438 -2.97489 -0.337774 0
M  V30 1797 H 171.984 -1.43097 -0.161025 0
M  V30 1798 H 173.937 -3.17904 -2.76614 0
M  V30 1799 H 172.661 -1.94451 -2.62405 0
M  V30 1800 H 171.32 -3.48213 -1.14644 0
M  V30 1801 H 170.968 -3.48977 -3.62249 0
M  V30 1802 H 170.668 -5.09914 -2.91996 0
M  V30 1803 H 172.192 -4.782 -3.7968 0
M  V30 1804 H 173.606 -5.49352 -1.63968 0
M  V30 1805 H 172.003 -5.9214 -0.974178 0
M  V30 1806 H 173.073 -4.8487 -0.0536168 0
M  V30 1807 N 174.416 0.165178 -1.56732 0
M  V30 1808 C 175.379 1.18822 -1.95995 0
M  V30 1809 C 176.379 1.3685 -0.84431 0
M  V30 1810 O 177.569 1.34152 -1.11126 0
M  V30 1811 C 174.701 2.5521 -2.26011 0
M  V30 1812 H 175.894 0.851825 -2.87548 0
M  V30 1813 H 173.447 0.407857 -1.50885 0
M  V30 1814 H 174.182 2.93852 -1.37191 0
M  V30 1815 H 173.967 2.43489 -3.07336 0
M  V30 1816 H 175.457 3.28927 -2.57288 0
M  V30 1817 N 175.894 1.51508 0.433938 0
M  V30 1818 C 176.844 1.69451 1.52546 0
M  V30 1819 C 177.828 0.548474 1.51263 0
M  V30 1820 O 179.02 0.804529 1.57659 0
M  V30 1821 C 176.149 1.82604 2.90707 0
M  V30 1822 C 175.235 3.03002 2.96733 0
M  V30 1823 N 175.626 4.26121 2.72496 0
M  V30 1824 C 173.924 3.02327 3.27894 0
M  V30 1825 C 174.625 5.07407 2.84452 0
M  V30 1826 N 173.601 4.42126 3.16269 0
M  V30 1827 H 177.403 2.62305 1.32564 0
M  V30 1828 H 174.917 1.49202 0.641297 0
M  V30 1829 H 176.914 1.93569 3.69238 0
M  V30 1830 H 175.574 0.909339 3.11707 0
M  V30 1831 H 176.585 4.55009 2.4736 0
M  V30 1832 H 173.262 2.20301 3.54646 0
M  V30 1833 H 174.652 6.15422 2.69639 0
M  V30 1834 N 177.372 -0.689602 1.41712 0
M  V30 1835 C 178.302 -1.81577 1.46806 0
M  V30 1836 C 179.283 -1.66945 0.326105 0
M  V30 1837 O 180.468 -1.86588 0.538377 0
M  V30 1838 C 177.598 -3.19762 1.35535 0
M  V30 1839 C 176.552 -3.49107 2.47605 0
M  V30 1840 C 175.878 -4.86711 2.21397 0
M  V30 1841 C 177.178 -3.47483 3.89939 0
M  V30 1842 H 178.872 -1.7757 2.41058 0
M  V30 1843 H 176.418 -0.852887 1.16025 0
M  V30 1844 H 178.371 -3.98263 1.3771 0
M  V30 1845 H 177.095 -3.24409 0.377708 0
M  V30 1846 H 175.754 -2.72959 2.44722 0
M  V30 1847 H 175.402 -4.8799 1.21961 0
M  V30 1848 H 175.102 -5.0731 2.96497 0
M  V30 1849 H 176.626 -5.67515 2.25297 0
M  V30 1850 H 178.04 -4.1598 3.94505 0
M  V30 1851 H 176.437 -3.79615 4.64771 0
M  V30 1852 H 177.507 -2.46341 4.17665 0
M  V30 1853 N 178.85 -1.27639 -0.924453 0
M  V30 1854 C 179.78 -1.13166 -2.04244 0
M  V30 1855 C 180.761 -0.032256 -1.70069 0
M  V30 1856 O 181.946 -0.207328 -1.9309 0
M  V30 1857 C 179.076 -0.781496 -3.38393 0
M  V30 1858 C 178.03 -1.83449 -3.86692 0
M  V30 1859 C 177.356 -1.33822 -5.17683 0
M  V30 1860 C 178.656 -3.23917 -4.09726 0
M  V30 1861 H 180.35 -2.06689 -2.1661 0
M  V30 1862 H 177.896 -0.995136 -1.04082 0
M  V30 1863 H 179.849 -0.667057 -4.16087 0
M  V30 1864 H 178.573 0.189439 -3.2605 0
M  V30 1865 H 177.232 -1.93789 -3.11193 0
M  V30 1866 H 176.88 -0.35665 -5.01734 0
M  V30 1867 H 176.58 -2.04224 -5.50968 0
M  V30 1868 H 178.104 -1.23679 -5.97943 0
M  V30 1869 H 179.518 -3.16559 -4.77978 0
M  V30 1870 H 177.915 -3.92059 -4.54324 0
M  V30 1871 H 178.985 -3.68729 -3.14908 0
M  V30 1872 N 180.328 1.1314 -1.09713 0
M  V30 1873 C 181.553 1.88862 -0.857081 0
M  V30 1874 C 181.978 1.78729 0.586304 0
M  V30 1875 O 181.336 1.13692 1.41222 0
M  V30 1876 C 181.384 3.36325 -1.30069 0
M  V30 1877 O 180.488 4.09815 -0.461007 0
M  V30 1878 H 179.829 0.587108 -0.310162 0
M  V30 1879 H 182.359 1.43129 -1.46203 0
M  V30 1880 H 182.369 3.87157 -1.28738 0
M  V30 1881 H 181.044 3.43017 -2.35185 0
M  V30 1882 H 179.621 3.68986 -0.538888 0
M  V30 1883 N 181.806 0.884767 1.30421 0
M  V30 1884 C 183.034 0.518044 2.0031 0
M  V30 1885 C 183.449 -0.893408 1.66324 0
M  V30 1886 O 182.806 -1.5875 0.900262 0
M  V30 1887 C 182.857 0.682997 3.54989 0
M  V30 1888 O 182.578 2.03888 3.87764 0
M  V30 1889 C 184.079 0.31924 4.42149 0
M  V30 1890 H 181.299 0.200265 0.640418 0
M  V30 1891 H 183.843 1.19001 1.6631 0
M  V30 1892 H 181.998 0.0584052 3.87356 0
M  V30 1893 H 182.412 2.05735 4.82466 0
M  V30 1894 H 183.886 0.485555 5.4986 0
M  V30 1895 H 184.363 -0.742717 4.32875 0
M  V30 1896 H 184.969 0.920147 4.15227 0
M  V30 1897 N 183.284 -1.43765 0.645699 0
M  V30 1898 C 184.7 -1.56509 0.312591 0
M  V30 1899 C 184.9 -1.6307 -1.18365 0
M  V30 1900 O 183.956 -1.58167 -1.96824 0
M  V30 1901 C 185.269 -2.82968 1.01733 0
M  V30 1902 C 186.817 -2.96701 0.996865 0
M  V30 1903 C 187.292 -4.25982 1.68236 0
M  V30 1904 N 188.783 -4.32829 1.64964 0
M  V30 1905 C 189.518 -5.31613 2.14885 0
M  V30 1906 N 189.014 -6.36718 2.73061 0
M  V30 1907 N 190.807 -5.23217 2.05428 0
M  V30 1908 H 182.958 -1.3775 1.61675 0
M  V30 1909 H 185.221 -0.661067 0.679481 0
M  V30 1910 H 184.927 -2.84156 2.0724 0
M  V30 1911 H 184.801 -3.72957 0.564177 0
M  V30 1912 H 187.188 -2.95058 -0.0497719 0
M  V30 1913 H 187.269 -2.08022 1.48865 0
M  V30 1914 H 186.913 -4.28386 2.72852 0
M  V30 1915 H 186.843 -5.13545 1.16529 0
M  V30 1916 H 189.334 -3.57493 1.22503 0
M  V30 1917 H 189.647 -7.08401 3.08848 0
M  V30 1918 H 187.992 -6.37362 2.77118 0
M  V30 1919 H 191.183 -4.40019 1.59689 0
M  V30 1920 H 191.356 -6.00045 2.44643 0
M  V30 1921 N 184.763 -0.387143 -1.52771 0
M  V30 1922 C 185.993 0.195585 -2.05672 0
M  V30 1923 C 186.401 1.41241 -1.25887 0
M  V30 1924 O 185.744 1.81265 -0.298081 0
M  V30 1925 C 185.806 0.632327 -3.53895 0
M  V30 1926 C 185.47 -0.470739 -4.54569 0
M  V30 1927 C 186.467 -1.32746 -5.02667 0
M  V30 1928 C 184.152 -0.637151 -4.98243 0
M  V30 1929 C 186.146 -2.33574 -5.93061 0
M  V30 1930 C 183.833 -1.64877 -5.88438 0
M  V30 1931 C 184.831 -2.49649 -6.35739 0
M  V30 1932 O 184.519 -3.49082 -7.24153 0
M  V30 1933 H 184.251 0.033658 -0.675162 0
M  V30 1934 H 186.805 -0.550221 -1.97893 0
M  V30 1935 H 185.035 1.43008 -3.59285 0
M  V30 1936 H 186.724 1.14048 -3.89548 0
M  V30 1937 H 187.49 -1.21019 -4.69659 0
M  V30 1938 H 183.369 0.0129567 -4.60998 0
M  V30 1939 H 186.913 -2.99777 -6.29904 0
M  V30 1940 H 182.81 -1.76643 -6.2086 0
M  V30 1941 H 183.578 -3.45065 -7.42208 0
M  V30 1942 N 186.241 1.57166 -0.116904 0
M  V30 1943 C 187.188 2.15202 0.83408 0
M  V30 1944 C 188.158 1.07644 1.26499 0
M  V30 1945 O 189.343 1.35541 1.34288 0
M  V30 1946 C 186.483 2.75405 2.07957 0
M  V30 1947 C 185.596 3.97264 1.69721 0
M  V30 1948 C 184.731 4.45561 2.89221 0
M  V30 1949 C 183.77 5.59956 2.47215 0
M  V30 1950 N 182.907 6.03006 3.59622 0
M  V30 1951 H 187.747 2.96141 0.332335 0
M  V30 1952 H 185.284 1.46309 0.152349 0
M  V30 1953 H 187.242 3.08439 2.80929 0
M  V30 1954 H 185.872 1.97159 2.55594 0
M  V30 1955 H 184.924 3.70404 0.866316 0
M  V30 1956 H 186.236 4.80226 1.34849 0
M  V30 1957 H 185.39 4.80493 3.7042 0
M  V30 1958 H 184.129 3.61544 3.27318 0
M  V30 1959 H 183.134 5.2463 1.64448 0
M  V30 1960 H 184.359 6.45738 2.10238 0
M  V30 1961 H 182.305 5.21931 3.97396 0
M  V30 1962 H 182.222 6.80819 3.28667 0
M  V30 1963 H 183.49 6.42576 4.41267 0
M  V30 1964 N 187.719 -0.156864 1.56817 0
M  V30 1965 C 188.947 -0.886316 1.86955 0
M  V30 1966 C 189.362 -1.75185 0.703975 0
M  V30 1967 O 188.719 -1.79555 -0.326552 0
M  V30 1968 C 188.77 -1.75117 3.16253 0
M  V30 1969 O 188.491 -0.920537 4.2832 0
M  V30 1970 C 189.992 -2.58905 3.59837 0
M  V30 1971 H 187.212 -0.25678 0.619923 0
M  V30 1972 H 189.756 -0.152615 2.0393 0
M  V30 1973 H 187.911 -2.43805 3.01062 0
M  V30 1974 H 188.325 -1.51337 5.02192 0
M  V30 1975 H 189.799 -3.1518 4.53172 0
M  V30 1976 H 190.276 -3.34472 2.84649 0
M  V30 1977 H 190.882 -1.95526 3.7769 0
M  V30 1978 N 189.197 -1.51736 -0.425897 0
M  V30 1979 C 190.427 -1.68549 -1.19476 0
M  V30 1980 C 190.835 -0.387288 -1.85194 0
M  V30 1981 O 190.178 0.645142 -1.71999 0
M  V30 1982 C 190.24 -2.75275 -2.31223 0
M  V30 1983 C 189.904 -4.17534 -1.8578 0
M  V30 1984 C 190.901 -5.01936 -1.35485 0
M  V30 1985 C 188.586 -4.6369 -1.93123 0
M  V30 1986 C 190.58 -6.30559 -0.931347 0
M  V30 1987 C 188.267 -5.92307 -1.50384 0
M  V30 1988 C 189.265 -6.75569 -1.00473 0
M  V30 1989 O 188.953 -8.0178 -0.583452 0
M  V30 1990 H 188.685 -0.568525 -0.365725 0
M  V30 1991 H 191.239 -1.98982 -0.509444 0
M  V30 1992 H 189.469 -2.40182 -3.03067 0
M  V30 1993 H 191.158 -2.80853 -2.93047 0
M  V30 1994 H 191.924 -4.67475 -1.29197 0
M  V30 1995 H 187.803 -3.98997 -2.30916 0
M  V30 1996 H 191.347 -6.95498 -0.541084 0
M  V30 1997 H 187.244 -6.2628 -1.56346 0
M  V30 1998 H 188.012 -8.1543 -0.708275 0
M  V30 1999 N 190.675 0.682077 -1.42076 0
M  V30 2000 C 191.622 1.79578 -1.44984 0
M  V30 2001 C 192.592 1.6332 -0.302614 0
M  V30 2002 O 193.777 1.83978 -0.505633 0
M  V30 2003 C 190.917 3.1756 -1.35091 0
M  V30 2004 C 190.03 3.45156 -2.59791 0
M  V30 2005 C 189.165 4.72826 -2.42093 0
M  V30 2006 C 188.204 4.93433 -3.62202 0
M  V30 2007 N 187.341 6.12338 -3.43491 0
M  V30 2008 H 192.181 1.76427 -2.40161 0
M  V30 2009 H 189.718 0.861376 -1.19242 0
M  V30 2010 H 191.676 3.97287 -1.27354 0
M  V30 2011 H 190.306 3.19854 -0.435133 0
M  V30 2012 H 189.358 2.59736 -2.77923 0
M  V30 2013 H 190.67 3.5628 -3.49094 0
M  V30 2014 H 189.824 5.60631 -2.319 0
M  V30 2015 H 188.563 4.63973 -1.50268 0
M  V30 2016 H 187.568 4.04073 -3.72834 0
M  V30 2017 H 188.793 5.04136 -4.54998 0
M  V30 2018 H 186.739 6.04672 -2.54377 0
M  V30 2019 H 186.656 6.2429 -4.26377 0
M  V30 2020 H 187.924 7.02841 -3.37097 0
M  V30 2021 N 192.153 1.28127 0.917671 0
M  V30 2022 C 193.381 1.17892 1.70026 0
M  V30 2023 C 193.796 -0.262958 1.8696 0
M  V30 2024 O 193.153 -1.17811 1.3938 0
M  V30 2025 C 193.204 1.86872 3.09453 0
M  V30 2026 O 192.925 3.25428 2.93306 0
M  V30 2027 C 194.426 1.8289 4.03815 0
M  V30 2028 H 191.646 0.40942 0.531617 0
M  V30 2029 H 194.19 1.69181 1.14883 0
M  V30 2030 H 192.345 1.39464 3.61426 0
M  V30 2031 H 192.759 3.59918 3.81523 0
M  V30 2032 H 194.233 2.35751 4.99125 0
M  V30 2033 H 194.71 0.800412 4.31845 0
M  V30 2034 H 195.316 2.29959 3.57769 0
M  V30 2035 N 193.631 -1.12557 1.10312 0
M  V30 2036 C 194.563 -2.17971 0.708625 0
M  V30 2037 C 195.576 -1.60806 -0.254027 0
M  V30 2038 O 196.765 -1.78458 -0.0386891 0
M  V30 2039 C 193.865 -3.38891 0.0248198 0
M  V30 2040 C 193.038 -4.25548 1.01132 0
M  V30 2041 C 192.097 -5.24972 0.35924 0
M  V30 2042 O 191.123 -5.60174 1.00965 0
M  V30 2043 N 192.325 -5.73747 -0.882847 0
M  V30 2044 H 195.09 -2.52427 1.61557 0
M  V30 2045 H 192.651 -1.27967 0.991771 0
M  V30 2046 H 194.643 -4.02485 -0.422852 0
M  V30 2047 H 193.213 -3.02596 -0.784514 0
M  V30 2048 H 192.433 -3.58589 1.6373 0
M  V30 2049 H 193.721 -4.80294 1.67914 0
M  V30 2050 H 193.119 -5.4731 -1.43065 0
M  V30 2051 H 191.676 -6.39234 -1.27369 0
M  V30 2052 N 195.109 -0.891671 -1.2995 0
M  V30 2053 C 196.357 -0.512486 -1.95494 0
M  V30 2054 C 196.678 0.942776 -1.70695 0
M  V30 2055 O 195.948 1.66374 -1.03424 0
M  V30 2056 H 194.528 -0.186533 -0.723336 0
M  V30 2057 H 197.19 -1.13621 -1.58355 0
M  V30 2058 H 196.286 -0.688342 -3.04415 0
M  V30 2059 N 196.587 1.43421 -0.653314 0
M  V30 2060 C 197.535 2.32546 0.0501531 0
M  V30 2061 C 198.529 1.48617 0.812985 0
M  V30 2062 O 199.735 1.64825 0.723375 0
M  V30 2063 H 196.11 0.751185 0.0350032 0
M  V30 2064 H 198.081 2.89602 -0.719261 0
M  V30 2065 C 196.83 3.32925 1.00279 0
M  V30 2066 H 196.153 3.97532 0.425236 0
M  V30 2067 H 197.593 3.9792 1.46409 0
M  V30 2068 C 196.052 2.63532 2.09886 0
M  V30 2069 O 196.582 2.45092 3.18265 0
M  V30 2070 N 194.788 2.22905 1.86445 0
M  V30 2071 H 194.335 2.38103 0.98309 0
M  V30 2072 H 194.293 1.76805 2.59976 0
M  V30 2073 N 198.065 0.39524 1.52563 0
M  V30 2074 C 199.295 -0.184675 2.05773 0
M  V30 2075 C 199.703 -1.40571 1.26635 0
M  V30 2076 O 199.046 -1.81105 0.30769 0
M  V30 2077 C 199.108 -0.613551 3.54226 0
M  V30 2078 C 198.772 0.49484 4.54313 0
M  V30 2079 C 199.769 1.3541 5.01956 0
M  V30 2080 C 197.454 0.663565 4.97898 0
M  V30 2081 C 199.448 2.36716 5.91814 0
M  V30 2082 C 197.135 1.67996 5.87555 0
M  V30 2083 C 198.133 2.53017 6.34406 0
M  V30 2084 O 197.821 3.52917 7.22291 0
M  V30 2085 H 197.553 -0.030077 0.675331 0
M  V30 2086 H 200.107 0.560708 1.97599 0
M  V30 2087 H 198.337 -1.411 3.60038 0
M  V30 2088 H 200.026 -1.11981 3.90148 0
M  V30 2089 H 200.792 1.23509 4.6901 0
M  V30 2090 H 196.671 0.0114913 4.60999 0
M  V30 2091 H 200.215 3.03113 6.28306 0
M  V30 2092 H 196.112 1.79933 6.19915 0
M  V30 2093 H 196.88 3.48996 7.40367 0
M  V30 2094 N 199.544 -1.57102 0.125237 0
M  V30 2095 C 200.492 -2.16905 -0.839927 0
M  V30 2096 C 201.486 -1.11998 -1.27094 0
M  V30 2097 O 202.692 -1.3029 -1.24195 0
M  V30 2098 H 199.067 -0.694252 -0.288995 0
M  V30 2099 H 201.038 -2.96774 -0.311115 0
M  V30 2100 C 199.787 -2.78795 -2.07771 0
M  V30 2101 H 199.11 -3.59221 -1.755 0
M  V30 2102 H 200.55 -3.2417 -2.73295 0
M  V30 2103 C 199.009 -1.76193 -2.87155 0
M  V30 2104 O 199.539 -1.21909 -3.82755 0
M  V30 2105 N 197.745 -1.45991 -2.51267 0
M  V30 2106 H 197.292 -1.90325 -1.73592 0
M  V30 2107 H 197.25 -0.775844 -3.04677 0
M  V30 2108 N 201.022 0.148545 -1.56898 0
M  V30 2109 C 201.97 1.20265 -1.99096 0
M  V30 2110 C 202.964 1.44559 -0.883123 0
M  V30 2111 O 204.17 1.4487 -1.0683 0
M  V30 2112 H 200.545 0.404786 -0.63376 0
M  V30 2113 H 202.516 0.82004 -2.86911 0
M  V30 2114 C 201.265 2.52886 -2.3863 0
M  V30 2115 H 200.588 2.35021 -3.23427 0
M  V30 2116 H 202.028 3.25274 -2.7198 0
M  V30 2117 C 200.487 3.13315 -1.23837 0
M  V30 2118 O 201.017 3.98077 -0.538268 0
M  V30 2119 N 199.223 2.72742 -1.00301 0
M  V30 2120 H 198.77 2.03912 -1.5741 0
M  V30 2121 H 198.728 3.13507 -0.236838 0
M  V30 2122 N 202.5 1.5196 0.417844 0
M  V30 2123 C 203.41 1.77554 1.53336 0
M  V30 2124 C 204.426 0.660655 1.6097 0
M  V30 2125 O 205.602 0.945099 1.77848 0
M  V30 2126 C 202.667 1.91291 2.89152 0
M  V30 2127 C 201.728 3.15183 2.91475 0
M  V30 2128 C 200.961 3.28256 4.20813 0
M  V30 2129 O 201.184 2.46798 5.14244 0
M  V30 2130 O 200.118 4.21356 4.29817 0
M  V30 2131 H 203.944 2.7222 1.34647 0
M  V30 2132 H 201.529 1.36698 0.602828 0
M  V30 2133 H 203.411 2.02199 3.69721 0
M  V30 2134 H 202.086 0.998129 3.07927 0
M  V30 2135 H 200.993 3.09739 2.09791 0
M  V30 2136 H 202.326 4.06414 2.77648 0
M  V30 2137 N 203.978 -0.674533 1.42435 0
M  V30 2138 C 205.227 -1.43034 1.42212 0
M  V30 2139 C 205.54 -1.95555 0.0420788 0
M  V30 2140 O 206.746 -2.71374 -0.0827558 0
M  V30 2141 C 205.202 -2.58748 2.50155 0
M  V30 2142 C 204.81 -2.12925 3.94166 0
M  V30 2143 C 206.554 -3.36257 2.59098 0
M  V30 2144 C 204.461 -3.25723 4.93618 0
M  V30 2145 H 203.391 -0.537345 0.528939 0
M  V30 2146 H 206.042 -0.73024 1.68344 0
M  V30 2147 H 204.424 -3.31128 2.17188 0
M  V30 2148 H 205.598 -1.47697 4.36488 0
M  V30 2149 H 203.913 -1.48354 3.89076 0
M  V30 2150 H 206.51 -4.20264 3.30578 0
M  V30 2151 H 206.853 -3.82866 1.63461 0
M  V30 2152 H 207.386 -2.70947 2.9126 0
M  V30 2153 H 204.125 -2.84105 5.90732 0
M  V30 2154 H 203.645 -3.89732 4.55926 0
M  V30 2155 H 205.324 -3.91186 5.15347 0
M  V30 2156 N 205.456 -1.28612 -0.910864 0
M  V30 2157 C 206.704 -1.15705 -1.65701 0
M  V30 2158 C 207.025 0.29416 -1.92769 0
M  V30 2159 O 206.295 1.20331 -1.54588 0
M  V30 2160 H 204.875 -0.425216 -0.614167 0
M  V30 2161 H 207.537 -1.61381 -1.0928 0
M  V30 2162 H 206.633 -1.6988 -2.61815 0
M  V30 2163 N 206.934 1.1197 -1.10907 0
M  V30 2164 C 207.864 2.19928 -0.784473 0
M  V30 2165 C 208.845 1.6833 0.244726 0
M  V30 2166 O 210.03 1.93892 0.109418 0
M  V30 2167 C 207.16 3.46597 -0.220827 0
M  V30 2168 C 206.114 4.11376 -1.18127 0
M  V30 2169 C 205.44 5.32554 -0.478594 0
M  V30 2170 C 206.74 4.56945 -2.52979 0
M  V30 2171 H 208.434 2.47337 -1.68715 0
M  V30 2172 H 205.98 1.18879 -0.812642 0
M  V30 2173 H 207.933 4.21396 0.0184278 0
M  V30 2174 H 206.657 3.1863 0.717113 0
M  V30 2175 H 205.316 3.38564 -1.40606 0
M  V30 2176 H 204.964 5.00856 0.463976 0
M  V30 2177 H 204.664 5.76844 -1.11912 0
M  V30 2178 H 206.188 6.10096 -0.248 0
M  V30 2179 H 207.602 5.23093 -2.3462 0
M  V30 2180 H 205.999 5.1203 -3.12962 0
M  V30 2181 H 207.069 3.70676 -3.12614 0
M  V30 2182 N 208.412 0.89855 1.29475 0
M  V30 2183 C 209.823 0.572537 1.77705 0
M  V30 2184 C 210.174 -0.911778 1.73727 0
M  V30 2185 O 209.299 -1.71288 1.32247 0
M  V30 2186 C 209.894 1.03252 3.22683 0
M  V30 2187 C 208.453 0.757687 3.68695 0
M  V30 2188 C 207.6 1.20787 2.49612 0
M  V30 2189 H 210.551 1.08139 1.16153 0
M  V30 2190 H 210.572 0.367307 3.78723 0
M  V30 2191 H 210.084 2.11285 3.25546 0
M  V30 2192 H 208.185 -0.310079 3.71308 0
M  V30 2193 H 208.298 1.35476 4.59547 0
M  V30 2194 H 206.662 0.626888 2.46865 0
M  V30 2195 H 207.445 2.29622 2.55203 0
M  V30 2196 N 209.89 -1.43072 0.660911 0
M  V30 2197 C 211.12 -2.05769 0.185153 0
M  V30 2198 C 211.528 -1.49668 -1.15742 0
M  V30 2199 O 210.871 -0.625649 -1.72717 0
M  V30 2200 C 210.933 -3.59489 0.0278237 0
M  V30 2201 C 210.597 -4.38212 1.2969 0
M  V30 2202 C 211.594 -4.69772 2.22734 0
M  V30 2203 C 209.279 -4.7809 1.54063 0
M  V30 2204 C 211.273 -5.40129 3.38437 0
M  V30 2205 C 208.96 -5.4819 2.70058 0
M  V30 2206 C 209.958 -5.79132 3.62071 0
M  V30 2207 O 209.646 -6.47798 4.76039 0
M  V30 2208 H 209.378 -0.669873 0.0908086 0
M  V30 2209 H 211.932 -1.84436 0.90402 0
M  V30 2210 H 210.162 -3.79426 -0.746489 0
M  V30 2211 H 211.851 -4.03862 -0.406275 0
M  V30 2212 H 212.617 -4.39476 2.05149 0
M  V30 2213 H 208.496 -4.53408 0.833215 0
M  V30 2214 H 212.04 -5.64198 4.10277 0
M  V30 2215 H 207.937 -5.77902 2.87574 0
M  V30 2216 H 208.705 -6.66283 4.75404 0
M  V30 2217 N 211.368 -0.403325 -1.52352 0
M  V30 2218 C 212.596 0.174012 -2.06167 0
M  V30 2219 C 213.011 1.39347 -1.27388 0
M  V30 2220 O 212.368 1.79597 -0.324201 0
M  V30 2221 C 212.419 0.530223 -3.5759 0
M  V30 2222 O 212.14 -0.640806 -4.33388 0
M  V30 2223 C 213.641 1.16192 -4.27802 0
M  V30 2224 H 210.861 0.0229464 -0.670608 0
M  V30 2225 H 213.405 -0.572604 -1.9632 0
M  V30 2226 H 211.56 1.22673 -3.67464 0
M  V30 2227 H 211.974 -0.344851 -5.23365 0
M  V30 2228 H 213.448 1.36141 -5.34948 0
M  V30 2229 H 213.925 2.13335 -3.83907 0
M  V30 2230 H 214.531 0.505775 -4.22282 0
M  V30 2231 N 212.846 1.57033 -0.133567 0
M  V30 2232 C 214.092 1.95976 0.521649 0
M  V30 2233 C 214.425 1.01779 1.65393 0
M  V30 2234 O 213.7 0.0576581 1.94415 0
M  V30 2235 C 213.983 3.44738 1.04057 0
M  V30 2236 C 213.836 4.49711 -0.0892897 0
M  V30 2237 C 215.155 3.95682 1.92675 0
M  V30 2238 H 212.274 0.712579 0.188149 0
M  V30 2239 H 214.916 1.88813 -0.212076 0
M  V30 2240 H 213.066 3.50973 1.66583 0
M  V30 2241 H 214.738 4.55565 -0.725152 0
M  V30 2242 H 212.981 4.27261 -0.750378 0
M  V30 2243 H 213.652 5.51099 0.315284 0
M  V30 2244 H 216.128 3.91841 1.39998 0
M  V30 2245 H 215.004 5.00262 2.25897 0
M  V30 2246 H 215.265 3.37239 2.85872 0
M  V30 2247 N 214.325 -0.140222 1.56975 0
M  V30 2248 C 215.255 -1.17456 2.01808 0
M  V30 2249 C 216.236 -1.44415 0.898794 0
M  V30 2250 O 217.421 -1.5522 1.16707 0
M  V30 2251 C 214.551 -2.50607 2.40444 0
M  V30 2252 C 213.505 -2.38155 3.55621 0
M  V30 2253 C 212.831 -3.76078 3.80091 0
M  V30 2254 C 214.131 -1.85991 4.88062 0
M  V30 2255 H 215.825 -0.801743 2.88466 0
M  V30 2256 H 213.371 -0.38422 1.38779 0
M  V30 2257 H 215.324 -3.23197 2.7041 0
M  V30 2258 H 214.048 -2.89737 1.50732 0
M  V30 2259 H 212.707 -1.68016 3.25832 0
M  V30 2260 H 212.355 -4.12656 2.87618 0
M  V30 2261 H 212.055 -3.68606 4.57606 0
M  V30 2262 H 213.579 -4.50206 4.12488 0
M  V30 2263 H 214.993 -2.4838 5.16701 0
M  V30 2264 H 213.39 -1.89393 5.6943 0
M  V30 2265 H 214.46 -0.816023 4.77984 0
M  V30 2266 N 215.803 -1.52179 -0.40978 0
M  V30 2267 C 216.753 -1.71857 -1.49831 0
M  V30 2268 C 217.737 -0.572469 -1.50372 0
M  V30 2269 O 218.929 -0.829509 -1.56359 0
M  V30 2270 C 216.058 -1.87206 -2.87765 0
M  V30 2271 C 215.144 -3.07685 -2.91875 0
M  V30 2272 N 215.535 -4.30403 -2.65683 0
M  V30 2273 C 213.833 -3.07505 -3.23043 0
M  V30 2274 C 214.534 -5.11868 -2.76344 0
M  V30 2275 N 213.51 -4.47101 -3.09195 0
M  V30 2276 H 217.312 -2.64381 -1.28375 0
M  V30 2277 H 214.826 -1.50203 -0.617479 0
M  V30 2278 H 216.823 -1.99419 -3.66111 0
M  V30 2279 H 215.483 -0.958814 -3.10221 0
M  V30 2280 H 216.494 -4.58887 -2.4009 0
M  V30 2281 H 213.171 -2.25915 -3.51096 0
M  V30 2282 H 214.561 -6.19634 -2.59814 0
M  V30 2283 N 217.281 0.66697 -1.42791 0
M  V30 2284 C 218.214 1.79177 -1.41318 0
M  V30 2285 C 219.192 1.60234 -0.276401 0
M  V30 2286 O 220.376 1.82602 -0.46785 0
M  V30 2287 C 217.503 3.16289 -1.21157 0
M  V30 2288 C 216.549 3.53964 -2.37932 0
M  V30 2289 S 217.382 3.55501 -4.00474 0
M  V30 2290 C 218.538 4.95292 -3.8267 0
M  V30 2291 H 218.771 1.80153 -2.365 0
M  V30 2292 H 216.304 0.838357 -1.29657 0
M  V30 2293 H 218.262 3.95428 -1.10212 0
M  V30 2294 H 216.923 3.1289 -0.275481 0
M  V30 2295 H 216.116 4.53646 -2.19594 0
M  V30 2296 H 215.718 2.82204 -2.45432 0
M  V30 2297 H 218.01 5.83584 -3.44145 0
M  V30 2298 H 218.953 5.18679 -4.82055 0
M  V30 2299 H 219.361 4.68179 -3.15386 0
M  V30 2300 N 218.759 1.29093 0.90403 0
M  V30 2301 C 220.17 1.15186 1.46932 0
M  V30 2302 C 220.521 -0.254587 1.94541 0
M  V30 2303 O 219.646 -1.14972 1.83332 0
M  V30 2304 C 220.241 2.08492 2.67051 0
M  V30 2305 C 218.8 1.98621 3.19729 0
M  V30 2306 C 217.947 1.9967 1.92425 0
M  V30 2307 H 220.898 1.41641 0.715789 0
M  V30 2308 H 220.919 1.65461 3.42641 0
M  V30 2309 H 220.431 3.10847 2.3237 0
M  V30 2310 H 218.532 0.993389 3.59114 0
M  V30 2311 H 218.645 2.86068 3.8432 0
M  V30 2312 H 217.009 1.44208 2.09943 0
M  V30 2313 H 217.792 3.03721 1.60026 0
M  V30 2314 N 220.237 -1.11381 1.11499 0
M  V30 2315 C 221.147 -2.21019 0.786628 0
M  V30 2316 C 222.163 -1.72597 -0.220507 0
M  V30 2317 O 223.339 -2.01321 -0.0565251 0
M  V30 2318 C 220.404 -3.459 0.235333 0
M  V30 2319 C 219.465 -4.09107 1.30115 0
M  V30 2320 C 218.698 -5.28027 0.776068 0
M  V30 2321 O 218.921 -5.6904 -0.393661 0
M  V30 2322 O 217.855 -5.81835 1.54114 0
M  V30 2323 H 221.681 -2.51521 1.70209 0
M  V30 2324 H 219.266 -1.19928 0.890928 0
M  V30 2325 H 221.148 -4.21346 -0.067715 0
M  V30 2326 H 219.823 -3.17049 -0.652828 0
M  V30 2327 H 218.73 -3.35391 1.65722 0
M  V30 2328 H 220.063 -4.42139 2.16273 0
M  V30 2329 N 221.715 -0.905404 -1.28997 0
M  V30 2330 C 222.963 -0.533192 -1.9494 0
M  V30 2331 C 223.284 0.924618 -1.71685 0
M  V30 2332 O 222.554 1.65268 -1.05183 0
M  V30 2333 H 221.134 -0.194194 -0.721317 0
M  V30 2334 H 223.796 -1.15294 -1.57141 0
M  V30 2335 H 222.892 -0.72059 -3.03667 0
M  V30 2336 N 223.193 1.4272 -0.668489 0
M  V30 2337 C 224.421 2.05966 -0.196348 0
M  V30 2338 C 224.836 1.50191 1.14403 0
M  V30 2339 O 224.193 0.639208 1.7094 0
M  V30 2340 C 224.244 3.61314 -0.115815 0
M  V30 2341 O 223.965 4.1502 -1.40322 0
M  V30 2342 C 225.466 4.41663 0.380579 0
M  V30 2343 H 222.686 0.663954 -0.0969829 0
M  V30 2344 H 225.23 1.82966 -0.913446 0
M  V30 2345 H 223.385 3.83448 0.551931 0
M  V30 2346 H 223.799 5.08832 -1.27243 0
M  V30 2347 H 225.273 5.5065 0.385848 0
M  V30 2348 H 225.75 4.15792 1.41471 0
M  V30 2349 H 226.356 4.24534 -0.255209 0
M  V30 2350 N 224.671 0.411399 1.52136 0
M  V30 2351 C 225.581 -0.419774 2.30814 0
M  V30 2352 C 226.597 -1.0515 1.38634 0
M  V30 2353 O 227.773 -1.05252 1.71709 0
M  V30 2354 C 224.838 -1.52019 3.11594 0
M  V30 2355 C 223.899 -0.91129 4.19516 0
M  V30 2356 C 223.132 -1.95927 4.96436 0
M  V30 2357 O 223.355 -3.17775 4.73683 0
M  V30 2358 O 222.289 -1.56423 5.81219 0
M  V30 2359 H 226.115 0.221805 3.02889 0
M  V30 2360 H 223.7 0.174547 1.48377 0
M  V30 2361 H 225.582 -2.15898 3.61892 0
M  V30 2362 H 224.257 -2.14633 2.42311 0
M  V30 2363 H 223.164 -0.235157 3.7336 0
M  V30 2364 H 224.497 -0.32904 4.91099 0
M  V30 2365 N 226.149 -1.5696 0.141893 0
M  V30 2366 C 227.096 -2.16501 -0.799737 0
M  V30 2367 C 228.066 -1.09643 -1.24771 0
M  V30 2368 O 229.251 -1.3766 -1.32115 0
M  V30 2369 C 226.391 -2.78679 -2.03549 0
M  V30 2370 C 225.504 -3.99914 -1.6338 0
M  V30 2371 C 224.639 -4.50106 -2.82096 0
M  V30 2372 C 223.678 -5.63819 -2.38275 0
M  V30 2373 N 222.815 -6.08651 -3.49983 0
M  V30 2374 H 227.655 -2.96632 -0.285179 0
M  V30 2375 H 225.192 -1.46533 -0.129053 0
M  V30 2376 H 227.15 -3.1287 -2.75986 0
M  V30 2377 H 225.78 -2.012 -2.52425 0
M  V30 2378 H 224.832 -3.71735 -0.807279 0
M  V30 2379 H 226.144 -4.82311 -1.27192 0
M  V30 2380 H 225.298 -4.86325 -3.62729 0
M  V30 2381 H 224.037 -3.66706 -3.21525 0
M  V30 2382 H 223.042 -5.2718 -1.56081 0
M  V30 2383 H 224.267 -6.49 -1.99938 0
M  V30 2384 H 222.213 -5.28188 -3.89042 0
M  V30 2385 H 222.13 -6.85961 -3.17794 0
M  V30 2386 H 223.398 -6.49515 -4.30988 0
M  V30 2387 N 227.627 0.131896 -1.57047 0
M  V30 2388 C 228.557 1.16384 -2.02428 0
M  V30 2389 C 229.538 1.43936 -0.90644 0
M  V30 2390 O 230.723 1.54599 -1.17528 0
M  V30 2391 C 227.853 2.49328 -2.4177 0
M  V30 2392 C 226.807 2.36266 -3.56879 0
M  V30 2393 C 226.133 3.74057 -3.8208 0
M  V30 2394 C 227.433 1.834 -4.89042 0
M  V30 2395 H 229.127 0.786433 -2.88887 0
M  V30 2396 H 226.673 0.376855 -1.38981 0
M  V30 2397 H 228.626 3.21759 -2.7212 0
M  V30 2398 H 227.35 2.88934 -1.52266 0
M  V30 2399 H 226.009 1.66286 -3.26718 0
M  V30 2400 H 225.657 4.11125 -2.89803 0
M  V30 2401 H 225.357 3.66174 -4.59554 0
M  V30 2402 H 226.881 4.48012 -4.1487 0
M  V30 2403 H 228.295 2.45636 -5.18011 0
M  V30 2404 H 226.692 1.8637 -5.70426 0
M  V30 2405 H 227.762 0.790662 -4.7841 0
M  V30 2406 N 229.106 1.52395 0.401703 0
M  V30 2407 C 230.352 1.67065 1.14966 0
M  V30 2408 C 230.685 0.403052 1.89971 0
M  V30 2409 O 229.96 -0.598774 1.85054 0
M  V30 2410 C 230.243 2.8975 2.13815 0
M  V30 2411 C 230.096 4.26578 1.42658 0
M  V30 2412 C 231.415 3.07965 3.14397 0
M  V30 2413 H 228.534 0.607968 0.416587 0
M  V30 2414 H 231.176 1.84965 0.434511 0
M  V30 2415 H 229.326 2.74619 2.74803 0
M  V30 2416 H 230.998 4.53451 0.847329 0
M  V30 2417 H 229.241 4.27639 0.72849 0
M  V30 2418 H 229.912 5.08483 2.14823 0
M  V30 2419 H 232.388 3.22043 2.63491 0
M  V30 2420 H 231.264 3.95308 3.80819 0
M  V30 2421 H 231.525 2.21611 3.82545 0
M  V30 2422 N 230.584 -0.659388 1.43143 0
M  V30 2423 C 231.514 -1.78422 1.50625 0
M  V30 2424 C 232.495 -1.66216 0.361443 0
M  V30 2425 O 233.68 -1.85404 0.577834 0
M  V30 2426 C 230.81 -3.16815 1.42287 0
M  V30 2427 C 229.764 -3.43777 2.54954 0
M  V30 2428 C 229.09 -4.81905 2.31671 0
M  V30 2429 C 230.39 -3.39134 3.97222 0
M  V30 2430 H 232.084 -1.72417 2.44771 0
M  V30 2431 H 229.63 -0.828084 1.17808 0
M  V30 2432 H 231.583 -3.95253 1.46127 0
M  V30 2433 H 230.307 -3.23534 0.446435 0
M  V30 2434 H 228.966 -2.67707 2.50457 0
M  V30 2435 H 228.614 -4.85294 1.32284 0
M  V30 2436 H 228.314 -5.00906 3.07192 0
M  V30 2437 H 229.838 -5.62609 2.37284 0
M  V30 2438 H 231.252 -4.07518 4.03239 0
M  V30 2439 H 229.649 -3.69671 4.72719 0
M  V30 2440 H 230.719 -2.37426 4.22797 0
M  V30 2441 N 232.062 -1.29571 -0.897171 0
M  V30 2442 C 232.972 -1.16808 -2.03453 0
M  V30 2443 C 233.988 -0.0907471 -1.73763 0
M  V30 2444 O 235.164 -0.303312 -1.99103 0
M  V30 2445 C 232.229 -0.848264 -3.36163 0
M  V30 2446 C 231.29 -2.0097 -3.79354 0
M  V30 2447 C 230.523 -1.70505 -5.05731 0
M  V30 2448 O 230.746 -0.62718 -5.66941 0
M  V30 2449 O 229.68 -2.5538 -5.45036 0
M  V30 2450 H 233.506 -2.12325 -2.17144 0
M  V30 2451 H 231.091 -1.09047 -1.02123 0
M  V30 2452 H 232.973 -0.684581 -4.15802 0
M  V30 2453 H 231.648 0.0771071 -3.23608 0
M  V30 2454 H 230.555 -2.22863 -3.00471 0
M  V30 2455 H 231.888 -2.91636 -3.96496 0
M  V30 2456 N 233.54 1.10788 -1.12088 0
M  V30 2457 C 234.473 2.16237 -0.729168 0
M  V30 2458 C 235.451 1.60207 0.277921 0
M  V30 2459 O 236.635 1.87707 0.172737 0
M  V30 2460 C 233.762 3.38609 -0.0786848 0
M  V30 2461 C 232.808 4.13322 -1.05201 0
M  V30 2462 S 233.641 4.69371 -2.57781 0
M  V30 2463 C 234.797 5.95058 -1.94053 0
M  V30 2464 H 235.03 2.4913 -1.62239 0
M  V30 2465 H 232.563 1.22519 -0.939603 0
M  V30 2466 H 234.521 4.09473 0.290254 0
M  V30 2467 H 233.182 3.03962 0.791593 0
M  V30 2468 H 232.375 5.01051 -0.544433 0
M  V30 2469 H 231.977 3.48251 -1.36371 0
M  V30 2470 H 234.269 6.65278 -1.28107 0
M  V30 2471 H 235.212 6.50472 -2.79807 0
M  V30 2472 H 235.62 5.46918 -1.39787 0
M  V30 2473 N 235.018 0.912232 1.28515 0
M  V30 2474 C 236.266 0.543523 1.94654 0
M  V30 2475 C 236.587 -0.9155 1.72173 0
M  V30 2476 O 235.857 -1.64708 1.06058 0
M  V30 2477 H 234.437 0.198017 0.720277 0
M  V30 2478 H 237.099 1.16126 1.56527 0
M  V30 2479 H 236.195 0.736684 3.03281 0
M  V30 2480 N 236.496 -1.42363 0.676048 0
M  V30 2481 C 237.428 -2.29164 -0.0404605 0
M  V30 2482 C 238.441 -1.43747 -0.764245 0
M  V30 2483 O 239.63 -1.67453 -0.618195 0
M  V30 2484 C 236.73 -3.21196 -1.08103 0
M  V30 2485 C 235.903 -4.35273 -0.430812 0
M  V30 2486 C 234.962 -5.08017 -1.37133 0
M  V30 2487 O 233.988 -5.62494 -0.87116 0
M  V30 2488 N 235.19 -5.13647 -2.70456 0
M  V30 2489 H 237.955 -2.91298 0.704667 0
M  V30 2490 H 235.516 -1.53303 0.520559 0
M  V30 2491 H 237.508 -3.66728 -1.71152 0
M  V30 2492 H 236.078 -2.60505 -1.72788 0
M  V30 2493 H 235.298 -3.92372 0.379209 0
M  V30 2494 H 236.586 -5.08795 0.0221132 0
M  V30 2495 H 235.984 -4.708 -3.1363 0
M  V30 2496 H 234.541 -5.62821 -3.28749 0
M  V30 2497 N 237.974 -0.419461 -1.51915 0
M  V30 2498 C 239.251 0.211999 -1.94448 0
M  V30 2499 C 239.631 1.61703 -1.35703 0
M  V30 2500 O 238.979 2.22102 -0.536931 0
M  V30 2501 C 239.189 0.207872 -3.4838 0
M  V30 2502 C 240.537 0.422192 -4.22496 0
M  V30 2503 O 241.561 0.286778 -3.55044 0
M  V30 2504 O 240.42 0.690009 -5.42126 0
M  V30 2505 H 237.514 0.139586 -0.815135 0
M  V30 2506 H 240.06 -0.476151 -1.62883 0
M  V30 2507 H 238.832 -0.775102 -3.83546 0
M  V30 2508 H 238.455 0.939688 -3.86336 0
M  V30 2509 N 239.452 1.56882 -0.150215 0
M  V30 2510 C 240.402 2.13501 0.800071 0
M  V30 2511 C 241.386 1.06368 1.20726 0
M  V30 2512 O 242.578 1.32538 1.17314 0
M  V30 2513 C 239.707 2.76271 2.03787 0
M  V30 2514 C 238.793 3.90533 1.65364 0
M  V30 2515 N 239.184 4.96259 0.977794 0
M  V30 2516 C 237.482 4.013 1.94613 0
M  V30 2517 C 238.183 5.76286 0.791794 0
M  V30 2518 N 237.159 5.27163 1.32666 0
M  V30 2519 H 240.961 2.92615 0.274517 0
M  V30 2520 H 238.475 1.62319 0.0512144 0
M  V30 2521 H 240.472 3.15197 2.72867 0
M  V30 2522 H 239.132 1.98631 2.56857 0
M  V30 2523 H 240.143 5.13953 0.638193 0
M  V30 2524 H 236.82 3.3474 2.4951 0
M  V30 2525 H 238.21 6.71401 0.258894 0
M  V30 2526 N 240.93 -0.123565 1.57115 0
M  V30 2527 C 241.86 -1.15309 2.03042 0
M  V30 2528 C 242.841 -1.43454 0.914061 0
M  V30 2529 O 244.026 -1.53973 1.18347 0
M  V30 2530 C 241.156 -2.48043 2.43089 0
M  V30 2531 C 240.11 -2.3437 3.58127 0
M  V30 2532 C 239.436 -3.72026 3.84059 0
M  V30 2533 C 240.736 -1.80804 4.90007 0
M  V30 2534 H 242.43 -0.771102 2.893 0
M  V30 2535 H 239.976 -0.369479 1.39179 0
M  V30 2536 H 241.929 -3.20311 2.73823 0
M  V30 2537 H 240.653 -2.88122 1.53796 0
M  V30 2538 H 239.312 -1.64551 3.27595 0
M  V30 2539 H 238.96 -4.09582 2.91979 0
M  V30 2540 H 238.66 -3.63732 4.6149 0
M  V30 2541 H 240.184 -4.45806 4.1724 0
M  V30 2542 H 241.598 -2.42886 5.19307 0
M  V30 2543 H 239.995 -1.83343 5.71407 0
M  V30 2544 H 241.065 -0.76528 4.78823 0
M  V30 2545 N 242.408 -1.52605 -0.393616 0
M  V30 2546 C 243.656 -1.67093 -1.13685 0
M  V30 2547 C 243.977 -0.411011 -1.90619 0
M  V30 2548 O 243.247 0.574491 -1.87287 0
M  V30 2549 H 241.827 -0.615923 -0.422668 0
M  V30 2550 H 244.489 -1.89704 -0.447039 0
M  V30 2551 H 243.585 -2.51922 -1.84232 0
M  V30 2552 N 243.887 0.651787 -1.4349 0
M  V30 2553 C 245.164 1.40909 -1.35661 0
M  V30 2554 C 245.544 2.11099 -0.00511733 0
M  V30 2555 O 244.892 2.04892 1.0115 0
M  V30 2556 C 245.102 2.3926 -2.54078 0
M  V30 2557 C 246.45 3.03217 -2.97228 0
M  V30 2558 O 247.474 2.49588 -2.54135 0
M  V30 2559 O 246.333 4.00455 -3.71885 0
M  V30 2560 H 243.427 0.629625 -0.536191 0
M  V30 2561 H 245.973 0.678575 -1.55542 0
M  V30 2562 H 244.745 1.86352 -3.44076 0
M  V30 2563 H 244.368 3.1976 -2.36303 0
M  V30 2564 N 245.365 1.30045 0.890287 0
M  V30 2565 C 246.614 1.17929 1.63633 0
M  V30 2566 C 246.927 -0.266204 1.9378 0
M  V30 2567 O 248.133 -0.508804 2.6669 0
M  V30 2568 C 246.589 2.06317 2.94892 0
M  V30 2569 C 246.197 3.55745 2.72305 0
M  V30 2570 C 247.941 2.0295 3.72843 0
M  V30 2571 C 245.848 4.36205 3.99348 0
M  V30 2572 H 244.778 0.437782 0.613892 0
M  V30 2573 H 247.429 1.54754 0.986075 0
M  V30 2574 H 245.811 1.6237 3.61182 0
M  V30 2575 H 246.985 4.07805 2.1455 0
M  V30 2576 H 245.3 3.6088 2.07737 0
M  V30 2577 H 247.897 2.60319 4.67053 0
M  V30 2578 H 248.24 1.0117 4.0382 0
M  V30 2579 H 248.773 2.4499 3.13408 0
M  V30 2580 H 245.512 5.38659 3.73533 0
M  V30 2581 H 245.032 3.8891 4.56628 0
M  V30 2582 H 246.711 4.47362 4.67415 0
M  V30 2583 N 246.843 -1.10192 1.12674 0
M  V30 2584 C 247.793 -2.14754 0.765801 0
M  V30 2585 C 248.777 -1.59154 -0.236409 0
M  V30 2586 O 249.969 -1.76951 -0.0415261 0
M  V30 2587 C 247.098 -3.42563 0.224827 0
M  V30 2588 C 246.184 -4.05091 1.25548 0
M  V30 2589 N 246.575 -4.42287 2.4539 0
M  V30 2590 C 244.873 -4.32186 1.10142 0
M  V30 2591 C 245.574 -4.91441 3.11224 0
M  V30 2592 N 244.55 -4.88405 2.38666 0
M  V30 2593 H 248.352 -2.41309 1.67772 0
M  V30 2594 H 245.866 -1.27339 1.00789 0
M  V30 2595 H 247.863 -4.16868 -0.0519578 0
M  V30 2596 H 246.523 -3.17467 -0.681515 0
M  V30 2597 H 247.534 -4.33902 2.82754 0
M  V30 2598 H 244.211 -4.16735 0.252587 0
M  V30 2599 H 245.601 -5.29749 4.13298 0
M  V30 2600 N 248.321 -0.919034 -1.28029 0
M  V30 2601 C 249.251 -0.428581 -2.29533 0
M  V30 2602 C 250.232 0.50659 -1.62381 0
M  V30 2603 O 251.417 0.413195 -1.89753 0
M  V30 2604 C 248.547 0.327388 -3.45753 0
M  V30 2605 C 247.501 -0.519137 -4.2484 0
M  V30 2606 C 246.827 0.365486 -5.33449 0
M  V30 2607 C 248.127 -1.77914 -4.91064 0
M  V30 2608 H 249.821 -1.27687 -2.70807 0
M  V30 2609 H 247.367 -0.615428 -1.30186 0
M  V30 2610 H 249.32 0.681378 -4.15855 0
M  V30 2611 H 248.044 1.20963 -3.03374 0
M  V30 2612 H 246.703 -0.855717 -3.56473 0
M  V30 2613 H 246.351 1.24642 -4.87312 0
M  V30 2614 H 246.051 -0.197356 -5.87268 0
M  V30 2615 H 247.575 0.715241 -6.06396 0
M  V30 2616 H 248.989 -1.49374 -5.53498 0
M  V30 2617 H 247.386 -2.2848 -5.54903 0
M  V30 2618 H 248.456 -2.50382 -4.15255 0
M  V30 2619 N 249.799 1.42003 -0.683588 0
M  V30 2620 C 250.729 2.33487 -0.024866 0
M  V30 2621 C 251.71 1.51163 0.779975 0
M  V30 2622 O 252.895 1.79739 0.735362 0
M  V30 2623 C 250.025 3.3487 0.920836 0
M  V30 2624 C 248.979 4.27414 0.223958 0
M  V30 2625 C 248.305 5.19074 1.2832 0
M  V30 2626 C 249.605 5.14445 -0.90242 0
M  V30 2627 H 251.299 2.88819 -0.788921 0
M  V30 2628 H 248.845 1.38873 -0.38083 0
M  V30 2629 H 250.798 3.97787 1.39081 0
M  V30 2630 H 249.522 2.77861 1.71642 0
M  V30 2631 H 248.181 3.65904 -0.225864 0
M  V30 2632 H 247.829 4.58387 2.071 0
M  V30 2633 H 247.529 5.81822 0.821995 0
M  V30 2634 H 249.053 5.84867 1.75392 0
M  V30 2635 H 250.467 5.70998 -0.513272 0
M  V30 2636 H 248.864 5.86072 -1.28997 0
M  V30 2637 H 249.934 4.52322 -1.74737 0
M  V30 2638 N 251.277 0.427512 1.51691 0
M  V30 2639 C 252.502 -0.143601 2.06902 0
M  V30 2640 C 252.927 -1.36536 1.29382 0
M  V30 2641 O 252.285 -1.78289 0.329043 0
M  V30 2642 C 252.333 -0.454207 3.57728 0
M  V30 2643 O 251.437 -1.54228 3.82475 0
M  V30 2644 H 250.778 -0.00617128 0.663971 0
M  V30 2645 H 253.308 0.606014 1.95419 0
M  V30 2646 H 253.318 -0.707525 4.01818 0
M  V30 2647 H 251.993 0.438812 4.13579 0
M  V30 2648 H 250.57 -1.2797 3.50254 0
M  V30 2649 N 252.755 -1.56801 0.158532 0
M  V30 2650 C 253.665 -2.20916 -0.789518 0
M  V30 2651 C 254.681 -1.1969 -1.26294 0
M  V30 2652 O 255.857 -1.52308 -1.31773 0
M  V30 2653 C 252.922 -2.82727 -2.00665 0
M  V30 2654 C 251.983 -3.99114 -1.58134 0
M  V30 2655 C 251.216 -4.57968 -2.74045 0
M  V30 2656 O 251.439 -4.15704 -3.90572 0
M  V30 2657 O 250.373 -5.48047 -2.48855 0
M  V30 2658 H 254.199 -3.02464 -0.273681 0
M  V30 2659 H 251.784 -1.4924 -0.0690548 0
M  V30 2660 H 253.666 -3.21968 -2.71872 0
M  V30 2661 H 252.341 -2.04184 -2.51179 0
M  V30 2662 H 251.248 -3.64567 -0.839155 0
M  V30 2663 H 252.581 -4.79212 -1.12325 0
M  V30 2664 N 254.233 0.115231 -1.57178 0
M  V30 2665 C 255.163 1.1423 -2.03651 0
M  V30 2666 C 256.144 1.42967 -0.921655 0
M  V30 2667 O 257.329 1.53343 -1.19162 0
M  V30 2668 C 254.459 2.4675 -2.44401 0
M  V30 2669 C 253.413 2.32467 -3.59365 0
M  V30 2670 C 252.739 3.69984 -3.86026 0
M  V30 2671 C 254.039 1.78203 -4.90959 0
M  V30 2672 H 255.733 0.755749 -2.89705 0
M  V30 2673 H 253.279 0.362093 -1.39373 0
M  V30 2674 H 255.232 3.18854 -2.75517 0
M  V30 2675 H 253.956 2.87302 -1.55322 0
M  V30 2676 H 252.615 1.62811 -3.28463 0
M  V30 2677 H 252.263 4.08028 -2.94147 0
M  V30 2678 H 251.963 3.61279 -4.63412 0
M  V30 2679 H 253.487 4.43587 -4.19599 0
M  V30 2680 H 254.901 2.40128 -5.20587 0
M  V30 2681 H 253.298 1.8031 -5.72371 0
M  V30 2682 H 254.368 0.739876 -4.79222 0
M  V30 2683 N 255.711 1.52812 0.385517 0
M  V30 2684 C 256.674 1.77188 1.45386 0
M  V30 2685 C 257.674 0.641953 1.4743 0
M  V30 2686 O 258.864 0.910033 1.4854 0
M  V30 2687 C 255.996 1.87582 2.8465 0
M  V30 2688 H 257.189 2.72583 1.25054 0
M  V30 2689 H 254.742 1.43586 0.617467 0
M  V30 2690 H 255.477 0.941849 3.10322 0
M  V30 2691 H 255.262 2.69748 2.84567 0
M  V30 2692 H 256.752 2.08102 3.62054 0
M  V30 2693 N 257.189 -0.644168 1.43834 0
M  V30 2694 C 258.605 -0.960875 1.27434 0
M  V30 2695 C 258.805 -2.00499 0.200618 0
M  V30 2696 O 257.861 -2.49018 -0.417906 0
M  V30 2697 C 259.174 -1.43653 2.64167 0
M  V30 2698 C 260.722 -1.55271 2.71772 0
M  V30 2699 C 261.197 -2.06224 4.08944 0
M  V30 2700 N 262.688 -2.13513 4.11055 0
M  V30 2701 C 263.423 -2.54081 5.14033 0
M  V30 2702 N 262.919 -2.9388 6.27381 0
M  V30 2703 N 264.712 -2.54101 5.01387 0
M  V30 2704 H 256.863 0.0465779 2.12349 0
M  V30 2705 H 259.126 -0.0417638 0.94708 0
M  V30 2706 H 258.832 -0.743706 3.43747 0
M  V30 2707 H 258.706 -2.40993 2.90176 0
M  V30 2708 H 261.093 -2.23653 1.92519 0
M  V30 2709 H 261.174 -0.563395 2.49519 0
M  V30 2710 H 260.818 -1.38441 4.88668 0
M  V30 2711 H 260.748 -3.06003 4.28567 0
M  V30 2712 H 263.239 -1.85493 3.29242 0
M  V30 2713 H 263.552 -3.2361 7.01781 0
M  V30 2714 H 261.897 -2.91663 6.30839 0
M  V30 2715 H 265.088 -2.22391 4.11898 0
M  V30 2716 H 265.261 -2.85394 5.81768 0
M  V30 2717 N 258.668 -1.30515 -0.883378 0
M  V30 2718 C 260.079 -1.17509 -1.45081 0
M  V30 2719 C 260.43 0.223605 -1.94922 0
M  V30 2720 O 259.555 1.12041 -1.85137 0
M  V30 2721 C 260.15 -2.12715 -2.63701 0
M  V30 2722 C 258.709 -2.03682 -3.16529 0
M  V30 2723 C 257.856 -2.02706 -1.89224 0
M  V30 2724 H 260.807 -1.42762 -0.693165 0
M  V30 2725 H 260.828 -1.70891 -3.39965 0
M  V30 2726 H 260.34 -3.14505 -2.27395 0
M  V30 2727 H 258.441 -1.05039 -3.57488 0
M  V30 2728 H 258.554 -2.92146 -3.7972 0
M  V30 2729 H 256.918 -1.4753 -2.07622 0
M  V30 2730 H 257.701 -3.06229 -1.55174 0
M  V30 2731 N 260.146 1.09593 -1.13257 0
M  V30 2732 C 261.093 2.1618 -0.808381 0
M  V30 2733 C 262.063 1.64517 0.228754 0
M  V30 2734 O 263.248 1.9053 0.101381 0
M  V30 2735 C 260.388 3.43973 -0.278675 0
M  V30 2736 C 259.501 4.09545 -1.37466 0
M  V30 2737 C 258.636 5.25088 -0.803479 0
M  V30 2738 C 257.675 5.82579 -1.87799 0
M  V30 2739 N 256.812 6.89486 -1.32488 0
M  V30 2740 H 261.652 2.43254 -1.72138 0
M  V30 2741 H 259.189 1.19392 -0.859294 0
M  V30 2742 H 261.147 4.17174 0.0465583 0
M  V30 2743 H 259.777 3.17223 0.597459 0
M  V30 2744 H 258.829 3.34226 -1.81652 0
M  V30 2745 H 260.141 4.48307 -2.18684 0
M  V30 2746 H 259.295 6.05178 -0.429427 0
M  V30 2747 H 258.034 4.87684 0.0397956 0
M  V30 2748 H 257.039 5.01152 -2.26113 0
M  V30 2749 H 258.264 6.22045 -2.72463 0
M  V30 2750 H 256.21 6.54064 -0.503575 0
M  V30 2751 H 256.127 7.27007 -2.07355 0
M  V30 2752 H 257.395 7.73336 -0.978336 0
M  V30 2753 N 261.624 0.925811 1.2754 0
M  V30 2754 C 262.852 0.581509 1.9856 0
M  V30 2755 C 263.267 -0.840041 1.69082 0
M  V30 2756 O 262.624 -1.55805 0.950312 0
M  V30 2757 C 262.675 0.795589 3.52637 0
M  V30 2758 O 262.396 2.16121 3.81082 0
M  V30 2759 C 263.897 0.459744 4.4091 0
M  V30 2760 H 261.117 0.220538 0.633722 0
M  V30 2761 H 263.661 1.24232 1.6244 0
M  V30 2762 H 261.816 0.18161 3.86974 0
M  V30 2763 H 262.23 2.2098 4.75676 0
M  V30 2764 H 263.704 0.660244 5.48037 0
M  V30 2765 H 264.181 -0.604625 4.35018 0
M  V30 2766 H 264.787 1.05178 4.12089 0
M  V30 2767 N 263.102 -1.41638 0.69111 0
M  V30 2768 C 264.065 -2.29178 0.0319786 0
M  V30 2769 C 265.065 -1.44153 -0.712496 0
M  V30 2770 O 266.255 -1.65354 -0.548053 0
M  V30 2771 C 263.387 -3.26952 -0.965161 0
M  V30 2772 H 264.58 -2.88959 0.802681 0
M  V30 2773 H 262.133 -1.4955 0.454356 0
M  V30 2774 H 262.868 -2.72142 -1.76378 0
M  V30 2775 H 262.653 -3.89685 -0.434522 0
M  V30 2776 H 264.143 -3.92561 -1.42428 0
M  V30 2777 N 264.58 -0.43555 -1.51462 0
M  V30 2778 C 265.829 0.133007 -2.01261 0
M  V30 2779 C 266.142 1.43942 -1.32439 0
M  V30 2780 O 267.348 2.09081 -1.73198 0
M  V30 2781 C 265.804 0.287581 -3.58749 0
M  V30 2782 C 265.412 -1.00829 -4.36506 0
M  V30 2783 C 267.156 0.810004 -4.167 0
M  V30 2784 C 265.063 -0.819454 -5.85695 0
M  V30 2785 H 263.993 0.0534822 -0.752101 0
M  V30 2786 H 266.644 -0.565038 -1.74584 0
M  V30 2787 H 265.026 1.04859 -3.81865 0
M  V30 2788 H 266.2 -1.77749 -4.25138 0
M  V30 2789 H 264.515 -1.45911 -3.89999 0
M  V30 2790 H 267.112 0.967743 -5.2587 0
M  V30 2791 H 267.455 1.79196 -3.75758 0
M  V30 2792 H 267.988 0.107357 -3.97655 0
M  V30 2793 H 264.727 -1.77374 -6.31046 0
M  V30 2794 H 264.247 -0.0900208 -5.99732 0
M  V30 2795 H 265.926 -0.471949 -6.45276 0
M  V30 2796 N 266.058 1.56714 -0.166846 0
M  V30 2797 C 267.304 1.97039 0.479962 0
M  V30 2798 C 267.637 1.05264 1.63197 0
M  V30 2799 O 266.912 0.0988833 1.94248 0
M  V30 2800 C 267.195 3.46867 0.967212 0
M  V30 2801 C 267.048 4.49421 -0.18466 0
M  V30 2802 C 268.367 3.9968 1.84238 0
M  V30 2803 H 265.486 0.71641 0.172992 0
M  V30 2804 H 268.128 1.8832 -0.252079 0
M  V30 2805 H 266.278 3.54428 1.59101 0
M  V30 2806 H 267.95 4.53924 -0.821621 0
M  V30 2807 H 266.193 4.25573 -0.840837 0
M  V30 2808 H 266.864 5.51644 0.198317 0
M  V30 2809 H 269.34 3.94723 1.31655 0
M  V30 2810 H 268.216 5.04941 2.15234 0
M  V30 2811 H 268.477 3.43226 2.78654 0
M  V30 2812 N 267.536 -0.106894 1.57237 0
M  V30 2813 C 268.764 -0.826389 1.8968 0
M  V30 2814 C 269.179 -1.72856 0.759353 0
M  V30 2815 O 268.536 -1.80503 -0.269263 0
M  V30 2816 C 268.587 -1.64967 3.21665 0
M  V30 2817 O 268.308 -0.783804 4.31031 0
M  V30 2818 C 269.809 -2.47326 3.67892 0
M  V30 2819 H 267.029 -0.236927 0.627779 0
M  V30 2820 H 269.573 -0.0876593 2.04312 0
M  V30 2821 H 267.728 -2.34103 3.08666 0
M  V30 2822 H 268.142 -1.35284 5.06753 0
M  V30 2823 H 269.616 -3.00604 4.6297 0
M  V30 2824 H 270.093 -3.25247 2.95146 0
M  V30 2825 H 270.699 -1.83411 3.83719 0
M  V30 2826 N 269.014 -1.53014 -0.377408 0
M  V30 2827 C 269.944 -1.81589 -1.46791 0
M  V30 2828 C 270.925 -0.668622 -1.56408 0
M  V30 2829 O 272.11 -0.917337 -1.71168 0
M  V30 2830 C 269.24 -1.99519 -2.8427 0
M  V30 2831 C 268.194 -3.15249 -2.89486 0
M  V30 2832 C 267.52 -3.18451 -4.29527 0
M  V30 2833 C 268.82 -4.54084 -2.58079 0
M  V30 2834 H 270.514 -2.7291 -1.23127 0
M  V30 2835 H 268.06 -1.31319 -0.590883 0
M  V30 2836 H 270.013 -2.18092 -3.60575 0
M  V30 2837 H 268.737 -1.04897 -3.09296 0
M  V30 2838 H 267.396 -2.96477 -2.15631 0
M  V30 2839 H 267.044 -2.2149 -4.5161 0
M  V30 2840 H 266.744 -3.962 -4.33934 0
M  V30 2841 H 268.268 -3.39193 -5.07721 0
M  V30 2842 H 269.682 -4.72899 -3.24098 0
M  V30 2843 H 268.079 -5.33987 -2.7382 0
M  V30 2844 H 269.149 -4.60006 -1.53372 0
M  V30 2845 N 270.492 0.636531 -1.44174 0
M  V30 2846 C 271.738 1.39826 -1.4689 0
M  V30 2847 C 272.071 1.93947 -0.0990585 0
M  V30 2848 O 271.346 1.73325 0.882544 0
M  V30 2849 C 271.629 2.56751 -2.5249 0
M  V30 2850 C 271.482 2.08014 -3.98811 0
M  V30 2851 C 272.801 3.58946 -2.54649 0
M  V30 2852 H 269.92 0.507075 -0.53483 0
M  V30 2853 H 272.562 0.720188 -1.75822 0
M  V30 2854 H 270.712 3.14597 -2.2795 0
M  V30 2855 H 272.384 1.5504 -4.34466 0
M  V30 2856 H 270.627 1.39242 -4.10846 0
M  V30 2857 H 271.298 2.92169 -4.68339 0
M  V30 2858 H 273.774 3.1089 -2.76563 0
M  V30 2859 H 272.65 4.38286 -3.3045 0
M  V30 2860 H 272.911 4.12655 -1.58646 0
M  V30 2861 N 271.97 1.30982 0.876444 0
M  V30 2862 C 273.218 1.20058 1.62575 0
M  V30 2863 C 273.539 -0.242947 1.93481 0
M  V30 2864 O 272.809 -1.1619 1.57724 0
M  V30 2865 H 271.389 0.44135 0.602677 0
M  V30 2866 H 274.051 1.64222 1.04962 0
M  V30 2867 H 273.147 1.76762 2.57219 0
M  V30 2868 N 273.449 -1.08991 1.13837 0
M  V30 2869 C 274.359 -2.19301 0.833333 0
M  V30 2870 C 275.375 -1.73026 -0.183847 0
M  V30 2871 O 276.551 -2.01395 -0.0138092 0
M  V30 2872 C 273.616 -3.45323 0.308651 0
M  V30 2873 C 272.677 -4.06255 1.38764 0
M  V30 2874 C 271.91 -5.26262 0.887896 0
M  V30 2875 O 272.133 -5.69747 -0.27287 0
M  V30 2876 O 271.067 -5.78435 1.66421 0
M  V30 2877 H 274.893 -2.47854 1.75506 0
M  V30 2878 H 272.478 -1.18012 0.916166 0
M  V30 2879 H 274.36 -4.21394 0.0216739 0
M  V30 2880 H 273.035 -3.18362 -0.585431 0
M  V30 2881 H 271.942 -3.318 1.72799 0
M  V30 2882 H 273.275 -4.37452 2.25602 0
M  V30 2883 N 274.927 -0.932562 -1.27047 0
M  V30 2884 C 275.89 -0.440064 -2.24936 0
M  V30 2885 C 276.89 0.444071 -1.54547 0
M  V30 2886 O 278.08 0.244465 -1.72476 0
M  V30 2887 C 275.212 0.36678 -3.38921 0
M  V30 2888 H 276.405 -1.305 -2.70018 0
M  V30 2889 H 273.958 -0.713707 -1.39054 0
M  V30 2890 H 274.693 1.25033 -2.99228 0
M  V30 2891 H 274.478 -0.267204 -3.91188 0
M  V30 2892 H 275.968 0.701567 -4.11665 0
M  V30 2893 N 276.405 1.4127 -0.698611 0
M  V30 2894 C 277.355 2.27997 -0.0119836 0
M  V30 2895 C 278.339 1.42363 0.749765 0
M  V30 2896 O 279.531 1.65607 0.624758 0
M  V30 2897 C 276.66 3.30702 0.921458 0
M  V30 2898 C 275.746 4.23814 0.155796 0
M  V30 2899 N 276.137 4.98572 -0.852015 0
M  V30 2900 C 274.435 4.44284 0.390836 0
M  V30 2901 C 275.136 5.66744 -1.3106 0
M  V30 2902 N 274.112 5.39867 -0.635944 0
M  V30 2903 H 277.914 2.83232 -0.784649 0
M  V30 2904 H 275.428 1.53518 -0.529711 0
M  V30 2905 H 277.425 3.91661 1.42854 0
M  V30 2906 H 276.085 2.77028 1.69369 0
M  V30 2907 H 277.096 5.03024 -1.23235 0
M  V30 2908 H 273.773 4.01614 1.14071 0
M  V30 2909 H 275.163 6.36672 -2.14707 0
M  V30 2910 N 277.883 0.443576 1.51229 0
M  V30 2911 C 278.813 -0.355142 2.30783 0
M  V30 2912 C 279.794 -1.0154 1.36468 0
M  V30 2913 O 280.979 -1.01785 1.65389 0
M  V30 2914 C 278.109 -1.45312 3.15439 0
M  V30 2915 C 277.063 -0.916002 4.18083 0
M  V30 2916 C 276.389 -2.1102 4.91299 0
M  V30 2917 C 277.689 0.0538602 5.22272 0
M  V30 2918 H 279.383 0.308767 2.97804 0
M  V30 2919 H 276.929 0.149937 1.43217 0
M  V30 2920 H 278.882 -2.01914 3.69876 0
M  V30 2921 H 277.606 -2.14541 2.46252 0
M  V30 2922 H 276.265 -0.372145 3.64706 0
M  V30 2923 H 275.913 -2.78882 4.18609 0
M  V30 2924 H 275.613 -1.75717 5.60712 0
M  V30 2925 H 277.137 -2.68164 5.48562 0
M  V30 2926 H 278.551 -0.422069 5.71744 0
M  V30 2927 H 276.948 0.319776 5.99247 0
M  V30 2928 H 278.018 0.98858 4.74716 0
M  V30 2929 N 279.361 -1.56624 0.175154 0
M  V30 2930 C 280.324 -2.16934 -0.739738 0
M  V30 2931 C 281.324 -1.11842 -1.15533 0
M  V30 2932 O 282.514 -1.37335 -1.07167 0
M  V30 2933 C 279.646 -2.75531 -2.00738 0
M  V30 2934 H 280.839 -2.99131 -0.214639 0
M  V30 2935 H 278.392 -1.56123 -0.0744197 0
M  V30 2936 H 279.127 -1.97078 -2.57548 0
M  V30 2937 H 278.912 -3.52444 -1.71831 0
M  V30 2938 H 280.402 -3.21904 -2.66021 0
M  V30 2939 N 280.839 0.0985539 -1.57292 0
M  V30 2940 C 282.086 0.802678 -1.85912 0
M  V30 2941 C 282.414 1.78901 -0.763186 0
M  V30 2942 O 281.669 1.94178 0.243559 0
M  V30 2943 C 281.968 1.56927 -3.21105 0
M  V30 2944 C 281.634 0.725376 -4.45027 0
M  V30 2945 C 280.296 0.492726 -4.78671 0
M  V30 2946 C 282.648 0.138493 -5.21016 0
M  V30 2947 C 279.976 -0.336727 -5.85733 0
M  V30 2948 C 282.328 -0.678264 -6.28953 0
M  V30 2949 C 280.992 -0.921039 -6.61115 0
M  V30 2950 H 280.262 0.293721 -0.680301 0
M  V30 2951 H 282.909 0.0642841 -1.91392 0
M  V30 2952 H 281.214 2.37914 -3.11294 0
M  V30 2953 H 282.911 2.11841 -3.40477 0
M  V30 2954 H 279.501 0.916815 -4.18679 0
M  V30 2955 H 283.685 0.305404 -4.95359 0
M  V30 2956 H 278.941 -0.533836 -6.09065 0
M  V30 2957 H 283.115 -1.1399 -6.87007 0
M  V30 2958 H 280.742 -1.56556 -7.43905 0
M  V30 2959 N 282.317 1.53212 0.369288 0
M  V30 2960 C 283.564 1.69215 1.11232 0
M  V30 2961 C 283.892 0.442048 1.8941 0
M  V30 2962 O 283.147 -0.575944 1.87033 0
M  V30 2963 C 283.446 2.89101 2.10132 0
M  V30 2964 C 283.112 4.25758 1.48463 0
M  V30 2965 C 281.774 4.6292 1.31372 0
M  V30 2966 C 284.126 5.10757 1.03811 0
M  V30 2967 C 281.454 5.82722 0.68207 0
M  V30 2968 C 283.806 6.31201 0.420487 0
M  V30 2969 C 282.47 6.67079 0.237038 0
M  V30 2970 H 281.74 0.619201 0.407027 0
M  V30 2971 H 284.387 1.87391 0.394552 0
M  V30 2972 H 282.692 2.65421 2.88199 0
M  V30 2973 H 284.389 2.98676 2.6757 0
M  V30 2974 H 280.979 3.96494 1.62758 0
M  V30 2975 H 285.163 4.82599 1.1581 0
M  V30 2976 H 280.419 6.09113 0.528316 0
M  V30 2977 H 284.593 6.96368 0.0662874 0
M  V30 2978 H 282.22 7.59774 -0.254477 0
M  V30 2979 N 283.795 -0.628877 1.44509 0
M  V30 2980 C 284.742 -1.74074 1.51549 0
M  V30 2981 C 285.712 -1.62084 0.363021 0
M  V30 2982 O 286.897 -1.81975 0.573567 0
M  V30 2983 C 284.037 -3.12328 1.46784 0
M  V30 2984 C 283.15 -3.35277 2.72422 0
M  V30 2985 C 282.285 -4.63515 2.59475 0
M  V30 2986 C 281.324 -4.7965 3.80266 0
M  V30 2987 N 280.461 -5.99168 3.65981 0
M  V30 2988 H 285.301 -1.67392 2.46544 0
M  V30 2989 H 282.838 -0.816527 1.22357 0
M  V30 2990 H 284.796 -3.92286 1.42012 0
M  V30 2991 H 283.426 -3.18018 0.553544 0
M  V30 2992 H 282.478 -2.49242 2.87372 0
M  V30 2993 H 283.79 -3.43078 3.62076 0
M  V30 2994 H 282.944 -5.51638 2.52548 0
M  V30 2995 H 281.683 -4.58076 1.67384 0
M  V30 2996 H 280.688 -3.89957 3.87574 0
M  V30 2997 H 281.913 -4.86902 4.73395 0
M  V30 2998 H 279.859 -5.94814 2.76644 0
M  V30 2999 H 279.776 -6.08035 4.49254 0
M  V30 3000 H 281.044 -6.89846 3.6295 0
M  V30 3001 N 285.273 -1.31445 -0.869486 0
M  V30 3002 C 286.55 -1.11795 -1.60503 0
M  V30 3003 C 286.93 0.327168 -2.08549 0
M  V30 3004 O 286.278 1.32135 -1.8642 0
M  V30 3005 C 286.488 -2.13258 -2.76265 0
M  V30 3006 C 287.836 -2.45805 -3.46215 0
M  V30 3007 O 288.86 -2.11688 -2.86473 0
M  V30 3008 O 287.719 -3.04228 -4.5399 0
M  V30 3009 H 284.813 -0.430421 -0.706163 0
M  V30 3010 H 287.359 -1.42925 -0.914907 0
M  V30 3011 H 286.131 -3.10461 -2.3818 0
M  V30 3012 H 285.754 -1.83035 -3.52964 0
M  V30 3013 N 286.751 1.08385 -1.14413 0
M  V30 3014 C 288.167 1.32844 -0.884563 0
M  V30 3015 C 288.367 1.95841 0.474181 0
M  V30 3016 O 287.423 2.21158 1.21842 0
M  V30 3017 C 288.736 2.22978 -2.01745 0
M  V30 3018 C 290.284 2.36458 -2.05077 0
M  V30 3019 C 290.759 3.29934 -3.1766 0
M  V30 3020 N 292.25 3.37511 -3.17239 0
M  V30 3021 C 292.985 4.09871 -4.0099 0
M  V30 3022 N 292.481 4.84936 -4.94781 0
M  V30 3023 N 294.274 4.05704 -3.89051 0
M  V30 3024 H 286.425 0.658756 -2.01926 0
M  V30 3025 H 288.688 0.352821 -0.879899 0
M  V30 3026 H 288.394 1.83934 -2.99769 0
M  V30 3027 H 288.268 3.23441 -1.94077 0
M  V30 3028 H 290.655 2.7476 -1.0766 0
M  V30 3029 H 290.736 1.35736 -2.16816 0
M  V30 3030 H 290.38 2.92352 -4.15322 0
M  V30 3031 H 290.31 4.30584 -3.03158 0
M  V30 3032 H 292.801 2.83996 -2.49308 0
M  V30 3033 H 293.114 5.37612 -5.55151 0
M  V30 3034 H 291.459 4.83988 -4.98779 0
M  V30 3035 H 294.65 3.46167 -3.15097 0
M  V30 3036 H 294.823 4.61834 -4.54547 0
M  V30 3037 N 288.23 0.939286 1.26551 0
M  V30 3038 C 289.455 0.602008 1.98471 0
M  V30 3039 C 289.88 -0.815624 1.69497 0
M  V30 3040 O 289.238 -1.54912 0.941905 0
M  V30 3041 C 289.286 0.848407 3.50477 0
M  V30 3042 O 288.39 -0.0804009 4.12322 0
M  V30 3043 H 287.731 0.23049 0.622712 0
M  V30 3044 H 290.261 1.2617 1.61066 0
M  V30 3045 H 290.271 0.768553 4.00696 0
M  V30 3046 H 288.946 1.88171 3.70897 0
M  V30 3047 H 287.523 0.0503508 3.72866 0
M  V30 3048 N 289.708 -1.40897 0.706093 0
M  V30 3049 C 290.618 -2.3455 0.0482286 0
M  V30 3050 C 291.634 -1.56796 -0.754396 0
M  V30 3051 O 292.81 -1.89228 -0.689538 0
M  V30 3052 C 289.875 -3.35625 -0.869303 0
M  V30 3053 C 288.936 -4.29261 -0.0576994 0
M  V30 3054 C 288.169 -5.25508 -0.931531 0
M  V30 3055 O 288.392 -5.27472 -2.17092 0
M  V30 3056 O 287.326 -6.00727 -0.375587 0
M  V30 3057 H 291.152 -2.92407 0.820476 0
M  V30 3058 H 288.737 -1.4193 0.4665 0
M  V30 3059 H 290.619 -3.97635 -1.39514 0
M  V30 3060 H 289.294 -2.80196 -1.62086 0
M  V30 3061 H 288.201 -3.70566 0.512988 0
M  V30 3062 H 289.534 -4.87817 0.655426 0
M  V30 3063 N 291.186 -0.45159 -1.50991 0
M  V30 3064 C 292.435 0.111653 -2.01391 0
M  V30 3065 C 292.748 1.42529 -1.33959 0
M  V30 3066 O 293.954 2.07232 -1.75405 0
M  V30 3067 C 292.41 0.249514 -3.59034 0
M  V30 3068 C 292.018 -1.05453 -4.35412 0
M  V30 3069 C 293.762 0.765762 -4.17536 0
M  V30 3070 C 291.669 -0.881529 -5.84793 0
M  V30 3071 H 290.599 0.0455022 -0.752626 0
M  V30 3072 H 293.25 -0.583524 -1.73975 0
M  V30 3073 H 291.632 1.00803 -3.82955 0
M  V30 3074 H 292.806 -1.82248 -4.23229 0
M  V30 3075 H 291.121 -1.50039 -3.88429 0
M  V30 3076 H 293.718 0.911913 -5.26866 0
M  V30 3077 H 294.061 1.75201 -3.77638 0
M  V30 3078 H 294.594 0.0651744 -3.97747 0
M  V30 3079 H 291.333 -1.84057 -6.29129 0
M  V30 3080 H 290.853 -0.153625 -5.99603 0
M  V30 3081 H 292.532 -0.540363 -6.4474 0
M  V30 3082 N 292.664 1.56529 -0.183458 0
M  V30 3083 C 293.627 2.17324 0.728223 0
M  V30 3084 C 294.627 1.12453 1.14939 0
M  V30 3085 O 295.817 1.37902 1.06437 0
M  V30 3086 C 292.949 2.76591 1.99274 0
M  V30 3087 H 294.142 2.99241 0.198772 0
M  V30 3088 H 291.695 1.5616 0.0661391 0
M  V30 3089 H 292.43 1.98441 2.56499 0
M  V30 3090 H 292.215 3.5335 1.69959 0
M  V30 3091 H 293.705 3.23311 2.6431 0
M  V30 3092 N 294.142 -0.090211 1.57342 0
M  V30 3093 C 295.089 -1.10909 2.02405 0
M  V30 3094 C 296.059 -1.39523 0.901252 0
M  V30 3095 O 297.244 -1.50903 1.1676 0
M  V30 3096 C 294.384 -2.42277 2.45755 0
M  V30 3097 C 293.497 -2.20352 3.71576 0
M  V30 3098 C 292.632 -3.45154 4.03785 0
M  V30 3099 C 291.671 -3.18512 5.22701 0
M  V30 3100 N 290.808 -4.35593 5.50639 0
M  V30 3101 H 295.648 -0.71782 2.89225 0
M  V30 3102 H 293.185 -0.342901 1.43048 0
M  V30 3103 H 295.143 -3.18951 2.68935 0
M  V30 3104 H 293.773 -2.79242 1.61938 0
M  V30 3105 H 292.825 -1.34458 3.55844 0
M  V30 3106 H 294.137 -1.96661 4.58395 0
M  V30 3107 H 293.291 -4.30233 4.27767 0
M  V30 3108 H 292.03 -3.71904 3.15498 0
M  V30 3109 H 291.035 -2.31827 4.98534 0
M  V30 3110 H 292.26 -2.93103 6.12591 0
M  V30 3111 H 290.206 -4.6241 4.6531 0
M  V30 3112 H 290.123 -4.1511 6.31838 0
M  V30 3113 H 291.391 -5.21723 5.7916 0
M  V30 3114 N 295.62 -1.53406 -0.361157 0
M  V30 3115 C 296.868 -1.69467 -1.10115 0
M  V30 3116 C 297.189 -0.451352 -1.89705 0
M  V30 3117 O 296.459 0.534636 -1.88463 0
M  V30 3118 H 295.039 -0.624749 -0.409508 0
M  V30 3119 H 297.701 -1.90609 -0.406699 0
M  V30 3120 H 296.797 -2.55774 -1.78847 0
M  V30 3121 N 297.098 0.621204 -1.44841 0
M  V30 3122 C 298.045 1.73267 -1.5247 0
M  V30 3123 C 299.015 1.6189 -0.371611 0
M  V30 3124 O 300.2 1.81668 -0.58321 0
M  V30 3125 C 297.34 3.11545 -1.48438 0
M  V30 3126 C 296.453 3.33827 -2.74196 0
M  V30 3127 C 295.588 4.62133 -2.61929 0
M  V30 3128 C 294.627 4.77627 -3.82804 0
M  V30 3129 N 293.764 5.97219 -3.69153 0
M  V30 3130 H 298.604 1.66082 -2.47428 0
M  V30 3131 H 296.141 0.810026 -1.22788 0
M  V30 3132 H 298.099 3.91528 -1.4409 0
M  V30 3133 H 296.729 3.1772 -0.570402 0
M  V30 3134 H 295.781 2.47715 -2.88689 0
M  V30 3135 H 297.093 3.41153 -3.6389 0
M  V30 3136 H 296.247 5.50291 -2.5547 0
M  V30 3137 H 294.986 4.57182 -1.69811 0
M  V30 3138 H 293.991 3.87896 -3.89637 0
M  V30 3139 H 295.216 4.84385 -4.75971 0
M  V30 3140 H 293.162 5.93339 -2.79794 0
M  V30 3141 H 293.079 6.05644 -4.52472 0
M  V30 3142 H 294.347 6.87912 -3.66603 0
M  V30 3143 N 298.576 1.31904 0.862503 0
M  V30 3144 C 299.509 1.14514 1.97388 0
M  V30 3145 C 300.487 0.0466493 1.62533 0
M  V30 3146 O 301.671 0.204484 1.87388 0
M  V30 3147 C 298.798 0.751347 3.30261 0
M  V30 3148 C 297.844 1.85395 3.84098 0
M  V30 3149 S 298.677 3.46081 4.08642 0
M  V30 3150 C 299.833 3.08655 5.44502 0
M  V30 3151 H 300.066 2.08597 2.11836 0
M  V30 3152 H 297.599 1.16475 1.01356 0
M  V30 3153 H 299.557 0.530901 4.07052 0
M  V30 3154 H 298.218 -0.170493 3.13637 0
M  V30 3155 H 297.411 1.53122 4.80177 0
M  V30 3156 H 297.013 2.02984 3.14123 0
M  V30 3157 H 299.305 2.58012 6.26447 0
M  V30 3158 H 300.248 4.03726 5.81731 0
M  V30 3159 H 300.656 2.45891 5.08132 0
M  V30 3160 N 300.054 -1.07777 1.14986 0
M  V30 3161 C 300.986 -2.14769 0.800436 0
M  V30 3162 C 301.999 -1.61739 -0.185595 0
M  V30 3163 O 303.188 -1.78462 0.0370358 0
M  V30 3164 C 300.288 -3.38481 0.168533 0
M  V30 3165 C 299.461 -4.20876 1.1909 0
M  V30 3166 C 298.52 -5.22976 0.581575 0
M  V30 3167 O 297.546 -5.55388 1.24633 0
M  V30 3168 N 298.748 -5.76976 -0.638706 0
M  V30 3169 H 301.513 -2.45348 1.72118 0
M  V30 3170 H 299.074 -1.23645 1.04515 0
M  V30 3171 H 301.066 -4.03916 -0.251764 0
M  V30 3172 H 299.636 -3.05651 -0.655467 0
M  V30 3173 H 298.856 -3.51322 1.78791 0
M  V30 3174 H 300.144 -4.7274 1.88133 0
M  V30 3175 H 299.542 -5.52886 -1.19723 0
M  V30 3176 H 298.099 -6.44061 -1.00142 0
M  V30 3177 N 301.532 -0.945985 -1.26051 0
M  V30 3178 C 302.781 -0.591836 -1.92822 0
M  V30 3179 C 303.094 0.873956 -1.7499 0
M  V30 3180 O 304.3 1.33769 -2.36259 0
M  V30 3181 C 302.756 -1.00776 -3.45503 0
M  V30 3182 C 302.364 -2.4955 -3.7206 0
M  V30 3183 C 304.108 -0.725735 -4.1825 0
M  V30 3184 C 302.015 -2.84988 -5.18205 0
M  V30 3185 H 300.945 -0.217635 -0.721908 0
M  V30 3186 H 303.596 -1.14927 -1.43052 0
M  V30 3187 H 301.978 -0.378812 -3.94184 0
M  V30 3188 H 303.152 -3.1739 -3.34066 0
M  V30 3189 H 301.467 -2.75133 -3.12555 0
M  V30 3190 H 304.064 -0.966771 -5.25887 0
M  V30 3191 H 304.407 0.337639 -4.14929 0
M  V30 3192 H 304.94 -1.31463 -3.7545 0
M  V30 3193 H 301.679 -3.90307 -5.26631 0
M  V30 3194 H 301.199 -2.21813 -5.57278 0
M  V30 3195 H 302.878 -2.73712 -5.86252 0
M  V30 3196 N 303.011 1.40521 -0.713556 0
M  V30 3197 C 303.974 2.29098 -0.0684347 0
M  V30 3198 C 304.974 1.45268 0.689472 0
M  V30 3199 O 306.164 1.66205 0.521677 0
M  V30 3200 C 303.296 3.28446 0.913024 0
M  V30 3201 H 304.489 2.87645 -0.84855 0
M  V30 3202 H 302.042 1.48809 -0.47809 0
M  V30 3203 H 302.777 2.74913 1.72027 0
M  V30 3204 H 302.562 3.90327 0.372472 0
M  V30 3205 H 304.052 3.94777 1.36165 0
M  V30 3206 N 304.489 0.459591 1.5075 0
M  V30 3207 C 305.766 -0.160371 1.94941 0
M  V30 3208 C 306.146 -1.58048 1.39943 0
M  V30 3209 O 305.494 -2.206 0.595629 0
M  V30 3210 C 305.704 -0.115432 3.48809 0
M  V30 3211 C 307.052 -0.310026 4.23467 0
M  V30 3212 O 308.076 -0.192543 3.55679 0
M  V30 3213 O 306.935 -0.546031 5.43765 0
M  V30 3214 H 304.029 -0.117925 0.818549 0
M  V30 3215 H 306.575 0.519169 1.61563 0
M  V30 3216 H 305.347 0.87652 3.81357 0
M  V30 3217 H 304.97 -0.836928 3.88692 0
M  V30 3218 N 305.967 -1.56429 0.191757 0
M  V30 3219 C 307.215 -1.97095 -0.447006 0
M  V30 3220 C 307.536 -1.07967 -1.62383 0
M  V30 3221 O 306.806 -0.150248 -1.95323 0
M  V30 3222 H 305.386 -0.727832 -0.168135 0
M  V30 3223 H 308.048 -1.92911 0.27771 0
M  V30 3224 H 307.144 -3.01848 -0.793371 0
M  V30 3225 N 307.445 0.0818655 -1.57387 0
M  V30 3226 C 308.378 1.12986 -1.98266 0
M  V30 3227 C 309.356 1.38123 -0.857954 0
M  V30 3228 O 310.54 1.51663 -1.1194 0
M  V30 3229 C 307.667 2.47632 -2.31076 0
M  V30 3230 C 306.713 2.38693 -3.53452 0
M  V30 3231 S 307.546 1.79071 -5.04672 0
M  V30 3232 C 308.702 3.15316 -5.40673 0
M  V30 3233 H 308.935 0.781435 -2.86846 0
M  V30 3234 H 306.468 0.290034 -1.51651 0
M  V30 3235 H 308.426 3.25089 -2.50654 0
M  V30 3236 H 307.087 2.79638 -1.43043 0
M  V30 3237 H 306.28 3.37964 -3.73893 0
M  V30 3238 H 305.882 1.69369 -3.33452 0
M  V30 3239 H 308.174 4.11613 -5.38127 0
M  V30 3240 H 309.117 2.99664 -6.41566 0
M  V30 3241 H 309.525 3.15457 -4.68132 0
M  V30 3242 N 308.923 1.53595 0.353017 0
M  V30 3243 C 309.886 1.80232 1.41594 0
M  V30 3244 C 310.886 0.673081 1.46035 0
M  V30 3245 O 312.076 0.941335 1.46576 0
M  V30 3246 C 309.208 1.93578 2.80607 0
M  V30 3247 H 310.401 2.75174 1.19244 0
M  V30 3248 H 307.954 1.44864 0.586872 0
M  V30 3249 H 308.689 1.00746 3.08254 0
M  V30 3250 H 308.474 2.75724 2.78781 0
M  V30 3251 H 309.964 2.15735 3.57558 0
M  V30 3252 N 310.401 -0.613514 1.45168 0
M  V30 3253 C 311.626 -1.40437 1.52618 0
M  V30 3254 C 312.051 -1.87438 0.157707 0
M  V30 3255 O 311.409 -1.59791 -0.856537 0
M  V30 3256 C 311.457 -2.58894 2.51011 0
M  V30 3257 O 310.561 -3.59326 2.02382 0
M  V30 3258 H 309.902 -0.419506 0.514695 0
M  V30 3259 H 312.432 -0.747215 1.90467 0
M  V30 3260 H 312.442 -3.06214 2.69624 0
M  V30 3261 H 311.117 -2.24032 3.50403 0
M  V30 3262 H 309.694 -3.18695 1.93618 0
M  V30 3263 N 311.879 -1.3236 -0.855495 0
M  V30 3264 C 313.127 -1.22629 -1.60644 0
M  V30 3265 C 313.448 0.212136 -1.93843 0
M  V30 3266 O 312.718 1.13666 -1.59552 0
M  V30 3267 H 311.298 -0.450882 -0.595579 0
M  V30 3268 H 313.96 -1.65871 -1.02337 0
M  V30 3269 H 313.056 -1.80832 -2.54374 0
M  V30 3270 N 313.357 1.07166 -1.15556 0
M  V30 3271 C 314.582 1.84053 -0.955988 0
M  V30 3272 C 315.007 1.81586 0.490739 0
M  V30 3273 O 314.365 1.21018 1.34997 0
M  V30 3274 C 314.413 3.28957 -1.47714 0
M  V30 3275 O 313.517 4.06795 -0.677593 0
M  V30 3276 H 312.858 0.569842 -0.340847 0
M  V30 3277 H 315.388 1.35178 -1.53584 0
M  V30 3278 H 315.398 3.79788 -1.4908 0
M  V30 3279 H 314.073 3.30068 -2.53037 0
M  V30 3280 H 312.65 3.6561 -0.733721 0
M  V30 3281 N 314.835 0.952656 1.25548 0
M  V30 3282 C 315.765 0.489287 2.28316 0
M  V30 3283 C 316.746 -0.463359 1.63667 0
M  V30 3284 O 317.931 -0.36274 1.90782 0
M  V30 3285 C 315.061 -0.235603 3.465 0
M  V30 3286 C 314.015 0.631593 4.23314 0
M  V30 3287 C 313.341 -0.223923 5.34231 0
M  V30 3288 C 314.641 1.90871 4.86174 0
M  V30 3289 H 316.335 1.34822 2.67326 0
M  V30 3290 H 313.881 0.649728 1.28509 0
M  V30 3291 H 315.834 -0.570882 4.17515 0
M  V30 3292 H 314.558 -1.12877 3.06474 0
M  V30 3293 H 313.217 0.949929 3.54079 0
M  V30 3294 H 312.865 -1.11678 4.90446 0
M  V30 3295 H 312.565 0.35299 5.86539 0
M  V30 3296 H 314.089 -0.554214 6.0808 0
M  V30 3297 H 315.503 1.63997 5.49343 0
M  V30 3298 H 313.9 2.43112 5.4865 0
M  V30 3299 H 314.97 2.61304 4.08471 0
M  V30 3300 N 316.313 -1.40141 0.720998 0
M  V30 3301 C 317.243 -2.33339 0.0867621 0
M  V30 3302 C 318.224 -1.53178 -0.739622 0
M  V30 3303 O 319.409 -1.81625 -0.687449 0
M  V30 3304 C 316.539 -3.37194 -0.831728 0
M  V30 3305 C 315.493 -4.27857 -0.110558 0
M  V30 3306 C 314.819 -5.22294 -1.14513 0
M  V30 3307 C 316.119 -5.11872 1.0385 0
M  V30 3308 H 317.813 -2.86626 0.865219 0
M  V30 3309 H 315.359 -1.37814 0.417516 0
M  V30 3310 H 317.312 -4.01335 -1.28485 0
M  V30 3311 H 316.036 -2.82314 -1.64214 0
M  V30 3312 H 314.695 -3.65176 0.322797 0
M  V30 3313 H 314.343 -4.63717 -1.94874 0
M  V30 3314 H 314.043 -5.83797 -0.667446 0
M  V30 3315 H 315.567 -5.89312 -1.59824 0
M  V30 3316 H 316.981 -5.69436 0.664482 0
M  V30 3317 H 315.378 -5.82445 1.4449 0
M  V30 3318 H 316.448 -4.4753 1.86668 0
M  V30 3319 N 317.792 -0.46758 -1.50504 0
M  V30 3320 C 318.722 0.318381 -2.31319 0
M  V30 3321 C 319.703 0.993564 -1.38066 0
M  V30 3322 O 320.888 0.991411 -1.66987 0
M  V30 3323 C 318.018 1.40275 -3.17711 0
M  V30 3324 C 316.972 0.849373 -4.19487 0
M  V30 3325 C 316.298 2.03177 -4.94594 0
M  V30 3326 C 317.598 -0.136942 -5.2212 0
M  V30 3327 H 319.292 -0.356106 -2.97275 0
M  V30 3328 H 316.838 -0.172703 -1.42961 0
M  V30 3329 H 318.791 1.96004 -3.73042 0
M  V30 3330 H 317.515 2.10596 -2.49634 0
M  V30 3331 H 316.174 0.314076 -3.65252 0
M  V30 3332 H 315.822 2.72187 -4.22993 0
M  V30 3333 H 315.522 1.66774 -5.63436 0
M  V30 3334 H 317.046 2.59403 -5.52759 0
M  V30 3335 H 318.46 0.331056 -5.72343 0
M  V30 3336 H 316.857 -0.41507 -5.98663 0
M  V30 3337 H 317.927 -1.06398 -4.73083 0
M  V30 3338 N 319.27 1.56325 -0.20005 0
M  V30 3339 C 320.233 2.18084 0.705132 0
M  V30 3340 C 321.233 1.13666 1.1374 0
M  V30 3341 O 322.423 1.39023 1.04968 0
M  V30 3342 C 319.555 2.78689 1.96329 0
M  V30 3343 H 320.748 2.99435 0.167023 0
M  V30 3344 H 318.301 1.56221 0.0495725 0
M  V30 3345 H 319.036 2.0115 2.5438 0
M  V30 3346 H 318.821 3.55133 1.66202 0
M  V30 3347 H 320.311 3.26096 2.60866 0
M  V30 3348 N 320.748 -0.0735177 1.57428 0
M  V30 3349 C 322.159 -0.625551 1.75908 0
M  V30 3350 C 322.51 -1.78 0.825261 0
M  V30 3351 O 321.635 -2.16398 0.00893964 0
M  V30 3352 C 322.23 -1.14155 3.18989 0
M  V30 3353 C 320.789 -1.63946 3.38819 0
M  V30 3354 C 319.936 -0.558151 2.71625 0
M  V30 3355 H 322.887 0.152647 1.57964 0
M  V30 3356 H 322.908 -2.0104 3.23053 0
M  V30 3357 H 322.42 -0.301116 3.8693 0
M  V30 3358 H 320.521 -2.50321 2.7599 0
M  V30 3359 H 320.634 -1.71759 4.47253 0
M  V30 3360 H 318.998 -1.00278 2.34129 0
M  V30 3361 H 319.781 0.272071 3.4222 0
M  V30 3362 N 322.226 -1.5378 -0.344866 0
M  V30 3363 C 323.189 -1.80981 -1.40637 0
M  V30 3364 C 324.189 -0.680816 -1.45676 0
M  V30 3365 O 325.379 -0.949095 -1.46075 0
M  V30 3366 C 322.511 -1.95063 -2.79577 0
M  V30 3367 H 323.704 -2.75803 -1.17783 0
M  V30 3368 H 321.257 -1.45173 -0.579181 0
M  V30 3369 H 321.992 -1.02379 -3.07716 0
M  V30 3370 H 321.777 -2.77198 -2.77315 0
M  V30 3371 H 323.267 -2.17629 -3.56409 0
M  V30 3372 N 323.704 0.605807 -1.45491 0
M  V30 3373 C 324.981 1.36522 -1.40075 0
M  V30 3374 C 325.361 2.10976 -0.0722744 0
M  V30 3375 O 324.709 2.08007 0.945808 0
M  V30 3376 C 324.919 2.31056 -2.61561 0
M  V30 3377 C 326.267 2.93608 -3.06724 0
M  V30 3378 O 327.291 2.41376 -2.61946 0
M  V30 3379 O 326.15 3.88421 -3.84437 0
M  V30 3380 H 323.244 0.612248 -0.555951 0
M  V30 3381 H 325.79 0.628747 -1.57623 0
M  V30 3382 H 324.562 1.75311 -3.49831 0
M  V30 3383 H 324.185 3.12081 -2.46356 0
M  V30 3384 N 325.182 1.32811 0.848464 0
M  V30 3385 C 326.593 1.21315 1.41914 0
M  V30 3386 C 326.944 -0.171847 1.95446 0
M  V30 3387 O 326.069 -1.07093 1.88043 0
M  V30 3388 C 326.664 2.19631 2.57968 0
M  V30 3389 C 325.223 2.12003 3.11017 0
M  V30 3390 C 324.37 2.07651 1.83783 0
M  V30 3391 H 327.321 1.44549 0.655071 0
M  V30 3392 H 327.342 1.79845 3.35315 0
M  V30 3393 H 326.854 3.20423 2.18976 0
M  V30 3394 H 324.955 1.14481 3.54577 0
M  V30 3395 H 325.068 3.02111 3.71841 0
M  V30 3396 H 323.432 1.52983 2.03638 0
M  V30 3397 H 324.215 3.10235 1.47 0
M  V30 3398 N 326.66 -1.06551 1.16123 0
M  V30 3399 C 327.909 -1.78687 0.935622 0
M  V30 3400 C 328.222 -1.88056 -0.538001 0
M  V30 3401 O 329.428 -2.56794 -0.88143 0
M  V30 3402 C 327.884 -3.21143 1.62466 0
M  V30 3403 C 327.492 -3.19949 3.13587 0
M  V30 3404 C 329.236 -3.9783 1.48092 0
M  V30 3405 C 327.143 -4.57108 3.75241 0
M  V30 3406 H 326.073 -0.669712 0.346412 0
M  V30 3407 H 328.724 -1.19534 1.39226 0
M  V30 3408 H 327.106 -3.80539 1.09572 0
M  V30 3409 H 328.28 -2.70151 3.73303 0
M  V30 3410 H 326.595 -2.5676 3.27816 0
M  V30 3411 H 329.192 -4.99217 1.91538 0
M  V30 3412 H 329.535 -4.14078 0.429507 0
M  V30 3413 H 330.068 -3.4495 1.98127 0
M  V30 3414 H 326.807 -4.46065 4.80319 0
M  V30 3415 H 326.327 -5.07111 3.20309 0
M  V30 3416 H 328.006 -5.26069 3.76644 0
M  V30 3417 N 328.138 -0.959301 -1.25041 0
M  V30 3418 C 329.384 -0.617525 -1.9317 0
M  V30 3419 C 329.717 0.843981 -1.74902 0
M  V30 3420 O 328.992 1.60615 -1.09696 0
M  V30 3421 C 329.275 -0.982736 -3.46431 0
M  V30 3422 C 329.128 -2.50032 -3.73904 0
M  V30 3423 C 330.447 -0.511176 -4.37121 0
M  V30 3424 H 327.566 -0.22582 -0.701552 0
M  V30 3425 H 330.208 -1.19679 -1.4757 0
M  V30 3426 H 328.358 -0.489806 -3.854 0
M  V30 3427 H 330.03 -3.06737 -3.44544 0
M  V30 3428 H 328.273 -2.93598 -3.19348 0
M  V30 3429 H 328.944 -2.70635 -4.81103 0
M  V30 3430 H 331.42 -0.934075 -4.0548 0
M  V30 3431 H 330.296 -0.795361 -5.43107 0
M  V30 3432 H 330.557 0.588834 -4.38161 0
M  V30 3433 N 329.616 1.39756 -0.72842 0
M  V30 3434 C 330.526 2.34444 -0.0855374 0
M  V30 3435 C 331.542 1.57976 0.729356 0
M  V30 3436 O 332.718 1.90301 0.659346 0
M  V30 3437 C 329.783 3.36965 0.815798 0
M  V30 3438 C 328.844 4.29299 -0.0105996 0
M  V30 3439 C 328.077 5.26923 0.84781 0
M  V30 3440 O 328.3 5.30859 2.08673 0
M  V30 3441 O 327.234 6.01249 0.279969 0
M  V30 3442 H 331.06 2.91065 -0.866892 0
M  V30 3443 H 328.645 1.4117 -0.48902 0
M  V30 3444 H 330.527 3.99804 1.33171 0
M  V30 3445 H 329.202 2.82739 1.57608 0
M  V30 3446 H 328.109 3.69703 -0.571877 0
M  V30 3447 H 329.442 4.86712 -0.73295 0
M  V30 3448 N 331.094 0.475555 1.50254 0
M  V30 3449 C 332.371 -0.139685 1.95101 0
M  V30 3450 C 332.751 -1.56555 1.41611 0
M  V30 3451 O 332.099 -2.19956 0.618993 0
M  V30 3452 C 332.309 -0.0784298 3.48912 0
M  V30 3453 C 333.657 -0.265095 4.23772 0
M  V30 3454 O 334.681 -0.154808 3.55863 0
M  V30 3455 O 333.54 -0.488327 5.44314 0
M  V30 3456 H 330.634 -0.109236 0.819754 0
M  V30 3457 H 333.18 0.536276 1.61004 0
M  V30 3458 H 331.952 0.916918 3.80405 0
M  V30 3459 H 331.575 -0.795655 3.89558 0
M  V30 3460 N 332.573 -1.56217 0.208337 0
M  V30 3461 C 333.803 -2.02043 -0.431523 0
M  V30 3462 C 334.211 -1.08755 -1.54819 0
M  V30 3463 O 333.554 -0.0870009 -1.83494 0
M  V30 3464 C 333.616 -3.44239 -1.03633 0
M  V30 3465 C 333.28 -4.56965 -0.0567502 0
M  V30 3466 C 334.277 -5.14624 0.738773 0
M  V30 3467 C 331.962 -5.02266 0.0581736 0
M  V30 3468 C 333.956 -6.16045 1.63605 0
M  V30 3469 C 331.643 -6.03528 0.959001 0
M  V30 3470 C 332.641 -6.60293 1.7465 0
M  V30 3471 O 332.329 -7.59586 2.6322 0
M  V30 3472 H 332.061 -0.666772 -0.111313 0
M  V30 3473 H 334.615 -2.02919 0.318277 0
M  V30 3474 H 332.845 -3.40391 -1.83497 0
M  V30 3475 H 334.534 -3.73793 -1.58221 0
M  V30 3476 H 335.3 -4.80483 0.660364 0
M  V30 3477 H 331.179 -4.57771 -0.544633 0
M  V30 3478 H 334.723 -6.60279 2.25116 0
M  V30 3479 H 330.62 -6.37092 1.03848 0
M  V30 3480 H 331.388 -7.77057 2.57148 0
M  V30 3481 N 334.051 0.0651679 -1.57465 0
M  V30 3482 C 334.981 1.07693 -2.07182 0
M  V30 3483 C 335.962 1.39962 -0.966673 0
M  V30 3484 O 337.147 1.49475 -1.2398 0
M  V30 3485 C 334.277 2.3885 -2.52127 0
M  V30 3486 C 333.231 2.20917 -3.66579 0
M  V30 3487 C 332.557 3.57515 -3.97601 0
M  V30 3488 C 333.857 1.62493 -4.9638 0
M  V30 3489 H 335.551 0.663199 -2.91962 0
M  V30 3490 H 333.097 0.317569 -1.40455 0
M  V30 3491 H 335.05 3.09928 -2.85522 0
M  V30 3492 H 333.774 2.82215 -1.64384 0
M  V30 3493 H 332.433 1.52279 -3.33477 0
M  V30 3494 H 332.081 3.98463 -3.06979 0
M  V30 3495 H 331.781 3.46353 -4.74672 0
M  V30 3496 H 333.305 4.30013 -4.33499 0
M  V30 3497 H 334.719 2.23445 -5.27963 0
M  V30 3498 H 333.116 1.62009 -5.77818 0
M  V30 3499 H 334.186 0.587041 -4.81333 0
M  V30 3500 N 335.529 1.53961 0.336706 0
M  V30 3501 C 336.94 1.62914 0.911925 0
M  V30 3502 C 337.291 0.514795 1.89326 0
M  V30 3503 O 336.416 -0.354395 2.13478 0
M  V30 3504 C 337.011 2.95304 1.66076 0
M  V30 3505 C 335.57 3.06496 2.18489 0
M  V30 3506 C 334.717 2.58403 1.00613 0
M  V30 3507 H 337.668 1.58285 0.114649 0
M  V30 3508 H 337.689 2.84727 2.5241 0
M  V30 3509 H 337.201 3.76387 0.946276 0
M  V30 3510 H 335.302 2.3006 2.93092 0
M  V30 3511 H 335.415 4.1208 2.44391 0
M  V30 3512 H 333.779 2.13977 1.38152 0
M  V30 3513 H 334.562 3.41932 0.306179 0
M  V30 3514 N 337.007 -0.598083 1.45811 0
M  V30 3515 C 338.256 -1.35295 1.49594 0
M  V30 3516 C 338.569 -1.95057 0.145679 0
M  V30 3517 O 339.775 -2.71431 0.0612099 0
M  V30 3518 C 338.231 -2.45124 2.63519 0
M  V30 3519 C 337.839 -1.91732 4.04899 0
M  V30 3520 C 339.583 -3.2205 2.76558 0
M  V30 3521 C 337.49 -2.991 5.1019 0
M  V30 3522 H 336.42 -0.508552 0.556679 0
M  V30 3523 H 339.071 -0.639977 1.71978 0
M  V30 3524 H 337.453 -3.19149 2.34435 0
M  V30 3525 H 338.627 -1.24352 4.43704 0
M  V30 3526 H 336.942 -1.27522 3.96393 0
M  V30 3527 H 339.539 -4.0215 3.52391 0
M  V30 3528 H 339.882 -3.73663 1.83526 0
M  V30 3529 H 340.415 -2.55127 3.05213 0
M  V30 3530 H 337.154 -2.52393 6.04961 0
M  V30 3531 H 336.674 -3.65017 4.75944 0
M  V30 3532 H 338.353 -3.63318 5.35359 0
M  V30 3533 N 338.485 -1.33259 -0.841409 0
M  V30 3534 C 339.762 -1.15174 -1.58096 0
M  V30 3535 C 340.142 0.282858 -2.09196 0
M  V30 3536 O 339.49 1.28151 -1.89181 0
M  V30 3537 C 339.7 -2.1907 -2.71679 0
M  V30 3538 C 341.048 -2.53093 -3.40924 0
M  V30 3539 O 342.072 -2.17717 -2.81918 0
M  V30 3540 O 340.931 -3.1379 -4.47435 0
M  V30 3541 H 338.025 -0.445303 -0.696875 0
M  V30 3542 H 340.571 -1.44833 -0.884385 0
M  V30 3543 H 339.343 -3.15443 -2.31541 0
M  V30 3544 H 338.966 -1.90481 -3.49002 0
M  V30 3545 N 339.963 1.05934 -1.16686 0
M  V30 3546 C 340.91 2.13499 -0.876748 0
M  V30 3547 C 341.88 1.65162 0.176299 0
M  V30 3548 O 343.065 1.90757 0.0407143 0
M  V30 3549 C 340.205 3.42912 -0.387967 0
M  V30 3550 C 339.318 4.04964 -1.50426 0
M  V30 3551 C 338.453 5.22266 -0.970125 0
M  V30 3552 C 337.492 5.76309 -2.06238 0
M  V30 3553 N 336.629 6.84922 -1.54356 0
M  V30 3554 H 341.469 2.37654 -1.7979 0
M  V30 3555 H 339.006 1.16598 -0.896843 0
M  V30 3556 H 340.964 4.17111 -0.086186 0
M  V30 3557 H 339.594 3.18963 0.496235 0
M  V30 3558 H 338.646 3.28277 -1.92193 0
M  V30 3559 H 339.958 4.41122 -2.32836 0
M  V30 3560 H 339.112 6.03506 -0.621743 0
M  V30 3561 H 337.851 4.87564 -0.115377 0
M  V30 3562 H 336.856 4.93704 -2.41942 0
M  V30 3563 H 338.081 6.13062 -2.92115 0
M  V30 3564 H 336.027 6.52131 -0.711406 0
M  V30 3565 H 335.944 7.20043 -2.30379 0
M  V30 3566 H 337.212 7.69832 -1.22387 0
M  V30 3567 N 341.441 0.965919 1.2453 0
M  V30 3568 C 342.388 0.49402 2.25451 0
M  V30 3569 C 343.358 -0.45948 1.59618 0
M  V30 3570 O 344.543 -0.370238 1.87173 0
M  V30 3571 C 341.683 -0.211359 3.44452 0
M  V30 3572 C 340.796 0.7807 4.24887 0
M  V30 3573 C 339.931 0.0516105 5.31175 0
M  V30 3574 C 338.97 1.03385 6.03306 0
M  V30 3575 N 338.107 0.334887 7.01301 0
M  V30 3576 H 342.947 1.35946 2.65184 0
M  V30 3577 H 340.484 0.681515 1.3036 0
M  V30 3578 H 342.442 -0.637 4.12308 0
M  V30 3579 H 341.072 -1.04077 3.05562 0
M  V30 3580 H 340.124 1.32479 3.56586 0
M  V30 3581 H 341.436 1.52978 4.74762 0
M  V30 3582 H 340.59 -0.432114 6.05159 0
M  V30 3583 H 339.329 -0.730179 4.82203 0
M  V30 3584 H 338.334 1.52847 5.28127 0
M  V30 3585 H 339.559 1.81606 6.54367 0
M  V30 3586 H 337.505 -0.427959 6.54603 0
M  V30 3587 H 337.422 1.02287 7.49048 0
M  V30 3588 H 338.69 -0.126928 7.79397 0
M  V30 3589 N 342.919 -1.39368 0.735821 0
M  V30 3590 C 344.165 -2.00794 0.284544 0
M  V30 3591 C 344.498 -1.58255 -1.12557 0
M  V30 3592 O 343.773 -0.811819 -1.76748 0
M  V30 3593 C 344.056 -3.58011 0.387337 0
M  V30 3594 C 343.909 -4.10566 1.83728 0
M  V30 3595 C 345.228 -4.395 -0.22975 0
M  V30 3596 H 342.347 -0.729501 0.104866 0
M  V30 3597 H 344.989 -1.65564 0.93213 0
M  V30 3598 H 343.139 -3.88154 -0.164006 0
M  V30 3599 H 344.811 -3.91139 2.44556 0
M  V30 3600 H 343.054 -3.64095 2.35833 0
M  V30 3601 H 343.725 -5.19702 1.86047 0
M  V30 3602 H 346.201 -4.15406 0.240257 0
M  V30 3603 H 345.077 -5.48752 -0.127485 0
M  V30 3604 H 345.338 -4.22062 -1.3159 0
M  V30 3605 N 344.397 -0.483516 -1.5 0
M  V30 3606 C 345.643 0.0672592 -2.02688 0
M  V30 3607 C 345.976 1.38247 -1.36387 0
M  V30 3608 O 345.251 1.88131 -0.493675 0
M  V30 3609 C 345.534 0.238109 -3.59312 0
M  V30 3610 C 345.387 -1.099 -4.36168 0
M  V30 3611 C 346.706 0.986916 -4.28892 0
M  V30 3612 H 343.825 0.0229696 -0.736642 0
M  V30 3613 H 346.467 -0.631527 -1.79197 0
M  V30 3614 H 344.617 0.8333 -3.79458 0
M  V30 3615 H 346.289 -1.73172 -4.27562 0
M  V30 3616 H 344.532 -1.69261 -3.99416 0
M  V30 3617 H 345.203 -0.932954 -5.44059 0
M  V30 3618 H 347.679 0.482302 -4.13295 0
M  V30 3619 H 346.555 1.07527 -5.38265 0
M  V30 3620 H 346.816 2.0265 -3.92919 0
M  V30 3621 N 345.875 1.56104 -0.216619 0
M  V30 3622 C 347.291 1.58995 0.13886 0
M  V30 3623 C 347.491 1.23333 1.59346 0
M  V30 3624 O 346.547 0.966234 2.33281 0
M  V30 3625 C 347.86 3.00143 -0.182968 0
M  V30 3626 C 349.408 3.12751 -0.124807 0
M  V30 3627 C 349.883 4.56068 -0.420241 0
M  V30 3628 N 351.374 4.61723 -0.369634 0
M  V30 3629 C 352.109 5.70542 -0.571789 0
M  V30 3630 N 351.605 6.87744 -0.835453 0
M  V30 3631 N 353.398 5.59831 -0.504563 0
M  V30 3632 H 345.549 1.77562 -1.16557 0
M  V30 3633 H 347.812 0.825091 -0.466828 0
M  V30 3634 H 347.518 3.30871 -1.19237 0
M  V30 3635 H 347.392 3.73813 0.504367 0
M  V30 3636 H 349.779 2.81822 0.875223 0
M  V30 3637 H 349.86 2.41421 -0.845544 0
M  V30 3638 H 349.504 4.87713 -1.41769 0
M  V30 3639 H 349.434 5.25617 0.321631 0
M  V30 3640 H 351.925 3.77502 -0.173338 0
M  V30 3641 H 352.238 7.66587 -0.977938 0
M  V30 3642 H 350.583 6.895 -0.872592 0
M  V30 3643 H 353.774 4.67145 -0.298842 0
M  V30 3644 H 353.947 6.44573 -0.665519 0
M  V30 3645 N 347.353 -0.0568162 1.57498 0
M  V30 3646 C 348.6 -0.753104 1.87975 0
M  V30 3647 C 348.928 -1.76815 0.81035 0
M  V30 3648 O 348.183 -1.94756 -0.19199 0
M  V30 3649 C 348.482 -1.48359 3.25153 0
M  V30 3650 C 348.148 -0.60713 4.46794 0
M  V30 3651 C 346.81 -0.365642 4.79809 0
M  V30 3652 C 349.162 -0.000305978 5.212 0
M  V30 3653 C 346.49 0.491905 5.84634 0
M  V30 3654 C 348.842 0.844781 6.26934 0
M  V30 3655 C 347.506 1.096 6.58441 0
M  V30 3656 H 346.776 -0.27558 0.687849 0
M  V30 3657 H 349.423 -0.0135173 1.91495 0
M  V30 3658 H 347.728 -2.29577 3.17492 0
M  V30 3659 H 349.425 -2.02739 3.45974 0
M  V30 3660 H 346.015 -0.805487 4.20963 0
M  V30 3661 H 350.199 -0.173961 4.95995 0
M  V30 3662 H 345.455 0.695131 6.07436 0
M  V30 3663 H 349.629 1.32165 6.83744 0
M  V30 3664 H 347.256 1.76224 7.39492 0
M  V30 3665 N 348.832 -1.54138 -0.328536 0
M  V30 3666 C 350.08 -1.71765 -1.06496 0
M  V30 3667 C 350.401 -0.49149 -1.88704 0
M  V30 3668 O 349.671 0.494539 -1.89555 0
M  V30 3669 H 348.251 -0.633295 -0.396164 0
M  V30 3670 H 350.913 -1.91429 -0.366176 0
M  V30 3671 H 350.009 -2.5951 -1.73381 0
M  V30 3672 N 350.31 0.590341 -1.46126 0
M  V30 3673 C 351.242 1.71427 -1.52136 0
M  V30 3674 C 352.255 1.57542 -0.41042 0
M  V30 3675 O 353.444 1.65106 -0.678389 0
M  V30 3676 C 350.544 3.09605 -1.37834 0
M  V30 3677 C 349.717 3.49566 -2.62912 0
M  V30 3678 C 348.776 4.66773 -2.42918 0
M  V30 3679 O 347.802 4.73019 -3.1661 0
M  V30 3680 N 349.004 5.61161 -1.4859 0
M  V30 3681 H 351.769 1.66728 -2.49042 0
M  V30 3682 H 349.33 0.776113 -1.42085 0
M  V30 3683 H 351.322 3.85796 -1.22243 0
M  V30 3684 H 349.892 3.08714 -0.491393 0
M  V30 3685 H 349.112 2.63158 -2.93499 0
M  V30 3686 H 350.4 3.73028 -3.46017 0
M  V30 3687 H 349.798 5.58844 -0.87808 0
M  V30 3688 H 348.355 6.36814 -1.38965 0
M  V30 3689 N 351.788 1.33704 0.83433 0
M  V30 3690 C 353.036 1.25169 1.58673 0
M  V30 3691 C 353.357 -0.18127 1.94156 0
M  V30 3692 O 352.627 -1.11113 1.6134 0
M  V30 3693 H 351.207 0.4603 0.58833 0
M  V30 3694 H 353.869 1.67478 0.996847 0
M  V30 3695 H 352.965 1.84856 2.51465 0
M  V30 3696 N 353.266 -1.05314 1.17247 0
M  V30 3697 C 354.229 -2.112 0.890357 0
M  V30 3698 C 355.229 -1.60359 -0.118943 0
M  V30 3699 O 356.419 -1.73833 0.113086 0
M  V30 3700 C 353.551 -3.39266 0.333422 0
M  V30 3701 H 354.744 -2.37659 1.82916 0
M  V30 3702 H 352.297 -1.21538 0.982758 0
M  V30 3703 H 353.032 -3.18462 -0.612587 0
M  V30 3704 H 352.817 -3.77477 1.06082 0
M  V30 3705 H 354.307 -4.17315 0.154322 0
M  V30 3706 N 354.744 -0.972509 -1.24016 0
M  V30 3707 C 355.654 -0.5143 -2.28893 0
M  V30 3708 C 356.67 0.427078 -1.68677 0
M  V30 3709 O 357.846 0.298939 -1.99169 0
M  V30 3710 C 354.911 0.183598 -3.46214 0
M  V30 3711 C 353.972 -0.798202 -4.21814 0
M  V30 3712 C 353.205 -0.133514 -5.33533 0
M  V30 3713 O 353.428 1.07714 -5.60137 0
M  V30 3714 O 352.362 -0.828103 -5.96176 0
M  V30 3715 H 356.188 -1.38629 -2.70214 0
M  V30 3716 H 353.773 -0.739769 -1.29799 0
M  V30 3717 H 355.655 0.575433 -4.17453 0
M  V30 3718 H 354.33 1.03048 -3.0686 0
M  V30 3719 H 353.237 -1.24059 -3.52931 0
M  V30 3720 H 354.57 -1.61364 -4.64997 0
M  V30 3721 N 356.222 1.38976 -0.743202 0
M  V30 3722 C 357.152 2.33171 -0.123873 0
M  V30 3723 C 358.133 1.54336 0.71516 0
M  V30 3724 O 359.318 1.82696 0.658467 0
M  V30 3725 C 356.448 3.38474 0.777978 0
M  V30 3726 C 355.402 4.27979 0.0424758 0
M  V30 3727 C 354.728 5.2405 1.06189 0
M  V30 3728 C 356.028 5.10155 -1.1198 0
M  V30 3729 H 357.722 2.85213 -0.910709 0
M  V30 3730 H 355.268 1.37133 -0.439388 0
M  V30 3731 H 357.221 4.03328 1.22084 0
M  V30 3732 H 355.945 2.84891 1.59702 0
M  V30 3733 H 354.604 3.64616 -0.380853 0
M  V30 3734 H 354.252 4.66758 1.87472 0
M  V30 3735 H 353.952 5.84785 0.574485 0
M  V30 3736 H 355.476 5.9178 1.50428 0
M  V30 3737 H 356.89 5.68307 -0.75499 0
M  V30 3738 H 355.287 5.80073 -1.53738 0
M  V30 3739 H 356.357 4.44504 -1.93764 0
M  V30 3740 N 357.7 0.491464 1.49741 0
M  V30 3741 C 358.61 -0.296835 2.32715 0
M  V30 3742 C 359.626 -0.976536 1.44013 0
M  V30 3743 O 360.802 -0.960023 1.77047 0
M  V30 3744 C 357.867 -1.35288 3.19215 0
M  V30 3745 C 356.928 -0.687632 4.23757 0
M  V30 3746 C 356.161 -1.69336 5.06123 0
M  V30 3747 O 356.384 -2.92219 4.89861 0
M  V30 3748 O 355.318 -1.25394 5.88693 0
M  V30 3749 H 359.144 0.382048 3.01287 0
M  V30 3750 H 356.729 0.252953 1.47243 0
M  V30 3751 H 358.611 -1.96411 3.72828 0
M  V30 3752 H 357.286 -2.01487 2.53347 0
M  V30 3753 H 356.193 -0.0369159 3.74082 0
M  V30 3754 H 357.526 -0.0682566 4.92153 0
M  V30 3755 N 359.178 -1.55987 0.224894 0
M  V30 3756 C 360.427 -1.97566 -0.406273 0
M  V30 3757 C 360.74 -1.11569 -1.6066 0
M  V30 3758 O 361.946 -1.43062 -2.3075 0
M  V30 3759 C 360.402 -3.51474 -0.774207 0
M  V30 3760 C 360.01 -4.46179 0.403496 0
M  V30 3761 C 361.754 -4.01758 -1.37079 0
M  V30 3762 C 359.661 -5.91399 0.0129412 0
M  V30 3763 H 358.591 -0.737777 -0.155565 0
M  V30 3764 H 361.242 -1.80659 0.321635 0
M  V30 3765 H 359.624 -3.63994 -1.55963 0
M  V30 3766 H 360.798 -4.45409 1.18101 0
M  V30 3767 H 359.113 -4.06255 0.913536 0
M  V30 3768 H 361.71 -5.07756 -1.67596 0
M  V30 3769 H 362.053 -3.47805 -2.28773 0
M  V30 3770 H 362.586 -3.92475 -0.648733 0
M  V30 3771 H 359.325 -6.49341 0.896451 0
M  V30 3772 H 358.845 -5.95356 -0.728821 0
M  V30 3773 H 360.524 -6.45683 -0.412582 0
M  V30 3774 N 360.656 0.0484629 -1.57525 0
M  V30 3775 C 361.884 0.755421 -1.92616 0
M  V30 3776 C 362.299 1.69919 -0.822984 0
M  V30 3777 O 361.656 1.81378 0.202085 0
M  V30 3778 C 361.707 1.52915 -3.27566 0
M  V30 3779 O 361.428 0.62329 -4.33644 0
M  V30 3780 C 362.929 2.33502 -3.76818 0
M  V30 3781 H 360.149 0.213465 -0.63614 0
M  V30 3782 H 362.693 0.0117698 -2.04497 0
M  V30 3783 H 360.848 2.22486 -3.17142 0
M  V30 3784 H 361.262 1.16383 -5.11425 0
M  V30 3785 H 362.736 2.83214 -4.73808 0
M  V30 3786 H 363.213 3.14068 -3.07014 0
M  V30 3787 H 363.819 1.69043 -3.90262 0
M  V30 3788 N 362.134 1.5431 0.320358 0
M  V30 3789 C 363.411 1.63322 1.07635 0
M  V30 3790 C 363.791 0.46912 2.05821 0
M  V30 3791 O 363.139 -0.536274 2.22118 0
M  V30 3792 C 363.349 3.00465 1.77544 0
M  V30 3793 C 364.697 3.56621 2.30449 0
M  V30 3794 O 365.721 3.02791 1.87606 0
M  V30 3795 O 364.58 4.5083 3.08892 0
M  V30 3796 H 361.674 0.661502 0.496331 0
M  V30 3797 H 364.22 1.66656 0.319992 0
M  V30 3798 H 362.992 3.76629 1.06143 0
M  V30 3799 H 362.615 3.00824 2.59982 0
M  V30 3800 N 363.613 -0.582584 1.46437 0
M  V30 3801 C 364.543 -1.70187 1.59871 0
M  V30 3802 C 365.524 -1.64066 0.449042 0
M  V30 3803 O 366.709 -1.82081 0.6753 0
M  V30 3804 C 363.839 -3.08827 1.58881 0
M  V30 3805 C 362.793 -3.29779 2.72819 0
M  V30 3806 C 362.119 -4.68947 2.5689 0
M  V30 3807 C 363.419 -3.17601 4.1464 0
M  V30 3808 H 365.113 -1.592 2.53566 0
M  V30 3809 H 362.659 -0.764472 1.22032 0
M  V30 3810 H 364.612 -3.86951 1.66873 0
M  V30 3811 H 363.336 -3.20713 0.617306 0
M  V30 3812 H 361.995 -2.54054 2.64296 0
M  V30 3813 H 361.643 -4.77599 1.57823 0
M  V30 3814 H 361.343 -4.83919 3.33312 0
M  V30 3815 H 362.867 -5.4924 2.66773 0
M  V30 3816 H 364.281 -3.8557 4.24274 0
M  V30 3817 H 362.678 -3.44094 4.9165 0
M  V30 3818 H 363.748 -2.14681 4.34788 0
M  V30 3819 N 365.091 -1.34144 -0.827227 0
M  V30 3820 C 366.337 -1.26446 -1.58554 0
M  V30 3821 C 366.67 0.1664 -1.93486 0
M  V30 3822 O 365.945 1.1107 -1.59667 0
M  V30 3823 C 366.228 -2.15111 -2.8879 0
M  V30 3824 C 366.081 -3.66712 -2.60465 0
M  V30 3825 C 367.4 -2.03311 -3.90324 0
M  V30 3826 H 364.519 -0.46067 -0.575284 0
M  V30 3827 H 367.161 -1.64356 -0.953269 0
M  V30 3828 H 365.311 -1.8291 -3.42748 0
M  V30 3829 H 366.983 -4.09259 -2.1285 0
M  V30 3830 H 365.226 -3.88014 -1.93978 0
M  V30 3831 H 365.897 -4.24112 -3.53317 0
M  V30 3832 H 368.373 -2.31574 -3.45706 0
M  V30 3833 H 367.249 -2.67582 -4.79261 0
M  V30 3834 H 367.51 -1.00879 -4.30437 0
M  V30 3835 N 366.569 1.04691 -1.17803 0
M  V30 3836 C 367.479 2.16057 -0.914151 0
M  V30 3837 C 368.495 1.73589 0.119503 0
M  V30 3838 O 369.671 2.01308 -0.0609468 0
M  V30 3839 C 366.736 3.4394 -0.436603 0
M  V30 3840 C 365.797 4.00825 -1.53746 0
M  V30 3841 C 365.03 5.22604 -1.0826 0
M  V30 3842 O 365.253 5.70367 0.0612244 0
M  V30 3843 O 364.187 5.7186 -1.87775 0
M  V30 3844 H 368.013 2.41169 -1.84584 0
M  V30 3845 H 365.598 1.1453 -0.959334 0
M  V30 3846 H 367.48 4.21024 -0.178057 0
M  V30 3847 H 366.155 3.20316 0.466869 0
M  V30 3848 H 365.062 3.25158 -1.84995 0
M  V30 3849 H 366.395 4.28778 -2.41683 0
M  V30 3850 N 368.047 0.979072 1.23499 0
M  V30 3851 C 369.463 0.687475 1.44034 0
M  V30 3852 C 369.663 -0.746801 1.8715 0
M  V30 3853 O 368.719 -1.51939 2.0167 0
M  V30 3854 C 370.032 1.68127 2.49307 0
M  V30 3855 C 371.58 1.69516 2.63122 0
M  V30 3856 C 372.055 2.67723 3.71603 0
M  V30 3857 N 373.546 2.66233 3.79044 0
M  V30 3858 C 374.281 3.38891 4.62537 0
M  V30 3859 N 373.777 4.21103 5.50131 0
M  V30 3860 N 375.57 3.27661 4.56721 0
M  V30 3861 H 367.721 1.90559 0.938135 0
M  V30 3862 H 369.984 0.821051 0.473897 0
M  V30 3863 H 369.69 2.70693 2.2454 0
M  V30 3864 H 369.564 1.46306 3.4767 0
M  V30 3865 H 371.951 0.676561 2.8724 0
M  V30 3866 H 372.032 1.95404 1.65079 0
M  V30 3867 H 371.676 3.69724 3.48233 0
M  V30 3868 H 371.606 2.39111 4.69184 0
M  V30 3869 H 374.097 2.06568 3.16446 0
M  V30 3870 H 374.41 4.73403 6.10827 0
M  V30 3871 H 372.755 4.25195 5.49759 0
M  V30 3872 H 375.946 2.62887 3.87309 0
M  V30 3873 H 376.119 3.84547 5.21562 0
M  V30 3874 N 369.525 -1.3858 0.750561 0
M  V30 3875 C 370.472 -2.30483 0.120835 0
M  V30 3876 C 371.442 -1.50022 -0.712923 0
M  V30 3877 O 372.627 -1.78662 -0.669676 0
M  V30 3878 C 369.767 -3.36431 -0.768666 0
M  V30 3879 C 368.88 -4.31927 0.0793922 0
M  V30 3880 C 368.015 -5.24944 -0.81283 0
M  V30 3881 C 367.054 -6.12088 0.0390447 0
M  V30 3882 N 366.191 -6.97412 -0.809969 0
M  V30 3883 H 371.031 -2.83761 0.91015 0
M  V30 3884 H 368.568 -1.39707 0.460463 0
M  V30 3885 H 370.526 -3.96462 -1.29898 0
M  V30 3886 H 369.156 -2.8457 -1.5238 0
M  V30 3887 H 368.208 -3.73382 0.727303 0
M  V30 3888 H 369.52 -4.93319 0.737401 0
M  V30 3889 H 368.674 -5.90078 -1.41042 0
M  V30 3890 H 367.413 -4.63911 -1.50458 0
M  V30 3891 H 366.418 -5.45952 0.649328 0
M  V30 3892 H 367.643 -6.75189 0.727809 0
M  V30 3893 H 365.589 -6.38931 -1.48672 0
M  V30 3894 H 365.506 -7.55712 -0.208789 0
M  V30 3895 H 366.774 -7.66959 -1.39263 0
M  V30 3896 N 371.003 -0.499398 -1.49478 0
M  V30 3897 C 372.28 0.108629 -1.95298 0
M  V30 3898 C 372.66 1.54282 -1.44084 0
M  V30 3899 O 372.008 2.18944 -0.653908 0
M  V30 3900 C 372.218 0.0229111 -3.48992 0
M  V30 3901 C 373.566 0.197643 -4.2414 0
M  V30 3902 O 374.59 0.0981735 -3.56065 0
M  V30 3903 O 373.449 0.401669 -5.45022 0
M  V30 3904 H 370.543 0.096181 -0.821388 0
M  V30 3905 H 373.089 -0.561822 -1.6013 0
M  V30 3906 H 371.861 -0.977321 -3.78899 0
M  V30 3907 H 371.484 0.733579 -3.90774 0
M  V30 3908 N 372.481 1.55866 -0.233164 0
M  V30 3909 C 373.706 2.03449 0.402906 0
M  V30 3910 C 374.131 1.11166 1.51736 0
M  V30 3911 O 373.489 0.101996 1.81013 0
M  V30 3912 C 373.537 3.49165 0.9009 0
M  V30 3913 O 372.641 3.60019 2.01147 0
M  V30 3914 H 371.982 0.657913 0.0897025 0
M  V30 3915 H 374.512 2.01493 -0.355201 0
M  V30 3916 H 374.522 3.89716 1.2077 0
M  V30 3917 H 373.197 4.15813 0.0852889 0
M  V30 3918 H 371.774 3.3136 1.71042 0
M  V30 3919 N 373.959 -0.0401083 1.57549 0
M  V30 3920 C 374.889 -1.04384 2.08869 0
M  V30 3921 C 375.87 -1.38407 0.988817 0
M  V30 3922 O 377.055 -1.47483 1.26342 0
M  V30 3923 C 374.185 -2.34808 2.55895 0
M  V30 3924 C 373.139 -2.15057 3.70047 0
M  V30 3925 C 372.465 -3.51145 4.03239 0
M  V30 3926 C 373.765 -1.54576 4.98902 0
M  V30 3927 H 375.459 -0.616666 2.92981 0
M  V30 3928 H 373.005 -0.295184 1.40942 0
M  V30 3929 H 374.958 -3.05346 2.90417 0
M  V30 3930 H 373.682 -2.79565 1.68853 0
M  V30 3931 H 372.341 -1.46954 3.35857 0
M  V30 3932 H 371.989 -3.93529 3.13279 0
M  V30 3933 H 371.689 -3.38758 4.80122 0
M  V30 3934 H 373.213 -4.23062 4.40285 0
M  V30 3935 H 374.627 -2.15017 5.31451 0
M  V30 3936 H 373.024 -1.52796 5.80322 0
M  V30 3937 H 374.094 -0.51039 4.82206 0
M  V30 3938 N 375.437 -1.54477 -0.31217 0
M  V30 3939 C 376.665 -1.77205 -1.068 0
M  V30 3940 C 377.08 -0.526114 -1.81321 0
M  V30 3941 O 376.437 0.503647 -1.75413 0
M  V30 3942 C 376.488 -2.97253 -2.05725 0
M  V30 3943 O 376.209 -4.1703 -1.34228 0
M  V30 3944 C 377.71 -3.32281 -2.93435 0
M  V30 3945 H 374.93 -0.591287 -0.317208 0
M  V30 3946 H 377.474 -2.01398 -0.354834 0
M  V30 3947 H 375.629 -2.753 -2.72559 0
M  V30 3948 H 376.043 -4.84636 -2.00571 0
M  V30 3949 H 377.517 -4.19551 -3.58721 0
M  V30 3950 H 377.994 -2.49945 -3.61143 0
M  V30 3951 H 378.6 -3.56353 -2.32147 0
M  V30 3952 N 376.915 0.57481 -1.46744 0
M  V30 3953 C 378.162 1.33272 -1.52462 0
M  V30 3954 C 378.49 1.93669 -0.179572 0
M  V30 3955 O 377.745 1.7743 0.825664 0
M  V30 3956 C 378.044 2.476 -2.57738 0
M  V30 3957 C 377.71 2.05146 -4.01529 0
M  V30 3958 C 376.372 1.93284 -4.40676 0
M  V30 3959 C 378.724 1.72506 -4.91824 0
M  V30 3960 C 376.052 1.47049 -5.67973 0
M  V30 3961 C 378.404 1.27748 -6.19567 0
M  V30 3962 C 377.068 1.14468 -6.57612 0
M  V30 3963 H 376.338 0.487678 -0.557899 0
M  V30 3964 H 378.985 0.646456 -1.80259 0
M  V30 3965 H 377.29 3.21708 -2.23632 0
M  V30 3966 H 378.987 3.05807 -2.5939 0
M  V30 3967 H 375.577 2.15316 -3.7059 0
M  V30 3968 H 379.761 1.80552 -4.62293 0
M  V30 3969 H 375.017 1.35417 -5.96215 0
M  V30 3970 H 379.191 1.01547 -6.88957 0
M  V30 3971 H 376.818 0.78419 -7.56145 0
M  V30 3972 N 378.394 1.34581 0.820102 0
M  V30 3973 C 379.341 1.2639 1.93117 0
M  V30 3974 C 380.311 0.138554 1.65521 0
M  V30 3975 O 381.496 0.320004 1.88097 0
M  V30 3976 C 378.636 1.02812 3.29429 0
M  V30 3977 C 377.749 2.24146 3.693 0
M  V30 3978 C 376.884 1.93829 4.94574 0
M  V30 3979 C 375.923 3.1129 5.27034 0
M  V30 3980 N 375.06 2.80838 6.43486 0
M  V30 3981 H 379.9 2.21408 1.99455 0
M  V30 3982 H 377.437 1.10077 0.975784 0
M  V30 3983 H 379.395 0.871788 4.0799 0
M  V30 3984 H 378.025 0.114612 3.22596 0
M  V30 3985 H 377.077 2.50691 2.86109 0
M  V30 3986 H 378.389 3.11899 3.89257 0
M  V30 3987 H 377.543 1.74948 5.80929 0
M  V30 3988 H 376.282 1.03341 4.76626 0
M  V30 3989 H 375.287 3.30764 4.39175 0
M  V30 3990 H 376.512 4.02561 5.4692 0
M  V30 3991 H 374.458 1.92929 6.26988 0
M  V30 3992 H 374.375 3.62123 6.63629 0
M  V30 3993 H 375.643 2.65467 7.32903 0
M  V30 3994 N 379.872 -1.04064 1.18357 0
M  V30 3995 C 380.835 -2.10243 0.912707 0
M  V30 3996 C 381.835 -1.60477 -0.101928 0
M  V30 3997 O 383.025 -1.73703 0.131517 0
M  V30 3998 C 380.157 -3.38893 0.369387 0
M  V30 3999 H 381.35 -2.35706 1.85426 0
M  V30 4000 H 378.903 -1.20489 0.995594 0
M  V30 4001 H 379.638 -3.19094 -0.578776 0
M  V30 4002 H 379.423 -3.76331 1.1008 0
M  V30 4003 H 380.913 -4.17128 0.198575 0
M  V30 4004 N 381.35 -0.985608 -1.22978 0
M  V30 4005 C 382.298 -0.522631 -2.26652 0
M  V30 4006 C 383.292 0.422998 -1.64034 0
M  V30 4007 O 384.498 0.296319 -1.77544 0
M  V30 4008 H 380.873 -0.150597 -0.736766 0
M  V30 4009 H 382.844 -1.40863 -2.63059 0
M  V30 4010 C 381.593 0.154238 -3.47358 0
M  V30 4011 H 380.916 -0.564329 -3.95797 0
M  V30 4012 H 382.356 0.441744 -4.21693 0
M  V30 4013 C 380.815 1.38719 -3.07016 0
M  V30 4014 O 381.345 2.48307 -3.15764 0
M  V30 4015 N 379.551 1.25975 -2.61875 0
M  V30 4016 H 379.098 0.368068 -2.54957 0
M  V30 4017 H 379.056 2.08578 -2.3525 0
M  V30 4018 N 382.828 1.3818 -0.7579 0
M  V30 4019 C 384.075 2.00019 -0.315985 0
M  V30 4020 C 384.403 1.60163 1.10355 0
M  V30 4021 O 383.658 0.83264 1.77103 0
M  V30 4022 C 383.957 3.55252 -0.391218 0
M  V30 4023 C 383.623 4.14834 -1.76702 0
M  V30 4024 C 382.285 4.30821 -2.14353 0
M  V30 4025 C 384.637 4.47658 -2.66931 0
M  V30 4026 C 381.965 4.76928 -3.41696 0
M  V30 4027 C 384.317 4.95184 -3.93669 0
M  V30 4028 C 382.981 5.09377 -4.31383 0
M  V30 4029 H 382.251 0.731923 -0.115627 0
M  V30 4030 H 384.898 1.65161 -0.969223 0
M  V30 4031 H 383.203 3.90273 0.34558 0
M  V30 4032 H 384.9 4.00988 -0.030805 0
M  V30 4033 H 381.49 4.02808 -1.46435 0
M  V30 4034 H 385.674 4.34904 -2.39106 0
M  V30 4035 H 380.93 4.86103 -3.70829 0
M  V30 4036 H 385.104 5.19551 -4.63724 0
M  V30 4037 H 382.731 5.44865 -5.30119 0
M  V30 4038 N 384.306 0.507319 1.49211 0
M  V30 4039 C 385.236 -0.256939 2.32082 0
M  V30 4040 C 386.217 -0.956609 1.40652 0
M  V30 4041 O 387.402 -0.946788 1.69557 0
M  V30 4042 C 384.532 -1.31802 3.21318 0
M  V30 4043 C 383.486 -0.737855 4.21592 0
M  V30 4044 C 382.812 -1.89992 4.99807 0
M  V30 4045 C 384.112 0.275325 5.21574 0
M  V30 4046 H 385.806 0.434798 2.96226 0
M  V30 4047 H 383.352 0.210546 1.42452 0
M  V30 4048 H 385.305 -1.86045 3.78107 0
M  V30 4049 H 384.029 -2.03903 2.5513 0
M  V30 4050 H 382.688 -0.217126 3.65956 0
M  V30 4051 H 382.336 -2.60877 4.30061 0
M  V30 4052 H 382.036 -1.51777 5.6766 0
M  V30 4053 H 383.56 -2.44657 5.59442 0
M  V30 4054 H 384.974 -0.179193 5.7302 0
M  V30 4055 H 383.371 0.573649 5.97352 0
M  V30 4056 H 384.441 1.18903 4.70096 0
M  V30 4057 N 385.784 -1.5574 0.241426 0
M  V30 4058 C 386.694 -2.2479 -0.671305 0
M  V30 4059 C 387.71 -1.26217 -1.19772 0
M  V30 4060 O 388.886 -1.59079 -1.23514 0
M  V30 4061 C 385.951 -2.92966 -1.85396 0
M  V30 4062 C 385.012 -4.06935 -1.36756 0
M  V30 4063 C 384.245 -4.71851 -2.49384 0
M  V30 4064 O 384.468 -4.35823 -3.67987 0
M  V30 4065 O 383.402 -5.60467 -2.19454 0
M  V30 4066 H 387.228 -3.0349 -0.112966 0
M  V30 4067 H 384.813 -1.49397 0.0101513 0
M  V30 4068 H 386.695 -3.35927 -2.54423 0
M  V30 4069 H 385.37 -2.17211 -2.40002 0
M  V30 4070 H 384.277 -3.68503 -0.644726 0
M  V30 4071 H 385.61 -4.84492 -0.867647 0
M  V30 4072 N 387.262 0.0317525 -1.57568 0
M  V30 4073 C 388.194 1.06073 -2.03178 0
M  V30 4074 C 389.207 1.32627 -0.944132 0
M  V30 4075 O 390.396 1.30162 -1.22148 0
M  V30 4076 C 387.496 2.40297 -2.38978 0
M  V30 4077 C 386.669 2.33137 -3.70089 0
M  V30 4078 C 385.728 3.49787 -3.9311 0
M  V30 4079 O 384.754 3.29403 -4.64201 0
M  V30 4080 N 385.956 4.71562 -3.38541 0
M  V30 4081 H 388.721 0.672006 -2.92069 0
M  V30 4082 H 386.282 0.219745 -1.60402 0
M  V30 4083 H 388.274 3.1705 -2.51518 0
M  V30 4084 H 386.844 2.71024 -1.55771 0
M  V30 4085 H 386.064 1.415 -3.67928 0
M  V30 4086 H 387.352 2.25493 -4.56104 0
M  V30 4087 H 386.75 4.91024 -2.80912 0
M  V30 4088 H 385.307 5.45689 -3.56464 0
M  V30 4089 N 388.74 1.54641 0.303973 0
M  V30 4090 C 389.703 1.84646 1.35789 0
M  V30 4091 C 390.703 0.7192 1.4382 0
M  V30 4092 O 391.893 0.987491 1.43507 0
M  V30 4093 C 389.025 2.02407 2.74307 0
M  V30 4094 H 390.218 2.78829 1.10429 0
M  V30 4095 H 387.771 1.46658 0.540487 0
M  V30 4096 H 388.506 1.10502 3.04893 0
M  V30 4097 H 388.291 2.84453 2.69868 0
M  V30 4098 H 389.781 2.27002 3.50514 0
M  V30 4099 N 390.218 -0.567019 1.47046 0
M  V30 4100 C 391.148 -1.68482 1.61667 0
M  V30 4101 C 392.129 -1.6358 0.466418 0
M  V30 4102 O 393.314 -1.81354 0.694574 0
M  V30 4103 C 390.444 -3.07124 1.62148 0
M  V30 4104 C 389.398 -3.26867 2.76301 0
M  V30 4105 C 388.724 -4.66196 2.61849 0
M  V30 4106 C 390.024 -3.13186 4.17986 0
M  V30 4107 H 391.718 -1.56502 2.5524 0
M  V30 4108 H 389.264 -0.751486 1.22836 0
M  V30 4109 H 391.217 -3.8516 1.70968 0
M  V30 4110 H 389.941 -3.2004 0.651287 0
M  V30 4111 H 388.6 -2.51237 2.66975 0
M  V30 4112 H 388.248 -4.75898 1.62879 0
M  V30 4113 H 387.948 -4.80356 3.38425 0
M  V30 4114 H 389.472 -5.46379 2.72584 0
M  V30 4115 H 390.886 -3.81049 4.2834 0
M  V30 4116 H 389.283 -3.3886 4.95272 0
M  V30 4117 H 390.353 -2.10057 4.3704 0
M  V30 4118 N 391.696 -1.35014 -0.812953 0
M  V30 4119 C 392.973 -1.18502 -1.55617 0
M  V30 4120 C 393.353 0.238421 -2.09749 0
M  V30 4121 O 392.701 1.2411 -1.91857 0
M  V30 4122 C 392.911 -2.24783 -2.66971 0
M  V30 4123 C 394.259 -2.60268 -3.35478 0
M  V30 4124 O 395.283 -2.23648 -2.77236 0
M  V30 4125 O 394.142 -3.2321 -4.40678 0
M  V30 4126 H 391.236 -0.459984 -0.687272 0
M  V30 4127 H 393.782 -1.46677 -0.853464 0
M  V30 4128 H 392.554 -3.20284 -2.24798 0
M  V30 4129 H 392.177 -1.97841 -3.44884 0
M  V30 4130 N 393.175 1.03435 -1.18907 0
M  V30 4131 C 394.105 2.13503 -0.945448 0
M  V30 4132 C 395.086 1.69682 0.119189 0
M  V30 4133 O 396.271 1.94169 -0.034707 0
M  V30 4134 C 393.401 3.44004 -0.477316 0
M  V30 4135 C 392.355 4.0148 -1.48316 0
M  V30 4136 C 391.681 5.27537 -0.872311 0
M  V30 4137 C 392.981 4.36921 -2.86177 0
M  V30 4138 H 394.675 2.34141 -1.86597 0
M  V30 4139 H 392.221 1.12523 -0.898584 0
M  V30 4140 H 394.174 4.20372 -0.294204 0
M  V30 4141 H 392.898 3.23072 0.478786 0
M  V30 4142 H 391.557 3.27201 -1.65332 0
M  V30 4143 H 391.205 5.02917 0.0911752 0
M  V30 4144 H 390.905 5.66954 -1.54393 0
M  V30 4145 H 392.429 6.06576 -0.699871 0
M  V30 4146 H 393.843 5.04248 -2.72776 0
M  V30 4147 H 392.24 4.87405 -3.50081 0
M  V30 4148 H 393.31 3.46466 -3.39248 0
M  V30 4149 N 394.653 0.992116 1.22453 0
M  V30 4150 C 396.064 0.702776 1.72968 0
M  V30 4151 C 396.415 -0.780399 1.80012 0
M  V30 4152 O 395.54 -1.61007 1.44589 0
M  V30 4153 C 396.135 1.26903 3.14135 0
M  V30 4154 C 394.694 1.02909 3.62059 0
M  V30 4155 C 393.841 1.38969 2.39964 0
M  V30 4156 H 396.792 1.16457 1.07812 0
M  V30 4157 H 396.813 0.647223 3.74955 0
M  V30 4158 H 396.325 2.34851 3.08977 0
M  V30 4159 H 394.426 -0.0337979 3.72585 0
M  V30 4160 H 394.539 1.69191 4.48231 0
M  V30 4161 H 392.903 0.808279 2.41535 0
M  V30 4162 H 393.686 2.4792 2.37467 0
M  V30 4163 N 396.131 -1.37776 0.765217 0
M  V30 4164 C 397.377 -2.00145 0.327072 0
M  V30 4165 C 397.71 -1.60607 -1.09175 0
M  V30 4166 O 396.985 -0.849127 -1.74986 0
M  V30 4167 C 397.268 -3.57109 0.46319 0
M  V30 4168 C 397.121 -4.06576 1.92395 0
M  V30 4169 C 398.44 -4.39888 -0.136473 0
M  V30 4170 H 395.559 -0.727113 0.120316 0
M  V30 4171 H 398.201 -1.63549 0.967039 0
M  V30 4172 H 396.351 -3.88414 -0.0816358 0
M  V30 4173 H 398.023 -3.85864 2.52798 0
M  V30 4174 H 396.266 -3.59011 2.43503 0
M  V30 4175 H 396.937 -5.15639 1.97028 0
M  V30 4176 H 399.413 -4.14803 0.328317 0
M  V30 4177 H 398.289 -5.48899 -0.0110582 0
M  V30 4178 H 398.55 -4.24758 -1.22608 0
M  V30 4179 N 397.609 -0.515225 -1.4894 0
M  V30 4180 C 398.837 0.0206034 -2.0689 0
M  V30 4181 C 399.252 1.29514 -1.37374 0
M  V30 4182 O 398.609 1.76698 -0.456529 0
M  V30 4183 C 398.66 0.26351 -3.60538 0
M  V30 4184 O 398.381 -0.960517 -4.27441 0
M  V30 4185 C 399.882 0.841383 -4.35242 0
M  V30 4186 H 397.102 -0.0268608 -0.670462 0
M  V30 4187 H 399.646 -0.716651 -1.91532 0
M  V30 4188 H 397.801 0.950777 -3.75552 0
M  V30 4189 H 398.215 -0.73212 -5.19365 0
M  V30 4190 H 399.689 0.96085 -5.43573 0
M  V30 4191 H 400.166 1.8427 -3.98674 0
M  V30 4192 H 400.772 0.191143 -4.2487 0
M  V30 4193 N 399.087 1.5561 -0.249682 0
M  V30 4194 C 400.335 1.98618 0.373548 0
M  V30 4195 C 400.656 1.13919 1.58264 0
M  V30 4196 O 399.926 0.222637 1.94631 0
M  V30 4197 H 398.506 0.733571 0.141006 0
M  V30 4198 H 401.168 1.91748 -0.349117 0
M  V30 4199 H 400.264 3.04584 0.680796 0
M  V30 4200 N 400.565 -0.0233959 1.57583 0
M  V30 4201 C 401.512 -1.02224 2.06927 0
M  V30 4202 C 402.482 -1.35575 0.959617 0
M  V30 4203 O 403.667 -1.45815 1.23055 0
M  V30 4204 C 400.807 -2.31636 2.5581 0
M  V30 4205 C 399.92 -2.04394 3.80588 0
M  V30 4206 C 399.055 -3.27717 4.18061 0
M  V30 4207 C 398.094 -2.96056 5.3574 0
M  V30 4208 N 397.231 -4.11847 5.68618 0
M  V30 4209 H 402.071 -0.594504 2.9201 0
M  V30 4210 H 399.608 -0.281921 1.44373 0
M  V30 4211 H 401.566 -3.07258 2.82221 0
M  V30 4212 H 400.196 -2.72122 1.73636 0
M  V30 4213 H 399.248 -1.19244 3.61227 0
M  V30 4214 H 400.56 -1.77042 4.66323 0
M  V30 4215 H 399.714 -4.11702 4.4563 0
M  V30 4216 H 398.453 -3.58188 3.30988 0
M  V30 4217 H 397.458 -2.10474 5.07918 0
M  V30 4218 H 398.683 -2.66857 6.24471 0
M  V30 4219 H 396.629 -4.42258 4.84504 0
M  V30 4220 H 396.546 -3.87938 6.48876 0
M  V30 4221 H 397.814 -4.96689 6.00766 0
M  V30 4222 N 402.043 -1.548 -0.295768 0
M  V30 4223 C 403.273 -1.78069 -1.04762 0
M  V30 4224 C 403.681 -0.542847 -1.81245 0
M  V30 4225 O 403.024 0.497051 -1.76848 0
M  V30 4226 C 403.086 -2.93881 -2.07061 0
M  V30 4227 C 402.75 -4.31777 -1.49725 0
M  V30 4228 C 403.747 -5.11613 -0.924581 0
M  V30 4229 C 401.432 -4.78389 -1.5313 0
M  V30 4230 C 403.426 -6.36184 -0.393594 0
M  V30 4231 C 401.113 -6.02921 -0.996447 0
M  V30 4232 C 402.111 -6.81654 -0.428569 0
M  V30 4233 O 401.799 -8.0384 0.0981593 0
M  V30 4234 H 401.531 -0.597475 -0.316226 0
M  V30 4235 H 404.085 -2.02584 -0.338973 0
M  V30 4236 H 402.315 -2.65003 -2.81621 0
M  V30 4237 H 404.004 -3.04679 -2.6819 0
M  V30 4238 H 404.77 -4.76743 -0.891136 0
M  V30 4239 H 400.649 -4.17132 -1.9627 0
M  V30 4240 H 404.193 -6.97582 0.0503014 0
M  V30 4241 H 400.09 -6.37277 -1.02706 0
M  V30 4242 H 400.858 -8.18499 -0.0146455 0
M  V30 4243 N 403.521 0.559213 -1.47345 0
M  V30 4244 C 404.469 1.68747 -1.60085 0
M  V30 4245 C 405.463 1.628 -0.46825 0
M  V30 4246 O 406.669 1.68009 -0.645977 0
M  V30 4247 H 403.044 0.558329 -0.503759 0
M  V30 4248 H 405.015 1.55138 -2.54902 0
M  V30 4249 C 403.764 3.07103 -1.63042 0
M  V30 4250 H 403.087 3.12361 -2.49541 0
M  V30 4251 H 404.527 3.85743 -1.76006 0
M  V30 4252 C 402.986 3.34935 -0.363357 0
M  V30 4253 O 403.516 3.98102 0.536416 0
M  V30 4254 N 401.722 2.89574 -0.244 0
M  V30 4255 H 401.269 2.38348 -0.977133 0
M  V30 4256 H 401.227 3.08566 0.602836 0
M  V30 4257 N 404.999 1.35443 0.805782 0
M  V30 4258 C 405.962 1.28301 1.89925 0
M  V30 4259 C 406.962 0.194285 1.59622 0
M  V30 4260 O 408.152 0.448036 1.6834 0
M  V30 4261 C 405.284 0.984997 3.2636 0
M  V30 4262 H 406.477 2.2553 1.97677 0
M  V30 4263 H 404.03 1.19979 1.00173 0
M  V30 4264 H 404.765 0.016603 3.24296 0
M  V30 4265 H 404.55 1.77269 3.4974 0
M  V30 4266 H 406.04 0.960651 4.064 0
M  V30 4267 N 406.477 -1.02803 1.19454 0
M  V30 4268 C 407.705 -1.79841 1.02297 0
M  V30 4269 C 408.12 -1.83879 -0.428259 0
M  V30 4270 O 407.477 -1.28345 -1.29745 0
M  V30 4271 C 407.528 -3.24852 1.58598 0
M  V30 4272 O 407.249 -3.21097 2.98041 0
M  V30 4273 C 408.75 -4.18485 1.46236 0
M  V30 4274 H 405.97 -0.565936 0.360496 0
M  V30 4275 H 408.514 -1.2948 1.58288 0
M  V30 4276 H 406.669 -3.72401 1.06753 0
M  V30 4277 H 407.083 -4.12033 3.24545 0
M  V30 4278 H 408.557 -5.18121 1.90407 0
M  V30 4279 H 409.034 -4.37254 0.41301 0
M  V30 4280 H 409.64 -3.76811 1.97215 0
M  V30 4281 N 407.956 -0.998596 -1.21925 0
M  V30 4282 C 408.904 -0.546641 -2.26085 0
M  V30 4283 C 409.898 0.405576 -1.64473 0
M  V30 4284 O 411.104 0.277471 -1.77849 0
M  V30 4285 H 407.479 -0.158403 -0.735127 0
M  V30 4286 H 409.45 -1.43645 -2.61551 0
M  V30 4287 C 408.199 0.117388 -3.47502 0
M  V30 4288 H 407.522 -0.606277 -3.95176 0
M  V30 4289 H 408.962 0.396993 -4.22137 0
M  V30 4290 C 407.421 1.35455 -3.0847 0
M  V30 4291 O 407.951 2.44944 -3.18379 0
M  V30 4292 N 406.157 1.23191 -2.63196 0
M  V30 4293 H 405.704 0.341006 -2.55333 0
M  V30 4294 H 405.662 2.06071 -2.37449 0
M  V30 4295 N 409.434 1.37368 -0.772513 0
M  V30 4296 C 410.397 2.28601 -0.165541 0
M  V30 4297 C 411.397 1.48062 0.627238 0
M  V30 4298 O 412.587 1.68268 0.450715 0
M  V30 4299 C 409.719 3.32023 0.772897 0
M  V30 4300 H 410.912 2.83787 -0.969787 0
M  V30 4301 H 408.465 1.46647 -0.540775 0
M  V30 4302 H 409.2 2.81962 1.60212 0
M  V30 4303 H 408.985 3.91555 0.206585 0
M  V30 4304 H 410.475 4.00197 1.19298 0
M  V30 4305 N 410.912 0.523116 1.48665 0
M  V30 4306 C 411.845 -0.290518 2.26343 0
M  V30 4307 C 412.823 -0.950913 1.31895 0
M  V30 4308 O 414.007 -0.976662 1.61225 0
M  V30 4309 C 411.134 -1.41088 3.07915 0
M  V30 4310 C 410.18 -0.862597 4.17686 0
M  V30 4311 S 411.013 0.264135 5.34848 0
M  V30 4312 C 412.169 -0.858864 6.19979 0
M  V30 4313 H 412.402 0.368726 2.95005 0
M  V30 4314 H 409.935 0.30878 1.51281 0
M  V30 4315 H 411.893 -2.0527 3.55492 0
M  V30 4316 H 410.554 -2.04182 2.38681 0
M  V30 4317 H 409.747 -1.70287 4.74361 0
M  V30 4318 H 409.349 -0.297595 3.72814 0
M  V30 4319 H 411.641 -1.7591 6.54264 0
M  V30 4320 H 412.584 -0.330244 7.07329 0
M  V30 4321 H 412.992 -1.13617 5.52948 0
M  V30 4322 N 412.39 -1.55475 0.257931 0
M  V30 4323 C 413.639 -1.98383 -0.364275 0
M  V30 4324 C 413.952 -1.14952 -1.58258 0
M  V30 4325 O 415.158 -1.47924 -2.27664 0
M  V30 4326 C 413.614 -3.53037 -0.699479 0
M  V30 4327 C 413.222 -4.45223 0.498046 0
M  V30 4328 C 414.966 -4.04575 -1.28526 0
M  V30 4329 C 412.873 -5.91238 0.138383 0
M  V30 4330 H 411.803 -0.740911 -0.13988 0
M  V30 4331 H 414.454 -1.79936 0.359883 0
M  V30 4332 H 412.836 -3.6722 -1.48207 0
M  V30 4333 H 414.01 -4.42803 1.27522 0
M  V30 4334 H 412.325 -4.04226 0.999503 0
M  V30 4335 H 414.922 -5.11196 -1.56788 0
M  V30 4336 H 415.265 -3.5258 -2.21344 0
M  V30 4337 H 415.798 -3.93762 -0.565337 0
M  V30 4338 H 412.537 -6.47294 1.03398 0
M  V30 4339 H 412.057 -5.96768 -0.602374 0
M  V30 4340 H 413.736 -6.46413 -0.27553 0
M  V30 4341 N 413.868 0.0150385 -1.57593 0
M  V30 4342 C 414.831 0.995996 -2.06428 0
M  V30 4343 C 415.831 1.2818 -0.970903 0
M  V30 4344 O 417.021 1.22949 -1.23406 0
M  V30 4345 C 414.153 2.32506 -2.49307 0
M  V30 4346 H 415.346 0.573873 -2.94358 0
M  V30 4347 H 412.899 0.262186 -1.54085 0
M  V30 4348 H 413.634 2.79438 -1.64575 0
M  V30 4349 H 413.419 2.13087 -3.29145 0
M  V30 4350 H 414.909 3.02906 -2.87468 0
M  V30 4351 N 415.346 1.54954 0.287554 0
M  V30 4352 C 416.571 1.79209 1.04397 0
M  V30 4353 C 416.996 0.556431 1.79682 0
M  V30 4354 O 416.354 -0.493518 1.74454 0
M  V30 4355 C 416.402 3.00739 1.98969 0
M  V30 4356 O 415.506 2.74805 3.075 0
M  V30 4357 H 414.847 0.592755 0.299227 0
M  V30 4358 H 417.377 2.02068 0.320886 0
M  V30 4359 H 417.387 3.29077 2.4119 0
M  V30 4360 H 416.062 3.90329 1.43582 0
M  V30 4361 H 414.639 2.57523 2.69697 0
M  V30 4362 N 416.824 -0.551391 1.4764 0
M  V30 4363 C 418.054 -1.33163 1.57959 0
M  V30 4364 C 418.462 -1.87785 0.23094 0
M  V30 4365 O 417.805 -1.65996 -0.786825 0
M  V30 4366 C 417.867 -2.53449 2.54958 0
M  V30 4367 C 417.531 -2.20071 4.00522 0
M  V30 4368 C 418.528 -1.77017 4.88836 0
M  V30 4369 C 416.213 -2.31252 4.45901 0
M  V30 4370 C 418.207 -1.4558 6.20552 0
M  V30 4371 C 415.894 -1.99427 5.77644 0
M  V30 4372 C 416.892 -1.56659 6.64791 0
M  V30 4373 O 416.58 -1.25242 7.94084 0
M  V30 4374 H 416.312 -0.412022 0.535923 0
M  V30 4375 H 418.866 -0.674186 1.9402 0
M  V30 4376 H 417.096 -3.22104 2.13976 0
M  V30 4377 H 418.785 -3.15523 2.55343 0
M  V30 4378 H 419.551 -1.67867 4.55023 0
M  V30 4379 H 415.43 -2.63498 3.78272 0
M  V30 4380 H 418.974 -1.12125 6.8853 0
M  V30 4381 H 414.871 -2.08211 6.10998 0
M  V30 4382 H 415.639 -1.38822 8.06642 0
M  V30 4383 N 418.302 -1.35869 -0.798587 0
M  V30 4384 C 419.548 -1.2978 -1.55836 0
M  V30 4385 C 419.881 0.125322 -1.93795 0
M  V30 4386 O 419.156 1.07658 -1.61987 0
M  V30 4387 C 419.439 -2.21188 -2.84162 0
M  V30 4388 C 419.292 -3.72155 -2.52628 0
M  V30 4389 C 420.611 -2.11545 -3.85923 0
M  V30 4390 H 417.73 -0.472769 -0.565383 0
M  V30 4391 H 420.372 -1.66341 -0.918192 0
M  V30 4392 H 418.522 -1.90139 -3.38791 0
M  V30 4393 H 420.194 -4.13682 -2.04121 0
M  V30 4394 H 418.437 -3.92042 -1.85704 0
M  V30 4395 H 419.108 -4.31511 -3.44242 0
M  V30 4396 H 421.584 -2.38855 -3.40716 0
M  V30 4397 H 420.46 -2.77688 -4.73477 0
M  V30 4398 H 420.721 -1.09987 -4.282 0
M  V30 4399 N 419.78 1.02168 -1.19998 0
M  V30 4400 C 420.743 2.08765 -0.94604 0
M  V30 4401 C 421.743 1.60618 0.0763846 0
M  V30 4402 O 422.933 1.73472 -0.159135 0
M  V30 4403 C 420.065 3.38262 -0.423255 0
M  V30 4404 H 421.258 2.32726 -1.89153 0
M  V30 4405 H 418.811 1.1889 -1.01464 0
M  V30 4406 H 419.546 3.19974 0.527938 0
M  V30 4407 H 419.331 3.74532 -1.16053 0
M  V30 4408 H 420.821 4.16759 -0.264911 0
M  V30 4409 N 421.258 1.00505 1.21394 0
M  V30 4410 C 422.188 0.585684 2.26035 0
M  V30 4411 C 423.169 -0.393525 1.65485 0
M  V30 4412 O 424.354 -0.281497 1.92149 0
M  V30 4413 C 421.484 -0.0884283 3.47187 0
M  V30 4414 C 420.438 0.810567 4.20254 0
M  V30 4415 C 419.764 0.00286382 5.347 0
M  V30 4416 C 421.064 2.1132 4.77641 0
M  V30 4417 H 422.758 1.46039 2.61368 0
M  V30 4418 H 420.304 0.703648 1.25638 0
M  V30 4419 H 422.257 -0.393286 4.19561 0
M  V30 4420 H 420.981 -0.997766 3.10986 0
M  V30 4421 H 419.64 1.09925 3.49731 0
M  V30 4422 H 419.288 -0.907765 4.94741 0
M  V30 4423 H 418.988 0.601444 5.84514 0
M  V30 4424 H 420.512 -0.295808 6.09883 0
M  V30 4425 H 421.926 1.87148 5.41893 0
M  V30 4426 H 420.323 2.66164 5.37845 0
M  V30 4427 H 421.393 2.78393 3.9702 0
M  V30 4428 N 422.737 -1.36956 0.779787 0
M  V30 4429 C 423.669 -2.28833 0.129639 0
M  V30 4430 C 424.682 -1.4902 -0.655511 0
M  V30 4431 O 425.871 -1.71578 -0.492279 0
M  V30 4432 C 422.971 -3.2833 -0.839792 0
M  V30 4433 C 422.144 -4.3727 -0.10675 0
M  V30 4434 C 421.203 -5.16789 -0.990717 0
M  V30 4435 O 420.229 -5.67406 -0.451516 0
M  V30 4436 N 421.431 -5.32294 -2.3161 0
M  V30 4437 H 424.196 -2.85268 0.918803 0
M  V30 4438 H 421.757 -1.49019 0.632841 0
M  V30 4439 H 423.749 -3.78413 -1.43477 0
M  V30 4440 H 422.319 -2.72605 -1.52988 0
M  V30 4441 H 421.539 -3.88478 0.669216 0
M  V30 4442 H 422.827 -5.07229 0.399464 0
M  V30 4443 H 422.225 -4.92768 -2.77843 0
M  V30 4444 H 420.782 -5.85656 -2.86095 0
M  V30 4445 N 424.215 -0.530993 -1.48385 0
M  V30 4446 C 425.125 0.23503 -2.3342 0
M  V30 4447 C 426.141 0.93801 -1.46552 0
M  V30 4448 O 427.317 0.912745 -1.7953 0
M  V30 4449 C 424.382 1.26778 -3.22689 0
M  V30 4450 C 423.443 0.575038 -4.25431 0
M  V30 4451 C 422.676 1.55858 -5.10435 0
M  V30 4452 O 422.899 2.79129 -4.97437 0
M  V30 4453 O 421.833 1.09742 -5.91811 0
M  V30 4454 H 425.659 -0.461794 -3.00169 0
M  V30 4455 H 423.244 -0.291903 -1.46521 0
M  V30 4456 H 425.126 1.86457 -3.77904 0
M  V30 4457 H 423.801 1.94699 -2.586 0
M  V30 4458 H 422.708 -0.0622782 -3.74048 0
M  V30 4459 H 424.041 -0.062253 -4.92161 0
M  V30 4460 N 425.693 1.55336 -0.266172 0
M  V30 4461 C 426.941 1.99003 0.35246 0
M  V30 4462 C 427.262 1.15591 1.57047 0
M  V30 4463 O 426.532 0.243268 1.94384 0
M  V30 4464 H 425.112 0.735025 0.133217 0
M  V30 4465 H 427.774 1.91367 -0.369434 0
M  V30 4466 H 426.87 3.05289 0.648453 0
M  V30 4467 N 427.171 -0.0066808 1.57599 0
M  V30 4468 C 428.417 -0.693947 1.90558 0
M  V30 4469 C 428.75 -1.73792 0.866594 0
M  V30 4470 O 428.025 -1.94156 -0.115548 0
M  V30 4471 C 428.308 -1.34317 3.34112 0
M  V30 4472 C 428.161 -0.311189 4.48722 0
M  V30 4473 C 429.48 -2.27116 3.7697 0
M  V30 4474 H 426.599 -0.250803 0.693013 0
M  V30 4475 H 429.241 0.043242 1.89951 0
M  V30 4476 H 427.391 -1.9715 3.3476 0
M  V30 4477 H 429.063 0.316944 4.6021 0
M  V30 4478 H 427.306 0.367253 4.32243 0
M  V30 4479 H 427.977 -0.804366 5.46108 0
M  V30 4480 H 430.453 -1.74306 3.77831 0
M  V30 4481 H 429.329 -2.69511 4.78179 0
M  V30 4482 H 429.59 -3.14743 3.10466 0
M  V30 4483 N 428.649 -1.55105 -0.279332 0
M  V30 4484 C 429.874 -1.7976 -1.03446 0
M  V30 4485 C 430.299 -0.565952 -1.79384 0
M  V30 4486 O 429.657 0.484259 -1.74713 0
M  V30 4487 C 429.705 -3.0179 -1.97371 0
M  V30 4488 O 428.809 -2.76432 -3.06038 0
M  V30 4489 H 428.15 -0.594334 -0.29608 0
M  V30 4490 H 430.68 -2.02235 -0.310165 0
M  V30 4491 H 430.69 -3.30351 -2.39441 0
M  V30 4492 H 429.365 -3.91085 -1.4151 0
M  V30 4493 H 427.942 -2.58949 -2.68328 0
M  V30 4494 N 430.127 0.543554 -1.4793 0
M  V30 4495 C 431.037 1.67657 -1.64098 0
M  V30 4496 C 432.053 1.65934 -0.523622 0
M  V30 4497 O 433.229 1.85133 -0.792943 0
M  V30 4498 C 430.294 3.04146 -1.66421 0
M  V30 4499 C 429.355 3.16831 -2.89684 0
M  V30 4500 C 428.588 4.46809 -2.91886 0
M  V30 4501 O 428.811 5.33095 -2.02895 0
M  V30 4502 O 427.745 4.63573 -3.83906 0
M  V30 4503 H 431.571 1.56957 -2.59997 0
M  V30 4504 H 429.156 0.715116 -1.31173 0
M  V30 4505 H 431.038 3.85346 -1.70548 0
M  V30 4506 H 429.713 3.152 -0.736923 0
M  V30 4507 H 428.62 2.34977 -2.91095 0
M  V30 4508 H 429.953 3.10687 -3.81752 0
M  V30 4509 N 431.605 1.3629 0.791371 0
M  V30 4510 C 432.515 1.32606 1.93527 0
M  V30 4511 C 433.531 0.228541 1.72493 0
M  V30 4512 O 434.707 0.460571 1.96063 0
M  V30 4513 C 431.772 1.11271 3.28359 0
M  V30 4514 C 430.833 2.3048 3.62185 0
M  V30 4515 C 430.066 2.10154 4.90583 0
M  V30 4516 O 430.289 1.07572 5.60165 0
M  V30 4517 O 429.223 2.97884 5.23019 0
M  V30 4518 H 433.049 2.28909 1.99585 0
M  V30 4519 H 430.634 1.16818 0.931344 0
M  V30 4520 H 432.516 1.01283 4.09047 0
M  V30 4521 H 431.191 0.180292 3.23198 0
M  V30 4522 H 430.098 2.46036 2.81811 0
M  V30 4523 H 431.431 3.22221 3.72068 0
M  V30 4524 N 433.083 -1.0153 1.20538 0
M  V30 4525 C 434.015 -2.10224 0.913155 0
M  V30 4526 C 435.028 -1.62495 -0.0995998 0
M  V30 4527 O 436.217 -1.78014 0.131582 0
M  V30 4528 C 433.317 -3.37111 0.347717 0
M  V30 4529 C 432.49 -4.13971 1.41233 0
M  V30 4530 C 431.549 -5.19158 0.857976 0
M  V30 4531 O 430.575 -5.48 1.53897 0
M  V30 4532 N 431.777 -5.7955 -0.331966 0
M  V30 4533 H 434.542 -2.35879 1.84881 0
M  V30 4534 H 432.103 -1.17931 1.10923 0
M  V30 4535 H 434.095 -4.04683 -0.0373026 0
M  V30 4536 H 432.665 -3.08696 -0.492527 0
M  V30 4537 H 431.885 -3.41351 1.97163 0
M  V30 4538 H 433.173 -4.62103 2.12928 0
M  V30 4539 H 432.571 -5.58455 -0.902478 0
M  V30 4540 H 431.128 -6.48464 -0.65861 0
M  V30 4541 N 434.561 -1.01147 -1.20859 0
M  V30 4542 C 435.81 -0.693214 -1.89413 0
M  V30 4543 C 436.123 0.779969 -1.79376 0
M  V30 4544 O 437.329 1.21057 -2.43017 0
M  V30 4545 C 435.785 -1.18949 -3.39675 0
M  V30 4546 C 435.393 -2.68921 -3.58309 0
M  V30 4547 C 437.137 -0.94642 -4.13815 0
M  V30 4548 C 435.044 -3.12056 -5.0237 0
M  V30 4549 H 433.974 -0.255595 -0.709357 0
M  V30 4550 H 436.625 -1.22349 -1.36759 0
M  V30 4551 H 435.007 -0.587228 -3.91622 0
M  V30 4552 H 436.181 -3.34652 -3.16772 0
M  V30 4553 H 434.496 -2.91314 -2.97532 0
M  V30 4554 H 437.093 -1.24417 -5.20023 0
M  V30 4555 H 437.436 0.117219 -4.16135 0
M  V30 4556 H 437.969 -1.5118 -3.67953 0
M  V30 4557 H 434.708 -4.17674 -5.05202 0
M  V30 4558 H 434.228 -2.51041 -5.44737 0
M  V30 4559 H 435.907 -3.04403 -5.70918 0
M  V30 4560 N 436.039 1.36541 -0.78704 0
M  V30 4561 C 437.455 1.52571 -0.46844 0
M  V30 4562 C 437.655 1.7415 1.01361 0
M  V30 4563 O 436.711 1.77163 1.79915 0
M  V30 4564 C 438.024 2.71299 -1.29682 0
M  V30 4565 C 439.572 2.85169 -1.29027 0
M  V30 4566 C 440.047 4.06898 -2.10233 0
M  V30 4567 N 441.538 4.1404 -2.07666 0
M  V30 4568 C 442.273 5.07301 -2.67271 0
M  V30 4569 N 441.769 6.06021 -3.35724 0
M  V30 4570 N 443.562 4.99898 -2.57018 0
M  V30 4571 H 435.713 1.20788 -1.74711 0
M  V30 4572 H 437.976 0.589364 -0.742532 0
M  V30 4573 H 437.682 2.61868 -2.34773 0
M  V30 4574 H 437.556 3.6539 -0.936479 0
M  V30 4575 H 439.943 2.94062 -0.247284 0
M  V30 4576 H 440.024 1.91992 -1.69035 0
M  V30 4577 H 439.668 3.98766 -3.1456 0
M  V30 4578 H 439.598 4.99218 -1.67597 0
M  V30 4579 H 442.089 3.43357 -1.57843 0
M  V30 4580 H 442.402 6.73741 -3.78541 0
M  V30 4581 H 440.747 6.06253 -3.39826 0
M  V30 4582 H 443.938 4.21724 -2.03142 0
M  V30 4583 H 444.111 5.72392 -3.03761 0
M  V30 4584 N 437.518 0.538854 1.48102 0
M  V30 4585 C 438.448 -0.207654 2.32575 0
M  V30 4586 C 439.429 -0.926559 1.4265 0
M  V30 4587 O 440.614 -0.91061 1.71527 0
M  V30 4588 C 437.744 -1.24957 3.24042 0
M  V30 4589 C 436.698 -0.648263 4.23062 0
M  V30 4590 C 436.024 -1.79348 5.03725 0
M  V30 4591 C 437.324 0.385897 5.20872 0
M  V30 4592 H 439.018 0.497534 2.95237 0
M  V30 4593 H 436.564 0.240715 1.41974 0
M  V30 4594 H 438.517 -1.77983 3.81969 0
M  V30 4595 H 437.241 -1.98446 2.59397 0
M  V30 4596 H 435.9 -0.139452 3.66335 0
M  V30 4597 H 435.548 -2.51696 4.35498 0
M  V30 4598 H 435.248 -1.39702 5.70751 0
M  V30 4599 H 436.772 -2.32735 5.64506 0
M  V30 4600 H 438.186 -0.057607 5.73271 0
M  V30 4601 H 436.583 0.700227 5.96001 0
M  V30 4602 H 437.653 1.28848 4.67468 0
M  V30 4603 N 438.996 -1.55193 0.274407 0
M  V30 4604 C 439.959 -2.212 -0.600279 0
M  V30 4605 C 440.959 -1.18963 -1.08187 0
M  V30 4606 O 442.149 -1.43873 -0.982158 0
M  V30 4607 C 439.281 -2.87739 -1.82809 0
M  V30 4608 H 440.474 -2.9989 -0.0239682 0
M  V30 4609 H 438.027 -1.5628 0.0250192 0
M  V30 4610 H 438.762 -2.13058 -2.44493 0
M  V30 4611 H 438.547 -3.62658 -1.49069 0
M  V30 4612 H 440.037 -3.38171 -2.45011 0
M  V30 4613 N 440.474 -0.00167713 -1.576 0
M  V30 4614 C 441.721 0.68282 -1.90641 0
M  V30 4615 C 442.049 1.73686 -0.875415 0
M  V30 4616 O 441.304 1.95334 0.119575 0
M  V30 4617 C 441.603 1.36189 -3.30435 0
M  V30 4618 C 441.269 0.440887 -4.48739 0
M  V30 4619 C 439.931 0.187312 -4.80835 0
M  V30 4620 C 442.283 -0.193134 -5.20842 0
M  V30 4621 C 439.611 -0.70855 -5.82406 0
M  V30 4622 C 441.963 -1.07688 -6.23367 0
M  V30 4623 C 440.627 -1.33962 -6.53919 0
M  V30 4624 H 439.897 0.249862 -0.697603 0
M  V30 4625 H 442.544 -0.0575642 -1.91413 0
M  V30 4626 H 440.849 2.17636 -3.25794 0
M  V30 4627 H 442.546 1.89759 -3.5326 0
M  V30 4628 H 439.136 0.648694 -4.23663 0
M  V30 4629 H 443.32 -0.0102445 -4.96299 0
M  V30 4630 H 438.576 -0.920097 -6.04437 0
M  V30 4631 H 442.75 -1.57451 -6.78367 0
M  V30 4632 H 440.377 -2.03549 -7.32442 0
M  V30 4633 N 441.952 1.55251 0.271103 0
M  V30 4634 C 442.884 1.84675 1.35749 0
M  V30 4635 C 443.897 0.731366 1.45447 0
M  V30 4636 O 445.086 1.00924 1.4723 0
M  V30 4637 C 442.186 1.99638 2.73857 0
M  V30 4638 C 441.359 3.30312 2.86727 0
M  V30 4639 C 440.418 3.35318 4.05522 0
M  V30 4640 O 439.444 4.08682 3.96191 0
M  V30 4641 N 440.646 2.62857 5.17577 0
M  V30 4642 H 443.411 2.78445 1.10853 0
M  V30 4643 H 440.972 1.55191 0.461218 0
M  V30 4644 H 442.964 2.00355 3.51625 0
M  V30 4645 H 441.534 1.12725 2.91568 0
M  V30 4646 H 440.754 3.42118 1.95829 0
M  V30 4647 H 442.042 4.16488 2.92258 0
M  V30 4648 H 441.44 2.02939 5.28046 0
M  V30 4649 H 439.997 2.69295 5.93568 0
M  V30 4650 N 443.43 -0.535701 1.48216 0
M  V30 4651 C 444.38 -1.63688 1.58714 0
M  V30 4652 C 445.364 -1.54635 0.444615 0
M  V30 4653 O 446.556 -1.62753 0.695742 0
M  V30 4654 C 443.685 -3.02423 1.62466 0
M  V30 4655 C 442.771 -3.16601 2.82178 0
M  V30 4656 N 443.162 -3.00771 4.06658 0
M  V30 4657 C 441.46 -3.47645 2.79391 0
M  V30 4658 C 442.161 -3.18213 4.86945 0
M  V30 4659 N 441.137 -3.45528 4.19656 0
M  V30 4660 H 444.939 -1.5005 2.5271 0
M  V30 4661 H 442.453 -0.741018 1.44508 0
M  V30 4662 H 444.45 -3.81517 1.6808 0
M  V30 4663 H 443.11 -3.17157 0.695826 0
M  V30 4664 H 444.121 -2.77652 4.37184 0
M  V30 4665 H 440.798 -3.68771 1.95739 0
M  V30 4666 H 442.188 -3.1076 5.95716 0
M  V30 4667 N 444.908 -1.36708 -0.784132 0
M  V30 4668 C 445.838 -1.34153 -1.91116 0
M  V30 4669 C 446.819 -0.212121 -1.68772 0
M  V30 4670 O 448.004 -0.410581 -1.8981 0
M  V30 4671 C 445.134 -1.13535 -3.28218 0
M  V30 4672 C 444.088 -2.23356 -3.65097 0
M  V30 4673 C 443.414 -1.87875 -5.00607 0
M  V30 4674 C 444.714 -3.65473 -3.73131 0
M  V30 4675 H 446.408 -2.28459 -1.93512 0
M  V30 4676 H 443.954 -1.09973 -0.929618 0
M  V30 4677 H 445.907 -1.10381 -4.06687 0
M  V30 4678 H 444.631 -0.156804 -3.26223 0
M  V30 4679 H 443.29 -2.25645 -2.88929 0
M  V30 4680 H 442.938 -0.885814 -4.95139 0
M  V30 4681 H 442.638 -2.61406 -5.26252 0
M  V30 4682 H 444.162 -1.86286 -5.81489 0
M  V30 4683 H 445.576 -3.65382 -4.41779 0
M  V30 4684 H 443.973 -4.37953 -4.10265 0
M  V30 4685 H 445.043 -3.99995 -2.74102 0
M  V30 4686 N 446.386 1.0089 -1.21074 0
M  V30 4687 C 447.296 2.13039 -0.982425 0
M  V30 4688 C 448.312 1.73881 0.0642161 0
M  V30 4689 O 449.488 2.01012 -0.12496 0
M  V30 4690 C 446.553 3.42377 -0.545803 0
M  V30 4691 C 445.614 3.95731 -1.6642 0
M  V30 4692 C 444.847 5.18896 -1.24832 0
M  V30 4693 O 445.07 5.70273 -0.120265 0
M  V30 4694 O 444.004 5.65597 -2.05873 0
M  V30 4695 H 447.83 2.35175 -1.92163 0
M  V30 4696 H 445.415 1.1142 -0.995285 0
M  V30 4697 H 447.297 4.20244 -0.311912 0
M  V30 4698 H 445.972 3.21639 0.364727 0
M  V30 4699 H 444.879 3.19108 -1.95246 0
M  V30 4700 H 446.212 4.20872 -2.55201 0
M  V30 4701 N 447.864 1.01787 1.20321 0
M  V30 4702 C 448.794 0.609625 2.25401 0
M  V30 4703 C 449.775 -0.375951 1.65893 0
M  V30 4704 O 450.96 -0.261101 1.92437 0
M  V30 4705 C 448.09 -0.0515995 3.47262 0
M  V30 4706 C 447.044 0.855095 4.19371 0
M  V30 4707 C 446.37 0.0595757 5.34667 0
M  V30 4708 C 447.67 2.16374 4.75373 0
M  V30 4709 H 449.364 1.48803 2.59804 0
M  V30 4710 H 446.91 0.716934 1.24884 0
M  V30 4711 H 448.863 -0.348764 4.19954 0
M  V30 4712 H 447.587 -0.964726 3.12027 0
M  V30 4713 H 446.246 1.13628 3.48546 0
M  V30 4714 H 445.894 -0.85524 4.95676 0
M  V30 4715 H 445.594 0.663406 5.83843 0
M  V30 4716 H 447.118 -0.231105 6.10162 0
M  V30 4717 H 448.532 1.92885 5.39878 0
M  V30 4718 H 446.929 2.71853 5.34991 0
M  V30 4719 H 447.999 2.82589 3.94045 0
M  V30 4720 N 449.342 -1.36122 0.79427 0
M  V30 4721 C 450.57 -2.03362 0.380989 0
M  V30 4722 C 450.985 -1.59881 -1.00416 0
M  V30 4723 O 450.342 -0.790515 -1.6449 0
M  V30 4724 C 450.393 -3.58804 0.440649 0
M  V30 4725 O 450.114 -4.007 1.77118 0
M  V30 4726 C 451.615 -4.43296 0.0186117 0
M  V30 4727 H 448.835 -0.652526 0.156367 0
M  V30 4728 H 451.379 -1.73998 1.07447 0
M  V30 4729 H 449.534 -3.8686 -0.204458 0
M  V30 4730 H 449.948 -4.95309 1.72538 0
M  V30 4731 H 451.422 -5.51887 0.111488 0
M  V30 4732 H 451.899 -4.2684 -1.03461 0
M  V30 4733 H 452.505 -4.20512 0.636395 0
M  V30 4734 N 450.82 -0.546701 -1.47814 0
M  V30 4735 C 452.236 -0.205717 -1.58269 0
M  V30 4736 C 452.436 1.29153 -1.54667 0
M  V30 4737 O 451.492 2.07098 -1.44453 0
M  V30 4738 C 452.805 -0.823065 -2.89216 0
M  V30 4739 C 454.353 -0.793328 -3.02779 0
M  V30 4740 C 454.828 -1.38955 -4.36412 0
M  V30 4741 N 456.319 -1.35227 -4.43021 0
M  V30 4742 C 457.054 -1.78333 -5.44963 0
M  V30 4743 N 456.55 -2.29246 -6.53772 0
M  V30 4744 N 458.343 -1.69467 -5.35945 0
M  V30 4745 H 450.494 -1.5196 -1.48398 0
M  V30 4746 H 452.757 -0.633078 -0.705632 0
M  V30 4747 H 452.463 -1.8749 -2.97558 0
M  V30 4748 H 452.337 -0.309915 -3.75925 0
M  V30 4749 H 454.724 0.249784 -2.94041 0
M  V30 4750 H 454.805 -1.34412 -2.17639 0
M  V30 4751 H 454.449 -2.43168 -4.45906 0
M  V30 4752 H 454.379 -0.814291 -5.20266 0
M  V30 4753 H 456.87 -0.979739 -3.64979 0
M  V30 4754 H 457.183 -2.60089 -7.27718 0
M  V30 4755 H 455.528 -2.3325 -6.5469 0
M  V30 4756 H 458.719 -1.29477 -4.49837 0
M  V30 4757 H 458.892 -2.03381 -6.15256 0
M  V30 4758 N 452.299 1.55045 -0.282633 0
M  V30 4759 C 453.247 2.24254 0.617478 0
M  V30 4760 C 454.241 1.24215 1.15183 0
M  V30 4761 O 455.447 1.42123 1.10459 0
M  V30 4762 H 451.822 0.719801 0.217693 0
M  V30 4763 H 453.793 2.98398 0.0110076 0
M  V30 4764 C 452.542 2.98281 1.78672 0
M  V30 4765 H 451.865 3.75053 1.38475 0
M  V30 4766 H 453.305 3.50017 2.393 0
M  V30 4767 C 451.764 2.04184 2.67975 0
M  V30 4768 O 452.294 1.59792 3.6855 0
M  V30 4769 N 450.5 1.70526 2.35307 0
M  V30 4770 H 450.047 2.06821 1.53567 0
M  V30 4771 H 450.005 1.07839 2.95327 0
M  V30 4772 N 453.777 0.010035 1.57597 0
M  V30 4773 C 455.193 -0.346164 1.55801 0
M  V30 4774 C 455.393 -1.74144 1.01371 0
M  V30 4775 O 454.449 -2.43938 0.651968 0
M  V30 4776 C 455.762 -0.212216 2.9995 0
M  V30 4777 C 457.31 -0.286409 3.11687 0
M  V30 4778 C 457.785 -0.18147 4.5764 0
M  V30 4779 N 459.276 -0.239056 4.62583 0
M  V30 4780 C 460.011 -0.181351 5.73113 0
M  V30 4781 N 459.507 -0.073661 6.92761 0
M  V30 4782 N 461.3 -0.233949 5.61613 0
M  V30 4783 H 453.451 0.922657 1.91313 0
M  V30 4784 H 455.714 0.354595 0.879185 0
M  V30 4785 H 455.42 0.748169 3.4365 0
M  V30 4786 H 455.294 -0.990224 3.6397 0
M  V30 4787 H 457.681 -1.23724 2.67911 0
M  V30 4788 H 457.762 0.521645 2.50425 0
M  V30 4789 H 457.406 0.765863 5.02093 0
M  V30 4790 H 457.336 -1.00814 5.1686 0
M  V30 4791 H 459.827 -0.32321 3.76515 0
M  V30 4792 H 460.14 -0.0358003 7.72792 0
M  V30 4793 H 458.485 -0.0391461 6.94989 0
M  V30 4794 H 461.676 -0.316347 4.6703 0
M  V30 4795 H 461.849 -0.185514 6.47734 0
M  V30 4796 N 455.255 -1.55392 -0.262866 0
M  V30 4797 C 456.483 -1.80513 -1.01108 0
M  V30 4798 C 456.898 -0.583533 -1.79556 0
M  V30 4799 O 456.255 0.447585 -1.76926 0
M  V30 4800 C 456.306 -3.03648 -1.96164 0
M  V30 4801 O 456.027 -4.2109 -1.20893 0
M  V30 4802 C 457.528 -3.41448 -2.82715 0
M  V30 4803 H 454.748 -0.601079 -0.298236 0
M  V30 4804 H 457.292 -2.02425 -0.290582 0
M  V30 4805 H 455.447 -2.83832 -2.63663 0
M  V30 4806 H 455.861 -4.90771 -1.85051 0
M  V30 4807 H 457.335 -4.30751 -3.45192 0
M  V30 4808 H 457.812 -2.61308 -3.53008 0
M  V30 4809 H 458.418 -3.63559 -2.20693 0
M  V30 4810 N 456.733 0.527833 -1.48498 0
M  V30 4811 C 457.643 1.65907 -1.65867 0
M  V30 4812 C 458.659 1.6537 -0.541192 0
M  V30 4813 O 459.835 1.84282 -0.812534 0
M  V30 4814 C 456.9 3.02364 -1.69637 0
M  V30 4815 C 455.961 3.1374 -2.93028 0
M  V30 4816 C 455.194 4.43688 -2.96609 0
M  V30 4817 O 455.417 5.30913 -2.08538 0
M  V30 4818 O 454.351 4.59475 -3.88802 0
M  V30 4819 H 458.177 1.5419 -2.61647 0
M  V30 4820 H 455.762 0.701163 -1.31924 0
M  V30 4821 H 457.644 3.83515 -1.74625 0
M  V30 4822 H 456.319 3.14401 -0.770312 0
M  V30 4823 H 455.226 2.31877 -2.93571 0
M  V30 4824 H 456.559 3.06621 -3.85026 0
M  V30 4825 N 458.211 1.37122 0.776871 0
M  V30 4826 C 459.457 1.3325 1.53675 0
M  V30 4827 C 459.812 -0.0839891 1.92217 0
M  V30 4828 O 459.105 -1.04145 1.60824 0
M  V30 4829 C 459.299 2.20068 2.81611 0
M  V30 4830 C 459.128 3.70016 2.55574 0
M  V30 4831 C 457.898 4.39144 2.4996 0
M  V30 4832 C 460.096 4.62996 2.23917 0
M  V30 4833 N 458.078 5.74663 2.15953 0
M  V30 4834 C 459.449 5.86854 2.00005 0
M  V30 4835 C 461.504 4.51433 2.1003 0
M  V30 4836 C 460.207 7.00446 1.63609 0
M  V30 4837 C 462.233 5.64905 1.75033 0
M  V30 4838 C 461.595 6.8781 1.51977 0
M  V30 4839 H 457.694 0.542878 0.562856 0
M  V30 4840 H 460.278 1.72295 0.906784 0
M  V30 4841 H 458.449 1.83248 3.42454 0
M  V30 4842 H 460.181 2.07492 3.47461 0
M  V30 4843 H 456.936 3.92088 2.65639 0
M  V30 4844 H 457.36 6.46268 2.0166 0
M  V30 4845 H 462.002 3.56987 2.26539 0
M  V30 4846 H 459.72 7.94831 1.45837 0
M  V30 4847 H 463.306 5.57926 1.64952 0
M  V30 4848 H 462.186 7.74126 1.25296 0
M  V30 4849 N 459.689 -1.00246 1.21608 0
M  V30 4850 C 460.636 -2.09073 0.977613 0
M  V30 4851 C 461.606 -1.65815 -0.097297 0
M  V30 4852 O 462.791 -1.90734 0.0503445 0
M  V30 4853 C 459.931 -3.40671 0.551133 0
M  V30 4854 C 459.044 -3.97326 1.69576 0
M  V30 4855 C 458.179 -5.17043 1.2182 0
M  V30 4856 C 457.218 -5.65813 2.335 0
M  V30 4857 N 456.355 -6.76778 1.86859 0
M  V30 4858 H 461.195 -2.28806 1.90924 0
M  V30 4859 H 458.732 -1.12186 0.951452 0
M  V30 4860 H 460.69 -4.16225 0.285097 0
M  V30 4861 H 459.32 -3.20967 -0.343489 0
M  V30 4862 H 458.372 -3.18734 2.07637 0
M  V30 4863 H 459.684 -4.29511 2.53617 0
M  V30 4864 H 458.838 -5.99852 0.908975 0
M  V30 4865 H 457.577 -4.86458 0.347869 0
M  V30 4866 H 456.582 -4.81599 2.65222 0
M  V30 4867 H 457.807 -5.98427 3.21033 0
M  V30 4868 H 455.753 -6.47994 1.02174 0
M  V30 4869 H 455.67 -7.08231 2.64471 0
M  V30 4870 H 456.938 -7.63116 1.58978 0
M  V30 4871 N 461.167 -1.02423 -1.1978 0
M  V30 4872 C 462.114 -0.601023 -2.22837 0
M  V30 4873 C 463.084 0.382801 -1.61629 0
M  V30 4874 O 464.269 0.280514 -1.88727 0
M  V30 4875 C 461.409 0.0467755 -3.45068 0
M  V30 4876 C 460.522 -0.98253 -4.20678 0
M  V30 4877 C 459.657 -0.304982 -5.30324 0
M  V30 4878 C 458.696 -1.32052 -5.97686 0
M  V30 4879 N 457.833 -0.669105 -6.98904 0
M  V30 4880 H 462.673 -1.48444 -2.58396 0
M  V30 4881 H 460.21 -0.742936 -1.2696 0
M  V30 4882 H 462.168 0.439556 -4.14878 0
M  V30 4883 H 460.798 0.893796 -3.10179 0
M  V30 4884 H 459.85 -1.49341 -3.49859 0
M  V30 4885 H 461.162 -1.75455 -4.66923 0
M  V30 4886 H 460.316 0.142893 -6.06532 0
M  V30 4887 H 459.055 0.499283 -4.85138 0
M  V30 4888 H 458.06 -1.7787 -5.20233 0
M  V30 4889 H 459.285 -2.1262 -6.44957 0
M  V30 4890 H 457.231 0.115152 -6.55899 0
M  V30 4891 H 457.148 -1.37908 -7.43315 0
M  V30 4892 H 458.416 -0.245076 -7.79115 0
M  V30 4893 N 462.645 1.35699 -0.801477 0
M  V30 4894 C 463.608 2.28199 -0.213994 0
M  V30 4895 C 464.608 1.49359 0.595691 0
M  V30 4896 O 465.798 1.69186 0.414921 0
M  V30 4897 C 462.93 3.33587 0.702297 0
M  V30 4898 H 464.123 2.81666 -1.02976 0
M  V30 4899 H 461.676 1.45467 -0.571759 0
M  V30 4900 H 462.411 2.85297 1.54195 0
M  V30 4901 H 462.196 3.91906 0.123484 0
M  V30 4902 H 463.686 4.02638 1.10783 0
M  V30 4903 N 464.123 0.554532 1.47522 0
M  V30 4904 C 465.086 -0.184174 2.28459 0
M  V30 4905 C 466.086 -0.845195 1.36796 0
M  V30 4906 O 467.276 -0.701467 1.59452 0
M  V30 4907 C 464.408 -1.26903 3.16399 0
M  V30 4908 H 465.601 0.526751 2.95238 0
M  V30 4909 H 463.154 0.311375 1.53167 0
M  V30 4910 H 463.889 -2.01244 2.54306 0
M  V30 4911 H 463.674 -0.799883 3.83854 0
M  V30 4912 H 465.164 -1.78794 3.77389 0
M  V30 4913 N 465.601 -1.54893 0.290851 0
M  V30 4914 C 466.549 -2.24579 -0.605576 0
M  V30 4915 C 467.543 -1.24824 -1.14522 0
M  V30 4916 O 468.749 -1.42706 -1.09704 0
M  V30 4917 H 465.124 -0.720946 -0.213872 0
M  V30 4918 H 467.095 -2.984 0.0048173 0
M  V30 4919 C 465.844 -2.99224 -1.77088 0
M  V30 4920 H 465.167 -3.75782 -1.36484 0
M  V30 4921 H 466.607 -3.51281 -2.3744 0
M  V30 4922 C 465.066 -2.05602 -2.66888 0
M  V30 4923 O 465.596 -1.61745 -3.67698 0
M  V30 4924 N 463.802 -1.71771 -2.34399 0
M  V30 4925 H 463.349 -2.07633 -1.52468 0
M  V30 4926 H 463.307 -1.09403 -2.94751 0
M  V30 4927 N 467.08 -0.0183926 -1.57589 0
M  V30 4928 C 468.328 0.661253 -1.90976 0
M  V30 4929 C 468.649 1.73281 -0.894353 0
M  V30 4930 O 467.919 1.9579 0.0656788 0
M  V30 4931 H 466.499 0.247233 -0.704901 0
M  V30 4932 H 469.161 -0.0636639 -1.94796 0
M  V30 4933 H 468.257 1.12083 -2.9128 0
M  V30 4934 N 468.558 1.5553 0.254621 0
M  V30 4935 C 469.521 1.88872 1.29846 0
M  V30 4936 C 470.521 0.764591 1.41459 0
M  V30 4937 O 471.711 1.03265 1.40293 0
M  V30 4938 C 468.843 2.11032 2.67728 0
M  V30 4939 H 470.036 2.82201 1.01502 0
M  V30 4940 H 467.589 1.48303 0.493556 0
M  V30 4941 H 468.324 1.20146 3.01223 0
M  V30 4942 H 468.109 2.92895 2.60682 0
M  V30 4943 H 469.599 2.38038 3.43115 0
M  V30 4944 N 470.036 -0.519951 1.48776 0
M  V30 4945 C 471.313 -1.28123 1.47797 0
M  V30 4946 C 471.693 -2.10196 0.195157 0
M  V30 4947 O 471.041 -2.13167 -0.822925 0
M  V30 4948 C 471.251 -2.15413 2.74587 0
M  V30 4949 C 472.599 -2.75225 3.23321 0
M  V30 4950 O 473.623 -2.25694 2.75574 0
M  V30 4951 O 472.482 -3.65346 4.06429 0
M  V30 4952 H 469.576 -0.578793 0.590701 0
M  V30 4953 H 472.122 -0.535779 1.6102 0
M  V30 4954 H 470.894 -1.54617 3.59457 0
M  V30 4955 H 470.517 -2.97186 2.64132 0
M  V30 4956 N 471.514 -1.37532 -0.769588 0
M  V30 4957 C 472.763 -1.32183 -1.5235 0
M  V30 4958 C 473.076 0.0906555 -1.9539 0
M  V30 4959 O 474.282 0.266628 -2.70188 0
M  V30 4960 C 472.738 -2.32029 -2.75119 0
M  V30 4961 C 472.346 -3.78816 -2.3917 0
M  V30 4962 C 474.09 -2.35694 -3.53056 0
M  V30 4963 C 471.997 -4.70388 -3.58453 0
M  V30 4964 H 470.927 -0.491275 -0.571984 0
M  V30 4965 H 473.578 -1.63004 -0.842739 0
M  V30 4966 H 471.96 -1.94229 -3.45096 0
M  V30 4967 H 473.134 -4.25466 -1.76962 0
M  V30 4968 H 471.449 -3.78117 -1.74402 0
M  V30 4969 H 474.046 -3.01312 -4.41718 0
M  V30 4970 H 474.389 -1.37117 -3.93071 0
M  V30 4971 H 474.922 -2.72212 -2.90078 0
M  V30 4972 H 471.661 -5.70102 -3.23518 0
M  V30 4973 H 471.181 -4.28442 -4.19758 0
M  V30 4974 H 472.86 -4.87628 -4.25239 0
M  V30 4975 N 472.992 0.995999 -1.22138 0
M  V30 4976 C 473.922 2.10387 -1.01289 0
M  V30 4977 C 474.903 1.69975 0.0651454 0
M  V30 4978 O 476.088 1.9396 -0.0964628 0
M  V30 4979 C 473.218 3.42312 -0.586517 0
M  V30 4980 C 472.172 3.96558 -1.61014 0
M  V30 4981 C 471.498 5.24494 -1.0397 0
M  V30 4982 C 472.798 4.27595 -2.99933 0
M  V30 4983 H 474.492 2.28086 -1.93951 0
M  V30 4984 H 472.038 1.09607 -0.933928 0
M  V30 4985 H 473.991 4.19223 -0.427793 0
M  V30 4986 H 472.715 3.24431 0.375761 0
M  V30 4987 H 471.374 3.21776 -1.75658 0
M  V30 4988 H 471.022 5.02953 -0.0688703 0
M  V30 4989 H 470.722 5.61755 -1.72352 0
M  V30 4990 H 472.246 6.04042 -0.892494 0
M  V30 4991 H 473.66 4.95315 -2.8868 0
M  V30 4992 H 472.057 4.76021 -3.6541 0
M  V30 4993 H 473.127 3.35498 -3.50099 0
M  V30 4994 N 474.47 1.03057 1.19235 0
M  V30 4995 C 475.695 0.74757 1.93458 0
M  V30 4996 C 476.12 -0.687648 1.7508 0
M  V30 4997 O 475.478 -1.47499 1.05422 0
M  V30 4998 C 475.526 1.10604 3.43219 0
M  V30 4999 O 474.63 0.225671 4.11782 0
M  V30 5000 H 473.971 0.276047 0.603899 0
M  V30 5001 H 476.501 1.3777 1.51263 0
M  V30 5002 H 476.511 1.06366 3.93891 0
M  V30 5003 H 475.186 2.15165 3.55917 0
M  V30 5004 H 473.763 0.326795 3.71465 0
M  V30 5005 N 475.948 -1.35272 0.808662 0
M  V30 5006 C 477.225 -1.93077 0.313181 0
M  V30 5007 C 477.605 -1.73847 -1.19752 0
M  V30 5008 O 476.953 -1.1087 -1.998 0
M  V30 5009 C 477.163 -3.41347 0.726859 0
M  V30 5010 C 478.511 -4.18493 0.717532 0
M  V30 5011 O 479.535 -3.4987 0.668535 0
M  V30 5012 O 478.394 -5.40937 0.777779 0
M  V30 5013 H 475.488 -0.822885 0.0824018 0
M  V30 5014 H 478.034 -1.44335 0.892499 0
M  V30 5015 H 476.806 -3.49082 1.76797 0
M  V30 5016 H 476.429 -3.97411 0.122461 0
M  V30 5017 N 477.426 -0.562348 -1.47226 0
M  V30 5018 C 478.672 -0.0402761 -2.0276 0
M  V30 5019 C 479.005 1.30823 -1.43523 0
M  V30 5020 O 478.28 1.85249 -0.592705 0
M  V30 5021 C 478.563 0.047311 -3.60069 0
M  V30 5022 C 478.416 -1.32865 -4.29729 0
M  V30 5023 C 479.735 0.758182 -4.3352 0
M  V30 5024 H 476.854 -0.0161105 -0.736824 0
M  V30 5025 H 479.496 -0.725628 -1.75598 0
M  V30 5026 H 477.646 0.630986 -3.83342 0
M  V30 5027 H 479.318 -1.95593 -4.17781 0
M  V30 5028 H 477.561 -1.90195 -3.89882 0
M  V30 5029 H 478.232 -1.22004 -5.38349 0
M  V30 5030 H 480.708 0.262546 -4.15271 0
M  V30 5031 H 479.584 0.78844 -5.43208 0
M  V30 5032 H 479.845 1.81537 -4.03109 0
M  V30 5033 N 478.904 1.54736 -0.299062 0
M  V30 5034 C 480.134 2.04215 0.312992 0
M  V30 5035 C 480.542 1.17596 1.48215 0
M  V30 5036 O 479.885 0.193835 1.82674 0
M  V30 5037 C 479.947 3.49696 0.833862 0
M  V30 5038 C 479.611 4.56518 -0.20977 0
M  V30 5039 C 480.608 5.09442 -1.03756 0
M  V30 5040 C 478.293 5.01073 -0.35091 0
M  V30 5041 C 480.287 6.05459 -1.99244 0
M  V30 5042 C 477.974 5.9691 -1.30924 0
M  V30 5043 C 478.972 6.48987 -2.1285 0
M  V30 5044 O 478.66 7.42947 -3.07059 0
M  V30 5045 H 478.392 0.672128 0.0722494 0
M  V30 5046 H 480.946 2.00718 -0.436043 0
M  V30 5047 H 479.176 3.5051 1.63339 0
M  V30 5048 H 480.865 3.82381 1.36159 0
M  V30 5049 H 481.631 4.75816 -0.939376 0
M  V30 5050 H 477.51 4.60168 0.276813 0
M  V30 5051 H 481.054 6.46031 -2.63229 0
M  V30 5052 H 476.951 6.29953 -1.40815 0
M  V30 5053 H 477.719 7.60743 -3.02015 0
M  V30 5054 N 480.382 0.0267497 1.57577 0
M  V30 5055 C 481.33 -0.973923 2.11229 0
M  V30 5056 C 482.324 -1.33849 1.03831 0
M  V30 5057 O 483.53 -1.321 1.22269 0
M  V30 5058 H 479.905 -0.331844 0.674821 0
M  V30 5059 H 481.876 -0.496092 2.94247 0
M  V30 5060 C 480.625 -2.24798 2.65257 0
M  V30 5061 H 479.948 -1.9762 3.47543 0
M  V30 5062 H 481.388 -2.93031 3.06445 0
M  V30 5063 C 479.847 -2.97611 1.57891 0
M  V30 5064 O 480.377 -3.89629 0.97735 0
M  V30 5065 N 478.583 -2.59905 1.29992 0
M  V30 5066 H 478.13 -1.85154 1.79097 0
M  V30 5067 H 478.088 -3.08932 0.583798 0
M  V30 5068 N 481.861 -1.55662 -0.24637 0
M  V30 5069 C 482.824 -1.89558 -1.28842 0
M  V30 5070 C 483.824 -0.772082 -1.41052 0
M  V30 5071 O 485.014 -1.04007 -1.39743 0
M  V30 5072 C 482.146 -2.12449 -2.66605 0
M  V30 5073 H 483.339 -2.82735 -1.00004 0
M  V30 5074 H 480.892 -1.48562 -0.485684 0
M  V30 5075 H 481.627 -1.21742 -3.00582 0
M  V30 5076 H 481.412 -2.94273 -2.59125 0
M  V30 5077 H 482.902 -2.39854 -3.41847 0
M  V30 5078 N 483.339 0.512053 -1.4905 0
M  V30 5079 C 484.287 1.63568 -1.65373 0
M  V30 5080 C 485.281 1.61228 -0.519806 0
M  V30 5081 O 486.487 1.65869 -0.699101 0
M  V30 5082 H 482.862 0.542019 -0.521267 0
M  V30 5083 H 484.833 1.4695 -2.59708 0
M  V30 5084 C 483.582 3.01761 -1.7273 0
M  V30 5085 H 482.905 3.04263 -2.59353 0
M  V30 5086 H 484.345 3.79948 -1.8819 0
M  V30 5087 C 482.804 3.33609 -0.46973 0
M  V30 5088 O 483.334 3.99607 0.409492 0
M  V30 5089 N 481.54 2.88651 -0.336003 0
M  V30 5090 H 481.087 2.35119 -1.05247 0
M  V30 5091 H 481.045 3.10328 0.504363 0
M  V30 5092 N 484.817 1.37938 0.762283 0
M  V30 5093 C 486.228 1.30094 1.33912 0
M  V30 5094 C 486.579 -0.0472026 1.96143 0
M  V30 5095 O 485.704 -0.94917 1.94473 0
M  V30 5096 C 486.299 2.35592 2.43478 0
M  V30 5097 C 484.858 2.31353 2.96905 0
M  V30 5098 C 484.005 2.18919 1.70205 0
M  V30 5099 H 486.956 1.48423 0.561816 0
M  V30 5100 H 486.977 2.00806 3.23199 0
M  V30 5101 H 486.489 3.33701 1.98155 0
M  V30 5102 H 484.59 1.36799 3.46579 0
M  V30 5103 H 484.703 3.25147 3.51875 0
M  V30 5104 H 483.067 1.65624 1.93496 0
M  V30 5105 H 483.85 3.18956 1.26973 0
M  V30 5106 N 486.295 -0.989507 1.22664 0
M  V30 5107 C 487.523 -1.76496 1.07967 0
M  V30 5108 C 487.938 -1.85148 -0.369543 0
M  V30 5109 O 487.295 -1.32408 -1.25596 0
M  V30 5110 C 487.346 -3.19642 1.68853 0
M  V30 5111 O 487.067 -3.11453 3.08105 0
M  V30 5112 C 488.568 -4.13621 1.59475 0
M  V30 5113 H 485.788 -0.55418 0.378319 0
M  V30 5114 H 488.332 -1.24378 1.62328 0
M  V30 5115 H 486.487 -3.68816 1.18547 0
M  V30 5116 H 486.901 -4.01499 3.37489 0
M  V30 5117 H 488.375 -5.11801 2.06795 0
M  V30 5118 H 488.852 -4.35718 0.55191 0
M  V30 5119 H 489.458 -3.70346 2.09103 0
M  V30 5120 N 487.773 -1.03688 -1.18687 0
M  V30 5121 C 488.736 -0.629115 -2.20397 0
M  V30 5122 C 489.736 0.311495 -1.57754 0
M  V30 5123 O 490.926 0.0974107 -1.73927 0
M  V30 5124 C 488.058 0.0782231 -3.4081 0
M  V30 5125 H 489.251 -1.52915 -2.57987 0
M  V30 5126 H 486.804 -0.828988 -1.32505 0
M  V30 5127 H 487.539 0.992233 -3.08748 0
M  V30 5128 H 487.324 -0.597776 -3.87517 0
M  V30 5129 H 488.814 0.350156 -4.16129 0
M  V30 5130 N 489.251 1.34841 -0.815825 0
M  V30 5131 C 490.184 2.27504 -0.178062 0
M  V30 5132 C 491.162 1.48542 0.661373 0
M  V30 5133 O 492.346 1.77779 0.626653 0
M  V30 5134 C 489.473 3.30246 0.752002 0
M  V30 5135 C 488.519 4.26499 -0.00899172 0
M  V30 5136 S 489.352 5.18169 -1.35134 0
M  V30 5137 C 490.508 6.24449 -0.42596 0
M  V30 5138 H 490.741 2.81248 -0.963684 0
M  V30 5139 H 488.274 1.41781 -0.611355 0
M  V30 5140 H 490.232 3.89933 1.28308 0
M  V30 5141 H 488.893 2.75363 1.51109 0
M  V30 5142 H 488.086 4.99146 0.697766 0
M  V30 5143 H 487.688 3.7103 -0.470396 0
M  V30 5144 H 489.98 6.76404 0.385234 0
M  V30 5145 H 490.923 6.99156 -1.1219 0
M  V30 5146 H 491.331 5.64497 -0.0175461 0
M  V30 5147 N 490.729 0.570148 1.46925 0
M  V30 5148 C 491.676 -0.170257 2.30171 0
M  V30 5149 C 492.646 -0.896099 1.39855 0
M  V30 5150 O 493.831 -0.889248 1.68811 0
M  V30 5151 C 490.971 -1.18605 3.24079 0
M  V30 5152 C 490.084 -0.464947 4.29491 0
M  V30 5153 C 489.219 -1.46716 5.10537 0
M  V30 5154 C 488.258 -0.731758 6.0771 0
M  V30 5155 N 487.395 -1.68142 6.81669 0
M  V30 5156 H 492.235 0.545713 2.92961 0
M  V30 5157 H 489.772 0.280938 1.44392 0
M  V30 5158 H 491.73 -1.78771 3.76957 0
M  V30 5159 H 490.36 -1.86989 2.63125 0
M  V30 5160 H 489.412 0.251506 3.79568 0
M  V30 5161 H 490.724 0.110548 4.98677 0
M  V30 5162 H 489.878 -2.14199 5.6763 0
M  V30 5163 H 488.617 -2.07658 4.41282 0
M  V30 5164 H 487.622 -0.0430787 5.49783 0
M  V30 5165 H 488.847 -0.127904 6.7898 0
M  V30 5166 H 486.793 -2.27918 6.15134 0
M  V30 5167 H 486.71 -1.15841 7.47072 0
M  V30 5168 H 487.978 -2.347 7.43328 0
M  V30 5169 N 492.207 -1.54576 0.307264 0
M  V30 5170 C 493.137 -2.26708 -0.55907 0
M  V30 5171 C 494.118 -1.26893 -1.1328 0
M  V30 5172 O 495.303 -1.55677 -1.16097 0
M  V30 5173 C 492.433 -3.01259 -1.72801 0
M  V30 5174 C 491.387 -4.08275 -1.28435 0
M  V30 5175 C 490.713 -4.70575 -2.53895 0
M  V30 5176 C 492.013 -5.2068 -0.411038 0
M  V30 5177 H 493.707 -2.9937 0.042576 0
M  V30 5178 H 491.253 -1.43983 0.0219173 0
M  V30 5179 H 493.206 -3.50444 -2.34023 0
M  V30 5180 H 491.93 -2.26187 -2.356 0
M  V30 5181 H 490.589 -3.59949 -0.695161 0
M  V30 5182 H 490.237 -3.92136 -3.15021 0
M  V30 5183 H 489.937 -5.42854 -2.24908 0
M  V30 5184 H 491.461 -5.22527 -3.15908 0
M  V30 5185 H 492.875 -5.65721 -0.929097 0
M  V30 5186 H 491.272 -5.99716 -0.214664 0
M  V30 5187 H 492.342 -4.81629 0.562287 0
M  V30 5188 N 493.685 -0.035106 -1.57561 0
M  V30 5189 C 494.934 0.641604 -1.91223 0
M  V30 5190 C 495.247 1.72944 -0.913761 0
M  V30 5191 O 496.453 2.46321 -1.14185 0
M  V30 5192 C 494.909 1.19249 -3.3957 0
M  V30 5193 C 494.517 0.137616 -4.47789 0
M  V30 5194 C 496.261 1.84537 -3.82291 0
M  V30 5195 C 494.168 0.700478 -5.87237 0
M  V30 5196 H 493.098 0.243417 -0.713627 0
M  V30 5197 H 495.749 -0.101382 -1.8322 0
M  V30 5198 H 494.131 1.98728 -3.42525 0
M  V30 5199 H 495.305 -0.635153 -4.56402 0
M  V30 5200 H 493.62 -0.416855 -4.14308 0
M  V30 5201 H 496.217 2.27616 -4.83834 0
M  V30 5202 H 496.56 2.69054 -3.17672 0
M  V30 5203 H 497.093 1.11739 -3.81784 0
M  V30 5204 H 493.832 -0.106693 -6.55413 0
M  V30 5205 H 493.352 1.4416 -5.82218 0
M  V30 5206 H 495.031 1.18837 -6.35993 0
M  V30 5207 N 495.163 1.55791 0.238111 0
M  V30 5208 C 496.093 1.94068 1.29846 0
M  V30 5209 C 497.074 0.806726 1.49753 0
M  V30 5210 O 498.259 1.06772 1.62214 0
M  V30 5211 C 495.389 2.24302 2.65153 0
M  V30 5212 C 494.343 3.40032 2.59927 0
M  V30 5213 C 493.669 3.55829 3.99111 0
M  V30 5214 C 494.969 4.75476 2.16148 0
M  V30 5215 H 496.663 2.82887 0.980563 0
M  V30 5216 H 494.209 1.36105 0.470253 0
M  V30 5217 H 496.162 2.4967 3.39475 0
M  V30 5218 H 494.886 1.32318 2.98596 0
M  V30 5219 H 493.545 3.14687 1.88063 0
M  V30 5220 H 493.193 2.6125 4.29834 0
M  V30 5221 H 492.893 4.3366 3.96501 0
M  V30 5222 H 494.417 3.83528 4.7512 0
M  V30 5223 H 495.831 5.00158 2.80205 0
M  V30 5224 H 494.228 5.56472 2.24631 0
M  V30 5225 H 495.298 4.71946 1.11333 0
M  V30 5226 N 496.642 -0.504142 1.49319 0
M  V30 5227 C 497.552 -1.63248 1.68486 0
M  V30 5228 C 498.568 -1.64488 0.567432 0
M  V30 5229 O 499.744 -1.82966 0.841749 0
M  V30 5230 C 496.809 -2.99627 1.74426 0
M  V30 5231 C 495.87 -3.09039 2.97982 0
M  V30 5232 C 495.103 -4.38913 3.0363 0
M  V30 5233 O 495.326 -5.27528 2.16958 0
M  V30 5234 O 494.26 -4.53231 3.96062 0
M  V30 5235 H 498.086 -1.50008 2.64067 0
M  V30 5236 H 495.671 -0.680086 1.33023 0
M  V30 5237 H 497.553 -3.80689 1.80705 0
M  V30 5238 H 496.228 -3.13136 0.820233 0
M  V30 5239 H 495.135 -2.27177 2.97223 0
M  V30 5240 H 496.468 -3.00456 3.89855 0
M  V30 5241 N 498.12 -1.38341 -0.754957 0
M  V30 5242 C 499.348 -1.37704 -1.54419 0
M  V30 5243 C 499.763 0.0335243 -1.8877 0
M  V30 5244 O 499.12 0.999773 -1.52679 0
M  V30 5245 C 499.171 -2.23136 -2.84416 0
M  V30 5246 O 498.892 -3.58697 -2.51531 0
M  V30 5247 C 500.393 -2.30664 -3.78562 0
M  V30 5248 H 497.613 -0.471061 -0.477852 0
M  V30 5249 H 500.157 -1.81902 -0.934446 0
M  V30 5250 H 498.312 -1.82403 -3.41772 0
M  V30 5251 H 498.726 -4.03665 -3.34896 0
M  V30 5252 H 500.2 -2.9473 -4.66732 0
M  V30 5253 H 500.677 -1.3199 -4.18898 0
M  V30 5254 H 501.283 -2.71781 -3.27131 0
M  V30 5255 N 499.598 0.982988 -1.23187 0
M  V30 5256 C 500.845 1.72392 -1.06241 0
M  V30 5257 C 501.173 1.9032 0.40108 0
M  V30 5258 O 500.428 1.45084 1.31336 0
M  V30 5259 C 500.727 3.12736 -1.73006 0
M  V30 5260 C 500.393 3.14695 -3.22921 0
M  V30 5261 C 499.055 3.14937 -3.63824 0
M  V30 5262 C 501.407 3.10211 -4.1883 0
M  V30 5263 C 498.735 3.08408 -4.99101 0
M  V30 5264 C 501.087 3.05224 -5.54095 0
M  V30 5265 C 499.751 3.03787 -5.94365 0
M  V30 5266 H 499.021 0.630829 -0.388762 0
M  V30 5267 H 501.668 1.15053 -1.53085 0
M  V30 5268 H 499.973 3.73446 -1.18514 0
M  V30 5269 H 501.67 3.68828 -1.57374 0
M  V30 5270 H 498.26 3.15262 -2.90358 0
M  V30 5271 H 502.444 3.09166 -3.8824 0
M  V30 5272 H 497.7 3.05646 -5.29519 0
M  V30 5273 H 501.874 3.00712 -6.28128 0
M  V30 5274 H 499.501 2.98483 -6.99151 0
M  V30 5275 N 501.076 1.04316 1.18135 0
M  V30 5276 C 502.301 0.768047 1.92655 0
M  V30 5277 C 502.726 -0.66904 1.758 0
M  V30 5278 O 502.084 -1.46372 1.06981 0
M  V30 5279 C 502.132 1.14239 3.42026 0
M  V30 5280 O 501.236 0.269333 4.1152 0
M  V30 5281 H 500.577 0.282436 0.600937 0
M  V30 5282 H 503.107 1.39367 1.49793 0
M  V30 5283 H 503.117 1.10538 3.92741 0
M  V30 5284 H 501.792 2.18928 3.53615 0
M  V30 5285 H 500.369 0.366175 3.71098 0
M  V30 5286 N 502.554 -1.34406 0.822964 0
M  V30 5287 C 503.517 -2.2783 0.250271 0
M  V30 5288 C 504.517 -1.50288 -0.571854 0
M  V30 5289 O 505.707 -1.69825 -0.387952 0
M  V30 5290 C 502.839 -3.34663 -0.649137 0
M  V30 5291 H 504.032 -2.79992 1.07444 0
M  V30 5292 H 501.585 -1.44539 0.594829 0
M  V30 5293 H 502.32 -2.87714 -1.49637 0
M  V30 5294 H 502.105 -3.92052 -0.0611199 0
M  V30 5295 H 503.595 -4.04349 -1.04363 0
M  V30 5296 N 504.032 -0.577932 -1.46621 0
M  V30 5297 C 505.281 -0.0594281 -2.01612 0
M  V30 5298 C 505.594 1.30663 -1.45556 0
M  V30 5299 O 506.8 1.91621 -1.92337 0
M  V30 5300 C 505.256 -0.0556666 -3.59857 0
M  V30 5301 C 504.864 -1.41975 -4.24908 0
M  V30 5302 C 506.608 0.409143 -4.22524 0
M  V30 5303 C 504.515 -1.37397 -5.75218 0
M  V30 5304 H 503.445 -0.0184469 -0.753774 0
M  V30 5305 H 506.096 -0.728869 -1.68404 0
M  V30 5306 H 504.478 0.679843 -3.90121 0
M  V30 5307 H 505.652 -2.17461 -4.0626 0
M  V30 5308 H 503.967 -1.82419 -3.74316 0
M  V30 5309 H 506.564 0.46211 -5.32699 0
M  V30 5310 H 506.907 1.42565 -3.91128 0
M  V30 5311 H 507.44 -0.272152 -3.96868 0
M  V30 5312 H 504.179 -2.36714 -6.11267 0
M  V30 5313 H 503.699 -0.661239 -5.96144 0
M  V30 5314 H 505.378 -1.08484 -6.3784 0
M  V30 5315 N 505.51 1.54411 -0.315457 0
M  V30 5316 C 506.921 1.85885 0.174265 0
M  V30 5317 C 507.272 1.23723 1.52273 0
M  V30 5318 O 506.397 0.540246 2.09548 0
M  V30 5319 C 506.992 3.37257 0.322981 0
M  V30 5320 C 505.551 3.68711 0.756922 0
M  V30 5321 C 504.698 2.77013 -0.126195 0
M  V30 5322 H 507.649 1.49374 -0.536007 0
M  V30 5323 H 507.67 3.62539 1.15522 0
M  V30 5324 H 507.182 3.82471 -0.658602 0
M  V30 5325 H 505.283 3.29024 1.74854 0
M  V30 5326 H 505.396 4.75741 0.566291 0
M  V30 5327 H 503.76 2.51588 0.39692 0
M  V30 5328 H 504.543 3.25051 -1.1044 0
M  V30 5329 N 506.988 0.0434614 1.5754 0
M  V30 5330 C 507.951 -0.918696 2.09982 0
M  V30 5331 C 508.951 -1.24488 1.01781 0
M  V30 5332 O 510.141 -1.18284 1.27885 0
M  V30 5333 C 507.273 -2.23093 2.57764 0
M  V30 5334 H 508.466 -0.464229 2.96285 0
M  V30 5335 H 506.019 -0.204818 1.54952 0
M  V30 5336 H 506.754 -2.73137 1.74832 0
M  V30 5337 H 506.539 -2.00724 3.36827 0
M  V30 5338 H 508.029 -2.92028 2.98512 0
M  V30 5339 N 508.466 -1.55915 -0.229846 0
M  V30 5340 C 509.414 -1.9258 -1.30444 0
M  V30 5341 C 510.408 -0.806839 -1.48951 0
M  V30 5342 O 511.614 -0.991606 -1.50224 0
M  V30 5343 H 507.989 -0.611878 -0.437161 0
M  V30 5344 H 509.96 -2.82264 -0.96797 0
M  V30 5345 C 508.709 -2.25171 -2.6494 0
M  V30 5346 H 508.032 -3.10782 -2.51504 0
M  V30 5347 H 509.472 -2.54716 -3.38963 0
M  V30 5348 C 507.931 -1.07394 -3.19324 0
M  V30 5349 O 508.461 -0.330759 -4.00336 0
M  V30 5350 N 506.667 -0.859984 -2.77584 0
M  V30 5351 H 506.214 -1.46605 -2.11813 0
M  V30 5352 H 506.172 -0.0736671 -3.14314 0
M  V30 5353 N 509.944 0.496216 -1.49584 0
M  V30 5354 C 510.854 1.62352 -1.69349 0
M  V30 5355 C 511.87 1.64184 -0.576147 0
M  V30 5356 O 513.046 1.82517 -0.85144 0
M  V30 5357 C 510.111 2.98698 -1.76013 0
M  V30 5358 C 509.172 3.07454 -2.99617 0
M  V30 5359 C 508.405 4.37296 -3.05953 0
M  V30 5360 O 508.628 5.2637 -2.19752 0
M  V30 5361 O 507.562 4.51124 -3.9846 0
M  V30 5362 H 511.388 1.48606 -2.64859 0
M  V30 5363 H 508.973 0.673022 -1.33382 0
M  V30 5364 H 510.855 3.79725 -1.82721 0
M  V30 5365 H 509.53 3.12696 -0.836828 0
M  V30 5366 H 508.437 2.25597 -2.98424 0
M  V30 5367 H 509.77 2.98385 -3.91443 0
M  V30 5368 N 511.423 1.38739 0.74761 0
M  V30 5369 C 512.671 1.35007 1.50391 0
M  V30 5370 C 512.992 -0.0574274 1.94915 0
M  V30 5371 O 512.262 -1.00628 1.6808 0
M  V30 5372 H 510.842 0.496784 0.557866 0
M  V30 5373 H 513.504 1.73479 0.888319 0
M  V30 5374 H 512.6 2.00474 2.392 0
M  V30 5375 N 512.901 -0.976442 1.23707 0
M  V30 5376 C 514.149 -1.71487 1.06942 0
M  V30 5377 C 514.47 -1.9098 -0.393897 0
M  V30 5378 O 513.74 -1.48128 -1.28198 0
M  V30 5379 H 512.32 -0.635425 0.392739 0
M  V30 5380 H 514.982 -1.17515 1.55487 0
M  V30 5381 H 514.078 -2.70286 1.56051 0
M  V30 5382 N 514.379 -1.04941 -1.1758 0
M  V30 5383 C 515.326 -0.648155 -2.21512 0
M  V30 5384 C 516.296 0.348431 -1.62404 0
M  V30 5385 O 517.481 0.240419 -1.89279 0
M  V30 5386 C 514.621 -0.0264291 -3.4509 0
M  V30 5387 C 513.734 -1.07154 -4.185 0
M  V30 5388 C 512.869 -0.417403 -5.29558 0
M  V30 5389 C 511.908 -1.447 -5.94751 0
M  V30 5390 N 511.045 -0.817203 -6.97328 0
M  V30 5391 H 515.885 -1.53891 -2.55189 0
M  V30 5392 H 513.422 -0.769699 -1.25356 0
M  V30 5393 H 515.38 0.351456 -4.15717 0
M  V30 5394 H 514.01 0.827802 -3.12005 0
M  V30 5395 H 513.062 -1.56728 -3.46613 0
M  V30 5396 H 514.374 -1.8532 -4.63096 0
M  V30 5397 H 513.528 0.0142061 -6.06698 0
M  V30 5398 H 512.267 0.396265 -4.86087 0
M  V30 5399 H 511.272 -1.88865 -5.16343 0
M  V30 5400 H 512.497 -2.26252 -6.40302 0
M  V30 5401 H 510.443 -0.0239995 -6.55996 0
M  V30 5402 H 510.36 -1.53644 -7.40223 0
M  V30 5403 H 511.628 -0.410283 -7.7842 0
M  V30 5404 N 515.857 1.33968 -0.830081 0
M  V30 5405 C 516.804 2.29387 -0.255008 0
M  V30 5406 C 517.774 1.53923 0.624243 0
M  V30 5407 O 518.959 1.82262 0.564372 0
M  V30 5408 C 516.099 3.4034 0.571209 0
M  V30 5409 C 515.212 4.30729 -0.331083 0
M  V30 5410 C 514.347 5.2879 0.505389 0
M  V30 5411 C 513.386 6.10819 -0.395843 0
M  V30 5412 N 512.523 7.00948 0.401979 0
M  V30 5413 H 517.363 2.77972 -1.07404 0
M  V30 5414 H 514.9 1.36785 -0.541133 0
M  V30 5415 H 516.858 4.03361 1.06562 0
M  V30 5416 H 515.488 2.9297 1.35529 0
M  V30 5417 H 514.54 3.68507 -0.943759 0
M  V30 5418 H 515.852 4.88181 -1.02377 0
M  V30 5419 H 515.006 5.97297 1.06399 0
M  V30 5420 H 513.745 4.71894 1.23155 0
M  V30 5421 H 512.75 5.41238 -0.966529 0
M  V30 5422 H 513.975 6.69797 -1.12023 0
M  V30 5423 H 511.921 6.46512 1.11168 0
M  V30 5424 H 511.838 7.55643 -0.232167 0
M  V30 5425 H 513.106 7.73774 0.943102 0
M  V30 5426 N 517.335 0.585699 1.46312 0
M  V30 5427 C 518.584 0.0701192 2.01578 0
M  V30 5428 C 518.897 -1.29889 1.46247 0
M  V30 5429 O 520.103 -1.90598 1.93351 0
M  V30 5430 C 518.559 0.0747499 3.59822 0
M  V30 5431 C 518.167 1.44226 4.24149 0
M  V30 5432 C 519.911 -0.38673 4.22735 0
M  V30 5433 C 517.818 1.40446 5.74481 0
M  V30 5434 H 516.748 0.0224441 0.753666 0
M  V30 5435 H 519.399 0.737789 1.68015 0
M  V30 5436 H 517.781 -0.659144 3.90476 0
M  V30 5437 H 518.955 2.19612 4.05101 0
M  V30 5438 H 517.27 1.84401 3.73343 0
M  V30 5439 H 519.867 -0.433853 5.32937 0
M  V30 5440 H 520.21 -1.40489 3.91878 0
M  V30 5441 H 520.743 0.293195 3.96718 0
M  V30 5442 H 517.482 2.39952 6.10003 0
M  V30 5443 H 517.002 0.692845 5.95785 0
M  V30 5444 H 518.681 1.11865 6.37256 0
M  V30 5445 N 518.813 -1.54241 0.323641 0
M  V30 5446 C 519.776 -2.22997 -0.529602 0
M  V30 5447 C 520.776 -1.22345 -1.04347 0
M  V30 5448 O 521.966 -1.46924 -0.935889 0
M  V30 5449 C 519.098 -2.93409 -1.73562 0
M  V30 5450 H 520.291 -2.99815 0.0714518 0
M  V30 5451 H 517.844 -1.56121 0.0747258 0
M  V30 5452 H 518.579 -2.20729 -2.37591 0
M  V30 5453 H 518.364 -3.67217 -1.37456 0
M  V30 5454 H 519.854 -3.45794 -2.34128 0
M  V30 5455 N 520.291 -0.0518155 -1.57515 0
M  V30 5456 C 521.537 0.622745 -1.93002 0
M  V30 5457 C 521.87 1.70456 -0.930499 0
M  V30 5458 O 521.145 1.94452 0.0434086 0
M  V30 5459 C 521.428 1.21824 -3.38867 0
M  V30 5460 C 521.281 0.144434 -4.49568 0
M  V30 5461 C 522.6 2.12968 -3.8514 0
M  V30 5462 H 519.719 0.22491 -0.701844 0
M  V30 5463 H 522.361 -0.113711 -1.89659 0
M  V30 5464 H 520.511 1.8459 -3.41846 0
M  V30 5465 H 522.183 -0.48753 -4.58717 0
M  V30 5466 H 520.426 -0.527424 -4.30582 0
M  V30 5467 H 521.097 0.601127 -5.48717 0
M  V30 5468 H 523.573 1.60163 -3.8404 0
M  V30 5469 H 522.449 2.51578 -4.87852 0
M  V30 5470 H 522.71 3.03004 -3.21934 0
M  V30 5471 N 521.769 1.56035 0.221574 0
M  V30 5472 C 522.699 1.95434 1.2778 0
M  V30 5473 C 523.68 0.822564 1.48889 0
M  V30 5474 O 524.865 1.08486 1.61072 0
M  V30 5475 C 521.995 2.27102 2.62759 0
M  V30 5476 C 520.949 3.4277 2.56306 0
M  V30 5477 C 520.275 3.60043 3.95314 0
M  V30 5478 C 521.575 4.77742 2.11093 0
M  V30 5479 H 523.269 2.83912 0.950504 0
M  V30 5480 H 520.815 1.36596 0.455791 0
M  V30 5481 H 522.768 2.53256 3.36807 0
M  V30 5482 H 521.492 1.35478 2.97176 0
M  V30 5483 H 520.151 3.16664 1.84715 0
M  V30 5484 H 519.799 2.65794 4.27039 0
M  V30 5485 H 519.499 4.37841 3.91879 0
M  V30 5486 H 521.023 3.88545 4.71025 0
M  V30 5487 H 522.437 5.03102 2.74885 0
M  V30 5488 H 520.834 5.58823 2.18716 0
M  V30 5489 H 521.904 4.731 1.06321 0
M  V30 5490 N 523.247 -0.488276 1.49845 0
M  V30 5491 C 524.21 -1.57069 1.66919 0
M  V30 5492 C 525.21 -1.51445 0.540479 0
M  V30 5493 O 526.4 -1.5437 0.807188 0
M  V30 5494 C 523.532 -2.96718 1.67844 0
M  V30 5495 H 524.725 -1.43254 2.63474 0
M  V30 5496 H 522.278 -0.713435 1.39068 0
M  V30 5497 H 523.013 -3.15996 0.7292 0
M  V30 5498 H 522.798 -3.02208 2.49826 0
M  V30 5499 H 524.288 -3.75335 1.83066 0
M  V30 5500 N 524.725 -1.39134 -0.740242 0
M  V30 5501 C 526.002 -1.26584 -1.49117 0
M  V30 5502 C 526.382 0.126902 -2.10718 0
M  V30 5503 O 525.73 1.13765 -1.98166 0
M  V30 5504 C 525.94 -2.38619 -2.54681 0
M  V30 5505 C 527.288 -2.77685 -3.21211 0
M  V30 5506 O 528.312 -2.38029 -2.64991 0
M  V30 5507 O 527.171 -3.46115 -4.22926 0
M  V30 5508 H 524.265 -0.495769 -0.661923 0
M  V30 5509 H 526.811 -1.50995 -0.774514 0
M  V30 5510 H 525.583 -3.3175 -2.07504 0
M  V30 5511 H 525.206 -2.15845 -3.33911 0
M  V30 5512 N 526.204 0.969867 -1.24223 0
M  V30 5513 C 527.137 2.06279 -0.975926 0
M  V30 5514 C 528.115 1.62353 0.0895385 0
M  V30 5515 O 529.299 1.88442 -0.0469418 0
M  V30 5516 C 526.426 3.35391 -0.472315 0
M  V30 5517 C 525.472 3.98266 -1.526 0
M  V30 5518 S 526.305 4.36172 -3.10667 0
M  V30 5519 C 527.461 5.68423 -2.62003 0
M  V30 5520 H 527.694 2.28551 -1.90137 0
M  V30 5521 H 525.227 1.10748 -1.07584 0
M  V30 5522 H 527.185 4.10068 -0.188376 0
M  V30 5523 H 525.846 3.1111 0.432378 0
M  V30 5524 H 525.039 4.91307 -1.12399 0
M  V30 5525 H 524.641 3.30009 -1.75983 0
M  V30 5526 H 526.933 6.45842 -2.0468 0
M  V30 5527 H 527.876 6.13478 -3.53625 0
M  V30 5528 H 528.284 5.26928 -2.02502 0
M  V30 5529 N 527.682 1.05563 1.17022 0
M  V30 5530 C 528.629 0.659893 2.21165 0
M  V30 5531 C 529.599 -0.339813 1.62587 0
M  V30 5532 O 530.784 -0.230378 1.89404 0
M  V30 5533 C 527.924 0.0447297 3.45071 0
M  V30 5534 C 527.037 1.09372 4.17926 0
M  V30 5535 C 526.172 0.445481 5.29329 0
M  V30 5536 C 525.211 1.47852 5.93975 0
M  V30 5537 N 524.348 0.854172 6.96885 0
M  V30 5538 H 529.188 1.55243 2.54369 0
M  V30 5539 H 526.725 0.776336 1.24946 0
M  V30 5540 H 528.683 -0.329404 4.15898 0
M  V30 5541 H 527.313 -0.811244 3.1244 0
M  V30 5542 H 526.365 1.58564 3.45777 0
M  V30 5543 H 527.677 1.87773 4.62107 0
M  V30 5544 H 526.831 0.0179688 6.06697 0
M  V30 5545 H 525.57 -0.370481 4.86291 0
M  V30 5546 H 524.575 1.91601 5.15334 0
M  V30 5547 H 525.8 2.29645 6.39093 0
M  V30 5548 H 523.746 0.0587882 6.55974 0
M  V30 5549 H 523.663 1.57567 7.39397 0
M  V30 5550 H 524.931 0.451559 7.78191 0
M  V30 5551 N 529.16 -1.33526 0.837174 0
M  V30 5552 C 530.07 -2.33023 0.271568 0
M  V30 5553 C 531.086 -1.63272 -0.601514 0
M  V30 5554 O 532.262 -1.94939 -0.506038 0
M  V30 5555 C 529.327 -3.42382 -0.545448 0
M  V30 5556 C 528.388 -4.27857 0.351709 0
M  V30 5557 C 527.621 -5.31994 -0.426409 0
M  V30 5558 O 527.844 -5.45763 -1.65828 0
M  V30 5559 O 526.778 -6.01572 0.1987 0
M  V30 5560 H 530.604 -2.83256 1.09545 0
M  V30 5561 H 528.189 -1.36837 0.599655 0
M  V30 5562 H 530.071 -4.09122 -1.00979 0
M  V30 5563 H 528.746 -2.94369 -1.34641 0
M  V30 5564 H 527.653 -3.6399 0.863853 0
M  V30 5565 H 528.986 -4.79349 1.1174 0
M  V30 5566 N 530.638 -0.59345 -1.46 0
M  V30 5567 C 531.568 0.121192 -2.33185 0
M  V30 5568 C 532.549 0.872977 -1.4599 0
M  V30 5569 O 533.734 0.846321 -1.74789 0
M  V30 5570 C 530.864 1.12844 -3.28456 0
M  V30 5571 C 529.818 0.4908 -4.25177 0
M  V30 5572 C 529.144 1.60529 -5.10034 0
M  V30 5573 C 530.444 -0.578949 -5.19081 0
M  V30 5574 H 532.138 -0.606767 -2.93187 0
M  V30 5575 H 529.684 -0.293242 -1.40983 0
M  V30 5576 H 531.637 1.63684 -3.88311 0
M  V30 5577 H 530.361 1.88681 -2.66584 0
M  V30 5578 H 529.02 0.00339328 -3.666 0
M  V30 5579 H 528.668 2.35359 -4.44539 0
M  V30 5580 H 528.368 1.18422 -5.75543 0
M  V30 5581 H 529.892 2.11623 -5.72755 0
M  V30 5582 H 531.306 -0.155199 -5.7309 0
M  V30 5583 H 529.703 -0.920947 -5.92991 0
M  V30 5584 H 530.773 -1.46109 -4.62364 0
M  V30 5585 N 532.116 1.54067 -0.331816 0
M  V30 5586 C 533.364 2.00319 0.267739 0
M  V30 5587 C 533.685 1.22148 1.52003 0
M  V30 5588 O 532.955 0.325494 1.93177 0
M  V30 5589 H 531.535 0.740014 0.101922 0
M  V30 5590 H 534.197 1.89628 -0.450267 0
M  V30 5591 H 533.293 3.07765 0.518385 0
M  V30 5592 N 533.594 0.0601682 1.57485 0
M  V30 5593 C 534.871 -0.651956 1.84415 0
M  V30 5594 C 535.251 -1.88498 0.950361 0
M  V30 5595 O 534.599 -2.28496 0.0136719 0
M  V30 5596 C 534.809 -1.00069 3.34346 0
M  V30 5597 C 536.157 -1.37915 4.01578 0
M  V30 5598 O 537.181 -1.09277 3.39024 0
M  V30 5599 O 536.04 -1.91399 5.11887 0
M  V30 5600 H 533.134 -0.322668 0.761455 0
M  V30 5601 H 535.68 0.0902159 1.6946 0
M  V30 5602 H 534.452 -0.124463 3.91102 0
M  V30 5603 H 534.075 -1.80001 3.54521 0
M  V30 5604 N 535.072 -1.5615 -0.213296 0
M  V30 5605 C 536.004 -1.89586 -1.28802 0
M  V30 5606 C 537.017 -0.784844 -1.42633 0
M  V30 5607 O 538.206 -1.06319 -1.43383 0
M  V30 5608 C 535.306 -2.09665 -2.66259 0
M  V30 5609 C 534.479 -3.40726 -2.7427 0
M  V30 5610 C 533.538 -3.50137 -3.92798 0
M  V30 5611 O 532.564 -4.23105 -3.8075 0
M  V30 5612 N 533.766 -2.81886 -5.07465 0
M  V30 5613 H 536.531 -2.82368 -1.00442 0
M  V30 5614 H 534.092 -1.56796 -0.403302 0
M  V30 5615 H 536.084 -2.13268 -3.43946 0
M  V30 5616 H 534.654 -1.23469 -2.87183 0
M  V30 5617 H 533.874 -3.4915 -1.82997 0
M  V30 5618 H 535.162 -4.27048 -2.76599 0
M  V30 5619 H 534.56 -2.22397 -5.2015 0
M  V30 5620 H 533.117 -2.91139 -5.83165 0
M  V30 5621 N 536.55 0.480323 -1.50102 0
M  V30 5622 C 537.775 1.26126 -1.64642 0
M  V30 5623 C 538.2 1.85257 -0.325823 0
M  V30 5624 O 537.558 1.66854 0.709194 0
M  V30 5625 C 537.606 2.35243 -2.73301 0
M  V30 5626 O 536.71 3.39646 -2.33911 0
M  V30 5627 H 536.051 0.371463 -0.550374 0
M  V30 5628 H 538.581 0.572696 -1.96421 0
M  V30 5629 H 538.591 2.80695 -2.96098 0
M  V30 5630 H 537.266 1.91574 -3.6915 0
M  V30 5631 H 535.843 2.99969 -2.21525 0
M  V30 5632 N 538.028 1.39524 0.732853 0
M  V30 5633 C 539.274 1.37068 1.49467 0
M  V30 5634 C 539.607 -0.0327166 1.94172 0
M  V30 5635 O 538.882 -0.998071 1.66939 0
M  V30 5636 C 539.165 2.34494 2.73285 0
M  V30 5637 C 539.018 3.83784 2.34585 0
M  V30 5638 C 540.337 2.29717 3.75391 0
M  V30 5639 H 537.456 0.499206 0.542183 0
M  V30 5640 H 540.098 1.70532 0.837783 0
M  V30 5641 H 538.248 2.06087 3.29333 0
M  V30 5642 H 539.92 4.22949 1.84151 0
M  V30 5643 H 538.163 4.00455 1.66787 0
M  V30 5644 H 538.834 4.47444 3.23262 0
M  V30 5645 H 541.31 2.54839 3.28932 0
M  V30 5646 H 540.186 2.99962 4.59689 0
M  V30 5647 H 540.447 1.30291 4.22465 0
M  V30 5648 N 539.506 -0.963266 1.24736 0
M  V30 5649 C 540.438 -2.06162 1.0015 0
M  V30 5650 C 541.451 -1.62771 -0.0305905 0
M  V30 5651 O 542.64 -1.77296 0.206966 0
M  V30 5652 C 539.74 -3.35333 0.490385 0
M  V30 5653 C 538.913 -4.07609 1.58663 0
M  V30 5654 C 537.972 -5.15052 1.0774 0
M  V30 5655 O 536.998 -5.4098 1.77002 0
M  V30 5656 N 538.2 -5.80436 -0.0858605 0
M  V30 5657 H 540.965 -2.27825 1.94719 0
M  V30 5658 H 538.526 -1.13121 1.15825 0
M  V30 5659 H 540.518 -4.04477 0.134371 0
M  V30 5660 H 539.088 -3.10507 -0.361155 0
M  V30 5661 H 538.308 -3.32681 2.11463 0
M  V30 5662 H 539.596 -4.52656 2.32336 0
M  V30 5663 H 538.994 -5.6178 -0.664806 0
M  V30 5664 H 537.551 -6.50674 -0.382981 0
M  V30 5665 N 540.985 -1.06182 -1.16461 0
M  V30 5666 C 541.915 -0.692861 -2.22984 0
M  V30 5667 C 542.896 0.314122 -1.67174 0
M  V30 5668 O 544.081 0.189499 -1.93273 0
M  V30 5669 C 541.211 -0.07732 -3.47214 0
M  V30 5670 C 540.165 -1.01015 -4.15909 0
M  V30 5671 C 539.491 -0.257973 -5.34077 0
M  V30 5672 C 540.791 -2.33868 -4.67015 0
M  V30 5673 H 542.485 -1.58343 -2.54102 0
M  V30 5674 H 540.031 -0.76279 -1.22137 0
M  V30 5675 H 541.984 0.19266 -4.20959 0
M  V30 5676 H 540.708 0.848254 -3.15392 0
M  V30 5677 H 539.367 -1.26486 -3.44088 0
M  V30 5678 H 539.015 0.670684 -4.98509 0
M  V30 5679 H 538.715 -0.879638 -5.80979 0
M  V30 5680 H 540.239 0.00448788 -6.106 0
M  V30 5681 H 541.653 -2.1279 -5.32347 0
M  V30 5682 H 540.05 -2.91522 -5.24533 0
M  V30 5683 H 541.12 -2.97019 -3.83286 0
M  V30 5684 N 542.463 1.3308 -0.844243 0
M  V30 5685 C 543.413 2.26589 -0.253289 0
M  V30 5686 C 544.397 1.49501 0.594836 0
M  V30 5687 O 545.589 1.71291 0.445924 0
M  V30 5688 C 542.718 3.38599 0.566176 0
M  V30 5689 C 541.804 4.23081 -0.293756 0
M  V30 5690 N 542.195 4.86751 -1.37505 0
M  V30 5691 C 540.493 4.45925 -0.0817086 0
M  V30 5692 C 541.194 5.49684 -1.90323 0
M  V30 5693 N 540.17 5.30101 -1.20391 0
M  V30 5694 H 543.972 2.73334 -1.08009 0
M  V30 5695 H 541.486 1.47048 -0.689258 0
M  V30 5696 H 543.483 4.04584 1.00587 0
M  V30 5697 H 542.143 2.93401 1.39089 0
M  V30 5698 H 543.154 4.87151 -1.75796 0
M  V30 5699 H 539.831 4.11434 0.709129 0
M  V30 5700 H 541.221 6.10363 -2.80902 0
M  V30 5701 N 543.941 0.601185 1.45683 0
M  V30 5702 C 544.889 -0.133955 2.32214 0
M  V30 5703 C 545.883 -0.866034 1.45589 0
M  V30 5704 O 547.089 -0.782326 1.6211 0
M  V30 5705 H 543.464 -0.0620613 0.749435 0
M  V30 5706 H 545.435 0.614389 2.92007 0
M  V30 5707 C 544.184 -1.12216 3.29094 0
M  V30 5708 H 543.507 -0.568273 3.95741 0
M  V30 5709 H 544.947 -1.60659 3.92383 0
M  V30 5710 C 543.406 -2.19251 2.55794 0
M  V30 5711 O 543.936 -3.26894 2.33459 0
M  V30 5712 N 542.142 -1.9436 2.16039 0
M  V30 5713 H 541.689 -1.06829 2.34404 0
M  V30 5714 H 541.647 -2.66181 1.67318 0
M  V30 5715 N 545.419 -1.53889 0.339982 0
M  V30 5716 C 546.351 -2.22435 -0.55275 0
M  V30 5717 C 547.364 -1.22975 -1.06681 0
M  V30 5718 O 548.553 -1.49351 -0.977575 0
M  V30 5719 C 545.653 -2.8882 -1.77302 0
M  V30 5720 C 544.826 -4.14563 -1.39486 0
M  V30 5721 C 543.885 -4.64391 -2.47442 0
M  V30 5722 O 542.911 -5.28687 -2.10899 0
M  V30 5723 N 544.113 -4.40015 -3.78639 0
M  V30 5724 H 546.878 -2.9968 0.0342669 0
M  V30 5725 H 544.439 -1.61068 0.16394 0
M  V30 5726 H 546.431 -3.19072 -2.48948 0
M  V30 5727 H 545.001 -2.15182 -2.26749 0
M  V30 5728 H 544.221 -3.90896 -0.509321 0
M  V30 5729 H 545.509 -4.96362 -1.11813 0
M  V30 5730 H 544.907 -3.88586 -4.11118 0
M  V30 5731 H 543.464 -4.74881 -4.46465 0
M  V30 5732 N 546.897 -0.0685191 -1.57451 0
M  V30 5733 C 547.83 0.935736 -2.08133 0
M  V30 5734 C 548.808 1.29317 -0.985698 0
M  V30 5735 O 549.992 1.40304 -1.25886 0
M  V30 5736 C 547.119 2.2448 -2.53627 0
M  V30 5737 C 546.165 2.03917 -3.74593 0
M  V30 5738 S 546.998 1.30154 -5.19442 0
M  V30 5739 C 548.154 2.62346 -5.68265 0
M  V30 5740 H 548.387 0.504473 -2.92989 0
M  V30 5741 H 545.92 0.144169 -1.53725 0
M  V30 5742 H 547.878 2.99718 -2.80499 0
M  V30 5743 H 546.539 2.64731 -1.69045 0
M  V30 5744 H 545.732 3.00788 -4.04404 0
M  V30 5745 H 545.334 1.36815 -3.48077 0
M  V30 5746 H 547.626 3.58448 -5.7491 0
M  V30 5747 H 548.569 2.3715 -6.67207 0
M  V30 5748 H 548.977 2.69401 -4.96068 0
M  V30 5749 N 548.375 1.56261 0.205012 0
M  V30 5750 C 549.624 1.79236 0.925058 0
M  V30 5751 C 549.937 0.640011 1.84833 0
M  V30 5752 O 551.143 0.753809 2.60826 0
M  V30 5753 C 549.599 3.17475 1.69522 0
M  V30 5754 C 549.207 4.40482 0.817269 0
M  V30 5755 C 550.951 3.49766 2.4055 0
M  V30 5756 C 548.858 5.69744 1.58573 0
M  V30 5757 H 547.788 0.668287 0.349153 0
M  V30 5758 H 550.439 1.82629 0.178544 0
M  V30 5759 H 548.821 3.08304 2.48526 0
M  V30 5760 H 549.995 4.60752 0.0665988 0
M  V30 5761 H 548.31 4.15827 0.218316 0
M  V30 5762 H 550.907 4.43573 2.98575 0
M  V30 5763 H 551.25 2.73041 3.14252 0
M  V30 5764 H 551.783 3.60341 1.68522 0
M  V30 5765 H 548.522 6.49407 0.891679 0
M  V30 5766 H 548.042 5.53509 2.31059 0
M  V30 5767 H 549.721 6.1051 2.14212 0
M  V30 5768 N 549.853 -0.472356 1.50355 0
M  V30 5769 C 550.783 -1.57859 1.72055 0
M  V30 5770 C 551.764 -1.60283 0.569505 0
M  V30 5771 O 552.949 -1.7657 0.808503 0
M  V30 5772 C 550.079 -2.96191 1.81351 0
M  V30 5773 C 549.033 -3.08633 2.96529 0
M  V30 5774 C 548.359 -4.486 2.90968 0
M  V30 5775 C 549.659 -2.85969 4.37057 0
M  V30 5776 H 551.353 -1.39953 2.64676 0
M  V30 5777 H 548.899 -0.671846 1.27367 0
M  V30 5778 H 550.852 -3.73507 1.95117 0
M  V30 5779 H 549.576 -3.15251 0.853502 0
M  V30 5780 H 548.235 -2.33749 2.82413 0
M  V30 5781 H 547.883 -4.64577 1.92815 0
M  V30 5782 H 547.583 -4.57861 3.68289 0
M  V30 5783 H 549.107 -5.27938 3.0678 0
M  V30 5784 H 550.521 -3.53036 4.51706 0
M  V30 5785 H 548.918 -3.06677 5.15819 0
M  V30 5786 H 549.988 -1.81838 4.49514 0
M  V30 5787 N 551.331 -1.39911 -0.725443 0
M  V30 5788 C 552.556 -1.41137 -1.5197 0
M  V30 5789 C 552.981 -0.010262 -1.88097 0
M  V30 5790 O 552.339 0.979184 -1.52583 0
M  V30 5791 C 552.387 -2.2994 -2.77777 0
M  V30 5792 O 551.491 -1.73586 -3.74088 0
M  V30 5793 H 550.832 -0.480219 -0.458569 0
M  V30 5794 H 553.362 -1.84023 -0.894249 0
M  V30 5795 H 553.372 -2.44785 -3.26411 0
M  V30 5796 H 552.047 -3.31759 -2.50816 0
M  V30 5797 H 550.624 -1.68035 -3.32894 0
M  V30 5798 N 552.809 0.956637 -1.25245 0
M  V30 5799 C 553.739 2.07058 -1.07931 0
M  V30 5800 C 554.72 1.70096 0.0110361 0
M  V30 5801 O 555.905 1.93555 -0.158121 0
M  V30 5802 C 553.035 3.40272 -0.695124 0
M  V30 5803 C 551.989 3.91235 -1.73549 0
M  V30 5804 C 551.315 5.20921 -1.20604 0
M  V30 5805 C 552.615 4.17837 -3.13385 0
M  V30 5806 H 554.309 2.218 -2.01109 0
M  V30 5807 H 551.855 1.06581 -0.968326 0
M  V30 5808 H 553.808 4.1765 -0.560949 0
M  V30 5809 H 552.532 3.25462 0.272355 0
M  V30 5810 H 551.191 3.16025 -1.85807 0
M  V30 5811 H 550.839 5.02479 -0.228846 0
M  V30 5812 H 550.539 5.55987 -1.90136 0
M  V30 5813 H 552.063 6.00897 -1.08421 0
M  V30 5814 H 553.477 4.8588 -3.04292 0
M  V30 5815 H 551.874 4.64154 -3.80369 0
M  V30 5816 H 552.944 3.2419 -3.60595 0
M  V30 5817 N 554.287 1.06798 1.15896 0
M  V30 5818 C 555.512 0.808739 1.90982 0
M  V30 5819 C 555.937 -0.6316 1.77179 0
M  V30 5820 O 555.295 -1.4407 1.10061 0
M  V30 5821 C 555.343 1.21468 3.39526 0
M  V30 5822 O 554.447 0.356562 4.10856 0
M  V30 5823 H 553.788 0.29512 0.594811 0
M  V30 5824 H 556.318 1.42513 1.46804 0
M  V30 5825 H 556.328 1.18844 3.90308 0
M  V30 5826 H 555.003 2.26379 3.48891 0
M  V30 5827 H 553.58 0.444808 3.70238 0
M  V30 5828 N 555.766 -1.3263 0.851289 0
M  V30 5829 C 557.177 -1.79653 0.5081 0
M  V30 5830 C 557.528 -1.70327 -0.973815 0
M  V30 5831 O 556.653 -1.25986 -1.75944 0
M  V30 5832 C 557.248 -3.26196 0.915515 0
M  V30 5833 C 555.807 -3.71187 0.624277 0
M  V30 5834 C 554.954 -2.53804 1.11709 0
M  V30 5835 H 557.905 -1.19976 1.03882 0
M  V30 5836 H 557.926 -3.79801 0.230535 0
M  V30 5837 H 557.438 -3.32952 1.99411 0
M  V30 5838 H 555.539 -3.69948 -0.443737 0
M  V30 5839 H 555.652 -4.64132 1.18821 0
M  V30 5840 H 554.016 -2.48964 0.537484 0
M  V30 5841 H 554.799 -2.63315 2.20272 0
M  V30 5842 N 557.244 -0.608902 -1.45362 0
M  V30 5843 C 558.521 -0.0365378 -1.95566 0
M  V30 5844 C 558.901 1.43169 -1.55131 0
M  V30 5845 O 558.249 2.1349 -0.814513 0
M  V30 5846 C 558.459 -0.236026 -3.48201 0
M  V30 5847 C 559.807 -0.117518 -4.24437 0
M  V30 5848 O 560.831 -0.166217 -3.55812 0
M  V30 5849 O 559.69 -0.00372127 -5.465 0
M  V30 5850 H 556.784 0.0349874 -0.82626 0
M  V30 5851 H 559.33 -0.679055 -1.55521 0
M  V30 5852 H 558.102 -1.25569 -3.70605 0
M  V30 5853 H 557.725 0.441691 -3.95139 0
M  V30 5854 N 558.722 1.53707 -0.348139 0
M  V30 5855 C 559.968 2.01286 0.247332 0
M  V30 5856 C 560.301 1.23546 1.49834 0
M  V30 5857 O 559.576 0.324331 1.91777 0
M  V30 5858 C 559.859 3.55768 0.556858 0
M  V30 5859 C 559.712 4.44216 -0.706564 0
M  V30 5860 C 561.031 4.1841 1.3646 0
M  V30 5861 H 558.15 0.731677 0.0884201 0
M  V30 5862 H 560.792 1.84106 -0.469584 0
M  V30 5863 H 558.942 3.70539 1.16761 0
M  V30 5864 H 560.614 4.41274 -1.34444 0
M  V30 5865 H 558.857 4.12892 -1.33052 0
M  V30 5866 H 559.528 5.50202 -0.445186 0
M  V30 5867 H 562.004 4.07365 0.848113 0
M  V30 5868 H 560.88 5.26563 1.54992 0
M  V30 5869 H 561.141 3.7333 2.36805 0
M  V30 5870 N 560.2 0.0768682 1.57412 0
M  V30 5871 C 561.13 -0.886026 2.16037 0
M  V30 5872 C 562.111 -1.30691 1.08876 0
M  V30 5873 O 563.296 -1.37705 1.36934 0
M  V30 5874 C 560.426 -2.1518 2.72608 0
M  V30 5875 C 559.38 -1.87015 3.8498 0
M  V30 5876 C 558.706 -3.20266 4.28175 0
M  V30 5877 C 560.006 -1.17143 5.08994 0
M  V30 5878 H 561.7 -0.397642 2.96748 0
M  V30 5879 H 559.246 -0.189823 1.42743 0
M  V30 5880 H 561.199 -2.82962 3.12266 0
M  V30 5881 H 559.923 -2.66269 1.89125 0
M  V30 5882 H 558.582 -1.21636 3.45833 0
M  V30 5883 H 558.23 -3.69207 3.41607 0
M  V30 5884 H 557.93 -3.0221 5.03927 0
M  V30 5885 H 559.454 -3.89237 4.70454 0
M  V30 5886 H 560.868 -1.75003 5.45937 0
M  V30 5887 H 559.265 -1.09328 5.90057 0
M  V30 5888 H 560.335 -0.151295 4.84664 0
M  V30 5889 N 561.678 -1.56367 -0.196722 0
M  V30 5890 C 562.955 -1.71359 -0.943159 0
M  V30 5891 C 563.335 -0.631192 -2.01443 0
M  V30 5892 O 562.683 0.358071 -2.25677 0
M  V30 5893 C 562.893 -3.13623 -1.53106 0
M  V30 5894 C 564.241 -3.73806 -2.01381 0
M  V30 5895 O 565.265 -3.16742 -1.62951 0
M  V30 5896 O 564.124 -4.73951 -2.7209 0
M  V30 5897 H 561.218 -0.698851 -0.442195 0
M  V30 5898 H 563.764 -1.68672 -0.186547 0
M  V30 5899 H 562.536 -3.83873 -0.758785 0
M  V30 5900 H 562.159 -3.20532 -2.35255 0
M  V30 5901 N 563.156 0.464375 -1.50603 0
M  V30 5902 C 564.405 1.21277 -1.61167 0
M  V30 5903 C 564.718 1.92953 -0.320704 0
M  V30 5904 O 565.924 2.69778 -0.30534 0
M  V30 5905 C 564.38 2.20403 -2.84518 0
M  V30 5906 C 563.988 1.54499 -4.20516 0
M  V30 5907 C 565.732 2.95843 -3.0443 0
M  V30 5908 C 563.639 2.51951 -5.35047 0
M  V30 5909 H 562.569 0.456367 -0.600204 0
M  V30 5910 H 565.22 0.48254 -1.77042 0
M  V30 5911 H 563.602 2.96746 -2.62217 0
M  V30 5912 H 564.776 0.83899 -4.53098 0
M  V30 5913 H 563.091 0.913152 -4.06264 0
M  V30 5914 H 565.688 3.6879 -3.87167 0
M  V30 5915 H 566.031 3.55622 -2.16423 0
M  V30 5916 H 566.564 2.26611 -3.26944 0
M  V30 5917 H 563.303 1.96901 -6.25228 0
M  V30 5918 H 562.823 3.20683 -5.06875 0
M  V30 5919 H 564.502 3.13643 -5.65895 0
M  V30 5920 N 564.634 1.40294 0.718013 0
M  V30 5921 C 565.88 1.38645 1.48005 0
M  V30 5922 C 566.213 -0.0121202 1.94196 0
M  V30 5923 O 565.488 -0.980309 1.67989 0
M  V30 5924 C 565.771 2.37379 2.70782 0
M  V30 5925 C 565.624 3.8625 2.30501 0
M  V30 5926 C 566.943 2.33685 3.72933 0
M  V30 5927 H 564.062 0.504928 0.536858 0
M  V30 5928 H 566.704 1.71411 0.819649 0
M  V30 5929 H 564.854 2.09568 3.27129 0
M  V30 5930 H 566.526 4.24879 1.79655 0
M  V30 5931 H 564.769 4.02202 1.6253 0
M  V30 5932 H 565.44 4.50847 3.18498 0
M  V30 5933 H 567.916 2.58314 3.2621 0
M  V30 5934 H 566.792 3.0482 4.56482 0
M  V30 5935 H 567.053 1.34765 4.21059 0
M  V30 5936 N 566.112 -0.949982 1.2575 0
M  V30 5937 C 567.361 -1.68956 1.10168 0
M  V30 5938 C 567.674 -1.92327 -0.356309 0
M  V30 5939 O 568.88 -2.64026 -0.632657 0
M  V30 5940 C 567.336 -3.04196 1.92336 0
M  V30 5941 C 566.944 -2.88603 3.42655 0
M  V30 5942 C 568.688 -3.81904 1.85336 0
M  V30 5943 C 566.595 -4.19262 4.17101 0
M  V30 5944 H 565.525 -0.633645 0.408668 0
M  V30 5945 H 568.176 -1.05719 1.49986 0
M  V30 5946 H 566.558 -3.68363 1.45344 0
M  V30 5947 H 567.732 -2.3334 3.97353 0
M  V30 5948 H 566.047 -2.24345 3.50796 0
M  V30 5949 H 568.644 -4.78688 2.38248 0
M  V30 5950 H 568.987 -4.08099 0.822226 0
M  V30 5951 H 569.52 -3.24495 2.30104 0
M  V30 5952 H 566.259 -3.98254 5.20648 0
M  V30 5953 H 565.779 -4.74273 3.67186 0
M  V30 5954 H 567.458 -4.87775 4.25071 0
M  V30 5955 N 567.59 -1.07411 -1.15328 0
M  V30 5956 C 568.837 -0.797649 -1.86128 0
M  V30 5957 C 569.165 0.676298 -1.82364 0
M  V30 5958 O 568.42 1.51223 -1.24218 0
M  V30 5959 C 568.719 -1.25191 -3.34757 0
M  V30 5960 C 568.385 -2.73191 -3.58716 0
M  V30 5961 C 567.047 -3.13616 -3.64964 0
M  V30 5962 C 569.399 -3.68718 -3.6837 0
M  V30 5963 C 566.727 -4.48383 -3.78377 0
M  V30 5964 C 569.079 -5.03248 -3.83306 0
M  V30 5965 C 567.743 -5.43293 -3.878 0
M  V30 5966 H 567.013 -0.29188 -0.681092 0
M  V30 5967 H 569.66 -1.34524 -1.36292 0
M  V30 5968 H 567.965 -0.623712 -3.86804 0
M  V30 5969 H 569.662 -1.01489 -3.87945 0
M  V30 5970 H 566.252 -2.40898 -3.54494 0
M  V30 5971 H 570.436 -3.38614 -3.62842 0
M  V30 5972 H 565.692 -4.78877 -3.80114 0
M  V30 5973 H 569.866 -5.77142 -3.89718 0
M  V30 5974 H 567.493 -6.47721 -3.97946 0
M  V30 5975 N 569.068 1.32177 -0.85831 0
M  V30 5976 C 570.298 2.01021 -0.476889 0
M  V30 5977 C 570.706 1.64653 0.931995 0
M  V30 5978 O 570.049 0.865713 1.62022 0
M  V30 5979 C 570.111 3.55413 -0.540528 0
M  V30 5980 C 569.775 4.1522 -1.90895 0
M  V30 5981 C 570.772 4.3318 -2.87491 0
M  V30 5982 C 568.457 4.51212 -2.20709 0
M  V30 5983 C 570.451 4.86306 -4.1205 0
M  V30 5984 C 568.138 5.04042 -3.45521 0
M  V30 5985 C 569.136 5.21538 -4.41007 0
M  V30 5986 O 568.824 5.73238 -5.63608 0
M  V30 5987 H 568.556 0.650059 -0.18547 0
M  V30 5988 H 571.11 1.69648 -1.15796 0
M  V30 5989 H 569.34 3.86196 0.19741 0
M  V30 5990 H 571.029 4.05526 -0.174191 0
M  V30 5991 H 571.795 4.05704 -2.65762 0
M  V30 5992 H 567.674 4.36878 -1.4717 0
M  V30 5993 H 571.218 4.99877 -4.86589 0
M  V30 5994 H 567.115 5.30952 -3.67098 0
M  V30 5995 H 567.883 5.91625 -5.65617 0
M  V30 5996 N 570.547 0.616602 1.45037 0
M  V30 5997 C 571.795 0.115103 2.01772 0
M  V30 5998 C 572.116 -1.2622 1.48639 0
M  V30 5999 O 571.386 -1.83563 0.684199 0
M  V30 6000 H 569.966 0.0395607 0.745952 0
M  V30 6001 H 572.628 0.800032 1.77723 0
M  V30 6002 H 571.724 0.0717274 3.12018 0
M  V30 6003 N 572.025 -1.5352 0.356285 0
M  V30 6004 C 572.935 -2.29151 -0.502712 0
M  V30 6005 C 573.951 -1.34753 -1.1008 0
M  V30 6006 O 575.127 -1.67803 -1.11374 0
M  V30 6007 C 572.192 -3.05911 -1.63154 0
M  V30 6008 C 571.253 -4.15958 -1.06194 0
M  V30 6009 C 570.486 -4.8905 -2.13696 0
M  V30 6010 O 570.709 -4.61919 -3.34645 0
M  V30 6011 O 569.643 -5.75202 -1.77275 0
M  V30 6012 H 573.469 -3.03492 0.112466 0
M  V30 6013 H 571.054 -1.4891 0.120942 0
M  V30 6014 H 572.936 -3.53874 -2.28804 0
M  V30 6015 H 571.611 -2.34415 -2.23229 0
M  V30 6016 H 570.518 -3.7227 -0.369603 0
M  V30 6017 H 571.851 -4.89593 -0.505872 0
M  V30 6018 N 573.503 -0.0852151 -1.57369 0
M  V30 6019 C 574.78 0.622534 -1.85429 0
M  V30 6020 C 575.16 1.86962 -0.980229 0
M  V30 6021 O 574.508 2.28445 -0.0500219 0
M  V30 6022 C 574.718 0.947374 -3.35896 0
M  V30 6023 C 576.066 1.31509 -4.03721 0
M  V30 6024 O 577.09 1.03869 -3.40719 0
M  V30 6025 O 575.949 1.83231 -5.14868 0
M  V30 6026 H 573.043 0.310513 -0.766492 0
M  V30 6027 H 575.589 -0.117164 -1.69295 0
M  V30 6028 H 574.361 0.0622264 -3.91251 0
M  V30 6029 H 573.984 1.74338 -3.5734 0
M  V30 6030 N 574.981 1.5647 0.188427 0
M  V30 6031 C 576.23 1.80207 0.905995 0
M  V30 6032 C 576.543 0.659579 1.84144 0
M  V30 6033 O 577.749 0.781431 2.60011 0
M  V30 6034 C 576.205 3.19255 1.66145 0
M  V30 6035 C 575.813 4.41324 0.770504 0
M  V30 6036 C 577.557 3.52298 2.36826 0
M  V30 6037 C 575.464 5.71394 1.52521 0
M  V30 6038 H 574.394 0.671953 0.342045 0
M  V30 6039 H 577.045 1.82808 0.159164 0
M  V30 6040 H 575.427 3.10922 2.45242 0
M  V30 6041 H 576.601 4.60797 0.0177261 0
M  V30 6042 H 574.916 4.16035 0.174199 0
M  V30 6043 H 577.513 4.46715 2.93854 0
M  V30 6044 H 577.856 2.76359 3.11338 0
M  V30 6045 H 578.389 3.62108 1.6469 0
M  V30 6046 H 575.128 6.50316 0.82275 0
M  V30 6047 H 574.648 5.55928 2.25175 0
M  V30 6048 H 576.327 6.12747 2.07725 0
M  V30 6049 N 576.459 -0.456382 1.50847 0
M  V30 6050 C 577.422 -1.53493 1.70213 0
M  V30 6051 C 578.422 -1.50264 0.572481 0
M  V30 6052 O 579.612 -1.52623 0.839751 0
M  V30 6053 C 576.744 -2.93091 1.741 0
M  V30 6054 H 577.937 -1.37633 2.66453 0
M  V30 6055 H 575.49 -0.683776 1.4055 0
M  V30 6056 H 576.225 -3.14378 0.796063 0
M  V30 6057 H 576.01 -2.9684 2.5618 0
M  V30 6058 H 577.5 -3.71368 1.90987 0
M  V30 6059 N 577.937 -1.40673 -0.710563 0
M  V30 6060 C 578.869 -1.37256 -1.83558 0
M  V30 6061 C 579.882 -0.277133 -1.60424 0
M  V30 6062 O 581.071 -0.537831 -1.70205 0
M  V30 6063 C 578.171 -1.1144 -3.20054 0
M  V30 6064 C 577.344 -2.32734 -3.70342 0
M  V30 6065 C 576.403 -2.03002 -4.85465 0
M  V30 6066 O 575.429 -2.75912 -4.97857 0
M  V30 6067 N 576.631 -1.01105 -5.71627 0
M  V30 6068 H 579.396 -2.34215 -1.86985 0
M  V30 6069 H 576.957 -1.35091 -0.892301 0
M  V30 6070 H 578.949 -0.895265 -3.94673 0
M  V30 6071 H 577.519 -0.231307 -3.11743 0
M  V30 6072 H 576.739 -2.70446 -2.86798 0
M  V30 6073 H 578.027 -3.13584 -4.00678 0
M  V30 6074 H 577.425 -0.407303 -5.64232 0
M  V30 6075 H 575.982 -0.85182 -6.4621 0
M  V30 6076 N 579.415 0.9433 -1.26252 0
M  V30 6077 C 580.345 2.05902 -1.10122 0
M  V30 6078 C 581.326 1.70099 -0.00700552 0
M  V30 6079 O 582.511 1.93377 -0.178641 0
M  V30 6080 C 579.641 3.39516 -0.731175 0
M  V30 6081 C 578.595 3.89372 -1.77688 0
M  V30 6082 C 577.921 5.19613 -1.26122 0
M  V30 6083 C 579.221 4.14489 -3.17799 0
M  V30 6084 H 580.915 2.19655 -2.03451 0
M  V30 6085 H 578.461 1.05548 -0.979576 0
M  V30 6086 H 580.414 4.17031 -0.605215 0
M  V30 6087 H 579.138 3.25733 0.23782 0
M  V30 6088 H 577.797 3.14036 -1.89148 0
M  V30 6089 H 577.445 5.02208 -0.282128 0
M  V30 6090 H 577.145 5.53939 -1.96023 0
M  V30 6091 H 578.669 5.99713 -1.14789 0
M  V30 6092 H 580.083 4.82625 -3.09428 0
M  V30 6093 H 578.48 4.60094 -3.85271 0
M  V30 6094 H 579.55 3.20347 -3.64014 0
M  V30 6095 N 580.893 1.08022 1.14757 0
M  V30 6096 C 581.856 0.71048 2.1791 0
M  V30 6097 C 582.856 -0.252731 1.58801 0
M  V30 6098 O 584.046 -0.0327915 1.74169 0
M  V30 6099 C 581.178 0.0483203 3.40866 0
M  V30 6100 H 582.371 1.62384 2.52134 0
M  V30 6101 H 579.924 0.877595 1.29337 0
M  V30 6102 H 580.659 -0.876959 3.12218 0
M  V30 6103 H 580.444 0.741189 3.85031 0
M  V30 6104 H 581.934 -0.195471 4.17142 0
M  V30 6105 N 582.371 -1.3172 0.865308 0
M  V30 6106 C 583.303 -2.27545 0.274906 0
M  V30 6107 C 584.316 -1.52887 -0.559413 0
M  V30 6108 O 585.505 -1.74361 -0.382166 0
M  V30 6109 C 582.605 -3.33006 -0.629286 0
M  V30 6110 C 581.778 -4.37063 0.171553 0
M  V30 6111 C 580.837 -5.22044 -0.660052 0
M  V30 6112 O 579.863 -5.69129 -0.0897527 0
M  V30 6113 N 581.065 -5.45946 -1.97289 0
M  V30 6114 H 583.83 -2.78848 1.09836 0
M  V30 6115 H 581.391 -1.44693 0.726331 0
M  V30 6116 H 583.383 -3.86772 -1.19121 0
M  V30 6117 H 581.953 -2.81782 -1.35342 0
M  V30 6118 H 581.173 -3.83436 0.914919 0
M  V30 6119 H 582.461 -5.03662 0.721235 0
M  V30 6120 H 581.859 -5.0944 -2.45942 0
M  V30 6121 H 580.416 -6.02665 -2.4827 0
M  V30 6122 N 583.85 -0.624285 -1.44708 0
M  V30 6123 C 584.779 0.0717025 -2.3339 0
M  V30 6124 C 585.76 0.841814 -1.47809 0
M  V30 6125 O 586.946 0.809056 -1.76544 0
M  V30 6126 C 584.076 1.05852 -3.30776 0
M  V30 6127 C 583.029 0.400503 -4.26122 0
M  V30 6128 C 582.356 1.49674 -5.13324 0
M  V30 6129 C 583.656 -0.688924 -5.17737 0
M  V30 6130 H 585.35 -0.668819 -2.91834 0
M  V30 6131 H 582.896 -0.32308 -1.40329 0
M  V30 6132 H 584.849 1.5541 -3.91696 0
M  V30 6133 H 583.572 1.82984 -2.70526 0
M  V30 6134 H 582.231 -0.0743687 -3.66525 0
M  V30 6135 H 581.88 2.25877 -4.49431 0
M  V30 6136 H 581.58 1.06188 -5.77926 0
M  V30 6137 H 583.104 1.99427 -5.77115 0
M  V30 6138 H 584.518 -0.276724 -5.72632 0
M  V30 6139 H 582.915 -1.04652 -5.90904 0
M  V30 6140 H 583.985 -1.55884 -4.5916 0
M  V30 6141 N 585.328 1.53329 -0.364422 0
M  V30 6142 C 586.291 2.24323 0.470292 0
M  V30 6143 C 587.291 1.25068 1.01067 0
M  V30 6144 O 588.481 1.49354 0.896605 0
M  V30 6145 C 585.613 2.97908 1.65722 0
M  V30 6146 H 586.806 2.9952 -0.150917 0
M  V30 6147 H 584.359 1.55868 -0.116092 0
M  V30 6148 H 585.094 2.2695 2.31655 0
M  V30 6149 H 584.879 3.70732 1.27671 0
M  V30 6150 H 586.369 3.5188 2.24878 0
M  V30 6151 N 586.806 0.0935595 1.57322 0
M  V30 6152 C 588.031 -0.582324 1.99057 0
M  V30 6153 C 588.456 -1.61025 0.972242 0
M  V30 6154 O 587.814 -1.81202 -0.0594622 0
M  V30 6155 C 587.862 -1.20799 3.39765 0
M  V30 6156 O 586.966 -2.32382 3.40694 0
M  V30 6157 H 586.307 -0.147884 0.647323 0
M  V30 6158 H 588.837 0.174516 2.03854 0
M  V30 6159 H 588.847 -1.54966 3.77425 0
M  V30 6160 H 587.522 -0.454914 4.13405 0
M  V30 6161 H 586.099 -1.99845 3.14827 0
M  V30 6162 N 588.284 -1.56567 -0.180126 0
M  V30 6163 C 589.216 -1.92275 -1.24751 0
M  V30 6164 C 590.229 -0.814922 -1.40936 0
M  V30 6165 O 591.418 -1.09336 -1.41095 0
M  V30 6166 C 588.518 -2.15265 -2.61752 0
M  V30 6167 C 587.691 -3.46467 -2.66981 0
M  V30 6168 C 586.75 -3.58391 -3.85283 0
M  V30 6169 O 585.776 -4.31086 -3.7169 0
M  V30 6170 N 586.978 -2.92587 -5.01371 0
M  V30 6171 H 589.743 -2.84435 -0.944302 0
M  V30 6172 H 587.304 -1.57617 -0.369952 0
M  V30 6173 H 589.296 -2.20515 -3.39345 0
M  V30 6174 H 587.866 -1.29533 -2.845 0
M  V30 6175 H 587.086 -3.52953 -1.75549 0
M  V30 6176 H 588.374 -4.32819 -2.67479 0
M  V30 6177 H 587.772 -2.3338 -5.15316 0
M  V30 6178 H 586.329 -3.03444 -5.76858 0
M  V30 6179 N 589.762 0.448376 -1.51087 0
M  V30 6180 C 590.695 1.56298 -1.66272 0
M  V30 6181 C 591.673 1.54381 -0.510419 0
M  V30 6182 O 592.857 1.73671 -0.732854 0
M  V30 6183 C 589.984 2.94883 -1.66618 0
M  V30 6184 C 589.03 3.14868 -2.87681 0
M  V30 6185 S 589.863 2.9234 -4.48662 0
M  V30 6186 C 591.019 4.33227 -4.51735 0
M  V30 6187 H 591.252 1.43182 -2.6055 0
M  V30 6188 H 588.785 0.637309 -1.40633 0
M  V30 6189 H 590.743 3.74771 -1.67502 0
M  V30 6190 H 589.404 3.05371 -0.735358 0
M  V30 6191 H 588.597 4.16166 -2.84292 0
M  V30 6192 H 588.199 2.42788 -2.84482 0
M  V30 6193 H 590.491 5.26247 -4.26697 0
M  V30 6194 H 591.434 4.41653 -5.53487 0
M  V30 6195 H 591.842 4.16367 -3.81181 0
M  V30 6196 N 591.24 1.41047 0.703093 0
M  V30 6197 C 592.487 1.4 1.46309 0
M  V30 6198 C 592.815 0.00654574 1.94499 0
M  V30 6199 O 592.07 -0.980255 1.6938 0
M  V30 6200 C 592.369 2.34686 2.6955 0
M  V30 6201 C 592.035 3.81684 2.40058 0
M  V30 6202 C 590.697 4.21731 2.31725 0
M  V30 6203 C 593.049 4.74525 2.15581 0
M  V30 6204 C 590.377 5.52637 1.97001 0
M  V30 6205 C 592.729 6.05744 1.82366 0
M  V30 6206 C 591.393 6.44819 1.72524 0
M  V30 6207 H 590.663 0.512295 0.535382 0
M  V30 6208 H 593.31 1.73792 0.804275 0
M  V30 6209 H 591.615 1.94122 3.40329 0
M  V30 6210 H 593.312 2.31152 3.27673 0
M  V30 6211 H 589.902 3.49963 2.47435 0
M  V30 6212 H 594.086 4.44395 2.20968 0
M  V30 6213 H 589.342 5.81802 1.87928 0
M  V30 6214 H 593.516 6.77189 1.62444 0
M  V30 6215 H 591.143 7.46168 1.45385 0
M  V30 6216 N 592.718 -0.936591 1.26751 0
M  V30 6217 C 594.129 -1.49816 1.1141 0
M  V30 6218 C 594.48 -1.9383 -0.304015 0
M  V30 6219 O 593.605 -1.80346 -1.196 0
M  V30 6220 C 594.2 -2.72271 2.01629 0
M  V30 6221 C 592.759 -3.2468 1.9042 0
M  V30 6222 C 591.906 -1.97444 1.94708 0
M  V30 6223 H 594.857 -0.751604 1.39773 0
M  V30 6224 H 594.878 -3.46741 1.56688 0
M  V30 6225 H 594.39 -2.40205 3.04833 0
M  V30 6226 H 592.491 -3.61525 0.901674 0
M  V30 6227 H 592.604 -3.91476 2.76195 0
M  V30 6228 H 590.968 -2.13545 1.38818 0
M  V30 6229 H 591.751 -1.67703 2.9955 0
M  V30 6230 N 594.196 -1.08629 -1.14182 0
M  V30 6231 C 595.445 -0.812271 -1.84621 0
M  V30 6232 C 595.758 0.664313 -1.83973 0
M  V30 6233 O 596.964 1.05357 -2.50224 0
M  V30 6234 C 595.42 -1.4031 -3.31423 0
M  V30 6235 C 595.028 -2.91164 -3.40481 0
M  V30 6236 C 596.772 -1.20767 -4.06959 0
M  V30 6237 C 594.679 -3.43373 -4.81507 0
M  V30 6238 H 593.609 -0.30019 -0.691666 0
M  V30 6239 H 596.26 -1.30798 -1.28701 0
M  V30 6240 H 594.642 -0.835096 -3.87094 0
M  V30 6241 H 595.816 -3.5412 -2.94848 0
M  V30 6242 H 594.131 -3.09646 -2.78403 0
M  V30 6243 H 596.728 -1.57237 -5.11058 0
M  V30 6244 H 597.071 -0.147664 -4.16038 0
M  V30 6245 H 597.604 -1.74274 -3.57594 0
M  V30 6246 H 594.343 -4.48958 -4.77616 0
M  V30 6247 H 593.863 -2.85176 -5.27669 0
M  V30 6248 H 595.542 -3.40095 -5.50404 0
M  V30 6249 N 595.674 1.31259 -0.872281 0
M  V30 6250 C 596.922 1.96233 -0.483409 0
M  V30 6251 C 597.243 1.69276 0.968012 0
M  V30 6252 O 596.513 1.00943 1.67891 0
M  V30 6253 H 595.093 0.726025 -0.175774 0
M  V30 6254 H 597.755 1.60024 -1.11258 0
M  V30 6255 H 596.851 3.05403 -0.643075 0
M  V30 6256 N 597.152 0.631951 1.44375 0
M  V30 6257 C 598.102 -0.0943862 2.27805 0
M  V30 6258 C 599.086 -0.815359 1.38711 0
M  V30 6259 O 600.278 -0.701331 1.62513 0
M  V30 6260 C 597.407 -1.07472 3.26044 0
M  V30 6261 C 596.493 -0.353329 4.22626 0
M  V30 6262 N 596.884 0.618512 5.02004 0
M  V30 6263 C 595.182 -0.597662 4.41977 0
M  V30 6264 C 595.883 1.0448 5.7224 0
M  V30 6265 N 594.859 0.383413 5.42246 0
M  V30 6266 H 598.661 0.651672 2.86584 0
M  V30 6267 H 596.175 0.45752 1.55822 0
M  V30 6268 H 598.172 -1.60969 3.84571 0
M  V30 6269 H 596.832 -1.82107 2.68825 0
M  V30 6270 H 597.843 0.996356 5.08226 0
M  V30 6271 H 594.52 -1.32682 3.95856 0
M  V30 6272 H 595.91 1.84773 6.45994 0
M  V30 6273 N 598.631 -1.53133 0.372548 0
M  V30 6274 C 599.877 -2.01654 -0.215277 0
M  V30 6275 C 600.21 -1.25914 -1.47849 0
M  V30 6276 O 599.485 -0.3548 -1.91237 0
M  V30 6277 C 599.768 -3.56609 -0.500187 0
M  V30 6278 C 599.621 -4.43036 0.777145 0
M  V30 6279 C 600.94 -4.20528 -1.29786 0
M  V30 6280 H 598.059 -0.732991 -0.0767686 0
M  V30 6281 H 600.701 -1.83335 0.498814 0
M  V30 6282 H 598.851 -3.7235 -1.10852 0
M  V30 6283 H 600.523 -4.39079 1.41447 0
M  V30 6284 H 598.766 -4.10723 1.39604 0
M  V30 6285 H 599.437 -5.49424 0.532662 0
M  V30 6286 H 601.913 -4.08663 -0.783198 0
M  V30 6287 H 600.789 -5.28962 -1.46596 0
M  V30 6288 H 601.05 -3.77051 -2.30836 0
M  V30 6289 N 600.109 -0.101901 -1.5727 0
M  V30 6290 C 601.339 0.567568 -1.98651 0
M  V30 6291 C 601.747 1.61839 -0.980037 0
M  V30 6292 O 601.09 1.83661 0.0376564 0
M  V30 6293 C 601.152 1.26742 -3.36417 0
M  V30 6294 C 600.816 0.366561 -4.55528 0
M  V30 6295 C 601.813 -0.388022 -5.1845 0
M  V30 6296 C 599.498 0.282629 -5.01504 0
M  V30 6297 C 601.492 -1.21445 -6.25724 0
M  V30 6298 C 599.179 -0.547443 -6.08643 0
M  V30 6299 C 600.177 -1.29462 -6.70618 0
M  V30 6300 O 599.865 -2.11095 -7.7569 0
M  V30 6301 H 599.597 0.156282 -0.657687 0
M  V30 6302 H 602.151 -0.179912 -2.04611 0
M  V30 6303 H 600.381 2.06162 -3.27161 0
M  V30 6304 H 602.07 1.8321 -3.622 0
M  V30 6305 H 602.836 -0.332949 -4.83856 0
M  V30 6306 H 598.715 0.853868 -4.53023 0
M  V30 6307 H 602.259 -1.79814 -6.74027 0
M  V30 6308 H 598.156 -0.603971 -6.42668 0
M  V30 6309 H 598.924 -2.03851 -7.92709 0
M  V30 6310 N 601.587 1.56661 0.17182 0
M  V30 6311 C 602.817 1.85831 0.902804 0
M  V30 6312 C 603.225 0.685157 1.76358 0
M  V30 6313 O 602.568 -0.354947 1.80238 0
M  V30 6314 C 602.63 3.09406 1.83053 0
M  V30 6315 C 602.294 4.4231 1.1494 0
M  V30 6316 C 603.291 5.17342 0.515104 0
M  V30 6317 C 600.976 4.89045 1.14631 0
M  V30 6318 C 602.97 6.37299 -0.113194 0
M  V30 6319 C 600.657 6.08933 0.514184 0
M  V30 6320 C 601.655 6.82904 -0.114463 0
M  V30 6321 O 601.343 8.00518 -0.736622 0
M  V30 6322 H 601.075 0.620715 0.267748 0
M  V30 6323 H 603.629 2.04637 0.176918 0
M  V30 6324 H 601.859 2.86544 2.59672 0
M  V30 6325 H 603.548 3.25027 2.4313 0
M  V30 6326 H 604.314 4.82317 0.509474 0
M  V30 6327 H 600.193 4.31409 1.62502 0
M  V30 6328 H 603.737 6.94976 -0.604477 0
M  V30 6329 H 599.634 6.43423 0.517395 0
M  V30 6330 H 600.402 8.16027 -0.635822 0
M  V30 6331 N 603.065 -0.440357 1.51323 0
M  V30 6332 C 604.312 -1.19004 1.63842 0
M  V30 6333 C 604.64 -1.91266 0.35321 0
M  V30 6334 O 603.895 -1.84143 -0.662565 0
M  V30 6335 C 604.194 -2.2339 2.78984 0
M  V30 6336 C 603.86 -1.68162 4.18369 0
M  V30 6337 C 602.522 -1.52823 4.56288 0
M  V30 6338 C 604.874 -1.27524 5.05358 0
M  V30 6339 C 602.202 -0.953157 5.78906 0
M  V30 6340 C 604.554 -0.714474 6.28552 0
M  V30 6341 C 603.218 -0.547961 6.65247 0
M  V30 6342 H 602.488 -0.435468 0.59954 0
M  V30 6343 H 605.135 -0.481538 1.85347 0
M  V30 6344 H 603.44 -3.00267 2.51688 0
M  V30 6345 H 605.137 -2.81211 2.85869 0
M  V30 6346 H 601.727 -1.81077 3.8847 0
M  V30 6347 H 605.911 -1.38197 4.76671 0
M  V30 6348 H 601.167 -0.811882 6.05986 0
M  V30 6349 H 605.341 -0.391059 6.95301 0
M  V30 6350 H 602.968 -0.100222 7.60134 0
M  V30 6351 N 604.543 -1.41418 -0.695603 0
M  V30 6352 C 605.49 -1.43264 -1.80954 0
M  V30 6353 C 606.46 -0.287016 -1.63601 0
M  V30 6354 O 607.645 -0.488054 -1.84452 0
M  V30 6355 C 604.785 -1.32054 -3.18835 0
M  V30 6356 C 603.898 -2.56485 -3.4762 0
M  V30 6357 C 603.033 -2.3757 -4.75115 0
M  V30 6358 C 602.072 -3.57477 -4.96867 0
M  V30 6359 N 601.209 -3.37632 -6.15588 0
M  V30 6360 H 606.049 -2.38467 -1.78711 0
M  V30 6361 H 603.586 -1.18415 -0.872715 0
M  V30 6362 H 605.544 -1.23558 -3.98484 0
M  V30 6363 H 604.174 -0.404592 -3.20254 0
M  V30 6364 H 603.226 -2.75432 -2.62376 0
M  V30 6365 H 604.538 -3.45678 -3.59594 0
M  V30 6366 H 603.692 -2.2654 -5.62818 0
M  V30 6367 H 602.431 -1.45834 -4.65386 0
M  V30 6368 H 601.436 -3.68961 -4.07612 0
M  V30 6369 H 602.661 -4.50167 -5.08455 0
M  V30 6370 H 600.607 -2.48596 -6.07072 0
M  V30 6371 H 600.524 -4.20401 -6.2833 0
M  V30 6372 H 601.792 -3.30375 -7.06026 0
M  V30 6373 N 606.021 0.929856 -1.27246 0
M  V30 6374 C 606.968 2.03017 -1.09785 0
M  V30 6375 C 607.938 1.661 0.000456744 0
M  V30 6376 O 609.123 1.90116 -0.161462 0
M  V30 6377 C 606.263 3.36878 -0.748816 0
M  V30 6378 C 605.376 3.86763 -1.92453 0
M  V30 6379 C 604.511 5.09061 -1.51758 0
M  V30 6380 C 603.55 5.51237 -2.66091 0
M  V30 6381 N 602.687 6.64732 -2.25999 0
M  V30 6382 H 607.527 2.17285 -2.03939 0
M  V30 6383 H 605.064 1.06448 -1.01524 0
M  V30 6384 H 607.022 4.13855 -0.527283 0
M  V30 6385 H 605.652 3.22424 0.155771 0
M  V30 6386 H 604.704 3.06086 -2.25867 0
M  V30 6387 H 606.016 4.13994 -2.78227 0
M  V30 6388 H 605.17 5.93532 -1.25716 0
M  V30 6389 H 603.909 4.83602 -0.630896 0
M  V30 6390 H 602.914 4.65316 -2.92849 0
M  V30 6391 H 604.139 5.78692 -3.55377 0
M  V30 6392 H 602.085 6.40935 -1.3978 0
M  V30 6393 H 602.002 6.91607 -3.05313 0
M  V30 6394 H 603.27 7.52549 -2.03199 0
M  V30 6395 N 607.499 1.09233 1.13605 0
M  V30 6396 C 608.727 0.848908 1.88683 0
M  V30 6397 C 609.142 -0.599667 1.79024 0
M  V30 6398 O 608.499 -1.41265 1.15544 0
M  V30 6399 C 608.55 1.27273 3.38355 0
M  V30 6400 O 608.271 2.66449 3.47759 0
M  V30 6401 C 609.772 1.0614 4.30406 0
M  V30 6402 H 606.992 0.305549 0.597395 0
M  V30 6403 H 609.536 1.4538 1.43823 0
M  V30 6404 H 607.691 0.711776 3.80805 0
M  V30 6405 H 608.105 2.84264 4.40788 0
M  V30 6406 H 609.579 1.40725 5.33761 0
M  V30 6407 H 610.056 -0.000960332 4.392 0
M  V30 6408 H 610.662 1.60821 3.93722 0
M  V30 6409 N 608.977 -1.30795 0.87923 0
M  V30 6410 C 609.887 -2.32041 0.345565 0
M  V30 6411 C 610.903 -1.65103 -0.549265 0
M  V30 6412 O 612.079 -1.9645 -0.443763 0
M  V30 6413 C 609.144 -3.43944 -0.436245 0
M  V30 6414 C 608.205 -4.26521 0.48765 0
M  V30 6415 C 607.438 -5.33081 -0.256943 0
M  V30 6416 O 607.661 -5.50762 -1.48381 0
M  V30 6417 O 606.595 -6.00635 0.389985 0
M  V30 6418 H 610.421 -2.79627 1.18501 0
M  V30 6419 H 608.006 -1.3486 0.642885 0
M  V30 6420 H 609.888 -4.12128 -0.879119 0
M  V30 6421 H 608.563 -2.98504 -1.25208 0
M  V30 6422 H 607.47 -3.61057 0.979216 0
M  V30 6423 H 608.803 -4.75551 1.26933 0
M  V30 6424 N 610.455 -0.639598 -1.44038 0
M  V30 6425 C 611.732 -0.078012 -1.95444 0
M  V30 6426 C 612.112 1.39847 -1.58133 0
M  V30 6427 O 611.46 2.11714 -0.859614 0
M  V30 6428 C 611.67 -0.309832 -3.47622 0
M  V30 6429 C 613.018 -0.207521 -4.24093 0
M  V30 6430 O 614.042 -0.241653 -3.55379 0
M  V30 6431 O 612.901 -0.119641 -5.46369 0
M  V30 6432 H 609.995 0.0174534 -0.826816 0
M  V30 6433 H 612.541 -0.711891 -1.54046 0
M  V30 6434 H 611.313 -1.33401 -3.67858 0
M  V30 6435 H 610.936 0.357777 -3.95987 0
M  V30 6436 N 611.933 1.52934 -0.380664 0
M  V30 6437 C 612.865 2.23822 0.493581 0
M  V30 6438 C 613.878 1.25761 1.03383 0
M  V30 6439 O 615.067 1.5189 0.937633 0
M  V30 6440 C 612.167 2.9342 1.69582 0
M  V30 6441 C 611.34 4.18115 1.28445 0
M  V30 6442 C 610.399 4.70788 2.35042 0
M  V30 6443 O 609.425 5.34093 1.96807 0
M  V30 6444 N 610.627 4.49899 3.66839 0
M  V30 6445 H 613.392 2.99484 -0.11371 0
M  V30 6446 H 610.953 1.60577 -0.206587 0
M  V30 6447 H 612.945 3.2556 2.40401 0
M  V30 6448 H 611.515 2.21119 2.20965 0
M  V30 6449 H 610.735 3.92109 0.405503 0
M  V30 6450 H 612.023 4.99152 0.986132 0
M  V30 6451 H 611.421 3.99349 4.0067 0
M  V30 6452 H 609.978 4.86551 4.33718 0
M  V30 6453 N 613.412 0.11024 1.57214 0
M  V30 6454 C 614.689 -0.592956 1.86396 0
M  V30 6455 C 615.069 -1.85379 1.00985 0
M  V30 6456 O 614.417 -2.28337 0.0863592 0
M  V30 6457 C 614.627 -0.893816 3.3736 0
M  V30 6458 C 615.975 -1.25069 4.05762 0
M  V30 6459 O 616.999 -0.984356 3.42329 0
M  V30 6460 O 615.858 -1.75017 5.17718 0
M  V30 6461 H 612.952 -0.29828 0.771335 0
M  V30 6462 H 615.498 0.144083 1.69087 0
M  V30 6463 H 614.27 2.6031e-05 3.913 0
M  V30 6464 H 613.893 -1.68631 3.60068 0
M  V30 6465 N 614.89 -1.56749 -0.16351 0
M  V30 6466 C 615.822 -1.93587 -1.22705 0
M  V30 6467 C 616.835 -0.829824 -1.40063 0
M  V30 6468 O 618.024 -1.10826 -1.39928 0
M  V30 6469 C 615.124 -2.1803 -2.59454 0
M  V30 6470 C 614.297 -3.4928 -2.63292 0
M  V30 6471 C 613.356 -3.62457 -3.8146 0
M  V30 6472 O 612.382 -4.35004 -3.67096 0
M  V30 6473 N 613.584 -2.97888 -4.9824 0
M  V30 6474 H 616.349 -2.8542 -0.914081 0
M  V30 6475 H 613.91 -1.58 -0.353214 0
M  V30 6476 H 615.902 -2.24102 -3.36987 0
M  V30 6477 H 614.472 -1.32543 -2.8311 0
M  V30 6478 H 613.692 -3.54795 -1.71796 0
M  V30 6479 H 614.98 -4.35632 -2.62873 0
M  V30 6480 H 614.378 -2.38833 -5.12811 0
M  V30 6481 H 612.935 -3.09545 -5.73607 0
M  V30 6482 N 616.368 0.432326 -1.51554 0
M  V30 6483 C 617.615 1.18134 -1.64471 0
M  V30 6484 C 617.943 1.91076 -0.363349 0
M  V30 6485 O 617.198 1.84492 0.65279 0
M  V30 6486 C 617.497 2.21907 -2.80164 0
M  V30 6487 C 617.163 1.65941 -4.19255 0
M  V30 6488 C 615.825 1.50401 -4.57092 0
M  V30 6489 C 618.177 1.24843 -5.06027 0
M  V30 6490 C 615.505 0.922443 -5.79403 0
M  V30 6491 C 617.857 0.68113 -6.28922 0
M  V30 6492 C 616.521 0.512673 -6.65528 0
M  V30 6493 H 615.791 0.432283 -0.601841 0
M  V30 6494 H 618.438 0.471701 -1.856 0
M  V30 6495 H 616.743 2.98928 -2.53277 0
M  V30 6496 H 618.44 2.79691 -2.87357 0
M  V30 6497 H 615.03 1.79014 -3.89425 0
M  V30 6498 H 619.214 1.35667 -4.77397 0
M  V30 6499 H 614.47 0.779733 -6.06408 0
M  V30 6500 H 618.644 0.35418 -6.95499 0
M  V30 6501 H 616.271 0.0599084 -7.60176 0
M  V30 6502 N 617.846 1.41785 0.688094 0
M  V30 6503 C 618.756 1.46596 1.83158 0
M  V30 6504 C 619.772 0.355862 1.70322 0
M  V30 6505 O 620.948 0.604737 1.92106 0
M  V30 6506 C 618.013 1.35322 3.192 0
M  V30 6507 C 617.074 2.56711 3.4409 0
M  V30 6508 C 616.307 2.45965 4.73642 0
M  V30 6509 O 616.53 1.48827 5.50642 0
M  V30 6510 O 615.464 3.35859 4.99482 0
M  V30 6511 H 619.29 2.43083 1.82056 0
M  V30 6512 H 616.875 1.23404 0.842126 0
M  V30 6513 H 618.757 1.31347 4.00407 0
M  V30 6514 H 617.432 0.419536 3.2097 0
M  V30 6515 H 616.339 2.66262 2.62784 0
M  V30 6516 H 617.672 3.48933 3.47141 0
M  V30 6517 N 619.324 -0.923095 1.27737 0
M  V30 6518 C 620.601 -1.64989 1.05062 0
M  V30 6519 C 620.981 -2.07018 -0.413124 0
M  V30 6520 O 620.329 -1.80797 -1.39731 0
M  V30 6521 C 620.539 -2.84847 2.01652 0
M  V30 6522 C 621.887 -3.56083 2.31279 0
M  V30 6523 O 622.911 -2.94981 1.99662 0
M  V30 6524 O 621.77 -4.66182 2.85196 0
M  V30 6525 H 618.864 -0.723357 0.400853 0
M  V30 6526 H 621.41 -0.973224 1.3902 0
M  V30 6527 H 620.182 -2.50814 3.00347 0
M  V30 6528 H 619.805 -3.60231 1.68284 0
M  V30 6529 N 620.802 -1.09834 -1.13024 0
M  V30 6530 C 621.732 -0.763451 -2.20666 0
M  V30 6531 C 622.713 0.260778 -1.68089 0
M  V30 6532 O 623.898 0.127915 -1.93778 0
M  V30 6533 C 621.028 -0.187744 -3.46792 0
M  V30 6534 C 619.982 -1.14196 -4.12484 0
M  V30 6535 C 619.308 -0.427755 -5.32986 0
M  V30 6536 C 620.608 -2.48607 -4.59338 0
M  V30 6537 H 622.302 -1.66347 -2.48936 0
M  V30 6538 H 619.848 -0.801261 -1.19649 0
M  V30 6539 H 621.801 0.0586375 -4.21359 0
M  V30 6540 H 620.525 0.747485 -3.17931 0
M  V30 6541 H 619.184 -1.37369 -3.3989 0
M  V30 6542 H 618.832 0.511747 -5.0039 0
M  V30 6543 H 618.532 -1.06403 -5.77886 0
M  V30 6544 H 620.056 -0.189772 -6.10305 0
M  V30 6545 H 621.47 -2.29618 -5.25308 0
M  V30 6546 H 619.867 -3.08062 -5.14993 0
M  V30 6547 H 620.937 -3.09062 -3.73642 0
M  V30 6548 N 622.28 1.30327 -0.886154 0
M  V30 6549 C 623.526 1.96388 -0.505941 0
M  V30 6550 C 623.859 1.69784 0.942712 0
M  V30 6551 O 623.134 1.00322 1.6663 0
M  V30 6552 C 623.417 3.51488 -0.782826 0
M  V30 6553 C 623.27 3.87603 -2.28219 0
M  V30 6554 C 624.589 4.39331 -0.260128 0
M  V30 6555 H 621.708 0.713327 -0.185292 0
M  V30 6556 H 624.35 1.54178 -1.11036 0
M  V30 6557 H 622.5 3.87572 -0.268399 0
M  V30 6558 H 624.172 3.61537 -2.86512 0
M  V30 6559 H 622.415 3.3563 -2.74837 0
M  V30 6560 H 623.086 4.95806 -2.42653 0
M  V30 6561 H 625.562 4.10162 -0.700444 0
M  V30 6562 H 624.438 5.46769 -0.483179 0
M  V30 6563 H 624.699 4.34072 0.838674 0
M  V30 6564 N 623.758 0.647228 1.43697 0
M  V30 6565 C 624.705 -0.0480092 2.3075 0
M  V30 6566 C 625.675 -0.820705 1.44408 0
M  V30 6567 O 626.86 -0.798515 1.73287 0
M  V30 6568 C 624 -1.01259 3.2991 0
M  V30 6569 C 623.113 -0.236629 4.31351 0
M  V30 6570 C 622.248 -1.19447 5.17596 0
M  V30 6571 C 621.287 -0.408595 6.10735 0
M  V30 6572 N 620.424 -1.31772 6.89623 0
M  V30 6573 H 625.264 0.700238 2.89656 0
M  V30 6574 H 622.801 0.357082 1.427 0
M  V30 6575 H 624.759 -1.58538 3.85903 0
M  V30 6576 H 623.389 -1.72778 2.72667 0
M  V30 6577 H 622.441 0.452353 3.77701 0
M  V30 6578 H 623.753 0.374731 4.9739 0
M  V30 6579 H 622.907 -1.83809 5.78186 0
M  V30 6580 H 621.646 -1.83975 4.51669 0
M  V30 6581 H 620.651 0.24841 5.49239 0
M  V30 6582 H 621.876 0.232188 6.78703 0
M  V30 6583 H 619.822 -1.94991 6.2635 0
M  V30 6584 H 619.739 -0.760779 7.52162 0
M  V30 6585 H 621.007 -1.94967 7.54724 0
M  V30 6586 N 625.236 -1.5273 0.388769 0
M  V30 6587 C 626.168 -2.24081 -0.481704 0
M  V30 6588 C 627.181 -1.26307 -1.02715 0
M  V30 6589 O 628.37 -1.52386 -0.929565 0
M  V30 6590 C 625.47 -2.94315 -1.68024 0
M  V30 6591 C 624.643 -4.18791 -1.26226 0
M  V30 6592 C 623.702 -4.72028 -2.32542 0
M  V30 6593 O 622.728 -5.35129 -1.93972 0
M  V30 6594 N 623.93 -4.51838 -3.64448 0
M  V30 6595 H 626.695 -2.9942 0.129591 0
M  V30 6596 H 624.256 -1.60465 0.2151 0
M  V30 6597 H 626.248 -3.26831 -2.38671 0
M  V30 6598 H 624.818 -2.22287 -2.19789 0
M  V30 6599 H 624.038 -3.92318 -0.384703 0
M  V30 6600 H 625.326 -4.99668 -0.959647 0
M  V30 6601 H 624.724 -4.01468 -3.98547 0
M  V30 6602 H 623.281 -4.88845 -4.31131 0
M  V30 6603 N 626.714 -0.118576 -1.57153 0
M  V30 6604 C 627.96 0.540326 -1.95469 0
M  V30 6605 C 628.293 1.66356 -1.00196 0
M  V30 6606 O 627.568 1.94461 -0.039104 0
M  V30 6607 C 627.851 1.07342 -3.43729 0
M  V30 6608 C 627.704 -0.0463732 -4.49776 0
M  V30 6609 C 629.023 1.96442 -3.93826 0
M  V30 6610 H 626.142 0.19494 -0.710751 0
M  V30 6611 H 628.784 -0.19405 -1.89006 0
M  V30 6612 H 626.934 1.69925 -3.49368 0
M  V30 6613 H 628.606 -0.681648 -4.56236 0
M  V30 6614 H 626.849 -0.709574 -4.27957 0
M  V30 6615 H 627.52 0.367856 -5.50773 0
M  V30 6616 H 629.996 1.43731 -3.90488 0
M  V30 6617 H 628.872 2.3066 -4.98084 0
M  V30 6618 H 629.133 2.89077 -3.34495 0
M  V30 6619 N 628.193 1.56834 0.155195 0
M  V30 6620 C 629.14 1.97646 1.19184 0
M  V30 6621 C 630.11 0.842788 1.4313 0
M  V30 6622 O 631.295 1.1042 1.55602 0
M  V30 6623 C 628.435 2.35527 2.52232 0
M  V30 6624 C 627.548 3.62147 2.35529 0
M  V30 6625 C 626.683 3.89167 3.61555 0
M  V30 6626 C 625.722 5.09084 3.39853 0
M  V30 6627 N 624.859 5.32156 4.5799 0
M  V30 6628 H 629.699 2.8601 0.836802 0
M  V30 6629 H 627.236 1.41507 0.401758 0
M  V30 6630 H 629.194 2.55516 3.29799 0
M  V30 6631 H 627.824 1.50253 2.85699 0
M  V30 6632 H 626.876 3.4998 1.49057 0
M  V30 6633 H 628.188 4.49871 2.15448 0
M  V30 6634 H 627.342 4.09611 4.47553 0
M  V30 6635 H 626.081 2.9985 3.84632 0
M  V30 6636 H 625.086 4.88522 2.52243 0
M  V30 6637 H 626.311 5.99947 3.18183 0
M  V30 6638 H 624.257 4.45791 4.81255 0
M  V30 6639 H 624.174 6.14133 4.40882 0
M  V30 6640 H 625.442 5.57091 5.45225 0
M  V30 6641 N 629.671 -0.424282 1.51781 0
M  V30 6642 C 630.581 -1.54087 1.76902 0
M  V30 6643 C 631.597 -1.61249 0.653826 0
M  V30 6644 O 632.773 -1.78247 0.937552 0
M  V30 6645 C 629.838 -2.8996 1.90063 0
M  V30 6646 C 628.899 -2.92809 3.13945 0
M  V30 6647 C 628.132 -4.22201 3.26469 0
M  V30 6648 O 628.355 -5.15286 2.44616 0
M  V30 6649 O 627.289 -4.31599 4.1953 0
M  V30 6650 H 631.115 -1.358 2.71647 0
M  V30 6651 H 628.7 -0.608618 1.36441 0
M  V30 6652 H 630.582 -3.70575 2.0063 0
M  V30 6653 H 629.257 -3.08347 0.985067 0
M  V30 6654 H 628.164 -2.11102 3.08847 0
M  V30 6655 H 629.497 -2.79369 4.05233 0
M  V30 6656 N 631.149 -1.42148 -0.680565 0
M  V30 6657 C 632.374 -1.45901 -1.47403 0
M  V30 6658 C 632.799 -0.0700985 -1.87969 0
M  V30 6659 O 632.157 0.930145 -1.55621 0
M  V30 6660 C 632.205 -2.38661 -2.70321 0
M  V30 6661 O 631.309 -1.85399 -3.68376 0
M  V30 6662 H 630.65 -0.494565 -0.443059 0
M  V30 6663 H 633.18 -1.86774 -0.835251 0
M  V30 6664 H 633.19 -2.55046 -3.18458 0
M  V30 6665 H 631.865 -3.39571 -2.40134 0
M  V30 6666 H 630.442 -1.78541 -3.2738 0
M  V30 6667 N 632.627 0.916307 -1.28225 0
M  V30 6668 C 633.557 2.0352 -1.14464 0
M  V30 6669 C 634.538 1.70045 -0.0430844 0
M  V30 6670 O 635.723 1.92954 -0.219619 0
M  V30 6671 C 632.853 3.37889 -0.803027 0
M  V30 6672 C 631.807 3.85516 -1.85908 0
M  V30 6673 C 631.133 5.1682 -1.37116 0
M  V30 6674 C 632.433 4.07655 -3.26519 0
M  V30 6675 H 634.127 2.1529 -2.08064 0
M  V30 6676 H 631.673 1.03446 -1.00174 0
M  V30 6677 H 633.626 4.15654 -0.693537 0
M  V30 6678 H 632.35 3.26164 0.168674 0
M  V30 6679 H 631.009 3.09953 -1.95767 0
M  V30 6680 H 630.657 5.01497 -0.38859 0
M  V30 6681 H 630.357 5.49657 -2.07728 0
M  V30 6682 H 631.881 5.97143 -1.27484 0
M  V30 6683 H 633.295 4.75953 -3.19596 0
M  V30 6684 H 631.692 4.51818 -3.94943 0
M  V30 6685 H 632.762 3.12553 -3.70727 0
M  V30 6686 N 634.105 1.10431 1.1244 0
M  V30 6687 C 635.353 0.845045 1.83585 0
M  V30 6688 C 635.674 -0.631168 1.84503 0
M  V30 6689 O 634.944 -1.45825 1.30813 0
M  V30 6690 H 633.524 0.309628 0.679809 0
M  V30 6691 H 636.186 1.39458 1.36153 0
M  V30 6692 H 635.282 1.20786 2.8778 0
M  V30 6693 N 635.583 -1.29855 0.893053 0
M  V30 6694 C 636.546 -2.26183 0.370687 0
M  V30 6695 C 637.546 -1.53108 -0.491385 0
M  V30 6696 O 638.736 -1.71643 -0.297386 0
M  V30 6697 C 635.868 -3.37633 -0.470827 0
M  V30 6698 H 637.061 -2.73903 1.22135 0
M  V30 6699 H 634.614 -1.41183 0.67061 0
M  V30 6700 H 635.349 -2.95241 -1.34175 0
M  V30 6701 H 635.134 -3.91825 0.146784 0
M  V30 6702 H 636.624 -4.09313 -0.827825 0
M  V30 6703 N 637.061 -0.65484 -1.43351 0
M  V30 6704 C 638.011 0.0581325 -2.27926 0
M  V30 6705 C 638.995 0.793188 -1.3999 0
M  V30 6706 O 640.187 0.675387 -1.63608 0
M  V30 6707 C 637.316 1.02272 -3.27712 0
M  V30 6708 C 636.402 0.286048 -4.23134 0
M  V30 6709 N 636.793 -0.698298 -5.00957 0
M  V30 6710 C 635.091 0.527272 -4.42872 0
M  V30 6711 C 635.792 -1.1357 -5.70506 0
M  V30 6712 N 634.768 -0.469631 -5.41568 0
M  V30 6713 H 638.57 -0.697182 -2.85511 0
M  V30 6714 H 636.084 -0.482252 -1.55074 0
M  V30 6715 H 638.081 1.5483 -3.87083 0
M  V30 6716 H 636.741 1.77807 -2.71688 0
M  V30 6717 H 637.752 -1.07708 -5.06576 0
M  V30 6718 H 634.429 1.26367 -3.97916 0
M  V30 6719 H 635.819 -1.95027 -6.42973 0
M  V30 6720 N 638.539 1.52521 -0.396863 0
M  V30 6721 C 639.816 1.94112 0.240842 0
M  V30 6722 C 640.196 1.33288 1.637 0
M  V30 6723 O 639.544 0.503901 2.22875 0
M  V30 6724 C 639.754 3.48033 0.259567 0
M  V30 6725 C 641.102 4.21822 0.484866 0
M  V30 6726 O 642.126 3.54579 0.339453 0
M  V30 6727 O 640.985 5.41042 0.770412 0
M  V30 6728 H 638.079 0.812973 0.151671 0
M  V30 6729 H 640.625 1.63572 -0.451918 0
M  V30 6730 H 639.397 3.84655 -0.718078 0
M  V30 6731 H 639.02 3.84899 0.996937 0
M  V30 6732 N 640.017 0.126909 1.57088 0
M  V30 6733 C 640.949 -0.850973 2.12817 0
M  V30 6734 C 641.962 -1.22457 1.07276 0
M  V30 6735 O 643.151 -1.17215 1.34622 0
M  V30 6736 C 640.251 -2.15039 2.61938 0
M  V30 6737 C 639.424 -1.94726 3.91664 0
M  V30 6738 C 638.483 -3.0847 4.26301 0
M  V30 6739 O 637.509 -2.81038 4.94981 0
M  V30 6740 N 638.711 -4.35116 3.84259 0
M  V30 6741 H 641.476 -0.3748 2.97347 0
M  V30 6742 H 639.037 -0.0572793 1.61799 0
M  V30 6743 H 641.029 -2.90141 2.82135 0
M  V30 6744 H 639.599 -2.5398 1.82244 0
M  V30 6745 H 638.819 -1.03772 3.80296 0
M  V30 6746 H 640.107 -1.78469 4.76473 0
M  V30 6747 H 639.505 -4.60276 3.2888 0
M  V30 6748 H 638.062 -5.07064 4.09548 0
M  V30 6749 N 641.495 -1.56914 -0.146875 0
M  V30 6750 C 642.744 -1.82546 -0.857898 0
M  V30 6751 C 643.057 -0.708169 -1.8233 0
M  V30 6752 O 644.263 -0.850093 -2.57848 0
M  V30 6753 C 642.719 -3.23548 -1.57623 0
M  V30 6754 C 642.327 -4.43212 -0.653224 0
M  V30 6755 C 644.071 -3.58453 -2.27402 0
M  V30 6756 C 641.978 -5.75237 -1.37318 0
M  V30 6757 H 640.908 -0.680786 -0.32411 0
M  V30 6758 H 643.559 -1.83166 -0.110639 0
M  V30 6759 H 641.941 -3.17315 -2.36912 0
M  V30 6760 H 643.115 -4.60682 0.104452 0
M  V30 6761 H 641.43 -4.16351 -0.0638336 0
M  V30 6762 H 644.027 -4.54349 -2.81907 0
M  V30 6763 H 644.37 -2.84516 -3.03901 0
M  V30 6764 H 644.903 -3.66347 -1.55032 0
M  V30 6765 H 641.642 -6.52269 -0.650041 0
M  V30 6766 H 641.162 -5.61703 -2.10357 0
M  V30 6767 H 642.841 -6.18039 -1.91406 0
M  V30 6768 N 642.974 0.416227 -1.52004 0
M  V30 6769 C 643.904 1.51365 -1.77795 0
M  V30 6770 C 644.885 1.58059 -0.628601 0
M  V30 6771 O 646.07 1.73447 -0.873478 0
M  V30 6772 C 643.2 2.89256 -1.92219 0
M  V30 6773 C 642.154 2.97415 -3.0778 0
M  V30 6774 C 641.48 4.37492 -3.07417 0
M  V30 6775 C 642.78 2.69551 -4.47369 0
M  V30 6776 H 644.474 1.30033 -2.69688 0
M  V30 6777 H 642.02 0.624112 -1.29772 0
M  V30 6778 H 643.973 3.66008 -2.08845 0
M  V30 6779 H 642.697 3.11866 -0.969917 0
M  V30 6780 H 641.356 2.23107 -2.90893 0
M  V30 6781 H 641.004 4.571 -2.09925 0
M  V30 6782 H 640.704 4.43877 -3.85029 0
M  V30 6783 H 642.228 5.16188 -3.26162 0
M  V30 6784 H 643.642 3.36028 -4.64497 0
M  V30 6785 H 642.039 2.87321 -5.26846 0
M  V30 6786 H 643.109 1.65029 -4.55953 0
M  V30 6787 N 644.452 1.42507 0.673017 0
M  V30 6788 C 645.382 1.48916 1.79851 0
M  V30 6789 C 646.363 0.345566 1.66553 0
M  V30 6790 O 647.548 0.560116 1.85947 0
M  V30 6791 C 644.678 1.39258 3.18158 0
M  V30 6792 C 643.632 2.51662 3.46194 0
M  V30 6793 C 642.958 2.27062 4.84094 0
M  V30 6794 C 644.258 3.93968 3.42909 0
M  V30 6795 H 645.952 2.43114 1.74745 0
M  V30 6796 H 643.498 1.17013 0.839288 0
M  V30 6797 H 645.451 1.42349 3.96629 0
M  V30 6798 H 644.175 0.415542 3.23946 0
M  V30 6799 H 642.834 2.47891 2.70084 0
M  V30 6800 H 642.482 1.27648 4.86534 0
M  V30 6801 H 642.182 3.02398 5.03815 0
M  V30 6802 H 643.706 2.31905 5.64847 0
M  V30 6803 H 645.12 3.99332 4.11347 0
M  V30 6804 H 643.517 4.6917 3.74165 0
M  V30 6805 H 644.587 4.20512 2.41449 0
M  V30 6806 N 645.93 -0.909495 1.28709 0
M  V30 6807 C 646.877 -2.01245 1.13 0
M  V30 6808 C 647.847 -1.6608 0.0259684 0
M  V30 6809 O 649.032 -1.89835 0.191687 0
M  V30 6810 C 646.172 -3.35644 0.802315 0
M  V30 6811 C 645.285 -3.83653 1.98582 0
M  V30 6812 C 644.42 -5.06582 1.59837 0
M  V30 6813 C 643.459 -5.46934 2.74827 0
M  V30 6814 N 642.596 -6.61053 2.36546 0
M  V30 6815 H 647.436 -2.14013 2.0737 0
M  V30 6816 H 644.973 -1.0482 1.03205 0
M  V30 6817 H 646.931 -4.12963 0.593057 0
M  V30 6818 H 645.561 -3.22631 -0.104457 0
M  V30 6819 H 644.613 -3.02454 2.30708 0
M  V30 6820 H 645.925 -4.09515 2.84779 0
M  V30 6821 H 645.079 -5.91457 1.35143 0
M  V30 6822 H 643.818 -4.82537 0.707753 0
M  V30 6823 H 642.823 -4.60599 3.00215 0
M  V30 6824 H 644.048 -5.72965 3.64538 0
M  V30 6825 H 641.994 -6.3863 1.49959 0
M  V30 6826 H 641.911 -6.86662 3.16277 0
M  V30 6827 H 643.179 -7.49221 2.15146 0
M  V30 6828 N 647.408 -1.11026 -1.11852 0
M  V30 6829 C 648.656 -0.854769 -1.83134 0
M  V30 6830 C 648.977 0.621375 -1.84835 0
M  V30 6831 O 648.247 1.45129 -1.31584 0
M  V30 6832 H 646.827 -0.313229 -0.678157 0
M  V30 6833 H 649.489 -1.40178 -1.35411 0
M  V30 6834 H 648.585 -1.22311 -2.87135 0
M  V30 6835 N 648.886 1.2938 -0.899927 0
M  V30 6836 C 650.111 2.00228 -0.540692 0
M  V30 6837 C 650.536 1.66909 0.867359 0
M  V30 6838 O 649.894 0.893824 1.57735 0
M  V30 6839 C 649.942 3.52921 -0.740232 0
M  V30 6840 O 649.046 4.11879 0.207154 0
M  V30 6841 H 648.387 0.629505 -0.211233 0
M  V30 6842 H 650.917 1.6487 -1.21158 0
M  V30 6843 H 650.927 4.0287 -0.644973 0
M  V30 6844 H 649.602 3.76508 -1.76677 0
M  V30 6845 H 648.179 3.72845 0.0643315 0
M  V30 6846 N 650.364 0.662433 1.43002 0
M  V30 6847 C 651.312 -0.035345 2.32573 0
M  V30 6848 C 652.306 -0.803505 1.49131 0
M  V30 6849 O 653.512 -0.712865 1.65282 0
M  V30 6850 H 649.887 -0.0302194 0.751393 0
M  V30 6851 H 651.858 0.737686 2.89138 0
M  V30 6852 C 650.607 -0.981575 3.33557 0
M  V30 6853 H 649.93 -0.399914 3.97795 0
M  V30 6854 H 651.37 -1.43873 3.98844 0
M  V30 6855 C 649.829 -2.08204 2.64863 0
M  V30 6856 O 650.359 -3.16698 2.47113 0
M  V30 6857 N 648.565 -1.85022 2.24088 0
M  V30 6858 H 648.112 -0.967909 2.38724 0
M  V30 6859 H 648.07 -2.58845 1.78457 0
M  V30 6860 N 651.842 -1.52309 0.404946 0
M  V30 6861 C 653.067 -2.06666 -0.1743 0
M  V30 6862 C 653.492 -1.27341 -1.38441 0
M  V30 6863 O 652.85 -0.302539 -1.78758 0
M  V30 6864 C 652.898 -3.57014 -0.507262 0
M  V30 6865 O 652.002 -3.80144 -1.59889 0
M  V30 6866 H 651.343 -0.663807 -0.0160273 0
M  V30 6867 H 653.873 -1.96297 0.576937 0
M  V30 6868 H 653.883 -4.00724 -0.767098 0
M  V30 6869 H 652.558 -4.14184 0.377368 0
M  V30 6870 H 651.135 -3.48316 -1.33155 0
M  V30 6871 N 653.32 -0.135238 -1.57019 0
M  V30 6872 C 654.253 0.846618 -2.11914 0
M  V30 6873 C 655.231 1.25019 -1.03966 0
M  V30 6874 O 656.415 1.34838 -1.31723 0
M  V30 6875 C 653.542 2.1352 -2.6292 0
M  V30 6876 C 652.588 1.87846 -3.82905 0
M  V30 6877 S 653.421 1.08005 -5.24495 0
M  V30 6878 C 654.577 2.38008 -5.78881 0
M  V30 6879 H 654.81 0.379752 -2.94865 0
M  V30 6880 H 652.343 0.0788387 -1.54199 0
M  V30 6881 H 654.301 2.87551 -2.92958 0
M  V30 6882 H 652.962 2.57323 -1.80121 0
M  V30 6883 H 652.155 2.83365 -4.16797 0
M  V30 6884 H 651.757 1.21929 -3.53567 0
M  V30 6885 H 654.049 3.33742 -5.89595 0
M  V30 6886 H 654.992 2.08638 -6.76665 0
M  V30 6887 H 655.4 2.48119 -5.07048 0
M  V30 6888 N 654.798 1.5699 0.138552 0
M  V30 6889 C 655.746 1.99858 1.18994 0
M  V30 6890 C 656.74 0.89231 1.43994 0
M  V30 6891 O 657.946 1.0775 1.44187 0
M  V30 6892 H 654.321 0.636325 0.400743 0
M  V30 6893 H 656.292 2.87427 0.801755 0
M  V30 6894 C 655.041 2.40235 2.51361 0
M  V30 6895 H 654.364 3.24917 2.32957 0
M  V30 6896 H 655.804 2.74045 3.23535 0
M  V30 6897 C 654.263 1.25829 3.1252 0
M  V30 6898 O 654.793 0.563604 3.97727 0
M  V30 6899 N 652.999 1.02036 2.72097 0
M  V30 6900 H 652.546 1.58705 2.02905 0
M  V30 6901 H 652.504 0.256796 3.1335 0
M  V30 6902 N 656.276 -0.40816 1.52223 0
M  V30 6903 C 657.206 -1.5042 1.78595 0
M  V30 6904 C 658.187 -1.57723 0.636974 0
M  V30 6905 O 659.372 -1.72982 0.882664 0
M  V30 6906 C 656.502 -2.88232 1.93751 0
M  V30 6907 C 655.456 -2.95779 3.09352 0
M  V30 6908 C 654.782 -4.35855 3.09732 0
M  V30 6909 C 656.082 -2.67175 4.48793 0
M  V30 6910 H 657.776 -1.28601 2.70374 0
M  V30 6911 H 655.322 -0.617221 1.30101 0
M  V30 6912 H 657.275 -3.64895 2.10783 0
M  V30 6913 H 655.999 -3.11347 0.986443 0
M  V30 6914 H 654.658 -2.21561 2.92072 0
M  V30 6915 H 654.306 -4.55981 2.12346 0
M  V30 6916 H 654.006 -4.41829 3.87377 0
M  V30 6917 H 655.53 -5.14451 3.28895 0
M  V30 6918 H 656.944 -3.3356 4.66273 0
M  V30 6919 H 655.341 -2.84523 5.28362 0
M  V30 6920 H 656.411 -1.62609 4.56822 0
M  V30 6921 N 657.755 -1.42862 -0.66545 0
M  V30 6922 C 658.718 -1.46756 -1.76055 0
M  V30 6923 C 659.718 -0.353866 -1.56858 0
M  V30 6924 O 660.908 -0.615099 -1.62979 0
M  V30 6925 C 658.04 -1.30829 -3.14796 0
M  V30 6926 H 659.233 -2.44271 -1.73987 0
M  V30 6927 H 656.786 -1.29447 -0.875965 0
M  V30 6928 H 657.521 -0.342733 -3.22484 0
M  V30 6929 H 657.306 -2.11551 -3.30134 0
M  V30 6930 H 658.796 -1.36458 -3.94676 0
M  V30 6931 N 659.233 0.902656 -1.29189 0
M  V30 6932 C 660.18 2.00643 -1.14066 0
M  V30 6933 C 661.15 1.66064 -0.0347756 0
M  V30 6934 O 662.335 1.8973 -0.201752 0
M  V30 6935 C 659.475 3.35214 -0.820104 0
M  V30 6936 C 658.588 3.82594 -2.00614 0
M  V30 6937 C 657.723 5.05727 -1.62522 0
M  V30 6938 C 656.762 5.45469 -2.77724 0
M  V30 6939 N 655.899 6.59789 -2.40048 0
M  V30 6940 H 660.739 2.1291 -2.08502 0
M  V30 6941 H 658.276 1.04271 -1.03759 0
M  V30 6942 H 660.234 4.12643 -0.614949 0
M  V30 6943 H 658.864 3.22682 0.0873452 0
M  V30 6944 H 657.916 3.01226 -2.32308 0
M  V30 6945 H 659.228 4.07999 -2.86946 0
M  V30 6946 H 658.382 5.90732 -1.38277 0
M  V30 6947 H 657.121 4.82155 -0.733333 0
M  V30 6948 H 656.126 4.59 -3.02653 0
M  V30 6949 H 657.351 5.71024 -3.67572 0
M  V30 6950 H 655.297 6.37826 -1.53343 0
M  V30 6951 H 655.214 6.84975 -3.19914 0
M  V30 6952 H 656.482 7.4807 -2.19116 0
M  V30 6953 N 660.711 1.11618 1.11262 0
M  V30 6954 C 661.641 0.79846 2.19424 0
M  V30 6955 C 662.622 -0.234003 1.68483 0
M  V30 6956 O 663.807 -0.0970704 1.93957 0
M  V30 6957 C 660.937 0.242892 3.4645 0
M  V30 6958 C 659.891 1.20744 4.10615 0
M  V30 6959 C 659.217 0.512494 5.32238 0
M  V30 6960 C 660.517 2.55884 4.55325 0
M  V30 6961 H 662.211 1.70286 2.46258 0
M  V30 6962 H 659.757 0.820195 1.18359 0
M  V30 6963 H 661.71 0.00840447 4.21399 0
M  V30 6964 H 660.434 -0.696811 3.1908 0
M  V30 6965 H 659.093 1.42759 3.37662 0
M  V30 6966 H 658.741 -0.432075 5.01141 0
M  V30 6967 H 658.441 1.15583 5.7612 0
M  V30 6968 H 659.965 0.286842 6.09926 0
M  V30 6969 H 661.379 2.37946 5.21588 0
M  V30 6970 H 659.776 3.16216 5.10027 0
M  V30 6971 H 660.846 3.14968 3.68678 0
M  V30 6972 N 662.189 -1.289 0.906776 0
M  V30 6973 C 663.435 -1.95558 0.53712 0
M  V30 6974 C 663.768 -1.71262 -0.915582 0
M  V30 6975 O 663.043 -1.02961 -1.65013 0
M  V30 6976 C 663.326 -3.50198 0.838645 0
M  V30 6977 C 663.179 -3.83923 2.34357 0
M  V30 6978 C 664.498 -4.38861 0.329988 0
M  V30 6979 H 661.617 -0.710289 0.196617 0
M  V30 6980 H 664.259 -1.52392 1.13475 0
M  V30 6981 H 662.409 -3.87096 0.330024 0
M  V30 6982 H 664.081 -3.56933 2.92227 0
M  V30 6983 H 662.324 -3.31215 2.80141 0
M  V30 6984 H 662.995 -4.91883 2.5051 0
M  V30 6985 H 665.471 -4.08996 0.765609 0
M  V30 6986 H 664.347 -5.45931 0.570105 0
M  V30 6987 H 664.608 -4.35352 -0.769511 0
M  V30 6988 N 663.667 -0.670007 -1.42649 0
M  V30 6989 C 664.577 0.0114788 -2.34597 0
M  V30 6990 C 665.593 0.794055 -1.54825 0
M  V30 6991 O 666.769 0.737472 -1.87412 0
M  V30 6992 C 663.834 0.954436 -3.33304 0
M  V30 6993 C 662.895 0.166925 -4.28975 0
M  V30 6994 C 662.128 1.06497 -5.22967 0
M  V30 6995 O 662.351 2.30446 -5.21777 0
M  V30 6996 O 661.285 0.528347 -5.99577 0
M  V30 6997 H 665.111 -0.745794 -2.944 0
M  V30 6998 H 662.696 -0.430228 -1.43071 0
M  V30 6999 H 664.578 1.49589 -3.93956 0
M  V30 7000 H 663.253 1.69164 -2.7598 0
M  V30 7001 H 662.16 -0.418515 -3.71752 0
M  V30 7002 H 663.493 -0.531067 -4.89327 0
M  V30 7003 N 665.145 1.52092 -0.413018 0
M  V30 7004 C 666.37 2.06756 0.163338 0
M  V30 7005 C 666.795 1.28073 1.37764 0
M  V30 7006 O 666.153 0.312015 1.78595 0
M  V30 7007 C 666.201 3.57278 0.488322 0
M  V30 7008 O 665.305 3.80986 1.57871 0
M  V30 7009 H 664.646 0.663882 0.0125068 0
M  V30 7010 H 667.176 1.95988 -0.587339 0
M  V30 7011 H 667.186 4.01125 0.745836 0
M  V30 7012 H 665.861 4.13978 -0.399327 0
M  V30 7013 H 664.438 3.49017 1.31306 0
M  V30 7014 N 666.623 0.143563 1.56945 0
M  V30 7015 C 667.553 -0.7936 2.196 0
M  V30 7016 C 668.534 -1.25955 1.14321 0
M  V30 7017 O 669.719 -1.31773 1.42651 0
M  V30 7018 C 666.849 -2.03424 2.81489 0
M  V30 7019 C 665.803 -1.70519 3.92565 0
M  V30 7020 C 665.129 -3.01817 4.41373 0
M  V30 7021 C 666.429 -0.95449 5.13504 0
M  V30 7022 H 668.123 -0.271423 2.98167 0
M  V30 7023 H 665.669 -0.12911 1.4342 0
M  V30 7024 H 667.622 -2.69463 3.23987 0
M  V30 7025 H 666.346 -2.58008 2.00248 0
M  V30 7026 H 665.005 -1.06859 3.5068 0
M  V30 7027 H 664.653 -3.54386 3.56959 0
M  V30 7028 H 664.353 -2.80565 5.16292 0
M  V30 7029 H 665.877 -3.68934 4.86539 0
M  V30 7030 H 667.291 -1.5169 5.52868 0
M  V30 7031 H 665.688 -0.842035 5.94163 0
M  V30 7032 H 666.758 0.0544033 4.84869 0
M  V30 7033 N 668.101 -1.57061 -0.130224 0
M  V30 7034 C 669.011 -2.02802 -1.17934 0
M  V30 7035 C 670.027 -0.946378 -1.46013 0
M  V30 7036 O 671.203 -1.25708 -1.57351 0
M  V30 7037 C 668.268 -2.41368 -2.48882 0
M  V30 7038 C 667.329 -3.63561 -2.28301 0
M  V30 7039 C 666.562 -4.00279 -3.53005 0
M  V30 7040 O 666.785 -3.37463 -4.59864 0
M  V30 7041 O 665.719 -4.93441 -3.44673 0
M  V30 7042 H 669.545 -2.92394 -0.820958 0
M  V30 7043 H 667.13 -1.45475 -0.340197 0
M  V30 7044 H 669.012 -2.66958 -3.26054 0
M  V30 7045 H 667.687 -1.54926 -2.84217 0
M  V30 7046 H 666.594 -3.43136 -1.49025 0
M  V30 7047 H 667.927 -4.50673 -1.97875 0
M  V30 7048 N 669.579 0.400081 -1.52437 0
M  V30 7049 C 670.527 1.50851 -1.7705 0
M  V30 7050 C 671.521 1.56928 -0.637969 0
M  V30 7051 O 672.727 1.60226 -0.820212 0
M  V30 7052 H 669.102 0.50186 -0.560036 0
M  V30 7053 H 671.073 1.27281 -2.69893 0
M  V30 7054 C 669.822 2.88117 -1.94638 0
M  V30 7055 H 669.145 2.84187 -2.81208 0
M  V30 7056 H 670.585 3.64942 -2.15855 0
M  V30 7057 C 669.044 3.29206 -0.715899 0
M  V30 7058 O 669.574 4.01544 0.111944 0
M  V30 7059 N 667.78 2.85363 -0.549191 0
M  V30 7060 H 667.327 2.26664 -1.22397 0
M  V30 7061 H 667.285 3.13214 0.27278 0
M  V30 7062 N 671.057 1.43213 0.657864 0
M  V30 7063 C 671.967 1.50448 1.80007 0
M  V30 7064 C 672.983 0.39191 1.69529 0
M  V30 7065 O 674.159 0.645349 1.90781 0
M  V30 7066 C 671.224 1.42062 3.16258 0
M  V30 7067 C 670.285 2.63951 3.38568 0
M  V30 7068 C 669.518 2.55956 4.68318 0
M  V30 7069 O 669.741 1.60473 5.47361 0
M  V30 7070 O 668.675 3.46378 4.92245 0
M  V30 7071 H 672.501 2.4689 1.76858 0
M  V30 7072 H 670.086 1.25163 0.81576 0
M  V30 7073 H 671.968 1.3981 3.97531 0
M  V30 7074 H 670.643 0.487524 3.20008 0
M  V30 7075 H 669.55 2.71776 2.57077 0
M  V30 7076 H 670.883 3.56217 3.39662 0
M  V30 7077 N 672.536 -0.895792 1.29666 0
M  V30 7078 C 673.813 -1.62723 1.08538 0
M  V30 7079 C 674.193 -2.07848 -0.369119 0
M  V30 7080 O 673.541 -1.8372 -1.35864 0
M  V30 7081 C 673.751 -2.80505 2.07648 0
M  V30 7082 C 675.099 -3.51098 2.3878 0
M  V30 7083 O 676.123 -2.90679 2.05874 0
M  V30 7084 O 674.982 -4.60028 2.9502 0
M  V30 7085 H 672.076 -0.714692 0.416106 0
M  V30 7086 H 674.622 -0.943517 1.41053 0
M  V30 7087 H 673.394 -2.44386 3.05599 0
M  V30 7088 H 673.017 -3.5658 1.75887 0
M  V30 7089 N 674.014 -1.12206 -1.10668 0
M  V30 7090 C 674.961 -0.787716 -2.16942 0
M  V30 7091 C 675.931 0.244442 -1.64291 0
M  V30 7092 O 677.116 0.119558 -1.90425 0
M  V30 7093 C 674.256 -0.24584 -3.44223 0
M  V30 7094 C 673.369 -1.33552 -4.10838 0
M  V30 7095 C 672.504 -0.753337 -5.25831 0
M  V30 7096 C 671.543 -1.82231 -5.84344 0
M  V30 7097 N 670.68 -1.25902 -6.90719 0
M  V30 7098 H 675.52 -1.69809 -2.44885 0
M  V30 7099 H 673.057 -0.847862 -1.20207 0
M  V30 7100 H 675.015 0.0863639 -4.17111 0
M  V30 7101 H 673.645 0.627702 -3.16638 0
M  V30 7102 H 672.697 -1.78454 -3.35944 0
M  V30 7103 H 674.009 -2.14396 -4.50373 0
M  V30 7104 H 673.163 -0.37166 -6.05561 0
M  V30 7105 H 671.902 0.0863297 -4.87624 0
M  V30 7106 H 670.907 -2.2132 -5.03287 0
M  V30 7107 H 672.132 -2.66515 -6.24617 0
M  V30 7108 H 670.078 -0.44114 -6.54515 0
M  V30 7109 H 669.995 -2.00408 -7.28953 0
M  V30 7110 H 671.263 -0.904498 -7.74235 0
M  V30 7111 O 675.531 1.23095 -1.04546 0
M  V30 7112 H 676.222 1.79876 -0.718642 0
M  V30 END ATOM
M  V30 BEGIN BOND
M  V30 END BOND
M  V30 END CTAB
M  END
$$$$
