drugbank_target|P13376 Glucose-6-phosphate isomerase B (DB02257; DB03042)
 OpenBabel12092119543D

  0  0  0     0  0            999 V3000
M  V30 BEGIN CTAB
M  V30 COUNTS 7019 7097 0 0 0
M  V30 BEGIN ATOM
M  V30 1 H -0.908 1.98254 -0.117106 0
M  V30 2 N 0 1.576 0 0
M  V30 3 C 0.933 2.03868 1.02534 0
M  V30 4 C 1.911 0.928543 1.3348 0
M  V30 5 O 3.095 1.19667 1.45644 0
M  V30 6 C 0.222 2.43627 2.35294 0
M  V30 7 C -0.732 3.65373 2.2001 0
M  V30 8 S 0.101 5.13292 1.52614 0
M  V30 9 C 1.257 5.56322 2.86805 0
M  V30 10 H 1.49 2.90518 0.631377 0
M  V30 11 H -0.977 1.52953 0.210867 0
M  V30 12 H 0.981 2.67203 3.11629 0
M  V30 13 H -0.358 1.57376 2.7183 0
M  V30 14 H -1.165 3.90944 3.18086 0
M  V30 15 H -1.563 3.418 1.51819 0
M  V30 16 H 0.729 5.58782 3.83104 0
M  V30 17 H 1.672 6.56266 2.65933 0
M  V30 18 H 2.08 4.83886 2.90714 0
M  V30 19 N 1.4781 -0.272755 1.55222 0
M  V30 20 C 2.4411 -1.32041 1.87344 0
M  V30 21 C 3.4411 -1.42342 0.74803 0
M  V30 22 O 4.6311 -1.41488 1.0162 0
M  V30 23 C 1.7631 -2.70173 2.07893 0
M  V30 24 H 2.9561 -1.04789 2.80997 0
M  V30 25 H 0.5091 -0.51083 1.47717 0
M  V30 26 H 1.2441 -3.02605 1.16622 0
M  V30 27 H 1.0291 -2.64082 2.89833 0
M  V30 28 H 2.5191 -3.45869 2.34017 0
M  V30 29 N 2.9562 -1.48159 -0.537278 0
M  V30 30 C 4.2052 -1.5506 -1.28993 0
M  V30 31 C 4.5182 -0.226211 -1.94288 0
M  V30 32 O 5.7242 -0.173395 -2.70946 0
M  V30 33 C 4.1802 -2.73429 -2.34018 0
M  V30 34 C 3.7882 -4.1248 -1.74825 0
M  V30 35 C 5.5322 -2.89638 -3.10339 0
M  V30 36 C 3.4392 -5.22121 -2.77747 0
M  V30 37 H 2.3692 -0.577231 -0.485098 0
M  V30 38 H 5.0202 -1.74478 -0.568317 0
M  V30 39 H 3.4022 -2.47431 -3.09182 0
M  V30 40 H 4.5762 -4.48466 -1.05899 0
M  V30 41 H 2.8912 -4.01327 -1.11022 0
M  V30 42 H 5.4882 -3.68718 -3.87235 0
M  V30 43 H 5.8312 -1.9882 -3.65754 0
M  V30 44 H 6.3642 -3.15502 -2.42288 0
M  V30 45 H 3.1032 -6.1488 -2.27161 0
M  V30 46 H 2.6232 -4.90631 -3.45024 0
M  V30 47 H 4.3022 -5.49924 -3.4087 0
M  V30 48 N 4.4343 0.785586 -1.36625 0
M  V30 49 C 5.6593 1.57963 -1.34397 0
M  V30 50 C 6.0843 1.87964 0.071526 0
M  V30 51 O 5.4423 1.48182 1.0446 0
M  V30 52 C 5.4903 2.87511 -2.17646 0
M  V30 53 O 4.5943 3.81281 -1.57158 0
M  V30 54 H 3.9353 0.479014 -0.459828 0
M  V30 55 H 6.4653 0.973411 -1.79961 0
M  V30 56 H 6.4753 3.36745 -2.30362 0
M  V30 57 H 5.1503 2.65002 -3.20541 0
M  V30 58 H 3.7273 3.39885 -1.53403 0
M  V30 59 N 5.9124 1.20967 1.01018 0
M  V30 60 C 7.1594 1.02374 1.74716 0
M  V30 61 C 7.4874 -0.443375 1.89379 0
M  V30 62 O 6.7424 -1.34535 1.42123 0
M  V30 63 C 7.0414 1.65997 3.16512 0
M  V30 64 C 6.7074 3.15831 3.2181 0
M  V30 65 C 5.3694 3.56719 3.22963 0
M  V30 66 C 7.7214 4.11816 3.19464 0
M  V30 67 C 5.0494 4.92107 3.19449 0
M  V30 68 C 7.4014 5.47158 3.17491 0
M  V30 69 C 6.0654 5.87451 3.16951 0
M  V30 70 H 5.3354 0.374614 0.639332 0
M  V30 71 H 7.9824 1.50485 1.18434 0
M  V30 72 H 6.2874 1.10166 3.75993 0
M  V30 73 H 7.9844 1.49119 3.72242 0
M  V30 74 H 4.5744 2.83263 3.21652 0
M  V30 75 H 8.7584 3.81257 3.17737 0
M  V30 76 H 4.0144 5.22579 3.17366 0
M  V30 77 H 8.1884 6.21274 3.14629 0
M  V30 78 H 5.8154 6.92329 3.13983 0
M  V30 79 N 7.3905 -1.2043 1.01659 0
M  V30 80 C 8.6675 -1.8548 0.621004 0
M  V30 81 C 9.0475 -1.9091 -0.900919 0
M  V30 82 O 8.3955 -1.41694 -1.79263 0
M  V30 83 C 8.6055 -3.25119 1.2688 0
M  V30 84 C 9.9535 -4.01403 1.38423 0
M  V30 85 O 10.9775 -3.34473 1.22501 0
M  V30 86 O 9.8365 -5.21265 1.64151 0
M  V30 87 H 6.9305 -0.798761 0.214266 0
M  V30 88 H 9.4765 -1.28019 1.11396 0
M  V30 89 H 8.2485 -3.15932 2.30873 0
M  V30 90 H 7.8715 -3.90212 0.762917 0
M  V30 91 N 8.8686 -0.792821 -1.36206 0
M  V30 92 C 10.0986 -0.378275 -2.03107 0
M  V30 93 C 10.5066 1.01119 -1.59911 0
M  V30 94 O 9.8496 1.66052 -0.785658 0
M  V30 95 C 9.9116 -0.366535 -3.57627 0
M  V30 96 C 9.5756 -1.70416 -4.24037 0
M  V30 97 C 10.5726 -2.6602 -4.46687 0
M  V30 98 C 8.2576 -1.98439 -4.6144 0
M  V30 99 C 10.2516 -3.8784 -5.05825 0
M  V30 100 C 7.9386 -3.20525 -5.20295 0
M  V30 101 C 8.9366 -4.15044 -5.42427 0
M  V30 102 O 8.6246 -5.34978 -6.00045 0
M  V30 103 H 8.3566 -0.153543 -0.658332 0
M  V30 104 H 10.9106 -1.07383 -1.75094 0
M  V30 105 H 9.1406 0.385539 -3.84773 0
M  V30 106 H 10.8296 0.0238088 -4.05893 0
M  V30 107 H 11.5956 -2.45658 -4.18183 0
M  V30 108 H 7.4746 -1.25686 -4.43536 0
M  V30 109 H 11.0186 -4.61628 -5.23015 0
M  V30 110 H 6.9156 -3.40764 -5.48225 0
M  V30 111 H 7.6836 -5.36088 -6.18508 0
M  V30 112 N 10.3467 1.47872 -0.545128 0
M  V30 113 C 11.5717 2.07391 -0.0190611 0
M  V30 114 C 11.9967 1.39688 1.25971 0
M  V30 115 O 11.3547 0.467816 1.7516 0
M  V30 116 C 11.4027 3.60188 0.172335 0
M  V30 117 O 10.5067 3.9339 1.23766 0
M  V30 118 H 9.8477 0.662411 -0.0459059 0
M  V30 119 H 12.3777 1.90066 -0.757365 0
M  V30 120 H 12.3877 4.06129 0.390305 0
M  V30 121 H 11.0627 4.08865 -0.761725 0
M  V30 122 H 9.6397 3.5921 1.00114 0
M  V30 123 N 11.8248 0.280983 1.55075 0
M  V30 124 C 12.7728 -0.619864 2.24188 0
M  V30 125 C 13.7668 -1.15315 1.24092 0
M  V30 126 O 14.9728 -1.1061 1.42005 0
M  V30 127 H 11.3478 -0.218459 0.719569 0
M  V30 128 H 13.3188 -0.0141831 2.98397 0
M  V30 129 C 12.0678 -1.7899 2.98091 0
M  V30 130 H 11.3908 -1.38874 3.74905 0
M  V30 131 H 12.8308 -2.39672 3.49762 0
M  V30 132 C 11.2898 -2.68192 2.03899 0
M  V30 133 O 11.8198 -3.6872 1.594 0
M  V30 134 N 10.0258 -2.35488 1.70275 0
M  V30 135 H 9.5728 -1.53787 2.06658 0
M  V30 136 H 9.5308 -2.95442 1.07524 0
M  V30 137 N 13.3029 -1.57598 0.00835791 0
M  V30 138 C 14.2659 -2.07884 -0.965242 0
M  V30 139 C 15.2659 -0.989825 -1.26725 0
M  V30 140 O 16.4559 -1.25218 -1.21104 0
M  V30 141 C 13.5879 -2.52731 -2.28779 0
M  V30 142 H 14.7809 -2.95178 -0.530112 0
M  V30 143 H 12.3339 -1.54458 -0.239283 0
M  V30 144 H 13.0689 -1.68705 -2.76964 0
M  V30 145 H 12.8539 -3.32272 -2.08177 0
M  V30 146 H 14.3439 -2.91933 -2.98605 0
M  V30 147 N 14.781 0.264519 -1.55364 0
M  V30 148 C 15.711 1.33121 -1.91836 0
M  V30 149 C 16.692 1.51101 -0.781192 0
M  V30 150 O 17.877 1.64003 -1.04003 0
M  V30 151 C 15.007 2.68921 -2.19769 0
M  V30 152 C 13.961 2.65661 -3.35571 0
M  V30 153 C 13.287 4.05093 -3.49004 0
M  V30 154 C 14.587 2.24187 -4.71739 0
M  V30 155 H 16.281 1.02844 -2.81182 0
M  V30 156 H 13.827 0.493286 -1.35287 0
M  V30 157 H 15.78 3.43663 -2.43872 0
M  V30 158 H 14.504 3.00799 -1.27231 0
M  V30 159 H 13.163 1.93377 -3.1145 0
M  V30 160 H 12.811 4.34206 -2.53917 0
M  V30 161 H 12.511 4.03804 -4.26868 0
M  V30 162 H 14.035 4.81561 -3.75408 0
M  V30 163 H 15.449 2.88654 -4.9533 0
M  V30 164 H 13.846 2.34044 -5.52579 0
M  V30 165 H 14.916 1.19327 -4.69988 0
M  V30 166 N 16.2591 1.48442 0.529413 0
M  V30 167 C 17.6701 1.5002 1.11134 0
M  V30 168 C 18.0211 0.27031 1.94329 0
M  V30 169 O 17.1461 -0.622507 2.07253 0
M  V30 170 C 17.7411 2.71834 2.02217 0
M  V30 171 C 16.3001 2.76283 2.55627 0
M  V30 172 C 15.4471 2.43542 1.326 0
M  V30 173 H 18.3981 1.5555 0.314641 0
M  V30 174 H 18.4191 2.50384 2.8651 0
M  V30 175 H 17.9311 3.61331 1.41639 0
M  V30 176 H 16.0321 1.90995 3.19924 0
M  V30 177 H 16.1451 3.77725 2.94721 0
M  V30 178 H 14.5091 1.94709 1.64196 0
M  V30 179 H 15.2921 3.3528 0.737734 0
M  V30 180 N 17.7372 -0.778329 1.37039 0
M  V30 181 C 18.9842 -1.53665 1.31884 0
M  V30 182 C 19.3122 -1.9425 -0.0986303 0
M  V30 183 O 18.5672 -1.63832 -1.07041 0
M  V30 184 C 18.8662 -2.81845 2.19768 0
M  V30 185 C 18.5322 -2.60345 3.68146 0
M  V30 186 C 17.1942 -2.5419 4.08584 0
M  V30 187 C 19.5462 -2.40923 4.62175 0
M  V30 188 C 16.8742 -2.26594 5.41177 0
M  V30 189 C 19.2262 -2.14852 5.94997 0
M  V30 190 C 17.8902 -2.07137 6.34547 0
M  V30 191 H 17.1602 -0.562299 0.482598 0
M  V30 192 H 19.8072 -0.897069 1.69189 0
M  V30 193 H 18.1122 -3.50328 1.75436 0
M  V30 194 H 19.8092 -3.39692 2.13097 0
M  V30 195 H 16.3992 -2.65996 3.36072 0
M  V30 196 H 20.5832 -2.44673 4.31797 0
M  V30 197 H 15.8392 -2.19111 5.70789 0
M  V30 198 H 20.0132 -1.98822 6.67415 0
M  V30 199 H 17.6402 -1.85518 7.37216 0
M  V30 200 N 19.2153 -1.21501 -1.00376 0
M  V30 201 C 20.1483 -0.918669 -2.08892 0
M  V30 202 C 21.1263 0.134277 -1.62045 0
M  V30 203 O 22.3103 0.00504255 -1.88499 0
M  V30 204 C 19.4373 -0.379645 -3.36566 0
M  V30 205 C 18.4833 -1.41559 -4.02323 0
M  V30 206 S 19.3163 -2.98521 -4.44574 0
M  V30 207 C 20.4723 -2.46228 -5.75433 0
M  V30 208 H 20.7053 -1.83761 -2.33707 0
M  V30 209 H 18.2383 -1.04489 -1.13673 0
M  V30 210 H 20.1963 -0.0752195 -4.10431 0
M  V30 211 H 18.8573 0.518008 -3.09799 0
M  V30 212 H 18.0503 -0.988076 -4.9422 0
M  V30 213 H 17.6523 -1.66815 -3.34737 0
M  V30 214 H 19.9443 -1.86791 -6.51241 0
M  V30 215 H 20.8873 -3.36572 -6.22997 0
M  V30 216 H 21.2953 -1.87894 -5.32312 0
M  V30 217 N 20.6934 1.19889 -1.02296 0
M  V30 218 C 21.6254 2.22334 -0.556787 0
M  V30 219 C 22.6384 1.58674 0.364199 0
M  V30 220 O 23.8274 1.77768 0.161533 0
M  V30 221 C 20.9274 3.38257 0.208694 0
M  V30 222 C 20.1004 4.31504 -0.71577 0
M  V30 223 C 19.1594 5.262 0.00325597 0
M  V30 224 O 18.1854 5.65798 -0.621357 0
M  V30 225 N 19.3874 5.66303 1.27599 0
M  V30 226 H 22.1524 2.62957 -1.43784 0
M  V30 227 H 19.7134 1.34495 -0.901261 0
M  V30 228 H 21.7054 3.98616 0.699111 0
M  V30 229 H 20.2754 2.96472 0.991102 0
M  V30 230 H 19.4954 3.69016 -1.38638 0
M  V30 231 H 20.7834 4.9072 -1.34428 0
M  V30 232 H 20.1814 5.36155 1.80429 0
M  V30 233 H 18.7384 6.28942 1.71102 0
M  V30 234 N 22.1715 0.800033 1.35784 0
M  V30 235 C 23.0815 0.207204 2.33683 0
M  V30 236 C 24.0975 -0.64631 1.61551 0
M  V30 237 O 25.2735 -0.559604 1.93469 0
M  V30 238 C 22.3385 -0.639659 3.40748 0
M  V30 239 C 21.3995 0.233585 4.28664 0
M  V30 240 C 20.6325 -0.572954 5.30616 0
M  V30 241 O 20.8555 -1.80816 5.40982 0
M  V30 242 O 19.7895 0.0327285 6.01891 0
M  V30 243 H 23.6155 1.01692 2.86169 0
M  V30 244 H 21.2005 0.561691 1.38439 0
M  V30 245 H 23.0825 -1.12223 4.06182 0
M  V30 246 H 21.7575 -1.42708 2.90544 0
M  V30 247 H 20.6645 0.763147 3.66233 0
M  V30 248 H 21.9975 0.984784 4.82248 0
M  V30 249 N 23.6496 -1.47581 0.552962 0
M  V30 250 C 24.5976 -2.31648 -0.21023 0
M  V30 251 C 25.5916 -1.42663 -0.913432 0
M  V30 252 O 26.7976 -1.5945 -0.835201 0
M  V30 253 H 23.1726 -0.746989 -0.0866676 0
M  V30 254 H 25.1436 -2.93869 0.518051 0
M  V30 255 C 23.8926 -3.25226 -1.22976 0
M  V30 256 H 23.2156 -3.93658 -0.698077 0
M  V30 257 H 24.6556 -3.86889 -1.73473 0
M  V30 258 C 23.1146 -2.48448 -2.27542 0
M  V30 259 O 23.6446 -2.22585 -3.34393 0
M  V30 260 N 21.8506 -2.09532 -2.01357 0
M  V30 261 H 21.3976 -2.30765 -1.14478 0
M  V30 262 H 21.3556 -1.58476 -2.71538 0
M  V30 263 N 25.1277 -0.289203 -1.54924 0
M  V30 264 C 26.0377 0.601863 -2.26748 0
M  V30 265 C 27.0537 1.15834 -1.2984 0
M  V30 266 O 28.2297 1.18564 -1.62802 0
M  V30 267 C 25.2947 1.76299 -2.98529 0
M  V30 268 C 24.3557 1.24178 -4.10948 0
M  V30 269 C 23.5887 2.34757 -4.79296 0
M  V30 270 O 23.8117 3.54411 -4.46933 0
M  V30 271 O 22.7457 2.02115 -5.66951 0
M  V30 272 H 26.5717 0.0195879 -3.03694 0
M  V30 273 H 24.1567 -0.0560868 -1.49295 0
M  V30 274 H 26.0387 2.43973 -3.43592 0
M  V30 275 H 24.7137 2.33209 -2.24488 0
M  V30 276 H 23.6207 0.531104 -3.70311 0
M  V30 277 H 24.9537 0.718252 -4.86931 0
M  V30 278 N 26.6058 1.57591 -0.0167156 0
M  V30 279 C 27.5358 2.12496 0.967858 0
M  V30 280 C 28.5168 1.03807 1.34752 0
M  V30 281 O 29.7018 1.31577 1.42833 0
M  V30 282 C 26.8318 2.64194 2.25431 0
M  V30 283 C 25.7858 3.77559 2.01576 0
M  V30 284 C 25.1118 4.15636 3.36379 0
M  V30 285 C 26.4118 5.04151 1.36489 0
M  V30 286 H 28.1058 2.95013 0.510643 0
M  V30 287 H 25.6518 1.41915 0.244181 0
M  V30 288 H 27.6048 3.01236 2.94678 0
M  V30 289 H 26.3288 1.78821 2.73296 0
M  V30 290 H 24.9878 3.40937 1.34751 0
M  V30 291 H 24.6358 3.27263 3.81979 0
M  V30 292 H 24.3358 4.92022 3.21229 0
M  V30 293 H 25.8598 4.5525 4.06915 0
M  V30 294 H 27.2738 5.38857 1.95718 0
M  V30 295 H 25.6708 5.85453 1.31776 0
M  V30 296 H 26.7408 4.83733 0.336219 0
M  V30 297 N 28.0839 -0.256276 1.55502 0
M  V30 298 C 29.3609 -1.00789 1.67633 0
M  V30 299 C 29.7409 -2.03706 0.553826 0
M  V30 300 O 29.0889 -2.24145 -0.443969 0
M  V30 301 C 29.2989 -1.64968 3.07549 0
M  V30 302 C 30.6469 -2.15505 3.65845 0
M  V30 303 O 31.6709 -1.74925 3.1029 0
M  V30 304 O 30.5299 -2.89986 4.63217 0
M  V30 305 H 27.6239 -0.468553 0.681459 0
M  V30 306 H 30.1699 -0.250806 1.67836 0
M  V30 307 H 28.9419 -0.904785 3.80696 0
M  V30 308 H 28.5649 -2.47321 3.11317 0
M  V30 309 N 29.562 -1.4872 -0.521534 0
M  V30 310 C 30.792 -1.6061 -1.29954 0
M  V30 311 C 31.2 -0.268728 -1.87282 0
M  V30 312 O 30.543 0.753221 -1.67548 0
M  V30 313 C 30.605 -2.60013 -2.48261 0
M  V30 314 C 30.269 -4.04874 -2.11957 0
M  V30 315 C 31.266 -4.92304 -1.67132 0
M  V30 316 C 28.951 -4.5047 -2.22221 0
M  V30 317 C 30.945 -6.2336 -1.33047 0
M  V30 318 C 28.632 -5.81544 -1.87748 0
M  V30 319 C 29.63 -6.67812 -1.43234 0
M  V30 320 O 29.318 -7.96446 -1.09217 0
M  V30 321 H 29.05 -0.544116 -0.401141 0
M  V30 322 H 31.604 -1.95339 -0.634958 0
M  V30 323 H 29.834 -2.20422 -3.17728 0
M  V30 324 H 31.523 -2.61648 -3.10315 0
M  V30 325 H 32.289 -4.58312 -1.58665 0
M  V30 326 H 28.168 -3.83504 -2.55823 0
M  V30 327 H 31.712 -6.90649 -0.982299 0
M  V30 328 H 27.609 -6.15069 -1.95858 0
M  V30 329 H 28.377 -8.09275 -1.22542 0
M  V30 330 N 31.0401 0.771051 -1.3745 0
M  V30 331 C 31.9701 1.89827 -1.3597 0
M  V30 332 C 32.9511 1.68562 -0.228216 0
M  V30 333 O 34.1361 1.8941 -0.428675 0
M  V30 334 C 31.2661 3.2712 -1.16662 0
M  V30 335 C 30.2201 3.6295 -2.2683 0
M  V30 336 C 29.5461 4.98791 -1.92644 0
M  V30 337 C 30.8461 3.69627 -3.69017 0
M  V30 338 H 32.5401 1.91323 -2.30295 0
M  V30 339 H 30.0861 0.919082 -1.10855 0
M  V30 340 H 32.0391 4.05615 -1.14256 0
M  V30 341 H 30.7631 3.26059 -0.187926 0
M  V30 342 H 29.4221 2.86763 -2.28392 0
M  V30 343 H 29.0701 4.94271 -0.933021 0
M  V30 344 H 28.7701 5.23733 -2.66416 0
M  V30 345 H 30.2941 5.79685 -1.91826 0
M  V30 346 H 31.7081 4.38273 -3.69581 0
M  V30 347 H 30.1051 4.06067 -4.41848 0
M  V30 348 H 31.1751 2.70273 -4.02592 0
M  V30 349 N 32.5182 1.22032 0.997298 0
M  V30 350 C 33.7432 1.06921 1.77715 0
M  V30 351 C 34.1682 -0.376226 1.84299 0
M  V30 352 O 33.5262 -1.27165 1.29223 0
M  V30 353 C 33.5742 1.67996 3.19076 0
M  V30 354 O 32.6782 0.930653 4.01762 0
M  V30 355 H 32.0192 0.375814 0.547412 0
M  V30 356 H 34.5492 1.61737 1.25309 0
M  V30 357 H 34.5592 1.72538 3.69723 0
M  V30 358 H 33.2342 2.73182 3.13599 0
M  V30 359 H 31.8112 0.960917 3.60307 0
M  V30 360 N 33.9963 -1.19345 1.0293 0
M  V30 361 C 34.9063 -2.26245 0.620515 0
M  V30 362 C 35.9223 -1.70486 -0.347928 0
M  V30 363 O 37.0983 -2.00347 -0.205704 0
M  V30 364 C 34.1633 -3.46693 -0.0218957 0
M  V30 365 C 33.2243 -4.17632 0.994102 0
M  V30 366 C 32.4573 -5.32329 0.382253 0
M  V30 367 O 32.6803 -5.64552 -0.814676 0
M  V30 368 O 31.6143 -5.91664 1.10531 0
M  V30 369 H 35.4403 -2.63453 1.51083 0
M  V30 370 H 33.0253 -1.26207 0.799513 0
M  V30 371 H 34.9073 -4.19683 -0.380072 0
M  V30 372 H 33.5823 -3.11333 -0.886209 0
M  V30 373 H 32.4893 -3.4676 1.40387 0
M  V30 374 H 33.8223 -4.56964 1.8288 0
M  V30 375 N 35.4744 -0.807222 -1.35358 0
M  V30 376 C 36.7214 -0.387888 -1.9875 0
M  V30 377 C 37.0494 1.04509 -1.64037 0
M  V30 378 O 36.3044 1.73986 -0.895946 0
M  V30 379 C 36.6034 -0.519036 -3.53611 0
M  V30 380 C 36.2694 -1.91542 -4.08194 0
M  V30 381 C 34.9314 -2.29745 -4.22813 0
M  V30 382 C 37.2834 -2.82896 -4.37744 0
M  V30 383 C 34.6114 -3.58668 -4.643 0
M  V30 384 C 36.9634 -4.11265 -4.8067 0
M  V30 385 C 35.6274 -4.49466 -4.93494 0
M  V30 386 H 34.8974 -0.141938 -0.727279 0
M  V30 387 H 37.5444 -1.02814 -1.6156 0
M  V30 388 H 35.8494 0.204658 -3.91265 0
M  V30 389 H 37.5464 -0.175345 -4.00616 0
M  V30 390 H 34.1364 -1.60862 -3.97268 0
M  V30 391 H 38.3204 -2.54629 -4.26002 0
M  V30 392 H 33.5764 -3.88113 -4.72418 0
M  V30 393 H 37.7504 -4.82153 -5.02496 0
M  V30 394 H 35.3774 -5.49418 -5.25399 0
M  V30 395 N 36.9525 1.47285 -0.560781 0
M  V30 396 C 38.1985 2.02764 -0.0381184 0
M  V30 397 C 38.5315 1.43384 1.30976 0
M  V30 398 O 37.8065 0.590733 1.85312 0
M  V30 399 C 38.0895 3.60064 0.0511427 0
M  V30 400 C 37.9425 4.2987 -1.32408 0
M  V30 401 C 39.2615 4.33439 0.762795 0
M  V30 402 H 36.3805 0.736841 -0.0153264 0
M  V30 403 H 39.0225 1.75675 -0.723759 0
M  V30 404 H 37.1725 3.83274 0.635065 0
M  V30 405 H 38.8445 4.17989 -1.95148 0
M  V30 406 H 37.0875 3.90085 -1.8978 0
M  V30 407 H 37.7585 5.38478 -1.21431 0
M  V30 408 H 40.2345 4.15243 0.266965 0
M  V30 409 H 39.1105 5.43124 0.794221 0
M  V30 410 H 39.3715 4.02915 1.81966 0
M  V30 411 N 38.4306 0.297415 1.54768 0
M  V30 412 C 39.3776 -0.580276 2.23386 0
M  V30 413 C 40.3476 -1.13238 1.21517 0
M  V30 414 O 41.5326 -1.17757 1.50126 0
M  V30 415 C 38.6726 -1.74801 2.97555 0
M  V30 416 C 37.7856 -1.22764 4.1419 0
M  V30 417 C 36.9206 -2.35895 4.75949 0
M  V30 418 C 35.9596 -1.80974 5.84735 0
M  V30 419 N 35.0966 -2.87664 6.40464 0
M  V30 420 H 39.9366 0.0114833 2.97998 0
M  V30 421 H 37.4736 0.0174361 1.4709 0
M  V30 422 H 39.4316 -2.43475 3.38786 0
M  V30 423 H 38.0616 -2.31145 2.25326 0
M  V30 424 H 37.1136 -0.433271 3.77924 0
M  V30 425 H 38.4256 -0.785551 4.92575 0
M  V30 426 H 37.5796 -3.12523 5.20014 0
M  V30 427 H 36.3186 -2.83429 3.96887 0
M  V30 428 H 35.3236 -1.02834 5.40097 0
M  V30 429 H 36.5486 -1.34348 6.65678 0
M  V30 430 H 34.4946 -3.34538 5.64287 0
M  V30 431 H 34.4116 -2.4794 7.14186 0
M  V30 432 H 35.6796 -3.642 6.89187 0
M  V30 433 N 39.9087 -1.5758 0.0250728 0
M  V30 434 C 40.8717 -2.08896 -0.943139 0
M  V30 435 C 41.8717 -1.00321 -1.25668 0
M  V30 436 O 43.0617 -1.26495 -1.19769 0
M  V30 437 C 40.1937 -2.55143 -2.26086 0
M  V30 438 H 41.3867 -2.95723 -0.498775 0
M  V30 439 H 38.9397 -1.54703 -0.222888 0
M  V30 440 H 39.6747 -1.71633 -2.75159 0
M  V30 441 H 39.4597 -3.34461 -2.04641 0
M  V30 442 H 40.9497 -2.95083 -2.95492 0
M  V30 443 N 41.3868 0.248026 -1.55636 0
M  V30 444 C 42.3498 1.29044 -1.89421 0
M  V30 445 C 43.3498 1.41134 -0.770581 0
M  V30 446 O 44.5398 1.39854 -1.03858 0
M  V30 447 C 41.6718 2.66831 -2.12165 0
M  V30 448 H 42.8648 1.00305 -2.82629 0
M  V30 449 H 40.4178 0.487265 -1.48511 0
M  V30 450 H 41.1528 3.00711 -1.21422 0
M  V30 451 H 40.9378 2.59438 -2.93997 0
M  V30 452 H 42.4278 3.42103 -2.3949 0
M  V30 453 N 42.8649 1.48995 0.513639 0
M  V30 454 C 43.8149 1.61127 1.61314 0
M  V30 455 C 44.7989 0.467521 1.53958 0
M  V30 456 O 45.9909 0.719826 1.61702 0
M  V30 457 C 43.1199 1.66937 2.99978 0
M  V30 458 C 42.2059 2.86847 3.12377 0
M  V30 459 N 42.5969 4.11078 2.94701 0
M  V30 460 C 40.8949 2.84521 3.43459 0
M  V30 461 C 41.5959 4.91615 3.10949 0
M  V30 462 N 40.5719 4.24739 3.3926 0
M  V30 463 H 44.3739 2.54909 1.46282 0
M  V30 464 H 41.8879 1.45593 0.719483 0
M  V30 465 H 43.8849 1.73725 3.78979 0
M  V30 466 H 42.5449 0.742831 3.16089 0
M  V30 467 H 43.5559 4.41258 2.71131 0
M  V30 468 H 40.2329 2.01192 3.65825 0
M  V30 469 H 41.6229 6.00264 3.01882 0
M  V30 470 N 44.343 -0.763751 1.37857 0
M  V30 471 C 45.293 -1.86765 1.30777 0
M  V30 472 C 46.277 -1.59726 0.194015 0
M  V30 473 O 47.469 -1.7172 0.42911 0
M  V30 474 C 44.598 -3.24343 1.12502 0
M  V30 475 C 43.684 -3.57307 2.28456 0
M  V30 476 N 44.075 -3.61398 3.53871 0
M  V30 477 C 42.373 -3.87517 2.20786 0
M  V30 478 C 43.074 -3.91339 4.30382 0
M  V30 479 N 42.05 -4.07649 3.59615 0
M  V30 480 H 45.852 -1.88191 2.25746 0
M  V30 481 H 43.366 -0.9606 1.30944 0
M  V30 482 H 45.363 -4.03327 1.05514 0
M  V30 483 H 44.023 -3.24175 0.184574 0
M  V30 484 H 45.034 -3.43407 3.87675 0
M  V30 485 H 41.711 -3.95125 1.34844 0
M  V30 486 H 43.101 -4.01213 5.3896 0
M  V30 487 N 45.8211 -1.22559 -0.990812 0
M  V30 488 C 46.7541 -0.940773 -2.07905 0
M  V30 489 C 47.7321 0.117082 -1.62178 0
M  V30 490 O 48.9161 -0.0149506 -1.88494 0
M  V30 491 C 46.0431 -0.415321 -3.36144 0
M  V30 492 C 45.0891 -1.45818 -4.00799 0
M  V30 493 S 45.9221 -3.03219 -4.41382 0
M  V30 494 C 47.0781 -2.52317 -5.72789 0
M  V30 495 H 47.3111 -1.8623 -2.31745 0
M  V30 496 H 44.8441 -1.05688 -1.12558 0
M  V30 497 H 46.8021 -0.118747 -4.10328 0
M  V30 498 H 45.4631 0.485121 -3.10331 0
M  V30 499 H 44.6561 -1.04044 -4.93144 0
M  V30 500 H 44.2581 -1.70356 -3.32949 0
M  V30 501 H 46.5501 -1.93688 -6.49224 0
M  V30 502 H 47.4931 -3.43161 -6.19392 0
M  V30 503 H 47.9011 -1.93529 -5.30289 0
M  V30 504 N 47.2992 1.18797 -1.03562 0
M  V30 505 C 48.2292 2.24472 -0.643019 0
M  V30 506 C 49.2102 1.66433 0.351283 0
M  V30 507 O 50.3952 1.92803 0.232505 0
M  V30 508 C 47.5252 3.473 4.24935e-05 0
M  V30 509 C 46.4792 4.18055 -0.917257 0
M  V30 510 C 45.8052 5.34519 -0.138941 0
M  V30 511 C 47.1052 4.72109 -2.23407 0
M  V30 512 H 48.7992 2.57566 -1.52643 0
M  V30 513 H 46.3452 1.23806 -0.735394 0
M  V30 514 H 48.2982 4.20426 0.286383 0
M  V30 515 H 47.0222 3.13424 0.918299 0
M  V30 516 H 45.6812 3.46821 -1.1879 0
M  V30 517 H 45.3292 4.96891 0.781562 0
M  V30 518 H 45.0292 5.82794 -0.750005 0
M  V30 519 H 46.5532 6.10438 0.1405 0
M  V30 520 H 47.9672 5.36955 -2.00879 0
M  V30 521 H 46.3642 5.30897 -2.79765 0
M  V30 522 H 47.4342 3.89807 -2.88407 0
M  V30 523 N 48.7773 0.814389 1.34928 0
M  V30 524 C 49.7273 0.202752 2.27097 0
M  V30 525 C 50.7113 -0.62799 1.48139 0
M  V30 526 O 51.9033 -0.483969 1.70255 0
M  V30 527 C 49.0323 -0.64146 3.37254 0
M  V30 528 C 48.1183 0.19944 4.23631 0
M  V30 529 N 48.5093 1.26628 4.89693 0
M  V30 530 C 46.8073 -0.0176433 4.45997 0
M  V30 531 C 47.5083 1.78031 5.53787 0
M  V30 532 N 46.4843 1.08553 5.32651 0
M  V30 533 H 50.2863 1.01893 2.75672 0
M  V30 534 H 47.8003 0.656332 1.48546 0
M  V30 535 H 49.7973 -1.09575 4.02243 0
M  V30 536 H 48.4573 -1.4559 2.9023 0
M  V30 537 H 49.4683 1.64901 4.90946 0
M  V30 538 H 46.1453 -0.800601 4.09752 0
M  V30 539 H 47.5353 2.67236 6.16469 0
M  V30 540 N 50.2554 -1.46986 0.568584 0
M  V30 541 C 51.1654 -2.33942 -0.17555 0
M  V30 542 C 52.1814 -1.48891 -0.90041 0
M  V30 543 O 53.3574 -1.81794 -0.86676 0
M  V30 544 C 50.4224 -3.25811 -1.18524 0
M  V30 545 C 49.4834 -4.26757 -0.466582 0
M  V30 546 C 48.7164 -5.14236 -1.42817 0
M  V30 547 O 48.9394 -5.04379 -2.66379 0
M  V30 548 O 47.8734 -5.94412 -0.946453 0
M  V30 549 H 51.6994 -2.98896 0.538036 0
M  V30 550 H 49.2844 -1.4573 0.329097 0
M  V30 551 H 51.1664 -3.82527 -1.76779 0
M  V30 552 H 49.8414 -2.63471 -1.88055 0
M  V30 553 H 48.7484 -3.73769 0.157451 0
M  V30 554 H 50.0814 -4.91843 0.187485 0
M  V30 555 N 51.7335 -0.305618 -1.54608 0
M  V30 556 C 53.1495 0.0476228 -1.59529 0
M  V30 557 C 53.3495 1.52025 -1.32252 0
M  V30 558 O 52.4055 2.27368 -1.09818 0
M  V30 559 C 53.7185 -0.354471 -2.98603 0
M  V30 560 C 55.2665 -0.303622 -3.11524 0
M  V30 561 C 55.7415 -0.680608 -4.52915 0
M  V30 562 N 57.2325 -0.63332 -4.5885 0
M  V30 563 C 57.9675 -0.897432 -5.66334 0
M  V30 564 N 57.4635 -1.22775 -6.81834 0
M  V30 565 N 59.2565 -0.824186 -5.56025 0
M  V30 566 H 51.4075 -1.2653 -1.70599 0
M  V30 567 H 53.6705 -0.513291 -0.797017 0
M  V30 568 H 53.3765 -1.3798 -3.23503 0
M  V30 569 H 53.2505 0.289568 -3.76087 0
M  V30 570 H 55.6375 0.712472 -2.8637 0
M  V30 571 H 55.7185 -0.982348 -2.36185 0
M  V30 572 H 55.3625 -1.69453 -4.78799 0
M  V30 573 H 55.2925 0.0202385 -5.26596 0
M  V30 574 H 57.7835 -0.389138 -3.75891 0
M  V30 575 H 58.0965 -1.41513 -7.59733 0
M  V30 576 H 56.4415 -1.26583 -6.83375 0
M  V30 577 H 59.6325 -0.565748 -4.64669 0
M  V30 578 H 59.8055 -1.03338 -6.39707 0
M  V30 579 N 53.2116 1.57565 -0.0334293 0
M  V30 580 C 54.1586 2.10478 0.946981 0
M  V30 581 C 55.1286 1.00787 1.32027 0
M  V30 582 O 56.3136 1.28232 1.41284 0
M  V30 583 C 53.4536 2.63994 2.22263 0
M  V30 584 C 52.5666 3.87709 1.90541 0
M  V30 585 C 51.7016 4.29604 3.12433 0
M  V30 586 C 50.7406 5.46065 2.76549 0
M  V30 587 N 49.8776 5.83096 3.9108 0
M  V30 588 H 54.7176 2.93963 0.488846 0
M  V30 589 H 52.2546 1.45296 0.22969 0
M  V30 590 H 54.2126 2.93114 2.96884 0
M  V30 591 H 52.8426 1.83333 2.65685 0
M  V30 592 H 51.8946 3.65291 1.06144 0
M  V30 593 H 53.2066 4.72403 1.60116 0
M  V30 594 H 52.3606 4.60182 3.9537 0
M  V30 595 H 51.0996 3.43685 3.46023 0
M  V30 596 H 50.1046 5.15176 1.92026 0
M  V30 597 H 51.3296 6.33685 2.44171 0
M  V30 598 H 49.2756 5.00132 4.24504 0
M  V30 599 H 49.1926 6.6244 3.64293 0
M  V30 600 H 50.4606 6.18282 4.74708 0
M  V30 601 N 54.6897 -0.239769 1.55765 0
M  V30 602 C 55.9377 -0.964892 1.77579 0
M  V30 603 C 56.2587 -1.85582 0.598699 0
M  V30 604 O 55.5287 -1.92075 -0.385226 0
M  V30 605 H 54.1087 -0.359265 0.654933 0
M  V30 606 H 56.7707 -0.256001 1.93211 0
M  V30 607 H 55.8667 -1.58243 2.69009 0
M  V30 608 N 56.1678 -1.49265 -0.50573 0
M  V30 609 C 57.5788 -1.51769 -1.08734 0
M  V30 610 C 57.9298 -0.301192 -1.93874 0
M  V30 611 O 57.0548 0.589456 -2.08217 0
M  V30 612 C 57.6498 -2.75017 -1.97867 0
M  V30 613 C 56.2088 -2.80314 -2.51199 0
M  V30 614 C 55.3558 -2.4562 -1.28709 0
M  V30 615 H 58.3068 -1.56031 -0.289855 0
M  V30 616 H 58.3278 -2.5491 -2.82491 0
M  V30 617 H 57.8398 -3.63539 -1.35873 0
M  V30 618 H 55.9408 -1.96061 -3.16845 0
M  V30 619 H 56.0538 -3.82366 -2.88675 0
M  V30 620 H 54.4178 -1.97297 -1.61078 0
M  V30 621 H 55.2008 -3.36411 -0.6843 0
M  V30 622 N 57.6459 0.756429 -1.3826 0
M  V30 623 C 58.8939 1.51248 -1.34047 0
M  V30 624 C 59.2149 1.94875 0.0698372 0
M  V30 625 O 58.4849 1.67436 1.01696 0
M  V30 626 H 57.0649 0.561018 -0.493222 0
M  V30 627 H 59.7269 0.899347 -1.7291 0
M  V30 628 H 58.8229 2.40472 -1.98947 0
M  V30 629 N 59.124 1.23083 0.984299 0
M  V30 630 C 60.349 1.088 1.76571 0
M  V30 631 C 60.774 -0.356657 1.84688 0
M  V30 632 O 60.132 -1.25788 1.30565 0
M  V30 633 C 60.18 1.71371 3.17277 0
M  V30 634 O 59.284 0.973213 4.00752 0
M  V30 635 H 58.625 0.381599 0.543395 0
M  V30 636 H 61.155 1.63057 1.23587 0
M  V30 637 H 61.165 1.76449 3.67872 0
M  V30 638 H 59.84 2.76493 3.10684 0
M  V30 639 H 58.417 0.999078 3.59267 0
M  V30 640 N 60.6021 -1.18246 1.0419 0
M  V30 641 C 61.8791 -1.84121 0.660208 0
M  V30 642 C 62.2591 -1.92778 -0.860221 0
M  V30 643 O 61.6071 -1.45464 -1.76217 0
M  V30 644 C 61.8171 -3.22355 1.33747 0
M  V30 645 C 63.1651 -3.98376 1.46906 0
M  V30 646 O 64.1891 -3.31799 1.29568 0
M  V30 647 O 63.0481 -5.17665 1.75171 0
M  V30 648 H 60.1421 -0.794036 0.231161 0
M  V30 649 H 62.6881 -1.25628 1.14087 0
M  V30 650 H 61.4601 -3.10964 2.37522 0
M  V30 651 H 61.0831 -3.88506 0.845515 0
M  V30 652 N 62.0802 -0.821533 -1.34494 0
M  V30 653 C 63.3272 -0.408946 -1.98328 0
M  V30 654 C 63.6552 1.02764 -1.65136 0
M  V30 655 O 62.9102 1.73026 -0.914349 0
M  V30 656 C 63.2092 -0.556512 -3.53041 0
M  V30 657 C 62.8752 -1.95861 -4.0614 0
M  V30 658 C 61.5372 -2.34217 -4.20352 0
M  V30 659 C 63.8892 -2.87523 -4.34718 0
M  V30 660 C 61.2172 -3.63572 -4.6047 0
M  V30 661 C 63.5692 -4.1634 -4.76281 0
M  V30 662 C 62.2332 -4.54675 -4.88699 0
M  V30 663 H 61.5032 -0.149644 -0.725732 0
M  V30 664 H 64.1502 -1.04521 -1.6046 0
M  V30 665 H 62.4552 0.163148 -3.9146 0
M  V30 666 H 64.1522 -0.217826 -4.00408 0
M  V30 667 H 60.7422 -1.65066 -3.95539 0
M  V30 668 H 64.9262 -2.59133 -4.23277 0
M  V30 669 H 60.1822 -3.93101 -4.68275 0
M  V30 670 H 64.3562 -4.87455 -4.97354 0
M  V30 671 H 61.9832 -5.54959 -5.19542 0
M  V30 672 N 63.5583 1.46682 -0.576371 0
M  V30 673 C 64.4883 2.33028 0.148397 0
M  V30 674 C 65.4693 1.44961 0.889956 0
M  V30 675 O 66.6543 1.73789 0.866662 0
M  V30 676 C 63.7843 3.27117 1.1667 0
M  V30 677 C 62.7383 4.24575 0.540386 0
M  V30 678 C 62.0643 5.08126 1.6647 0
M  V30 679 C 63.3643 5.19722 -0.518331 0
M  V30 680 H 65.0583 2.93875 -0.572509 0
M  V30 681 H 62.6043 1.41315 -0.276768 0
M  V30 682 H 64.5573 3.86374 1.68204 0
M  V30 683 H 63.2813 2.64364 1.9178 0
M  V30 684 H 61.9403 3.66571 0.0461769 0
M  V30 685 H 61.5883 4.41762 2.40531 0
M  V30 686 H 61.2883 5.74122 1.25131 0
M  V30 687 H 62.8123 5.70246 2.18293 0
M  V30 688 H 64.2263 5.73232 -0.0883058 0
M  V30 689 H 62.6233 5.94026 -0.851679 0
M  V30 690 H 63.6933 4.64037 -1.40703 0
M  V30 691 N 65.0364 0.313813 1.54444 0
M  V30 692 C 66.2844 -0.291099 1.99993 0
M  V30 693 C 66.6054 -1.53418 1.20366 0
M  V30 694 O 65.8754 -1.93544 0.302927 0
M  V30 695 H 64.4554 -0.110552 0.738774 0
M  V30 696 H 67.1174 0.428106 1.9014 0
M  V30 697 H 66.2134 -0.554268 3.07139 0
M  V30 698 N 66.5145 -1.57545 0.0417849 0
M  V30 699 C 67.7605 -1.93424 -0.629168 0
M  V30 700 C 68.1155 -0.919564 -1.69002 0
M  V30 701 O 67.4085 0.0626178 -1.91498 0
M  V30 702 C 67.6025 -3.33794 -1.27735 0
M  V30 703 C 67.4315 -4.48822 -0.280806 0
M  V30 704 C 66.2015 -5.05148 0.123869 0
M  V30 705 C 68.3995 -5.12148 0.470012 0
M  V30 706 N 66.3815 -6.03703 1.11426 0
M  V30 707 C 67.7525 -6.05921 1.31377 0
M  V30 708 C 69.8075 -4.95078 0.529343 0
M  V30 709 C 68.5105 -6.84459 2.21152 0
M  V30 710 C 70.5365 -5.74235 1.41448 0
M  V30 711 C 69.8985 -6.67634 2.24598 0
M  V30 712 H 65.9975 -0.755418 -0.202158 0
M  V30 713 H 68.5815 -1.94378 0.111923 0
M  V30 714 H 66.7525 -3.33635 -1.98852 0
M  V30 715 H 68.4845 -3.56988 -1.90635 0
M  V30 716 H 65.2395 -4.72923 -0.253178 0
M  V30 717 H 65.6635 -6.57674 1.60607 0
M  V30 718 H 70.3055 -4.22683 -0.0992798 0
M  V30 719 H 68.0235 -7.56151 2.85063 0
M  V30 720 H 71.6095 -5.63057 1.46484 0
M  V30 721 H 70.4895 -7.27817 2.9198 0
M  V30 722 N 67.9926 0.231505 -1.5589 0
M  V30 723 C 69.2386 0.95877 -1.78705 0
M  V30 724 C 69.5716 1.8438 -0.609725 0
M  V30 725 O 68.8466 1.90521 0.391426 0
M  V30 726 C 69.1296 1.8062 -3.11526 0
M  V30 727 C 68.9826 0.948328 -4.39689 0
M  V30 728 C 70.3016 2.78585 -3.40703 0
M  V30 729 H 67.4206 0.347129 -0.650131 0
M  V30 730 H 70.0626 0.228259 -1.88624 0
M  V30 731 H 68.2126 2.42902 -3.03201 0
M  V30 732 H 69.8846 0.343016 -4.60023 0
M  V30 733 H 68.1276 0.253314 -4.3306 0
M  V30 734 H 68.7986 1.57543 -5.29041 0
M  V30 735 H 71.2746 2.26439 -3.49091 0
M  V30 736 H 70.1506 3.34988 -4.34826 0
M  V30 737 H 70.4116 3.55825 -2.62375 0
M  V30 738 N 69.4707 1.49531 0.497807 0
M  V30 739 C 70.7477 1.49682 1.25915 0
M  V30 740 C 71.1277 0.226339 2.09883 0
M  V30 741 O 70.4757 -0.791189 2.14365 0
M  V30 742 C 70.6857 2.77755 2.11313 0
M  V30 743 C 72.0337 3.27371 2.70395 0
M  V30 744 O 73.0577 2.78894 2.21578 0
M  V30 745 O 71.9167 4.11808 3.59272 0
M  V30 746 H 69.0107 0.599228 0.56996 0
M  V30 747 H 71.5567 1.61798 0.511816 0
M  V30 748 H 70.3287 3.61713 1.49264 0
M  V30 749 H 69.9517 2.68515 2.93233 0
M  V30 750 N 70.9488 -0.749086 1.3866 0
M  V30 751 C 72.1948 -1.50959 1.36319 0
M  V30 752 C 72.5498 -1.92347 -0.0452451 0
M  V30 753 O 71.8428 -1.6289 -1.00884 0
M  V30 754 C 72.0368 -2.7712 2.25697 0
M  V30 755 C 71.8658 -2.48067 3.7509 0
M  V30 756 C 70.6358 -2.41062 4.44091 0
M  V30 757 C 72.8338 -2.14544 4.67414 0
M  V30 758 N 70.8158 -2.04331 5.78897 0
M  V30 759 C 72.1868 -1.88141 5.90765 0
M  V30 760 C 74.2418 -2.00892 4.55573 0
M  V30 761 C 72.9448 -1.49463 7.036 0
M  V30 762 C 74.9708 -1.63616 5.68317 0
M  V30 763 C 74.3328 -1.38088 6.90732 0
M  V30 764 H 70.4318 -0.551804 0.554108 0
M  V30 765 H 73.0158 -0.871886 1.74087 0
M  V30 766 H 71.1868 -3.38693 1.9011 0
M  V30 767 H 72.9188 -3.4321 2.1445 0
M  V30 768 H 69.6738 -2.57685 3.9736 0
M  V30 769 H 70.0978 -1.88598 6.502 0
M  V30 770 H 74.7398 -2.19301 3.61479 0
M  V30 771 H 72.4578 -1.29794 7.97608 0
M  V30 772 H 76.0438 -1.53678 5.61137 0
M  V30 773 H 74.9238 -1.09674 7.76493 0
M  V30 774 N 72.4269 -1.23603 -0.977757 0
M  V30 775 C 73.8379 -1.06424 -1.53398 0
M  V30 776 C 74.1889 0.367578 -1.92726 0
M  V30 777 O 73.3139 1.25465 -1.76316 0
M  V30 778 C 73.9089 -1.92568 -2.78753 0
M  V30 779 C 72.4679 -1.79642 -3.30765 0
M  V30 780 C 71.6149 -1.88111 -2.03739 0
M  V30 781 H 74.5659 -1.37227 -0.797152 0
M  V30 782 H 74.5869 -1.45203 -3.51705 0
M  V30 783 H 74.0989 -2.96771 -2.50098 0
M  V30 784 H 72.1999 -0.782325 -3.64294 0
M  V30 785 H 72.3129 -2.63174 -4.00345 0
M  V30 786 H 70.6769 -1.31723 -2.17994 0
M  V30 787 H 71.4599 -2.93875 -1.77461 0
M  V30 788 N 73.905 1.17692 -1.04816 0
M  V30 789 C 75.154 1.87192 -0.751132 0
M  V30 790 C 75.467 1.8169 0.724441 0
M  V30 791 O 76.673 2.46625 1.13527 0
M  V30 792 C 75.129 3.35857 -1.29338 0
M  V30 793 C 74.737 3.4987 -2.79812 0
M  V30 794 C 76.481 4.10709 -1.07322 0
M  V30 795 C 74.388 4.92536 -3.27356 0
M  V30 796 H 73.318 0.701162 -0.277288 0
M  V30 797 H 75.969 1.32932 -1.26496 0
M  V30 798 H 74.351 3.89631 -0.707376 0
M  V30 799 H 75.525 3.06332 -3.44235 0
M  V30 800 H 73.84 2.88433 -3.00325 0
M  V30 801 H 76.437 5.15952 -1.4035 0
M  V30 802 H 76.78 4.16299 -0.0108001 0
M  V30 803 H 77.313 3.6313 -1.62423 0
M  V30 804 H 74.052 4.92119 -4.33012 0
M  V30 805 H 73.572 5.3676 -2.67673 0
M  V30 806 H 75.251 5.61288 -3.21815 0
M  V30 807 N 75.3831 0.828654 1.34056 0
M  V30 808 C 76.7991 0.515135 1.51058 0
M  V30 809 C 76.9991 -0.959581 1.77184 0
M  V30 810 O 76.0551 -1.74382 1.82612 0
M  V30 811 C 77.3681 1.37963 2.67183 0
M  V30 812 C 78.9161 1.37735 2.81066 0
M  V30 813 C 79.3911 2.22645 4.00241 0
M  V30 814 N 80.8821 2.203 4.07458 0
M  V30 815 C 81.6171 2.82744 4.98842 0
M  V30 816 N 81.1131 3.54201 5.9541 0
M  V30 817 N 82.9061 2.72268 4.91759 0
M  V30 818 H 75.0571 1.78343 1.15358 0
M  V30 819 H 77.3201 0.760304 0.566252 0
M  V30 820 H 77.0261 2.42714 2.54525 0
M  V30 821 H 76.9001 1.0484 3.62338 0
M  V30 822 H 79.2871 0.337593 2.93163 0
M  V30 823 H 79.3681 1.74859 1.86703 0
M  V30 824 H 79.0121 3.26674 3.88905 0
M  V30 825 H 78.9421 1.82869 4.93829 0
M  V30 826 H 81.4331 1.68327 3.38341 0
M  V30 827 H 81.7461 3.9908 6.61782 0
M  V30 828 H 80.0911 3.58308 5.95517 0
M  V30 829 H 83.2821 2.16014 4.15278 0
M  V30 830 H 83.4551 3.21219 5.62781 0
M  V30 831 N 76.8612 -1.46375 0.584142 0
M  V30 832 C 78.0912 -2.06461 0.0758195 0
M  V30 833 C 78.4992 -1.43322 -1.23512 0
M  V30 834 O 77.8422 -0.533216 -1.75791 0
M  V30 835 C 77.9042 -3.59131 -0.162773 0
M  V30 836 C 77.5682 -4.4447 1.06279 0
M  V30 837 C 78.5652 -4.80918 1.97519 0
M  V30 838 C 76.2502 -4.85584 1.28504 0
M  V30 839 C 78.2442 -5.57309 3.09331 0
M  V30 840 C 75.9312 -5.61734 2.4062 0
M  V30 841 C 76.9292 -5.9751 3.30863 0
M  V30 842 O 76.6172 -6.72121 4.41032 0
M  V30 843 H 76.3492 -0.673745 0.0551725 0
M  V30 844 H 78.9032 -1.88969 0.804984 0
M  V30 845 H 77.1332 -3.74936 -0.946565 0
M  V30 846 H 78.8222 -4.0114 -0.619782 0
M  V30 847 H 79.5882 -4.49732 1.81565 0
M  V30 848 H 75.4672 -4.57187 0.591702 0
M  V30 849 H 79.0112 -5.85152 3.79793 0
M  V30 850 H 74.9082 -5.92334 2.56537 0
M  V30 851 H 75.6762 -6.90547 4.39417 0
M  V30 852 N 78.3393 -0.321999 -1.54275 0
M  V30 853 C 79.6163 0.335232 -1.92706 0
M  V30 854 C 79.9963 1.70006 -1.25145 0
M  V30 855 O 79.3443 2.25067 -0.394596 0
M  V30 856 C 79.5543 0.429008 -3.46353 0
M  V30 857 C 80.9023 0.690029 -4.18956 0
M  V30 858 O 81.9263 0.511992 -3.52501 0
M  V30 859 O 80.7853 1.03338 -5.36641 0
M  V30 860 H 77.8793 0.191143 -0.804608 0
M  V30 861 H 80.4253 -0.3716 -1.65581 0
M  V30 862 H 79.1973 -0.529611 -3.87699 0
M  V30 863 H 78.8203 1.18348 -3.79578 0
M  V30 864 N 79.8174 1.5752 -0.0501392 0
M  V30 865 C 80.7644 2.1147 0.924603 0
M  V30 866 C 81.7344 1.02182 1.30951 0
M  V30 867 O 82.9194 1.29723 1.39916 0
M  V30 868 C 80.0594 2.66337 2.19451 0
M  V30 869 C 79.1724 3.89708 1.86418 0
M  V30 870 C 78.3074 4.32893 3.07859 0
M  V30 871 C 77.3464 5.48967 2.70742 0
M  V30 872 N 76.4834 5.87211 3.84874 0
M  V30 873 H 81.3234 2.94465 0.457639 0
M  V30 874 H 78.8604 1.45531 0.214266 0
M  V30 875 H 80.8184 2.96247 2.93758 0
M  V30 876 H 79.4484 1.86141 2.63726 0
M  V30 877 H 78.5004 3.66396 1.02264 0
M  V30 878 H 79.8124 4.74074 1.55096 0
M  V30 879 H 78.9664 4.6435 3.90466 0
M  V30 880 H 77.7054 3.47336 3.42358 0
M  V30 881 H 76.7104 5.17183 1.86551 0
M  V30 882 H 77.9354 6.3624 2.37436 0
M  V30 883 H 75.8814 5.04607 4.19175 0
M  V30 884 H 75.7984 6.66266 3.57247 0
M  V30 885 H 77.0664 6.23282 4.68123 0
M  V30 886 N 81.2955 -0.223234 1.56011 0
M  V30 887 C 82.2435 -1.29627 1.93131 0
M  V30 888 C 83.2375 -1.48608 0.813146 0
M  V30 889 O 84.4435 -1.49802 0.997966 0
M  V30 890 H 80.8185 -0.434563 0.613726 0
M  V30 891 H 82.7895 -0.955995 2.82672 0
M  V30 892 C 81.5385 -2.63983 2.26292 0
M  V30 893 H 80.8615 -2.50185 3.11846 0
M  V30 894 H 82.3015 -3.3788 2.56151 0
M  V30 895 C 80.7605 -3.18866 1.08747 0
M  V30 896 O 81.2905 -4.00192 0.347727 0
M  V30 897 N 79.4965 -2.77217 0.871743 0
M  V30 898 H 79.0435 -2.1119 1.47501 0
M  V30 899 H 79.0015 -3.1428 0.0869905 0
M  V30 900 N 82.7736 -1.49793 -0.48987 0
M  V30 901 C 83.6836 -1.70036 -1.61632 0
M  V30 902 C 84.6996 -0.583102 -1.63939 0
M  V30 903 O 85.8756 -0.859169 -1.82154 0
M  V30 904 C 82.9406 -1.77277 -2.97949 0
M  V30 905 C 82.0016 -3.00918 -3.06181 0
M  V30 906 C 81.2346 -3.07804 -4.35996 0
M  V30 907 O 81.4576 -2.21982 -5.25433 0
M  V30 908 O 80.3916 -4.00369 -4.49431 0
M  V30 909 H 84.2176 -2.65486 -1.47482 0
M  V30 910 H 81.8026 -1.33666 -0.667362 0
M  V30 911 H 83.6846 -1.84329 -3.78947 0
M  V30 912 H 82.3596 -0.850076 -3.12339 0
M  V30 913 H 81.2666 -2.99377 -2.2433 0
M  V30 914 H 82.5996 -3.92704 -2.96723 0
M  V30 915 N 84.2517 0.741722 -1.39055 0
M  V30 916 C 85.4987 1.50114 -1.35912 0
M  V30 917 C 85.8267 1.94443 0.0470937 0
M  V30 918 O 85.0817 1.66612 1.02659 0
M  V30 919 C 85.3807 2.7592 -2.27163 0
M  V30 920 C 85.0467 2.50493 -3.74919 0
M  V30 921 C 83.7087 2.43267 -4.1518 0
M  V30 922 C 86.0607 2.28585 -4.684 0
M  V30 923 C 83.3887 2.12166 -5.46994 0
M  V30 924 C 85.7407 1.99002 -6.00484 0
M  V30 925 C 84.4047 1.90241 -6.39816 0
M  V30 926 H 83.6747 0.549306 -0.497336 0
M  V30 927 H 86.3217 0.851896 -1.71508 0
M  V30 928 H 84.6267 3.45553 -1.84663 0
M  V30 929 H 86.3237 3.33923 -2.22028 0
M  V30 930 H 82.9137 2.56992 -3.43006 0
M  V30 931 H 87.0977 2.33139 -4.38132 0
M  V30 932 H 82.3537 2.03901 -5.76398 0
M  V30 933 H 86.5277 1.81057 -6.72452 0
M  V30 934 H 84.1547 1.65907 -7.41875 0
M  V30 935 N 85.7298 1.2412 0.971189 0
M  V30 936 C 86.9548 1.10667 1.75407 0
M  V30 937 C 87.3798 -0.337048 1.85056 0
M  V30 938 O 86.7378 -1.24396 1.31892 0
M  V30 939 C 86.7858 1.74726 3.15441 0
M  V30 940 O 85.8898 1.01566 3.99697 0
M  V30 941 H 85.2308 0.387341 0.539317 0
M  V30 942 H 87.7608 1.64358 1.2185 0
M  V30 943 H 87.7708 1.80341 3.6598 0
M  V30 944 H 86.4458 2.79773 3.07734 0
M  V30 945 H 85.0228 1.03713 3.58187 0
M  V30 946 N 87.2079 -1.17134 1.05439 0
M  V30 947 C 88.6239 -1.39454 0.776201 0
M  V30 948 C 88.8239 -1.91454 -0.628307 0
M  V30 949 O 87.8799 -2.10777 -1.39031 0
M  V30 950 C 89.1929 -2.38305 1.83388 0
M  V30 951 C 90.7409 -2.52006 1.85639 0
M  V30 952 C 91.2159 -3.54133 2.90437 0
M  V30 953 N 92.7069 -3.61653 2.89415 0
M  V30 954 C 93.4419 -4.4044 3.67152 0
M  V30 955 N 92.9379 -5.22721 4.54681 0
M  V30 956 N 94.7309 -4.35337 3.55581 0
M  V30 957 H 86.8819 -0.817134 1.96053 0
M  V30 958 H 89.1449 -0.421626 0.849079 0
M  V30 959 H 88.8509 -2.07173 2.84204 0
M  V30 960 H 88.7249 -3.37841 1.67761 0
M  V30 961 H 91.1119 -2.82447 0.85486 0
M  V30 962 H 91.1929 -1.52537 2.05344 0
M  V30 963 H 90.8369 -3.24431 3.90777 0
M  V30 964 H 90.7669 -4.53313 2.67983 0
M  V30 965 H 93.2579 -3.02909 2.25952 0
M  V30 966 H 93.5709 -5.80027 5.10674 0
M  V30 967 H 91.9159 -5.22093 4.58741 0
M  V30 968 H 95.1069 -3.70112 2.86592 0
M  V30 969 H 95.2799 -4.96494 4.1641 0
M  V30 970 N 88.686 -0.835752 -1.33615 0
M  V30 971 C 89.935 -0.426289 -1.97144 0
M  V30 972 C 90.248 1.01912 -1.66953 0
M  V30 973 O 91.454 1.53311 -2.24072 0
M  V30 974 C 89.91 -0.711321 -3.52801 0
M  V30 975 C 89.518 -2.1712 -3.91871 0
M  V30 976 C 91.262 -0.368654 -4.22896 0
M  V30 977 C 89.169 -2.40044 -5.40493 0
M  V30 978 H 88.099 -0.15567 -0.737755 0
M  V30 979 H 90.75 -1.0239 -1.52278 0
M  V30 980 H 89.132 -0.0433766 -3.95976 0
M  V30 981 H 90.306 -2.87936 -3.59763 0
M  V30 982 H 88.621 -2.47654 -3.34749 0
M  V30 983 H 91.218 -0.517601 -5.32189 0
M  V30 984 H 91.561 0.688078 -4.10574 0
M  V30 985 H 92.094 -0.991702 -3.8524 0
M  V30 986 H 88.833 -3.44271 -5.57815 0
M  V30 987 H 88.353 -1.73785 -5.74072 0
M  V30 988 H 90.032 -2.23042 -6.0734 0
M  V30 989 N 90.1641 1.46063 -0.591896 0
M  V30 990 C 91.1111 2.30399 0.136069 0
M  V30 991 C 92.0811 1.41169 0.875238 0
M  V30 992 O 93.2661 1.70112 0.86409 0
M  V30 993 C 90.4061 3.25804 1.13781 0
M  V30 994 C 89.5191 4.30134 0.401137 0
M  V30 995 C 88.6541 5.12659 1.39121 0
M  V30 996 C 87.6931 6.0873 0.641462 0
M  V30 997 N 86.8301 6.8409 1.58004 0
M  V30 998 H 91.6701 2.92118 -0.589144 0
M  V30 999 H 89.2071 1.43959 -0.302342 0
M  V30 1000 H 91.1651 3.79569 1.73156 0
M  V30 1001 H 89.7951 2.65872 1.83062 0
M  V30 1002 H 88.8471 3.79152 -0.307826 0
M  V30 1003 H 90.1591 4.98458 -0.184565 0
M  V30 1004 H 89.3131 5.70747 2.05749 0
M  V30 1005 H 88.0521 4.44316 2.01084 0
M  V30 1006 H 87.0571 5.49786 -0.0385419 0
M  V30 1007 H 88.2821 6.79095 0.0270945 0
M  V30 1008 H 86.2281 6.18449 2.18761 0
M  V30 1009 H 86.1451 7.48709 1.04738 0
M  V30 1010 H 87.4131 7.4673 2.23639 0
M  V30 1011 N 91.6422 0.330177 1.54103 0
M  V30 1012 C 92.5742 -0.566902 2.22079 0
M  V30 1013 C 93.5872 -1.07462 1.22294 0
M  V30 1014 O 94.7762 -0.987065 1.48726 0
M  V30 1015 C 91.8762 -1.79138 2.87685 0
M  V30 1016 C 91.0492 -1.42123 4.13666 0
M  V30 1017 C 90.1082 -2.50394 4.62806 0
M  V30 1018 O 89.1342 -2.14261 5.27334 0
M  V30 1019 N 90.3362 -3.81433 4.37595 0
M  V30 1020 H 93.1012 0.0151844 2.99696 0
M  V30 1021 H 90.6622 0.153681 1.61169 0
M  V30 1022 H 92.6542 -2.50975 3.1748 0
M  V30 1023 H 91.2242 -2.28115 2.13734 0
M  V30 1024 H 90.4442 -0.534201 3.90564 0
M  V30 1025 H 91.7322 -1.14971 4.9564 0
M  V30 1026 H 91.1302 -4.13584 3.8596 0
M  V30 1027 H 89.6872 -4.4948 4.72029 0
M  V30 1028 N 93.1203 -1.57491 0.0584922 0
M  V30 1029 C 94.0833 -2.1085 -0.898617 0
M  V30 1030 C 95.0833 -1.02964 -1.23511 0
M  V30 1031 O 96.2733 -1.29007 -1.17059 0
M  V30 1032 C 93.4053 -2.59881 -2.20623 0
M  V30 1033 H 94.5983 -2.96715 -0.435936 0
M  V30 1034 H 92.1513 -1.55141 -0.190023 0
M  V30 1035 H 92.8863 -1.77431 -2.71457 0
M  V30 1036 H 92.6713 -3.38727 -1.97501 0
M  V30 1037 H 94.1613 -3.01285 -2.89166 0
M  V30 1038 N 94.5984 0.214957 -1.56127 0
M  V30 1039 C 95.5614 1.24997 -1.92116 0
M  V30 1040 C 96.5614 1.39467 -0.800344 0
M  V30 1041 O 97.7514 1.37619 -1.06802 0
M  V30 1042 C 94.8834 2.62271 -2.17777 0
M  V30 1043 H 96.0764 0.942875 -2.84693 0
M  V30 1044 H 93.6294 0.455654 -1.49511 0
M  V30 1045 H 94.3644 2.98068 -1.27773 0
M  V30 1046 H 94.1494 2.53143 -2.99434 0
M  V30 1047 H 95.6394 3.36946 -2.46693 0
M  V30 1048 N 96.0765 1.50051 0.48192 0
M  V30 1049 C 96.9865 1.7089 1.60728 0
M  V30 1050 C 98.0025 0.591788 1.63627 0
M  V30 1051 O 99.1785 0.868817 1.81696 0
M  V30 1052 C 96.2435 1.78855 2.97005 0
M  V30 1053 C 95.3045 3.02537 3.04581 0
M  V30 1054 C 94.5375 3.10112 4.34357 0
M  V30 1055 O 94.7605 2.24765 5.24249 0
M  V30 1056 O 93.6945 4.02747 4.47301 0
M  V30 1057 H 97.5205 2.66264 1.46072 0
M  V30 1058 H 95.1055 1.34018 0.660264 0
M  V30 1059 H 96.9875 1.86336 3.77964 0
M  V30 1060 H 95.6625 0.866628 3.11883 0
M  V30 1061 H 94.5695 3.00563 2.22739 0
M  V30 1062 H 95.9025 3.94272 2.94636 0
M  V30 1063 N 97.5546 -0.734337 1.39446 0
M  V30 1064 C 98.9706 -1.03997 1.21065 0
M  V30 1065 C 99.1706 -2.01369 0.0727019 0
M  V30 1066 O 98.2266 -2.45856 -0.575426 0
M  V30 1067 C 99.5396 -1.60163 2.54496 0
M  V30 1068 C 101.088 -1.7224 2.61347 0
M  V30 1069 C 101.563 -2.31814 3.95002 0
M  V30 1070 N 103.054 -2.39223 3.96644 0
M  V30 1071 C 103.789 -2.86258 4.96834 0
M  V30 1072 N 103.285 -3.33184 6.07421 0
M  V30 1073 N 105.078 -2.85473 4.84213 0
M  V30 1074 H 97.2286 -0.0885624 2.12215 0
M  V30 1075 H 99.4916 -0.10191 0.942506 0
M  V30 1076 H 99.1976 -0.960811 3.38321 0
M  V30 1077 H 99.0716 -2.5896 2.74262 0
M  V30 1078 H 101.459 -2.35443 1.77906 0
M  V30 1079 H 101.54 -0.720939 2.4543 0
M  V30 1080 H 101.184 -1.69238 4.78875 0
M  V30 1081 H 101.114 -3.32638 4.08239 0
M  V30 1082 H 103.605 -2.06057 3.16779 0
M  V30 1083 H 103.918 -3.67586 6.7978 0
M  V30 1084 H 102.263 -3.31191 6.11013 0
M  V30 1085 H 105.454 -2.48136 3.96921 0
M  V30 1086 H 105.627 -3.21814 5.62441 0
M  V30 1087 N 99.0327 -1.24633 -0.964593 0
M  V30 1088 C 100.282 -1.08188 -1.7023 0
M  V30 1089 C 100.595 0.37873 -1.91898 0
M  V30 1090 O 101.801 0.663427 -2.6327 0
M  V30 1091 C 100.257 -1.88773 -3.06419 0
M  V30 1092 C 99.8647 -3.39263 -2.92582 0
M  V30 1093 C 101.609 -1.80867 -3.84041 0
M  V30 1094 C 99.5157 -4.1218 -4.24101 0
M  V30 1095 H 98.4457 -0.401245 -0.638372 0
M  V30 1096 H 101.097 -1.48742 -1.07462 0
M  V30 1097 H 99.4787 -1.41035 -3.70034 0
M  V30 1098 H 100.653 -3.94603 -2.37961 0
M  V30 1099 H 98.9677 -3.48154 -2.28424 0
M  V30 1100 H 101.565 -2.32646 -4.81435 0
M  V30 1101 H 101.908 -0.774543 -4.09031 0
M  V30 1102 H 102.441 -2.26301 -3.27159 0
M  V30 1103 H 99.1797 -5.15965 -4.04303 0
M  V30 1104 H 98.6997 -3.61626 -4.78526 0
M  V30 1105 H 100.379 -4.19349 -4.92702 0
M  V30 1106 N 100.511 1.16574 -1.06058 0
M  V30 1107 C 101.927 1.3904 -0.783585 0
M  V30 1108 C 102.127 1.91784 0.618145 0
M  V30 1109 O 101.183 2.11511 1.37911 0
M  V30 1110 C 102.496 2.37329 -1.84649 0
M  V30 1111 C 104.044 2.51018 -1.86973 0
M  V30 1112 C 104.519 3.52588 -2.92311 0
M  V30 1113 N 106.01 3.60113 -2.91329 0
M  V30 1114 C 106.745 4.38486 -3.69482 0
M  V30 1115 N 106.241 5.20302 -4.57447 0
M  V30 1116 N 108.034 4.33446 -3.57885 0
M  V30 1117 H 100.185 0.806725 -1.96483 0
M  V30 1118 H 102.448 0.417117 -0.851303 0
M  V30 1119 H 102.154 2.05663 -2.85299 0
M  V30 1120 H 102.028 3.36946 -1.6955 0
M  V30 1121 H 104.415 2.81989 -0.869827 0
M  V30 1122 H 104.496 1.51445 -2.0615 0
M  V30 1123 H 104.14 3.22354 -3.92492 0
M  V30 1124 H 104.07 4.51886 -2.70383 0
M  V30 1125 H 106.561 3.01707 -2.27555 0
M  V30 1126 H 106.874 5.77311 -5.13743 0
M  V30 1127 H 105.219 5.19653 -4.61503 0
M  V30 1128 H 108.41 3.68586 -2.88551 0
M  V30 1129 H 108.583 4.94279 -4.19037 0
M  V30 1130 N 101.989 0.842826 1.3317 0
M  V30 1131 C 102.937 0.267495 2.31057 0
M  V30 1132 C 103.931 -0.602682 1.58316 0
M  V30 1133 O 105.137 -0.491803 1.73151 0
M  V30 1134 H 101.512 0.0677813 0.748939 0
M  V30 1135 H 103.483 1.10754 2.77085 0
M  V30 1136 C 102.232 -0.539331 3.43492 0
M  V30 1137 H 101.555 0.12095 3.99617 0
M  V30 1138 H 102.995 -0.90767 4.14171 0
M  V30 1139 C 101.454 -1.71981 2.89697 0
M  V30 1140 O 101.984 -2.81862 2.86211 0
M  V30 1141 N 100.19 -1.54299 2.46252 0
M  V30 1142 H 99.7369 -0.649143 2.49287 0
M  V30 1143 H 99.6949 -2.33431 2.10612 0
M  V30 1144 N 103.467 -1.45747 0.599634 0
M  V30 1145 C 104.417 -2.27538 -0.145107 0
M  V30 1146 C 105.401 -1.3686 -0.846055 0
M  V30 1147 O 106.593 -1.6091 -0.737357 0
M  V30 1148 C 103.722 -3.23569 -1.14708 0
M  V30 1149 C 102.808 -4.21734 -0.447383 0
M  V30 1150 N 103.199 -5.03257 0.506535 0
M  V30 1151 C 101.497 -4.40536 -0.695966 0
M  V30 1152 C 102.198 -5.74426 0.917068 0
M  V30 1153 N 101.174 -5.42966 0.26253 0
M  V30 1154 H 104.976 -2.87965 0.587672 0
M  V30 1155 H 102.49 -1.56803 0.422697 0
M  V30 1156 H 104.487 -3.8089 -1.69495 0
M  V30 1157 H 103.147 -2.64702 -1.8805 0
M  V30 1158 H 104.158 -5.10319 0.882899 0
M  V30 1159 H 100.835 -3.92802 -1.41467 0
M  V30 1160 H 102.225 -6.4995 1.70338 0
M  V30 1161 N 104.945 -0.338344 -1.53925 0
M  V30 1162 C 106.17 0.263987 -2.05713 0
M  V30 1163 C 106.595 1.43847 -1.21201 0
M  V30 1164 O 105.953 1.79904 -0.224535 0
M  V30 1165 C 106.001 0.662 -3.54471 0
M  V30 1166 O 105.105 1.76265 -3.72833 0
M  V30 1167 H 104.446 0.0448722 -0.662482 0
M  V30 1168 H 106.976 -0.491048 -1.9862 0
M  V30 1169 H 106.986 0.940594 -3.9701 0
M  V30 1170 H 105.661 -0.196937 -4.15433 0
M  V30 1171 H 104.238 1.48173 -3.42198 0
M  V30 1172 N 106.423 1.57458 -0.0668435 0
M  V30 1173 C 107.7 1.8469 0.644132 0
M  V30 1174 C 108.08 0.958343 1.88093 0
M  V30 1175 O 107.428 0.0233579 2.28488 0
M  V30 1176 C 107.638 3.34767 0.986509 0
M  V30 1177 C 108.986 4.02159 1.36212 0
M  V30 1178 O 110.01 3.39484 1.07839 0
M  V30 1179 O 108.869 5.12694 1.89227 0
M  V30 1180 H 105.963 0.762816 0.319437 0
M  V30 1181 H 108.509 1.6942 -0.0973986 0
M  V30 1182 H 107.281 3.91151 0.107883 0
M  V30 1183 H 106.904 3.55281 1.78497 0
M  V30 1184 N 107.901 -0.206675 1.56239 0
M  V30 1185 C 108.864 -1.23976 1.92776 0
M  V30 1186 C 109.864 -1.39041 0.807729 0
M  V30 1187 O 111.054 -1.37051 1.0753 0
M  V30 1188 C 108.186 -2.61112 2.19165 0
M  V30 1189 H 109.379 -0.927764 2.85189 0
M  V30 1190 H 106.932 -0.447718 1.4975 0
M  V30 1191 H 107.667 -2.97386 1.29352 0
M  V30 1192 H 107.452 -2.51552 3.00772 0
M  V30 1193 H 108.942 -3.35633 2.48476 0
M  V30 1194 N 109.379 -1.50304 -0.473955 0
M  V30 1195 C 110.309 -1.71886 -1.58042 0
M  V30 1196 C 111.29 -0.567799 -1.60344 0
M  V30 1197 O 112.475 -0.806623 -1.76656 0
M  V30 1198 C 109.605 -1.81036 -2.96384 0
M  V30 1199 C 108.559 -2.962 -3.08949 0
M  V30 1200 C 107.885 -2.9049 -4.48909 0
M  V30 1201 C 109.185 -4.36752 -2.86434 0
M  V30 1202 H 110.879 -2.64527 -1.40234 0
M  V30 1203 H 108.425 -1.27295 -0.673201 0
M  V30 1204 H 110.378 -1.94719 -3.73714 0
M  V30 1205 H 109.102 -0.850147 -3.15341 0
M  V30 1206 H 107.761 -2.82164 -2.3405 0
M  V30 1207 H 107.409 -1.92321 -4.64781 0
M  V30 1208 H 107.109 -3.67802 -4.58253 0
M  V30 1209 H 108.633 -3.06218 -5.28264 0
M  V30 1210 H 110.047 -4.5133 -3.53517 0
M  V30 1211 H 108.444 -5.15493 -3.07225 0
M  V30 1212 H 109.514 -4.49321 -1.82316 0
M  V30 1213 N 110.857 0.726932 -1.39834 0
M  V30 1214 C 112.103 1.48884 -1.377 0
M  V30 1215 C 112.436 1.94185 0.0244852 0
M  V30 1216 O 111.711 1.67361 0.990986 0
M  V30 1217 C 111.994 2.72288 -2.3565 0
M  V30 1218 C 111.847 2.32956 -3.84775 0
M  V30 1219 C 113.166 3.74414 -2.31306 0
M  V30 1220 H 110.285 0.540062 -0.5015 0
M  V30 1221 H 112.927 0.830547 -1.70886 0
M  V30 1222 H 111.077 3.28457 -2.07481 0
M  V30 1223 H 112.749 1.82356 -4.23726 0
M  V30 1224 H 110.992 1.65088 -4.01159 0
M  V30 1225 H 111.663 3.21362 -4.4881 0
M  V30 1226 H 114.139 3.27849 -2.56231 0
M  V30 1227 H 113.015 4.58414 -3.01907 0
M  V30 1228 H 113.276 4.21909 -1.32081 0
M  V30 1229 N 112.336 1.25143 0.95797 0
M  V30 1230 C 113.582 1.09855 1.70469 0
M  V30 1231 C 113.915 -0.360187 1.90831 0
M  V30 1232 O 113.19 -1.26568 1.47685 0
M  V30 1233 C 113.473 1.8497 3.08963 0
M  V30 1234 C 113.326 3.38652 2.96032 0
M  V30 1235 C 114.645 1.63016 4.08795 0
M  V30 1236 H 111.764 0.400465 0.618706 0
M  V30 1237 H 114.406 1.53933 1.11376 0
M  V30 1238 H 112.556 1.47505 3.59409 0
M  V30 1239 H 114.228 3.85772 2.52938 0
M  V30 1240 H 112.471 3.66534 2.32025 0
M  V30 1241 H 113.142 3.8642 3.94187 0
M  V30 1242 H 115.618 1.95625 3.67247 0
M  V30 1243 H 114.494 2.18015 5.03747 0
M  V30 1244 H 114.755 0.570692 4.38401 0
M  V30 1245 N 113.814 -1.1601 1.06675 0
M  V30 1246 C 115.063 -1.85973 0.780818 0
M  V30 1247 C 115.376 -1.82819 -0.695444 0
M  V30 1248 O 116.582 -2.484 -1.09589 0
M  V30 1249 C 115.038 -3.33757 1.34665 0
M  V30 1250 C 114.646 -3.45374 2.85343 0
M  V30 1251 C 116.39 -4.0895 1.13843 0
M  V30 1252 C 114.297 -4.87266 3.35151 0
M  V30 1253 H 113.227 -0.696661 0.288407 0
M  V30 1254 H 115.878 -1.30903 1.28595 0
M  V30 1255 H 114.26 -3.88456 0.769274 0
M  V30 1256 H 115.434 -3.00816 3.49065 0
M  V30 1257 H 113.749 -2.83619 3.04876 0
M  V30 1258 H 116.346 -5.13654 1.4854 0
M  V30 1259 H 116.689 -4.16229 0.0770282 0
M  V30 1260 H 117.222 -3.605 1.68179 0
M  V30 1261 H 113.961 -4.85168 4.40786 0
M  V30 1262 H 113.481 -5.32433 2.76179 0
M  V30 1263 H 115.16 -5.56097 3.30704 0
M  V30 1264 N 115.292 -0.849877 -1.32721 0
M  V30 1265 C 116.54 -0.450032 -1.97026 0
M  V30 1266 C 116.861 0.996604 -1.67609 0
M  V30 1267 O 116.131 1.6958 -0.980786 0
M  V30 1268 H 114.711 -0.163426 -0.728904 0
M  V30 1269 H 117.373 -1.08526 -1.6189 0
M  V30 1270 H 116.469 -0.591146 -3.0645 0
M  V30 1271 N 116.77 1.45427 -0.607355 0
M  V30 1272 C 118.019 2.01452 -0.100036 0
M  V30 1273 C 118.332 1.48159 1.27704 0
M  V30 1274 O 119.538 1.96159 1.87707 0
M  V30 1275 C 117.994 3.59672 -0.128158 0
M  V30 1276 C 117.602 4.21962 -1.50507 0
M  V30 1277 C 119.346 4.23262 0.323932 0
M  V30 1278 C 117.253 5.72333 -1.48959 0
M  V30 1279 H 116.183 0.75325 -0.0336299 0
M  V30 1280 H 118.834 1.66901 -0.76265 0
M  V30 1281 H 117.216 3.91411 0.601105 0
M  V30 1282 H 118.39 4.01796 -2.25602 0
M  V30 1283 H 116.705 3.70565 -1.89923 0
M  V30 1284 H 119.302 5.33522 0.354691 0
M  V30 1285 H 119.645 3.93921 1.34656 0
M  V30 1286 H 120.178 3.96239 -0.352056 0
M  V30 1287 H 116.917 6.06373 -2.48981 0
M  V30 1288 H 116.437 5.94691 -0.781214 0
M  V30 1289 H 118.116 6.35525 -1.21313 0
M  V30 1290 N 118.248 0.346503 1.53744 0
M  V30 1291 C 119.496 -0.248612 2.00565 0
M  V30 1292 C 119.817 -1.5083 1.23593 0
M  V30 1293 O 119.087 -1.92858 0.343912 0
M  V30 1294 H 117.667 -0.0948564 0.740953 0
M  V30 1295 H 120.329 0.468341 1.89189 0
M  V30 1296 H 119.425 -0.488994 3.08245 0
M  V30 1297 N 119.726 -1.57421 0.075193 0
M  V30 1298 C 120.974 -1.93236 -0.591974 0
M  V30 1299 C 121.295 -0.956241 -1.69944 0
M  V30 1300 O 120.565 -0.00494792 -1.95899 0
M  V30 1301 H 119.145 -0.713355 -0.22166 0
M  V30 1302 H 121.807 -1.9444 0.133848 0
M  V30 1303 H 120.903 -2.95131 -1.01509 0
M  V30 1304 N 121.204 0.198386 -1.56346 0
M  V30 1305 C 122.429 0.939682 -1.84891 0
M  V30 1306 C 122.854 1.76202 -0.658369 0
M  V30 1307 O 122.212 1.76993 0.392851 0
M  V30 1308 C 122.26 1.81428 -3.11635 0
M  V30 1309 O 121.364 2.91265 -2.91956 0
M  V30 1310 H 120.705 0.264807 -0.608912 0
M  V30 1311 H 123.235 0.204695 -2.03573 0
M  V30 1312 H 123.245 2.21958 -3.42343 0
M  V30 1313 H 121.92 1.21004 -3.97908 0
M  V30 1314 H 120.497 2.54514 -2.72538 0
M  V30 1315 N 122.682 1.50554 0.465978 0
M  V30 1316 C 123.912 1.65323 1.23903 0
M  V30 1317 C 124.32 0.338051 1.86155 0
M  V30 1318 O 123.663 -0.690518 1.70228 0
M  V30 1319 C 123.725 2.69048 2.3844 0
M  V30 1320 C 123.389 4.12462 1.96784 0
M  V30 1321 C 124.386 4.98168 1.48745 0
M  V30 1322 C 122.071 4.58407 2.05349 0
M  V30 1323 C 124.065 6.27868 1.0982 0
M  V30 1324 C 121.752 5.88112 1.66035 0
M  V30 1325 C 122.75 6.72668 1.18349 0
M  V30 1326 O 122.438 7.99951 0.795825 0
M  V30 1327 H 122.17 0.558629 0.38067 0
M  V30 1328 H 124.724 1.97561 0.562022 0
M  V30 1329 H 122.954 2.32062 3.09328 0
M  V30 1330 H 124.643 2.72985 3.0039 0
M  V30 1331 H 125.409 4.63885 1.41546 0
M  V30 1332 H 121.288 3.92735 2.41414 0
M  V30 1333 H 124.832 6.93819 0.725293 0
M  V30 1334 H 120.729 6.21914 1.72895 0
M  V30 1335 H 121.497 8.13265 0.924222 0
M  V30 1336 N 124.16 -0.719506 1.40217 0
M  V30 1337 C 125.09 -1.8465 1.42922 0
M  V30 1338 C 126.071 -1.67599 0.29062 0
M  V30 1339 O 127.256 -1.87688 0.498677 0
M  V30 1340 C 124.386 -3.22565 1.28722 0
M  V30 1341 C 123.34 -3.54281 2.40144 0
M  V30 1342 C 122.666 -4.91298 2.11023 0
M  V30 1343 C 123.966 -3.55676 3.82481 0
M  V30 1344 H 125.66 -1.82644 2.37237 0
M  V30 1345 H 123.206 -0.877305 1.1419 0
M  V30 1346 H 125.159 -4.01095 1.29232 0
M  V30 1347 H 123.883 -3.25137 0.308811 0
M  V30 1348 H 122.542 -2.78088 2.38877 0
M  V30 1349 H 122.19 -4.90468 1.11582 0
M  V30 1350 H 121.89 -5.13485 2.8567 0
M  V30 1351 H 123.414 -5.72166 2.13209 0
M  V30 1352 H 124.828 -4.24254 3.85592 0
M  V30 1353 H 123.225 -3.89388 4.56614 0
M  V30 1354 H 124.295 -2.55144 4.12346 0
M  V30 1355 N 125.638 -1.25649 -0.95132 0
M  V30 1356 C 126.886 -1.10375 -1.69298 0
M  V30 1357 C 127.207 0.355339 -1.91735 0
M  V30 1358 O 126.477 1.25188 -1.50681 0
M  V30 1359 H 125.057 -0.405461 -0.627384 0
M  V30 1360 H 127.719 -1.57823 -1.14358 0
M  V30 1361 H 126.815 -1.61465 -2.67087 0
M  V30 1362 N 127.117 1.15442 -1.07289 0
M  V30 1363 C 128.08 2.18358 -0.696591 0
M  V30 1364 C 129.08 1.58637 0.262837 0
M  V30 1365 O 130.27 1.74145 0.0438809 0
M  V30 1366 C 127.402 3.4089 -0.0266151 0
M  V30 1367 H 128.595 2.53162 -1.60776 0
M  V30 1368 H 126.148 1.29893 -0.869342 0
M  V30 1369 H 126.883 3.11653 0.896822 0
M  V30 1370 H 126.668 3.85495 -0.716657 0
M  V30 1371 H 128.158 4.17009 0.222028 0
M  V30 1372 N 128.595 0.856903 1.32268 0
M  V30 1373 C 130.011 0.547061 1.49931 0
M  V30 1374 C 130.211 -0.921781 1.7918 0
M  V30 1375 O 129.267 -1.70469 1.8627 0
M  V30 1376 C 130.58 1.43599 2.64196 0
M  V30 1377 C 132.128 1.43665 2.78081 0
M  V30 1378 C 132.603 2.31085 3.95428 0
M  V30 1379 N 134.094 2.28893 4.02694 0
M  V30 1380 C 134.829 2.93262 4.92732 0
M  V30 1381 N 134.325 3.66751 5.87763 0
M  V30 1382 N 136.118 2.82638 4.85873 0
M  V30 1383 H 128.269 1.8075 1.11549 0
M  V30 1384 H 130.532 0.772144 0.549997 0
M  V30 1385 H 130.238 2.48058 2.49319 0
M  V30 1386 H 130.112 1.12502 3.60032 0
M  V30 1387 H 132.499 0.399701 2.92381 0
M  V30 1388 H 132.58 1.7878 1.82952 0
M  V30 1389 H 132.224 3.34849 3.81888 0
M  V30 1390 H 132.154 1.93302 4.89839 0
M  V30 1391 H 134.645 1.75466 3.34694 0
M  V30 1392 H 134.958 4.13027 6.53168 0
M  V30 1393 H 133.303 3.70859 5.87783 0
M  V30 1394 H 136.494 2.24774 4.10602 0
M  V30 1395 H 136.667 3.33084 5.55841 0
M  V30 1396 N 130.073 -1.45103 0.615059 0
M  V30 1397 C 131.036 -2.29025 -0.0895485 0
M  V30 1398 C 132.036 -1.40174 -0.787906 0
M  V30 1399 O 133.226 -1.62217 -0.634933 0
M  V30 1400 C 130.358 -3.21376 -1.13711 0
M  V30 1401 H 131.551 -2.92807 0.648382 0
M  V30 1402 H 129.104 -1.51749 0.374444 0
M  V30 1403 H 129.839 -2.6241 -1.90556 0
M  V30 1404 H 129.624 -3.86834 -0.640475 0
M  V30 1405 H 131.114 -3.84459 -1.63036 0
M  V30 1406 N 131.551 -0.354651 -1.53558 0
M  V30 1407 C 132.514 0.484566 -2.24019 0
M  V30 1408 C 133.514 1.01861 -1.24422 0
M  V30 1409 O 134.704 0.906097 -1.4878 0
M  V30 1410 C 131.836 1.67615 -2.96847 0
M  V30 1411 H 133.029 -0.131843 -2.9961 0
M  V30 1412 H 130.582 -0.106165 -1.55939 0
M  V30 1413 H 131.317 2.33095 -2.25471 0
M  V30 1414 H 131.102 1.30029 -3.69912 0
M  V30 1415 H 132.592 2.27114 -3.50441 0
M  V30 1416 N 133.029 1.57378 -0.0835403 0
M  V30 1417 C 134.278 1.93106 0.582498 0
M  V30 1418 C 134.591 0.96651 1.70053 0
M  V30 1419 O 135.797 1.21705 2.42693 0
M  V30 1420 C 134.253 3.43076 1.08751 0
M  V30 1421 C 133.861 4.48 -0.000146404 0
M  V30 1422 C 135.605 3.87785 1.72694 0
M  V30 1423 C 133.512 5.89113 0.519568 0
M  V30 1424 H 132.442 0.720775 0.221358 0
M  V30 1425 H 135.093 1.82821 -0.157675 0
M  V30 1426 H 133.475 3.48474 1.88101 0
M  V30 1427 H 134.649 4.54233 -0.775199 0
M  V30 1428 H 132.964 4.1283 -0.54406 0
M  V30 1429 H 135.561 4.90604 2.1263 0
M  V30 1430 H 135.904 3.25796 2.59158 0
M  V30 1431 H 136.437 3.8504 0.999457 0
M  V30 1432 H 133.176 6.54775 -0.308186 0
M  V30 1433 H 132.696 5.86376 1.26188 0
M  V30 1434 H 134.375 6.39346 0.992237 0
M  V30 1435 N 134.507 -0.190092 1.56449 0
M  V30 1436 C 135.417 -1.25591 1.98152 0
M  V30 1437 C 136.433 -1.49519 0.889944 0
M  V30 1438 O 137.609 -1.62036 1.19609 0
M  V30 1439 C 134.674 -2.57916 2.3169 0
M  V30 1440 C 133.735 -2.42015 3.5458 0
M  V30 1441 C 132.968 -3.6803 3.8651 0
M  V30 1442 O 133.191 -4.72413 3.1966 0
M  V30 1443 O 132.125 -3.6326 4.79923 0
M  V30 1444 H 135.951 -0.931988 2.89046 0
M  V30 1445 H 133.536 -0.395488 1.4407 0
M  V30 1446 H 135.418 -3.36008 2.54316 0
M  V30 1447 H 134.093 -2.89925 1.43963 0
M  V30 1448 H 133 -1.62017 3.37196 0
M  V30 1449 H 134.333 -2.14937 4.4279 0
M  V30 1450 N 135.985 -1.50799 -0.457987 0
M  V30 1451 C 136.948 -1.7005 -1.53674 0
M  V30 1452 C 137.948 -0.570881 -1.50325 0
M  V30 1453 O 139.138 -0.838126 -1.52712 0
M  V30 1454 C 136.27 -1.73788 -2.93276 0
M  V30 1455 H 137.463 -2.66306 -1.37917 0
M  V30 1456 H 135.016 -1.40477 -0.685271 0
M  V30 1457 H 135.751 -0.792717 -3.14462 0
M  V30 1458 H 135.536 -2.55864 -2.97113 0
M  V30 1459 H 137.026 -1.90591 -3.71571 0
M  V30 1460 N 137.463 0.71206 -1.40597 0
M  V30 1461 C 138.393 1.83889 -1.43899 0
M  V30 1462 C 139.374 1.67442 -0.299504 0
M  V30 1463 O 140.559 1.87421 -0.508624 0
M  V30 1464 C 137.689 3.21877 -1.30431 0
M  V30 1465 C 136.643 3.53002 -2.42019 0
M  V30 1466 C 135.969 4.90172 -2.13626 0
M  V30 1467 C 137.269 3.53643 -3.84362 0
M  V30 1468 H 138.963 1.81383 -2.38203 0
M  V30 1469 H 136.509 0.871237 -1.14654 0
M  V30 1470 H 138.462 4.00404 -1.31357 0
M  V30 1471 H 137.186 3.24968 -0.326049 0
M  V30 1472 H 135.845 2.76818 -2.40349 0
M  V30 1473 H 135.493 4.89869 -1.14182 0
M  V30 1474 H 135.193 5.11962 -2.88389 0
M  V30 1475 H 136.717 5.71028 -2.1624 0
M  V30 1476 H 138.131 4.22203 -3.87837 0
M  V30 1477 H 136.528 3.86961 -4.58673 0
M  V30 1478 H 137.598 2.52954 -4.13693 0
M  V30 1479 N 138.941 1.26152 0.944643 0
M  V30 1480 C 140.166 1.14363 1.7302 0
M  V30 1481 C 140.591 -0.29772 1.85729 0
M  V30 1482 O 139.949 -1.2157 1.34501 0
M  V30 1483 C 139.997 1.81378 3.11664 0
M  V30 1484 O 139.101 1.10022 3.97453 0
M  V30 1485 H 138.442 0.398694 0.53098 0
M  V30 1486 H 140.972 1.66906 1.18337 0
M  V30 1487 H 140.982 1.88064 3.62072 0
M  V30 1488 H 139.657 2.86237 3.0173 0
M  V30 1489 H 138.234 1.11287 3.55907 0
M  V30 1490 N 140.419 -1.14872 1.07899 0
M  V30 1491 C 141.369 -2.17809 0.674027 0
M  V30 1492 C 142.353 -1.58008 -0.303699 0
M  V30 1493 O 143.545 -1.76616 -0.11654 0
M  V30 1494 C 140.674 -3.43208 0.0793318 0
M  V30 1495 C 139.76 -4.10051 1.08253 0
M  V30 1496 N 140.151 -4.52296 2.2641 0
M  V30 1497 C 138.449 -4.36469 0.917124 0
M  V30 1498 C 139.15 -5.04199 2.901 0
M  V30 1499 N 138.126 -4.98088 2.17736 0
M  V30 1500 H 141.928 -2.48207 1.57386 0
M  V30 1501 H 139.442 -1.315 0.952976 0
M  V30 1502 H 141.439 -4.16272 -0.228719 0
M  V30 1503 H 140.099 -3.14291 -0.815551 0
M  V30 1504 H 141.11 -4.45504 2.64096 0
M  V30 1505 H 137.787 -4.17432 0.0756078 0
M  V30 1506 H 139.177 -5.46802 3.90458 0
M  V30 1507 N 141.898 -0.863906 -1.31812 0
M  V30 1508 C 143.126 -0.486111 -2.01108 0
M  V30 1509 C 143.541 0.919755 -1.64882 0
M  V30 1510 O 142.898 1.60162 -0.874893 0
M  V30 1511 C 142.949 -0.626435 -3.56031 0
M  V30 1512 O 142.67 -1.97693 -3.90959 0
M  V30 1513 C 144.171 -0.248857 -4.42601 0
M  V30 1514 H 141.391 -0.190052 -0.643523 0
M  V30 1515 H 143.935 -1.1634 -1.68182 0
M  V30 1516 H 142.09 0.00322717 -3.874 0
M  V30 1517 H 142.504 -1.98034 -4.85678 0
M  V30 1518 H 143.978 -0.398016 -5.50563 0
M  V30 1519 H 144.455 0.811489 -4.31638 0
M  V30 1520 H 145.061 -0.853971 -4.16638 0
M  V30 1521 N 143.376 1.44774 -0.622745 0
M  V30 1522 C 144.623 2.02121 -0.1239 0
M  V30 1523 C 144.951 1.48915 1.25118 0
M  V30 1524 O 144.206 0.660045 1.84233 0
M  V30 1525 C 144.505 3.57364 -0.0508323 0
M  V30 1526 C 144.171 4.29787 -1.36358 0
M  V30 1527 C 142.833 4.4929 -1.72314 0
M  V30 1528 C 145.185 4.71062 -2.23048 0
M  V30 1529 C 142.513 5.07325 -2.94682 0
M  V30 1530 C 144.865 5.30452 -3.44679 0
M  V30 1531 C 143.529 5.48175 -3.80868 0
M  V30 1532 H 142.799 0.739612 -0.0453381 0
M  V30 1533 H 145.446 1.73648 -0.807389 0
M  V30 1534 H 143.751 3.85202 0.715991 0
M  V30 1535 H 145.448 3.99456 0.351533 0
M  V30 1536 H 142.038 4.14932 -1.07375 0
M  V30 1537 H 146.222 4.55715 -1.96565 0
M  V30 1538 H 141.478 5.19235 -3.22809 0
M  V30 1539 H 145.652 5.61385 -4.12092 0
M  V30 1540 H 143.279 5.92912 -4.75773 0
M  V30 1541 N 144.854 0.36279 1.53368 0
M  V30 1542 C 145.804 -0.501391 2.22419 0
M  V30 1543 C 146.788 -1.0509 1.2184 0
M  V30 1544 O 147.98 -0.981404 1.47301 0
M  V30 1545 C 145.109 -1.64201 3.01484 0
M  V30 1546 C 144.195 -1.10552 4.09438 0
M  V30 1547 N 144.586 -0.291788 5.04958 0
M  V30 1548 C 142.884 -1.3806 4.24094 0
M  V30 1549 C 143.585 0.00162655 5.817 0
M  V30 1550 N 142.561 -0.595244 5.40331 0
M  V30 1551 H 146.363 0.127159 2.93625 0
M  V30 1552 H 143.877 0.170658 1.61501 0
M  V30 1553 H 145.874 -2.27326 3.49469 0
M  V30 1554 H 144.534 -2.27365 2.31809 0
M  V30 1555 H 145.545 0.0687731 5.17854 0
M  V30 1556 H 142.222 -2.01522 3.65644 0
M  V30 1557 H 143.612 0.659278 6.68658 0
M  V30 1558 N 146.332 -1.57332 0.0918853 0
M  V30 1559 C 147.28 -2.15075 -0.885747 0
M  V30 1560 C 148.274 -1.09277 -1.29441 0
M  V30 1561 O 149.48 -1.27627 -1.26931 0
M  V30 1562 H 145.855 -0.687966 -0.303656 0
M  V30 1563 H 147.826 -2.96047 -0.373995 0
M  V30 1564 C 146.575 -2.74325 -2.13638 0
M  V30 1565 H 145.898 -3.55418 -1.8308 0
M  V30 1566 H 147.338 -3.183 -2.80109 0
M  V30 1567 C 145.797 -1.70062 -2.90827 0
M  V30 1568 O 146.327 -1.13763 -3.85254 0
M  V30 1569 N 144.533 -1.40628 -2.54307 0
M  V30 1570 H 144.08 -1.866 -1.7759 0
M  V30 1571 H 144.038 -0.711043 -3.06254 0
M  V30 1572 N 147.81 0.181792 -1.56548 0
M  V30 1573 C 148.742 1.24956 -1.92142 0
M  V30 1574 C 149.755 1.41022 -0.813422 0
M  V30 1575 O 150.944 1.41212 -1.09186 0
M  V30 1576 C 148.044 2.61981 -2.14987 0
M  V30 1577 C 147.217 2.6735 -3.46183 0
M  V30 1578 C 146.276 3.85664 -3.5798 0
M  V30 1579 O 145.302 3.72148 -4.30691 0
M  V30 1580 N 146.504 5.01683 -2.92053 0
M  V30 1581 H 149.269 0.947329 -2.84334 0
M  V30 1582 H 146.83 0.371629 -1.57577 0
M  V30 1583 H 148.822 3.3958 -2.20154 0
M  V30 1584 H 147.392 2.84637 -1.2923 0
M  V30 1585 H 146.612 1.75925 -3.52766 0
M  V30 1586 H 147.9 2.67939 -4.32534 0
M  V30 1587 H 147.298 5.15564 -2.32832 0
M  V30 1588 H 145.855 5.77181 -3.0283 0
M  V30 1589 N 149.288 1.51039 0.449983 0
M  V30 1590 C 150.221 1.66105 1.56474 0
M  V30 1591 C 151.199 0.508776 1.54435 0
M  V30 1592 O 152.383 0.731005 1.73749 0
M  V30 1593 C 149.51 1.66304 2.9506 0
M  V30 1594 C 148.556 2.87346 3.15174 0
M  V30 1595 S 149.389 4.4835 2.92818 0
M  V30 1596 C 150.545 4.51274 4.33708 0
M  V30 1597 H 150.778 2.60397 1.43459 0
M  V30 1598 H 148.311 1.40565 0.638805 0
M  V30 1599 H 150.269 1.67103 3.74949 0
M  V30 1600 H 148.93 0.732108 3.05449 0
M  V30 1601 H 148.123 2.83849 4.16468 0
M  V30 1602 H 147.725 2.84223 2.43091 0
M  V30 1603 H 150.017 4.26136 5.26701 0
M  V30 1604 H 150.96 5.53017 4.42242 0
M  V30 1605 H 151.368 3.80738 4.16772 0
M  V30 1606 N 150.766 -0.704594 1.40972 0
M  V30 1607 C 151.714 -1.83994 1.42299 0
M  V30 1608 C 152.708 -1.66684 0.302111 0
M  V30 1609 O 153.914 -1.73655 0.473697 0
M  V30 1610 H 150.289 -0.606171 0.44504 0
M  V30 1611 H 152.26 -1.79992 2.38003 0
M  V30 1612 C 151.009 -3.21946 1.31323 0
M  V30 1613 H 150.332 -3.35878 2.16855 0
M  V30 1614 H 151.772 -4.01491 1.36311 0
M  V30 1615 C 150.231 -3.36891 0.0245977 0
M  V30 1616 O 150.761 -3.90687 -0.934153 0
M  V30 1617 N 148.967 -2.90559 -0.0485243 0
M  V30 1618 H 148.514 -2.46968 0.732419 0
M  V30 1619 H 148.472 -3.00937 -0.910171 0
M  V30 1620 N 152.244 -1.26651 -0.937939 0
M  V30 1621 C 153.521 -1.0313 -1.66204 0
M  V30 1622 C 153.901 0.437256 -2.06522 0
M  V30 1623 O 153.249 1.41831 -1.79154 0
M  V30 1624 C 153.459 -1.98314 -2.87181 0
M  V30 1625 C 154.807 -2.27107 -3.58758 0
M  V30 1626 O 155.831 -1.96205 -2.97291 0
M  V30 1627 O 154.69 -2.79736 -4.69479 0
M  V30 1628 H 151.784 -0.392384 -0.727986 0
M  V30 1629 H 154.33 -1.37874 -0.989382 0
M  V30 1630 H 153.102 -2.97399 -2.54302 0
M  V30 1631 H 152.725 -1.64068 -3.6217 0
M  V30 1632 N 153.722 1.14298 -1.08507 0
M  V30 1633 C 154.95 1.89219 -0.836876 0
M  V30 1634 C 155.365 1.78638 0.611054 0
M  V30 1635 O 154.722 1.14643 1.41998 0
M  V30 1636 C 154.773 3.39158 -1.25116 0
M  V30 1637 O 154.494 3.49449 -2.64229 0
M  V30 1638 C 155.995 4.31073 -1.03398 0
M  V30 1639 H 153.215 0.599328 -0.301739 0
M  V30 1640 H 155.759 1.44746 -1.44461 0
M  V30 1641 H 153.914 3.81251 -0.687514 0
M  V30 1642 H 154.328 4.42589 -2.81452 0
M  V30 1643 H 155.802 5.34646 -1.37323 0
M  V30 1644 H 156.279 4.3919 0.0289259 0
M  V30 1645 H 156.885 3.94738 -1.58311 0
M  V30 1646 N 155.201 0.870884 1.31352 0
M  V30 1647 C 156.429 0.49677 2.00848 0
M  V30 1648 C 156.844 -0.910998 1.65367 0
M  V30 1649 O 156.201 -1.59696 0.883374 0
M  V30 1650 C 156.252 0.645308 3.55694 0
M  V30 1651 O 155.973 1.99764 3.89905 0
M  V30 1652 C 157.474 0.272326 4.42463 0
M  V30 1653 H 154.694 0.193462 0.642506 0
M  V30 1654 H 157.238 1.1723 1.67563 0
M  V30 1655 H 155.393 0.0173176 3.87396 0
M  V30 1656 H 155.807 2.00607 4.84621 0
M  V30 1657 H 157.281 0.427208 5.50344 0
M  V30 1658 H 157.758 -0.788587 4.32062 0
M  V30 1659 H 158.364 0.876054 4.1618 0
M  V30 1660 N 156.679 -1.44442 0.630414 0
M  V30 1661 C 157.611 -2.2892 -0.113347 0
M  V30 1662 C 158.624 -1.41243 -0.80959 0
M  V30 1663 O 159.813 -1.65402 -0.671156 0
M  V30 1664 C 156.913 -3.17594 -1.18266 0
M  V30 1665 C 156.086 -4.33682 -0.569073 0
M  V30 1666 C 155.145 -5.03397 -1.53226 0
M  V30 1667 O 154.171 -5.59438 -1.04967 0
M  V30 1668 N 155.373 -5.04783 -2.86661 0
M  V30 1669 H 158.138 -2.93392 0.611636 0
M  V30 1670 H 155.699 -1.54881 0.471523 0
M  V30 1671 H 157.691 -3.61097 -1.82732 0
M  V30 1672 H 156.261 -2.54876 -1.80988 0
M  V30 1673 H 155.481 -3.9338 0.254187 0
M  V30 1674 H 156.769 -5.08608 -0.139767 0
M  V30 1675 H 156.167 -4.60584 -3.28449 0
M  V30 1676 H 154.724 -5.52077 -3.46489 0
M  V30 1677 N 158.157 -0.370918 -1.53173 0
M  V30 1678 C 159.406 0.218249 -2.00516 0
M  V30 1679 C 159.719 1.49429 -1.26215 0
M  V30 1680 O 160.925 2.16239 -1.64174 0
M  V30 1681 C 159.381 0.43948 -3.57207 0
M  V30 1682 C 158.989 -0.822244 -4.4039 0
M  V30 1683 C 160.733 0.986012 -4.1289 0
M  V30 1684 C 158.64 -0.570304 -5.88644 0
M  V30 1685 H 157.57 0.0853333 -0.749156 0
M  V30 1686 H 160.221 -0.490483 -1.76823 0
M  V30 1687 H 158.603 1.20961 -3.77074 0
M  V30 1688 H 159.777 -1.59557 -4.32294 0
M  V30 1689 H 158.092 -1.29238 -3.95836 0
M  V30 1690 H 160.689 1.18991 -5.21292 0
M  V30 1691 H 161.032 1.94972 -3.6782 0
M  V30 1692 H 161.565 0.27592 -3.96842 0
M  V30 1693 H 158.304 -1.50449 -6.38001 0
M  V30 1694 H 157.824 0.164427 -5.99575 0
M  V30 1695 H 159.503 -0.19784 -6.46697 0
M  V30 1696 N 159.635 1.57281 -0.100228 0
M  V30 1697 C 160.865 1.98591 0.569681 0
M  V30 1698 C 161.273 0.978315 1.61943 0
M  V30 1699 O 160.616 -0.0396108 1.83657 0
M  V30 1700 C 160.678 3.36282 1.271 0
M  V30 1701 C 160.342 4.55488 0.371409 0
M  V30 1702 C 161.339 5.18491 -0.382504 0
M  V30 1703 C 159.024 5.01474 0.287965 0
M  V30 1704 C 161.018 6.25852 -1.20779 0
M  V30 1705 C 158.705 6.08701 -0.540965 0
M  V30 1706 C 159.703 6.70755 -1.28749 0
M  V30 1707 O 159.391 7.75914 -2.10269 0
M  V30 1708 H 159.123 0.65752 0.156982 0
M  V30 1709 H 161.677 2.0463 -0.177734 0
M  V30 1710 H 159.907 3.26941 2.0651 0
M  V30 1711 H 161.596 3.62005 1.83595 0
M  V30 1712 H 162.362 4.83891 -0.3278 0
M  V30 1713 H 158.241 4.52932 0.858689 0
M  V30 1714 H 161.785 6.74218 -1.79096 0
M  V30 1715 H 157.682 6.42732 -0.597131 0
M  V30 1716 H 158.45 7.92925 -2.03007 0
M  V30 1717 N 161.113 -0.173488 1.56642 0
M  V30 1718 C 162.36 -0.890465 1.81871 0
M  V30 1719 C 162.688 -1.82339 0.67696 0
M  V30 1720 O 161.943 -1.92795 -0.335926 0
M  V30 1721 C 162.242 -1.72069 3.13252 0
M  V30 1722 C 161.908 -0.936878 4.41059 0
M  V30 1723 C 160.57 -0.720545 4.75775 0
M  V30 1724 C 162.922 -0.386919 5.19762 0
M  V30 1725 C 160.25 0.0568829 5.86672 0
M  V30 1726 C 162.602 0.37741 6.31473 0
M  V30 1727 C 161.266 0.604563 6.64757 0
M  V30 1728 H 160.536 -0.325844 0.665512 0
M  V30 1729 H 163.183 -0.155527 1.90867 0
M  V30 1730 H 161.488 -2.52496 2.99588 0
M  V30 1731 H 163.185 -2.27844 3.29982 0
M  V30 1732 H 159.775 -1.11553 4.13828 0
M  V30 1733 H 163.959 -0.541398 4.93338 0
M  V30 1734 H 159.215 0.242635 6.10918 0
M  V30 1735 H 163.389 0.810825 6.91664 0
M  V30 1736 H 161.016 1.20885 7.50527 0
M  V30 1737 N 162.591 -1.51276 -0.441967 0
M  V30 1738 C 163.554 -1.7167 -1.51862 0
M  V30 1739 C 164.554 -0.586793 -1.49711 0
M  V30 1740 O 165.744 -0.854276 -1.51815 0
M  V30 1741 C 162.876 -1.76889 -2.91416 0
M  V30 1742 H 164.069 -2.67754 -1.35084 0
M  V30 1743 H 161.622 -1.41196 -0.670333 0
M  V30 1744 H 162.357 -0.826026 -3.13604 0
M  V30 1745 H 162.142 -2.59001 -2.94382 0
M  V30 1746 H 163.632 -1.94522 -3.69528 0
M  V30 1747 N 164.069 0.697108 -1.41344 0
M  V30 1748 C 165.317 1.45426 -1.40341 0
M  V30 1749 C 165.638 1.94996 -0.0128787 0
M  V30 1750 O 164.908 1.71599 0.945027 0
M  V30 1751 H 163.488 0.539594 -0.516573 0
M  V30 1752 H 166.15 0.825201 -1.76569 0
M  V30 1753 H 165.246 2.31817 -2.08967 0
M  V30 1754 N 165.547 1.27147 0.931209 0
M  V30 1755 C 166.479 1.05364 2.03546 0
M  V30 1756 C 167.492 0.0108438 1.62796 0
M  V30 1757 O 168.681 0.25202 1.76712 0
M  V30 1758 C 165.781 0.575566 3.33977 0
M  V30 1759 C 164.954 1.68985 4.03439 0
M  V30 1760 C 164.013 1.20813 5.12143 0
M  V30 1761 O 163.039 1.90712 5.363 0
M  V30 1762 N 164.241 0.0618851 5.80467 0
M  V30 1763 H 167.006 2.00454 2.22796 0
M  V30 1764 H 164.567 1.18666 1.10136 0
M  V30 1765 H 166.559 0.237264 4.04004 0
M  V30 1766 H 165.129 -0.282016 3.11325 0
M  V30 1767 H 164.349 2.19861 3.27192 0
M  V30 1768 H 165.637 2.4378 4.46597 0
M  V30 1769 H 165.035 -0.521621 5.6329 0
M  V30 1770 H 163.592 -0.217264 6.51438 0
M  V30 1771 N 167.025 -1.13721 1.09112 0
M  V30 1772 C 167.973 -2.21103 0.722219 0
M  V30 1773 C 168.967 -1.67147 -0.275374 0
M  V30 1774 O 170.173 -1.79477 -0.137176 0
M  V30 1775 H 166.548 -0.720445 0.215553 0
M  V30 1776 H 168.519 -2.49483 1.63709 0
M  V30 1777 C 167.268 -3.47352 0.15543 0
M  V30 1778 H 166.591 -3.89206 0.914246 0
M  V30 1779 H 168.031 -4.2395 -0.0647967 0
M  V30 1780 C 166.49 -3.1814 -1.10852 0
M  V30 1781 O 167.02 -3.36604 -2.19227 0
M  V30 1782 N 165.226 -2.72045 -1.02176 0
M  V30 1783 H 164.773 -2.57221 -0.139764 0
M  V30 1784 H 164.731 -2.52875 -1.8682 0
M  V30 1785 N 168.503 -0.877838 -1.30888 0
M  V30 1786 C 169.752 -0.488793 -1.95688 0
M  V30 1787 C 170.065 0.965485 -1.70111 0
M  V30 1788 O 171.271 1.46104 -2.28836 0
M  V30 1789 C 169.727 -0.823201 -3.50359 0
M  V30 1790 C 169.335 -2.29477 -3.84765 0
M  V30 1791 C 171.079 -0.503009 -4.21509 0
M  V30 1792 C 168.986 -2.57118 -5.32583 0
M  V30 1793 H 167.916 -0.179062 -0.732429 0
M  V30 1794 H 170.567 -1.07183 -1.48943 0
M  V30 1795 H 168.949 -0.169331 -3.95638 0
M  V30 1796 H 170.123 -2.99236 -3.5042 0
M  V30 1797 H 168.438 -2.58178 -3.267 0
M  V30 1798 H 171.035 -0.68665 -5.30273 0
M  V30 1799 H 171.378 0.557109 -4.12555 0
M  V30 1800 H 171.911 -1.11376 -3.8189 0
M  V30 1801 H 168.65 -3.61843 -5.4658 0
M  V30 1802 H 168.17 -1.91961 -5.68253 0
M  V30 1803 H 169.849 -2.42251 -5.99936 0
M  V30 1804 N 169.982 1.44106 -0.638065 0
M  V30 1805 C 171.207 2.0685 -0.150916 0
M  V30 1806 C 171.632 1.47417 1.16833 0
M  V30 1807 O 170.99 0.578264 1.71831 0
M  V30 1808 C 171.038 3.60555 -0.05708 0
M  V30 1809 O 170.142 4.00465 0.984972 0
M  V30 1810 H 169.483 0.658151 -0.0879399 0
M  V30 1811 H 172.013 1.84865 -0.876707 0
M  V30 1812 H 172.023 4.07789 0.131232 0
M  V30 1813 H 170.698 4.03193 -1.02021 0
M  V30 1814 H 169.275 3.64849 0.770672 0
M  V30 1815 N 171.46 0.379036 1.52974 0
M  V30 1816 C 172.685 -0.209353 2.06341 0
M  V30 1817 C 173.11 -1.40583 1.24972 0
M  V30 1818 O 172.468 -1.79246 0.272155 0
M  V30 1819 C 172.516 -0.567786 3.56102 0
M  V30 1820 O 171.62 -1.66318 3.77375 0
M  V30 1821 H 170.961 -0.0272919 0.663439 0
M  V30 1822 H 173.491 0.543536 1.97248 0
M  V30 1823 H 173.501 -0.835003 3.99364 0
M  V30 1824 H 172.176 0.307013 4.14765 0
M  V30 1825 H 170.753 -1.39048 3.46006 0
M  V30 1826 N 172.938 -1.57226 0.108567 0
M  V30 1827 C 174.166 -1.99179 -0.559954 0
M  V30 1828 C 174.581 -0.988022 -1.60884 0
M  V30 1829 O 173.938 0.0205512 -1.82488 0
M  V30 1830 C 173.989 -3.41159 -1.19552 0
M  V30 1831 O 173.71 -4.37694 -0.188577 0
M  V30 1832 C 175.211 -3.98188 -1.94837 0
M  V30 1833 H 172.431 -0.654228 -0.149088 0
M  V30 1834 H 174.975 -2.03598 0.19183 0
M  V30 1835 H 173.13 -3.37711 -1.89815 0
M  V30 1836 H 173.544 -5.20469 -0.649014 0
M  V30 1837 H 175.018 -4.99644 -2.34648 0
M  V30 1838 H 175.495 -3.3675 -2.81951 0
M  V30 1839 H 176.101 -4.0515 -1.2936 0
M  V30 1840 N 174.416 0.165178 -1.56732 0
M  V30 1841 C 175.646 0.894919 -1.86212 0
M  V30 1842 C 176.054 1.76066 -0.692627 0
M  V30 1843 O 175.397 1.80387 0.347303 0
M  V30 1844 C 175.459 1.8174 -3.10179 0
M  V30 1845 C 175.123 1.13064 -4.42793 0
M  V30 1846 C 176.12 0.493169 -5.17556 0
M  V30 1847 C 173.805 1.12556 -4.89527 0
M  V30 1848 C 175.799 -0.140209 -6.37246 0
M  V30 1849 C 173.486 0.488366 -6.09145 0
M  V30 1850 C 174.484 -0.143411 -6.82849 0
M  V30 1851 O 174.172 -0.77055 -8.00199 0
M  V30 1852 H 173.904 0.265114 -0.621844 0
M  V30 1853 H 176.458 0.168242 -2.0471 0
M  V30 1854 H 174.688 2.58455 -2.87642 0
M  V30 1855 H 176.377 2.4175 -3.26055 0
M  V30 1856 H 177.143 0.489023 -4.82528 0
M  V30 1857 H 173.022 1.60672 -4.32094 0
M  V30 1858 H 176.566 -0.633932 -6.94714 0
M  V30 1859 H 172.463 0.490116 -6.43637 0
M  V30 1860 H 173.231 -0.670408 -8.1575 0
M  V30 1861 N 175.894 1.51508 0.433938 0
M  V30 1862 C 177.143 1.63578 1.18005 0
M  V30 1863 C 177.456 0.359514 1.92268 0
M  V30 1864 O 178.662 0.359632 2.69108 0
M  V30 1865 C 177.118 2.88901 2.14626 0
M  V30 1866 C 176.726 4.23544 1.45995 0
M  V30 1867 C 178.47 3.10328 2.89649 0
M  V30 1868 C 176.377 5.40014 2.4112 0
M  V30 1869 H 175.307 0.609277 0.444182 0
M  V30 1870 H 177.958 1.77978 0.446773 0
M  V30 1871 H 176.34 2.68142 2.91403 0
M  V30 1872 H 177.514 4.54696 0.747532 0
M  V30 1873 H 175.829 4.08021 0.831115 0
M  V30 1874 H 178.426 3.94518 3.60915 0
M  V30 1875 H 178.769 2.23544 3.51189 0
M  V30 1876 H 179.302 3.31443 2.19978 0
M  V30 1877 H 176.041 6.29068 1.84264 0
M  V30 1878 H 175.561 5.13233 3.10406 0
M  V30 1879 H 177.24 5.72099 3.02177 0
M  V30 1880 N 177.372 -0.689602 1.41712 0
M  V30 1881 C 178.597 -1.48329 1.44959 0
M  V30 1882 C 179.022 -1.8801 0.0581283 0
M  V30 1883 O 178.38 -1.55026 -0.940035 0
M  V30 1884 C 178.428 -2.71835 2.36935 0
M  V30 1885 O 177.532 -3.69549 1.8305 0
M  V30 1886 H 176.873 -0.446199 0.491734 0
M  V30 1887 H 179.403 -0.847127 1.86239 0
M  V30 1888 H 179.413 -3.20076 2.53013 0
M  V30 1889 H 178.088 -2.42291 3.38035 0
M  V30 1890 H 176.665 -3.2851 1.76452 0
M  V30 1891 N 178.85 -1.27639 -0.924453 0
M  V30 1892 C 179.8 -1.07295 -2.01176 0
M  V30 1893 C 180.784 5.77352e-05 -1.609 0
M  V30 1894 O 181.976 -0.218855 -1.75642 0
M  V30 1895 C 179.105 -0.725592 -3.35544 0
M  V30 1896 C 178.191 -1.83691 -3.82254 0
M  V30 1897 N 178.582 -3.07697 -4.01443 0
M  V30 1898 C 176.88 -1.72433 -4.11319 0
M  V30 1899 C 177.581 -3.80037 -4.40394 0
M  V30 1900 N 176.557 -3.0782 -4.48049 0
M  V30 1901 H 180.359 -2.01399 -2.14046 0
M  V30 1902 H 177.873 -1.18401 -1.11153 0
M  V30 1903 H 179.87 -0.560959 -4.13109 0
M  V30 1904 H 178.53 0.207782 -3.24034 0
M  V30 1905 H 179.541 -3.43424 -3.8766 0
M  V30 1906 H 176.218 -0.862005 -4.08504 0
M  V30 1907 H 177.608 -4.86632 -4.63291 0
M  V30 1908 N 180.328 1.1314 -1.09713 0
M  V30 1909 C 181.258 2.20748 -0.761102 0
M  V30 1910 C 182.239 1.68061 0.262566 0
M  V30 1911 O 183.424 1.93765 0.129977 0
M  V30 1912 C 180.554 3.46812 -0.184054 0
M  V30 1913 C 179.508 4.12606 -1.13757 0
M  V30 1914 C 178.834 5.33031 -0.422083 0
M  V30 1915 C 180.134 4.59603 -2.48118 0
M  V30 1916 H 181.828 2.49113 -1.66082 0
M  V30 1917 H 179.374 1.19734 -0.799987 0
M  V30 1918 H 181.327 4.21353 0.0631215 0
M  V30 1919 H 180.051 3.17851 0.750868 0
M  V30 1920 H 178.71 3.40036 -1.37007 0
M  V30 1921 H 178.358 5.00335 0.517072 0
M  V30 1922 H 178.058 5.77999 -1.05788 0
M  V30 1923 H 179.582 6.10325 -0.183277 0
M  V30 1924 H 180.996 5.25552 -2.29059 0
M  V30 1925 H 179.393 5.15321 -3.07514 0
M  V30 1926 H 180.463 3.73971 -3.08665 0
M  V30 1927 N 181.806 0.884767 1.30421 0
M  V30 1928 C 182.736 0.367574 2.30589 0
M  V30 1929 C 183.717 -0.549464 1.60981 0
M  V30 1930 O 184.902 -0.46336 1.88591 0
M  V30 1931 C 182.032 -0.418944 3.44764 0
M  V30 1932 C 180.986 0.406316 4.26067 0
M  V30 1933 C 180.312 -0.506793 5.32293 0
M  V30 1934 C 181.612 1.64832 4.95608 0
M  V30 1935 H 183.306 1.20462 2.74097 0
M  V30 1936 H 180.852 0.580695 1.31772 0
M  V30 1937 H 182.805 -0.791395 4.13902 0
M  V30 1938 H 181.529 -1.28964 3.0006 0
M  V30 1939 H 180.188 0.760903 3.58617 0
M  V30 1940 H 179.836 -1.37519 4.83836 0
M  V30 1941 H 179.536 0.0415828 5.87585 0
M  V30 1942 H 181.06 -0.875764 6.04287 0
M  V30 1943 H 182.474 1.34646 5.57264 0
M  V30 1944 H 180.871 2.13688 5.60765 0
M  V30 1945 H 181.941 2.39284 4.21748 0
M  V30 1946 N 183.284 -1.43765 0.645699 0
M  V30 1947 C 184.561 -1.9541 0.0862963 0
M  V30 1948 C 184.941 -1.58725 -1.39175 0
M  V30 1949 O 184.289 -0.868581 -2.11348 0
M  V30 1950 C 184.499 -3.47488 0.324565 0
M  V30 1951 C 185.847 -4.24001 0.225497 0
M  V30 1952 O 186.871 -3.55274 0.256715 0
M  V30 1953 O 185.73 -5.46313 0.142801 0
M  V30 1954 H 182.824 -0.826882 -0.0139483 0
M  V30 1955 H 185.37 -1.53743 0.718415 0
M  V30 1956 H 184.142 -3.67289 1.3496 0
M  V30 1957 H 183.765 -3.96135 -0.340987 0
M  V30 1958 N 184.763 -0.387143 -1.52771 0
M  V30 1959 C 186.009 0.196025 -2.0185 0
M  V30 1960 C 186.342 1.46641 -1.27319 0
M  V30 1961 O 185.617 1.90889 -0.373032 0
M  V30 1962 C 185.9 0.466136 -3.5707 0
M  V30 1963 C 185.753 -0.819385 -4.42274 0
M  V30 1964 C 187.072 1.25768 -4.21747 0
M  V30 1965 H 184.191 0.0697708 -0.73369 0
M  V30 1966 H 186.833 -0.516286 -1.82851 0
M  V30 1967 H 184.983 1.07293 -3.7339 0
M  V30 1968 H 186.655 -1.4563 -4.37709 0
M  V30 1969 H 184.898 -1.43517 -4.09372 0
M  V30 1970 H 185.569 -0.585065 -5.48891 0
M  V30 1971 H 188.045 0.744167 -4.09391 0
M  V30 1972 H 186.921 1.41541 -5.30337 0
M  V30 1973 H 187.182 2.27228 -3.79236 0
M  V30 1974 N 186.241 1.57166 -0.116904 0
M  V30 1975 C 187.171 2.18222 0.830759 0
M  V30 1976 C 188.152 1.12167 1.27877 0
M  V30 1977 O 189.337 1.40394 1.34176 0
M  V30 1978 C 186.467 2.77996 2.08172 0
M  V30 1979 C 185.421 3.89614 1.77157 0
M  V30 1980 C 184.747 4.36187 3.09265 0
M  V30 1981 C 186.047 5.1181 1.04151 0
M  V30 1982 H 187.741 2.97664 0.321992 0
M  V30 1983 H 185.287 1.4318 0.153434 0
M  V30 1984 H 187.24 3.19366 2.74924 0
M  V30 1985 H 185.964 1.9584 2.6137 0
M  V30 1986 H 184.623 3.48816 1.12796 0
M  V30 1987 H 184.271 3.50893 3.60393 0
M  V30 1988 H 183.971 5.11455 2.89288 0
M  V30 1989 H 185.495 4.80207 3.77139 0
M  V30 1990 H 186.909 5.50214 1.61052 0
M  V30 1991 H 185.306 5.92648 0.942762 0
M  V30 1992 H 186.376 4.84892 0.0279022 0
M  V30 1993 N 187.719 -0.156864 1.56817 0
M  V30 1994 C 188.629 -1.2136 2.00771 0
M  V30 1995 C 189.645 -1.47598 0.921459 0
M  V30 1996 O 190.821 -1.59462 1.2302 0
M  V30 1997 C 187.886 -2.52943 2.37109 0
M  V30 1998 C 186.947 -2.34439 3.59634 0
M  V30 1999 C 186.18 -3.59748 3.94229 0
M  V30 2000 O 186.403 -4.65526 3.29609 0
M  V30 2001 O 185.337 -3.52998 4.8752 0
M  V30 2002 H 189.163 -0.870468 2.90958 0
M  V30 2003 H 186.748 -0.36484 1.44877 0
M  V30 2004 H 188.63 -3.30538 2.61386 0
M  V30 2005 H 187.305 -2.86806 1.5008 0
M  V30 2006 H 186.212 -1.54828 3.40557 0
M  V30 2007 H 187.545 -2.05496 4.4725 0
M  V30 2008 N 189.197 -1.51736 -0.425897 0
M  V30 2009 C 190.445 -1.64644 -1.17204 0
M  V30 2010 C 190.766 -0.370486 -1.91448 0
M  V30 2011 O 190.036 0.614088 -1.86026 0
M  V30 2012 H 188.616 -0.606819 -0.435638 0
M  V30 2013 H 191.278 -1.88713 -0.487177 0
M  V30 2014 H 190.374 -2.47958 -1.89534 0
M  V30 2015 N 190.675 0.682077 -1.42076 0
M  V30 2016 C 191.622 1.79578 -1.44984 0
M  V30 2017 C 192.592 1.6332 -0.302614 0
M  V30 2018 O 193.777 1.83978 -0.505633 0
M  V30 2019 C 190.917 3.1756 -1.35091 0
M  V30 2020 C 190.03 3.45156 -2.59791 0
M  V30 2021 C 189.165 4.72826 -2.42093 0
M  V30 2022 C 188.204 4.93433 -3.62202 0
M  V30 2023 N 187.341 6.12338 -3.43491 0
M  V30 2024 H 192.181 1.76427 -2.40161 0
M  V30 2025 H 189.718 0.861376 -1.19242 0
M  V30 2026 H 191.676 3.97287 -1.27354 0
M  V30 2027 H 190.306 3.19854 -0.435133 0
M  V30 2028 H 189.358 2.59736 -2.77923 0
M  V30 2029 H 190.67 3.5628 -3.49094 0
M  V30 2030 H 189.824 5.60631 -2.319 0
M  V30 2031 H 188.563 4.63973 -1.50268 0
M  V30 2032 H 187.568 4.04073 -3.72834 0
M  V30 2033 H 188.793 5.04136 -4.54998 0
M  V30 2034 H 186.739 6.04672 -2.54377 0
M  V30 2035 H 186.656 6.2429 -4.26377 0
M  V30 2036 H 187.924 7.02841 -3.37097 0
M  V30 2037 N 192.153 1.28127 0.917671 0
M  V30 2038 C 193.43 1.05761 1.64542 0
M  V30 2039 C 193.81 -0.404344 2.07191 0
M  V30 2040 O 193.158 -1.38963 1.81388 0
M  V30 2041 C 193.368 2.02857 2.83989 0
M  V30 2042 C 194.716 2.32786 3.551 0
M  V30 2043 O 195.74 2.0091 2.94132 0
M  V30 2044 O 194.599 2.87169 4.64969 0
M  V30 2045 H 191.693 0.403916 0.721652 0
M  V30 2046 H 194.239 1.39431 0.967322 0
M  V30 2047 H 193.011 3.01407 2.49538 0
M  V30 2048 H 192.634 1.69809 3.59514 0
M  V30 2049 N 193.631 -1.12557 1.10312 0
M  V30 2050 C 194.561 -2.20341 0.772798 0
M  V30 2051 C 195.542 -1.68198 -0.25365 0
M  V30 2052 O 196.727 -1.93831 -0.119699 0
M  V30 2053 C 193.857 -3.46709 0.202443 0
M  V30 2054 C 192.811 -4.11996 1.15943 0
M  V30 2055 C 192.137 -5.328 0.450345 0
M  V30 2056 C 193.437 -4.5828 2.50552 0
M  V30 2057 H 195.131 -2.48229 1.674 0
M  V30 2058 H 192.677 -1.19308 0.806326 0
M  V30 2059 H 194.63 -4.2138 -0.0407752 0
M  V30 2060 H 193.354 -3.18245 -0.734001 0
M  V30 2061 H 192.013 -3.39305 1.38808 0
M  V30 2062 H 191.661 -5.00602 -0.490531 0
M  V30 2063 H 191.361 -5.7743 1.08851 0
M  V30 2064 H 192.885 -6.10219 0.215642 0
M  V30 2065 H 194.299 -5.2433 2.31843 0
M  V30 2066 H 192.696 -5.13683 3.10242 0
M  V30 2067 H 193.766 -3.72329 3.10643 0
M  V30 2068 N 195.109 -0.891671 -1.2995 0
M  V30 2069 C 196.334 -0.527932 -2.00568 0
M  V30 2070 C 196.759 0.877969 -1.66353 0
M  V30 2071 O 196.117 1.58301 -0.883762 0
M  V30 2072 C 196.165 -0.717745 -3.53385 0
M  V30 2073 O 195.269 0.233376 -4.11739 0
M  V30 2074 H 194.61 -0.20722 -0.630837 0
M  V30 2075 H 197.14 -1.20105 -1.65638 0
M  V30 2076 H 197.15 -0.619307 -4.03272 0
M  V30 2077 H 195.825 -1.74276 -3.77625 0
M  V30 2078 H 194.402 0.0880706 -3.72796 0
M  V30 2079 N 196.587 1.43421 -0.653314 0
M  V30 2080 C 197.836 2.01032 -0.164076 0
M  V30 2081 C 198.149 1.52147 1.22926 0
M  V30 2082 O 199.355 2.02031 1.81371 0
M  V30 2083 C 197.811 3.59082 -0.24252 0
M  V30 2084 C 197.419 4.1696 -1.63855 0
M  V30 2085 C 199.163 4.24079 0.18911 0
M  V30 2086 C 197.07 5.67304 -1.67092 0
M  V30 2087 H 196 0.751798 -0.0575769 0
M  V30 2088 H 198.651 1.6439 -0.815362 0
M  V30 2089 H 197.033 3.93125 0.476276 0
M  V30 2090 H 198.207 3.94416 -2.38271 0
M  V30 2091 H 196.522 3.64335 -2.01616 0
M  V30 2092 H 199.119 5.34381 0.184775 0
M  V30 2093 H 199.462 3.98005 1.22056 0
M  V30 2094 H 199.995 3.94918 -0.477938 0
M  V30 2095 H 196.734 5.98145 -2.68146 0
M  V30 2096 H 196.254 5.91904 -0.970014 0
M  V30 2097 H 197.933 6.31344 -1.4147 0
M  V30 2098 N 198.065 0.39524 1.52563 0
M  V30 2099 C 199.013 -0.451859 2.28169 0
M  V30 2100 C 200.007 -1.05792 1.32304 0
M  V30 2101 O 201.213 -0.997718 1.49818 0
M  V30 2102 H 197.588 -0.164481 0.733792 0
M  V30 2103 H 199.559 0.207199 2.9768 0
M  V30 2104 C 198.308 -1.56385 3.10546 0
M  V30 2105 H 197.631 -1.10682 3.84174 0
M  V30 2106 H 199.071 -2.13067 3.66577 0
M  V30 2107 C 197.53 -2.52328 2.23231 0
M  V30 2108 O 198.06 -3.5588 1.86312 0
M  V30 2109 N 196.266 -2.22209 1.87274 0
M  V30 2110 H 195.813 -1.38033 2.17496 0
M  V30 2111 H 195.771 -2.86652 1.29143 0
M  V30 2112 N 199.544 -1.57102 0.125237 0
M  V30 2113 C 200.79 -1.95697 -0.532035 0
M  V30 2114 C 201.123 -1.009 -1.6593 0
M  V30 2115 O 200.398 -0.047347 -1.94442 0
M  V30 2116 C 200.681 -3.44181 -1.05884 0
M  V30 2117 C 200.534 -4.49752 0.0654392 0
M  V30 2118 C 201.853 -3.94655 -1.9477 0
M  V30 2119 H 198.972 -0.711571 -0.191925 0
M  V30 2120 H 201.614 -1.88923 0.20206 0
M  V30 2121 H 199.764 -3.50085 -1.68442 0
M  V30 2122 H 201.436 -4.55943 0.700982 0
M  V30 2123 H 199.679 -4.27653 0.727709 0
M  V30 2124 H 200.35 -5.50924 -0.344505 0
M  V30 2125 H 202.826 -3.91094 -1.42074 0
M  V30 2126 H 201.702 -4.99057 -2.28546 0
M  V30 2127 H 201.963 -3.35718 -2.87656 0
M  V30 2128 N 201.022 0.148545 -1.56898 0
M  V30 2129 C 202.271 0.85984 -1.82454 0
M  V30 2130 C 202.584 1.82406 -0.706229 0
M  V30 2131 O 203.79 2.57938 -0.847349 0
M  V30 2132 C 202.246 1.57967 -3.2338 0
M  V30 2133 C 201.854 0.65794 -4.43142 0
M  V30 2134 C 203.598 2.27784 -3.58211 0
M  V30 2135 C 201.505 1.3793 -5.75091 0
M  V30 2136 H 200.435 0.324834 -0.68044 0
M  V30 2137 H 203.086 0.112588 -1.83154 0
M  V30 2138 H 201.468 2.37249 -3.17063 0
M  V30 2139 H 202.642 -0.0995497 -4.60692 0
M  V30 2140 H 200.957 0.0682643 -4.16344 0
M  V30 2141 H 203.554 2.8239 -4.54048 0
M  V30 2142 H 203.897 3.04204 -2.84193 0
M  V30 2143 H 204.43 1.55421 -3.66182 0
M  V30 2144 H 201.169 0.656982 -6.52199 0
M  V30 2145 H 200.689 2.10954 -5.61479 0
M  V30 2146 H 202.368 1.92063 -6.17835 0
M  V30 2147 N 202.5 1.5196 0.417844 0
M  V30 2148 C 203.725 1.69717 1.1921 0
M  V30 2149 C 204.15 0.402148 1.83751 0
M  V30 2150 O 203.508 -0.639593 1.69643 0
M  V30 2151 C 203.556 2.82794 2.2374 0
M  V30 2152 O 202.66 2.47756 3.29683 0
M  V30 2153 H 202.001 0.565263 0.348387 0
M  V30 2154 H 204.531 1.98621 0.490985 0
M  V30 2155 H 204.541 3.07452 2.68212 0
M  V30 2156 H 203.216 3.76756 1.76146 0
M  V30 2157 H 201.793 2.33739 2.90552 0
M  V30 2158 N 203.978 -0.674533 1.42435 0
M  V30 2159 C 204.925 -1.78807 1.45934 0
M  V30 2160 C 205.895 -1.63157 0.311271 0
M  V30 2161 O 207.08 -1.83707 0.515383 0
M  V30 2162 C 204.22 -3.16839 1.36773 0
M  V30 2163 C 203.333 -3.43774 2.61617 0
M  V30 2164 C 202.468 -4.71536 2.44597 0
M  V30 2165 C 201.507 -4.91505 3.64814 0
M  V30 2166 N 200.644 -6.10508 3.46734 0
M  V30 2167 H 205.484 -1.75151 2.41093 0
M  V30 2168 H 203.021 -0.85504 1.19697 0
M  V30 2169 H 204.979 -3.96606 1.29459 0
M  V30 2170 H 203.609 -3.19619 0.452089 0
M  V30 2171 H 202.661 -2.58259 2.79297 0
M  V30 2172 H 203.973 -3.54423 3.50978 0
M  V30 2173 H 203.127 -5.59393 2.3487 0
M  V30 2174 H 201.866 -4.6317 1.52726 0
M  V30 2175 H 200.871 -4.0209 3.74972 0
M  V30 2176 H 202.096 -5.01716 4.57665 0
M  V30 2177 H 200.042 -6.03315 2.5758 0
M  V30 2178 H 199.959 -6.2202 4.29682 0
M  V30 2179 H 201.227 -7.01044 3.40819 0
M  V30 2180 N 205.456 -1.28612 -0.910864 0
M  V30 2181 C 206.681 -1.1891 -1.69927 0
M  V30 2182 C 207.106 0.248372 -1.86453 0
M  V30 2183 O 206.464 1.17961 -1.37676 0
M  V30 2184 C 206.512 -1.89578 -3.06745 0
M  V30 2185 O 205.616 -1.20521 -3.94396 0
M  V30 2186 H 204.957 -0.412632 -0.520222 0
M  V30 2187 H 207.487 -1.69985 -1.1387 0
M  V30 2188 H 207.497 -1.97597 -3.56958 0
M  V30 2189 H 206.172 -2.94136 -2.94035 0
M  V30 2190 H 204.749 -1.20684 -3.52831 0
M  V30 2191 N 206.934 1.1197 -1.10907 0
M  V30 2192 C 208.182 1.83225 -0.852819 0
M  V30 2193 C 208.503 1.84769 0.623341 0
M  V30 2194 O 207.773 1.3143 1.45269 0
M  V30 2195 H 206.353 0.67849 -0.312507 0
M  V30 2196 H 209.015 1.3556 -1.40033 0
M  V30 2197 H 208.111 2.87265 -1.22005 0
M  V30 2198 N 208.412 0.89855 1.29475 0
M  V30 2199 C 209.64 0.539261 1.99749 0
M  V30 2200 C 210.055 -0.875716 1.67262 0
M  V30 2201 O 209.412 -1.57786 0.917049 0
M  V30 2202 C 209.463 0.72061 3.54245 0
M  V30 2203 O 209.184 2.07989 3.8558 0
M  V30 2204 C 210.685 0.366118 4.41786 0
M  V30 2205 H 207.905 0.207047 0.638258 0
M  V30 2206 H 210.449 1.20758 1.65039 0
M  V30 2207 H 208.604 0.0994862 3.87272 0
M  V30 2208 H 209.018 2.10841 4.80257 0
M  V30 2209 H 210.492 0.543848 5.49314 0
M  V30 2210 H 210.969 -0.696763 4.33638 0
M  V30 2211 H 211.575 0.964135 4.14228 0
M  V30 2212 N 209.89 -1.43072 0.660911 0
M  V30 2213 C 211.118 -2.06067 0.185422 0
M  V30 2214 C 211.533 -1.49582 -1.15198 0
M  V30 2215 O 210.89 -0.630134 -1.71276 0
M  V30 2216 C 210.941 -3.61371 0.0966523 0
M  V30 2217 O 210.662 -4.15758 1.38119 0
M  V30 2218 C 212.163 -4.41455 -0.403996 0
M  V30 2219 H 209.383 -0.664459 0.0934604 0
M  V30 2220 H 211.927 -1.83447 0.90373 0
M  V30 2221 H 210.082 -3.8315 -0.572259 0
M  V30 2222 H 210.496 -5.09499 1.24542 0
M  V30 2223 H 211.97 -5.50437 -0.415045 0
M  V30 2224 H 212.447 -4.15036 -1.43674 0
M  V30 2225 H 213.053 -4.24663 0.232691 0
M  V30 2226 N 211.368 -0.403325 -1.52352 0
M  V30 2227 C 212.596 0.174012 -2.06167 0
M  V30 2228 C 213.011 1.39347 -1.27388 0
M  V30 2229 O 212.368 1.79597 -0.324201 0
M  V30 2230 C 212.419 0.530223 -3.5759 0
M  V30 2231 O 212.14 -0.640806 -4.33388 0
M  V30 2232 C 213.641 1.16192 -4.27802 0
M  V30 2233 H 210.861 0.0229464 -0.670608 0
M  V30 2234 H 213.405 -0.572604 -1.9632 0
M  V30 2235 H 211.56 1.22673 -3.67464 0
M  V30 2236 H 211.974 -0.344851 -5.23365 0
M  V30 2237 H 213.448 1.36141 -5.34948 0
M  V30 2238 H 213.925 2.13335 -3.83907 0
M  V30 2239 H 214.531 0.505775 -4.22282 0
M  V30 2240 N 212.846 1.57033 -0.133567 0
M  V30 2241 C 213.756 2.19632 0.824564 0
M  V30 2242 C 214.772 1.17666 1.28182 0
M  V30 2243 O 215.948 1.50193 1.3418 0
M  V30 2244 C 213.013 2.79499 2.05137 0
M  V30 2245 C 212.074 3.96548 1.64464 0
M  V30 2246 C 211.307 4.5355 2.81297 0
M  V30 2247 O 211.53 4.09438 3.97136 0
M  V30 2248 O 210.464 5.44018 2.57542 0
M  V30 2249 H 214.29 3.01991 0.321766 0
M  V30 2250 H 211.875 1.49112 0.0927889 0
M  V30 2251 H 213.757 3.17602 2.7696 0
M  V30 2252 H 212.432 2.00162 2.54395 0
M  V30 2253 H 211.339 3.63186 0.897048 0
M  V30 2254 H 212.672 4.77364 1.19934 0
M  V30 2255 N 214.325 -0.140222 1.56975 0
M  V30 2256 C 215.736 -0.699596 1.73097 0
M  V30 2257 C 216.087 -1.8134 0.749022 0
M  V30 2258 O 215.212 -2.16241 -0.0828503 0
M  V30 2259 C 215.807 -1.27582 3.1386 0
M  V30 2260 C 214.366 -1.78169 3.31561 0
M  V30 2261 C 213.513 -0.672855 2.69013 0
M  V30 2262 H 216.464 0.0855115 1.58469 0
M  V30 2263 H 216.485 -2.14561 3.14235 0
M  V30 2264 H 215.997 -0.464955 3.85305 0
M  V30 2265 H 214.098 -2.61801 2.65124 0
M  V30 2266 H 214.211 -1.90574 4.39566 0
M  V30 2267 H 212.575 -1.10118 2.29665 0
M  V30 2268 H 213.358 0.126679 3.43066 0
M  V30 2269 N 215.803 -1.52179 -0.40978 0
M  V30 2270 C 216.766 -1.74853 -1.48186 0
M  V30 2271 C 217.766 -0.618417 -1.48433 0
M  V30 2272 O 218.956 -0.886286 -1.49969 0
M  V30 2273 C 216.088 -1.8303 -2.87598 0
M  V30 2274 H 217.281 -2.70559 -1.29374 0
M  V30 2275 H 214.834 -1.42586 -0.640233 0
M  V30 2276 H 215.569 -0.89236 -3.11781 0
M  V30 2277 H 215.354 -2.65187 -2.88822 0
M  V30 2278 H 216.844 -2.02316 -3.65319 0
M  V30 2279 N 217.281 0.66697 -1.42791 0
M  V30 2280 C 218.53 1.42278 -1.42968 0
M  V30 2281 C 218.843 1.9553 -0.0524489 0
M  V30 2282 O 220.049 2.71414 0.068363 0
M  V30 2283 C 218.505 2.57418 -2.51524 0
M  V30 2284 C 218.113 2.10832 -3.9529 0
M  V30 2285 C 219.857 3.34878 -2.60877 0
M  V30 2286 C 217.764 3.23101 -4.95338 0
M  V30 2287 H 216.694 0.534533 -0.531781 0
M  V30 2288 H 219.345 0.721302 -1.68729 0
M  V30 2289 H 217.727 3.29971 -2.18941 0
M  V30 2290 H 218.901 1.4538 -4.37266 0
M  V30 2291 H 217.216 1.46289 -3.89857 0
M  V30 2292 H 219.813 4.18505 -3.32802 0
M  V30 2293 H 220.156 3.81993 -1.6549 0
M  V30 2294 H 220.689 2.69398 -2.92693 0
M  V30 2295 H 217.428 2.80969 -5.9223 0
M  V30 2296 H 216.948 3.87309 -4.57987 0
M  V30 2297 H 218.627 3.88447 -5.17415 0
M  V30 2298 N 218.759 1.29093 0.90403 0
M  V30 2299 C 219.722 1.1386 1.98919 0
M  V30 2300 C 220.722 0.0753457 1.60623 0
M  V30 2301 O 221.912 0.321931 1.71199 0
M  V30 2302 C 219.044 0.740198 3.32767 0
M  V30 2303 H 220.237 2.10246 2.13861 0
M  V30 2304 H 217.79 1.12218 1.08797 0
M  V30 2305 H 218.525 -0.223997 3.23525 0
M  V30 2306 H 218.31 1.50838 3.61926 0
M  V30 2307 H 219.8 0.656546 4.12407 0
M  V30 2308 N 220.237 -1.11381 1.11499 0
M  V30 2309 C 221.484 -1.83132 0.864231 0
M  V30 2310 C 221.812 -1.84683 -0.610114 0
M  V30 2311 O 221.067 -1.29589 -1.46646 0
M  V30 2312 C 221.366 -3.30026 1.37177 0
M  V30 2313 C 221.032 -3.48634 2.85946 0
M  V30 2314 C 219.694 -3.53421 3.26569 0
M  V30 2315 C 222.046 -3.54837 3.81759 0
M  V30 2316 C 219.374 -3.61967 4.61733 0
M  V30 2317 C 221.726 -3.64915 5.1674 0
M  V30 2318 C 220.39 -3.67962 5.5692 0
M  V30 2319 H 219.66 -0.670127 0.316245 0
M  V30 2320 H 222.307 -1.31354 1.3935 0
M  V30 2321 H 220.612 -3.84304 0.762753 0
M  V30 2322 H 222.309 -3.84034 1.15408 0
M  V30 2323 H 218.899 -3.45579 2.53521 0
M  V30 2324 H 223.083 -3.50399 3.51474 0
M  V30 2325 H 218.339 -3.62603 4.92269 0
M  V30 2326 H 222.513 -3.68658 5.90816 0
M  V30 2327 H 220.14 -3.74336 6.61647 0
M  V30 2328 N 221.715 -0.905404 -1.28997 0
M  V30 2329 C 223.131 -0.60233 -1.47798 0
M  V30 2330 C 223.331 0.854645 -1.82478 0
M  V30 2331 O 222.387 1.63439 -1.92468 0
M  V30 2332 C 223.7 -1.53306 -2.58685 0
M  V30 2333 C 225.248 -1.53887 -2.72558 0
M  V30 2334 C 225.723 -2.45602 -3.86579 0
M  V30 2335 N 227.214 -2.43681 -3.93921 0
M  V30 2336 C 227.949 -3.11347 -4.81509 0
M  V30 2337 N 227.445 -3.88313 -5.73746 0
M  V30 2338 N 229.238 -3.00476 -4.75048 0
M  V30 2339 H 221.389 -1.84765 -1.04764 0
M  V30 2340 H 223.652 -0.792025 -0.520961 0
M  V30 2341 H 223.358 -2.57141 -2.39941 0
M  V30 2342 H 223.232 -1.25787 -3.55609 0
M  V30 2343 H 225.619 -0.507941 -2.90696 0
M  V30 2344 H 225.7 -1.85447 -1.76191 0
M  V30 2345 H 225.344 -3.48792 -3.69197 0
M  V30 2346 H 225.274 -2.11349 -4.82327 0
M  V30 2347 H 227.765 -1.87767 -3.27951 0
M  V30 2348 H 228.078 -4.36985 -6.37389 0
M  V30 2349 H 226.423 -3.92419 -5.73614 0
M  V30 2350 H 229.614 -2.39858 -4.01977 0
M  V30 2351 H 229.787 -3.53485 -5.43095 0
M  V30 2352 N 223.193 1.4272 -0.668489 0
M  V30 2353 C 224.442 2.00846 -0.185389 0
M  V30 2354 C 224.755 1.53442 1.21305 0
M  V30 2355 O 225.961 2.03944 1.79218 0
M  V30 2356 C 224.417 3.58805 -0.280591 0
M  V30 2357 C 224.025 4.15198 -1.68268 0
M  V30 2358 C 225.769 4.24255 0.14412 0
M  V30 2359 C 223.676 5.655 -1.73099 0
M  V30 2360 H 222.606 0.751145 -0.0655475 0
M  V30 2361 H 225.257 1.63516 -0.832752 0
M  V30 2362 H 223.639 3.93608 0.434553 0
M  V30 2363 H 224.813 3.91866 -2.42441 0
M  V30 2364 H 223.128 3.62176 -2.05469 0
M  V30 2365 H 225.725 5.34547 0.128086 0
M  V30 2366 H 226.068 3.99277 1.17827 0
M  V30 2367 H 226.601 3.94389 -0.519798 0
M  V30 2368 H 223.34 5.95268 -2.74475 0
M  V30 2369 H 222.86 5.90842 -1.03274 0
M  V30 2370 H 224.539 6.29808 -1.48158 0
M  V30 2371 N 224.671 0.411399 1.52136 0
M  V30 2372 C 225.918 -0.163645 2.01838 0
M  V30 2373 C 226.246 -1.4495 1.29691 0
M  V30 2374 O 225.501 -1.91725 0.392431 0
M  V30 2375 C 225.8 -0.455872 3.54481 0
M  V30 2376 C 225.466 0.741055 4.44769 0
M  V30 2377 C 224.128 1.06936 4.69167 0
M  V30 2378 C 226.48 1.54075 4.97906 0
M  V30 2379 C 223.808 2.19851 5.43951 0
M  V30 2380 C 226.16 2.66067 5.73926 0
M  V30 2381 C 224.824 2.99381 5.96596 0
M  V30 2382 H 224.094 -0.0598821 0.738576 0
M  V30 2383 H 226.741 0.553283 1.83333 0
M  V30 2384 H 225.046 -1.2544 3.71177 0
M  V30 2385 H 226.743 -0.913802 3.90449 0
M  V30 2386 H 223.333 0.475192 4.25958 0
M  V30 2387 H 227.517 1.30033 4.78963 0
M  V30 2388 H 222.773 2.46006 5.59724 0
M  V30 2389 H 226.947 3.28419 6.14096 0
M  V30 2390 H 224.574 3.86992 6.54325 0
M  V30 2391 N 226.149 -1.5696 0.141893 0
M  V30 2392 C 227.565 -1.58151 -0.21456 0
M  V30 2393 C 227.765 -1.1559 -1.65049 0
M  V30 2394 O 226.821 -0.853832 -2.37626 0
M  V30 2395 C 228.134 -3.00674 0.0395576 0
M  V30 2396 C 229.682 -3.1299 -0.0245529 0
M  V30 2397 C 230.157 -4.57554 0.202167 0
M  V30 2398 N 231.648 -4.62961 0.148919 0
M  V30 2399 C 232.383 -5.7262 0.298924 0
M  V30 2400 N 231.879 -6.90947 0.50637 0
M  V30 2401 N 233.672 -5.61601 0.236886 0
M  V30 2402 H 225.823 -1.8292 1.07953 0
M  V30 2403 H 228.086 -0.846425 0.42693 0
M  V30 2404 H 227.792 -3.36183 1.03315 0
M  V30 2405 H 227.666 -3.70981 -0.682143 0
M  V30 2406 H 230.053 -2.77326 -1.00869 0
M  V30 2407 H 230.134 -2.4518 0.729396 0
M  V30 2408 H 229.778 -4.93922 1.18338 0
M  V30 2409 H 229.708 -5.23484 -0.572044 0
M  V30 2410 H 232.199 -3.77899 -0.00697015 0
M  V30 2411 H 232.512 -7.7038 0.611076 0
M  V30 2412 H 230.857 -6.92878 0.542628 0
M  V30 2413 H 234.048 -4.68039 0.0756209 0
M  V30 2414 H 234.221 -6.47015 0.357227 0
M  V30 2415 N 227.627 0.131896 -1.57047 0
M  V30 2416 C 228.904 0.871495 -1.75112 0
M  V30 2417 C 229.284 1.9866 -0.713949 0
M  V30 2418 O 228.632 2.26965 0.264447 0
M  V30 2419 C 228.842 1.40007 -3.19686 0
M  V30 2420 C 230.19 1.85752 -3.81813 0
M  V30 2421 O 231.214 1.49715 -3.23209 0
M  V30 2422 O 230.073 2.5226 -4.84796 0
M  V30 2423 H 227.167 0.412919 -0.716538 0
M  V30 2424 H 229.713 0.116641 -1.69299 0
M  V30 2425 H 228.485 0.599404 -3.86682 0
M  V30 2426 H 228.108 2.218 -3.29986 0
M  V30 2427 N 229.106 1.52395 0.401703 0
M  V30 2428 C 230.336 1.70429 1.1678 0
M  V30 2429 C 230.744 0.416702 1.84554 0
M  V30 2430 O 230.087 -0.617697 1.73003 0
M  V30 2431 C 230.149 2.78919 2.26814 0
M  V30 2432 C 229.813 4.20437 1.79113 0
M  V30 2433 C 230.81 5.04028 1.27482 0
M  V30 2434 C 228.495 4.66704 1.85722 0
M  V30 2435 C 230.489 6.31961 0.830913 0
M  V30 2436 C 228.176 5.94625 1.40942 0
M  V30 2437 C 229.174 6.77082 0.897128 0
M  V30 2438 O 228.862 8.02607 0.455822 0
M  V30 2439 H 228.594 0.574272 0.356634 0
M  V30 2440 H 231.148 1.99767 0.477724 0
M  V30 2441 H 229.378 2.44973 2.99207 0
M  V30 2442 H 231.067 2.8548 2.88541 0
M  V30 2443 H 231.833 4.69471 1.21744 0
M  V30 2444 H 227.712 4.0262 2.24539 0
M  V30 2445 H 231.256 6.96271 0.430368 0
M  V30 2446 H 227.153 6.28688 1.46362 0
M  V30 2447 H 227.921 8.16453 0.578457 0
M  V30 2448 N 230.584 -0.659388 1.43143 0
M  V30 2449 C 231.517 -1.78425 1.42267 0
M  V30 2450 C 232.495 -1.60085 0.284894 0
M  V30 2451 O 233.679 -1.82351 0.477527 0
M  V30 2452 C 230.806 -3.15642 1.22833 0
M  V30 2453 C 229.852 -3.52698 2.39806 0
M  V30 2454 S 230.685 -3.53372 4.02353 0
M  V30 2455 C 231.841 -4.93256 3.85291 0
M  V30 2456 H 232.074 -1.78897 2.37452 0
M  V30 2457 H 229.607 -0.831469 1.301 0
M  V30 2458 H 231.565 -3.94838 1.12308 0
M  V30 2459 H 230.226 -3.12739 0.29207 0
M  V30 2460 H 229.419 -4.52475 2.21996 0
M  V30 2461 H 229.021 -2.80899 2.46925 0
M  V30 2462 H 231.313 -5.81751 3.47235 0
M  V30 2463 H 232.256 -5.16115 4.84799 0
M  V30 2464 H 232.664 -4.665 3.17865 0
M  V30 2465 N 232.062 -1.29571 -0.897171 0
M  V30 2466 C 232.972 -1.16808 -2.03453 0
M  V30 2467 C 233.988 -0.0907471 -1.73763 0
M  V30 2468 O 235.164 -0.303312 -1.99103 0
M  V30 2469 C 232.229 -0.848264 -3.36163 0
M  V30 2470 C 231.29 -2.0097 -3.79354 0
M  V30 2471 C 230.523 -1.70505 -5.05731 0
M  V30 2472 O 230.746 -0.62718 -5.66941 0
M  V30 2473 O 229.68 -2.5538 -5.45036 0
M  V30 2474 H 233.506 -2.12325 -2.17144 0
M  V30 2475 H 231.091 -1.09047 -1.02123 0
M  V30 2476 H 232.973 -0.684581 -4.15802 0
M  V30 2477 H 231.648 0.0771071 -3.23608 0
M  V30 2478 H 230.555 -2.22863 -3.00471 0
M  V30 2479 H 231.888 -2.91636 -3.96496 0
M  V30 2480 N 233.54 1.10788 -1.12088 0
M  V30 2481 C 234.487 2.17025 -0.785407 0
M  V30 2482 C 235.457 1.64265 0.246191 0
M  V30 2483 O 236.642 1.90412 0.121584 0
M  V30 2484 C 233.782 3.44249 -0.242177 0
M  V30 2485 C 232.895 4.1098 -1.33115 0
M  V30 2486 C 232.03 5.25911 -0.747741 0
M  V30 2487 C 231.069 5.84538 -1.81609 0
M  V30 2488 N 230.206 6.90853 -1.25167 0
M  V30 2489 H 235.046 2.45066 -1.69548 0
M  V30 2490 H 232.583 1.20297 -0.846582 0
M  V30 2491 H 234.541 4.17101 0.0908026 0
M  V30 2492 H 233.171 3.16571 0.631072 0
M  V30 2493 H 232.223 3.36133 -1.78097 0
M  V30 2494 H 233.535 4.50601 -2.13917 0
M  V30 2495 H 232.689 6.056 -0.365216 0
M  V30 2496 H 231.428 4.87614 0.0915188 0
M  V30 2497 H 230.433 5.03522 -2.20785 0
M  V30 2498 H 231.658 6.249 -2.6585 0
M  V30 2499 H 229.604 6.54562 -0.434174 0
M  V30 2500 H 229.521 7.29166 -1.99633 0
M  V30 2501 H 230.789 7.7433 -0.896259 0
M  V30 2502 N 235.018 0.912232 1.28515 0
M  V30 2503 C 235.965 0.397954 2.27343 0
M  V30 2504 C 236.935 -0.526766 1.57526 0
M  V30 2505 O 238.12 -0.449292 1.85435 0
M  V30 2506 C 235.26 -0.357263 3.43246 0
M  V30 2507 C 234.373 0.599788 4.27816 0
M  V30 2508 C 233.508 -0.173725 5.30916 0
M  V30 2509 C 232.547 0.777039 6.07148 0
M  V30 2510 N 231.684 0.0371398 7.0209 0
M  V30 2511 H 236.524 1.24577 2.70711 0
M  V30 2512 H 234.061 0.625612 1.33133 0
M  V30 2513 H 236.019 -0.8113 4.09236 0
M  V30 2514 H 234.649 -1.16943 3.00872 0
M  V30 2515 H 233.701 1.17235 3.61884 0
M  V30 2516 H 235.013 1.32704 4.80823 0
M  V30 2517 H 234.167 -0.688394 6.02782 0
M  V30 2518 H 232.906 -0.934041 4.78672 0
M  V30 2519 H 231.911 1.3031 5.34134 0
M  V30 2520 H 233.136 1.53689 6.61481 0
M  V30 2521 H 231.082 -0.705213 6.52198 0
M  V30 2522 H 230.999 0.704249 7.52713 0
M  V30 2523 H 232.267 -0.457383 7.78157 0
M  V30 2524 N 236.496 -1.42363 0.676048 0
M  V30 2525 C 237.726 -2.05561 0.206967 0
M  V30 2526 C 238.134 -1.50887 -1.14148 0
M  V30 2527 O 237.477 -0.643933 -1.72044 0
M  V30 2528 C 237.539 -3.5944 0.0659508 0
M  V30 2529 C 237.203 -4.36812 1.34331 0
M  V30 2530 C 238.2 -4.67383 2.27704 0
M  V30 2531 C 235.885 -4.76429 1.59125 0
M  V30 2532 C 237.879 -5.36509 3.44147 0
M  V30 2533 C 235.566 -5.45294 2.75857 0
M  V30 2534 C 236.564 -5.75259 3.68193 0
M  V30 2535 O 236.252 -6.42712 4.82883 0
M  V30 2536 H 235.984 -0.668872 0.0979084 0
M  V30 2537 H 238.538 -1.83467 0.923531 0
M  V30 2538 H 236.768 -3.80197 -0.706204 0
M  V30 2539 H 238.457 -4.0427 -0.363418 0
M  V30 2540 H 239.223 -4.37275 2.09799 0
M  V30 2541 H 235.102 -4.52498 0.881258 0
M  V30 2542 H 238.646 -5.59814 4.16238 0
M  V30 2543 H 234.543 -5.7482 2.93688 0
M  V30 2544 H 235.311 -6.61204 4.82444 0
M  V30 2545 N 237.974 -0.419461 -1.51915 0
M  V30 2546 C 239.222 0.152637 -2.01523 0
M  V30 2547 C 239.543 1.44762 -1.30649 0
M  V30 2548 O 238.813 1.90997 -0.435535 0
M  V30 2549 H 237.393 0.0593966 -0.744635 0
M  V30 2550 H 240.055 -0.558073 -1.86739 0
M  V30 2551 H 239.151 0.341369 -3.10227 0
M  V30 2552 N 239.452 1.56882 -0.150215 0
M  V30 2553 C 240.399 2.16922 0.788244 0
M  V30 2554 C 241.369 1.10303 1.24187 0
M  V30 2555 O 242.554 1.38359 1.31383 0
M  V30 2556 C 239.694 2.79754 2.02068 0
M  V30 2557 C 238.807 4.00775 1.61257 0
M  V30 2558 C 237.942 4.51595 2.79705 0
M  V30 2559 C 236.981 5.65074 2.35282 0
M  V30 2560 N 236.118 6.10499 3.4675 0
M  V30 2561 H 240.958 2.96779 0.269444 0
M  V30 2562 H 238.495 1.46599 0.12128 0
M  V30 2563 H 240.453 3.14329 2.74323 0
M  V30 2564 H 239.083 2.02536 2.51354 0
M  V30 2565 H 238.135 3.72158 0.787553 0
M  V30 2566 H 239.447 4.82978 1.24633 0
M  V30 2567 H 238.601 4.88242 3.60145 0
M  V30 2568 H 237.34 3.68406 3.19576 0
M  V30 2569 H 236.345 5.28 1.53283 0
M  V30 2570 H 237.57 6.50052 1.96493 0
M  V30 2571 H 235.516 5.30243 3.86236 0
M  V30 2572 H 235.433 6.87637 3.14152 0
M  V30 2573 H 236.701 6.51791 4.27537 0
M  V30 2574 N 240.93 -0.123565 1.57115 0
M  V30 2575 C 241.84 -1.17074 2.033 0
M  V30 2576 C 242.856 -1.4561 0.952559 0
M  V30 2577 O 244.032 -1.56817 1.26374 0
M  V30 2578 C 241.097 -2.47857 2.42421 0
M  V30 2579 C 240.158 -2.26758 3.64526 0
M  V30 2580 C 239.391 -3.51305 4.01771 0
M  V30 2581 O 239.614 -4.5843 3.39409 0
M  V30 2582 O 238.548 -3.42578 4.94898 0
M  V30 2583 H 242.374 -0.808555 2.92739 0
M  V30 2584 H 239.959 -0.334027 1.45618 0
M  V30 2585 H 241.841 -3.2492 2.68338 0
M  V30 2586 H 240.516 -2.83558 1.5613 0
M  V30 2587 H 239.423 -1.47569 3.43765 0
M  V30 2588 H 240.756 -1.95963 4.51508 0
M  V30 2589 N 242.408 -1.52605 -0.393616 0
M  V30 2590 C 243.318 -1.79971 -1.50492 0
M  V30 2591 C 244.334 -0.686181 -1.59899 0
M  V30 2592 O 245.51 -0.973274 -1.76322 0
M  V30 2593 C 242.575 -1.95867 -2.86072 0
M  V30 2594 C 241.636 -3.19781 -2.86424 0
M  V30 2595 C 240.869 -3.34909 -4.15538 0
M  V30 2596 O 241.092 -2.54948 -5.10253 0
M  V30 2597 O 240.026 -4.28141 -4.23059 0
M  V30 2598 H 243.852 -2.74328 -1.30299 0
M  V30 2599 H 241.437 -1.3764 -0.581005 0
M  V30 2600 H 243.319 -2.08056 -3.66457 0
M  V30 2601 H 241.994 -1.04699 -3.063 0
M  V30 2602 H 240.901 -3.13038 -2.04837 0
M  V30 2603 H 242.234 -4.1078 -2.71147 0
M  V30 2604 N 243.887 0.651787 -1.4349 0
M  V30 2605 C 244.85 1.74647 -1.48429 0
M  V30 2606 C 245.85 1.56513 -0.368817 0
M  V30 2607 O 247.04 1.62385 -0.630623 0
M  V30 2608 C 244.172 3.13533 -1.33827 0
M  V30 2609 H 245.365 1.71649 -2.4592 0
M  V30 2610 H 242.918 0.863573 -1.30277 0
M  V30 2611 H 243.653 3.22142 -0.37349 0
M  V30 2612 H 243.438 3.28101 -2.14691 0
M  V30 2613 H 244.928 3.93356 -1.40218 0
M  V30 2614 N 245.365 1.30045 0.890287 0
M  V30 2615 C 246.781 1.08261 1.17268 0
M  V30 2616 C 246.981 -0.160063 2.00863 0
M  V30 2617 O 246.037 -0.855181 2.37577 0
M  V30 2618 C 247.35 2.34323 1.8845 0
M  V30 2619 C 248.898 2.39735 2.01237 0
M  V30 2620 C 249.373 3.65625 2.7583 0
M  V30 2621 N 250.864 3.66402 2.83379 0
M  V30 2622 C 251.599 4.60498 3.41657 0
M  V30 2623 N 251.095 5.64933 4.01026 0
M  V30 2624 N 252.888 4.48051 3.39421 0
M  V30 2625 H 245.039 2.09777 0.332762 0
M  V30 2626 H 247.302 0.92446 0.209948 0
M  V30 2627 H 247.008 3.2498 1.34465 0
M  V30 2628 H 246.882 2.4256 2.88867 0
M  V30 2629 H 249.269 1.4956 2.54393 0
M  V30 2630 H 249.35 2.35476 0.999232 0
M  V30 2631 H 248.994 4.56156 2.23347 0
M  V30 2632 H 248.924 3.67144 3.77509 0
M  V30 2633 H 251.415 2.90896 2.41222 0
M  V30 2634 H 251.728 6.32841 4.43545 0
M  V30 2635 H 250.073 5.68732 3.99461 0
M  V30 2636 H 253.264 3.65649 2.92264 0
M  V30 2637 H 253.437 5.21565 3.84544 0
M  V30 2638 N 246.843 -1.10192 1.12674 0
M  V30 2639 C 247.79 -2.16606 0.796906 0
M  V30 2640 C 248.76 -1.64394 -0.237476 0
M  V30 2641 O 249.945 -1.90474 -0.111484 0
M  V30 2642 C 247.085 -3.44116 0.26043 0
M  V30 2643 C 246.198 -4.10268 1.35293 0
M  V30 2644 C 245.333 -5.25507 0.775621 0
M  V30 2645 C 244.372 -5.83567 1.84706 0
M  V30 2646 N 243.509 -6.90179 1.28829 0
M  V30 2647 H 248.349 -2.44163 1.70846 0
M  V30 2648 H 245.886 -1.19846 0.85295 0
M  V30 2649 H 247.844 -4.17143 -0.0686814 0
M  V30 2650 H 246.474 -3.16901 -0.614274 0
M  V30 2651 H 245.526 -3.35184 1.79877 0
M  V30 2652 H 246.838 -4.4946 2.16303 0
M  V30 2653 H 245.992 -6.05398 0.397327 0
M  V30 2654 H 244.731 -4.87656 -0.0656581 0
M  V30 2655 H 243.736 -5.02344 2.23452 0
M  V30 2656 H 244.961 -6.23482 2.69161 0
M  V30 2657 H 242.907 -6.54322 0.468881 0
M  V30 2658 H 242.824 -7.28097 2.03497 0
M  V30 2659 H 244.092 -7.73844 0.937311 0
M  V30 2660 N 248.321 -0.919034 -1.28029 0
M  V30 2661 C 249.737 -0.617972 -1.4715 0
M  V30 2662 C 249.937 0.835242 -1.83374 0
M  V30 2663 O 248.993 1.61388 -1.94191 0
M  V30 2664 C 250.306 -1.56041 -2.57044 0
M  V30 2665 C 251.854 -1.56769 -2.7091 0
M  V30 2666 C 252.329 -2.49688 -3.83953 0
M  V30 2667 N 253.82 -2.47845 -3.91314 0
M  V30 2668 C 254.555 -3.16437 -4.78179 0
M  V30 2669 N 254.051 -3.94376 -5.69596 0
M  V30 2670 N 255.844 -3.05498 -4.71834 0
M  V30 2671 H 247.995 -1.85866 -1.02798 0
M  V30 2672 H 250.258 -0.797506 -0.512531 0
M  V30 2673 H 249.964 -2.59671 -2.372 0
M  V30 2674 H 249.838 -1.29551 -3.54255 0
M  V30 2675 H 252.225 -0.538745 -2.90141 0
M  V30 2676 H 252.306 -1.87305 -1.74214 0
M  V30 2677 H 251.95 -3.52688 -3.65477 0
M  V30 2678 H 251.88 -2.16453 -4.80058 0
M  V30 2679 H 254.371 -1.91234 -3.25941 0
M  V30 2680 H 254.684 -4.43721 -6.32718 0
M  V30 2681 H 253.029 -3.98481 -5.69419 0
M  V30 2682 H 256.22 -2.44108 -3.99411 0
M  V30 2683 H 256.393 -3.59225 -5.39316 0
M  V30 2684 N 249.799 1.42003 -0.683588 0
M  V30 2685 C 251.048 2.00638 -0.206681 0
M  V30 2686 C 251.361 1.5472 1.19671 0
M  V30 2687 O 252.567 2.05833 1.77045 0
M  V30 2688 C 251.023 3.58487 -0.318632 0
M  V30 2689 C 250.631 4.1339 -1.72663 0
M  V30 2690 C 252.375 4.24384 0.0991141 0
M  V30 2691 C 250.282 5.63633 -1.79087 0
M  V30 2692 H 249.212 0.750408 -0.0735107 0
M  V30 2693 H 251.863 1.62624 -0.850048 0
M  V30 2694 H 250.245 3.94047 0.392781 0
M  V30 2695 H 251.419 3.89273 -2.46583 0
M  V30 2696 H 249.734 3.59976 -2.09299 0
M  V30 2697 H 252.331 5.34652 0.0713833 0
M  V30 2698 H 252.674 4.00505 1.13586 0
M  V30 2699 H 253.207 3.93816 -0.561599 0
M  V30 2700 H 249.946 5.92323 -2.80774 0
M  V30 2701 H 249.466 5.89714 -1.09535 0
M  V30 2702 H 251.145 6.28201 -1.5483 0
M  V30 2703 N 251.277 0.427512 1.51691 0
M  V30 2704 C 252.507 -0.140986 2.06118 0
M  V30 2705 C 252.915 -1.37854 1.29588 0
M  V30 2706 O 252.258 -1.80411 0.346036 0
M  V30 2707 C 252.32 -0.538276 3.55447 0
M  V30 2708 C 251.984 0.591095 4.53161 0
M  V30 2709 C 252.981 1.46027 4.98971 0
M  V30 2710 C 250.666 0.769028 4.96378 0
M  V30 2711 C 252.66 2.49216 5.8666 0
M  V30 2712 C 250.347 1.80421 5.83859 0
M  V30 2713 C 251.345 2.66417 6.28897 0
M  V30 2714 O 251.033 3.68159 7.14643 0
M  V30 2715 H 250.765 -0.0157455 0.675817 0
M  V30 2716 H 253.319 0.602495 1.96365 0
M  V30 2717 H 251.549 -1.33432 3.6295 0
M  V30 2718 H 253.238 -1.0368 3.92435 0
M  V30 2719 H 254.004 1.33429 4.66285 0
M  V30 2720 H 249.883 0.109273 4.6087 0
M  V30 2721 H 253.427 3.16372 6.21735 0
M  V30 2722 H 249.324 1.93042 6.15959 0
M  V30 2723 H 250.092 3.64622 7.32798 0
M  V30 2724 N 252.755 -1.56801 0.158532 0
M  V30 2725 C 254.001 -1.96781 -0.490405 0
M  V30 2726 C 254.334 -1.04397 -1.63753 0
M  V30 2727 O 253.609 -0.0885805 -1.94298 0
M  V30 2728 C 253.892 -3.4635 -0.985594 0
M  V30 2729 C 253.745 -4.49512 0.160824 0
M  V30 2730 C 255.064 -3.98697 -1.86355 0
M  V30 2731 H 252.183 -0.715482 -0.176788 0
M  V30 2732 H 254.825 -1.88451 0.242088 0
M  V30 2733 H 252.975 -3.53579 -1.60978 0
M  V30 2734 H 254.647 -4.54353 0.797537 0
M  V30 2735 H 252.89 -4.26013 0.818256 0
M  V30 2736 H 253.561 -5.51531 -0.227569 0
M  V30 2737 H 256.037 -3.94019 -1.33746 0
M  V30 2738 H 254.913 -5.03792 -2.17909 0
M  V30 2739 H 255.174 -3.41744 -2.8047 0
M  V30 2740 N 254.233 0.115231 -1.57178 0
M  V30 2741 C 255.461 0.836437 -1.89239 0
M  V30 2742 C 255.876 1.73256 -0.750175 0
M  V30 2743 O 255.233 1.80357 0.278832 0
M  V30 2744 C 255.284 1.66671 -3.20785 0
M  V30 2745 O 255.005 0.806652 -4.3061 0
M  V30 2746 C 256.506 2.49274 -3.66575 0
M  V30 2747 H 253.726 0.240253 -0.626514 0
M  V30 2748 H 256.27 0.0984932 -2.04263 0
M  V30 2749 H 254.425 2.35737 -3.0742 0
M  V30 2750 H 254.839 1.37969 -5.06028 0
M  V30 2751 H 256.313 3.03055 -4.6137 0
M  V30 2752 H 256.79 3.26807 -2.93417 0
M  V30 2753 H 257.396 1.85443 -3.82741 0
M  V30 2754 N 255.711 1.52812 0.385517 0
M  V30 2755 C 256.939 1.71907 1.15133 0
M  V30 2756 C 257.354 0.439004 1.83625 0
M  V30 2757 O 256.711 -0.586765 1.7281 0
M  V30 2758 C 256.762 2.87099 2.19673 0
M  V30 2759 O 256.483 4.10151 1.53973 0
M  V30 2760 C 257.984 3.17902 3.08955 0
M  V30 2761 H 255.204 0.575479 0.345057 0
M  V30 2762 H 257.748 1.99476 0.45052 0
M  V30 2763 H 255.903 2.61982 2.85384 0
M  V30 2764 H 256.317 4.74514 2.23465 0
M  V30 2765 H 257.791 4.01959 3.7833 0
M  V30 2766 H 258.268 2.3243 3.72657 0
M  V30 2767 H 258.874 3.44871 2.48885 0
M  V30 2768 N 257.189 -0.644168 1.43834 0
M  V30 2769 C 258.466 -1.40188 1.36406 0
M  V30 2770 C 258.846 -2.11094 0.0163124 0
M  V30 2771 O 258.194 -2.05426 -1.00062 0
M  V30 2772 C 258.404 -2.3791 2.55343 0
M  V30 2773 C 259.752 -3.01637 2.98832 0
M  V30 2774 O 260.776 -2.48237 2.55455 0
M  V30 2775 O 259.635 -3.98477 3.74003 0
M  V30 2776 H 256.729 -0.626773 0.539523 0
M  V30 2777 H 259.275 -0.670317 1.559 0
M  V30 2778 H 258.047 -1.84525 3.4506 0
M  V30 2779 H 257.67 -3.18503 2.37995 0
M  V30 2780 N 258.668 -1.30515 -0.883378 0
M  V30 2781 C 260.084 -1.08881 -1.16692 0
M  V30 2782 C 260.284 0.149409 -2.00945 0
M  V30 2783 O 259.34 0.84257 -2.38027 0
M  V30 2784 C 260.653 -2.35319 -1.87204 0
M  V30 2785 C 262.201 -2.40799 -1.99962 0
M  V30 2786 C 262.676 -3.67083 -2.73887 0
M  V30 2787 N 264.167 -3.679 -2.81432 0
M  V30 2788 C 264.902 -4.62303 -3.3921 0
M  V30 2789 N 264.398 -5.67052 -3.98025 0
M  V30 2790 N 266.191 -4.49845 -3.3704 0
M  V30 2791 H 258.342 -2.09951 -0.321633 0
M  V30 2792 H 260.605 -0.92556 -0.205043 0
M  V30 2793 H 260.311 -3.25689 -1.3274 0
M  V30 2794 H 260.185 -2.44089 -2.87577 0
M  V30 2795 H 262.572 -1.50907 -2.53597 0
M  V30 2796 H 262.653 -2.36003 -0.98673 0
M  V30 2797 H 262.297 -4.57334 -2.20925 0
M  V30 2798 H 262.227 -3.69141 -3.75556 0
M  V30 2799 H 264.718 -2.92171 -2.39676 0
M  V30 2800 H 265.031 -6.35184 -4.40183 0
M  V30 2801 H 263.376 -5.70842 -3.96439 0
M  V30 2802 H 266.567 -3.67194 -2.90321 0
M  V30 2803 H 266.74 -5.23597 -3.81772 0
M  V30 2804 N 260.146 1.09593 -1.13257 0
M  V30 2805 C 261.374 1.855 -0.916378 0
M  V30 2806 C 261.789 1.81069 0.534738 0
M  V30 2807 O 261.146 1.20562 1.37007 0
M  V30 2808 C 261.197 3.33546 -1.39388 0
M  V30 2809 O 260.918 3.37927 -2.78813 0
M  V30 2810 C 262.419 4.26299 -1.21588 0
M  V30 2811 H 259.639 0.585991 -0.326887 0
M  V30 2812 H 262.183 1.38488 -1.5047 0
M  V30 2813 H 260.338 3.77992 -0.848597 0
M  V30 2814 H 260.752 4.30254 -2.9997 0
M  V30 2815 H 262.226 5.28341 -1.59876 0
M  V30 2816 H 262.703 4.38918 -0.157376 0
M  V30 2817 H 263.309 3.87668 -1.7491 0
M  V30 2818 N 261.624 0.925811 1.2754 0
M  V30 2819 C 262.571 0.422045 2.26908 0
M  V30 2820 C 263.541 -0.510029 1.58076 0
M  V30 2821 O 264.726 -0.429599 1.85901 0
M  V30 2822 C 261.866 -0.320837 3.43605 0
M  V30 2823 C 260.979 0.64513 4.27156 0
M  V30 2824 C 260.114 -0.117405 5.3107 0
M  V30 2825 C 259.153 0.841391 6.0629 0
M  V30 2826 N 258.29 0.111604 7.02011 0
M  V30 2827 H 263.13 1.27441 2.69375 0
M  V30 2828 H 260.667 0.639697 1.32462 0
M  V30 2829 H 262.625 -0.76785 4.10073 0
M  V30 2830 H 261.255 -1.13745 3.02096 0
M  V30 2831 H 260.307 1.21067 3.6062 0
M  V30 2832 H 261.619 1.37797 4.79389 0
M  V30 2833 H 260.773 -0.624422 6.03478 0
M  V30 2834 H 259.512 -0.883219 4.79636 0
M  V30 2835 H 258.517 1.35967 5.32722 0
M  V30 2836 H 259.742 1.60696 6.59813 0
M  V30 2837 H 257.688 -0.635999 6.5291 0
M  V30 2838 H 257.605 0.784044 7.51923 0
M  V30 2839 H 258.873 -0.374823 7.78598 0
M  V30 2840 N 263.102 -1.41638 0.69111 0
M  V30 2841 C 264.35 -2.00902 0.219758 0
M  V30 2842 C 264.671 -1.54994 -1.18329 0
M  V30 2843 O 263.941 -0.778628 -1.79762 0
M  V30 2844 H 262.521 -0.74289 0.0782558 0
M  V30 2845 H 265.183 -1.73327 0.891271 0
M  V30 2846 H 264.279 -3.11224 0.233708 0
M  V30 2847 N 264.58 -0.43555 -1.51462 0
M  V30 2848 C 265.543 0.365137 -2.26273 0
M  V30 2849 C 266.543 0.951227 -1.29647 0
M  V30 2850 O 267.733 0.825958 -1.53374 0
M  V30 2851 C 264.865 1.51645 -3.05314 0
M  V30 2852 H 266.058 -0.290474 -2.9849 0
M  V30 2853 H 263.611 -0.188676 -1.55157 0
M  V30 2854 H 264.346 2.20816 -2.3751 0
M  V30 2855 H 264.131 1.10238 -3.76284 0
M  V30 2856 H 265.621 2.08218 -3.61987 0
M  V30 2857 N 266.058 1.56714 -0.166846 0
M  V30 2858 C 266.988 2.20754 0.760913 0
M  V30 2859 C 267.969 1.16178 1.24244 0
M  V30 2860 O 269.154 1.44592 1.29641 0
M  V30 2861 C 266.284 2.84478 1.99223 0
M  V30 2862 C 265.238 3.95053 1.64672 0
M  V30 2863 C 264.564 4.45805 2.95232 0
M  V30 2864 C 265.864 5.14865 0.878155 0
M  V30 2865 H 267.558 2.98537 0.22713 0
M  V30 2866 H 265.104 1.43596 0.107805 0
M  V30 2867 H 267.057 3.27951 2.64624 0
M  V30 2868 H 265.781 2.04056 2.55007 0
M  V30 2869 H 264.44 3.52228 1.01641 0
M  V30 2870 H 264.088 3.62181 3.49047 0
M  V30 2871 H 263.788 5.204 2.7287 0
M  V30 2872 H 265.312 4.91962 3.6167 0
M  V30 2873 H 266.726 5.55059 1.43466 0
M  V30 2874 H 265.123 5.95348 0.753738 0
M  V30 2875 H 266.193 4.84735 -0.126377 0
M  V30 2876 N 267.536 -0.106894 1.57237 0
M  V30 2877 C 268.483 -1.13049 2.01217 0
M  V30 2878 C 269.453 -1.40471 0.886403 0
M  V30 2879 O 270.638 -1.52133 1.15153 0
M  V30 2880 C 267.778 -2.4487 2.43172 0
M  V30 2881 C 266.891 -2.24281 3.69218 0
M  V30 2882 C 266.026 -3.49417 4.00101 0
M  V30 2883 C 265.065 -3.24038 5.19294 0
M  V30 2884 N 264.202 -4.41409 5.45988 0
M  V30 2885 H 269.042 -0.748456 2.88448 0
M  V30 2886 H 266.579 -0.358054 1.42676 0
M  V30 2887 H 268.537 -3.21786 2.65537 0
M  V30 2888 H 267.167 -2.80944 1.58967 0
M  V30 2889 H 266.219 -1.38224 3.54398 0
M  V30 2890 H 267.531 -2.01512 4.56283 0
M  V30 2891 H 266.685 -4.34746 4.2318 0
M  V30 2892 H 265.424 -3.75229 3.11535 0
M  V30 2893 H 264.429 -2.37102 4.96047 0
M  V30 2894 H 265.654 -2.99584 6.09447 0
M  V30 2895 H 263.6 -4.67319 4.60379 0
M  V30 2896 H 263.517 -4.21788 6.274 0
M  V30 2897 H 264.785 -5.27836 5.73593 0
M  V30 2898 N 269.014 -1.53014 -0.377408 0
M  V30 2899 C 269.961 -1.78616 -1.46168 0
M  V30 2900 C 270.931 -0.629917 -1.53692 0
M  V30 2901 O 272.116 -0.870861 -1.69766 0
M  V30 2902 C 269.256 -1.97123 -2.8326 0
M  V30 2903 C 268.369 -3.24831 -2.84796 0
M  V30 2904 C 267.504 -3.33591 -4.13389 0
M  V30 2905 C 266.543 -4.55377 -4.09021 0
M  V30 2906 N 265.68 -4.61355 -5.29241 0
M  V30 2907 H 270.52 -2.71142 -1.23637 0
M  V30 2908 H 268.057 -1.34326 -0.599577 0
M  V30 2909 H 270.015 -2.05839 -3.62886 0
M  V30 2910 H 268.645 -1.07946 -3.04216 0
M  V30 2911 H 267.697 -3.25128 -1.97474 0
M  V30 2912 H 269.009 -4.14523 -2.77439 0
M  V30 2913 H 268.163 -3.41554 -5.01424 0
M  V30 2914 H 266.902 -2.41894 -4.23484 0
M  V30 2915 H 265.907 -4.47527 -3.19373 0
M  V30 2916 H 267.132 -5.48402 -4.00539 0
M  V30 2917 H 265.078 -3.72554 -5.39944 0
M  V30 2918 H 264.995 -5.44935 -5.24006 0
M  V30 2919 H 266.263 -4.73586 -6.19141 0
M  V30 2920 N 270.492 0.636531 -1.44174 0
M  V30 2921 C 271.422 1.76003 -1.53444 0
M  V30 2922 C 272.403 1.65619 -0.387841 0
M  V30 2923 O 273.588 1.84461 -0.607257 0
M  V30 2924 C 270.718 3.14511 -1.4731 0
M  V30 2925 C 269.672 3.39677 -2.60391 0
M  V30 2926 C 268.998 4.78159 -2.39308 0
M  V30 2927 C 270.298 3.32772 -4.02567 0
M  V30 2928 H 271.992 1.68501 -2.47483 0
M  V30 2929 H 269.538 0.809237 -1.19111 0
M  V30 2930 H 271.491 3.92878 -1.52397 0
M  V30 2931 H 270.215 3.22783 -0.49785 0
M  V30 2932 H 268.874 2.63688 -2.54684 0
M  V30 2933 H 268.522 4.83128 -1.39988 0
M  V30 2934 H 268.222 4.95956 -3.15122 0
M  V30 2935 H 269.746 5.58762 -2.46205 0
M  V30 2936 H 271.16 4.01051 -4.09672 0
M  V30 2937 H 269.557 3.62104 -4.7854 0
M  V30 2938 H 270.627 2.30669 -4.2652 0
M  V30 2939 N 271.97 1.30982 0.876444 0
M  V30 2940 C 272.933 1.18054 1.96459 0
M  V30 2941 C 273.933 0.109399 1.60427 0
M  V30 2942 O 275.123 0.358173 1.70478 0
M  V30 2943 C 272.255 0.810616 3.31122 0
M  V30 2944 H 273.448 2.14735 2.09354 0
M  V30 2945 H 271.001 1.145 1.06392 0
M  V30 2946 H 271.736 -0.155322 3.23928 0
M  V30 2947 H 271.521 1.58481 3.58645 0
M  V30 2948 H 273.011 0.743876 4.10921 0
M  V30 2949 N 273.449 -1.08991 1.13837 0
M  V30 2950 C 274.726 -1.77863 0.813876 0
M  V30 2951 C 275.106 -1.99375 -0.693746 0
M  V30 2952 O 274.454 -1.59875 -1.63255 0
M  V30 2953 C 274.664 -3.0986 1.60586 0
M  V30 2954 C 276.012 -3.84493 1.8014 0
M  V30 2955 O 277.036 -3.19624 1.57222 0
M  V30 2956 O 275.895 -5.00957 2.18413 0
M  V30 2957 H 272.989 -0.771589 0.297624 0
M  V30 2958 H 275.535 -1.15507 1.24323 0
M  V30 2959 H 274.307 -2.89715 2.63022 0
M  V30 2960 H 273.93 -3.79942 1.17173 0
M  V30 2961 N 274.927 -0.932562 -1.27047 0
M  V30 2962 C 275.859 -0.392734 -2.2581 0
M  V30 2963 C 276.872 0.479241 -1.55586 0
M  V30 2964 O 278.061 0.291078 -1.76111 0
M  V30 2965 C 275.161 0.455456 -3.35826 0
M  V30 2966 C 274.334 -0.398355 -4.35582 0
M  V30 2967 C 273.393 0.387985 -5.24768 0
M  V30 2968 O 272.419 -0.206003 -5.68827 0
M  V30 2969 N 273.621 1.68664 -5.55457 0
M  V30 2970 H 276.386 -1.24173 -2.72766 0
M  V30 2971 H 273.947 -0.800511 -1.40725 0
M  V30 2972 H 275.939 0.988692 -3.92437 0
M  V30 2973 H 274.509 1.20522 -2.88432 0
M  V30 2974 H 273.729 -1.11286 -3.78165 0
M  V30 2975 H 275.017 -0.981889 -4.99236 0
M  V30 2976 H 274.415 2.19147 -5.21528 0
M  V30 2977 H 272.972 2.1663 -6.14748 0
M  V30 2978 N 276.405 1.4127 -0.698611 0
M  V30 2979 C 277.315 2.34573 -0.0357891 0
M  V30 2980 C 278.331 1.56393 0.762701 0
M  V30 2981 O 279.507 1.8886 0.699564 0
M  V30 2982 C 276.572 3.35159 0.887089 0
M  V30 2983 C 275.633 4.29225 0.0804634 0
M  V30 2984 C 274.866 5.25006 0.959387 0
M  V30 2985 O 275.089 5.26314 2.19886 0
M  V30 2986 O 274.023 6.00519 0.407439 0
M  V30 2987 H 277.849 2.92838 -0.804957 0
M  V30 2988 H 275.434 1.42175 -0.458966 0
M  V30 2989 H 277.316 3.9689 1.41621 0
M  V30 2990 H 275.991 2.79333 1.6357 0
M  V30 2991 H 274.898 3.70833 -0.493328 0
M  V30 2992 H 276.231 4.88157 -0.629547 0
M  V30 2993 N 277.883 0.443576 1.51229 0
M  V30 2994 C 279.131 -0.120557 2.0174 0
M  V30 2995 C 279.452 -1.42665 1.32935 0
M  V30 2996 O 278.722 -1.9028 0.465866 0
M  V30 2997 H 277.302 -0.0475426 0.745486 0
M  V30 2998 H 279.964 0.587711 1.85828 0
M  V30 2999 H 279.06 -0.291972 3.10731 0
M  V30 3000 N 279.361 -1.56624 0.175154 0
M  V30 3001 C 280.591 -2.01082 -0.474283 0
M  V30 3002 C 280.999 -1.05447 -1.57091 0
M  V30 3003 O 280.342 -0.0480595 -1.83637 0
M  V30 3004 C 280.404 -3.41963 -1.10911 0
M  V30 3005 C 280.068 -4.56742 -0.153666 0
M  V30 3006 C 281.065 -5.16076 0.629448 0
M  V30 3007 C 278.75 -5.02277 -0.0483776 0
M  V30 3008 C 280.744 -6.19377 1.50501 0
M  V30 3009 C 278.431 -6.05427 0.830768 0
M  V30 3010 C 279.429 -6.63849 1.60605 0
M  V30 3011 O 279.117 -7.64998 2.47049 0
M  V30 3012 H 278.849 -0.664261 -0.125432 0
M  V30 3013 H 281.403 -2.03549 0.275163 0
M  V30 3014 H 279.633 -3.36422 -1.90676 0
M  V30 3015 H 281.322 -3.70352 -1.66114 0
M  V30 3016 H 282.088 -4.81776 0.558297 0
M  V30 3017 H 277.967 -4.56513 -0.641611 0
M  V30 3018 H 281.511 -6.64906 2.1106 0
M  V30 3019 H 277.408 -6.39151 0.903107 0
M  V30 3020 H 278.176 -7.82336 2.40607 0
M  V30 3021 N 280.839 0.0985539 -1.57292 0
M  V30 3022 C 281.749 1.13824 -2.05137 0
M  V30 3023 C 282.765 1.44076 -0.975604 0
M  V30 3024 O 283.941 1.54786 -1.28853 0
M  V30 3025 C 281.006 2.43969 -2.46333 0
M  V30 3026 C 280.067 2.2093 -3.68087 0
M  V30 3027 C 279.3 3.44869 -4.0731 0
M  V30 3028 O 279.523 4.52972 -3.46659 0
M  V30 3029 O 278.457 3.34661 -5.00285 0
M  V30 3030 H 282.283 0.761881 -2.93988 0
M  V30 3031 H 279.868 0.310818 -1.46131 0
M  V30 3032 H 281.75 3.20609 -2.73473 0
M  V30 3033 H 280.425 2.81038 -1.60621 0
M  V30 3034 H 279.332 1.42081 -3.46069 0
M  V30 3035 H 280.665 1.88755 -4.54568 0
M  V30 3036 N 282.317 1.53212 0.369288 0
M  V30 3037 C 283.545 1.73119 1.13303 0
M  V30 3038 C 283.96 0.458455 1.83149 0
M  V30 3039 O 283.317 -0.568403 1.73423 0
M  V30 3040 C 283.368 2.89413 2.16616 0
M  V30 3041 O 283.089 4.11761 1.49614 0
M  V30 3042 C 284.59 3.21161 3.05566 0
M  V30 3043 H 281.81 0.579107 0.338934 0
M  V30 3044 H 284.354 1.99942 0.429338 0
M  V30 3045 H 282.509 2.64994 2.82589 0
M  V30 3046 H 282.923 4.76858 2.18419 0
M  V30 3047 H 284.397 4.05949 3.74045 0
M  V30 3048 H 284.874 2.36369 3.70171 0
M  V30 3049 H 285.48 3.47492 2.45213 0
M  V30 3050 N 283.795 -0.628877 1.44509 0
M  V30 3051 C 285.042 -1.38839 1.47411 0
M  V30 3052 C 285.37 -1.94202 0.10757 0
M  V30 3053 O 284.625 -1.74243 -0.890947 0
M  V30 3054 C 284.924 -2.56995 2.48371 0
M  V30 3055 C 284.59 -2.19908 3.93639 0
M  V30 3056 C 283.252 -2.09506 4.33198 0
M  V30 3057 C 285.604 -1.9064 4.85083 0
M  V30 3058 C 282.932 -1.68028 5.62124 0
M  V30 3059 C 285.284 -1.50655 6.14399 0
M  V30 3060 C 283.948 -1.38796 6.5291 0
M  V30 3061 H 283.218 -0.508048 0.539414 0
M  V30 3062 H 285.865 -0.712913 1.77735 0
M  V30 3063 H 284.17 -3.29786 2.11538 0
M  V30 3064 H 285.867 -3.15223 2.47861 0
M  V30 3065 H 282.457 -2.28922 3.62343 0
M  V30 3066 H 286.641 -1.97585 4.55273 0
M  V30 3067 H 281.897 -1.57452 5.90778 0
M  V30 3068 H 286.071 -1.27048 6.84713 0
M  V30 3069 H 283.698 -1.06429 7.52713 0
M  V30 3070 N 285.273 -1.31445 -0.869486 0
M  V30 3071 C 286.519 -1.21337 -1.62496 0
M  V30 3072 C 286.852 0.227872 -1.92858 0
M  V30 3073 O 286.127 1.16094 -1.56053 0
M  V30 3074 C 286.41 -2.05814 -2.95487 0
M  V30 3075 C 286.263 -3.5824 -2.72 0
M  V30 3076 C 287.582 -1.9079 -3.96594 0
M  V30 3077 H 284.701 -0.442135 -0.589649 0
M  V30 3078 H 287.343 -1.6124 -1.00507 0
M  V30 3079 H 285.493 -1.71913 -3.48394 0
M  V30 3080 H 287.165 -4.0228 -2.25762 0
M  V30 3081 H 285.408 -3.81647 -2.06224 0
M  V30 3082 H 286.079 -4.12657 -3.66631 0
M  V30 3083 H 288.555 -2.20459 -3.52898 0
M  V30 3084 H 287.431 -2.52199 -4.87531 0
M  V30 3085 H 287.692 -0.871341 -4.33428 0
M  V30 3086 N 286.751 1.08385 -1.14413 0
M  V30 3087 C 288 1.80153 -0.907076 0
M  V30 3088 C 288.313 1.87176 0.567851 0
M  V30 3089 O 289.519 2.55359 0.922172 0
M  V30 3090 C 287.975 3.23687 -1.57336 0
M  V30 3091 C 287.583 3.24897 -3.08457 0
M  V30 3092 C 289.327 4.00136 -1.41744 0
M  V30 3093 C 287.234 4.6302 -3.67921 0
M  V30 3094 H 286.164 0.675139 -0.335714 0
M  V30 3095 H 288.815 1.21733 -1.37307 0
M  V30 3096 H 287.197 3.82234 -1.03505 0
M  V30 3097 H 288.371 2.76055 -3.68958 0
M  V30 3098 H 286.686 2.61943 -3.2369 0
M  V30 3099 H 289.283 5.02201 -1.83572 0
M  V30 3100 H 289.626 4.14709 -0.363576 0
M  V30 3101 H 290.159 3.48058 -1.92614 0
M  V30 3102 H 286.898 4.5365 -4.73161 0
M  V30 3103 H 286.418 5.12143 -3.12201 0
M  V30 3104 H 288.097 5.31994 -3.68227 0
M  V30 3105 N 288.23 0.939286 1.26551 0
M  V30 3106 C 289.641 0.628782 1.75793 0
M  V30 3107 C 289.992 -0.856046 1.7654 0
M  V30 3108 O 289.117 -1.66994 1.3763 0
M  V30 3109 C 289.712 1.13465 3.19235 0
M  V30 3110 C 288.271 0.874601 3.66098 0
M  V30 3111 C 287.418 1.28667 2.45642 0
M  V30 3112 H 290.369 1.1178 1.12654 0
M  V30 3113 H 290.39 0.487609 3.77363 0
M  V30 3114 H 289.902 2.21535 3.1866 0
M  V30 3115 H 288.003 -0.191793 3.72106 0
M  V30 3116 H 288.116 1.50028 4.55004 0
M  V30 3117 H 286.48 0.705109 2.44745 0
M  V30 3118 H 287.263 2.37625 2.47769 0
M  V30 3119 N 289.708 -1.40897 0.706093 0
M  V30 3120 C 290.985 -1.94868 0.169099 0
M  V30 3121 C 291.365 -1.64485 -1.32318 0
M  V30 3122 O 290.713 -0.95744 -2.07474 0
M  V30 3123 C 290.923 -3.45798 0.471654 0
M  V30 3124 C 292.271 -4.22663 0.405127 0
M  V30 3125 O 293.295 -3.53865 0.407168 0
M  V30 3126 O 292.154 -5.45216 0.374383 0
M  V30 3127 H 289.248 -0.82673 0.0211352 0
M  V30 3128 H 291.794 -1.50558 0.782976 0
M  V30 3129 H 290.566 -3.61235 1.50416 0
M  V30 3130 H 290.189 -3.97225 -0.172666 0
M  V30 3131 N 291.186 -0.45159 -1.50991 0
M  V30 3132 C 292.134 0.366864 -2.29689 0
M  V30 3133 C 293.128 1.00809 -1.36139 0
M  V30 3134 O 294.334 0.941427 -1.53418 0
M  V30 3135 H 290.709 0.137133 -0.739391 0
M  V30 3136 H 292.68 -0.317538 -2.96706 0
M  V30 3137 C 291.429 1.44751 -3.16137 0
M  V30 3138 H 290.752 0.963473 -3.88017 0
M  V30 3139 H 292.192 1.99315 -3.74232 0
M  V30 3140 C 290.651 2.43869 -2.32442 0
M  V30 3141 O 291.181 3.4872 -1.99392 0
M  V30 3142 N 289.387 2.15105 -1.95392 0
M  V30 3143 H 288.934 1.29866 -2.22469 0
M  V30 3144 H 288.892 2.81661 -1.39693 0
M  V30 3145 N 292.664 1.56529 -0.183458 0
M  V30 3146 C 293.913 1.96419 0.458511 0
M  V30 3147 C 294.226 1.0727 1.63562 0
M  V30 3148 O 295.432 1.36893 2.34462 0
M  V30 3149 C 293.888 3.49298 0.867122 0
M  V30 3150 C 293.496 4.47092 -0.285057 0
M  V30 3151 C 295.24 3.97983 1.47683 0
M  V30 3152 C 293.147 5.91225 0.143862 0
M  V30 3153 H 292.077 0.733394 0.175071 0
M  V30 3154 H 294.728 1.81448 -0.273624 0
M  V30 3155 H 293.11 3.59731 1.65559 0
M  V30 3156 H 294.284 4.48383 -1.0625 0
M  V30 3157 H 292.599 4.08535 -0.805503 0
M  V30 3158 H 295.196 5.03134 1.80999 0
M  V30 3159 H 295.539 3.41618 2.37914 0
M  V30 3160 H 296.072 3.90617 0.752562 0
M  V30 3161 H 292.811 6.5149 -0.723974 0
M  V30 3162 H 292.331 5.93214 0.886413 0
M  V30 3163 H 294.01 6.44362 0.583628 0
M  V30 3164 N 294.142 -0.090211 1.57342 0
M  V30 3165 C 295.39 -0.791241 1.85967 0
M  V30 3166 C 295.711 -1.7903 0.772859 0
M  V30 3167 O 294.981 -1.94872 -0.200398 0
M  V30 3168 H 293.561 -0.295205 0.686195 0
M  V30 3169 H 296.223 -0.0706782 1.94772 0
M  V30 3170 H 295.319 -1.31882 2.82867 0
M  V30 3171 N 295.62 -1.53406 -0.361157 0
M  V30 3172 C 296.868 -1.69467 -1.10115 0
M  V30 3173 C 297.189 -0.451352 -1.89705 0
M  V30 3174 O 296.459 0.534636 -1.88463 0
M  V30 3175 H 295.039 -0.624749 -0.409508 0
M  V30 3176 H 297.701 -1.90609 -0.406699 0
M  V30 3177 H 296.797 -2.55774 -1.78847 0
M  V30 3178 N 297.098 0.621204 -1.44841 0
M  V30 3179 C 298.514 0.94048 -1.28946 0
M  V30 3180 C 298.714 2.00154 -0.23249 0
M  V30 3181 O 297.77 2.49651 0.378237 0
M  V30 3182 C 299.083 1.39433 -2.66419 0
M  V30 3183 C 300.631 1.50927 -2.74208 0
M  V30 3184 C 301.106 1.99692 -4.12174 0
M  V30 3185 N 302.597 2.06947 -4.144 0
M  V30 3186 C 303.332 2.45871 -5.1801 0
M  V30 3187 N 302.828 2.83862 -6.31977 0
M  V30 3188 N 304.621 2.46092 -5.05366 0
M  V30 3189 H 296.772 -0.0803548 -2.12248 0
M  V30 3190 H 299.035 0.0266913 -0.947624 0
M  V30 3191 H 298.741 0.688925 -3.44887 0
M  V30 3192 H 298.615 2.36347 -2.93973 0
M  V30 3193 H 301.002 2.20561 -1.96053 0
M  V30 3194 H 301.083 0.523627 -2.50383 0
M  V30 3195 H 300.727 1.30649 -4.90809 0
M  V30 3196 H 300.657 2.99146 -4.33381 0
M  V30 3197 H 303.148 1.80232 -3.32152 0
M  V30 3198 H 303.461 3.12405 -7.0684 0
M  V30 3199 H 301.806 2.8159 -6.35399 0
M  V30 3200 H 304.997 2.1581 -4.15384 0
M  V30 3201 H 305.17 2.76102 -5.86235 0
M  V30 3202 N 298.576 1.31904 0.862503 0
M  V30 3203 C 299.806 1.24817 1.64634 0
M  V30 3204 C 300.214 -0.187579 1.88268 0
M  V30 3205 O 299.557 -1.13253 1.44635 0
M  V30 3206 C 299.619 1.92996 3.03303 0
M  V30 3207 C 299.283 3.42336 3.02746 0
M  V30 3208 C 300.28 4.37956 2.80162 0
M  V30 3209 C 297.965 3.84147 3.2363 0
M  V30 3210 C 299.959 5.73361 2.78453 0
M  V30 3211 C 297.646 5.19663 3.21549 0
M  V30 3212 C 298.644 6.14081 2.98988 0
M  V30 3213 O 298.332 7.47118 2.96766 0
M  V30 3214 H 298.064 0.432222 0.519769 0
M  V30 3215 H 300.618 1.7445 1.08427 0
M  V30 3216 H 298.848 1.37922 3.61268 0
M  V30 3217 H 300.537 1.79723 3.63943 0
M  V30 3218 H 301.303 4.06981 2.63802 0
M  V30 3219 H 297.182 3.11083 3.40218 0
M  V30 3220 H 300.726 6.4703 2.60763 0
M  V30 3221 H 296.623 5.5027 3.37451 0
M  V30 3222 H 297.391 7.56382 3.12775 0
M  V30 3223 N 300.054 -1.07777 1.14986 0
M  V30 3224 C 301.279 -1.84558 0.946213 0
M  V30 3225 C 301.704 -1.81323 -0.500362 0
M  V30 3226 O 301.062 -1.20301 -1.35637 0
M  V30 3227 C 301.11 -3.29736 1.45968 0
M  V30 3228 O 300.214 -4.07149 0.65601 0
M  V30 3229 H 299.555 -0.571641 0.33782 0
M  V30 3230 H 302.085 -1.35991 1.52865 0
M  V30 3231 H 302.095 -3.80574 1.47063 0
M  V30 3232 H 300.77 -3.31406 2.51283 0
M  V30 3233 H 299.347 -3.65994 0.714322 0
M  V30 3234 N 301.532 -0.945985 -1.26051 0
M  V30 3235 C 302.778 -0.597002 -1.93814 0
M  V30 3236 C 303.111 0.862484 -1.73997 0
M  V30 3237 O 302.386 1.61769 -1.07986 0
M  V30 3238 C 302.669 -0.945937 -3.47454 0
M  V30 3239 C 302.522 -2.46052 -3.76535 0
M  V30 3240 C 303.841 -0.464785 -4.37639 0
M  V30 3241 H 300.96 -0.218366 -0.703907 0
M  V30 3242 H 303.602 -1.18107 -1.48831 0
M  V30 3243 H 301.752 -0.448902 -3.85898 0
M  V30 3244 H 303.424 -3.03065 -3.47778 0
M  V30 3245 H 301.667 -2.90194 -3.22444 0
M  V30 3246 H 302.338 -2.65517 -4.83947 0
M  V30 3247 H 304.814 -0.891016 -4.06448 0
M  V30 3248 H 303.69 -0.737712 -5.4392 0
M  V30 3249 H 303.951 0.635274 -4.37512 0
M  V30 3250 N 303.011 1.40521 -0.713556 0
M  V30 3251 C 303.941 2.33381 -0.0743864 0
M  V30 3252 C 304.922 1.52784 0.747735 0
M  V30 3253 O 306.107 1.81258 0.697071 0
M  V30 3254 C 303.237 3.36748 0.849598 0
M  V30 3255 C 302.191 4.27793 0.133247 0
M  V30 3256 C 301.517 5.21679 1.17281 0
M  V30 3257 C 302.817 5.12415 -1.01134 0
M  V30 3258 H 304.511 2.87081 -0.850007 0
M  V30 3259 H 302.057 1.38034 -0.410201 0
M  V30 3260 H 304.01 4.00648 1.30612 0
M  V30 3261 H 302.734 2.81439 1.65709 0
M  V30 3262 H 301.393 3.65342 -0.303426 0
M  V30 3263 H 301.041 4.62677 1.9733 0
M  V30 3264 H 300.741 5.83435 0.698397 0
M  V30 3265 H 302.265 5.88456 1.62947 0
M  V30 3266 H 303.679 5.69781 -0.634274 0
M  V30 3267 H 302.076 5.83203 -1.41399 0
M  V30 3268 H 303.146 4.48514 -1.84292 0
M  V30 3269 N 304.489 0.459591 1.5075 0
M  V30 3270 C 305.717 -0.0973749 2.06671 0
M  V30 3271 C 306.132 -1.34524 1.32472 0
M  V30 3272 O 305.489 -1.7827 0.390634 0
M  V30 3273 C 305.54 -0.39714 3.59312 0
M  V30 3274 O 305.261 0.801214 4.30711 0
M  V30 3275 C 306.762 -1.00234 4.31819 0
M  V30 3276 H 303.982 0.00195854 0.670997 0
M  V30 3277 H 306.526 0.645072 1.94059 0
M  V30 3278 H 304.681 -1.08951 3.71764 0
M  V30 3279 H 305.095 0.538857 5.21725 0
M  V30 3280 H 306.569 -1.16193 5.39632 0
M  V30 3281 H 307.046 -1.98939 3.91561 0
M  V30 3282 H 307.652 -0.348699 4.23868 0
M  V30 3283 N 305.967 -1.56429 0.191757 0
M  V30 3284 C 306.93 -2.17707 -0.716688 0
M  V30 3285 C 307.93 -1.13061 -1.14341 0
M  V30 3286 O 309.12 -1.38464 -1.05704 0
M  V30 3287 C 306.252 -2.77644 -1.97804 0
M  V30 3288 H 307.445 -2.99342 -0.1829 0
M  V30 3289 H 304.998 -1.56193 -0.0578566 0
M  V30 3290 H 305.733 -1.99799 -2.55443 0
M  V30 3291 H 305.518 -3.54246 -1.68083 0
M  V30 3292 H 307.008 -3.24708 -2.62592 0
M  V30 3293 N 307.445 0.0818655 -1.57387 0
M  V30 3294 C 308.691 0.784074 -1.8703 0
M  V30 3295 C 309.024 1.77729 -0.782689 0
M  V30 3296 O 308.299 1.93384 0.208051 0
M  V30 3297 C 308.582 1.50105 -3.27323 0
M  V30 3298 C 308.435 0.524925 -4.46727 0
M  V30 3299 C 309.754 2.44843 -3.65705 0
M  V30 3300 H 306.873 0.283582 -0.680257 0
M  V30 3301 H 309.515 0.0474352 -1.89941 0
M  V30 3302 H 307.665 2.12897 -3.24972 0
M  V30 3303 H 309.337 -0.0970111 -4.61198 0
M  V30 3304 H 307.58 -0.160606 -4.33503 0
M  V30 3305 H 308.251 1.064 -5.41648 0
M  V30 3306 H 310.727 1.92135 -3.69085 0
M  V30 3307 H 309.603 2.92018 -4.64776 0
M  V30 3308 H 309.864 3.29197 -2.95096 0
M  V30 3309 N 308.923 1.53595 0.353017 0
M  V30 3310 C 310.171 1.70049 1.09215 0
M  V30 3311 C 310.492 0.461406 1.89463 0
M  V30 3312 O 309.762 -0.524633 1.88744 0
M  V30 3313 H 308.342 0.626912 0.40619 0
M  V30 3314 H 311.004 1.90822 0.396585 0
M  V30 3315 H 310.1 2.56718 1.77488 0
M  V30 3316 N 310.401 -0.613514 1.45168 0
M  V30 3317 C 311.331 -1.7354 1.56225 0
M  V30 3318 C 312.312 -1.64981 0.41414 0
M  V30 3319 O 313.497 -1.83472 0.636526 0
M  V30 3320 C 310.627 -3.12128 1.52295 0
M  V30 3321 C 309.581 -3.35491 2.65762 0
M  V30 3322 C 308.907 -4.74291 2.46885 0
M  V30 3323 C 310.207 -3.26325 4.0781 0
M  V30 3324 H 311.901 -1.64543 2.50132 0
M  V30 3325 H 309.447 -0.790185 1.20383 0
M  V30 3326 H 311.4 -3.90404 1.58628 0
M  V30 3327 H 310.124 -3.2195 0.549139 0
M  V30 3328 H 308.783 -2.59603 2.58847 0
M  V30 3329 H 308.431 -4.80839 1.47657 0
M  V30 3330 H 308.131 -4.9088 3.22972 0
M  V30 3331 H 309.655 -5.54775 2.55063 0
M  V30 3332 H 311.069 -3.94483 4.16 0
M  V30 3333 H 309.466 -3.54445 4.8424 0
M  V30 3334 H 310.536 -2.23855 4.30136 0
M  V30 3335 N 311.879 -1.3236 -0.855495 0
M  V30 3336 C 312.809 -1.23833 -1.97958 0
M  V30 3337 C 313.79 -0.122361 -1.69659 0
M  V30 3338 O 314.975 -0.30939 -1.9172 0
M  V30 3339 C 312.105 -0.959772 -3.33775 0
M  V30 3340 C 311.059 -2.03689 -3.76424 0
M  V30 3341 C 310.385 -1.61075 -5.09862 0
M  V30 3342 C 311.685 -3.4518 -3.9198 0
M  V30 3343 H 313.379 -2.1788 -2.0535 0
M  V30 3344 H 310.925 -1.04891 -0.986605 0
M  V30 3345 H 312.878 -0.886678 -4.11966 0
M  V30 3346 H 311.602 0.0163404 -3.26596 0
M  V30 3347 H 310.261 -2.10012 -3.00484 0
M  V30 3348 H 309.909 -0.622107 -4.99138 0
M  V30 3349 H 309.609 -2.33143 -5.39368 0
M  V30 3350 H 311.133 -1.55201 -5.90546 0
M  V30 3351 H 312.547 -3.4145 -4.60526 0
M  V30 3352 H 310.944 -4.1559 -4.32903 0
M  V30 3353 H 312.014 -3.84903 -2.94919 0
M  V30 3354 N 313.357 1.07166 -1.15556 0
M  V30 3355 C 314.768 1.6127 -0.940693 0
M  V30 3356 C 315.119 1.89251 0.517551 0
M  V30 3357 O 314.244 1.65937 1.38903 0
M  V30 3358 C 314.839 2.92993 -1.7012 0
M  V30 3359 C 313.398 3.43832 -1.53156 0
M  V30 3360 C 312.545 2.1786 -1.71558 0
M  V30 3361 H 315.496 0.90229 -1.30554 0
M  V30 3362 H 315.517 3.62007 -1.17181 0
M  V30 3363 H 315.029 2.72596 -2.76248 0
M  V30 3364 H 313.13 3.69307 -0.494294 0
M  V30 3365 H 313.243 4.19747 -2.30975 0
M  V30 3366 H 311.607 2.2765 -1.14225 0
M  V30 3367 H 312.39 1.99956 -2.79056 0
M  V30 3368 N 314.835 0.952656 1.25548 0
M  V30 3369 C 316.084 0.602053 1.92505 0
M  V30 3370 C 316.397 -0.864663 1.75451 0
M  V30 3371 O 317.603 -1.32514 2.36965 0
M  V30 3372 C 316.059 1.02607 3.44963 0
M  V30 3373 C 315.667 2.51519 3.70732 0
M  V30 3374 C 317.411 0.747905 4.1786 0
M  V30 3375 C 315.318 2.87732 5.16686 0
M  V30 3376 H 314.248 0.22146 0.720744 0
M  V30 3377 H 316.899 1.15684 1.42441 0
M  V30 3378 H 315.281 0.399712 3.93978 0
M  V30 3379 H 316.455 3.19157 3.32378 0
M  V30 3380 H 314.77 2.76786 3.11092 0
M  V30 3381 H 317.367 0.994647 5.25367 0
M  V30 3382 H 317.71 -0.315629 4.15102 0
M  V30 3383 H 318.243 1.33452 3.74747 0
M  V30 3384 H 314.982 3.93095 5.24554 0
M  V30 3385 H 314.502 2.24765 5.56094 0
M  V30 3386 H 316.181 2.76817 5.84792 0
M  V30 3387 N 316.313 -1.40141 0.720998 0
M  V30 3388 C 317.276 -2.29058 0.0805834 0
M  V30 3389 C 318.276 -1.45632 -0.681758 0
M  V30 3390 O 319.466 -1.6648 -0.512856 0
M  V30 3391 C 316.598 -3.28925 -0.895593 0
M  V30 3392 H 317.791 -2.87191 0.863793 0
M  V30 3393 H 315.344 -1.48553 0.485975 0
M  V30 3394 H 316.079 -2.75822 -1.70566 0
M  V30 3395 H 315.864 -3.90519 -0.351766 0
M  V30 3396 H 317.354 -3.95494 -1.34069 0
M  V30 3397 N 317.792 -0.46758 -1.50504 0
M  V30 3398 C 319.038 0.0887532 -2.02606 0
M  V30 3399 C 319.371 1.39686 -1.34913 0
M  V30 3400 O 318.646 1.88644 -0.473694 0
M  V30 3401 C 318.929 0.276206 -3.59039 0
M  V30 3402 C 318.782 -1.05267 -4.37309 0
M  V30 3403 C 320.101 1.03235 -4.27821 0
M  V30 3404 H 317.22 0.0307814 -0.736357 0
M  V30 3405 H 319.862 -0.612485 -1.79857 0
M  V30 3406 H 318.012 0.8735 -3.78553 0
M  V30 3407 H 319.684 -1.68628 -4.29374 0
M  V30 3408 H 317.927 -1.65015 -4.01189 0
M  V30 3409 H 318.598 -0.875197 -5.45018 0
M  V30 3410 H 321.074 0.526111 -4.12761 0
M  V30 3411 H 319.95 1.1323 -5.37094 0
M  V30 3412 H 320.211 2.06806 -3.90748 0
M  V30 3413 N 319.27 1.56325 -0.20005 0
M  V30 3414 C 320.233 2.18084 0.705132 0
M  V30 3415 C 321.233 1.13666 1.1374 0
M  V30 3416 O 322.423 1.39023 1.04968 0
M  V30 3417 C 319.555 2.78689 1.96329 0
M  V30 3418 H 320.748 2.99435 0.167023 0
M  V30 3419 H 318.301 1.56221 0.0495725 0
M  V30 3420 H 319.036 2.0115 2.5438 0
M  V30 3421 H 318.821 3.55133 1.66202 0
M  V30 3422 H 320.311 3.26096 2.60866 0
M  V30 3423 N 320.748 -0.0735177 1.57428 0
M  V30 3424 C 321.996 -0.771472 1.86796 0
M  V30 3425 C 322.317 -1.78201 0.791804 0
M  V30 3426 O 321.587 -1.95074 -0.179718 0
M  V30 3427 H 320.167 -0.28791 0.689287 0
M  V30 3428 H 322.829 -0.0500161 1.94836 0
M  V30 3429 H 321.925 -1.28874 2.8425 0
M  V30 3430 N 322.226 -1.5378 -0.344866 0
M  V30 3431 C 323.156 -1.84662 -1.42906 0
M  V30 3432 C 324.137 -0.701648 -1.54955 0
M  V30 3433 O 325.322 -0.953438 -1.69184 0
M  V30 3434 C 322.452 -2.05503 -2.79974 0
M  V30 3435 C 321.406 -3.21318 -2.82734 0
M  V30 3436 C 320.732 -3.2749 -4.22675 0
M  V30 3437 C 322.032 -4.59456 -2.48389 0
M  V30 3438 H 323.726 -2.75461 -1.17311 0
M  V30 3439 H 321.272 -1.32542 -0.562896 0
M  V30 3440 H 323.225 -2.25691 -3.55867 0
M  V30 3441 H 321.949 -1.11434 -3.07002 0
M  V30 3442 H 320.608 -3.00984 -2.09294 0
M  V30 3443 H 320.256 -2.31019 -4.4681 0
M  V30 3444 H 319.956 -4.05316 -4.25433 0
M  V30 3445 H 321.48 -3.49887 -5.00412 0
M  V30 3446 H 322.894 -4.79667 -3.13995 0
M  V30 3447 H 321.291 -5.39675 -2.62432 0
M  V30 3448 H 322.361 -4.63155 -1.4358 0
M  V30 3449 N 323.704 0.605807 -1.45491 0
M  V30 3450 C 324.652 1.73754 -1.54636 0
M  V30 3451 C 325.646 1.64207 -0.416219 0
M  V30 3452 O 326.852 1.69979 -0.592199 0
M  V30 3453 H 323.227 0.574073 -0.485741 0
M  V30 3454 H 325.198 1.63169 -2.49837 0
M  V30 3455 C 323.947 3.12135 -1.53189 0
M  V30 3456 H 323.27 3.20141 -2.39478 0
M  V30 3457 H 324.71 3.91147 -1.63645 0
M  V30 3458 C 323.169 3.35921 -0.256616 0
M  V30 3459 O 323.699 3.96194 0.662798 0
M  V30 3460 N 321.905 2.90204 -0.151751 0
M  V30 3461 H 321.452 2.41336 -0.90081 0
M  V30 3462 H 321.41 3.06492 0.700699 0
M  V30 3463 N 325.182 1.32811 0.848464 0
M  V30 3464 C 326.431 1.23075 1.59798 0
M  V30 3465 C 326.744 -0.204419 1.94529 0
M  V30 3466 O 327.95 -0.423701 2.68173 0
M  V30 3467 C 326.406 2.15594 2.88179 0
M  V30 3468 C 326.014 3.64228 2.60849 0
M  V30 3469 C 327.758 2.14709 3.66197 0
M  V30 3470 C 325.665 4.48689 3.85269 0
M  V30 3471 H 324.595 0.457091 0.599653 0
M  V30 3472 H 327.246 1.57813 0.936342 0
M  V30 3473 H 325.628 1.73778 3.55833 0
M  V30 3474 H 326.802 4.14424 2.01467 0
M  V30 3475 H 325.117 3.67306 1.96151 0
M  V30 3476 H 327.714 2.75046 4.58534 0
M  V30 3477 H 328.057 1.13966 4.00397 0
M  V30 3478 H 328.59 2.54837 3.05455 0
M  V30 3479 H 325.329 5.5027 3.56207 0
M  V30 3480 H 324.849 4.03241 4.44024 0
M  V30 3481 H 326.528 4.62006 4.52946 0
M  V30 3482 N 326.66 -1.06551 1.16123 0
M  V30 3483 C 327.937 -1.76097 0.85142 0
M  V30 3484 C 328.317 -2.00802 -0.6513 0
M  V30 3485 O 327.665 -1.63302 -1.59827 0
M  V30 3486 C 327.875 -3.06384 1.67122 0
M  V30 3487 C 329.223 -3.80585 1.88255 0
M  V30 3488 O 330.247 -3.16218 1.63966 0
M  V30 3489 O 329.106 -4.96212 2.2899 0
M  V30 3490 H 326.2 -0.765102 0.313923 0
M  V30 3491 H 328.746 -1.12844 1.26745 0
M  V30 3492 H 327.518 -2.84071 2.69108 0
M  V30 3493 H 327.141 -3.77371 1.25206 0
M  V30 3494 N 328.138 -0.959301 -1.25041 0
M  V30 3495 C 329.554 -0.664474 -1.4511 0
M  V30 3496 C 329.754 0.776481 -1.85938 0
M  V30 3497 O 328.81 1.55128 -1.99227 0
M  V30 3498 C 330.123 -1.64139 -2.5195 0
M  V30 3499 C 331.671 -1.65309 -2.65786 0
M  V30 3500 C 332.146 -2.61777 -3.75815 0
M  V30 3501 N 333.637 -2.60169 -3.83231 0
M  V30 3502 C 334.372 -3.31489 -4.6787 0
M  V30 3503 N 333.868 -4.12298 -5.56761 0
M  V30 3504 N 335.661 -3.20354 -4.61876 0
M  V30 3505 H 327.812 -1.89043 -0.968332 0
M  V30 3506 H 330.075 -0.813408 -0.4869 0
M  V30 3507 H 329.781 -2.67086 -2.28819 0
M  V30 3508 H 329.655 -1.40756 -3.49954 0
M  V30 3509 H 332.042 -0.630778 -2.8828 0
M  V30 3510 H 332.123 -1.92753 -1.68167 0
M  V30 3511 H 331.767 -3.64137 -3.54071 0
M  V30 3512 H 331.697 -2.31616 -4.72929 0
M  V30 3513 H 334.188 -2.01507 -3.19692 0
M  V30 3514 H 334.501 -4.63625 -6.18281 0
M  V30 3515 H 332.846 -4.16395 -5.56454 0
M  V30 3516 H 336.037 -2.56692 -3.91442 0
M  V30 3517 H 336.21 -3.76201 -5.27614 0
M  V30 3518 N 329.616 1.39756 -0.72842 0
M  V30 3519 C 330.549 2.28176 -0.0330172 0
M  V30 3520 C 331.527 1.44035 0.754501 0
M  V30 3521 O 332.711 1.73434 0.738445 0
M  V30 3522 C 329.838 3.24795 0.960504 0
M  V30 3523 C 328.884 4.25693 0.262264 0
M  V30 3524 S 329.717 5.25714 -1.01906 0
M  V30 3525 C 330.873 6.25894 -0.0279717 0
M  V30 3526 H 331.106 2.86807 -0.78287 0
M  V30 3527 H 328.639 1.45382 -0.519951 0
M  V30 3528 H 330.597 3.80983 1.52846 0
M  V30 3529 H 329.258 2.65196 1.68315 0
M  V30 3530 H 328.451 4.93699 1.01379 0
M  V30 3531 H 328.053 3.7327 -0.233482 0
M  V30 3532 H 330.345 6.72585 0.814621 0
M  V30 3533 H 331.288 7.04876 -0.67499 0
M  V30 3534 H 331.696 5.63466 0.341489 0
M  V30 3535 N 331.094 0.475555 1.50254 0
M  V30 3536 C 332.027 -0.362381 2.25304 0
M  V30 3537 C 333.005 -0.992393 1.28803 0
M  V30 3538 O 334.189 -1.02746 1.58036 0
M  V30 3539 C 331.316 -1.50813 3.03271 0
M  V30 3540 C 330.362 -0.995044 4.1473 0
M  V30 3541 S 331.195 0.0938436 5.35418 0
M  V30 3542 C 332.351 -1.05567 6.16933 0
M  V30 3543 H 332.584 0.274686 2.96028 0
M  V30 3544 H 330.117 0.260495 1.52187 0
M  V30 3545 H 332.075 -2.16476 3.48781 0
M  V30 3546 H 330.736 -2.11672 2.32064 0
M  V30 3547 H 329.929 -1.85293 4.68703 0
M  V30 3548 H 329.531 -0.416052 3.71679 0
M  V30 3549 H 331.823 -1.96636 6.48337 0
M  V30 3550 H 332.766 -0.555109 7.05921 0
M  V30 3551 H 333.174 -1.31151 5.49053 0
M  V30 3552 N 332.573 -1.56217 0.208337 0
M  V30 3553 C 333.483 -2.23316 -0.718836 0
M  V30 3554 C 334.499 -1.23648 -1.22422 0
M  V30 3555 O 335.675 -1.56423 -1.26861 0
M  V30 3556 C 332.74 -2.88968 -1.91568 0
M  V30 3557 C 331.801 -4.03943 -1.45357 0
M  V30 3558 C 331.034 -4.66455 -2.59337 0
M  V30 3559 O 331.257 -4.27919 -3.77149 0
M  V30 3560 O 330.191 -5.55686 -2.31293 0
M  V30 3561 H 334.017 -3.03182 -0.177315 0
M  V30 3562 H 331.602 -1.49384 -0.0215402 0
M  V30 3563 H 333.484 -3.30455 -2.61491 0
M  V30 3564 H 332.159 -2.12071 -2.44556 0
M  V30 3565 H 331.066 -3.67052 -0.722746 0
M  V30 3566 H 332.399 -4.82543 -0.970219 0
M  V30 3567 N 334.051 0.0651679 -1.57465 0
M  V30 3568 C 335.299 0.761555 -1.87202 0
M  V30 3569 C 335.62 1.77778 -0.801243 0
M  V30 3570 O 334.89 1.95166 0.16937 0
M  V30 3571 H 333.47 0.284251 -0.690804 0
M  V30 3572 H 336.132 0.0396827 -1.9486 0
M  V30 3573 H 335.228 1.27365 -2.84929 0
M  V30 3574 N 335.529 1.53961 0.336706 0
M  V30 3575 C 336.492 1.81724 1.39675 0
M  V30 3576 C 337.492 0.688532 1.45313 0
M  V30 3577 O 338.682 0.956829 1.45569 0
M  V30 3578 C 335.814 1.96543 2.78538 0
M  V30 3579 H 337.007 2.76424 1.16318 0
M  V30 3580 H 334.56 1.45478 0.571474 0
M  V30 3581 H 335.295 1.0401 3.07168 0
M  V30 3582 H 335.08 2.78665 2.75841 0
M  V30 3583 H 336.57 2.19516 3.5525 0
M  V30 3584 N 337.007 -0.598083 1.45811 0
M  V30 3585 C 337.97 -1.69018 1.54808 0
M  V30 3586 C 338.97 -1.55037 0.426652 0
M  V30 3587 O 340.16 -1.59932 0.690456 0
M  V30 3588 C 337.292 -3.0835 1.45371 0
M  V30 3589 H 338.485 -1.62403 2.52121 0
M  V30 3590 H 336.038 -0.814626 1.33392 0
M  V30 3591 H 336.773 -3.20534 0.492793 0
M  V30 3592 H 336.558 -3.19907 2.26721 0
M  V30 3593 H 338.048 -3.8788 1.54721 0
M  V30 3594 N 338.485 -1.33259 -0.841409 0
M  V30 3595 C 339.71 -1.2775 -1.63385 0
M  V30 3596 C 340.135 0.149188 -1.87507 0
M  V30 3597 O 339.493 1.10498 -1.43736 0
M  V30 3598 C 339.541 -2.05571 -2.96265 0
M  V30 3599 O 338.645 -1.41257 -3.87453 0
M  V30 3600 H 337.986 -0.439627 -0.497618 0
M  V30 3601 H 340.516 -1.75782 -1.04699 0
M  V30 3602 H 340.526 -2.16241 -3.45982 0
M  V30 3603 H 339.201 -3.09309 -2.7803 0
M  V30 3604 H 337.778 -1.39217 -3.45938 0
M  V30 3605 N 339.963 1.05934 -1.16686 0
M  V30 3606 C 340.926 2.11669 -0.879144 0
M  V30 3607 C 341.926 1.60294 0.127445 0
M  V30 3608 O 343.116 1.7389 -0.103865 0
M  V30 3609 C 340.248 3.39438 -0.315425 0
M  V30 3610 H 341.441 2.38626 -1.81653 0
M  V30 3611 H 338.994 1.22058 -0.976299 0
M  V30 3612 H 339.729 3.18132 0.629468 0
M  V30 3613 H 339.514 3.78034 -1.04079 0
M  V30 3614 H 341.004 4.17391 -0.132189 0
M  V30 3615 N 341.441 0.965919 1.2453 0
M  V30 3616 C 342.671 0.643451 1.96324 0
M  V30 3617 C 343.079 -0.790927 1.71875 0
M  V30 3618 O 342.422 -1.54208 0.998273 0
M  V30 3619 C 342.484 0.836078 3.49643 0
M  V30 3620 C 342.148 2.24975 3.97788 0
M  V30 3621 C 343.145 3.22735 4.07601 0
M  V30 3622 C 340.83 2.57697 4.31158 0
M  V30 3623 C 342.824 4.51303 4.50116 0
M  V30 3624 C 340.511 3.86492 4.73357 0
M  V30 3625 C 341.509 4.83107 4.828 0
M  V30 3626 O 341.197 6.09605 5.24058 0
M  V30 3627 H 340.929 0.239223 0.632257 0
M  V30 3628 H 343.483 1.29587 1.59362 0
M  V30 3629 H 341.713 0.12649 3.86493 0
M  V30 3630 H 343.402 0.512965 4.02646 0
M  V30 3631 H 344.168 2.98783 3.82039 0
M  V30 3632 H 340.047 1.83216 4.23028 0
M  V30 3633 H 343.591 5.26716 4.57401 0
M  V30 3634 H 339.488 4.10245 4.98366 0
M  V30 3635 H 340.256 6.13146 5.42213 0
M  V30 3636 N 342.919 -1.39368 0.735821 0
M  V30 3637 C 343.869 -2.27885 0.0724287 0
M  V30 3638 C 344.853 -1.44301 -0.711756 0
M  V30 3639 O 346.045 -1.67206 -0.58063 0
M  V30 3640 C 343.174 -3.33029 -0.833454 0
M  V30 3641 C 342.26 -4.24078 -0.0433749 0
M  V30 3642 N 342.651 -4.96138 0.983903 0
M  V30 3643 C 340.949 -4.45164 -0.272905 0
M  V30 3644 C 341.65 -5.63069 1.4604 0
M  V30 3645 N 340.626 -5.37991 0.778857 0
M  V30 3646 H 344.428 -2.81052 0.859467 0
M  V30 3647 H 341.942 -1.5206 0.570227 0
M  V30 3648 H 343.939 -3.95311 -1.32419 0
M  V30 3649 H 342.599 -2.81421 -1.61964 0
M  V30 3650 H 343.61 -4.9958 1.36528 0
M  V30 3651 H 340.287 -4.04497 -1.03383 0
M  V30 3652 H 341.677 -6.30755 2.31511 0
M  V30 3653 N 344.397 -0.483516 -1.5 0
M  V30 3654 C 345.344 0.304164 -2.28787 0
M  V30 3655 C 346.314 0.976114 -1.34392 0
M  V30 3656 O 347.499 0.986156 -1.63339 0
M  V30 3657 C 344.639 1.37298 -3.16612 0
M  V30 3658 C 343.752 0.714561 -4.26049 0
M  V30 3659 C 342.887 1.76232 -5.01114 0
M  V30 3660 C 341.926 1.08483 -6.0241 0
M  V30 3661 N 341.063 2.076 -6.70706 0
M  V30 3662 H 345.903 -0.373981 -2.95644 0
M  V30 3663 H 343.44 -0.196275 -1.45785 0
M  V30 3664 H 345.398 2.00445 -3.65893 0
M  V30 3665 H 344.028 2.02012 -2.51776 0
M  V30 3666 H 343.08 -0.0297798 -3.80388 0
M  V30 3667 H 344.392 0.180383 -4.98474 0
M  V30 3668 H 343.546 2.46929 -5.54176 0
M  V30 3669 H 342.285 2.33033 -4.28424 0
M  V30 3670 H 341.29 0.363545 -5.48597 0
M  V30 3671 H 342.515 0.523551 -6.77079 0
M  V30 3672 H 340.461 2.63394 -6.00799 0
M  V30 3673 H 340.378 1.59201 -7.39047 0
M  V30 3674 H 341.646 2.77639 -7.2838 0
M  V30 3675 N 345.875 1.56104 -0.216619 0
M  V30 3676 C 347.105 2.02269 0.420802 0
M  V30 3677 C 347.513 1.09575 1.5424 0
M  V30 3678 O 346.856 0.0967308 1.83445 0
M  V30 3679 C 346.918 3.44784 1.01806 0
M  V30 3680 C 346.582 4.56988 0.0325154 0
M  V30 3681 C 347.579 5.14225 -0.766055 0
M  V30 3682 C 345.264 5.02228 -0.0848092 0
M  V30 3683 C 347.258 6.15169 -1.6687 0
M  V30 3684 C 344.945 6.03011 -0.990994 0
M  V30 3685 C 345.943 6.59357 -1.78149 0
M  V30 3686 O 345.631 7.58179 -2.67245 0
M  V30 3687 H 345.363 0.667353 0.107776 0
M  V30 3688 H 347.917 2.02747 -0.329034 0
M  V30 3689 H 346.147 3.41359 1.81689 0
M  V30 3690 H 347.836 3.74626 1.56237 0
M  V30 3691 H 348.602 4.80126 -0.685836 0
M  V30 3692 H 344.481 4.58054 0.520349 0
M  V30 3693 H 348.025 6.59076 -2.28615 0
M  V30 3694 H 343.922 6.36532 -1.07225 0
M  V30 3695 H 344.69 7.75682 -2.61265 0
M  V30 3696 N 347.353 -0.0568162 1.57498 0
M  V30 3697 C 348.301 -1.08452 2.05769 0
M  V30 3698 C 349.295 -1.39164 0.965903 0
M  V30 3699 O 350.501 -1.38395 1.15095 0
M  V30 3700 H 346.876 -0.367148 0.656282 0
M  V30 3701 H 348.847 -0.651368 2.91204 0
M  V30 3702 C 347.596 -2.38543 2.52968 0
M  V30 3703 H 346.919 -2.15765 3.36579 0
M  V30 3704 H 348.359 -3.08863 2.90481 0
M  V30 3705 C 346.818 -3.05562 1.41893 0
M  V30 3706 O 347.348 -3.94262 0.769442 0
M  V30 3707 N 345.554 -2.6643 1.16032 0
M  V30 3708 H 345.101 -1.94387 1.6903 0
M  V30 3709 H 345.059 -3.11593 0.419219 0
M  V30 3710 N 348.832 -1.54138 -0.328536 0
M  V30 3711 C 349.78 -1.83894 -1.42428 0
M  V30 3712 C 350.774 -0.710478 -1.53781 0
M  V30 3713 O 351.98 -0.894062 -1.56226 0
M  V30 3714 H 348.355 -0.582837 -0.475189 0
M  V30 3715 H 350.326 -2.75537 -1.14552 0
M  V30 3716 C 349.075 -2.07866 -2.78724 0
M  V30 3717 H 348.398 -2.94158 -2.7076 0
M  V30 3718 H 349.838 -2.32644 -3.54476 0
M  V30 3719 C 348.297 -0.868689 -3.25508 0
M  V30 3720 O 348.827 -0.0754908 -4.01629 0
M  V30 3721 N 347.033 -0.681711 -2.82491 0
M  V30 3722 H 346.58 -1.32838 -2.20708 0
M  V30 3723 H 346.538 0.126374 -3.14146 0
M  V30 3724 N 350.31 0.590341 -1.46126 0
M  V30 3725 C 351.721 1.17243 -1.45296 0
M  V30 3726 C 352.072 1.95281 -0.189723 0
M  V30 3727 O 351.197 2.04502 0.707674 0
M  V30 3728 C 351.792 2.13284 -2.6324 0
M  V30 3729 C 350.351 2.66832 -2.65476 0
M  V30 3730 C 349.498 1.42557 -2.3785 0
M  V30 3731 H 352.449 0.378692 -1.54116 0
M  V30 3732 H 352.47 2.96619 -2.38323 0
M  V30 3733 H 351.982 1.56459 -3.55165 0
M  V30 3734 H 350.083 3.27548 -1.77603 0
M  V30 3735 H 350.196 3.10088 -3.65215 0
M  V30 3736 H 348.56 1.72107 -1.87753 0
M  V30 3737 H 349.343 0.875741 -3.31942 0
M  V30 3738 N 351.788 1.33704 0.83433 0
M  V30 3739 C 353.065 1.16011 1.57483 0
M  V30 3740 C 353.445 -0.27176 2.09343 0
M  V30 3741 O 352.793 -1.27146 1.89858 0
M  V30 3742 C 353.003 2.20507 2.70514 0
M  V30 3743 C 354.351 2.54898 3.39577 0
M  V30 3744 O 355.375 2.19209 2.80759 0
M  V30 3745 O 354.234 3.16158 4.45765 0
M  V30 3746 H 351.328 0.448992 0.694503 0
M  V30 3747 H 353.874 1.453 0.876691 0
M  V30 3748 H 352.646 3.16667 2.29865 0
M  V30 3749 H 352.269 1.92329 3.47987 0
M  V30 3750 N 353.266 -1.05314 1.17247 0
M  V30 3751 C 354.196 -2.1498 0.911362 0
M  V30 3752 C 355.177 -1.69471 -0.146169 0
M  V30 3753 O 356.362 -1.942 0.003812 0
M  V30 3754 C 353.492 -3.4472 0.422528 0
M  V30 3755 C 352.446 -4.03789 1.4191 0
M  V30 3756 C 351.772 -5.28858 0.788274 0
M  V30 3757 C 353.072 -4.41418 2.7919 0
M  V30 3758 H 354.766 -2.3708 1.82848 0
M  V30 3759 H 352.312 -1.13938 0.880569 0
M  V30 3760 H 354.265 -4.20787 0.227289 0
M  V30 3761 H 352.989 -3.22269 -0.530123 0
M  V30 3762 H 351.648 -3.2979 1.60106 0
M  V30 3763 H 351.296 -5.02709 -0.171173 0
M  V30 3764 H 350.996 -5.69338 1.45353 0
M  V30 3765 H 352.52 -6.07612 0.603282 0
M  V30 3766 H 353.934 -5.08524 2.64719 0
M  V30 3767 H 352.331 -4.92913 3.42282 0
M  V30 3768 H 353.401 -3.51819 3.33693 0
M  V30 3769 N 354.744 -0.972509 -1.24016 0
M  V30 3770 C 355.674 -0.525548 -2.27509 0
M  V30 3771 C 356.655 0.437262 -1.64384 0
M  V30 3772 O 357.84 0.332343 -1.91335 0
M  V30 3773 C 354.97 0.180448 -3.46831 0
M  V30 3774 C 353.924 -0.698859 -4.22256 0
M  V30 3775 C 353.25 0.138903 -5.3452 0
M  V30 3776 C 354.55 -1.98582 -4.83076 0
M  V30 3777 H 356.244 -1.39058 -2.65148 0
M  V30 3778 H 353.79 -0.67009 -1.27459 0
M  V30 3779 H 355.743 0.504387 -4.18371 0
M  V30 3780 H 354.467 1.07987 -3.08231 0
M  V30 3781 H 353.126 -1.00614 -3.52523 0
M  V30 3782 H 352.774 1.03862 -4.9216 0
M  V30 3783 H 352.474 -0.446259 -5.85903 0
M  V30 3784 H 353.998 0.457404 -6.08884 0
M  V30 3785 H 355.412 -1.72715 -5.46665 0
M  V30 3786 H 353.809 -2.5181 -5.44713 0
M  V30 3787 H 354.879 -2.67769 -4.04262 0
M  V30 3788 N 356.222 1.38976 -0.743202 0
M  V30 3789 C 357.45 2.04636 -0.30525 0
M  V30 3790 C 357.865 1.56044 1.06281 0
M  V30 3791 O 357.222 0.728921 1.67311 0
M  V30 3792 C 357.273 3.60193 -0.307177 0
M  V30 3793 O 356.994 4.06998 -1.62124 0
M  V30 3794 C 358.495 4.4306 0.145928 0
M  V30 3795 H 355.715 0.65788 -0.132041 0
M  V30 3796 H 358.259 1.77866 -1.00915 0
M  V30 3797 H 356.414 3.85835 0.347898 0
M  V30 3798 H 356.828 5.01371 -1.54036 0
M  V30 3799 H 358.302 5.51921 0.0934183 0
M  V30 3800 H 358.779 4.22706 1.19231 0
M  V30 3801 H 359.385 4.22584 -0.479886 0
M  V30 3802 N 357.7 0.491464 1.49741 0
M  V30 3803 C 358.648 -0.305837 2.30581 0
M  V30 3804 C 359.642 -0.971642 1.38764 0
M  V30 3805 O 360.848 -0.90042 1.5586 0
M  V30 3806 H 357.223 -0.117482 0.742767 0
M  V30 3807 H 359.194 0.396093 2.95759 0
M  V30 3808 C 357.943 -1.36319 3.19863 0
M  V30 3809 H 357.266 -0.860258 3.90435 0
M  V30 3810 H 358.706 -1.89323 3.79385 0
M  V30 3811 C 357.165 -2.37621 2.38826 0
M  V30 3812 O 357.695 -3.43311 2.08567 0
M  V30 3813 N 355.901 -2.09849 2.01026 0
M  V30 3814 H 355.448 -1.23922 2.25834 0
M  V30 3815 H 355.406 -2.77859 1.47112 0
M  V30 3816 N 359.178 -1.55987 0.224894 0
M  V30 3817 C 360.088 -2.24066 -0.69511 0
M  V30 3818 C 361.104 -1.24939 -1.21104 0
M  V30 3819 O 362.28 -1.5776 -1.25195 0
M  V30 3820 C 359.345 -2.90983 -1.88493 0
M  V30 3821 C 358.406 -4.05462 -1.41064 0
M  V30 3822 C 357.639 -4.69179 -2.54375 0
M  V30 3823 O 357.862 -4.31895 -3.72589 0
M  V30 3824 O 356.796 -5.58108 -2.25386 0
M  V30 3825 H 360.622 -3.03353 -0.145149 0
M  V30 3826 H 358.207 -1.49399 -0.00569476 0
M  V30 3827 H 360.089 -3.33209 -2.57972 0
M  V30 3828 H 358.764 -2.14653 -2.42293 0
M  V30 3829 H 357.671 -3.67798 -0.683774 0
M  V30 3830 H 359.004 -4.83545 -0.918985 0
M  V30 3831 N 360.656 0.0484629 -1.57525 0
M  V30 3832 C 361.881 0.759177 -1.93006 0
M  V30 3833 C 362.306 1.69125 -0.823317 0
M  V30 3834 O 361.664 1.79931 0.222364 0
M  V30 3835 C 361.712 1.50899 -3.27509 0
M  V30 3836 O 360.816 2.62112 -3.18388 0
M  V30 3837 H 360.157 0.205564 -0.631379 0
M  V30 3838 H 362.687 0.00972959 -2.04598 0
M  V30 3839 H 362.697 1.88317 -3.6194 0
M  V30 3840 H 361.372 0.825269 -4.0763 0
M  V30 3841 H 359.949 2.27379 -2.95556 0
M  V30 3842 N 362.134 1.5431 0.320358 0
M  V30 3843 C 363.364 1.7638 1.07582 0
M  V30 3844 C 363.772 0.513944 1.82086 0
M  V30 3845 O 363.115 -0.525123 1.76035 0
M  V30 3846 C 363.177 2.9055 2.1171 0
M  V30 3847 C 362.841 4.2934 1.56575 0
M  V30 3848 C 363.838 5.10077 1.00586 0
M  V30 3849 C 361.523 4.75893 1.60722 0
M  V30 3850 C 363.517 6.35477 0.494756 0
M  V30 3851 C 361.204 6.0126 1.09224 0
M  V30 3852 C 362.202 6.80886 0.53696 0
M  V30 3853 O 361.89 8.03894 0.0297371 0
M  V30 3854 H 361.622 0.592369 0.325692 0
M  V30 3855 H 364.176 2.02019 0.37116 0
M  V30 3856 H 362.406 2.60489 2.85801 0
M  V30 3857 H 364.095 3.00373 2.73003 0
M  V30 3858 H 364.861 4.75265 0.966869 0
M  V30 3859 H 360.74 4.13957 2.02882 0
M  V30 3860 H 364.284 6.97574 0.0606842 0
M  V30 3861 H 360.181 6.35562 1.12831 0
M  V30 3862 H 360.949 8.18372 0.14486 0
M  V30 3863 N 363.613 -0.582584 1.46437 0
M  V30 3864 C 364.545 -1.70618 1.53043 0
M  V30 3865 C 365.558 -1.57322 0.418769 0
M  V30 3866 O 366.747 -1.64744 0.687136 0
M  V30 3867 C 363.847 -3.08869 1.39474 0
M  V30 3868 C 363.02 -3.48166 2.64762 0
M  V30 3869 C 362.079 -4.65478 2.4539 0
M  V30 3870 O 361.105 -4.71333 3.19114 0
M  V30 3871 N 362.307 -5.60365 1.51564 0
M  V30 3872 H 365.072 -1.65405 2.49923 0
M  V30 3873 H 362.633 -0.768567 1.42494 0
M  V30 3874 H 364.625 -3.85143 1.24287 0
M  V30 3875 H 363.195 -3.08449 0.507758 0
M  V30 3876 H 362.415 -2.61598 2.9489 0
M  V30 3877 H 363.703 -3.71188 3.4799 0
M  V30 3878 H 363.101 -5.5837 0.907705 0
M  V30 3879 H 361.658 -6.36068 1.4234 0
M  V30 3880 N 365.091 -1.34144 -0.827227 0
M  V30 3881 C 366.321 -1.29138 -1.61267 0
M  V30 3882 C 366.729 0.137597 -1.88699 0
M  V30 3883 O 366.072 1.09379 -1.47587 0
M  V30 3884 C 366.134 -2.0097 -2.9808 0
M  V30 3885 C 365.798 -3.50242 -2.93563 0
M  V30 3886 C 366.795 -4.4523 -2.68452 0
M  V30 3887 C 364.48 -3.92592 -3.13331 0
M  V30 3888 C 366.474 -5.80542 -2.63154 0
M  V30 3889 C 364.161 -5.28005 -3.07658 0
M  V30 3890 C 365.159 -6.21792 -2.82602 0
M  V30 3891 O 364.847 -7.54723 -2.76853 0
M  V30 3892 H 364.579 -0.445851 -0.508127 0
M  V30 3893 H 367.133 -1.77263 -1.03763 0
M  V30 3894 H 365.363 -1.47451 -3.57484 0
M  V30 3895 H 367.052 -1.89309 -3.5905 0
M  V30 3896 H 367.818 -4.13832 -2.52919 0
M  V30 3897 H 363.697 -3.19994 -3.31851 0
M  V30 3898 H 367.241 -6.53717 -2.43516 0
M  V30 3899 H 363.138 -5.59023 -3.22743 0
M  V30 3900 H 363.906 -7.64409 -2.92611 0
M  V30 3901 N 366.569 1.04691 -1.17803 0
M  V30 3902 C 367.532 2.10724 -0.901545 0
M  V30 3903 C 368.532 1.6042 0.110437 0
M  V30 3904 O 369.722 1.7377 -0.122303 0
M  V30 3905 C 366.854 3.39084 -0.351409 0
M  V30 3906 H 368.047 2.36686 -1.84174 0
M  V30 3907 H 365.6 1.21015 -0.98919 0
M  V30 3908 H 366.335 3.18782 0.59569 0
M  V30 3909 H 366.12 3.76909 -1.08083 0
M  V30 3910 H 367.61 4.17227 -0.176451 0
M  V30 3911 N 368.047 0.979072 1.23499 0
M  V30 3912 C 369.01 0.523244 2.23147 0
M  V30 3913 C 370.01 -0.386406 1.56088 0
M  V30 3914 O 371.2 -0.180283 1.73265 0
M  V30 3915 C 368.332 -0.240739 3.40049 0
M  V30 3916 H 369.525 1.40432 2.64989 0
M  V30 3917 H 367.078 0.764824 1.36309 0
M  V30 3918 H 367.813 -1.13841 3.03662 0
M  V30 3919 H 367.598 0.412207 3.89927 0
M  V30 3920 H 369.088 -0.548297 4.13985 0
M  V30 3921 N 369.525 -1.3858 0.750561 0
M  V30 3922 C 370.771 -2.00481 0.305825 0
M  V30 3923 C 371.104 -1.5944 -1.10872 0
M  V30 3924 O 370.379 -0.83052 -1.75877 0
M  V30 3925 C 370.662 -3.5758 0.425287 0
M  V30 3926 C 370.515 -4.08594 1.88072 0
M  V30 3927 C 371.834 -4.39719 -0.183122 0
M  V30 3928 H 368.953 -0.728348 0.112598 0
M  V30 3929 H 371.595 -1.64566 0.949638 0
M  V30 3930 H 369.745 -3.88306 -0.122828 0
M  V30 3931 H 371.417 -3.88523 2.48691 0
M  V30 3932 H 369.66 -3.61574 2.39681 0
M  V30 3933 H 370.331 -5.177 1.91548 0
M  V30 3934 H 372.807 -4.15128 0.284303 0
M  V30 3935 H 371.683 -5.48856 -0.0692757 0
M  V30 3936 H 371.944 -4.23434 -1.27106 0
M  V30 3937 N 371.003 -0.499398 -1.49478 0
M  V30 3938 C 372.419 -0.155261 -1.58843 0
M  V30 3939 C 372.619 1.34008 -1.50479 0
M  V30 3940 O 371.675 2.11589 -1.37791 0
M  V30 3941 C 372.988 -0.730636 -2.91689 0
M  V30 3942 C 374.536 -0.696599 -3.0515 0
M  V30 3943 C 375.011 -1.25001 -4.40612 0
M  V30 3944 N 376.502 -1.21064 -4.47099 0
M  V30 3945 C 377.237 -1.60905 -5.50361 0
M  V30 3946 N 376.733 -2.08331 -6.60735 0
M  V30 3947 N 378.526 -1.52331 -5.41065 0
M  V30 3948 H 370.677 -1.47162 -1.53158 0
M  V30 3949 H 372.94 -0.610309 -0.725415 0
M  V30 3950 H 372.646 -1.77928 -3.03372 0
M  V30 3951 H 372.52 -0.190161 -3.7672 0
M  V30 3952 H 374.907 0.343204 -2.93097 0
M  V30 3953 H 374.988 -1.2742 -2.21806 0
M  V30 3954 H 374.632 -2.28859 -4.53416 0
M  V30 3955 H 374.562 -0.64836 -5.22593 0
M  V30 3956 H 377.053 -0.863128 -3.67911 0
M  V30 3957 H 377.366 -2.36805 -7.35624 0
M  V30 3958 H 375.711 -2.12304 -6.6178 0
M  V30 3959 H 378.902 -1.151 -4.53729 0
M  V30 3960 H 379.075 -1.83704 -6.21415 0
M  V30 3961 N 372.481 1.55866 -0.233164 0
M  V30 3962 C 373.429 2.22176 0.68851 0
M  V30 3963 C 374.423 1.20487 1.19076 0
M  V30 3964 O 375.629 1.38536 1.14925 0
M  V30 3965 H 372.004 0.712511 0.240483 0
M  V30 3966 H 373.975 2.98212 0.105935 0
M  V30 3967 C 372.724 2.92446 1.88071 0
M  V30 3968 H 372.047 3.70458 1.50337 0
M  V30 3969 H 373.487 3.42226 2.50314 0
M  V30 3970 C 371.946 1.95555 2.74335 0
M  V30 3971 O 372.476 1.47986 3.73447 0
M  V30 3972 N 370.682 1.62953 2.40613 0
M  V30 3973 H 370.229 2.01831 1.60069 0
M  V30 3974 H 370.187 0.983886 2.98609 0
M  V30 3975 N 373.959 -0.0401083 1.57549 0
M  V30 3976 C 375.208 -0.732108 1.87944 0
M  V30 3977 C 375.521 -1.77107 0.830206 0
M  V30 3978 O 376.727 -2.51488 1.02302 0
M  V30 3979 C 375.183 -1.35315 3.33494 0
M  V30 3980 C 374.791 -0.351105 4.46622 0
M  V30 3981 C 376.535 -2.02566 3.73051 0
M  V30 3982 C 374.442 -0.979859 5.83226 0
M  V30 3983 H 373.372 -0.277188 0.701201 0
M  V30 3984 H 376.023 0.0138501 1.83495 0
M  V30 3985 H 374.405 -2.14844 3.32653 0
M  V30 3986 H 375.579 0.416674 4.58912 0
M  V30 3987 H 373.894 0.218708 4.15825 0
M  V30 3988 H 376.491 -2.50441 4.72423 0
M  V30 3989 H 376.834 -2.83904 3.04474 0
M  V30 3990 H 377.367 -1.29827 3.76018 0
M  V30 3991 H 374.106 -0.206135 6.55176 0
M  V30 3992 H 373.626 -1.71774 5.74677 0
M  V30 3993 H 375.305 -1.49046 6.29599 0
M  V30 3994 N 375.437 -1.54477 -0.31217 0
M  V30 3995 C 376.367 -1.87652 -1.38957 0
M  V30 3996 C 377.348 -0.734358 -1.53431 0
M  V30 3997 O 378.533 -0.98911 -1.67123 0
M  V30 3998 C 375.663 -2.11396 -2.75552 0
M  V30 3999 C 374.617 -3.27243 -2.75855 0
M  V30 4000 C 373.943 -3.36382 -4.15633 0
M  V30 4001 C 375.243 -4.64622 -2.38587 0
M  V30 4002 H 376.937 -2.77887 -1.11442 0
M  V30 4003 H 374.483 -1.33707 -0.534655 0
M  V30 4004 H 376.436 -2.33189 -3.51 0
M  V30 4005 H 375.16 -1.17921 -3.04569 0
M  V30 4006 H 373.819 -3.05356 -2.02863 0
M  V30 4007 H 373.467 -2.40445 -4.41809 0
M  V30 4008 H 373.167 -4.14249 -4.1674 0
M  V30 4009 H 374.691 -3.60422 -4.92877 0
M  V30 4010 H 376.105 -4.86219 -3.03749 0
M  V30 4011 H 374.502 -5.45121 -2.50925 0
M  V30 4012 H 375.572 -4.66097 -1.33723 0
M  V30 4013 N 376.915 0.57481 -1.46744 0
M  V30 4014 C 378.145 1.35659 -1.55821 0
M  V30 4015 C 378.553 1.88129 -0.201036 0
M  V30 4016 O 377.896 1.64723 0.813134 0
M  V30 4017 C 377.958 2.57473 -2.50894 0
M  V30 4018 C 377.622 2.26415 -3.9697 0
M  V30 4019 C 378.619 1.84771 -4.85958 0
M  V30 4020 C 376.304 2.38316 -4.42166 0
M  V30 4021 C 378.298 1.55434 -6.18158 0
M  V30 4022 C 375.985 2.08591 -5.74398 0
M  V30 4023 C 376.983 1.67216 -6.62214 0
M  V30 4024 O 376.671 1.37859 -7.91991 0
M  V30 4025 H 376.403 0.420496 -0.529301 0
M  V30 4026 H 378.957 0.704967 -1.92923 0
M  V30 4027 H 377.187 3.25468 -2.08824 0
M  V30 4028 H 378.876 3.19546 -2.50291 0
M  V30 4029 H 379.642 1.75085 -4.52295 0
M  V30 4030 H 375.521 2.69483 -3.74032 0
M  V30 4031 H 379.065 1.23065 -6.86659 0
M  V30 4032 H 374.962 2.17905 -6.07608 0
M  V30 4033 H 375.73 1.51638 -8.04331 0
M  V30 4034 N 378.394 1.34581 0.820102 0
M  V30 4035 C 379.81 1.14325 1.11364 0
M  V30 4036 C 380.01 -0.0533648 2.01429 0
M  V30 4037 O 379.066 -0.728044 2.41776 0
M  V30 4038 C 380.379 2.43983 1.75764 0
M  V30 4039 C 381.927 2.50065 1.88246 0
M  V30 4040 C 382.402 3.79732 2.56061 0
M  V30 4041 N 383.893 3.80908 2.63558 0
M  V30 4042 C 384.628 4.77961 3.16766 0
M  V30 4043 N 384.124 5.85397 3.70517 0
M  V30 4044 N 385.917 4.65413 3.15194 0
M  V30 4045 H 378.068 2.11246 0.221096 0
M  V30 4046 H 380.331 0.934289 0.160649 0
M  V30 4047 H 380.037 3.31651 1.1705 0
M  V30 4048 H 379.911 2.57531 2.75604 0
M  V30 4049 H 382.298 1.62834 2.46108 0
M  V30 4050 H 382.379 2.40442 0.873006 0
M  V30 4051 H 382.023 4.67354 1.98853 0
M  V30 4052 H 381.953 3.86639 3.57516 0
M  V30 4053 H 384.444 3.03274 2.25463 0
M  V30 4054 H 384.757 6.55463 4.09376 0
M  V30 4055 H 383.102 5.89107 3.68752 0
M  V30 4056 H 386.293 3.80627 2.72471 0
M  V30 4057 H 386.466 5.41216 3.56356 0
M  V30 4058 N 379.872 -1.04064 1.18357 0
M  V30 4059 C 380.819 -2.12077 0.910603 0
M  V30 4060 C 381.789 -1.65421 -0.15 0
M  V30 4061 O 382.974 -1.90797 -0.0103614 0
M  V30 4062 C 380.114 -3.42252 0.442472 0
M  V30 4063 C 379.227 -4.0252 1.5685 0
M  V30 4064 C 378.362 -5.20657 1.05309 0
M  V30 4065 C 377.401 -5.72955 2.1538 0
M  V30 4066 N 376.538 -6.8238 1.65233 0
M  V30 4067 H 381.378 -2.34764 1.83548 0
M  V30 4068 H 378.915 -1.15157 0.915279 0
M  V30 4069 H 380.873 -4.16921 0.152534 0
M  V30 4070 H 379.503 -3.19712 -0.445428 0
M  V30 4071 H 378.555 -3.25178 1.97391 0
M  V30 4072 H 379.867 -4.37362 2.39824 0
M  V30 4073 H 379.021 -6.0244 0.717677 0
M  V30 4074 H 377.76 -4.87318 0.19293 0
M  V30 4075 H 376.765 -4.89793 2.49766 0
M  V30 4076 H 377.99 -6.08337 3.01832 0
M  V30 4077 H 375.936 -6.50917 0.815064 0
M  V30 4078 H 375.853 -7.16286 2.41805 0
M  V30 4079 H 377.121 -7.67788 1.34619 0
M  V30 4080 N 381.35 -0.985608 -1.22978 0
M  V30 4081 C 382.598 -0.656087 -1.91154 0
M  V30 4082 C 382.919 0.813561 -1.77218 0
M  V30 4083 O 382.189 1.58244 -1.1548 0
M  V30 4084 H 380.769 -0.239674 -0.707506 0
M  V30 4085 H 383.431 -1.25054 -1.49491 0
M  V30 4086 H 382.527 -0.912253 -2.9847 0
M  V30 4087 N 382.828 1.3818 -0.7579 0
M  V30 4088 C 383.775 2.30416 -0.133057 0
M  V30 4089 C 384.745 1.50398 0.704957 0
M  V30 4090 O 385.93 1.79014 0.660192 0
M  V30 4091 C 383.07 3.36834 0.750813 0
M  V30 4092 C 382.183 4.31879 -0.102297 0
M  V30 4093 C 381.318 5.25368 0.784979 0
M  V30 4094 C 380.357 6.12058 -0.0715046 0
M  V30 4095 N 379.494 6.97832 0.772972 0
M  V30 4096 H 384.334 2.83274 -0.925186 0
M  V30 4097 H 381.871 1.39461 -0.467866 0
M  V30 4098 H 383.829 3.97145 1.27794 0
M  V30 4099 H 382.459 2.85374 1.50868 0
M  V30 4100 H 381.511 3.72991 -0.747095 0
M  V30 4101 H 382.823 4.92921 -0.763552 0
M  V30 4102 H 381.977 5.90818 1.37911 0
M  V30 4103 H 380.716 4.64703 1.47996 0
M  V30 4104 H 379.721 5.456 -0.678272 0
M  V30 4105 H 380.946 6.74793 -0.763606 0
M  V30 4106 H 378.892 6.3971 1.45282 0
M  V30 4107 H 378.809 7.55812 0.168709 0
M  V30 4108 H 380.077 7.67687 1.35194 0
M  V30 4109 N 384.306 0.507319 1.49211 0
M  V30 4110 C 385.269 -0.256763 2.27757 0
M  V30 4111 C 386.269 -0.888287 1.34038 0
M  V30 4112 O 387.459 -0.751841 1.5714 0
M  V30 4113 C 384.591 -1.36905 3.12202 0
M  V30 4114 H 385.784 0.432557 2.96764 0
M  V30 4115 H 383.337 0.262488 1.5408 0
M  V30 4116 H 384.072 -2.09233 2.47775 0
M  V30 4117 H 383.857 -0.921599 3.81115 0
M  V30 4118 H 385.347 -1.9071 3.7151 0
M  V30 4119 N 385.784 -1.5574 0.241426 0
M  V30 4120 C 387.033 -1.97986 -0.385295 0
M  V30 4121 C 387.346 -1.13267 -1.59468 0
M  V30 4122 O 388.552 -1.45501 -2.2922 0
M  V30 4123 C 387.008 -3.52275 -0.736884 0
M  V30 4124 C 386.616 -4.45726 0.450796 0
M  V30 4125 C 388.36 -4.03189 -1.3281 0
M  V30 4126 C 386.267 -5.91352 0.0756662 0
M  V30 4127 H 385.197 -0.739386 -0.147731 0
M  V30 4128 H 387.848 -1.80308 0.340779 0
M  V30 4129 H 386.23 -3.65628 -1.52094 0
M  V30 4130 H 387.404 -4.44131 1.22819 0
M  V30 4131 H 385.719 -4.05264 0.956573 0
M  V30 4132 H 388.316 -5.09505 -1.62201 0
M  V30 4133 H 388.659 -3.50212 -2.25071 0
M  V30 4134 H 389.192 -3.93141 -0.607069 0
M  V30 4135 H 385.931 -6.48354 0.965272 0
M  V30 4136 H 385.451 -5.96095 -0.665635 0
M  V30 4137 H 387.13 -6.46084 -0.344075 0
M  V30 4138 N 387.262 0.0317525 -1.57568 0
M  V30 4139 C 388.172 1.05021 -2.0978 0
M  V30 4140 C 389.188 1.39809 -1.03583 0
M  V30 4141 O 390.364 1.49182 -1.35302 0
M  V30 4142 C 387.429 2.33301 -2.56459 0
M  V30 4143 C 386.49 2.0512 -3.77127 0
M  V30 4144 C 385.723 3.27283 -4.2157 0
M  V30 4145 O 385.946 4.37861 -3.65559 0
M  V30 4146 O 384.88 3.13141 -5.14029 0
M  V30 4147 H 388.706 0.636505 -2.96955 0
M  V30 4148 H 386.291 0.248559 -1.47318 0
M  V30 4149 H 388.173 3.08722 -2.86825 0
M  V30 4150 H 386.848 2.73973 -1.72397 0
M  V30 4151 H 385.755 1.27276 -3.51784 0
M  V30 4152 H 387.088 1.69305 -4.62165 0
M  V30 4153 N 388.74 1.54641 0.303973 0
M  V30 4154 C 389.67 1.88386 1.3796 0
M  V30 4155 C 390.651 0.742485 1.5304 0
M  V30 4156 O 391.836 0.997959 1.66597 0
M  V30 4157 C 388.966 2.12854 2.74427 0
M  V30 4158 C 387.92 3.28702 2.74115 0
M  V30 4159 C 387.246 3.38582 4.13844 0
M  V30 4160 C 388.546 4.65881 2.3612 0
M  V30 4161 H 390.24 2.78474 1.09966 0
M  V30 4162 H 387.786 1.33988 0.527556 0
M  V30 4163 H 389.739 2.35047 3.49758 0
M  V30 4164 H 388.463 1.19535 3.03939 0
M  V30 4165 H 387.122 3.06428 2.0124 0
M  V30 4166 H 386.77 2.42784 4.40528 0
M  V30 4167 H 386.47 4.16453 4.14537 0
M  V30 4168 H 387.994 3.63031 4.90959 0
M  V30 4169 H 389.408 4.87823 3.01167 0
M  V30 4170 H 387.805 5.46444 2.48031 0
M  V30 4171 H 388.875 4.66799 1.3125 0
M  V30 4172 N 390.218 -0.567019 1.47046 0
M  V30 4173 C 391.148 -1.68482 1.61667 0
M  V30 4174 C 392.129 -1.6358 0.466418 0
M  V30 4175 O 393.314 -1.81354 0.694574 0
M  V30 4176 C 390.444 -3.07124 1.62148 0
M  V30 4177 C 389.398 -3.26867 2.76301 0
M  V30 4178 C 388.724 -4.66196 2.61849 0
M  V30 4179 C 390.024 -3.13186 4.17986 0
M  V30 4180 H 391.718 -1.56502 2.5524 0
M  V30 4181 H 389.264 -0.751486 1.22836 0
M  V30 4182 H 391.217 -3.8516 1.70968 0
M  V30 4183 H 389.941 -3.2004 0.651287 0
M  V30 4184 H 388.6 -2.51237 2.66975 0
M  V30 4185 H 388.248 -4.75898 1.62879 0
M  V30 4186 H 387.948 -4.80356 3.38425 0
M  V30 4187 H 389.472 -5.46379 2.72584 0
M  V30 4188 H 390.886 -3.81049 4.2834 0
M  V30 4189 H 389.283 -3.3886 4.95272 0
M  V30 4190 H 390.353 -2.10057 4.3704 0
M  V30 4191 N 391.696 -1.35014 -0.812953 0
M  V30 4192 C 392.942 -1.2812 -1.57204 0
M  V30 4193 C 393.275 0.145869 -1.93651 0
M  V30 4194 O 392.55 1.0937 -1.60836 0
M  V30 4195 C 392.833 -2.18162 -2.86492 0
M  V30 4196 C 392.686 -3.69454 -2.56561 0
M  V30 4197 C 394.005 -2.07439 -3.88145 0
M  V30 4198 H 391.124 -0.466746 -0.570366 0
M  V30 4199 H 393.766 -1.65357 -0.935783 0
M  V30 4200 H 391.916 -1.86535 -3.40789 0
M  V30 4201 H 393.588 -4.11493 -2.08497 0
M  V30 4202 H 391.831 -3.9005 -1.89851 0
M  V30 4203 H 392.502 -4.27835 -3.48799 0
M  V30 4204 H 394.978 -2.35228 -3.4323 0
M  V30 4205 H 393.854 -2.7265 -4.76396 0
M  V30 4206 H 394.115 -1.05439 -4.29343 0
M  V30 4207 N 393.175 1.03435 -1.18907 0
M  V30 4208 C 394.123 2.13703 -0.918353 0
M  V30 4209 C 395.117 1.68947 0.123767 0
M  V30 4210 O 396.323 1.79983 -0.0249701 0
M  V30 4211 H 392.698 0.698112 -0.279542 0
M  V30 4212 H 394.669 2.33731 -1.85506 0
M  V30 4213 C 393.418 3.44542 -0.467532 0
M  V30 4214 H 392.741 3.79394 -1.26095 0
M  V30 4215 H 394.181 4.22812 -0.317164 0
M  V30 4216 C 392.64 3.26829 0.817588 0
M  V30 4217 O 393.17 3.54975 1.88031 0
M  V30 4218 N 391.376 2.80139 0.772677 0
M  V30 4219 H 390.923 2.57434 -0.0923883 0
M  V30 4220 H 390.881 2.68668 1.63294 0
M  V30 4221 N 394.653 0.992116 1.22453 0
M  V30 4222 C 395.883 0.684949 1.94915 0
M  V30 4223 C 396.291 -0.754292 1.73514 0
M  V30 4224 O 395.634 -1.52056 1.03076 0
M  V30 4225 C 395.696 0.910054 3.47791 0
M  V30 4226 C 395.36 2.33363 3.92926 0
M  V30 4227 C 396.357 3.31308 4.00663 0
M  V30 4228 C 394.042 2.66785 4.25595 0
M  V30 4229 C 396.036 4.6075 4.40441 0
M  V30 4230 C 393.723 3.96446 4.65053 0
M  V30 4231 C 394.721 4.9324 4.72444 0
M  V30 4232 O 394.409 6.20584 5.1101 0
M  V30 4233 H 394.141 0.25258 0.62704 0
M  V30 4234 H 396.695 1.32939 1.56577 0
M  V30 4235 H 394.925 0.208443 3.86138 0
M  V30 4236 H 396.614 0.598257 4.01467 0
M  V30 4237 H 397.38 3.0682 3.75615 0
M  V30 4238 H 393.259 1.92148 4.19047 0
M  V30 4239 H 396.803 5.363 4.46126 0
M  V30 4240 H 392.7 4.20724 4.89552 0
M  V30 4241 H 393.468 6.24509 5.29085 0
M  V30 4242 N 396.131 -1.37776 0.765217 0
M  V30 4243 C 397.041 -2.34135 0.147666 0
M  V30 4244 C 398.057 -1.59854 -0.687215 0
M  V30 4245 O 399.233 -1.91983 -0.608659 0
M  V30 4246 C 396.298 -3.3901 -0.72617 0
M  V30 4247 C 395.359 -4.2912 0.124417 0
M  V30 4248 C 394.592 -5.28986 -0.707807 0
M  V30 4249 O 394.815 -5.36205 -1.94525 0
M  V30 4250 O 393.749 -6.01779 -0.12046 0
M  V30 4251 H 397.575 -2.88664 0.943758 0
M  V30 4252 H 395.16 -1.39824 0.526277 0
M  V30 4253 H 397.042 -4.03195 -1.22524 0
M  V30 4254 H 395.717 -2.86819 -1.50056 0
M  V30 4255 H 394.624 -3.68057 0.669696 0
M  V30 4256 H 395.957 -4.84598 0.861736 0
M  V30 4257 N 397.609 -0.515225 -1.4894 0
M  V30 4258 C 399.02 -0.0710067 -1.86565 0
M  V30 4259 C 399.371 1.34733 -1.42623 0
M  V30 4260 O 398.496 2.00653 -0.810379 0
M  V30 4261 C 399.091 -0.122083 -3.3858 0
M  V30 4262 C 397.65 0.266863 -3.75453 0
M  V30 4263 C 396.797 -0.488376 -2.72966 0
M  V30 4264 H 399.748 -0.727266 -1.41055 0
M  V30 4265 H 399.769 0.669818 -3.74558 0
M  V30 4266 H 399.281 -1.15448 -3.70531 0
M  V30 4267 H 397.382 1.30196 -3.49113 0
M  V30 4268 H 397.495 -0.0624811 -4.79059 0
M  V30 4269 H 395.859 0.0635622 -2.54621 0
M  V30 4270 H 396.642 -1.52113 -3.07761 0
M  V30 4271 N 399.087 1.5561 -0.249682 0
M  V30 4272 C 400.312 2.03865 0.381305 0
M  V30 4273 C 400.737 1.12769 1.50548 0
M  V30 4274 O 400.095 0.121189 1.80895 0
M  V30 4275 C 400.143 3.50101 0.863816 0
M  V30 4276 O 399.247 3.62132 1.97318 0
M  V30 4277 H 398.588 0.658827 0.0827194 0
M  V30 4278 H 401.118 2.01105 -0.376552 0
M  V30 4279 H 401.128 3.90975 1.1663 0
M  V30 4280 H 399.803 4.1588 0.0411816 0
M  V30 4281 H 398.38 3.33155 1.67517 0
M  V30 4282 N 400.565 -0.0233959 1.57583 0
M  V30 4283 C 401.495 -1.02162 2.09965 0
M  V30 4284 C 402.476 -1.3735 1.00344 0
M  V30 4285 O 403.661 -1.46135 1.27899 0
M  V30 4286 C 400.791 -2.32081 2.58371 0
M  V30 4287 C 399.745 -2.1112 3.72307 0
M  V30 4288 C 399.071 -3.46848 4.06941 0
M  V30 4289 C 400.371 -1.49276 5.00514 0
M  V30 4290 H 402.065 -0.585557 2.93618 0
M  V30 4291 H 399.611 -0.280218 1.41247 0
M  V30 4292 H 401.564 -3.02249 2.93639 0
M  V30 4293 H 400.288 -2.77758 1.71808 0
M  V30 4294 H 398.947 -1.43384 3.37397 0
M  V30 4295 H 398.595 -3.90184 3.17436 0
M  V30 4296 H 398.295 -3.33646 4.83688 0
M  V30 4297 H 399.819 -4.18369 4.44747 0
M  V30 4298 H 401.233 -2.09368 5.33702 0
M  V30 4299 H 399.63 -1.46632 5.8191 0
M  V30 4300 H 400.7 -0.459217 4.82721 0
M  V30 4301 N 402.043 -1.548 -0.295768 0
M  V30 4302 C 402.993 -1.82497 -1.3667 0
M  V30 4303 C 403.977 -0.682434 -1.45711 0
M  V30 4304 O 405.169 -0.943207 -1.49775 0
M  V30 4305 C 402.298 -2.08036 -2.73086 0
M  V30 4306 C 401.384 -3.28488 -2.68247 0
M  V30 4307 N 401.775 -4.48924 -2.33025 0
M  V30 4308 C 400.073 -3.3062 -2.99343 0
M  V30 4309 C 400.774 -5.30956 -2.37613 0
M  V30 4310 N 399.75 -4.68805 -2.75178 0
M  V30 4311 H 403.552 -2.73175 -1.0841 0
M  V30 4312 H 401.066 -1.5437 -0.504361 0
M  V30 4313 H 403.063 -2.26027 -3.5031 0
M  V30 4314 H 401.723 -1.18629 -3.02254 0
M  V30 4315 H 402.734 -4.75432 -2.05389 0
M  V30 4316 H 399.411 -2.51336 -3.33371 0
M  V30 4317 H 400.801 -6.37199 -2.13135 0
M  V30 4318 N 403.521 0.559213 -1.47345 0
M  V30 4319 C 404.751 1.33999 -1.57251 0
M  V30 4320 C 405.159 1.87905 -0.220978 0
M  V30 4321 O 404.502 1.65577 0.795617 0
M  V30 4322 C 404.564 2.54798 -2.53611 0
M  V30 4323 C 404.228 2.22192 -3.99349 0
M  V30 4324 C 405.225 1.79607 -4.87891 0
M  V30 4325 C 402.91 2.33613 -4.44669 0
M  V30 4326 C 404.904 1.48868 -6.19772 0
M  V30 4327 C 402.591 2.02487 -5.76578 0
M  V30 4328 C 403.589 1.60183 -6.63951 0
M  V30 4329 O 403.277 1.29451 -7.93409 0
M  V30 4330 H 403.009 0.414858 -0.533731 0
M  V30 4331 H 405.563 0.684465 -1.9366 0
M  V30 4332 H 403.793 3.23235 -2.12265 0
M  V30 4333 H 405.482 3.16873 -2.53666 0
M  V30 4334 H 406.248 1.70278 -4.54126 0
M  V30 4335 H 402.127 2.65501 -3.76869 0
M  V30 4336 H 405.671 1.15775 -6.87926 0
M  V30 4337 H 401.568 2.11448 -6.09885 0
M  V30 4338 H 402.336 1.43098 -8.05894 0
M  V30 4339 N 404.999 1.35443 0.805782 0
M  V30 4340 C 406.245 1.28952 1.56522 0
M  V30 4341 C 406.578 -0.135597 1.93726 0
M  V30 4342 O 405.853 -1.08516 1.61414 0
M  V30 4343 C 406.136 2.19678 2.85331 0
M  V30 4344 C 405.989 3.7081 2.54598 0
M  V30 4345 C 407.308 2.09495 3.8704 0
M  V30 4346 H 404.427 0.469764 0.567883 0
M  V30 4347 H 407.069 1.65851 0.927001 0
M  V30 4348 H 405.219 1.8834 3.39795 0
M  V30 4349 H 406.891 4.12593 2.06312 0
M  V30 4350 H 405.134 3.91051 1.8778 0
M  V30 4351 H 405.805 4.29679 3.46525 0
M  V30 4352 H 408.281 2.37045 3.41978 0
M  V30 4353 H 407.157 2.75173 4.74943 0
M  V30 4354 H 407.418 1.07714 4.28777 0
M  V30 4355 N 406.477 -1.02803 1.19454 0
M  V30 4356 C 407.702 -1.80378 1.02364 0
M  V30 4357 C 408.127 -1.83282 -0.423007 0
M  V30 4358 O 407.485 -1.25945 -1.30413 0
M  V30 4359 C 407.533 -3.23248 1.59821 0
M  V30 4360 O 406.637 -4.04 0.828105 0
M  V30 4361 H 405.978 -0.556799 0.361761 0
M  V30 4362 H 408.508 -1.29385 1.58495 0
M  V30 4363 H 408.518 -3.73994 1.63073 0
M  V30 4364 H 407.193 -3.2045 2.65113 0
M  V30 4365 H 405.77 -3.62635 0.86891 0
M  V30 4366 N 407.956 -0.998596 -1.21925 0
M  V30 4367 C 408.866 -0.562736 -2.27751 0
M  V30 4368 C 409.882 0.391203 -1.69545 0
M  V30 4369 O 411.058 0.256625 -1.99758 0
M  V30 4370 C 408.123 0.11012 -3.46525 0
M  V30 4371 C 407.184 -0.887495 -4.20026 0
M  V30 4372 C 406.417 -0.246654 -5.3313 0
M  V30 4373 O 406.64 0.958088 -5.62296 0
M  V30 4374 O 405.574 -0.954374 -5.94286 0
M  V30 4375 H 409.4 -1.44329 -2.67213 0
M  V30 4376 H 406.985 -0.767135 -1.28201 0
M  V30 4377 H 408.867 0.486756 -4.18579 0
M  V30 4378 H 407.542 0.965154 -3.08976 0
M  V30 4379 H 406.449 -1.31517 -3.5022 0
M  V30 4380 H 407.782 -1.71191 -4.6147 0
M  V30 4381 N 409.434 1.37368 -0.772513 0
M  V30 4382 C 410.68 2.00423 -0.3467 0
M  V30 4383 C 411.035 1.60224 1.06518 0
M  V30 4384 O 410.328 0.838712 1.72268 0
M  V30 4385 C 410.522 3.54817 -0.428876 0
M  V30 4386 C 410.351 4.10011 -1.84719 0
M  V30 4387 C 409.121 4.40927 -2.46803 0
M  V30 4388 C 411.319 4.30955 -2.80681 0
M  V30 4389 N 409.301 4.8184 -3.80399 0
M  V30 4390 C 410.672 4.74486 -3.99078 0
M  V30 4391 C 412.727 4.1309 -2.77958 0
M  V30 4392 C 411.43 5.02023 -5.15136 0
M  V30 4393 C 413.456 4.41764 -3.9319 0
M  V30 4394 C 412.818 4.85535 -5.10328 0
M  V30 4395 H 408.917 0.762413 -0.173927 0
M  V30 4396 H 411.501 1.66666 -1.00651 0
M  V30 4397 H 409.672 3.87881 0.200757 0
M  V30 4398 H 411.404 4.04696 0.0190668 0
M  V30 4399 H 408.159 4.30033 -1.98415 0
M  V30 4400 H 408.583 5.06604 -4.49089 0
M  V30 4401 H 413.225 3.7842 -1.88568 0
M  V30 4402 H 410.943 5.35582 -6.05126 0
M  V30 4403 H 414.529 4.29528 -3.92425 0
M  V30 4404 H 413.409 5.07296 -5.98013 0
M  V30 4405 N 410.912 0.523116 1.48665 0
M  V30 4406 C 412.158 -0.00540031 2.03399 0
M  V30 4407 C 412.513 -1.3264 1.39372 0
M  V30 4408 O 411.806 -1.84184 0.527916 0
M  V30 4409 C 412 -0.191671 3.56886 0
M  V30 4410 C 411.829 1.10972 4.35793 0
M  V30 4411 C 410.599 1.66769 4.76987 0
M  V30 4412 C 412.797 2.01861 4.73029 0
M  V30 4413 N 410.779 2.91268 5.40404 0
M  V30 4414 C 412.15 3.10937 5.36394 0
M  V30 4415 C 414.205 2.02271 4.54962 0
M  V30 4416 C 412.908 4.20478 5.83601 0
M  V30 4417 C 414.934 3.10802 5.03146 0
M  V30 4418 C 414.296 4.18597 5.6653 0
M  V30 4419 H 410.395 0.0393531 0.781009 0
M  V30 4420 H 412.979 0.702876 1.8157 0
M  V30 4421 H 411.15 -0.869025 3.78553 0
M  V30 4422 H 412.882 -0.719177 3.98259 0
M  V30 4423 H 409.637 1.20996 4.57883 0
M  V30 4424 H 410.061 3.54635 5.76683 0
M  V30 4425 H 414.703 1.2023 4.05345 0
M  V30 4426 H 412.421 5.03303 6.32228 0
M  V30 4427 H 416.007 3.12166 4.90962 0
M  V30 4428 H 414.887 5.01193 6.03138 0
M  V30 4429 N 412.39 -1.55475 0.257931 0
M  V30 4430 C 413.337 -2.21837 -0.636939 0
M  V30 4431 C 414.307 -1.18596 -1.16294 0
M  V30 4432 O 415.492 -1.47081 -1.21539 0
M  V30 4433 C 412.632 -2.9301 -1.82317 0
M  V30 4434 C 411.745 -4.10931 -1.33265 0
M  V30 4435 C 410.88 -4.69791 -2.47931 0
M  V30 4436 C 409.919 -5.7994 -1.95796 0
M  V30 4437 N 409.056 -6.32935 -3.0387 0
M  V30 4438 H 413.896 -2.9793 -0.0643591 0
M  V30 4439 H 411.433 -1.47086 -0.0200031 0
M  V30 4440 H 413.391 -3.3248 -2.52018 0
M  V30 4441 H 412.021 -2.1937 -2.36805 0
M  V30 4442 H 411.073 -3.76699 -0.52931 0
M  V30 4443 H 412.385 -4.90417 -0.910654 0
M  V30 4444 H 411.539 -5.11892 -3.25656 0
M  V30 4445 H 410.278 -3.89545 -2.93438 0
M  V30 4446 H 409.283 -5.37305 -1.16546 0
M  V30 4447 H 410.508 -6.62043 -1.51246 0
M  V30 4448 H 408.454 -5.55591 -3.48791 0
M  V30 4449 H 408.371 -7.07645 -2.66035 0
M  V30 4450 H 409.639 -6.79695 -3.81621 0
M  V30 4451 N 413.868 0.0150385 -1.57593 0
M  V30 4452 C 414.8 1.03912 -2.04291 0
M  V30 4453 C 415.813 1.31618 -0.958146 0
M  V30 4454 O 417.002 1.28859 -1.23522 0
M  V30 4455 C 414.102 2.37749 -2.41514 0
M  V30 4456 C 413.275 2.29198 -3.72541 0
M  V30 4457 C 412.334 3.45598 -3.96797 0
M  V30 4458 O 411.36 3.24461 -4.67668 0
M  V30 4459 N 412.562 4.67945 -3.43523 0
M  V30 4460 H 415.327 0.64099 -2.92765 0
M  V30 4461 H 412.888 0.20272 -1.60626 0
M  V30 4462 H 414.88 3.14364 -2.54867 0
M  V30 4463 H 413.45 2.69357 -1.58637 0
M  V30 4464 H 412.67 1.3759 -3.69408 0
M  V30 4465 H 413.958 2.20642 -4.5847 0
M  V30 4466 H 413.356 4.88017 -2.86104 0
M  V30 4467 H 411.913 5.41878 -3.62232 0
M  V30 4468 N 415.346 1.54954 0.287554 0
M  V30 4469 C 416.276 1.89839 1.35954 0
M  V30 4470 C 417.257 0.758675 1.52244 0
M  V30 4471 O 418.442 1.01557 1.65529 0
M  V30 4472 C 415.572 2.15753 2.72154 0
M  V30 4473 C 414.526 3.3159 2.70614 0
M  V30 4474 C 413.852 3.42952 4.10229 0
M  V30 4475 C 415.152 4.68359 2.31165 0
M  V30 4476 H 416.846 2.79625 1.07007 0
M  V30 4477 H 414.392 1.3454 0.513316 0
M  V30 4478 H 416.345 2.38743 3.47246 0
M  V30 4479 H 415.069 1.22752 3.02654 0
M  V30 4480 H 413.728 3.08545 1.97979 0
M  V30 4481 H 413.376 2.47443 4.37928 0
M  V30 4482 H 413.076 4.20826 4.10097 0
M  V30 4483 H 414.6 3.68218 4.87081 0
M  V30 4484 H 416.014 4.9099 2.95976 0
M  V30 4485 H 414.411 5.49044 2.42221 0
M  V30 4486 H 415.481 4.68165 1.26291 0
M  V30 4487 N 416.824 -0.551391 1.4764 0
M  V30 4488 C 418.071 -1.3083 1.54563 0
M  V30 4489 C 418.399 -1.93359 0.210361 0
M  V30 4490 O 417.654 -1.78721 -0.797332 0
M  V30 4491 C 417.953 -2.43469 2.61644 0
M  V30 4492 C 417.619 -1.98732 4.04742 0
M  V30 4493 C 416.281 -1.86248 4.43695 0
M  V30 4494 C 418.633 -1.64659 4.94507 0
M  V30 4495 C 415.961 -1.37995 5.70241 0
M  V30 4496 C 418.313 -1.17875 6.21521 0
M  V30 4497 C 416.977 -1.03992 6.5935 0
M  V30 4498 H 416.247 -0.478741 0.565587 0
M  V30 4499 H 418.894 -0.617697 1.81264 0
M  V30 4500 H 417.199 -3.18109 2.28722 0
M  V30 4501 H 418.896 -3.01642 2.64222 0
M  V30 4502 H 415.486 -2.09393 3.73968 0
M  V30 4503 H 419.67 -1.73174 4.65107 0
M  V30 4504 H 414.926 -1.25915 5.98294 0
M  V30 4505 H 419.1 -0.905739 6.90485 0
M  V30 4506 H 416.727 -0.663794 7.57296 0
M  V30 4507 N 418.302 -1.35869 -0.798587 0
M  V30 4508 C 419.55 -1.29332 -1.55298 0
M  V30 4509 C 419.871 0.129729 -1.94568 0
M  V30 4510 O 419.141 1.06796 -1.6423 0
M  V30 4511 H 417.721 -0.475737 -0.57592 0
M  V30 4512 H 420.383 -1.70062 -0.952093 0
M  V30 4513 H 419.479 -1.91458 -2.46476 0
M  V30 4514 N 419.78 1.02168 -1.19998 0
M  V30 4515 C 420.69 2.14069 -0.959774 0
M  V30 4516 C 421.706 1.73804 0.082655 0
M  V30 4517 O 422.882 2.01133 -0.103633 0
M  V30 4518 C 419.947 3.42936 -0.509459 0
M  V30 4519 C 419.008 3.97474 -1.62213 0
M  V30 4520 C 418.241 5.2019 -1.19321 0
M  V30 4521 O 418.464 5.70369 -0.0597726 0
M  V30 4522 O 417.398 5.67749 -1.99863 0
M  V30 4523 H 421.224 2.37199 -1.89658 0
M  V30 4524 H 418.809 1.12469 -0.983411 0
M  V30 4525 H 420.691 4.20551 -0.267322 0
M  V30 4526 H 419.366 3.21234 0.398821 0
M  V30 4527 H 418.273 3.21161 -1.9185 0
M  V30 4528 H 419.606 4.23555 -2.50723 0
M  V30 4529 N 421.258 1.00505 1.21394 0
M  V30 4530 C 422.483 0.706367 1.95001 0
M  V30 4531 C 422.908 -0.72463 1.73582 0
M  V30 4532 O 422.266 -1.49702 1.0227 0
M  V30 4533 C 422.314 1.03299 3.45487 0
M  V30 4534 O 421.418 0.138275 4.12168 0
M  V30 4535 H 420.759 0.263175 0.609619 0
M  V30 4536 H 423.289 1.34531 1.54151 0
M  V30 4537 H 423.299 0.979872 3.96059 0
M  V30 4538 H 421.974 2.07567 3.60401 0
M  V30 4539 H 420.551 0.247928 3.72075 0
M  V30 4540 N 422.737 -1.36956 0.779787 0
M  V30 4541 C 423.647 -2.33965 0.172491 0
M  V30 4542 C 424.663 -1.60574 -0.670222 0
M  V30 4543 O 425.839 -1.92617 -0.588263 0
M  V30 4544 C 422.904 -3.39761 -0.690173 0
M  V30 4545 C 421.965 -4.28964 0.169924 0
M  V30 4546 C 421.198 -5.29707 -0.651662 0
M  V30 4547 O 421.421 -5.38238 -1.88827 0
M  V30 4548 O 420.355 -6.01873 -0.0566264 0
M  V30 4549 H 424.181 -2.87647 0.974321 0
M  V30 4550 H 421.766 -1.39258 0.541078 0
M  V30 4551 H 423.648 -4.04471 -1.1824 0
M  V30 4552 H 422.323 -2.88394 -1.47006 0
M  V30 4553 H 421.23 -3.67326 0.708696 0
M  V30 4554 H 422.563 -4.83656 0.913085 0
M  V30 4555 N 424.215 -0.530993 -1.48385 0
M  V30 4556 C 425.463 0.00273189 -2.021 0
M  V30 4557 C 425.784 1.34672 -1.41027 0
M  V30 4558 O 425.054 1.8724 -0.576012 0
M  V30 4559 H 423.634 0.00399774 -0.746989 0
M  V30 4560 H 426.296 -0.695054 -1.82085 0
M  V30 4561 H 425.392 0.11031 -3.11905 0
M  V30 4562 N 425.693 1.55336 -0.266172 0
M  V30 4563 C 426.64 2.22172 0.625165 0
M  V30 4564 C 427.61 1.19211 1.15663 0
M  V30 4565 O 428.795 1.47723 1.20758 0
M  V30 4566 C 425.935 2.93972 1.8076 0
M  V30 4567 C 425.048 4.11632 1.31084 0
M  V30 4568 C 424.183 4.71099 2.45436 0
M  V30 4569 C 423.222 5.8097 1.92718 0
M  V30 4570 N 422.359 6.34538 3.00509 0
M  V30 4571 H 427.199 2.9796 0.0485582 0
M  V30 4572 H 424.736 1.47095 0.0122024 0
M  V30 4573 H 426.694 3.33811 2.50251 0
M  V30 4574 H 425.324 2.20623 2.35638 0
M  V30 4575 H 424.376 3.76975 0.509326 0
M  V30 4576 H 425.688 4.90893 0.884633 0
M  V30 4577 H 424.842 5.13612 3.22936 0
M  V30 4578 H 423.581 3.91096 2.91368 0
M  V30 4579 H 422.586 5.37916 1.13695 0
M  V30 4580 H 423.811 6.62836 1.47733 0
M  V30 4581 H 421.757 5.57433 3.45839 0
M  V30 4582 H 421.674 7.09046 2.62279 0
M  V30 4583 H 422.942 6.81709 3.78011 0
M  V30 4584 N 427.171 -0.0066808 1.57599 0
M  V30 4585 C 428.448 -0.729586 1.81484 0
M  V30 4586 C 428.828 -1.92359 0.869558 0
M  V30 4587 O 428.176 -2.28348 -0.0832533 0
M  V30 4588 C 428.386 -1.1416 3.29801 0
M  V30 4589 C 429.734 -1.54823 3.95367 0
M  V30 4590 O 430.758 -1.23558 3.34084 0
M  V30 4591 O 429.617 -2.12937 5.03309 0
M  V30 4592 H 426.711 -0.354674 0.747085 0
M  V30 4593 H 429.257 0.0182609 1.6969 0
M  V30 4594 H 428.029 -0.290231 3.90222 0
M  V30 4595 H 427.652 -1.94876 3.46568 0
M  V30 4596 N 428.649 -1.55105 -0.279332 0
M  V30 4597 C 429.581 -1.83952 -1.36727 0
M  V30 4598 C 430.594 -0.723642 -1.45833 0
M  V30 4599 O 431.783 -1.00141 -1.47763 0
M  V30 4600 C 428.883 -1.98183 -2.74912 0
M  V30 4601 C 428.056 -3.28787 -2.88475 0
M  V30 4602 C 427.115 -3.33162 -4.07295 0
M  V30 4603 O 426.141 -4.06576 -3.98353 0
M  V30 4604 N 427.343 -2.60109 -5.18964 0
M  V30 4605 H 430.108 -2.77853 -1.12328 0
M  V30 4606 H 427.669 -1.54945 -0.469442 0
M  V30 4607 H 429.661 -1.98488 -3.52682 0
M  V30 4608 H 428.231 -1.11177 -2.92162 0
M  V30 4609 H 427.451 -3.41075 -1.97641 0
M  V30 4610 H 428.739 -4.14933 -2.94463 0
M  V30 4611 H 428.137 -2.00136 -5.29115 0
M  V30 4612 H 426.694 -2.66143 -5.94988 0
M  V30 4613 N 430.127 0.543554 -1.4793 0
M  V30 4614 C 431.074 1.64942 -1.6144 0
M  V30 4615 C 432.044 1.59692 -0.456903 0
M  V30 4616 O 433.229 1.78321 -0.678688 0
M  V30 4617 C 430.369 3.03238 -1.64744 0
M  V30 4618 C 429.482 3.18823 -2.91506 0
M  V30 4619 C 428.617 4.47599 -2.86057 0
M  V30 4620 C 427.656 4.56664 -4.07584 0
M  V30 4621 N 426.793 5.76811 -4.00292 0
M  V30 4622 H 431.633 1.52733 -2.55884 0
M  V30 4623 H 429.17 0.7438 -1.2691 0
M  V30 4624 H 431.128 3.83339 -1.64641 0
M  V30 4625 H 429.758 3.1425 -0.738017 0
M  V30 4626 H 428.81 2.32064 -3.01414 0
M  V30 4627 H 430.122 3.21384 -3.81463 0
M  V30 4628 H 429.276 5.35975 -2.84281 0
M  V30 4629 H 428.015 4.47538 -1.93807 0
M  V30 4630 H 427.02 3.66697 -4.09651 0
M  V30 4631 H 428.245 4.58474 -5.00978 0
M  V30 4632 H 426.191 5.77673 -3.10853 0
M  V30 4633 H 426.108 5.80808 -4.8394 0
M  V30 4634 H 427.376 6.67512 -4.02553 0
M  V30 4635 N 431.605 1.3629 0.791371 0
M  V30 4636 C 432.853 1.30154 1.5461 0
M  V30 4637 C 433.174 -0.119409 1.94634 0
M  V30 4638 O 432.444 -1.05924 1.64794 0
M  V30 4639 H 431.024 0.478784 0.573389 0
M  V30 4640 H 433.686 1.70565 0.94306 0
M  V30 4641 H 432.782 1.92762 2.45457 0
M  V30 4642 N 433.083 -1.0153 1.20538 0
M  V30 4643 C 434.013 -2.11972 0.979295 0
M  V30 4644 C 434.994 -1.6985 -0.0921787 0
M  V30 4645 O 436.179 -1.94089 0.0655932 0
M  V30 4646 C 433.309 -3.43201 0.531984 0
M  V30 4647 C 432.263 -3.9907 1.54685 0
M  V30 4648 C 431.589 -5.26082 0.956127 0
M  V30 4649 C 432.889 -4.32313 2.93092 0
M  V30 4650 H 434.583 -2.31143 1.90298 0
M  V30 4651 H 432.129 -1.11079 0.916372 0
M  V30 4652 H 434.082 -4.1985 0.361044 0
M  V30 4653 H 432.806 -3.23792 -0.427327 0
M  V30 4654 H 431.465 -3.2453 1.70517 0
M  V30 4655 H 431.113 -5.02999 -0.0111538 0
M  V30 4656 H 430.813 -5.64426 1.63393 0
M  V30 4657 H 432.337 -6.05386 0.796284 0
M  V30 4658 H 433.751 -4.99845 2.80763 0
M  V30 4659 H 432.148 -4.81774 3.57791 0
M  V30 4660 H 433.218 -3.41025 3.44717 0
M  V30 4661 N 434.561 -1.01147 -1.20859 0
M  V30 4662 C 435.808 -0.697865 -1.90095 0
M  V30 4663 C 436.136 0.772014 -1.78522 0
M  V30 4664 O 435.391 1.57595 -1.16027 0
M  V30 4665 C 435.69 -1.0727 -3.40922 0
M  V30 4666 C 435.356 -2.53792 -3.72693 0
M  V30 4667 C 434.018 -2.93829 -3.81075 0
M  V30 4668 C 436.37 -3.48674 -3.87397 0
M  V30 4669 C 433.698 -4.27696 -4.01613 0
M  V30 4670 C 436.05 -4.82223 -4.09444 0
M  V30 4671 C 434.714 -5.21973 -4.16054 0
M  V30 4672 H 433.984 -0.255367 -0.695607 0
M  V30 4673 H 436.631 -1.27111 -1.43231 0
M  V30 4674 H 434.936 -0.417799 -3.89566 0
M  V30 4675 H 436.633 -0.807818 -3.92779 0
M  V30 4676 H 433.223 -2.21768 -3.66765 0
M  V30 4677 H 437.407 -3.18904 -3.80281 0
M  V30 4678 H 432.663 -4.58055 -4.04964 0
M  V30 4679 H 436.837 -5.55672 -4.19763 0
M  V30 4680 H 434.464 -6.25717 -4.31721 0
M  V30 4681 N 436.039 1.36541 -0.78704 0
M  V30 4682 C 437.45 1.81873 -0.421807 0
M  V30 4683 C 437.801 1.65487 1.05397 0
M  V30 4684 O 436.926 1.17448 1.81755 0
M  V30 4685 C 437.521 3.30192 -0.758841 0
M  V30 4686 C 436.08 3.73743 -0.446468 0
M  V30 4687 C 435.227 2.58844 -0.994728 0
M  V30 4688 H 438.178 1.24796 -0.98039 0
M  V30 4689 H 438.199 3.80468 -0.0490648 0
M  V30 4690 H 437.711 3.42087 -1.83299 0
M  V30 4691 H 435.812 3.6741 0.619739 0
M  V30 4692 H 435.925 4.69272 -0.965415 0
M  V30 4693 H 434.289 2.51245 -0.418087 0
M  V30 4694 H 435.072 2.73525 -2.07458 0
M  V30 4695 N 437.518 0.538854 1.48102 0
M  V30 4696 C 438.481 -0.208395 2.28251 0
M  V30 4697 C 439.481 -0.859656 1.35892 0
M  V30 4698 O 440.671 -0.71834 1.58699 0
M  V30 4699 C 437.803 -1.30252 3.15035 0
M  V30 4700 H 438.996 0.495407 2.9578 0
M  V30 4701 H 436.549 0.295112 1.53489 0
M  V30 4702 H 437.284 -2.0393 2.52157 0
M  V30 4703 H 437.069 -0.840551 3.82985 0
M  V30 4704 H 438.559 -1.82787 3.75471 0
M  V30 4705 N 438.996 -1.55193 0.274407 0
M  V30 4706 C 440.221 -2.04446 -0.348824 0
M  V30 4707 C 440.646 -1.15149 -1.48735 0
M  V30 4708 O 440.004 -0.149952 -1.80679 0
M  V30 4709 C 440.052 -3.51431 -0.808009 0
M  V30 4710 O 439.156 -3.65225 -1.91531 0
M  V30 4711 H 438.497 -0.66006 -0.0722276 0
M  V30 4712 H 441.027 -2.00481 0.408498 0
M  V30 4713 H 441.037 -3.92781 -1.10395 0
M  V30 4714 H 439.712 -4.15892 0.0249865 0
M  V30 4715 H 438.289 -3.35778 -1.62196 0
M  V30 4716 N 440.474 -0.00167713 -1.576 0
M  V30 4717 C 441.72 0.683832 -1.90923 0
M  V30 4718 C 442.053 1.7333 -0.875799 0
M  V30 4719 O 441.328 1.94215 0.10525 0
M  V30 4720 C 441.611 1.32543 -3.3482 0
M  V30 4721 C 441.464 0.287387 -4.48881 0
M  V30 4722 C 442.783 2.25114 -3.78169 0
M  V30 4723 H 439.902 0.247125 -0.694333 0
M  V30 4724 H 442.544 -0.0533149 -1.89925 0
M  V30 4725 H 440.694 1.95372 -3.35801 0
M  V30 4726 H 442.366 -0.341346 -4.60035 0
M  V30 4727 H 440.609 -0.39017 -4.32042 0
M  V30 4728 H 441.28 0.775393 -5.46527 0
M  V30 4729 H 443.756 1.723 -3.7875 0
M  V30 4730 H 442.632 2.66971 -4.79602 0
M  V30 4731 H 442.893 3.13092 -3.12131 0
M  V30 4732 N 441.952 1.55251 0.271103 0
M  V30 4733 C 443.229 1.66664 1.02384 0
M  V30 4734 C 443.609 0.534363 2.04225 0
M  V30 4735 O 442.957 -0.465337 2.23712 0
M  V30 4736 C 443.167 3.05961 1.67895 0
M  V30 4737 C 444.515 3.63772 2.18986 0
M  V30 4738 O 445.539 3.08606 1.77878 0
M  V30 4739 O 444.398 4.60429 2.94393 0
M  V30 4740 H 441.492 0.676957 0.475035 0
M  V30 4741 H 444.038 1.67589 0.26681 0
M  V30 4742 H 442.81 3.79815 0.941071 0
M  V30 4743 H 442.433 3.08943 2.5028 0
M  V30 4744 N 443.43 -0.535701 1.48216 0
M  V30 4745 C 444.677 -1.29183 1.55942 0
M  V30 4746 C 445.005 -1.93125 0.230857 0
M  V30 4747 O 444.26 -1.79556 -0.778331 0
M  V30 4748 C 444.559 -2.4068 2.64212 0
M  V30 4749 C 444.225 -1.94428 4.06827 0
M  V30 4750 C 442.887 -1.81532 4.45645 0
M  V30 4751 C 445.239 -1.59405 4.96225 0
M  V30 4752 C 442.567 -1.31939 5.71672 0
M  V30 4753 C 444.919 -1.11276 6.22736 0
M  V30 4754 C 443.583 -0.969924 6.60416 0
M  V30 4755 H 442.853 -0.472715 0.570632 0
M  V30 4756 H 445.5 -0.598437 1.81909 0
M  V30 4757 H 443.805 -3.15666 2.32083 0
M  V30 4758 H 445.502 -2.98822 2.67407 0
M  V30 4759 H 442.092 -2.05415 3.76168 0
M  V30 4760 H 446.276 -1.68231 4.66917 0
M  V30 4761 H 441.532 -1.19562 5.99596 0
M  V30 4762 H 445.706 -0.832453 6.91407 0
M  V30 4763 H 443.333 -0.583436 7.57958 0
M  V30 4764 N 444.908 -1.36708 -0.784132 0
M  V30 4765 C 446.136 -1.34398 -1.57305 0
M  V30 4766 C 446.551 0.0735577 -1.88657 0
M  V30 4767 O 445.908 1.03193 -1.50524 0
M  V30 4768 C 445.959 -2.17053 -2.89085 0
M  V30 4769 O 445.68 -3.53281 -2.59083 0
M  V30 4770 C 447.181 -2.22583 -3.83369 0
M  V30 4771 H 444.401 -0.460819 -0.487736 0
M  V30 4772 H 446.945 -1.79879 -0.972819 0
M  V30 4773 H 445.1 -1.75113 -3.45564 0
M  V30 4774 H 445.514 -3.9647 -3.43383 0
M  V30 4775 H 446.988 -2.84763 -4.72878 0
M  V30 4776 H 447.465 -1.23075 -4.21603 0
M  V30 4777 H 448.071 -2.64781 -3.32823 0
M  V30 4778 N 446.386 1.0089 -1.21074 0
M  V30 4779 C 447.614 1.78191 -1.05145 0
M  V30 4780 C 448.029 1.84537 0.398952 0
M  V30 4781 O 447.386 1.30393 1.27687 0
M  V30 4782 C 447.437 3.22288 -1.63746 0
M  V30 4783 O 447.158 3.16315 -3.03111 0
M  V30 4784 C 448.659 4.16106 -1.52875 0
M  V30 4785 H 445.879 0.560129 -0.369454 0
M  V30 4786 H 448.423 1.26945 -1.60328 0
M  V30 4787 H 446.578 3.70655 -1.12664 0
M  V30 4788 H 446.992 4.06817 -3.31059 0
M  V30 4789 H 448.466 5.15026 -1.98626 0
M  V30 4790 H 448.943 4.36541 -0.482521 0
M  V30 4791 H 449.549 3.73625 -2.03185 0
M  V30 4792 N 447.864 1.01787 1.20321 0
M  V30 4793 C 449.141 0.622978 1.85414 0
M  V30 4794 C 449.521 -0.898887 1.91006 0
M  V30 4795 O 448.869 -1.79112 1.41884 0
M  V30 4796 C 449.079 1.27226 3.24984 0
M  V30 4797 C 450.427 1.3885 4.01255 0
M  V30 4798 O 451.451 1.22857 3.34342 0
M  V30 4799 O 450.31 1.64705 5.2109 0
M  V30 4800 H 447.404 0.215116 0.798533 0
M  V30 4801 H 449.95 1.11533 1.27901 0
M  V30 4802 H 448.722 2.31209 3.15687 0
M  V30 4803 H 448.345 0.767069 3.90131 0
M  V30 4804 N 449.342 -1.36122 0.79427 0
M  V30 4805 C 450.272 -2.32551 0.210328 0
M  V30 4806 C 451.253 -1.56884 -0.657386 0
M  V30 4807 O 452.438 -1.85014 -0.590207 0
M  V30 4808 C 449.568 -3.41128 -0.651819 0
M  V30 4809 C 448.522 -4.27842 0.116395 0
M  V30 4810 C 447.848 -5.2763 -0.86666 0
M  V30 4811 C 449.148 -5.05647 1.30837 0
M  V30 4812 H 450.842 -2.81636 1.01594 0
M  V30 4813 H 448.388 -1.35407 0.489981 0
M  V30 4814 H 450.341 -4.07581 -1.07031 0
M  V30 4815 H 449.065 -2.90622 -1.49019 0
M  V30 4816 H 447.724 -3.62952 0.515915 0
M  V30 4817 H 447.372 -4.73395 -1.70019 0
M  V30 4818 H 447.072 -5.86514 -0.35705 0
M  V30 4819 H 448.596 -5.96955 -1.28361 0
M  V30 4820 H 450.01 -5.65113 0.965393 0
M  V30 4821 H 448.407 -5.73967 1.75161 0
M  V30 4822 H 449.477 -4.37006 2.10128 0
M  V30 4823 N 450.82 -0.546701 -1.47814 0
M  V30 4824 C 451.77 0.227042 -2.26867 0
M  V30 4825 C 452.754 0.894844 -1.33721 0
M  V30 4826 O 453.946 0.794887 -1.58147 0
M  V30 4827 C 451.075 1.26299 -3.19223 0
M  V30 4828 C 450.161 0.59913 -4.19847 0
M  V30 4829 N 450.552 -0.324777 -5.04756 0
M  V30 4830 C 448.85 0.854331 -4.37741 0
M  V30 4831 C 449.551 -0.709386 -5.77358 0
M  V30 4832 N 448.527 -0.0666153 -5.43559 0
M  V30 4833 H 452.329 -0.483476 -2.89896 0
M  V30 4834 H 449.843 -0.365893 -1.58224 0
M  V30 4835 H 451.84 1.83116 -3.74532 0
M  V30 4836 H 450.5 1.97471 -2.57751 0
M  V30 4837 H 451.511 -0.698351 -5.1317 0
M  V30 4838 H 448.188 1.55536 -3.87447 0
M  V30 4839 H 449.578 -1.46796 -6.55668 0
M  V30 4840 N 452.299 1.55045 -0.282633 0
M  V30 4841 C 453.524 2.04628 0.337977 0
M  V30 4842 C 453.949 1.15937 1.48123 0
M  V30 4843 O 453.307 0.159532 1.80597 0
M  V30 4844 C 453.355 3.51854 0.78936 0
M  V30 4845 O 452.459 3.66236 1.89592 0
M  V30 4846 H 451.8 0.660434 0.0687261 0
M  V30 4847 H 454.33 2.00261 -0.419124 0
M  V30 4848 H 454.34 3.93361 1.08311 0
M  V30 4849 H 453.015 4.15873 -0.0470419 0
M  V30 4850 H 451.592 3.36633 1.60413 0
M  V30 4851 N 453.777 0.010035 1.57597 0
M  V30 4852 C 454.71 -1.01234 2.04516 0
M  V30 4853 C 455.688 -1.32886 0.937024 0
M  V30 4854 O 456.872 -1.44879 1.20592 0
M  V30 4855 C 453.999 -2.33738 2.45121 0
M  V30 4856 C 453.045 -2.17679 3.66767 0
M  V30 4857 S 453.878 -1.49343 5.14254 0
M  V30 4858 C 455.034 -2.83256 5.58137 0
M  V30 4859 H 455.267 -0.612866 2.90914 0
M  V30 4860 H 452.8 -0.201124 1.53084 0
M  V30 4861 H 454.758 -3.09922 2.69182 0
M  V30 4862 H 453.419 -2.70823 1.59103 0
M  V30 4863 H 452.612 -3.1559 3.92962 0
M  V30 4864 H 452.214 -1.4964 3.42759 0
M  V30 4865 H 454.506 -3.79538 5.6121 0
M  V30 4866 H 455.449 -2.61749 6.57946 0
M  V30 4867 H 455.857 -2.87627 4.85727 0
M  V30 4868 N 455.255 -1.55392 -0.262866 0
M  V30 4869 C 456.503 -1.76127 -0.991147 0
M  V30 4870 C 456.824 -0.571083 -1.8645 0
M  V30 4871 O 456.094 0.413698 -1.91482 0
M  V30 4872 H 454.674 -0.649528 -0.368948 0
M  V30 4873 H 457.336 -1.9281 -0.284655 0
M  V30 4874 H 456.432 -2.6663 -1.62219 0
M  V30 4875 N 456.733 0.527833 -1.48498 0
M  V30 4876 C 457.665 1.6482 -1.5927 0
M  V30 4877 C 458.678 1.55659 -0.476869 0
M  V30 4878 O 459.867 1.62081 -0.747806 0
M  V30 4879 C 456.967 3.0348 -1.50842 0
M  V30 4880 C 456.14 3.381 -2.77502 0
M  V30 4881 C 455.199 4.5605 -2.62497 0
M  V30 4882 O 454.225 4.59165 -3.36387 0
M  V30 4883 N 455.427 5.54353 -1.72257 0
M  V30 4884 H 458.192 1.56015 -2.55889 0
M  V30 4885 H 455.753 0.715152 -1.45249 0
M  V30 4886 H 457.745 3.80264 -1.38496 0
M  V30 4887 H 456.315 3.06352 -0.621887 0
M  V30 4888 H 455.535 2.50473 -3.04396 0
M  V30 4889 H 456.823 3.58017 -3.61527 0
M  V30 4890 H 456.221 5.54617 -1.11431 0
M  V30 4891 H 454.778 6.30347 -1.65849 0
M  V30 4892 N 458.211 1.37122 0.776871 0
M  V30 4893 C 459.441 1.35034 1.56363 0
M  V30 4894 C 459.849 -0.0674681 1.8908 0
M  V30 4895 O 459.192 -1.03826 1.51545 0
M  V30 4896 C 459.254 2.11894 2.90415 0
M  V30 4897 C 458.918 3.60897 2.80362 0
M  V30 4898 C 459.915 4.54887 2.51742 0
M  V30 4899 C 457.6 4.03951 2.98545 0
M  V30 4900 C 459.594 5.89909 2.41426 0
M  V30 4901 C 457.281 5.3906 2.87849 0
M  V30 4902 C 458.279 6.31852 2.5933 0
M  V30 4903 O 457.967 7.64479 2.48651 0
M  V30 4904 H 457.699 0.464402 0.49123 0
M  V30 4905 H 460.253 1.80992 0.971127 0
M  V30 4906 H 458.483 1.60618 3.51765 0
M  V30 4907 H 460.172 2.02505 3.51776 0
M  V30 4908 H 460.938 4.22934 2.37385 0
M  V30 4909 H 456.817 3.3209 3.19746 0
M  V30 4910 H 460.361 6.62304 2.19086 0
M  V30 4911 H 456.258 5.70617 3.01773 0
M  V30 4912 H 457.026 7.74742 2.64039 0
M  V30 4913 N 459.689 -1.00246 1.21608 0
M  V30 4914 C 460.935 -1.74319 1.03638 0
M  V30 4915 C 461.268 -1.89408 -0.428749 0
M  V30 4916 O 460.543 -1.43026 -1.3181 0
M  V30 4917 C 460.826 -3.15431 1.73711 0
M  V30 4918 C 460.679 -3.08049 3.27759 0
M  V30 4919 C 461.998 -4.14407 1.48173 0
M  V30 4920 H 459.117 -0.632741 0.377899 0
M  V30 4921 H 461.759 -1.16853 1.49818 0
M  V30 4922 H 459.909 -3.64493 1.34452 0
M  V30 4923 H 461.581 -2.66681 3.76403 0
M  V30 4924 H 459.824 -2.45088 3.57931 0
M  V30 4925 H 460.495 -4.07862 3.71958 0
M  V30 4926 H 462.971 -3.74061 1.82258 0
M  V30 4927 H 461.847 -5.11279 1.99713 0
M  V30 4928 H 462.108 -4.40174 0.412273 0
M  V30 4929 N 461.167 -1.02423 -1.1978 0
M  V30 4930 C 462.099 -0.559152 -2.22275 0
M  V30 4931 C 463.112 0.36251 -1.58713 0
M  V30 4932 O 464.301 0.159641 -1.77785 0
M  V30 4933 C 461.401 0.205094 -3.38279 0
M  V30 4934 C 460.574 -0.720361 -4.31427 0
M  V30 4935 C 459.633 -0.00234368 -5.262 0
M  V30 4936 O 458.659 -0.627378 -5.65732 0
M  V30 4937 N 459.861 1.26996 -5.66438 0
M  V30 4938 H 462.626 -1.44064 -2.62804 0
M  V30 4939 H 460.187 -0.902692 -1.34399 0
M  V30 4940 H 462.179 0.694868 -3.9869 0
M  V30 4941 H 460.749 0.987947 -2.96578 0
M  V30 4942 H 459.969 -1.39031 -3.68869 0
M  V30 4943 H 461.257 -1.3495 -4.90577 0
M  V30 4944 H 460.655 1.79858 -5.36347 0
M  V30 4945 H 459.212 1.70432 -6.29123 0
M  V30 4946 N 462.645 1.35699 -0.801477 0
M  V30 4947 C 463.555 2.33661 -0.209691 0
M  V30 4948 C 464.571 1.6162 0.644591 0
M  V30 4949 O 465.747 1.93529 0.557545 0
M  V30 4950 C 462.812 3.40816 0.636033 0
M  V30 4951 C 461.873 4.28639 -0.238147 0
M  V30 4952 C 461.106 5.30676 0.567307 0
M  V30 4953 O 461.329 5.41174 1.8024 0
M  V30 4954 O 460.263 6.01887 -0.0391336 0
M  V30 4955 H 464.089 2.8606 -1.01996 0
M  V30 4956 H 461.674 1.38379 -0.563164 0
M  V30 4957 H 463.556 4.06301 1.11791 0
M  V30 4958 H 462.231 2.90696 1.42399 0
M  V30 4959 H 461.138 3.66152 -0.767044 0
M  V30 4960 H 462.471 4.82143 -0.989915 0
M  V30 4961 N 464.123 0.554532 1.47522 0
M  V30 4962 C 465.371 0.0294208 2.02079 0
M  V30 4963 C 465.692 -1.32411 1.43151 0
M  V30 4964 O 464.962 -1.863 0.605728 0
M  V30 4965 H 463.542 0.00788672 0.746958 0
M  V30 4966 H 466.204 0.723934 1.80956 0
M  V30 4967 H 465.3 -0.0606745 3.12041 0
M  V30 4968 N 465.601 -1.54893 0.290851 0
M  V30 4969 C 467.017 -1.59476 -0.0628432 0
M  V30 4970 C 467.217 -1.30795 -1.5328 0
M  V30 4971 O 466.273 -1.07644 -2.28406 0
M  V30 4972 C 467.586 -2.98928 0.325962 0
M  V30 4973 C 469.134 -3.11799 0.273882 0
M  V30 4974 C 469.609 -4.53544 0.637359 0
M  V30 4975 N 471.1 -4.59433 0.589507 0
M  V30 4976 C 471.835 -5.67164 0.84335 0
M  V30 4977 N 471.331 -6.82975 1.16263 0
M  V30 4978 N 473.124 -5.56786 0.771091 0
M  V30 4979 H 465.275 -1.71798 1.24896 0
M  V30 4980 H 467.538 -0.801879 0.505663 0
M  V30 4981 H 467.244 -3.24805 1.34887 0
M  V30 4982 H 467.118 -3.75793 -0.325441 0
M  V30 4983 H 469.505 -2.85677 -0.739765 0
M  V30 4984 H 469.586 -2.37112 0.959766 0
M  V30 4985 H 469.23 -4.80394 1.64877 0
M  V30 4986 H 469.16 -5.26553 -0.0704866 0
M  V30 4987 H 471.651 -3.76245 0.353252 0
M  V30 4988 H 471.964 -7.61048 1.34257 0
M  V30 4989 H 470.309 -6.84552 1.20057 0
M  V30 4990 H 473.5 -4.65187 0.521383 0
M  V30 4991 H 473.673 -6.40664 0.972295 0
M  V30 4992 N 467.08 -0.0183926 -1.57589 0
M  V30 4993 C 468.496 0.337897 -1.55982 0
M  V30 4994 C 468.696 1.73604 -1.02294 0
M  V30 4995 O 467.752 2.43589 -0.664895 0
M  V30 4996 C 469.065 0.196305 -3.00059 0
M  V30 4997 C 470.613 0.269875 -3.11834 0
M  V30 4998 C 471.088 0.157197 -4.5773 0
M  V30 4999 N 472.579 0.214521 -4.62703 0
M  V30 5000 C 473.314 0.150955 -5.73201 0
M  V30 5001 N 472.81 0.0369212 -6.9279 0
M  V30 5002 N 474.603 0.204162 -5.61729 0
M  V30 5003 H 466.754 -0.93279 -1.90821 0
M  V30 5004 H 469.017 -0.359253 -0.877292 0
M  V30 5005 H 468.723 -0.766383 -3.43248 0
M  V30 5006 H 468.597 0.970908 -3.6449 0
M  V30 5007 H 470.984 1.22302 -2.68563 0
M  V30 5008 H 471.065 -0.534918 -2.50144 0
M  V30 5009 H 470.709 -0.792479 -5.01679 0
M  V30 5010 H 470.639 0.980717 -5.17387 0
M  V30 5011 H 473.13 0.303238 -3.76681 0
M  V30 5012 H 473.443 -0.00518321 -7.728 0
M  V30 5013 H 471.788 0.0022886 -6.95 0
M  V30 5014 H 474.979 0.291575 -4.67191 0
M  V30 5015 H 475.152 0.15116 -6.47824 0
M  V30 5016 N 468.558 1.5553 0.254621 0
M  V30 5017 C 469.506 1.9048 1.33492 0
M  V30 5018 C 470.5 0.78304 1.50216 0
M  V30 5019 O 471.706 0.967582 1.51782 0
M  V30 5020 H 468.081 0.604846 0.44684 0
M  V30 5021 H 470.052 2.80688 1.01275 0
M  V30 5022 C 468.801 2.20928 2.68489 0
M  V30 5023 H 468.124 3.06742 2.56417 0
M  V30 5024 H 469.564 2.49291 3.42972 0
M  V30 5025 C 468.023 1.023 3.20993 0
M  V30 5026 O 468.553 0.267027 4.00811 0
M  V30 5027 N 466.759 0.815714 2.78917 0
M  V30 5028 H 466.306 1.43217 2.14119 0
M  V30 5029 H 466.264 0.0236532 3.14391 0
M  V30 5030 N 470.036 -0.519951 1.48776 0
M  V30 5031 C 470.966 -1.63253 1.66945 0
M  V30 5032 C 471.947 -1.62014 0.518224 0
M  V30 5033 O 473.132 -1.79053 0.751919 0
M  V30 5034 C 470.262 -3.0181 1.71836 0
M  V30 5035 C 469.216 -3.17911 2.8656 0
M  V30 5036 C 468.542 -4.5763 2.76548 0
M  V30 5037 C 469.842 -2.99729 4.27738 0
M  V30 5038 H 471.536 -1.48302 2.6009 0
M  V30 5039 H 469.082 -0.712026 1.25165 0
M  V30 5040 H 471.035 -3.79525 1.83135 0
M  V30 5041 H 469.759 -3.17806 0.752775 0
M  V30 5042 H 468.418 -2.42616 2.74833 0
M  V30 5043 H 468.066 -4.70476 1.77937 0
M  V30 5044 H 467.766 -4.69346 3.53536 0
M  V30 5045 H 469.29 -5.37431 2.89828 0
M  V30 5046 H 470.704 -3.67228 4.40246 0
M  V30 5047 H 469.101 -3.22932 5.05801 0
M  V30 5048 H 470.171 -1.96047 4.43502 0
M  V30 5049 N 471.514 -1.37532 -0.769588 0
M  V30 5050 C 472.763 -1.32183 -1.5235 0
M  V30 5051 C 473.076 0.0906555 -1.9539 0
M  V30 5052 O 474.282 0.266628 -2.70188 0
M  V30 5053 C 472.738 -2.32029 -2.75119 0
M  V30 5054 C 472.346 -3.78816 -2.3917 0
M  V30 5055 C 474.09 -2.35694 -3.53056 0
M  V30 5056 C 471.997 -4.70388 -3.58453 0
M  V30 5057 H 470.927 -0.491275 -0.571984 0
M  V30 5058 H 473.578 -1.63004 -0.842739 0
M  V30 5059 H 471.96 -1.94229 -3.45096 0
M  V30 5060 H 473.134 -4.25466 -1.76962 0
M  V30 5061 H 471.449 -3.78117 -1.74402 0
M  V30 5062 H 474.046 -3.01312 -4.41718 0
M  V30 5063 H 474.389 -1.37117 -3.93071 0
M  V30 5064 H 474.922 -2.72212 -2.90078 0
M  V30 5065 H 471.661 -5.70102 -3.23518 0
M  V30 5066 H 471.181 -4.28442 -4.19758 0
M  V30 5067 H 472.86 -4.87628 -4.25239 0
M  V30 5068 N 472.992 0.995999 -1.22138 0
M  V30 5069 C 473.902 2.11985 -1.00496 0
M  V30 5070 C 474.918 1.7394 0.0457701 0
M  V30 5071 O 476.094 2.00868 -0.146273 0
M  V30 5072 C 473.159 3.41779 -0.582086 0
M  V30 5073 C 472.22 3.93943 -1.70608 0
M  V30 5074 C 471.453 5.17542 -1.30328 0
M  V30 5075 O 471.676 5.70114 -0.180743 0
M  V30 5076 O 470.61 5.63382 -2.11861 0
M  V30 5077 H 474.436 2.33123 -1.94647 0
M  V30 5078 H 472.021 1.10358 -1.00705 0
M  V30 5079 H 473.903 4.1989 -0.356467 0
M  V30 5080 H 472.578 3.22007 0.330592 0
M  V30 5081 H 471.485 3.17019 -1.98619 0
M  V30 5082 H 472.818 4.18141 -2.59651 0
M  V30 5083 N 474.47 1.03057 1.19235 0
M  V30 5084 C 475.698 0.747697 1.92917 0
M  V30 5085 C 476.113 -0.69372 1.75593 0
M  V30 5086 O 475.47 -1.47191 1.07894 0
M  V30 5087 C 475.521 1.09159 3.44625 0
M  V30 5088 O 475.242 2.47641 3.61394 0
M  V30 5089 C 476.743 0.831763 4.35427 0
M  V30 5090 H 473.963 0.273453 0.612751 0
M  V30 5091 H 476.507 1.37552 1.51327 0
M  V30 5092 H 474.662 0.508919 3.84043 0
M  V30 5093 H 475.076 2.60499 4.55237 0
M  V30 5094 H 476.55 1.12233 5.4047 0
M  V30 5095 H 477.027 -0.233769 4.38577 0
M  V30 5096 H 477.633 1.39725 4.01693 0
M  V30 5097 N 475.948 -1.35272 0.808662 0
M  V30 5098 C 477.194 -1.99003 0.390581 0
M  V30 5099 C 477.527 -1.63999 -1.0401 0
M  V30 5100 O 476.802 -0.904368 -1.72196 0
M  V30 5101 C 477.085 -3.55454 0.576566 0
M  V30 5102 C 476.938 -4.00249 2.05233 0
M  V30 5103 C 478.257 -4.401 0.00354277 0
M  V30 5104 H 475.376 -0.722917 0.143388 0
M  V30 5105 H 478.018 -1.6039 1.01858 0
M  V30 5106 H 476.168 -3.88477 0.0419766 0
M  V30 5107 H 477.84 -3.77626 2.64946 0
M  V30 5108 H 476.083 -3.51082 2.54801 0
M  V30 5109 H 476.754 -5.0911 2.13333 0
M  V30 5110 H 479.23 -4.13548 0.460117 0
M  V30 5111 H 478.106 -5.48656 0.163575 0
M  V30 5112 H 478.367 -4.28444 -1.09032 0
M  V30 5113 N 477.426 -0.562348 -1.47226 0
M  V30 5114 C 478.356 0.170627 -2.32876 0
M  V30 5115 C 479.337 0.903748 -1.44106 0
M  V30 5116 O 480.522 0.883206 -1.72954 0
M  V30 5117 C 477.652 1.19786 -3.25989 0
M  V30 5118 C 476.606 0.580875 -4.2404 0
M  V30 5119 C 475.932 1.71311 -5.06514 0
M  V30 5120 C 477.232 -0.468714 -5.20193 0
M  V30 5121 H 478.926 -0.544441 -2.94408 0
M  V30 5122 H 476.472 -0.263271 -1.41573 0
M  V30 5123 H 478.425 1.71884 -3.84752 0
M  V30 5124 H 477.149 1.94294 -2.62521 0
M  V30 5125 H 475.808 0.0811538 -3.6651 0
M  V30 5126 H 475.456 2.44736 -4.39447 0
M  V30 5127 H 475.156 1.30604 -5.72902 0
M  V30 5128 H 476.68 2.23725 -5.68137 0
M  V30 5129 H 478.094 -0.0336028 -5.7329 0
M  V30 5130 H 476.491 -0.794957 -5.94811 0
M  V30 5131 H 477.561 -1.36269 -4.65359 0
M  V30 5132 N 478.904 1.54736 -0.299062 0
M  V30 5133 C 479.854 2.20155 0.592932 0
M  V30 5134 C 480.838 1.1739 1.10038 0
M  V30 5135 O 482.03 1.43116 1.04147 0
M  V30 5136 C 479.159 2.94437 1.76527 0
M  V30 5137 C 478.245 4.04516 1.27388 0
M  V30 5138 N 478.636 5.03319 0.500339 0
M  V30 5139 C 476.934 4.18022 1.55478 0
M  V30 5140 C 477.635 5.81209 0.238909 0
M  V30 5141 N 476.611 5.37408 0.818163 0
M  V30 5142 H 480.413 2.93899 -0.00563596 0
M  V30 5143 H 477.927 1.62068 -0.103732 0
M  V30 5144 H 479.924 3.3977 2.41582 0
M  V30 5145 H 478.584 2.22209 2.36756 0
M  V30 5146 H 479.595 5.17696 0.145419 0
M  V30 5147 H 476.272 3.56998 2.16469 0
M  V30 5148 H 477.662 6.70812 -0.382223 0
M  V30 5149 N 480.382 0.0267497 1.57577 0
M  V30 5150 C 481.628 -0.653371 1.91987 0
M  V30 5151 C 481.961 -1.71915 0.903263 0
M  V30 5152 O 481.236 -1.94358 -0.0743387 0
M  V30 5153 C 481.519 -1.272 3.36886 0
M  V30 5154 C 481.372 -0.215938 4.49281 0
M  V30 5155 C 482.691 -2.19069 3.81703 0
M  V30 5156 H 479.81 -0.236047 0.698177 0
M  V30 5157 H 482.452 0.0835236 1.89816 0
M  V30 5158 H 480.602 -1.90005 3.38866 0
M  V30 5159 H 482.274 0.41449 4.59434 0
M  V30 5160 H 480.517 0.458855 4.31366 0
M  V30 5161 H 481.188 -0.688347 5.47691 0
M  V30 5162 H 483.664 -1.66253 3.81444 0
M  V30 5163 H 482.54 -2.59307 4.83788 0
M  V30 5164 H 482.801 -3.08087 3.17072 0
M  V30 5165 N 481.861 -1.55662 -0.24637 0
M  V30 5166 C 482.808 -1.90361 -1.30504 0
M  V30 5167 C 483.778 -0.757905 -1.47801 0
M  V30 5168 O 484.963 -1.01161 -1.61775 0
M  V30 5169 C 482.103 -2.2042 -2.65535 0
M  V30 5170 C 481.216 -3.47799 -2.56242 0
M  V30 5171 C 480.351 -3.67426 -3.8363 0
M  V30 5172 C 479.39 -4.88403 -3.68956 0
M  V30 5173 N 478.527 -5.04548 -4.88237 0
M  V30 5174 H 483.367 -2.80645 -1.00213 0
M  V30 5175 H 480.904 -1.38924 -0.483577 0
M  V30 5176 H 482.862 -2.35853 -3.44135 0
M  V30 5177 H 481.492 -1.3334 -2.93973 0
M  V30 5178 H 480.544 -3.40694 -1.69208 0
M  V30 5179 H 481.856 -4.36544 -2.4131 0
M  V30 5180 H 481.01 -3.82821 -4.70673 0
M  V30 5181 H 479.749 -2.76914 -4.01459 0
M  V30 5182 H 478.754 -4.72984 -2.80296 0
M  V30 5183 H 479.979 -5.80375 -3.52621 0
M  V30 5184 H 477.925 -4.16974 -5.06427 0
M  V30 5185 H 477.842 -5.87384 -4.75937 0
M  V30 5186 H 479.11 -5.24355 -5.76777 0
M  V30 5187 N 483.339 0.512053 -1.4905 0
M  V30 5188 C 484.286 1.6148 -1.64902 0
M  V30 5189 C 485.256 1.58687 -0.490673 0
M  V30 5190 O 486.441 1.76842 -0.71636 0
M  V30 5191 C 483.581 2.99676 -1.71139 0
M  V30 5192 C 482.694 3.12568 -2.98203 0
M  V30 5193 C 481.829 4.4143 -2.95487 0
M  V30 5194 C 480.868 4.47916 -4.17179 0
M  V30 5195 N 480.005 5.68191 -4.12437 0
M  V30 5196 H 484.845 1.47271 -2.59066 0
M  V30 5197 H 482.382 0.716713 -1.28459 0
M  V30 5198 H 484.34 3.79761 -1.72736 0
M  V30 5199 H 482.97 3.12614 -0.804508 0
M  V30 5200 H 482.022 2.25618 -3.06269 0
M  V30 5201 H 483.334 3.1322 -3.88194 0
M  V30 5202 H 482.488 5.29825 -2.95585 0
M  V30 5203 H 481.227 4.43326 -2.03256 0
M  V30 5204 H 480.232 3.57925 -4.17337 0
M  V30 5205 H 481.457 4.47744 -5.1059 0
M  V30 5206 H 479.403 5.7095 -3.23036 0
M  V30 5207 H 479.32 5.70413 -4.96151 0
M  V30 5208 H 480.588 6.58823 -4.16621 0
M  V30 5209 N 484.817 1.37938 0.762283 0
M  V30 5210 C 486.228 1.30094 1.33912 0
M  V30 5211 C 486.579 -0.0472026 1.96143 0
M  V30 5212 O 485.704 -0.94917 1.94473 0
M  V30 5213 C 486.299 2.35592 2.43478 0
M  V30 5214 C 484.858 2.31353 2.96905 0
M  V30 5215 C 484.005 2.18919 1.70205 0
M  V30 5216 H 486.956 1.48423 0.561816 0
M  V30 5217 H 486.977 2.00806 3.23199 0
M  V30 5218 H 486.489 3.33701 1.98155 0
M  V30 5219 H 484.59 1.36799 3.46579 0
M  V30 5220 H 484.703 3.25147 3.51875 0
M  V30 5221 H 483.067 1.65624 1.93496 0
M  V30 5222 H 483.85 3.18956 1.26973 0
M  V30 5223 N 486.295 -0.989507 1.22664 0
M  V30 5224 C 487.227 -2.0824 0.957542 0
M  V30 5225 C 488.24 -1.6267 -0.0651098 0
M  V30 5226 O 489.429 -1.77695 0.169312 0
M  V30 5227 C 486.529 -3.36298 0.419145 0
M  V30 5228 C 485.702 -4.10882 1.49982 0
M  V30 5229 C 484.761 -5.17221 0.967904 0
M  V30 5230 O 483.787 -5.44613 1.65487 0
M  V30 5231 N 484.989 -5.80124 -0.20896 0
M  V30 5232 H 487.754 -2.31904 1.89843 0
M  V30 5233 H 485.315 -1.15552 1.13399 0
M  V30 5234 H 487.307 -4.04671 0.0485451 0
M  V30 5235 H 485.877 -3.09671 -0.426937 0
M  V30 5236 H 485.097 -3.37092 2.04359 0
M  V30 5237 H 486.385 -4.57482 2.22682 0
M  V30 5238 H 485.783 -5.60244 -0.783818 0
M  V30 5239 H 484.34 -6.49715 -0.520913 0
M  V30 5240 N 487.773 -1.03688 -1.18687 0
M  V30 5241 C 489.022 -0.733235 -1.879 0
M  V30 5242 C 489.335 0.741745 -1.8099 0
M  V30 5243 O 490.541 1.15875 -2.4553 0
M  V30 5244 C 488.997 -1.26127 -3.37076 0
M  V30 5245 C 488.605 -2.76461 -3.52524 0
M  V30 5246 C 490.349 -1.03398 -4.11715 0
M  V30 5247 C 488.256 -3.22642 -4.95637 0
M  V30 5248 H 487.186 -0.270584 -0.703776 0
M  V30 5249 H 489.837 -1.25222 -1.34133 0
M  V30 5250 H 488.219 -0.670165 -3.90288 0
M  V30 5251 H 489.393 -3.41296 -3.09602 0
M  V30 5252 H 487.708 -2.97559 -2.91286 0
M  V30 5253 H 490.305 -1.3542 -5.17267 0
M  V30 5254 H 490.648 0.0289246 -4.1629 0
M  V30 5255 H 491.181 -1.5895 -3.64664 0
M  V30 5256 H 487.92 -4.28296 -4.96228 0
M  V30 5257 H 487.44 -2.62539 -5.39289 0
M  V30 5258 H 489.119 -3.16444 -5.64333 0
M  V30 5259 N 489.251 1.34841 -0.815825 0
M  V30 5260 C 490.161 2.33425 -0.234462 0
M  V30 5261 C 491.177 1.62295 0.627413 0
M  V30 5262 O 492.353 1.94109 0.536987 0
M  V30 5263 C 489.418 3.41471 0.599849 0
M  V30 5264 C 488.479 4.28362 -0.283596 0
M  V30 5265 C 487.712 5.31248 0.51099 0
M  V30 5266 O 487.935 5.43056 1.7449 0
M  V30 5267 O 486.869 6.01812 -0.10297 0
M  V30 5268 H 490.695 2.84962 -1.05024 0
M  V30 5269 H 488.28 1.37774 -0.577809 0
M  V30 5270 H 490.162 4.07464 1.07475 0
M  V30 5271 H 488.837 2.9219 1.39308 0
M  V30 5272 H 487.744 3.65318 -0.805836 0
M  V30 5273 H 489.077 4.81066 -1.041 0
M  V30 5274 N 490.729 0.570148 1.46925 0
M  V30 5275 C 491.659 -0.158274 2.32963 0
M  V30 5276 C 492.64 -0.896093 1.44583 0
M  V30 5277 O 493.825 -0.874022 1.7342 0
M  V30 5278 C 490.955 -1.18055 3.26619 0
M  V30 5279 C 489.909 -0.558379 4.24342 0
M  V30 5280 C 489.235 -1.68623 5.07415 0
M  V30 5281 C 490.535 0.496295 5.19937 0
M  V30 5282 H 492.229 0.560046 2.94115 0
M  V30 5283 H 489.775 0.270775 1.41431 0
M  V30 5284 H 491.728 -1.69841 3.85658 0
M  V30 5285 H 490.452 -1.92899 2.63548 0
M  V30 5286 H 489.111 -0.0617157 3.66548 0
M  V30 5287 H 488.759 -2.42402 4.40738 0
M  V30 5288 H 488.459 -1.27564 5.73586 0
M  V30 5289 H 489.983 -2.20709 5.69315 0
M  V30 5290 H 491.397 0.0640052 5.73264 0
M  V30 5291 H 489.794 0.82649 5.94381 0
M  V30 5292 H 490.864 1.38735 4.6463 0
M  V30 5293 N 492.207 -1.54576 0.307264 0
M  V30 5294 C 493.435 -2.04675 -0.302597 0
M  V30 5295 C 493.85 -1.18425 -1.47041 0
M  V30 5296 O 493.207 -0.211257 -1.81273 0
M  V30 5297 C 493.258 -3.53575 -0.752801 0
M  V30 5298 O 492.979 -4.36547 0.368536 0
M  V30 5299 C 494.48 -4.19699 -1.42717 0
M  V30 5300 H 491.7 -0.66786 -0.0648374 0
M  V30 5301 H 494.244 -1.99516 0.448716 0
M  V30 5302 H 492.399 -3.59074 -1.45412 0
M  V30 5303 H 492.813 -5.24497 0.0168937 0
M  V30 5304 H 494.287 -5.25388 -1.69327 0
M  V30 5305 H 494.764 -3.69815 -2.36925 0
M  V30 5306 H 495.37 -4.18293 -0.768856 0
M  V30 5307 N 493.685 -0.035106 -1.57561 0
M  V30 5308 C 494.934 0.641604 -1.91223 0
M  V30 5309 C 495.247 1.72944 -0.913761 0
M  V30 5310 O 496.453 2.46321 -1.14185 0
M  V30 5311 C 494.909 1.19249 -3.3957 0
M  V30 5312 C 494.517 0.137616 -4.47789 0
M  V30 5313 C 496.261 1.84537 -3.82291 0
M  V30 5314 C 494.168 0.700478 -5.87237 0
M  V30 5315 H 493.098 0.243417 -0.713627 0
M  V30 5316 H 495.749 -0.101382 -1.8322 0
M  V30 5317 H 494.131 1.98728 -3.42525 0
M  V30 5318 H 495.305 -0.635153 -4.56402 0
M  V30 5319 H 493.62 -0.416855 -4.14308 0
M  V30 5320 H 496.217 2.27616 -4.83834 0
M  V30 5321 H 496.56 2.69054 -3.17672 0
M  V30 5322 H 497.093 1.11739 -3.81784 0
M  V30 5323 H 493.832 -0.106693 -6.55413 0
M  V30 5324 H 493.352 1.4416 -5.82218 0
M  V30 5325 H 495.031 1.18837 -6.35993 0
M  V30 5326 N 495.163 1.55791 0.238111 0
M  V30 5327 C 496.095 1.87513 1.31802 0
M  V30 5328 C 497.108 0.762053 1.43863 0
M  V30 5329 O 498.297 1.04024 1.45056 0
M  V30 5330 C 495.397 2.05402 2.69561 0
M  V30 5331 C 494.57 3.3632 2.79656 0
M  V30 5332 C 493.629 3.43844 3.98319 0
M  V30 5333 O 492.655 4.16994 3.87433 0
M  V30 5334 N 493.857 2.73777 5.11885 0
M  V30 5335 H 496.622 2.80734 1.04922 0
M  V30 5336 H 494.183 1.56135 0.428196 0
M  V30 5337 H 496.175 2.07769 3.47296 0
M  V30 5338 H 494.745 1.18884 2.89111 0
M  V30 5339 H 493.965 3.46195 1.88528 0
M  V30 5340 H 495.253 4.22594 2.83358 0
M  V30 5341 H 494.651 2.14094 5.23622 0
M  V30 5342 H 493.208 2.81825 5.87723 0
M  V30 5343 N 496.642 -0.504142 1.49319 0
M  V30 5344 C 497.552 -1.63248 1.68486 0
M  V30 5345 C 498.568 -1.64488 0.567432 0
M  V30 5346 O 499.744 -1.82966 0.841749 0
M  V30 5347 C 496.809 -2.99627 1.74426 0
M  V30 5348 C 495.87 -3.09039 2.97982 0
M  V30 5349 C 495.103 -4.38913 3.0363 0
M  V30 5350 O 495.326 -5.27528 2.16958 0
M  V30 5351 O 494.26 -4.53231 3.96062 0
M  V30 5352 H 498.086 -1.50008 2.64067 0
M  V30 5353 H 495.671 -0.680086 1.33023 0
M  V30 5354 H 497.553 -3.80689 1.80705 0
M  V30 5355 H 496.228 -3.13136 0.820233 0
M  V30 5356 H 495.135 -2.27177 2.97223 0
M  V30 5357 H 496.468 -3.00456 3.89855 0
M  V30 5358 N 498.12 -1.38341 -0.754957 0
M  V30 5359 C 499.397 -1.24995 -1.50451 0
M  V30 5360 C 499.777 0.149244 -2.10572 0
M  V30 5361 O 499.125 1.15861 -1.96948 0
M  V30 5362 C 499.335 -2.35904 -2.57197 0
M  V30 5363 C 500.683 -2.74262 -3.24138 0
M  V30 5364 O 501.707 -2.35205 -2.67501 0
M  V30 5365 O 500.566 -3.4161 -4.26574 0
M  V30 5366 H 497.66 -0.48872 -0.667144 0
M  V30 5367 H 500.206 -1.50165 -0.790486 0
M  V30 5368 H 498.978 -3.2953 -2.11011 0
M  V30 5369 H 498.601 -2.12291 -3.36182 0
M  V30 5370 N 499.598 0.982988 -1.23187 0
M  V30 5371 C 501.009 1.53847 -1.05773 0
M  V30 5372 C 501.36 1.92568 0.375744 0
M  V30 5373 O 500.485 1.75783 1.26211 0
M  V30 5374 C 501.08 2.79567 -1.91384 0
M  V30 5375 C 499.639 3.31524 -1.78238 0
M  V30 5376 C 498.786 2.04534 -1.87246 0
M  V30 5377 H 501.737 0.802962 -1.36888 0
M  V30 5378 H 501.758 3.52317 -1.43711 0
M  V30 5379 H 501.27 2.51353 -2.95708 0
M  V30 5380 H 499.371 3.64623 -0.766875 0
M  V30 5381 H 499.484 4.01457 -2.61475 0
M  V30 5382 H 497.848 2.1855 -1.30797 0
M  V30 5383 H 498.631 1.78706 -2.9312 0
M  V30 5384 N 501.076 1.04316 1.18135 0
M  V30 5385 C 501.986 0.646876 2.25505 0
M  V30 5386 C 503.002 -0.328008 1.7088 0
M  V30 5387 O 504.178 -0.182309 2.00573 0
M  V30 5388 C 501.243 0.0185664 3.46695 0
M  V30 5389 C 500.304 1.04277 4.16443 0
M  V30 5390 C 499.537 0.444352 5.31847 0
M  V30 5391 O 499.76 -0.748735 5.65465 0
M  V30 5392 O 498.694 1.17428 5.90334 0
M  V30 5393 H 502.52 1.54147 2.61672 0
M  V30 5394 H 500.105 0.814188 1.25265 0
M  V30 5395 H 501.987 -0.331068 4.20097 0
M  V30 5396 H 500.662 -0.849814 3.12346 0
M  V30 5397 H 499.569 1.44425 3.45098 0
M  V30 5398 H 500.902 1.882 4.54798 0
M  V30 5399 N 502.554 -1.34406 0.822964 0
M  V30 5400 C 503.502 -2.31428 0.233165 0
M  V30 5401 C 504.496 -1.57404 -0.626118 0
M  V30 5402 O 505.702 -1.72402 -0.517453 0
M  V30 5403 H 502.077 -0.749863 0.0566557 0
M  V30 5404 H 504.048 -2.78699 1.06628 0
M  V30 5405 C 502.797 -3.42653 -0.590264 0
M  V30 5406 H 502.12 -3.99753 0.0616129 0
M  V30 5407 H 503.56 -4.12778 -0.969054 0
M  V30 5408 C 502.019 -2.87112 -1.76262 0
M  V30 5409 O 502.549 -2.81995 -2.8608 0
M  V30 5410 N 500.755 -2.43934 -1.57938 0
M  V30 5411 H 500.302 -2.48296 -0.686078 0
M  V30 5412 H 500.26 -2.07123 -2.36532 0
M  V30 5413 N 504.032 -0.577932 -1.46621 0
M  V30 5414 C 505.281 -0.0594281 -2.01612 0
M  V30 5415 C 505.594 1.30663 -1.45556 0
M  V30 5416 O 506.8 1.91621 -1.92337 0
M  V30 5417 C 505.256 -0.0556666 -3.59857 0
M  V30 5418 C 504.864 -1.41975 -4.24908 0
M  V30 5419 C 506.608 0.409143 -4.22524 0
M  V30 5420 C 504.515 -1.37397 -5.75218 0
M  V30 5421 H 503.445 -0.0184469 -0.753774 0
M  V30 5422 H 506.096 -0.728869 -1.68404 0
M  V30 5423 H 504.478 0.679843 -3.90121 0
M  V30 5424 H 505.652 -2.17461 -4.0626 0
M  V30 5425 H 503.967 -1.82419 -3.74316 0
M  V30 5426 H 506.564 0.46211 -5.32699 0
M  V30 5427 H 506.907 1.42565 -3.91128 0
M  V30 5428 H 507.44 -0.272152 -3.96868 0
M  V30 5429 H 504.179 -2.36714 -6.11267 0
M  V30 5430 H 503.699 -0.661239 -5.96144 0
M  V30 5431 H 505.378 -1.08484 -6.3784 0
M  V30 5432 N 505.51 1.54411 -0.315457 0
M  V30 5433 C 506.787 1.92562 0.343398 0
M  V30 5434 C 507.167 1.24423 1.70535 0
M  V30 5435 O 506.515 0.385051 2.25232 0
M  V30 5436 C 506.725 3.46168 0.443687 0
M  V30 5437 C 508.073 4.18659 0.707783 0
M  V30 5438 O 509.097 3.52281 0.52693 0
M  V30 5439 O 507.956 5.36198 1.05612 0
M  V30 5440 H 505.05 0.80379 0.194552 0
M  V30 5441 H 507.596 1.65738 -0.364577 0
M  V30 5442 H 506.368 3.8792 -0.513172 0
M  V30 5443 H 505.991 3.79073 1.19956 0
M  V30 5444 N 506.988 0.0434614 1.5754 0
M  V30 5445 C 508.236 -0.630786 1.92004 0
M  V30 5446 C 508.557 -1.71836 0.921807 0
M  V30 5447 O 507.827 -1.9587 -0.034522 0
M  V30 5448 H 506.407 -0.235988 0.708745 0
M  V30 5449 H 509.069 0.0946462 1.9467 0
M  V30 5450 H 508.165 -1.07434 2.93026 0
M  V30 5451 N 508.466 -1.55915 -0.229846 0
M  V30 5452 C 509.396 -1.94754 -1.28815 0
M  V30 5453 C 510.377 -0.814657 -1.49323 0
M  V30 5454 O 511.562 -1.07631 -1.61645 0
M  V30 5455 C 508.692 -2.25705 -2.63959 0
M  V30 5456 C 507.646 -3.41406 -2.5812 0
M  V30 5457 C 506.972 -3.57941 -3.97218 0
M  V30 5458 C 508.272 -4.76616 -2.13623 0
M  V30 5459 H 509.966 -2.83404 -0.965547 0
M  V30 5460 H 507.512 -1.36353 -0.463028 0
M  V30 5461 H 509.465 -2.51467 -3.38146 0
M  V30 5462 H 508.189 -1.339 -2.9789 0
M  V30 5463 H 506.848 -3.1568 -1.86391 0
M  V30 5464 H 506.496 -2.63526 -4.28443 0
M  V30 5465 H 506.196 -4.35757 -3.94195 0
M  V30 5466 H 507.72 -3.86042 -4.73079 0
M  V30 5467 H 509.134 -5.01637 -2.77549 0
M  V30 5468 H 507.531 -5.57655 -2.21677 0
M  V30 5469 H 508.601 -4.7253 -1.08829 0
M  V30 5470 N 509.944 0.496216 -1.49584 0
M  V30 5471 C 510.892 1.61805 -1.67098 0
M  V30 5472 C 511.886 1.60667 -0.536877 0
M  V30 5473 O 513.092 1.65118 -0.716654 0
M  V30 5474 H 509.467 0.53646 -0.526986 0
M  V30 5475 H 511.438 1.44187 -2.61252 0
M  V30 5476 C 510.187 2.99912 -1.75921 0
M  V30 5477 H 509.51 3.01496 -2.62565 0
M  V30 5478 H 510.95 3.77931 -1.92209 0
M  V30 5479 C 509.409 3.33092 -0.505088 0
M  V30 5480 O 509.939 4.00019 0.367085 0
M  V30 5481 N 508.145 2.88278 -0.366599 0
M  V30 5482 H 507.692 2.33989 -1.07735 0
M  V30 5483 H 507.65 3.10846 0.47142 0
M  V30 5484 N 511.423 1.38739 0.74761 0
M  V30 5485 C 512.67 1.35274 1.50689 0
M  V30 5486 C 512.998 -0.0553359 1.94421 0
M  V30 5487 O 512.253 -1.03365 1.66175 0
M  V30 5488 C 512.552 2.25992 2.7688 0
M  V30 5489 C 512.218 3.73854 2.5208 0
M  V30 5490 C 510.88 4.14145 2.45025 0
M  V30 5491 C 513.232 4.67427 2.30568 0
M  V30 5492 C 510.56 5.4609 2.14483 0
M  V30 5493 C 512.912 5.99635 2.01545 0
M  V30 5494 C 511.576 6.39004 1.92951 0
M  V30 5495 H 510.846 0.495003 0.55141 0
M  V30 5496 H 513.493 1.71145 0.859158 0
M  V30 5497 H 511.798 1.83196 3.46333 0
M  V30 5498 H 513.495 2.20611 3.34861 0
M  V30 5499 H 510.085 3.41913 2.58444 0
M  V30 5500 H 514.269 4.3714 2.34994 0
M  V30 5501 H 509.525 5.75528 2.06342 0
M  V30 5502 H 513.699 6.71678 1.83906 0
M  V30 5503 H 511.326 7.41165 1.6905 0
M  V30 5504 N 512.901 -0.976442 1.23707 0
M  V30 5505 C 513.831 -2.08749 1.04624 0
M  V30 5506 C 514.812 -1.70057 -0.0380956 0
M  V30 5507 O 515.997 -1.93782 0.127308 0
M  V30 5508 C 513.127 -3.41335 0.640902 0
M  V30 5509 C 512.081 -3.93947 1.67302 0
M  V30 5510 C 511.407 -5.22774 1.12301 0
M  V30 5511 C 512.707 -4.22769 3.06697 0
M  V30 5512 H 514.401 -2.24972 1.97555 0
M  V30 5513 H 511.947 -1.08108 0.951247 0
M  V30 5514 H 513.9 -4.18489 0.494434 0
M  V30 5515 H 512.624 -3.24988 -0.324099 0
M  V30 5516 H 511.283 -3.18941 1.80755 0
M  V30 5517 H 510.931 -5.0278 0.148877 0
M  V30 5518 H 510.631 -5.58942 1.81267 0
M  V30 5519 H 512.155 -6.02546 0.988479 0
M  V30 5520 H 513.569 -4.90659 2.96524 0
M  V30 5521 H 511.966 -4.70147 3.72937 0
M  V30 5522 H 513.036 -3.29885 3.55392 0
M  V30 5523 N 514.379 -1.04941 -1.1758 0
M  V30 5524 C 515.342 -0.652456 -2.19717 0
M  V30 5525 C 516.342 0.294745 -1.58076 0
M  V30 5526 O 517.532 0.0789579 -1.74021 0
M  V30 5527 C 514.664 0.0420712 -3.40874 0
M  V30 5528 H 515.857 -1.55642 -2.5635 0
M  V30 5529 H 513.41 -0.842995 -1.31618 0
M  V30 5530 H 514.145 0.95943 -3.09783 0
M  V30 5531 H 513.93 -0.638844 -3.86861 0
M  V30 5532 H 515.42 0.306 -4.16477 0
M  V30 5533 N 515.857 1.33968 -0.830081 0
M  V30 5534 C 517.105 1.97672 -0.420734 0
M  V30 5535 C 517.426 1.66111 1.02138 0
M  V30 5536 O 516.696 0.955503 1.71017 0
M  V30 5537 H 515.276 0.73125 -0.152587 0
M  V30 5538 H 517.938 1.63483 -1.0611 0
M  V30 5539 H 517.034 3.07294 -0.545588 0
M  V30 5540 N 517.335 0.585699 1.46312 0
M  V30 5541 C 518.282 -0.145835 2.30339 0
M  V30 5542 C 519.252 -0.881215 1.40797 0
M  V30 5543 O 520.437 -0.871293 1.69744 0
M  V30 5544 C 517.577 -1.15161 3.25318 0
M  V30 5545 C 516.69 -0.419367 4.2996 0
M  V30 5546 C 515.825 -1.41293 5.12064 0
M  V30 5547 C 514.864 -0.667261 6.08452 0
M  V30 5548 N 514.001 -1.60903 6.83414 0
M  V30 5549 H 518.841 0.576755 2.92365 0
M  V30 5550 H 516.378 0.296237 1.44086 0
M  V30 5551 H 518.336 -1.74763 3.78832 0
M  V30 5552 H 516.966 -1.84188 2.65094 0
M  V30 5553 H 516.018 0.291751 3.7928 0
M  V30 5554 H 517.33 0.163433 4.98532 0
M  V30 5555 H 516.484 -2.08167 5.6987 0
M  V30 5556 H 515.223 -2.02966 4.43459 0
M  V30 5557 H 514.228 0.0152356 5.49798 0
M  V30 5558 H 515.453 -0.0558817 6.79077 0
M  V30 5559 H 513.399 -2.21381 6.17516 0
M  V30 5560 H 513.316 -1.07911 7.48259 0
M  V30 5561 H 514.584 -2.26802 7.45775 0
M  V30 5562 N 518.813 -1.54241 0.323641 0
M  V30 5563 C 520.041 -2.04985 -0.280871 0
M  V30 5564 C 520.456 -1.19978 -1.45777 0
M  V30 5565 O 519.813 -0.230471 -1.81039 0
M  V30 5566 C 519.864 -3.54353 -0.715258 0
M  V30 5567 O 519.585 -4.36132 0.414817 0
M  V30 5568 C 521.086 -4.21189 -1.38257 0
M  V30 5569 H 518.306 -0.66851 -0.0577502 0
M  V30 5570 H 520.85 -1.99029 0.469852 0
M  V30 5571 H 519.005 -3.60596 -1.41596 0
M  V30 5572 H 519.419 -5.2445 0.0725227 0
M  V30 5573 H 520.893 -5.27154 -1.63745 0
M  V30 5574 H 521.37 -3.72307 -2.32989 0
M  V30 5575 H 521.976 -4.19085 -0.724447 0
M  V30 5576 N 520.291 -0.0518155 -1.57515 0
M  V30 5577 C 521.221 0.920283 -2.146 0
M  V30 5578 C 522.202 1.32406 -1.06783 0
M  V30 5579 O 523.387 1.39866 -1.34726 0
M  V30 5580 C 520.517 2.1949 -2.6915 0
M  V30 5581 C 519.471 1.93116 -3.81956 0
M  V30 5582 C 518.797 3.27037 -4.23026 0
M  V30 5583 C 520.097 1.25225 -5.07066 0
M  V30 5584 H 521.791 0.444801 -2.96077 0
M  V30 5585 H 519.337 0.212508 -1.42423 0
M  V30 5586 H 521.29 2.87894 -3.07725 0
M  V30 5587 H 520.014 2.69244 -1.84865 0
M  V30 5588 H 518.673 1.27123 -3.43854 0
M  V30 5589 H 518.321 3.74595 -3.3569 0
M  V30 5590 H 518.021 3.10189 -4.99056 0
M  V30 5591 H 519.545 3.96673 -4.64202 0
M  V30 5592 H 520.959 1.83666 -5.43083 0
M  V30 5593 H 519.356 1.18702 -5.88243 0
M  V30 5594 H 520.426 0.228382 -4.84362 0
M  V30 5595 N 521.769 1.56035 0.221574 0
M  V30 5596 C 523.046 1.69837 0.970301 0
M  V30 5597 C 523.426 0.599065 2.02421 0
M  V30 5598 O 522.774 -0.393929 2.25079 0
M  V30 5599 C 522.984 3.11148 1.58076 0
M  V30 5600 C 524.332 3.70555 2.07302 0
M  V30 5601 O 525.356 3.14109 1.6797 0
M  V30 5602 O 524.215 4.69562 2.79596 0
M  V30 5603 H 521.309 0.691727 0.453257 0
M  V30 5604 H 523.855 1.68353 0.213358 0
M  V30 5605 H 522.627 3.82617 0.819759 0
M  V30 5606 H 522.25 3.16749 2.40324 0
M  V30 5607 N 523.247 -0.488276 1.49845 0
M  V30 5608 C 524.157 -1.61451 1.70207 0
M  V30 5609 C 525.173 -1.63877 0.584846 0
M  V30 5610 O 526.349 -1.82063 0.861107 0
M  V30 5611 C 523.414 -2.9776 1.77594 0
M  V30 5612 C 522.475 -3.05861 3.01243 0
M  V30 5613 C 521.708 -4.35668 3.08268 0
M  V30 5614 O 521.931 -5.25197 2.22541 0
M  V30 5615 O 520.865 -4.49005 4.00847 0
M  V30 5616 H 524.691 -1.47199 2.65643 0
M  V30 5617 H 522.276 -0.665939 1.33737 0
M  V30 5618 H 524.158 -3.7875 1.84732 0
M  V30 5619 H 522.833 -3.12248 0.8534 0
M  V30 5620 H 521.74 -2.24012 2.99616 0
M  V30 5621 H 523.073 -2.96304 3.9302 0
M  V30 5622 N 524.725 -1.39134 -0.740242 0
M  V30 5623 C 525.971 -1.36273 -1.50192 0
M  V30 5624 C 526.304 0.0430136 -1.94152 0
M  V30 5625 O 525.579 1.00691 -1.66408 0
M  V30 5626 C 525.862 -2.33041 -2.74525 0
M  V30 5627 C 525.715 -3.82535 -2.36617 0
M  V30 5628 C 527.034 -2.27723 -3.76604 0
M  V30 5629 H 524.153 -0.496323 -0.544823 0
M  V30 5630 H 526.795 -1.70085 -0.846815 0
M  V30 5631 H 524.945 -2.04337 -3.30422 0
M  V30 5632 H 526.617 -4.21967 -1.86391 0
M  V30 5633 H 524.86 -3.99565 -1.68909 0
M  V30 5634 H 525.531 -4.45723 -3.2563 0
M  V30 5635 H 528.007 -2.53091 -3.30279 0
M  V30 5636 H 526.883 -2.97519 -4.61274 0
M  V30 5637 H 527.144 -1.28049 -4.2315 0
M  V30 5638 N 526.204 0.969867 -1.24223 0
M  V30 5639 C 527.152 2.08535 -1.03034 0
M  V30 5640 C 528.146 1.69366 0.0340379 0
M  V30 5641 O 529.352 1.79597 -0.12034 0
M  V30 5642 H 525.727 0.682313 -0.316154 0
M  V30 5643 H 527.698 2.23569 -1.97635 0
M  V30 5644 C 526.447 3.4158 -0.649509 0
M  V30 5645 H 525.77 3.72177 -1.46028 0
M  V30 5646 H 527.21 4.20536 -0.540841 0
M  V30 5647 C 525.669 3.30703 0.643194 0
M  V30 5648 O 526.199 3.64443 1.68951 0
M  V30 5649 N 524.405 2.83841 0.623095 0
M  V30 5650 H 523.952 2.56583 -0.228719 0
M  V30 5651 H 523.91 2.76946 1.48823 0
M  V30 5652 N 527.682 1.05563 1.17022 0
M  V30 5653 C 528.629 0.659893 2.21165 0
M  V30 5654 C 529.599 -0.339813 1.62587 0
M  V30 5655 O 530.784 -0.230378 1.89404 0
M  V30 5656 C 527.924 0.0447297 3.45071 0
M  V30 5657 C 527.037 1.09372 4.17926 0
M  V30 5658 C 526.172 0.445481 5.29329 0
M  V30 5659 C 525.211 1.47852 5.93975 0
M  V30 5660 N 524.348 0.854172 6.96885 0
M  V30 5661 H 529.188 1.55243 2.54369 0
M  V30 5662 H 526.725 0.776336 1.24946 0
M  V30 5663 H 528.683 -0.329404 4.15898 0
M  V30 5664 H 527.313 -0.811244 3.1244 0
M  V30 5665 H 526.365 1.58564 3.45777 0
M  V30 5666 H 527.677 1.87773 4.62107 0
M  V30 5667 H 526.831 0.0179688 6.06697 0
M  V30 5668 H 525.57 -0.370481 4.86291 0
M  V30 5669 H 524.575 1.91601 5.15334 0
M  V30 5670 H 525.8 2.29645 6.39093 0
M  V30 5671 H 523.746 0.0587882 6.55974 0
M  V30 5672 H 523.663 1.57567 7.39397 0
M  V30 5673 H 524.931 0.451559 7.78191 0
M  V30 5674 N 529.16 -1.33526 0.837174 0
M  V30 5675 C 530.107 -2.29248 0.267169 0
M  V30 5676 C 531.077 -1.54252 -0.616071 0
M  V30 5677 O 532.262 -1.82559 -0.554699 0
M  V30 5678 C 529.402 -3.40638 -0.553152 0
M  V30 5679 C 528.515 -4.30548 0.353921 0
M  V30 5680 C 527.65 -5.29051 -0.477339 0
M  V30 5681 C 526.689 -6.106 0.42823 0
M  V30 5682 N 525.826 -7.01152 -0.364801 0
M  V30 5683 H 530.666 -2.77398 1.08877 0
M  V30 5684 H 528.203 -1.36496 0.54838 0
M  V30 5685 H 530.161 -4.03921 -1.04422 0
M  V30 5686 H 528.791 -2.93685 -1.33973 0
M  V30 5687 H 527.843 -3.68001 0.963289 0
M  V30 5688 H 529.155 -4.87631 1.04964 0
M  V30 5689 H 528.309 -5.97853 -1.0323 0
M  V30 5690 H 527.048 -4.72541 -1.2065 0
M  V30 5691 H 526.053 -5.40718 0.995219 0
M  V30 5692 H 527.278 -6.69193 1.15573 0
M  V30 5693 H 525.224 -6.47092 -1.07738 0
M  V30 5694 H 525.141 -7.5551 0.272238 0
M  V30 5695 H 526.409 -7.74263 -0.902054 0
M  V30 5696 N 530.638 -0.59345 -1.46 0
M  V30 5697 C 531.601 0.123538 -2.28867 0
M  V30 5698 C 532.601 0.808628 -1.38989 0
M  V30 5699 O 533.791 0.658945 -1.61256 0
M  V30 5700 C 530.923 1.1847 -3.19653 0
M  V30 5701 H 532.116 -0.604843 -2.93737 0
M  V30 5702 H 529.669 -0.351875 -1.52288 0
M  V30 5703 H 530.404 1.94431 -2.59552 0
M  V30 5704 H 530.189 0.69783 -3.8584 0
M  V30 5705 H 531.679 1.68726 -3.81997 0
M  V30 5706 N 532.116 1.54067 -0.331816 0
M  V30 5707 C 533.363 2.00715 0.268269 0
M  V30 5708 C 533.691 1.21986 1.51491 0
M  V30 5709 O 532.946 0.292309 1.93505 0
M  V30 5710 C 533.245 3.51634 0.639392 0
M  V30 5711 C 532.911 4.48018 -0.509019 0
M  V30 5712 C 531.573 4.74089 -0.824209 0
M  V30 5713 C 533.925 5.05237 -1.28003 0
M  V30 5714 C 531.253 5.54637 -1.91298 0
M  V30 5715 C 533.605 5.86972 -2.35895 0
M  V30 5716 C 532.269 6.11342 -2.67987 0
M  V30 5717 H 531.539 0.734469 0.0981667 0
M  V30 5718 H 534.186 1.8596 -0.457304 0
M  V30 5719 H 532.491 3.6416 1.44551 0
M  V30 5720 H 534.188 3.85175 1.11539 0
M  V30 5721 H 530.778 4.27851 -0.253287 0
M  V30 5722 H 534.962 4.8507 -1.04978 0
M  V30 5723 H 530.218 5.71747 -2.16599 0
M  V30 5724 H 534.392 6.30327 -2.96076 0
M  V30 5725 H 532.019 6.73544 -3.5248 0
M  V30 5726 N 533.594 0.0601682 1.57485 0
M  V30 5727 C 534.526 -0.94047 2.09016 0
M  V30 5728 C 535.539 -1.26897 1.01985 0
M  V30 5729 O 536.728 -1.22819 1.29529 0
M  V30 5730 C 533.828 -2.25955 2.52582 0
M  V30 5731 C 533.001 -2.11163 3.83052 0
M  V30 5732 C 532.06 -3.26273 4.12835 0
M  V30 5733 O 531.086 -3.01779 4.82616 0
M  V30 5734 N 532.288 -4.51022 3.65458 0
M  V30 5735 H 535.053 -0.500578 2.9549 0
M  V30 5736 H 532.614 -0.125852 1.6141 0
M  V30 5737 H 534.606 -3.01846 2.69575 0
M  V30 5738 H 533.176 -2.61481 1.71308 0
M  V30 5739 H 532.396 -1.19808 3.75552 0
M  V30 5740 H 533.684 -1.98517 4.68475 0
M  V30 5741 H 533.082 -4.73811 3.09062 0
M  V30 5742 H 531.639 -5.23978 3.87673 0
M  V30 5743 N 535.072 -1.5615 -0.213296 0
M  V30 5744 C 536.32 -1.79191 -0.934612 0
M  V30 5745 C 536.641 -0.630112 -1.84539 0
M  V30 5746 O 535.911 0.35257 -1.92701 0
M  V30 5747 H 534.491 -0.660937 -0.348097 0
M  V30 5748 H 537.153 -1.93618 -0.22317 0
M  V30 5749 H 536.249 -2.71656 -1.53654 0
M  V30 5750 N 536.55 0.480323 -1.50102 0
M  V30 5751 C 537.778 1.25657 -1.64371 0
M  V30 5752 C 538.193 1.86011 -0.323316 0
M  V30 5753 O 537.55 1.68803 0.693682 0
M  V30 5754 C 537.601 2.37197 -2.728 0
M  V30 5755 O 537.322 1.7932 -3.9972 0
M  V30 5756 C 538.823 3.2823 -2.9796 0
M  V30 5757 H 536.043 0.380369 -0.552775 0
M  V30 5758 H 538.587 0.574379 -1.96268 0
M  V30 5759 H 536.742 3.01208 -2.43623 0
M  V30 5760 H 537.156 2.52701 -4.59611 0
M  V30 5761 H 538.63 4.02725 -3.77513 0
M  V30 5762 H 539.107 3.86462 -2.08671 0
M  V30 5763 H 539.713 2.69964 -3.28633 0
M  V30 5764 N 538.028 1.39524 0.732853 0
M  V30 5765 C 538.958 1.41153 1.86005 0
M  V30 5766 C 539.939 0.274614 1.67869 0
M  V30 5767 O 541.124 0.480745 1.88155 0
M  V30 5768 C 538.254 1.25638 3.23778 0
M  V30 5769 C 537.208 2.36752 3.56556 0
M  V30 5770 C 536.534 2.06326 4.93289 0
M  V30 5771 C 537.834 3.79069 3.5931 0
M  V30 5772 H 539.528 2.35484 1.84899 0
M  V30 5773 H 537.074 1.13348 0.888162 0
M  V30 5774 H 539.027 1.25398 4.0231 0
M  V30 5775 H 537.751 0.277772 3.25417 0
M  V30 5776 H 536.41 2.36213 2.80355 0
M  V30 5777 H 536.058 1.06897 4.9151 0
M  V30 5778 H 535.758 2.80757 5.16187 0
M  V30 5779 H 537.282 2.07739 5.74175 0
M  V30 5780 H 538.696 3.81526 4.27914 0
M  V30 5781 H 537.093 4.52878 3.93728 0
M  V30 5782 H 538.163 4.09893 2.59068 0
M  V30 5783 N 539.506 -0.963266 1.24736 0
M  V30 5784 C 540.436 -2.07628 1.06832 0
M  V30 5785 C 541.417 -1.70088 -0.0200566 0
M  V30 5786 O 542.602 -1.93636 0.147854 0
M  V30 5787 C 539.732 -3.40636 0.677069 0
M  V30 5788 C 538.686 -3.9215 1.71471 0
M  V30 5789 C 538.012 -5.21553 1.1784 0
M  V30 5790 C 539.312 -4.19493 3.11164 0
M  V30 5791 H 541.006 -2.22864 1.9993 0
M  V30 5792 H 538.552 -1.07093 0.96266 0
M  V30 5793 H 540.505 -4.17941 0.538792 0
M  V30 5794 H 539.229 -3.25313 -0.289612 0
M  V30 5795 H 537.888 -3.17005 1.84128 0
M  V30 5796 H 537.536 -5.02593 0.202195 0
M  V30 5797 H 537.236 -5.56988 1.87185 0
M  V30 5798 H 538.76 -6.01463 1.05233 0
M  V30 5799 H 540.174 -4.87487 3.01711 0
M  V30 5800 H 538.571 -4.66165 3.77902 0
M  V30 5801 H 539.641 -3.26097 3.58871 0
M  V30 5802 N 540.985 -1.06182 -1.16461 0
M  V30 5803 C 541.948 -0.675723 -2.19013 0
M  V30 5804 C 542.948 0.277963 -1.58379 0
M  V30 5805 O 544.138 0.0604962 -1.74095 0
M  V30 5806 C 541.27 0.00591459 -3.40899 0
M  V30 5807 H 542.463 -1.58353 -2.54685 0
M  V30 5808 H 540.016 -0.856908 -1.30716 0
M  V30 5809 H 540.751 0.92652 -3.10783 0
M  V30 5810 H 540.536 -0.67984 -3.86161 0
M  V30 5811 H 542.026 0.26181 -4.16778 0
M  V30 5812 N 542.463 1.3308 -0.844243 0
M  V30 5813 C 543.413 2.26589 -0.253289 0
M  V30 5814 C 544.397 1.49501 0.594836 0
M  V30 5815 O 545.589 1.71291 0.445924 0
M  V30 5816 C 542.718 3.38599 0.566176 0
M  V30 5817 C 541.804 4.23081 -0.293756 0
M  V30 5818 N 542.195 4.86751 -1.37505 0
M  V30 5819 C 540.493 4.45925 -0.0817086 0
M  V30 5820 C 541.194 5.49684 -1.90323 0
M  V30 5821 N 540.17 5.30101 -1.20391 0
M  V30 5822 H 543.972 2.73334 -1.08009 0
M  V30 5823 H 541.486 1.47048 -0.689258 0
M  V30 5824 H 543.483 4.04584 1.00587 0
M  V30 5825 H 542.143 2.93401 1.39089 0
M  V30 5826 H 543.154 4.87151 -1.75796 0
M  V30 5827 H 539.831 4.11434 0.709129 0
M  V30 5828 H 541.221 6.10363 -2.80902 0
M  V30 5829 N 543.941 0.601185 1.45683 0
M  V30 5830 C 545.187 0.0940202 2.02582 0
M  V30 5831 C 545.52 -1.26972 1.46941 0
M  V30 5832 O 544.795 -1.83613 0.641612 0
M  V30 5833 C 545.078 0.0481715 3.60068 0
M  V30 5834 C 544.931 1.44212 4.26055 0
M  V30 5835 C 546.25 -0.642975 4.35378 0
M  V30 5836 H 543.369 0.0356404 0.736138 0
M  V30 5837 H 546.011 0.771929 1.73612 0
M  V30 5838 H 544.161 -0.529128 3.8488 0
M  V30 5839 H 545.833 2.06601 4.12449 0
M  V30 5840 H 544.076 2.00465 3.84703 0
M  V30 5841 H 544.747 1.36234 5.34925 0
M  V30 5842 H 547.223 -0.152351 4.15821 0
M  V30 5843 H 546.099 -0.644141 5.45107 0
M  V30 5844 H 546.36 -1.70785 4.0778 0
M  V30 5845 N 545.419 -1.53889 0.339982 0
M  V30 5846 C 546.696 -1.93084 -0.312719 0
M  V30 5847 C 547.076 -1.2712 -1.68534 0
M  V30 5848 O 546.424 -0.420835 -2.24591 0
M  V30 5849 C 546.634 -3.4683 -0.388558 0
M  V30 5850 C 547.982 -4.19732 -0.641088 0
M  V30 5851 O 549.006 -3.53075 -0.470818 0
M  V30 5852 O 547.865 -5.3781 -0.970685 0
M  V30 5853 H 544.959 -0.806784 -0.18174 0
M  V30 5854 H 547.505 -1.65137 0.390898 0
M  V30 5855 H 546.277 -3.87055 0.574821 0
M  V30 5856 H 545.9 -3.80933 -1.1391 0
M  V30 5857 N 546.897 -0.0685191 -1.57451 0
M  V30 5858 C 548.145 0.60016 -1.92983 0
M  V30 5859 C 548.466 1.70348 -0.949028 0
M  V30 5860 O 547.736 1.959 0.00335647 0
M  V30 5861 H 546.316 0.224682 -0.712409 0
M  V30 5862 H 548.978 -0.125605 -1.94495 0
M  V30 5863 H 548.074 1.02759 -2.94698 0
M  V30 5864 N 548.375 1.56261 0.205012 0
M  V30 5865 C 549.623 1.79684 0.925096 0
M  V30 5866 C 549.944 0.63989 1.84202 0
M  V30 5867 O 549.214 -0.342345 1.92885 0
M  V30 5868 H 547.794 0.662774 0.344587 0
M  V30 5869 H 550.456 1.93734 0.212899 0
M  V30 5870 H 549.552 2.72467 1.52211 0
M  V30 5871 N 549.853 -0.472356 1.50355 0
M  V30 5872 C 551.099 -1.22634 1.6152 0
M  V30 5873 C 551.432 -1.91645 0.313995 0
M  V30 5874 O 550.707 -1.82059 -0.684446 0
M  V30 5875 C 550.99 -2.27099 2.7946 0
M  V30 5876 C 550.843 -1.62402 4.19459 0
M  V30 5877 C 552.162 -3.28421 2.92964 0
M  V30 5878 H 549.281 -0.444494 0.587873 0
M  V30 5879 H 551.923 -0.520321 1.82737 0
M  V30 5880 H 550.073 -2.87314 2.61501 0
M  V30 5881 H 551.745 -1.05793 4.49005 0
M  V30 5882 H 549.988 -0.927184 4.23776 0
M  V30 5883 H 550.659 -2.38309 4.97909 0
M  V30 5884 H 553.135 -2.78227 3.09401 0
M  V30 5885 H 552.011 -3.98845 3.77113 0
M  V30 5886 H 552.272 -3.92467 2.03525 0
M  V30 5887 N 551.331 -1.39911 -0.725443 0
M  V30 5888 C 552.742 -1.33599 -1.30415 0
M  V30 5889 C 553.093 -0.00481792 -1.96199 0
M  V30 5890 O 552.218 0.897275 -1.96921 0
M  V30 5891 C 552.813 -2.41965 -2.37146 0
M  V30 5892 C 551.372 -2.39144 -2.90667 0
M  V30 5893 C 550.519 -2.23355 -1.64341 0
M  V30 5894 H 553.47 -1.4986 -0.522267 0
M  V30 5895 H 553.491 -2.09304 -3.17761 0
M  V30 5896 H 553.003 -3.38837 -1.89238 0
M  V30 5897 H 551.104 -1.4594 -3.4283 0
M  V30 5898 H 551.217 -3.34362 -3.43131 0
M  V30 5899 H 549.581 -1.70696 -1.89037 0
M  V30 5900 H 550.364 -3.2221 -1.18471 0
M  V30 5901 N 552.809 0.956637 -1.25245 0
M  V30 5902 C 553.757 2.0743 -1.0524 0
M  V30 5903 C 554.751 1.69392 0.0160725 0
M  V30 5904 O 555.957 1.7946 -0.139382 0
M  V30 5905 H 552.332 0.678921 -0.323373 0
M  V30 5906 H 554.303 2.2146 -1.99995 0
M  V30 5907 C 553.052 3.40872 -0.685702 0
M  V30 5908 H 552.375 3.70607 -1.49968 0
M  V30 5909 H 553.815 4.19939 -0.585415 0
M  V30 5910 C 552.274 3.31367 0.608082 0
M  V30 5911 O 552.804 3.66214 1.65076 0
M  V30 5912 N 551.01 2.84486 0.592955 0
M  V30 5913 H 550.557 2.56326 -0.25592 0
M  V30 5914 H 550.515 2.78509 1.45877 0
M  V30 5915 N 554.287 1.06798 1.15896 0
M  V30 5916 C 555.217 0.704677 2.22613 0
M  V30 5917 C 556.198 -0.305252 1.67339 0
M  V30 5918 O 557.383 -0.179247 1.93371 0
M  V30 5919 C 554.513 0.0957325 3.47168 0
M  V30 5920 C 553.467 1.0322 4.15367 0
M  V30 5921 C 552.793 0.286293 5.33933 0
M  V30 5922 C 554.093 2.36341 4.65768 0
M  V30 5923 H 555.787 1.59688 2.53259 0
M  V30 5924 H 553.333 0.769257 1.21731 0
M  V30 5925 H 555.286 -0.170333 4.21056 0
M  V30 5926 H 554.01 -0.831516 3.15838 0
M  V30 5927 H 552.669 1.28309 3.43413 0
M  V30 5928 H 552.317 -0.644237 4.98857 0
M  V30 5929 H 552.017 0.910436 5.80504 0
M  V30 5930 H 553.541 0.0278938 6.10594 0
M  V30 5931 H 554.955 2.1561 5.31211 0
M  V30 5932 H 553.352 2.94299 5.2298 0
M  V30 5933 H 554.422 2.99047 3.81705 0
M  V30 5934 N 555.766 -1.3263 0.851289 0
M  V30 5935 C 557.015 -1.96633 0.449267 0
M  V30 5936 C 557.328 -1.68131 -0.999562 0
M  V30 5937 O 558.534 -2.25845 -1.50685 0
M  V30 5938 C 556.99 -3.51946 0.752446 0
M  V30 5939 C 556.598 -3.89311 2.21678 0
M  V30 5940 C 558.342 -4.22437 0.417983 0
M  V30 5941 C 556.249 -5.37655 2.46336 0
M  V30 5942 H 555.179 -0.735888 0.164269 0
M  V30 5943 H 557.83 -1.51073 1.0416 0
M  V30 5944 H 556.212 -3.95899 0.0895858 0
M  V30 5945 H 557.386 -3.56378 2.92115 0
M  V30 5946 H 555.701 -3.31836 2.51543 0
M  V30 5947 H 558.298 -5.31549 0.579674 0
M  V30 5948 H 558.641 -4.11349 -0.640115 0
M  V30 5949 H 559.174 -3.84057 1.03659 0
M  V30 5950 H 555.913 -5.5376 3.50757 0
M  V30 5951 H 555.433 -5.72005 1.80473 0
M  V30 5952 H 557.112 -6.04695 2.30115 0
M  V30 5953 N 557.244 -0.608902 -1.45362 0
M  V30 5954 C 558.49 -0.104762 -2.02529 0
M  V30 5955 C 558.823 1.26191 -1.47613 0
M  V30 5956 O 558.098 1.8327 -0.65134 0
M  V30 5957 C 558.381 -0.0672661 -3.60037 0
M  V30 5958 C 558.234 -1.4647 -4.25284 0
M  V30 5959 C 559.553 0.619877 -4.35713 0
M  V30 5960 H 556.672 -0.0395438 -0.735938 0
M  V30 5961 H 559.314 -0.781126 -1.73201 0
M  V30 5962 H 557.464 0.50871 -3.85155 0
M  V30 5963 H 559.136 -2.08785 -4.11347 0
M  V30 5964 H 557.379 -2.02502 -3.83634 0
M  V30 5965 H 558.05 -1.39069 -5.34195 0
M  V30 5966 H 560.526 0.130297 -4.15896 0
M  V30 5967 H 559.402 0.615224 -5.45441 0
M  V30 5968 H 559.663 1.68621 -4.0868 0
M  V30 5969 N 558.722 1.53707 -0.348139 0
M  V30 5970 C 559.632 2.28881 0.514857 0
M  V30 5971 C 560.648 1.34168 1.10793 0
M  V30 5972 O 561.824 1.6721 1.12262 0
M  V30 5973 C 558.889 3.05042 1.64774 0
M  V30 5974 C 557.95 4.15389 1.08398 0
M  V30 5975 C 557.183 4.87909 2.16287 0
M  V30 5976 O 557.406 4.60137 3.3709 0
M  V30 5977 O 556.34 5.74254 1.80323 0
M  V30 5978 H 560.166 3.03547 -0.0963699 0
M  V30 5979 H 557.751 1.48972 -0.113043 0
M  V30 5980 H 559.633 3.52656 2.30677 0
M  V30 5981 H 558.308 2.33228 2.24469 0
M  V30 5982 H 557.215 3.72068 0.389341 0
M  V30 5983 H 558.548 4.89318 0.531829 0
M  V30 5984 N 560.2 0.0768682 1.57412 0
M  V30 5985 C 561.13 -0.886026 2.16037 0
M  V30 5986 C 562.111 -1.30691 1.08876 0
M  V30 5987 O 563.296 -1.37705 1.36934 0
M  V30 5988 C 560.426 -2.1518 2.72608 0
M  V30 5989 C 559.38 -1.87015 3.8498 0
M  V30 5990 C 558.706 -3.20266 4.28175 0
M  V30 5991 C 560.006 -1.17143 5.08994 0
M  V30 5992 H 561.7 -0.397642 2.96748 0
M  V30 5993 H 559.246 -0.189823 1.42743 0
M  V30 5994 H 561.199 -2.82962 3.12266 0
M  V30 5995 H 559.923 -2.66269 1.89125 0
M  V30 5996 H 558.582 -1.21636 3.45833 0
M  V30 5997 H 558.23 -3.69207 3.41607 0
M  V30 5998 H 557.93 -3.0221 5.03927 0
M  V30 5999 H 559.454 -3.89237 4.70454 0
M  V30 6000 H 560.868 -1.75003 5.45937 0
M  V30 6001 H 559.265 -1.09328 5.90057 0
M  V30 6002 H 560.335 -0.151295 4.84664 0
M  V30 6003 N 561.678 -1.56367 -0.196722 0
M  V30 6004 C 562.955 -1.71359 -0.943159 0
M  V30 6005 C 563.335 -0.631192 -2.01443 0
M  V30 6006 O 562.683 0.358071 -2.25677 0
M  V30 6007 C 562.893 -3.13623 -1.53106 0
M  V30 6008 C 564.241 -3.73806 -2.01381 0
M  V30 6009 O 565.265 -3.16742 -1.62951 0
M  V30 6010 O 564.124 -4.73951 -2.7209 0
M  V30 6011 H 561.218 -0.698851 -0.442195 0
M  V30 6012 H 563.764 -1.68672 -0.186547 0
M  V30 6013 H 562.536 -3.83873 -0.758785 0
M  V30 6014 H 562.159 -3.20532 -2.35255 0
M  V30 6015 N 563.156 0.464375 -1.50603 0
M  V30 6016 C 564.066 1.58723 -1.72754 0
M  V30 6017 C 565.082 1.62925 -0.610844 0
M  V30 6018 O 566.258 1.8067 -0.889963 0
M  V30 6019 C 563.323 2.94897 -1.82309 0
M  V30 6020 C 562.384 3.0103 -3.06071 0
M  V30 6021 C 561.617 4.30708 -3.1516 0
M  V30 6022 O 561.84 5.2159 -2.30868 0
M  V30 6023 O 560.774 4.42571 -4.0794 0
M  V30 6024 H 564.6 1.42954 -2.67951 0
M  V30 6025 H 562.185 0.644579 -1.3478 0
M  V30 6026 H 564.067 3.75764 -1.90735 0
M  V30 6027 H 562.742 3.10851 -0.902967 0
M  V30 6028 H 561.649 2.19217 -3.03142 0
M  V30 6029 H 562.982 2.90014 -3.97684 0
M  V30 6030 N 564.634 1.40294 0.718013 0
M  V30 6031 C 565.567 1.34767 1.84155 0
M  V30 6032 C 566.545 0.218455 1.61126 0
M  V30 6033 O 567.729 0.401716 1.8417 0
M  V30 6034 C 564.856 1.09676 3.20451 0
M  V30 6035 C 563.902 2.25016 3.62312 0
M  V30 6036 S 564.735 3.87397 3.69707 0
M  V30 6037 C 565.891 3.64565 5.08766 0
M  V30 6038 H 566.124 2.29851 1.88562 0
M  V30 6039 H 563.657 1.2655 0.884555 0
M  V30 6040 H 565.615 0.95885 3.99144 0
M  V30 6041 H 564.276 0.162502 3.13679 0
M  V30 6042 H 563.469 2.03097 4.61268 0
M  V30 6043 H 563.071 2.35098 2.90869 0
M  V30 6044 H 565.363 3.22882 5.95612 0
M  V30 6045 H 566.306 4.63043 5.35721 0
M  V30 6046 H 566.714 2.98303 4.79245 0
M  V30 6047 N 566.112 -0.949982 1.2575 0
M  V30 6048 C 567.06 -2.06869 1.06339 0
M  V30 6049 C 568.054 -1.69399 -0.00708901 0
M  V30 6050 O 569.26 -1.79383 0.148897 0
M  V30 6051 H 565.635 -0.677197 0.326969 0
M  V30 6052 H 567.606 -2.20396 2.01167 0
M  V30 6053 C 566.355 -3.40503 0.703769 0
M  V30 6054 H 565.678 -3.69807 1.51931 0
M  V30 6055 H 567.118 -4.19623 0.607677 0
M  V30 6056 C 565.577 -3.31685 -0.5905 0
M  V30 6057 O 566.107 -3.67085 -1.63131 0
M  V30 6058 N 564.313 -2.84797 -0.577859 0
M  V30 6059 H 563.86 -2.56186 0.26951 0
M  V30 6060 H 563.818 -2.79279 -1.44398 0
M  V30 6061 N 567.59 -1.07411 -1.15328 0
M  V30 6062 C 568.5 -0.706438 -2.23711 0
M  V30 6063 C 569.516 0.282586 -1.7169 0
M  V30 6064 O 570.692 0.129066 -2.00986 0
M  V30 6065 C 567.757 -0.11048 -3.46524 0
M  V30 6066 C 566.818 -1.15282 -4.13532 0
M  V30 6067 C 566.051 -0.585205 -5.30482 0
M  V30 6068 O 566.274 0.598549 -5.67251 0
M  V30 6069 O 565.208 -1.33039 -5.87013 0
M  V30 6070 H 569.034 -1.61031 -2.57493 0
M  V30 6071 H 566.619 -0.847113 -1.23062 0
M  V30 6072 H 568.501 0.21957 -4.20828 0
M  V30 6073 H 567.176 0.766703 -3.14489 0
M  V30 6074 H 566.083 -1.53523 -3.41147 0
M  V30 6075 H 567.416 -2.00192 -4.49649 0
M  V30 6076 N 569.068 1.32177 -0.85831 0
M  V30 6077 C 570.298 2.01021 -0.476889 0
M  V30 6078 C 570.706 1.64653 0.931995 0
M  V30 6079 O 570.049 0.865713 1.62022 0
M  V30 6080 C 570.111 3.55413 -0.540528 0
M  V30 6081 C 569.775 4.1522 -1.90895 0
M  V30 6082 C 570.772 4.3318 -2.87491 0
M  V30 6083 C 568.457 4.51212 -2.20709 0
M  V30 6084 C 570.451 4.86306 -4.1205 0
M  V30 6085 C 568.138 5.04042 -3.45521 0
M  V30 6086 C 569.136 5.21538 -4.41007 0
M  V30 6087 O 568.824 5.73238 -5.63608 0
M  V30 6088 H 568.556 0.650059 -0.18547 0
M  V30 6089 H 571.11 1.69648 -1.15796 0
M  V30 6090 H 569.34 3.86196 0.19741 0
M  V30 6091 H 571.029 4.05526 -0.174191 0
M  V30 6092 H 571.795 4.05704 -2.65762 0
M  V30 6093 H 567.674 4.36878 -1.4717 0
M  V30 6094 H 571.218 4.99877 -4.86589 0
M  V30 6095 H 567.115 5.30952 -3.67098 0
M  V30 6096 H 567.883 5.91625 -5.65617 0
M  V30 6097 N 570.547 0.616602 1.45037 0
M  V30 6098 C 571.775 0.121968 2.0654 0
M  V30 6099 C 572.19 -1.19743 1.45969 0
M  V30 6100 O 571.547 -1.73133 0.577168 0
M  V30 6101 C 571.598 -0.0145171 3.61497 0
M  V30 6102 O 571.319 1.25269 4.19809 0
M  V30 6103 C 572.82 -0.539555 4.40004 0
M  V30 6104 H 570.04 0.0729837 0.667019 0
M  V30 6105 H 572.584 0.846891 1.8614 0
M  V30 6106 H 570.739 -0.689809 3.81209 0
M  V30 6107 H 571.153 1.08816 5.13088 0
M  V30 6108 H 572.627 -0.584112 5.48901 0
M  V30 6109 H 573.104 -1.56368 4.10421 0
M  V30 6110 H 573.71 0.101995 4.25178 0
M  V30 6111 N 572.025 -1.5352 0.356285 0
M  V30 6112 C 573.272 -2.01117 -0.236303 0
M  V30 6113 C 573.6 -1.24381 -1.49531 0
M  V30 6114 O 572.855 -0.323057 -1.93015 0
M  V30 6115 C 573.154 -3.52607 -0.583369 0
M  V30 6116 C 572.82 -4.47151 0.58023 0
M  V30 6117 C 571.482 -4.72718 0.899528 0
M  V30 6118 C 573.834 -5.03137 1.36024 0
M  V30 6119 C 571.162 -5.51523 2.00098 0
M  V30 6120 C 573.514 -5.83145 2.45204 0
M  V30 6121 C 572.178 -6.07001 2.77679 0
M  V30 6122 H 571.448 -0.735938 -0.0864695 0
M  V30 6123 H 574.095 -1.85209 0.48683 0
M  V30 6124 H 572.4 -3.66413 -1.38739 0
M  V30 6125 H 574.097 -3.86901 -1.05397 0
M  V30 6126 H 570.687 -4.27394 0.321322 0
M  V30 6127 H 574.871 -4.83339 1.12682 0
M  V30 6128 H 570.127 -5.68229 2.25668 0
M  V30 6129 H 574.301 -6.25537 3.06067 0
M  V30 6130 H 571.928 -6.67851 3.63151 0
M  V30 6131 N 573.503 -0.0852151 -1.57369 0
M  V30 6132 C 574.751 0.579658 -1.93609 0
M  V30 6133 C 575.072 1.69332 -0.967043 0
M  V30 6134 O 574.342 1.95892 -0.0174215 0
M  V30 6135 H 572.922 0.217113 -0.714752 0
M  V30 6136 H 575.584 -0.146226 -1.94351 0
M  V30 6137 H 574.68 0.996276 -2.95771 0
M  V30 6138 N 574.981 1.5647 0.188427 0
M  V30 6139 C 575.891 1.98285 1.2538 0
M  V30 6140 C 576.907 0.891535 1.49424 0
M  V30 6141 O 578.083 1.19782 1.61908 0
M  V30 6142 C 575.148 2.31965 2.57669 0
M  V30 6143 C 574.209 3.54838 2.41638 0
M  V30 6144 C 573.442 3.86901 3.67618 0
M  V30 6145 O 573.665 3.20163 4.72072 0
M  V30 6146 O 572.599 4.80309 3.62749 0
M  V30 6147 H 576.425 2.89145 0.928912 0
M  V30 6148 H 574.01 1.44112 0.393955 0
M  V30 6149 H 575.892 2.54673 3.35737 0
M  V30 6150 H 574.567 1.44271 2.89771 0
M  V30 6151 H 573.474 3.37369 1.61658 0
M  V30 6152 H 574.807 4.43019 2.14465 0
M  V30 6153 N 576.459 -0.456382 1.50847 0
M  V30 6154 C 577.392 -1.57177 1.65441 0
M  V30 6155 C 578.37 -1.54649 0.502224 0
M  V30 6156 O 579.554 -1.74057 0.723633 0
M  V30 6157 C 576.681 -2.95763 1.65052 0
M  V30 6158 C 575.727 -3.16389 2.86007 0
M  V30 6159 S 576.56 -2.94716 4.47105 0
M  V30 6160 C 577.716 -4.35617 4.49432 0
M  V30 6161 H 577.949 -1.44561 2.59787 0
M  V30 6162 H 575.482 -0.644758 1.40293 0
M  V30 6163 H 577.44 -3.75654 1.65512 0
M  V30 6164 H 576.101 -3.05756 0.719153 0
M  V30 6165 H 575.294 -4.17667 2.82081 0
M  V30 6166 H 574.896 -2.44293 2.8319 0
M  V30 6167 H 577.188 -5.28503 4.239 0
M  V30 6168 H 578.131 -4.44582 5.51137 0
M  V30 6169 H 578.539 -4.18382 3.78967 0
M  V30 6170 N 577.937 -1.40673 -0.710563 0
M  V30 6171 C 579.183 -1.39428 -1.47267 0
M  V30 6172 C 579.516 0.00182129 -1.942 0
M  V30 6173 O 578.791 0.971387 -1.68506 0
M  V30 6174 C 579.074 -2.38812 -2.6952 0
M  V30 6175 C 578.927 -3.87467 -2.28449 0
M  V30 6176 C 580.246 -2.3566 -3.71689 0
M  V30 6177 H 577.365 -0.507768 -0.534173 0
M  V30 6178 H 580.007 -1.71843 -0.810547 0
M  V30 6179 H 578.157 -2.113 -3.26013 0
M  V30 6180 H 579.829 -4.25825 -1.77399 0
M  V30 6181 H 578.072 -4.03058 -1.60395 0
M  V30 6182 H 578.743 -4.5253 -3.16103 0
M  V30 6183 H 581.219 -2.6004 -3.24836 0
M  V30 6184 H 580.095 -3.07237 -4.54859 0
M  V30 6185 H 580.356 -1.36996 -4.20339 0
M  V30 6186 N 579.415 0.9433 -1.26252 0
M  V30 6187 C 580.645 1.72117 -1.14277 0
M  V30 6188 C 581.053 1.86726 0.304944 0
M  V30 6189 O 580.396 1.3727 1.22076 0
M  V30 6190 C 580.458 3.14778 -1.73651 0
M  V30 6191 C 580.122 3.23561 -3.22734 0
M  V30 6192 C 581.119 3.07001 -4.19579 0
M  V30 6193 C 578.804 3.47019 -3.63157 0
M  V30 6194 C 580.798 3.13763 -5.54826 0
M  V30 6195 C 578.485 3.53416 -4.98538 0
M  V30 6196 C 579.483 3.36804 -5.94182 0
M  V30 6197 O 579.171 3.42906 -7.27098 0
M  V30 6198 H 578.903 0.545781 -0.398873 0
M  V30 6199 H 581.457 1.19123 -1.67328 0
M  V30 6200 H 579.687 3.69186 -1.1506 0
M  V30 6201 H 581.376 3.74469 -1.56613 0
M  V30 6202 H 582.142 2.88736 -3.89688 0
M  V30 6203 H 578.021 3.59006 -2.89199 0
M  V30 6204 H 581.565 3.00714 -6.29458 0
M  V30 6205 H 577.462 3.71201 -5.28091 0
M  V30 6206 H 578.23 3.59463 -7.35342 0
M  V30 6207 N 580.893 1.08022 1.14757 0
M  V30 6208 C 582.14 0.807509 1.85703 0
M  V30 6209 C 582.468 -0.666617 1.8272 0
M  V30 6210 O 581.723 -1.50562 1.25018 0
M  V30 6211 C 582.022 1.26964 3.34088 0
M  V30 6212 C 581.688 2.7509 3.57262 0
M  V30 6213 C 580.35 3.15547 3.63296 0
M  V30 6214 C 582.702 3.70667 3.66409 0
M  V30 6215 C 580.03 4.50384 3.75994 0
M  V30 6216 C 582.382 5.05274 3.80632 0
M  V30 6217 C 581.046 5.45342 3.84913 0
M  V30 6218 H 580.316 0.295488 0.679535 0
M  V30 6219 H 582.963 1.35245 1.35577 0
M  V30 6220 H 581.268 0.644216 3.86467 0
M  V30 6221 H 582.965 1.03544 3.87401 0
M  V30 6222 H 579.555 2.42775 3.53212 0
M  V30 6223 H 583.739 3.40533 3.61041 0
M  V30 6224 H 578.995 4.80886 3.77569 0
M  V30 6225 H 583.169 5.79201 3.86652 0
M  V30 6226 H 580.796 6.49823 3.94505 0
M  V30 6227 N 582.371 -1.3172 0.865308 0
M  V30 6228 C 583.618 -1.96876 0.473931 0
M  V30 6229 C 583.946 -1.68425 -0.972786 0
M  V30 6230 O 583.201 -0.970742 -1.69927 0
M  V30 6231 C 583.5 -3.5102 0.672283 0
M  V30 6232 C 583.166 -3.9948 2.09108 0
M  V30 6233 C 581.828 -4.12425 2.4791 0
M  V30 6234 C 584.18 -4.2503 3.0166 0
M  V30 6235 C 581.508 -4.48267 3.78515 0
M  V30 6236 C 583.86 -4.62335 4.31774 0
M  V30 6237 C 582.524 -4.73486 4.70497 0
M  V30 6238 H 581.794 -0.72042 0.173424 0
M  V30 6239 H 584.441 -1.56937 1.0974 0
M  V30 6240 H 582.746 -3.91785 -0.034356 0
M  V30 6241 H 584.443 -3.99475 0.349353 0
M  V30 6242 H 581.033 -3.89898 1.77981 0
M  V30 6243 H 585.217 -4.14529 2.7291 0
M  V30 6244 H 580.473 -4.55097 4.08285 0
M  V30 6245 H 584.647 -4.81058 5.03543 0
M  V30 6246 H 582.274 -5.01016 5.71741 0
M  V30 6247 N 583.85 -0.624285 -1.44708 0
M  V30 6248 C 584.76 0.0861083 -2.34442 0
M  V30 6249 C 585.776 0.84291 -1.5222 0
M  V30 6250 O 586.952 0.796723 -1.84971 0
M  V30 6251 C 584.017 1.05999 -3.30099 0
M  V30 6252 C 583.077 0.303316 -4.28227 0
M  V30 6253 C 582.311 1.23081 -5.19314 0
M  V30 6254 O 582.534 2.46929 -5.14181 0
M  V30 6255 O 581.468 0.71883 -5.97592 0
M  V30 6256 H 585.293 -0.651756 -2.96624 0
M  V30 6257 H 582.879 -0.384493 -1.44368 0
M  V30 6258 H 584.76 1.62046 -3.88997 0
M  V30 6259 H 583.436 1.77859 -2.70459 0
M  V30 6260 H 582.343 -0.300033 -3.72895 0
M  V30 6261 H 583.676 -0.375123 -4.90768 0
M  V30 6262 N 585.328 1.53329 -0.364422 0
M  V30 6263 C 586.275 2.25698 0.482607 0
M  V30 6264 C 587.245 1.26325 1.07848 0
M  V30 6265 O 588.43 1.55104 1.11119 0
M  V30 6266 C 585.57 3.04873 1.61699 0
M  V30 6267 C 584.683 4.19135 1.0464 0
M  V30 6268 C 583.818 4.85754 2.14979 0
M  V30 6269 C 582.857 5.9205 1.5538 0
M  V30 6270 N 581.994 6.52365 2.59547 0
M  V30 6271 H 586.834 2.97666 -0.141032 0
M  V30 6272 H 584.371 1.46875 -0.0813692 0
M  V30 6273 H 586.329 3.49051 2.28516 0
M  V30 6274 H 584.959 2.35162 2.2113 0
M  V30 6275 H 584.011 3.79451 0.268553 0
M  V30 6276 H 585.323 4.95525 0.570653 0
M  V30 6277 H 584.477 5.3311 2.89619 0
M  V30 6278 H 583.216 4.08834 2.65906 0
M  V30 6279 H 582.221 5.44058 0.792549 0
M  V30 6280 H 583.446 6.7089 1.0528 0
M  V30 6281 H 581.392 5.78298 3.09689 0
M  V30 6282 H 581.309 7.2429 2.16655 0
M  V30 6283 H 582.577 7.0437 3.33892 0
M  V30 6284 N 586.806 0.0935595 1.57322 0
M  V30 6285 C 587.769 -0.851426 2.12799 0
M  V30 6286 C 588.769 -1.21187 1.0569 0
M  V30 6287 O 589.959 -1.14156 1.31583 0
M  V30 6288 C 587.091 -2.14779 2.64731 0
M  V30 6289 H 588.284 -0.369733 2.97612 0
M  V30 6290 H 585.837 -0.155417 1.55525 0
M  V30 6291 H 586.572 -2.67437 1.83434 0
M  V30 6292 H 586.357 -1.89907 3.43042 0
M  V30 6293 H 587.847 -2.82383 3.07651 0
M  V30 6294 N 588.284 -1.56567 -0.180126 0
M  V30 6295 C 589.524 -1.83285 -0.904761 0
M  V30 6296 C 589.888 -0.673226 -1.7981 0
M  V30 6297 O 591.089 -0.820645 -2.55967 0
M  V30 6298 C 589.36 -3.15086 -1.68688 0
M  V30 6299 S 590.919 -3.63258 -2.46149 0
M  V30 6300 H 587.737 -0.643114 -0.303193 0
M  V30 6301 H 590.339 -1.94785 -0.167034 0
M  V30 6302 H 589.043 -3.97484 -1.02148 0
M  V30 6303 H 588.574 -3.06504 -2.46615 0
M  V30 6304 H 590.589 -3.29884 -3.70663 0
M  V30 6305 N 589.762 0.448376 -1.51087 0
M  V30 6306 C 591.01 1.19635 -1.62886 0
M  V30 6307 C 591.331 1.91977 -0.342024 0
M  V30 6308 O 590.601 1.85094 0.641636 0
M  V30 6309 H 589.181 0.444598 -0.600285 0
M  V30 6310 H 591.843 0.515138 -1.87969 0
M  V30 6311 H 590.939 1.93194 -2.45117 0
M  V30 6312 N 591.24 1.41047 0.703093 0
M  V30 6313 C 592.489 1.39301 1.4587 0
M  V30 6314 C 592.802 0.00267077 1.956 0
M  V30 6315 O 594.008 -0.137414 2.71152 0
M  V30 6316 C 592.464 2.44891 2.63735 0
M  V30 6317 C 592.072 3.89796 2.20824 0
M  V30 6318 C 593.816 2.5227 3.41409 0
M  V30 6319 C 591.723 4.86955 3.35602 0
M  V30 6320 H 590.653 0.518005 0.547893 0
M  V30 6321 H 593.304 1.66839 0.764009 0
M  V30 6322 H 591.686 2.10472 3.35436 0
M  V30 6323 H 592.86 4.33424 1.56461 0
M  V30 6324 H 591.175 3.86008 1.56163 0
M  V30 6325 H 593.772 3.22044 4.26839 0
M  V30 6326 H 594.115 1.55714 3.86081 0
M  V30 6327 H 594.648 2.85742 2.7676 0
M  V30 6328 H 591.387 5.84888 2.9595 0
M  V30 6329 H 590.907 4.47982 3.98839 0
M  V30 6330 H 592.586 5.07361 4.01489 0
M  V30 6331 N 592.718 -0.936591 1.26751 0
M  V30 6332 C 593.943 -1.72288 1.15462 0
M  V30 6333 C 594.368 -1.85915 -0.285887 0
M  V30 6334 O 593.726 -1.35272 -1.20711 0
M  V30 6335 C 593.774 -3.10503 1.83359 0
M  V30 6336 O 592.878 -3.96745 1.1255 0
M  V30 6337 H 592.219 -0.52843 0.402067 0
M  V30 6338 H 594.749 -1.17271 1.67656 0
M  V30 6339 H 594.759 -3.60867 1.90365 0
M  V30 6340 H 593.434 -2.99901 2.88153 0
M  V30 6341 H 592.011 -3.55191 1.13551 0
M  V30 6342 N 594.196 -1.08629 -1.14182 0
M  V30 6343 C 595.444 -0.815731 -1.84906 0
M  V30 6344 C 595.765 0.660441 -1.83475 0
M  V30 6345 O 595.035 1.47888 -1.28476 0
M  V30 6346 H 593.615 -0.298773 -0.684648 0
M  V30 6347 H 596.277 -1.37274 -1.38354 0
M  V30 6348 H 595.373 -1.16193 -2.89665 0
M  V30 6349 N 595.674 1.31259 -0.872281 0
M  V30 6350 C 596.624 2.26 -0.301295 0
M  V30 6351 C 597.608 1.50729 0.562991 0
M  V30 6352 O 598.8 1.72198 0.40949 0
M  V30 6353 C 595.929 3.39724 0.494227 0
M  V30 6354 C 595.015 4.22363 -0.383432 0
M  V30 6355 N 595.406 4.83724 -1.47799 0
M  V30 6356 C 593.704 4.45652 -0.176278 0
M  V30 6357 C 594.405 5.45523 -2.01939 0
M  V30 6358 N 593.381 5.27428 -1.31608 0
M  V30 6359 H 597.183 2.70981 -1.13782 0
M  V30 6360 H 594.697 1.45552 -0.720294 0
M  V30 6361 H 596.694 4.06626 0.919828 0
M  V30 6362 H 595.354 2.96286 1.32834 0
M  V30 6363 H 596.365 4.83313 -1.8609 0
M  V30 6364 H 593.042 4.12845 0.621698 0
M  V30 6365 H 594.432 6.04268 -2.93786 0
M  V30 6366 N 597.152 0.631951 1.44375 0
M  V30 6367 C 598.082 -0.0593243 2.33425 0
M  V30 6368 C 599.063 -0.833964 1.48253 0
M  V30 6369 O 600.248 -0.799682 1.76971 0
M  V30 6370 C 597.378 -1.04096 3.31333 0
M  V30 6371 C 596.332 -0.377899 4.26328 0
M  V30 6372 C 595.658 -1.4695 5.14111 0
M  V30 6373 C 596.958 0.716371 5.17364 0
M  V30 6374 H 598.652 0.684287 2.91475 0
M  V30 6375 H 596.198 0.330518 1.40156 0
M  V30 6376 H 598.151 -1.53331 3.92514 0
M  V30 6377 H 596.875 -1.81547 2.71493 0
M  V30 6378 H 595.534 0.0938054 3.6648 0
M  V30 6379 H 595.182 -2.2349 4.50623 0
M  V30 6380 H 594.882 -1.03121 5.78481 0
M  V30 6381 H 596.406 -1.96363 5.78164 0
M  V30 6382 H 597.82 0.307089 5.72477 0
M  V30 6383 H 596.217 1.07784 5.90341 0
M  V30 6384 H 597.287 1.58316 4.58327 0
M  V30 6385 N 598.631 -1.53133 0.372548 0
M  V30 6386 C 599.561 -2.28876 -0.462412 0
M  V30 6387 C 600.542 -1.31583 -1.07796 0
M  V30 6388 O 601.727 -1.60461 -1.09389 0
M  V30 6389 C 598.857 -3.08317 -1.59868 0
M  V30 6390 C 597.811 -4.13355 -1.11003 0
M  V30 6391 C 597.137 -4.8092 -2.33708 0
M  V30 6392 C 598.437 -5.21955 -0.18983 0
M  V30 6393 H 600.131 -2.9892 0.169511 0
M  V30 6394 H 597.677 -1.43761 0.0829658 0
M  V30 6395 H 599.63 -3.60055 -2.18949 0
M  V30 6396 H 598.354 -2.35976 -2.25794 0
M  V30 6397 H 597.013 -3.62573 -0.541869 0
M  V30 6398 H 596.661 -4.05144 -2.98106 0
M  V30 6399 H 596.361 -5.51904 -2.01682 0
M  V30 6400 H 597.885 -5.35455 -2.93462 0
M  V30 6401 H 599.299 -5.69153 -0.688319 0
M  V30 6402 H 597.696 -6.00087 0.0398887 0
M  V30 6403 H 598.766 -4.78811 0.766057 0
M  V30 6404 N 600.109 -0.101901 -1.5727 0
M  V30 6405 C 601.357 0.559091 -1.94213 0
M  V30 6406 C 601.678 1.68297 -0.984948 0
M  V30 6407 O 600.948 1.95863 -0.0381975 0
M  V30 6408 H 599.528 0.20952 -0.717015 0
M  V30 6409 H 602.19 -0.166831 -1.94185 0
M  V30 6410 H 601.286 0.96485 -2.96811 0
M  V30 6411 N 601.587 1.56661 0.17182 0
M  V30 6412 C 602.833 1.82235 0.889845 0
M  V30 6413 C 603.166 0.679673 1.81918 0
M  V30 6414 O 602.441 -0.318404 1.91876 0
M  V30 6415 C 602.724 3.18195 1.68595 0
M  V30 6416 C 602.577 4.42989 0.779773 0
M  V30 6417 C 603.896 3.5109 2.65375 0
M  V30 6418 H 601.015 0.66291 0.322056 0
M  V30 6419 H 603.657 1.89358 0.15608 0
M  V30 6420 H 601.807 3.12253 2.3115 0
M  V30 6421 H 603.479 4.60997 0.16714 0
M  V30 6422 H 601.722 4.33711 0.0877964 0
M  V30 6423 H 602.393 5.3467 1.3723 0
M  V30 6424 H 604.869 3.57482 2.12946 0
M  V30 6425 H 603.745 4.47298 3.18144 0
M  V30 6426 H 604.006 2.75768 3.45549 0
M  V30 6427 N 603.065 -0.440357 1.51323 0
M  V30 6428 C 604.013 -1.55492 1.72988 0
M  V30 6429 C 605.007 -1.58564 0.596138 0
M  V30 6430 O 606.213 -1.62345 0.777443 0
M  V30 6431 H 602.588 -0.516532 0.546533 0
M  V30 6432 H 604.559 -1.34392 2.66423 0
M  V30 6433 C 603.308 -2.93176 1.86931 0
M  V30 6434 H 602.631 -2.91543 2.73574 0
M  V30 6435 H 604.071 -3.70537 2.06103 0
M  V30 6436 C 602.53 -3.30988 0.628365 0
M  V30 6437 O 603.06 -4.01106 -0.218367 0
M  V30 6438 N 601.266 -2.86719 0.473339 0
M  V30 6439 H 600.813 -2.2983 1.16345 0
M  V30 6440 H 600.771 -3.12381 -0.355727 0
M  V30 6441 N 604.543 -1.41418 -0.695603 0
M  V30 6442 C 605.954 -1.36335 -1.27552 0
M  V30 6443 C 606.305 -0.0464336 -1.96145 0
M  V30 6444 O 605.43 0.855304 -1.9878 0
M  V30 6445 C 606.025 -2.46941 -2.3196 0
M  V30 6446 C 604.584 -2.45256 -2.85529 0
M  V30 6447 C 603.731 -2.2679 -1.59566 0
M  V30 6448 H 606.682 -1.50934 -0.490362 0
M  V30 6449 H 606.703 -2.15997 -3.1325 0
M  V30 6450 H 606.215 -3.42775 -1.82008 0
M  V30 6451 H 604.316 -1.53179 -3.39657 0
M  V30 6452 H 604.429 -3.41565 -3.35961 0
M  V30 6453 H 602.793 -1.74667 -1.85374 0
M  V30 6454 H 603.576 -3.24651 -1.1161 0
M  V30 6455 N 606.021 0.929856 -1.27246 0
M  V30 6456 C 607.268 1.67731 -1.13457 0
M  V30 6457 C 607.596 1.9185 0.319998 0
M  V30 6458 O 606.851 1.50524 1.25064 0
M  V30 6459 C 607.15 3.05116 -1.86115 0
M  V30 6460 C 606.816 3.00715 -3.35978 0
M  V30 6461 C 605.478 2.99222 -3.76855 0
M  V30 6462 C 607.83 2.92168 -4.3161 0
M  V30 6463 C 605.158 2.86962 -5.11732 0
M  V30 6464 C 607.51 2.81449 -5.66542 0
M  V30 6465 C 606.174 2.78305 -6.06715 0
M  V30 6466 H 605.444 0.613772 -0.415168 0
M  V30 6467 H 608.091 1.08456 -1.57827 0
M  V30 6468 H 606.396 3.68083 -1.34246 0
M  V30 6469 H 608.093 3.61822 -1.72876 0
M  V30 6470 H 604.683 3.02664 -3.03468 0
M  V30 6471 H 608.867 2.92421 -4.01003 0
M  V30 6472 H 604.123 2.82913 -5.42006 0
M  V30 6473 H 608.297 2.738 -6.40317 0
M  V30 6474 H 605.924 2.68561 -7.11181 0
M  V30 6475 N 607.499 1.09233 1.13605 0
M  V30 6476 C 608.776 0.739633 1.81077 0
M  V30 6477 C 609.156 -0.775595 1.96336 0
M  V30 6478 O 608.504 -1.69726 1.52988 0
M  V30 6479 C 608.714 1.47636 3.16235 0
M  V30 6480 C 610.062 1.64087 3.91613 0
M  V30 6481 O 611.086 1.43871 3.25852 0
M  V30 6482 O 609.945 1.97511 5.0956 0
M  V30 6483 H 607.039 0.265464 0.783236 0
M  V30 6484 H 609.585 1.19441 1.20549 0
M  V30 6485 H 608.357 2.50818 3.00344 0
M  V30 6486 H 607.98 1.01362 3.84462 0
M  V30 6487 N 608.977 -1.30795 0.87923 0
M  V30 6488 C 609.909 -2.27241 0.299025 0
M  V30 6489 C 610.922 -1.53472 -0.543166 0
M  V30 6490 O 612.111 -1.74756 -0.363651 0
M  V30 6491 C 609.211 -3.33655 -0.593931 0
M  V30 6492 C 608.384 -4.36857 0.2179 0
M  V30 6493 C 607.443 -5.22715 -0.604646 0
M  V30 6494 O 606.469 -5.69192 -0.0293838 0
M  V30 6495 N 607.671 -5.48008 -1.91488 0
M  V30 6496 H 610.436 -2.77667 1.12788 0
M  V30 6497 H 607.997 -1.43914 0.741637 0
M  V30 6498 H 609.989 -3.88013 -1.15012 0
M  V30 6499 H 608.559 -2.83202 -1.32346 0
M  V30 6500 H 607.779 -3.82444 0.955536 0
M  V30 6501 H 609.067 -5.02869 0.774614 0
M  V30 6502 H 608.465 -5.1202 -2.40525 0
M  V30 6503 H 607.022 -6.05264 -2.41864 0
M  V30 6504 N 610.455 -0.639598 -1.44038 0
M  V30 6505 C 611.866 -0.228866 -1.85292 0
M  V30 6506 C 612.217 1.22161 -1.53529 0
M  V30 6507 O 611.342 1.93064 -0.977518 0
M  V30 6508 C 611.937 -0.408592 -3.36327 0
M  V30 6509 C 610.496 -0.0522953 -3.76364 0
M  V30 6510 C 609.643 -0.717959 -2.67844 0
M  V30 6511 H 612.594 -0.844194 -1.34384 0
M  V30 6512 H 612.615 0.349968 -3.78887 0
M  V30 6513 H 612.127 -1.46435 -3.59414 0
M  V30 6514 H 610.228 1.0014 -3.58891 0
M  V30 6515 H 610.341 -0.468261 -4.76806 0
M  V30 6516 H 608.705 -0.152459 -2.54243 0
M  V30 6517 H 609.488 -1.77648 -2.93762 0
M  V30 6518 N 611.933 1.52934 -0.380664 0
M  V30 6519 C 613.181 2.01069 0.203874 0
M  V30 6520 C 613.502 1.26922 1.4804 0
M  V30 6521 O 612.772 0.386787 1.92044 0
M  V30 6522 H 611.352 0.742882 0.0783279 0
M  V30 6523 H 614.014 1.88099 -0.510368 0
M  V30 6524 H 613.11 3.09258 0.42021 0
M  V30 6525 N 613.412 0.11024 1.57214 0
M  V30 6526 C 614.658 -0.550684 1.9518 0
M  V30 6527 C 614.991 -1.66885 0.993122 0
M  V30 6528 O 614.266 -1.94479 0.0287907 0
M  V30 6529 C 614.549 -1.09163 3.43155 0
M  V30 6530 C 614.402 0.0225198 4.49794 0
M  V30 6531 C 615.721 -1.98527 3.92778 0
M  V30 6532 H 612.84 -0.198706 0.709708 0
M  V30 6533 H 615.482 0.184024 1.89107 0
M  V30 6534 H 613.632 -1.71775 3.48462 0
M  V30 6535 H 615.304 0.657443 4.56591 0
M  V30 6536 H 613.547 0.686868 4.28328 0
M  V30 6537 H 614.218 -0.39706 5.5057 0
M  V30 6538 H 616.694 -1.458 3.8972 0
M  V30 6539 H 615.57 -2.33298 4.96853 0
M  V30 6540 H 615.831 -2.90846 3.32958 0
M  V30 6541 N 614.89 -1.56749 -0.16351 0
M  V30 6542 C 615.8 -2.00255 -1.2221 0
M  V30 6543 C 616.816 -0.915194 -1.47987 0
M  V30 6544 O 617.992 -1.22342 -1.59982 0
M  V30 6545 C 615.057 -2.36035 -2.53946 0
M  V30 6546 C 614.118 -3.58637 -2.35962 0
M  V30 6547 C 613.351 -3.92701 -3.61416 0
M  V30 6548 O 613.574 -3.27632 -4.66919 0
M  V30 6549 O 612.508 -4.86019 -3.55062 0
M  V30 6550 H 616.334 -2.90586 -0.882794 0
M  V30 6551 H 613.919 -1.44721 -0.370978 0
M  V30 6552 H 615.801 -2.59982 -3.31643 0
M  V30 6553 H 614.476 -1.48863 -2.8744 0
M  V30 6554 H 613.383 -3.39898 -1.5627 0
M  V30 6555 H 614.716 -4.46374 -2.0739 0
M  V30 6556 N 616.368 0.432326 -1.51554 0
M  V30 6557 C 617.331 1.50765 -1.72634 0
M  V30 6558 C 618.331 1.49334 -0.596314 0
M  V30 6559 O 619.521 1.51268 -0.863925 0
M  V30 6560 C 616.653 2.90284 -1.7874 0
M  V30 6561 H 617.846 1.33377 -2.68609 0
M  V30 6562 H 615.399 0.661329 -1.4162 0
M  V30 6563 H 616.134 3.13071 -0.845977 0
M  V30 6564 H 615.919 2.92727 -2.6087 0
M  V30 6565 H 617.409 3.68282 -1.96871 0
M  V30 6566 N 617.846 1.41785 0.688094 0
M  V30 6567 C 619.076 1.44705 1.47459 0
M  V30 6568 C 619.484 0.052916 1.89126 0
M  V30 6569 O 618.827 -0.939781 1.57841 0
M  V30 6570 C 618.889 2.29935 2.76352 0
M  V30 6571 C 618.553 3.77996 2.56843 0
M  V30 6572 C 619.55 4.69976 2.22304 0
M  V30 6573 C 617.235 4.2212 2.7225 0
M  V30 6574 C 619.229 6.04068 2.03421 0
M  V30 6575 C 616.916 5.56275 2.52985 0
M  V30 6576 C 617.914 6.47065 2.18621 0
M  V30 6577 O 617.602 7.78744 1.9953 0
M  V30 6578 H 617.334 0.494703 0.460701 0
M  V30 6579 H 619.888 1.86802 0.854057 0
M  V30 6580 H 618.118 1.82664 3.40839 0
M  V30 6581 H 619.807 2.24467 3.38186 0
M  V30 6582 H 620.573 4.37175 2.10008 0
M  V30 6583 H 616.452 3.51752 2.97979 0
M  V30 6584 H 619.996 6.74897 1.76523 0
M  V30 6585 H 615.893 5.88653 2.64873 0
M  V30 6586 H 616.661 7.89966 2.14234 0
M  V30 6587 N 619.324 -0.923095 1.27737 0
M  V30 6588 C 620.271 -2.02432 1.1086 0
M  V30 6589 C 621.241 -1.66098 0.00835195 0
M  V30 6590 O 622.426 -1.90027 0.171542 0
M  V30 6591 C 619.566 -3.36476 0.766671 0
M  V30 6592 C 618.679 -3.85737 1.94501 0
M  V30 6593 C 617.814 -5.08249 1.54455 0
M  V30 6594 C 616.853 -5.49818 2.6901 0
M  V30 6595 N 615.99 -6.63524 2.29521 0
M  V30 6596 H 620.83 -2.16201 2.05089 0
M  V30 6597 H 618.367 -1.05909 1.02087 0
M  V30 6598 H 620.325 -4.13569 0.549223 0
M  V30 6599 H 618.955 -3.22502 -0.13867 0
M  V30 6600 H 618.007 -3.04883 2.27487 0
M  V30 6601 H 619.319 -4.12513 2.80419 0
M  V30 6602 H 618.473 -5.92857 1.28862 0
M  V30 6603 H 617.212 -4.83261 0.656534 0
M  V30 6604 H 616.217 -4.63757 2.95313 0
M  V30 6605 H 617.442 -5.76799 3.5844 0
M  V30 6606 H 615.388 -6.40185 1.43177 0
M  V30 6607 H 615.305 -6.89978 3.08977 0
M  V30 6608 H 616.573 -7.51461 2.07187 0
M  V30 6609 N 620.802 -1.09834 -1.13024 0
M  V30 6610 C 621.749 -0.741522 -2.18564 0
M  V30 6611 C 622.719 0.279236 -1.63736 0
M  V30 6612 O 623.904 0.159923 -1.90129 0
M  V30 6613 C 621.044 -0.17277 -3.44667 0
M  V30 6614 C 620.157 -1.24808 -4.13578 0
M  V30 6615 C 619.292 -0.641631 -5.27311 0
M  V30 6616 C 618.331 -1.69795 -5.88078 0
M  V30 6617 N 617.468 -1.11223 -6.93234 0
M  V30 6618 H 622.308 -1.64576 -2.48432 0
M  V30 6619 H 619.845 -0.822174 -1.21978 0
M  V30 6620 H 621.803 0.17482 -4.16834 0
M  V30 6621 H 620.433 0.694725 -3.15235 0
M  V30 6622 H 619.485 -1.71288 -3.39653 0
M  V30 6623 H 620.797 -2.04795 -4.54819 0
M  V30 6624 H 619.951 -0.243128 -6.06213 0
M  V30 6625 H 618.69 0.189742 -4.87331 0
M  V30 6626 H 617.695 -2.10595 -5.07868 0
M  V30 6627 H 618.92 -2.53206 -6.3013 0
M  V30 6628 H 616.866 -0.302208 -6.55304 0
M  V30 6629 H 616.783 -1.84901 -7.3304 0
M  V30 6630 H 618.051 -0.740068 -7.75979 0
M  V30 6631 N 622.28 1.30327 -0.886154 0
M  V30 6632 C 623.228 2.30052 -0.343317 0
M  V30 6633 C 624.222 1.60212 0.550305 0
M  V30 6634 O 625.428 1.74674 0.434609 0
M  V30 6635 H 621.803 0.746306 -0.0923681 0
M  V30 6636 H 623.774 2.73294 -1.19804 0
M  V30 6637 C 622.523 3.45079 0.426107 0
M  V30 6638 H 621.846 3.99003 -0.25227 0
M  V30 6639 H 623.286 4.16931 0.771009 0
M  V30 6640 C 621.745 2.95195 1.62363 0
M  V30 6641 O 622.275 2.95323 2.723 0
M  V30 6642 N 620.481 2.51192 1.4612 0
M  V30 6643 H 620.028 2.51286 0.566832 0
M  V30 6644 H 619.986 2.18173 2.2638 0
M  V30 6645 N 623.758 0.647228 1.43697 0
M  V30 6646 C 624.691 -0.097646 2.27991 0
M  V30 6647 C 625.669 -0.83571 1.3948 0
M  V30 6648 O 626.853 -0.836509 1.68922 0
M  V30 6649 C 623.98 -1.14484 3.18765 0
M  V30 6650 C 623.026 -0.505503 4.23494 0
M  V30 6651 S 623.859 0.716471 5.30685 0
M  V30 6652 C 625.015 -0.330339 6.25028 0
M  V30 6653 H 625.248 0.617417 2.90818 0
M  V30 6654 H 622.781 0.435881 1.4812 0
M  V30 6655 H 624.739 -1.74403 3.7161 0
M  V30 6656 H 623.4 -1.83219 2.55127 0
M  V30 6657 H 622.593 -1.29473 4.87086 0
M  V30 6658 H 622.195 0.0194377 3.73995 0
M  V30 6659 H 624.487 -1.19828 6.66819 0
M  V30 6660 H 625.43 0.270409 7.07583 0
M  V30 6661 H 625.838 -0.663459 5.60588 0
M  V30 6662 N 625.236 -1.5273 0.388769 0
M  V30 6663 C 626.483 -2.01573 -0.19359 0
M  V30 6664 C 626.811 -1.27525 -1.46859 0
M  V30 6665 O 626.066 -0.363926 -1.92286 0
M  V30 6666 C 626.365 -3.53765 -0.508445 0
M  V30 6667 C 626.031 -4.4582 0.674947 0
M  V30 6668 C 624.693 -4.70703 0.999596 0
M  V30 6669 C 627.045 -5.00138 1.46666 0
M  V30 6670 C 624.373 -5.47155 2.11751 0
M  V30 6671 C 626.725 -5.77812 2.57518 0
M  V30 6672 C 625.389 -6.00975 2.90492 0
M  V30 6673 H 624.659 -0.737606 -0.0708397 0
M  V30 6674 H 627.306 -1.84134 0.526006 0
M  V30 6675 H 625.611 -3.69274 -1.30936 0
M  V30 6676 H 627.308 -3.8905 -0.971664 0
M  V30 6677 H 623.898 -4.26616 0.411906 0
M  V30 6678 H 628.082 -4.8084 1.22909 0
M  V30 6679 H 623.338 -5.63314 2.3767 0
M  V30 6680 H 627.512 -6.18904 3.19267 0
M  V30 6681 H 625.139 -6.59998 3.77236 0
M  V30 6682 N 626.714 -0.118576 -1.57153 0
M  V30 6683 C 627.677 0.817464 -2.14127 0
M  V30 6684 C 628.677 1.1949 -1.07604 0
M  V30 6685 O 629.867 1.12048 -1.33382 0
M  V30 6686 C 626.999 2.10541 -2.68115 0
M  V30 6687 H 628.192 0.322339 -2.98163 0
M  V30 6688 H 625.745 0.130655 -1.55753 0
M  V30 6689 H 626.48 2.64485 -1.87665 0
M  V30 6690 H 626.265 1.84425 -3.4602 0
M  V30 6691 H 627.755 2.77453 -3.12105 0
M  V30 6692 N 628.193 1.56834 0.155195 0
M  V30 6693 C 629.123 2.00678 1.19376 0
M  V30 6694 C 630.104 0.884973 1.45266 0
M  V30 6695 O 631.289 1.1522 1.56326 0
M  V30 6696 C 628.419 2.38042 2.5289 0
M  V30 6697 C 627.373 3.53332 2.41538 0
M  V30 6698 C 626.699 3.76485 3.79688 0
M  V30 6699 C 627.999 4.86265 1.9064 0
M  V30 6700 H 629.693 2.87688 0.829232 0
M  V30 6701 H 627.239 1.38407 0.397445 0
M  V30 6702 H 629.192 2.67314 3.25763 0
M  V30 6703 H 627.916 1.4796 2.91162 0
M  V30 6704 H 626.575 3.24213 1.71117 0
M  V30 6705 H 626.223 2.83667 4.15382 0
M  V30 6706 H 625.923 4.54068 3.72956 0
M  V30 6707 H 627.447 4.08174 4.54122 0
M  V30 6708 H 628.861 5.14308 2.53299 0
M  V30 6709 H 627.258 5.67597 1.94818 0
M  V30 6710 H 628.328 4.77184 0.861596 0
M  V30 6711 N 629.671 -0.424282 1.51781 0
M  V30 6712 C 630.601 -1.52305 1.7699 0
M  V30 6713 C 631.582 -1.5839 0.620209 0
M  V30 6714 O 632.767 -1.73908 0.864268 0
M  V30 6715 C 629.897 -2.90271 1.90683 0
M  V30 6716 C 628.851 -2.99043 3.06198 0
M  V30 6717 C 628.177 -4.39116 3.05092 0
M  V30 6718 C 629.477 -2.7192 4.45934 0
M  V30 6719 H 631.171 -1.31461 2.68995 0
M  V30 6720 H 628.717 -0.630985 1.29439 0
M  V30 6721 H 630.67 -3.6711 2.06901 0
M  V30 6722 H 629.394 -3.12376 0.953365 0
M  V30 6723 H 628.053 -2.24646 2.89706 0
M  V30 6724 H 627.701 -4.58207 2.07498 0
M  V30 6725 H 627.401 -4.45912 3.82669 0
M  V30 6726 H 628.925 -5.17911 3.2342 0
M  V30 6727 H 630.339 -3.38487 4.62709 0
M  V30 6728 H 628.736 -2.90111 5.25315 0
M  V30 6729 H 629.806 -1.67445 4.55072 0
M  V30 6730 N 631.149 -1.42148 -0.680565 0
M  V30 6731 C 632.397 -1.42029 -1.43779 0
M  V30 6732 C 632.718 -0.0356347 -1.94967 0
M  V30 6733 O 631.988 0.924936 -1.7269 0
M  V30 6734 H 630.568 -0.522835 -0.533529 0
M  V30 6735 H 633.23 -1.7752 -0.804538 0
M  V30 6736 H 632.326 -2.11658 -2.29363 0
M  V30 6737 N 632.627 0.916307 -1.28225 0
M  V30 6738 C 633.574 2.01841 -1.11932 0
M  V30 6739 C 634.544 1.66091 -0.0171604 0
M  V30 6740 O 635.729 1.89934 -0.181617 0
M  V30 6741 C 632.869 3.36065 -0.784504 0
M  V30 6742 C 631.982 3.847 -1.96544 0
M  V30 6743 C 631.117 5.07423 -1.57149 0
M  V30 6744 C 630.156 5.48384 -2.71922 0
M  V30 6745 N 629.293 6.62298 -2.33037 0
M  V30 6746 H 634.133 2.1511 -2.06232 0
M  V30 6747 H 631.67 1.05366 -1.02647 0
M  V30 6748 H 633.628 4.13272 -0.571148 0
M  V30 6749 H 632.258 3.22571 0.121565 0
M  V30 6750 H 631.31 3.03673 -2.291 0
M  V30 6751 H 632.622 4.1102 -2.82603 0
M  V30 6752 H 631.776 5.92165 -1.32004 0
M  V30 6753 H 630.515 4.82906 -0.682153 0
M  V30 6754 H 629.52 4.62184 -2.97768 0
M  V30 6755 H 630.745 5.7489 -3.61494 0
M  V30 6756 H 628.691 6.39416 -1.4657 0
M  V30 6757 H 628.608 6.8833 -3.12631 0
M  V30 6758 H 629.876 7.50352 -2.11169 0
M  V30 6759 N 634.105 1.10431 1.1244 0
M  V30 6760 C 635.516 0.864439 1.65482 0
M  V30 6761 C 635.867 -0.60527 1.8663 0
M  V30 6762 O 634.992 -1.46492 1.59276 0
M  V30 6763 C 635.587 1.56267 3.0061 0
M  V30 6764 C 634.146 1.3695 3.50602 0
M  V30 6765 C 633.293 1.61209 2.25626 0
M  V30 6766 H 636.244 1.26203 0.962209 0
M  V30 6767 H 636.265 1.00166 3.67079 0
M  V30 6768 H 635.777 2.63231 2.85186 0
M  V30 6769 H 633.878 0.321481 3.71211 0
M  V30 6770 H 633.991 2.11143 4.30064 0
M  V30 6771 H 632.355 1.03482 2.32731 0
M  V30 6772 H 633.138 2.69425 2.12756 0
M  V30 6773 N 635.583 -1.29855 0.893053 0
M  V30 6774 C 636.831 -1.9544 0.514566 0
M  V30 6775 C 637.152 -1.70795 -0.940959 0
M  V30 6776 O 636.422 -1.03601 -1.66264 0
M  V30 6777 H 635.002 -0.723137 0.187302 0
M  V30 6778 H 637.664 -1.58234 1.13789 0
M  V30 6779 H 636.76 -3.04341 0.691581 0
M  V30 6780 N 637.061 -0.65484 -1.43351 0
M  V30 6781 C 638.308 -0.168892 -2.01794 0
M  V30 6782 C 638.636 1.2177 -1.51665 0
M  V30 6783 O 637.891 1.82717 -0.70092 0
M  V30 6784 C 638.19 -0.130424 -3.57162 0
M  V30 6785 C 637.856 -1.45898 -4.26643 0
M  V30 6786 C 636.518 -1.82279 -4.4534 0
M  V30 6787 C 638.87 -2.33485 -4.65976 0
M  V30 6788 C 636.198 -3.0591 -5.00635 0
M  V30 6789 C 638.55 -3.5641 -5.22642 0
M  V30 6790 C 637.214 -3.92985 -5.39555 0
M  V30 6791 H 636.484 -0.061802 -0.738418 0
M  V30 6792 H 639.131 -0.845869 -1.71806 0
M  V30 6793 H 637.436 0.630008 -3.86702 0
M  V30 6794 H 639.133 0.262465 -4.0014 0
M  V30 6795 H 635.723 -1.16591 -4.12437 0
M  V30 6796 H 639.907 -2.06668 -4.51223 0
M  V30 6797 H 635.163 -3.34295 -5.11915 0
M  V30 6798 H 639.337 -4.24495 -5.52066 0
M  V30 6799 H 636.964 -4.88862 -5.82167 0
M  V30 6800 N 638.539 1.52521 -0.396863 0
M  V30 6801 C 639.449 2.30403 0.44178 0
M  V30 6802 C 640.465 1.37625 1.06468 0
M  V30 6803 O 641.641 1.70697 1.06886 0
M  V30 6804 C 638.706 3.1013 1.54986 0
M  V30 6805 C 637.767 4.18628 0.951279 0
M  V30 6806 C 637 4.94543 2.00655 0
M  V30 6807 O 637.223 4.70629 3.22281 0
M  V30 6808 O 636.157 5.797 1.61962 0
M  V30 6809 H 639.983 3.03087 -0.192892 0
M  V30 6810 H 637.568 1.48537 -0.16038 0
M  V30 6811 H 639.45 3.59816 2.19341 0
M  V30 6812 H 638.125 2.40251 2.16935 0
M  V30 6813 H 637.032 3.73119 0.270773 0
M  V30 6814 H 638.365 4.90763 0.375887 0
M  V30 6815 N 640.017 0.126909 1.57088 0
M  V30 6816 C 641.294 -0.573152 1.87014 0
M  V30 6817 C 641.674 -1.84297 1.02945 0
M  V30 6818 O 641.022 -2.28232 0.110573 0
M  V30 6819 C 641.232 -0.857984 3.38289 0
M  V30 6820 C 642.58 -1.20759 4.07066 0
M  V30 6821 O 643.604 -0.947992 3.43353 0
M  V30 6822 O 642.463 -1.69516 5.19545 0
M  V30 6823 H 639.557 -0.290082 0.774456 0
M  V30 6824 H 642.103 0.162008 1.68925 0
M  V30 6825 H 640.875 0.0415286 3.91278 0
M  V30 6826 H 640.498 -1.64803 3.61837 0
M  V30 6827 N 641.495 -1.56914 -0.146875 0
M  V30 6828 C 642.405 -2.0154 -1.20079 0
M  V30 6829 C 643.421 -0.930838 -1.47008 0
M  V30 6830 O 644.597 -1.24032 -1.58676 0
M  V30 6831 C 641.662 -2.38715 -2.51428 0
M  V30 6832 C 640.723 -3.6112 -2.32145 0
M  V30 6833 C 639.956 -3.96512 -3.57231 0
M  V30 6834 O 640.179 -3.32566 -4.63418 0
M  V30 6835 O 639.113 -4.89758 -3.49887 0
M  V30 6836 H 642.939 -2.91506 -0.851924 0
M  V30 6837 H 640.524 -1.45106 -0.355607 0
M  V30 6838 H 642.406 -2.63485 -3.28867 0
M  V30 6839 H 641.081 -1.51903 -2.85845 0
M  V30 6840 H 639.988 -3.41536 -1.52656 0
M  V30 6841 H 641.321 -4.48549 -2.02644 0
M  V30 6842 N 642.974 0.416227 -1.52004 0
M  V30 6843 C 643.921 1.50666 -1.74838 0
M  V30 6844 C 644.891 1.55245 -0.590599 0
M  V30 6845 O 646.076 1.71928 -0.827374 0
M  V30 6846 C 643.216 2.88185 -1.89851 0
M  V30 6847 C 642.329 2.92971 -3.17478 0
M  V30 6848 C 641.464 4.21745 -3.22962 0
M  V30 6849 C 640.503 4.20478 -4.4482 0
M  V30 6850 N 639.64 5.40811 -4.47736 0
M  V30 6851 H 644.48 1.30498 -2.67907 0
M  V30 6852 H 642.017 0.633568 -1.32757 0
M  V30 6853 H 643.975 3.68007 -1.96537 0
M  V30 6854 H 642.605 3.06865 -1.00169 0
M  V30 6855 H 641.657 2.05684 -3.19997 0
M  V30 6856 H 642.969 2.87899 -4.07328 0
M  V30 6857 H 642.123 5.09954 -3.28682 0
M  V30 6858 H 640.862 4.29503 -2.31038 0
M  V30 6859 H 639.867 3.30659 -4.39254 0
M  V30 6860 H 641.092 4.14366 -5.38031 0
M  V30 6861 H 639.038 5.4925 -3.58692 0
M  V30 6862 H 638.955 5.37705 -5.31422 0
M  V30 6863 H 640.223 6.30993 -4.57676 0
M  V30 6864 N 644.452 1.42507 0.673017 0
M  V30 6865 C 645.415 1.4582 1.76831 0
M  V30 6866 C 646.415 0.345542 1.57043 0
M  V30 6867 O 647.605 0.606447 1.63303 0
M  V30 6868 C 644.737 1.29158 3.15485 0
M  V30 6869 H 645.93 2.43345 1.7528 0
M  V30 6870 H 643.483 1.28981 0.882817 0
M  V30 6871 H 644.218 0.325626 3.22661 0
M  V30 6872 H 644.003 2.09797 3.31252 0
M  V30 6873 H 645.493 1.34363 3.95394 0
M  V30 6874 N 645.93 -0.909495 1.28709 0
M  V30 6875 C 646.893 -1.99399 1.13016 0
M  V30 6876 C 647.893 -1.60654 0.068536 0
M  V30 6877 O 649.083 -1.71334 0.314671 0
M  V30 6878 C 646.215 -3.33078 0.726085 0
M  V30 6879 H 647.408 -2.14751 2.09338 0
M  V30 6880 H 644.961 -1.09272 1.11756 0
M  V30 6881 H 645.696 -3.23428 -0.23771 0
M  V30 6882 H 645.481 -3.62562 1.49302 0
M  V30 6883 H 646.971 -4.12681 0.639058 0
M  V30 6884 N 647.408 -1.11026 -1.11852 0
M  V30 6885 C 648.338 -0.786812 -2.19844 0
M  V30 6886 C 649.319 0.242935 -1.68356 0
M  V30 6887 O 650.504 0.107355 -1.93903 0
M  V30 6888 C 647.634 -0.224516 -3.46574 0
M  V30 6889 C 646.588 -1.18564 -4.1125 0
M  V30 6890 C 645.914 -0.484261 -5.32503 0
M  V30 6891 C 647.214 -2.53465 -4.56676 0
M  V30 6892 H 648.908 -1.68978 -2.47158 0
M  V30 6893 H 646.454 -0.813906 -1.18792 0
M  V30 6894 H 648.407 0.0139435 -4.21398 0
M  V30 6895 H 647.131 0.713722 -3.18706 0
M  V30 6896 H 645.79 -1.40966 -3.38414 0
M  V30 6897 H 645.438 0.458646 -5.00905 0
M  V30 6898 H 645.138 -1.12526 -5.76725 0
M  V30 6899 H 646.662 -0.254492 -6.10069 0
M  V30 6900 H 648.076 -2.35177 -5.22843 0
M  V30 6901 H 646.473 -3.13507 -5.11697 0
M  V30 6902 H 647.543 -3.13008 -3.70343 0
M  V30 6903 N 648.886 1.2938 -0.899927 0
M  V30 6904 C 649.819 2.25911 -0.322386 0
M  V30 6905 C 650.797 1.52447 0.565567 0
M  V30 6906 O 651.981 1.81404 0.512324 0
M  V30 6907 C 649.108 3.3436 0.540455 0
M  V30 6908 C 648.154 4.25579 -0.280211 0
M  V30 6909 S 648.987 5.08526 -1.67814 0
M  V30 6910 C 650.143 6.20476 -0.822224 0
M  V30 6911 H 650.376 2.7455 -1.1406 0
M  V30 6912 H 647.909 1.37606 -0.700285 0
M  V30 6913 H 649.867 3.97303 1.0325 0
M  V30 6914 H 648.528 2.84416 1.33291 0
M  V30 6915 H 647.721 5.02574 0.378915 0
M  V30 6916 H 647.323 3.67287 -0.705405 0
M  V30 6917 H 649.615 6.77485 -0.0457138 0
M  V30 6918 H 650.558 6.90606 -1.56426 0
M  V30 6919 H 650.966 5.63243 -0.37651 0
M  V30 6920 N 650.364 0.662433 1.43002 0
M  V30 6921 C 651.311 -0.0235324 2.30788 0
M  V30 6922 C 652.281 -0.805342 1.4527 0
M  V30 6923 O 653.466 -0.78009 1.74124 0
M  V30 6924 C 650.606 -0.977545 3.30965 0
M  V30 6925 C 649.719 -0.190865 4.31578 0
M  V30 6926 C 648.854 -1.13951 5.18834 0
M  V30 6927 C 647.893 -0.343796 6.11134 0
M  V30 6928 N 647.03 -1.2445 6.90982 0
M  V30 6929 H 651.87 0.730921 2.88897 0
M  V30 6930 H 649.407 0.372197 1.42313 0
M  V30 6931 H 651.365 -1.54437 3.87563 0
M  V30 6932 H 649.995 -1.69877 2.74484 0
M  V30 6933 H 649.047 0.492388 3.772 0
M  V30 6934 H 650.359 0.427464 4.96965 0
M  V30 6935 H 649.513 -1.77666 5.80103 0
M  V30 6936 H 648.252 -1.79174 4.53595 0
M  V30 6937 H 647.257 0.30665 5.48944 0
M  V30 6938 H 648.482 0.304161 6.78419 0
M  V30 6939 H 646.428 -1.88336 6.28383 0
M  V30 6940 H 646.345 -0.680959 7.52927 0
M  V30 6941 H 647.613 -1.86952 7.56749 0
M  V30 6942 N 651.842 -1.52309 0.404946 0
M  V30 6943 C 653.258 -1.59503 0.0556255 0
M  V30 6944 C 653.458 -1.41805 -1.43156 0
M  V30 6945 O 652.514 -1.2429 -2.19792 0
M  V30 6946 C 653.827 -2.95687 0.546801 0
M  V30 6947 C 655.375 -3.08909 0.504413 0
M  V30 6948 C 655.85 -4.47566 0.97203 0
M  V30 6949 N 657.341 -4.53795 0.928679 0
M  V30 6950 C 658.076 -5.59346 1.26174 0
M  V30 6951 N 657.572 -6.72469 1.66604 0
M  V30 6952 N 659.365 -5.49532 1.18198 0
M  V30 6953 H 651.516 -1.6206 1.37296 0
M  V30 6954 H 653.779 -0.762161 0.563751 0
M  V30 6955 H 653.485 -3.13905 1.58609 0
M  V30 6956 H 653.359 -3.77172 -0.0457905 0
M  V30 6957 H 655.746 -2.90378 -0.525819 0
M  V30 6958 H 655.827 -2.2934 1.13301 0
M  V30 6959 H 655.471 -4.6684 2.00057 0
M  V30 6960 H 655.401 -5.25625 0.320292 0
M  V30 6961 H 657.892 -3.72588 0.631369 0
M  V30 6962 H 658.205 -7.48993 1.9034 0
M  V30 6963 H 656.55 -6.73761 1.70504 0
M  V30 6964 H 659.741 -4.60038 0.865011 0
M  V30 6965 H 659.914 -6.31687 1.44485 0
M  V30 6966 N 653.32 -0.135238 -1.57019 0
M  V30 6967 C 654.25 0.805235 -2.19176 0
M  V30 6968 C 655.231 1.2656 -1.13651 0
M  V30 6969 O 656.416 1.32528 -1.4195 0
M  V30 6970 C 653.546 2.04914 -2.80406 0
M  V30 6971 C 652.5 1.72598 -3.91655 0
M  V30 6972 C 651.826 3.04154 -4.39766 0
M  V30 6973 C 653.126 0.981709 -5.12991 0
M  V30 6974 H 654.82 0.287232 -2.98019 0
M  V30 6975 H 652.366 0.136714 -1.4335 0
M  V30 6976 H 654.319 2.71178 -3.22553 0
M  V30 6977 H 653.043 2.59067 -1.98877 0
M  V30 6978 H 651.702 1.08717 -3.50109 0
M  V30 6979 H 651.35 3.56274 -3.55075 0
M  V30 6980 H 651.05 2.83299 -5.14796 0
M  V30 6981 H 652.574 3.71509 -4.84576 0
M  V30 6982 H 653.988 1.5462 -5.52056 0
M  V30 6983 H 652.385 0.873533 -5.93708 0
M  V30 6984 H 653.455 -0.0286887 -4.84892 0
M  V30 6985 N 654.798 1.5699 0.138552 0
M  V30 6986 C 656.023 1.88344 0.86841 0
M  V30 6987 C 656.448 0.725159 1.7356 0
M  V30 6988 O 655.806 -0.324992 1.78363 0
M  V30 6989 C 655.854 3.18334 1.69398 0
M  V30 6990 O 654.958 3.02863 2.79907 0
M  V30 6991 H 654.299 0.618577 0.241367 0
M  V30 6992 H 656.829 2.04207 0.126826 0
M  V30 6993 H 656.839 3.50567 2.08726 0
M  V30 6994 H 655.514 4.02238 1.05725 0
M  V30 6995 H 654.091 2.82056 2.43924 0
M  V30 6996 N 656.276 -0.40816 1.52223 0
M  V30 6997 C 657.223 -1.49737 1.75635 0
M  V30 6998 C 658.193 -1.5493 0.598824 0
M  V30 6999 O 659.378 -1.71487 0.83648 0
M  V30 7000 C 656.518 -2.87174 1.91376 0
M  V30 7001 C 655.631 -2.91283 3.19027 0
M  V30 7002 C 654.766 -4.20026 3.25195 0
M  V30 7003 C 653.805 -4.18113 4.47044 0
M  V30 7004 N 652.942 -5.38429 4.50598 0
M  V30 7005 H 657.782 -1.29075 2.68596 0
M  V30 7006 H 655.319 -0.626518 1.33091 0
M  V30 7007 H 657.277 -3.66959 1.98486 0
M  V30 7008 H 655.907 -3.06329 1.01795 0
M  V30 7009 H 654.959 -2.03984 3.21084 0
M  V30 7010 H 656.271 -2.85734 4.08849 0
M  V30 7011 H 655.425 -5.08204 3.31382 0
M  V30 7012 H 654.164 -4.28271 2.33313 0
M  V30 7013 H 653.169 -3.28325 4.41002 0
M  V30 7014 H 654.394 -4.11507 5.40221 0
M  V30 7015 H 652.34 -5.4734 3.616 0
M  V30 7016 H 652.257 -5.34879 5.34266 0
M  V30 7017 H 653.525 -6.28557 4.61016 0
M  V30 7018 O 657.793 -1.51699 -0.554045 0
M  V30 7019 H 658.484 -1.51323 -1.20918 0
M  V30 END ATOM
M  V30 BEGIN BOND
M  V30 END BOND
M  V30 END CTAB
M  END
$$$$
