drugbank_target|P10635 Cytochrome P450 2D6 (DB09061; DB11994; DB14011)
 OpenBabel12092120103D

  0  0  0     0  0            999 V3000
M  V30 BEGIN CTAB
M  V30 COUNTS 7888 7994 0 0 0
M  V30 BEGIN ATOM
M  V30 1 H -0.908 1.98254 -0.117106 0
M  V30 2 N 0 1.576 0 0
M  V30 3 C 0.933 2.03868 1.02534 0
M  V30 4 C 1.911 0.928543 1.3348 0
M  V30 5 O 3.095 1.19667 1.45644 0
M  V30 6 C 0.222 2.43627 2.35294 0
M  V30 7 C -0.732 3.65373 2.2001 0
M  V30 8 S 0.101 5.13292 1.52614 0
M  V30 9 C 1.257 5.56322 2.86805 0
M  V30 10 H 1.49 2.90518 0.631377 0
M  V30 11 H -0.977 1.52953 0.210867 0
M  V30 12 H 0.981 2.67203 3.11629 0
M  V30 13 H -0.358 1.57376 2.7183 0
M  V30 14 H -1.165 3.90944 3.18086 0
M  V30 15 H -1.563 3.418 1.51819 0
M  V30 16 H 0.729 5.58782 3.83104 0
M  V30 17 H 1.672 6.56266 2.65933 0
M  V30 18 H 2.08 4.83886 2.90714 0
M  V30 19 N 1.4781 -0.272755 1.55222 0
M  V30 20 C 2.7261 -1.00234 1.75492 0
M  V30 21 C 3.0471 -1.8681 0.5592 0
M  V30 22 O 2.3171 -1.91215 -0.425882 0
M  V30 23 H 0.8971 -0.373076 0.647166 0
M  V30 24 H 3.5591 -0.296926 1.92625 0
M  V30 25 H 2.6551 -1.63913 2.65592 0
M  V30 26 N 2.9562 -1.48159 -0.537278 0
M  V30 27 C 3.8862 -1.65029 -1.6519 0
M  V30 28 C 4.8672 -0.499281 -1.62607 0
M  V30 29 O 6.0522 -0.730972 -1.79918 0
M  V30 30 C 3.1822 -1.68303 -3.03795 0
M  V30 31 C 2.1362 -2.8283 -3.21234 0
M  V30 32 C 1.4622 -2.71189 -4.60826 0
M  V30 33 C 2.7622 -4.24211 -3.04701 0
M  V30 34 H 4.4562 -2.58341 -1.51328 0
M  V30 35 H 2.0022 -1.24325 -0.726585 0
M  V30 36 H 3.9552 -1.78693 -3.81637 0
M  V30 37 H 2.6792 -0.715635 -3.18663 0
M  V30 38 H 1.3382 -2.71983 -2.45807 0
M  V30 39 H 0.9862 -1.72435 -4.7252 0
M  V30 40 H 0.6862 -3.48035 -4.7344 0
M  V30 41 H 2.2102 -2.83537 -5.40777 0
M  V30 42 H 3.6242 -4.3593 -3.72341 0
M  V30 43 H 2.0212 -5.01998 -3.28813 0
M  V30 44 H 3.0912 -4.41184 -2.01209 0
M  V30 45 N 4.4343 0.785586 -1.36625 0
M  V30 46 C 5.3443 1.92964 -1.33425 0
M  V30 47 C 6.3603 1.72394 -0.235851 0
M  V30 48 O 7.5363 1.95866 -0.468878 0
M  V30 49 C 4.6013 3.27884 -1.12662 0
M  V30 50 C 3.6623 3.61204 -2.32013 0
M  V30 51 C 2.8953 4.89687 -2.12231 0
M  V30 52 O 3.1183 5.59704 -1.09945 0
M  V30 53 O 2.0523 5.21752 -3.00098 0
M  V30 54 H 5.8783 1.98613 -2.29753 0
M  V30 55 H 3.4633 0.926384 -1.17211 0
M  V30 56 H 5.3453 4.08614 -1.03016 0
M  V30 57 H 4.0203 3.23118 -0.193991 0
M  V30 58 H 2.9273 2.80765 -2.47228 0
M  V30 59 H 4.2603 3.70698 -3.23796 0
M  V30 60 N 5.9124 1.20967 1.01018 0
M  V30 61 C 6.8754 0.965918 2.07853 0
M  V30 62 C 7.8754 -0.0610545 1.60684 0
M  V30 63 O 9.0654 0.175681 1.73312 0
M  V30 64 C 6.1974 0.455513 3.37843 0
M  V30 65 H 7.3904 1.91365 2.3091 0
M  V30 66 H 4.9434 1.02594 1.17916 0
M  V30 67 H 5.6784 -0.497381 3.20463 0
M  V30 68 H 5.4634 1.19622 3.73407 0
M  V30 69 H 6.9534 0.304667 4.16487 0
M  V30 70 N 7.3905 -1.2043 1.01659 0
M  V30 71 C 8.3205 -2.25466 0.607226 0
M  V30 72 C 9.3015 -1.65853 -0.377716 0
M  V30 73 O 10.4865 -1.92409 -0.263149 0
M  V30 74 C 7.6165 -3.47256 -0.0552949 0
M  V30 75 C 6.5705 -4.19462 0.850632 0
M  V30 76 C 5.8965 -5.34673 0.0538859 0
M  V30 77 C 7.1965 -4.75603 2.15868 0
M  V30 78 H 8.8905 -2.59962 1.48526 0
M  V30 79 H 6.4365 -1.2496 0.715605 0
M  V30 80 H 8.3895 -4.19917 -0.353233 0
M  V30 81 H 7.1135 -3.11924 -0.968045 0
M  V30 82 H 5.7725 -3.48667 1.13257 0
M  V30 83 H 5.4205 -4.95585 -0.860514 0
M  V30 84 H 5.1205 -5.83913 0.657192 0
M  V30 85 H 6.6445 -6.10138 -0.237598 0
M  V30 86 H 8.0585 -5.40083 1.92311 0
M  V30 87 H 6.4555 -5.3528 2.71284 0
M  V30 88 H 7.5255 -3.94346 2.82169 0
M  V30 89 N 8.8686 -0.792821 -1.36206 0
M  V30 90 C 10.1146 -0.36733 -1.99446 0
M  V30 91 C 10.4476 1.05917 -1.62774 0
M  V30 92 O 9.7226 1.7324 -0.88421 0
M  V30 93 C 10.0056 -0.535044 -3.56103 0
M  V30 94 C 9.8586 -2.00548 -4.02617 0
M  V30 95 C 11.1776 0.0478191 -4.40074 0
M  V30 96 H 8.2966 -0.134941 -0.724541 0
M  V30 97 H 10.9386 -0.999794 -1.61568 0
M  V30 98 H 9.0886 0.00336329 -3.885 0
M  V30 99 H 10.7606 -2.60521 -3.80692 0
M  V30 100 H 9.0036 -2.50686 -3.54032 0
M  V30 101 H 9.6746 -2.07377 -5.11565 0
M  V30 102 H 12.1506 -0.411822 -4.14057 0
M  V30 103 H 11.0266 -0.0995336 -5.4881 0
M  V30 104 H 11.2876 1.14025 -4.27142 0
M  V30 105 N 10.3467 1.47872 -0.545128 0
M  V30 106 C 11.7577 1.86384 -0.108581 0
M  V30 107 C 12.1087 1.45309 1.31832 0
M  V30 108 O 11.2337 0.850641 1.9898 0
M  V30 109 C 11.8287 3.38265 -0.190274 0
M  V30 110 C 10.3877 3.75914 0.191164 0
M  V30 111 C 9.5347 2.71926 -0.543273 0
M  V30 112 H 12.4857 1.39561 -0.755537 0
M  V30 113 H 12.5067 3.75831 0.594217 0
M  V30 114 H 12.0187 3.6813 -1.2289 0
M  V30 115 H 10.1197 3.51665 1.23136 0
M  V30 116 H 10.2327 4.78836 -0.158987 0
M  V30 117 H 8.5967 2.54697 0.0122495 0
M  V30 118 H 9.3797 3.04634 -1.58282 0
M  V30 119 N 11.8248 0.280983 1.55075 0
M  V30 120 C 12.7548 -0.597469 2.25727 0
M  V30 121 C 13.7358 -1.15417 1.24952 0
M  V30 122 O 14.9208 -1.18722 1.53684 0
M  V30 123 C 12.0508 -1.7789 2.98283 0
M  V30 124 C 11.0048 -1.35347 4.06036 0
M  V30 125 C 10.3308 -2.61846 4.66198 0
M  V30 126 C 11.6308 -0.499354 5.19907 0
M  V30 127 H 13.3248 -0.00824265 2.99399 0
M  V30 128 H 10.8708 -0.0025244 1.44 0
M  V30 129 H 12.8238 -2.39937 3.46422 0
M  V30 130 H 11.5478 -2.39405 2.22155 0
M  V30 131 H 10.2068 -0.756156 3.58717 0
M  V30 132 H 9.8548 -3.21632 3.86732 0
M  V30 133 H 9.5548 -2.3409 5.38958 0
M  V30 134 H 11.0788 -3.24732 5.1709 0
M  V30 135 H 12.4928 -1.02498 5.64063 0
M  V30 136 H 10.8898 -0.316424 5.99265 0
M  V30 137 H 11.9598 0.480459 4.82514 0
M  V30 138 N 13.3029 -1.57598 0.00835791 0
M  V30 139 C 14.2659 -2.07884 -0.965242 0
M  V30 140 C 15.2659 -0.989825 -1.26725 0
M  V30 141 O 16.4559 -1.25218 -1.21104 0
M  V30 142 C 13.5879 -2.52731 -2.28779 0
M  V30 143 H 14.7809 -2.95178 -0.530112 0
M  V30 144 H 12.3339 -1.54458 -0.239283 0
M  V30 145 H 13.0689 -1.68705 -2.76964 0
M  V30 146 H 12.8539 -3.32272 -2.08177 0
M  V30 147 H 14.3439 -2.91933 -2.98605 0
M  V30 148 N 14.781 0.264519 -1.55364 0
M  V30 149 C 16.027 0.99646 -1.76631 0
M  V30 150 C 16.36 1.85632 -0.570478 0
M  V30 151 O 15.635 1.89647 0.43175 0
M  V30 152 C 15.918 1.87187 -3.07625 0
M  V30 153 C 15.771 1.04138 -4.37579 0
M  V30 154 C 17.09 2.85749 -3.34717 0
M  V30 155 H 14.209 0.360841 -0.642622 0
M  V30 156 H 16.851 0.268218 -1.88097 0
M  V30 157 H 15.001 2.49279 -2.9798 0
M  V30 158 H 16.673 0.440517 -4.59192 0
M  V30 159 H 14.916 0.345115 -4.32425 0
M  V30 160 H 15.587 1.68729 -5.2558 0
M  V30 161 H 18.063 2.33793 -3.4421 0
M  V30 162 H 16.939 3.44136 -4.27623 0
M  V30 163 H 17.2 3.61311 -2.54768 0
M  V30 164 N 16.2591 1.48442 0.529413 0
M  V30 165 C 17.5081 1.55742 1.28169 0
M  V30 166 C 17.8211 0.236511 1.94165 0
M  V30 167 O 19.0271 0.187761 2.7085 0
M  V30 168 C 17.4831 2.74667 2.32564 0
M  V30 169 C 17.0911 4.13402 1.72636 0
M  V30 170 C 18.8351 2.9128 3.08798 0
M  V30 171 C 16.7421 5.23587 2.74975 0
M  V30 172 H 15.6721 0.579796 0.48203 0
M  V30 173 H 18.3231 1.74776 0.559056 0
M  V30 174 H 16.7051 2.49067 3.07866 0
M  V30 175 H 17.8791 4.49022 1.03519 0
M  V30 176 H 16.1941 4.0191 1.08892 0
M  V30 177 H 18.7911 3.70767 3.85274 0
M  V30 178 H 19.1341 2.00757 3.64695 0
M  V30 179 H 19.6671 3.16782 2.40611 0
M  V30 180 H 16.4061 6.16076 2.23897 0
M  V30 181 H 15.9261 4.92454 3.42417 0
M  V30 182 H 17.6051 5.51724 3.37949 0
M  V30 183 N 17.7372 -0.778329 1.37039 0
M  V30 184 C 18.9832 -1.53892 1.32079 0
M  V30 185 C 19.3162 -1.9396 -0.0965386 0
M  V30 186 O 18.5912 -1.63568 -1.05242 0
M  V30 187 C 18.8742 -2.80847 2.25382 0
M  V30 188 C 18.7272 -2.47076 3.75864 0
M  V30 189 C 20.0462 -3.82741 2.1725 0
M  V30 190 H 17.1652 -0.558303 0.48111 0
M  V30 191 H 19.8072 -0.893397 1.67685 0
M  V30 192 H 17.9572 -3.35931 1.95148 0
M  V30 193 H 19.6292 -1.97957 4.16666 0
M  V30 194 H 17.8722 -1.79863 3.94755 0
M  V30 195 H 18.5432 -3.37798 4.36574 0
M  V30 196 H 21.0192 -3.37133 2.43887 0
M  V30 197 H 19.8952 -4.69303 2.84686 0
M  V30 198 H 20.1562 -4.2652 1.16331 0
M  V30 199 N 19.2153 -1.21501 -1.00376 0
M  V30 200 C 20.1783 -0.976927 -2.07337 0
M  V30 201 C 21.1783 0.0525322 -1.60714 0
M  V30 202 O 22.3683 -0.184869 -1.73216 0
M  V30 203 C 19.5003 -0.473423 -3.37597 0
M  V30 204 H 20.6933 -1.92587 -2.29892 0
M  V30 205 H 18.2463 -1.03217 -1.17371 0
M  V30 206 H 18.9813 0.480379 -3.20722 0
M  V30 207 H 18.7663 -1.216 -3.72768 0
M  V30 208 H 20.2563 -0.32675 -4.1632 0
M  V30 209 N 20.6934 1.19889 -1.02296 0
M  V30 210 C 21.9424 1.88743 -0.711257 0
M  V30 211 C 22.2554 1.80112 0.762817 0
M  V30 212 O 23.4614 2.44161 1.18733 0
M  V30 213 C 21.9174 3.38525 -1.22185 0
M  V30 214 C 21.5254 3.55727 -2.72328 0
M  V30 215 C 23.2694 4.12893 -0.985864 0
M  V30 216 C 21.1764 4.99369 -3.16835 0
M  V30 217 H 20.1064 0.706885 -0.262353 0
M  V30 218 H 22.7574 1.35586 -1.23648 0
M  V30 219 H 21.1394 3.91044 -0.624571 0
M  V30 220 H 22.3134 3.13564 -3.3766 0
M  V30 221 H 20.6284 2.94739 -2.9414 0
M  V30 222 H 23.2254 5.18813 -1.29374 0
M  V30 223 H 23.5684 4.16228 0.0775055 0
M  V30 224 H 24.1014 3.66494 -1.54684 0
M  V30 225 H 20.8404 5.01193 -4.22476 0
M  V30 226 H 20.3604 5.42317 -2.56228 0
M  V30 227 H 22.0394 5.67988 -3.09837 0
M  V30 228 N 22.1715 0.800033 1.35784 0
M  V30 229 C 23.4185 0.377342 1.98953 0
M  V30 230 C 23.7465 -1.05378 1.6348 0
M  V30 231 O 23.0015 -1.74459 0.886707 0
M  V30 232 C 23.3005 0.500276 3.53881 0
M  V30 233 C 22.9665 1.89375 4.09204 0
M  V30 234 C 21.6285 2.27499 4.24025 0
M  V30 235 C 23.9805 2.8057 4.39238 0
M  V30 236 C 21.3085 3.562 4.66195 0
M  V30 237 C 23.6605 4.0871 4.82844 0
M  V30 238 C 22.3245 4.46843 4.95871 0
M  V30 239 H 21.5945 0.138079 0.728021 0
M  V30 240 H 24.2415 1.01955 1.62103 0
M  V30 241 H 22.5465 -0.225405 3.91151 0
M  V30 242 H 24.2435 0.154097 4.00704 0
M  V30 243 H 20.8335 1.58753 3.98115 0
M  V30 244 H 25.0175 2.52367 4.27346 0
M  V30 245 H 20.2735 3.85602 4.74469 0
M  V30 246 H 24.4475 4.79481 5.05046 0
M  V30 247 H 22.0745 5.46623 5.28306 0
M  V30 248 N 23.6496 -1.47581 0.552962 0
M  V30 249 C 24.5796 -2.32762 -0.185451 0
M  V30 250 C 25.5606 -1.43527 -0.912905 0
M  V30 251 O 26.7456 -1.72388 -0.894201 0
M  V30 252 C 23.8756 -3.25219 -1.21859 0
M  V30 253 C 22.8296 -4.23661 -0.607864 0
M  V30 254 C 22.1556 -5.05413 -1.74533 0
M  V30 255 C 23.4556 -5.20481 0.435582 0
M  V30 256 H 25.1496 -2.94749 0.525684 0
M  V30 257 H 22.6956 -1.41738 0.254251 0
M  V30 258 H 24.6486 -3.8365 -1.7433 0
M  V30 259 H 23.3726 -2.61279 -1.95961 0
M  V30 260 H 22.0316 -3.66451 -0.104489 0
M  V30 261 H 21.6796 -4.3788 -2.47529 0
M  V30 262 H 21.3796 -5.72059 -1.34249 0
M  V30 263 H 22.9036 -5.66701 -2.27338 0
M  V30 264 H 24.3176 -5.733 -0.00290157 0
M  V30 265 H 22.7146 -5.95305 0.757067 0
M  V30 266 H 23.7846 -4.66217 1.33303 0
M  V30 267 N 25.1277 -0.289203 -1.54924 0
M  V30 268 C 26.0577 0.58549 -2.2604 0
M  V30 269 C 27.0387 1.14753 -1.25562 0
M  V30 270 O 28.2237 1.17906 -1.54311 0
M  V30 271 C 25.3537 1.76305 -2.99222 0
M  V30 272 C 24.3077 1.33191 -4.06748 0
M  V30 273 C 23.6337 2.5937 -4.6758 0
M  V30 274 C 24.9337 0.471775 -5.20165 0
M  V30 275 H 26.6277 -0.00763532 -2.99399 0
M  V30 276 H 24.1737 -0.00511229 -1.43999 0
M  V30 277 H 26.1267 2.38097 -3.47689 0
M  V30 278 H 24.8507 2.38223 -2.23422 0
M  V30 279 H 23.5097 0.737121 -3.59113 0
M  V30 280 H 23.1577 3.19576 -3.88433 0
M  V30 281 H 22.8577 2.31228 -5.40192 0
M  V30 282 H 24.3817 3.21985 -5.18804 0
M  V30 283 H 25.7957 0.995056 -5.64599 0
M  V30 284 H 24.1927 0.284639 -5.99425 0
M  V30 285 H 25.2627 -0.506041 -4.82252 0
M  V30 286 N 26.6058 1.57591 -0.0167156 0
M  V30 287 C 27.5358 2.12496 0.967858 0
M  V30 288 C 28.5168 1.03807 1.34752 0
M  V30 289 O 29.7018 1.31577 1.42833 0
M  V30 290 C 26.8318 2.64194 2.25431 0
M  V30 291 C 25.7858 3.77559 2.01576 0
M  V30 292 C 25.1118 4.15636 3.36379 0
M  V30 293 C 26.4118 5.04151 1.36489 0
M  V30 294 H 28.1058 2.95013 0.510643 0
M  V30 295 H 25.6518 1.41915 0.244181 0
M  V30 296 H 27.6048 3.01236 2.94678 0
M  V30 297 H 26.3288 1.78821 2.73296 0
M  V30 298 H 24.9878 3.40937 1.34751 0
M  V30 299 H 24.6358 3.27263 3.81979 0
M  V30 300 H 24.3358 4.92022 3.21229 0
M  V30 301 H 25.8598 4.5525 4.06915 0
M  V30 302 H 27.2738 5.38857 1.95718 0
M  V30 303 H 25.6708 5.85453 1.31776 0
M  V30 304 H 26.7408 4.83733 0.336219 0
M  V30 305 N 28.0839 -0.256276 1.55502 0
M  V30 306 C 29.3299 -0.987079 1.77157 0
M  V30 307 C 29.6629 -1.85327 0.580315 0
M  V30 308 O 28.9379 -1.89874 -0.421686 0
M  V30 309 C 29.2209 -1.85553 3.08613 0
M  V30 310 C 29.0739 -1.01816 4.38125 0
M  V30 311 C 30.3929 -2.8397 3.36228 0
M  V30 312 H 27.5119 -0.357428 0.644526 0
M  V30 313 H 30.1539 -0.258239 1.88237 0
M  V30 314 H 28.3039 -2.47695 2.99298 0
M  V30 315 H 29.9759 -0.416159 4.59419 0
M  V30 316 H 28.2189 -0.322178 4.32602 0
M  V30 317 H 28.8899 -1.65939 5.26468 0
M  V30 318 H 31.3659 -2.31964 3.45445 0
M  V30 319 H 30.2419 -3.41864 4.29442 0
M  V30 320 H 30.5029 -3.59955 2.56681 0
M  V30 321 N 29.562 -1.4872 -0.521534 0
M  V30 322 C 30.839 -1.4766 -1.2828 0
M  V30 323 C 31.219 -0.19292 -2.10217 0
M  V30 324 O 30.567 0.825193 -2.13079 0
M  V30 325 C 30.777 -2.74358 -2.15705 0
M  V30 326 C 32.125 -3.23028 -2.75569 0
M  V30 327 O 33.149 -2.75333 -2.25987 0
M  V30 328 O 32.008 -4.0604 -3.65778 0
M  V30 329 H 29.102 -0.590085 -0.579421 0
M  V30 330 H 31.648 -1.60963 -0.537492 0
M  V30 331 H 30.42 -3.59292 -1.54999 0
M  V30 332 H 30.043 -2.63816 -2.97467 0
M  V30 333 N 31.0401 0.771051 -1.3745 0
M  V30 334 C 31.9701 1.89827 -1.3597 0
M  V30 335 C 32.9511 1.68562 -0.228216 0
M  V30 336 O 34.1361 1.8941 -0.428675 0
M  V30 337 C 31.2661 3.2712 -1.16662 0
M  V30 338 C 30.2201 3.6295 -2.2683 0
M  V30 339 C 29.5461 4.98791 -1.92644 0
M  V30 340 C 30.8461 3.69627 -3.69017 0
M  V30 341 H 32.5401 1.91323 -2.30295 0
M  V30 342 H 30.0861 0.919082 -1.10855 0
M  V30 343 H 32.0391 4.05615 -1.14256 0
M  V30 344 H 30.7631 3.26059 -0.187926 0
M  V30 345 H 29.4221 2.86763 -2.28392 0
M  V30 346 H 29.0701 4.94271 -0.933021 0
M  V30 347 H 28.7701 5.23733 -2.66416 0
M  V30 348 H 30.2941 5.79685 -1.91826 0
M  V30 349 H 31.7081 4.38273 -3.69581 0
M  V30 350 H 30.1051 4.06067 -4.41848 0
M  V30 351 H 31.1751 2.70273 -4.02592 0
M  V30 352 N 32.5182 1.22032 0.997298 0
M  V30 353 C 33.4512 0.929735 2.08401 0
M  V30 354 C 34.4292 -0.125681 1.62114 0
M  V30 355 O 35.6132 0.00495409 1.88499 0
M  V30 356 C 32.7402 0.397488 3.3636 0
M  V30 357 C 31.7862 1.4369 4.01566 0
M  V30 358 S 32.6192 3.00874 4.42984 0
M  V30 359 C 33.7752 2.49276 5.74119 0
M  V30 360 H 34.0082 1.84998 2.32729 0
M  V30 361 H 31.5412 1.0509 1.13117 0
M  V30 362 H 33.4992 0.0969846 4.10385 0
M  V30 363 H 32.1602 -0.501571 3.10069 0
M  V30 364 H 31.3532 1.01427 4.93689 0
M  V30 365 H 30.9552 1.68588 3.33847 0
M  V30 366 H 33.2472 1.90242 6.50242 0
M  V30 367 H 34.1902 3.39872 6.21203 0
M  V30 368 H 34.5982 1.90714 5.31308 0
M  V30 369 N 33.9963 -1.19345 1.0293 0
M  V30 370 C 34.9463 -2.20472 0.58104 0
M  V30 371 C 35.9303 -1.56578 -0.370442 0
M  V30 372 O 37.1223 -1.75963 -0.191344 0
M  V30 373 C 34.2513 -3.43236 -0.066306 0
M  V30 374 C 33.3373 -4.14274 0.907642 0
M  V30 375 N 33.7283 -4.61492 2.07023 0
M  V30 376 C 32.0263 -4.39966 0.731177 0
M  V30 377 C 32.7273 -5.1605 2.68454 0
M  V30 378 N 31.7033 -5.06875 1.96414 0
M  V30 379 H 35.5053 -2.54659 1.46717 0
M  V30 380 H 33.0193 -1.35423 0.896345 0
M  V30 381 H 35.0163 -4.14927 -0.405068 0
M  V30 382 H 33.6763 -3.10549 -0.948118 0
M  V30 383 H 34.6873 -4.56304 2.44963 0
M  V30 384 H 31.3643 -4.17377 -0.101507 0
M  V30 385 H 32.7543 -5.6287 3.66915 0
M  V30 386 N 35.4744 -0.807222 -1.35358 0
M  V30 387 C 36.8904 -0.491038 -1.51858 0
M  V30 388 C 37.0904 0.987648 -1.75635 0
M  V30 389 O 36.1464 1.77265 -1.79815 0
M  V30 390 C 37.4594 -1.33695 -2.69344 0
M  V30 391 C 39.0074 -1.33246 -2.83222 0
M  V30 392 C 39.4824 -2.1625 -4.03733 0
M  V30 393 N 40.9734 -2.1379 -4.10911 0
M  V30 394 C 41.7084 -2.74772 -5.03277 0
M  V30 395 N 41.2044 -3.44684 -6.0097 0
M  V30 396 N 42.9974 -2.6441 -4.96028 0
M  V30 397 H 35.1484 -1.76485 -1.18181 0
M  V30 398 H 37.4114 -0.751199 -0.578276 0
M  V30 399 H 37.1174 -2.38634 -2.58354 0
M  V30 400 H 36.9914 -0.990618 -3.6396 0
M  V30 401 H 39.3784 -0.290911 -2.93663 0
M  V30 402 H 39.4594 -1.71866 -1.89461 0
M  V30 403 H 39.1034 -3.20445 -3.94052 0
M  V30 404 H 39.0334 -1.74989 -4.96675 0
M  V30 405 H 41.5244 -1.62923 -3.40976 0
M  V30 406 H 41.8374 -3.88501 -6.68047 0
M  V30 407 H 40.1824 -3.48788 -6.01142 0
M  V30 408 H 43.3734 -2.0938 -4.18662 0
M  V30 409 H 43.5464 -3.12225 -5.6782 0
M  V30 410 N 36.9525 1.47285 -0.560781 0
M  V30 411 C 38.3685 1.58065 -0.22081 0
M  V30 412 C 38.5685 1.55892 1.27671 0
M  V30 413 O 37.6245 1.46422 2.0571 0
M  V30 414 C 38.9375 2.88418 -0.850625 0
M  V30 415 C 40.4855 3.02009 -0.822184 0
M  V30 416 C 40.9605 4.35066 -1.43113 0
M  V30 417 N 42.4515 4.41711 -1.39448 0
M  V30 418 C 43.1865 5.43237 -1.83525 0
M  V30 419 N 42.6825 6.51555 -2.35474 0
M  V30 420 N 44.4755 5.34304 -1.74574 0
M  V30 421 H 36.6265 1.46941 -1.53369 0
M  V30 422 H 38.8895 0.699558 -0.639783 0
M  V30 423 H 38.5955 2.95755 -1.9032 0
M  V30 424 H 38.4695 3.75612 -0.345773 0
M  V30 425 H 40.8565 2.94266 0.221714 0
M  V30 426 H 40.9375 2.16347 -1.36483 0
M  V30 427 H 40.5815 4.43565 -2.47412 0
M  V30 428 H 40.5115 5.19465 -0.863899 0
M  V30 429 H 43.0025 3.64027 -1.01452 0
M  V30 430 H 43.3155 7.25203 -2.67021 0
M  V30 431 H 41.6605 6.52435 -2.39487 0
M  V30 432 H 44.8515 4.48581 -1.33763 0
M  V30 433 H 45.0245 6.13288 -2.09242 0
M  V30 434 N 38.4306 0.297415 1.54768 0
M  V30 435 C 39.3626 -0.613881 2.20826 0
M  V30 436 C 40.3756 -1.10032 1.19987 0
M  V30 437 O 41.5646 -1.01839 1.46598 0
M  V30 438 C 38.6646 -1.852 2.83821 0
M  V30 439 C 37.8376 -1.50865 4.10559 0
M  V30 440 C 36.8966 -2.60154 4.57391 0
M  V30 441 O 35.9226 -2.25398 5.2267 0
M  V30 442 N 37.1246 -3.90629 4.29406 0
M  V30 443 H 39.8896 -0.048389 2.99661 0
M  V30 444 H 37.4506 0.11946 1.61459 0
M  V30 445 H 39.4426 -2.57652 3.12086 0
M  V30 446 H 38.0126 -2.32597 2.08847 0
M  V30 447 H 37.2326 -0.616925 3.89343 0
M  V30 448 H 38.5206 -1.25458 4.9309 0
M  V30 449 H 37.9186 -4.21677 3.77101 0
M  V30 450 H 36.4756 -4.59391 4.62388 0
M  V30 451 N 39.9087 -1.5758 0.0250728 0
M  V30 452 C 41.3247 -1.56124 -0.331282 0
M  V30 453 C 41.5247 -1.03029 -1.73169 0
M  V30 454 O 40.5807 -0.675215 -2.43305 0
M  V30 455 C 41.8937 -3.00139 -0.183584 0
M  V30 456 C 43.4417 -3.11946 -0.256654 0
M  V30 457 C 43.9167 -4.57793 -0.137792 0
M  V30 458 N 45.4077 -4.6279 -0.194904 0
M  V30 459 C 46.1427 -5.7326 -0.126655 0
M  V30 460 N 45.6387 -6.928 -0.00755288 0
M  V30 461 N 47.4317 -5.61811 -0.180348 0
M  V30 462 H 39.5827 -1.90424 0.94087 0
M  V30 463 H 41.8457 -0.875761 0.362968 0
M  V30 464 H 41.5517 -3.4292 0.780927 0
M  V30 465 H 41.4257 -3.64899 -0.955448 0
M  V30 466 H 43.8127 -2.69079 -1.21162 0
M  V30 467 H 43.8937 -2.49915 0.545517 0
M  V30 468 H 43.5377 -5.01339 0.813739 0
M  V30 469 H 43.4677 -5.17798 -0.958775 0
M  V30 470 H 45.9587 -3.76807 -0.287267 0
M  V30 471 H 46.2717 -7.72791 0.0379428 0
M  V30 472 H 44.6167 -6.94995 0.0271731 0
M  V30 473 H 47.8077 -4.6731 -0.271767 0
M  V30 474 H 47.9807 -6.47882 -0.123697 0
M  V30 475 N 41.3868 0.248026 -1.55636 0
M  V30 476 C 42.6328 0.973427 -1.78594 0
M  V30 477 C 42.9878 1.83007 -0.593823 0
M  V30 478 O 42.2808 1.87097 0.412961 0
M  V30 479 C 42.4748 1.86819 -3.04686 0
M  V30 480 C 42.3038 1.09965 -4.36048 0
M  V30 481 C 41.0738 0.805204 -4.98843 0
M  V30 482 C 43.2718 0.477783 -5.12076 0
M  V30 483 N 41.2538 0.0124859 -6.13899 0
M  V30 484 C 42.6248 -0.179565 -6.1974 0
M  V30 485 C 44.6798 0.388136 -4.96385 0
M  V30 486 C 43.3828 -0.91795 -7.13419 0
M  V30 487 C 45.4088 -0.336716 -5.90441 0
M  V30 488 C 44.7708 -0.982705 -6.97511 0
M  V30 489 H 40.8698 0.337348 -0.705493 0
M  V30 490 H 43.4538 0.24667 -1.93131 0
M  V30 491 H 41.6248 2.56698 -2.9148 0
M  V30 492 H 43.3568 2.52907 -3.15944 0
M  V30 493 H 40.1118 1.11671 -4.60246 0
M  V30 494 H 40.5358 -0.371933 -6.75978 0
M  V30 495 H 45.1778 0.873237 -4.13684 0
M  V30 496 H 42.8958 -1.41466 -7.95621 0
M  V30 497 H 46.4818 -0.406731 -5.80377 0
M  V30 498 H 45.3618 -1.53464 -7.69037 0
M  V30 499 N 42.8649 1.48995 0.513639 0
M  V30 500 C 43.8279 1.64229 1.59879 0
M  V30 501 C 44.8279 0.514696 1.5234 0
M  V30 502 O 46.0179 0.78087 1.55718 0
M  V30 503 C 43.1499 1.62783 2.99524 0
M  V30 504 H 44.3429 2.61004 1.47705 0
M  V30 505 H 41.8959 1.37837 0.736936 0
M  V30 506 H 42.6309 0.675461 3.17188 0
M  V30 507 H 42.4159 2.4466 3.06404 0
M  V30 508 H 43.9059 1.76669 3.78388 0
M  V30 509 N 44.343 -0.763751 1.37857 0
M  V30 510 C 45.306 -1.85889 1.34081 0
M  V30 511 C 46.306 -1.58949 0.243277 0
M  V30 512 O 47.496 -1.66882 0.499589 0
M  V30 513 C 44.628 -3.23176 1.08489 0
M  V30 514 H 45.821 -1.90648 2.31502 0
M  V30 515 H 43.374 -0.964367 1.23003 0
M  V30 516 H 44.109 -3.24091 0.116318 0
M  V30 517 H 43.894 -3.44124 1.8794 0
M  V30 518 H 45.384 -4.03254 1.08517 0
M  V30 519 N 45.8211 -1.22559 -0.990812 0
M  V30 520 C 47.2371 -0.985996 -1.255 0
M  V30 521 C 47.4371 0.319173 -1.98956 0
M  V30 522 O 46.4931 1.04127 -2.3003 0
M  V30 523 C 47.8061 -2.18607 -2.06474 0
M  V30 524 C 49.3541 -2.22985 -2.19651 0
M  V30 525 C 49.8291 -3.4255 -3.04012 0
M  V30 526 N 51.3201 -3.42725 -3.11599 0
M  V30 527 C 52.0551 -4.31892 -3.7717 0
M  V30 528 N 51.5511 -5.31279 -4.44651 0
M  V30 529 N 53.3441 -4.19662 -3.73952 0
M  V30 530 H 45.4951 -2.06469 -0.49841 0
M  V30 531 H 47.7581 -0.904853 -0.282747 0
M  V30 532 H 47.4641 -3.13267 -1.59865 0
M  V30 533 H 47.3381 -2.18838 -3.07229 0
M  V30 534 H 49.7251 -1.28871 -2.65474 0
M  V30 535 H 49.8061 -2.26791 -1.18319 0
M  V30 536 H 49.4501 -4.36965 -2.58889 0
M  V30 537 H 49.3801 -3.35984 -4.0549 0
M  V30 538 H 51.8711 -2.70807 -2.63575 0
M  V30 539 H 52.1841 -5.95593 -4.92431 0
M  V30 540 H 50.5291 -5.3519 -4.43392 0
M  V30 541 H 53.7201 -3.41268 -3.20396 0
M  V30 542 H 53.8931 -4.89358 -4.24774 0
M  V30 543 N 47.2992 1.18797 -1.03562 0
M  V30 544 C 48.5292 1.92319 -0.754773 0
M  V30 545 C 48.9372 1.7612 0.691248 0
M  V30 546 O 48.2802 1.08491 1.48241 0
M  V30 547 C 48.3422 3.44284 -1.03484 0
M  V30 548 C 48.0062 3.84258 -2.47376 0
M  V30 549 C 49.0032 3.88459 -3.45537 0
M  V30 550 C 46.6882 4.15701 -2.81954 0
M  V30 551 C 48.6822 4.23545 -4.76328 0
M  V30 552 C 46.3692 4.50458 -4.12954 0
M  V30 553 C 47.3672 4.54356 -5.09951 0
M  V30 554 O 47.0552 4.88305 -6.38603 0
M  V30 555 H 46.7872 0.617527 -0.275021 0
M  V30 556 H 49.3412 1.51683 -1.38497 0
M  V30 557 H 47.5712 3.85135 -0.347513 0
M  V30 558 H 49.2602 3.99049 -0.7426 0
M  V30 559 H 50.0262 3.6431 -3.20162 0
M  V30 560 H 45.9052 4.11847 -2.0713 0
M  V30 561 H 49.4492 4.26502 -5.52035 0
M  V30 562 H 45.3462 4.74067 -4.38099 0
M  V30 563 H 46.1142 5.06227 -6.43177 0
M  V30 564 N 48.7773 0.814389 1.34928 0
M  V30 565 C 50.1883 0.458364 1.80986 0
M  V30 566 C 50.5393 -1.02042 1.67577 0
M  V30 567 O 49.6643 -1.79352 1.21086 0
M  V30 568 C 50.2593 0.825212 3.28597 0
M  V30 569 C 48.8183 0.521677 3.72767 0
M  V30 570 C 47.9653 1.04668 2.56788 0
M  V30 571 H 50.9163 1.00533 1.22795 0
M  V30 572 H 50.9373 0.12571 3.80292 0
M  V30 573 H 50.4493 1.90154 3.38324 0
M  V30 574 H 48.5503 -0.545589 3.68584 0
M  V30 575 H 48.6633 1.05977 4.67232 0
M  V30 576 H 47.0273 0.468622 2.50352 0
M  V30 577 H 47.8103 2.12927 2.6929 0
M  V30 578 N 50.2554 -1.46986 0.568584 0
M  V30 579 C 51.6664 -1.86188 0.138219 0
M  V30 580 C 52.0174 -1.47388 -1.29504 0
M  V30 581 O 51.1424 -0.88219 -1.97602 0
M  V30 582 C 51.7374 -3.3792 0.244065 0
M  V30 583 C 50.2964 -3.76171 -0.131335 0
M  V30 584 C 49.4434 -2.71027 0.586465 0
M  V30 585 H 52.3944 -1.38342 0.777645 0
M  V30 586 H 52.4154 -3.76729 -0.534351 0
M  V30 587 H 51.9274 -3.66128 1.28731 0
M  V30 588 H 50.0284 -3.5358 -1.17526 0
M  V30 589 H 50.1414 -4.78523 0.235146 0
M  V30 590 H 48.5054 -2.54684 0.0282722 0
M  V30 591 H 49.2884 -3.02077 1.63109 0
M  V30 592 N 51.7335 -0.305618 -1.54608 0
M  V30 593 C 52.9815 0.301701 -1.99835 0
M  V30 594 C 53.3025 1.54054 -1.19551 0
M  V30 595 O 52.5725 1.93702 -0.292658 0
M  V30 596 H 51.1525 0.114468 -0.738178 0
M  V30 597 H 53.8145 -0.418016 -1.90364 0
M  V30 598 H 52.9105 0.570548 -3.06841 0
M  V30 599 N 53.2116 1.57565 -0.0334293 0
M  V30 600 C 54.6226 1.79746 0.504798 0
M  V30 601 C 54.9736 0.944091 1.71992 0
M  V30 602 O 54.0986 0.155694 2.15839 0
M  V30 603 C 54.6936 3.25997 0.922567 0
M  V30 604 C 53.2526 3.49159 1.40588 0
M  V30 605 C 52.3996 2.74785 0.372633 0
M  V30 606 H 55.3506 1.56565 -0.259436 0
M  V30 607 H 55.3716 3.35945 1.78666 0
M  V30 608 H 54.8836 3.88081 0.0379825 0
M  V30 609 H 52.9846 2.92332 2.31025 0
M  V30 610 H 53.0976 4.57873 1.41028 0
M  V30 611 H 51.4616 2.40391 0.841672 0
M  V30 612 H 52.2446 3.39587 -0.503559 0
M  V30 613 N 54.6897 -0.239769 1.55765 0
M  V30 614 C 55.6197 -1.30052 1.9393 0
M  V30 615 C 56.6007 -1.49839 0.805132 0
M  V30 616 O 57.7857 -1.62328 1.06599 0
M  V30 617 C 54.9157 -2.65391 2.2402 0
M  V30 618 C 53.8697 -2.60289 3.39755 0
M  V30 619 C 53.1957 -3.99489 3.55405 0
M  V30 620 C 54.4957 -2.16654 4.75246 0
M  V30 621 H 56.1897 -0.983573 2.82783 0
M  V30 622 H 53.7357 -0.471701 1.36055 0
M  V30 623 H 55.6887 -3.3974 2.49308 0
M  V30 624 H 54.4127 -2.98736 1.32 0
M  V30 625 H 53.0717 -1.88398 3.14487 0
M  V30 626 H 52.7197 -4.30112 2.60793 0
M  V30 627 H 52.4197 -3.96962 4.33238 0
M  V30 628 H 53.9437 -4.75528 3.83022 0
M  V30 629 H 55.3577 -2.80737 4.99859 0
M  V30 630 H 53.7547 -2.25223 5.56232 0
M  V30 631 H 54.8247 -1.11835 4.71827 0
M  V30 632 N 56.1678 -1.49265 -0.50573 0
M  V30 633 C 57.5788 -1.51769 -1.08734 0
M  V30 634 C 57.9298 -0.301192 -1.93874 0
M  V30 635 O 57.0548 0.589456 -2.08217 0
M  V30 636 C 57.6498 -2.75017 -1.97867 0
M  V30 637 C 56.2088 -2.80314 -2.51199 0
M  V30 638 C 55.3558 -2.4562 -1.28709 0
M  V30 639 H 58.3068 -1.56031 -0.289855 0
M  V30 640 H 58.3278 -2.5491 -2.82491 0
M  V30 641 H 57.8398 -3.63539 -1.35873 0
M  V30 642 H 55.9408 -1.96061 -3.16845 0
M  V30 643 H 56.0538 -3.82366 -2.88675 0
M  V30 644 H 54.4178 -1.97297 -1.61078 0
M  V30 645 H 55.2008 -3.36411 -0.6843 0
M  V30 646 N 57.6459 0.756429 -1.3826 0
M  V30 647 C 58.5759 1.88374 -1.37976 0
M  V30 648 C 59.5569 1.68311 -0.246082 0
M  V30 649 O 60.7419 1.88944 -0.44874 0
M  V30 650 C 57.8719 3.25864 -1.20125 0
M  V30 651 C 56.8259 3.60523 -2.30666 0
M  V30 652 C 56.1519 4.9672 -1.97923 0
M  V30 653 C 57.4519 3.65692 -3.72916 0
M  V30 654 H 59.1459 1.88869 -2.32312 0
M  V30 655 H 56.6919 0.907272 -1.11824 0
M  V30 656 H 58.6449 4.0438 -1.18552 0
M  V30 657 H 57.3689 3.25841 -0.222498 0
M  V30 658 H 56.0279 2.84324 -2.3142 0
M  V30 659 H 55.6759 4.93253 -0.985393 0
M  V30 660 H 55.3759 5.20878 -2.71955 0
M  V30 661 H 56.8999 5.77618 -1.97964 0
M  V30 662 H 58.3139 4.34328 -3.74208 0
M  V30 663 H 56.7109 4.01358 -4.4613 0
M  V30 664 H 57.7809 2.65987 -4.05436 0
M  V30 665 N 59.124 1.23083 0.984299 0
M  V30 666 C 60.535 1.05609 1.5396 0
M  V30 667 C 60.886 -0.377793 1.92528 0
M  V30 668 O 60.011 -1.26398 1.75649 0
M  V30 669 C 60.606 1.91087 2.7977 0
M  V30 670 C 59.165 1.77885 3.31713 0
M  V30 671 C 58.312 1.87028 2.04733 0
M  V30 672 H 61.263 1.36802 0.804419 0
M  V30 673 H 61.284 1.43336 3.5247 0
M  V30 674 H 60.796 2.9544 2.51668 0
M  V30 675 H 58.897 0.762995 3.64704 0
M  V30 676 H 59.01 2.61047 4.01735 0
M  V30 677 H 57.374 1.30565 2.18689 0
M  V30 678 H 58.157 2.92929 1.79017 0
M  V30 679 N 60.6021 -1.18246 1.0419 0
M  V30 680 C 61.8501 -1.87886 0.744543 0
M  V30 681 C 62.1711 -1.8082 -0.730006 0
M  V30 682 O 61.4411 -1.22736 -1.52685 0
M  V30 683 H 60.0211 -0.695556 0.272417 0
M  V30 684 H 62.6831 -1.43494 1.31892 0
M  V30 685 H 61.7791 -2.9389 1.05049 0
M  V30 686 N 62.0802 -0.821533 -1.34494 0
M  V30 687 C 63.0102 -0.257138 -2.3208 0
M  V30 688 C 63.9912 0.625645 -1.58176 0
M  V30 689 O 65.1762 0.552811 -1.86166 0
M  V30 690 C 62.3062 0.582958 -3.42372 0
M  V30 691 C 61.2602 -0.202571 -4.2752 0
M  V30 692 C 60.5862 0.760179 -5.29269 0
M  V30 693 C 61.8862 -1.40998 -5.02908 0
M  V30 694 H 63.5802 -1.07247 -2.79532 0
M  V30 695 H 61.1262 -0.517163 -1.34393 0
M  V30 696 H 63.0792 0.987972 -4.09655 0
M  V30 697 H 61.8032 1.43133 -2.93565 0
M  V30 698 H 60.4622 -0.588936 -3.61838 0
M  V30 699 H 60.1102 1.60447 -4.76724 0
M  V30 700 H 59.8102 0.238809 -5.87115 0
M  V30 701 H 61.3342 1.16308 -5.9942 0
M  V30 702 H 62.7482 -1.07905 -5.63054 0
M  V30 703 H 61.1452 -1.86689 -5.70322 0
M  V30 704 H 62.2152 -2.1889 -4.32684 0
M  V30 705 N 63.5583 1.46682 -0.576371 0
M  V30 706 C 64.8063 2.02013 -0.0594163 0
M  V30 707 C 65.1273 1.45101 1.30271 0
M  V30 708 O 64.3973 0.633317 1.8538 0
M  V30 709 H 62.9773 0.746759 -0.0189745 0
M  V30 710 H 65.6393 1.79862 -0.750717 0
M  V30 711 H 64.7353 3.12097 0.014345 0
M  V30 712 N 65.0364 0.313813 1.54444 0
M  V30 713 C 65.9844 -0.572171 2.25453 0
M  V30 714 C 66.9784 -1.12657 1.2651 0
M  V30 715 O 68.1844 -1.07573 1.44319 0
M  V30 716 H 64.5594 -0.203146 0.724041 0
M  V30 717 H 66.5304 0.0491145 2.9836 0
M  V30 718 C 65.2794 -1.72626 3.0182 0
M  V30 719 H 64.6024 -1.30891 3.77767 0
M  V30 720 H 66.0424 -2.32199 3.54767 0
M  V30 721 C 64.5014 -2.63806 2.09542 0
M  V30 722 O 65.0314 -3.65256 1.67185 0
M  V30 723 N 63.2374 -2.31824 1.75232 0
M  V30 724 H 62.7844 -1.49368 2.09873 0
M  V30 725 H 62.7424 -2.93095 1.13767 0
M  V30 726 N 66.5145 -1.57545 0.0417849 0
M  V30 727 C 67.4445 -2.14009 -0.933929 0
M  V30 728 C 68.4255 -1.05938 -1.33083 0
M  V30 729 O 69.6105 -1.33833 -1.40721 0
M  V30 730 C 66.7405 -2.67747 -2.21199 0
M  V30 731 C 65.6945 -3.80718 -1.95544 0
M  V30 732 C 65.0205 -4.20935 -3.29724 0
M  V30 733 C 66.3205 -5.06258 -1.28452 0
M  V30 734 H 68.0145 -2.95788 -0.463645 0
M  V30 735 H 65.5605 -1.42285 -0.221573 0
M  V30 736 H 67.5135 -3.05886 -2.89848 0
M  V30 737 H 66.2375 -1.83147 -2.70416 0
M  V30 738 H 64.8965 -3.43037 -1.2931 0
M  V30 739 H 64.5445 -3.33298 -3.76724 0
M  V30 740 H 64.2445 -4.9707 -3.13361 0
M  V30 741 H 65.7685 -4.61666 -3.9962 0
M  V30 742 H 67.1825 -5.41903 -1.8712 0
M  V30 743 H 65.5795 -5.87475 -1.22445 0
M  V30 744 H 66.6495 -4.84207 -0.259219 0
M  V30 745 N 67.9926 0.231505 -1.5589 0
M  V30 746 C 68.9226 1.29022 -1.94617 0
M  V30 747 C 69.9036 1.4941 -0.813067 0
M  V30 748 O 71.0886 1.6176 -1.07459 0
M  V30 749 C 68.2186 2.64199 -2.25424 0
M  V30 750 C 67.1726 2.58484 -3.41131 0
M  V30 751 C 66.4986 3.97599 -3.57518 0
M  V30 752 C 67.7986 2.1413 -4.76388 0
M  V30 753 H 69.4926 0.968563 -2.83301 0
M  V30 754 H 67.0386 0.464479 -1.36303 0
M  V30 755 H 68.9916 3.38413 -2.51107 0
M  V30 756 H 67.7156 2.98032 -1.33583 0
M  V30 757 H 66.3746 1.86727 -3.15481 0
M  V30 758 H 66.0226 4.28723 -2.6307 0
M  V30 759 H 65.7226 3.94659 -4.35337 0
M  V30 760 H 67.2466 4.7349 -3.85538 0
M  V30 761 H 68.6606 2.78083 -5.01341 0
M  V30 762 H 67.0576 2.2227 -5.57419 0
M  V30 763 H 68.1276 1.09331 -4.72414 0
M  V30 764 N 69.4707 1.49531 0.497807 0
M  V30 765 C 70.4207 1.62829 1.59596 0
M  V30 766 C 71.4047 0.483824 1.53453 0
M  V30 767 O 72.5967 0.736937 1.60929 0
M  V30 768 C 69.7257 1.7011 2.98191 0
M  V30 769 C 68.8117 2.90144 3.09317 0
M  V30 770 N 69.2027 4.1418 2.90324 0
M  V30 771 C 67.5007 2.88148 3.40422 0
M  V30 772 C 68.2017 4.94886 3.05717 0
M  V30 773 N 67.1777 4.28314 3.34736 0
M  V30 774 H 70.9797 2.56446 1.4357 0
M  V30 775 H 68.4937 1.46347 0.704001 0
M  V30 776 H 70.4907 1.77735 3.77115 0
M  V30 777 H 69.1507 0.776315 3.15283 0
M  V30 778 H 70.1617 4.44109 2.66436 0
M  V30 779 H 66.8387 2.05061 3.63671 0
M  V30 780 H 68.2287 6.03432 2.95499 0
M  V30 781 N 70.9488 -0.749086 1.3866 0
M  V30 782 C 72.1948 -1.51056 1.35314 0
M  V30 783 C 72.5278 -1.94121 -0.0553751 0
M  V30 784 O 71.8028 -1.65763 -1.01749 0
M  V30 785 C 72.0858 -2.76003 2.31288 0
M  V30 786 C 71.9388 -2.39047 3.8102 0
M  V30 787 C 73.2578 -3.78046 2.2532 0
M  V30 788 H 70.3768 -0.547972 0.492844 0
M  V30 789 H 73.0188 -0.857628 1.69543 0
M  V30 790 H 71.1688 -3.31716 2.02229 0
M  V30 791 H 72.8408 -1.89074 4.20771 0
M  V30 792 H 71.0838 -1.71449 3.98482 0
M  V30 793 H 71.7548 -3.28462 4.4364 0
M  V30 794 H 74.2308 -3.31884 2.50983 0
M  V30 795 H 73.1068 -4.63159 2.94576 0
M  V30 796 H 73.3678 -4.23957 1.25352 0
M  V30 797 N 72.4269 -1.23603 -0.977757 0
M  V30 798 C 73.7039 -0.977897 -1.69401 0
M  V30 799 C 74.0839 0.502738 -2.05026 0
M  V30 800 O 73.4319 1.47459 -1.74551 0
M  V30 801 C 73.6419 -1.89077 -2.93345 0
M  V30 802 C 74.9899 -2.15579 -3.65802 0
M  V30 803 O 76.0139 -1.86648 -3.03383 0
M  V30 804 O 74.8729 -2.64658 -4.78141 0
M  V30 805 H 71.9669 -0.369025 -0.740101 0
M  V30 806 H 74.5129 -1.34657 -1.03274 0
M  V30 807 H 73.2849 -2.89158 -2.63634 0
M  V30 808 H 72.9079 -1.52463 -3.67207 0
M  V30 809 N 73.905 1.17692 -1.04816 0
M  V30 810 C 75.152 1.87859 -0.75599 0
M  V30 811 C 75.48 1.80812 0.716752 0
M  V30 812 O 74.735 1.20819 1.53952 0
M  V30 813 C 75.034 3.37462 -1.17703 0
M  V30 814 C 74.7 3.64713 -2.65133 0
M  V30 815 C 73.362 3.71859 -3.05408 0
M  V30 816 C 75.714 3.76492 -3.60421 0
M  V30 817 C 73.042 3.88271 -4.39843 0
M  V30 818 C 75.394 3.94421 -4.94585 0
M  V30 819 C 74.058 3.99806 -5.3452 0
M  V30 820 H 73.328 0.687425 -0.276636 0
M  V30 821 H 75.975 1.39255 -1.31455 0
M  V30 822 H 74.28 3.88097 -0.537395 0
M  V30 823 H 75.977 3.90109 -0.928218 0
M  V30 824 H 72.567 3.59772 -2.32942 0
M  V30 825 H 76.751 3.70295 -3.30447 0
M  V30 826 H 72.007 3.90687 -4.70291 0
M  V30 827 H 76.181 4.02477 -5.68318 0
M  V30 828 H 73.808 4.12276 -6.38696 0
M  V30 829 N 75.3831 0.828654 1.34056 0
M  V30 830 C 76.3151 0.212052 2.28217 0
M  V30 831 C 77.3281 -0.601362 1.51286 0
M  V30 832 O 78.5171 -0.430104 1.73241 0
M  V30 833 C 75.6171 -0.72088 3.31144 0
M  V30 834 C 74.7901 0.0509587 4.3737 0
M  V30 835 C 73.8491 -0.803766 5.20025 0
M  V30 836 O 72.8751 -0.246667 5.68665 0
M  V30 837 N 74.0771 -2.1227 5.40298 0
M  V30 838 H 76.8421 1.02105 2.81771 0
M  V30 839 H 74.4031 0.686153 1.46641 0
M  V30 840 H 76.3951 -1.29742 3.8334 0
M  V30 841 H 74.9651 -1.43061 2.77943 0
M  V30 842 H 74.1851 0.808831 3.85813 0
M  V30 843 H 75.4731 0.582065 5.0546 0
M  V30 844 H 74.8711 -2.59898 5.02464 0
M  V30 845 H 73.4281 -2.64796 5.95589 0
M  V30 846 N 76.8612 -1.46375 0.584142 0
M  V30 847 C 77.8092 -2.32042 -0.161047 0
M  V30 848 C 78.8032 -1.44569 -0.882966 0
M  V30 849 O 80.0092 -1.61186 -0.801191 0
M  V30 850 H 76.3842 -0.748659 -0.0708033 0
M  V30 851 H 78.3552 -2.92704 0.580269 0
M  V30 852 C 77.1042 -3.27762 -1.1605 0
M  V30 853 H 76.4272 -3.95051 -0.614419 0
M  V30 854 H 77.8672 -3.90481 -1.65228 0
M  V30 855 C 76.3262 -2.53218 -2.22221 0
M  V30 856 O 76.8562 -2.29628 -3.29597 0
M  V30 857 N 75.0622 -2.13756 -1.96868 0
M  V30 858 H 74.6092 -2.33142 -1.09557 0
M  V30 859 H 74.5672 -1.642 -2.68115 0
M  V30 860 N 78.3393 -0.321999 -1.54275 0
M  V30 861 C 79.5673 0.283052 -2.04955 0
M  V30 862 C 79.9823 1.45904 -1.19823 0
M  V30 863 O 79.3393 1.81063 -0.228545 0
M  V30 864 C 79.3903 0.719028 -3.54277 0
M  V30 865 O 79.1113 -0.410175 -4.36176 0
M  V30 866 C 80.6123 1.38705 -4.21041 0
M  V30 867 H 77.8323 0.0584616 -0.668448 0
M  V30 868 H 80.3763 -0.467734 -1.99079 0
M  V30 869 H 78.5313 1.41979 -3.60445 0
M  V30 870 H 78.9453 -0.0669416 -5.24457 0
M  V30 871 H 80.4193 1.64306 -5.2698 0
M  V30 872 H 80.8963 2.33385 -3.72059 0
M  V30 873 H 81.5023 0.728906 -4.19007 0
M  V30 874 N 79.8174 1.5752 -0.0501392 0
M  V30 875 C 81.2284 1.80271 0.485705 0
M  V30 876 C 81.5794 0.96228 1.70981 0
M  V30 877 O 80.7044 0.178578 2.15662 0
M  V30 878 C 81.2994 3.26957 0.887938 0
M  V30 879 C 79.8584 3.5063 1.36877 0
M  V30 880 C 79.0054 2.75165 0.343468 0
M  V30 881 H 81.9564 1.56281 -0.276028 0
M  V30 882 H 81.9774 3.37821 1.75093 0
M  V30 883 H 81.4894 3.881 -0.0031809 0
M  V30 884 H 79.5904 2.94766 2.27911 0
M  V30 885 H 79.7034 4.59343 1.36164 0
M  V30 886 H 78.0674 2.4127 0.816128 0
M  V30 887 H 78.8504 3.39034 -0.539548 0
M  V30 888 N 81.2955 -0.223234 1.56011 0
M  V30 889 C 82.5255 -0.963413 1.82762 0
M  V30 890 C 82.9335 -1.78516 0.626804 0
M  V30 891 O 82.2765 -1.78974 -0.414014 0
M  V30 892 C 82.3385 -1.93126 3.0322 0
M  V30 893 C 82.0025 -1.2942 4.38291 0
M  V30 894 C 82.9995 -0.684916 5.15369 0
M  V30 895 C 80.6845 -1.30647 4.85012 0
M  V30 896 C 82.6785 -0.0963971 6.37327 0
M  V30 897 C 80.3655 -0.71411 6.06913 0
M  V30 898 C 81.3635 -0.110123 6.82911 0
M  V30 899 O 81.0515 0.47303 8.02507 0
M  V30 900 H 80.7835 -0.288011 0.611576 0
M  V30 901 H 83.3375 -0.244103 2.03944 0
M  V30 902 H 81.5675 -2.68952 2.77852 0
M  V30 903 H 83.2565 -2.53685 3.16857 0
M  V30 904 H 84.0225 -0.667774 4.80381 0
M  V30 905 H 79.9015 -1.76598 4.25833 0
M  V30 906 H 83.4455 0.375657 6.96588 0
M  V30 907 H 79.3425 -0.728659 6.41374 0
M  V30 908 H 80.1105 0.367186 8.17676 0
M  V30 909 N 82.7736 -1.49793 -0.48987 0
M  V30 910 C 84.0136 -1.61466 -1.25332 0
M  V30 911 C 84.3776 -0.299688 -1.89647 0
M  V30 912 O 85.5786 -0.291687 -2.67213 0
M  V30 913 C 83.8496 -2.74944 -2.28343 0
M  V30 914 S 85.4086 -3.06637 -3.13878 0
M  V30 915 H 82.2266 -0.569411 -0.425784 0
M  V30 916 H 84.8286 -1.875 -0.553541 0
M  V30 917 H 83.5326 -3.68994 -1.79643 0
M  V30 918 H 83.0636 -2.50938 -3.02975 0
M  V30 919 H 85.0786 -2.49015 -4.29192 0
M  V30 920 N 84.2517 0.741722 -1.39055 0
M  V30 921 C 85.4987 1.50114 -1.35912 0
M  V30 922 C 85.8267 1.94443 0.0470937 0
M  V30 923 O 85.0817 1.66612 1.02659 0
M  V30 924 C 85.3807 2.7592 -2.27163 0
M  V30 925 C 85.0467 2.50493 -3.74919 0
M  V30 926 C 83.7087 2.43267 -4.1518 0
M  V30 927 C 86.0607 2.28585 -4.684 0
M  V30 928 C 83.3887 2.12166 -5.46994 0
M  V30 929 C 85.7407 1.99002 -6.00484 0
M  V30 930 C 84.4047 1.90241 -6.39816 0
M  V30 931 H 83.6747 0.549306 -0.497336 0
M  V30 932 H 86.3217 0.851896 -1.71508 0
M  V30 933 H 84.6267 3.45553 -1.84663 0
M  V30 934 H 86.3237 3.33923 -2.22028 0
M  V30 935 H 82.9137 2.56992 -3.43006 0
M  V30 936 H 87.0977 2.33139 -4.38132 0
M  V30 937 H 82.3537 2.03901 -5.76398 0
M  V30 938 H 86.5277 1.81057 -6.72452 0
M  V30 939 H 84.1547 1.65907 -7.41875 0
M  V30 940 N 85.7298 1.2412 0.971189 0
M  V30 941 C 87.0068 0.986867 1.6888 0
M  V30 942 C 87.3868 -0.491857 2.0529 0
M  V30 943 O 86.7348 -1.46531 1.75331 0
M  V30 944 C 86.9448 1.9063 2.92338 0
M  V30 945 C 88.2928 2.17515 3.64654 0
M  V30 946 O 89.3168 1.88254 3.02388 0
M  V30 947 O 88.1758 2.6719 4.7673 0
M  V30 948 H 85.2698 0.372944 0.738134 0
M  V30 949 H 87.8158 1.35203 1.02559 0
M  V30 950 H 86.5878 2.90552 2.62097 0
M  V30 951 H 86.2108 1.54408 3.66393 0
M  V30 952 N 87.2079 -1.17134 1.05439 0
M  V30 953 C 88.1399 -2.2078 0.615539 0
M  V30 954 C 89.1529 -1.59584 -0.322001 0
M  V30 955 O 90.3419 -1.78133 -0.114344 0
M  V30 956 C 87.4419 -3.38691 -0.118938 0
M  V30 957 C 86.6149 -4.29454 0.829924 0
M  V30 958 C 85.6739 -5.26024 0.136258 0
M  V30 959 O 84.6999 -5.63952 0.77115 0
M  V30 960 N 85.9019 -5.69487 -1.1254 0
M  V30 961 H 88.6669 -2.59052 1.50705 0
M  V30 962 H 86.2279 -1.32058 0.936603 0
M  V30 963 H 88.2199 -4.00329 -0.593179 0
M  V30 964 H 86.7899 -2.98996 -0.91215 0
M  V30 965 H 86.0099 -3.65211 1.48373 0
M  V30 966 H 87.2979 -4.86984 1.47392 0
M  V30 967 H 86.6959 -5.4075 -1.6615 0
M  V30 968 H 85.2529 -6.33257 -1.54366 0
M  V30 969 N 88.686 -0.835752 -1.33615 0
M  V30 970 C 89.616 -0.281739 -2.31794 0
M  V30 971 C 90.597 0.608833 -1.58831 0
M  V30 972 O 91.782 0.533035 -1.86741 0
M  V30 973 C 88.912 0.546612 -3.42971 0
M  V30 974 C 87.866 -0.247904 -4.27281 0
M  V30 975 C 87.192 0.704001 -5.30045 0
M  V30 976 C 88.492 -1.46324 -5.01385 0
M  V30 977 H 90.186 -1.10206 -2.78379 0
M  V30 978 H 87.732 -0.531388 -1.33837 0
M  V30 979 H 89.685 0.944467 -4.1068 0
M  V30 980 H 88.409 1.40011 -2.95067 0
M  V30 981 H 87.068 -0.627281 -3.61194 0
M  V30 982 H 86.716 1.55381 -4.78399 0
M  V30 983 H 86.416 0.176524 -5.87335 0
M  V30 984 H 87.94 1.09944 -6.0062 0
M  V30 985 H 89.354 -1.13871 -5.61877 0
M  V30 986 H 87.751 -1.92728 -5.6831 0
M  V30 987 H 88.821 -2.23467 -4.30338 0
M  V30 988 N 90.1641 1.46063 -0.591896 0
M  V30 989 C 91.5801 1.57561 -0.254288 0
M  V30 990 C 91.7801 1.58565 1.24336 0
M  V30 991 O 90.8361 1.50753 2.02558 0
M  V30 992 C 92.1491 2.86549 -0.911611 0
M  V30 993 C 93.6971 3.00197 -0.886059 0
M  V30 994 C 94.1721 4.31933 -1.5231 0
M  V30 995 N 95.6631 4.38654 -1.48786 0
M  V30 996 C 96.3981 5.39222 -1.95006 0
M  V30 997 N 95.8941 6.46414 -2.49241 0
M  V30 998 N 97.6871 5.3048 -1.85868 0
M  V30 999 H 89.8381 1.43655 -1.56451 0
M  V30 1000 H 92.1011 0.68583 -0.654478 0
M  V30 1001 H 91.8071 2.91651 -1.96551 0
M  V30 1002 H 91.6811 3.74794 -0.425368 0
M  V30 1003 H 94.0681 2.9467 0.159246 0
M  V30 1004 H 94.1491 2.13403 -1.41041 0
M  V30 1005 H 93.7931 4.38217 -2.56765 0
M  V30 1006 H 93.7231 5.17516 -0.973891 0
M  V30 1007 H 96.2141 3.61793 -1.09151 0
M  V30 1008 H 96.5271 7.19376 -2.82344 0
M  V30 1009 H 94.8721 6.47208 -2.53272 0
M  V30 1010 H 98.0631 4.45643 -1.43248 0
M  V30 1011 H 98.2361 6.08711 -2.22204 0
M  V30 1012 N 91.6422 0.330177 1.54103 0
M  V30 1013 C 93.0582 -0.0222371 1.59585 0
M  V30 1014 C 93.2582 -1.49902 1.34654 0
M  V30 1015 O 92.3142 -2.25592 1.13421 0
M  V30 1016 C 93.6272 0.401932 2.98002 0
M  V30 1017 C 95.1752 0.353145 3.11001 0
M  V30 1018 C 95.6502 0.752576 4.51775 0
M  V30 1019 N 97.1412 0.706239 4.57784 0
M  V30 1020 C 97.8762 0.987417 5.64834 0
M  V30 1021 N 97.3722 1.33607 6.79795 0
M  V30 1022 N 99.1652 0.91254 5.54643 0
M  V30 1023 H 91.3162 1.29228 1.68564 0
M  V30 1024 H 93.5792 0.525906 0.78875 0
M  V30 1025 H 93.2852 1.4311 3.21267 0
M  V30 1026 H 93.1592 -0.229699 3.765 0
M  V30 1027 H 95.5462 -0.666822 2.87467 0
M  V30 1028 H 95.6272 1.0198 2.34593 0
M  V30 1029 H 95.2712 1.77049 4.76042 0
M  V30 1030 H 95.2012 0.0635409 5.26562 0
M  V30 1031 H 97.6922 0.44889 3.75224 0
M  V30 1032 H 98.0052 1.53582 7.57385 0
M  V30 1033 H 96.3502 1.37439 6.81275 0
M  V30 1034 H 99.5412 0.639601 4.6371 0
M  V30 1035 H 99.7142 1.13503 6.37982 0
M  V30 1036 N 93.1203 -1.57491 0.0584922 0
M  V30 1037 C 94.5363 -1.56792 -0.298091 0
M  V30 1038 C 94.7363 -1.06679 -1.70944 0
M  V30 1039 O 93.7923 -0.726672 -2.41818 0
M  V30 1040 C 95.1053 -3.00461 -0.119879 0
M  V30 1041 C 96.6533 -3.1242 -0.190428 0
M  V30 1042 C 97.1283 -4.57982 -0.0406567 0
M  V30 1043 N 98.6193 -4.63099 -0.0966958 0
M  V30 1044 C 99.3543 -5.734 -0.00502943 0
M  V30 1045 N 98.8503 -6.9266 0.139402 0
M  V30 1046 N 100.643 -5.62067 -0.0611391 0
M  V30 1047 H 92.7943 -1.88386 0.98105 0
M  V30 1048 H 95.0573 -0.867865 0.381463 0
M  V30 1049 H 94.7633 -3.41187 0.85349 0
M  V30 1050 H 94.6373 -3.66843 -0.877833 0
M  V30 1051 H 97.0243 -2.71589 -1.15427 0
M  V30 1052 H 97.1053 -2.48702 0.598405 0
M  V30 1053 H 96.7493 -4.995 0.919897 0
M  V30 1054 H 96.6793 -5.19715 -0.848727 0
M  V30 1055 H 99.1703 -3.77331 -0.207277 0
M  V30 1056 H 99.4833 -7.72536 0.201855 0
M  V30 1057 H 97.8283 -6.94781 0.174586 0
M  V30 1058 H 101.019 -4.67782 -0.172583 0
M  V30 1059 H 101.192 -6.47999 0.0137562 0
M  V30 1060 N 94.5984 0.214957 -1.56127 0
M  V30 1061 C 95.8454 0.938372 -1.79446 0
M  V30 1062 C 96.1734 1.8407 -0.628378 0
M  V30 1063 O 95.4284 1.91837 0.386925 0
M  V30 1064 C 95.7274 1.80314 -3.0858 0
M  V30 1065 C 95.3934 1.05349 -4.3842 0
M  V30 1066 C 94.0554 0.846435 -4.73697 0
M  V30 1067 C 96.4074 0.524588 -5.18553 0
M  V30 1068 C 93.7354 0.098683 -5.86617 0
M  V30 1069 C 96.0874 -0.209853 -6.32252 0
M  V30 1070 C 94.7514 -0.428102 -6.66126 0
M  V30 1071 H 94.0214 0.343375 -0.656639 0
M  V30 1072 H 96.6684 0.206077 -1.90388 0
M  V30 1073 H 94.9734 2.6035 -2.92789 0
M  V30 1074 H 96.6704 2.36513 -3.23825 0
M  V30 1075 H 93.2604 1.22486 -4.10725 0
M  V30 1076 H 97.4444 0.672008 -4.91729 0
M  V30 1077 H 92.7004 -0.0805753 -6.11347 0
M  V30 1078 H 96.8744 -0.627157 -6.9357 0
M  V30 1079 H 94.5014 -1.00944 -7.53468 0
M  V30 1080 N 96.0765 1.50051 0.48192 0
M  V30 1081 C 97.3245 1.60181 1.23234 0
M  V30 1082 C 97.6455 0.299176 1.92691 0
M  V30 1083 O 96.9155 -0.682708 1.83619 0
M  V30 1084 H 95.4955 0.590232 0.457859 0
M  V30 1085 H 98.1575 1.86775 0.556881 0
M  V30 1086 H 97.2535 2.40753 1.98607 0
M  V30 1087 N 97.5546 -0.734337 1.39446 0
M  V30 1088 C 98.8316 -1.48579 1.27215 0
M  V30 1089 C 99.2116 -2.1077 -0.117968 0
M  V30 1090 O 98.5596 -1.98646 -1.12924 0
M  V30 1091 C 98.7696 -2.53667 2.39696 0
M  V30 1092 C 100.118 -3.20031 2.79044 0
M  V30 1093 O 101.142 -2.6398 2.39151 0
M  V30 1094 O 100.001 -4.21455 3.47905 0
M  V30 1095 H 97.0946 -0.659816 0.49857 0
M  V30 1096 H 99.6406 -0.768106 1.51322 0
M  V30 1097 H 98.4126 -2.06096 3.32626 0
M  V30 1098 H 98.0356 -3.32994 2.17258 0
M  V30 1099 N 99.0327 -1.24633 -0.964593 0
M  V30 1100 C 100.279 -1.08949 -1.71049 0
M  V30 1101 C 100.612 0.370302 -1.90637 0
M  V30 1102 O 99.8867 1.27349 -1.47011 0
M  V30 1103 C 100.17 -1.83329 -3.0994 0
M  V30 1104 C 100.023 -3.37077 -2.97824 0
M  V30 1105 C 101.342 -1.60846 -4.09654 0
M  V30 1106 H 98.4607 -0.397178 -0.620821 0
M  V30 1107 H 101.103 -1.5334 -1.12191 0
M  V30 1108 H 99.2527 -1.45597 -3.60186 0
M  V30 1109 H 100.925 -3.84425 -2.5498 0
M  V30 1110 H 99.1677 -3.65298 -2.33965 0
M  V30 1111 H 99.8387 -3.84324 -3.96231 0
M  V30 1112 H 102.315 -1.93674 -3.68279 0
M  V30 1113 H 101.191 -2.1534 -5.04896 0
M  V30 1114 H 101.452 -0.547434 -4.38698 0
M  V30 1115 N 100.511 1.16574 -1.06058 0
M  V30 1116 C 101.758 1.87047 -0.775873 0
M  V30 1117 C 102.086 1.81562 0.697534 0
M  V30 1118 O 101.341 1.22445 1.52662 0
M  V30 1119 C 101.64 3.36195 -1.21275 0
M  V30 1120 C 101.306 3.6188 -2.68986 0
M  V30 1121 C 99.9678 3.68599 -3.09335 0
M  V30 1122 C 102.32 3.72648 -3.64394 0
M  V30 1123 C 99.6478 3.83584 -4.43937 0
M  V30 1124 C 102 3.89154 -4.98741 0
M  V30 1125 C 100.664 3.94114 -5.3873 0
M  V30 1126 H 99.9338 0.684452 -0.283912 0
M  V30 1127 H 102.581 1.37853 -1.32925 0
M  V30 1128 H 100.886 3.87505 -0.578528 0
M  V30 1129 H 102.583 3.89103 -0.969542 0
M  V30 1130 H 99.1728 3.57281 -2.36744 0
M  V30 1131 H 103.357 3.66769 -3.34356 0
M  V30 1132 H 98.6128 3.85677 -4.74409 0
M  V30 1133 H 102.787 3.96427 -5.72554 0
M  V30 1134 H 100.414 4.05478 -6.43033 0
M  V30 1135 N 101.989 0.842826 1.3317 0
M  V30 1136 C 103.214 0.453129 2.02389 0
M  V30 1137 C 103.639 -0.939105 1.6298 0
M  V30 1138 O 102.997 -1.61472 0.8244 0
M  V30 1139 C 103.045 0.586094 3.55805 0
M  V30 1140 O 102.149 -0.386029 4.10589 0
M  V30 1141 H 101.49 0.183664 0.638094 0
M  V30 1142 H 104.02 1.13875 1.69981 0
M  V30 1143 H 104.03 0.469209 4.05293 0
M  V30 1144 H 102.705 1.6014 3.83833 0
M  V30 1145 H 101.282 -0.226371 3.72212 0
M  V30 1146 N 103.467 -1.45747 0.599634 0
M  V30 1147 C 104.397 -2.33235 -0.111306 0
M  V30 1148 C 105.378 -1.46359 -0.866781 0
M  V30 1149 O 106.563 -1.75146 -0.838904 0
M  V30 1150 C 103.693 -3.28932 -1.11451 0
M  V30 1151 C 102.647 -4.25381 -0.472772 0
M  V30 1152 C 101.973 -5.1071 -1.58365 0
M  V30 1153 C 103.273 -5.18831 0.600948 0
M  V30 1154 H 104.967 -2.92927 0.61919 0
M  V30 1155 H 102.513 -1.40857 0.299215 0
M  V30 1156 H 104.466 -3.89002 -1.62036 0
M  V30 1157 H 103.19 -2.67381 -1.8755 0
M  V30 1158 H 101.849 -3.66598 0.0121472 0
M  V30 1159 H 101.497 -4.45533 -2.33473 0
M  V30 1160 H 101.197 -5.7604 -1.15982 0
M  V30 1161 H 102.721 -5.73647 -2.09194 0
M  V30 1162 H 104.135 -5.73019 0.179491 0
M  V30 1163 H 102.532 -5.92595 0.946076 0
M  V30 1164 H 103.602 -4.6174 1.48068 0
M  V30 1165 N 104.945 -0.338344 -1.53925 0
M  V30 1166 C 105.877 0.555117 -2.22376 0
M  V30 1167 C 106.89 1.06812 -1.22862 0
M  V30 1168 O 108.079 0.979163 -1.49247 0
M  V30 1169 C 105.179 1.77609 -2.88631 0
M  V30 1170 C 104.352 1.39927 -4.14414 0
M  V30 1171 C 103.411 2.47936 -4.64127 0
M  V30 1172 O 102.437 2.11461 -5.28463 0
M  V30 1173 N 103.639 3.79107 -4.39612 0
M  V30 1174 H 106.404 -0.0310778 -2.99684 0
M  V30 1175 H 103.965 -0.162226 -1.61085 0
M  V30 1176 H 105.957 2.49287 -3.18807 0
M  V30 1177 H 104.527 2.26978 -2.14941 0
M  V30 1178 H 103.747 0.513481 -3.90841 0
M  V30 1179 H 105.035 1.12341 -4.96243 0
M  V30 1180 H 104.433 4.11531 -3.88148 0
M  V30 1181 H 102.99 4.4697 -4.74406 0
M  V30 1182 N 106.423 1.57458 -0.0668435 0
M  V30 1183 C 107.353 2.15468 0.899764 0
M  V30 1184 C 108.334 1.08042 1.31381 0
M  V30 1185 O 109.519 1.36054 1.38574 0
M  V30 1186 C 106.649 2.71232 2.16911 0
M  V30 1187 C 105.603 3.83781 1.89463 0
M  V30 1188 C 104.929 4.26127 3.22986 0
M  V30 1189 C 106.229 5.08238 1.20381 0
M  V30 1190 H 107.923 2.96488 0.416529 0
M  V30 1191 H 105.469 1.4262 0.198908 0
M  V30 1192 H 107.422 3.10458 2.84945 0
M  V30 1193 H 106.146 1.87426 2.67468 0
M  V30 1194 H 104.805 3.45051 1.23836 0
M  V30 1195 H 104.453 3.39249 3.71374 0
M  V30 1196 H 104.153 5.01993 3.05413 0
M  V30 1197 H 105.677 4.67966 3.92225 0
M  V30 1198 H 107.091 5.44811 1.78475 0
M  V30 1199 H 105.488 5.89349 1.13083 0
M  V30 1200 H 106.558 4.84558 0.182153 0
M  V30 1201 N 107.901 -0.206675 1.56239 0
M  V30 1202 C 108.864 -1.23976 1.92776 0
M  V30 1203 C 109.864 -1.39041 0.807729 0
M  V30 1204 O 111.054 -1.37051 1.0753 0
M  V30 1205 C 108.186 -2.61112 2.19165 0
M  V30 1206 H 109.379 -0.927764 2.85189 0
M  V30 1207 H 106.932 -0.447718 1.4975 0
M  V30 1208 H 107.667 -2.97386 1.29352 0
M  V30 1209 H 107.452 -2.51552 3.00772 0
M  V30 1210 H 108.942 -3.35633 2.48476 0
M  V30 1211 N 109.379 -1.50304 -0.473955 0
M  V30 1212 C 110.625 -1.62358 -1.22521 0
M  V30 1213 C 110.98 -0.318555 -1.89745 0
M  V30 1214 O 110.273 0.683315 -1.79001 0
M  V30 1215 C 110.467 -2.73938 -2.29549 0
M  V30 1216 C 110.296 -4.15165 -1.72825 0
M  V30 1217 C 109.066 -4.81604 -1.52924 0
M  V30 1218 C 111.264 -4.99503 -1.22481 0
M  V30 1219 N 109.246 -6.07056 -0.91413 0
M  V30 1220 C 110.617 -6.15655 -0.732743 0
M  V30 1221 C 112.672 -4.85299 -1.11308 0
M  V30 1222 C 111.375 -7.19164 -0.139976 0
M  V30 1223 C 113.401 -5.88982 -0.534258 0
M  V30 1224 C 112.763 -7.0438 -0.0525562 0
M  V30 1225 H 108.862 -0.648286 -0.437321 0
M  V30 1226 H 111.446 -1.87413 -0.527692 0
M  V30 1227 H 109.617 -2.50611 -2.9673 0
M  V30 1228 H 111.349 -2.75366 -2.96573 0
M  V30 1229 H 108.104 -4.3885 -1.78067 0
M  V30 1230 H 108.528 -6.74108 -0.625071 0
M  V30 1231 H 113.17 -3.96369 -1.47144 0
M  V30 1232 H 110.888 -8.07771 0.230591 0
M  V30 1233 H 114.474 -5.80055 -0.450219 0
M  V30 1234 H 113.354 -7.83238 0.388324 0
M  V30 1235 N 110.857 0.726932 -1.39834 0
M  V30 1236 C 112.085 1.51613 -1.40787 0
M  V30 1237 C 112.5 1.88799 -0.00451505 0
M  V30 1238 O 111.857 1.54662 0.968809 0
M  V30 1239 C 111.908 2.79863 -2.28821 0
M  V30 1240 O 111.629 2.44253 -3.63692 0
M  V30 1241 C 113.13 3.73837 -2.38245 0
M  V30 1242 H 110.35 0.468264 -0.480593 0
M  V30 1243 H 112.894 0.897607 -1.83748 0
M  V30 1244 H 111.049 3.38027 -1.89252 0
M  V30 1245 H 111.463 3.26695 -4.1033 0
M  V30 1246 H 112.937 4.60699 -3.04073 0
M  V30 1247 H 113.414 4.16153 -1.40403 0
M  V30 1248 H 114.02 3.21589 -2.78317 0
M  V30 1249 N 112.336 1.25143 0.95797 0
M  V30 1250 C 113.747 1.08851 1.51685 0
M  V30 1251 C 114.098 -0.33687 1.93286 0
M  V30 1252 O 113.223 -1.22644 1.7829 0
M  V30 1253 C 113.818 1.96978 2.75654 0
M  V30 1254 C 112.377 1.84881 3.27866 0
M  V30 1255 C 111.524 1.91329 2.0072 0
M  V30 1256 H 114.475 1.38478 0.77522 0
M  V30 1257 H 114.496 1.5078 3.4935 0
M  V30 1258 H 114.008 3.00712 2.45345 0
M  V30 1259 H 112.109 0.840182 3.63004 0
M  V30 1260 H 112.222 2.6951 3.96107 0
M  V30 1261 H 110.586 1.35174 2.15871 0
M  V30 1262 H 111.369 2.96661 1.72764 0
M  V30 1263 N 113.814 -1.1601 1.06675 0
M  V30 1264 C 115.06 -1.86909 0.786945 0
M  V30 1265 C 115.393 -1.81717 -0.685018 0
M  V30 1266 O 114.668 -1.23551 -1.50218 0
M  V30 1267 C 114.951 -3.36313 1.28707 0
M  V30 1268 C 114.804 -3.50175 2.82308 0
M  V30 1269 C 116.123 -4.3084 0.898071 0
M  V30 1270 H 113.242 -0.678677 0.287343 0
M  V30 1271 H 115.884 -1.36336 1.32334 0
M  V30 1272 H 114.034 -3.79513 0.830768 0
M  V30 1273 H 115.706 -3.15886 3.36175 0
M  V30 1274 H 113.949 -2.91959 3.20847 0
M  V30 1275 H 114.62 -4.55116 3.12368 0
M  V30 1276 H 117.096 -3.95561 1.29114 0
M  V30 1277 H 115.972 -5.33876 1.27543 0
M  V30 1278 H 116.233 -4.41662 -0.196651 0
M  V30 1279 N 115.292 -0.849877 -1.32721 0
M  V30 1280 C 116.538 -0.451591 -1.97708 0
M  V30 1281 C 116.871 0.989175 -1.6712 0
M  V30 1282 O 116.146 1.69334 -0.956891 0
M  V30 1283 C 116.429 -0.685598 -3.53513 0
M  V30 1284 C 116.282 -2.17444 -3.93749 0
M  V30 1285 C 117.601 -0.138874 -4.39881 0
M  V30 1286 H 114.72 -0.16555 -0.718166 0
M  V30 1287 H 117.362 -1.06742 -1.57182 0
M  V30 1288 H 115.512 -0.161416 -3.88165 0
M  V30 1289 H 117.184 -2.76433 -3.693 0
M  V30 1290 H 115.427 -2.65476 -3.43081 0
M  V30 1291 H 116.098 -2.28888 -5.02309 0
M  V30 1292 H 118.574 -0.587068 -4.11938 0
M  V30 1293 H 117.45 -0.332213 -5.47894 0
M  V30 1294 H 117.711 0.95806 -4.31594 0
M  V30 1295 N 116.77 1.45427 -0.607355 0
M  V30 1296 C 118.016 2.0254 -0.102607 0
M  V30 1297 C 118.349 1.47478 1.26348 0
M  V30 1298 O 117.624 0.64939 1.83339 0
M  V30 1299 C 117.907 3.60044 -0.0634347 0
M  V30 1300 C 117.76 4.2544 -1.46017 0
M  V30 1301 C 119.079 4.35646 0.624514 0
M  V30 1302 H 116.198 0.73598 -0.0387607 0
M  V30 1303 H 118.84 1.73284 -0.779282 0
M  V30 1304 H 116.99 3.85101 0.512808 0
M  V30 1305 H 118.662 4.11569 -2.08347 0
M  V30 1306 H 116.905 3.83849 -2.02094 0
M  V30 1307 H 117.576 5.34342 -1.385 0
M  V30 1308 H 120.052 4.15882 0.134723 0
M  V30 1309 H 118.928 5.45376 0.621028 0
M  V30 1310 H 119.189 4.08501 1.69055 0
M  V30 1311 N 118.248 0.346503 1.53744 0
M  V30 1312 C 119.178 -0.501193 2.28058 0
M  V30 1313 C 120.159 -1.10014 1.29734 0
M  V30 1314 O 121.344 -1.12097 1.58581 0
M  V30 1315 C 118.474 -1.65078 3.05559 0
M  V30 1316 C 117.428 -1.18003 4.11411 0
M  V30 1317 C 116.754 -2.41837 4.76884 0
M  V30 1318 C 118.054 -0.278394 5.21558 0
M  V30 1319 H 119.748 0.11875 2.99164 0
M  V30 1320 H 117.294 0.0585531 1.43881 0
M  V30 1321 H 119.247 -2.25028 3.56287 0
M  V30 1322 H 117.971 -2.29767 2.32109 0
M  V30 1323 H 116.63 -0.603331 3.61601 0
M  V30 1324 H 116.278 -3.0494 4.00026 0
M  V30 1325 H 115.978 -2.1102 5.48402 0
M  V30 1326 H 117.502 -3.02508 5.30397 0
M  V30 1327 H 118.916 -0.784823 5.67903 0
M  V30 1328 H 117.313 -0.0619707 6.00068 0
M  V30 1329 H 118.383 0.684677 4.80042 0
M  V30 1330 N 119.726 -1.57421 0.075193 0
M  V30 1331 C 120.674 -2.14124 -0.908508 0
M  V30 1332 C 121.668 -1.07898 -1.30592 0
M  V30 1333 O 122.874 -1.26273 -1.28277 0
M  V30 1334 H 119.249 -0.684707 -0.310935 0
M  V30 1335 H 121.22 -2.95634 -0.405374 0
M  V30 1336 C 119.969 -2.72044 -2.16535 0
M  V30 1337 H 119.292 -3.53456 -1.86839 0
M  V30 1338 H 120.732 -3.15311 -2.83469 0
M  V30 1339 C 119.191 -1.66968 -2.92615 0
M  V30 1340 O 119.721 -1.0967 -3.86439 0
M  V30 1341 N 117.927 -1.37923 -2.55784 0
M  V30 1342 H 117.474 -1.84706 -1.79559 0
M  V30 1343 H 117.432 -0.67852 -3.06991 0
M  V30 1344 N 121.204 0.198386 -1.56346 0
M  V30 1345 C 122.452 0.91747 -1.80075 0
M  V30 1346 C 122.773 1.83929 -0.647692 0
M  V30 1347 O 122.043 1.93029 0.334166 0
M  V30 1348 H 120.623 0.341774 -0.664228 0
M  V30 1349 H 123.285 0.204684 -1.93822 0
M  V30 1350 H 122.381 1.51055 -2.7311 0
M  V30 1351 N 122.682 1.50554 0.465978 0
M  V30 1352 C 123.612 1.72722 1.57128 0
M  V30 1353 C 124.593 0.576294 1.6004 0
M  V30 1354 O 125.778 0.81598 1.76225 0
M  V30 1355 C 122.908 1.82605 2.95419 0
M  V30 1356 C 121.862 2.97835 3.07373 0
M  V30 1357 C 121.188 2.92867 4.47363 0
M  V30 1358 C 122.488 4.38265 2.84114 0
M  V30 1359 H 124.182 2.65267 1.38829 0
M  V30 1360 H 121.728 1.2765 0.666441 0
M  V30 1361 H 123.681 1.96698 3.72677 0
M  V30 1362 H 122.405 0.866858 3.14886 0
M  V30 1363 H 121.064 2.83401 2.3255 0
M  V30 1364 H 120.712 1.94783 4.63755 0
M  V30 1365 H 120.412 3.70227 4.56296 0
M  V30 1366 H 121.936 3.09015 5.26633 0
M  V30 1367 H 123.35 4.53198 3.51118 0
M  V30 1368 H 121.747 5.17115 3.04487 0
M  V30 1369 H 122.817 4.50281 1.7993 0
M  V30 1370 N 124.16 -0.719506 1.40217 0
M  V30 1371 C 125.123 -1.8153 1.39927 0
M  V30 1372 C 126.123 -1.58095 0.293723 0
M  V30 1373 O 127.313 -1.65209 0.552429 0
M  V30 1374 C 124.445 -3.19561 1.18716 0
M  V30 1375 H 125.638 -1.83186 2.37451 0
M  V30 1376 H 123.191 -0.924746 1.26008 0
M  V30 1377 H 123.926 -3.23557 0.219366 0
M  V30 1378 H 123.711 -3.3797 1.98793 0
M  V30 1379 H 125.201 -3.99598 1.21291 0
M  V30 1380 N 125.638 -1.25649 -0.95132 0
M  V30 1381 C 126.601 -1.06399 -2.03007 0
M  V30 1382 C 127.601 -0.0156794 -1.60792 0
M  V30 1383 O 128.791 -0.25817 -1.72276 0
M  V30 1384 C 125.923 -0.616184 -3.35285 0
M  V30 1385 H 127.116 -2.02164 -2.21517 0
M  V30 1386 H 124.669 -1.08103 -1.12887 0
M  V30 1387 H 125.404 0.343917 -3.22471 0
M  V30 1388 H 125.189 -1.37301 -3.67275 0
M  V30 1389 H 126.679 -0.503032 -4.14559 0
M  V30 1390 N 127.117 1.15442 -1.07289 0
M  V30 1391 C 128.363 1.86489 -0.796846 0
M  V30 1392 C 128.696 1.82078 0.675371 0
M  V30 1393 O 127.971 1.24346 1.4956 0
M  V30 1394 C 128.254 3.35626 -1.30489 0
M  V30 1395 C 128.107 3.48673 -2.84161 0
M  V30 1396 C 129.426 4.30357 -0.920907 0
M  V30 1397 H 126.545 0.677144 -0.290939 0
M  V30 1398 H 129.187 1.35633 -1.33056 0
M  V30 1399 H 127.337 3.79068 -0.850883 0
M  V30 1400 H 129.009 3.14099 -3.37846 0
M  V30 1401 H 127.252 2.90253 -3.22391 0
M  V30 1402 H 127.923 4.53453 -3.14777 0
M  V30 1403 H 130.399 3.94871 -1.3121 0
M  V30 1404 H 129.275 5.33193 -1.30372 0
M  V30 1405 H 129.536 4.4176 0.173226 0
M  V30 1406 N 128.595 0.856903 1.32268 0
M  V30 1407 C 130.011 0.547061 1.49931 0
M  V30 1408 C 130.211 -0.921781 1.7918 0
M  V30 1409 O 129.267 -1.70469 1.8627 0
M  V30 1410 C 130.58 1.43599 2.64196 0
M  V30 1411 C 132.128 1.43665 2.78081 0
M  V30 1412 C 132.603 2.31085 3.95428 0
M  V30 1413 N 134.094 2.28893 4.02694 0
M  V30 1414 C 134.829 2.93262 4.92732 0
M  V30 1415 N 134.325 3.66751 5.87763 0
M  V30 1416 N 136.118 2.82638 4.85873 0
M  V30 1417 H 128.269 1.8075 1.11549 0
M  V30 1418 H 130.532 0.772144 0.549997 0
M  V30 1419 H 130.238 2.48058 2.49319 0
M  V30 1420 H 130.112 1.12502 3.60032 0
M  V30 1421 H 132.499 0.399701 2.92381 0
M  V30 1422 H 132.58 1.7878 1.82952 0
M  V30 1423 H 132.224 3.34849 3.81888 0
M  V30 1424 H 132.154 1.93302 4.89839 0
M  V30 1425 H 134.645 1.75466 3.34694 0
M  V30 1426 H 134.958 4.13027 6.53168 0
M  V30 1427 H 133.303 3.70859 5.87783 0
M  V30 1428 H 136.494 2.24774 4.10602 0
M  V30 1429 H 136.667 3.33084 5.55841 0
M  V30 1430 N 130.073 -1.45103 0.615059 0
M  V30 1431 C 130.983 -2.34382 -0.101034 0
M  V30 1432 C 131.999 -1.51681 -0.852585 0
M  V30 1433 O 133.175 -1.8446 -0.808484 0
M  V30 1434 C 130.24 -3.29417 -1.08099 0
M  V30 1435 C 129.301 -4.28025 -0.330577 0
M  V30 1436 C 128.534 -5.1852 -1.26385 0
M  V30 1437 O 128.757 -5.12598 -2.50198 0
M  V30 1438 O 127.691 -5.97122 -0.756866 0
M  V30 1439 H 131.517 -2.97033 0.632855 0
M  V30 1440 H 129.102 -1.4461 0.375293 0
M  V30 1441 H 130.984 -3.87958 -1.6452 0
M  V30 1442 H 129.659 -2.69321 -1.79577 0
M  V30 1443 H 128.566 -3.73078 0.276283 0
M  V30 1444 H 129.899 -4.90997 0.343866 0
M  V30 1445 N 131.551 -0.354651 -1.53558 0
M  V30 1446 C 132.514 0.484566 -2.24019 0
M  V30 1447 C 133.514 1.01861 -1.24422 0
M  V30 1448 O 134.704 0.906097 -1.4878 0
M  V30 1449 C 131.836 1.67615 -2.96847 0
M  V30 1450 H 133.029 -0.131843 -2.9961 0
M  V30 1451 H 130.582 -0.106165 -1.55939 0
M  V30 1452 H 131.317 2.33095 -2.25471 0
M  V30 1453 H 131.102 1.30029 -3.69912 0
M  V30 1454 H 132.592 2.27114 -3.50441 0
M  V30 1455 N 133.029 1.57378 -0.0835403 0
M  V30 1456 C 133.959 2.1641 0.87686 0
M  V30 1457 C 134.94 1.09429 1.30228 0
M  V30 1458 O 136.125 1.37516 1.37124 0
M  V30 1459 C 133.255 2.73517 2.14022 0
M  V30 1460 C 132.209 3.85769 1.85381 0
M  V30 1461 C 131.535 4.29529 3.18448 0
M  V30 1462 C 132.835 5.09486 1.14984 0
M  V30 1463 H 134.529 2.96914 0.385059 0
M  V30 1464 H 132.075 1.42823 0.18377 0
M  V30 1465 H 134.028 3.13463 2.81636 0
M  V30 1466 H 132.752 1.90252 2.65465 0
M  V30 1467 H 131.411 3.46345 1.20169 0
M  V30 1468 H 131.059 3.43169 3.67755 0
M  V30 1469 H 130.759 5.05204 3.00071 0
M  V30 1470 H 132.283 4.72099 3.8724 0
M  V30 1471 H 133.697 5.46674 1.72687 0
M  V30 1472 H 132.094 5.90515 1.06826 0
M  V30 1473 H 133.164 4.84724 0.130749 0
M  V30 1474 N 134.507 -0.190092 1.56449 0
M  V30 1475 C 135.753 -0.911052 1.81184 0
M  V30 1476 C 136.086 -1.82699 0.658396 0
M  V30 1477 O 135.361 -1.91491 -0.340775 0
M  V30 1478 C 135.644 -1.72297 3.16205 0
M  V30 1479 C 135.497 -0.831419 4.42049 0
M  V30 1480 C 136.816 -2.69454 3.47969 0
M  V30 1481 H 133.935 -0.32977 0.659106 0
M  V30 1482 H 136.577 -0.178169 1.89163 0
M  V30 1483 H 134.727 -2.34778 3.09534 0
M  V30 1484 H 136.399 -0.220929 4.60771 0
M  V30 1485 H 134.642 -0.138406 4.33579 0
M  V30 1486 H 135.313 -1.43461 5.33032 0
M  V30 1487 H 137.789 -2.17104 3.54972 0
M  V30 1488 H 136.665 -3.23342 4.43555 0
M  V30 1489 H 136.926 -3.48744 2.71717 0
M  V30 1490 N 135.985 -1.50799 -0.457987 0
M  V30 1491 C 137.213 -1.66218 -1.23203 0
M  V30 1492 C 137.628 -0.350894 -1.85511 0
M  V30 1493 O 136.985 0.668546 -1.69814 0
M  V30 1494 C 137.036 -2.76291 -2.33121 0
M  V30 1495 O 136.757 -4.02338 -1.73366 0
M  V30 1496 C 138.258 -3.028 -3.2377 0
M  V30 1497 H 135.478 -0.558361 -0.372121 0
M  V30 1498 H 138.022 -1.97099 -0.545179 0
M  V30 1499 H 136.177 -2.48068 -2.97558 0
M  V30 1500 H 136.591 -4.63312 -2.4585 0
M  V30 1501 H 138.065 -3.8345 -3.97077 0
M  V30 1502 H 138.542 -2.14385 -3.83322 0
M  V30 1503 H 139.148 -3.32604 -2.65056 0
M  V30 1504 N 137.463 0.71206 -1.40597 0
M  V30 1505 C 138.413 1.81783 -1.37619 0
M  V30 1506 C 139.397 1.58896 -0.253162 0
M  V30 1507 O 140.589 1.70009 -0.492547 0
M  V30 1508 C 137.718 3.19944 -1.24462 0
M  V30 1509 C 136.804 3.48582 -2.4156 0
M  V30 1510 N 137.195 3.48016 -3.67041 0
M  V30 1511 C 135.493 3.79056 -2.35016 0
M  V30 1512 C 136.194 3.75096 -4.44609 0
M  V30 1513 N 135.17 3.94022 -3.74497 0
M  V30 1514 H 138.972 1.79683 -2.32575 0
M  V30 1515 H 136.486 0.91134 -1.34419 0
M  V30 1516 H 138.483 3.99133 -1.20411 0
M  V30 1517 H 137.143 3.23267 -0.304762 0
M  V30 1518 H 138.154 3.28782 -4.00153 0
M  V30 1519 H 134.831 3.89848 -1.49415 0
M  V30 1520 H 136.221 3.80934 -5.53479 0
M  V30 1521 N 138.941 1.26152 0.944643 0
M  V30 1522 C 140.189 1.11271 1.6871 0
M  V30 1523 C 140.51 -0.345166 1.91921 0
M  V30 1524 O 139.78 -1.24387 1.51343 0
M  V30 1525 H 138.36 0.408783 0.625224 0
M  V30 1526 H 141.022 1.58427 1.1352 0
M  V30 1527 H 140.118 1.62879 2.66227 0
M  V30 1528 N 140.419 -1.14872 1.07899 0
M  V30 1529 C 141.329 -2.2341 0.715915 0
M  V30 1530 C 142.345 -1.71808 -0.275306 0
M  V30 1531 O 143.521 -2.01039 -0.120545 0
M  V30 1532 C 140.586 -3.46474 0.125168 0
M  V30 1533 C 139.647 -4.13039 1.17034 0
M  V30 1534 C 138.88 -5.30229 0.607688 0
M  V30 1535 O 139.103 -5.675 -0.574497 0
M  V30 1536 O 138.037 -5.86444 1.35526 0
M  V30 1537 H 141.863 -2.56808 1.62121 0
M  V30 1538 H 139.448 -1.22702 0.852322 0
M  V30 1539 H 141.33 -4.20917 -0.201729 0
M  V30 1540 H 140.005 -3.14811 -0.753364 0
M  V30 1541 H 138.912 -3.40493 1.54968 0
M  V30 1542 H 140.245 -4.48796 2.02097 0
M  V30 1543 N 141.898 -0.863906 -1.31812 0
M  V30 1544 C 143.175 -0.39275 -1.91616 0
M  V30 1545 C 143.555 1.12461 -1.7865 0
M  V30 1546 O 142.903 1.95045 -1.19037 0
M  V30 1547 C 143.113 -0.867385 -3.38049 0
M  V30 1548 C 144.461 -0.889966 -4.15168 0
M  V30 1549 O 145.485 -0.812635 -3.46806 0
M  V30 1550 O 144.344 -1.00079 -5.37258 0
M  V30 1551 H 141.438 -0.116358 -0.818773 0
M  V30 1552 H 143.984 -0.951418 -1.40521 0
M  V30 1553 H 142.756 -1.91081 -3.41473 0
M  V30 1554 H 142.379 -0.286687 -3.96565 0
M  V30 1555 N 143.376 1.44774 -0.622745 0
M  V30 1556 C 144.604 2.06487 -0.130722 0
M  V30 1557 C 145.019 1.46476 1.19123 0
M  V30 1558 O 144.376 0.584502 1.72887 0
M  V30 1559 C 144.427 3.615 -0.000807207 0
M  V30 1560 O 144.148 4.19274 -1.27048 0
M  V30 1561 C 145.649 4.40229 0.520898 0
M  V30 1562 H 142.869 0.666704 -0.0758106 0
M  V30 1563 H 145.413 1.85779 -0.854774 0
M  V30 1564 H 143.568 3.81498 0.673643 0
M  V30 1565 H 143.982 5.12622 -1.1099 0
M  V30 1566 H 145.456 5.49144 0.560838 0
M  V30 1567 H 145.933 4.1108 1.54627 0
M  V30 1568 H 146.539 4.25131 -0.120018 0
M  V30 1569 N 144.854 0.36279 1.53368 0
M  V30 1570 C 145.817 -0.472679 2.24273 0
M  V30 1571 C 146.817 -1.012 1.24961 0
M  V30 1572 O 148.007 -0.898194 1.49259 0
M  V30 1573 C 145.139 -1.66039 2.97731 0
M  V30 1574 H 146.332 0.14773 2.99536 0
M  V30 1575 H 143.885 0.114434 1.55881 0
M  V30 1576 H 144.62 -2.31896 2.26704 0
M  V30 1577 H 144.405 -1.28066 3.70596 0
M  V30 1578 H 145.895 -2.25252 3.51641 0
M  V30 1579 N 146.332 -1.57332 0.0918853 0
M  V30 1580 C 147.609 -1.85691 -0.614668 0
M  V30 1581 C 147.989 -0.988146 -1.86545 0
M  V30 1582 O 147.337 -0.0597055 -2.28422 0
M  V30 1583 C 147.547 -3.36294 -0.933126 0
M  V30 1584 C 148.895 -4.04275 -1.29796 0
M  V30 1585 O 149.919 -3.41157 -1.02424 0
M  V30 1586 O 148.778 -5.1564 -1.81047 0
M  V30 1587 H 145.872 -0.767802 -0.307261 0
M  V30 1588 H 148.418 -1.69244 0.12434 0
M  V30 1589 H 147.19 -3.91273 -0.0456404 0
M  V30 1590 H 146.813 -3.58076 -1.72822 0
M  V30 1591 N 147.81 0.181792 -1.56548 0
M  V30 1592 C 149.226 0.53316 -1.50431 0
M  V30 1593 C 149.426 1.85184 -0.794297 0
M  V30 1594 O 148.482 2.50058 -0.350318 0
M  V30 1595 C 149.795 0.575597 -2.9514 0
M  V30 1596 C 151.343 0.663519 -3.05886 0
M  V30 1597 C 151.818 0.736946 -4.52032 0
M  V30 1598 N 153.309 0.800118 -4.56237 0
M  V30 1599 C 154.044 0.877327 -5.66649 0
M  V30 1600 N 153.54 0.916016 -6.86718 0
M  V30 1601 N 155.333 0.915542 -5.54594 0
M  V30 1602 H 147.484 -0.683025 -2.01118 0
M  V30 1603 H 149.747 -0.244988 -0.915797 0
M  V30 1604 H 149.453 -0.324482 -3.502 0
M  V30 1605 H 149.327 1.42572 -3.49218 0
M  V30 1606 H 151.714 1.55403 -2.50867 0
M  V30 1607 H 151.795 -0.21307 -2.54911 0
M  V30 1608 H 151.439 -0.149262 -5.07681 0
M  V30 1609 H 151.369 1.62953 -5.00753 0
M  V30 1610 H 153.86 0.778926 -3.69785 0
M  V30 1611 H 154.173 0.975813 -7.66614 0
M  V30 1612 H 152.518 0.884469 -6.89349 0
M  V30 1613 H 155.709 0.882245 -4.59711 0
M  V30 1614 H 155.882 0.972253 -6.40665 0
M  V30 1615 N 149.288 1.51039 0.449983 0
M  V30 1616 C 150.699 1.557 1.03026 0
M  V30 1617 C 151.05 0.372939 1.92623 0
M  V30 1618 O 150.175 -0.511771 2.10261 0
M  V30 1619 C 150.77 2.82171 1.87523 0
M  V30 1620 C 149.329 2.89444 2.40622 0
M  V30 1621 C 148.476 2.50228 1.19504 0
M  V30 1622 H 151.427 1.56999 0.231745 0
M  V30 1623 H 151.448 2.65219 2.72835 0
M  V30 1624 H 150.96 3.68331 1.22286 0
M  V30 1625 H 149.061 2.07685 3.0935 0
M  V30 1626 H 149.174 3.92816 2.74285 0
M  V30 1627 H 147.538 2.03139 1.53644 0
M  V30 1628 H 148.321 3.38719 0.558972 0
M  V30 1629 N 150.766 -0.704594 1.40972 0
M  V30 1630 C 152.177 -1.28418 1.3552 0
M  V30 1631 C 152.528 -1.96171 0.0339434 0
M  V30 1632 O 151.653 -1.98231 -0.867944 0
M  V30 1633 C 152.248 -2.33528 2.45459 0
M  V30 1634 C 150.807 -2.87085 2.43433 0
M  V30 1635 C 149.954 -1.61007 2.2577 0
M  V30 1636 H 152.905 -0.499963 1.50619 0
M  V30 1637 H 152.926 -3.14619 2.13998 0
M  V30 1638 H 152.438 -1.84187 3.41609 0
M  V30 1639 H 150.539 -3.40626 1.51013 0
M  V30 1640 H 150.652 -3.3813 3.39419 0
M  V30 1641 H 149.016 -1.86482 1.73483 0
M  V30 1642 H 149.799 -1.13675 3.23933 0
M  V30 1643 N 152.244 -1.26651 -0.937939 0
M  V30 1644 C 153.49 -1.12553 -1.687 0
M  V30 1645 C 153.823 0.329782 -1.91379 0
M  V30 1646 O 153.098 1.24202 -1.4968 0
M  V30 1647 C 153.381 -1.89862 -3.05981 0
M  V30 1648 C 153.234 -3.43318 -2.90607 0
M  V30 1649 C 154.553 -1.69499 -4.0615 0
M  V30 1650 H 151.672 -0.410257 -0.612257 0
M  V30 1651 H 154.314 -1.55685 -1.08913 0
M  V30 1652 H 152.464 -1.53204 -3.57017 0
M  V30 1653 H 154.136 -3.89747 -2.46769 0
M  V30 1654 H 152.379 -3.70179 -2.26164 0
M  V30 1655 H 153.05 -3.92642 -3.8799 0
M  V30 1656 H 155.526 -2.01442 -3.64088 0
M  V30 1657 H 154.402 -2.26002 -5.00214 0
M  V30 1658 H 154.663 -0.640365 -4.37438 0
M  V30 1659 N 153.722 1.14298 -1.08507 0
M  V30 1660 C 155.133 1.66926 -0.836227 0
M  V30 1661 C 155.484 1.85576 0.63686 0
M  V30 1662 O 154.609 1.56767 1.49175 0
M  V30 1663 C 155.204 3.03219 -1.51142 0
M  V30 1664 C 153.763 3.52876 -1.30979 0
M  V30 1665 C 152.91 2.2833 -1.57356 0
M  V30 1666 H 155.861 0.983491 -1.24552 0
M  V30 1667 H 155.882 3.68726 -0.939211 0
M  V30 1668 H 155.394 2.89612 -2.58353 0
M  V30 1669 H 153.495 3.71703 -0.258429 0
M  V30 1670 H 153.608 4.33586 -2.03814 0
M  V30 1671 H 151.972 2.34454 -0.995164 0
M  V30 1672 H 152.755 2.17298 -2.65775 0
M  V30 1673 N 155.201 0.870884 1.31352 0
M  V30 1674 C 156.45 0.478408 1.95944 0
M  V30 1675 C 156.763 -0.974493 1.69597 0
M  V30 1676 O 157.969 -1.47316 2.28058 0
M  V30 1677 C 156.425 0.804609 3.50791 0
M  V30 1678 C 156.033 2.27433 3.85977 0
M  V30 1679 C 157.777 0.480648 4.2177 0
M  V30 1680 C 155.684 2.5429 5.33939 0
M  V30 1681 H 154.614 0.175175 0.733369 0
M  V30 1682 H 157.265 1.06391 1.4951 0
M  V30 1683 H 155.647 0.148347 3.95722 0
M  V30 1684 H 156.821 2.97373 3.52002 0
M  V30 1685 H 155.136 2.56442 3.28065 0
M  V30 1686 H 157.733 0.658519 5.30629 0
M  V30 1687 H 158.076 -0.578979 4.12254 0
M  V30 1688 H 158.609 1.09349 3.82476 0
M  V30 1689 H 155.348 3.58939 5.48491 0
M  V30 1690 H 154.868 1.88945 5.69263 0
M  V30 1691 H 156.547 2.39066 6.01212 0
M  V30 1692 N 156.679 -1.44442 0.630414 0
M  V30 1693 C 157.907 -2.06414 0.141671 0
M  V30 1694 C 158.322 -1.47105 -1.18345 0
M  V30 1695 O 157.679 -0.593662 -1.72574 0
M  V30 1696 C 157.73 -3.61494 0.0199784 0
M  V30 1697 O 157.451 -4.18594 1.29269 0
M  V30 1698 C 158.952 -4.40499 -0.497544 0
M  V30 1699 H 156.172 -0.666292 0.0793452 0
M  V30 1700 H 158.716 -1.85323 0.864614 0
M  V30 1701 H 156.871 -3.8185 -0.653402 0
M  V30 1702 H 157.285 -5.12026 1.13707 0
M  V30 1703 H 158.759 -5.49433 -0.531708 0
M  V30 1704 H 159.236 -4.11895 -1.52445 0
M  V30 1705 H 159.842 -4.25061 0.142562 0
M  V30 1706 N 158.157 -0.370918 -1.53173 0
M  V30 1707 C 159.089 0.507823 -2.23503 0
M  V30 1708 C 160.102 1.04182 -1.251 0
M  V30 1709 O 161.291 0.947286 -1.5129 0
M  V30 1710 C 158.391 1.71447 -2.92334 0
M  V30 1711 C 157.564 1.31105 -4.17289 0
M  V30 1712 C 156.623 2.38035 -4.69282 0
M  V30 1713 O 155.649 2.00204 -5.32829 0
M  V30 1714 N 156.851 3.69697 -4.47554 0
M  V30 1715 H 159.616 -0.0946382 -2.99551 0
M  V30 1716 H 157.177 -0.196358 -1.60705 0
M  V30 1717 H 159.169 2.42469 -3.24023 0
M  V30 1718 H 157.739 2.22368 -2.19707 0
M  V30 1719 H 156.959 0.430462 -3.91843 0
M  V30 1720 H 158.247 1.0179 -4.98514 0
M  V30 1721 H 157.645 4.03205 -3.9679 0
M  V30 1722 H 156.202 4.36807 -4.8378 0
M  V30 1723 N 159.635 1.57281 -0.100228 0
M  V30 1724 C 160.884 1.93713 0.561984 0
M  V30 1725 C 161.197 0.984492 1.69018 0
M  V30 1726 O 162.403 1.24273 2.41389 0
M  V30 1727 C 160.859 3.4421 1.05106 0
M  V30 1728 C 160.467 4.47975 -0.0476628 0
M  V30 1729 C 162.211 3.89595 1.68571 0
M  V30 1730 C 160.118 5.89631 0.457055 0
M  V30 1731 H 159.048 0.723082 0.2137 0
M  V30 1732 H 161.699 1.82644 -0.177057 0
M  V30 1733 H 160.081 3.50449 1.84395 0
M  V30 1734 H 161.255 4.53385 -0.823333 0
M  V30 1735 H 159.57 4.1223 -0.587816 0
M  V30 1736 H 162.167 4.92832 2.07414 0
M  V30 1737 H 162.51 3.28526 2.55688 0
M  V30 1738 H 163.043 3.86078 0.958562 0
M  V30 1739 H 159.782 6.54411 -0.377616 0
M  V30 1740 H 159.302 5.87681 1.19962 0
M  V30 1741 H 160.981 6.40363 0.92437 0
M  V30 1742 N 161.113 -0.173488 1.56642 0
M  V30 1743 C 162.043 -1.2171 1.99271 0
M  V30 1744 C 163.024 -1.46289 0.867959 0
M  V30 1745 O 164.209 -1.5766 1.13388 0
M  V30 1746 C 161.339 -2.55651 2.35074 0
M  V30 1747 C 160.293 -2.45645 3.50489 0
M  V30 1748 C 159.619 -3.84056 3.72028 0
M  V30 1749 C 160.919 -1.96302 4.84007 0
M  V30 1750 H 162.613 -0.86275 2.867 0
M  V30 1751 H 160.159 -0.413571 1.37933 0
M  V30 1752 H 162.112 -3.2886 2.63494 0
M  V30 1753 H 160.836 -2.92869 1.44552 0
M  V30 1754 H 159.495 -1.7489 3.22194 0
M  V30 1755 H 159.143 -4.18664 2.788 0
M  V30 1756 H 158.843 -3.7823 4.49684 0
M  V30 1757 H 160.367 -4.58854 4.02846 0
M  V30 1758 H 161.781 -2.59284 5.11317 0
M  V30 1759 H 160.178 -2.01429 5.65284 0
M  V30 1760 H 161.248 -0.917226 4.76146 0
M  V30 1761 N 162.591 -1.51276 -0.441967 0
M  V30 1762 C 163.839 -1.63392 -1.18943 0
M  V30 1763 C 164.16 -0.350159 -1.9183 0
M  V30 1764 O 163.43 0.633784 -1.85364 0
M  V30 1765 H 162.01 -0.602164 -0.442049 0
M  V30 1766 H 164.672 -1.88186 -0.507165 0
M  V30 1767 H 163.768 -2.45934 -1.92154 0
M  V30 1768 N 164.069 0.697108 -1.41344 0
M  V30 1769 C 165.316 1.45714 -1.40619 0
M  V30 1770 C 165.644 1.94494 -0.0147907 0
M  V30 1771 O 164.899 1.69794 0.973066 0
M  V30 1772 C 165.198 2.68553 -2.35826 0
M  V30 1773 C 164.864 2.38438 -3.82698 0
M  V30 1774 C 163.526 2.29936 -4.22709 0
M  V30 1775 C 165.878 2.13567 -4.75435 0
M  V30 1776 C 163.206 1.94656 -5.53467 0
M  V30 1777 C 165.558 1.79797 -6.06511 0
M  V30 1778 C 164.222 1.69789 -6.45545 0
M  V30 1779 H 163.492 0.533206 -0.51456 0
M  V30 1780 H 166.139 0.796901 -1.74131 0
M  V30 1781 H 164.444 3.39503 -1.95563 0
M  V30 1782 H 166.141 3.2669 -2.32539 0
M  V30 1783 H 162.731 2.4595 -3.51008 0
M  V30 1784 H 166.915 2.19082 -4.45328 0
M  V30 1785 H 162.171 1.8546 -5.82593 0
M  V30 1786 H 166.345 1.59572 -6.77872 0
M  V30 1787 H 163.972 1.4222 -7.46778 0
M  V30 1788 N 165.547 1.27147 0.931209 0
M  V30 1789 C 166.795 1.13055 1.6752 0
M  V30 1790 C 167.116 -0.324791 1.92276 0
M  V30 1791 O 166.386 -1.22775 1.52654 0
M  V30 1792 H 164.966 0.415391 0.620854 0
M  V30 1793 H 167.628 1.59623 1.11833 0
M  V30 1794 H 166.724 1.65694 2.64485 0
M  V30 1795 N 167.025 -1.13721 1.09112 0
M  V30 1796 C 168.436 -1.6648 0.845068 0
M  V30 1797 C 168.787 -1.85911 -0.62701 0
M  V30 1798 O 167.912 -1.57556 -1.48341 0
M  V30 1799 C 168.507 -3.02413 1.52748 0
M  V30 1800 C 167.066 -3.52176 1.32849 0
M  V30 1801 C 166.213 -2.27492 1.58564 0
M  V30 1802 H 169.164 -0.976872 1.25072 0
M  V30 1803 H 169.185 -3.68223 0.958752 0
M  V30 1804 H 168.697 -2.88238 2.59885 0
M  V30 1805 H 166.798 -3.7156 0.278137 0
M  V30 1806 H 166.911 -4.32499 2.0611 0
M  V30 1807 H 165.275 -2.33923 1.00758 0
M  V30 1808 H 166.058 -2.15886 2.66924 0
M  V30 1809 N 168.503 -0.877838 -1.30888 0
M  V30 1810 C 169.919 -0.570844 -1.49042 0
M  V30 1811 C 170.119 0.893159 -1.80624 0
M  V30 1812 O 169.175 1.67485 -1.88958 0
M  V30 1813 C 170.488 -1.47784 -2.61878 0
M  V30 1814 C 172.036 -1.48071 -2.75761 0
M  V30 1815 C 172.511 -2.37347 -3.91702 0
M  V30 1816 N 174.002 -2.35271 -3.99001 0
M  V30 1817 C 174.737 -3.01063 -4.88004 0
M  V30 1818 N 174.233 -3.76055 -5.81854 0
M  V30 1819 N 176.026 -2.90332 -4.81315 0
M  V30 1820 H 168.177 -1.82502 -1.0866 0
M  V30 1821 H 170.44 -0.780797 -0.537644 0
M  V30 1822 H 170.146 -2.51993 -2.45341 0
M  V30 1823 H 170.02 -1.18215 -3.58197 0
M  V30 1824 H 172.407 -0.446166 -2.91708 0
M  V30 1825 H 172.488 -1.81668 -1.80085 0
M  V30 1826 H 172.132 -3.40883 -3.76512 0
M  V30 1827 H 172.062 -2.01071 -4.86701 0
M  V30 1828 H 174.553 -1.80768 -3.3186 0
M  V30 1829 H 174.866 -4.23366 -6.46514 0
M  V30 1830 H 173.211 -3.80163 -5.81808 0
M  V30 1831 H 176.402 -2.31278 -4.06974 0
M  V30 1832 H 176.575 -3.41885 -5.50471 0
M  V30 1833 N 169.982 1.44106 -0.638065 0
M  V30 1834 C 171.207 2.0685 -0.150916 0
M  V30 1835 C 171.632 1.47417 1.16833 0
M  V30 1836 O 170.99 0.578264 1.71831 0
M  V30 1837 C 171.038 3.60555 -0.05708 0
M  V30 1838 O 170.142 4.00465 0.984972 0
M  V30 1839 H 169.483 0.658151 -0.0879399 0
M  V30 1840 H 172.013 1.84865 -0.876707 0
M  V30 1841 H 172.023 4.07789 0.131232 0
M  V30 1842 H 170.698 4.03193 -1.02021 0
M  V30 1843 H 169.275 3.64849 0.770672 0
M  V30 1844 N 171.46 0.379036 1.52974 0
M  V30 1845 C 172.392 -0.495963 2.2377 0
M  V30 1846 C 173.405 -1.03517 1.25651 0
M  V30 1847 O 174.594 -0.939249 1.51791 0
M  V30 1848 C 171.694 -1.69894 2.93239 0
M  V30 1849 C 170.867 -1.2889 4.17979 0
M  V30 1850 C 169.926 -2.35543 4.70538 0
M  V30 1851 O 168.952 -1.97375 5.33883 0
M  V30 1852 N 170.154 -3.67318 4.49508 0
M  V30 1853 H 172.919 0.110523 2.99496 0
M  V30 1854 H 170.48 0.204878 1.60598 0
M  V30 1855 H 172.472 -2.40747 3.25304 0
M  V30 1856 H 171.042 -2.212 2.20883 0
M  V30 1857 H 170.262 -0.409676 3.92065 0
M  V30 1858 H 171.55 -0.991443 4.99047 0
M  V30 1859 H 170.948 -4.01095 3.98923 0
M  V30 1860 H 169.505 -4.34235 4.8609 0
M  V30 1861 N 172.938 -1.57226 0.108567 0
M  V30 1862 C 174.186 -1.94448 -0.550853 0
M  V30 1863 C 174.507 -0.992074 -1.67878 0
M  V30 1864 O 173.777 -0.0465 -1.95845 0
M  V30 1865 H 172.357 -0.717897 -0.206479 0
M  V30 1866 H 175.019 -1.94112 0.175062 0
M  V30 1867 H 174.115 -2.97218 -0.952259 0
M  V30 1868 N 174.416 0.165178 -1.56732 0
M  V30 1869 C 175.662 0.882112 -1.82611 0
M  V30 1870 C 175.995 1.81628 -0.687378 0
M  V30 1871 O 175.27 1.92009 0.310267 0
M  V30 1872 C 175.553 1.67245 -3.18906 0
M  V30 1873 C 175.406 0.760987 -4.43316 0
M  V30 1874 C 176.725 2.63884 -3.52212 0
M  V30 1875 H 173.844 0.319242 -0.664269 0
M  V30 1876 H 176.486 0.148052 -1.89422 0
M  V30 1877 H 174.636 2.29824 -3.1323 0
M  V30 1878 H 176.308 0.147596 -4.61064 0
M  V30 1879 H 174.551 0.0694102 -4.33744 0
M  V30 1880 H 175.222 1.34962 -5.35247 0
M  V30 1881 H 177.698 2.11429 -3.58381 0
M  V30 1882 H 176.574 3.16245 -4.48643 0
M  V30 1883 H 176.835 3.44377 -2.77231 0
M  V30 1884 N 175.894 1.51508 0.433938 0
M  V30 1885 C 177.141 1.64345 1.18309 0
M  V30 1886 C 177.469 0.361315 1.91115 0
M  V30 1887 O 176.724 -0.654753 1.84422 0
M  V30 1888 C 177.023 2.79928 2.22205 0
M  V30 1889 C 176.689 4.19078 1.66387 0
M  V30 1890 C 175.351 4.56932 1.50887 0
M  V30 1891 C 177.703 5.05894 1.25381 0
M  V30 1892 C 175.031 5.79305 0.928608 0
M  V30 1893 C 177.383 6.2885 0.687823 0
M  V30 1894 C 176.047 6.65473 0.519755 0
M  V30 1895 H 175.317 0.601381 0.432923 0
M  V30 1896 H 177.964 1.85549 0.473676 0
M  V30 1897 H 176.269 2.52959 2.99197 0
M  V30 1898 H 177.966 2.87059 2.79997 0
M  V30 1899 H 174.556 3.89234 1.79428 0
M  V30 1900 H 178.74 4.77253 1.36175 0
M  V30 1901 H 173.996 6.06324 0.786186 0
M  V30 1902 H 178.17 6.95461 0.361581 0
M  V30 1903 H 175.797 7.6017 0.0679979 0
M  V30 1904 N 177.372 -0.689602 1.41712 0
M  V30 1905 C 178.302 -1.81577 1.46806 0
M  V30 1906 C 179.283 -1.66945 0.326105 0
M  V30 1907 O 180.468 -1.86588 0.538377 0
M  V30 1908 C 177.598 -3.19762 1.35535 0
M  V30 1909 C 176.552 -3.49107 2.47605 0
M  V30 1910 C 175.878 -4.86711 2.21397 0
M  V30 1911 C 177.178 -3.47483 3.89939 0
M  V30 1912 H 178.872 -1.7757 2.41058 0
M  V30 1913 H 176.418 -0.852887 1.16025 0
M  V30 1914 H 178.371 -3.98263 1.3771 0
M  V30 1915 H 177.095 -3.24409 0.377708 0
M  V30 1916 H 175.754 -2.72959 2.44722 0
M  V30 1917 H 175.402 -4.8799 1.21961 0
M  V30 1918 H 175.102 -5.0731 2.96497 0
M  V30 1919 H 176.626 -5.67515 2.25297 0
M  V30 1920 H 178.04 -4.1598 3.94505 0
M  V30 1921 H 176.437 -3.79615 4.64771 0
M  V30 1922 H 177.507 -2.46341 4.17665 0
M  V30 1923 N 178.85 -1.27639 -0.924453 0
M  V30 1924 C 179.813 -1.10681 -2.00705 0
M  V30 1925 C 180.813 -0.0497823 -1.60723 0
M  V30 1926 O 182.003 -0.294654 -1.7169 0
M  V30 1927 C 179.135 -0.687164 -3.33902 0
M  V30 1928 H 180.328 -2.06817 -2.17179 0
M  V30 1929 H 177.881 -1.10473 -1.10569 0
M  V30 1930 H 178.616 0.275439 -3.23128 0
M  V30 1931 H 178.401 -1.45061 -3.6428 0
M  V30 1932 H 179.891 -0.590853 -4.13399 0
M  V30 1933 N 180.328 1.1314 -1.09713 0
M  V30 1934 C 181.744 1.36477 -0.827423 0
M  V30 1935 C 181.944 1.93654 0.556817 0
M  V30 1936 O 181 2.15791 1.31112 0
M  V30 1937 C 182.313 2.31334 -1.92106 0
M  V30 1938 C 183.861 2.44943 -1.94864 0
M  V30 1939 C 184.336 3.4311 -3.0338 0
M  V30 1940 N 185.827 3.50662 -3.02639 0
M  V30 1941 C 186.562 4.2651 -3.83246 0
M  V30 1942 N 186.058 5.05485 -4.73768 0
M  V30 1943 N 187.851 4.2184 -3.71493 0
M  V30 1944 H 180.002 0.743807 -1.9895 0
M  V30 1945 H 182.265 0.389823 -0.864143 0
M  V30 1946 H 181.971 1.96483 -2.91698 0
M  V30 1947 H 181.845 3.31381 -1.80184 0
M  V30 1948 H 184.232 2.79079 -0.959099 0
M  V30 1949 H 184.313 1.4481 -2.10864 0
M  V30 1950 H 183.957 3.09704 -4.02549 0
M  V30 1951 H 183.887 4.43055 -2.84622 0
M  V30 1952 H 186.378 2.94315 -2.37039 0
M  V30 1953 H 186.691 5.60675 -5.3185 0
M  V30 1954 H 185.036 5.04708 -4.77802 0
M  V30 1955 H 188.227 3.5922 -3.00131 0
M  V30 1956 H 188.4 4.80697 -4.3455 0
M  V30 1957 N 181.806 0.884767 1.30421 0
M  V30 1958 C 183.036 0.517293 2.00019 0
M  V30 1959 C 183.444 -0.898632 1.66497 0
M  V30 1960 O 182.787 -1.60245 0.898181 0
M  V30 1961 C 182.849 0.612025 3.54252 0
M  V30 1962 C 182.513 1.99222 4.1129 0
M  V30 1963 C 183.51 2.9616 4.273 0
M  V30 1964 C 181.195 2.29755 4.46674 0
M  V30 1965 C 183.189 4.21764 4.77906 0
M  V30 1966 C 180.876 3.55606 4.96979 0
M  V30 1967 C 181.874 4.51425 5.12547 0
M  V30 1968 O 181.562 5.75043 5.61766 0
M  V30 1969 H 181.294 0.198529 0.64619 0
M  V30 1970 H 183.848 1.1919 1.67281 0
M  V30 1971 H 182.078 -0.119561 3.86515 0
M  V30 1972 H 183.767 0.255859 4.05093 0
M  V30 1973 H 184.533 2.73882 4.00267 0
M  V30 1974 H 180.412 1.55942 4.33824 0
M  V30 1975 H 183.956 4.96561 4.89972 0
M  V30 1976 H 179.853 3.7772 5.23448 0
M  V30 1977 H 180.621 5.77422 5.80109 0
M  V30 1978 N 183.284 -1.43765 0.645699 0
M  V30 1979 C 184.532 -2.01499 0.155731 0
M  V30 1980 C 184.853 -1.51151 -1.232 0
M  V30 1981 O 184.123 -0.721044 -1.82148 0
M  V30 1982 H 182.703 -0.745003 0.0545817 0
M  V30 1983 H 185.365 -1.76075 0.835677 0
M  V30 1984 H 184.461 -3.1181 0.134577 0
M  V30 1985 N 184.763 -0.387143 -1.52771 0
M  V30 1986 C 186.174 0.0873634 -1.86495 0
M  V30 1987 C 186.525 1.46336 -1.30691 0
M  V30 1988 O 185.65 2.068 -0.637409 0
M  V30 1989 C 186.245 0.165305 -3.38396 0
M  V30 1990 C 184.804 0.584101 -3.7184 0
M  V30 1991 C 183.951 -0.255279 -2.76122 0
M  V30 1992 H 186.902 -0.605104 -1.46711 0
M  V30 1993 H 186.923 0.984848 -3.67534 0
M  V30 1994 H 186.435 -0.836301 -3.78982 0
M  V30 1995 H 184.536 1.59315 -3.36823 0
M  V30 1996 H 184.649 0.343749 -4.77865 0
M  V30 1997 H 183.013 0.279126 -2.53166 0
M  V30 1998 H 183.796 -1.25482 -3.19545 0
M  V30 1999 N 186.241 1.57166 -0.116904 0
M  V30 2000 C 187.204 2.14039 0.819742 0
M  V30 2001 C 188.204 1.07477 1.19605 0
M  V30 2002 O 189.394 1.33263 1.1219 0
M  V30 2003 C 186.526 2.67891 2.10826 0
M  V30 2004 H 187.719 2.98128 0.325511 0
M  V30 2005 H 185.272 1.55739 0.132312 0
M  V30 2006 H 186.007 1.87384 2.64685 0
M  V30 2007 H 185.792 3.45823 1.84793 0
M  V30 2008 H 187.282 3.11809 2.77785 0
M  V30 2009 N 187.719 -0.156864 1.56817 0
M  V30 2010 C 188.965 -0.867645 1.83966 0
M  V30 2011 C 189.32 -1.79233 0.699511 0
M  V30 2012 O 188.613 -1.89186 -0.303176 0
M  V30 2013 C 188.807 -1.68737 3.1506 0
M  V30 2014 C 188.636 -0.843548 4.41718 0
M  V30 2015 C 187.406 -0.512994 5.02689 0
M  V30 2016 C 189.604 -0.178416 5.1399 0
M  V30 2017 N 187.586 0.345456 6.12927 0
M  V30 2018 C 188.957 0.540586 6.17639 0
M  V30 2019 C 191.012 -0.0980696 4.97803 0
M  V30 2020 C 189.715 1.33233 7.06853 0
M  V30 2021 C 191.741 0.680387 5.87473 0
M  V30 2022 C 191.103 1.3877 6.90596 0
M  V30 2023 H 187.202 -0.295642 0.723961 0
M  V30 2024 H 189.786 -0.13365 1.94241 0
M  V30 2025 H 187.957 -2.39268 3.0595 0
M  V30 2026 H 189.689 -2.34056 3.30151 0
M  V30 2027 H 186.444 -0.846476 4.65974 0
M  V30 2028 H 186.868 0.765415 6.72659 0
M  V30 2029 H 191.51 -0.630562 4.18071 0
M  V30 2030 H 189.228 1.87612 7.8602 0
M  V30 2031 H 192.814 0.744415 5.77018 0
M  V30 2032 H 191.694 1.9804 7.58782 0
M  V30 2033 N 189.197 -1.51736 -0.425897 0
M  V30 2034 C 190.613 -1.40166 -0.76326 0
M  V30 2035 C 190.813 -0.492962 -1.95377 0
M  V30 2036 O 189.869 0.0475815 -2.52455 0
M  V30 2037 C 191.182 -2.82403 -1.03291 0
M  V30 2038 C 192.73 -2.91632 -1.13665 0
M  V30 2039 C 193.205 -4.34801 -1.43916 0
M  V30 2040 N 194.696 -4.3796 -1.50816 0
M  V30 2041 C 195.431 -5.4578 -1.75817 0
M  V30 2042 N 194.927 -6.63744 -1.98534 0
M  V30 2043 N 196.72 -5.33274 -1.77694 0
M  V30 2044 H 188.871 -2.09361 0.358 0
M  V30 2045 H 191.134 -0.942941 0.0978094 0
M  V30 2046 H 190.84 -3.50943 -0.230696 0
M  V30 2047 H 190.714 -3.22428 -1.95754 0
M  V30 2048 H 193.101 -2.23284 -1.92947 0
M  V30 2049 H 193.182 -2.55088 -0.190756 0
M  V30 2050 H 192.826 -5.03703 -0.65157 0
M  V30 2051 H 192.756 -4.68868 -2.39729 0
M  V30 2052 H 195.247 -3.52919 -1.35118 0
M  V30 2053 H 195.56 -7.41704 -2.17013 0
M  V30 2054 H 193.905 -6.66839 -1.95832 0
M  V30 2055 H 197.096 -4.40098 -1.59473 0
M  V30 2056 H 197.269 -6.1738 -1.9684 0
M  V30 2057 N 190.675 0.682077 -1.42076 0
M  V30 2058 C 191.585 1.82535 -1.47371 0
M  V30 2059 C 192.601 1.7017 -0.363079 0
M  V30 2060 O 193.777 1.91848 -0.612875 0
M  V30 2061 C 190.842 3.18624 -1.36674 0
M  V30 2062 C 189.903 3.42999 -2.58167 0
M  V30 2063 C 189.136 4.72595 -2.4797 0
M  V30 2064 O 189.359 5.50006 -1.5116 0
M  V30 2065 O 188.293 4.98054 -3.37974 0
M  V30 2066 H 192.119 1.81023 -2.43853 0
M  V30 2067 H 189.704 0.836887 -1.2376 0
M  V30 2068 H 191.586 3.99847 -1.33043 0
M  V30 2069 H 190.261 3.20789 -0.433138 0
M  V30 2070 H 189.168 2.61653 -2.67373 0
M  V30 2071 H 190.501 3.45659 -3.50401 0
M  V30 2072 N 192.153 1.28127 0.917671 0
M  V30 2073 C 193.085 1.07517 2.02417 0
M  V30 2074 C 194.098 0.0281099 1.62776 0
M  V30 2075 O 195.287 0.270748 1.76435 0
M  V30 2076 C 192.387 0.610957 3.33347 0
M  V30 2077 C 191.56 1.73255 4.01624 0
M  V30 2078 C 190.619 1.26238 5.10833 0
M  V30 2079 O 189.645 1.96389 5.34247 0
M  V30 2080 N 190.847 0.123448 5.80369 0
M  V30 2081 H 193.612 2.02806 2.20658 0
M  V30 2082 H 191.173 1.19827 1.08871 0
M  V30 2083 H 193.165 0.280101 4.0373 0
M  V30 2084 H 191.735 -0.24898 3.11607 0
M  V30 2085 H 190.955 2.23319 3.24842 0
M  V30 2086 H 192.243 2.48503 4.43986 0
M  V30 2087 H 191.641 -0.461847 5.63812 0
M  V30 2088 H 190.198 -0.148158 6.51632 0
M  V30 2089 N 193.631 -1.12557 1.10312 0
M  V30 2090 C 195.047 -1.36036 0.834649 0
M  V30 2091 C 195.247 -1.93946 -0.546539 0
M  V30 2092 O 194.303 -2.16484 -1.29966 0
M  V30 2093 C 195.616 -2.30312 1.9333 0
M  V30 2094 C 197.164 -2.43906 1.9616 0
M  V30 2095 C 197.639 -3.41496 3.05195 0
M  V30 2096 N 199.13 -3.49053 3.04494 0
M  V30 2097 C 199.865 -4.24471 3.85502 0
M  V30 2098 N 199.361 -5.02966 4.76442 0
M  V30 2099 N 201.154 -4.19864 3.73725 0
M  V30 2100 H 193.305 -0.733246 1.99342 0
M  V30 2101 H 195.568 -0.385234 0.866198 0
M  V30 2102 H 195.274 -1.94933 2.92735 0
M  V30 2103 H 195.148 -3.30421 1.81939 0
M  V30 2104 H 197.535 -2.78567 0.973886 0
M  V30 2105 H 197.616 -1.4369 2.11629 0
M  V30 2106 H 197.26 -3.07565 4.04186 0
M  V30 2107 H 197.19 -4.41539 2.86968 0
M  V30 2108 H 199.681 -2.93053 2.38596 0
M  V30 2109 H 199.994 -5.57846 5.34815 0
M  V30 2110 H 198.339 -5.02167 4.80472 0
M  V30 2111 H 201.53 -3.57623 3.02032 0
M  V30 2112 H 201.703 -4.78386 4.37093 0
M  V30 2113 N 195.109 -0.891671 -1.2995 0
M  V30 2114 C 196.525 -0.58662 -1.48428 0
M  V30 2115 C 196.725 0.873951 -1.81561 0
M  V30 2116 O 195.781 1.65471 -1.90724 0
M  V30 2117 C 197.094 -1.50553 -2.60296 0
M  V30 2118 C 198.642 -1.50988 -2.74175 0
M  V30 2119 C 199.117 -2.41488 -3.89163 0
M  V30 2120 N 200.608 -2.39489 -3.96483 0
M  V30 2121 C 201.343 -3.06223 -4.84784 0
M  V30 2122 N 200.839 -3.82206 -5.77833 0
M  V30 2123 N 202.632 -2.95421 -4.78208 0
M  V30 2124 H 194.783 -1.83644 -1.06718 0
M  V30 2125 H 197.046 -0.786455 -0.529332 0
M  V30 2126 H 196.752 -2.54581 -2.42654 0
M  V30 2127 H 196.626 -1.22008 -3.56923 0
M  V30 2128 H 199.013 -0.47708 -2.91218 0
M  V30 2129 H 199.094 -1.83567 -1.78148 0
M  V30 2130 H 198.738 -3.44857 -3.72876 0
M  V30 2131 H 198.668 -2.06222 -4.84541 0
M  V30 2132 H 201.159 -1.84278 -3.29924 0
M  V30 2133 H 201.472 -4.302 -6.41988 0
M  V30 2134 H 199.817 -3.86313 -5.77743 0
M  V30 2135 H 203.008 -2.35581 -4.04499 0
M  V30 2136 H 203.181 -3.47704 -5.46814 0
M  V30 2137 N 196.587 1.43421 -0.653314 0
M  V30 2138 C 197.834 2.01812 -0.166745 0
M  V30 2139 C 198.162 1.51535 1.21931 0
M  V30 2140 O 197.417 0.698975 1.82792 0
M  V30 2141 C 197.716 3.57176 -0.126623 0
M  V30 2142 C 197.382 4.26798 -1.45444 0
M  V30 2143 C 196.044 4.45534 -1.81805 0
M  V30 2144 C 198.396 4.66225 -2.32989 0
M  V30 2145 C 195.724 5.00961 -3.05377 0
M  V30 2146 C 198.076 5.23021 -3.55853 0
M  V30 2147 C 196.74 5.39973 -3.9241 0
M  V30 2148 H 196.01 0.738484 -0.0610162 0
M  V30 2149 H 198.657 1.71896 -0.84404 0
M  V30 2150 H 196.962 3.86634 0.634123 0
M  V30 2151 H 198.659 4.00112 0.266723 0
M  V30 2152 H 195.249 4.12561 -1.16153 0
M  V30 2153 H 199.433 4.51443 -2.06187 0
M  V30 2154 H 194.689 5.12271 -3.3375 0
M  V30 2155 H 198.863 5.52518 -4.23907 0
M  V30 2156 H 196.49 5.82687 -4.88242 0
M  V30 2157 N 198.065 0.39524 1.52563 0
M  V30 2158 C 199.29 -0.187456 2.06551 0
M  V30 2159 C 199.715 -1.39249 1.26457 0
M  V30 2160 O 199.073 -1.78947 0.291151 0
M  V30 2161 C 199.121 -0.529985 3.56684 0
M  V30 2162 O 198.225 -1.62307 3.79118 0
M  V30 2163 H 197.566 -0.0202537 0.663691 0
M  V30 2164 H 200.096 0.564426 1.96661 0
M  V30 2165 H 200.106 -0.792598 4.00227 0
M  V30 2166 H 198.781 0.350987 4.14416 0
M  V30 2167 H 197.358 -1.3537 3.47461 0
M  V30 2168 N 199.544 -1.57102 0.125237 0
M  V30 2169 C 200.79 -1.95697 -0.532035 0
M  V30 2170 C 201.123 -1.009 -1.6593 0
M  V30 2171 O 200.398 -0.047347 -1.94442 0
M  V30 2172 C 200.681 -3.44181 -1.05884 0
M  V30 2173 C 200.534 -4.49752 0.0654392 0
M  V30 2174 C 201.853 -3.94655 -1.9477 0
M  V30 2175 H 198.972 -0.711571 -0.191925 0
M  V30 2176 H 201.614 -1.88923 0.20206 0
M  V30 2177 H 199.764 -3.50085 -1.68442 0
M  V30 2178 H 201.436 -4.55943 0.700982 0
M  V30 2179 H 199.679 -4.27653 0.727709 0
M  V30 2180 H 200.35 -5.50924 -0.344505 0
M  V30 2181 H 202.826 -3.91094 -1.42074 0
M  V30 2182 H 201.702 -4.99057 -2.28546 0
M  V30 2183 H 201.963 -3.35718 -2.87656 0
M  V30 2184 N 201.022 0.148545 -1.56898 0
M  V30 2185 C 202.247 0.880385 -1.87787 0
M  V30 2186 C 202.672 1.74018 -0.714093 0
M  V30 2187 O 202.03 1.78153 0.336343 0
M  V30 2188 C 202.078 1.71422 -3.17249 0
M  V30 2189 O 201.182 2.8183 -3.01074 0
M  V30 2190 H 200.523 0.245301 -0.617028 0
M  V30 2191 H 203.053 0.139826 -2.04122 0
M  V30 2192 H 203.063 2.10954 -3.49231 0
M  V30 2193 H 201.738 1.08284 -4.01556 0
M  V30 2194 H 200.315 2.45715 -2.80497 0
M  V30 2195 N 202.5 1.5196 0.417844 0
M  V30 2196 C 203.728 1.69426 1.18753 0
M  V30 2197 C 204.143 0.399955 1.84515 0
M  V30 2198 O 203.5 -0.623288 1.71527 0
M  V30 2199 C 203.551 2.82375 2.25714 0
M  V30 2200 O 203.272 4.06793 1.62638 0
M  V30 2201 C 204.773 3.11277 3.15628 0
M  V30 2202 H 201.993 0.568031 0.357186 0
M  V30 2203 H 204.537 1.98475 0.49273 0
M  V30 2204 H 202.692 2.5587 2.90877 0
M  V30 2205 H 203.106 4.69667 2.3348 0
M  V30 2206 H 204.58 3.93843 3.86771 0
M  V30 2207 H 205.057 2.24473 3.77503 0
M  V30 2208 H 205.663 3.39515 2.56144 0
M  V30 2209 N 203.978 -0.674533 1.42435 0
M  V30 2210 C 204.908 -1.80009 1.48724 0
M  V30 2211 C 205.889 -1.6659 0.343793 0
M  V30 2212 O 207.074 -1.86007 0.558137 0
M  V30 2213 C 204.204 -3.18306 1.38919 0
M  V30 2214 C 203.158 -3.46461 2.51294 0
M  V30 2215 C 202.484 -4.84335 2.26547 0
M  V30 2216 C 203.784 -3.43328 3.93603 0
M  V30 2217 H 205.478 -1.75004 2.42928 0
M  V30 2218 H 203.024 -0.840533 1.16923 0
M  V30 2219 H 204.977 -3.9678 1.41927 0
M  V30 2220 H 203.701 -3.2399 0.412094 0
M  V30 2221 H 202.36 -2.70348 2.47604 0
M  V30 2222 H 202.008 -4.86669 1.2713 0
M  V30 2223 H 201.708 -5.04136 3.01861 0
M  V30 2224 H 203.232 -5.65094 2.31304 0
M  V30 2225 H 204.646 -4.11772 3.98894 0
M  V30 2226 H 203.043 -3.74664 4.68771 0
M  V30 2227 H 204.113 -2.41897 4.20255 0
M  V30 2228 N 205.456 -1.28612 -0.910864 0
M  V30 2229 C 206.872 -1.06381 -1.18976 0
M  V30 2230 C 207.072 0.191998 -2.00583 0
M  V30 2231 O 206.128 0.892869 -2.36187 0
M  V30 2232 C 207.441 -2.31295 -1.92154 0
M  V30 2233 C 208.989 -2.36503 -2.05025 0
M  V30 2234 C 209.464 -3.61191 -2.81612 0
M  V30 2235 N 210.955 -3.61847 -2.89172 0
M  V30 2236 C 211.69 -4.55004 -3.4894 0
M  V30 2237 N 211.186 -5.58482 -4.09963 0
M  V30 2238 N 212.979 -4.42594 -3.46506 0
M  V30 2239 H 205.13 -2.09221 -0.366094 0
M  V30 2240 H 207.393 -0.921003 -0.224629 0
M  V30 2241 H 207.099 -3.228 -1.39618 0
M  V30 2242 H 206.973 -2.37934 -2.9269 0
M  V30 2243 H 209.36 -1.45494 -2.5674 0
M  V30 2244 H 209.441 -2.33857 -1.03657 0
M  V30 2245 H 209.085 -4.52545 -2.30576 0
M  V30 2246 H 209.015 -3.61092 -3.83302 0
M  V30 2247 H 211.506 -2.87022 -2.45819 0
M  V30 2248 H 211.819 -6.25704 -4.53557 0
M  V30 2249 H 210.164 -5.62305 -4.08459 0
M  V30 2250 H 213.355 -3.60953 -2.98045 0
M  V30 2251 H 213.528 -5.15381 -3.92793 0
M  V30 2252 N 206.934 1.1197 -1.10907 0
M  V30 2253 C 207.882 2.19927 -0.757303 0
M  V30 2254 C 208.876 1.67564 0.248747 0
M  V30 2255 O 210.082 1.79672 0.108605 0
M  V30 2256 H 206.457 0.716925 -0.226987 0
M  V30 2257 H 208.428 2.46847 -1.67658 0
M  V30 2258 C 207.177 3.47061 -0.210671 0
M  V30 2259 H 206.5 3.87703 -0.976049 0
M  V30 2260 H 207.94 4.24 -0.0026584 0
M  V30 2261 C 206.399 3.19864 1.05777 0
M  V30 2262 O 206.929 3.40049 2.13845 0
M  V30 2263 N 205.135 2.73636 0.978349 0
M  V30 2264 H 204.682 2.5741 0.0988246 0
M  V30 2265 H 204.64 2.55815 1.82773 0
M  V30 2266 N 208.412 0.89855 1.29475 0
M  V30 2267 C 209.342 0.39201 2.30186 0
M  V30 2268 C 210.323 -0.532359 1.61555 0
M  V30 2269 O 211.508 -0.443331 1.89072 0
M  V30 2270 C 208.638 -0.382353 3.45189 0
M  V30 2271 C 207.592 0.451483 4.25612 0
M  V30 2272 C 206.918 -0.450307 5.328 0
M  V30 2273 C 208.218 1.70079 4.93832 0
M  V30 2274 H 209.912 1.23362 2.72804 0
M  V30 2275 H 207.458 0.594638 1.31149 0
M  V30 2276 H 209.411 -0.747451 4.14718 0
M  V30 2277 H 208.135 -1.25774 3.01411 0
M  V30 2278 H 206.794 0.798897 3.57789 0
M  V30 2279 H 206.442 -1.32379 4.85268 0
M  V30 2280 H 206.142 0.103902 5.87508 0
M  V30 2281 H 207.666 -0.811623 6.05182 0
M  V30 2282 H 209.08 1.40549 5.55805 0
M  V30 2283 H 207.477 2.19623 5.58467 0
M  V30 2284 H 208.547 2.43744 4.19186 0
M  V30 2285 N 209.89 -1.43072 0.660911 0
M  V30 2286 C 211.138 -2.01323 0.177094 0
M  V30 2287 C 211.459 -1.5245 -1.2159 0
M  V30 2288 O 210.729 -0.740322 -1.81373 0
M  V30 2289 H 209.309 -0.744382 0.0624804 0
M  V30 2290 H 211.971 -1.75179 0.854305 0
M  V30 2291 H 211.067 -3.11649 0.167641 0
M  V30 2292 N 211.368 -0.403325 -1.52352 0
M  V30 2293 C 212.298 0.416205 -2.29761 0
M  V30 2294 C 213.279 1.05123 -1.33728 0
M  V30 2295 O 214.464 1.06134 -1.62632 0
M  V30 2296 C 211.594 1.53624 -3.11475 0
M  V30 2297 C 210.548 1.02653 -4.15507 0
M  V30 2298 C 209.874 2.23971 -4.85532 0
M  V30 2299 C 211.174 0.08463 -5.22231 0
M  V30 2300 H 212.868 -0.229701 -2.98518 0
M  V30 2301 H 210.414 -0.111913 -1.43564 0
M  V30 2302 H 212.367 2.1165 -3.64393 0
M  V30 2303 H 211.091 2.20994 -2.40477 0
M  V30 2304 H 209.75 0.46871 -3.63591 0
M  V30 2305 H 209.398 2.89883 -4.11068 0
M  V30 2306 H 209.098 1.90521 -5.55856 0
M  V30 2307 H 210.622 2.82614 -5.41259 0
M  V30 2308 H 212.036 0.573509 -5.70424 0
M  V30 2309 H 210.433 -0.160783 -5.99885 0
M  V30 2310 H 211.503 -0.86237 -4.7717 0
M  V30 2311 N 212.846 1.57033 -0.133567 0
M  V30 2312 C 214.094 1.953 0.519848 0
M  V30 2313 C 214.415 1.01866 1.66278 0
M  V30 2314 O 213.685 0.0776513 1.95746 0
M  V30 2315 H 212.265 0.721091 0.195032 0
M  V30 2316 H 214.927 1.93809 -0.205921 0
M  V30 2317 H 214.023 2.98695 0.904854 0
M  V30 2318 N 214.325 -0.140222 1.56975 0
M  V30 2319 C 215.272 -1.17292 1.98774 0
M  V30 2320 C 216.242 -1.4232 0.856408 0
M  V30 2321 O 217.427 -1.54541 1.119 0
M  V30 2322 C 214.567 -2.49973 2.37923 0
M  V30 2323 C 213.68 -2.32062 3.64378 0
M  V30 2324 C 212.815 -3.57825 3.926 0
M  V30 2325 C 211.854 -3.3498 5.12303 0
M  V30 2326 N 210.991 -4.52891 5.36502 0
M  V30 2327 H 215.831 -0.809472 2.86795 0
M  V30 2328 H 213.368 -0.388237 1.41884 0
M  V30 2329 H 215.326 -3.27346 2.58652 0
M  V30 2330 H 213.956 -2.84252 1.52972 0
M  V30 2331 H 213.008 -1.45711 3.51387 0
M  V30 2332 H 214.32 -2.11145 4.51906 0
M  V30 2333 H 213.474 -4.43624 4.13863 0
M  V30 2334 H 212.213 -3.81753 3.03506 0
M  V30 2335 H 211.218 -2.4757 4.90906 0
M  V30 2336 H 212.443 -3.12444 6.02956 0
M  V30 2337 H 210.389 -4.76979 4.50363 0
M  V30 2338 H 210.306 -4.35001 6.18312 0
M  V30 2339 H 211.574 -5.39884 5.62268 0
M  V30 2340 N 215.803 -1.52179 -0.40978 0
M  V30 2341 C 216.75 -1.75475 -1.49924 0
M  V30 2342 C 217.72 -0.597175 -1.54994 0
M  V30 2343 O 218.905 -0.834655 -1.71575 0
M  V30 2344 C 216.045 -1.9107 -2.87378 0
M  V30 2345 C 215.158 -3.18717 -2.91622 0
M  V30 2346 C 214.293 -3.24747 -4.20372 0
M  V30 2347 C 213.332 -4.46598 -4.18588 0
M  V30 2348 N 212.469 -4.50025 -5.38908 0
M  V30 2349 H 217.309 -2.68458 -1.29361 0
M  V30 2350 H 214.846 -1.33024 -0.627934 0
M  V30 2351 H 216.804 -1.98096 -3.6717 0
M  V30 2352 H 215.434 -1.01469 -3.06437 0
M  V30 2353 H 214.486 -3.20866 -2.04326 0
M  V30 2354 H 215.798 -4.08544 -2.86169 0
M  V30 2355 H 214.952 -3.30841 -5.08556 0
M  V30 2356 H 213.691 -2.32857 -4.28519 0
M  V30 2357 H 212.696 -4.40652 -3.28794 0
M  V30 2358 H 213.921 -5.39783 -4.12081 0
M  V30 2359 H 211.867 -3.61017 -5.47725 0
M  V30 2360 H 211.784 -5.33697 -5.35447 0
M  V30 2361 H 213.052 -4.60347 -6.29048 0
M  V30 2362 N 217.281 0.66697 -1.42791 0
M  V30 2363 C 218.506 1.46004 -1.47301 0
M  V30 2364 C 218.931 1.87894 -0.0880317 0
M  V30 2365 O 218.289 1.56502 0.915253 0
M  V30 2366 C 218.337 2.68031 -2.41229 0
M  V30 2367 O 217.441 3.6659 -1.88906 0
M  V30 2368 H 216.782 0.43832 -0.49877 0
M  V30 2369 H 219.312 0.817391 -1.87563 0
M  V30 2370 H 219.322 3.1601 -2.58073 0
M  V30 2371 H 217.997 2.36883 -3.41847 0
M  V30 2372 H 216.574 3.25661 -1.81656 0
M  V30 2373 N 218.759 1.29093 0.90403 0
M  V30 2374 C 219.689 1.16401 2.02418 0
M  V30 2375 C 220.67 0.0593085 1.69997 0
M  V30 2376 O 221.855 0.238021 1.92736 0
M  V30 2377 C 218.985 0.835233 3.37107 0
M  V30 2378 C 217.939 1.89578 3.83724 0
M  V30 2379 C 217.265 1.42041 5.15489 0
M  V30 2380 C 218.565 3.30394 4.04521 0
M  V30 2381 H 220.259 2.10109 2.13295 0
M  V30 2382 H 217.805 1.01157 1.02486 0
M  V30 2383 H 219.758 0.733169 4.14973 0
M  V30 2384 H 218.482 -0.137543 3.2631 0
M  V30 2385 H 217.141 1.98715 3.08071 0
M  V30 2386 H 216.789 0.436426 5.01103 0
M  V30 2387 H 216.489 2.12964 5.4765 0
M  V30 2388 H 218.013 1.33176 5.959 0
M  V30 2389 H 219.427 3.24123 4.72882 0
M  V30 2390 H 217.824 3.99237 4.48029 0
M  V30 2391 H 218.894 3.73692 3.09002 0
M  V30 2392 N 220.237 -1.11381 1.11499 0
M  V30 2393 C 221.147 -2.21019 0.786628 0
M  V30 2394 C 222.163 -1.72597 -0.220507 0
M  V30 2395 O 223.339 -2.01321 -0.0565251 0
M  V30 2396 C 220.404 -3.459 0.235333 0
M  V30 2397 C 219.465 -4.09107 1.30115 0
M  V30 2398 C 218.698 -5.28027 0.776068 0
M  V30 2399 O 218.921 -5.6904 -0.393661 0
M  V30 2400 O 217.855 -5.81835 1.54114 0
M  V30 2401 H 221.681 -2.51521 1.70209 0
M  V30 2402 H 219.266 -1.19928 0.890928 0
M  V30 2403 H 221.148 -4.21346 -0.067715 0
M  V30 2404 H 219.823 -3.17049 -0.652828 0
M  V30 2405 H 218.73 -3.35391 1.65722 0
M  V30 2406 H 220.063 -4.42139 2.16273 0
M  V30 2407 N 221.715 -0.905404 -1.28997 0
M  V30 2408 C 222.647 -0.344748 -2.26592 0
M  V30 2409 C 223.66 0.512135 -1.54535 0
M  V30 2410 O 224.849 0.328368 -1.75454 0
M  V30 2411 C 221.949 0.526587 -3.34784 0
M  V30 2412 C 221.122 -0.305871 -4.36329 0
M  V30 2413 C 220.181 0.499209 -5.23827 0
M  V30 2414 O 219.207 -0.0853004 -5.69136 0
M  V30 2415 N 220.409 1.80408 -5.51755 0
M  V30 2416 H 223.174 -1.18359 -2.75338 0
M  V30 2417 H 220.735 -0.770481 -1.42391 0
M  V30 2418 H 222.727 1.07171 -3.90252 0
M  V30 2419 H 221.297 1.26613 -2.85811 0
M  V30 2420 H 220.517 -1.0324 -3.80441 0
M  V30 2421 H 221.805 -0.875773 -5.01206 0
M  V30 2422 H 221.203 2.3016 -5.16762 0
M  V30 2423 H 219.76 2.29621 -6.10014 0
M  V30 2424 N 223.193 1.4272 -0.668489 0
M  V30 2425 C 224.439 2.02443 -0.197076 0
M  V30 2426 C 224.794 1.51882 1.18109 0
M  V30 2427 O 224.087 0.708618 1.78015 0
M  V30 2428 C 224.281 3.57021 -0.164499 0
M  V30 2429 C 224.11 4.22583 -1.53797 0
M  V30 2430 C 222.88 4.58019 -2.13416 0
M  V30 2431 C 225.078 4.50588 -2.47941 0
M  V30 2432 N 223.06 5.08729 -3.4361 0
M  V30 2433 C 224.431 5.02782 -3.62782 0
M  V30 2434 C 226.486 4.32571 -2.46551 0
M  V30 2435 C 225.189 5.38852 -4.76478 0
M  V30 2436 C 227.215 4.69713 -3.59338 0
M  V30 2437 C 226.577 5.22053 -4.72906 0
M  V30 2438 H 222.676 0.773214 -0.116894 0
M  V30 2439 H 225.26 1.73673 -0.880108 0
M  V30 2440 H 223.431 3.85323 0.487925 0
M  V30 2441 H 225.163 4.03439 0.319207 0
M  V30 2442 H 221.918 4.43566 -1.65969 0
M  V30 2443 H 222.342 5.38521 -4.10273 0
M  V30 2444 H 226.984 3.91365 -1.59978 0
M  V30 2445 H 224.702 5.78993 -5.63731 0
M  V30 2446 H 228.288 4.57454 -3.59482 0
M  V30 2447 H 227.168 5.50258 -5.58736 0
M  V30 2448 N 224.671 0.411399 1.52136 0
M  V30 2449 C 225.917 -0.163888 2.02137 0
M  V30 2450 C 226.25 -1.44597 1.29636 0
M  V30 2451 O 225.525 -1.90272 0.403353 0
M  V30 2452 C 225.808 -0.40927 3.57767 0
M  V30 2453 C 225.661 0.889643 4.40914 0
M  V30 2454 C 226.98 -1.19042 4.23694 0
M  V30 2455 H 224.099 -0.0580896 0.734707 0
M  V30 2456 H 226.741 0.54531 1.82007 0
M  V30 2457 H 224.891 -1.0134 3.7505 0
M  V30 2458 H 226.563 1.52575 4.35337 0
M  V30 2459 H 224.806 1.50011 4.07037 0
M  V30 2460 H 225.477 0.672314 5.4789 0
M  V30 2461 H 227.953 -0.678942 4.10524 0
M  V30 2462 H 226.829 -1.33086 5.32522 0
M  V30 2463 H 227.09 -2.21166 3.82803 0
M  V30 2464 N 226.149 -1.5696 0.141893 0
M  V30 2465 C 227.377 -2.00322 -0.517579 0
M  V30 2466 C 227.792 -1.02193 -1.58752 0
M  V30 2467 O 227.149 -0.0181619 -1.82491 0
M  V30 2468 C 227.2 -3.43618 -1.12289 0
M  V30 2469 O 226.921 -4.37995 -0.0956929 0
M  V30 2470 C 228.422 -4.02231 -1.86347 0
M  V30 2471 H 225.642 -0.657243 -0.135177 0
M  V30 2472 H 228.186 -2.03146 0.234973 0
M  V30 2473 H 226.341 -3.41662 -1.82609 0
M  V30 2474 H 226.755 -5.21729 -0.538469 0
M  V30 2475 H 228.229 -5.04509 -2.23997 0
M  V30 2476 H 228.706 -3.42655 -2.74744 0
M  V30 2477 H 229.312 -4.07802 -1.20737 0
M  V30 2478 N 227.627 0.131896 -1.57047 0
M  V30 2479 C 228.537 1.1815 -2.02676 0
M  V30 2480 C 229.553 1.46113 -0.944824 0
M  V30 2481 O 230.729 1.57485 -1.25541 0
M  V30 2482 C 227.794 2.49139 -2.41103 0
M  V30 2483 C 226.855 2.28688 -3.63318 0
M  V30 2484 C 226.088 3.53431 -3.99903 0
M  V30 2485 O 226.311 4.60223 -3.36973 0
M  V30 2486 O 225.245 3.45198 -4.93074 0
M  V30 2487 H 229.071 0.824069 -2.92306 0
M  V30 2488 H 226.656 0.341745 -1.45439 0
M  V30 2489 H 228.538 3.26338 -2.66611 0
M  V30 2490 H 227.213 2.84382 -1.54624 0
M  V30 2491 H 226.12 1.4939 -3.42977 0
M  V30 2492 H 227.453 1.98355 -4.50462 0
M  V30 2493 N 229.106 1.52395 0.401703 0
M  V30 2494 C 230.016 1.7917 1.51444 0
M  V30 2495 C 231.032 0.677691 1.6026 0
M  V30 2496 O 232.208 0.963909 1.76835 0
M  V30 2497 C 229.273 1.94347 2.87107 0
M  V30 2498 C 228.334 3.18257 2.88116 0
M  V30 2499 C 227.567 3.32701 4.17308 0
M  V30 2500 O 227.79 2.52238 5.11598 0
M  V30 2501 O 226.724 4.25891 4.25324 0
M  V30 2502 H 230.55 2.73633 1.31752 0
M  V30 2503 H 228.135 1.3733 0.588296 0
M  V30 2504 H 230.017 2.06109 3.67555 0
M  V30 2505 H 228.692 1.03073 3.06851 0
M  V30 2506 H 227.599 3.11947 2.06494 0
M  V30 2507 H 228.932 4.09336 2.73322 0
M  V30 2508 N 230.584 -0.659388 1.43143 0
M  V30 2509 C 231.547 -1.75432 1.47501 0
M  V30 2510 C 232.547 -1.56707 0.360512 0
M  V30 2511 O 233.737 -1.62717 0.622002 0
M  V30 2512 C 230.869 -3.14239 1.32162 0
M  V30 2513 H 232.062 -1.7295 2.45006 0
M  V30 2514 H 229.615 -0.870469 1.29817 0
M  V30 2515 H 230.35 -3.22336 0.356401 0
M  V30 2516 H 230.135 -3.29235 2.12948 0
M  V30 2517 H 231.625 -3.94094 1.3813 0
M  V30 2518 N 232.062 -1.29571 -0.897171 0
M  V30 2519 C 233.025 -1.14913 -1.98312 0
M  V30 2520 C 234.025 -0.0838629 -1.60581 0
M  V30 2521 O 235.215 -0.331006 -1.71026 0
M  V30 2522 C 232.347 -0.757835 -3.3237 0
M  V30 2523 H 233.54 -2.11377 -2.12743 0
M  V30 2524 H 231.093 -1.12793 -1.08201 0
M  V30 2525 H 231.828 0.206837 -3.2364 0
M  V30 2526 H 231.613 -1.52755 -3.61121 0
M  V30 2527 H 233.103 -0.678408 -4.12053 0
M  V30 2528 N 233.54 1.10788 -1.12088 0
M  V30 2529 C 234.78 1.84297 -0.883974 0
M  V30 2530 C 235.144 1.83036 0.579797 0
M  V30 2531 O 236.345 2.52061 0.933734 0
M  V30 2532 C 234.616 3.27173 -1.43849 0
M  V30 2533 S 236.175 4.17853 -1.33957 0
M  V30 2534 H 232.993 0.635433 -0.318977 0
M  V30 2535 H 235.595 1.33341 -1.4297 0
M  V30 2536 H 234.299 3.25658 -2.49749 0
M  V30 2537 H 233.83 3.83198 -0.890096 0
M  V30 2538 H 235.845 4.95239 -0.308603 0
M  V30 2539 N 235.018 0.912232 1.28515 0
M  V30 2540 C 235.948 0.416403 2.29757 0
M  V30 2541 C 236.929 -0.515194 1.6211 0
M  V30 2542 O 238.114 -0.423253 1.89532 0
M  V30 2543 C 235.244 -0.34572 3.45575 0
M  V30 2544 C 234.198 0.496599 4.25109 0
M  V30 2545 C 233.524 -0.393771 5.33248 0
M  V30 2546 C 234.824 1.75307 4.92001 0
M  V30 2547 H 236.518 1.26249 2.7148 0
M  V30 2548 H 234.064 0.608515 1.30511 0
M  V30 2549 H 236.017 -0.703422 4.15488 0
M  V30 2550 H 234.741 -1.2257 3.02728 0
M  V30 2551 H 233.4 0.8368 3.56922 0
M  V30 2552 H 233.048 -1.27225 4.86644 0
M  V30 2553 H 232.748 0.166209 5.87365 0
M  V30 2554 H 234.272 -0.747389 6.06009 0
M  V30 2555 H 235.686 1.46437 5.54283 0
M  V30 2556 H 234.083 2.25534 5.56106 0
M  V30 2557 H 235.153 2.48176 4.16577 0
M  V30 2558 N 236.496 -1.42363 0.676048 0
M  V30 2559 C 237.736 -2.03392 0.20273 0
M  V30 2560 C 238.1 -1.52306 -1.16906 0
M  V30 2561 O 239.301 -2.05129 -1.73711 0
M  V30 2562 C 237.572 -3.56614 0.236947 0
M  V30 2563 S 239.131 -4.38489 -0.165186 0
M  V30 2564 H 235.949 -0.70611 0.0832418 0
M  V30 2565 H 238.551 -1.74093 0.88948 0
M  V30 2566 H 237.255 -3.91293 1.23767 0
M  V30 2567 H 236.786 -3.90587 -0.469596 0
M  V30 2568 H 238.801 -4.76093 -1.39822 0
M  V30 2569 N 237.974 -0.419461 -1.51915 0
M  V30 2570 C 238.937 0.389116 -2.25873 0
M  V30 2571 C 239.937 0.964924 -1.28631 0
M  V30 2572 O 241.127 0.842179 -1.52489 0
M  V30 2573 C 238.259 1.54874 -3.03689 0
M  V30 2574 H 239.452 -0.258799 -2.98781 0
M  V30 2575 H 237.005 -0.172209 -1.55348 0
M  V30 2576 H 237.74 2.23323 -2.35154 0
M  V30 2577 H 237.525 1.14223 -3.75094 0
M  V30 2578 H 239.015 2.12046 -3.59759 0
M  V30 2579 N 239.452 1.56882 -0.150215 0
M  V30 2580 C 240.415 2.1573 0.774157 0
M  V30 2581 C 241.415 1.0999 1.17298 0
M  V30 2582 O 242.605 1.35613 1.09338 0
M  V30 2583 C 239.737 2.72302 2.05096 0
M  V30 2584 H 240.93 2.98752 0.262201 0
M  V30 2585 H 238.483 1.55985 0.099248 0
M  V30 2586 H 239.218 1.92956 2.6065 0
M  V30 2587 H 239.003 3.49665 1.77416 0
M  V30 2588 H 240.493 3.17632 2.71109 0
M  V30 2589 N 240.93 -0.123565 1.57115 0
M  V30 2590 C 242.177 -0.832153 1.84612 0
M  V30 2591 C 242.505 -1.80093 0.734627 0
M  V30 2592 O 241.76 -1.93766 -0.27442 0
M  V30 2593 C 242.059 -1.62016 3.18568 0
M  V30 2594 C 241.725 -0.796084 4.43817 0
M  V30 2595 C 240.387 -0.568816 4.77826 0
M  V30 2596 C 242.739 -0.221364 5.2073 0
M  V30 2597 C 240.067 0.243499 5.86194 0
M  V30 2598 C 242.419 0.578117 6.29953 0
M  V30 2599 C 241.083 0.815744 6.62497 0
M  V30 2600 H 240.353 -0.304507 0.675542 0
M  V30 2601 H 243 -0.0947248 1.91266 0
M  V30 2602 H 241.305 -2.42837 3.0747 0
M  V30 2603 H 243.002 -2.17231 3.37064 0
M  V30 2604 H 239.592 -0.983307 4.17168 0
M  V30 2605 H 243.776 -0.384173 4.94811 0
M  V30 2606 H 239.032 0.436871 6.09837 0
M  V30 2607 H 243.206 1.03046 6.88734 0
M  V30 2608 H 240.833 1.44701 7.46301 0
M  V30 2609 N 242.408 -1.52605 -0.393616 0
M  V30 2610 C 243.371 -1.76415 -1.46323 0
M  V30 2611 C 244.371 -0.634126 -1.47768 0
M  V30 2612 O 245.561 -0.902142 -1.4902 0
M  V30 2613 C 242.693 -1.8607 -2.85641 0
M  V30 2614 H 243.886 -2.71916 -1.26498 0
M  V30 2615 H 241.439 -1.43257 -0.625073 0
M  V30 2616 H 242.174 -0.925378 -3.10817 0
M  V30 2617 H 241.959 -2.68235 -2.85993 0
M  V30 2618 H 243.449 -2.06179 -3.63153 0
M  V30 2619 N 243.887 0.651787 -1.4349 0
M  V30 2620 C 244.835 1.78586 -1.49029 0
M  V30 2621 C 245.829 1.65448 -0.363767 0
M  V30 2622 O 247.035 1.71777 -0.537821 0
M  V30 2623 H 243.41 0.589236 -0.467231 0
M  V30 2624 H 245.381 1.71035 -2.44519 0
M  V30 2625 C 244.13 3.16851 -1.43181 0
M  V30 2626 H 243.453 3.27598 -2.29171 0
M  V30 2627 H 244.893 3.96156 -1.51118 0
M  V30 2628 C 243.352 3.36568 -0.149616 0
M  V30 2629 O 243.882 3.93885 0.788509 0
M  V30 2630 N 242.088 2.90539 -0.0593484 0
M  V30 2631 H 241.635 2.4408 -0.823575 0
M  V30 2632 H 241.593 3.04108 0.797853 0
M  V30 2633 N 245.365 1.30045 0.890287 0
M  V30 2634 C 246.315 1.12592 1.9826 0
M  V30 2635 C 247.299 0.0426021 1.60844 0
M  V30 2636 O 248.491 0.265346 1.75 0
M  V30 2637 C 245.62 0.814301 3.33503 0
M  V30 2638 C 244.706 1.93761 3.7725 0
M  V30 2639 N 245.097 3.18232 3.93143 0
M  V30 2640 C 243.395 1.83277 4.06602 0
M  V30 2641 C 244.096 3.9158 4.30163 0
M  V30 2642 N 243.072 3.19591 4.3973 0
M  V30 2643 H 246.874 2.07003 2.08631 0
M  V30 2644 H 244.388 1.21307 1.07974 0
M  V30 2645 H 246.385 0.67029 4.11476 0
M  V30 2646 H 245.045 -0.121797 3.24471 0
M  V30 2647 H 246.056 3.53581 3.78419 0
M  V30 2648 H 242.733 0.97001 4.06075 0
M  V30 2649 H 244.123 4.98744 4.50226 0
M  V30 2650 N 246.843 -1.10192 1.12674 0
M  V30 2651 C 248.068 -1.86523 0.906853 0
M  V30 2652 C 248.493 -1.80221 -0.538711 0
M  V30 2653 O 247.851 -1.17396 -1.38158 0
M  V30 2654 C 247.899 -3.32758 1.3894 0
M  V30 2655 O 247.003 -4.08449 0.5695 0
M  V30 2656 H 246.344 -0.578678 0.325619 0
M  V30 2657 H 248.874 -1.39203 1.49946 0
M  V30 2658 H 248.884 -3.83608 1.38958 0
M  V30 2659 H 247.559 -3.36661 2.44197 0
M  V30 2660 H 246.136 -3.67427 0.636528 0
M  V30 2661 N 248.321 -0.919034 -1.28029 0
M  V30 2662 C 249.569 -0.553838 -1.94363 0
M  V30 2663 C 249.89 0.906357 -1.72656 0
M  V30 2664 O 249.16 1.64143 -1.0693 0
M  V30 2665 H 247.74 -0.201834 -0.719216 0
M  V30 2666 H 250.402 -1.16954 -1.55909 0
M  V30 2667 H 249.498 -0.752758 -3.02886 0
M  V30 2668 N 249.799 1.42003 -0.683588 0
M  V30 2669 C 251.215 1.55625 -0.353976 0
M  V30 2670 C 251.415 1.66151 1.14 0
M  V30 2671 O 250.471 1.63329 1.92561 0
M  V30 2672 C 251.784 2.80171 -1.092 0
M  V30 2673 C 253.332 2.93954 -1.07518 0
M  V30 2674 C 253.807 4.21372 -1.79471 0
M  V30 2675 N 255.298 4.28303 -1.76381 0
M  V30 2676 C 256.033 5.25729 -2.28904 0
M  V30 2677 N 255.529 6.29254 -2.89846 0
M  V30 2678 N 257.322 5.17586 -2.19228 0
M  V30 2679 H 249.473 1.33415 -1.6527 0
M  V30 2680 H 251.736 0.64282 -0.696769 0
M  V30 2681 H 251.442 2.78561 -2.14701 0
M  V30 2682 H 251.316 3.7133 -0.662862 0
M  V30 2683 H 253.703 2.95086 -0.028475 0
M  V30 2684 H 253.784 2.04002 -1.54328 0
M  V30 2685 H 253.428 4.21001 -2.84114 0
M  V30 2686 H 253.358 5.10275 -1.30104 0
M  V30 2687 H 255.849 3.54119 -1.31939 0
M  V30 2688 H 256.162 6.99964 -3.27522 0
M  V30 2689 H 254.507 6.29791 -2.93919 0
M  V30 2690 H 257.698 4.35631 -1.71299 0
M  V30 2691 H 257.871 5.93348 -2.60466 0
M  V30 2692 N 251.277 0.427512 1.51691 0
M  V30 2693 C 252.688 -0.0378867 1.86662 0
M  V30 2694 C 253.039 -1.42819 1.34525 0
M  V30 2695 O 252.164 -2.05037 0.692014 0
M  V30 2696 C 252.759 -0.0755266 3.38716 0
M  V30 2697 C 251.318 -0.485309 3.73258 0
M  V30 2698 C 250.465 0.328399 2.75349 0
M  V30 2699 H 253.416 0.64379 1.45055 0
M  V30 2700 H 253.437 -0.887056 3.70016 0
M  V30 2701 H 252.949 0.936487 3.76632 0
M  V30 2702 H 251.05 -1.50329 3.40928 0
M  V30 2703 H 251.163 -0.21693 4.78609 0
M  V30 2704 H 249.527 -0.211905 2.53817 0
M  V30 2705 H 250.31 1.3391 3.16106 0
M  V30 2706 N 252.755 -1.56801 0.158532 0
M  V30 2707 C 254.002 -1.9649 -0.489679 0
M  V30 2708 C 254.33 -1.04394 -1.6411 0
M  V30 2709 O 253.585 -0.0754401 -1.95555 0
M  V30 2710 C 253.884 -3.4235 -1.02623 0
M  V30 2711 C 253.55 -4.50899 0.00794526 0
M  V30 2712 C 252.212 -4.80312 0.292207 0
M  V30 2713 C 254.564 -5.16333 0.710584 0
M  V30 2714 C 251.892 -5.72461 1.28472 0
M  V30 2715 C 254.244 -6.09553 1.69199 0
M  V30 2716 C 252.908 -6.37339 1.98383 0
M  V30 2717 H 252.178 -0.719009 -0.179186 0
M  V30 2718 H 254.825 -1.8989 0.247798 0
M  V30 2719 H 253.13 -3.45838 -1.84128 0
M  V30 2720 H 254.827 -3.70393 -1.53656 0
M  V30 2721 H 251.417 -4.28015 -0.22379 0
M  V30 2722 H 255.601 -4.93732 0.504174 0
M  V30 2723 H 250.857 -5.92278 1.51714 0
M  V30 2724 H 255.031 -6.59327 2.24189 0
M  V30 2725 H 252.658 -7.08546 2.7544 0
M  V30 2726 N 254.233 0.115231 -1.57178 0
M  V30 2727 C 255.649 0.468877 -1.52557 0
M  V30 2728 C 255.849 1.81649 -0.872125 0
M  V30 2729 O 254.905 2.48347 -0.45606 0
M  V30 2730 C 256.218 0.4499 -2.97315 0
M  V30 2731 C 257.766 0.533185 -3.08425 0
M  V30 2732 C 258.241 0.54456 -4.54751 0
M  V30 2733 N 259.732 0.605892 -4.5922 0
M  V30 2734 C 260.467 0.636203 -5.6986 0
M  V30 2735 N 259.963 0.623931 -6.89985 0
M  V30 2736 N 261.756 0.679496 -5.57978 0
M  V30 2737 H 253.907 -0.767712 -1.9804 0
M  V30 2738 H 256.17 -0.283609 -0.904583 0
M  V30 2739 H 255.876 -0.472721 -3.48509 0
M  V30 2740 H 255.75 1.27632 -3.5495 0
M  V30 2741 H 258.137 1.44623 -2.57232 0
M  V30 2742 H 258.218 -0.320995 -2.53778 0
M  V30 2743 H 257.862 -0.364452 -5.06591 0
M  V30 2744 H 257.792 1.41568 -5.07214 0
M  V30 2745 H 260.283 0.621386 -3.72756 0
M  V30 2746 H 260.596 0.649787 -7.70063 0
M  V30 2747 H 258.941 0.591296 -6.9248 0
M  V30 2748 H 262.132 0.686472 -4.63039 0
M  V30 2749 H 262.305 0.69965 -6.44212 0
M  V30 2750 N 255.711 1.52812 0.385517 0
M  V30 2751 C 257.122 1.5993 0.963293 0
M  V30 2752 C 257.473 0.454302 1.90868 0
M  V30 2753 O 256.598 -0.422132 2.12243 0
M  V30 2754 C 257.193 2.89871 1.75387 0
M  V30 2755 C 255.752 2.99389 2.28129 0
M  V30 2756 C 254.899 2.55071 1.08783 0
M  V30 2757 H 257.85 1.5784 0.164948 0
M  V30 2758 H 257.871 2.76553 2.61341 0
M  V30 2759 H 257.383 3.73186 1.06554 0
M  V30 2760 H 255.484 2.20619 3.00263 0
M  V30 2761 H 255.597 4.04096 2.57377 0
M  V30 2762 H 253.961 2.09473 1.4489 0
M  V30 2763 H 254.744 3.40785 0.414807 0
M  V30 2764 N 257.189 -0.644168 1.43834 0
M  V30 2765 C 258.137 -1.77793 1.49974 0
M  V30 2766 C 259.131 -1.65253 0.372536 0
M  V30 2767 O 260.337 -1.7149 0.546924 0
M  V30 2768 H 256.712 -0.58675 0.47035 0
M  V30 2769 H 258.683 -1.69736 2.45423 0
M  V30 2770 C 257.432 -3.16087 1.4486 0
M  V30 2771 H 256.755 -3.26378 2.30905 0
M  V30 2772 H 258.195 -3.95349 1.53217 0
M  V30 2773 C 256.654 -3.36484 0.167463 0
M  V30 2774 O 257.184 -3.94298 -0.767609 0
M  V30 2775 N 255.39 -2.90504 0.0747556 0
M  V30 2776 H 254.937 -2.4364 0.836507 0
M  V30 2777 H 254.895 -3.04527 -0.781714 0
M  V30 2778 N 258.668 -1.30515 -0.883378 0
M  V30 2779 C 259.916 -1.19194 -1.63209 0
M  V30 2780 C 260.237 0.253205 -1.93349 0
M  V30 2781 O 259.507 1.17025 -1.57105 0
M  V30 2782 H 258.087 -0.438148 -0.605009 0
M  V30 2783 H 260.749 -1.63663 -1.05832 0
M  V30 2784 H 259.845 -1.75396 -2.58153 0
M  V30 2785 N 260.146 1.09593 -1.13257 0
M  V30 2786 C 261.076 2.18214 -0.830946 0
M  V30 2787 C 262.057 1.68812 0.208966 0
M  V30 2788 O 263.242 1.9408 0.0682666 0
M  V30 2789 C 260.372 3.46051 -0.294296 0
M  V30 2790 C 259.326 4.08778 -1.26826 0
M  V30 2791 C 258.652 5.31419 -0.591449 0
M  V30 2792 C 259.952 4.51476 -2.62615 0
M  V30 2793 H 261.646 2.43703 -1.73923 0
M  V30 2794 H 259.192 1.17128 -0.837675 0
M  V30 2795 H 261.145 4.2134 -0.0709606 0
M  V30 2796 H 259.869 3.20079 0.649366 0
M  V30 2797 H 258.528 3.35505 -1.47756 0
M  V30 2798 H 258.176 5.01727 0.357633 0
M  V30 2799 H 257.876 5.74341 -1.24123 0
M  V30 2800 H 259.4 6.09433 -0.377355 0
M  V30 2801 H 260.814 5.17999 -2.45663 0
M  V30 2802 H 259.211 5.05277 -3.23752 0
M  V30 2803 H 260.281 3.63962 -3.20406 0
M  V30 2804 N 261.624 0.925811 1.2754 0
M  V30 2805 C 262.554 0.440748 2.29303 0
M  V30 2806 C 263.535 -0.497971 1.62648 0
M  V30 2807 O 264.72 -0.403126 1.8997 0
M  V30 2808 C 261.85 -0.309048 3.45922 0
M  V30 2809 C 260.804 0.54166 4.24559 0
M  V30 2810 C 260.13 -0.337191 5.33636 0
M  V30 2811 C 261.43 1.80516 4.90114 0
M  V30 2812 H 263.124 1.29121 2.70126 0
M  V30 2813 H 260.67 0.622323 1.29858 0
M  V30 2814 H 262.623 -0.659315 4.1621 0
M  V30 2815 H 261.347 -1.19352 3.04011 0
M  V30 2816 H 260.006 0.874609 3.56014 0
M  V30 2817 H 259.654 -1.22056 4.87966 0
M  V30 2818 H 259.354 0.228497 5.87156 0
M  V30 2819 H 260.878 -0.683072 6.06767 0
M  V30 2820 H 262.292 1.52307 5.52698 0
M  V30 2821 H 260.689 2.3142 5.53683 0
M  V30 2822 H 261.759 2.52581 4.13921 0
M  V30 2823 N 263.102 -1.41638 0.69111 0
M  V30 2824 C 264.379 -1.95036 0.148421 0
M  V30 2825 C 264.759 -1.63072 -1.34055 0
M  V30 2826 O 264.107 -0.93538 -2.08478 0
M  V30 2827 C 264.317 -3.46279 0.434951 0
M  V30 2828 C 265.665 -4.23069 0.360275 0
M  V30 2829 O 266.689 -3.54277 0.369613 0
M  V30 2830 O 265.548 -5.45583 0.316534 0
M  V30 2831 H 262.642 -0.826908 0.0123654 0
M  V30 2832 H 265.188 -1.5138 0.766963 0
M  V30 2833 H 263.96 -3.6281 1.46576 0
M  V30 2834 H 263.583 -3.97019 -0.214787 0
M  V30 2835 N 264.58 -0.43555 -1.51462 0
M  V30 2836 C 265.527 0.376797 -2.27703 0
M  V30 2837 C 266.497 1.01838 -1.31219 0
M  V30 2838 O 267.682 1.03762 -1.60119 0
M  V30 2839 C 264.822 1.47301 -3.12084 0
M  V30 2840 C 263.935 0.849744 -4.2356 0
M  V30 2841 C 263.07 1.92086 -4.95254 0
M  V30 2842 C 262.109 1.27593 -5.98654 0
M  V30 2843 N 261.246 2.28833 -6.63762 0
M  V30 2844 H 266.086 -0.279734 -2.96684 0
M  V30 2845 H 263.623 -0.149795 -1.46335 0
M  V30 2846 H 265.581 2.11984 -3.59331 0
M  V30 2847 H 264.211 2.0992 -2.45221 0
M  V30 2848 H 263.263 0.0912529 -3.80291 0
M  V30 2849 H 264.575 0.338878 -4.97648 0
M  V30 2850 H 263.729 2.64435 -5.46039 0
M  V30 2851 H 262.468 2.46545 -4.20793 0
M  V30 2852 H 261.473 0.537893 -5.47162 0
M  V30 2853 H 262.698 0.738693 -6.7507 0
M  V30 2854 H 260.644 2.82375 -5.92115 0
M  V30 2855 H 260.561 1.82632 -7.33608 0
M  V30 2856 H 261.829 3.00671 -7.19178 0
M  V30 2857 N 266.058 1.56714 -0.166846 0
M  V30 2858 C 267.021 2.16539 0.751232 0
M  V30 2859 C 268.021 1.11228 1.16125 0
M  V30 2860 O 269.211 1.36765 1.07894 0
M  V30 2861 C 266.343 2.74462 2.02196 0
M  V30 2862 H 267.536 2.99013 0.230499 0
M  V30 2863 H 265.089 1.56081 0.0826982 0
M  V30 2864 H 265.824 1.95709 2.58589 0
M  V30 2865 H 265.609 3.51527 1.73698 0
M  V30 2866 H 267.099 3.20489 2.67725 0
M  V30 2867 N 267.536 -0.106894 1.57237 0
M  V30 2868 C 268.782 -0.81373 1.85759 0
M  V30 2869 C 269.115 -1.78952 0.754315 0
M  V30 2870 O 268.39 -1.93029 -0.23879 0
M  V30 2871 C 268.673 -1.55293 3.24894 0
M  V30 2872 C 268.526 -0.595929 4.45835 0
M  V30 2873 C 269.845 -2.5063 3.61763 0
M  V30 2874 H 266.964 -0.294369 0.67566 0
M  V30 2875 H 269.606 -0.0776472 1.89841 0
M  V30 2876 H 267.756 -2.1804 3.21544 0
M  V30 2877 H 269.428 0.0236262 4.61294 0
M  V30 2878 H 267.671 0.0916191 4.33703 0
M  V30 2879 H 268.342 -1.15004 5.39887 0
M  V30 2880 H 270.818 -1.97982 3.65981 0
M  V30 2881 H 269.694 -2.99376 4.60071 0
M  V30 2882 H 269.955 -3.3385 2.89821 0
M  V30 2883 N 269.014 -1.53014 -0.377408 0
M  V30 2884 C 270.239 -1.72818 -1.14668 0
M  V30 2885 C 270.664 -0.450725 -1.8262 0
M  V30 2886 O 270.022 0.59439 -1.7128 0
M  V30 2887 C 270.07 -2.88627 -2.16164 0
M  V30 2888 O 269.174 -2.56409 -3.22998 0
M  V30 2889 H 268.515 -0.574301 -0.333278 0
M  V30 2890 H 271.045 -1.99853 -0.438152 0
M  V30 2891 H 271.055 -3.14455 -2.59966 0
M  V30 2892 H 269.73 -3.81294 -1.66095 0
M  V30 2893 H 268.307 -2.4136 -2.84253 0
M  V30 2894 N 270.492 0.636531 -1.44174 0
M  V30 2895 C 271.44 1.76995 -1.50915 0
M  V30 2896 C 272.434 1.65053 -0.381295 0
M  V30 2897 O 273.64 1.71197 -0.55601 0
M  V30 2898 H 270.015 0.584247 -0.473455 0
M  V30 2899 H 271.986 1.68432 -2.4632 0
M  V30 2900 C 270.735 3.15314 -1.46534 0
M  V30 2901 H 270.058 3.25149 -2.32633 0
M  V30 2902 H 271.498 3.9453 -1.55312 0
M  V30 2903 C 269.957 3.3639 -0.185305 0
M  V30 2904 O 270.487 3.94699 0.746688 0
M  V30 2905 N 268.693 2.9046 -0.0901606 0
M  V30 2906 H 268.24 2.43193 -0.849416 0
M  V30 2907 H 268.198 3.04937 0.765553 0
M  V30 2908 N 271.97 1.30982 0.876444 0
M  V30 2909 C 273.216 1.20474 1.63138 0
M  V30 2910 C 273.549 -0.238096 1.92735 0
M  V30 2911 O 272.824 -1.1692 1.55435 0
M  V30 2912 C 273.107 2.04244 2.96574 0
M  V30 2913 C 272.96 3.56793 2.73896 0
M  V30 2914 C 274.279 1.88684 3.97601 0
M  V30 2915 H 271.398 0.439001 0.591985 0
M  V30 2916 H 274.04 1.60704 1.01361 0
M  V30 2917 H 272.19 1.70063 3.493 0
M  V30 2918 H 273.862 4.01077 2.27892 0
M  V30 2919 H 272.105 3.80548 2.08245 0
M  V30 2920 H 272.776 4.10706 3.68815 0
M  V30 2921 H 275.252 2.18584 3.54062 0
M  V30 2922 H 274.128 2.4961 4.88862 0
M  V30 2923 H 274.389 0.848343 4.33884 0
M  V30 2924 N 273.449 -1.08991 1.13837 0
M  V30 2925 C 274.698 -1.80631 0.897509 0
M  V30 2926 C 275.011 -1.86872 -0.57777 0
M  V30 2927 O 276.217 -2.54866 -0.935701 0
M  V30 2928 C 274.673 -3.24517 1.55618 0
M  V30 2929 C 274.281 -3.26529 3.0673 0
M  V30 2930 C 276.025 -4.00882 1.3962 0
M  V30 2931 C 273.932 -4.64965 3.65461 0
M  V30 2932 H 272.862 -0.67691 0.332129 0
M  V30 2933 H 275.513 -1.2246 1.3666 0
M  V30 2934 H 273.895 -3.82778 1.01476 0
M  V30 2935 H 275.069 -2.78008 3.67489 0
M  V30 2936 H 273.384 -2.63656 3.22296 0
M  V30 2937 H 275.981 -5.03167 1.80906 0
M  V30 2938 H 276.324 -4.14896 0.341578 0
M  V30 2939 H 276.857 -3.49075 1.90766 0
M  V30 2940 H 273.596 -4.56153 4.70749 0
M  V30 2941 H 273.116 -5.13792 3.09481 0
M  V30 2942 H 274.795 -5.3394 3.654 0
M  V30 2943 N 274.927 -0.932562 -1.27047 0
M  V30 2944 C 275.89 -0.440064 -2.24936 0
M  V30 2945 C 276.89 0.444071 -1.54547 0
M  V30 2946 O 278.08 0.244465 -1.72476 0
M  V30 2947 C 275.212 0.36678 -3.38921 0
M  V30 2948 H 276.405 -1.305 -2.70018 0
M  V30 2949 H 273.958 -0.713707 -1.39054 0
M  V30 2950 H 274.693 1.25033 -2.99228 0
M  V30 2951 H 274.478 -0.267204 -3.91188 0
M  V30 2952 H 275.968 0.701567 -4.11665 0
M  V30 2953 N 276.405 1.4127 -0.698611 0
M  V30 2954 C 277.63 2.06024 -0.238512 0
M  V30 2955 C 278.055 1.5224 1.10475 0
M  V30 2956 O 277.413 0.650623 1.69223 0
M  V30 2957 C 277.461 3.59988 -0.209952 0
M  V30 2958 O 276.565 4.04282 0.814235 0
M  V30 2959 H 275.906 0.653829 -0.115775 0
M  V30 2960 H 278.436 1.8098 -0.954326 0
M  V30 2961 H 278.446 4.07979 -0.0418436 0
M  V30 2962 H 277.121 3.98503 -1.1903 0
M  V30 2963 H 275.698 3.6779 0.615234 0
M  V30 2964 N 277.883 0.443576 1.51229 0
M  V30 2965 C 278.813 -0.355142 2.30783 0
M  V30 2966 C 279.794 -1.0154 1.36468 0
M  V30 2967 O 280.979 -1.01785 1.65389 0
M  V30 2968 C 278.109 -1.45312 3.15439 0
M  V30 2969 C 277.063 -0.916002 4.18083 0
M  V30 2970 C 276.389 -2.1102 4.91299 0
M  V30 2971 C 277.689 0.0538602 5.22272 0
M  V30 2972 H 279.383 0.308767 2.97804 0
M  V30 2973 H 276.929 0.149937 1.43217 0
M  V30 2974 H 278.882 -2.01914 3.69876 0
M  V30 2975 H 277.606 -2.14541 2.46252 0
M  V30 2976 H 276.265 -0.372145 3.64706 0
M  V30 2977 H 275.913 -2.78882 4.18609 0
M  V30 2978 H 275.613 -1.75717 5.60712 0
M  V30 2979 H 277.137 -2.68164 5.48562 0
M  V30 2980 H 278.551 -0.422069 5.71744 0
M  V30 2981 H 276.948 0.319776 5.99247 0
M  V30 2982 H 278.018 0.98858 4.74716 0
M  V30 2983 N 279.361 -1.56624 0.175154 0
M  V30 2984 C 280.589 -2.01374 -0.474971 0
M  V30 2985 C 281.004 -1.05537 -1.56548 0
M  V30 2986 O 280.361 -0.0568668 -1.82411 0
M  V30 2987 C 280.412 -3.45923 -1.04975 0
M  V30 2988 O 280.133 -4.381 -0.00276605 0
M  V30 2989 C 281.634 -4.06093 -1.77773 0
M  V30 2990 H 278.854 -0.659962 -0.121206 0
M  V30 2991 H 281.398 -2.02601 0.27801 0
M  V30 2992 H 279.553 -3.45458 -1.75321 0
M  V30 2993 H 279.967 -5.22753 -0.427681 0
M  V30 2994 H 281.441 -5.09147 -2.13245 0
M  V30 2995 H 281.918 -3.48405 -2.67414 0
M  V30 2996 H 282.524 -4.10272 -1.12059 0
M  V30 2997 N 280.839 0.0985539 -1.57292 0
M  V30 2998 C 282.079 0.808332 -1.87737 0
M  V30 2999 C 282.443 1.7607 -0.76572 0
M  V30 3000 O 283.644 2.51358 -0.952499 0
M  V30 3001 C 281.915 1.52093 -3.23423 0
M  V30 3002 S 283.474 2.26947 -3.75554 0
M  V30 3003 H 280.292 0.269377 -0.657995 0
M  V30 3004 H 282.894 0.0656269 -1.9539 0
M  V30 3005 H 281.598 0.81363 -4.02254 0
M  V30 3006 H 281.129 2.30361 -3.189 0
M  V30 3007 H 283.144 3.53027 -3.48692 0
M  V30 3008 N 282.317 1.53212 0.369288 0
M  V30 3009 C 283.565 1.68881 1.11012 0
M  V30 3010 C 283.886 0.441285 1.89941 0
M  V30 3011 O 283.156 -0.544623 1.88177 0
M  V30 3012 H 281.736 0.622569 0.412816 0
M  V30 3013 H 284.398 1.90391 0.416802 0
M  V30 3014 H 283.494 2.54822 1.80201 0
M  V30 3015 N 283.795 -0.628877 1.44509 0
M  V30 3016 C 285.211 -0.947305 1.28446 0
M  V30 3017 C 285.411 -2.00275 0.221872 0
M  V30 3018 O 284.467 -2.49447 -0.391471 0
M  V30 3019 C 285.78 -1.40843 2.65676 0
M  V30 3020 C 287.328 -1.52379 2.73404 0
M  V30 3021 C 287.803 -2.01875 4.11109 0
M  V30 3022 N 289.294 -2.09142 4.13296 0
M  V30 3023 C 290.029 -2.48615 5.16699 0
M  V30 3024 N 289.525 -2.87209 6.30462 0
M  V30 3025 N 291.318 -2.48768 5.04054 0
M  V30 3026 H 283.469 0.0690977 2.12288 0
M  V30 3027 H 285.732 -0.0317164 0.947469 0
M  V30 3028 H 285.438 -0.707206 3.44516 0
M  V30 3029 H 285.312 -2.37902 2.92716 0
M  V30 3030 H 287.699 -2.21598 1.9488 0
M  V30 3031 H 287.78 -0.536898 2.50102 0
M  V30 3032 H 287.424 -1.3325 4.90109 0
M  V30 3033 H 287.354 -3.0144 4.31789 0
M  V30 3034 H 289.845 -1.81991 3.31191 0
M  V30 3035 H 290.158 -3.16149 7.05174 0
M  V30 3036 H 288.503 -2.84955 6.33897 0
M  V30 3037 H 291.694 -2.18009 4.14234 0
M  V30 3038 H 291.867 -2.79207 5.84763 0
M  V30 3039 N 285.273 -1.31445 -0.869486 0
M  V30 3040 C 286.689 -1.10113 -1.15531 0
M  V30 3041 C 286.889 0.128087 -2.01092 0
M  V30 3042 O 285.945 0.817276 -2.38908 0
M  V30 3043 C 287.258 -2.37291 -1.84698 0
M  V30 3044 C 288.806 -2.42906 -1.97397 0
M  V30 3045 C 289.281 -3.69967 -2.69979 0
M  V30 3046 N 290.772 -3.70864 -2.77514 0
M  V30 3047 C 291.507 -4.65875 -3.34287 0
M  V30 3048 N 291.003 -5.71242 -3.91988 0
M  V30 3049 N 292.796 -4.53394 -3.3225 0
M  V30 3050 H 284.947 -2.1028 -0.299347 0
M  V30 3051 H 287.21 -0.927683 -0.195214 0
M  V30 3052 H 286.916 -3.27078 -1.29278 0
M  V30 3053 H 286.79 -2.47125 -2.84972 0
M  V30 3054 H 289.177 -1.53588 -2.51982 0
M  V30 3055 H 289.258 -2.37036 -0.961643 0
M  V30 3056 H 288.902 -4.59652 -2.16062 0
M  V30 3057 H 288.832 -3.73103 -3.7162 0
M  V30 3058 H 291.323 -2.94697 -2.36563 0
M  V30 3059 H 291.636 -6.39817 -4.33421 0
M  V30 3060 H 289.981 -5.75015 -3.90362 0
M  V30 3061 H 293.172 -3.70252 -2.8641 0
M  V30 3062 H 293.345 -5.27617 -3.76197 0
M  V30 3063 N 286.751 1.08385 -1.14413 0
M  V30 3064 C 287.998 1.80776 -0.912482 0
M  V30 3065 C 288.326 1.86236 0.560934 0
M  V30 3066 O 287.581 1.33431 1.43159 0
M  V30 3067 C 287.88 3.26273 -1.45879 0
M  V30 3068 C 287.546 3.4093 -2.95089 0
M  V30 3069 C 286.208 3.44638 -3.35824 0
M  V30 3070 C 288.56 3.44591 -3.91033 0
M  V30 3071 C 285.888 3.49597 -4.71167 0
M  V30 3072 C 288.24 3.51086 -5.26233 0
M  V30 3073 C 286.904 3.53067 -5.6648 0
M  V30 3074 H 286.174 0.661507 -0.333901 0
M  V30 3075 H 288.821 1.27613 -1.42784 0
M  V30 3076 H 287.126 3.82146 -0.864376 0
M  V30 3077 H 288.823 3.80839 -1.2555 0
M  V30 3078 H 285.413 3.38736 -2.62594 0
M  V30 3079 H 289.597 3.40957 -3.60641 0
M  V30 3080 H 284.853 3.49424 -5.0171 0
M  V30 3081 H 289.027 3.52864 -6.00383 0
M  V30 3082 H 286.654 3.56662 -6.71339 0
M  V30 3083 N 288.23 0.939286 1.26551 0
M  V30 3084 C 289.14 0.453432 2.30176 0
M  V30 3085 C 290.156 -0.471649 1.67486 0
M  V30 3086 O 291.332 -0.35164 1.98306 0
M  V30 3087 C 288.397 -0.275326 3.45605 0
M  V30 3088 C 287.458 0.686084 4.23782 0
M  V30 3089 C 286.691 -0.00798994 5.33699 0
M  V30 3090 O 286.914 -1.22528 5.57085 0
M  V30 3091 O 285.848 0.669746 5.98162 0
M  V30 3092 H 289.674 1.31416 2.73795 0
M  V30 3093 H 287.259 0.705095 1.31715 0
M  V30 3094 H 289.141 -0.685911 4.1578 0
M  V30 3095 H 287.816 -1.11147 3.0402 0
M  V30 3096 H 286.723 1.14658 3.56096 0
M  V30 3097 H 288.056 1.48979 4.69112 0
M  V30 3098 N 289.708 -1.40897 0.706093 0
M  V30 3099 C 290.938 -2.05075 0.250523 0
M  V30 3100 C 291.346 -1.53275 -1.10921 0
M  V30 3101 O 290.689 -0.680281 -1.7064 0
M  V30 3102 C 290.751 -3.59219 0.142178 0
M  V30 3103 C 290.415 -4.33864 1.43566 0
M  V30 3104 C 291.412 -4.62448 2.37566 0
M  V30 3105 C 289.097 -4.72946 1.69195 0
M  V30 3106 C 291.091 -5.29088 3.5545 0
M  V30 3107 C 288.778 -5.3932 2.87362 0
M  V30 3108 C 289.776 -5.6732 3.80312 0
M  V30 3109 O 289.464 -6.32325 4.96408 0
M  V30 3110 H 289.196 -0.666645 0.112074 0
M  V30 3111 H 291.75 -1.81467 0.962239 0
M  V30 3112 H 289.98 -3.81609 -0.6254 0
M  V30 3113 H 291.669 -4.0495 -0.277584 0
M  V30 3114 H 292.435 -4.32727 2.19027 0
M  V30 3115 H 288.314 -4.50527 0.977042 0
M  V30 3116 H 291.858 -5.50859 4.28018 0
M  V30 3117 H 287.755 -5.68461 3.05814 0
M  V30 3118 H 288.523 -6.50821 4.9636 0
M  V30 3119 N 291.186 -0.45159 -1.50991 0
M  V30 3120 C 292.463 0.170707 -1.94854 0
M  V30 3121 C 292.843 1.58788 -1.39103 0
M  V30 3122 O 292.191 2.20913 -0.583921 0
M  V30 3123 C 292.401 0.133929 -3.48743 0
M  V30 3124 C 293.749 0.33248 -4.23296 0
M  V30 3125 O 294.773 0.211403 -3.55572 0
M  V30 3126 O 293.632 0.57486 -5.43468 0
M  V30 3127 H 290.726 0.122264 -0.817912 0
M  V30 3128 H 293.272 -0.510594 -1.61836 0
M  V30 3129 H 292.044 -0.856283 -3.81816 0
M  V30 3130 H 291.667 0.857529 -3.88242 0
M  V30 3131 N 292.664 1.56529 -0.183458 0
M  V30 3132 C 293.941 1.88959 0.50536 0
M  V30 3133 C 294.321 1.09523 1.80466 0
M  V30 3134 O 293.669 0.19278 2.27685 0
M  V30 3135 C 293.879 3.41162 0.73547 0
M  V30 3136 C 295.227 4.11155 1.06005 0
M  V30 3137 O 296.251 3.46548 0.823594 0
M  V30 3138 O 295.11 5.25318 1.50675 0
M  V30 3139 H 292.204 0.78441 0.261973 0
M  V30 3140 H 294.75 1.68231 -0.222802 0
M  V30 3141 H 293.522 3.90874 -0.182561 0
M  V30 3142 H 293.145 3.67543 1.51651 0
M  V30 3143 N 294.142 -0.090211 1.57342 0
M  V30 3144 C 295.553 -0.644173 1.75235 0
M  V30 3145 C 295.904 -1.78865 0.806335 0
M  V30 3146 O 295.029 -2.16395 -0.0140128 0
M  V30 3147 C 295.624 -1.17532 3.1776 0
M  V30 3148 C 294.183 -1.67531 3.37061 0
M  V30 3149 C 293.33 -0.58693 2.71017 0
M  V30 3150 H 296.281 0.135884 1.58117 0
M  V30 3151 H 296.302 -2.04455 3.20902 0
M  V30 3152 H 295.814 -0.342138 3.86589 0
M  V30 3153 H 293.915 -2.53234 2.73319 0
M  V30 3154 H 294.028 -1.76493 4.45406 0
M  V30 3155 H 292.392 -1.02756 2.33052 0
M  V30 3156 H 293.175 0.235758 3.4249 0
M  V30 3157 N 295.62 -1.53406 -0.361157 0
M  V30 3158 C 297.036 -1.43277 -0.703124 0
M  V30 3159 C 297.236 -0.575384 -1.9311 0
M  V30 3160 O 296.292 -0.0595362 -2.5243 0
M  V30 3161 C 297.605 -2.8653 -0.9122 0
M  V30 3162 C 299.153 -2.96191 -1.01193 0
M  V30 3163 C 299.628 -4.40514 -1.25345 0
M  V30 3164 N 301.119 -4.43962 -1.32105 0
M  V30 3165 C 301.854 -5.52746 -1.5251 0
M  V30 3166 N 301.35 -6.71567 -1.70203 0
M  V30 3167 N 303.143 -5.40331 -1.54916 0
M  V30 3168 H 295.294 -2.07654 0.446475 0
M  V30 3169 H 297.557 -0.937944 0.137715 0
M  V30 3170 H 297.263 -3.51605 -0.0816414 0
M  V30 3171 H 297.137 -3.30441 -1.81903 0
M  V30 3172 H 299.524 -2.31266 -1.83303 0
M  V30 3173 H 299.605 -2.55667 -0.0823929 0
M  V30 3174 H 299.249 -5.06014 -0.437346 0
M  V30 3175 H 299.179 -4.78614 -2.19627 0
M  V30 3176 H 301.67 -3.58332 -1.20028 0
M  V30 3177 H 301.983 -7.50241 -1.85359 0
M  V30 3178 H 300.328 -6.74545 -1.67373 0
M  V30 3179 H 303.519 -4.46465 -1.40663 0
M  V30 3180 H 303.692 -6.25173 -1.70477 0
M  V30 3181 N 297.098 0.621204 -1.44841 0
M  V30 3182 C 298.345 1.38055 -1.48145 0
M  V30 3183 C 298.673 1.94143 -0.117867 0
M  V30 3184 O 297.928 1.74713 0.881694 0
M  V30 3185 C 298.227 2.55675 -2.4973 0
M  V30 3186 C 297.893 2.17817 -3.94799 0
M  V30 3187 C 296.555 2.07205 -4.34303 0
M  V30 3188 C 298.907 1.88065 -4.86087 0
M  V30 3189 C 296.235 1.65045 -5.63007 0
M  V30 3190 C 298.587 1.47394 -6.15189 0
M  V30 3191 C 297.251 1.35331 -6.53637 0
M  V30 3192 H 296.521 0.505181 -0.542101 0
M  V30 3193 H 299.168 0.703477 -1.78111 0
M  V30 3194 H 297.473 3.2866 -2.13284 0
M  V30 3195 H 299.17 3.13904 -2.4953 0
M  V30 3196 H 295.76 2.26998 -3.63552 0
M  V30 3197 H 299.944 1.95168 -4.56315 0
M  V30 3198 H 295.2 1.54317 -5.91605 0
M  V30 3199 H 299.374 1.23415 -6.85377 0
M  V30 3200 H 297.001 1.02435 -7.53267 0
M  V30 3201 N 298.576 1.31904 0.862503 0
M  V30 3202 C 299.506 1.22782 1.98612 0
M  V30 3203 C 300.487 0.113362 1.69722 0
M  V30 3204 O 301.672 0.299218 1.91881 0
M  V30 3205 C 298.802 0.942058 3.34279 0
M  V30 3206 C 297.756 2.0169 3.77499 0
M  V30 3207 C 297.082 1.58369 5.10709 0
M  V30 3208 C 298.382 3.43096 3.93805 0
M  V30 3209 H 300.076 2.16788 2.06502 0
M  V30 3210 H 297.622 1.04366 0.992154 0
M  V30 3211 H 299.575 0.864818 4.1243 0
M  V30 3212 H 298.299 -0.0336603 3.26583 0
M  V30 3213 H 296.958 2.08416 3.01593 0
M  V30 3214 H 296.606 0.595628 4.99461 0
M  V30 3215 H 296.306 2.30279 5.40597 0
M  V30 3216 H 297.83 1.52067 5.91361 0
M  V30 3217 H 299.244 3.39003 4.62331 0
M  V30 3218 H 297.641 4.13288 4.35101 0
M  V30 3219 H 298.711 3.83334 2.96957 0
M  V30 3220 N 300.054 -1.07777 1.14986 0
M  V30 3221 C 301.47 -1.32373 0.891596 0
M  V30 3222 C 301.67 -1.9609 -0.463788 0
M  V30 3223 O 300.726 -2.21801 -1.20667 0
M  V30 3224 C 302.039 -2.21905 2.02925 0
M  V30 3225 C 303.587 -2.35367 2.06329 0
M  V30 3226 C 304.062 -3.28245 3.19405 0
M  V30 3227 N 305.553 -3.35824 3.19024 0
M  V30 3228 C 306.288 -4.07739 4.03158 0
M  V30 3229 N 305.784 -4.82306 4.97346 0
M  V30 3230 N 307.577 -4.03635 3.91197 0
M  V30 3231 H 299.728 -0.648039 2.02273 0
M  V30 3232 H 301.991 -0.348149 0.881757 0
M  V30 3233 H 301.697 -1.82342 3.0074 0
M  V30 3234 H 301.571 -3.22407 1.95789 0
M  V30 3235 H 303.958 -2.74186 1.09116 0
M  V30 3236 H 304.039 -1.34585 2.17533 0
M  V30 3237 H 303.683 -2.90146 4.16867 0
M  V30 3238 H 303.613 -4.28971 3.05437 0
M  V30 3239 H 306.104 -2.8267 2.50811 0
M  V30 3240 H 306.417 -5.34661 5.57994 0
M  V30 3241 H 304.762 -4.81337 5.01338 0
M  V30 3242 H 307.953 -3.44491 3.16928 0
M  V30 3243 H 308.126 -4.59417 4.5699 0
M  V30 3244 N 301.532 -0.945985 -1.26051 0
M  V30 3245 C 302.462 -0.477172 -2.28572 0
M  V30 3246 C 303.443 0.472032 -1.63419 0
M  V30 3247 O 304.628 0.372853 -1.90587 0
M  V30 3248 C 301.758 0.253975 -3.4637 0
M  V30 3249 C 300.712 -0.609135 -4.23643 0
M  V30 3250 C 300.038 0.252252 -5.34105 0
M  V30 3251 C 301.338 -1.8829 -4.8718 0
M  V30 3252 H 303.032 -1.33402 -2.68038 0
M  V30 3253 H 300.578 -0.642904 -1.28852 0
M  V30 3254 H 302.531 0.593016 -4.17207 0
M  V30 3255 H 301.255 1.145 -3.05871 0
M  V30 3256 H 299.914 -0.931138 -3.54578 0
M  V30 3257 H 299.562 1.14278 -4.89846 0
M  V30 3258 H 299.262 -0.32188 -5.86718 0
M  V30 3259 H 300.786 0.586454 -6.07777 0
M  V30 3260 H 302.2 -1.61081 -5.50205 0
M  V30 3261 H 300.597 -2.40199 -5.49931 0
M  V30 3262 H 301.667 -2.59134 -4.09851 0
M  V30 3263 N 303.011 1.40521 -0.713556 0
M  V30 3264 C 303.941 2.33381 -0.0743864 0
M  V30 3265 C 304.922 1.52784 0.747735 0
M  V30 3266 O 306.107 1.81258 0.697071 0
M  V30 3267 C 303.237 3.36748 0.849598 0
M  V30 3268 C 302.191 4.27793 0.133247 0
M  V30 3269 C 301.517 5.21679 1.17281 0
M  V30 3270 C 302.817 5.12415 -1.01134 0
M  V30 3271 H 304.511 2.87081 -0.850007 0
M  V30 3272 H 302.057 1.38034 -0.410201 0
M  V30 3273 H 304.01 4.00648 1.30612 0
M  V30 3274 H 302.734 2.81439 1.65709 0
M  V30 3275 H 301.393 3.65342 -0.303426 0
M  V30 3276 H 301.041 4.62677 1.9733 0
M  V30 3277 H 300.741 5.83435 0.698397 0
M  V30 3278 H 302.265 5.88456 1.62947 0
M  V30 3279 H 303.679 5.69781 -0.634274 0
M  V30 3280 H 302.076 5.83203 -1.41399 0
M  V30 3281 H 303.146 4.48514 -1.84292 0
M  V30 3282 N 304.489 0.459591 1.5075 0
M  V30 3283 C 305.766 -0.160371 1.94941 0
M  V30 3284 C 306.146 -1.58048 1.39943 0
M  V30 3285 O 305.494 -2.206 0.595629 0
M  V30 3286 C 305.704 -0.115432 3.48809 0
M  V30 3287 C 307.052 -0.310026 4.23467 0
M  V30 3288 O 308.076 -0.192543 3.55679 0
M  V30 3289 O 306.935 -0.546031 5.43765 0
M  V30 3290 H 304.029 -0.117925 0.818549 0
M  V30 3291 H 306.575 0.519169 1.61563 0
M  V30 3292 H 305.347 0.87652 3.81357 0
M  V30 3293 H 304.97 -0.836928 3.88692 0
M  V30 3294 N 305.967 -1.56429 0.191757 0
M  V30 3295 C 306.897 -2.21937 -0.725696 0
M  V30 3296 C 307.878 -1.1814 -1.2238 0
M  V30 3297 O 309.063 -1.46636 -1.27325 0
M  V30 3298 C 306.193 -2.87611 -1.94672 0
M  V30 3299 C 305.147 -3.97623 -1.58366 0
M  V30 3300 C 304.473 -4.50446 -2.88102 0
M  V30 3301 C 305.773 -5.16197 -0.796133 0
M  V30 3302 H 307.467 -2.98861 -0.179606 0
M  V30 3303 H 305.013 -1.43749 -0.0849464 0
M  V30 3304 H 306.966 -3.3212 -2.59373 0
M  V30 3305 H 305.69 -2.08087 -2.51728 0
M  V30 3306 H 304.349 -3.53801 -0.960247 0
M  V30 3307 H 303.997 -3.67688 -3.43241 0
M  V30 3308 H 303.697 -5.24675 -2.64556 0
M  V30 3309 H 305.221 -4.97654 -3.53798 0
M  V30 3310 H 306.635 -5.57271 -1.34618 0
M  V30 3311 H 305.032 -5.96471 -0.658928 0
M  V30 3312 H 306.102 -4.84473 0.203478 0
M  V30 3313 N 307.445 0.0818655 -1.57387 0
M  V30 3314 C 308.408 1.08265 -2.02018 0
M  V30 3315 C 309.408 1.32183 -0.915664 0
M  V30 3316 O 310.598 1.28073 -1.18081 0
M  V30 3317 C 307.73 2.42871 -2.39221 0
M  V30 3318 H 308.923 0.698204 -2.91659 0
M  V30 3319 H 306.476 0.327303 -1.52835 0
M  V30 3320 H 307.211 2.86167 -1.52575 0
M  V30 3321 H 306.996 2.26855 -3.19811 0
M  V30 3322 H 308.486 3.14826 -2.74362 0
M  V30 3323 N 308.923 1.53595 0.353017 0
M  V30 3324 C 309.855 1.77219 1.45348 0
M  V30 3325 C 310.868 0.65324 1.49119 0
M  V30 3326 O 312.057 0.929775 1.52373 0
M  V30 3327 C 309.157 1.84841 2.84055 0
M  V30 3328 C 308.33 3.14649 3.03833 0
M  V30 3329 C 307.389 3.13351 4.22727 0
M  V30 3330 O 306.415 3.87107 4.17297 0
M  V30 3331 N 307.617 2.35052 5.30783 0
M  V30 3332 H 310.382 2.72178 1.25457 0
M  V30 3333 H 307.943 1.52528 0.542833 0
M  V30 3334 H 309.935 1.81435 3.61751 0
M  V30 3335 H 308.505 0.971114 2.97133 0
M  V30 3336 H 307.725 3.31256 2.13689 0
M  V30 3337 H 309.013 4.00411 3.13925 0
M  V30 3338 H 308.411 1.74663 5.38061 0
M  V30 3339 H 306.968 2.37453 6.07009 0
M  V30 3340 N 310.401 -0.613514 1.45168 0
M  V30 3341 C 311.311 -1.75296 1.55912 0
M  V30 3342 C 312.327 -1.68244 0.443856 0
M  V30 3343 O 313.503 -1.88706 0.70371 0
M  V30 3344 C 310.568 -3.1174 1.5172 0
M  V30 3345 C 309.629 -3.30291 2.74238 0
M  V30 3346 C 308.862 -4.60226 2.70236 0
M  V30 3347 O 309.085 -5.42168 1.77229 0
M  V30 3348 O 308.019 -4.81361 3.61352 0
M  V30 3349 H 311.845 -1.69183 2.52212 0
M  V30 3350 H 309.43 -0.776886 1.27612 0
M  V30 3351 H 311.312 -3.93044 1.51968 0
M  V30 3352 H 309.987 -3.18357 0.585697 0
M  V30 3353 H 308.894 -2.48598 2.79553 0
M  V30 3354 H 310.227 -3.28547 3.66494 0
M  V30 3355 N 311.879 -1.3236 -0.855495 0
M  V30 3356 C 313.127 -1.22629 -1.60644 0
M  V30 3357 C 313.448 0.212136 -1.93843 0
M  V30 3358 O 312.718 1.13666 -1.59552 0
M  V30 3359 H 311.298 -0.450882 -0.595579 0
M  V30 3360 H 313.96 -1.65871 -1.02337 0
M  V30 3361 H 313.056 -1.80832 -2.54374 0
M  V30 3362 N 313.357 1.07166 -1.15556 0
M  V30 3363 C 314.287 2.16403 -0.877046 0
M  V30 3364 C 315.268 1.69217 0.173111 0
M  V30 3365 O 316.453 1.94181 0.027084 0
M  V30 3366 C 313.583 3.45349 -0.367632 0
M  V30 3367 C 312.537 4.05995 -1.35468 0
M  V30 3368 C 311.863 5.30045 -0.704038 0
M  V30 3369 C 313.163 4.45804 -2.72132 0
M  V30 3370 H 314.857 2.39959 -1.79053 0
M  V30 3371 H 312.403 1.15325 -0.862331 0
M  V30 3372 H 314.356 4.21095 -0.160317 0
M  V30 3373 H 313.08 3.21385 0.581326 0
M  V30 3374 H 311.739 3.32296 -1.54839 0
M  V30 3375 H 311.387 5.02373 0.251128 0
M  V30 3376 H 311.087 5.71579 -1.36277 0
M  V30 3377 H 312.611 6.08495 -0.50654 0
M  V30 3378 H 314.025 5.12671 -2.56595 0
M  V30 3379 H 312.422 4.98296 -3.34397 0
M  V30 3380 H 313.492 3.57083 -3.28054 0
M  V30 3381 N 314.835 0.952656 1.25548 0
M  V30 3382 C 315.782 0.47008 2.25962 0
M  V30 3383 C 316.752 -0.476384 1.59122 0
M  V30 3384 O 317.937 -0.39007 1.8677 0
M  V30 3385 C 315.077 -0.247881 3.44209 0
M  V30 3386 C 314.19 0.735591 4.25691 0
M  V30 3387 C 313.325 -0.0047306 5.312 0
M  V30 3388 C 312.364 0.969805 6.04368 0
M  V30 3389 N 311.501 0.260486 7.01617 0
M  V30 3390 H 316.341 1.33126 2.66611 0
M  V30 3391 H 313.878 0.66765 1.31076 0
M  V30 3392 H 315.836 -0.680695 4.1161 0
M  V30 3393 H 314.466 -1.07312 3.0444 0
M  V30 3394 H 313.518 1.28689 3.57971 0
M  V30 3395 H 314.83 1.47934 4.76358 0
M  V30 3396 H 313.984 -0.496275 6.04667 0
M  V30 3397 H 312.723 -0.781282 4.81401 0
M  V30 3398 H 311.728 1.47237 5.29718 0
M  V30 3399 H 312.953 1.74655 6.56256 0
M  V30 3400 H 310.899 -0.497364 6.54112 0
M  V30 3401 H 310.816 0.943362 7.50091 0
M  V30 3402 H 312.084 -0.209587 7.79218 0
M  V30 3403 N 316.313 -1.40141 0.720998 0
M  V30 3404 C 317.223 -2.34486 0.0731031 0
M  V30 3405 C 318.239 -1.57587 -0.737723 0
M  V30 3406 O 319.415 -1.89949 -0.669429 0
M  V30 3407 C 316.48 -3.36528 -0.833656 0
M  V30 3408 C 315.541 -4.29298 -0.0121673 0
M  V30 3409 C 314.774 -5.26466 -0.875742 0
M  V30 3410 O 314.997 -5.29745 -2.11485 0
M  V30 3411 O 313.931 -6.01092 -0.31185 0
M  V30 3412 H 317.757 -2.9152 0.851444 0
M  V30 3413 H 315.342 -1.41427 0.481527 0
M  V30 3414 H 317.224 -3.99093 -1.35289 0
M  V30 3415 H 315.899 -2.81899 -1.59105 0
M  V30 3416 H 314.806 -3.70001 0.552262 0
M  V30 3417 H 316.139 -4.87094 0.707129 0
M  V30 3418 N 317.792 -0.46758 -1.50504 0
M  V30 3419 C 318.702 0.33382 -2.32213 0
M  V30 3420 C 319.718 0.999323 -1.42441 0
M  V30 3421 O 320.894 0.988068 -1.75497 0
M  V30 3422 C 317.959 1.4035 -3.17022 0
M  V30 3423 C 317.02 0.754961 -4.2261 0
M  V30 3424 C 316.253 1.77367 -5.03365 0
M  V30 3425 O 316.476 2.99976 -4.8515 0
M  V30 3426 O 315.41 1.34744 -5.86624 0
M  V30 3427 H 319.236 -0.334067 -3.01857 0
M  V30 3428 H 316.821 -0.229496 -1.47627 0
M  V30 3429 H 318.703 2.02318 -3.69656 0
M  V30 3430 H 317.378 2.05492 -2.5011 0
M  V30 3431 H 316.285 0.0964244 -3.73976 0
M  V30 3432 H 317.618 0.146545 -4.91982 0
M  V30 3433 N 319.27 1.56325 -0.20005 0
M  V30 3434 C 320.495 2.02548 0.44597 0
M  V30 3435 C 320.92 1.07922 1.5406 0
M  V30 3436 O 320.278 0.0635775 1.81188 0
M  V30 3437 C 320.326 3.47175 0.974761 0
M  V30 3438 O 319.43 3.55671 2.08739 0
M  V30 3439 H 318.771 0.655862 0.103638 0
M  V30 3440 H 321.301 2.02201 -0.312381 0
M  V30 3441 H 321.311 3.87067 1.2901 0
M  V30 3442 H 319.986 4.15538 0.17347 0
M  V30 3443 H 318.563 3.27657 1.78032 0
M  V30 3444 N 320.748 -0.0735177 1.57428 0
M  V30 3445 C 321.996 -0.771472 1.86796 0
M  V30 3446 C 322.317 -1.78201 0.791804 0
M  V30 3447 O 321.587 -1.95074 -0.179718 0
M  V30 3448 H 320.167 -0.28791 0.689287 0
M  V30 3449 H 322.829 -0.0500161 1.94836 0
M  V30 3450 H 321.925 -1.28874 2.8425 0
M  V30 3451 N 322.226 -1.5378 -0.344866 0
M  V30 3452 C 323.473 -1.70963 -1.08526 0
M  V30 3453 C 323.801 -0.472126 -1.88683 0
M  V30 3454 O 323.056 0.546116 -1.87926 0
M  V30 3455 C 323.355 -2.92407 -2.05506 0
M  V30 3456 C 323.021 -4.28066 -1.41671 0
M  V30 3457 C 321.683 -4.64951 -1.2399 0
M  V30 3458 C 324.035 -5.12344 -0.956726 0
M  V30 3459 C 321.363 -5.83733 -0.589277 0
M  V30 3460 C 323.715 -6.3179 -0.320015 0
M  V30 3461 C 322.379 -6.67372 -0.130881 0
M  V30 3462 H 321.649 -0.625598 -0.397124 0
M  V30 3463 H 324.296 -1.87995 -0.36469 0
M  V30 3464 H 322.601 -2.69973 -2.8394 0
M  V30 3465 H 324.298 -3.02895 -2.62784 0
M  V30 3466 H 320.888 -3.99034 -1.56429 0
M  V30 3467 H 325.072 -4.8438 -1.08118 0
M  V30 3468 H 320.328 -6.09877 -0.431344 0
M  V30 3469 H 324.502 -6.96386 0.0445072 0
M  V30 3470 H 322.129 -7.59273 0.375318 0
M  V30 3471 N 323.704 0.605807 -1.45491 0
M  V30 3472 C 324.634 1.72709 -1.57143 0
M  V30 3473 C 325.615 1.6476 -0.422884 0
M  V30 3474 O 326.8 1.83132 -0.646247 0
M  V30 3475 C 323.93 3.11316 -1.53948 0
M  V30 3476 C 322.884 3.34077 -2.67537 0
M  V30 3477 C 322.21 4.72975 -2.49397 0
M  V30 3478 C 323.51 3.24158 -4.09535 0
M  V30 3479 H 325.204 1.63214 -2.51001 0
M  V30 3480 H 322.75 0.78379 -1.208 0
M  V30 3481 H 324.703 3.89557 -1.60696 0
M  V30 3482 H 323.427 3.21655 -0.566205 0
M  V30 3483 H 322.086 2.58227 -2.6022 0
M  V30 3484 H 321.734 4.8005 -1.50205 0
M  V30 3485 H 321.434 4.8916 -3.25571 0
M  V30 3486 H 322.958 5.53414 -2.58002 0
M  V30 3487 H 324.372 3.92271 -4.18086 0
M  V30 3488 H 322.769 3.51872 -4.86113 0
M  V30 3489 H 323.839 2.2157 -4.31317 0
M  V30 3490 N 325.182 1.32811 0.848464 0
M  V30 3491 C 326.598 1.11937 1.13764 0
M  V30 3492 C 326.798 -0.0960789 2.01271 0
M  V30 3493 O 325.854 -0.779165 2.40178 0
M  V30 3494 C 327.167 2.402 1.809 0
M  V30 3495 C 328.715 2.46016 1.93508 0
M  V30 3496 C 329.19 3.74215 2.64059 0
M  V30 3497 N 330.681 3.75232 2.71579 0
M  V30 3498 C 331.416 4.71134 3.26833 0
M  V30 3499 N 330.912 5.77406 3.8285 0
M  V30 3500 N 332.705 4.58623 3.24995 0
M  V30 3501 H 324.856 2.1073 0.265855 0
M  V30 3502 H 327.119 0.930671 0.180431 0
M  V30 3503 H 326.825 3.29093 1.24058 0
M  V30 3504 H 326.699 2.51628 2.81004 0
M  V30 3505 H 329.086 1.57577 2.49506 0
M  V30 3506 H 329.167 2.38536 0.923811 0
M  V30 3507 H 328.811 4.63031 2.08722 0
M  V30 3508 H 328.741 3.78968 3.65637 0
M  V30 3509 H 331.232 2.98423 2.31845 0
M  V30 3510 H 331.545 6.46632 4.23187 0
M  V30 3511 H 329.89 5.81152 3.81165 0
M  V30 3512 H 333.081 3.74762 2.80484 0
M  V30 3513 H 333.254 5.33535 3.67756 0
M  V30 3514 N 326.66 -1.06551 1.16123 0
M  V30 3515 C 327.57 -2.17484 0.879662 0
M  V30 3516 C 328.586 -1.73377 -0.147104 0
M  V30 3517 O 329.762 -2.01379 0.0289128 0
M  V30 3518 C 326.827 -3.44591 0.381829 0
M  V30 3519 C 325.888 -4.0322 1.4735 0
M  V30 3520 C 325.121 -5.24261 0.999324 0
M  V30 3521 O 325.344 -5.70198 -0.151957 0
M  V30 3522 O 324.278 -5.74775 1.78653 0
M  V30 3523 H 328.104 -2.44075 1.80724 0
M  V30 3524 H 325.689 -1.16042 0.940992 0
M  V30 3525 H 327.571 -4.21254 0.111053 0
M  V30 3526 H 326.246 -3.19532 -0.51777 0
M  V30 3527 H 325.153 -3.2806 1.79798 0
M  V30 3528 H 326.486 -4.32568 2.34831 0
M  V30 3529 N 328.138 -0.959301 -1.25041 0
M  V30 3530 C 329.384 -0.617525 -1.9317 0
M  V30 3531 C 329.717 0.843981 -1.74902 0
M  V30 3532 O 328.992 1.60615 -1.09696 0
M  V30 3533 C 329.275 -0.982736 -3.46431 0
M  V30 3534 C 329.128 -2.50032 -3.73904 0
M  V30 3535 C 330.447 -0.511176 -4.37121 0
M  V30 3536 H 327.566 -0.22582 -0.701552 0
M  V30 3537 H 330.208 -1.19679 -1.4757 0
M  V30 3538 H 328.358 -0.489806 -3.854 0
M  V30 3539 H 330.03 -3.06737 -3.44544 0
M  V30 3540 H 328.273 -2.93598 -3.19348 0
M  V30 3541 H 328.944 -2.70635 -4.81103 0
M  V30 3542 H 331.42 -0.934075 -4.0548 0
M  V30 3543 H 330.296 -0.795361 -5.43107 0
M  V30 3544 H 330.557 0.588834 -4.38161 0
M  V30 3545 N 329.616 1.39756 -0.72842 0
M  V30 3546 C 330.546 2.33289 -0.0991354 0
M  V30 3547 C 331.527 1.53568 0.731489 0
M  V30 3548 O 332.712 1.81987 0.677807 0
M  V30 3549 C 329.842 3.3763 0.813834 0
M  V30 3550 C 328.796 4.2791 0.0878663 0
M  V30 3551 C 328.122 5.22894 1.11741 0
M  V30 3552 C 329.422 5.11314 -1.06563 0
M  V30 3553 H 331.116 2.86163 -0.880408 0
M  V30 3554 H 328.662 1.37591 -0.424819 0
M  V30 3555 H 330.615 4.0201 1.26355 0
M  V30 3556 H 329.339 2.83181 1.62715 0
M  V30 3557 H 327.998 3.65 -0.342159 0
M  V30 3558 H 327.646 4.64744 1.92412 0
M  V30 3559 H 327.346 5.84143 0.636477 0
M  V30 3560 H 328.87 5.90151 1.56697 0
M  V30 3561 H 330.284 5.69076 -0.694671 0
M  V30 3562 H 328.681 5.81671 -1.47577 0
M  V30 3563 H 329.751 4.46534 -1.89038 0
M  V30 3564 N 331.094 0.475555 1.50254 0
M  V30 3565 C 332.042 -0.330276 2.30243 0
M  V30 3566 C 333.036 -0.986306 1.37726 0
M  V30 3567 O 334.242 -0.9169 1.54897 0
M  V30 3568 H 330.617 -0.125353 0.741479 0
M  V30 3569 H 332.588 0.364702 2.96163 0
M  V30 3570 C 331.337 -1.39704 3.18399 0
M  V30 3571 H 330.66 -0.901621 3.89501 0
M  V30 3572 H 332.1 -1.93336 3.77355 0
M  V30 3573 C 330.559 -2.4014 2.36293 0
M  V30 3574 O 331.089 -3.45504 2.04914 0
M  V30 3575 N 329.295 -2.1197 1.98789 0
M  V30 3576 H 328.842 -1.2631 2.24507 0
M  V30 3577 H 328.8 -2.79403 1.44157 0
M  V30 3578 N 332.573 -1.56217 0.208337 0
M  V30 3579 C 333.536 -2.18455 -0.693557 0
M  V30 3580 C 334.536 -1.14268 -1.13135 0
M  V30 3581 O 335.726 -1.39577 -1.0423 0
M  V30 3582 C 332.858 -2.79727 -1.94848 0
M  V30 3583 H 334.051 -2.99519 -0.15114 0
M  V30 3584 H 331.604 -1.56245 -0.041287 0
M  V30 3585 H 332.339 -2.02497 -2.53309 0
M  V30 3586 H 332.124 -3.56009 -1.64316 0
M  V30 3587 H 333.614 -3.27475 -2.59133 0
M  V30 3588 N 334.051 0.0651679 -1.57465 0
M  V30 3589 C 335.297 0.764193 -1.87851 0
M  V30 3590 C 335.63 1.76889 -0.801495 0
M  V30 3591 O 334.905 1.93594 0.187528 0
M  V30 3592 C 335.188 1.46625 -3.28897 0
M  V30 3593 C 335.041 0.477515 -4.47258 0
M  V30 3594 C 336.36 2.4095 -3.68281 0
M  V30 3595 H 333.479 0.276351 -0.683227 0
M  V30 3596 H 336.121 0.0272868 -1.8998 0
M  V30 3597 H 334.271 2.09438 -3.27212 0
M  V30 3598 H 335.943 -0.145922 -4.61069 0
M  V30 3599 H 334.186 -0.206576 -4.33308 0
M  V30 3600 H 334.857 1.0065 -5.42746 0
M  V30 3601 H 337.333 1.88209 -3.71102 0
M  V30 3602 H 336.209 2.87072 -4.67847 0
M  V30 3603 H 336.47 3.26049 -2.98571 0
M  V30 3604 N 335.529 1.53961 0.336706 0
M  V30 3605 C 336.94 1.62914 0.911925 0
M  V30 3606 C 337.291 0.514795 1.89326 0
M  V30 3607 O 336.416 -0.354395 2.13478 0
M  V30 3608 C 337.011 2.95304 1.66076 0
M  V30 3609 C 335.57 3.06496 2.18489 0
M  V30 3610 C 334.717 2.58403 1.00613 0
M  V30 3611 H 337.668 1.58285 0.114649 0
M  V30 3612 H 337.689 2.84727 2.5241 0
M  V30 3613 H 337.201 3.76387 0.946276 0
M  V30 3614 H 335.302 2.3006 2.93092 0
M  V30 3615 H 335.415 4.1208 2.44391 0
M  V30 3616 H 333.779 2.13977 1.38152 0
M  V30 3617 H 334.562 3.41932 0.306179 0
M  V30 3618 N 337.007 -0.598083 1.45811 0
M  V30 3619 C 338.253 -1.35882 1.50545 0
M  V30 3620 C 338.586 -1.93616 0.150445 0
M  V30 3621 O 337.861 -1.75604 -0.83628 0
M  V30 3622 C 338.144 -2.49966 2.59208 0
M  V30 3623 C 337.997 -1.97367 4.04186 0
M  V30 3624 C 339.316 -3.52068 2.64076 0
M  V30 3625 H 336.435 -0.492717 0.548087 0
M  V30 3626 H 339.077 -0.673319 1.77669 0
M  V30 3627 H 337.227 -3.08443 2.3621 0
M  V30 3628 H 338.899 -1.43466 4.38423 0
M  V30 3629 H 337.142 -1.283 4.14393 0
M  V30 3630 H 337.813 -2.79649 4.75921 0
M  V30 3631 H 340.289 -3.03448 2.84708 0
M  V30 3632 H 339.165 -4.2937 3.41954 0
M  V30 3633 H 339.426 -4.08304 1.69531 0
M  V30 3634 N 338.485 -1.33259 -0.841409 0
M  V30 3635 C 339.415 -1.25926 -1.96634 0
M  V30 3636 C 340.396 -0.140349 -1.6952 0
M  V30 3637 O 341.581 -0.329707 -1.91381 0
M  V30 3638 C 338.711 -0.99512 -3.32738 0
M  V30 3639 C 337.665 -2.0767 -3.74242 0
M  V30 3640 C 336.991 -1.66474 -5.08125 0
M  V30 3641 C 338.291 -3.49318 -3.88297 0
M  V30 3642 H 339.985 -2.20046 -2.03027 0
M  V30 3643 H 337.531 -1.05931 -0.975425 0
M  V30 3644 H 339.484 -0.930323 -4.11002 0
M  V30 3645 H 338.208 -0.0183004 -3.26595 0
M  V30 3646 H 336.867 -2.13187 -2.98239 0
M  V30 3647 H 336.515 -0.675012 -4.9845 0
M  V30 3648 H 336.215 -2.3885 -5.36865 0
M  V30 3649 H 337.739 -1.61455 -5.88867 0
M  V30 3650 H 339.153 -3.46316 -4.56879 0
M  V30 3651 H 337.55 -4.20158 -4.28471 0
M  V30 3652 H 338.62 -3.8801 -2.9082 0
M  V30 3653 N 339.963 1.05934 -1.16686 0
M  V30 3654 C 340.893 2.1546 -0.899949 0
M  V30 3655 C 341.874 1.69391 0.155154 0
M  V30 3656 O 343.059 1.94199 0.00648693 0
M  V30 3657 C 340.189 3.44939 -0.404241 0
M  V30 3658 C 339.143 4.04536 -1.39767 0
M  V30 3659 C 338.469 5.29268 -0.760216 0
M  V30 3660 C 339.769 4.42893 -2.76845 0
M  V30 3661 H 341.463 2.38046 -1.81588 0
M  V30 3662 H 339.009 1.14404 -0.874514 0
M  V30 3663 H 340.962 4.20901 -0.204971 0
M  V30 3664 H 339.686 3.21983 0.547206 0
M  V30 3665 H 338.345 3.30635 -1.58355 0
M  V30 3666 H 337.993 5.02611 0.197831 0
M  V30 3667 H 337.693 5.70101 -1.42332 0
M  V30 3668 H 339.217 6.07924 -0.57105 0
M  V30 3669 H 340.631 5.09921 -2.62019 0
M  V30 3670 H 339.028 4.94721 -3.39663 0
M  V30 3671 H 340.098 3.53584 -3.31823 0
M  V30 3672 N 341.441 0.965919 1.2453 0
M  V30 3673 C 342.391 0.465731 2.23193 0
M  V30 3674 C 343.375 -0.451277 1.54442 0
M  V30 3675 O 344.567 -0.282489 1.74731 0
M  V30 3676 C 341.696 -0.244511 3.42428 0
M  V30 3677 C 340.782 0.691222 4.18429 0
M  V30 3678 N 341.173 1.82771 4.71623 0
M  V30 3679 C 339.471 0.501649 4.4317 0
M  V30 3680 C 340.172 2.41285 5.29298 0
M  V30 3681 N 339.148 1.69819 5.16394 0
M  V30 3682 H 342.95 1.33291 2.61937 0
M  V30 3683 H 340.464 0.824789 1.39896 0
M  V30 3684 H 342.461 -0.620056 4.12263 0
M  V30 3685 H 341.121 -1.10815 3.05205 0
M  V30 3686 H 342.132 2.20929 4.68413 0
M  V30 3687 H 338.809 -0.318177 4.16286 0
M  V30 3688 H 340.199 3.37181 5.8117 0
M  V30 3689 N 342.919 -1.39368 0.735821 0
M  V30 3690 C 344.168 -1.99733 0.281004 0
M  V30 3691 C 344.481 -1.59055 -1.13846 0
M  V30 3692 O 345.687 -2.12262 -1.69284 0
M  V30 3693 C 344.143 -3.57057 0.451462 0
M  V30 3694 C 343.751 -4.06697 1.87886 0
M  V30 3695 C 345.495 -4.2446 0.0584616 0
M  V30 3696 C 343.402 -5.56598 1.99883 0
M  V30 3697 H 342.332 -0.747163 0.101311 0
M  V30 3698 H 344.983 -1.59357 0.909819 0
M  V30 3699 H 343.365 -3.95234 -0.246263 0
M  V30 3700 H 344.539 -3.79853 2.60861 0
M  V30 3701 H 342.854 -3.5196 2.22515 0
M  V30 3702 H 345.451 -5.34549 0.127099 0
M  V30 3703 H 345.794 -4.04444 -0.986433 0
M  V30 3704 H 346.327 -3.9146 0.707374 0
M  V30 3705 H 343.066 -5.81494 3.02564 0
M  V30 3706 H 342.586 -5.85242 1.31346 0
M  V30 3707 H 344.265 -6.22022 1.78039 0
M  V30 3708 N 344.397 -0.483516 -1.5 0
M  V30 3709 C 345.808 -0.0314176 -1.86674 0
M  V30 3710 C 346.159 1.37728 -1.39733 0
M  V30 3711 O 345.284 2.02327 -0.767635 0
M  V30 3712 C 345.879 -0.0502376 -3.38763 0
M  V30 3713 C 344.438 0.346442 -3.74802 0
M  V30 3714 C 343.585 -0.430366 -2.7394 0
M  V30 3715 H 346.536 -0.697182 -1.42566 0
M  V30 3716 H 346.557 0.749116 -3.73053 0
M  V30 3717 H 346.069 -1.07563 -3.72897 0
M  V30 3718 H 344.17 1.37572 -3.46273 0
M  V30 3719 H 344.283 0.0391486 -4.79084 0
M  V30 3720 H 342.647 0.117557 -2.54429 0
M  V30 3721 H 343.43 -1.4555 -3.10918 0
M  V30 3722 N 345.875 1.56104 -0.216619 0
M  V30 3723 C 346.838 2.18819 0.681962 0
M  V30 3724 C 347.838 1.14866 1.12528 0
M  V30 3725 O 349.028 1.40128 1.03488 0
M  V30 3726 C 346.16 2.80756 1.93362 0
M  V30 3727 H 347.353 2.99595 0.135254 0
M  V30 3728 H 344.906 1.56265 0.0330003 0
M  V30 3729 H 345.641 2.03837 2.52232 0
M  V30 3730 H 345.426 3.56876 1.62426 0
M  V30 3731 H 346.916 3.28844 2.57393 0
M  V30 3732 N 347.353 -0.0568162 1.57498 0
M  V30 3733 C 348.283 -1.06593 2.0775 0
M  V30 3734 C 349.264 -1.39448 0.974082 0
M  V30 3735 O 350.449 -1.48815 1.24771 0
M  V30 3736 C 347.579 -2.37509 2.5339 0
M  V30 3737 C 346.533 -2.1897 3.67745 0
M  V30 3738 C 345.859 -3.55402 3.99492 0
M  V30 3739 C 347.159 -1.59859 4.97235 0
M  V30 3740 H 348.853 -0.647706 2.9231 0
M  V30 3741 H 346.399 -0.310116 1.40621 0
M  V30 3742 H 348.352 -3.08409 2.87162 0
M  V30 3743 H 347.076 -2.8134 1.65878 0
M  V30 3744 H 345.735 -1.50508 3.3428 0
M  V30 3745 H 345.383 -3.9683 3.09088 0
M  V30 3746 H 345.083 -3.43831 4.76502 0
M  V30 3747 H 346.607 -4.27708 4.35773 0
M  V30 3748 H 348.021 -2.20642 5.29141 0
M  V30 3749 H 346.418 -1.58942 5.78669 0
M  V30 3750 H 347.488 -0.561506 4.81638 0
M  V30 3751 N 348.832 -1.54138 -0.328536 0
M  V30 3752 C 349.795 -1.82462 -1.38709 0
M  V30 3753 C 350.795 -0.696229 -1.44946 0
M  V30 3754 O 351.985 -0.964535 -1.4506 0
M  V30 3755 C 349.117 -1.98018 -2.77492 0
M  V30 3756 H 350.31 -2.77037 -1.14851 0
M  V30 3757 H 347.863 -1.45779 -0.563751 0
M  V30 3758 H 348.598 -1.05637 -3.06613 0
M  V30 3759 H 348.383 -2.80124 -2.74359 0
M  V30 3760 H 349.873 -2.21396 -3.54081 0
M  V30 3761 N 350.31 0.590341 -1.46126 0
M  V30 3762 C 351.558 1.34616 -1.50742 0
M  V30 3763 C 351.879 1.94363 -0.157486 0
M  V30 3764 O 351.149 1.78136 0.815136 0
M  V30 3765 H 349.729 0.499789 -0.555175 0
M  V30 3766 H 352.391 0.691953 -1.82203 0
M  V30 3767 H 351.487 2.15678 -2.25587 0
M  V30 3768 N 351.788 1.33704 0.83433 0
M  V30 3769 C 352.735 1.24335 1.94447 0
M  V30 3770 C 353.705 0.120991 1.65659 0
M  V30 3771 O 354.89 0.300035 1.88426 0
M  V30 3772 C 352.03 0.993124 3.30501 0
M  V30 3773 C 351.143 2.20217 3.71657 0
M  V30 3774 C 350.278 1.88572 4.96602 0
M  V30 3775 C 349.317 3.05683 5.30306 0
M  V30 3776 N 348.454 2.73997 6.46429 0
M  V30 3777 H 353.294 2.1928 2.01792 0
M  V30 3778 H 350.831 1.09035 0.987404 0
M  V30 3779 H 352.789 0.828467 4.08892 0
M  V30 3780 H 351.419 0.0803902 3.227 0
M  V30 3781 H 350.471 2.47642 2.88752 0
M  V30 3782 H 351.783 3.07752 3.92543 0
M  V30 3783 H 350.937 1.68776 5.82752 0
M  V30 3784 H 349.676 0.982799 4.77695 0
M  V30 3785 H 348.681 3.26088 4.42659 0
M  V30 3786 H 349.906 3.96737 5.51159 0
M  V30 3787 H 347.852 1.86268 6.28999 0
M  V30 3788 H 347.769 3.55064 6.67432 0
M  V30 3789 H 349.037 2.57679 7.35678 0
M  V30 3790 N 353.266 -1.05314 1.17247 0
M  V30 3791 C 354.512 -1.78557 0.961513 0
M  V30 3792 C 354.845 -1.87419 -0.508697 0
M  V30 3793 O 354.12 -1.37307 -1.37757 0
M  V30 3794 C 354.403 -3.22514 1.60176 0
M  V30 3795 C 354.256 -3.21673 3.14399 0
M  V30 3796 C 355.575 -4.20318 1.30463 0
M  V30 3797 H 352.694 -0.6482 0.350723 0
M  V30 3798 H 355.336 -1.23102 1.44727 0
M  V30 3799 H 353.486 -3.69867 1.18871 0
M  V30 3800 H 355.158 -2.82405 3.64753 0
M  V30 3801 H 353.401 -2.60048 3.47214 0
M  V30 3802 H 354.072 -4.23271 3.54324 0
M  V30 3803 H 356.548 -3.81454 1.66229 0
M  V30 3804 H 355.424 -5.19289 1.77848 0
M  V30 3805 H 355.685 -4.41526 0.22521 0
M  V30 3806 N 354.744 -0.972509 -1.24016 0
M  V30 3807 C 355.674 -0.525548 -2.27509 0
M  V30 3808 C 356.655 0.437262 -1.64384 0
M  V30 3809 O 357.84 0.332343 -1.91335 0
M  V30 3810 C 354.97 0.180448 -3.46831 0
M  V30 3811 C 353.924 -0.698859 -4.22256 0
M  V30 3812 C 353.25 0.138903 -5.3452 0
M  V30 3813 C 354.55 -1.98582 -4.83076 0
M  V30 3814 H 356.244 -1.39058 -2.65148 0
M  V30 3815 H 353.79 -0.67009 -1.27459 0
M  V30 3816 H 355.743 0.504387 -4.18371 0
M  V30 3817 H 354.467 1.07987 -3.08231 0
M  V30 3818 H 353.126 -1.00614 -3.52523 0
M  V30 3819 H 352.774 1.03862 -4.9216 0
M  V30 3820 H 352.474 -0.446259 -5.85903 0
M  V30 3821 H 353.998 0.457404 -6.08884 0
M  V30 3822 H 355.412 -1.72715 -5.46665 0
M  V30 3823 H 353.809 -2.5181 -5.44713 0
M  V30 3824 H 354.879 -2.67769 -4.04262 0
M  V30 3825 N 356.222 1.38976 -0.743202 0
M  V30 3826 C 357.638 1.53984 -0.419664 0
M  V30 3827 C 357.838 1.70837 1.0685 0
M  V30 3828 O 356.894 1.7135 1.8546 0
M  V30 3829 C 358.207 2.75287 -1.20985 0
M  V30 3830 C 359.755 2.89129 -1.19889 0
M  V30 3831 C 360.23 4.13381 -1.97181 0
M  V30 3832 N 361.721 4.20437 -1.94389 0
M  V30 3833 C 362.456 5.15547 -2.50996 0
M  V30 3834 N 361.952 6.16395 -3.16274 0
M  V30 3835 N 363.745 5.07822 -2.40984 0
M  V30 3836 H 355.896 1.26285 -1.7078 0
M  V30 3837 H 358.159 0.612689 -0.723406 0
M  V30 3838 H 357.865 2.69204 -2.26323 0
M  V30 3839 H 357.739 3.68184 -0.819759 0
M  V30 3840 H 360.126 2.947 -0.153606 0
M  V30 3841 H 360.207 1.97272 -1.62841 0
M  V30 3842 H 359.851 4.08572 -3.01714 0
M  V30 3843 H 359.781 5.04298 -1.51629 0
M  V30 3844 H 362.272 3.48205 -1.46839 0
M  V30 3845 H 362.585 6.85443 -3.56915 0
M  V30 3846 H 360.93 6.16758 -3.20367 0
M  V30 3847 H 364.121 4.27973 -1.89622 0
M  V30 3848 H 364.294 5.81767 -2.85397 0
M  V30 3849 N 357.7 0.491464 1.49741 0
M  V30 3850 C 358.947 -0.0564256 2.02421 0
M  V30 3851 C 359.275 -1.37872 1.37192 0
M  V30 3852 O 358.53 -1.89375 0.493508 0
M  V30 3853 C 358.829 -0.267329 3.56399 0
M  V30 3854 C 358.495 0.975775 4.40215 0
M  V30 3855 C 357.157 1.31655 4.62839 0
M  V30 3856 C 359.509 1.80251 4.89039 0
M  V30 3857 C 356.837 2.48375 5.31532 0
M  V30 3858 C 359.189 2.96116 5.59015 0
M  V30 3859 C 357.853 3.30585 5.79888 0
M  V30 3860 H 357.123 -0.0206476 0.740712 0
M  V30 3861 H 359.77 0.649686 1.80143 0
M  V30 3862 H 358.075 -1.05588 3.77304 0
M  V30 3863 H 359.772 -0.705549 3.94744 0
M  V30 3864 H 356.362 0.700315 4.2284 0
M  V30 3865 H 360.546 1.55239 4.71396 0
M  V30 3866 H 355.802 2.7533 5.45897 0
M  V30 3867 H 359.976 3.60509 5.95824 0
M  V30 3868 H 357.603 4.21132 6.32892 0
M  V30 3869 N 359.178 -1.55987 0.224894 0
M  V30 3870 C 360.11 -2.17722 -0.716224 0
M  V30 3871 C 361.123 -1.14723 -1.15509 0
M  V30 3872 O 362.312 -1.41688 -1.08567 0
M  V30 3873 C 359.412 -2.74873 -1.98238 0
M  V30 3874 C 358.585 -4.03074 -1.69853 0
M  V30 3875 C 357.644 -4.44757 -2.81208 0
M  V30 3876 O 356.67 -5.11587 -2.49534 0
M  V30 3877 N 357.872 -4.10716 -4.10235 0
M  V30 3878 H 360.637 -2.99109 -0.188123 0
M  V30 3879 H 358.198 -1.6184 0.0440123 0
M  V30 3880 H 360.19 -2.99727 -2.7193 0
M  V30 3881 H 358.76 -1.9777 -2.42086 0
M  V30 3882 H 357.98 -3.86041 -0.797875 0
M  V30 3883 H 359.268 -4.86701 -1.48324 0
M  V30 3884 H 358.666 -3.57019 -4.38809 0
M  V30 3885 H 357.223 -4.40455 -4.80461 0
M  V30 3886 N 360.656 0.0484629 -1.57525 0
M  V30 3887 C 361.603 1.05504 -2.05275 0
M  V30 3888 C 362.573 1.37084 -0.937927 0
M  V30 3889 O 363.758 1.47754 -1.2072 0
M  V30 3890 C 360.898 2.35676 -2.52093 0
M  V30 3891 C 360.011 2.10423 -3.77288 0
M  V30 3892 C 359.146 3.34327 -4.12794 0
M  V30 3893 C 358.185 3.04542 -5.30962 0
M  V30 3894 N 357.322 4.20841 -5.61994 0
M  V30 3895 H 362.162 0.640885 -2.91027 0
M  V30 3896 H 359.699 0.304854 -1.43906 0
M  V30 3897 H 361.657 3.11709 -2.77297 0
M  V30 3898 H 360.287 2.7485 -1.69285 0
M  V30 3899 H 359.339 1.24976 -3.59284 0
M  V30 3900 H 360.651 1.84438 -4.63448 0
M  V30 3901 H 359.805 4.1874 -4.39024 0
M  V30 3902 H 358.544 3.63408 -3.25247 0
M  V30 3903 H 357.549 2.18528 -5.04505 0
M  V30 3904 H 358.774 2.76758 -6.20146 0
M  V30 3905 H 356.72 4.4991 -4.77406 0
M  V30 3906 H 356.637 3.98212 -6.42622 0
M  V30 3907 H 357.905 5.06184 -5.92789 0
M  V30 3908 N 362.134 1.5431 0.320358 0
M  V30 3909 C 363.097 1.83195 1.3774 0
M  V30 3910 C 364.097 0.703906 1.44575 0
M  V30 3911 O 365.287 0.972214 1.44546 0
M  V30 3912 C 362.419 1.99487 2.76438 0
M  V30 3913 H 363.612 2.77642 1.1338 0
M  V30 3914 H 361.165 1.46076 0.556012 0
M  V30 3915 H 361.9 1.07262 3.06048 0
M  V30 3916 H 361.685 2.81575 2.7287 0
M  V30 3917 H 363.175 2.23271 3.52902 0
M  V30 3918 N 363.613 -0.582584 1.46437 0
M  V30 3919 C 364.86 -1.34079 1.51753 0
M  V30 3920 C 365.188 -1.93762 0.169299 0
M  V30 3921 O 364.443 -1.76989 -0.835062 0
M  V30 3922 C 364.742 -2.48964 2.56421 0
M  V30 3923 C 364.408 -2.07273 4.00436 0
M  V30 3924 C 363.07 -1.95618 4.39644 0
M  V30 3925 C 365.422 -1.75111 4.90903 0
M  V30 3926 C 362.75 -1.5006 5.67185 0
M  V30 3927 C 365.102 -1.31032 6.18881 0
M  V30 3928 C 363.766 -1.17954 6.56996 0
M  V30 3929 H 363.036 -0.49063 0.555304 0
M  V30 3930 H 365.683 -0.656007 1.79913 0
M  V30 3931 H 363.988 -3.22889 2.21923 0
M  V30 3932 H 365.685 -3.07178 2.57765 0
M  V30 3933 H 362.275 -2.17279 3.69443 0
M  V30 3934 H 366.459 -1.83001 4.61329 0
M  V30 3935 H 361.715 -1.38577 5.95488 0
M  V30 3936 H 365.889 -1.052 6.88408 0
M  V30 3937 H 363.516 -0.824279 7.55718 0
M  V30 3938 N 365.091 -1.34144 -0.827227 0
M  V30 3939 C 366.021 -1.28005 -1.95287 0
M  V30 3940 C 367.002 -0.158321 -1.69362 0
M  V30 3941 O 368.187 -0.349987 -1.9102 0
M  V30 3942 C 365.317 -1.03036 -3.31664 0
M  V30 3943 C 364.271 -2.11628 -3.72019 0
M  V30 3944 C 363.597 -1.71854 -5.0633 0
M  V30 3945 C 364.897 -3.53417 -3.8457 0
M  V30 3946 H 366.591 -2.22187 -2.00682 0
M  V30 3947 H 364.137 -1.0696 -0.964135 0
M  V30 3948 H 366.09 -0.973863 -4.09993 0
M  V30 3949 H 364.814 -0.0529391 -3.26557 0
M  V30 3950 H 363.473 -2.16339 -2.95961 0
M  V30 3951 H 363.121 -0.727841 -4.97706 0
M  V30 3952 H 362.821 -2.44531 -5.34302 0
M  V30 3953 H 364.345 -1.67692 -5.87122 0
M  V30 3954 H 365.759 -3.51142 -4.5318 0
M  V30 3955 H 364.156 -4.24679 -4.2399 0
M  V30 3956 H 365.226 -3.91072 -2.86689 0
M  V30 3957 N 366.569 1.04691 -1.17803 0
M  V30 3958 C 367.797 1.81446 -0.99423 0
M  V30 3959 C 368.212 1.83174 0.457459 0
M  V30 3960 O 367.569 1.26265 1.31771 0
M  V30 3961 C 367.62 3.27334 -1.5341 0
M  V30 3962 O 367.341 3.25798 -2.92895 0
M  V30 3963 C 368.842 4.20759 -1.39559 0
M  V30 3964 H 366.062 0.571599 -0.351447 0
M  V30 3965 H 368.606 1.31982 -1.56208 0
M  V30 3966 H 366.761 3.74052 -1.00815 0
M  V30 3967 H 367.175 4.17144 -3.17949 0
M  V30 3968 H 368.649 5.21084 -1.82141 0
M  V30 3969 H 369.126 4.37856 -0.343394 0
M  V30 3970 H 369.732 3.79901 -1.91195 0
M  V30 3971 N 368.047 0.979072 1.23499 0
M  V30 3972 C 368.979 0.476271 2.24197 0
M  V30 3973 C 369.992 -0.421166 1.57258 0
M  V30 3974 O 371.181 -0.225515 1.7707 0
M  V30 3975 C 368.281 -0.330503 3.37285 0
M  V30 3976 C 367.454 0.559744 4.33804 0
M  V30 3977 C 366.513 -0.192954 5.25846 0
M  V30 3978 O 365.539 0.416978 5.67671 0
M  V30 3979 N 366.741 -1.47932 5.61334 0
M  V30 3980 H 369.506 1.34211 2.67969 0
M  V30 3981 H 367.067 0.852189 1.37657 0
M  V30 3982 H 369.059 -0.842361 3.95836 0
M  V30 3983 H 367.629 -1.09734 2.92707 0
M  V30 3984 H 366.849 1.25245 3.73775 0
M  V30 3985 H 368.137 1.1665 4.95248 0
M  V30 3986 H 367.535 -1.9964 5.29302 0
M  V30 3987 H 366.092 -1.93664 6.22364 0
M  V30 3988 N 369.525 -1.3858 0.750561 0
M  V30 3989 C 370.455 -2.33102 0.136237 0
M  V30 3990 C 371.436 -1.54713 -0.706965 0
M  V30 3991 O 372.621 -1.83043 -0.648769 0
M  V30 3992 C 369.751 -3.38882 -0.760017 0
M  V30 3993 C 368.705 -4.27995 -0.0197785 0
M  V30 3994 C 368.031 -5.24605 -1.03408 0
M  V30 3995 C 369.331 -5.09554 1.14684 0
M  V30 3996 H 371.025 -2.84726 0.925822 0
M  V30 3997 H 368.571 -1.36898 0.446654 0
M  V30 3998 H 370.524 -4.0397 -1.19943 0
M  V30 3999 H 369.248 -2.85734 -1.58189 0
M  V30 4000 H 367.907 -3.64409 0.400184 0
M  V30 4001 H 367.555 -4.67746 -1.84994 0
M  V30 4002 H 367.255 -5.85081 -0.543464 0
M  V30 4003 H 368.779 -5.9257 -1.47288 0
M  V30 4004 H 370.193 -5.67899 0.785118 0
M  V30 4005 H 368.59 -5.7925 1.56812 0
M  V30 4006 H 369.66 -4.4347 1.96118 0
M  V30 4007 N 371.003 -0.499398 -1.49478 0
M  V30 4008 C 372.28 0.108629 -1.95298 0
M  V30 4009 C 372.66 1.54282 -1.44084 0
M  V30 4010 O 372.008 2.18944 -0.653908 0
M  V30 4011 C 372.218 0.0229111 -3.48992 0
M  V30 4012 C 373.566 0.197643 -4.2414 0
M  V30 4013 O 374.59 0.0981735 -3.56065 0
M  V30 4014 O 373.449 0.401669 -5.45022 0
M  V30 4015 H 370.543 0.096181 -0.821388 0
M  V30 4016 H 373.089 -0.561822 -1.6013 0
M  V30 4017 H 371.861 -0.977321 -3.78899 0
M  V30 4018 H 371.484 0.733579 -3.90774 0
M  V30 4019 N 372.481 1.55866 -0.233164 0
M  V30 4020 C 373.391 2.24431 0.683217 0
M  V30 4021 C 374.407 1.2558 1.2044 0
M  V30 4022 O 375.583 1.58422 1.24356 0
M  V30 4023 C 372.648 2.91979 1.86947 0
M  V30 4024 C 371.709 4.06204 1.38912 0
M  V30 4025 C 370.942 4.70522 2.51883 0
M  V30 4026 O 371.165 4.33865 3.70293 0
M  V30 4027 O 370.099 5.59296 2.22423 0
M  V30 4028 H 373.925 3.03426 0.129059 0
M  V30 4029 H 371.51 1.494 -0.0022283 0
M  V30 4030 H 373.392 3.34573 2.56201 0
M  V30 4031 H 372.067 2.15935 2.41151 0
M  V30 4032 H 370.974 3.68155 0.664259 0
M  V30 4033 H 372.307 4.84025 0.893328 0
M  V30 4034 N 373.959 -0.0401083 1.57549 0
M  V30 4035 C 374.889 -1.04384 2.08869 0
M  V30 4036 C 375.87 -1.38407 0.988817 0
M  V30 4037 O 377.055 -1.47483 1.26342 0
M  V30 4038 C 374.185 -2.34808 2.55895 0
M  V30 4039 C 373.139 -2.15057 3.70047 0
M  V30 4040 C 372.465 -3.51145 4.03239 0
M  V30 4041 C 373.765 -1.54576 4.98902 0
M  V30 4042 H 375.459 -0.616666 2.92981 0
M  V30 4043 H 373.005 -0.295184 1.40942 0
M  V30 4044 H 374.958 -3.05346 2.90417 0
M  V30 4045 H 373.682 -2.79565 1.68853 0
M  V30 4046 H 372.341 -1.46954 3.35857 0
M  V30 4047 H 371.989 -3.93529 3.13279 0
M  V30 4048 H 371.689 -3.38758 4.80122 0
M  V30 4049 H 373.213 -4.23062 4.40285 0
M  V30 4050 H 374.627 -2.15017 5.31451 0
M  V30 4051 H 373.024 -1.52796 5.80322 0
M  V30 4052 H 374.094 -0.51039 4.82206 0
M  V30 4053 N 375.437 -1.54477 -0.31217 0
M  V30 4054 C 376.367 -1.87652 -1.38957 0
M  V30 4055 C 377.348 -0.734358 -1.53431 0
M  V30 4056 O 378.533 -0.98911 -1.67123 0
M  V30 4057 C 375.663 -2.11396 -2.75552 0
M  V30 4058 C 374.617 -3.27243 -2.75855 0
M  V30 4059 C 373.943 -3.36382 -4.15633 0
M  V30 4060 C 375.243 -4.64622 -2.38587 0
M  V30 4061 H 376.937 -2.77887 -1.11442 0
M  V30 4062 H 374.483 -1.33707 -0.534655 0
M  V30 4063 H 376.436 -2.33189 -3.51 0
M  V30 4064 H 375.16 -1.17921 -3.04569 0
M  V30 4065 H 373.819 -3.05356 -2.02863 0
M  V30 4066 H 373.467 -2.40445 -4.41809 0
M  V30 4067 H 373.167 -4.14249 -4.1674 0
M  V30 4068 H 374.691 -3.60422 -4.92877 0
M  V30 4069 H 376.105 -4.86219 -3.03749 0
M  V30 4070 H 374.502 -5.45121 -2.50925 0
M  V30 4071 H 375.572 -4.66097 -1.33723 0
M  V30 4072 N 376.915 0.57481 -1.46744 0
M  V30 4073 C 378.143 1.35856 -1.56047 0
M  V30 4074 C 378.558 1.87691 -0.204365 0
M  V30 4075 O 377.915 1.64049 0.79963 0
M  V30 4076 C 377.966 2.54066 -2.57163 0
M  V30 4077 O 377.687 2.04377 -3.87507 0
M  V30 4078 C 379.188 3.46514 -2.76483 0
M  V30 4079 H 376.408 0.414754 -0.527466 0
M  V30 4080 H 378.952 0.698035 -1.92218 0
M  V30 4081 H 377.107 3.16092 -2.23974 0
M  V30 4082 H 377.521 2.81419 -4.4261 0
M  V30 4083 H 378.995 4.25919 -3.51137 0
M  V30 4084 H 379.472 3.98951 -1.83671 0
M  V30 4085 H 380.078 2.90318 -3.10799 0
M  V30 4086 N 378.394 1.34581 0.820102 0
M  V30 4087 C 379.304 1.28471 1.96297 0
M  V30 4088 C 380.32 0.191902 1.72939 0
M  V30 4089 O 381.496 0.418879 1.96996 0
M  V30 4090 C 378.561 1.04281 3.30645 0
M  V30 4091 C 377.622 2.22745 3.66992 0
M  V30 4092 C 376.855 1.997 4.9493 0
M  V30 4093 O 377.078 0.956656 5.6232 0
M  V30 4094 O 376.012 2.86723 5.2922 0
M  V30 4095 H 379.838 2.24624 2.04396 0
M  V30 4096 H 377.423 1.14816 0.955913 0
M  V30 4097 H 379.305 0.925841 4.11104 0
M  V30 4098 H 377.98 0.111697 3.23507 0
M  V30 4099 H 376.887 2.40003 2.86966 0
M  V30 4100 H 378.22 3.14257 3.78819 0
M  V30 4101 N 379.872 -1.04064 1.18357 0
M  V30 4102 C 380.822 -2.10393 0.878561 0
M  V30 4103 C 381.806 -1.60183 -0.151713 0
M  V30 4104 O 382.998 -1.76923 0.0523303 0
M  V30 4105 C 380.127 -3.4089 0.406096 0
M  V30 4106 C 379.213 -3.97866 1.46844 0
M  V30 4107 N 379.604 -4.28657 2.68489 0
M  V30 4108 C 377.902 -4.2574 1.32896 0
M  V30 4109 C 378.603 -4.74253 3.36836 0
M  V30 4110 N 377.579 -4.75068 2.64219 0
M  V30 4111 H 381.381 -2.32076 1.80327 0
M  V30 4112 H 378.895 -1.21818 1.07397 0
M  V30 4113 H 380.892 -4.16557 0.169088 0
M  V30 4114 H 379.552 -3.20633 -0.512275 0
M  V30 4115 H 380.563 -4.18304 3.05356 0
M  V30 4116 H 377.24 -4.1481 0.473134 0
M  V30 4117 H 378.63 -5.07096 4.40798 0
M  V30 4118 N 381.35 -0.985608 -1.22978 0
M  V30 4119 C 382.766 -0.695104 -1.43668 0
M  V30 4120 C 382.966 0.736866 -1.87543 0
M  V30 4121 O 382.022 1.50868 -2.02473 0
M  V30 4122 C 383.335 -1.69447 -2.48412 0
M  V30 4123 C 384.883 -1.70909 -2.62219 0
M  V30 4124 C 385.358 -2.6969 -3.70178 0
M  V30 4125 N 386.849 -2.6824 -3.77626 0
M  V30 4126 C 387.584 -3.41339 -4.60733 0
M  V30 4127 N 387.08 -4.24015 -5.4789 0
M  V30 4128 N 388.873 -3.30079 -4.54977 0
M  V30 4129 H 381.024 -1.91054 -0.928016 0
M  V30 4130 H 383.287 -0.823553 -0.469536 0
M  V30 4131 H 382.993 -2.7188 -2.23102 0
M  V30 4132 H 382.867 -1.48147 -3.46889 0
M  V30 4133 H 385.254 -0.691785 -2.86877 0
M  V30 4134 H 385.335 -1.96276 -1.6404 0
M  V30 4135 H 384.979 -3.71566 -3.46268 0
M  V30 4136 H 384.909 -2.41595 -4.67909 0
M  V30 4137 H 387.4 -2.08243 -3.15346 0
M  V30 4138 H 387.713 -4.76636 -6.08308 0
M  V30 4139 H 386.058 -4.28104 -5.47496 0
M  V30 4140 H 389.249 -2.64937 -3.85909 0
M  V30 4141 H 389.422 -3.87308 -5.19516 0
M  V30 4142 N 382.828 1.3818 -0.7579 0
M  V30 4143 C 383.761 2.28055 -0.0814093 0
M  V30 4144 C 384.739 1.45603 0.723779 0
M  V30 4145 O 385.923 1.74961 0.701491 0
M  V30 4146 C 383.05 3.2676 0.891394 0
M  V30 4147 C 382.096 4.26153 0.171909 0
M  V30 4148 S 382.929 5.23434 -1.13035 0
M  V30 4149 C 384.085 6.25694 -0.160727 0
M  V30 4150 H 384.318 2.85082 -0.84353 0
M  V30 4151 H 381.851 1.44246 -0.550671 0
M  V30 4152 H 383.809 3.8414 1.44731 0
M  V30 4153 H 382.47 2.68706 1.62652 0
M  V30 4154 H 381.663 4.95738 0.908843 0
M  V30 4155 H 381.265 3.72691 -0.312606 0
M  V30 4156 H 383.557 6.74161 0.671773 0
M  V30 4157 H 384.5 7.03285 -0.824353 0
M  V30 4158 H 384.908 5.64064 0.221892 0
M  V30 4159 N 384.306 0.507319 1.49211 0
M  V30 4160 C 385.534 -0.0315749 2.06876 0
M  V30 4161 C 385.949 -1.30241 1.36685 0
M  V30 4162 O 385.306 -1.76937 0.447152 0
M  V30 4163 C 385.357 -0.282627 3.60393 0
M  V30 4164 O 385.078 0.937835 4.27944 0
M  V30 4165 C 386.579 -0.864453 4.3479 0
M  V30 4166 H 383.799 0.0233048 0.670595 0
M  V30 4167 H 386.343 0.706484 1.91909 0
M  V30 4168 H 384.498 -0.97068 3.75042 0
M  V30 4169 H 384.912 0.704567 5.19746 0
M  V30 4170 H 386.386 -0.989664 5.43056 0
M  V30 4171 H 386.863 -1.86382 3.97692 0
M  V30 4172 H 387.469 -0.213672 4.24763 0
M  V30 4173 N 385.784 -1.5574 0.241426 0
M  V30 4174 C 387.03 -1.99846 -0.378555 0
M  V30 4175 C 387.385 -1.12665 -1.55963 0
M  V30 4176 O 386.678 -0.180966 -1.90743 0
M  V30 4177 C 386.872 -3.47308 -0.843317 0
M  V30 4178 C 386.701 -4.48756 0.291178 0
M  V30 4179 C 385.471 -4.9949 0.764077 0
M  V30 4180 C 387.669 -5.02039 1.11631 0
M  V30 4181 N 385.651 -5.84676 1.87156 0
M  V30 4182 C 387.022 -5.84343 2.07226 0
M  V30 4183 C 389.077 -4.84354 1.15349 0
M  V30 4184 C 387.78 -6.50851 3.06245 0
M  V30 4185 C 389.806 -5.51636 2.13195 0
M  V30 4186 C 389.168 -6.33724 3.07528 0
M  V30 4187 H 385.267 -0.774968 -0.104634 0
M  V30 4188 H 387.851 -1.91385 0.357751 0
M  V30 4189 H 386.022 -3.56178 -1.54893 0
M  V30 4190 H 387.754 -3.78299 -1.43779 0
M  V30 4191 H 384.509 -4.72311 0.349175 0
M  V30 4192 H 384.933 -6.31967 2.42789 0
M  V30 4193 H 389.575 -4.20525 0.438057 0
M  V30 4194 H 387.293 -7.1385 3.78739 0
M  V30 4195 H 390.879 -5.39909 2.16771 0
M  V30 4196 H 389.759 -6.84867 3.82003 0
M  V30 4197 N 387.262 0.0317525 -1.57568 0
M  V30 4198 C 388.539 0.758366 -1.803 0
M  V30 4199 C 388.919 1.93718 -0.838845 0
M  V30 4200 O 388.267 2.28187 0.119571 0
M  V30 4201 C 388.477 1.19392 -3.27943 0
M  V30 4202 C 389.825 1.61094 -3.92854 0
M  V30 4203 O 390.849 1.28857 -3.32076 0
M  V30 4204 O 389.708 2.20918 -4.99858 0
M  V30 4205 H 386.802 0.366514 -0.741348 0
M  V30 4206 H 389.348 0.00873765 -1.69698 0
M  V30 4207 H 388.12 0.352275 -3.89711 0
M  V30 4208 H 387.743 2.00365 -3.43424 0
M  V30 4209 N 388.74 1.54641 0.303973 0
M  V30 4210 C 390.151 1.64811 0.877163 0
M  V30 4211 C 390.502 0.554838 1.88191 0
M  V30 4212 O 389.627 -0.309033 2.14182 0
M  V30 4213 C 390.222 2.9876 1.59775 0
M  V30 4214 C 388.781 3.11061 2.11938 0
M  V30 4215 C 387.928 2.60479 0.951097 0
M  V30 4216 H 390.879 1.58493 0.0810486 0
M  V30 4217 H 390.9 2.90017 2.46314 0
M  V30 4218 H 390.412 3.7831 0.866226 0
M  V30 4219 H 388.513 2.36225 2.88146 0
M  V30 4220 H 388.626 4.17171 2.35595 0
M  V30 4221 H 386.99 2.16859 1.33583 0
M  V30 4222 H 387.773 3.42504 0.233581 0
M  V30 4223 N 390.218 -0.567019 1.47046 0
M  V30 4224 C 391.181 -1.65696 1.58359 0
M  V30 4225 C 392.181 -1.54097 0.459441 0
M  V30 4226 O 393.371 -1.58432 0.724225 0
M  V30 4227 C 390.503 -3.05197 1.51879 0
M  V30 4228 H 391.696 -1.57019 2.5551 0
M  V30 4229 H 389.249 -0.786148 1.3509 0
M  V30 4230 H 389.984 -3.19417 0.560673 0
M  V30 4231 H 389.769 -3.15025 2.33455 0
M  V30 4232 H 391.259 -3.84511 1.62913 0
M  V30 4233 N 391.696 -1.35014 -0.812953 0
M  V30 4234 C 392.628 -1.23262 -1.93233 0
M  V30 4235 C 393.641 -0.157371 -1.62038 0
M  V30 4236 O 394.83 -0.410096 -1.73725 0
M  V30 4237 C 391.93 -0.87392 -3.27438 0
M  V30 4238 C 391.103 -2.04622 -3.86586 0
M  V30 4239 C 390.162 -1.66432 -4.99186 0
M  V30 4240 O 389.188 -2.38222 -5.16951 0
M  V30 4241 N 390.39 -0.584248 -5.77552 0
M  V30 4242 H 393.155 -2.19699 -2.03844 0
M  V30 4243 H 390.716 -1.281 -0.99005 0
M  V30 4244 H 392.708 -0.600039 -4.00227 0
M  V30 4245 H 391.278 0.00057392 -3.126 0
M  V30 4246 H 390.498 -2.48427 -3.06068 0
M  V30 4247 H 391.786 -2.82999 -4.22835 0
M  V30 4248 H 391.184 0.0123526 -5.65699 0
M  V30 4249 H 389.741 -0.37013 -6.50748 0
M  V30 4250 N 393.175 1.03435 -1.18907 0
M  V30 4251 C 394.586 1.58195 -0.991523 0
M  V30 4252 C 394.937 1.90801 0.457081 0
M  V30 4253 O 394.062 1.70272 1.33553 0
M  V30 4254 C 394.657 2.87432 -1.79355 0
M  V30 4255 C 393.216 3.38785 -1.64017 0
M  V30 4256 C 392.363 2.12292 -1.78402 0
M  V30 4257 H 395.314 0.860299 -1.33359 0
M  V30 4258 H 395.335 3.58096 -1.28638 0
M  V30 4259 H 394.847 2.63669 -2.84781 0
M  V30 4260 H 392.948 3.67547 -0.611536 0
M  V30 4261 H 393.061 4.12186 -2.44212 0
M  V30 4262 H 391.425 2.23901 -1.2141 0
M  V30 4263 H 392.208 1.90977 -2.85277 0
M  V30 4264 N 394.653 0.992116 1.22453 0
M  V30 4265 C 396.064 0.702776 1.72968 0
M  V30 4266 C 396.415 -0.780399 1.80012 0
M  V30 4267 O 395.54 -1.61007 1.44589 0
M  V30 4268 C 396.135 1.26903 3.14135 0
M  V30 4269 C 394.694 1.02909 3.62059 0
M  V30 4270 C 393.841 1.38969 2.39964 0
M  V30 4271 H 396.792 1.16457 1.07812 0
M  V30 4272 H 396.813 0.647223 3.74955 0
M  V30 4273 H 396.325 2.34851 3.08977 0
M  V30 4274 H 394.426 -0.0337979 3.72585 0
M  V30 4275 H 394.539 1.69191 4.48231 0
M  V30 4276 H 392.903 0.808279 2.41535 0
M  V30 4277 H 393.686 2.4792 2.37467 0
M  V30 4278 N 396.131 -1.37776 0.765217 0
M  V30 4279 C 397.547 -1.53297 0.444108 0
M  V30 4280 C 397.747 -1.72515 -1.04119 0
M  V30 4281 O 396.803 -1.74278 -1.82711 0
M  V30 4282 C 398.116 -2.73328 1.25349 0
M  V30 4283 C 399.664 -2.87185 1.24473 0
M  V30 4284 C 400.139 -4.10191 2.03733 0
M  V30 4285 N 401.63 -4.17291 2.01053 0
M  V30 4286 C 402.365 -5.11488 2.59166 0
M  V30 4287 N 401.861 -6.11285 3.26041 0
M  V30 4288 N 403.654 -5.03924 2.49032 0
M  V30 4289 H 395.805 -1.23552 1.72768 0
M  V30 4290 H 398.068 -0.601103 0.733062 0
M  V30 4291 H 397.774 -2.6557 2.30577 0
M  V30 4292 H 397.648 -3.66834 0.87823 0
M  V30 4293 H 400.035 -2.94418 0.20047 0
M  V30 4294 H 400.116 -1.94657 1.65959 0
M  V30 4295 H 399.76 -4.0372 3.08176 0
M  V30 4296 H 399.69 -5.01821 1.59633 0
M  V30 4297 H 402.181 -3.45825 1.5236 0
M  V30 4298 H 402.494 -6.79678 3.67774 0
M  V30 4299 H 400.839 -6.11583 3.30138 0
M  V30 4300 H 404.03 -4.24902 1.96407 0
M  V30 4301 H 404.203 -5.77152 2.94617 0
M  V30 4302 N 397.609 -0.515225 -1.4894 0
M  V30 4303 C 398.886 0.0879088 -1.95402 0
M  V30 4304 C 399.266 1.52745 -1.45712 0
M  V30 4305 O 398.614 2.18238 -0.677093 0
M  V30 4306 C 398.824 -0.0141055 -3.48997 0
M  V30 4307 C 400.172 0.152646 -4.24326 0
M  V30 4308 O 401.196 0.0604025 -3.56149 0
M  V30 4309 O 400.055 0.34384 -5.45417 0
M  V30 4310 H 397.149 0.0874636 -0.822362 0
M  V30 4311 H 399.695 -0.578775 -1.59525 0
M  V30 4312 H 398.467 -1.01745 -3.77841 0
M  V30 4313 H 398.09 0.692091 -3.9153 0
M  V30 4314 N 399.087 1.5561 -0.249682 0
M  V30 4315 C 400.017 2.24477 0.642826 0
M  V30 4316 C 400.998 1.22601 1.17911 0
M  V30 4317 O 402.183 1.5126 1.21795 0
M  V30 4318 C 399.313 2.94638 1.83863 0
M  V30 4319 C 398.267 4.03227 1.435 0
M  V30 4320 C 397.593 4.60828 2.71186 0
M  V30 4321 C 398.893 5.18796 0.604002 0
M  V30 4322 H 400.587 2.99321 0.0685625 0
M  V30 4323 H 398.133 1.43965 0.0315363 0
M  V30 4324 H 400.086 3.41517 2.46868 0
M  V30 4325 H 398.81 2.17287 2.43832 0
M  V30 4326 H 397.469 3.57121 0.828275 0
M  V30 4327 H 397.117 3.80174 3.29358 0
M  V30 4328 H 396.817 5.34132 2.44901 0
M  V30 4329 H 398.341 5.10442 3.35084 0
M  V30 4330 H 399.755 5.61883 1.13842 0
M  V30 4331 H 398.152 5.98506 0.437097 0
M  V30 4332 H 399.222 4.83384 -0.383147 0
M  V30 4333 N 400.565 -0.0233959 1.57583 0
M  V30 4334 C 401.793 -0.724682 1.93794 0
M  V30 4335 C 402.208 -1.68588 0.849912 0
M  V30 4336 O 401.565 -1.81676 -0.173204 0
M  V30 4337 C 401.616 -1.47684 3.29957 0
M  V30 4338 O 401.337 -0.554222 4.3458 0
M  V30 4339 C 402.838 -2.27477 3.80485 0
M  V30 4340 H 400.058 -0.203317 0.639455 0
M  V30 4341 H 402.602 0.0207653 2.04489 0
M  V30 4342 H 400.757 -2.17412 3.20641 0
M  V30 4343 H 401.171 -1.08232 5.13212 0
M  V30 4344 H 402.645 -2.7564 4.78254 0
M  V30 4345 H 403.122 -3.09144 3.11972 0
M  V30 4346 H 403.728 -1.62813 3.92902 0
M  V30 4347 N 402.043 -1.548 -0.295768 0
M  V30 4348 C 402.953 -1.89177 -1.38742 0
M  V30 4349 C 403.969 -0.786481 -1.55211 0
M  V30 4350 O 405.145 -1.08344 -1.69775 0
M  V30 4351 C 402.21 -2.13663 -2.73036 0
M  V30 4352 C 401.271 -3.37349 -2.65508 0
M  V30 4353 C 400.504 -3.60658 -3.93398 0
M  V30 4354 O 400.727 -2.86882 -4.93006 0
M  V30 4355 O 399.661 -4.54179 -3.94975 0
M  V30 4356 H 403.487 -2.82059 -1.12589 0
M  V30 4357 H 401.072 -1.41056 -0.492295 0
M  V30 4358 H 402.954 -2.3094 -3.52484 0
M  V30 4359 H 401.629 -1.23967 -2.99022 0
M  V30 4360 H 400.536 -3.25431 -1.84514 0
M  V30 4361 H 401.869 -4.27192 -2.44474 0
M  V30 4362 N 403.521 0.559213 -1.47345 0
M  V30 4363 C 404.484 1.64854 -1.59235 0
M  V30 4364 C 405.484 1.53851 -0.467607 0
M  V30 4365 O 406.674 1.58045 -0.732617 0
M  V30 4366 C 403.806 3.04388 -1.53496 0
M  V30 4367 H 404.999 1.55662 -2.56339 0
M  V30 4368 H 402.552 0.778973 -1.35505 0
M  V30 4369 H 403.287 3.19115 -0.577604 0
M  V30 4370 H 403.072 3.13783 -2.35123 0
M  V30 4371 H 404.562 3.83642 -1.6495 0
M  V30 4372 N 404.999 1.35443 0.805782 0
M  V30 4373 C 406.246 1.28761 1.56291 0
M  V30 4374 C 406.574 -0.137747 1.94012 0
M  V30 4375 O 405.829 -1.1032 1.61642 0
M  V30 4376 C 406.128 2.14045 2.86216 0
M  V30 4377 C 405.794 3.62826 2.67709 0
M  V30 4378 C 404.456 4.0338 2.6237 0
M  V30 4379 C 406.808 4.57227 2.50186 0
M  V30 4380 C 404.136 5.36501 2.37451 0
M  V30 4381 C 406.488 5.90547 2.26797 0
M  V30 4382 C 405.152 6.30245 2.1988 0
M  V30 4383 H 404.422 0.471171 0.571908 0
M  V30 4384 H 407.069 1.67347 0.930974 0
M  V30 4385 H 405.374 1.68342 3.53791 0
M  V30 4386 H 407.071 2.0621 3.43917 0
M  V30 4387 H 403.661 3.30644 2.72713 0
M  V30 4388 H 407.845 4.2678 2.53323 0
M  V30 4389 H 403.101 5.66259 2.30567 0
M  V30 4390 H 407.275 6.63274 2.12228 0
M  V30 4391 H 404.902 7.33328 2.00333 0
M  V30 4392 N 406.477 -1.02803 1.19454 0
M  V30 4393 C 407.407 -2.12999 0.956758 0
M  V30 4394 C 408.388 -1.69743 -0.110188 0
M  V30 4395 O 409.573 -1.94148 0.0450038 0
M  V30 4396 C 406.703 -3.43746 0.495553 0
M  V30 4397 C 405.657 -4.00688 1.50443 0
M  V30 4398 C 404.983 -5.27067 0.900275 0
M  V30 4399 C 406.283 -4.35397 2.8849 0
M  V30 4400 H 407.977 -2.33148 1.87836 0
M  V30 4401 H 405.523 -1.12045 0.904539 0
M  V30 4402 H 407.476 -4.2021 0.316493 0
M  V30 4403 H 406.2 -3.23321 -0.461646 0
M  V30 4404 H 404.859 -3.2632 1.67065 0
M  V30 4405 H 404.507 -5.02959 -0.064503 0
M  V30 4406 H 404.207 -5.66127 1.57397 0
M  V30 4407 H 405.731 -6.06196 0.73203 0
M  V30 4408 H 407.145 -5.02795 2.75446 0
M  V30 4409 H 405.542 -4.85541 3.52661 0
M  V30 4410 H 406.612 -3.44662 3.41081 0
M  V30 4411 N 407.956 -0.998596 -1.21925 0
M  V30 4412 C 408.919 -0.558679 -2.22287 0
M  V30 4413 C 409.919 0.361525 -1.56683 0
M  V30 4414 O 411.109 0.152695 -1.73529 0
M  V30 4415 C 408.241 0.18661 -3.40389 0
M  V30 4416 H 409.434 -1.4463 -2.62721 0
M  V30 4417 H 406.987 -0.786413 -1.35075 0
M  V30 4418 H 407.722 1.08996 -3.05435 0
M  V30 4419 H 407.507 -0.474188 -3.89222 0
M  V30 4420 H 408.997 0.482367 -4.14805 0
M  V30 4421 N 409.434 1.37368 -0.772513 0
M  V30 4422 C 410.344 2.34053 -0.160081 0
M  V30 4423 C 411.36 1.60216 0.678728 0
M  V30 4424 O 412.536 1.92303 0.59847 0
M  V30 4425 C 409.601 3.3939 0.708182 0
M  V30 4426 C 408.662 4.29048 -0.147172 0
M  V30 4427 C 407.895 5.29354 0.679744 0
M  V30 4428 O 408.118 5.3723 1.91678 0
M  V30 4429 O 407.052 6.01835 0.0885444 0
M  V30 4430 H 410.878 2.88159 -0.959053 0
M  V30 4431 H 408.463 1.39543 -0.533685 0
M  V30 4432 H 410.345 4.03839 1.20384 0
M  V30 4433 H 409.02 2.8761 1.48533 0
M  V30 4434 H 407.927 3.67697 -0.689205 0
M  V30 4435 H 409.26 4.84134 -0.887423 0
M  V30 4436 N 410.912 0.523116 1.48665 0
M  V30 4437 C 411.845 -0.290518 2.26343 0
M  V30 4438 C 412.823 -0.950913 1.31895 0
M  V30 4439 O 414.007 -0.976662 1.61225 0
M  V30 4440 C 411.134 -1.41088 3.07915 0
M  V30 4441 C 410.18 -0.862597 4.17686 0
M  V30 4442 S 411.013 0.264135 5.34848 0
M  V30 4443 C 412.169 -0.858864 6.19979 0
M  V30 4444 H 412.402 0.368726 2.95005 0
M  V30 4445 H 409.935 0.30878 1.51281 0
M  V30 4446 H 411.893 -2.0527 3.55492 0
M  V30 4447 H 410.554 -2.04182 2.38681 0
M  V30 4448 H 409.747 -1.70287 4.74361 0
M  V30 4449 H 409.349 -0.297595 3.72814 0
M  V30 4450 H 411.641 -1.7591 6.54264 0
M  V30 4451 H 412.584 -0.330244 7.07329 0
M  V30 4452 H 412.992 -1.13617 5.52948 0
M  V30 4453 N 412.39 -1.55475 0.257931 0
M  V30 4454 C 413.3 -2.2549 -0.647425 0
M  V30 4455 C 414.316 -1.2748 -1.18427 0
M  V30 4456 O 415.492 -1.6038 -1.2182 0
M  V30 4457 C 412.557 -2.94916 -1.82278 0
M  V30 4458 C 411.618 -4.08363 -1.32432 0
M  V30 4459 C 410.851 -4.74469 -2.44366 0
M  V30 4460 O 411.074 -4.39701 -3.63344 0
M  V30 4461 O 410.008 -5.62763 -2.13497 0
M  V30 4462 H 413.834 -3.03593 -0.0807707 0
M  V30 4463 H 411.419 -1.49377 0.0259962 0
M  V30 4464 H 413.301 -3.38606 -2.50846 0
M  V30 4465 H 411.976 -2.19744 -2.37685 0
M  V30 4466 H 410.883 -3.69166 -0.605605 0
M  V30 4467 H 412.216 -4.85385 -0.816211 0
M  V30 4468 N 413.868 0.0150385 -1.57593 0
M  V30 4469 C 414.815 1.01126 -2.07466 0
M  V30 4470 C 415.785 1.35064 -0.966794 0
M  V30 4471 O 416.97 1.4516 -1.23827 0
M  V30 4472 C 414.11 2.30276 -2.57035 0
M  V30 4473 C 413.223 2.02373 -3.81666 0
M  V30 4474 C 412.358 3.25496 -4.19793 0
M  V30 4475 C 411.397 2.93211 -5.37303 0
M  V30 4476 N 410.534 4.08826 -5.70794 0
M  V30 4477 H 415.374 0.57901 -2.92321 0
M  V30 4478 H 412.911 0.27426 -1.44521 0
M  V30 4479 H 414.869 3.05757 -2.83846 0
M  V30 4480 H 413.499 2.71197 -1.75077 0
M  V30 4481 H 412.551 1.17327 -3.61854 0
M  V30 4482 H 413.863 1.74567 -4.67256 0
M  V30 4483 H 413.017 4.09333 -4.47807 0
M  V30 4484 H 411.756 3.56428 -3.32882 0
M  V30 4485 H 410.761 2.07777 -5.09027 0
M  V30 4486 H 411.986 2.63542 -6.25877 0
M  V30 4487 H 409.932 4.39682 -4.86842 0
M  V30 4488 H 409.849 3.84491 -6.50924 0
M  V30 4489 H 411.117 4.93496 -6.03392 0
M  V30 4490 N 415.346 1.54954 0.287554 0
M  V30 4491 C 416.309 1.86076 1.33823 0
M  V30 4492 C 417.309 0.734414 1.43049 0
M  V30 4493 O 418.499 1.00266 1.42452 0
M  V30 4494 C 415.631 2.05305 2.72144 0
M  V30 4495 H 416.824 2.79984 1.07465 0
M  V30 4496 H 414.377 1.47223 0.524902 0
M  V30 4497 H 415.112 1.1373 3.03704 0
M  V30 4498 H 414.897 2.873 2.66836 0
M  V30 4499 H 416.387 2.30706 3.48087 0
M  V30 4500 N 416.824 -0.551391 1.4764 0
M  V30 4501 C 417.771 -1.65796 1.60563 0
M  V30 4502 C 418.741 -1.59932 0.448428 0
M  V30 4503 O 419.926 -1.78679 0.669222 0
M  V30 4504 C 417.066 -3.04108 1.63133 0
M  V30 4505 C 416.179 -3.20365 2.89811 0
M  V30 4506 C 415.314 -4.49109 2.8368 0
M  V30 4507 C 414.353 -4.58819 4.05156 0
M  V30 4508 N 413.49 -5.78926 3.97227 0
M  V30 4509 H 418.33 -1.54088 2.5507 0
M  V30 4510 H 415.867 -0.75052 1.26513 0
M  V30 4511 H 417.825 -3.84207 1.62606 0
M  V30 4512 H 416.455 -3.14637 0.721341 0
M  V30 4513 H 415.507 -2.33659 3.00179 0
M  V30 4514 H 416.819 -3.23402 3.79753 0
M  V30 4515 H 415.973 -5.37475 2.81434 0
M  V30 4516 H 414.712 -4.4856 1.91431 0
M  V30 4517 H 413.717 -3.68864 4.077 0
M  V30 4518 H 414.942 -4.61124 4.98539 0
M  V30 4519 H 412.888 -5.79314 3.07785 0
M  V30 4520 H 412.805 -5.83367 4.80853 0
M  V30 4521 H 414.073 -6.69637 3.99007 0
M  V30 4522 N 418.302 -1.35869 -0.798587 0
M  V30 4523 C 419.55 -1.29332 -1.55298 0
M  V30 4524 C 419.871 0.129729 -1.94568 0
M  V30 4525 O 419.141 1.06796 -1.6423 0
M  V30 4526 H 417.721 -0.475737 -0.57592 0
M  V30 4527 H 420.383 -1.70062 -0.952093 0
M  V30 4528 H 419.479 -1.91458 -2.46476 0
M  V30 4529 N 419.78 1.02168 -1.19998 0
M  V30 4530 C 420.728 2.12717 -0.940967 0
M  V30 4531 C 421.722 1.69069 0.105841 0
M  V30 4532 O 422.928 1.79946 -0.0440583 0
M  V30 4533 H 419.303 0.695108 -0.28693 0
M  V30 4534 H 421.274 2.3175 -1.87975 0
M  V30 4535 C 420.023 3.44027 -0.504049 0
M  V30 4536 H 419.346 3.78036 -1.30112 0
M  V30 4537 H 420.786 4.22452 -0.361991 0
M  V30 4538 C 419.245 3.27678 0.782878 0
M  V30 4539 O 419.775 3.56949 1.84256 0
M  V30 4540 N 417.981 2.80943 0.742921 0
M  V30 4541 H 417.528 2.57322 -0.119687 0
M  V30 4542 H 417.486 2.70385 1.60435 0
M  V30 4543 N 421.258 1.00505 1.21394 0
M  V30 4544 C 422.669 0.721082 1.72213 0
M  V30 4545 C 423.02 -0.761263 1.80829 0
M  V30 4546 O 422.145 -1.59464 1.46288 0
M  V30 4547 C 422.74 1.30228 3.12772 0
M  V30 4548 C 421.299 1.06743 3.60947 0
M  V30 4549 C 420.446 1.41507 2.38477 0
M  V30 4550 H 423.397 1.17594 1.06571 0
M  V30 4551 H 423.418 0.686955 3.74247 0
M  V30 4552 H 422.93 2.38115 3.06468 0
M  V30 4553 H 421.031 0.00572162 3.726 0
M  V30 4554 H 421.144 1.73936 4.46411 0
M  V30 4555 H 419.508 0.833852 2.40664 0
M  V30 4556 H 420.291 2.50424 2.34824 0
M  V30 4557 N 422.737 -1.36956 0.779787 0
M  V30 4558 C 423.647 -2.33965 0.172491 0
M  V30 4559 C 424.663 -1.60574 -0.670222 0
M  V30 4560 O 425.839 -1.92617 -0.588263 0
M  V30 4561 C 422.904 -3.39761 -0.690173 0
M  V30 4562 C 421.965 -4.28964 0.169924 0
M  V30 4563 C 421.198 -5.29707 -0.651662 0
M  V30 4564 O 421.421 -5.38238 -1.88827 0
M  V30 4565 O 420.355 -6.01873 -0.0566264 0
M  V30 4566 H 424.181 -2.87647 0.974321 0
M  V30 4567 H 421.766 -1.39258 0.541078 0
M  V30 4568 H 423.648 -4.04471 -1.1824 0
M  V30 4569 H 422.323 -2.88394 -1.47006 0
M  V30 4570 H 421.23 -3.67326 0.708696 0
M  V30 4571 H 422.563 -4.83656 0.913085 0
M  V30 4572 N 424.215 -0.530993 -1.48385 0
M  V30 4573 C 425.44 0.000729535 -2.074 0
M  V30 4574 C 425.865 1.27298 -1.3848 0
M  V30 4575 O 425.223 1.75599 -0.451081 0
M  V30 4576 C 425.271 0.206697 -3.60007 0
M  V30 4577 O 424.375 1.27514 -3.92191 0
M  V30 4578 H 423.716 -0.039583 -0.662819 0
M  V30 4579 H 426.246 -0.739194 -1.9078 0
M  V30 4580 H 426.256 0.42904 -4.05738 0
M  V30 4581 H 424.931 -0.722675 -4.09573 0
M  V30 4582 H 423.508 1.03537 -3.58238 0
M  V30 4583 N 425.693 1.55336 -0.266172 0
M  V30 4584 C 426.918 2.04258 0.359661 0
M  V30 4585 C 427.343 1.14359 1.49344 0
M  V30 4586 O 426.701 0.140369 1.80756 0
M  V30 4587 C 426.749 3.50997 0.826635 0
M  V30 4588 O 425.853 3.64204 1.93466 0
M  V30 4589 H 425.194 0.659668 0.075727 0
M  V30 4590 H 427.724 2.00694 -0.39786 0
M  V30 4591 H 427.734 3.9219 1.12477 0
M  V30 4592 H 426.409 4.159 -0.00293032 0
M  V30 4593 H 424.986 3.34913 1.63974 0
M  V30 4594 N 427.171 -0.0066808 1.57599 0
M  V30 4595 C 428.418 -0.69292 1.90276 0
M  V30 4596 C 428.746 -1.74148 0.866192 0
M  V30 4597 O 428.001 -1.95268 -0.129933 0
M  V30 4598 C 428.3 -1.37939 3.29708 0
M  V30 4599 C 427.966 -0.464679 4.48499 0
M  V30 4600 C 426.628 -0.212809 4.80729 0
M  V30 4601 C 428.98 0.16551 5.20937 0
M  V30 4602 C 426.308 0.677653 5.82773 0
M  V30 4603 C 428.66 1.04381 6.23929 0
M  V30 4604 C 427.324 1.30492 6.54621 0
M  V30 4605 H 426.594 -0.253558 0.696268 0
M  V30 4606 H 429.241 0.0474123 1.91441 0
M  V30 4607 H 427.546 -2.1936 3.24636 0
M  V30 4608 H 429.243 -1.9163 3.52249 0
M  V30 4609 H 425.833 -0.671153 4.23313 0
M  V30 4610 H 430.017 -0.0160756 4.96297 0
M  V30 4611 H 425.273 0.88803 6.04917 0
M  V30 4612 H 429.447 1.53851 6.79193 0
M  V30 4613 H 427.074 1.99662 7.33512 0
M  V30 4614 N 428.649 -1.55105 -0.279332 0
M  V30 4615 C 429.597 -1.88333 -1.36505 0
M  V30 4616 C 430.591 -0.759043 -1.51443 0
M  V30 4617 O 431.797 -0.943312 -1.53302 0
M  V30 4618 H 428.172 -0.59766 -0.456406 0
M  V30 4619 H 430.143 -2.79041 -1.05728 0
M  V30 4620 C 428.892 -2.16628 -2.7197 0
M  V30 4621 H 428.215 -3.02624 -2.61264 0
M  V30 4622 H 429.655 -2.43803 -3.46895 0
M  V30 4623 C 428.114 -0.971807 -3.22579 0
M  V30 4624 O 428.644 -0.203228 -4.01186 0
M  V30 4625 N 426.85 -0.771238 -2.80179 0
M  V30 4626 H 426.397 -1.39792 -2.1637 0
M  V30 4627 H 426.355 0.0263667 -3.14389 0
M  V30 4628 N 430.127 0.543554 -1.4793 0
M  V30 4629 C 431.404 1.30458 -1.4574 0
M  V30 4630 C 431.784 2.1048 -0.161692 0
M  V30 4631 O 431.132 2.11831 0.856734 0
M  V30 4632 C 431.342 2.19754 -2.71126 0
M  V30 4633 C 432.69 2.80334 -3.18901 0
M  V30 4634 O 433.714 2.30049 -2.71948 0
M  V30 4635 O 432.573 3.71766 -4.00565 0
M  V30 4636 H 429.667 0.588117 -0.581418 0
M  V30 4637 H 432.213 0.561328 -1.60147 0
M  V30 4638 H 430.985 1.60316 -3.56952 0
M  V30 4639 H 430.608 3.01351 -2.59371 0
M  V30 4640 N 431.605 1.3629 0.791371 0
M  V30 4641 C 432.515 1.32606 1.93527 0
M  V30 4642 C 433.531 0.228541 1.72493 0
M  V30 4643 O 434.707 0.460571 1.96063 0
M  V30 4644 C 431.772 1.11271 3.28359 0
M  V30 4645 C 430.833 2.3048 3.62185 0
M  V30 4646 C 430.066 2.10154 4.90583 0
M  V30 4647 O 430.289 1.07572 5.60165 0
M  V30 4648 O 429.223 2.97884 5.23019 0
M  V30 4649 H 433.049 2.28909 1.99585 0
M  V30 4650 H 430.634 1.16818 0.931344 0
M  V30 4651 H 432.516 1.01283 4.09047 0
M  V30 4652 H 431.191 0.180292 3.23198 0
M  V30 4653 H 430.098 2.46036 2.81811 0
M  V30 4654 H 431.431 3.22221 3.72068 0
M  V30 4655 N 433.083 -1.0153 1.20538 0
M  V30 4656 C 434.031 -2.12215 0.952235 0
M  V30 4657 C 435.025 -1.69123 -0.0968735 0
M  V30 4658 O 436.231 -1.7992 0.0536006 0
M  V30 4659 H 432.606 -0.693576 0.290613 0
M  V30 4660 H 434.577 -2.3075 1.89201 0
M  V30 4661 C 433.326 -3.43755 0.522287 0
M  V30 4662 H 432.649 -3.7734 1.32115 0
M  V30 4663 H 434.089 -4.22254 0.384389 0
M  V30 4664 C 432.548 -3.28088 -0.765489 0
M  V30 4665 O 433.078 -3.57921 -1.8236 0
M  V30 4666 N 431.284 -2.81333 -0.728011 0
M  V30 4667 H 430.831 -2.57255 0.133332 0
M  V30 4668 H 430.789 -2.71232 -1.58999 0
M  V30 4669 N 434.561 -1.01147 -1.20859 0
M  V30 4670 C 435.491 -0.597663 -2.25722 0
M  V30 4671 C 436.472 0.384744 -1.65692 0
M  V30 4672 O 437.657 0.271303 -1.92296 0
M  V30 4673 C 434.787 0.0700149 -3.47229 0
M  V30 4674 C 433.741 -0.832843 -4.19819 0
M  V30 4675 C 433.067 -0.0312202 -5.34691 0
M  V30 4676 C 434.367 -2.1385 -4.76514 0
M  V30 4677 H 436.061 -1.47423 -2.60589 0
M  V30 4678 H 433.607 -0.710301 -1.25263 0
M  V30 4679 H 435.56 0.37103 -4.19763 0
M  V30 4680 H 434.284 0.981259 -3.11511 0
M  V30 4681 H 432.943 -1.11778 -3.49144 0
M  V30 4682 H 432.591 0.881515 -4.95215 0
M  V30 4683 H 432.291 -0.632434 -5.84187 0
M  V30 4684 H 433.815 0.26346 -6.10031 0
M  V30 4685 H 435.229 -1.9002 -5.40893 0
M  V30 4686 H 433.626 -2.69012 -5.36426 0
M  V30 4687 H 434.696 -2.80495 -3.95538 0
M  V30 4688 N 436.039 1.36541 -0.78704 0
M  V30 4689 C 437.455 1.52571 -0.46844 0
M  V30 4690 C 437.655 1.7415 1.01361 0
M  V30 4691 O 436.711 1.77163 1.79915 0
M  V30 4692 C 438.024 2.71299 -1.29682 0
M  V30 4693 C 439.572 2.85169 -1.29027 0
M  V30 4694 C 440.047 4.06898 -2.10233 0
M  V30 4695 N 441.538 4.1404 -2.07666 0
M  V30 4696 C 442.273 5.07301 -2.67271 0
M  V30 4697 N 441.769 6.06021 -3.35724 0
M  V30 4698 N 443.562 4.99898 -2.57018 0
M  V30 4699 H 435.713 1.20788 -1.74711 0
M  V30 4700 H 437.976 0.589364 -0.742532 0
M  V30 4701 H 437.682 2.61868 -2.34773 0
M  V30 4702 H 437.556 3.6539 -0.936479 0
M  V30 4703 H 439.943 2.94062 -0.247284 0
M  V30 4704 H 440.024 1.91992 -1.69035 0
M  V30 4705 H 439.668 3.98766 -3.1456 0
M  V30 4706 H 439.598 4.99218 -1.67597 0
M  V30 4707 H 442.089 3.43357 -1.57843 0
M  V30 4708 H 442.402 6.73741 -3.78541 0
M  V30 4709 H 440.747 6.06253 -3.39826 0
M  V30 4710 H 443.938 4.21724 -2.03142 0
M  V30 4711 H 444.111 5.72392 -3.03761 0
M  V30 4712 N 437.518 0.538854 1.48102 0
M  V30 4713 C 438.767 0.0059532 2.01699 0
M  V30 4714 C 439.08 -1.34476 1.42041 0
M  V30 4715 O 440.286 -1.96653 1.87189 0
M  V30 4716 C 438.742 -0.0397627 3.59878 0
M  V30 4717 C 438.35 1.30659 4.28523 0
M  V30 4718 C 440.094 -0.521024 4.2129 0
M  V30 4719 C 438.001 1.22098 5.78659 0
M  V30 4720 H 436.931 -0.00154456 0.753998 0
M  V30 4721 H 439.582 0.683963 1.70277 0
M  V30 4722 H 437.964 -0.783037 3.88181 0
M  V30 4723 H 439.138 2.06613 4.11883 0
M  V30 4724 H 437.453 1.7243 3.79021 0
M  V30 4725 H 440.05 -0.603184 5.31287 0
M  V30 4726 H 440.393 -1.52885 3.8721 0
M  V30 4727 H 440.926 0.166834 3.9745 0
M  V30 4728 H 437.665 2.20424 6.17328 0
M  V30 4729 H 437.185 0.50295 5.97688 0
M  V30 4730 H 438.864 0.915345 6.40492 0
M  V30 4731 N 438.996 -1.55193 0.274407 0
M  V30 4732 C 440.242 -1.99877 -0.343086 0
M  V30 4733 C 440.575 -1.16256 -1.55558 0
M  V30 4734 O 439.85 -0.232462 -1.93106 0
M  V30 4735 C 440.133 -3.52706 -0.725965 0
M  V30 4736 C 439.986 -4.47081 0.493818 0
M  V30 4737 C 441.305 -4.11422 -1.56268 0
M  V30 4738 H 438.424 -0.726625 -0.123229 0
M  V30 4739 H 441.066 -1.86136 0.38121 0
M  V30 4740 H 439.216 -3.64546 -1.34307 0
M  V30 4741 H 440.888 -4.47186 1.13237 0
M  V30 4742 H 439.131 -4.1877 1.13201 0
M  V30 4743 H 439.802 -5.51699 0.18217 0
M  V30 4744 H 442.278 -4.02855 -1.04151 0
M  V30 4745 H 441.154 -5.18568 -1.79939 0
M  V30 4746 H 441.415 -3.61607 -2.54348 0
M  V30 4747 N 440.474 -0.00167713 -1.576 0
M  V30 4748 C 441.72 0.683832 -1.90923 0
M  V30 4749 C 442.053 1.7333 -0.875799 0
M  V30 4750 O 441.328 1.94215 0.10525 0
M  V30 4751 C 441.611 1.32543 -3.3482 0
M  V30 4752 C 441.464 0.287387 -4.48881 0
M  V30 4753 C 442.783 2.25114 -3.78169 0
M  V30 4754 H 439.902 0.247125 -0.694333 0
M  V30 4755 H 442.544 -0.0533149 -1.89925 0
M  V30 4756 H 440.694 1.95372 -3.35801 0
M  V30 4757 H 442.366 -0.341346 -4.60035 0
M  V30 4758 H 440.609 -0.39017 -4.32042 0
M  V30 4759 H 441.28 0.775393 -5.46527 0
M  V30 4760 H 443.756 1.723 -3.7875 0
M  V30 4761 H 442.632 2.66971 -4.79602 0
M  V30 4762 H 442.893 3.13092 -3.12131 0
M  V30 4763 N 441.952 1.55251 0.271103 0
M  V30 4764 C 442.915 1.87484 1.31842 0
M  V30 4765 C 443.915 0.749545 1.42262 0
M  V30 4766 O 445.105 1.01771 1.4138 0
M  V30 4767 C 442.237 2.0818 2.69951 0
M  V30 4768 H 443.43 2.81108 1.0449 0
M  V30 4769 H 440.983 1.47771 0.509258 0
M  V30 4770 H 441.718 1.16944 3.02481 0
M  V30 4771 H 441.503 2.90114 2.63774 0
M  V30 4772 H 442.993 2.34385 3.4562 0
M  V30 4773 N 443.43 -0.535701 1.48216 0
M  V30 4774 C 444.707 -1.29683 1.46429 0
M  V30 4775 C 445.087 -2.10391 0.172852 0
M  V30 4776 O 444.435 -2.12282 -0.845488 0
M  V30 4777 C 444.645 -2.18313 2.72287 0
M  V30 4778 C 445.993 -2.78639 3.20383 0
M  V30 4779 O 447.017 -2.28604 2.73164 0
M  V30 4780 O 445.876 -3.69636 4.02531 0
M  V30 4781 H 442.97 -0.585026 0.584529 0
M  V30 4782 H 445.516 -0.552827 1.60443 0
M  V30 4783 H 444.288 -1.58421 3.57797 0
M  V30 4784 H 443.911 -2.99971 2.60966 0
M  V30 4785 N 444.908 -1.36708 -0.784132 0
M  V30 4786 C 445.838 -1.34153 -1.91116 0
M  V30 4787 C 446.819 -0.212121 -1.68772 0
M  V30 4788 O 448.004 -0.410581 -1.8981 0
M  V30 4789 C 445.134 -1.13535 -3.28218 0
M  V30 4790 C 444.088 -2.23356 -3.65097 0
M  V30 4791 C 443.414 -1.87875 -5.00607 0
M  V30 4792 C 444.714 -3.65473 -3.73131 0
M  V30 4793 H 446.408 -2.28459 -1.93512 0
M  V30 4794 H 443.954 -1.09973 -0.929618 0
M  V30 4795 H 445.907 -1.10381 -4.06687 0
M  V30 4796 H 444.631 -0.156804 -3.26223 0
M  V30 4797 H 443.29 -2.25645 -2.88929 0
M  V30 4798 H 442.938 -0.885814 -4.95139 0
M  V30 4799 H 442.638 -2.61406 -5.26252 0
M  V30 4800 H 444.162 -1.86286 -5.81489 0
M  V30 4801 H 445.576 -3.65382 -4.41779 0
M  V30 4802 H 443.973 -4.37953 -4.10265 0
M  V30 4803 H 445.043 -3.99995 -2.74102 0
M  V30 4804 N 446.386 1.0089 -1.21074 0
M  V30 4805 C 447.633 1.74607 -1.0256 0
M  V30 4806 C 447.961 1.89426 0.44136 0
M  V30 4807 O 447.216 1.42266 1.34384 0
M  V30 4808 C 447.515 3.16335 -1.66334 0
M  V30 4809 C 447.181 3.21474 -3.16173 0
M  V30 4810 C 445.843 3.22583 -3.57062 0
M  V30 4811 C 448.195 3.19025 -4.12156 0
M  V30 4812 C 445.523 3.18925 -4.92446 0
M  V30 4813 C 447.875 3.16909 -5.47496 0
M  V30 4814 C 446.539 3.16326 -5.87787 0
M  V30 4815 H 445.809 0.638933 -0.375294 0
M  V30 4816 H 448.456 1.18274 -1.50611 0
M  V30 4817 H 446.761 3.75876 -1.10566 0
M  V30 4818 H 448.458 3.72083 -1.49516 0
M  V30 4819 H 445.048 3.2135 -2.83605 0
M  V30 4820 H 449.232 3.17332 -3.81595 0
M  V30 4821 H 444.488 3.16809 -5.22917 0
M  V30 4822 H 448.662 3.13968 -6.21609 0
M  V30 4823 H 446.289 3.13246 -6.92662 0
M  V30 4824 N 447.864 1.01787 1.20321 0
M  V30 4825 C 449.089 0.727009 1.9424 0
M  V30 4826 C 449.514 -0.706179 1.74341 0
M  V30 4827 O 448.872 -1.48609 1.03852 0
M  V30 4828 C 448.92 1.06958 3.44372 0
M  V30 4829 O 448.024 0.181983 4.11998 0
M  V30 4830 H 447.365 0.269626 0.606793 0
M  V30 4831 H 449.895 1.36158 1.52716 0
M  V30 4832 H 449.905 1.02182 3.94997 0
M  V30 4833 H 448.58 2.11378 3.58179 0
M  V30 4834 H 447.157 0.287378 3.71791 0
M  V30 4835 N 449.342 -1.36122 0.79427 0
M  V30 4836 C 450.305 -2.28309 0.201889 0
M  V30 4837 C 451.305 -1.49041 -0.603603 0
M  V30 4838 O 452.495 -1.68964 -0.423888 0
M  V30 4839 C 449.627 -3.3321 -0.719978 0
M  V30 4840 H 450.82 -2.82208 1.01481 0
M  V30 4841 H 448.373 -1.45768 0.564037 0
M  V30 4842 H 449.108 -2.84475 -1.55706 0
M  V30 4843 H 448.893 -3.91835 -0.144266 0
M  V30 4844 H 450.383 -4.02044 -1.12916 0
M  V30 4845 N 450.82 -0.546701 -1.47814 0
M  V30 4846 C 452.068 -0.0187037 -2.02091 0
M  V30 4847 C 452.389 1.33168 -1.42447 0
M  V30 4848 O 451.659 1.86619 -0.595839 0
M  V30 4849 H 450.239 -0.00392531 -0.74699 0
M  V30 4850 H 452.901 -0.714327 -1.81338 0
M  V30 4851 H 451.997 0.0772219 -3.12004 0
M  V30 4852 N 452.299 1.55045 -0.282633 0
M  V30 4853 C 453.232 2.18951 0.64311 0
M  V30 4854 C 454.21 1.15287 1.14664 0
M  V30 4855 O 455.394 1.43846 1.21822 0
M  V30 4856 C 452.521 2.81874 1.87789 0
M  V30 4857 C 451.567 3.98906 1.50919 0
M  V30 4858 S 452.4 5.3234 0.580884 0
M  V30 4859 C 453.556 5.98737 1.82387 0
M  V30 4860 H 453.789 2.97131 0.100138 0
M  V30 4861 H 451.322 1.54255 -0.0668514 0
M  V30 4862 H 453.28 3.18757 2.58658 0
M  V30 4863 H 451.941 2.03573 2.392 0
M  V30 4864 H 451.134 4.4165 2.42819 0
M  V30 4865 H 450.736 3.63485 0.88061 0
M  V30 4866 H 453.028 6.18427 2.76684 0
M  V30 4867 H 453.971 6.93318 1.4393 0
M  V30 4868 H 454.379 5.28177 1.99223 0
M  V30 4869 N 453.777 0.010035 1.57597 0
M  V30 4870 C 455.023 -0.673697 1.91283 0
M  V30 4871 C 455.356 -1.72863 0.884979 0
M  V30 4872 O 454.631 -1.94268 -0.0949487 0
M  V30 4873 C 454.914 -1.30766 3.35518 0
M  V30 4874 C 454.767 -0.263578 4.49027 0
M  V30 4875 C 456.086 -2.23105 3.79358 0
M  V30 4876 H 453.205 -0.243439 0.695634 0
M  V30 4877 H 455.847 0.0633864 1.89894 0
M  V30 4878 H 453.997 -1.93588 3.36832 0
M  V30 4879 H 455.669 0.365738 4.59848 0
M  V30 4880 H 453.912 0.413077 4.31829 0
M  V30 4881 H 454.583 -0.746398 5.4693 0
M  V30 4882 H 457.059 -1.70289 3.79659 0
M  V30 4883 H 455.935 -2.64424 4.81011 0
M  V30 4884 H 456.196 -3.11433 3.13787 0
M  V30 4885 N 455.255 -1.55392 -0.262866 0
M  V30 4886 C 456.483 -1.80513 -1.01108 0
M  V30 4887 C 456.898 -0.583533 -1.79556 0
M  V30 4888 O 456.255 0.447585 -1.76926 0
M  V30 4889 C 456.306 -3.03648 -1.96164 0
M  V30 4890 O 456.027 -4.2109 -1.20893 0
M  V30 4891 C 457.528 -3.41448 -2.82715 0
M  V30 4892 H 454.748 -0.601079 -0.298236 0
M  V30 4893 H 457.292 -2.02425 -0.290582 0
M  V30 4894 H 455.447 -2.83832 -2.63663 0
M  V30 4895 H 455.861 -4.90771 -1.85051 0
M  V30 4896 H 457.335 -4.30751 -3.45192 0
M  V30 4897 H 457.812 -2.61308 -3.53008 0
M  V30 4898 H 458.418 -3.63559 -2.20693 0
M  V30 4899 N 456.733 0.527833 -1.48498 0
M  V30 4900 C 457.961 1.30823 -1.6029 0
M  V30 4901 C 458.376 1.86945 -0.263974 0
M  V30 4902 O 457.733 1.6651 0.747034 0
M  V30 4903 C 457.784 2.45756 -2.65116 0
M  V30 4904 O 457.505 1.91946 -3.93813 0
M  V30 4905 C 459.006 3.37543 -2.87367 0
M  V30 4906 H 456.226 0.397763 -0.540394 0
M  V30 4907 H 458.77 0.636529 -1.94341 0
M  V30 4908 H 456.925 3.08806 -2.33917 0
M  V30 4909 H 457.339 2.67195 -4.51339 0
M  V30 4910 H 458.813 4.14532 -3.6451 0
M  V30 4911 H 459.29 3.92905 -1.9627 0
M  V30 4912 H 459.896 2.80283 -3.19878 0
M  V30 4913 N 458.211 1.37122 0.776871 0
M  V30 4914 C 459.436 1.354 1.57104 0
M  V30 4915 C 459.861 -0.0595562 1.88006 0
M  V30 4916 O 459.219 -1.03514 1.48844 0
M  V30 4917 C 459.267 2.19472 2.8612 0
M  V30 4918 O 458.371 1.59582 3.80273 0
M  V30 4919 H 457.712 0.462869 0.476076 0
M  V30 4920 H 460.242 1.80577 0.961932 0
M  V30 4921 H 460.252 2.32502 3.35271 0
M  V30 4922 H 458.927 3.22222 2.62956 0
M  V30 4923 H 457.504 1.55564 3.38902 0
M  V30 4924 N 459.689 -1.00246 1.21608 0
M  V30 4925 C 460.917 -1.77631 1.06089 0
M  V30 4926 C 461.332 -1.84746 -0.38916 0
M  V30 4927 O 460.689 -1.31068 -1.26994 0
M  V30 4928 C 460.74 -3.21415 1.65453 0
M  V30 4929 O 460.461 -3.14703 3.04785 0
M  V30 4930 C 461.962 -4.15289 1.55079 0
M  V30 4931 H 459.182 -0.558162 0.37242 0
M  V30 4932 H 461.726 -1.26093 1.60999 0
M  V30 4933 H 459.881 -3.70053 1.14629 0
M  V30 4934 H 460.295 -4.05056 3.33212 0
M  V30 4935 H 461.769 -5.13965 2.01355 0
M  V30 4936 H 462.246 -4.36279 0.505665 0
M  V30 4937 H 462.852 -3.72543 2.05163 0
M  V30 4938 N 461.167 -1.02423 -1.1978 0
M  V30 4939 C 462.395 -0.737456 -1.93311 0
M  V30 4940 C 462.81 0.703023 -1.75223 0
M  V30 4941 O 462.167 1.47761 -1.07112 0
M  V30 4942 C 462.218 -1.0733 -3.45199 0
M  V30 4943 O 461.939 -2.4572 -3.62702 0
M  V30 4944 C 463.44 -0.80866 -4.35862 0
M  V30 4945 H 460.66 -0.2702 -0.614193 0
M  V30 4946 H 463.204 -1.36747 -1.52054 0
M  V30 4947 H 461.359 -0.488545 -3.84307 0
M  V30 4948 H 461.773 -2.58081 -4.56612 0
M  V30 4949 H 463.247 -1.09365 -5.41057 0
M  V30 4950 H 463.724 0.257025 -4.38447 0
M  V30 4951 H 464.33 -1.37592 -4.02428 0
M  V30 4952 N 462.645 1.35699 -0.801477 0
M  V30 4953 C 463.575 2.32436 -0.222658 0
M  V30 4954 C 464.556 1.5723 0.649057 0
M  V30 4955 O 465.741 1.85324 0.580387 0
M  V30 4956 C 462.871 3.41469 0.633719 0
M  V30 4957 C 461.825 4.27774 -0.139083 0
M  V30 4958 C 461.151 5.28082 0.838666 0
M  V30 4959 C 462.451 5.04946 -1.33517 0
M  V30 4960 H 464.145 2.81094 -1.03086 0
M  V30 4961 H 461.691 1.35146 -0.497155 0
M  V30 4962 H 463.644 4.08143 1.04868 0
M  V30 4963 H 462.368 2.91408 1.47475 0
M  V30 4964 H 461.027 3.62673 -0.535156 0
M  V30 4965 H 460.675 4.7429 1.67506 0
M  V30 4966 H 460.375 5.86695 0.32594 0
M  V30 4967 H 461.899 5.97628 1.25194 0
M  V30 4968 H 463.313 5.64593 -0.995349 0
M  V30 4969 H 461.71 5.7303 -1.78202 0
M  V30 4970 H 462.78 4.35886 -2.12442 0
M  V30 4971 N 464.123 0.554532 1.47522 0
M  V30 4972 C 465.086 -0.184174 2.28459 0
M  V30 4973 C 466.086 -0.845195 1.36796 0
M  V30 4974 O 467.276 -0.701467 1.59452 0
M  V30 4975 C 464.408 -1.26903 3.16399 0
M  V30 4976 H 465.601 0.526751 2.95238 0
M  V30 4977 H 463.154 0.311375 1.53167 0
M  V30 4978 H 463.889 -2.01244 2.54306 0
M  V30 4979 H 463.674 -0.799883 3.83854 0
M  V30 4980 H 465.164 -1.78794 3.77389 0
M  V30 4981 N 465.601 -1.54893 0.290851 0
M  V30 4982 C 466.847 -2.00949 -0.314784 0
M  V30 4983 C 467.202 -1.1757 -1.52299 0
M  V30 4984 O 466.495 -0.241558 -1.90071 0
M  V30 4985 C 466.689 -3.49815 -0.732397 0
M  V30 4986 C 466.518 -4.47603 0.433799 0
M  V30 4987 C 465.288 -4.96806 0.922599 0
M  V30 4988 C 467.486 -4.98233 1.27546 0
M  V30 4989 N 465.468 -5.78426 2.05662 0
M  V30 4990 C 466.839 -5.77455 2.25712 0
M  V30 4991 C 468.894 -4.80439 1.307 0
M  V30 4992 C 467.597 -6.40778 3.26796 0
M  V30 4993 C 469.623 -5.44574 2.30637 0
M  V30 4994 C 468.985 -6.23619 3.27533 0
M  V30 4995 H 465.084 -0.777905 -0.0799257 0
M  V30 4996 H 467.668 -1.9015 0.418458 0
M  V30 4997 H 465.839 -3.60925 -1.43483 0
M  V30 4998 H 467.571 -3.82681 -1.31671 0
M  V30 4999 H 464.326 -4.70961 0.49926 0
M  V30 5000 H 464.75 -6.23923 2.62772 0
M  V30 5001 H 469.392 -4.18918 0.571622 0
M  V30 5002 H 467.11 -7.01439 4.01258 0
M  V30 5003 H 470.696 -5.32739 2.33838 0
M  V30 5004 H 469.576 -6.72367 4.03599 0
M  V30 5005 N 467.08 -0.0183926 -1.57589 0
M  V30 5006 C 468.328 0.661253 -1.90976 0
M  V30 5007 C 468.649 1.73281 -0.894353 0
M  V30 5008 O 467.919 1.9579 0.0656788 0
M  V30 5009 H 466.499 0.247233 -0.704901 0
M  V30 5010 H 469.161 -0.0636639 -1.94796 0
M  V30 5011 H 468.257 1.12083 -2.9128 0
M  V30 5012 N 468.558 1.5553 0.254621 0
M  V30 5013 C 469.488 1.9268 1.31897 0
M  V30 5014 C 470.469 0.790797 1.506 0
M  V30 5015 O 471.654 1.05045 1.63337 0
M  V30 5016 C 468.784 2.21477 2.67517 0
M  V30 5017 C 467.738 3.37256 2.63519 0
M  V30 5018 C 467.064 3.51576 4.02862 0
M  V30 5019 C 468.364 4.73157 2.21179 0
M  V30 5020 H 470.058 2.81832 1.01051 0
M  V30 5021 H 467.604 1.35599 0.484662 0
M  V30 5022 H 469.557 2.46055 3.42104 0
M  V30 5023 H 468.281 1.29144 2.99982 0
M  V30 5024 H 466.94 3.12675 1.9139 0
M  V30 5025 H 466.588 2.56676 4.32581 0
M  V30 5026 H 466.288 4.2943 4.01078 0
M  V30 5027 H 467.812 3.78467 4.79161 0
M  V30 5028 H 469.226 4.97158 2.85494 0
M  V30 5029 H 467.623 5.54058 2.30521 0
M  V30 5030 H 468.693 4.70739 1.16332 0
M  V30 5031 N 470.036 -0.519951 1.48776 0
M  V30 5032 C 470.966 -1.63253 1.66945 0
M  V30 5033 C 471.947 -1.62014 0.518224 0
M  V30 5034 O 473.132 -1.79053 0.751919 0
M  V30 5035 C 470.262 -3.0181 1.71836 0
M  V30 5036 C 469.216 -3.17911 2.8656 0
M  V30 5037 C 468.542 -4.5763 2.76548 0
M  V30 5038 C 469.842 -2.99729 4.27738 0
M  V30 5039 H 471.536 -1.48302 2.6009 0
M  V30 5040 H 469.082 -0.712026 1.25165 0
M  V30 5041 H 471.035 -3.79525 1.83135 0
M  V30 5042 H 469.759 -3.17806 0.752775 0
M  V30 5043 H 468.418 -2.42616 2.74833 0
M  V30 5044 H 468.066 -4.70476 1.77937 0
M  V30 5045 H 467.766 -4.69346 3.53536 0
M  V30 5046 H 469.29 -5.37431 2.89828 0
M  V30 5047 H 470.704 -3.67228 4.40246 0
M  V30 5048 H 469.101 -3.22932 5.05801 0
M  V30 5049 H 470.171 -1.96047 4.43502 0
M  V30 5050 N 471.514 -1.37532 -0.769588 0
M  V30 5051 C 472.444 -1.36172 -1.89682 0
M  V30 5052 C 473.425 -0.23001 -1.68538 0
M  V30 5053 O 474.61 -0.43069 -1.89364 0
M  V30 5054 C 471.74 -1.1701 -3.26995 0
M  V30 5055 C 470.694 -2.27216 -3.62708 0
M  V30 5056 C 470.02 -1.93174 -4.98586 0
M  V30 5057 C 471.32 -3.6941 -3.69234 0
M  V30 5058 H 473.014 -2.30499 -1.91078 0
M  V30 5059 H 470.56 -1.10953 -0.917902 0
M  V30 5060 H 472.513 -1.14688 -4.05493 0
M  V30 5061 H 471.237 -0.191395 -3.26039 0
M  V30 5062 H 469.896 -2.28697 -2.86519 0
M  V30 5063 H 469.544 -0.938281 -4.94171 0
M  V30 5064 H 469.244 -2.66973 -5.23449 0
M  V30 5065 H 470.768 -1.92443 -5.79481 0
M  V30 5066 H 472.182 -3.70047 -4.37879 0
M  V30 5067 H 470.579 -4.4228 -4.05597 0
M  V30 5068 H 471.649 -4.0288 -2.69844 0
M  V30 5069 N 472.992 0.995999 -1.22138 0
M  V30 5070 C 473.925 2.08302 -0.931952 0
M  V30 5071 C 474.903 1.62127 0.123956 0
M  V30 5072 O 476.087 1.88499 -0.00696004 0
M  V30 5073 C 473.214 3.36317 -0.401068 0
M  V30 5074 C 472.26 4.01413 -1.44117 0
M  V30 5075 S 473.093 4.42664 -3.01345 0
M  V30 5076 C 474.249 5.73853 -2.49887 0
M  V30 5077 H 474.482 2.32532 -1.85246 0
M  V30 5078 H 472.015 1.13005 -1.0521 0
M  V30 5079 H 473.973 4.10375 -0.101352 0
M  V30 5080 H 472.634 3.10123 0.498272 0
M  V30 5081 H 471.827 4.9358 -1.01952 0
M  V30 5082 H 471.429 3.33668 -1.68943 0
M  V30 5083 H 473.721 6.50039 -1.90934 0
M  V30 5084 H 474.664 6.20841 -3.40532 0
M  V30 5085 H 475.072 5.31105 -1.9128 0
M  V30 5086 N 474.47 1.03057 1.19235 0
M  V30 5087 C 475.719 0.72326 1.88287 0
M  V30 5088 C 476.032 -0.751333 1.80594 0
M  V30 5089 O 477.238 -1.17176 2.44912 0
M  V30 5090 C 475.694 1.24338 3.3774 0
M  V30 5091 C 475.302 2.74587 3.53986 0
M  V30 5092 C 477.046 1.01213 4.12257 0
M  V30 5093 C 474.953 3.20009 4.97341 0
M  V30 5094 H 473.883 0.266848 0.705201 0
M  V30 5095 H 476.534 1.24509 1.34795 0
M  V30 5096 H 474.916 0.649457 3.90638 0
M  V30 5097 H 476.09 3.39649 3.11408 0
M  V30 5098 H 474.405 2.9601 2.9286 0
M  V30 5099 H 477.002 1.32675 5.17978 0
M  V30 5100 H 477.345 -0.051001 4.16269 0
M  V30 5101 H 477.878 1.57014 3.65501 0
M  V30 5102 H 474.617 4.25659 4.98493 0
M  V30 5103 H 474.137 2.59676 5.40674 0
M  V30 5104 H 475.816 3.13447 5.66003 0
M  V30 5105 N 475.948 -1.35272 0.808662 0
M  V30 5106 C 476.878 -2.32315 0.234981 0
M  V30 5107 C 477.859 -1.57572 -0.64071 0
M  V30 5108 O 479.044 -1.8563 -0.570551 0
M  V30 5109 C 476.174 -3.41801 -0.615601 0
M  V30 5110 C 475.128 -4.27694 0.161767 0
M  V30 5111 C 474.454 -5.28519 -0.810649 0
M  V30 5112 C 475.754 -5.04231 1.36193 0
M  V30 5113 H 477.448 -2.80543 1.04575 0
M  V30 5114 H 474.994 -1.3488 0.504315 0
M  V30 5115 H 476.947 -4.08693 -1.02702 0
M  V30 5116 H 475.671 -2.92186 -1.45928 0
M  V30 5117 H 474.33 -3.62384 0.554382 0
M  V30 5118 H 473.978 -4.75171 -1.64988 0
M  V30 5119 H 473.678 -5.8686 -0.294822 0
M  V30 5120 H 475.202 -5.98283 -1.22023 0
M  V30 5121 H 476.616 -5.64058 1.02528 0
M  V30 5122 H 475.013 -5.72077 1.81239 0
M  V30 5123 H 476.083 -4.34753 2.14751 0
M  V30 5124 N 477.426 -0.562348 -1.47226 0
M  V30 5125 C 478.376 0.202967 -2.27095 0
M  V30 5126 C 479.36 0.880611 -1.34663 0
M  V30 5127 O 480.552 0.778069 -1.58981 0
M  V30 5128 C 477.681 1.22906 -3.20545 0
M  V30 5129 C 476.767 0.554566 -4.20459 0
M  V30 5130 N 477.158 -0.378295 -5.04383 0
M  V30 5131 C 475.456 0.807854 -4.38623 0
M  V30 5132 C 476.157 -0.770583 -5.76573 0
M  V30 5133 N 475.133 -0.124263 -5.43458 0
M  V30 5134 H 478.935 -0.514196 -2.89367 0
M  V30 5135 H 476.449 -0.382655 -1.57827 0
M  V30 5136 H 478.446 1.79134 -3.76453 0
M  V30 5137 H 477.106 1.94726 -2.59831 0
M  V30 5138 H 478.117 -0.75274 -5.124 0
M  V30 5139 H 474.794 1.51418 -3.89075 0
M  V30 5140 H 476.184 -1.53742 -6.54074 0
M  V30 5141 N 478.904 1.54736 -0.299062 0
M  V30 5142 C 480.315 1.8569 0.193971 0
M  V30 5143 C 480.666 1.22101 1.53577 0
M  V30 5144 O 479.791 0.51799 2.10109 0
M  V30 5145 C 480.386 3.36895 0.358733 0
M  V30 5146 C 478.945 3.67887 0.795986 0
M  V30 5147 C 478.092 2.77131 -0.096807 0
M  V30 5148 H 481.043 1.49934 -0.520134 0
M  V30 5149 H 481.064 3.61294 1.19361 0
M  V30 5150 H 480.576 3.83148 -0.617998 0
M  V30 5151 H 478.677 3.27151 1.78334 0
M  V30 5152 H 478.79 4.75114 0.616718 0
M  V30 5153 H 477.154 2.51153 0.423581 0
M  V30 5154 H 477.937 3.26204 -1.06986 0
M  V30 5155 N 480.382 0.0267497 1.57577 0
M  V30 5156 C 481.659 -0.690926 1.82991 0
M  V30 5157 C 482.039 -1.90471 0.910164 0
M  V30 5158 O 481.387 -2.28474 -0.0347985 0
M  V30 5159 C 481.597 -1.07139 3.32148 0
M  V30 5160 C 482.945 -1.46402 3.98562 0
M  V30 5161 O 483.969 -1.16443 3.36629 0
M  V30 5162 O 482.828 -2.02214 5.07712 0
M  V30 5163 H 479.922 -0.338747 0.75444 0
M  V30 5164 H 482.468 0.0542506 1.69613 0
M  V30 5165 H 481.24 -0.207394 3.9075 0
M  V30 5166 H 480.863 -1.87481 3.50623 0
M  V30 5167 N 481.861 -1.55662 -0.24637 0
M  V30 5168 C 483.107 -1.77782 -0.975779 0
M  V30 5169 C 483.44 -0.592103 -1.84953 0
M  V30 5170 O 482.715 0.409588 -1.90138 0
M  V30 5171 C 482.998 -3.09788 -1.83584 0
M  V30 5172 C 482.851 -4.38764 -0.990241 0
M  V30 5173 C 484.17 -3.38029 -2.81823 0
M  V30 5174 H 481.289 -0.646789 -0.353317 0
M  V30 5175 H 483.931 -1.88398 -0.246248 0
M  V30 5176 H 482.081 -3.00869 -2.45784 0
M  V30 5177 H 483.753 -4.59675 -0.386897 0
M  V30 5178 H 481.996 -4.32798 -0.294626 0
M  V30 5179 H 482.667 -5.27514 -1.62584 0
M  V30 5180 H 485.143 -3.46915 -2.2976 0
M  V30 5181 H 484.019 -4.3161 -3.39122 0
M  V30 5182 H 484.28 -2.58968 -3.58313 0
M  V30 5183 N 483.339 0.512053 -1.4905 0
M  V30 5184 C 484.271 1.63121 -1.6101 0
M  V30 5185 C 485.284 1.55145 -0.493352 0
M  V30 5186 O 486.473 1.61278 -0.764955 0
M  V30 5187 C 483.573 3.01863 -1.54052 0
M  V30 5188 C 482.746 3.35138 -2.81072 0
M  V30 5189 C 481.805 4.5324 -2.67319 0
M  V30 5190 O 480.831 4.55571 -3.41238 0
M  V30 5191 N 482.033 5.52495 -1.78127 0
M  V30 5192 H 484.798 1.53292 -2.5753 0
M  V30 5193 H 482.359 0.699706 -1.45999 0
M  V30 5194 H 484.351 3.78774 -1.42521 0
M  V30 5195 H 482.921 3.05675 -0.654345 0
M  V30 5196 H 482.141 2.4723 -3.07036 0
M  V30 5197 H 483.429 3.54162 -3.65304 0
M  V30 5198 H 482.827 5.53403 -1.17308 0
M  V30 5199 H 481.384 6.28553 -1.72525 0
M  V30 5200 N 484.817 1.37938 0.762283 0
M  V30 5201 C 486.233 1.18945 1.06415 0
M  V30 5202 C 486.433 0.0321163 2.01474 0
M  V30 5203 O 485.489 -0.624844 2.44647 0
M  V30 5204 C 486.802 2.51218 1.65258 0
M  V30 5205 C 488.35 2.57824 1.7747 0
M  V30 5206 C 488.825 3.90251 2.39725 0
M  V30 5207 N 490.316 3.91744 2.47166 0
M  V30 5208 C 491.051 4.90966 2.96209 0
M  V30 5209 N 490.547 6.00585 3.45354 0
M  V30 5210 N 492.34 4.78363 2.9517 0
M  V30 5211 H 484.491 2.11994 0.131301 0
M  V30 5212 H 486.754 0.940262 0.120879 0
M  V30 5213 H 486.46 3.36317 1.02878 0
M  V30 5214 H 486.334 2.68989 2.64433 0
M  V30 5215 H 488.721 1.73126 2.3898 0
M  V30 5216 H 488.802 2.43928 0.770241 0
M  V30 5217 H 488.446 4.75368 1.78852 0
M  V30 5218 H 488.376 4.01454 3.40796 0
M  V30 5219 H 490.867 3.12563 2.12397 0
M  V30 5220 H 491.18 6.72236 3.81207 0
M  V30 5221 H 489.525 6.04217 3.43434 0
M  V30 5222 H 492.716 3.91841 2.56082 0
M  V30 5223 H 492.889 5.55843 3.33081 0
M  V30 5224 N 486.295 -0.989507 1.22664 0
M  V30 5225 C 487.711 -1.25395 0.987331 0
M  V30 5226 C 487.911 -1.9899 -0.317056 0
M  V30 5227 O 486.967 -2.30141 -1.03882 0
M  V30 5228 C 488.28 -2.06242 2.18826 0
M  V30 5229 C 489.828 -2.19413 2.23219 0
M  V30 5230 C 490.303 -3.03648 3.42873 0
M  V30 5231 N 491.794 -3.11234 3.43056 0
M  V30 5232 C 492.529 -3.7671 4.32293 0
M  V30 5233 N 492.025 -4.44085 5.31752 0
M  V30 5234 N 493.818 -3.73505 4.2006 0
M  V30 5235 H 485.969 -0.496212 2.06522 0
M  V30 5236 H 488.232 -0.281784 0.905153 0
M  V30 5237 H 487.938 -1.59531 3.13437 0
M  V30 5238 H 487.812 -3.06996 2.19165 0
M  V30 5239 H 490.199 -2.65336 1.29154 0
M  V30 5240 H 490.28 -1.18078 2.26917 0
M  V30 5241 H 489.924 -2.58424 4.37241 0
M  V30 5242 H 489.854 -4.05132 3.36416 0
M  V30 5243 H 492.345 -2.63287 2.71088 0
M  V30 5244 H 492.658 -4.91797 5.96117 0
M  V30 5245 H 491.003 -4.42822 5.35662 0
M  V30 5246 H 494.194 -3.20033 3.41609 0
M  V30 5247 H 494.367 -4.24253 4.8981 0
M  V30 5248 N 487.773 -1.03688 -1.18687 0
M  V30 5249 C 489.019 -0.739123 -1.88851 0
M  V30 5250 C 489.352 0.731042 -1.79915 0
M  V30 5251 O 488.627 1.53313 -1.19688 0
M  V30 5252 C 488.91 -1.20106 -3.3948 0
M  V30 5253 C 488.763 -2.73304 -3.57246 0
M  V30 5254 C 490.082 -0.788134 -4.32986 0
M  V30 5255 H 487.201 -0.269978 -0.68577 0
M  V30 5256 H 489.843 -1.28822 -1.3966 0
M  V30 5257 H 487.993 -0.733915 -3.81505 0
M  V30 5258 H 489.665 -3.28027 -3.24339 0
M  V30 5259 H 487.908 -3.13313 -3.00029 0
M  V30 5260 H 488.579 -3.00684 -4.62918 0
M  V30 5261 H 491.055 -1.19005 -3.98719 0
M  V30 5262 H 489.931 -1.13915 -5.36949 0
M  V30 5263 H 490.192 0.308988 -4.41019 0
M  V30 5264 N 489.251 1.34841 -0.815825 0
M  V30 5265 C 490.183 2.28409 -0.190265 0
M  V30 5266 C 491.196 1.50705 0.615771 0
M  V30 5267 O 492.385 1.72822 0.446616 0
M  V30 5268 C 489.485 3.30441 0.752446 0
M  V30 5269 C 488.658 4.37399 -0.00922152 0
M  V30 5270 C 487.717 5.19234 0.853351 0
M  V30 5271 O 486.743 5.68404 0.300919 0
M  V30 5272 N 487.945 5.38248 2.17416 0
M  V30 5273 H 490.71 2.82732 -0.994114 0
M  V30 5274 H 488.271 1.47289 -0.672129 0
M  V30 5275 H 490.263 3.82084 1.33394 0
M  V30 5276 H 488.833 2.76565 1.45707 0
M  V30 5277 H 488.053 3.86567 -0.771979 0
M  V30 5278 H 489.341 5.05992 -0.533807 0
M  V30 5279 H 488.739 4.99961 2.6468 0
M  V30 5280 H 487.296 5.93035 2.70467 0
M  V30 5281 N 490.729 0.570148 1.46925 0
M  V30 5282 C 491.661 -0.207909 2.28255 0
M  V30 5283 C 492.674 -0.867301 1.37774 0
M  V30 5284 O 493.863 -0.738976 1.62485 0
M  V30 5285 C 490.963 -1.31298 3.12433 0
M  V30 5286 C 490.136 -0.747915 4.30958 0
M  V30 5287 C 489.195 -1.7391 4.9663 0
M  V30 5288 O 488.221 -1.2801 5.54619 0
M  V30 5289 N 489.423 -3.07288 4.92498 0
M  V30 5290 H 492.188 0.489794 2.95671 0
M  V30 5291 H 489.749 0.407076 1.56699 0
M  V30 5292 H 491.741 -1.97507 3.53232 0
M  V30 5293 H 490.311 -1.91373 2.47175 0
M  V30 5294 H 489.531 0.0913066 3.94094 0
M  V30 5295 H 490.819 -0.349958 5.07595 0
M  V30 5296 H 490.217 -3.47213 4.46609 0
M  V30 5297 H 488.774 -3.69021 5.37277 0
M  V30 5298 N 492.207 -1.54576 0.307264 0
M  V30 5299 C 493.117 -2.27435 -0.57536 0
M  V30 5300 C 494.133 -1.31183 -1.14311 0
M  V30 5301 O 495.309 -1.64175 -1.16656 0
M  V30 5302 C 492.374 -3.00566 -1.72803 0
M  V30 5303 C 491.435 -4.12369 -1.19373 0
M  V30 5304 C 490.668 -4.82003 -2.29147 0
M  V30 5305 O 490.891 -4.51038 -3.49171 0
M  V30 5306 O 489.825 -5.69271 -1.95485 0
M  V30 5307 H 493.651 -3.03696 0.0158558 0
M  V30 5308 H 491.236 -1.49219 0.0735064 0
M  V30 5309 H 493.118 -3.46416 -2.39946 0
M  V30 5310 H 491.793 -2.27195 -2.30574 0
M  V30 5311 H 490.7 -3.70905 -0.487851 0
M  V30 5312 H 492.033 -4.87736 -0.661376 0
M  V30 5313 N 493.685 -0.035106 -1.57561 0
M  V30 5314 C 494.934 0.641604 -1.91223 0
M  V30 5315 C 495.247 1.72944 -0.913761 0
M  V30 5316 O 496.453 2.46321 -1.14185 0
M  V30 5317 C 494.909 1.19249 -3.3957 0
M  V30 5318 C 494.517 0.137616 -4.47789 0
M  V30 5319 C 496.261 1.84537 -3.82291 0
M  V30 5320 C 494.168 0.700478 -5.87237 0
M  V30 5321 H 493.098 0.243417 -0.713627 0
M  V30 5322 H 495.749 -0.101382 -1.8322 0
M  V30 5323 H 494.131 1.98728 -3.42525 0
M  V30 5324 H 495.305 -0.635153 -4.56402 0
M  V30 5325 H 493.62 -0.416855 -4.14308 0
M  V30 5326 H 496.217 2.27616 -4.83834 0
M  V30 5327 H 496.56 2.69054 -3.17672 0
M  V30 5328 H 497.093 1.11739 -3.81784 0
M  V30 5329 H 493.832 -0.106693 -6.55413 0
M  V30 5330 H 493.352 1.4416 -5.82218 0
M  V30 5331 H 495.031 1.18837 -6.35993 0
M  V30 5332 N 495.163 1.55791 0.238111 0
M  V30 5333 C 496.44 1.68798 0.98826 0
M  V30 5334 C 496.82 0.577562 2.03045 0
M  V30 5335 O 496.168 -0.41778 2.24648 0
M  V30 5336 C 496.378 3.09454 1.61367 0
M  V30 5337 C 497.726 3.68335 2.11221 0
M  V30 5338 O 498.75 3.1231 1.71292 0
M  V30 5339 O 497.609 4.6657 2.84561 0
M  V30 5340 H 494.703 0.686881 0.460568 0
M  V30 5341 H 497.249 1.68118 0.231202 0
M  V30 5342 H 496.021 3.81726 0.860295 0
M  V30 5343 H 495.644 3.14182 2.4367 0
M  V30 5344 N 496.642 -0.504142 1.49319 0
M  V30 5345 C 497.919 -1.26548 1.49147 0
M  V30 5346 C 498.299 -2.09977 0.21744 0
M  V30 5347 O 497.647 -2.14028 -0.800269 0
M  V30 5348 C 497.857 -2.12489 2.76857 0
M  V30 5349 C 499.205 -2.7178 3.26222 0
M  V30 5350 O 500.229 -2.22758 2.77952 0
M  V30 5351 O 499.088 -3.61015 4.10281 0
M  V30 5352 H 496.182 -0.572495 0.596806 0
M  V30 5353 H 498.728 -0.51867 1.61579 0
M  V30 5354 H 497.5 -1.50796 3.61077 0
M  V30 5355 H 497.123 -2.94368 2.6727 0
M  V30 5356 N 498.12 -1.38341 -0.754957 0
M  V30 5357 C 499.366 -1.34672 -1.51628 0
M  V30 5358 C 499.699 0.0636036 -1.94096 0
M  V30 5359 O 498.974 1.0245 -1.6533 0
M  V30 5360 C 499.257 -2.30116 -2.76981 0
M  V30 5361 C 499.11 -3.80003 -2.4066 0
M  V30 5362 C 500.429 -2.23715 -3.78998 0
M  V30 5363 H 497.548 -0.490517 -0.550056 0
M  V30 5364 H 500.19 -1.69178 -0.864807 0
M  V30 5365 H 498.34 -2.00821 -3.3257 0
M  V30 5366 H 500.012 -4.19966 -1.90856 0
M  V30 5367 H 498.255 -3.97751 -1.73137 0
M  V30 5368 H 498.926 -4.42244 -3.30339 0
M  V30 5369 H 501.402 -2.49574 -3.32945 0
M  V30 5370 H 500.278 -2.9261 -4.64403 0
M  V30 5371 H 500.539 -1.23554 -4.24484 0
M  V30 5372 N 499.598 0.982988 -1.23187 0
M  V30 5373 C 500.847 1.71817 -1.05649 0
M  V30 5374 C 501.16 1.91315 0.407176 0
M  V30 5375 O 502.366 2.62256 0.702436 0
M  V30 5376 C 500.822 3.09188 -1.84203 0
M  V30 5377 C 500.43 2.97586 -3.34882 0
M  V30 5378 C 502.174 3.86684 -1.75146 0
M  V30 5379 C 500.081 4.30173 -4.05839 0
M  V30 5380 H 499.011 0.644258 -0.391724 0
M  V30 5381 H 501.662 1.09659 -1.4713 0
M  V30 5382 H 500.044 3.72087 -1.35527 0
M  V30 5383 H 501.218 2.43793 -3.91026 0
M  V30 5384 H 499.533 2.33567 -3.44725 0
M  V30 5385 H 502.13 4.84836 -2.25473 0
M  V30 5386 H 502.473 4.10136 -0.713737 0
M  V30 5387 H 503.006 3.30482 -2.21419 0
M  V30 5388 H 499.745 4.11918 -5.09906 0
M  V30 5389 H 499.265 4.83841 -3.54482 0
M  V30 5390 H 500.944 4.98873 -4.11989 0
M  V30 5391 N 501.076 1.04316 1.18135 0
M  V30 5392 C 502.324 0.746542 1.87806 0
M  V30 5393 C 502.645 -0.728082 1.80898 0
M  V30 5394 O 501.915 -1.52554 1.22899 0
M  V30 5395 H 500.495 0.273157 0.695265 0
M  V30 5396 H 503.157 1.32044 1.43354 0
M  V30 5397 H 502.253 1.05362 2.93778 0
M  V30 5398 N 502.554 -1.34406 0.822964 0
M  V30 5399 C 503.486 -2.28305 0.202375 0
M  V30 5400 C 504.499 -1.5103 -0.60777 0
M  V30 5401 O 505.688 -1.73057 -0.437444 0
M  V30 5402 C 502.788 -3.30836 -0.734911 0
M  V30 5403 C 501.961 -4.37388 0.0324177 0
M  V30 5404 C 501.02 -5.1968 -0.825803 0
M  V30 5405 O 500.046 -5.68556 -0.270771 0
M  V30 5406 N 501.248 -5.39393 -2.14558 0
M  V30 5407 H 504.013 -2.82201 1.00909 0
M  V30 5408 H 501.574 -1.4693 0.67993 0
M  V30 5409 H 503.566 -3.82786 -1.31365 0
M  V30 5410 H 502.136 -2.77334 -1.44238 0
M  V30 5411 H 501.356 -3.86152 0.792469 0
M  V30 5412 H 502.644 -5.05702 0.560633 0
M  V30 5413 H 502.042 -5.01357 -2.62025 0
M  V30 5414 H 500.599 -5.94461 -2.67318 0
M  V30 5415 N 504.032 -0.577932 -1.46621 0
M  V30 5416 C 505.278 -0.0617793 -2.02706 0
M  V30 5417 C 505.611 1.29294 -1.44903 0
M  V30 5418 O 504.886 1.8461 -0.61232 0
M  V30 5419 C 505.169 0.00911824 -3.60099 0
M  V30 5420 C 505.022 -1.37416 -4.28295 0
M  V30 5421 C 506.341 0.712159 -4.343 0
M  V30 5422 H 503.46 -0.0239246 -0.736612 0
M  V30 5423 H 506.102 -0.744211 -1.74818 0
M  V30 5424 H 504.252 0.590292 -3.83989 0
M  V30 5425 H 505.924 -2.00013 -4.15683 0
M  V30 5426 H 504.167 -1.94319 -3.87843 0
M  V30 5427 H 504.838 -1.27707 -5.37024 0
M  V30 5428 H 507.314 0.218486 -4.15526 0
M  V30 5429 H 506.19 0.730782 -5.44014 0
M  V30 5430 H 506.451 1.77251 -4.05012 0
M  V30 5431 N 505.51 1.54411 -0.315457 0
M  V30 5432 C 506.926 1.59556 0.037464 0
M  V30 5433 C 507.126 1.33217 1.5118 0
M  V30 5434 O 506.182 1.11264 2.26664 0
M  V30 5435 C 507.495 2.98372 -0.373477 0
M  V30 5436 C 509.043 3.11324 -0.323452 0
M  V30 5437 C 509.518 4.52472 -0.709433 0
M  V30 5438 N 511.009 4.58437 -0.662524 0
M  V30 5439 C 511.744 5.65751 -0.933474 0
M  V30 5440 N 511.24 6.81039 -1.27114 0
M  V30 5441 N 513.033 5.55489 -0.859573 0
M  V30 5442 H 505.184 1.6979 -1.27614 0
M  V30 5443 H 507.447 0.793732 -0.518356 0
M  V30 5444 H 507.153 3.22618 -1.40037 0
M  V30 5445 H 507.027 3.76264 0.265615 0
M  V30 5446 H 509.414 2.86818 0.694223 0
M  V30 5447 H 509.495 2.35555 -0.997367 0
M  V30 5448 H 509.139 4.7771 -1.72498 0
M  V30 5449 H 509.069 5.26598 -0.0132923 0
M  V30 5450 H 511.56 3.75636 -0.413065 0
M  V30 5451 H 511.873 7.58816 -1.46348 0
M  V30 5452 H 510.218 6.82555 -1.30932 0
M  V30 5453 H 513.409 4.64299 -0.595324 0
M  V30 5454 H 513.582 6.39036 -1.0741 0
M  V30 5455 N 506.988 0.0434614 1.5754 0
M  V30 5456 C 508.404 -0.313039 1.565 0
M  V30 5457 C 508.604 -1.71954 1.05043 0
M  V30 5458 O 507.66 -2.425 0.703564 0
M  V30 5459 C 508.973 -0.148544 3.00333 0
M  V30 5460 C 510.521 -0.220231 3.12224 0
M  V30 5461 C 510.996 -0.0843565 4.57922 0
M  V30 5462 N 512.487 -0.140881 4.62986 0
M  V30 5463 C 513.222 -0.0597443 5.73369 0
M  V30 5464 N 512.718 0.0733004 6.92761 0
M  V30 5465 N 514.511 -0.11477 5.61983 0
M  V30 5466 H 506.662 0.96303 1.89313 0
M  V30 5467 H 508.925 0.373164 0.871466 0
M  V30 5468 H 508.631 0.820894 3.41986 0
M  V30 5469 H 508.505 -0.912798 3.65989 0
M  V30 5470 H 510.892 -1.18014 2.70475 0
M  V30 5471 H 510.973 0.574646 2.49262 0
M  V30 5472 H 510.617 0.872192 5.00355 0
M  V30 5473 H 510.547 -0.898281 5.18882 0
M  V30 5474 H 513.038 -0.243273 3.77116 0
M  V30 5475 H 513.351 0.128128 7.72694 0
M  V30 5476 H 511.696 0.10828 6.94916 0
M  V30 5477 H 514.887 -0.217212 4.67596 0
M  V30 5478 H 515.06 -0.0480779 6.47982 0
M  V30 5479 N 508.466 -1.55915 -0.229846 0
M  V30 5480 C 509.877 -1.68809 -0.797531 0
M  V30 5481 C 510.228 -0.643995 -1.8533 0
M  V30 5482 O 509.353 0.206492 -2.15413 0
M  V30 5483 C 509.948 -3.06043 -1.45338 0
M  V30 5484 C 508.507 -3.20819 -1.96856 0
M  V30 5485 C 507.654 -2.6472 -0.825736 0
M  V30 5486 H 510.605 -1.58699 -0.00533733 0
M  V30 5487 H 510.626 -3.01438 -2.32196 0
M  V30 5488 H 510.138 -3.82012 -0.684743 0
M  V30 5489 H 508.239 -2.49704 -2.76548 0
M  V30 5490 H 508.352 -4.27937 -2.15423 0
M  V30 5491 H 506.716 -2.22985 -1.23084 0
M  V30 5492 H 507.499 -3.43229 -0.0699019 0
M  V30 5493 N 509.944 0.496216 -1.49584 0
M  V30 5494 C 510.854 1.62352 -1.69349 0
M  V30 5495 C 511.87 1.64184 -0.576147 0
M  V30 5496 O 513.046 1.82517 -0.85144 0
M  V30 5497 C 510.111 2.98698 -1.76013 0
M  V30 5498 C 509.172 3.07454 -2.99617 0
M  V30 5499 C 508.405 4.37296 -3.05953 0
M  V30 5500 O 508.628 5.2637 -2.19752 0
M  V30 5501 O 507.562 4.51124 -3.9846 0
M  V30 5502 H 511.388 1.48606 -2.64859 0
M  V30 5503 H 508.973 0.673022 -1.33382 0
M  V30 5504 H 510.855 3.79725 -1.82721 0
M  V30 5505 H 509.53 3.12696 -0.836828 0
M  V30 5506 H 508.437 2.25597 -2.98424 0
M  V30 5507 H 509.77 2.98385 -3.91443 0
M  V30 5508 N 511.423 1.38739 0.74761 0
M  V30 5509 C 512.356 1.3083 1.86972 0
M  V30 5510 C 513.334 0.184229 1.61553 0
M  V30 5511 O 514.518 0.36256 1.8498 0
M  V30 5512 C 511.645 1.02854 3.22705 0
M  V30 5513 C 510.691 2.17281 3.67003 0
M  V30 5514 S 511.524 3.79468 3.77842 0
M  V30 5515 C 512.68 3.53692 5.16385 0
M  V30 5516 H 512.913 2.258 1.93395 0
M  V30 5517 H 510.446 1.24646 0.911199 0
M  V30 5518 H 512.404 0.87397 4.01089 0
M  V30 5519 H 511.065 0.0959295 3.13953 0
M  V30 5520 H 510.258 1.93267 4.65472 0
M  V30 5521 H 509.86 2.28876 2.9579 0
M  V30 5522 H 512.152 3.10176 6.02327 0
M  V30 5523 H 513.095 4.51576 5.45422 0
M  V30 5524 H 513.503 2.8807 4.85464 0
M  V30 5525 N 512.901 -0.976442 1.23707 0
M  V30 5526 C 514.149 -1.71487 1.06942 0
M  V30 5527 C 514.47 -1.9098 -0.393897 0
M  V30 5528 O 513.74 -1.48128 -1.28198 0
M  V30 5529 H 512.32 -0.635425 0.392739 0
M  V30 5530 H 514.982 -1.17515 1.55487 0
M  V30 5531 H 514.078 -2.70286 1.56051 0
M  V30 5532 N 514.379 -1.04941 -1.1758 0
M  V30 5533 C 515.656 -0.671918 -1.83697 0
M  V30 5534 C 516.036 0.847929 -1.93322 0
M  V30 5535 O 515.384 1.75287 -1.46583 0
M  V30 5536 C 515.594 -1.35797 -3.21497 0
M  V30 5537 C 516.942 -1.4944 -3.97433 0
M  V30 5538 O 517.966 -1.31678 -3.30967 0
M  V30 5539 O 516.825 -1.78463 -5.1654 0
M  V30 5540 H 513.919 -0.236212 -0.792548 0
M  V30 5541 H 516.465 -1.14884 -1.24899 0
M  V30 5542 H 515.237 -2.39498 -3.09446 0
M  V30 5543 H 514.86 -0.870236 -3.8796 0
M  V30 5544 N 515.857 1.33968 -0.830081 0
M  V30 5545 C 516.789 2.28194 -0.21448 0
M  V30 5546 C 517.802 1.5135 0.599752 0
M  V30 5547 O 518.991 1.73286 0.42826 0
M  V30 5548 C 516.091 3.31221 0.717356 0
M  V30 5549 C 515.264 4.37365 -0.055613 0
M  V30 5550 C 514.323 5.2011 0.798231 0
M  V30 5551 O 513.349 5.68691 0.240616 0
M  V30 5552 N 514.551 5.40523 2.11695 0
M  V30 5553 H 517.316 2.81662 -1.02405 0
M  V30 5554 H 514.877 1.46568 -0.687713 0
M  V30 5555 H 516.869 3.83477 1.29334 0
M  V30 5556 H 515.439 2.78095 1.42765 0
M  V30 5557 H 514.659 3.85727 -0.812936 0
M  V30 5558 H 515.947 5.05397 -0.587444 0
M  V30 5559 H 515.345 5.0274 2.59363 0
M  V30 5560 H 513.902 5.95871 2.64162 0
M  V30 5561 N 517.335 0.585699 1.46312 0
M  V30 5562 C 518.298 -0.135673 2.28798 0
M  V30 5563 C 519.298 -0.815988 1.38558 0
M  V30 5564 O 520.488 -0.667487 1.60904 0
M  V30 5565 C 517.62 -1.20163 3.1902 0
M  V30 5566 H 518.813 0.589257 2.94054 0
M  V30 5567 H 516.366 0.343794 1.52472 0
M  V30 5568 H 517.101 -1.95804 2.58517 0
M  V30 5569 H 516.886 -0.718282 3.85465 0
M  V30 5570 H 518.376 -1.70749 3.81096 0
M  V30 5571 N 518.813 -1.54241 0.323641 0
M  V30 5572 C 519.763 -2.21071 -0.557833 0
M  V30 5573 C 520.747 -1.19126 -1.08157 0
M  V30 5574 O 521.939 -1.44755 -1.01857 0
M  V30 5575 C 519.068 -2.97208 -1.71821 0
M  V30 5576 C 518.154 -4.06491 -1.20936 0
M  V30 5577 N 518.545 -5.04052 -0.420202 0
M  V30 5578 C 516.843 -4.20443 -1.48808 0
M  V30 5579 C 517.544 -5.81516 -0.146413 0
M  V30 5580 N 516.52 -5.38641 -0.732562 0
M  V30 5581 H 520.322 -2.93853 0.0523921 0
M  V30 5582 H 517.836 -1.61883 0.129502 0
M  V30 5583 H 519.833 -3.4357 -2.36146 0
M  V30 5584 H 518.493 -2.25947 -2.33191 0
M  V30 5585 H 519.504 -5.17862 -0.0630401 0
M  V30 5586 H 516.181 -3.60396 -2.10762 0
M  V30 5587 H 517.571 -6.70119 0.488895 0
M  V30 5588 N 520.291 -0.0518155 -1.57515 0
M  V30 5589 C 521.224 0.957758 -2.07129 0
M  V30 5590 C 522.202 1.30355 -0.971927 0
M  V30 5591 O 523.386 1.41631 -1.2439 0
M  V30 5592 C 520.513 2.27157 -2.51232 0
M  V30 5593 C 519.559 2.07879 -3.72409 0
M  V30 5594 S 520.392 1.35656 -5.18033 0
M  V30 5595 C 521.548 2.68359 -5.65451 0
M  V30 5596 H 521.781 0.53552 -2.92437 0
M  V30 5597 H 519.314 0.160465 -1.53564 0
M  V30 5598 H 521.272 3.02676 -2.77304 0
M  V30 5599 H 519.933 2.66509 -1.66228 0
M  V30 5600 H 519.126 3.05061 -4.01191 0
M  V30 5601 H 518.728 1.40499 -3.46606 0
M  V30 5602 H 521.02 3.64526 -5.71076 0
M  V30 5603 H 521.963 2.44213 -6.64654 0
M  V30 5604 H 522.371 2.74647 -4.93183 0
M  V30 5605 N 521.769 1.56035 0.221574 0
M  V30 5606 C 523.18 1.69229 0.788567 0
M  V30 5607 C 523.531 0.653814 1.84986 0
M  V30 5608 O 522.656 -0.195065 2.15519 0
M  V30 5609 C 523.251 3.06809 1.43713 0
M  V30 5610 C 521.81 3.21858 1.95152 0
M  V30 5611 C 520.957 2.65155 0.811685 0
M  V30 5612 H 523.908 1.587 -0.00307894 0
M  V30 5613 H 523.929 3.02666 2.30594 0
M  V30 5614 H 523.441 3.82369 0.664475 0
M  V30 5615 H 521.542 2.51167 2.7522 0
M  V30 5616 H 521.655 4.29073 2.1315 0
M  V30 5617 H 520.019 2.23635 1.21899 0
M  V30 5618 H 520.802 3.43261 0.0516987 0
M  V30 5619 N 523.247 -0.488276 1.49845 0
M  V30 5620 C 524.477 -1.26344 1.63465 0
M  V30 5621 C 524.885 -1.86637 0.310379 0
M  V30 5622 O 524.228 -1.69184 -0.715712 0
M  V30 5623 C 524.29 -2.42407 2.65479 0
M  V30 5624 C 523.954 -2.02886 4.09495 0
M  V30 5625 C 524.951 -1.56124 4.95904 0
M  V30 5626 C 522.636 -2.12131 4.55308 0
M  V30 5627 C 524.63 -1.19129 6.26169 0
M  V30 5628 C 522.317 -1.74747 5.85582 0
M  V30 5629 C 523.315 -1.28322 6.70837 0
M  V30 5630 O 523.003 -0.914491 7.98682 0
M  V30 5631 H 522.735 -0.388921 0.552916 0
M  V30 5632 H 525.289 -0.591288 1.96705 0
M  V30 5633 H 523.519 -3.12739 2.27445 0
M  V30 5634 H 525.208 -3.04409 2.68495 0
M  V30 5635 H 525.974 -1.48417 4.61733 0
M  V30 5636 H 521.853 -2.47217 3.89107 0
M  V30 5637 H 525.397 -0.828211 6.92666 0
M  V30 5638 H 521.294 -1.82109 6.19279 0
M  V30 5639 H 522.062 -1.04485 8.11804 0
M  V30 5640 N 524.725 -1.39134 -0.740242 0
M  V30 5641 C 525.953 -1.39334 -1.5295 0
M  V30 5642 C 526.368 0.0135008 -1.88795 0
M  V30 5643 O 525.725 0.983524 -1.5373 0
M  V30 5644 C 525.776 -2.2614 -2.82034 0
M  V30 5645 O 525.497 -3.61345 -2.47712 0
M  V30 5646 C 526.998 -2.34666 -3.76094 0
M  V30 5647 H 524.218 -0.476103 -0.472828 0
M  V30 5648 H 526.762 -1.82883 -0.9151 0
M  V30 5649 H 524.917 -1.86018 -3.39818 0
M  V30 5650 H 525.331 -4.07194 -3.30595 0
M  V30 5651 H 526.805 -2.99663 -4.63579 0
M  V30 5652 H 527.282 -1.36426 -4.17474 0
M  V30 5653 H 527.888 -2.75236 -3.2423 0
M  V30 5654 N 526.204 0.969867 -1.24223 0
M  V30 5655 C 527.432 1.74756 -1.10761 0
M  V30 5656 C 527.847 1.85713 0.340041 0
M  V30 5657 O 527.204 1.34389 1.23474 0
M  V30 5658 C 527.255 3.16915 -1.73917 0
M  V30 5659 O 526.976 3.06511 -3.13021 0
M  V30 5660 C 528.477 4.11032 -1.66036 0
M  V30 5661 H 525.697 0.548092 -0.387087 0
M  V30 5662 H 528.241 1.2178 -1.64286 0
M  V30 5663 H 526.396 3.66884 -1.244 0
M  V30 5664 H 526.81 3.96079 -3.43834 0
M  V30 5665 H 528.284 5.08446 -2.14911 0
M  V30 5666 H 528.761 4.34785 -0.621159 0
M  V30 5667 H 529.367 3.66972 -2.14969 0
M  V30 5668 N 527.682 1.05563 1.17022 0
M  V30 5669 C 528.645 0.664098 2.19368 0
M  V30 5670 C 529.645 -0.286358 1.5823 0
M  V30 5671 O 530.835 -0.069728 1.7406 0
M  V30 5672 C 527.967 -0.0239932 3.40892 0
M  V30 5673 H 529.16 1.57 2.55521 0
M  V30 5674 H 526.713 0.849964 1.31169 0
M  V30 5675 H 527.448 -0.942988 3.10287 0
M  V30 5676 H 527.233 0.659351 3.86516 0
M  V30 5677 H 528.723 -0.283909 4.16634 0
M  V30 5678 N 529.16 -1.33526 0.837174 0
M  V30 5679 C 530.406 -1.9813 0.432704 0
M  V30 5680 C 530.739 -1.66168 -1.00508 0
M  V30 5681 O 530.014 -0.94069 -1.70239 0
M  V30 5682 C 530.297 -3.54151 0.651834 0
M  V30 5683 C 530.15 -3.95806 2.13676 0
M  V30 5684 C 531.469 -4.39993 0.0968937 0
M  V30 5685 H 528.588 -0.719713 0.15869 0
M  V30 5686 H 531.23 -1.58193 1.05237 0
M  V30 5687 H 529.38 -3.88301 0.124369 0
M  V30 5688 H 531.052 -3.71921 2.72896 0
M  V30 5689 H 529.295 -3.45599 2.62191 0
M  V30 5690 H 529.966 -5.0447 2.24084 0
M  V30 5691 H 532.442 -4.12479 0.547733 0
M  V30 5692 H 531.318 -5.48186 0.279917 0
M  V30 5693 H 531.579 -4.3066 -0.9992 0
M  V30 5694 N 530.638 -0.59345 -1.46 0
M  V30 5695 C 531.887 -0.0808084 -2.01538 0
M  V30 5696 C 532.2 1.29112 -1.46934 0
M  V30 5697 O 533.406 1.8957 -1.94359 0
M  V30 5698 C 531.862 -0.0938311 -3.59778 0
M  V30 5699 C 531.47 -1.46474 -4.23379 0
M  V30 5700 C 533.214 0.364306 -4.22934 0
M  V30 5701 C 531.121 -1.4349 -5.73729 0
M  V30 5702 H 530.051 -0.0264407 -0.753536 0
M  V30 5703 H 532.702 -0.746689 -1.67621 0
M  V30 5704 H 531.084 0.638427 -3.9082 0
M  V30 5705 H 532.258 -2.21758 -4.03931 0
M  V30 5706 H 530.573 -1.86379 -3.7236 0
M  V30 5707 H 533.17 0.405584 -5.3316 0
M  V30 5708 H 533.513 1.38409 -3.92618 0
M  V30 5709 H 534.046 -0.31423 -3.96557 0
M  V30 5710 H 530.785 -2.43184 -6.08722 0
M  V30 5711 H 530.305 -0.724431 -5.95409 0
M  V30 5712 H 531.984 -1.15243 -6.36654 0
M  V30 5713 N 532.116 1.54067 -0.331816 0
M  V30 5714 C 533.066 2.21363 0.546101 0
M  V30 5715 C 534.05 1.19698 1.07523 0
M  V30 5716 O 535.242 1.45293 1.01088 0
M  V30 5717 C 532.371 2.98115 1.70242 0
M  V30 5718 C 531.457 4.07127 1.18779 0
M  V30 5719 N 531.848 5.04267 0.393465 0
M  V30 5720 C 530.146 4.21226 1.46576 0
M  V30 5721 C 530.847 5.81585 0.115572 0
M  V30 5722 N 529.823 5.39022 0.703987 0
M  V30 5723 H 533.625 2.93821 -0.0679751 0
M  V30 5724 H 531.139 1.61812 -0.138085 0
M  V30 5725 H 533.136 3.44818 2.34321 0
M  V30 5726 H 531.796 2.27181 2.31989 0
M  V30 5727 H 532.807 5.17888 0.0355757 0
M  V30 5728 H 529.484 3.61509 2.08848 0
M  V30 5729 H 530.874 6.6985 -0.524426 0
M  V30 5730 N 533.594 0.0601682 1.57485 0
M  V30 5731 C 534.504 -0.926121 2.15546 0
M  V30 5732 C 535.52 -1.33532 1.11558 0
M  V30 5733 O 536.696 -1.4104 1.4377 0
M  V30 5734 C 533.761 -2.17952 2.69625 0
M  V30 5735 C 532.822 -1.82783 3.88444 0
M  V30 5736 C 532.055 -3.02148 4.39935 0
M  V30 5737 O 532.278 -4.15803 3.90466 0
M  V30 5738 O 531.212 -2.82639 5.31412 0
M  V30 5739 H 535.038 -0.462289 3.00161 0
M  V30 5740 H 532.623 -0.162246 1.48516 0
M  V30 5741 H 534.505 -2.91474 3.04337 0
M  V30 5742 H 533.18 -2.63456 1.88077 0
M  V30 5743 H 532.087 -1.06549 3.58606 0
M  V30 5744 H 533.42 -1.42072 4.7125 0
M  V30 5745 N 535.072 -1.5615 -0.213296 0
M  V30 5746 C 536.318 -1.79812 -0.937849 0
M  V30 5747 C 536.651 -0.631201 -1.83656 0
M  V30 5748 O 535.926 0.369165 -1.90964 0
M  V30 5749 C 536.209 -3.13613 -1.76972 0
M  V30 5750 C 536.062 -4.40766 -0.89695 0
M  V30 5751 C 537.381 -3.43931 -2.7459 0
M  V30 5752 H 534.5 -0.654138 -0.339518 0
M  V30 5753 H 537.142 -1.88877 -0.20623 0
M  V30 5754 H 535.292 -3.06015 -2.39347 0
M  V30 5755 H 536.964 -4.60392 -0.289306 0
M  V30 5756 H 535.207 -4.33326 -0.202756 0
M  V30 5757 H 535.878 -5.30843 -1.51358 0
M  V30 5758 H 538.354 -3.5171 -2.22349 0
M  V30 5759 H 537.23 -4.38706 -3.29891 0
M  V30 5760 H 537.491 -2.6651 -3.52739 0
M  V30 5761 N 536.55 0.480323 -1.50102 0
M  V30 5762 C 537.482 1.59669 -1.64433 0
M  V30 5763 C 538.495 1.54063 -0.52615 0
M  V30 5764 O 539.684 1.59619 -0.798992 0
M  V30 5765 C 536.784 2.98527 -1.6042 0
M  V30 5766 C 535.957 3.291 -2.88117 0
M  V30 5767 C 535.016 4.47468 -2.76873 0
M  V30 5768 O 534.042 4.4823 -3.50825 0
M  V30 5769 N 535.244 5.48593 -1.89806 0
M  V30 5770 H 538.009 1.47795 -2.60723 0
M  V30 5771 H 535.57 0.66858 -1.4745 0
M  V30 5772 H 537.562 3.75666 -1.50523 0
M  V30 5773 H 536.132 3.04218 -0.719036 0
M  V30 5774 H 535.352 2.40662 -3.12211 0
M  V30 5775 H 536.64 3.46334 -3.72734 0
M  V30 5776 H 536.038 5.50791 -1.2902 0
M  V30 5777 H 534.595 6.24752 -1.85819 0
M  V30 5778 N 538.028 1.39524 0.732853 0
M  V30 5779 C 539.444 1.21176 1.03868 0
M  V30 5780 C 539.644 0.0748448 2.01361 0
M  V30 5781 O 538.7 -0.57281 2.45917 0
M  V30 5782 C 540.013 2.54667 1.59892 0
M  V30 5783 C 541.561 2.6153 1.71962 0
M  V30 5784 C 542.036 3.95248 2.31394 0
M  V30 5785 N 543.527 3.96899 2.38801 0
M  V30 5786 C 544.262 4.97138 2.85729 0
M  V30 5787 N 543.758 6.07775 3.32537 0
M  V30 5788 N 545.551 4.84516 2.84957 0
M  V30 5789 H 537.702 2.12225 0.086304 0
M  V30 5790 H 539.965 0.942614 0.100907 0
M  V30 5791 H 539.671 3.38423 0.95721 0
M  V30 5792 H 539.545 2.74538 2.58668 0
M  V30 5793 H 541.932 1.78156 2.35254 0
M  V30 5794 H 542.013 2.45507 0.718327 0
M  V30 5795 H 541.657 4.79054 1.68729 0
M  V30 5796 H 541.587 4.08593 3.32204 0
M  V30 5797 H 544.078 3.16998 2.05719 0
M  V30 5798 H 544.391 6.8017 3.66862 0
M  V30 5799 H 542.736 6.11366 3.30541 0
M  V30 5800 H 545.927 3.97185 2.47713 0
M  V30 5801 H 546.1 5.62783 3.21215 0
M  V30 5802 N 539.506 -0.963266 1.24736 0
M  V30 5803 C 540.753 -1.7068 1.0897 0
M  V30 5804 C 541.081 -1.90934 -0.370751 0
M  V30 5805 O 540.336 -1.47155 -1.29011 0
M  V30 5806 C 540.635 -3.09944 1.7796 0
M  V30 5807 C 540.301 -3.09518 3.27887 0
M  V30 5808 C 538.963 -3.09109 3.68789 0
M  V30 5809 C 541.315 -3.03509 4.23712 0
M  V30 5810 C 538.643 -3.00429 5.03944 0
M  V30 5811 C 540.995 -2.96371 5.5888 0
M  V30 5812 C 539.659 -2.94293 5.99123 0
M  V30 5813 H 538.929 -0.624564 0.398749 0
M  V30 5814 H 541.576 -1.12603 1.54896 0
M  V30 5815 H 539.881 -3.71513 1.2444 0
M  V30 5816 H 541.578 -3.66278 1.63222 0
M  V30 5817 H 538.168 -3.10603 2.95337 0
M  V30 5818 H 542.352 -3.0295 3.93109 0
M  V30 5819 H 537.608 -2.97183 5.34314 0
M  V30 5820 H 541.782 -2.90681 6.32833 0
M  V30 5821 H 539.409 -2.87322 7.03811 0
M  V30 5822 N 540.985 -1.06182 -1.16461 0
M  V30 5823 C 542.233 -0.776326 -1.86595 0
M  V30 5824 C 542.554 0.69921 -1.82033 0
M  V30 5825 O 541.824 1.50579 -1.2531 0
M  V30 5826 H 540.404 -0.284184 -0.690832 0
M  V30 5827 H 543.066 -1.34308 -1.41235 0
M  V30 5828 H 542.162 -1.10022 -2.92064 0
M  V30 5829 N 542.463 1.3308 -0.844243 0
M  V30 5830 C 543.74 1.92178 -0.364261 0
M  V30 5831 C 544.12 1.76961 1.15101 0
M  V30 5832 O 543.468 1.16128 1.9679 0
M  V30 5833 C 543.678 3.393 -0.817106 0
M  V30 5834 C 545.026 4.16444 -0.828236 0
M  V30 5835 O 546.05 3.47975 -0.761062 0
M  V30 5836 O 544.909 5.38685 -0.920926 0
M  V30 5837 H 542.003 0.820411 -0.10419 0
M  V30 5838 H 544.549 1.41918 -0.930453 0
M  V30 5839 H 543.321 3.44272 -1.85991 0
M  V30 5840 H 542.944 3.96947 -0.227785 0
M  V30 5841 N 543.941 0.601185 1.45683 0
M  V30 5842 C 545.19 0.0914953 2.01492 0
M  V30 5843 C 545.503 -1.28331 1.47616 0
M  V30 5844 O 546.709 -1.88537 1.95362 0
M  V30 5845 C 545.165 0.11291 3.59723 0
M  V30 5846 C 544.773 1.48717 4.22596 0
M  V30 5847 C 546.517 -0.341871 4.23121 0
M  V30 5848 C 544.424 1.46531 5.7296 0
M  V30 5849 H 543.354 0.0304365 0.753385 0
M  V30 5850 H 546.005 0.755568 1.67223 0
M  V30 5851 H 544.387 -0.617692 3.91153 0
M  V30 5852 H 545.561 2.23897 4.02749 0
M  V30 5853 H 543.876 1.88351 3.71366 0
M  V30 5854 H 546.473 -0.377304 5.33367 0
M  V30 5855 H 546.816 -1.36325 3.93346 0
M  V30 5856 H 547.349 0.335256 3.96385 0
M  V30 5857 H 544.088 2.46408 6.07423 0
M  V30 5858 H 543.608 0.755997 5.95017 0
M  V30 5859 H 545.287 1.18618 6.36034 0
M  V30 5860 N 545.419 -1.53889 0.339982 0
M  V30 5861 C 546.665 -2.01152 -0.258003 0
M  V30 5862 C 546.998 -1.22749 -1.50487 0
M  V30 5863 O 546.273 -0.314156 -1.91946 0
M  V30 5864 C 546.556 -3.55468 -0.575717 0
M  V30 5865 C 546.409 -4.44584 0.682996 0
M  V30 5866 C 547.728 -4.1768 -1.38677 0
M  V30 5867 H 544.847 -0.731198 -0.0922992 0
M  V30 5868 H 547.489 -1.84352 0.459814 0
M  V30 5869 H 545.639 -3.69914 -1.18725 0
M  V30 5870 H 547.311 -4.41981 1.32102 0
M  V30 5871 H 545.554 -4.13592 1.3086 0
M  V30 5872 H 546.225 -5.5043 0.416001 0
M  V30 5873 H 548.701 -4.0691 -0.869705 0
M  V30 5874 H 547.577 -5.25734 -1.57783 0
M  V30 5875 H 547.838 -3.72069 -2.38782 0
M  V30 5876 N 546.897 -0.0685191 -1.57451 0
M  V30 5877 C 548.308 0.464634 -1.80826 0
M  V30 5878 C 548.659 1.69847 -0.982169 0
M  V30 5879 O 547.784 2.15439 -0.203734 0
M  V30 5880 C 548.379 0.849721 -3.27971 0
M  V30 5881 C 546.938 1.32776 -3.52204 0
M  V30 5882 C 546.085 0.311332 -2.75547 0
M  V30 5883 H 549.036 -0.294248 -1.55948 0
M  V30 5884 H 549.057 1.71138 -3.39841 0
M  V30 5885 H 548.569 -0.0484736 -3.8807 0
M  V30 5886 H 546.67 2.24456 -2.97406 0
M  V30 5887 H 546.783 1.30794 -4.60901 0
M  V30 5888 H 545.147 0.787915 -2.42206 0
M  V30 5889 H 545.93 -0.579078 -3.38381 0
M  V30 5890 N 548.375 1.56261 0.205012 0
M  V30 5891 C 549.305 1.96779 1.257 0
M  V30 5892 C 550.286 0.838309 1.48008 0
M  V30 5893 O 551.471 1.10189 1.59913 0
M  V30 5894 C 548.601 2.29876 2.60335 0
M  V30 5895 C 547.555 3.45469 2.52656 0
M  V30 5896 C 546.881 3.64215 3.91473 0
M  V30 5897 C 548.181 4.79954 2.06014 0
M  V30 5898 H 549.875 2.84904 0.920338 0
M  V30 5899 H 547.421 1.37072 0.441277 0
M  V30 5900 H 549.374 2.56814 3.34102 0
M  V30 5901 H 548.098 1.38622 2.95722 0
M  V30 5902 H 546.757 3.18605 1.81345 0
M  V30 5903 H 546.405 2.70309 4.24196 0
M  V30 5904 H 546.105 4.41973 3.87213 0
M  V30 5905 H 547.629 3.93519 4.66878 0
M  V30 5906 H 549.043 5.05989 2.69533 0
M  V30 5907 H 547.44 5.61111 2.12777 0
M  V30 5908 H 548.51 4.74201 1.01297 0
M  V30 5909 N 549.853 -0.472356 1.50355 0
M  V30 5910 C 551.101 -1.22211 1.60962 0
M  V30 5911 C 551.422 -1.92497 0.311439 0
M  V30 5912 O 550.692 -1.8405 -0.671002 0
M  V30 5913 H 549.272 -0.454092 0.593135 0
M  V30 5914 H 551.934 -0.544977 1.87126 0
M  V30 5915 H 551.03 -1.9707 2.42012 0
M  V30 5916 N 551.331 -1.39911 -0.725443 0
M  V30 5917 C 552.577 -1.37858 -1.48738 0
M  V30 5918 C 552.91 0.0224187 -1.94187 0
M  V30 5919 O 552.185 0.989204 -1.67466 0
M  V30 5920 C 552.468 -2.3594 -2.72038 0
M  V30 5921 C 552.321 -3.85023 -2.32546 0
M  V30 5922 C 553.64 -2.31704 -3.74167 0
M  V30 5923 H 550.759 -0.502074 -0.539528 0
M  V30 5924 H 553.401 -1.70974 -0.828728 0
M  V30 5925 H 551.551 -2.0783 -3.28236 0
M  V30 5926 H 553.223 -4.2392 -1.81905 0
M  V30 5927 H 551.466 -4.01334 -1.64661 0
M  V30 5928 H 552.137 -4.49152 -3.20884 0
M  V30 5929 H 554.613 -2.5658 -3.27576 0
M  V30 5930 H 553.489 -3.02395 -4.58092 0
M  V30 5931 H 553.75 -1.3253 -4.21768 0
M  V30 5932 N 552.809 0.956637 -1.25245 0
M  V30 5933 C 554.037 1.73571 -1.12608 0
M  V30 5934 C 554.452 1.86063 0.320324 0
M  V30 5935 O 553.809 1.35691 1.22042 0
M  V30 5936 C 553.86 3.15053 -1.77268 0
M  V30 5937 O 553.581 3.03174 -3.16255 0
M  V30 5938 C 555.082 4.09248 -1.70386 0
M  V30 5939 H 552.302 0.543955 -0.392879 0
M  V30 5940 H 554.846 1.20031 -1.65568 0
M  V30 5941 H 553.001 3.65543 -1.28284 0
M  V30 5942 H 553.415 3.9241 -3.48015 0
M  V30 5943 H 554.889 5.06138 -2.20291 0
M  V30 5944 H 555.366 4.34102 -0.667239 0
M  V30 5945 H 555.972 3.64672 -2.18849 0
M  V30 5946 N 554.287 1.06798 1.15896 0
M  V30 5947 C 555.237 0.653213 2.18443 0
M  V30 5948 C 556.221 -0.318763 1.57711 0
M  V30 5949 O 557.413 -0.133388 1.76497 0
M  V30 5950 C 554.542 0.0465785 3.43268 0
M  V30 5951 C 553.628 1.04336 4.11066 0
M  V30 5952 N 554.019 2.22084 4.54436 0
M  V30 5953 C 552.317 0.875433 4.37324 0
M  V30 5954 C 553.018 2.85276 5.06944 0
M  V30 5955 N 551.994 2.12973 5.00143 0
M  V30 5956 H 555.796 1.55011 2.49698 0
M  V30 5957 H 553.31 0.940384 1.32403 0
M  V30 5958 H 555.307 -0.26843 4.16035 0
M  V30 5959 H 553.967 -0.845504 3.13499 0
M  V30 5960 H 554.978 2.59833 4.48004 0
M  V30 5961 H 551.655 0.0357721 4.17485 0
M  V30 5962 H 553.045 3.85223 5.50503 0
M  V30 5963 N 555.766 -1.3263 0.851289 0
M  V30 5964 C 556.699 -2.26952 0.238318 0
M  V30 5965 C 557.677 -1.50243 -0.621757 0
M  V30 5966 O 558.861 -1.79378 -0.579298 0
M  V30 5967 C 555.988 -3.32124 -0.664178 0
M  V30 5968 C 555.034 -4.26325 0.122067 0
M  V30 5969 S 555.867 -5.14404 1.48824 0
M  V30 5970 C 557.023 -6.231 0.591372 0
M  V30 5971 H 557.256 -2.78594 1.03791 0
M  V30 5972 H 554.789 -1.4011 0.648731 0
M  V30 5973 H 556.747 -3.93197 -1.17924 0
M  V30 5974 H 555.408 -2.79273 -1.43755 0
M  V30 5975 H 554.601 -5.00821 -0.565181 0
M  V30 5976 H 554.203 -3.69652 0.568602 0
M  V30 5977 H 556.495 -6.77187 -0.205762 0
M  V30 5978 H 557.438 -6.95936 1.30687 0
M  V30 5979 H 557.846 -5.64252 0.167206 0
M  V30 5980 N 557.244 -0.608902 -1.45362 0
M  V30 5981 C 558.472 -0.111013 -2.06602 0
M  V30 5982 C 558.887 1.20516 -1.45332 0
M  V30 5983 O 558.244 1.73437 -0.567978 0
M  V30 5984 C 558.295 0.033688 -3.61484 0
M  V30 5985 O 558.016 -1.23041 -4.20467 0
M  V30 5986 C 559.517 0.562882 -4.39712 0
M  V30 5987 H 556.737 -0.0694453 -0.667397 0
M  V30 5988 H 559.281 -0.837008 -1.86586 0
M  V30 5989 H 557.436 0.710016 -3.80838 0
M  V30 5990 H 557.85 -1.06094 -5.13658 0
M  V30 5991 H 559.324 0.613213 -5.48583 0
M  V30 5992 H 559.801 1.58543 -4.09586 0
M  V30 5993 H 560.407 -0.0794454 -4.25226 0
M  V30 5994 N 558.722 1.53707 -0.348139 0
M  V30 5995 C 559.947 2.05877 0.250883 0
M  V30 5996 C 560.372 1.22115 1.43072 0
M  V30 5997 O 559.73 0.235986 1.79758 0
M  V30 5998 C 559.778 3.54886 0.639416 0
M  V30 5999 O 558.882 3.73948 1.73888 0
M  V30 6000 H 558.223 0.662754 0.040653 0
M  V30 6001 H 560.753 1.98303 -0.503685 0
M  V30 6002 H 560.763 3.97601 0.915295 0
M  V30 6003 H 559.438 4.153 -0.223386 0
M  V30 6004 H 558.015 3.43134 1.45991 0
M  V30 6005 N 560.2 0.0768682 1.57412 0
M  V30 6006 C 561.616 -0.279772 1.57129 0
M  V30 6007 C 561.816 -1.69688 1.08666 0
M  V30 6008 O 560.872 -2.40953 0.754843 0
M  V30 6009 C 562.185 -0.0848055 3.0058 0
M  V30 6010 C 563.733 -0.153954 3.12621 0
M  V30 6011 C 564.208 0.0127946 4.57998 0
M  V30 6012 N 565.699 -0.0426435 4.6318 0
M  V30 6013 C 566.434 0.0618892 5.73367 0
M  V30 6014 N 565.93 0.220229 6.9245 0
M  V30 6015 N 567.723 0.00446072 5.621 0
M  V30 6016 H 559.874 1.00297 1.87228 0
M  V30 6017 H 562.137 0.391565 0.863354 0
M  V30 6018 H 561.843 0.89325 3.40168 0
M  V30 6019 H 561.717 -0.834961 3.67843 0
M  V30 6020 H 564.104 -1.1225 2.72917 0
M  V30 6021 H 564.185 0.627389 2.47987 0
M  V30 6022 H 563.829 0.978128 4.98392 0
M  V30 6023 H 563.759 -0.788016 5.20671 0
M  V30 6024 H 566.25 -0.163226 3.77547 0
M  V30 6025 H 566.563 0.291999 7.72248 0
M  V30 6026 H 564.908 0.255658 6.9453 0
M  V30 6027 H 568.099 -0.117979 4.67951 0
M  V30 6028 H 568.272 0.0893796 6.47938 0
M  V30 6029 N 561.678 -1.56367 -0.196722 0
M  V30 6030 C 562.955 -1.71359 -0.943159 0
M  V30 6031 C 563.335 -0.631192 -2.01443 0
M  V30 6032 O 562.683 0.358071 -2.25677 0
M  V30 6033 C 562.893 -3.13623 -1.53106 0
M  V30 6034 C 564.241 -3.73806 -2.01381 0
M  V30 6035 O 565.265 -3.16742 -1.62951 0
M  V30 6036 O 564.124 -4.73951 -2.7209 0
M  V30 6037 H 561.218 -0.698851 -0.442195 0
M  V30 6038 H 563.764 -1.68672 -0.186547 0
M  V30 6039 H 562.536 -3.83873 -0.758785 0
M  V30 6040 H 562.159 -3.20532 -2.35255 0
M  V30 6041 N 563.156 0.464375 -1.50603 0
M  V30 6042 C 564.405 1.21277 -1.61167 0
M  V30 6043 C 564.718 1.92953 -0.320704 0
M  V30 6044 O 565.924 2.69778 -0.30534 0
M  V30 6045 C 564.38 2.20403 -2.84518 0
M  V30 6046 C 563.988 1.54499 -4.20516 0
M  V30 6047 C 565.732 2.95843 -3.0443 0
M  V30 6048 C 563.639 2.51951 -5.35047 0
M  V30 6049 H 562.569 0.456367 -0.600204 0
M  V30 6050 H 565.22 0.48254 -1.77042 0
M  V30 6051 H 563.602 2.96746 -2.62217 0
M  V30 6052 H 564.776 0.83899 -4.53098 0
M  V30 6053 H 563.091 0.913152 -4.06264 0
M  V30 6054 H 565.688 3.6879 -3.87167 0
M  V30 6055 H 566.031 3.55622 -2.16423 0
M  V30 6056 H 566.564 2.26611 -3.26944 0
M  V30 6057 H 563.303 1.96901 -6.25228 0
M  V30 6058 H 562.823 3.20683 -5.06875 0
M  V30 6059 H 564.502 3.13643 -5.65895 0
M  V30 6060 N 564.634 1.40294 0.718013 0
M  V30 6061 C 565.544 1.42678 1.86226 0
M  V30 6062 C 566.56 0.319655 1.71039 0
M  V30 6063 O 567.736 0.563852 1.93346 0
M  V30 6064 C 564.801 1.2852 3.21999 0
M  V30 6065 C 563.862 2.49354 3.49458 0
M  V30 6066 C 563.095 2.35863 4.78753 0
M  V30 6067 O 563.318 1.37114 5.53675 0
M  V30 6068 O 562.252 3.25189 5.06494 0
M  V30 6069 H 566.078 2.39167 1.87171 0
M  V30 6070 H 563.663 1.2159 0.868112 0
M  V30 6071 H 565.545 1.22824 4.03103 0
M  V30 6072 H 564.22 0.351359 3.21787 0
M  V30 6073 H 563.127 2.60628 2.68373 0
M  V30 6074 H 564.46 3.41491 3.54464 0
M  V30 6075 N 566.112 -0.949982 1.2575 0
M  V30 6076 C 567.358 -1.69766 1.10938 0
M  V30 6077 C 567.691 -1.91056 -0.348028 0
M  V30 6078 O 566.966 -1.48488 -1.25625 0
M  V30 6079 C 567.249 -3.07779 1.86933 0
M  V30 6080 C 567.102 -2.9387 3.4053 0
M  V30 6081 C 568.421 -4.07749 1.65616 0
M  V30 6082 H 565.54 -0.616144 0.404396 0
M  V30 6083 H 568.182 -1.10394 1.54639 0
M  V30 6084 H 566.332 -3.58462 1.4979 0
M  V30 6085 H 568.004 -2.50476 3.87375 0
M  V30 6086 H 566.247 -2.29686 3.68004 0
M  V30 6087 H 566.918 -3.91719 3.88922 0
M  V30 6088 H 569.394 -3.65994 1.97959 0
M  V30 6089 H 568.27 -5.02348 2.21218 0
M  V30 6090 H 568.531 -4.38029 0.598595 0
M  V30 6091 N 567.59 -1.07411 -1.15328 0
M  V30 6092 C 568.522 -0.652924 -2.19703 0
M  V30 6093 C 569.535 0.294869 -1.60107 0
M  V30 6094 O 570.724 0.0840932 -1.78302 0
M  V30 6095 C 567.824 0.061434 -3.38844 0
M  V30 6096 C 566.997 -0.902696 -4.27984 0
M  V30 6097 C 566.056 -0.225521 -5.25717 0
M  V30 6098 O 565.082 -0.86676 -5.62562 0
M  V30 6099 N 566.284 1.02858 -5.71315 0
M  V30 6100 H 569.049 -1.55081 -2.56457 0
M  V30 6101 H 566.61 -0.958883 -1.30449 0
M  V30 6102 H 568.602 0.525145 -4.01278 0
M  V30 6103 H 567.172 0.861269 -3.00501 0
M  V30 6104 H 566.392 -1.54551 -3.6264 0
M  V30 6105 H 567.68 -1.55636 -4.84412 0
M  V30 6106 H 567.078 1.56948 -5.43492 0
M  V30 6107 H 565.635 1.43596 -6.35786 0
M  V30 6108 N 569.068 1.32177 -0.85831 0
M  V30 6109 C 570.316 1.96735 -0.462568 0
M  V30 6110 C 570.637 1.6824 0.985911 0
M  V30 6111 O 569.907 0.991564 1.68952 0
M  V30 6112 H 568.487 0.727849 -0.168064 0
M  V30 6113 H 571.149 1.61195 -1.09554 0
M  V30 6114 H 570.245 3.06068 -0.610647 0
M  V30 6115 N 570.547 0.616602 1.45037 0
M  V30 6116 C 571.794 0.115331 2.02171 0
M  V30 6117 C 572.122 -1.25748 1.48383 0
M  V30 6118 O 571.377 -1.84511 0.652229 0
M  V30 6119 C 571.676 0.0356829 3.57382 0
M  V30 6120 C 571.342 1.34535 4.30362 0
M  V30 6121 C 570.004 1.70408 4.50016 0
M  V30 6122 C 572.356 2.21049 4.72003 0
M  V30 6123 C 569.684 2.92529 5.0857 0
M  V30 6124 C 572.036 3.42427 5.31908 0
M  V30 6125 C 570.7 3.78541 5.49784 0
M  V30 6126 H 569.97 0.0422024 0.739797 0
M  V30 6127 H 572.617 0.80002 1.73988 0
M  V30 6128 H 570.922 -0.732314 3.84895 0
M  V30 6129 H 572.619 -0.368463 3.99304 0
M  V30 6130 H 569.209 1.05615 4.15383 0
M  V30 6131 H 573.393 1.94632 4.56544 0
M  V30 6132 H 568.649 3.20605 5.20598 0
M  V30 6133 H 572.823 4.09709 5.63127 0
M  V30 6134 H 570.45 4.73255 5.94923 0
M  V30 6135 N 572.025 -1.5352 0.356285 0
M  V30 6136 C 573.441 -1.59599 0.00485267 0
M  V30 6137 C 573.641 -1.37179 -1.47595 0
M  V30 6138 O 572.697 -1.17234 -2.23635 0
M  V30 6139 C 574.01 -2.97277 0.452454 0
M  V30 6140 C 575.558 -3.10357 0.405881 0
M  V30 6141 C 576.033 -4.50432 0.829148 0
M  V30 6142 N 577.524 -4.5652 0.783838 0
M  V30 6143 C 578.259 -5.63077 1.08315 0
M  V30 6144 N 577.755 -6.77429 1.45126 0
M  V30 6145 N 579.548 -5.53014 1.00655 0
M  V30 6146 H 571.699 -1.66346 1.32071 0
M  V30 6147 H 573.962 -0.77971 0.539218 0
M  V30 6148 H 573.668 -3.18792 1.48542 0
M  V30 6149 H 573.542 -3.76836 -0.165762 0
M  V30 6150 H 575.929 -2.88558 -0.617934 0
M  V30 6151 H 576.01 -2.32828 1.05947 0
M  V30 6152 H 575.654 -4.72968 1.85103 0
M  V30 6153 H 575.584 -5.26378 0.152906 0
M  V30 6154 H 578.075 -3.74408 0.512513 0
M  V30 6155 H 578.388 -7.54669 1.66415 0
M  V30 6156 H 576.733 -6.78844 1.48983 0
M  V30 6157 H 579.924 -4.62557 0.718215 0
M  V30 6158 H 580.097 -6.35964 1.24315 0
M  V30 6159 N 573.503 -0.0852151 -1.57369 0
M  V30 6160 C 574.752 0.580443 -1.93168 0
M  V30 6161 C 575.065 1.6995 -0.968319 0
M  V30 6162 O 576.271 2.42564 -1.21963 0
M  V30 6163 C 574.727 1.08386 -3.43192 0
M  V30 6164 C 574.335 -0.00491388 -4.48 0
M  V30 6165 C 576.079 1.72281 -3.87968 0
M  V30 6166 C 573.986 0.513299 -5.89168 0
M  V30 6167 H 572.916 0.22059 -0.72101 0
M  V30 6168 H 575.567 -0.159621 -1.82804 0
M  V30 6169 H 573.949 1.8773 -3.48674 0
M  V30 6170 H 575.123 -0.780032 -4.5415 0
M  V30 6171 H 573.438 -0.548453 -4.12772 0
M  V30 6172 H 576.035 2.12108 -4.9083 0
M  V30 6173 H 576.378 2.58811 -3.26071 0
M  V30 6174 H 576.911 0.995359 -3.85146 0
M  V30 6175 H 573.65 -0.315153 -6.54742 0
M  V30 6176 H 573.17 1.25564 -5.8651 0
M  V30 6177 H 574.849 0.985433 -6.39451 0
M  V30 6178 N 574.981 1.5647 0.188427 0
M  V30 6179 C 576.392 1.70864 0.752494 0
M  V30 6180 C 576.743 0.692905 1.83557 0
M  V30 6181 O 575.868 -0.149307 2.15884 0
M  V30 6182 C 576.463 3.09789 1.37173 0
M  V30 6183 C 575.022 3.25925 1.88281 0
M  V30 6184 C 574.169 2.66817 0.755259 0
M  V30 6185 H 577.12 1.58657 -0.0367408 0
M  V30 6186 H 577.141 3.07489 2.24122 0
M  V30 6187 H 576.653 3.83693 0.583219 0
M  V30 6188 H 574.754 2.56948 2.6983 0
M  V30 6189 H 574.867 4.33498 2.04001 0
M  V30 6190 H 573.231 2.2617 1.17128 0
M  V30 6191 H 574.014 3.43294 -0.0211237 0
M  V30 6192 N 576.459 -0.456382 1.50847 0
M  V30 6193 C 577.406 -1.55249 1.70782 0
M  V30 6194 C 578.376 -1.56757 0.549231 0
M  V30 6195 O 579.561 -1.74061 0.7815 0
M  V30 6196 C 576.701 -2.93118 1.82143 0
M  V30 6197 C 575.814 -3.01285 3.09598 0
M  V30 6198 C 574.949 -4.30159 3.11667 0
M  V30 6199 C 573.988 -4.32124 4.33515 0
M  V30 6200 N 573.125 -5.52492 4.3324 0
M  V30 6201 H 577.965 -1.37555 2.64353 0
M  V30 6202 H 575.502 -0.668543 1.3103 0
M  V30 6203 H 577.46 -3.73088 1.86711 0
M  V30 6204 H 576.09 -3.09413 0.919978 0
M  V30 6205 H 575.142 -2.14096 3.14431 0
M  V30 6206 H 576.454 -2.98597 3.99551 0
M  V30 6207 H 575.608 -5.18489 3.15046 0
M  V30 6208 H 574.347 -4.35477 2.1957 0
M  V30 6209 H 573.352 -3.42189 4.30333 0
M  V30 6210 H 574.577 -4.28485 5.26856 0
M  V30 6211 H 572.523 -5.58567 3.44004 0
M  V30 6212 H 572.44 -5.51605 5.16979 0
M  V30 6213 H 573.708 -6.42906 4.40786 0
M  V30 6214 N 577.937 -1.40673 -0.710563 0
M  V30 6215 C 579.185 -1.38947 -1.46759 0
M  V30 6216 C 579.506 0.00572879 -1.94999 0
M  V30 6217 O 578.776 0.961358 -1.70689 0
M  V30 6218 H 577.356 -0.5114 -0.544499 0
M  V30 6219 H 580.018 -1.75773 -0.842012 0
M  V30 6220 H 579.114 -2.06745 -2.33801 0
M  V30 6221 N 579.415 0.9433 -1.26252 0
M  V30 6222 C 580.643 1.72367 -1.14443 0
M  V30 6223 C 581.058 1.86392 0.300572 0
M  V30 6224 O 580.415 1.36978 1.20596 0
M  V30 6225 C 580.466 3.13155 -1.806 0
M  V30 6226 O 580.187 2.99803 -3.19452 0
M  V30 6227 C 581.688 4.07417 -1.74717 0
M  V30 6228 H 578.908 0.539758 -0.398626 0
M  V30 6229 H 581.452 1.18268 -1.66832 0
M  V30 6230 H 579.607 3.64162 -1.32154 0
M  V30 6231 H 580.021 3.88697 -3.52158 0
M  V30 6232 H 581.495 5.03773 -2.25647 0
M  V30 6233 H 581.972 4.3337 -0.713244 0
M  V30 6234 H 582.578 3.6233 -2.22704 0
M  V30 6235 N 580.893 1.08022 1.14757 0
M  V30 6236 C 582.121 0.828847 1.89572 0
M  V30 6237 C 582.536 -0.618621 1.78377 0
M  V30 6238 O 581.893 -1.42482 1.1404 0
M  V30 6239 C 581.944 1.23677 3.39685 0
M  V30 6240 O 581.665 2.62746 3.50566 0
M  V30 6241 C 583.166 1.01569 4.31507 0
M  V30 6242 H 580.386 0.299196 0.600602 0
M  V30 6243 H 582.93 1.43846 1.45357 0
M  V30 6244 H 581.085 0.671347 3.81539 0
M  V30 6245 H 581.499 2.79573 4.43778 0
M  V30 6246 H 582.973 1.35055 5.35223 0
M  V30 6247 H 583.45 -0.0475433 4.39174 0
M  V30 6248 H 584.056 1.56636 3.95405 0
M  V30 6249 N 582.371 -1.3172 0.865308 0
M  V30 6250 C 583.301 -2.31109 0.333302 0
M  V30 6251 C 584.282 -1.60148 -0.573301 0
M  V30 6252 O 585.467 -1.87882 -0.491305 0
M  V30 6253 C 582.597 -3.44104 -0.470078 0
M  V30 6254 C 581.551 -4.26623 0.343021 0
M  V30 6255 C 580.877 -5.31482 -0.585756 0
M  V30 6256 C 582.177 -4.98001 1.57456 0
M  V30 6257 H 583.871 -2.75855 1.1638 0
M  V30 6258 H 581.417 -1.3262 0.561069 0
M  V30 6259 H 583.37 -4.12682 -0.852752 0
M  V30 6260 H 582.094 -2.98112 -1.33404 0
M  V30 6261 H 580.753 -3.59707 0.707583 0
M  V30 6262 H 580.401 -4.81741 -1.44686 0
M  V30 6263 H 580.101 -5.87582 -0.0456494 0
M  V30 6264 H 581.625 -6.0292 -0.965375 0
M  V30 6265 H 583.039 -5.59201 1.26359 0
M  V30 6266 H 581.436 -5.63876 2.05339 0
M  V30 6267 H 582.506 -4.25253 2.32997 0
M  V30 6268 N 583.85 -0.624285 -1.44708 0
M  V30 6269 C 585.099 -0.123539 -2.01321 0
M  V30 6270 C 585.412 1.25966 -1.49639 0
M  V30 6271 O 586.618 1.85405 -1.98336 0
M  V30 6272 C 585.074 -0.170124 -3.59498 0
M  V30 6273 C 584.682 -1.55421 -4.20176 0
M  V30 6274 C 586.426 0.274513 -4.23611 0
M  V30 6275 C 584.332 -1.55628 -5.70556 0
M  V30 6276 H 583.263 -0.0424183 -0.752806 0
M  V30 6277 H 585.913 -0.782076 -1.65999 0
M  V30 6278 H 584.296 0.555385 -3.92086 0
M  V30 6279 H 585.47 -2.30276 -3.99136 0
M  V30 6280 H 583.784 -1.94235 -3.68323 0
M  V30 6281 H 586.382 0.292402 -5.339 0
M  V30 6282 H 586.725 1.3005 -3.95465 0
M  V30 6283 H 587.258 -0.398275 -3.95801 0
M  V30 6284 H 583.997 -2.56041 -6.03426 0
M  V30 6285 H 583.517 -0.850563 -5.93739 0
M  V30 6286 H 585.196 -1.28721 -6.34066 0
M  V30 6287 N 585.328 1.53329 -0.364422 0
M  V30 6288 C 586.556 2.05657 0.226424 0
M  V30 6289 C 586.971 1.23801 1.42544 0
M  V30 6290 O 586.328 0.27839 1.80364 0
M  V30 6291 C 586.379 3.56125 0.621056 0
M  V30 6292 O 586.1 4.34879 -0.530304 0
M  V30 6293 C 587.601 4.24706 1.27041 0
M  V30 6294 H 584.821 0.669806 0.0400056 0
M  V30 6295 H 587.365 1.97714 -0.522456 0
M  V30 6296 H 585.52 3.64223 1.31985 0
M  V30 6297 H 585.934 5.24073 -0.211546 0
M  V30 6298 H 587.408 5.3131 1.49711 0
M  V30 6299 H 587.885 3.78354 2.23036 0
M  V30 6300 H 588.491 4.20858 0.613079 0
M  V30 6301 N 586.806 0.0935595 1.57322 0
M  V30 6302 C 587.754 -0.883457 2.15169 0
M  V30 6303 C 588.748 -1.29324 1.09415 0
M  V30 6304 O 589.954 -1.26795 1.27762 0
M  V30 6305 H 586.329 -0.302923 0.688289 0
M  V30 6306 H 588.3 -0.370845 2.96087 0
M  V30 6307 C 587.049 -2.13345 2.74552 0
M  V30 6308 H 586.372 -1.82702 3.55612 0
M  V30 6309 H 587.812 -2.7977 3.18598 0
M  V30 6310 C 586.271 -2.90646 1.70371 0
M  V30 6311 O 586.801 -3.85133 1.14173 0
M  V30 6312 N 585.007 -2.54157 1.40899 0
M  V30 6313 H 584.554 -1.77391 1.86789 0
M  V30 6314 H 584.512 -3.06178 0.714301 0
M  V30 6315 N 588.284 -1.56567 -0.180126 0
M  V30 6316 C 589.214 -1.98753 -1.22553 0
M  V30 6317 C 590.195 -0.86175 -1.46656 0
M  V30 6318 O 591.38 -1.12719 -1.58139 0
M  V30 6319 C 588.51 -2.33988 -2.56645 0
M  V30 6320 C 587.464 -3.49445 -2.47128 0
M  V30 6321 C 586.79 -3.70397 -3.8563 0
M  V30 6322 C 588.09 -4.83171 -1.98352 0
M  V30 6323 H 589.784 -2.86332 -0.874896 0
M  V30 6324 H 587.33 -1.37757 -0.419414 0
M  V30 6325 H 589.283 -2.62097 -3.29974 0
M  V30 6326 H 588.007 -1.43309 -2.93479 0
M  V30 6327 H 586.666 -3.2145 -1.76254 0
M  V30 6328 H 586.314 -2.77023 -4.19842 0
M  V30 6329 H 586.014 -4.48077 -3.80132 0
M  V30 6330 H 587.538 -4.00897 -4.60558 0
M  V30 6331 H 588.952 -5.10213 -2.61449 0
M  V30 6332 H 587.349 -5.64425 -2.03823 0
M  V30 6333 H 588.419 -4.75753 -0.937402 0
M  V30 6334 N 589.762 0.448376 -1.51087 0
M  V30 6335 C 590.987 1.22605 -1.6728 0
M  V30 6336 C 591.412 1.84524 -0.365045 0
M  V30 6337 O 590.77 1.6832 0.673642 0
M  V30 6338 C 590.818 2.29393 -2.78229 0
M  V30 6339 O 589.922 3.34608 -2.41063 0
M  V30 6340 H 589.263 0.359705 -0.558129 0
M  V30 6341 H 591.793 0.530903 -1.97592 0
M  V30 6342 H 591.803 2.74352 -3.01986 0
M  V30 6343 H 590.478 1.83701 -3.73131 0
M  V30 6344 H 589.055 2.95202 -2.27838 0
M  V30 6345 N 591.24 1.41047 0.703093 0
M  V30 6346 C 592.465 1.43537 1.49706 0
M  V30 6347 C 592.89 0.0401853 1.88057 0
M  V30 6348 O 592.248 -0.954785 1.54122 0
M  V30 6349 C 592.296 2.3433 2.74084 0
M  V30 6350 O 591.4 1.79515 3.71279 0
M  V30 6351 H 590.741 0.487454 0.450871 0
M  V30 6352 H 593.271 1.85422 0.86486 0
M  V30 6353 H 593.281 2.49947 3.22476 0
M  V30 6354 H 591.956 3.35708 2.45506 0
M  V30 6355 H 590.533 1.7331 3.30179 0
M  V30 6356 N 592.718 -0.936591 1.26751 0
M  V30 6357 C 593.964 -1.6858 1.12733 0
M  V30 6358 C 594.297 -1.91414 -0.327745 0
M  V30 6359 O 593.572 -1.49812 -1.24043 0
M  V30 6360 C 593.855 -3.05779 1.90187 0
M  V30 6361 C 593.708 -2.90242 3.43627 0
M  V30 6362 C 595.027 -4.0597 1.69931 0
M  V30 6363 H 592.146 -0.61182 0.410908 0
M  V30 6364 H 594.788 -1.08747 1.55801 0
M  V30 6365 H 592.938 -3.56853 1.53584 0
M  V30 6366 H 594.61 -2.46354 3.9001 0
M  V30 6367 H 592.853 -2.2577 3.70419 0
M  V30 6368 H 593.524 -3.87572 3.93055 0
M  V30 6369 H 596 -3.63874 2.0183 0
M  V30 6370 H 594.876 -4.99974 2.26534 0
M  V30 6371 H 595.137 -4.37369 0.64502 0
M  V30 6372 N 594.196 -1.08629 -1.14182 0
M  V30 6373 C 595.126 -0.740003 -2.21464 0
M  V30 6374 C 596.107 0.278591 -1.67803 0
M  V30 6375 O 597.292 0.148461 -1.93632 0
M  V30 6376 C 594.422 -0.150952 -3.46972 0
M  V30 6377 C 593.376 -1.09815 -4.13672 0
M  V30 6378 C 592.702 -0.3712 -5.3341 0
M  V30 6379 C 594.002 -2.43722 -4.61949 0
M  V30 6380 H 595.696 -1.63697 -2.50686 0
M  V30 6381 H 593.242 -0.788526 -1.20492 0
M  V30 6382 H 595.195 0.103325 -4.21273 0
M  V30 6383 H 593.919 0.781164 -3.1712 0
M  V30 6384 H 592.578 -1.33756 -3.41328 0
M  V30 6385 H 592.226 0.564792 -4.99819 0
M  V30 6386 H 591.926 -1.00267 -5.78982 0
M  V30 6387 H 593.45 -0.12503 -6.10472 0
M  V30 6388 H 594.864 -2.24034 -5.27714 0
M  V30 6389 H 593.261 -3.02582 -5.18232 0
M  V30 6390 H 594.331 -3.05082 -3.76899 0
M  V30 6391 N 595.674 1.31259 -0.872281 0
M  V30 6392 C 596.621 2.28459 -0.327857 0
M  V30 6393 C 597.591 1.55831 0.574957 0
M  V30 6394 O 598.776 1.83965 0.506101 0
M  V30 6395 C 595.916 3.41985 0.462644 0
M  V30 6396 C 595.029 4.29458 -0.467949 0
M  V30 6397 C 594.164 5.30131 0.336903 0
M  V30 6398 C 593.203 6.0925 -0.58997 0
M  V30 6399 N 592.34 7.01872 0.178775 0
M  V30 6400 H 597.18 2.74414 -1.16193 0
M  V30 6401 H 594.717 1.34994 -0.584376 0
M  V30 6402 H 596.675 4.06547 0.936759 0
M  V30 6403 H 595.305 2.97134 1.2614 0
M  V30 6404 H 594.357 3.65318 -1.06052 0
M  V30 6405 H 595.669 4.84677 -1.17856 0
M  V30 6406 H 594.823 6.0038 0.873427 0
M  V30 6407 H 593.562 4.75573 1.08079 0
M  V30 6408 H 592.567 5.37889 -1.13823 0
M  V30 6409 H 593.792 6.65894 -1.33275 0
M  V30 6410 H 591.738 6.49721 0.905435 0
M  V30 6411 H 591.655 7.54522 -0.472452 0
M  V30 6412 H 592.923 7.76382 0.696454 0
M  V30 6413 N 597.152 0.631951 1.44375 0
M  V30 6414 C 598.429 0.067646 1.95483 0
M  V30 6415 C 598.809 -1.40683 1.57389 0
M  V30 6416 O 598.157 -2.12167 0.848375 0
M  V30 6417 C 598.367 0.291392 3.47781 0
M  V30 6418 C 599.715 0.185028 4.24197 0
M  V30 6419 O 600.739 0.222803 3.55503 0
M  V30 6420 O 599.598 0.0906642 5.46425 0
M  V30 6421 H 596.692 -0.0218379 0.826712 0
M  V30 6422 H 599.238 0.703711 1.54421 0
M  V30 6423 H 598.01 1.31449 3.68561 0
M  V30 6424 H 597.633 -0.378772 3.95792 0
M  V30 6425 N 598.631 -1.53133 0.372548 0
M  V30 6426 C 599.541 -2.29671 -0.478379 0
M  V30 6427 C 600.557 -1.35913 -1.08644 0
M  V30 6428 O 601.733 -1.68975 -1.09588 0
M  V30 6429 C 598.798 -3.07625 -1.599 0
M  V30 6430 C 597.859 -4.17061 -1.01776 0
M  V30 6431 C 597.092 -4.91289 -2.08497 0
M  V30 6432 O 597.315 -4.65442 -3.29727 0
M  V30 6433 O 596.249 -5.7705 -1.71164 0
M  V30 6434 H 600.075 -3.03355 0.144649 0
M  V30 6435 H 597.66 -1.48773 0.136729 0
M  V30 6436 H 599.542 -3.56281 -2.25038 0
M  V30 6437 H 598.217 -2.3677 -2.2073 0
M  V30 6438 H 597.124 -3.72641 -0.330098 0
M  V30 6439 H 598.457 -4.90102 -0.453915 0
M  V30 6440 N 600.109 -0.101901 -1.5727 0
M  V30 6441 C 601.072 0.840129 -2.13247 0
M  V30 6442 C 602.072 1.20625 -1.06331 0
M  V30 6443 O 603.262 1.13456 -1.32186 0
M  V30 6444 C 600.394 2.13372 -2.65867 0
M  V30 6445 H 601.587 0.353945 -2.97804 0
M  V30 6446 H 599.14 0.147167 -1.55606 0
M  V30 6447 H 599.875 2.66461 -1.84849 0
M  V30 6448 H 599.66 1.88085 -3.44044 0
M  V30 6449 H 601.15 2.80748 -3.09145 0
M  V30 6450 N 601.587 1.56661 0.17182 0
M  V30 6451 C 602.833 1.82235 0.889845 0
M  V30 6452 C 603.166 0.679673 1.81918 0
M  V30 6453 O 602.441 -0.318404 1.91876 0
M  V30 6454 C 602.724 3.18195 1.68595 0
M  V30 6455 C 602.577 4.42989 0.779773 0
M  V30 6456 C 603.896 3.5109 2.65375 0
M  V30 6457 H 601.015 0.66291 0.322056 0
M  V30 6458 H 603.657 1.89358 0.15608 0
M  V30 6459 H 601.807 3.12253 2.3115 0
M  V30 6460 H 603.479 4.60997 0.16714 0
M  V30 6461 H 601.722 4.33711 0.0877964 0
M  V30 6462 H 602.393 5.3467 1.3723 0
M  V30 6463 H 604.869 3.57482 2.12946 0
M  V30 6464 H 603.745 4.47298 3.18144 0
M  V30 6465 H 604.006 2.75768 3.45549 0
M  V30 6466 N 603.065 -0.440357 1.51323 0
M  V30 6467 C 604.311 -1.18874 1.65047 0
M  V30 6468 C 604.666 -1.88988 0.360742 0
M  V30 6469 O 603.959 -1.80479 -0.643272 0
M  V30 6470 C 604.153 -2.2339 2.78984 0
M  V30 6471 C 603.982 -1.63534 4.18911 0
M  V30 6472 C 602.752 -1.42158 4.84891 0
M  V30 6473 C 604.95 -1.11324 5.02107 0
M  V30 6474 N 602.932 -0.778679 6.08942 0
M  V30 6475 C 604.303 -0.595421 6.17134 0
M  V30 6476 C 606.358 -1.00471 4.87658 0
M  V30 6477 C 605.061 0.0202557 7.19297 0
M  V30 6478 C 607.087 -0.402928 5.90026 0
M  V30 6479 C 606.449 0.10436 7.04323 0
M  V30 6480 H 602.548 -0.422771 0.657866 0
M  V30 6481 H 605.132 -0.485814 1.88542 0
M  V30 6482 H 603.303 -2.91074 2.57158 0
M  V30 6483 H 605.035 -2.90366 2.81904 0
M  V30 6484 H 601.79 -1.68247 4.42707 0
M  V30 6485 H 602.214 -0.474755 6.75333 0
M  V30 6486 H 606.856 -1.38278 3.99548 0
M  V30 6487 H 604.574 0.410468 8.07057 0
M  V30 6488 H 608.16 -0.320897 5.80914 0
M  V30 6489 H 607.04 0.562697 7.82179 0
M  V30 6490 N 604.543 -1.41418 -0.695603 0
M  V30 6491 C 605.453 -1.45622 -1.83933 0
M  V30 6492 C 606.469 -0.346825 -1.70508 0
M  V30 6493 O 607.645 -0.59454 -1.92424 0
M  V30 6494 C 604.71 -1.33627 -3.19914 0
M  V30 6495 C 603.771 -2.54882 -3.45447 0
M  V30 6496 C 603.004 -2.43449 -4.7494 0
M  V30 6497 O 603.227 -1.45905 -5.51424 0
M  V30 6498 O 602.161 -3.33206 -5.01256 0
M  V30 6499 H 605.987 -2.42114 -1.83342 0
M  V30 6500 H 603.572 -1.22956 -0.848658 0
M  V30 6501 H 605.454 -1.29221 -4.01098 0
M  V30 6502 H 604.129 -0.402508 -3.21188 0
M  V30 6503 H 603.036 -2.64865 -2.64192 0
M  V30 6504 H 604.369 -3.47087 -3.48987 0
M  V30 6505 N 606.021 0.929856 -1.27246 0
M  V30 6506 C 606.968 2.03017 -1.09785 0
M  V30 6507 C 607.938 1.661 0.000456744 0
M  V30 6508 O 609.123 1.90116 -0.161462 0
M  V30 6509 C 606.263 3.36878 -0.748816 0
M  V30 6510 C 605.376 3.86763 -1.92453 0
M  V30 6511 C 604.511 5.09061 -1.51758 0
M  V30 6512 C 603.55 5.51237 -2.66091 0
M  V30 6513 N 602.687 6.64732 -2.25999 0
M  V30 6514 H 607.527 2.17285 -2.03939 0
M  V30 6515 H 605.064 1.06448 -1.01524 0
M  V30 6516 H 607.022 4.13855 -0.527283 0
M  V30 6517 H 605.652 3.22424 0.155771 0
M  V30 6518 H 604.704 3.06086 -2.25867 0
M  V30 6519 H 606.016 4.13994 -2.78227 0
M  V30 6520 H 605.17 5.93532 -1.25716 0
M  V30 6521 H 603.909 4.83602 -0.630896 0
M  V30 6522 H 602.914 4.65316 -2.92849 0
M  V30 6523 H 604.139 5.78692 -3.55377 0
M  V30 6524 H 602.085 6.40935 -1.3978 0
M  V30 6525 H 602.002 6.91607 -3.05313 0
M  V30 6526 H 603.27 7.52549 -2.03199 0
M  V30 6527 N 607.499 1.09233 1.13605 0
M  V30 6528 C 608.91 0.846839 1.6639 0
M  V30 6529 C 609.261 -0.625031 1.85978 0
M  V30 6530 O 608.386 -1.48173 1.57714 0
M  V30 6531 C 608.981 1.5307 3.0225 0
M  V30 6532 C 607.54 1.33223 3.52035 0
M  V30 6533 C 606.687 1.58806 2.27323 0
M  V30 6534 H 609.638 1.25175 0.975541 0
M  V30 6535 H 609.659 0.96267 3.68121 0
M  V30 6536 H 609.171 2.60192 2.87961 0
M  V30 6537 H 607.272 0.282091 3.71531 0
M  V30 6538 H 607.385 2.0657 4.32279 0
M  V30 6539 H 605.749 1.01007 2.33815 0
M  V30 6540 H 606.532 2.67153 2.15602 0
M  V30 6541 N 608.977 -1.30795 0.87923 0
M  V30 6542 C 610.224 -1.96362 0.494786 0
M  V30 6543 C 610.552 -1.69448 -0.954868 0
M  V30 6544 O 609.807 -0.988711 -1.68888 0
M  V30 6545 C 610.106 -3.50287 0.709476 0
M  V30 6546 C 609.772 -3.9724 2.13333 0
M  V30 6547 C 608.434 -4.09772 2.52271 0
M  V30 6548 C 610.786 -4.21807 3.06151 0
M  V30 6549 C 608.114 -4.44227 3.83248 0
M  V30 6550 C 610.466 -4.5773 4.36654 0
M  V30 6551 C 609.13 -4.68469 4.75492 0
M  V30 6552 H 608.4 -0.71854 0.181055 0
M  V30 6553 H 611.047 -1.55764 1.11399 0
M  V30 6554 H 609.352 -3.91799 0.0072 0
M  V30 6555 H 611.049 -3.99082 0.391703 0
M  V30 6556 H 607.639 -3.87988 1.82107 0
M  V30 6557 H 611.823 -4.11611 2.77291 0
M  V30 6558 H 607.079 -4.50741 4.13089 0
M  V30 6559 H 611.253 -4.7569 5.08617 0
M  V30 6560 H 608.88 -4.94923 5.77022 0
M  V30 6561 N 610.455 -0.639598 -1.44038 0
M  V30 6562 C 611.871 -0.305953 -1.5664 0
M  V30 6563 C 612.071 1.19055 -1.62567 0
M  V30 6564 O 611.127 1.97492 -1.57331 0
M  V30 6565 C 612.44 -1.00533 -2.83397 0
M  V30 6566 C 613.988 -0.984278 -2.97121 0
M  V30 6567 C 614.463 -1.66428 -4.26691 0
M  V30 6568 N 615.954 -1.63127 -4.33525 0
M  V30 6569 C 616.689 -2.12629 -5.32519 0
M  V30 6570 N 616.185 -2.70359 -6.3787 0
M  V30 6571 N 617.978 -2.03208 -5.24083 0
M  V30 6572 H 610.129 -1.6109 -1.38434 0
M  V30 6573 H 612.392 -0.676672 -0.663942 0
M  V30 6574 H 612.098 -2.06034 -2.85032 0
M  V30 6575 H 611.972 -0.548362 -3.73193 0
M  V30 6576 H 614.359 0.0622792 -2.95034 0
M  V30 6577 H 614.44 -1.47981 -2.08651 0
M  V30 6578 H 614.084 -2.71034 -4.29538 0
M  V30 6579 H 614.014 -1.14351 -5.14034 0
M  V30 6580 H 616.505 -1.20987 -3.58009 0
M  V30 6581 H 616.818 -3.05842 -7.09704 0
M  V30 6582 H 615.163 -2.74414 -6.38531 0
M  V30 6583 H 618.354 -1.57823 -4.40692 0
M  V30 6584 H 618.527 -2.42097 -6.01077 0
M  V30 6585 N 611.933 1.52934 -0.380664 0
M  V30 6586 C 613.18 2.01467 0.204278 0
M  V30 6587 C 613.508 1.26744 1.47533 0
M  V30 6588 O 612.763 0.353723 1.92477 0
M  V30 6589 C 613.062 3.5349 0.527199 0
M  V30 6590 C 612.728 4.46171 -0.651295 0
M  V30 6591 C 611.39 4.71227 -0.974619 0
M  V30 6592 C 613.742 5.00909 -1.44012 0
M  V30 6593 C 611.07 5.4827 -2.08847 0
M  V30 6594 C 613.422 5.7917 -2.5445 0
M  V30 6595 C 612.086 6.02507 -2.87301 0
M  V30 6596 H 611.356 0.73722 0.0747504 0
M  V30 6597 H 614.003 1.84411 -0.516234 0
M  V30 6598 H 612.308 3.68574 1.32892 0
M  V30 6599 H 614.005 3.88529 0.992283 0
M  V30 6600 H 610.595 4.26829 -0.389276 0
M  V30 6601 H 614.779 4.81485 -1.20357 0
M  V30 6602 H 610.035 5.64567 -2.34679 0
M  V30 6603 H 614.209 6.20588 -3.1598 0
M  V30 6604 H 611.836 6.61989 -3.7373 0
M  V30 6605 N 613.412 0.11024 1.57214 0
M  V30 6606 C 614.362 -0.854147 2.11396 0
M  V30 6607 C 615.346 -1.23394 1.03261 0
M  V30 6608 O 616.538 -1.20649 1.2951 0
M  V30 6609 C 613.667 -2.10752 2.70995 0
M  V30 6610 C 612.753 -1.75249 3.86198 0
M  V30 6611 N 613.144 -1.10377 4.9361 0
M  V30 6612 C 611.442 -2.04763 3.96217 0
M  V30 6613 C 612.143 -0.938199 5.74084 0
M  V30 6614 N 611.119 -1.46039 5.23616 0
M  V30 6615 H 614.921 -0.348897 2.91822 0
M  V30 6616 H 612.435 -0.0925071 1.62136 0
M  V30 6617 H 614.432 -2.80801 3.0815 0
M  V30 6618 H 613.092 -2.61829 1.9203 0
M  V30 6619 H 614.103 -0.768785 5.12162 0
M  V30 6620 H 610.78 -2.57948 3.28282 0
M  V30 6621 H 612.17 -0.429678 6.70525 0
M  V30 6622 N 614.89 -1.56749 -0.16351 0
M  V30 6623 C 616.301 -1.72039 -0.725216 0
M  V30 6624 C 616.652 -0.72202 -1.82432 0
M  V30 6625 O 615.777 0.114942 -2.16095 0
M  V30 6626 C 616.372 -3.11932 -1.32227 0
M  V30 6627 C 614.931 -3.28879 -1.83072 0
M  V30 6628 C 614.078 -2.67984 -0.712716 0
M  V30 6629 H 617.029 -1.58579 0.0619772 0
M  V30 6630 H 617.05 -3.11015 -2.19202 0
M  V30 6631 H 616.562 -3.84572 -0.522103 0
M  V30 6632 H 614.663 -2.61209 -2.65708 0
M  V30 6633 H 614.776 -4.36688 -1.97079 0
M  V30 6634 H 613.14 -2.28005 -1.13515 0
M  V30 6635 H 613.923 -3.43216 0.0757361 0
M  V30 6636 N 616.368 0.432326 -1.51554 0
M  V30 6637 C 617.278 1.55023 -1.76082 0
M  V30 6638 C 618.294 1.61593 -0.645265 0
M  V30 6639 O 619.47 1.78742 -0.928086 0
M  V30 6640 C 616.535 2.90964 -1.88523 0
M  V30 6641 C 615.596 2.9447 -3.12388 0
M  V30 6642 C 614.829 4.23926 -3.24225 0
M  V30 6643 O 615.052 5.16576 -2.4188 0
M  V30 6644 O 613.986 4.33818 -4.17235 0
M  V30 6645 H 617.812 1.37238 -2.70923 0
M  V30 6646 H 615.397 0.615845 -1.36117 0
M  V30 6647 H 617.279 3.71633 -1.98662 0
M  V30 6648 H 615.954 3.08865 -0.9687 0
M  V30 6649 H 614.861 2.12737 -3.07723 0
M  V30 6650 H 616.194 2.81514 -4.03746 0
M  V30 6651 N 617.846 1.41785 0.688094 0
M  V30 6652 C 618.796 1.40684 1.79421 0
M  V30 6653 C 619.78 0.280096 1.58443 0
M  V30 6654 O 620.972 0.521332 1.69148 0
M  V30 6655 C 618.101 1.29874 3.17785 0
M  V30 6656 C 617.187 2.47442 3.44432 0
M  V30 6657 N 617.578 3.72895 3.41736 0
M  V30 6658 C 615.876 2.41416 3.75013 0
M  V30 6659 C 616.577 4.50912 3.67496 0
M  V30 6660 N 615.553 3.81131 3.87608 0
M  V30 6661 H 619.355 2.35591 1.7571 0
M  V30 6662 H 616.869 1.35946 0.888393 0
M  V30 6663 H 618.866 1.27168 3.97031 0
M  V30 6664 H 617.526 0.359587 3.22703 0
M  V30 6665 H 618.537 4.05676 3.21943 0
M  V30 6666 H 615.214 1.56011 3.87256 0
M  V30 6667 H 616.604 5.59865 3.71484 0
M  V30 6668 N 619.324 -0.923095 1.27737 0
M  V30 6669 C 620.571 -1.67127 1.14345 0
M  V30 6670 C 620.899 -1.92017 -0.30982 0
M  V30 6671 O 620.154 -1.51185 -1.24264 0
M  V30 6672 C 620.453 -3.04125 1.8773 0
M  V30 6673 C 620.119 -2.98929 3.37568 0
M  V30 6674 C 618.781 -2.9722 3.78436 0
M  V30 6675 C 621.133 -2.89875 4.33154 0
M  V30 6676 C 618.461 -2.84244 5.13247 0
M  V30 6677 C 620.813 -2.7844 5.68026 0
M  V30 6678 C 619.477 -2.75083 6.08182 0
M  V30 6679 H 618.747 -0.611562 0.418417 0
M  V30 6680 H 621.394 -1.07618 1.584 0
M  V30 6681 H 619.699 -3.67366 1.36196 0
M  V30 6682 H 621.396 -3.609 1.74792 0
M  V30 6683 H 617.986 -3.0105 3.05069 0
M  V30 6684 H 622.17 -2.9029 4.02548 0
M  V30 6685 H 617.426 -2.80034 5.43499 0
M  V30 6686 H 621.6 -2.70401 6.4176 0
M  V30 6687 H 619.227 -2.64786 7.12596 0
M  V30 6688 N 620.802 -1.09834 -1.13024 0
M  V30 6689 C 621.732 -0.763451 -2.20666 0
M  V30 6690 C 622.713 0.260778 -1.68089 0
M  V30 6691 O 623.898 0.127915 -1.93778 0
M  V30 6692 C 621.028 -0.187744 -3.46792 0
M  V30 6693 C 619.982 -1.14196 -4.12484 0
M  V30 6694 C 619.308 -0.427755 -5.32986 0
M  V30 6695 C 620.608 -2.48607 -4.59338 0
M  V30 6696 H 622.302 -1.66347 -2.48936 0
M  V30 6697 H 619.848 -0.801261 -1.19649 0
M  V30 6698 H 621.801 0.0586375 -4.21359 0
M  V30 6699 H 620.525 0.747485 -3.17931 0
M  V30 6700 H 619.184 -1.37369 -3.3989 0
M  V30 6701 H 618.832 0.511747 -5.0039 0
M  V30 6702 H 618.532 -1.06403 -5.77886 0
M  V30 6703 H 620.056 -0.189772 -6.10305 0
M  V30 6704 H 621.47 -2.29618 -5.25308 0
M  V30 6705 H 619.867 -3.08062 -5.14993 0
M  V30 6706 H 620.937 -3.09062 -3.73642 0
M  V30 6707 N 622.28 1.30327 -0.886154 0
M  V30 6708 C 623.557 1.90922 -0.425217 0
M  V30 6709 C 623.937 1.80533 1.09413 0
M  V30 6710 O 623.285 1.2233 1.92996 0
M  V30 6711 C 623.495 3.36529 -0.924638 0
M  V30 6712 C 624.843 4.13598 -0.960305 0
M  V30 6713 O 625.867 3.45377 -0.871382 0
M  V30 6714 O 624.726 5.35482 -1.09184 0
M  V30 6715 H 621.82 0.81668 -0.130238 0
M  V30 6716 H 624.366 1.38886 -0.975132 0
M  V30 6717 H 623.138 3.38181 -1.96849 0
M  V30 6718 H 622.761 3.96021 -0.353955 0
M  V30 6719 N 623.758 0.647228 1.43697 0
M  V30 6720 C 624.721 -0.0385101 2.29168 0
M  V30 6721 C 625.721 -0.756487 1.41894 0
M  V30 6722 O 626.911 -0.598641 1.63591 0
M  V30 6723 C 624.043 -1.06524 3.23829 0
M  V30 6724 H 625.236 0.713445 2.9129 0
M  V30 6725 H 622.789 0.408153 1.50877 0
M  V30 6726 H 623.524 -1.84664 2.66589 0
M  V30 6727 H 623.309 -0.554147 3.88164 0
M  V30 6728 H 624.799 -1.54432 3.87996 0
M  V30 6729 N 625.236 -1.5273 0.388769 0
M  V30 6730 C 626.168 -2.24081 -0.481704 0
M  V30 6731 C 627.181 -1.26307 -1.02715 0
M  V30 6732 O 628.37 -1.52386 -0.929565 0
M  V30 6733 C 625.47 -2.94315 -1.68024 0
M  V30 6734 C 624.643 -4.18791 -1.26226 0
M  V30 6735 C 623.702 -4.72028 -2.32542 0
M  V30 6736 O 622.728 -5.35129 -1.93972 0
M  V30 6737 N 623.93 -4.51838 -3.64448 0
M  V30 6738 H 626.695 -2.9942 0.129591 0
M  V30 6739 H 624.256 -1.60465 0.2151 0
M  V30 6740 H 626.248 -3.26831 -2.38671 0
M  V30 6741 H 624.818 -2.22287 -2.19789 0
M  V30 6742 H 624.038 -3.92318 -0.384703 0
M  V30 6743 H 625.326 -4.99668 -0.959647 0
M  V30 6744 H 624.724 -4.01468 -3.98547 0
M  V30 6745 H 623.281 -4.88845 -4.31131 0
M  V30 6746 N 626.714 -0.118576 -1.57153 0
M  V30 6747 C 627.962 0.538461 -1.94795 0
M  V30 6748 C 628.283 1.67243 -1.00274 0
M  V30 6749 O 627.553 1.95811 -0.0589692 0
M  V30 6750 H 626.133 0.201904 -0.719197 0
M  V30 6751 H 628.795 -0.187418 -1.93997 0
M  V30 6752 H 627.891 0.933315 -2.97818 0
M  V30 6753 N 628.193 1.56834 0.155195 0
M  V30 6754 C 629.143 1.94061 1.19684 0
M  V30 6755 C 630.127 0.810851 1.38975 0
M  V30 6756 O 631.319 1.07422 1.40675 0
M  V30 6757 C 628.448 2.31778 2.53247 0
M  V30 6758 C 627.534 3.51305 2.37583 0
M  V30 6759 N 627.925 4.68081 1.9166 0
M  V30 6760 C 626.223 3.56228 2.6836 0
M  V30 6761 C 626.924 5.50193 1.88845 0
M  V30 6762 N 625.9 4.91676 2.31852 0
M  V30 6763 H 629.702 2.81826 0.833747 0
M  V30 6764 H 627.216 1.58284 0.363328 0
M  V30 6765 H 629.213 2.56649 3.28538 0
M  V30 6766 H 627.873 1.4536 2.90346 0
M  V30 6767 H 628.884 4.91993 1.6175 0
M  V30 6768 H 625.561 2.8033 3.09389 0
M  V30 6769 H 626.951 6.53801 1.54901 0
M  V30 6770 N 629.671 -0.424282 1.51781 0
M  V30 6771 C 630.918 -1.1726 1.65095 0
M  V30 6772 C 631.246 -1.90881 0.373477 0
M  V30 6773 O 630.501 -1.84835 -0.642997 0
M  V30 6774 C 630.8 -2.20418 2.81337 0
M  V30 6775 C 630.466 -1.63715 4.20129 0
M  V30 6776 C 629.128 -1.47975 4.57883 0
M  V30 6777 C 631.48 -1.22157 5.06682 0
M  V30 6778 C 628.808 -0.891703 5.79884 0
M  V30 6779 C 631.16 -0.647767 6.29275 0
M  V30 6780 C 629.824 -0.477371 6.65791 0
M  V30 6781 H 629.094 -0.429085 0.604125 0
M  V30 6782 H 631.741 -0.461852 1.85847 0
M  V30 6783 H 630.046 -2.97581 2.54859 0
M  V30 6784 H 631.743 -2.78163 2.88836 0
M  V30 6785 H 628.333 -1.76946 3.90369 0
M  V30 6786 H 632.517 -1.33133 4.7811 0
M  V30 6787 H 627.773 -0.747563 6.06813 0
M  V30 6788 H 631.947 -0.317291 6.95677 0
M  V30 6789 H 629.574 -0.0195936 7.60197 0
M  V30 6790 N 631.149 -1.42148 -0.680565 0
M  V30 6791 C 632.395 -1.42521 -1.44277 0
M  V30 6792 C 632.728 -0.0393718 -1.9416 0
M  V30 6793 O 632.003 0.935425 -1.70529 0
M  V30 6794 C 632.286 -2.44475 -2.64394 0
M  V30 6795 C 632.139 -3.92226 -2.20179 0
M  V30 6796 C 633.458 -2.43491 -3.66606 0
M  V30 6797 H 630.577 -0.518985 -0.523282 0
M  V30 6798 H 633.219 -1.73524 -0.773914 0
M  V30 6799 H 631.369 -2.18168 -3.21458 0
M  V30 6800 H 633.041 -4.29493 -1.68327 0
M  V30 6801 H 631.284 -4.0637 -1.5181 0
M  V30 6802 H 631.955 -4.59133 -3.06433 0
M  V30 6803 H 634.431 -2.66872 -3.19247 0
M  V30 6804 H 633.307 -3.16816 -4.4824 0
M  V30 6805 H 633.568 -1.45881 -4.17338 0
M  V30 6806 N 632.627 0.916307 -1.28225 0
M  V30 6807 C 633.574 2.01841 -1.11932 0
M  V30 6808 C 634.544 1.66091 -0.0171604 0
M  V30 6809 O 635.729 1.89934 -0.181617 0
M  V30 6810 C 632.869 3.36065 -0.784504 0
M  V30 6811 C 631.982 3.847 -1.96544 0
M  V30 6812 C 631.117 5.07423 -1.57149 0
M  V30 6813 C 630.156 5.48384 -2.71922 0
M  V30 6814 N 629.293 6.62298 -2.33037 0
M  V30 6815 H 634.133 2.1511 -2.06232 0
M  V30 6816 H 631.67 1.05366 -1.02647 0
M  V30 6817 H 633.628 4.13272 -0.571148 0
M  V30 6818 H 632.258 3.22571 0.121565 0
M  V30 6819 H 631.31 3.03673 -2.291 0
M  V30 6820 H 632.622 4.1102 -2.82603 0
M  V30 6821 H 631.776 5.92165 -1.32004 0
M  V30 6822 H 630.515 4.82906 -0.682153 0
M  V30 6823 H 629.52 4.62184 -2.97768 0
M  V30 6824 H 630.745 5.7489 -3.61494 0
M  V30 6825 H 628.691 6.39416 -1.4657 0
M  V30 6826 H 628.608 6.8833 -3.12631 0
M  V30 6827 H 629.876 7.50352 -2.11169 0
M  V30 6828 N 634.105 1.10431 1.1244 0
M  V30 6829 C 635.516 0.864439 1.65482 0
M  V30 6830 C 635.867 -0.60527 1.8663 0
M  V30 6831 O 634.992 -1.46492 1.59276 0
M  V30 6832 C 635.587 1.56267 3.0061 0
M  V30 6833 C 634.146 1.3695 3.50602 0
M  V30 6834 C 633.293 1.61209 2.25626 0
M  V30 6835 H 636.244 1.26203 0.962209 0
M  V30 6836 H 636.265 1.00166 3.67079 0
M  V30 6837 H 635.777 2.63231 2.85186 0
M  V30 6838 H 633.878 0.321481 3.71211 0
M  V30 6839 H 633.991 2.11143 4.30064 0
M  V30 6840 H 632.355 1.03482 2.32731 0
M  V30 6841 H 633.138 2.69425 2.12756 0
M  V30 6842 N 635.583 -1.29855 0.893053 0
M  V30 6843 C 636.493 -2.31661 0.370157 0
M  V30 6844 C 637.509 -1.65677 -0.531723 0
M  V30 6845 O 638.685 -1.9691 -0.422902 0
M  V30 6846 C 635.75 -3.44388 -0.399741 0
M  V30 6847 C 634.811 -4.2598 0.532861 0
M  V30 6848 C 634.044 -5.33324 -0.200388 0
M  V30 6849 O 634.267 -5.52305 -1.42531 0
M  V30 6850 O 633.201 -6.00188 0.453668 0
M  V30 6851 H 637.027 -2.78354 1.2146 0
M  V30 6852 H 634.612 -1.34171 0.657153 0
M  V30 6853 H 636.494 -4.13037 -0.835358 0
M  V30 6854 H 635.169 -2.99815 -1.22035 0
M  V30 6855 H 634.076 -3.59998 1.01746 0
M  V30 6856 H 635.409 -4.74178 1.3197 0
M  V30 6857 N 637.061 -0.65484 -1.43351 0
M  V30 6858 C 638.024 0.0263562 -2.29185 0
M  V30 6859 C 639.024 0.748951 -1.42293 0
M  V30 6860 O 640.214 0.589957 -1.63906 0
M  V30 6861 C 637.346 1.04806 -3.2439 0
M  V30 6862 H 638.539 -0.728883 -2.90908 0
M  V30 6863 H 636.092 -0.416149 -1.50658 0
M  V30 6864 H 636.827 1.83247 -2.67565 0
M  V30 6865 H 636.612 0.533554 -3.88453 0
M  V30 6866 H 638.102 1.52372 -3.88809 0
M  V30 6867 N 638.539 1.52521 -0.396863 0
M  V30 6868 C 639.786 2.01672 0.182898 0
M  V30 6869 C 640.114 1.28302 1.46181 0
M  V30 6870 O 639.369 0.374118 1.92091 0
M  V30 6871 C 639.668 3.5403 0.489677 0
M  V30 6872 C 639.334 4.45456 -0.698581 0
M  V30 6873 C 637.996 4.70166 -1.02454 0
M  V30 6874 C 640.348 4.99354 -1.49316 0
M  V30 6875 C 637.676 5.46024 -2.1465 0
M  V30 6876 C 640.028 5.76439 -2.60579 0
M  V30 6877 C 638.692 5.99426 -2.93675 0
M  V30 6878 H 637.962 0.737971 0.066927 0
M  V30 6879 H 640.609 1.83853 -0.535764 0
M  V30 6880 H 638.914 3.69963 1.28976 0
M  V30 6881 H 640.611 3.8956 0.951018 0
M  V30 6882 H 637.201 4.26392 -0.434525 0
M  V30 6883 H 641.385 4.80182 -1.25457 0
M  V30 6884 H 636.641 5.62046 -2.40654 0
M  V30 6885 H 640.815 6.17202 -3.22544 0
M  V30 6886 H 638.442 6.57988 -3.80731 0
M  V30 6887 N 640.017 0.126909 1.57088 0
M  V30 6888 C 640.947 -0.816847 2.18746 0
M  V30 6889 C 641.928 -1.27161 1.12979 0
M  V30 6890 O 643.113 -1.33279 1.41246 0
M  V30 6891 C 640.243 -2.06398 2.79315 0
M  V30 6892 C 639.197 -1.74673 3.90735 0
M  V30 6893 C 638.523 -3.06482 4.38147 0
M  V30 6894 C 639.823 -1.0089 5.12463 0
M  V30 6895 H 641.517 -0.303032 2.97863 0
M  V30 6896 H 639.063 -0.144314 1.43275 0
M  V30 6897 H 641.016 -2.72885 3.2111 0
M  V30 6898 H 639.74 -2.60118 1.975 0
M  V30 6899 H 638.399 -1.10572 3.49527 0
M  V30 6900 H 638.047 -3.58152 3.5318 0
M  V30 6901 H 637.747 -2.86025 5.13287 0
M  V30 6902 H 639.271 -3.74073 4.82599 0
M  V30 6903 H 640.685 -1.57546 5.51228 0
M  V30 6904 H 639.082 -0.905006 5.93237 0
M  V30 6905 H 640.152 0.00297335 4.849 0
M  V30 6906 N 641.495 -1.56914 -0.146875 0
M  V30 6907 C 642.906 -1.72799 -0.706928 0
M  V30 6908 C 643.257 -0.741329 -1.81656 0
M  V30 6909 O 642.382 0.0920162 -2.16204 0
M  V30 6910 C 642.977 -3.13317 -1.28911 0
M  V30 6911 C 641.536 -3.30803 -1.79573 0
M  V30 6912 C 640.683 -2.68725 -0.684252 0
M  V30 6913 H 643.634 -1.58504 0.0787931 0
M  V30 6914 H 643.655 -3.13323 -2.15891 0
M  V30 6915 H 643.167 -3.85104 -0.481284 0
M  V30 6916 H 641.268 -2.64012 -2.62923 0
M  V30 6917 H 641.381 -4.38754 -1.92436 0
M  V30 6918 H 639.745 -2.29196 -1.11091 0
M  V30 6919 H 640.528 -3.43117 0.112134 0
M  V30 6920 N 642.974 0.416227 -1.52004 0
M  V30 6921 C 644.221 1.16383 -1.65714 0
M  V30 6922 C 644.549 1.9068 -0.383594 0
M  V30 6923 O 643.804 1.85174 0.633185 0
M  V30 6924 C 644.103 2.18923 -2.82502 0
M  V30 6925 C 643.769 1.61485 -4.20991 0
M  V30 6926 C 642.431 1.45545 -4.58661 0
M  V30 6927 C 644.783 1.19468 -5.07323 0
M  V30 6928 C 642.111 0.860937 -5.80349 0
M  V30 6929 C 644.463 0.614386 -6.29609 0
M  V30 6930 C 643.127 0.442056 -6.66035 0
M  V30 6931 H 642.397 0.425875 -0.606392 0
M  V30 6932 H 645.044 0.45199 -1.8609 0
M  V30 6933 H 643.349 2.96225 -2.56433 0
M  V30 6934 H 645.046 2.76628 -2.90307 0
M  V30 6935 H 641.636 1.74873 -3.91302 0
M  V30 6936 H 645.82 1.30596 -4.78809 0
M  V30 6937 H 641.076 0.715372 -6.072 0
M  V30 6938 H 645.25 0.280393 -6.95835 0
M  V30 6939 H 642.877 -0.0207218 -7.60197 0
M  V30 6940 N 644.452 1.42507 0.673017 0
M  V30 6941 C 645.677 1.4668 1.46627 0
M  V30 6942 C 646.102 0.080066 1.8793 0
M  V30 6943 O 645.46 -0.921879 1.56112 0
M  V30 6944 C 645.508 2.40091 2.69051 0
M  V30 6945 O 644.612 1.8735 3.67387 0
M  V30 6946 H 643.953 0.496908 0.44043 0
M  V30 6947 H 646.483 1.87215 0.825334 0
M  V30 6948 H 646.493 2.56731 3.17101 0
M  V30 6949 H 645.168 3.4084 2.3833 0
M  V30 6950 H 643.745 1.80274 3.26429 0
M  V30 6951 N 645.93 -0.909495 1.28709 0
M  V30 6952 C 646.893 -1.99399 1.13016 0
M  V30 6953 C 647.893 -1.60654 0.068536 0
M  V30 6954 O 649.083 -1.71334 0.314671 0
M  V30 6955 C 646.215 -3.33078 0.726085 0
M  V30 6956 H 647.408 -2.14751 2.09338 0
M  V30 6957 H 644.961 -1.09272 1.11756 0
M  V30 6958 H 645.696 -3.23428 -0.23771 0
M  V30 6959 H 645.481 -3.62562 1.49302 0
M  V30 6960 H 646.971 -4.12681 0.639058 0
M  V30 6961 N 647.408 -1.11026 -1.11852 0
M  V30 6962 C 648.656 -0.854769 -1.83134 0
M  V30 6963 C 648.977 0.621375 -1.84835 0
M  V30 6964 O 648.247 1.45129 -1.31584 0
M  V30 6965 H 646.827 -0.313229 -0.678157 0
M  V30 6966 H 649.489 -1.40178 -1.35411 0
M  V30 6967 H 648.585 -1.22311 -2.87135 0
M  V30 6968 N 648.886 1.2938 -0.899927 0
M  V30 6969 C 650.302 1.48052 -0.596059 0
M  V30 6970 C 650.502 1.82114 0.862372 0
M  V30 6971 O 649.558 1.91774 1.64253 0
M  V30 6972 C 650.871 2.59332 -1.52208 0
M  V30 6973 C 652.419 2.73208 -1.5273 0
M  V30 6974 C 652.894 3.87617 -2.43961 0
M  V30 6975 N 654.385 3.9495 -2.42009 0
M  V30 6976 C 655.12 4.82824 -3.09303 0
M  V30 6977 N 654.616 5.75387 -3.85877 0
M  V30 6978 N 656.409 4.76317 -2.98459 0
M  V30 6979 H 648.56 1.05546 -1.8432 0
M  V30 6980 H 650.823 0.524314 -0.78981 0
M  V30 6981 H 650.529 2.41029 -2.56121 0
M  V30 6982 H 650.403 3.56139 -1.24278 0
M  V30 6983 H 652.79 2.90908 -0.495614 0
M  V30 6984 H 652.871 1.76975 -1.84698 0
M  V30 6985 H 652.515 3.70672 -3.47224 0
M  V30 6986 H 652.445 4.83218 -2.09303 0
M  V30 6987 H 654.936 3.28744 -1.86375 0
M  V30 6988 H 655.249 6.39235 -4.34279 0
M  V30 6989 H 653.594 5.75272 -3.89984 0
M  V30 6990 H 656.785 4.0299 -2.38152 0
M  V30 6991 H 656.958 5.44589 -3.51179 0
M  V30 6992 N 650.364 0.662433 1.43002 0
M  V30 6993 C 651.78 0.330835 1.56133 0
M  V30 6994 C 651.98 -1.16454 1.64441 0
M  V30 6995 O 651.036 -1.94964 1.60453 0
M  V30 6996 C 652.349 1.05029 2.81761 0
M  V30 6997 C 653.897 1.03142 2.95518 0
M  V30 6998 C 654.372 1.73196 4.2399 0
M  V30 6999 N 655.863 1.70004 4.30875 0
M  V30 7000 C 656.598 2.21074 5.29069 0
M  V30 7001 N 656.094 2.80473 6.33488 0
M  V30 7002 N 657.887 2.1152 5.20784 0
M  V30 7003 H 650.038 1.63272 1.35853 0
M  V30 7004 H 652.301 0.687149 0.653092 0
M  V30 7005 H 652.007 2.10542 2.81718 0
M  V30 7006 H 651.881 0.607664 3.72273 0
M  V30 7007 H 654.268 -0.0153339 2.95096 0
M  V30 7008 H 654.349 1.51282 2.0627 0
M  V30 7009 H 653.993 2.77833 4.25172 0
M  V30 7010 H 653.923 1.22515 5.1215 0
M  V30 7011 H 656.414 1.26667 3.56039 0
M  V30 7012 H 656.727 3.17094 7.04749 0
M  V30 7013 H 655.072 2.84538 6.34085 0
M  V30 7014 H 658.263 1.64814 4.38126 0
M  V30 7015 H 658.436 2.51629 5.97149 0
M  V30 7016 N 651.842 -1.52309 0.404946 0
M  V30 7017 C 652.805 -2.25491 -0.410651 0
M  V30 7018 C 653.805 -1.27704 -0.977154 0
M  V30 7019 O 654.995 -1.51679 -0.856691 0
M  V30 7020 C 652.127 -3.02197 -1.57765 0
M  V30 7021 H 653.32 -2.99015 0.230277 0
M  V30 7022 H 650.873 -1.55506 0.157377 0
M  V30 7023 H 651.608 -2.33013 -2.25556 0
M  V30 7024 H 651.393 -3.73987 -1.17797 0
M  V30 7025 H 652.883 -3.57719 -2.15469 0
M  V30 7026 N 653.32 -0.135238 -1.57019 0
M  V30 7027 C 654.56 0.521686 -1.9763 0
M  V30 7028 C 654.924 1.62804 -1.01778 0
M  V30 7029 O 656.125 2.345 -1.31389 0
M  V30 7030 C 654.396 1.0257 -3.42365 0
M  V30 7031 S 655.955 1.68888 -4.04997 0
M  V30 7032 H 652.773 0.169064 -0.690607 0
M  V30 7033 H 655.375 -0.224168 -1.94211 0
M  V30 7034 H 654.079 0.209556 -4.09865 0
M  V30 7035 H 653.61 1.80645 -3.49472 0
M  V30 7036 H 655.625 2.97554 -3.97084 0
M  V30 7037 N 654.798 1.5699 0.138552 0
M  V30 7038 C 655.728 2.01933 1.17241 0
M  V30 7039 C 656.709 0.90033 1.44319 0
M  V30 7040 O 657.894 1.16872 1.55095 0
M  V30 7041 C 655.024 2.40711 2.50351 0
M  V30 7042 C 653.978 3.55874 2.37776 0
M  V30 7043 C 653.304 3.80491 3.75674 0
M  V30 7044 C 654.604 4.8826 1.85472 0
M  V30 7045 H 656.298 2.88551 0.798672 0
M  V30 7046 H 653.844 1.3882 0.382743 0
M  V30 7047 H 655.797 2.70754 3.22909 0
M  V30 7048 H 654.521 1.5104 2.89576 0
M  V30 7049 H 653.18 3.2601 1.67669 0
M  V30 7050 H 652.828 2.88057 4.12349 0
M  V30 7051 H 652.528 4.57998 3.68119 0
M  V30 7052 H 654.052 4.12967 4.49767 0
M  V30 7053 H 655.466 5.16965 2.4783 0
M  V30 7054 H 653.863 5.69631 1.88787 0
M  V30 7055 H 654.933 4.78071 0.810935 0
M  V30 7056 N 656.276 -0.40816 1.52223 0
M  V30 7057 C 657.524 -1.15274 1.66001 0
M  V30 7058 C 657.845 -1.91003 0.392803 0
M  V30 7059 O 657.115 -1.8673 -0.592336 0
M  V30 7060 H 655.695 -0.428526 0.611861 0
M  V30 7061 H 658.357 -0.46512 1.89269 0
M  V30 7062 H 657.453 -1.86628 2.50153 0
M  V30 7063 N 657.755 -1.42862 -0.66545 0
M  V30 7064 C 658.665 -1.49491 -1.80803 0
M  V30 7065 C 659.681 -0.382914 -1.69734 0
M  V30 7066 O 660.857 -0.635223 -1.9112 0
M  V30 7067 C 657.922 -1.40383 -3.17007 0
M  V30 7068 C 656.983 -2.62152 -3.39963 0
M  V30 7069 C 656.216 -2.53469 -4.69669 0
M  V30 7070 O 656.439 -1.57568 -5.48205 0
M  V30 7071 O 655.373 -3.43763 -4.94075 0
M  V30 7072 H 659.199 -2.45949 -1.78165 0
M  V30 7073 H 656.784 -1.24728 -0.822387 0
M  V30 7074 H 658.666 -1.377 -3.98267 0
M  V30 7075 H 657.341 -0.470546 -3.20262 0
M  V30 7076 H 656.248 -2.70409 -2.58515 0
M  V30 7077 H 657.581 -3.54411 -3.41546 0
M  V30 7078 N 659.233 0.902656 -1.29189 0
M  V30 7079 C 660.644 1.46809 -1.15343 0
M  V30 7080 C 660.995 1.94568 0.252517 0
M  V30 7081 O 660.12 1.83454 1.14777 0
M  V30 7082 C 660.715 2.66829 -2.08776 0
M  V30 7083 C 659.274 3.19518 -1.98961 0
M  V30 7084 C 658.421 1.92212 -1.99874 0
M  V30 7085 H 661.372 0.714282 -1.41717 0
M  V30 7086 H 661.393 3.42465 -1.65826 0
M  V30 7087 H 660.905 2.32039 -3.11094 0
M  V30 7088 H 659.006 3.59008 -0.99721 0
M  V30 7089 H 659.119 3.84016 -2.86477 0
M  V30 7090 H 657.483 2.0979 -1.44431 0
M  V30 7091 H 658.266 1.59702 -3.03891 0
M  V30 7092 N 660.711 1.11618 1.11262 0
M  V30 7093 C 661.641 0.79846 2.19424 0
M  V30 7094 C 662.622 -0.234003 1.68483 0
M  V30 7095 O 663.807 -0.0970704 1.93957 0
M  V30 7096 C 660.937 0.242892 3.4645 0
M  V30 7097 C 659.891 1.20744 4.10615 0
M  V30 7098 C 659.217 0.512494 5.32238 0
M  V30 7099 C 660.517 2.55884 4.55325 0
M  V30 7100 H 662.211 1.70286 2.46258 0
M  V30 7101 H 659.757 0.820195 1.18359 0
M  V30 7102 H 661.71 0.00840447 4.21399 0
M  V30 7103 H 660.434 -0.696811 3.1908 0
M  V30 7104 H 659.093 1.42759 3.37662 0
M  V30 7105 H 658.741 -0.432075 5.01141 0
M  V30 7106 H 658.441 1.15583 5.7612 0
M  V30 7107 H 659.965 0.286842 6.09926 0
M  V30 7108 H 661.379 2.37946 5.21588 0
M  V30 7109 H 659.776 3.16216 5.10027 0
M  V30 7110 H 660.846 3.14968 3.68678 0
M  V30 7111 N 662.189 -1.289 0.906776 0
M  V30 7112 C 663.152 -2.25777 0.394656 0
M  V30 7113 C 664.152 -1.53621 -0.475119 0
M  V30 7114 O 665.342 -1.71949 -0.279165 0
M  V30 7115 C 662.474 -3.38113 -0.43499 0
M  V30 7116 H 663.667 -2.72592 1.25033 0
M  V30 7117 H 661.22 -1.40463 0.685547 0
M  V30 7118 H 661.955 -2.96648 -1.31036 0
M  V30 7119 H 661.74 -3.91647 0.188334 0
M  V30 7120 H 663.23 -4.10168 -0.784365 0
M  V30 7121 N 663.667 -0.670007 -1.42649 0
M  V30 7122 C 665.083 -0.33911 -1.55956 0
M  V30 7123 C 665.283 1.1558 -1.65056 0
M  V30 7124 O 664.339 1.94111 -1.61485 0
M  V30 7125 C 665.652 -1.06522 -2.812 0
M  V30 7126 C 667.2 -1.04708 -2.94966 0
M  V30 7127 C 667.675 -1.75442 -4.23065 0
M  V30 7128 N 669.166 -1.72286 -4.29967 0
M  V30 7129 C 669.901 -2.23877 -5.27889 0
M  V30 7130 N 669.397 -2.83829 -6.31991 0
M  V30 7131 N 671.19 -2.14279 -5.19654 0
M  V30 7132 H 663.341 -1.6399 -1.34986 0
M  V30 7133 H 665.604 -0.690603 -0.649439 0
M  V30 7134 H 665.31 -2.12033 -2.80597 0
M  V30 7135 H 665.184 -0.627398 -3.71946 0
M  V30 7136 H 667.571 -0.000315966 -2.951 0
M  V30 7137 H 667.652 -1.52374 -2.05465 0
M  V30 7138 H 667.296 -2.80084 -4.23693 0
M  V30 7139 H 667.226 -1.25229 -5.11493 0
M  V30 7140 H 669.717 -1.28554 -3.55362 0
M  V30 7141 H 670.03 -3.20827 -7.03057 0
M  V30 7142 H 668.375 -2.87896 -6.32567 0
M  V30 7143 H 671.566 -1.67135 -4.37245 0
M  V30 7144 H 671.739 -2.54792 -5.95806 0
M  V30 7145 N 665.145 1.52092 -0.413018 0
M  V30 7146 C 666.078 2.23613 0.455234 0
M  V30 7147 C 667.056 1.2459 1.04481 0
M  V30 7148 O 668.24 1.53653 1.09193 0
M  V30 7149 C 665.367 2.96775 1.63224 0
M  V30 7150 C 664.413 4.10261 1.16568 0
M  V30 7151 S 665.246 5.35348 0.127633 0
M  V30 7152 C 666.402 6.1204 1.30987 0
M  V30 7153 H 666.635 2.96911 -0.152042 0
M  V30 7154 H 664.168 1.53134 -0.197343 0
M  V30 7155 H 666.126 3.39532 2.30713 0
M  V30 7156 H 664.787 2.23113 2.21087 0
M  V30 7157 H 663.98 4.6064 2.04515 0
M  V30 7158 H 663.582 3.6964 0.569386 0
M  V30 7159 H 665.874 6.39651 2.23276 0
M  V30 7160 H 666.817 7.03022 0.846533 0
M  V30 7161 H 667.225 5.43161 1.53743 0
M  V30 7162 N 666.623 0.143563 1.56945 0
M  V30 7163 C 667.533 -0.810562 2.20152 0
M  V30 7164 C 668.549 -1.27431 1.1848 0
M  V30 7165 O 669.725 -1.33221 1.51044 0
M  V30 7166 C 666.79 -2.03353 2.80799 0
M  V30 7167 C 665.851 -1.61936 3.97587 0
M  V30 7168 C 665.084 -2.78403 4.55332 0
M  V30 7169 O 665.307 -3.94521 4.11958 0
M  V30 7170 O 664.241 -2.54073 5.45647 0
M  V30 7171 H 668.067 -0.30253 3.02189 0
M  V30 7172 H 665.652 -0.0832925 1.49168 0
M  V30 7173 H 667.534 -2.74932 3.19359 0
M  V30 7174 H 666.209 -2.53116 2.01777 0
M  V30 7175 H 665.116 -0.873904 3.6375 0
M  V30 7176 H 666.449 -1.16892 4.78118 0
M  V30 7177 N 668.101 -1.57061 -0.130224 0
M  V30 7178 C 669.031 -2.02552 -1.16168 0
M  V30 7179 C 670.012 -0.907971 -1.4384 0
M  V30 7180 O 671.197 -1.17693 -1.54473 0
M  V30 7181 C 668.327 -2.42035 -2.49071 0
M  V30 7182 C 667.281 -3.5713 -2.35886 0
M  V30 7183 C 666.607 -3.82478 -3.7365 0
M  V30 7184 C 667.907 -4.89236 -1.8288 0
M  V30 7185 H 669.601 -2.8897 -0.783359 0
M  V30 7186 H 667.147 -1.39021 -0.375376 0
M  V30 7187 H 669.1 -2.72462 -3.21469 0
M  V30 7188 H 667.824 -1.52573 -2.88771 0
M  V30 7189 H 666.483 -3.26895 -1.65938 0
M  V30 7190 H 666.131 -2.9024 -4.10816 0
M  V30 7191 H 665.831 -4.59944 -3.65685 0
M  V30 7192 H 667.355 -4.15347 -4.47571 0
M  V30 7193 H 668.769 -5.18272 -2.45085 0
M  V30 7194 H 667.166 -5.70624 -1.85763 0
M  V30 7195 H 668.236 -4.78494 -0.785571 0
M  V30 7196 N 669.579 0.400081 -1.52437 0
M  V30 7197 C 670.826 1.14619 -1.6694 0
M  V30 7198 C 671.154 1.90262 -0.403797 0
M  V30 7199 O 670.409 1.85835 0.61351 0
M  V30 7200 C 670.708 2.15914 -2.84808 0
M  V30 7201 C 670.374 1.57011 -4.2268 0
M  V30 7202 C 669.036 1.40672 -4.60179 0
M  V30 7203 C 671.388 1.14081 -5.08562 0
M  V30 7204 C 668.716 0.799335 -5.81229 0
M  V30 7205 C 671.068 0.547573 -6.30226 0
M  V30 7206 C 669.732 0.371389 -6.66466 0
M  V30 7207 H 669.002 0.419419 -0.610875 0
M  V30 7208 H 671.649 0.432227 -1.86558 0
M  V30 7209 H 669.954 2.93488 -2.59561 0
M  V30 7210 H 671.651 2.73533 -2.93225 0
M  V30 7211 H 668.241 1.70713 -3.93135 0
M  V30 7212 H 672.425 1.2551 -4.80168 0
M  V30 7213 H 667.681 0.65093 -6.07925 0
M  V30 7214 H 671.855 0.206575 -6.96094 0
M  V30 7215 H 669.482 -0.10135 -7.60132 0
M  V30 7216 N 671.057 1.43213 0.657864 0
M  V30 7217 C 671.987 1.50815 1.78262 0
M  V30 7218 C 672.968 0.363211 1.66177 0
M  V30 7219 O 674.153 0.579806 1.85343 0
M  V30 7220 C 671.283 1.42625 3.16663 0
M  V30 7221 C 670.237 2.5532 3.43505 0
M  V30 7222 C 669.563 2.32184 4.81658 0
M  V30 7223 C 670.863 3.97583 3.38711 0
M  V30 7224 H 672.557 2.44954 1.72157 0
M  V30 7225 H 670.103 1.17896 0.82683 0
M  V30 7226 H 672.056 1.46548 3.95097 0
M  V30 7227 H 670.78 0.449877 3.23487 0
M  V30 7228 H 669.439 2.50742 2.6744 0
M  V30 7229 H 669.087 1.32801 4.85153 0
M  V30 7230 H 668.787 3.07724 5.00579 0
M  V30 7231 H 670.311 2.37883 5.62356 0
M  V30 7232 H 671.725 4.03673 4.07089 0
M  V30 7233 H 670.122 4.73112 3.69168 0
M  V30 7234 H 671.192 4.23049 2.36976 0
M  V30 7235 N 672.536 -0.895792 1.29666 0
M  V30 7236 C 673.783 -1.64664 1.17864 0
M  V30 7237 C 674.111 -1.92631 -0.26902 0
M  V30 7238 O 673.366 -1.53787 -1.21029 0
M  V30 7239 C 673.665 -3.00075 1.94139 0
M  V30 7240 C 673.331 -2.91702 3.43833 0
M  V30 7241 C 671.993 -2.89126 3.84656 0
M  V30 7242 C 674.345 -2.80622 4.39205 0
M  V30 7243 C 671.673 -2.73293 5.1916 0
M  V30 7244 C 674.025 -2.66329 5.73805 0
M  V30 7245 C 672.689 -2.62121 6.1388 0
M  V30 7246 H 671.959 -0.602549 0.431295 0
M  V30 7247 H 674.606 -1.04234 1.60648 0
M  V30 7248 H 672.911 -3.64394 1.43958 0
M  V30 7249 H 674.608 -3.57111 1.82408 0
M  V30 7250 H 671.198 -2.94511 3.11386 0
M  V30 7251 H 675.382 -2.81686 4.08615 0
M  V30 7252 H 670.638 -2.68443 5.49316 0
M  V30 7253 H 674.812 -2.56727 6.47352 0
M  V30 7254 H 672.439 -2.49611 7.18052 0
M  V30 7255 N 674.014 -1.12206 -1.10668 0
M  V30 7256 C 675.261 -0.875875 -1.82578 0
M  V30 7257 C 675.589 0.598342 -1.85068 0
M  V30 7258 O 674.844 1.45818 -1.3052 0
M  V30 7259 C 675.143 -1.39276 -3.29146 0
M  V30 7260 C 674.809 -2.8816 -3.46806 0
M  V30 7261 C 673.471 -3.28813 -3.51334 0
M  V30 7262 C 675.823 -3.8401 -3.52399 0
M  V30 7263 C 673.151 -4.64028 -3.59019 0
M  V30 7264 C 675.503 -5.19053 -3.61617 0
M  V30 7265 C 674.167 -5.59252 -3.64408 0
M  V30 7266 H 673.437 -0.320505 -0.6681 0
M  V30 7267 H 676.084 -1.40184 -1.30464 0
M  V30 7268 H 674.389 -0.787207 -3.8381 0
M  V30 7269 H 676.086 -1.17851 -3.83291 0
M  V30 7270 H 672.676 -2.55716 -3.43958 0
M  V30 7271 H 676.86 -3.53698 -3.48154 0
M  V30 7272 H 672.116 -4.94568 -3.59461 0
M  V30 7273 H 676.29 -5.93152 -3.64889 0
M  V30 7274 H 673.917 -6.64017 -3.70116 0
M  V30 7275 N 675.492 1.28418 -0.913599 0
M  V30 7276 C 676.72 1.99106 -0.562536 0
M  V30 7277 C 677.135 1.68273 0.856137 0
M  V30 7278 O 676.492 0.935401 1.56705 0
M  V30 7279 C 676.543 3.5338 -0.761903 0
M  V30 7280 O 676.264 3.83127 -2.12475 0
M  V30 7281 C 677.765 4.41328 -0.417651 0
M  V30 7282 H 674.985 0.635798 -0.214481 0
M  V30 7283 H 677.529 1.63618 -1.22676 0
M  V30 7284 H 675.684 3.8713 -0.144676 0
M  V30 7285 H 676.098 4.77763 -2.16431 0
M  V30 7286 H 677.572 5.48642 -0.607919 0
M  V30 7287 H 678.049 4.34422 0.646108 0
M  V30 7288 H 678.655 4.13074 -1.01241 0
M  V30 7289 N 676.97 0.677563 1.42291 0
M  V30 7290 C 678.195 0.207901 2.06355 0
M  V30 7291 C 678.62 -1.12723 1.50583 0
M  V30 7292 O 677.978 -1.70171 0.62543 0
M  V30 7293 C 678.026 0.156489 3.6026 0
M  V30 7294 O 677.13 -0.874162 4.03029 0
M  V30 7295 H 676.471 0.106056 0.655475 0
M  V30 7296 H 679.001 0.927354 1.82377 0
M  V30 7297 H 679.011 -0.0187258 4.07996 0
M  V30 7298 H 677.686 1.13101 4.00226 0
M  V30 7299 H 676.263 -0.669764 3.66836 0
M  V30 7300 N 678.448 -1.51871 0.421078 0
M  V30 7301 C 679.378 -2.30231 -0.389363 0
M  V30 7302 C 680.359 -1.34946 -1.03555 0
M  V30 7303 O 681.544 -1.63859 -1.04229 0
M  V30 7304 C 678.674 -3.13247 -1.49979 0
M  V30 7305 C 677.628 -4.16677 -0.977966 0
M  V30 7306 C 676.954 -4.88112 -2.1829 0
M  V30 7307 C 678.254 -5.22295 -0.0236775 0
M  V30 7308 H 679.948 -2.98229 0.264524 0
M  V30 7309 H 677.494 -1.43424 0.12866 0
M  V30 7310 H 679.447 -3.66838 -2.07383 0
M  V30 7311 H 678.171 -2.4304 -2.18173 0
M  V30 7312 H 676.83 -3.64114 -0.426245 0
M  V30 7313 H 676.478 -4.14423 -2.85066 0
M  V30 7314 H 676.178 -5.58041 -1.84021 0
M  V30 7315 H 677.702 -5.44521 -2.76278 0
M  V30 7316 H 679.116 -5.71055 -0.506899 0
M  V30 7317 H 677.513 -5.99656 0.230782 0
M  V30 7318 H 678.583 -4.76131 0.917999 0
M  V30 7319 N 679.926 -0.151884 -1.56866 0
M  V30 7320 C 680.856 0.781943 -2.20018 0
M  V30 7321 C 681.837 1.25347 -1.14987 0
M  V30 7322 O 683.022 1.31015 -1.43348 0
M  V30 7323 C 680.152 2.01928 -2.82564 0
M  V30 7324 C 679.106 1.68434 -3.93464 0
M  V30 7325 C 678.432 2.99472 -4.42968 0
M  V30 7326 C 679.732 0.927244 -5.14003 0
M  V30 7327 H 681.426 0.255607 -2.98307 0
M  V30 7328 H 678.972 0.121502 -1.43486 0
M  V30 7329 H 680.925 2.67741 -3.25411 0
M  V30 7330 H 679.649 2.56943 -2.01614 0
M  V30 7331 H 678.308 1.04998 -3.51242 0
M  V30 7332 H 677.956 3.52488 -3.58834 0
M  V30 7333 H 677.656 2.77823 -5.17772 0
M  V30 7334 H 679.18 3.66348 -4.88489 0
M  V30 7335 H 680.594 1.48756 -5.53665 0
M  V30 7336 H 678.991 0.810513 -5.94601 0
M  V30 7337 H 680.061 -0.0801163 -4.84834 0
M  V30 7338 N 681.404 1.57128 0.121893 0
M  V30 7339 C 682.336 1.96773 1.17529 0
M  V30 7340 C 683.349 0.866668 1.37814 0
M  V30 7341 O 684.538 1.14497 1.3694 0
M  V30 7342 C 681.638 2.24832 2.53582 0
M  V30 7343 C 680.811 3.56138 2.53939 0
M  V30 7344 C 679.87 3.72443 3.71716 0
M  V30 7345 O 678.896 4.44584 3.55434 0
M  V30 7346 N 680.098 3.10993 4.90167 0
M  V30 7347 H 682.863 2.87743 0.838086 0
M  V30 7348 H 680.424 1.58881 0.311199 0
M  V30 7349 H 682.416 2.32958 3.30927 0
M  V30 7350 H 680.986 1.40002 2.79496 0
M  V30 7351 H 680.206 3.59226 1.62329 0
M  V30 7352 H 681.494 4.42448 2.51231 0
M  V30 7353 H 680.892 2.52345 5.06299 0
M  V30 7354 H 679.449 3.24644 5.65198 0
M  V30 7355 N 682.882 -0.391992 1.52647 0
M  V30 7356 C 683.832 -1.47815 1.73594 0
M  V30 7357 C 684.816 -1.49693 0.589979 0
M  V30 7358 O 686.008 -1.5538 0.847701 0
M  V30 7359 C 683.137 -2.85561 1.90551 0
M  V30 7360 C 682.223 -2.88264 3.1107 0
M  V30 7361 N 682.614 -2.60642 4.33474 0
M  V30 7362 C 680.912 -3.19432 3.11254 0
M  V30 7363 C 681.613 -2.70351 5.15058 0
M  V30 7364 N 680.589 -3.03956 4.50679 0
M  V30 7365 H 684.391 -1.2528 2.65861 0
M  V30 7366 H 681.905 -0.599907 1.50913 0
M  V30 7367 H 683.902 -3.63759 2.03678 0
M  V30 7368 H 682.562 -3.09081 0.994952 0
M  V30 7369 H 683.573 -2.34718 4.61658 0
M  V30 7370 H 680.25 -3.48436 2.29997 0
M  V30 7371 H 681.64 -2.52565 6.22624 0
M  V30 7372 N 684.36 -1.4356 -0.65026 0
M  V30 7373 C 685.607 -1.45333 -1.41012 0
M  V30 7374 C 685.935 -0.0787282 -1.94341 0
M  V30 7375 O 685.19 0.916715 -1.72901 0
M  V30 7376 C 685.489 -2.44528 -2.60654 0
M  V30 7377 C 685.155 -3.90331 -2.25727 0
M  V30 7378 C 683.817 -4.3004 -2.15914 0
M  V30 7379 C 686.169 -4.822 -1.97821 0
M  V30 7380 C 683.497 -5.59568 -1.76354 0
M  V30 7381 C 685.849 -6.12095 -1.59759 0
M  V30 7382 C 684.513 -6.50778 -1.48473 0
M  V30 7383 H 683.783 -0.531813 -0.516 0
M  V30 7384 H 686.43 -1.76657 -0.739219 0
M  V30 7385 H 684.735 -2.06619 -3.3289 0
M  V30 7386 H 686.432 -2.43155 -3.18868 0
M  V30 7387 H 683.022 -3.58905 -2.34276 0
M  V30 7388 H 687.206 -4.5229 -2.04322 0
M  V30 7389 H 682.462 -5.88376 -1.66205 0
M  V30 7390 H 686.636 -6.82751 -1.37198 0
M  V30 7391 H 684.263 -7.5105 -1.17591 0
M  V30 7392 N 685.838 0.888903 -1.30139 0
M  V30 7393 C 687.063 1.67884 -1.21777 0
M  V30 7394 C 687.488 1.86848 0.216689 0
M  V30 7395 O 686.846 1.39659 1.15608 0
M  V30 7396 C 686.894 3.03483 -1.94757 0
M  V30 7397 O 685.998 3.92294 -1.27198 0
M  V30 7398 H 685.339 0.513144 -0.421402 0
M  V30 7399 H 687.869 1.10968 -1.71893 0
M  V30 7400 H 687.879 3.53553 -2.03627 0
M  V30 7401 H 686.554 2.89 -2.99085 0
M  V30 7402 H 685.131 3.50732 -1.26655 0
M  V30 7403 N 687.317 1.12792 1.10072 0
M  V30 7404 C 688.564 0.885545 1.82111 0
M  V30 7405 C 688.892 -0.588519 1.85383 0
M  V30 7406 O 688.147 -1.45124 1.31292 0
M  V30 7407 C 688.446 1.4102 3.28403 0
M  V30 7408 C 688.112 2.89995 3.45273 0
M  V30 7409 C 686.774 3.30671 3.49585 0
M  V30 7410 C 689.126 3.85874 3.50358 0
M  V30 7411 C 686.454 4.65925 3.56553 0
M  V30 7412 C 688.806 5.20963 3.58859 0
M  V30 7413 C 687.47 5.61177 3.61437 0
M  V30 7414 H 686.74 0.324044 0.666391 0
M  V30 7415 H 689.387 1.40874 1.29718 0
M  V30 7416 H 687.692 0.807551 3.83387 0
M  V30 7417 H 689.389 1.19882 3.82661 0
M  V30 7418 H 685.979 2.57537 3.42597 0
M  V30 7419 H 690.163 3.5554 3.46273 0
M  V30 7420 H 685.419 4.96468 3.56833 0
M  V30 7421 H 689.593 5.95079 3.61738 0
M  V30 7422 H 687.22 6.6597 3.66589 0
M  V30 7423 N 688.795 -1.27931 0.920396 0
M  V30 7424 C 690.02 -1.99343 0.572478 0
M  V30 7425 C 690.445 -1.68267 -0.840696 0
M  V30 7426 O 689.803 -0.918805 -1.56294 0
M  V30 7427 C 689.851 -3.51698 0.796284 0
M  V30 7428 O 688.955 -4.12157 -0.141602 0
M  V30 7429 H 688.296 -0.626065 0.221221 0
M  V30 7430 H 690.826 -1.62921 1.23765 0
M  V30 7431 H 690.836 -4.01793 0.708984 0
M  V30 7432 H 689.511 -3.73649 1.82644 0
M  V30 7433 H 688.088 -3.729 -0.005007 0
M  V30 7434 N 690.273 -0.685099 -1.4193 0
M  V30 7435 C 691.519 -0.211971 -2.01689 0
M  V30 7436 C 691.852 1.18189 -1.54094 0
M  V30 7437 O 691.127 1.79559 -0.747572 0
M  V30 7438 C 691.41 -0.258019 -3.59174 0
M  V30 7439 C 691.263 -1.68807 -4.16922 0
M  V30 7440 C 692.582 0.388044 -4.38386 0
M  V30 7441 H 689.701 -0.0784987 -0.732808 0
M  V30 7442 H 692.343 -0.871837 -1.68816 0
M  V30 7443 H 690.493 0.303832 -3.8731 0
M  V30 7444 H 692.165 -2.30296 -3.99702 0
M  V30 7445 H 690.408 -2.22553 -3.72361 0
M  V30 7446 H 691.079 -1.6719 -5.26072 0
M  V30 7447 H 693.555 -0.0903432 -4.16002 0
M  V30 7448 H 692.431 0.325232 -5.47936 0
M  V30 7449 H 692.692 1.4672 -4.17044 0
M  V30 7450 N 691.751 1.51645 -0.429126 0
M  V30 7451 C 693.162 1.86665 0.0359003 0
M  V30 7452 C 693.513 1.34677 1.42676 0
M  V30 7453 O 692.638 0.694195 2.04963 0
M  V30 7454 C 693.233 3.38724 0.0719221 0
M  V30 7455 C 691.792 3.7331 0.481336 0
M  V30 7456 C 690.939 2.75313 -0.331329 0
M  V30 7457 H 693.89 1.44987 -0.645333 0
M  V30 7458 H 693.911 3.7011 0.883118 0
M  V30 7459 H 693.423 3.76532 -0.940495 0
M  V30 7460 H 691.524 3.41088 1.49966 0
M  V30 7461 H 691.637 4.78631 0.211837 0
M  V30 7462 H 690.001 2.53839 0.209204 0
M  V30 7463 H 690.784 3.15963 -1.34247 0
M  V30 7464 N 693.229 0.160201 1.56784 0
M  V30 7465 C 694.457 -0.494165 2.00912 0
M  V30 7466 C 694.872 -1.57548 1.04038 0
M  V30 7467 O 694.229 -1.82457 0.0394581 0
M  V30 7468 C 694.28 -1.08271 3.44905 0
M  V30 7469 O 694.001 -0.0445704 4.38077 0
M  V30 7470 C 695.502 -1.8164 4.04378 0
M  V30 7471 H 692.722 -0.127498 0.658776 0
M  V30 7472 H 695.266 0.258665 2.02858 0
M  V30 7473 H 693.421 -1.78609 3.4377 0
M  V30 7474 H 693.835 -0.477544 5.22322 0
M  V30 7475 H 695.309 -2.18094 5.07089 0
M  V30 7476 H 695.786 -2.70727 3.45838 0
M  V30 7477 H 696.392 -1.15969 4.09184 0
M  V30 7478 N 694.707 -1.5719 -0.113559 0
M  V30 7479 C 695.955 -1.84772 -0.818761 0
M  V30 7480 C 696.276 -0.746196 -1.80158 0
M  V30 7481 O 695.546 0.229305 -1.94553 0
M  V30 7482 H 694.126 -0.681737 -0.305359 0
M  V30 7483 H 696.788 -1.94645 -0.0995845 0
M  V30 7484 H 695.884 -2.80878 -1.36067 0
M  V30 7485 N 696.185 0.383891 -1.52853 0
M  V30 7486 C 697.117 1.48889 -1.74255 0
M  V30 7487 C 698.13 1.50405 -0.623063 0
M  V30 7488 O 699.319 1.54215 -0.898887 0
M  V30 7489 C 696.419 2.87721 -1.79081 0
M  V30 7490 C 695.592 3.10111 -3.08464 0
M  V30 7491 C 694.651 4.28954 -3.0477 0
M  V30 7492 O 693.677 4.25012 -3.78621 0
M  V30 7493 N 694.879 5.35411 -2.24311 0
M  V30 7494 H 697.644 1.30915 -2.69595 0
M  V30 7495 H 695.205 0.573454 -1.51404 0
M  V30 7496 H 697.197 3.65333 -1.7411 0
M  V30 7497 H 695.767 2.99029 -0.911052 0
M  V30 7498 H 694.987 2.20319 -3.26884 0
M  V30 7499 H 696.275 3.21928 -3.94005 0
M  V30 7500 H 695.673 5.41471 -1.63787 0
M  V30 7501 H 694.23 6.1167 -2.25175 0
M  V30 7502 N 697.663 1.43903 0.642637 0
M  V30 7503 C 699.074 1.40975 1.22404 0
M  V30 7504 C 699.425 0.1192 1.95838 0
M  V30 7505 O 698.55 -0.780939 2.01818 0
M  V30 7506 C 699.145 2.5538 2.22636 0
M  V30 7507 C 697.704 2.55684 2.76229 0
M  V30 7508 C 696.851 2.32556 1.51039 0
M  V30 7509 H 699.802 1.5265 0.434006 0
M  V30 7510 H 699.823 2.27474 3.05017 0
M  V30 7511 H 699.335 3.49294 1.69161 0
M  V30 7512 H 697.436 1.65679 3.33738 0
M  V30 7513 H 697.549 3.53799 3.23053 0
M  V30 7514 H 695.913 1.81427 1.78764 0
M  V30 7515 H 696.696 3.28569 0.99484 0
M  V30 7516 N 699.141 -0.881989 1.30609 0
M  V30 7517 C 700.557 -1.16576 1.09005 0
M  V30 7518 C 700.757 -2.00961 -0.14727 0
M  V30 7519 O 699.813 -2.38117 -0.840036 0
M  V30 7520 C 701.126 -1.86954 2.35518 0
M  V30 7521 C 702.674 -1.99706 2.41011 0
M  V30 7522 C 703.149 -2.73497 3.67374 0
M  V30 7523 N 704.64 -2.8104 3.68199 0
M  V30 7524 C 705.375 -3.38718 4.62664 0
M  V30 7525 N 704.871 -3.97421 5.67475 0
M  V30 7526 N 706.664 -3.36561 4.50203 0
M  V30 7527 H 698.815 -0.319398 2.09985 0
M  V30 7528 H 701.078 -0.204058 0.925778 0
M  V30 7529 H 700.784 -1.32393 3.2583 0
M  V30 7530 H 700.658 -2.87317 2.44395 0
M  V30 7531 H 703.045 -2.53436 1.51176 0
M  V30 7532 H 703.126 -0.984218 2.36108 0
M  V30 7533 H 702.77 -2.20438 4.57569 0
M  V30 7534 H 702.7 -3.75163 3.6954 0
M  V30 7535 H 705.191 -2.39365 2.92426 0
M  V30 7536 H 705.504 -4.39507 6.35652 0
M  V30 7537 H 703.849 -3.95832 5.71264 0
M  V30 7538 H 707.04 -2.8993 3.67503 0
M  V30 7539 H 707.213 -3.81215 5.24003 0
M  V30 7540 N 700.619 -1.13374 -1.09472 0
M  V30 7541 C 702.03 -0.90801 -1.63132 0
M  V30 7542 C 702.381 0.555576 -1.8817 0
M  V30 7543 O 701.506 1.42218 -1.63104 0
M  V30 7544 C 702.101 -1.64182 -2.96361 0
M  V30 7545 C 700.66 -1.46197 -3.46848 0
M  V30 7546 C 699.807 -1.67134 -2.21273 0
M  V30 7547 H 702.758 -1.2871 -0.928411 0
M  V30 7548 H 702.779 -1.09863 -3.64294 0
M  V30 7549 H 702.291 -2.707 -2.78106 0
M  V30 7550 H 700.392 -0.419788 -3.70228 0
M  V30 7551 H 700.505 -2.22472 -4.24315 0
M  V30 7552 H 698.869 -1.09616 -2.29905 0
M  V30 7553 H 699.652 -2.74971 -2.05538 0
M  V30 7554 N 702.098 1.27442 -0.927168 0
M  V30 7555 C 703.323 1.99036 -0.583042 0
M  V30 7556 C 703.748 1.68711 0.83176 0
M  V30 7557 O 703.106 0.927081 1.55804 0
M  V30 7558 C 703.154 3.51271 -0.814925 0
M  V30 7559 O 702.258 4.12226 0.119742 0
M  V30 7560 H 701.599 0.624883 -0.224538 0
M  V30 7561 H 704.129 1.62263 -1.24628 0
M  V30 7562 H 704.139 4.01411 -0.730282 0
M  V30 7563 H 702.814 3.72676 -1.84623 0
M  V30 7564 H 701.391 3.72897 -0.0147688 0
M  V30 7565 N 703.576 0.692616 1.41565 0
M  V30 7566 C 704.526 0.00231847 2.28 0
M  V30 7567 C 705.51 -0.755793 1.42044 0
M  V30 7568 O 706.702 -0.631772 1.65341 0
M  V30 7569 C 703.831 -0.935468 3.30309 0
M  V30 7570 C 702.917 -0.173761 4.23744 0
M  V30 7571 N 703.308 0.830872 4.98929 0
M  V30 7572 C 701.606 -0.409666 4.44115 0
M  V30 7573 C 702.307 1.28656 5.67294 0
M  V30 7574 N 701.283 0.613053 5.40132 0
M  V30 7575 H 705.085 0.772635 2.83562 0
M  V30 7576 H 702.599 0.523198 1.53741 0
M  V30 7577 H 704.596 -1.44513 3.91052 0
M  V30 7578 H 703.256 -1.70542 2.76307 0
M  V30 7579 H 704.267 1.21101 5.03542 0
M  V30 7580 H 700.944 -1.15773 4.01127 0
M  V30 7581 H 702.334 2.12006 6.37576 0
M  V30 7582 N 705.054 -1.51416 0.437162 0
M  V30 7583 C 706.004 -2.24599 -0.392311 0
M  V30 7584 C 706.988 -1.2682 -0.990221 0
M  V30 7585 O 708.18 -1.51912 -0.908391 0
M  V30 7586 C 705.309 -3.09134 -1.49301 0
M  V30 7587 C 704.395 -4.14342 -0.904503 0
M  V30 7588 N 704.786 -5.0578 -0.0451511 0
M  V30 7589 C 703.084 -4.30323 -1.1721 0
M  V30 7590 C 703.785 -5.81 0.285344 0
M  V30 7591 N 702.761 -5.42591 -0.330993 0
M  V30 7592 H 706.563 -2.92655 0.270221 0
M  V30 7593 H 704.077 -1.60476 0.249226 0
M  V30 7594 H 706.074 -3.6014 -2.10011 0
M  V30 7595 H 704.734 -2.42622 -2.15788 0
M  V30 7596 H 705.745 -5.16903 0.321271 0
M  V30 7597 H 702.422 -3.75037 -1.83448 0
M  V30 7598 H 703.812 -6.64646 0.984626 0
M  V30 7599 N 706.532 -0.168513 -1.56696 0
M  V30 7600 C 707.78 0.476216 -1.96409 0
M  V30 7601 C 708.101 1.63968 -1.05544 0
M  V30 7602 O 707.371 1.95525 -0.121235 0
M  V30 7603 H 705.951 0.178921 -0.725256 0
M  V30 7604 H 708.613 -0.249042 -1.93302 0
M  V30 7605 H 707.709 0.838094 -3.00637 0
M  V30 7606 N 708.01 1.57248 0.105221 0
M  V30 7607 C 709.256 1.85845 0.811753 0
M  V30 7608 C 709.589 0.756219 1.78871 0
M  V30 7609 O 708.864 -0.236736 1.93054 0
M  V30 7610 C 709.147 3.25059 1.54947 0
M  V30 7611 C 709 4.45898 0.591185 0
M  V30 7612 C 710.319 3.6203 2.50245 0
M  V30 7613 H 707.438 0.675973 0.293649 0
M  V30 7614 H 710.08 1.89849 0.0756269 0
M  V30 7615 H 708.23 3.21776 2.17698 0
M  V30 7616 H 709.902 4.61291 -0.0285352 0
M  V30 7617 H 708.145 4.33693 -0.0962343 0
M  V30 7618 H 708.816 5.40009 1.1443 0
M  V30 7619 H 711.292 3.66192 1.97593 0
M  V30 7620 H 710.168 4.60389 2.98886 0
M  V30 7621 H 710.429 2.90176 3.33542 0
M  V30 7622 N 709.488 -0.375779 1.53054 0
M  V30 7623 C 710.735 -1.11948 1.68742 0
M  V30 7624 C 711.063 -1.89596 0.434015 0
M  V30 7625 O 710.318 -1.86787 -0.583867 0
M  V30 7626 C 710.617 -2.11356 2.88207 0
M  V30 7627 C 710.283 -1.50266 4.25124 0
M  V30 7628 C 708.945 -1.33333 4.62359 0
M  V30 7629 C 711.297 -1.05976 5.10312 0
M  V30 7630 C 708.625 -0.706765 5.82427 0
M  V30 7631 C 710.977 -0.447241 6.31017 0
M  V30 7632 C 709.641 -0.265314 6.66973 0
M  V30 7633 H 708.911 -0.409648 0.61747 0
M  V30 7634 H 711.558 -0.402492 1.87222 0
M  V30 7635 H 709.863 -2.89322 2.64197 0
M  V30 7636 H 711.56 -2.68833 2.97539 0
M  V30 7637 H 708.15 -1.64437 3.95801 0
M  V30 7638 H 712.334 -1.17855 4.82104 0
M  V30 7639 H 707.59 -0.554132 6.08884 0
M  V30 7640 H 711.764 -0.0958064 6.96334 0
M  V30 7641 H 709.391 0.222267 7.59875 0
M  V30 7642 N 710.966 -1.44241 -0.634997 0
M  V30 7643 C 711.929 -1.50457 -1.72903 0
M  V30 7644 C 712.929 -0.387058 -1.56072 0
M  V30 7645 O 714.119 -0.649531 -1.61638 0
M  V30 7646 C 711.251 -1.37477 -3.1195 0
M  V30 7647 H 712.444 -2.47907 -1.68767 0
M  V30 7648 H 709.997 -1.31276 -0.84831 0
M  V30 7649 H 710.732 -0.41106 -3.21684 0
M  V30 7650 H 710.517 -2.18506 -3.25573 0
M  V30 7651 H 712.007 -1.44799 -3.91692 0
M  V30 7652 N 712.444 0.87505 -1.31075 0
M  V30 7653 C 713.691 1.62768 -1.20469 0
M  V30 7654 C 714.019 1.93034 0.23834 0
M  V30 7655 O 713.274 1.55693 1.18567 0
M  V30 7656 C 713.573 2.96948 -1.98888 0
M  V30 7657 C 713.239 2.86195 -3.4843 0
M  V30 7658 C 711.901 2.82969 -3.89207 0
M  V30 7659 C 714.253 2.73599 -4.43614 0
M  V30 7660 C 711.581 2.64999 -5.23443 0
M  V30 7661 C 713.933 2.57166 -5.77969 0
M  V30 7662 C 712.597 2.52321 -6.17973 0
M  V30 7663 H 711.867 0.595611 -0.440827 0
M  V30 7664 H 714.514 1.01665 -1.62285 0
M  V30 7665 H 712.819 3.62058 -1.49737 0
M  V30 7666 H 714.516 3.54164 -1.88067 0
M  V30 7667 H 711.106 2.8952 -3.16032 0
M  V30 7668 H 715.29 2.7515 -4.13045 0
M  V30 7669 H 710.546 2.5967 -5.53517 0
M  V30 7670 H 714.72 2.46396 -6.51354 0
M  V30 7671 H 712.347 2.38156 -7.21932 0
M  V30 7672 N 713.922 1.13953 1.08869 0
M  V30 7673 C 714.852 0.844824 2.17681 0
M  V30 7674 C 715.833 -0.198213 1.68941 0
M  V30 7675 O 717.018 -0.0559073 1.9412 0
M  V30 7676 C 714.148 0.316325 3.45856 0
M  V30 7677 C 713.102 1.29426 4.07962 0
M  V30 7678 C 712.428 0.625275 5.31031 0
M  V30 7679 C 713.728 2.65484 4.49795 0
M  V30 7680 H 715.422 1.75471 2.42591 0
M  V30 7681 H 712.968 0.845116 1.16592 0
M  V30 7682 H 714.921 0.0977876 4.21287 0
M  V30 7683 H 713.645 -0.628972 3.20486 0
M  V30 7684 H 712.304 1.49889 3.34558 0
M  V30 7685 H 711.952 -0.325678 5.01945 0
M  V30 7686 H 711.652 1.27777 5.73539 0
M  V30 7687 H 713.176 0.416152 6.0918 0
M  V30 7688 H 714.59 2.48957 5.16424 0
M  V30 7689 H 712.987 3.26963 5.03205 0
M  V30 7690 H 714.057 3.22717 3.61914 0
M  V30 7691 N 715.4 -1.26948 0.933913 0
M  V30 7692 C 716.646 -1.94374 0.57848 0
M  V30 7693 C 716.979 -1.73166 -0.879048 0
M  V30 7694 O 716.254 -1.06438 -1.62792 0
M  V30 7695 C 716.537 -3.4834 0.912739 0
M  V30 7696 C 716.39 -3.78866 2.42448 0
M  V30 7697 C 717.709 -4.38062 0.423003 0
M  V30 7698 H 714.828 -0.705959 0.211639 0
M  V30 7699 H 717.47 -1.49951 1.16682 0
M  V30 7700 H 715.62 -3.86309 0.412058 0
M  V30 7701 H 717.292 -3.50654 2.99733 0
M  V30 7702 H 715.535 -3.25198 2.87104 0
M  V30 7703 H 716.206 -4.86458 2.60887 0
M  V30 7704 H 718.682 -4.0728 0.852191 0
M  V30 7705 H 717.558 -5.44599 0.685776 0
M  V30 7706 H 717.819 -4.36886 -0.676994 0
M  V30 7707 N 716.879 -0.700114 -1.41195 0
M  V30 7708 C 718.104 -0.240704 -2.05998 0
M  V30 7709 C 718.529 1.10313 -1.52357 0
M  V30 7710 O 717.887 1.69154 -0.652424 0
M  V30 7711 C 717.935 -0.213783 -3.59966 0
M  V30 7712 O 717.039 0.809933 -4.04368 0
M  V30 7713 H 716.38 -0.116471 -0.653705 0
M  V30 7714 H 718.91 -0.956251 -1.80878 0
M  V30 7715 H 718.92 -0.0461852 -4.07974 0
M  V30 7716 H 717.595 -1.19454 -3.98376 0
M  V30 7717 H 716.172 0.611319 -3.67855 0
M  V30 7718 N 718.357 1.51182 -0.445186 0
M  V30 7719 C 719.768 1.86693 0.0160999 0
M  V30 7720 C 720.119 1.36183 1.4124 0
M  V30 7721 O 719.244 0.715895 2.04215 0
M  V30 7722 C 719.839 3.38781 0.0359918 0
M  V30 7723 C 718.398 3.73799 0.441715 0
M  V30 7724 C 717.545 2.74947 -0.360511 0
M  V30 7725 H 720.496 1.44294 -0.660674 0
M  V30 7726 H 720.517 3.71026 0.843813 0
M  V30 7727 H 720.029 3.75513 -0.980378 0
M  V30 7728 H 718.13 3.42659 1.4634 0
M  V30 7729 H 718.243 4.78829 0.16106 0
M  V30 7730 H 716.607 2.54047 0.182269 0
M  V30 7731 H 717.39 3.14521 -1.3759 0
M  V30 7732 N 719.835 0.176821 1.56605 0
M  V30 7733 C 721.06 -0.47599 2.01864 0
M  V30 7734 C 721.485 -1.55645 1.05623 0
M  V30 7735 O 720.843 -1.81263 0.0366729 0
M  V30 7736 C 720.891 -1.02619 3.4569 0
M  V30 7737 O 719.995 -2.13996 3.52533 0
M  V30 7738 H 719.336 -0.113363 0.654251 0
M  V30 7739 H 721.866 0.28233 2.02643 0
M  V30 7740 H 721.876 -1.34742 3.85109 0
M  V30 7741 H 720.551 -0.235138 4.15235 0
M  V30 7742 H 719.128 -1.82876 3.24978 0
M  V30 7743 N 721.313 -1.57302 -0.09688 0
M  V30 7744 C 722.724 -1.7496 -0.651595 0
M  V30 7745 C 723.075 -0.798746 -1.79205 0
M  V30 7746 O 722.2 0.0231858 -2.16388 0
M  V30 7747 C 722.795 -3.17259 -1.18878 0
M  V30 7748 C 721.354 -3.36348 -1.68958 0
M  V30 7749 C 720.501 -2.70766 -0.598413 0
M  V30 7750 H 723.452 -1.58173 0.12918 0
M  V30 7751 H 723.473 -3.20033 -2.05814 0
M  V30 7752 H 722.985 -3.8644 -0.358523 0
M  V30 7753 H 721.086 -2.72243 -2.5439 0
M  V30 7754 H 721.199 -4.44654 -1.7838 0
M  V30 7755 H 719.563 -2.32615 -1.03743 0
M  V30 7756 H 720.346 -3.42586 0.221238 0
M  V30 7757 N 722.791 0.367657 -1.53252 0
M  V30 7758 C 724.021 1.12955 -1.72988 0
M  V30 7759 C 724.429 1.8358 -0.457708 0
M  V30 7760 O 723.772 1.74336 0.579006 0
M  V30 7761 C 723.834 2.20545 -2.83902 0
M  V30 7762 C 723.498 1.69704 -4.24323 0
M  V30 7763 C 724.495 1.16223 -5.06743 0
M  V30 7764 C 722.18 1.7528 -4.70725 0
M  V30 7765 C 724.174 0.689935 -6.33655 0
M  V30 7766 C 721.861 1.27662 -5.97617 0
M  V30 7767 C 722.859 0.746083 -6.78913 0
M  V30 7768 O 722.547 0.276925 -8.03423 0
M  V30 7769 H 722.279 0.343753 -0.582074 0
M  V30 7770 H 724.833 0.433106 -2.00782 0
M  V30 7771 H 723.063 2.93676 -2.51577 0
M  V30 7772 H 724.752 2.82111 -2.91836 0
M  V30 7773 H 725.518 1.11256 -4.72067 0
M  V30 7774 H 721.397 2.15515 -4.07522 0
M  V30 7775 H 724.941 0.275164 -6.97057 0
M  V30 7776 H 720.838 1.32322 -6.31792 0
M  V30 7777 H 721.606 0.396445 -8.17539 0
M  V30 7778 N 724.269 1.44576 0.627338 0
M  V30 7779 C 725.179 1.54232 1.76776 0
M  V30 7780 C 726.195 0.427782 1.6866 0
M  V30 7781 O 727.371 0.685671 1.89369 0
M  V30 7782 C 724.436 1.48738 3.13174 0
M  V30 7783 C 723.497 2.71074 3.32893 0
M  V30 7784 C 722.73 2.65832 4.62784 0
M  V30 7785 O 722.953 1.72048 5.43834 0
M  V30 7786 O 721.887 3.56742 4.84787 0
M  V30 7787 H 725.713 2.50586 1.71582 0
M  V30 7788 H 723.298 1.26865 0.789028 0
M  V30 7789 H 725.18 1.48211 3.94476 0
M  V30 7790 H 723.855 0.555292 3.18902 0
M  V30 7791 H 722.762 2.77168 2.51254 0
M  V30 7792 H 724.095 3.63342 3.32029 0
M  V30 7793 N 725.747 -0.868086 1.31537 0
M  V30 7794 C 726.677 -1.99131 1.21939 0
M  V30 7795 C 727.658 -1.69768 0.106166 0
M  V30 7796 O 728.843 -1.92006 0.291081 0
M  V30 7797 C 725.973 -3.34676 0.927879 0
M  V30 7798 C 724.927 -3.7835 2.00088 0
M  V30 7799 C 724.253 -5.11375 1.56203 0
M  V30 7800 C 725.553 -3.95256 3.41424 0
M  V30 7801 H 727.247 -2.07419 2.15911 0
M  V30 7802 H 724.793 -0.996569 1.03945 0
M  V30 7803 H 726.746 -4.12793 0.847327 0
M  V30 7804 H 725.47 -3.26565 -0.0475042 0
M  V30 7805 H 724.129 -3.02474 2.07135 0
M  V30 7806 H 723.777 -4.99709 0.57445 0
M  V30 7807 H 723.477 -5.41568 2.27985 0
M  V30 7808 H 725.001 -5.92001 1.49558 0
M  V30 7809 H 726.415 -4.63764 3.3704 0
M  V30 7810 H 724.812 -4.36849 4.1144 0
M  V30 7811 H 725.882 -2.98579 3.82072 0
M  V30 7812 N 727.225 -1.14528 -1.08264 0
M  V30 7813 C 728.465 -0.924808 -1.82282 0
M  V30 7814 C 728.829 0.538881 -1.84283 0
M  V30 7815 O 730.03 0.877355 -2.54079 0
M  V30 7816 C 728.301 -1.51102 -3.23887 0
M  V30 7817 S 729.86 -1.43232 -4.14765 0
M  V30 7818 H 726.678 -0.333052 -0.62817 0
M  V30 7819 H 729.28 -1.45905 -1.30123 0
M  V30 7820 H 727.984 -2.56942 -3.20014 0
M  V30 7821 H 727.515 -0.975234 -3.8112 0
M  V30 7822 H 729.53 -0.418843 -4.94429 0
M  V30 7823 N 728.703 1.26451 -0.940633 0
M  V30 7824 C 729.666 2.24651 -0.454378 0
M  V30 7825 C 730.666 1.54826 0.434222 0
M  V30 7826 O 731.856 1.72628 0.233477 0
M  V30 7827 C 728.988 3.39148 0.345192 0
M  V30 7828 H 730.181 2.69182 -1.32217 0
M  V30 7829 H 727.734 1.38596 -0.722547 0
M  V30 7830 H 728.469 3.00018 1.23125 0
M  V30 7831 H 728.254 3.9101 -0.292107 0
M  V30 7832 H 729.744 4.12103 0.675341 0
M  V30 7833 N 730.181 0.707592 1.40822 0
M  V30 7834 C 731.427 0.244031 2.01326 0
M  V30 7835 C 731.76 -1.15722 1.55955 0
M  V30 7836 O 731.035 -1.78347 0.776044 0
M  V30 7837 C 731.318 0.315128 3.58718 0
M  V30 7838 C 731.171 1.75419 4.14184 0
M  V30 7839 C 732.49 -0.318251 4.38948 0
M  V30 7840 H 729.609 0.0901471 0.731466 0
M  V30 7841 H 732.251 0.898584 1.67408 0
M  V30 7842 H 730.401 -0.242176 3.87744 0
M  V30 7843 H 732.073 2.36626 3.95987 0
M  V30 7844 H 730.316 2.28449 3.68773 0
M  V30 7845 H 730.987 1.75538 5.23345 0
M  V30 7846 H 733.463 0.156514 4.15806 0
M  V30 7847 H 732.339 -0.238019 5.48384 0
M  V30 7848 H 732.6 -1.40067 4.19325 0
M  V30 7849 N 731.66 -1.50943 0.453197 0
M  V30 7850 C 733.071 -1.86699 -0.00619892 0
M  V30 7851 C 733.422 -1.3693 -1.40515 0
M  V30 7852 O 732.547 -0.726715 -2.03833 0
M  V30 7853 C 733.142 -3.38795 -0.018025 0
M  V30 7854 C 731.701 -3.74028 -0.421885 0
M  V30 7855 C 730.848 -2.74752 0.375087 0
M  V30 7856 H 733.799 -1.43942 0.668317 0
M  V30 7857 H 733.82 -3.71468 -0.824125 0
M  V30 7858 H 733.332 -3.74988 1.00028 0
M  V30 7859 H 731.433 -3.43431 -1.44521 0
M  V30 7860 H 731.546 -4.78908 -0.135664 0
M  V30 7861 H 729.91 -2.5414 -0.168794 0
M  V30 7862 H 730.693 -3.13787 1.39256 0
M  V30 7863 N 733.138 -0.185124 -1.56509 0
M  V30 7864 C 734.554 0.170865 -1.58683 0
M  V30 7865 C 734.754 1.61799 -1.20098 0
M  V30 7866 O 733.81 2.35181 -0.919038 0
M  V30 7867 C 735.123 -0.122459 -3.00451 0
M  V30 7868 C 736.671 -0.0617699 -3.12939 0
M  V30 7869 C 737.146 -0.328269 -4.56822 0
M  V30 7870 N 738.637 -0.276533 -4.62374 0
M  V30 7871 C 739.372 -0.456722 -5.71578 0
M  V30 7872 N 738.868 -0.69672 -6.89288 0
M  V30 7873 N 740.661 -0.391669 -5.60734 0
M  V30 7874 H 732.812 -1.12956 -1.79874 0
M  V30 7875 H 735.075 -0.45011 -0.834329 0
M  V30 7876 H 734.781 -1.12546 -3.33206 0
M  V30 7877 H 734.655 0.579578 -3.72721 0
M  V30 7878 H 737.042 0.931826 -2.80002 0
M  V30 7879 H 737.123 -0.796732 -2.43076 0
M  V30 7880 H 736.767 -1.31914 -4.9047 0
M  V30 7881 H 736.697 0.427465 -5.24862 0
M  V30 7882 H 739.188 -0.0972458 -3.77775 0
M  V30 7883 H 739.501 -0.823291 -7.68402 0
M  V30 7884 H 737.846 -0.733497 -6.91119 0
M  V30 7885 H 741.037 -0.204663 -4.67652 0
M  V30 7886 H 741.21 -0.535518 -6.45783 0
M  V30 7887 O 734.655 1.6143 -0.0476879 0
M  V30 7888 H 735.346 1.85363 0.562176 0
M  V30 END ATOM
M  V30 BEGIN BOND
M  V30 END BOND
M  V30 END CTAB
M  END
$$$$
