drugbank_target|Q9Y698 Voltage-dependent calcium channel gamma-2 subunit (DB00153; DB00228; DB00421; DB11148; DB13746)
 OpenBabel12092120593D

  0  0  0     0  0            999 V3000
M  V30 BEGIN CTAB
M  V30 COUNTS 5029 5084 0 0 0
M  V30 BEGIN ATOM
M  V30 1 H -0.908 1.98254 -0.117106 0
M  V30 2 N 0 1.576 0 0
M  V30 3 C 0.933 2.03868 1.02534 0
M  V30 4 C 1.911 0.928543 1.3348 0
M  V30 5 O 3.095 1.19667 1.45644 0
M  V30 6 C 0.222 2.43627 2.35294 0
M  V30 7 C -0.732 3.65373 2.2001 0
M  V30 8 S 0.101 5.13292 1.52614 0
M  V30 9 C 1.257 5.56322 2.86805 0
M  V30 10 H 1.49 2.90518 0.631377 0
M  V30 11 H -0.977 1.52953 0.210867 0
M  V30 12 H 0.981 2.67203 3.11629 0
M  V30 13 H -0.358 1.57376 2.7183 0
M  V30 14 H -1.165 3.90944 3.18086 0
M  V30 15 H -1.563 3.418 1.51819 0
M  V30 16 H 0.729 5.58782 3.83104 0
M  V30 17 H 1.672 6.56266 2.65933 0
M  V30 18 H 2.08 4.83886 2.90714 0
M  V30 19 N 1.4781 -0.272755 1.55222 0
M  V30 20 C 2.7261 -1.00234 1.75492 0
M  V30 21 C 3.0471 -1.8681 0.5592 0
M  V30 22 O 2.3171 -1.91215 -0.425882 0
M  V30 23 H 0.8971 -0.373076 0.647166 0
M  V30 24 H 3.5591 -0.296926 1.92625 0
M  V30 25 H 2.6551 -1.63913 2.65592 0
M  V30 26 N 2.9562 -1.48159 -0.537278 0
M  V30 27 C 3.8862 -1.65029 -1.6519 0
M  V30 28 C 4.8672 -0.499281 -1.62607 0
M  V30 29 O 6.0522 -0.730972 -1.79918 0
M  V30 30 C 3.1822 -1.68303 -3.03795 0
M  V30 31 C 2.1362 -2.8283 -3.21234 0
M  V30 32 C 1.4622 -2.71189 -4.60826 0
M  V30 33 C 2.7622 -4.24211 -3.04701 0
M  V30 34 H 4.4562 -2.58341 -1.51328 0
M  V30 35 H 2.0022 -1.24325 -0.726585 0
M  V30 36 H 3.9552 -1.78693 -3.81637 0
M  V30 37 H 2.6792 -0.715635 -3.18663 0
M  V30 38 H 1.3382 -2.71983 -2.45807 0
M  V30 39 H 0.9862 -1.72435 -4.7252 0
M  V30 40 H 0.6862 -3.48035 -4.7344 0
M  V30 41 H 2.2102 -2.83537 -5.40777 0
M  V30 42 H 3.6242 -4.3593 -3.72341 0
M  V30 43 H 2.0212 -5.01998 -3.28813 0
M  V30 44 H 3.0912 -4.41184 -2.01209 0
M  V30 45 N 4.4343 0.785586 -1.36625 0
M  V30 46 C 5.6813 1.54362 -1.31067 0
M  V30 47 C 6.0093 1.94195 0.10893 0
M  V30 48 O 5.2643 1.63262 1.07908 0
M  V30 49 C 5.5633 2.83007 -2.1827 0
M  V30 50 C 5.2293 2.62294 -3.6676 0
M  V30 51 C 3.8913 2.56353 -4.0723 0
M  V30 52 C 6.2433 2.43371 -4.6089 0
M  V30 53 C 3.5713 2.29461 -5.39967 0
M  V30 54 C 5.9233 2.18005 -5.93849 0
M  V30 55 C 4.5873 2.105 -6.3344 0
M  V30 56 H 3.8573 0.564851 -0.479609 0
M  V30 57 H 6.5043 0.906028 -1.68711 0
M  V30 58 H 4.8093 3.51253 -1.73576 0
M  V30 59 H 6.5063 3.40817 -2.11292 0
M  V30 60 H 3.0963 2.67774 -3.34656 0
M  V30 61 H 7.2803 2.46959 -4.30494 0
M  V30 62 H 2.5363 2.22135 -5.69619 0
M  V30 63 H 6.7103 2.02359 -6.66351 0
M  V30 64 H 4.3373 1.89425 -7.36222 0
M  V30 65 N 5.9124 1.20967 1.01018 0
M  V30 66 C 7.1894 0.93264 1.71934 0
M  V30 67 C 7.5694 -0.55692 2.03621 0
M  V30 68 O 6.9174 -1.52035 1.7058 0
M  V30 69 C 7.1274 1.81233 2.98254 0
M  V30 70 C 8.4754 2.05804 3.71389 0
M  V30 71 O 9.4994 1.78539 3.08225 0
M  V30 72 O 8.3584 2.51888 4.84989 0
M  V30 73 H 5.4524 0.349272 0.749625 0
M  V30 74 H 7.9984 1.31871 1.06808 0
M  V30 75 H 6.7704 2.82067 2.71208 0
M  V30 76 H 6.3934 1.42674 3.7112 0
M  V30 77 N 7.3905 -1.2043 1.01659 0
M  V30 78 C 8.8065 -1.41852 0.731442 0
M  V30 79 C 9.0065 -1.89358 -0.688898 0
M  V30 80 O 8.0625 -2.06247 -1.45666 0
M  V30 81 C 9.3755 -2.44019 1.75714 0
M  V30 82 C 10.9235 -2.57785 1.77527 0
M  V30 83 C 11.3985 -3.63194 2.79023 0
M  V30 84 N 12.8895 -3.70678 2.77763 0
M  V30 85 C 13.6245 -4.51897 3.52954 0
M  V30 86 N 13.1205 -5.36921 4.37821 0
M  V30 87 N 14.9135 -4.4643 3.41551 0
M  V30 88 H 7.0645 -0.879093 1.93354 0
M  V30 89 H 9.3275 -0.448425 0.835236 0
M  V30 90 H 9.0335 -2.1611 2.77469 0
M  V30 91 H 8.9075 -3.43007 1.56927 0
M  V30 92 H 11.2945 -2.85023 0.764569 0
M  V30 93 H 11.3755 -1.58992 2.00387 0
M  V30 94 H 11.0195 -3.36699 3.80258 0
M  V30 95 H 10.9495 -4.61609 2.53425 0
M  V30 96 H 13.4405 -3.09944 2.16201 0
M  V30 97 H 13.7535 -5.95981 4.91962 0
M  V30 98 H 12.0985 -5.36424 4.41899 0
M  V30 99 H 15.2895 -3.79042 2.74672 0
M  V30 100 H 15.4625 -5.09491 4.00404 0
M  V30 101 N 8.8686 -0.792821 -1.36206 0
M  V30 102 C 10.1166 -0.366062 -1.98757 0
M  V30 103 C 10.4376 1.0668 -1.63231 0
M  V30 104 O 9.7076 1.73587 -0.907978 0
M  V30 105 H 8.2876 -0.132364 -0.735179 0
M  V30 106 H 10.9496 -1.01562 -1.66347 0
M  V30 107 H 10.0456 -0.460638 -3.08682 0
M  V30 108 N 10.3467 1.47872 -0.545128 0
M  V30 109 C 11.5927 2.02793 -0.0166104 0
M  V30 110 C 11.9257 1.41987 1.32489 0
M  V30 111 O 11.2007 0.571045 1.85928 0
M  V30 112 C 11.4837 3.59989 0.0893294 0
M  V30 113 C 11.3367 4.3125 -1.27841 0
M  V30 114 C 12.6557 4.32606 0.808724 0
M  V30 115 H 9.7747 0.736962 -0.00751035 0
M  V30 116 H 12.4167 1.76433 -0.705085 0
M  V30 117 H 10.5667 3.82579 0.675681 0
M  V30 118 H 12.2387 4.20035 -1.90704 0
M  V30 119 H 10.4817 3.92076 -1.85632 0
M  V30 120 H 11.1527 5.39736 -1.15713 0
M  V30 121 H 13.6287 4.14936 0.310992 0
M  V30 122 H 12.5047 5.42251 0.851782 0
M  V30 123 H 12.7657 4.00963 1.86229 0
M  V30 124 N 11.8248 0.280983 1.55075 0
M  V30 125 C 12.7568 -0.637268 2.20163 0
M  V30 126 C 13.7698 -1.11298 1.18813 0
M  V30 127 O 14.9588 -1.03388 1.4551 0
M  V30 128 C 12.0588 -1.88199 2.81841 0
M  V30 129 C 11.2318 -1.55211 4.08936 0
M  V30 130 C 10.2908 -2.64991 4.54606 0
M  V30 131 O 9.3168 -2.30929 5.2025 0
M  V30 132 N 10.5188 -3.95161 4.25238 0
M  V30 133 H 13.2838 -0.0801694 2.99593 0
M  V30 134 H 10.8448 0.102329 1.61576 0
M  V30 135 H 12.8368 -2.60948 3.09335 0
M  V30 136 H 11.4068 -2.34799 2.06369 0
M  V30 137 H 10.6268 -0.658185 3.88666 0
M  V30 138 H 11.9148 -1.30681 4.91732 0
M  V30 139 H 11.3128 -4.25653 3.72607 0
M  V30 140 H 9.8698 -4.6427 4.5749 0
M  V30 141 N 13.3029 -1.57598 0.00835791 0
M  V30 142 C 14.2359 -2.04409 -1.01451 0
M  V30 143 C 15.2139 -0.935609 -1.32985 0
M  V30 144 O 16.3979 -1.20437 -1.45007 0
M  V30 145 C 13.5249 -2.44872 -2.33999 0
M  V30 146 C 12.5709 -3.66535 -2.18069 0
M  V30 147 S 13.4039 -5.14095 -1.4989 0
M  V30 148 C 14.5599 -5.57835 -2.8385 0
M  V30 149 H 14.7929 -2.90849 -0.615961 0
M  V30 150 H 12.3259 -1.53063 -0.202752 0
M  V30 151 H 14.2839 -2.68852 -3.10208 0
M  V30 152 H 12.9449 -1.58815 -2.70992 0
M  V30 153 H 12.1379 -3.92626 -3.16008 0
M  V30 154 H 11.7399 -3.426 -1.50004 0
M  V30 155 H 14.0319 -5.60806 -3.80136 0
M  V30 156 H 14.9749 -6.57667 -2.62449 0
M  V30 157 H 15.3829 -4.85421 -2.88144 0
M  V30 158 N 14.781 0.264519 -1.55364 0
M  V30 159 C 15.711 1.33121 -1.91836 0
M  V30 160 C 16.692 1.51101 -0.781192 0
M  V30 161 O 17.877 1.64003 -1.04003 0
M  V30 162 C 15.007 2.68921 -2.19769 0
M  V30 163 C 13.961 2.65661 -3.35571 0
M  V30 164 C 13.287 4.05093 -3.49004 0
M  V30 165 C 14.587 2.24187 -4.71739 0
M  V30 166 H 16.281 1.02844 -2.81182 0
M  V30 167 H 13.827 0.493286 -1.35287 0
M  V30 168 H 15.78 3.43663 -2.43872 0
M  V30 169 H 14.504 3.00799 -1.27231 0
M  V30 170 H 13.163 1.93377 -3.1145 0
M  V30 171 H 12.811 4.34206 -2.53917 0
M  V30 172 H 12.511 4.03804 -4.26868 0
M  V30 173 H 14.035 4.81561 -3.75408 0
M  V30 174 H 15.449 2.88654 -4.9533 0
M  V30 175 H 13.846 2.34044 -5.52579 0
M  V30 176 H 14.916 1.19327 -4.69988 0
M  V30 177 N 16.2591 1.48442 0.529413 0
M  V30 178 C 17.1891 1.65902 1.64313 0
M  V30 179 C 18.1701 0.507897 1.6234 0
M  V30 180 O 19.3551 0.740503 1.79528 0
M  V30 181 C 16.4851 1.69911 3.02898 0
M  V30 182 C 15.4391 2.8453 3.19729 0
M  V30 183 C 14.7651 2.73629 4.59381 0
M  V30 184 C 16.0651 4.25821 3.02447 0
M  V30 185 H 17.7591 2.5914 1.49955 0
M  V30 186 H 15.3051 1.24709 0.719982 0
M  V30 187 H 17.2581 1.80715 3.80684 0
M  V30 188 H 15.9821 0.732524 3.18279 0
M  V30 189 H 14.6411 2.73283 2.44361 0
M  V30 190 H 14.2891 1.74938 4.71599 0
M  V30 191 H 13.9891 3.50541 4.71588 0
M  V30 192 H 15.5131 2.86401 5.39265 0
M  V30 193 H 16.9271 4.37898 3.70024 0
M  V30 194 H 15.3241 5.03735 3.26146 0
M  V30 195 H 16.3941 4.42244 1.98867 0
M  V30 196 N 17.7372 -0.778329 1.37039 0
M  V30 197 C 18.9652 -1.56734 1.35063 0
M  V30 198 C 19.3802 -1.88686 -0.0655597 0
M  V30 199 O 18.7372 -1.5096 -1.02554 0
M  V30 200 C 18.7882 -2.88163 2.18276 0
M  V30 201 O 18.5092 -2.57583 3.54376 0
M  V30 202 C 20.0102 -3.82422 2.24206 0
M  V30 203 H 17.2302 -0.485778 0.462883 0
M  V30 204 H 19.7742 -0.965185 1.8029 0
M  V30 205 H 17.9292 -3.44818 1.76576 0
M  V30 206 H 18.3432 -3.41699 3.97922 0
M  V30 207 H 19.8172 -4.71667 2.86765 0
M  V30 208 H 20.2942 -4.21078 1.24861 0
M  V30 209 H 20.9002 -3.31697 2.6619 0
M  V30 210 N 19.2153 -1.21501 -1.00376 0
M  V30 211 C 20.4433 -1.059 -1.77744 0
M  V30 212 C 20.8583 0.391125 -1.84704 0
M  V30 213 O 20.2153 1.27133 -1.30933 0
M  V30 214 C 20.2663 -1.65111 -3.21591 0
M  V30 215 O 19.9873 -3.0445 -3.15027 0
M  V30 216 C 21.4883 -1.54637 -4.15454 0
M  V30 217 H 18.7083 -0.371825 -0.558558 0
M  V30 218 H 21.2523 -1.60865 -1.26264 0
M  V30 219 H 19.4073 -1.14235 -3.70175 0
M  V30 220 H 19.8213 -3.3278 -4.0541 0
M  V30 221 H 21.2953 -2.00808 -5.14179 0
M  V30 222 H 21.7723 -0.501022 -4.36333 0
M  V30 223 H 22.3783 -2.04767 -3.72761 0
M  V30 224 N 20.6934 1.19889 -1.02296 0
M  V30 225 C 21.9394 1.89701 -0.717033 0
M  V30 226 C 22.2724 1.7905 0.751989 0
M  V30 227 O 21.5474 1.17891 1.547 0
M  V30 228 C 21.8304 3.40858 -1.16136 0
M  V30 229 C 21.6834 3.60411 -2.69117 0
M  V30 230 C 23.0024 4.33876 -0.737549 0
M  V30 231 H 20.1214 0.688874 -0.261957 0
M  V30 232 H 22.7634 1.41154 -1.27183 0
M  V30 233 H 20.9134 3.82335 -0.689342 0
M  V30 234 H 22.5854 3.28145 -3.2422 0
M  V30 235 H 20.8284 3.03665 -3.0979 0
M  V30 236 H 21.4994 4.66396 -2.95261 0
M  V30 237 H 23.9754 4.00081 -1.14344 0
M  V30 238 H 22.8514 5.38242 -1.0764 0
M  V30 239 H 23.1124 4.40628 0.360436 0
M  V30 240 N 22.1715 0.800033 1.35784 0
M  V30 241 C 23.4195 0.376597 1.9856 0
M  V30 242 C 23.7405 -1.05812 1.63795 0
M  V30 243 O 23.0105 -1.73103 0.917171 0
M  V30 244 H 21.5905 0.136261 0.734467 0
M  V30 245 H 24.2525 1.02442 1.65806 0
M  V30 246 H 23.3485 0.477002 3.08433 0
M  V30 247 N 23.6496 -1.47581 0.552962 0
M  V30 248 C 24.6126 -2.28439 -0.186605 0
M  V30 249 C 25.6126 -1.36706 -0.84665 0
M  V30 250 O 26.8026 -1.59378 -0.703164 0
M  V30 251 C 23.9346 -3.16264 -1.2724 0
M  V30 252 H 25.1276 -2.95294 0.523609 0
M  V30 253 H 22.6806 -1.532 0.309745 0
M  V30 254 H 23.4156 -2.54091 -2.01514 0
M  V30 255 H 23.2006 -3.83769 -0.803968 0
M  V30 256 H 24.6906 -3.77198 -1.79196 0
M  V30 257 N 25.1277 -0.289203 -1.54924 0
M  V30 258 C 26.3747 0.323519 -1.99899 0
M  V30 259 C 26.7027 1.54797 -1.17762 0
M  V30 260 O 25.9577 1.94237 -0.238835 0
M  V30 261 C 26.2567 0.736119 -3.49737 0
M  V30 262 C 25.9227 -0.385276 -4.49251 0
M  V30 263 C 24.5847 -0.693156 -4.76181 0
M  V30 264 C 26.9367 -1.14021 -5.08575 0
M  V30 265 C 24.2647 -1.7593 -5.59701 0
M  V30 266 C 26.6167 -2.19619 -5.93254 0
M  V30 267 C 25.2807 -2.51026 -6.185 0
M  V30 268 H 24.5507 0.118384 -0.731482 0
M  V30 269 H 27.1977 -0.405847 -1.8715 0
M  V30 270 H 25.5027 1.54539 -3.60035 0
M  V30 271 H 27.1997 1.22118 -3.81953 0
M  V30 272 H 23.7897 -0.135202 -4.28387 0
M  V30 273 H 27.9737 -0.915611 -4.87781 0
M  V30 274 H 23.2297 -2.0075 -5.77503 0
M  V30 275 H 27.4037 -2.78581 -6.38252 0
M  V30 276 H 25.0307 -3.33772 -6.83008 0
M  V30 277 N 26.6058 1.57591 -0.0167156 0
M  V30 278 C 27.5688 2.08393 0.954204 0
M  V30 279 C 28.5688 0.996531 1.26198 0
M  V30 280 O 29.7588 1.25858 1.20438 0
M  V30 281 C 26.8908 2.5394 2.27436 0
M  V30 282 H 28.0838 2.95455 0.514451 0
M  V30 283 H 25.6368 1.54582 0.231089 0
M  V30 284 H 26.3718 1.70171 2.76066 0
M  V30 285 H 26.1568 3.33371 2.06412 0
M  V30 286 H 27.6468 2.93512 2.97053 0
M  V30 287 N 28.0839 -0.256276 1.55502 0
M  V30 288 C 29.0469 -1.30047 1.88734 0
M  V30 289 C 30.0469 -1.4154 0.763086 0
M  V30 290 O 31.2369 -1.40403 1.03115 0
M  V30 291 C 28.3689 -2.67953 2.10747 0
M  V30 292 H 29.5619 -1.01802 2.82093 0
M  V30 293 H 27.1149 -0.495134 1.4825 0
M  V30 294 H 27.8499 -3.01351 1.19825 0
M  V30 295 H 27.6349 -2.60993 2.92617 0
M  V30 296 H 29.1249 -3.43368 2.37673 0
M  V30 297 N 29.562 -1.4872 -0.521534 0
M  V30 298 C 30.809 -1.57168 -1.27689 0
M  V30 299 C 31.137 -0.249275 -1.92896 0
M  V30 300 O 30.392 0.761162 -1.80291 0
M  V30 301 C 30.691 -2.66497 -2.38148 0
M  V30 302 C 30.357 -4.08664 -1.90538 0
M  V30 303 C 29.019 -4.47357 -1.77271 0
M  V30 304 C 31.371 -4.97724 -1.54663 0
M  V30 305 C 28.699 -5.72905 -1.26478 0
M  V30 306 C 31.051 -6.2377 -1.05329 0
M  V30 307 C 29.715 -6.61311 -0.906861 0
M  V30 308 H 28.985 -0.575117 -0.467249 0
M  V30 309 H 31.632 -1.82472 -0.581051 0
M  V30 310 H 29.937 -2.35085 -3.13437 0
M  V30 311 H 31.634 -2.70246 -2.96257 0
M  V30 312 H 28.224 -3.78111 -2.01816 0
M  V30 313 H 32.408 -4.68501 -1.63768 0
M  V30 314 H 27.664 -6.00709 -1.13835 0
M  V30 315 H 31.838 -6.9217 -0.76644 0
M  V30 316 H 29.465 -7.5848 -0.511083 0
M  V30 317 N 31.0401 0.771051 -1.3745 0
M  V30 318 C 32.2651 1.56529 -1.36065 0
M  V30 319 C 32.6901 1.88029 0.0515859 0
M  V30 320 O 32.0481 1.49282 1.02882 0
M  V30 321 C 32.0961 2.85187 -2.20683 0
M  V30 322 O 31.2001 3.79593 -1.61193 0
M  V30 323 H 30.5411 0.47411 -0.464883 0
M  V30 324 H 33.0711 0.954269 -1.80983 0
M  V30 325 H 33.0811 3.34283 -2.33921 0
M  V30 326 H 31.7561 2.61588 -3.23334 0
M  V30 327 H 30.3331 3.38239 -1.56999 0
M  V30 328 N 32.5182 1.22032 0.997298 0
M  V30 329 C 33.4482 1.01065 2.10495 0
M  V30 330 C 34.4292 -0.0669542 1.69968 0
M  V30 331 O 35.6142 0.0943987 1.9397 0
M  V30 332 C 32.7442 0.582874 3.42374 0
M  V30 333 C 31.6982 1.60592 3.96729 0
M  V30 334 C 31.0242 1.03412 5.24605 0
M  V30 335 C 32.3242 2.99478 4.27914 0
M  V30 336 H 34.0182 1.93708 2.28292 0
M  V30 337 H 31.5642 0.932761 1.09707 0
M  V30 338 H 33.5172 0.423332 4.19268 0
M  V30 339 H 32.2412 -0.379213 3.24391 0
M  V30 340 H 30.9002 1.75316 3.21963 0
M  V30 341 H 30.5482 0.063518 5.0296 0
M  V30 342 H 30.2482 1.71754 5.61938 0
M  V30 343 H 31.7722 0.886066 6.04137 0
M  V30 344 H 33.1862 2.88153 4.95622 0
M  V30 345 H 31.5832 3.64903 4.76409 0
M  V30 346 H 32.6532 3.49742 3.3587 0
M  V30 347 N 33.9963 -1.19345 1.0293 0
M  V30 348 C 34.9293 -2.21347 0.555029 0
M  V30 349 C 35.9073 -1.57492 -0.404351 0
M  V30 350 O 37.0913 -1.85741 -0.321352 0
M  V30 351 C 34.2183 -3.38163 -0.19064 0
M  V30 352 C 33.2643 -4.20375 0.720236 0
M  V30 353 S 34.0973 -4.88371 2.19668 0
M  V30 354 C 35.2533 -6.08597 1.46153 0
M  V30 355 H 35.4863 -2.61235 1.41929 0
M  V30 356 H 33.0193 -1.29598 0.839272 0
M  V30 357 H 34.9773 -4.05871 -0.614724 0
M  V30 358 H 33.6383 -2.9671 -1.03063 0
M  V30 359 H 32.8313 -5.03793 0.14455 0
M  V30 360 H 32.4333 -3.57987 1.08266 0
M  V30 361 H 34.7253 -6.73354 0.748357 0
M  V30 362 H 35.6683 -6.7065 2.27233 0
M  V30 363 H 36.0763 -5.56297 0.958842 0
M  V30 364 N 35.4744 -0.807222 -1.35358 0
M  V30 365 C 36.7024 -0.400377 -2.02989 0
M  V30 366 C 37.1174 0.988859 -1.60832 0
M  V30 367 O 36.4744 1.63729 -0.806175 0
M  V30 368 C 36.5254 -0.474867 -3.58368 0
M  V30 369 O 36.2464 -1.80933 -3.98992 0
M  V30 370 C 37.7474 -0.0609112 -4.43258 0
M  V30 371 H 34.9674 -0.162587 -0.651004 0
M  V30 372 H 37.5114 -1.09102 -1.72965 0
M  V30 373 H 35.6664 0.167534 -3.87038 0
M  V30 374 H 36.0804 -1.77256 -4.9364 0
M  V30 375 H 37.5544 -0.164145 -5.51756 0
M  V30 376 H 38.0314 0.993831 -4.27808 0
M  V30 377 H 38.6374 -0.676492 -4.19885 0
M  V30 378 N 36.9525 1.47285 -0.560781 0
M  V30 379 C 38.2015 2.01668 -0.035895 0
M  V30 380 C 38.5145 1.44021 1.32353 0
M  V30 381 O 39.7205 1.90088 1.93853 0
M  V30 382 C 38.1765 3.59897 -0.0136659 0
M  V30 383 C 37.7845 4.26536 -1.37006 0
M  V30 384 C 39.5285 4.22017 0.458425 0
M  V30 385 C 37.4355 5.76782 -1.30675 0
M  V30 386 H 36.3655 0.753938 -0.00964879 0
M  V30 387 H 39.0165 1.69243 -0.709166 0
M  V30 388 H 37.3985 3.89301 0.725325 0
M  V30 389 H 38.5725 4.0877 -2.12705 0
M  V30 390 H 36.8875 3.76419 -1.78038 0
M  V30 391 H 39.4845 5.32124 0.524247 0
M  V30 392 H 39.8275 3.89437 1.4712 0
M  V30 393 H 40.3605 3.97159 -0.225818 0
M  V30 394 H 37.0995 6.13988 -2.29564 0
M  V30 395 H 36.6195 5.96875 -0.591622 0
M  V30 396 H 38.2985 6.39063 -1.01033 0
M  V30 397 N 38.4306 0.297415 1.54768 0
M  V30 398 C 39.3936 -0.567375 2.22066 0
M  V30 399 C 40.3936 -1.06409 1.20556 0
M  V30 400 O 41.5836 -0.960691 1.45315 0
M  V30 401 C 38.7156 -1.78517 2.90421 0
M  V30 402 H 39.9086 0.0205534 2.99893 0
M  V30 403 H 37.4616 0.0482163 1.56226 0
M  V30 404 H 38.1966 -2.41303 2.16664 0
M  V30 405 H 37.9816 -1.43669 3.64831 0
M  V30 406 H 39.4716 -2.39964 3.41771 0
M  V30 407 N 39.9087 -1.5758 0.0250728 0
M  V30 408 C 41.1547 -1.91917 -0.655413 0
M  V30 409 C 41.4877 -0.901433 -1.72011 0
M  V30 410 O 40.7627 0.0764069 -1.9435 0
M  V30 411 C 41.0457 -3.36751 -1.27558 0
M  V30 412 C 40.8987 -4.49258 -0.220719 0
M  V30 413 C 42.2177 -3.81469 -2.19475 0
M  V30 414 H 39.3367 -0.697925 -0.23679 0
M  V30 415 H 41.9787 -1.89825 0.0815036 0
M  V30 416 H 40.1287 -3.38664 -1.90365 0
M  V30 417 H 41.8007 -4.59478 0.409601 0
M  V30 418 H 40.0437 -4.31415 0.454264 0
M  V30 419 H 40.7147 -5.47618 -0.694175 0
M  V30 420 H 43.1907 -3.81266 -1.66659 0
M  V30 421 H 42.0667 -4.83512 -2.59822 0
M  V30 422 H 42.3277 -3.16744 -3.08424 0
M  V30 423 N 41.3868 0.248026 -1.55636 0
M  V30 424 C 42.6348 0.974295 -1.77065 0
M  V30 425 C 42.9558 1.85897 -0.588849 0
M  V30 426 O 42.2258 1.91868 0.395407 0
M  V30 427 H 40.8058 0.362733 -0.653019 0
M  V30 428 H 43.4678 0.266244 -1.93073 0
M  V30 429 H 42.5638 1.59667 -2.68166 0
M  V30 430 N 42.8649 1.48995 0.513639 0
M  V30 431 C 44.0929 1.61531 1.29288 0
M  V30 432 C 44.5079 0.281801 1.86685 0
M  V30 433 O 43.8649 -0.731111 1.67215 0
M  V30 434 C 43.9159 2.67449 2.43215 0
M  V30 435 O 43.6369 3.95626 1.88179 0
M  V30 436 C 45.1379 2.90575 3.34785 0
M  V30 437 H 42.3579 0.544165 0.392588 0
M  V30 438 H 44.9019 1.9494 0.617956 0
M  V30 439 H 43.0569 2.36853 3.0656 0
M  V30 440 H 43.4709 4.53868 2.62876 0
M  V30 441 H 44.9449 3.68449 4.11035 0
M  V30 442 H 45.4219 2.00011 3.91015 0
M  V30 443 H 46.0279 3.22538 2.77218 0
M  V30 444 N 44.343 -0.763751 1.37857 0
M  V30 445 C 45.62 -1.51244 1.24035 0
M  V30 446 C 46 -2.10472 -0.162649 0
M  V30 447 O 45.348 -1.96206 -1.17112 0
M  V30 448 C 45.558 -2.58694 2.34261 0
M  V30 449 C 46.906 -3.25878 2.72193 0
M  V30 450 O 47.93 -2.68993 2.33497 0
M  V30 451 O 46.789 -4.2874 3.38887 0
M  V30 452 H 43.883 -0.670243 0.484462 0
M  V30 453 H 46.429 -0.800031 1.49658 0
M  V30 454 H 45.201 -2.13105 3.2818 0
M  V30 455 H 44.824 -3.37527 2.10146 0
M  V30 456 N 45.8211 -1.22559 -0.990812 0
M  V30 457 C 47.0511 -1.07623 -1.76355 0
M  V30 458 C 47.4591 0.37601 -1.85426 0
M  V30 459 O 46.8021 1.27228 -1.32509 0
M  V30 460 C 46.8641 -1.61507 -3.21179 0
M  V30 461 C 46.5281 -3.10146 -3.35646 0
M  V30 462 C 47.5251 -4.07553 -3.22796 0
M  V30 463 C 45.2101 -3.49644 -3.60631 0
M  V30 464 C 47.2041 -5.42442 -3.34716 0
M  V30 465 C 44.8911 -4.84682 -3.72192 0
M  V30 466 C 45.8891 -5.8089 -3.59243 0
M  V30 467 O 45.5771 -7.13476 -3.70415 0
M  V30 468 H 45.3091 -0.377745 -0.560611 0
M  V30 469 H 47.8631 -1.62658 -1.25425 0
M  V30 470 H 46.0931 -1.00881 -3.73309 0
M  V30 471 H 47.7821 -1.42202 -3.80175 0
M  V30 472 H 48.5481 -3.78381 -3.03403 0
M  V30 473 H 44.4271 -2.75282 -3.69785 0
M  V30 474 H 47.9711 -6.17518 -3.24526 0
M  V30 475 H 43.8681 -5.13534 -3.91092 0
M  V30 476 H 44.6361 -7.21083 -3.87275 0
M  V30 477 N 47.2992 1.18797 -1.03562 0
M  V30 478 C 48.5452 1.89192 -0.746867 0
M  V30 479 C 48.9002 1.78531 0.717245 0
M  V30 480 O 48.1932 1.17137 1.51622 0
M  V30 481 C 48.3872 3.38692 -1.14117 0
M  V30 482 C 48.2162 3.63902 -2.64207 0
M  V30 483 C 46.9862 3.81553 -3.31279 0
M  V30 484 C 49.1842 3.64903 -3.62423 0
M  V30 485 N 47.1662 3.94455 -4.70402 0
M  V30 486 C 48.5372 3.83458 -4.87196 0
M  V30 487 C 50.5922 3.47965 -3.56125 0
M  V30 488 C 49.2952 3.86829 -6.06429 0
M  V30 489 C 51.3212 3.52616 -4.7478 0
M  V30 490 C 50.6832 3.71663 -5.9837 0
M  V30 491 H 46.7822 0.711141 -0.325273 0
M  V30 492 H 49.3662 1.42727 -1.32428 0
M  V30 493 H 47.5372 3.83864 -0.591889 0
M  V30 494 H 49.2692 3.96634 -0.803966 0
M  V30 495 H 46.0242 3.80723 -2.81686 0
M  V30 496 H 46.4482 4.0474 -5.42692 0
M  V30 497 H 51.0902 3.32189 -2.61553 0
M  V30 498 H 48.8082 4.01395 -7.01362 0
M  V30 499 H 52.3942 3.40791 -4.71543 0
M  V30 500 H 51.2742 3.75145 -6.88648 0
M  V30 501 N 48.7773 0.814389 1.34928 0
M  V30 502 C 49.7073 0.244827 2.32213 0
M  V30 503 C 50.6883 -0.634024 1.57842 0
M  V30 504 O 51.8733 -0.562676 1.8587 0
M  V30 505 C 49.0033 -0.601106 3.42058 0
M  V30 506 C 47.9573 0.179896 4.27622 0
M  V30 507 C 47.2833 -0.788237 5.28858 0
M  V30 508 C 48.5833 1.38329 5.03649 0
M  V30 509 H 50.2773 1.05763 2.80097 0
M  V30 510 H 47.8233 0.510029 1.34665 0
M  V30 511 H 49.7763 -1.00968 4.09125 0
M  V30 512 H 48.5003 -1.44688 2.92802 0
M  V30 513 H 47.1593 0.569739 3.62146 0
M  V30 514 H 46.8073 -1.62973 4.75866 0
M  V30 515 H 46.5073 -0.269942 5.8698 0
M  V30 516 H 48.0313 -1.19485 5.98795 0
M  V30 517 H 49.4453 1.04918 5.63618 0
M  V30 518 H 47.8423 1.83662 5.71304 0
M  V30 519 H 48.9123 2.16592 4.33839 0
M  V30 520 N 50.2554 -1.46986 0.568584 0
M  V30 521 C 51.4854 -2.0653 0.0539173 0
M  V30 522 C 51.8934 -1.42004 -1.25026 0
M  V30 523 O 51.2364 -0.514541 -1.76347 0
M  V30 524 C 51.2984 -3.58938 -0.200854 0
M  V30 525 C 50.9624 -4.45572 1.01559 0
M  V30 526 C 51.9594 -4.82986 1.92407 0
M  V30 527 C 49.6444 -4.8692 1.23346 0
M  V30 528 C 51.6384 -5.60559 3.03402 0
M  V30 529 C 49.3254 -5.64255 2.34649 0
M  V30 530 C 50.3234 -6.00986 3.24507 0
M  V30 531 O 50.0114 -6.76761 4.33878 0
M  V30 532 H 49.7434 -0.674292 0.0480234 0
M  V30 533 H 52.2974 -1.89812 0.784896 0
M  V30 534 H 50.5274 -3.73911 -0.986279 0
M  V30 535 H 52.2164 -4.0046 -0.662294 0
M  V30 536 H 52.9824 -4.51633 1.76785 0
M  V30 537 H 48.8614 -4.57789 0.543178 0
M  V30 538 H 52.4054 -5.89147 3.73565 0
M  V30 539 H 48.3024 -5.95021 2.5024 0
M  V30 540 H 49.0704 -6.95168 4.32068 0
M  V30 541 N 51.7335 -0.305618 -1.54608 0
M  V30 542 C 52.9585 0.307562 -2.05107 0
M  V30 543 C 53.3835 1.46385 -1.18123 0
M  V30 544 O 52.7415 1.8034 -0.186324 0
M  V30 545 C 52.7895 0.73704 -3.52987 0
M  V30 546 O 51.8935 1.84134 -3.6901 0
M  V30 547 H 51.2345 0.0589143 -0.661381 0
M  V30 548 H 53.7645 -0.448807 -1.99617 0
M  V30 549 H 53.7745 1.02459 -3.94925 0
M  V30 550 H 52.4495 -0.108773 -4.15758 0
M  V30 551 H 51.0265 1.55398 -3.38978 0
M  V30 552 N 53.2116 1.57565 -0.0334293 0
M  V30 553 C 54.6276 1.56297 0.322997 0
M  V30 554 C 54.8276 1.03945 1.7262 0
M  V30 555 O 53.8836 0.688109 2.42943 0
M  V30 556 C 55.1966 3.00232 0.167664 0
M  V30 557 C 56.7446 3.12078 0.240107 0
M  V30 558 C 57.2196 4.57859 0.113513 0
M  V30 559 N 58.7106 4.62887 0.170359 0
M  V30 560 C 59.4456 5.73319 0.0962517 0
M  V30 561 N 58.9416 6.92794 -0.0291881 0
M  V30 562 N 60.7346 5.61898 0.150551 0
M  V30 563 H 52.8856 1.89923 -0.950956 0
M  V30 564 H 55.1486 0.873824 -0.367608 0
M  V30 565 H 54.8546 3.42501 -0.799102 0
M  V30 566 H 54.7286 3.654 0.936083 0
M  V30 567 H 57.1156 2.69718 1.19733 0
M  V30 568 H 57.1966 2.49623 -0.558763 0
M  V30 569 H 56.8406 5.009 -0.840314 0
M  V30 570 H 56.7706 5.18299 0.931302 0
M  V30 571 H 59.2616 3.76954 0.26728 0
M  V30 572 H 59.5746 7.7276 -0.0789252 0
M  V30 573 H 57.9196 6.94971 -0.0640299 0
M  V30 574 H 61.1106 4.67448 0.246981 0
M  V30 575 H 61.2836 6.47938 0.0893365 0
M  V30 576 N 54.6897 -0.239769 1.55765 0
M  V30 577 C 55.9377 -0.964892 1.77579 0
M  V30 578 C 56.2587 -1.85582 0.598699 0
M  V30 579 O 55.5287 -1.92075 -0.385226 0
M  V30 580 H 54.1087 -0.359265 0.654933 0
M  V30 581 H 56.7707 -0.256001 1.93211 0
M  V30 582 H 55.8667 -1.58243 2.69009 0
M  V30 583 N 56.1678 -1.49265 -0.50573 0
M  V30 584 C 57.4138 -1.58748 -1.26202 0
M  V30 585 C 57.7468 -0.271227 -1.92297 0
M  V30 586 O 57.0218 0.724831 -1.80489 0
M  V30 587 C 57.3048 -2.74332 -2.33268 0
M  V30 588 C 57.1578 -4.15737 -1.71705 0
M  V30 589 C 58.4768 -2.85576 -3.34865 0
M  V30 590 H 55.5958 -0.577826 -0.457478 0
M  V30 591 H 58.2378 -1.81532 -0.560897 0
M  V30 592 H 56.3878 -2.55036 -2.93068 0
M  V30 593 H 58.0598 -4.46537 -1.15769 0
M  V30 594 H 56.3028 -4.21605 -1.02135 0
M  V30 595 H 56.9738 -4.92477 -2.49341 0
M  V30 596 H 59.4498 -3.03127 -2.8505 0
M  V30 597 H 58.3258 -3.68135 -4.07146 0
M  V30 598 H 58.5868 -1.94732 -3.96903 0
M  V30 599 N 57.6459 0.756429 -1.3826 0
M  V30 600 C 58.8859 1.52833 -1.35725 0
M  V30 601 C 59.2499 1.91926 0.0534106 0
M  V30 602 O 60.4509 2.68028 0.203613 0
M  V30 603 C 58.7219 2.74919 -2.28373 0
M  V30 604 S 60.2809 3.64817 -2.43832 0
M  V30 605 H 57.0989 0.523043 -0.481608 0
M  V30 606 H 59.7009 0.888212 -1.74158 0
M  V30 607 H 58.4049 2.44304 -3.29763 0
M  V30 608 H 57.9359 3.43878 -1.91079 0
M  V30 609 H 59.9509 4.676 -1.66027 0
M  V30 610 N 59.124 1.23083 0.984299 0
M  V30 611 C 60.071 1.00854 2.07598 0
M  V30 612 C 61.041 -0.0726709 1.65941 0
M  V30 613 O 62.226 0.0786535 1.90638 0
M  V30 614 C 59.366 0.601645 3.39815 0
M  V30 615 C 58.479 1.75456 3.94765 0
M  V30 616 C 57.614 1.29482 5.15177 0
M  V30 617 C 56.653 2.41873 5.62284 0
M  V30 618 N 55.79 1.96885 6.73929 0
M  V30 619 H 60.63 1.943 2.25946 0
M  V30 620 H 58.167 0.968001 1.10762 0
M  V30 621 H 60.125 0.346854 4.15756 0
M  V30 622 H 58.755 -0.295803 3.21442 0
M  V30 623 H 57.807 2.12346 3.15616 0
M  V30 624 H 59.119 2.59965 4.25699 0
M  V30 625 H 58.273 0.997923 5.98437 0
M  V30 626 H 57.012 0.420046 4.85888 0
M  V30 627 H 56.017 2.72342 4.77608 0
M  V30 628 H 57.242 3.29881 5.93595 0
M  V30 629 H 55.188 1.11782 6.46406 0
M  V30 630 H 55.105 2.74956 7.04227 0
M  V30 631 H 56.373 1.70289 7.60672 0
M  V30 632 N 60.6021 -1.18246 1.0419 0
M  V30 633 C 61.8301 -1.92195 0.766072 0
M  V30 634 C 62.2451 -1.76247 -0.676933 0
M  V30 635 O 61.6021 -1.09293 -1.46155 0
M  V30 636 C 61.6531 -3.43568 1.12442 0
M  V30 637 O 61.3741 -3.59015 2.51078 0
M  V30 638 C 62.8751 -4.34613 0.873275 0
M  V30 639 H 60.0951 -0.610114 0.279288 0
M  V30 640 H 62.6391 -1.50007 1.38989 0
M  V30 641 H 60.7941 -3.8354 0.545542 0
M  V30 642 H 61.2081 -4.5273 2.64831 0
M  V30 643 H 62.6821 -5.39374 1.17385 0
M  V30 644 H 63.1591 -4.38781 -0.191909 0
M  V30 645 H 63.7651 -4.00341 1.43551 0
M  V30 646 N 62.0802 -0.821533 -1.34494 0
M  V30 647 C 63.0272 -0.240397 -2.29545 0
M  V30 648 C 63.9972 0.634031 -1.53523 0
M  V30 649 O 65.1822 0.575966 -1.81899 0
M  V30 650 C 62.3222 0.592869 -3.39969 0
M  V30 651 C 61.4352 -0.30365 -4.30932 0
M  V30 652 C 60.5702 0.539049 -5.28458 0
M  V30 653 C 59.6092 -0.356942 -6.11058 0
M  V30 654 N 58.7462 0.446603 -7.00678 0
M  V30 655 H 63.5862 -1.05632 -2.7865 0
M  V30 656 H 61.1232 -0.532413 -1.37127 0
M  V30 657 H 63.0812 1.09129 -4.02675 0
M  V30 658 H 61.7112 1.37392 -2.92102 0
M  V30 659 H 60.7632 -0.920276 -3.691 0
M  V30 660 H 62.0752 -0.992661 -4.88823 0
M  V30 661 H 61.2292 1.102 -5.96608 0
M  V30 662 H 59.9682 1.26157 -4.71101 0
M  V30 663 H 58.9732 -0.932047 -5.41842 0
M  V30 664 H 60.1982 -1.07755 -6.70497 0
M  V30 665 H 58.1442 1.15282 -6.45791 0
M  V30 666 H 58.0612 -0.184048 -7.55776 0
M  V30 667 H 59.3292 0.992352 -7.73158 0
M  V30 668 N 63.5583 1.46682 -0.576371 0
M  V30 669 C 64.7833 2.07304 -0.0630475 0
M  V30 670 C 65.2083 1.42329 1.2298 0
M  V30 671 O 64.5663 0.504865 1.74129 0
M  V30 672 C 64.6143 3.60472 0.095895 0
M  V30 673 O 63.7183 3.95927 1.15394 0
M  V30 674 H 63.0593 0.661288 -0.0599463 0
M  V30 675 H 65.5893 1.88417 -0.797511 0
M  V30 676 H 65.5993 4.06865 0.304071 0
M  V30 677 H 64.2743 4.07157 -0.84828 0
M  V30 678 H 62.8513 3.61252 0.924724 0
M  V30 679 N 65.0364 0.313813 1.54444 0
M  V30 680 C 66.2824 -0.292108 2.00685 0
M  V30 681 C 66.6154 -1.52548 1.20177 0
M  V30 682 O 65.8904 -1.92452 0.281531 0
M  V30 683 C 66.1734 -0.635968 3.5444 0
M  V30 684 C 66.0264 0.607437 4.4568 0
M  V30 685 C 67.3454 -1.45747 4.15266 0
M  V30 686 H 64.4644 -0.104697 0.729526 0
M  V30 687 H 67.1064 0.428457 1.85106 0
M  V30 688 H 65.2564 -1.24986 3.67846 0
M  V30 689 H 66.9284 1.24581 4.44159 0
M  V30 690 H 65.1714 1.23822 4.15753 0
M  V30 691 H 65.8424 0.322515 5.51057 0
M  V30 692 H 68.3184 -0.938645 4.05375 0
M  V30 693 H 67.1944 -1.66683 5.2298 0
M  V30 694 H 67.4554 -2.45063 3.67963 0
M  V30 695 N 66.5145 -1.57545 0.0417849 0
M  V30 696 C 67.7395 -1.97035 -0.647455 0
M  V30 697 C 68.1645 -0.918775 -1.64135 0
M  V30 698 O 67.5225 0.119006 -1.80909 0
M  V30 699 C 67.5705 -3.35609 -1.31905 0
M  V30 700 O 66.6745 -3.3287 -2.43457 0
M  V30 701 H 66.0155 -0.64211 -0.169086 0
M  V30 702 H 68.5455 -2.04318 0.107399 0
M  V30 703 H 68.5555 -3.72126 -1.67291 0
M  V30 704 H 67.2305 -4.11685 -0.590586 0
M  V30 705 H 65.8075 -3.08087 -2.10088 0
M  V30 706 N 67.9926 0.231505 -1.5589 0
M  V30 707 C 68.9026 1.308 -1.94752 0
M  V30 708 C 69.9186 1.51826 -0.849989 0
M  V30 709 O 71.0946 1.6515 -1.15271 0
M  V30 710 C 68.1596 2.63968 -2.24771 0
M  V30 711 C 67.2206 2.51331 -3.48039 0
M  V30 712 C 66.4536 3.78148 -3.76616 0
M  V30 713 O 66.6766 4.80722 -3.07022 0
M  V30 714 O 65.6106 3.75857 -4.70123 0
M  V30 715 H 69.4366 1.0083 -2.86474 0
M  V30 716 H 67.0216 0.433547 -1.42971 0
M  V30 717 H 68.9036 3.42633 -2.45318 0
M  V30 718 H 67.5786 2.9364 -1.36225 0
M  V30 719 H 66.4856 1.709 -3.32782 0
M  V30 720 H 67.8186 2.26601 -4.36936 0
M  V30 721 N 69.4707 1.49531 0.497807 0
M  V30 722 C 70.4187 1.66926 1.61983 0
M  V30 723 C 71.4127 0.535167 1.60724 0
M  V30 724 O 72.6187 0.714896 1.65195 0
M  V30 725 H 68.9937 0.526415 0.537021 0
M  V30 726 H 70.9647 2.61098 1.44465 0
M  V30 727 C 69.7137 1.75602 3.00099 0
M  V30 728 H 69.0367 2.62244 3.01775 0
M  V30 729 H 70.4767 1.91807 3.78135 0
M  V30 730 C 68.9357 0.501543 3.33146 0
M  V30 731 O 69.4657 -0.371342 3.9998 0
M  V30 732 N 67.6717 0.363531 2.88317 0
M  V30 733 H 67.2187 1.07485 2.34104 0
M  V30 734 H 67.1767 -0.474728 3.10795 0
M  V30 735 N 70.9488 -0.749086 1.3866 0
M  V30 736 C 71.8588 -1.89358 1.38494 0
M  V30 737 C 72.8748 -1.71708 0.281476 0
M  V30 738 O 74.0508 -1.94554 0.520643 0
M  V30 739 C 71.1158 -3.24782 1.21316 0
M  V30 740 C 70.1768 -3.54926 2.41508 0
M  V30 741 C 69.4098 -4.83888 2.2514 0
M  V30 742 O 69.6328 -5.56592 1.24746 0
M  V30 743 O 68.5668 -5.13612 3.13826 0
M  V30 744 H 72.3928 -1.92452 2.34938 0
M  V30 745 H 69.9778 -0.894981 1.19626 0
M  V30 746 H 71.8598 -4.05739 1.13814 0
M  V30 747 H 70.5348 -3.2249 0.279592 0
M  V30 748 H 69.4418 -2.74112 2.54585 0
M  V30 749 H 70.7748 -3.61983 3.3351 0
M  V30 750 N 72.4269 -1.23603 -0.977757 0
M  V30 751 C 73.6549 -1.09646 -1.75458 0
M  V30 752 C 74.0699 0.351859 -1.85492 0
M  V30 753 O 73.4269 1.24327 -1.336 0
M  V30 754 C 73.4779 -1.71895 -3.18016 0
M  V30 755 O 73.1989 -3.11063 -3.08498 0
M  V30 756 C 74.6999 -1.63415 -4.12081 0
M  V30 757 H 71.9199 -0.38359 -0.550545 0
M  V30 758 H 74.4639 -1.63507 -1.22824 0
M  V30 759 H 72.6189 -1.22061 -3.67668 0
M  V30 760 H 73.0329 -3.41305 -3.9826 0
M  V30 761 H 74.5069 -2.11669 -5.09804 0
M  V30 762 H 74.9839 -0.593462 -4.35172 0
M  V30 763 H 75.5899 -2.12628 -3.68334 0
M  V30 764 N 73.905 1.17692 -1.04816 0
M  V30 765 C 75.13 1.92327 -0.776207 0
M  V30 766 C 75.555 1.76082 0.661581 0
M  V30 767 O 74.913 1.076 1.45917 0
M  V30 768 C 74.961 3.41539 -1.15687 0
M  V30 769 O 74.065 4.11402 -0.286775 0
M  V30 770 H 73.406 0.599735 -0.284981 0
M  V30 771 H 75.936 1.49201 -1.4 0
M  V30 772 H 75.946 3.92269 -1.12202 0
M  V30 773 H 74.621 3.52684 -2.20425 0
M  V30 774 H 73.198 3.70939 -0.381903 0
M  V30 775 N 75.3831 0.828654 1.34056 0
M  V30 776 C 76.3301 0.252567 2.29414 0
M  V30 777 C 77.3001 -0.62588 1.53857 0
M  V30 778 O 78.4851 -0.566312 1.82202 0
M  V30 779 C 75.6251 -0.574831 3.40279 0
M  V30 780 C 74.7381 0.326499 4.30764 0
M  V30 781 C 73.8731 -0.511016 5.28736 0
M  V30 782 C 72.9121 0.389342 6.1086 0
M  V30 783 N 72.0491 -0.409439 7.00905 0
M  V30 784 H 76.8891 1.07108 2.78086 0
M  V30 785 H 74.4261 0.539677 1.36843 0
M  V30 786 H 76.3841 -1.06992 4.03248 0
M  V30 787 H 75.0141 -1.35841 2.92826 0
M  V30 788 H 74.0661 0.939837 3.68607 0
M  V30 789 H 75.3781 1.01857 4.88289 0
M  V30 790 H 74.5321 -1.07035 5.97184 0
M  V30 791 H 73.2711 -1.23657 4.71763 0
M  V30 792 H 72.2761 0.960769 5.4134 0
M  V30 793 H 73.5011 1.1131 6.69916 0
M  V30 794 H 71.4471 -1.11856 6.46393 0
M  V30 795 H 71.3641 0.224126 7.55668 0
M  V30 796 H 72.6321 -0.951336 7.73673 0
M  V30 797 N 76.8612 -1.46375 0.584142 0
M  V30 798 C 77.8082 -2.30323 -0.148286 0
M  V30 799 C 78.7782 -1.40703 -0.882713 0
M  V30 800 O 79.9632 -1.69651 -0.873099 0
M  V30 801 C 77.1032 -3.25196 -1.15507 0
M  V30 802 C 76.2162 -4.29915 -0.423943 0
M  V30 803 C 75.3512 -5.11914 -1.41838 0
M  V30 804 C 74.3902 -6.08381 -0.673736 0
M  V30 805 N 73.5272 -6.83242 -1.6163 0
M  V30 806 H 78.3672 -2.92427 0.573644 0
M  V30 807 H 75.9042 -1.44118 0.294703 0
M  V30 808 H 77.8622 -3.78646 -1.75166 0
M  V30 809 H 76.4922 -2.64898 -1.8447 0
M  V30 810 H 75.5442 -3.7931 0.287714 0
M  V30 811 H 76.8562 -4.98549 0.158128 0
M  V30 812 H 76.0102 -5.69648 -2.08773 0
M  V30 813 H 74.7492 -4.43243 -2.03438 0
M  V30 814 H 73.7542 -5.49799 0.00938483 0
M  V30 815 H 74.9792 -6.79071 -0.0631082 0
M  V30 816 H 72.9252 -6.1728 -2.22038 0
M  V30 817 H 72.8422 -7.48144 -1.08707 0
M  V30 818 H 74.1102 -7.45534 -2.27596 0
M  V30 819 N 78.3393 -0.321999 -1.54275 0
M  V30 820 C 79.2873 0.560206 -2.25753 0
M  V30 821 C 80.2813 1.11984 -1.27106 0
M  V30 822 O 81.4873 1.06806 -1.44888 0
M  V30 823 H 77.8623 0.199304 -0.725108 0
M  V30 824 H 79.8333 -0.0649365 -2.98329 0
M  V30 825 C 78.5823 1.71023 -3.02731 0
M  V30 826 H 77.9053 1.28885 -3.78456 0
M  V30 827 H 79.3453 2.30314 -3.55993 0
M  V30 828 C 77.8043 2.62692 -2.10938 0
M  V30 829 O 78.3343 3.64364 -1.6912 0
M  V30 830 N 76.5403 2.30891 -1.76459 0
M  V30 831 H 76.0873 1.48253 -2.10663 0
M  V30 832 H 76.0453 2.92487 -1.1532 0
M  V30 833 N 79.8174 1.5752 -0.0501392 0
M  V30 834 C 80.7274 2.14952 0.939827 0
M  V30 835 C 81.7434 1.10706 1.34239 0
M  V30 836 O 82.9194 1.42869 1.41952 0
M  V30 837 C 79.9844 2.68232 2.19665 0
M  V30 838 C 79.0454 3.87272 1.85253 0
M  V30 839 C 78.2784 4.38002 3.04943 0
M  V30 840 O 78.5014 3.87811 4.18281 0
M  V30 841 O 77.4354 5.29602 2.86017 0
M  V30 842 H 81.2614 2.9986 0.481392 0
M  V30 843 H 78.8464 1.4841 0.171699 0
M  V30 844 H 80.7284 3.02475 2.93406 0
M  V30 845 H 79.4034 1.86395 2.64648 0
M  V30 846 H 78.3104 3.5792 1.0883 0
M  V30 847 H 79.6434 4.70336 1.4507 0
M  V30 848 N 81.2955 -0.223234 1.56011 0
M  V30 849 C 82.2055 -1.29766 1.95443 0
M  V30 850 C 83.2215 -1.51373 0.858028 0
M  V30 851 O 84.3975 -1.64536 1.16146 0
M  V30 852 C 81.4625 -2.62772 2.26167 0
M  V30 853 C 80.5235 -2.49482 3.49367 0
M  V30 854 C 79.7565 -3.76145 3.78616 0
M  V30 855 O 79.9795 -4.79087 3.09568 0
M  V30 856 O 78.9135 -3.73358 4.72109 0
M  V30 857 H 82.7395 -0.99309 2.87004 0
M  V30 858 H 80.3245 -0.425958 1.43199 0
M  V30 859 H 82.2065 -3.41327 2.47131 0
M  V30 860 H 80.8815 -2.92913 1.37781 0
M  V30 861 H 79.7885 -1.69133 3.33684 0
M  V30 862 H 81.1215 -2.2428 4.38131 0
M  V30 863 N 82.7736 -1.49793 -0.48987 0
M  V30 864 C 84.0196 -1.60078 -1.24511 0
M  V30 865 C 84.3526 -0.291608 -1.91998 0
M  V30 866 O 83.6276 0.705647 -1.81248 0
M  V30 867 C 83.9106 -2.76791 -2.30345 0
M  V30 868 C 83.7636 -4.17535 -1.67286 0
M  V30 869 C 85.0826 -2.89111 -3.31817 0
M  V30 870 H 82.2016 -0.582645 -0.451324 0
M  V30 871 H 84.8436 -1.82117 -0.541612 0
M  V30 872 H 82.9936 -2.5813 -2.90346 0
M  V30 873 H 84.6656 -4.4774 -1.11026 0
M  V30 874 H 82.9086 -4.22665 -0.976577 0
M  V30 875 H 83.5796 -4.95094 -2.44103 0
M  V30 876 H 86.0556 -3.06133 -2.81819 0
M  V30 877 H 84.9316 -3.72433 -4.03219 0
M  V30 878 H 85.1926 -1.9893 -3.94815 0
M  V30 879 N 84.2517 0.741722 -1.39055 0
M  V30 880 C 85.1847 1.86416 -1.31622 0
M  V30 881 C 86.1627 1.61473 -0.191076 0
M  V30 882 O 87.3467 1.84825 -0.370399 0
M  V30 883 C 84.4737 3.22266 -1.04221 0
M  V30 884 C 83.5197 3.66079 -2.18834 0
M  V30 885 S 84.3527 3.7623 -3.81066 0
M  V30 886 C 85.5087 5.14881 -3.55877 0
M  V30 887 H 85.7417 1.92437 -2.26617 0
M  V30 888 H 83.2747 0.905907 -1.25031 0
M  V30 889 H 85.2327 4.00714 -0.890964 0
M  V30 890 H 83.8937 3.1391 -0.109237 0
M  V30 891 H 83.0867 4.64648 -1.95238 0
M  V30 892 H 82.6887 2.94817 -2.30128 0
M  V30 893 H 84.9807 6.01006 -3.12726 0
M  V30 894 H 85.9237 5.43503 -4.53884 0
M  V30 895 H 86.3317 4.84239 -2.90126 0
M  V30 896 N 85.7298 1.2412 0.971189 0
M  V30 897 C 86.9578 1.10575 1.74874 0
M  V30 898 C 87.3728 -0.342017 1.85676 0
M  V30 899 O 86.7298 -1.23617 1.34258 0
M  V30 900 C 86.7808 1.73579 3.171 0
M  V30 901 O 86.5018 3.12695 3.06844 0
M  V30 902 C 88.0028 1.65598 4.11208 0
M  V30 903 H 85.2228 0.386504 0.548503 0
M  V30 904 H 87.7668 1.64156 1.21955 0
M  V30 905 H 85.9218 1.24009 3.67016 0
M  V30 906 H 86.3358 3.43412 3.96445 0
M  V30 907 H 87.8098 2.1437 5.08674 0
M  V30 908 H 88.2868 0.616532 4.34851 0
M  V30 909 H 88.8928 2.14578 3.67201 0
M  V30 910 N 87.2079 -1.17134 1.05439 0
M  V30 911 C 88.1579 -2.1919 0.627675 0
M  V30 912 C 89.1419 -1.57328 -0.337147 0
M  V30 913 O 90.3339 -1.76329 -0.153976 0
M  V30 914 C 87.4629 -3.43299 0.00651435 0
M  V30 915 C 86.5489 -4.12255 0.995312 0
M  V30 916 N 86.9399 -4.56997 2.16765 0
M  V30 917 C 85.2379 -4.38316 0.824336 0
M  V30 918 C 85.9389 -5.10239 2.7934 0
M  V30 919 N 84.9149 -5.02595 2.07122 0
M  V30 920 H 88.7169 -2.5149 1.52086 0
M  V30 921 H 86.2309 -1.33491 0.924868 0
M  V30 922 H 88.2279 -4.15693 -0.316965 0
M  V30 923 H 86.8879 -3.1249 -0.882033 0
M  V30 924 H 87.8989 -4.51006 2.54587 0
M  V30 925 H 84.5759 -4.17498 -0.0129526 0
M  V30 926 H 85.9659 -5.54961 3.78772 0
M  V30 927 N 88.686 -0.835752 -1.33615 0
M  V30 928 C 89.911 -0.442389 -2.02627 0
M  V30 929 C 90.336 0.947735 -1.62479 0
M  V30 930 O 89.694 1.61907 -0.815826 0
M  V30 931 C 89.742 -0.567216 -3.56111 0
M  V30 932 O 88.846 0.407799 -4.10379 0
M  V30 933 H 88.187 -0.180278 -0.639059 0
M  V30 934 H 90.717 -1.12972 -1.70583 0
M  V30 935 H 90.727 -0.447708 -4.05536 0
M  V30 936 H 89.402 -1.58103 -3.84677 0
M  V30 937 H 87.979 0.246107 -3.72087 0
M  V30 938 N 90.1641 1.46063 -0.591896 0
M  V30 939 C 91.4121 2.01938 -0.0808391 0
M  V30 940 C 91.7331 1.46475 1.28725 0
M  V30 941 O 91.0031 0.652944 1.84698 0
M  V30 942 H 89.5831 0.746516 -0.0268938 0
M  V30 943 H 92.2451 1.79055 -0.769752 0
M  V30 944 H 91.3411 3.12094 -0.0187578 0
M  V30 945 N 91.6422 0.330177 1.54103 0
M  V30 946 C 92.5722 -0.525353 2.27513 0
M  V30 947 C 93.5532 -1.11383 1.2856 0
M  V30 948 O 94.7382 -1.13773 1.57383 0
M  V30 949 C 91.8682 -1.6831 3.03791 0
M  V30 950 C 90.8222 -1.2236 4.10137 0
M  V30 951 C 90.1482 -2.46882 4.74293 0
M  V30 952 C 91.4482 -0.333697 5.21233 0
M  V30 953 H 93.1422 0.087013 2.99274 0
M  V30 954 H 90.6882 0.0432893 1.43935 0
M  V30 955 H 92.6412 -2.28795 3.5388 0
M  V30 956 H 91.3652 -2.32216 2.29659 0
M  V30 957 H 90.0242 -0.64165 3.60941 0
M  V30 958 H 89.6722 -3.09165 3.96769 0
M  V30 959 H 89.3722 -2.16825 5.46133 0
M  V30 960 H 90.8962 -3.08117 5.27159 0
M  V30 961 H 92.3102 -0.845013 5.67038 0
M  V30 962 H 90.7072 -0.125612 5.99969 0
M  V30 963 H 91.7772 0.633724 4.80741 0
M  V30 964 N 93.1203 -1.57491 0.0584922 0
M  V30 965 C 94.3663 -1.94081 -0.608617 0
M  V30 966 C 94.7213 -0.937438 -1.68017 0
M  V30 967 O 94.0143 0.0423034 -1.91553 0
M  V30 968 C 94.2083 -3.3513 -1.24188 0
M  V30 969 C 94.0373 -4.49095 -0.233187 0
M  V30 970 C 92.8073 -5.04988 0.177439 0
M  V30 971 C 95.0053 -5.1162 0.524306 0
M  V30 972 N 92.9873 -6.02487 1.17823 0
M  V30 973 C 94.3583 -6.04493 1.37796 0
M  V30 974 C 96.4133 -4.94489 0.581822 0
M  V30 975 C 95.1163 -6.82075 2.28399 0
M  V30 976 C 97.1423 -5.72703 1.47531 0
M  V30 977 C 96.5043 -6.65214 2.31667 0
M  V30 978 H 92.6033 -0.75752 -0.194134 0
M  V30 979 H 95.1873 -1.94248 0.132533 0
M  V30 980 H 93.3583 -3.35726 -1.95302 0
M  V30 981 H 95.0903 -3.5899 -1.86838 0
M  V30 982 H 91.8453 -4.73165 -0.203004 0
M  V30 983 H 92.2693 -6.55933 1.67573 0
M  V30 984 H 96.9113 -4.22765 -0.054443 0
M  V30 985 H 94.6293 -7.53085 2.93067 0
M  V30 986 H 98.2153 -5.61472 1.52448 0
M  V30 987 H 97.0953 -7.24679 2.99683 0
M  V30 988 N 94.5984 0.214957 -1.56127 0
M  V30 989 C 96.0144 0.564948 -1.49267 0
M  V30 990 C 96.2144 1.86827 -0.754838 0
M  V30 991 O 95.2704 2.50745 -0.297198 0
M  V30 992 C 96.5834 0.638071 -2.93852 0
M  V30 993 C 98.1314 0.728253 -3.0441 0
M  V30 994 C 98.6064 0.832663 -4.50367 0
M  V30 995 N 100.097 0.896712 -4.54437 0
M  V30 996 C 100.832 0.997324 -5.6466 0
M  V30 997 N 100.328 1.06147 -6.8462 0
M  V30 998 N 102.121 1.03297 -5.52527 0
M  V30 999 H 94.2724 -0.640211 -2.02522 0
M  V30 1000 H 96.5354 -0.225507 -0.920788 0
M  V30 1001 H 96.2414 -0.250126 -3.50809 0
M  V30 1002 H 96.1154 1.49947 -3.46115 0
M  V30 1003 H 98.5024 1.60689 -2.47514 0
M  V30 1004 H 98.5834 -0.158952 -2.55306 0
M  V30 1005 H 98.2274 -0.0415417 -5.07883 0
M  V30 1006 H 98.1574 1.73538 -4.97184 0
M  V30 1007 H 100.648 0.857188 -3.6805 0
M  V30 1008 H 100.961 1.1382 -7.64372 0
M  V30 1009 H 99.3064 1.03049 -6.87318 0
M  V30 1010 H 102.497 0.979558 -4.57736 0
M  V30 1011 H 102.67 1.10793 -6.38458 0
M  V30 1012 N 96.0765 1.50051 0.48192 0
M  V30 1013 C 97.3045 1.64237 1.25832 0
M  V30 1014 C 97.7195 0.321336 1.86045 0
M  V30 1015 O 97.0765 -0.695478 1.68729 0
M  V30 1016 C 97.1275 2.72548 2.37487 0
M  V30 1017 O 96.8485 3.99529 1.79745 0
M  V30 1018 C 98.3495 2.9761 3.28547 0
M  V30 1019 H 95.5695 0.55237 0.380957 0
M  V30 1020 H 98.1135 1.96207 0.576467 0
M  V30 1021 H 96.2685 2.43303 3.01467 0
M  V30 1022 H 96.6825 4.59342 2.5319 0
M  V30 1023 H 98.1565 3.77084 4.03127 0
M  V30 1024 H 98.6335 2.0826 3.86684 0
M  V30 1025 H 99.2395 3.28345 2.70314 0
M  V30 1026 N 97.5546 -0.734337 1.39446 0
M  V30 1027 C 98.7946 -1.50655 1.38139 0
M  V30 1028 C 99.1586 -1.91986 -0.0228701 0
M  V30 1029 O 100.36 -2.68318 -0.160947 0
M  V30 1030 C 98.6306 -2.71251 2.32718 0
M  V30 1031 S 100.19 -3.60892 2.49605 0
M  V30 1032 H 97.0076 -0.515315 0.489869 0
M  V30 1033 H 99.6096 -0.860392 1.75549 0
M  V30 1034 H 98.3136 -2.39027 3.33608 0
M  V30 1035 H 97.8446 -3.40795 1.96526 0
M  V30 1036 H 99.8596 -4.64899 1.73446 0
M  V30 1037 N 99.0327 -1.24633 -0.964593 0
M  V30 1038 C 100.273 -1.09981 -1.72289 0
M  V30 1039 C 100.637 0.354792 -1.88693 0
M  V30 1040 O 101.838 0.62289 -2.61483 0
M  V30 1041 C 100.109 -1.82262 -3.07434 0
M  V30 1042 S 101.668 -1.83379 -3.98645 0
M  V30 1043 H 98.4857 -0.393292 -0.59232 0
M  V30 1044 H 101.088 -1.58009 -1.15123 0
M  V30 1045 H 99.7917 -2.87206 -2.93157 0
M  V30 1046 H 99.3227 -1.3458 -3.69664 0
M  V30 1047 H 101.338 -0.903691 -4.87901 0
M  V30 1048 N 100.511 1.16574 -1.06058 0
M  V30 1049 C 101.441 2.23057 -0.690488 0
M  V30 1050 C 102.422 1.67141 0.315901 0
M  V30 1051 O 103.607 1.93253 0.191556 0
M  V30 1052 C 100.737 3.47222 -0.073625 0
M  V30 1053 C 99.6908 4.16016 -1.00573 0
M  V30 1054 C 99.0168 5.34104 -0.252289 0
M  V30 1055 C 100.317 4.67264 -2.33371 0
M  V30 1056 H 102.011 2.54271 -1.58072 0
M  V30 1057 H 99.5568 1.22218 -0.76149 0
M  V30 1058 H 101.51 4.20939 0.19714 0
M  V30 1059 H 100.234 3.15302 0.85161 0
M  V30 1060 H 98.8928 3.44223 -1.2612 0
M  V30 1061 H 98.5408 4.98437 0.675988 0
M  V30 1062 H 98.2408 5.81072 -0.873455 0
M  V30 1063 H 99.7648 6.10599 0.0109857 0
M  V30 1064 H 101.179 5.32573 -2.12223 0
M  V30 1065 H 99.5758 5.24843 -2.90963 0
M  V30 1066 H 100.646 3.83602 -2.96611 0
M  V30 1067 N 101.989 0.842826 1.3317 0
M  V30 1068 C 102.899 0.281444 2.32906 0
M  V30 1069 C 103.915 -0.594587 1.63526 0
M  V30 1070 O 105.091 -0.49777 1.95152 0
M  V30 1071 C 102.156 -0.530929 3.42611 0
M  V30 1072 C 101.217 0.369843 4.27704 0
M  V30 1073 C 100.45 -0.403853 5.3217 0
M  V30 1074 O 100.673 -1.63513 5.46461 0
M  V30 1075 O 99.6069 0.224199 6.01482 0
M  V30 1076 H 103.433 1.10744 2.82789 0
M  V30 1077 H 101.018 0.60545 1.36582 0
M  V30 1078 H 102.9 -0.992437 4.09547 0
M  V30 1079 H 101.575 -1.33392 2.94938 0
M  V30 1080 H 100.482 0.879275 3.6362 0
M  V30 1081 H 101.815 1.13771 4.78871 0
M  V30 1082 N 103.467 -1.45747 0.599634 0
M  V30 1083 C 104.715 -2.01893 0.0915472 0
M  V30 1084 C 105.036 -1.47155 -1.27946 0
M  V30 1085 O 104.306 -0.66273 -1.84349 0
M  V30 1086 H 102.886 -0.746363 0.0308524 0
M  V30 1087 H 105.548 -1.78645 0.779237 0
M  V30 1088 H 104.644 -3.1208 0.0353086 0
M  V30 1089 N 104.945 -0.338344 -1.53925 0
M  V30 1090 C 105.893 0.536231 -2.26335 0
M  V30 1091 C 106.887 1.1063 -1.28286 0
M  V30 1092 O 108.093 1.05264 -1.46012 0
M  V30 1093 H 104.468 0.191602 -0.727181 0
M  V30 1094 H 106.439 -0.0965747 -2.98244 0
M  V30 1095 C 105.188 1.67803 -3.04528 0
M  V30 1096 H 104.511 1.24864 -3.79801 0
M  V30 1097 H 105.951 2.26526 -3.58416 0
M  V30 1098 C 104.41 2.60439 -2.13712 0
M  V30 1099 O 104.94 3.6255 -1.72975 0
M  V30 1100 N 103.146 2.29006 -1.78898 0
M  V30 1101 H 102.693 1.46011 -2.12223 0
M  V30 1102 H 102.651 2.91248 -1.18416 0
M  V30 1103 N 106.423 1.57458 -0.0668435 0
M  V30 1104 C 107.67 1.93301 0.603406 0
M  V30 1105 C 107.998 0.946486 1.69917 0
M  V30 1106 O 107.253 -0.0387021 1.95662 0
M  V30 1107 C 107.552 3.35784 1.22409 0
M  V30 1108 C 107.218 4.50179 0.254955 0
M  V30 1109 C 105.88 4.81199 -0.0116746 0
M  V30 1110 C 108.232 5.19598 -0.408338 0
M  V30 1111 C 105.56 5.78978 -0.94877 0
M  V30 1112 C 107.912 6.18381 -1.33372 0
M  V30 1113 C 106.576 6.47821 -1.60887 0
M  V30 1114 H 105.846 0.707338 0.220802 0
M  V30 1115 H 108.493 1.91012 -0.136665 0
M  V30 1116 H 106.798 3.34515 2.03978 0
M  V30 1117 H 108.495 3.60804 1.74989 0
M  V30 1118 H 105.085 4.25983 0.472954 0
M  V30 1119 H 109.269 4.95832 -0.215456 0
M  V30 1120 H 104.525 6.00115 -1.16925 0
M  V30 1121 H 108.699 6.71277 -1.85367 0
M  V30 1122 H 106.326 7.23399 -2.33661 0
M  V30 1123 N 107.901 -0.206675 1.56239 0
M  V30 1124 C 108.848 -1.25617 1.93621 0
M  V30 1125 C 109.818 -1.45824 0.795274 0
M  V30 1126 O 111.003 -1.59148 1.05245 0
M  V30 1127 C 108.143 -2.59839 2.27107 0
M  V30 1128 C 107.256 -2.47308 3.54207 0
M  V30 1129 C 106.391 -3.74155 3.7707 0
M  V30 1130 C 105.43 -3.56407 4.97635 0
M  V30 1131 N 104.567 -4.75238 5.1681 0
M  V30 1132 H 109.407 -0.930383 2.83104 0
M  V30 1133 H 106.944 -0.448065 1.4011 0
M  V30 1134 H 108.902 -3.38021 2.44535 0
M  V30 1135 H 107.532 -2.90485 1.40778 0
M  V30 1136 H 106.584 -1.60483 3.4489 0
M  V30 1137 H 107.896 -2.30122 4.42544 0
M  V30 1138 H 107.05 -4.60778 3.94675 0
M  V30 1139 H 105.789 -3.94282 2.87042 0
M  V30 1140 H 104.794 -2.68168 4.79964 0
M  V30 1141 H 106.019 -3.37736 5.89161 0
M  V30 1142 H 103.965 -4.95651 4.29728 0
M  V30 1143 H 103.882 -4.60835 5.99306 0
M  V30 1144 H 105.15 -5.63246 5.38864 0
M  V30 1145 N 109.379 -1.50304 -0.473955 0
M  V30 1146 C 110.627 -1.60832 -1.22382 0
M  V30 1147 C 110.948 -0.30939 -1.9253 0
M  V30 1148 O 110.218 0.67296 -1.83978 0
M  V30 1149 H 108.798 -0.592652 -0.454723 0
M  V30 1150 H 111.46 -1.87068 -0.546968 0
M  V30 1151 H 110.556 -2.41803 -1.97327 0
M  V30 1152 N 110.857 0.726932 -1.39834 0
M  V30 1153 C 111.787 1.85405 -1.41941 0
M  V30 1154 C 112.768 1.67751 -0.281728 0
M  V30 1155 O 113.953 1.8795 -0.488717 0
M  V30 1156 C 111.083 3.23243 -1.2701 0
M  V30 1157 C 110.037 3.55549 -2.38262 0
M  V30 1158 C 109.363 4.9241 -2.08415 0
M  V30 1159 C 110.663 3.577 -3.80589 0
M  V30 1160 H 112.357 1.83899 -2.36266 0
M  V30 1161 H 109.903 0.883349 -1.13723 0
M  V30 1162 H 111.856 4.01775 -1.27103 0
M  V30 1163 H 110.58 3.25296 -0.291564 0
M  V30 1164 H 109.239 2.79351 -2.37399 0
M  V30 1165 H 108.887 4.91052 -1.0898 0
M  V30 1166 H 108.587 5.14992 -2.82943 0
M  V30 1167 H 110.111 5.73289 -2.10171 0
M  V30 1168 H 111.525 4.26293 -3.83337 0
M  V30 1169 H 109.922 3.91804 -4.54543 0
M  V30 1170 H 110.992 2.57328 -4.10987 0
M  V30 1171 N 112.336 1.25143 0.95797 0
M  V30 1172 C 113.576 1.10893 1.71703 0
M  V30 1173 C 113.94 -0.34478 1.88879 0
M  V30 1174 O 115.141 -0.609014 2.6181 0
M  V30 1175 C 113.412 1.83889 3.06463 0
M  V30 1176 S 114.971 1.85491 3.97666 0
M  V30 1177 H 111.789 0.396428 0.590226 0
M  V30 1178 H 114.391 1.58618 1.14283 0
M  V30 1179 H 113.095 2.88756 2.9163 0
M  V30 1180 H 112.626 1.36538 3.68946 0
M  V30 1181 H 114.641 0.929553 4.87415 0
M  V30 1182 N 113.814 -1.1601 1.06675 0
M  V30 1183 C 114.761 -2.20525 0.680967 0
M  V30 1184 C 115.731 -1.62904 -0.324283 0
M  V30 1185 O 116.916 -1.89615 -0.212294 0
M  V30 1186 C 114.056 -3.45013 0.0776551 0
M  V30 1187 C 113.169 -4.16863 1.13355 0
M  V30 1188 C 112.304 -5.2888 0.49597 0
M  V30 1189 C 111.343 -5.92537 1.53513 0
M  V30 1190 N 110.48 -6.96038 0.920631 0
M  V30 1191 H 115.32 -2.52876 1.57663 0
M  V30 1192 H 112.857 -1.24199 0.788223 0
M  V30 1193 H 114.815 -4.16193 -0.289704 0
M  V30 1194 H 113.445 -3.132 -0.781393 0
M  V30 1195 H 112.497 -3.44248 1.61857 0
M  V30 1196 H 113.809 -4.60294 1.92174 0
M  V30 1197 H 112.963 -6.06653 0.0758604 0
M  V30 1198 H 111.702 -4.86622 -0.324062 0
M  V30 1199 H 110.707 -5.13482 1.9651 0
M  V30 1200 H 111.932 -6.36873 2.35733 0
M  V30 1201 H 109.878 -6.55888 0.12138 0
M  V30 1202 H 109.795 -7.3786 1.64616 0
M  V30 1203 H 111.063 -7.77725 0.525795 0
M  V30 1204 N 115.292 -0.849877 -1.32721 0
M  V30 1205 C 116.224 -0.248332 -2.27851 0
M  V30 1206 C 117.237 0.577218 -1.52224 0
M  V30 1207 O 118.426 0.402489 -1.73903 0
M  V30 1208 C 115.526 0.668107 -3.32249 0
M  V30 1209 C 114.699 -0.120534 -4.37234 0
M  V30 1210 C 113.758 0.720932 -5.21238 0
M  V30 1211 O 112.784 0.156166 -5.68986 0
M  V30 1212 N 113.986 2.03647 -5.43607 0
M  V30 1213 H 116.751 -1.06575 -2.80111 0
M  V30 1214 H 114.312 -0.709395 -1.45531 0
M  V30 1215 H 116.304 1.23627 -3.85355 0
M  V30 1216 H 114.874 1.38621 -2.80184 0
M  V30 1217 H 114.094 -0.870108 -3.84477 0
M  V30 1218 H 115.382 -0.662406 -5.0447 0
M  V30 1219 H 114.78 2.51871 -5.06535 0
M  V30 1220 H 113.337 2.55287 -5.99727 0
M  V30 1221 N 116.77 1.45427 -0.607355 0
M  V30 1222 C 118.019 2.01452 -0.100036 0
M  V30 1223 C 118.332 1.48159 1.27704 0
M  V30 1224 O 119.538 1.96159 1.87707 0
M  V30 1225 C 117.994 3.59672 -0.128158 0
M  V30 1226 C 117.602 4.21962 -1.50507 0
M  V30 1227 C 119.346 4.23262 0.323932 0
M  V30 1228 C 117.253 5.72333 -1.48959 0
M  V30 1229 H 116.183 0.75325 -0.0336299 0
M  V30 1230 H 118.834 1.66901 -0.76265 0
M  V30 1231 H 117.216 3.91411 0.601105 0
M  V30 1232 H 118.39 4.01796 -2.25602 0
M  V30 1233 H 116.705 3.70565 -1.89923 0
M  V30 1234 H 119.302 5.33522 0.354691 0
M  V30 1235 H 119.645 3.93921 1.34656 0
M  V30 1236 H 120.178 3.96239 -0.352056 0
M  V30 1237 H 116.917 6.06373 -2.48981 0
M  V30 1238 H 116.437 5.94691 -0.781214 0
M  V30 1239 H 118.116 6.35525 -1.21313 0
M  V30 1240 N 118.248 0.346503 1.53744 0
M  V30 1241 C 119.525 -0.304532 1.93215 0
M  V30 1242 C 119.905 -1.67993 1.27834 0
M  V30 1243 O 119.253 -2.24411 0.430352 0
M  V30 1244 C 119.463 -0.373852 3.46992 0
M  V30 1245 C 120.811 -0.62329 4.2 0
M  V30 1246 O 121.835 -0.455847 3.53271 0
M  V30 1247 O 120.694 -0.947879 5.38217 0
M  V30 1248 H 117.788 -0.178318 0.807547 0
M  V30 1249 H 120.334 0.397895 1.64969 0
M  V30 1250 H 119.106 0.591224 3.86808 0
M  V30 1251 H 118.729 -1.12294 3.81413 0
M  V30 1252 N 119.726 -1.57421 0.075193 0
M  V30 1253 C 120.676 -2.09441 -0.901025 0
M  V30 1254 C 121.66 -1.00486 -1.25663 0
M  V30 1255 O 122.852 -1.2679 -1.23504 0
M  V30 1256 C 119.981 -2.66233 -2.16737 0
M  V30 1257 C 119.067 -3.82198 -1.83808 0
M  V30 1258 N 119.458 -4.91028 -1.21345 0
M  V30 1259 C 117.756 -3.91558 -2.13538 0
M  V30 1260 C 118.457 -5.71852 -1.06585 0
M  V30 1261 N 117.433 -5.20233 -1.57667 0
M  V30 1262 H 121.235 -2.90972 -0.413815 0
M  V30 1263 H 118.749 -1.6189 -0.128601 0
M  V30 1264 H 120.746 -3.01819 -2.87595 0
M  V30 1265 H 119.406 -1.8615 -2.66042 0
M  V30 1266 H 120.417 -5.10323 -0.88268 0
M  V30 1267 H 117.094 -3.22454 -2.65197 0
M  V30 1268 H 118.484 -6.69401 -0.578933 0
M  V30 1269 N 121.204 0.198386 -1.56346 0
M  V30 1270 C 122.451 0.919286 -1.80431 0
M  V30 1271 C 122.779 1.83393 -0.647866 0
M  V30 1272 O 122.034 1.92236 0.366556 0
M  V30 1273 C 122.333 1.77031 -3.10475 0
M  V30 1274 C 121.999 1.00693 -4.39513 0
M  V30 1275 C 120.661 0.796145 -4.74568 0
M  V30 1276 C 123.013 0.469559 -5.19081 0
M  V30 1277 C 120.341 0.0364588 -5.86689 0
M  V30 1278 C 122.693 -0.2769 -6.31994 0
M  V30 1279 C 121.357 -0.49873 -6.65634 0
M  V30 1280 H 120.627 0.336391 -0.660244 0
M  V30 1281 H 123.274 0.185872 -1.90596 0
M  V30 1282 H 121.579 2.5723 -2.95533 0
M  V30 1283 H 123.276 2.33065 -3.26315 0
M  V30 1284 H 119.866 1.18122 -4.12001 0
M  V30 1285 H 124.05 0.619816 -4.92414 0
M  V30 1286 H 119.306 -0.145412 -6.11227 0
M  V30 1287 H 123.48 -0.700684 -6.92866 0
M  V30 1288 H 121.107 -1.0893 -7.52355 0
M  V30 1289 N 122.682 1.50554 0.465978 0
M  V30 1290 C 124.093 1.54599 1.04671 0
M  V30 1291 C 124.444 0.352488 1.93008 0
M  V30 1292 O 123.569 -0.534044 2.09707 0
M  V30 1293 C 124.164 2.80166 1.90505 0
M  V30 1294 C 122.723 2.86876 2.43678 0
M  V30 1295 C 121.87 2.48947 1.22151 0
M  V30 1296 H 124.821 1.56744 0.248384 0
M  V30 1297 H 124.842 2.62311 2.75633 0
M  V30 1298 H 124.354 3.67013 1.26186 0
M  V30 1299 H 122.455 2.04393 3.11536 0
M  V30 1300 H 122.568 3.89885 2.78436 0
M  V30 1301 H 120.932 2.01498 1.5579 0
M  V30 1302 H 121.715 3.38107 0.594866 0
M  V30 1303 N 124.16 -0.719506 1.40217 0
M  V30 1304 C 125.07 -1.86378 1.42479 0
M  V30 1305 C 126.086 -1.71073 0.317834 0
M  V30 1306 O 127.262 -1.93406 0.561794 0
M  V30 1307 C 124.327 -3.22136 1.28178 0
M  V30 1308 C 123.388 -3.49723 2.48982 0
M  V30 1309 C 122.621 -4.79004 2.35353 0
M  V30 1310 O 122.844 -5.53821 1.36524 0
M  V30 1311 O 121.778 -5.06839 3.2465 0
M  V30 1312 H 125.604 -1.87425 2.38968 0
M  V30 1313 H 123.189 -0.869405 1.21498 0
M  V30 1314 H 125.071 -4.03234 1.22395 0
M  V30 1315 H 123.746 -3.21825 0.347934 0
M  V30 1316 H 122.653 -2.6865 2.60342 0
M  V30 1317 H 123.986 -3.54828 3.41113 0
M  V30 1318 N 125.638 -1.25649 -0.95132 0
M  V30 1319 C 126.915 -1.01361 -1.67288 0
M  V30 1320 C 127.295 0.459135 -2.06046 0
M  V30 1321 O 126.643 1.43723 -1.7764 0
M  V30 1322 C 126.853 -1.95256 -2.89268 0
M  V30 1323 C 128.201 -2.23289 -3.61147 0
M  V30 1324 O 129.225 -1.93041 -2.99355 0
M  V30 1325 O 128.084 -2.74741 -4.72419 0
M  V30 1326 H 125.178 -0.38464 -0.732107 0
M  V30 1327 H 127.724 -1.36817 -1.00395 0
M  V30 1328 H 126.496 -2.94685 -2.57442 0
M  V30 1329 H 126.119 -1.60218 -3.6389 0
M  V30 1330 N 127.117 1.15442 -1.07289 0
M  V30 1331 C 128.08 2.18358 -0.696591 0
M  V30 1332 C 129.08 1.58637 0.262837 0
M  V30 1333 O 130.27 1.74145 0.0438809 0
M  V30 1334 C 127.402 3.4089 -0.0266151 0
M  V30 1335 H 128.595 2.53162 -1.60776 0
M  V30 1336 H 126.148 1.29893 -0.869342 0
M  V30 1337 H 126.883 3.11653 0.896822 0
M  V30 1338 H 126.668 3.85495 -0.716657 0
M  V30 1339 H 128.158 4.17009 0.222028 0
M  V30 1340 N 128.595 0.856903 1.32268 0
M  V30 1341 C 129.872 0.382583 1.91822 0
M  V30 1342 C 130.252 -1.13407 1.78051 0
M  V30 1343 O 129.6 -1.95673 1.18001 0
M  V30 1344 C 129.81 0.849446 3.38505 0
M  V30 1345 C 131.158 0.867936 4.15634 0
M  V30 1346 O 132.182 0.794232 3.47232 0
M  V30 1347 O 131.041 0.972286 5.37781 0
M  V30 1348 H 128.135 0.112014 0.819379 0
M  V30 1349 H 130.681 0.943952 1.41024 0
M  V30 1350 H 129.453 1.89267 3.42482 0
M  V30 1351 H 129.076 0.265652 3.96712 0
M  V30 1352 N 130.073 -1.45103 0.615059 0
M  V30 1353 C 131.303 -2.06254 0.119596 0
M  V30 1354 C 131.711 -1.4591 -1.20445 0
M  V30 1355 O 131.054 -0.570384 -1.7462 0
M  V30 1356 C 131.116 -3.59396 -0.0865591 0
M  V30 1357 C 130.78 -4.42116 1.15683 0
M  V30 1358 C 131.777 -4.7662 2.07676 0
M  V30 1359 C 129.462 -4.82749 1.38775 0
M  V30 1360 C 131.456 -5.50622 3.21082 0
M  V30 1361 C 129.143 -5.56504 2.52481 0
M  V30 1362 C 130.141 -5.90358 3.43463 0
M  V30 1363 O 129.829 -6.62615 4.55189 0
M  V30 1364 H 129.561 -0.672423 0.0694512 0
M  V30 1365 H 132.115 -1.87219 0.844885 0
M  V30 1366 H 130.345 -3.76859 -0.866823 0
M  V30 1367 H 132.034 -4.02365 -0.534555 0
M  V30 1368 H 132.8 -4.4578 1.91063 0
M  V30 1369 H 128.679 -4.55829 0.688545 0
M  V30 1370 H 132.223 -5.76965 3.92119 0
M  V30 1371 H 128.12 -5.86759 2.69043 0
M  V30 1372 H 128.888 -6.81071 4.53966 0
M  V30 1373 N 131.551 -0.354651 -1.53558 0
M  V30 1374 C 132.461 0.50515 -2.29097 0
M  V30 1375 C 133.477 1.10223 -1.34636 0
M  V30 1376 O 134.653 1.11553 -1.67684 0
M  V30 1377 C 131.718 1.63479 -3.05738 0
M  V30 1378 C 130.779 1.06636 -4.15845 0
M  V30 1379 C 130.012 2.14217 -4.88822 0
M  V30 1380 O 130.235 3.35137 -4.61562 0
M  V30 1381 O 129.169 1.77887 -5.75013 0
M  V30 1382 H 132.995 -0.109237 -3.03503 0
M  V30 1383 H 130.58 -0.119357 -1.48922 0
M  V30 1384 H 132.462 2.2918 -3.5363 0
M  V30 1385 H 131.137 2.23478 -2.34178 0
M  V30 1386 H 130.044 0.373565 -3.7223 0
M  V30 1387 H 131.377 0.511081 -4.89539 0
M  V30 1388 N 133.029 1.57378 -0.0835403 0
M  V30 1389 C 133.992 2.12252 0.864959 0
M  V30 1390 C 134.992 1.04916 1.21858 0
M  V30 1391 O 136.182 1.30853 1.14991 0
M  V30 1392 C 133.314 2.63358 2.16461 0
M  V30 1393 H 134.507 2.97371 0.388676 0
M  V30 1394 H 132.06 1.55423 0.165317 0
M  V30 1395 H 132.795 1.81727 2.686 0
M  V30 1396 H 132.58 3.41826 1.92087 0
M  V30 1397 H 134.07 3.05847 2.84337 0
M  V30 1398 N 134.507 -0.190092 1.56449 0
M  V30 1399 C 135.784 -0.935886 1.71757 0
M  V30 1400 C 136.164 -2.01173 0.639726 0
M  V30 1401 O 135.512 -2.25827 -0.348502 0
M  V30 1402 C 135.722 -1.51775 3.1427 0
M  V30 1403 C 137.07 -1.99794 3.74656 0
M  V30 1404 O 138.094 -1.61607 3.1743 0
M  V30 1405 O 136.953 -2.70079 4.751 0
M  V30 1406 H 134.047 -0.439229 0.700719 0
M  V30 1407 H 136.593 -0.179395 1.68749 0
M  V30 1408 H 135.365 -0.742505 3.84191 0
M  V30 1409 H 134.988 -2.33894 3.21527 0
M  V30 1410 N 135.985 -1.50799 -0.457987 0
M  V30 1411 C 137.213 -1.66218 -1.23203 0
M  V30 1412 C 137.628 -0.350894 -1.85511 0
M  V30 1413 O 136.985 0.668546 -1.69814 0
M  V30 1414 C 137.036 -2.76291 -2.33121 0
M  V30 1415 O 136.757 -4.02338 -1.73366 0
M  V30 1416 C 138.258 -3.028 -3.2377 0
M  V30 1417 H 135.478 -0.558361 -0.372121 0
M  V30 1418 H 138.022 -1.97099 -0.545179 0
M  V30 1419 H 136.177 -2.48068 -2.97558 0
M  V30 1420 H 136.591 -4.63312 -2.4585 0
M  V30 1421 H 138.065 -3.8345 -3.97077 0
M  V30 1422 H 138.542 -2.14385 -3.83322 0
M  V30 1423 H 139.148 -3.32604 -2.65056 0
M  V30 1424 N 137.463 0.71206 -1.40597 0
M  V30 1425 C 138.426 1.80785 -1.40888 0
M  V30 1426 C 139.426 1.57937 -0.302103 0
M  V30 1427 O 140.616 1.64913 -0.561182 0
M  V30 1428 C 137.748 3.18927 -1.20409 0
M  V30 1429 H 138.941 1.81924 -2.38419 0
M  V30 1430 H 136.494 0.91805 -1.26497 0
M  V30 1431 H 137.229 3.23436 -0.236522 0
M  V30 1432 H 137.014 3.36911 -2.00582 0
M  V30 1433 H 138.504 3.98949 -1.23408 0
M  V30 1434 N 138.941 1.26152 0.944643 0
M  V30 1435 C 139.851 1.09176 2.07648 0
M  V30 1436 C 140.867 0.0261935 1.7398 0
M  V30 1437 O 142.043 0.229208 2.00091 0
M  V30 1438 C 139.108 0.722915 3.39079 0
M  V30 1439 C 138.169 1.86752 3.86552 0
M  V30 1440 C 137.402 1.51617 5.11711 0
M  V30 1441 O 137.625 0.416331 5.68879 0
M  V30 1442 O 136.559 2.34975 5.54139 0
M  V30 1443 H 140.385 2.0412 2.24875 0
M  V30 1444 H 137.97 1.05182 1.061 0
M  V30 1445 H 139.852 0.529787 4.18056 0
M  V30 1446 H 138.527 -0.197159 3.23099 0
M  V30 1447 H 137.434 2.11558 3.08535 0
M  V30 1448 H 138.767 2.76719 4.07047 0
M  V30 1449 N 140.419 -1.14872 1.07899 0
M  V30 1450 C 141.649 -1.89386 0.825631 0
M  V30 1451 C 142.057 -1.78565 -0.625406 0
M  V30 1452 O 141.4 -1.13918 -1.44113 0
M  V30 1453 C 141.462 -3.40206 1.16191 0
M  V30 1454 C 141.126 -3.74812 2.61467 0
M  V30 1455 C 142.123 -3.75367 3.59716 0
M  V30 1456 C 139.808 -4.0495 2.97189 0
M  V30 1457 C 141.802 -4.05574 4.9172 0
M  V30 1458 C 139.489 -4.34821 4.29388 0
M  V30 1459 C 140.487 -4.35116 5.26463 0
M  V30 1460 O 140.175 -4.64267 6.56286 0
M  V30 1461 H 139.907 -0.606894 0.297751 0
M  V30 1462 H 142.461 -1.46438 1.44031 0
M  V30 1463 H 140.691 -3.8358 0.490214 0
M  V30 1464 H 142.38 -3.96018 0.890193 0
M  V30 1465 H 143.146 -3.52176 3.33462 0
M  V30 1466 H 139.025 -4.03876 2.22273 0
M  V30 1467 H 142.569 -4.05719 5.67484 0
M  V30 1468 H 138.466 -4.5748 4.55392 0
M  V30 1469 H 139.234 -4.82007 6.61522 0
M  V30 1470 N 141.898 -0.863906 -1.31812 0
M  V30 1471 C 143.145 -0.471836 -1.96926 0
M  V30 1472 C 143.473 0.974578 -1.68322 0
M  V30 1473 O 142.728 1.7003 -0.968933 0
M  V30 1474 C 143.027 -0.668547 -3.51091 0
M  V30 1475 C 142.693 -2.08683 -3.99703 0
M  V30 1476 C 141.355 -2.47471 -4.12688 0
M  V30 1477 C 143.707 -3.01207 -4.25351 0
M  V30 1478 C 141.035 -3.78037 -4.4867 0
M  V30 1479 C 143.387 -4.31282 -4.62794 0
M  V30 1480 C 142.051 -4.69992 -4.73987 0
M  V30 1481 H 141.321 -0.172657 -0.720604 0
M  V30 1482 H 143.968 -1.09573 -1.57054 0
M  V30 1483 H 142.273 0.0385252 -3.91781 0
M  V30 1484 H 143.97 -0.345102 -3.99512 0
M  V30 1485 H 140.56 -1.77566 -3.90087 0
M  V30 1486 H 144.744 -2.72469 -4.14819 0
M  V30 1487 H 140 -4.078 -4.55532 0
M  V30 1488 H 144.174 -5.03031 -4.81594 0
M  V30 1489 H 141.801 -5.71207 -5.01624 0
M  V30 1490 N 143.376 1.44774 -0.622745 0
M  V30 1491 C 144.306 2.33382 0.0741861 0
M  V30 1492 C 145.287 1.47719 0.843387 0
M  V30 1493 O 146.472 1.76458 0.810934 0
M  V30 1494 C 143.602 3.30663 1.06204 0
M  V30 1495 C 142.556 4.26079 0.405037 0
M  V30 1496 C 141.882 5.13165 1.5022 0
M  V30 1497 C 143.182 5.1781 -0.683414 0
M  V30 1498 H 144.876 2.91905 -0.665713 0
M  V30 1499 H 142.422 1.40363 -0.321587 0
M  V30 1500 H 144.375 3.9153 1.55827 0
M  V30 1501 H 143.099 2.70331 1.83272 0
M  V30 1502 H 141.758 3.66532 -0.0704683 0
M  V30 1503 H 141.406 4.49191 2.26355 0
M  V30 1504 H 141.106 5.77812 1.06803 0
M  V30 1505 H 142.63 5.76902 2.00041 0
M  V30 1506 H 144.044 5.72661 -0.270631 0
M  V30 1507 H 142.441 5.91015 -1.04023 0
M  V30 1508 H 143.511 4.59326 -1.55395 0
M  V30 1509 N 144.854 0.36279 1.53368 0
M  V30 1510 C 146.27 0.0116182 1.59596 0
M  V30 1511 C 146.47 -1.47012 1.37803 0
M  V30 1512 O 145.526 -2.23136 1.18181 0
M  V30 1513 C 146.839 0.465052 2.97082 0
M  V30 1514 C 148.387 0.419033 3.10182 0
M  V30 1515 C 148.862 0.848235 4.50077 0
M  V30 1516 N 150.353 0.803183 4.56183 0
M  V30 1517 C 151.088 1.107 5.62613 0
M  V30 1518 N 150.584 1.47996 6.76808 0
M  V30 1519 N 152.377 1.02998 5.52583 0
M  V30 1520 H 144.528 1.32775 1.65785 0
M  V30 1521 H 146.791 0.542518 0.777417 0
M  V30 1522 H 146.497 1.49892 3.18159 0
M  V30 1523 H 146.371 -0.149786 3.76902 0
M  V30 1524 H 148.758 -0.605696 2.88817 0
M  V30 1525 H 148.839 1.06933 2.32377 0
M  V30 1526 H 148.483 1.87107 4.7218 0
M  V30 1527 H 148.413 0.175218 5.26308 0
M  V30 1528 H 150.904 0.52838 3.74188 0
M  V30 1529 H 151.217 1.69613 7.53957 0
M  V30 1530 H 149.562 1.51859 6.78206 0
M  V30 1531 H 152.753 0.737817 4.62249 0
M  V30 1532 H 152.926 1.2701 6.35431 0
M  V30 1533 N 146.332 -1.57332 0.0918853 0
M  V30 1534 C 147.295 -2.12708 -0.85369 0
M  V30 1535 C 148.295 -1.05561 -1.213 0
M  V30 1536 O 149.485 -1.31461 -1.14296 0
M  V30 1537 C 146.617 -2.64503 -2.15061 0
M  V30 1538 H 147.81 -2.97573 -0.3729 0
M  V30 1539 H 145.363 -1.55509 -0.157072 0
M  V30 1540 H 146.098 -1.83149 -2.67632 0
M  V30 1541 H 145.883 -3.4284 -1.90272 0
M  V30 1542 H 147.373 -3.07351 -2.82711 0
M  V30 1543 N 147.81 0.181792 -1.56548 0
M  V30 1544 C 149.056 0.901431 -1.81665 0
M  V30 1545 C 149.389 1.82347 -0.668075 0
M  V30 1546 O 148.664 1.91669 0.330615 0
M  V30 1547 C 148.947 1.70618 -3.17115 0
M  V30 1548 C 148.8 0.807964 -4.42484 0
M  V30 1549 C 150.119 2.67605 -3.49393 0
M  V30 1550 H 147.238 0.32627 -0.660846 0
M  V30 1551 H 149.88 0.168134 -1.89255 0
M  V30 1552 H 148.03 2.33133 -3.10775 0
M  V30 1553 H 149.702 0.19649 -4.60881 0
M  V30 1554 H 147.945 0.115411 -4.33646 0
M  V30 1555 H 148.616 1.40632 -5.33785 0
M  V30 1556 H 151.092 2.15218 -3.56118 0
M  V30 1557 H 149.968 3.20985 -4.45264 0
M  V30 1558 H 150.229 3.47298 -2.73563 0
M  V30 1559 N 149.288 1.51039 0.449983 0
M  V30 1560 C 150.704 1.38934 0.785462 0
M  V30 1561 C 150.904 0.461817 1.96136 0
M  V30 1562 O 149.96 -0.0877389 2.52348 0
M  V30 1563 C 151.273 2.80724 1.0777 0
M  V30 1564 C 152.821 2.89787 1.1829 0
M  V30 1565 C 153.296 4.32457 1.50815 0
M  V30 1566 N 154.787 4.35505 1.57764 0
M  V30 1567 C 155.522 5.42914 1.84477 0
M  V30 1568 N 155.018 6.60502 2.09068 0
M  V30 1569 N 156.811 5.3038 1.86155 0
M  V30 1570 H 148.962 2.09904 -0.324647 0
M  V30 1571 H 151.225 0.944378 -0.0827957 0
M  V30 1572 H 150.931 3.50531 0.286498 0
M  V30 1573 H 150.805 3.19273 2.00859 0
M  V30 1574 H 153.192 2.20186 1.96474 0
M  V30 1575 H 153.273 2.54752 0.231314 0
M  V30 1576 H 152.917 5.02603 0.731622 0
M  V30 1577 H 152.847 4.64995 2.47158 0
M  V30 1578 H 155.338 3.50724 1.40715 0
M  V30 1579 H 155.651 7.38158 2.28785 0
M  V30 1580 H 153.996 6.63639 2.06416 0
M  V30 1581 H 157.187 4.37505 1.66454 0
M  V30 1582 H 157.36 6.1417 2.06637 0
M  V30 1583 N 150.766 -0.704594 1.40972 0
M  V30 1584 C 151.729 -1.80035 1.41845 0
M  V30 1585 C 152.729 -1.57774 0.310474 0
M  V30 1586 O 153.919 -1.64613 0.56992 0
M  V30 1587 C 151.051 -3.18284 1.22098 0
M  V30 1588 H 152.244 -1.80658 2.3938 0
M  V30 1589 H 149.797 -0.911329 1.26982 0
M  V30 1590 H 150.532 -3.23306 0.253672 0
M  V30 1591 H 150.317 -3.35843 2.02366 0
M  V30 1592 H 151.807 -3.98289 1.25522 0
M  V30 1593 N 152.244 -1.26651 -0.937939 0
M  V30 1594 C 153.469 -1.15279 -1.72411 0
M  V30 1595 C 153.894 0.287866 -1.85884 0
M  V30 1596 O 153.252 1.20855 -1.35143 0
M  V30 1597 C 153.3 -1.83028 -3.10698 0
M  V30 1598 O 152.404 -1.12128 -3.96864 0
M  V30 1599 H 151.745 -0.401504 -0.528858 0
M  V30 1600 H 154.275 -1.67531 -1.1745 0
M  V30 1601 H 154.285 -1.89981 -3.6107 0
M  V30 1602 H 152.96 -2.87833 -3.00208 0
M  V30 1603 H 151.537 -1.13173 -3.55312 0
M  V30 1604 N 153.722 1.14298 -1.08507 0
M  V30 1605 C 154.947 1.8976 -0.837001 0
M  V30 1606 C 155.372 1.78097 0.605228 0
M  V30 1607 O 154.73 1.12188 1.4242 0
M  V30 1608 C 154.778 3.37685 -1.26495 0
M  V30 1609 O 153.882 4.10281 -0.417514 0
M  V30 1610 H 153.223 0.590365 -0.303917 0
M  V30 1611 H 155.753 1.44672 -1.44676 0
M  V30 1612 H 155.763 3.88501 -1.24625 0
M  V30 1613 H 154.438 3.45492 -2.31534 0
M  V30 1614 H 153.015 3.69536 -0.499722 0
M  V30 1615 N 155.201 0.870884 1.31352 0
M  V30 1616 C 156.45 0.478408 1.95944 0
M  V30 1617 C 156.763 -0.974493 1.69597 0
M  V30 1618 O 157.969 -1.47316 2.28058 0
M  V30 1619 C 156.425 0.804609 3.50791 0
M  V30 1620 C 156.033 2.27433 3.85977 0
M  V30 1621 C 157.777 0.480648 4.2177 0
M  V30 1622 C 155.684 2.5429 5.33939 0
M  V30 1623 H 154.614 0.175175 0.733369 0
M  V30 1624 H 157.265 1.06391 1.4951 0
M  V30 1625 H 155.647 0.148347 3.95722 0
M  V30 1626 H 156.821 2.97373 3.52002 0
M  V30 1627 H 155.136 2.56442 3.28065 0
M  V30 1628 H 157.733 0.658519 5.30629 0
M  V30 1629 H 158.076 -0.578979 4.12254 0
M  V30 1630 H 158.609 1.09349 3.82476 0
M  V30 1631 H 155.348 3.58939 5.48491 0
M  V30 1632 H 154.868 1.88945 5.69263 0
M  V30 1633 H 156.547 2.39066 6.01212 0
M  V30 1634 N 156.679 -1.44442 0.630414 0
M  V30 1635 C 157.926 -2.02052 0.134617 0
M  V30 1636 C 158.254 -1.49576 -1.24327 0
M  V30 1637 O 157.509 -0.669806 -1.83881 0
M  V30 1638 C 157.808 -3.57332 0.0697835 0
M  V30 1639 C 157.474 -4.29058 1.38635 0
M  V30 1640 C 156.136 -4.4837 1.74694 0
M  V30 1641 C 158.488 -4.69872 2.25543 0
M  V30 1642 C 155.816 -5.05756 2.97369 0
M  V30 1643 C 158.168 -5.28616 3.47487 0
M  V30 1644 C 156.832 -5.46147 3.8377 0
M  V30 1645 H 156.102 -0.739361 0.0492598 0
M  V30 1646 H 158.749 -1.73217 0.816586 0
M  V30 1647 H 157.054 -3.85577 -0.695553 0
M  V30 1648 H 158.751 -3.99637 -0.330344 0
M  V30 1649 H 155.341 -4.14357 1.09574 0
M  V30 1650 H 159.525 -4.54666 1.98979 0
M  V30 1651 H 154.781 -5.17515 3.25558 0
M  V30 1652 H 158.955 -5.59192 4.15063 0
M  V30 1653 H 156.582 -5.9038 4.7891 0
M  V30 1654 N 158.157 -0.370918 -1.53173 0
M  V30 1655 C 159.568 0.107139 -1.86392 0
M  V30 1656 C 159.919 1.47714 -1.29132 0
M  V30 1657 O 159.044 2.07464 -0.615439 0
M  V30 1658 C 159.639 0.201187 -3.38202 0
M  V30 1659 C 158.198 0.623507 -3.712 0
M  V30 1660 C 157.345 -0.225978 -2.76378 0
M  V30 1661 H 160.296 -0.58951 -1.47345 0
M  V30 1662 H 160.317 1.02377 -3.66468 0
M  V30 1663 H 159.829 -0.796058 -3.79848 0
M  V30 1664 H 157.93 1.62879 -3.35114 0
M  V30 1665 H 158.043 0.394414 -4.77474 0
M  V30 1666 H 156.407 0.305962 -2.52856 0
M  V30 1667 H 157.19 -1.22086 -3.20858 0
M  V30 1668 N 159.635 1.57281 -0.100228 0
M  V30 1669 C 160.884 1.93713 0.561984 0
M  V30 1670 C 161.197 0.984492 1.69018 0
M  V30 1671 O 162.403 1.24273 2.41389 0
M  V30 1672 C 160.859 3.4421 1.05106 0
M  V30 1673 C 160.467 4.47975 -0.0476628 0
M  V30 1674 C 162.211 3.89595 1.68571 0
M  V30 1675 C 160.118 5.89631 0.457055 0
M  V30 1676 H 159.048 0.723082 0.2137 0
M  V30 1677 H 161.699 1.82644 -0.177057 0
M  V30 1678 H 160.081 3.50449 1.84395 0
M  V30 1679 H 161.255 4.53385 -0.823333 0
M  V30 1680 H 159.57 4.1223 -0.587816 0
M  V30 1681 H 162.167 4.92832 2.07414 0
M  V30 1682 H 162.51 3.28526 2.55688 0
M  V30 1683 H 163.043 3.86078 0.958562 0
M  V30 1684 H 159.782 6.54411 -0.377616 0
M  V30 1685 H 159.302 5.87681 1.19962 0
M  V30 1686 H 160.981 6.40363 0.92437 0
M  V30 1687 N 161.113 -0.173488 1.56642 0
M  V30 1688 C 162.043 -1.2171 1.99271 0
M  V30 1689 C 163.024 -1.46289 0.867959 0
M  V30 1690 O 164.209 -1.5766 1.13388 0
M  V30 1691 C 161.339 -2.55651 2.35074 0
M  V30 1692 C 160.293 -2.45645 3.50489 0
M  V30 1693 C 159.619 -3.84056 3.72028 0
M  V30 1694 C 160.919 -1.96302 4.84007 0
M  V30 1695 H 162.613 -0.86275 2.867 0
M  V30 1696 H 160.159 -0.413571 1.37933 0
M  V30 1697 H 162.112 -3.2886 2.63494 0
M  V30 1698 H 160.836 -2.92869 1.44552 0
M  V30 1699 H 159.495 -1.7489 3.22194 0
M  V30 1700 H 159.143 -4.18664 2.788 0
M  V30 1701 H 158.843 -3.7823 4.49684 0
M  V30 1702 H 160.367 -4.58854 4.02846 0
M  V30 1703 H 161.781 -2.59284 5.11317 0
M  V30 1704 H 160.178 -2.01429 5.65284 0
M  V30 1705 H 161.248 -0.917226 4.76146 0
M  V30 1706 N 162.591 -1.51276 -0.441967 0
M  V30 1707 C 163.816 -1.67799 -1.21895 0
M  V30 1708 C 164.241 -0.372864 -1.84367 0
M  V30 1709 O 163.599 0.666501 -1.68604 0
M  V30 1710 C 163.647 -2.79199 -2.28211 0
M  V30 1711 O 162.751 -2.42479 -3.33583 0
M  V30 1712 H 162.092 -0.559649 -0.357336 0
M  V30 1713 H 164.622 -1.97815 -0.522522 0
M  V30 1714 H 164.632 -3.03146 -2.73069 0
M  V30 1715 H 163.307 -3.73906 -1.82118 0
M  V30 1716 H 161.884 -2.29087 -2.94234 0
M  V30 1717 N 164.069 0.697108 -1.41344 0
M  V30 1718 C 165.315 1.4593 -1.40827 0
M  V30 1719 C 165.648 1.94193 -0.0167098 0
M  V30 1720 O 164.923 1.69425 0.955263 0
M  V30 1721 C 165.206 2.67229 -2.41373 0
M  V30 1722 C 165.059 2.24741 -3.8963 0
M  V30 1723 C 166.378 3.69423 -2.39196 0
M  V30 1724 H 163.497 0.529303 -0.512842 0
M  V30 1725 H 166.139 0.794112 -1.72609 0
M  V30 1726 H 164.289 3.23982 -2.14401 0
M  V30 1727 H 165.961 1.73327 -4.27499 0
M  V30 1728 H 164.204 1.56542 -4.0457 0
M  V30 1729 H 164.875 3.1177 -4.55525 0
M  V30 1730 H 167.351 3.2234 -2.63128 0
M  V30 1731 H 166.227 4.51907 -3.11563 0
M  V30 1732 H 166.488 4.19012 -1.41001 0
M  V30 1733 N 165.547 1.27147 0.931209 0
M  V30 1734 C 166.796 1.12664 1.67302 0
M  V30 1735 C 167.109 -0.327718 1.92835 0
M  V30 1736 O 168.315 -0.593392 2.64936 0
M  V30 1737 C 166.771 1.9683 3.01307 0
M  V30 1738 C 166.379 3.46901 2.83485 0
M  V30 1739 C 168.123 1.90985 3.79111 0
M  V30 1740 C 166.03 4.23279 4.13024 0
M  V30 1741 H 164.96 0.41803 0.627509 0
M  V30 1742 H 167.611 1.51539 1.03481 0
M  V30 1743 H 165.993 1.50797 3.66164 0
M  V30 1744 H 167.167 4.00773 2.27415 0
M  V30 1745 H 165.482 3.54088 2.19113 0
M  V30 1746 H 168.079 2.45328 4.75098 0
M  V30 1747 H 168.422 0.882718 4.06834 0
M  V30 1748 H 168.955 2.34895 3.21044 0
M  V30 1749 H 165.694 5.26503 3.90481 0
M  V30 1750 H 165.214 3.74186 4.6877 0
M  V30 1751 H 166.893 4.32265 4.81411 0
M  V30 1752 N 167.025 -1.13721 1.09112 0
M  V30 1753 C 167.955 -2.21148 0.749385 0
M  V30 1754 C 168.936 -1.6792 -0.271475 0
M  V30 1755 O 170.121 -1.93693 -0.140251 0
M  V30 1756 C 167.251 -3.46905 0.165659 0
M  V30 1757 C 166.205 -4.13203 1.11567 0
M  V30 1758 C 165.531 -5.33248 0.393809 0
M  V30 1759 C 166.831 -4.60912 2.45678 0
M  V30 1760 H 168.525 -2.4999 1.64758 0
M  V30 1761 H 166.071 -1.20156 0.793626 0
M  V30 1762 H 168.024 -4.21313 -0.085466 0
M  V30 1763 H 166.748 -3.17449 -0.767714 0
M  V30 1764 H 165.407 -3.40758 1.35202 0
M  V30 1765 H 165.055 -5.00054 -0.543599 0
M  V30 1766 H 164.755 -5.78552 1.02721 0
M  V30 1767 H 166.279 -6.10413 0.150908 0
M  V30 1768 H 167.693 -5.26759 2.26269 0
M  V30 1769 H 166.09 -5.16944 3.04776 0
M  V30 1770 H 167.16 -3.75603 3.06677 0
M  V30 1771 N 168.503 -0.877838 -1.30888 0
M  V30 1772 C 169.433 -0.35534 -2.3078 0
M  V30 1773 C 170.414 0.557994 -1.60687 0
M  V30 1774 O 171.599 0.473355 -1.88343 0
M  V30 1775 C 168.729 0.437221 -3.44537 0
M  V30 1776 C 167.683 -0.383715 -4.26276 0
M  V30 1777 C 167.009 0.535014 -5.32017 0
M  V30 1778 C 168.309 -1.62201 -4.96476 0
M  V30 1779 H 170.003 -1.19007 -2.74732 0
M  V30 1780 H 167.549 -0.573698 -1.32078 0
M  V30 1781 H 169.502 0.813334 -4.13477 0
M  V30 1782 H 168.226 1.30553 -2.99372 0
M  V30 1783 H 166.885 -0.741874 -3.59015 0
M  V30 1784 H 166.533 1.40083 -4.831 0
M  V30 1785 H 166.233 -0.0104211 -5.87599 0
M  V30 1786 H 167.757 0.907799 -6.03814 0
M  V30 1787 H 169.171 -1.31689 -5.5797 0
M  V30 1788 H 167.568 -2.10711 -5.61891 0
M  V30 1789 H 168.638 -2.37044 -4.23011 0
M  V30 1790 N 169.982 1.44106 -0.638065 0
M  V30 1791 C 171.229 2.01978 -0.14533 0
M  V30 1792 C 171.557 1.50234 1.23532 0
M  V30 1793 O 170.812 0.679548 1.83523 0
M  V30 1794 C 171.111 3.5729 -0.0887327 0
M  V30 1795 C 170.777 4.28317 -1.40909 0
M  V30 1796 C 169.439 4.47437 -1.77069 0
M  V30 1797 C 171.791 4.6867 -2.28031 0
M  V30 1798 C 169.119 5.04171 -3.00047 0
M  V30 1799 C 171.471 5.26766 -3.50286 0
M  V30 1800 C 170.135 5.44104 -3.86661 0
M  V30 1801 H 169.405 0.739089 -0.0531801 0
M  V30 1802 H 172.052 1.72781 -0.825761 0
M  V30 1803 H 170.357 3.8594 0.675095 0
M  V30 1804 H 172.054 3.99807 0.309145 0
M  V30 1805 H 168.644 4.1377 -1.1177 0
M  V30 1806 H 172.828 4.53604 -2.01388 0
M  V30 1807 H 168.084 5.15782 -3.28298 0
M  V30 1808 H 172.258 5.56983 -4.18023 0
M  V30 1809 H 169.885 5.87832 -4.82034 0
M  V30 1810 N 171.46 0.379036 1.52974 0
M  V30 1811 C 172.393 -0.504932 2.22544 0
M  V30 1812 C 173.371 -1.0723 1.22231 0
M  V30 1813 O 174.555 -1.12589 1.51182 0
M  V30 1814 C 171.682 -1.69794 2.93066 0
M  V30 1815 C 170.728 -1.25678 4.07563 0
M  V30 1816 S 171.561 -0.246852 5.34931 0
M  V30 1817 C 172.717 -1.44588 6.08971 0
M  V30 1818 H 172.95 0.0858666 2.97176 0
M  V30 1819 H 170.483 0.163183 1.53535 0
M  V30 1820 H 172.441 -2.38219 3.34308 0
M  V30 1821 H 171.102 -2.26002 2.18133 0
M  V30 1822 H 170.295 -2.14725 4.5597 0
M  V30 1823 H 169.897 -0.651584 3.6828 0
M  V30 1824 H 172.189 -2.37469 6.34519 0
M  V30 1825 H 173.132 -1.00292 7.00962 0
M  V30 1826 H 173.54 -1.65804 5.39601 0
M  V30 1827 N 172.938 -1.57226 0.108567 0
M  V30 1828 C 174.186 -1.94448 -0.550853 0
M  V30 1829 C 174.507 -0.992074 -1.67878 0
M  V30 1830 O 173.777 -0.0465 -1.95845 0
M  V30 1831 H 172.357 -0.717897 -0.206479 0
M  V30 1832 H 175.019 -1.94112 0.175062 0
M  V30 1833 H 174.115 -2.97218 -0.952259 0
M  V30 1834 N 174.416 0.165178 -1.56732 0
M  V30 1835 C 175.664 0.879068 -1.8198 0
M  V30 1836 C 175.985 1.82514 -0.686561 0
M  V30 1837 O 175.255 1.93694 0.293146 0
M  V30 1838 H 173.835 0.327608 -0.671329 0
M  V30 1839 H 176.497 0.163526 -1.94213 0
M  V30 1840 H 175.593 1.45228 -2.76252 0
M  V30 1841 N 175.894 1.51508 0.433938 0
M  V30 1842 C 176.824 1.76016 1.53429 0
M  V30 1843 C 177.805 0.610112 1.58782 0
M  V30 1844 O 178.99 0.853177 1.74455 0
M  V30 1845 C 176.12 1.88831 2.9148 0
M  V30 1846 C 175.074 3.04288 3.00987 0
M  V30 1847 C 174.4 3.0229 4.4105 0
M  V30 1848 C 175.7 4.44193 2.74754 0
M  V30 1849 H 177.394 2.68152 1.33171 0
M  V30 1850 H 174.94 1.29035 0.639214 0
M  V30 1851 H 176.893 2.04559 3.6842 0
M  V30 1852 H 175.617 0.933455 3.12976 0
M  V30 1853 H 174.276 2.8827 2.26486 0
M  V30 1854 H 173.924 2.04576 4.59519 0
M  V30 1855 H 173.624 3.79822 4.4834 0
M  V30 1856 H 175.148 3.20116 5.1996 0
M  V30 1857 H 176.562 4.60544 3.41426 0
M  V30 1858 H 174.959 5.23457 2.9345 0
M  V30 1859 H 176.029 4.53996 1.70339 0
M  V30 1860 N 177.372 -0.689602 1.41712 0
M  V30 1861 C 178.612 -1.46184 1.42862 0
M  V30 1862 C 178.976 -1.91962 0.0382204 0
M  V30 1863 O 180.177 -2.68694 -0.0755019 0
M  V30 1864 C 178.448 -2.6371 2.4123 0
M  V30 1865 S 180.007 -3.52768 2.6096 0
M  V30 1866 H 176.825 -0.49947 0.506015 0
M  V30 1867 H 179.427 -0.804107 1.78198 0
M  V30 1868 H 178.131 -2.28293 3.41044 0
M  V30 1869 H 177.662 -3.3437 2.07269 0
M  V30 1870 H 179.677 -4.59146 1.88148 0
M  V30 1871 N 178.85 -1.27639 -0.924453 0
M  V30 1872 C 180.099 -1.13549 -1.66702 0
M  V30 1873 C 180.412 0.317487 -1.93006 0
M  V30 1874 O 181.618 0.579333 -2.65247 0
M  V30 1875 C 180.074 -1.98426 -3.00259 0
M  V30 1876 C 179.682 -3.484 -2.81641 0
M  V30 1877 C 181.426 -1.92993 -3.78092 0
M  V30 1878 C 179.333 -4.25464 -4.10773 0
M  V30 1879 H 178.263 -0.421351 -0.625283 0
M  V30 1880 H 180.914 -1.52085 -1.02676 0
M  V30 1881 H 179.296 -1.52736 -3.6536 0
M  V30 1882 H 180.47 -4.01973 -2.25287 0
M  V30 1883 H 178.785 -3.55245 -2.17232 0
M  V30 1884 H 181.382 -2.47844 -4.7379 0
M  V30 1885 H 181.725 -0.904281 -4.0636 0
M  V30 1886 H 182.258 -2.36595 -3.19793 0
M  V30 1887 H 178.997 -5.28566 -3.87683 0
M  V30 1888 H 178.517 -3.76667 -4.66779 0
M  V30 1889 H 180.196 -4.34812 -4.79111 0
M  V30 1890 N 180.328 1.1314 -1.09713 0
M  V30 1891 C 181.291 2.16831 -0.742751 0
M  V30 1892 C 182.291 1.59159 0.229129 0
M  V30 1893 O 183.481 1.74199 0.00693237 0
M  V30 1894 C 180.613 3.40756 -0.0989168 0
M  V30 1895 H 181.806 2.49695 -1.66109 0
M  V30 1896 H 179.359 1.2802 -0.896699 0
M  V30 1897 H 180.094 3.13485 0.830514 0
M  V30 1898 H 179.879 3.83888 -0.798265 0
M  V30 1899 H 181.369 4.17386 0.133524 0
M  V30 1900 N 181.806 0.884767 1.30421 0
M  V30 1901 C 182.769 0.356277 2.26414 0
M  V30 1902 C 183.769 -0.501124 1.52792 0
M  V30 1903 O 184.959 -0.30831 1.7145 0
M  V30 1904 C 182.091 -0.492316 3.37326 0
M  V30 1905 H 183.284 1.20389 2.74675 0
M  V30 1906 H 180.837 0.661607 1.41607 0
M  V30 1907 H 181.572 -1.36052 2.94381 0
M  V30 1908 H 181.357 0.121832 3.91911 0
M  V30 1909 H 182.847 -0.853871 4.08777 0
M  V30 1910 N 183.284 -1.43765 0.645699 0
M  V30 1911 C 184.509 -2.06767 0.161883 0
M  V30 1912 C 184.934 -1.48034 -1.16049 0
M  V30 1913 O 184.292 -0.587369 -1.71522 0
M  V30 1914 C 184.34 -3.60519 0.0762003 0
M  V30 1915 O 183.444 -4.00982 -0.963721 0
M  V30 1916 H 182.785 -0.657675 0.091429 0
M  V30 1917 H 185.315 -1.84397 0.886499 0
M  V30 1918 H 185.325 -4.07853 -0.109604 0
M  V30 1919 H 184 -4.02646 1.04157 0
M  V30 1920 H 182.577 -3.65253 -0.751312 0
M  V30 1921 N 184.763 -0.387143 -1.52771 0
M  V30 1922 C 185.673 0.456442 -2.30117 0
M  V30 1923 C 186.689 1.07342 -1.36944 0
M  V30 1924 O 187.865 1.07971 -1.70013 0
M  V30 1925 C 184.93 1.56957 -3.09136 0
M  V30 1926 C 183.991 0.977916 -4.18014 0
M  V30 1927 C 183.224 2.038 -4.93256 0
M  V30 1928 O 183.447 3.25271 -4.68567 0
M  V30 1929 O 182.381 1.6565 -5.78657 0
M  V30 1930 H 186.207 -0.17359 -3.03203 0
M  V30 1931 H 183.792 -0.150919 -1.48636 0
M  V30 1932 H 185.674 2.21628 -3.58412 0
M  V30 1933 H 184.349 2.18461 -2.38865 0
M  V30 1934 H 183.256 0.294525 -3.72939 0
M  V30 1935 H 184.589 0.407128 -4.90513 0
M  V30 1936 N 186.241 1.57166 -0.116904 0
M  V30 1937 C 187.488 1.95123 0.541603 0
M  V30 1938 C 187.816 1.00006 1.6682 0
M  V30 1939 O 187.071 0.0235658 1.95686 0
M  V30 1940 C 187.37 3.39508 1.11664 0
M  V30 1941 C 187.036 4.50762 0.111606 0
M  V30 1942 C 185.698 4.80918 -0.164758 0
M  V30 1943 C 188.05 5.18036 -0.573438 0
M  V30 1944 C 185.378 5.75666 -1.13249 0
M  V30 1945 C 187.73 6.13824 -1.52978 0
M  V30 1946 C 186.394 6.42374 -1.81415 0
M  V30 1947 H 185.664 0.714005 0.198187 0
M  V30 1948 H 188.311 1.9048 -0.197365 0
M  V30 1949 H 186.616 3.40835 1.93232 0
M  V30 1950 H 188.313 3.66189 1.63422 0
M  V30 1951 H 184.903 4.27272 0.337192 0
M  V30 1952 H 189.087 4.94896 -0.373092 0
M  V30 1953 H 184.343 5.96092 -1.35958 0
M  V30 1954 H 188.517 6.65039 -2.06629 0
M  V30 1955 H 186.144 7.15599 -2.56557 0
M  V30 1956 N 187.719 -0.156864 1.56817 0
M  V30 1957 C 188.949 -0.885031 1.86684 0
M  V30 1958 C 189.357 -1.75696 0.701954 0
M  V30 1959 O 188.7 -1.80569 -0.337732 0
M  V30 1960 C 188.762 -1.80092 3.11138 0
M  V30 1961 C 188.426 -1.10714 4.43386 0
M  V30 1962 C 189.423 -0.465714 5.1781 0
M  V30 1963 C 187.108 -1.09959 4.90117 0
M  V30 1964 C 189.102 0.174002 6.37162 0
M  V30 1965 C 186.789 -0.456055 6.09396 0
M  V30 1966 C 187.787 0.179622 6.82764 0
M  V30 1967 O 187.475 0.812975 7.99779 0
M  V30 1968 H 187.207 -0.261813 0.623242 0
M  V30 1969 H 189.761 -0.157383 2.04796 0
M  V30 1970 H 187.991 -2.56926 2.89009 0
M  V30 1971 H 189.68 -2.40018 3.27332 0
M  V30 1972 H 190.446 -0.463427 4.82781 0
M  V30 1973 H 186.325 -1.58378 4.3294 0
M  V30 1974 H 189.869 0.670765 6.94368 0
M  V30 1975 H 185.766 -0.455975 6.43888 0
M  V30 1976 H 186.534 0.71366 8.15383 0
M  V30 1977 N 189.197 -1.51736 -0.425897 0
M  V30 1978 C 190.144 -1.73875 -1.51776 0
M  V30 1979 C 191.114 -0.580702 -1.55618 0
M  V30 1980 O 192.299 -0.81641 -1.72451 0
M  V30 1981 C 189.439 -1.88012 -2.89388 0
M  V30 1982 C 188.552 -3.15606 -2.94986 0
M  V30 1983 C 187.687 -3.20271 -4.23793 0
M  V30 1984 C 186.726 -4.42134 -4.23302 0
M  V30 1985 N 185.863 -4.44284 -5.43651 0
M  V30 1986 H 190.703 -2.67071 -1.32201 0
M  V30 1987 H 188.24 -1.32351 -0.642008 0
M  V30 1988 H 190.198 -1.9419 -3.69251 0
M  V30 1989 H 188.828 -0.98213 -3.07496 0
M  V30 1990 H 187.88 -3.18681 -2.07717 0
M  V30 1991 H 189.192 -4.05486 -2.90486 0
M  V30 1992 H 188.346 -3.25428 -5.12036 0
M  V30 1993 H 187.085 -2.28299 -4.30965 0
M  V30 1994 H 186.09 -4.3714 -3.3345 0
M  V30 1995 H 187.315 -5.35382 -4.17783 0
M  V30 1996 H 185.261 -3.55188 -5.51523 0
M  V30 1997 H 185.178 -5.27988 -5.41078 0
M  V30 1998 H 186.446 -4.53649 -6.33895 0
M  V30 1999 N 190.675 0.682077 -1.42076 0
M  V30 2000 C 191.903 1.47057 -1.4554 0
M  V30 2001 C 192.318 1.8869 -0.0645779 0
M  V30 2002 O 191.675 1.57666 0.919115 0
M  V30 2003 C 191.726 2.72442 -2.37609 0
M  V30 2004 O 191.447 2.32559 -3.71279 0
M  V30 2005 C 192.948 3.66069 -2.50017 0
M  V30 2006 H 190.168 0.452737 -0.495248 0
M  V30 2007 H 192.712 0.838695 -1.8651 0
M  V30 2008 H 190.867 3.31835 -1.9991 0
M  V30 2009 H 191.281 3.13475 -4.20516 0
M  V30 2010 H 192.755 4.50792 -3.18576 0
M  V30 2011 H 193.232 4.11476 -1.53572 0
M  V30 2012 H 193.838 3.12572 -2.88407 0
M  V30 2013 N 192.153 1.28127 0.917671 0
M  V30 2014 C 193.569 1.05749 1.19538 0
M  V30 2015 C 193.769 -0.202633 2.00479 0
M  V30 2016 O 192.825 -0.905382 2.3571 0
M  V30 2017 C 194.138 2.30273 1.93378 0
M  V30 2018 C 195.686 2.35412 2.06277 0
M  V30 2019 C 196.161 3.59692 2.83524 0
M  V30 2020 N 197.652 3.60309 2.91087 0
M  V30 2021 C 198.387 4.53147 3.51348 0
M  V30 2022 N 197.883 5.563 4.12919 0
M  V30 2023 N 199.676 4.40751 3.48849 0
M  V30 2024 H 191.827 2.09024 0.377184 0
M  V30 2025 H 194.09 0.919798 0.22951 0
M  V30 2026 H 193.796 3.22055 1.41328 0
M  V30 2027 H 193.67 2.36378 2.93947 0
M  V30 2028 H 196.057 1.4413 2.57508 0
M  V30 2029 H 196.138 2.33304 1.04895 0
M  V30 2030 H 195.782 4.51316 2.32973 0
M  V30 2031 H 195.712 3.59054 3.85211 0
M  V30 2032 H 198.203 2.85714 2.47338 0
M  V30 2033 H 198.516 6.2329 4.56869 0
M  V30 2034 H 196.861 5.60131 4.11435 0
M  V30 2035 H 200.052 3.59367 2.99955 0
M  V30 2036 H 200.225 5.13291 3.9552 0
M  V30 2037 N 193.631 -1.12557 1.10312 0
M  V30 2038 C 194.581 -2.16331 0.720076 0
M  V30 2039 C 195.565 -1.58616 -0.270115 0
M  V30 2040 O 196.757 -1.76823 -0.0790507 0
M  V30 2041 C 193.886 -3.42963 0.152113 0
M  V30 2042 C 192.972 -4.07663 1.16927 0
M  V30 2043 N 193.363 -4.47392 2.35953 0
M  V30 2044 C 191.661 -4.34425 1.0095 0
M  V30 2045 C 192.362 -4.97932 3.0073 0
M  V30 2046 N 191.338 -4.93358 2.28252 0
M  V30 2047 H 195.14 -2.44813 1.62616 0
M  V30 2048 H 192.654 -1.29449 0.980654 0
M  V30 2049 H 194.651 -4.16664 -0.14037 0
M  V30 2050 H 193.311 -3.1595 -0.748701 0
M  V30 2051 H 194.322 -4.39802 2.73486 0
M  V30 2052 H 190.999 -4.17177 0.164134 0
M  V30 2053 H 192.389 -5.38397 4.01969 0
M  V30 2054 N 195.109 -0.891671 -1.2995 0
M  V30 2055 C 196.057 -0.353066 -2.29905 0
M  V30 2056 C 197.051 0.543509 -1.60444 0
M  V30 2057 O 198.257 0.4272 -1.74857 0
M  V30 2058 H 194.632 -0.095531 -0.745907 0
M  V30 2059 H 196.603 -1.20961 -2.72784 0
M  V30 2060 C 195.352 0.411475 -3.45257 0
M  V30 2061 H 194.675 -0.269182 -3.98893 0
M  V30 2062 H 196.115 0.753328 -4.17254 0
M  V30 2063 C 194.574 1.6111 -2.9588 0
M  V30 2064 O 195.104 2.71045 -2.96475 0
M  V30 2065 N 193.31 1.45054 -2.51809 0
M  V30 2066 H 192.857 0.556175 -2.51524 0
M  V30 2067 H 192.815 2.25453 -2.1913 0
M  V30 2068 N 196.587 1.43421 -0.653314 0
M  V30 2069 C 197.836 2.01032 -0.164076 0
M  V30 2070 C 198.149 1.52147 1.22926 0
M  V30 2071 O 199.355 2.02031 1.81371 0
M  V30 2072 C 197.811 3.59082 -0.24252 0
M  V30 2073 C 197.419 4.1696 -1.63855 0
M  V30 2074 C 199.163 4.24079 0.18911 0
M  V30 2075 C 197.07 5.67304 -1.67092 0
M  V30 2076 H 196 0.751798 -0.0575769 0
M  V30 2077 H 198.651 1.6439 -0.815362 0
M  V30 2078 H 197.033 3.93125 0.476276 0
M  V30 2079 H 198.207 3.94416 -2.38271 0
M  V30 2080 H 196.522 3.64335 -2.01616 0
M  V30 2081 H 199.119 5.34381 0.184775 0
M  V30 2082 H 199.462 3.98005 1.22056 0
M  V30 2083 H 199.995 3.94918 -0.477938 0
M  V30 2084 H 196.734 5.98145 -2.68146 0
M  V30 2085 H 196.254 5.91904 -0.970014 0
M  V30 2086 H 197.933 6.31344 -1.4147 0
M  V30 2087 N 198.065 0.39524 1.52563 0
M  V30 2088 C 199.314 -0.186321 2.00838 0
M  V30 2089 C 199.627 -1.47402 1.28577 0
M  V30 2090 O 200.833 -2.13599 1.67593 0
M  V30 2091 C 199.289 -0.382595 3.57861 0
M  V30 2092 C 198.897 0.892202 4.39026 0
M  V30 2093 C 200.641 -0.9202 4.14406 0
M  V30 2094 C 198.548 0.66388 5.87662 0
M  V30 2095 H 197.478 -0.0734041 0.750418 0
M  V30 2096 H 200.129 0.518552 1.76021 0
M  V30 2097 H 198.511 -1.14946 3.7895 0
M  V30 2098 H 199.685 1.66414 4.29701 0
M  V30 2099 H 198 1.35519 3.9373 0
M  V30 2100 H 200.597 -1.10683 5.23119 0
M  V30 2101 H 200.94 -1.89096 3.70875 0
M  V30 2102 H 201.473 -0.212751 3.97231 0
M  V30 2103 H 198.212 1.6058 6.35527 0
M  V30 2104 H 197.732 -0.0690193 5.9976 0
M  V30 2105 H 199.411 0.300699 6.46301 0
M  V30 2106 N 199.544 -1.57102 0.125237 0
M  V30 2107 C 200.474 -2.18659 -0.819174 0
M  V30 2108 C 201.455 -1.12843 -1.27281 0
M  V30 2109 O 202.64 -1.41104 -1.33429 0
M  V30 2110 C 199.77 -2.79096 -2.06695 0
M  V30 2111 C 198.724 -3.90548 -1.75088 0
M  V30 2112 C 198.05 -4.37821 -3.06948 0
M  V30 2113 C 199.35 -5.12356 -1.01435 0
M  V30 2114 H 201.044 -2.9783 -0.306202 0
M  V30 2115 H 198.59 -1.4326 -0.145839 0
M  V30 2116 H 200.543 -3.2082 -2.73226 0
M  V30 2117 H 199.267 -1.97223 -2.60328 0
M  V30 2118 H 197.926 -3.49409 -1.10944 0
M  V30 2119 H 197.574 -3.52799 -3.58527 0
M  V30 2120 H 197.274 -5.12982 -2.86571 0
M  V30 2121 H 198.798 -4.822 -3.74587 0
M  V30 2122 H 200.212 -5.5106 -1.58132 0
M  V30 2123 H 198.609 -5.9314 -0.911319 0
M  V30 2124 H 199.679 -4.849 -0.00218681 0
M  V30 2125 N 201.022 0.148545 -1.56898 0
M  V30 2126 C 202.247 0.880385 -1.87787 0
M  V30 2127 C 202.672 1.74018 -0.714093 0
M  V30 2128 O 202.03 1.78153 0.336343 0
M  V30 2129 C 202.078 1.71422 -3.17249 0
M  V30 2130 O 201.182 2.8183 -3.01074 0
M  V30 2131 H 200.523 0.245301 -0.617028 0
M  V30 2132 H 203.053 0.139826 -2.04122 0
M  V30 2133 H 203.063 2.10954 -3.49231 0
M  V30 2134 H 201.738 1.08284 -4.01556 0
M  V30 2135 H 200.315 2.45715 -2.80497 0
M  V30 2136 N 202.5 1.5196 0.417844 0
M  V30 2137 C 203.463 1.74065 1.49111 0
M  V30 2138 C 204.463 0.610537 1.48758 0
M  V30 2139 O 205.653 0.87832 1.50437 0
M  V30 2140 C 202.785 1.81502 2.88565 0
M  V30 2141 H 203.978 2.69869 1.30807 0
M  V30 2142 H 201.531 1.42244 0.647785 0
M  V30 2143 H 202.266 0.875813 3.1225 0
M  V30 2144 H 202.051 2.63651 2.90225 0
M  V30 2145 H 203.541 2.00376 3.66387 0
M  V30 2146 N 203.978 -0.674533 1.42435 0
M  V30 2147 C 205.226 -1.43175 1.42637 0
M  V30 2148 C 205.547 -1.94951 0.0438992 0
M  V30 2149 O 204.817 -1.7308 -0.917607 0
M  V30 2150 H 203.397 -0.531307 0.525092 0
M  V30 2151 H 206.059 -0.797006 1.77859 0
M  V30 2152 H 205.155 -2.28463 2.12629 0
M  V30 2153 N 205.456 -1.28612 -0.910864 0
M  V30 2154 C 206.705 -1.15311 -1.65488 0
M  V30 2155 C 207.018 0.296999 -1.93332 0
M  V30 2156 O 208.224 0.551168 -2.65847 0
M  V30 2157 C 206.68 -2.01599 -2.98137 0
M  V30 2158 C 206.288 -3.51367 -2.7793 0
M  V30 2159 C 208.032 -1.96993 -3.76024 0
M  V30 2160 C 205.939 -4.29797 -4.06237 0
M  V30 2161 H 204.869 -0.42796 -0.620779 0
M  V30 2162 H 207.52 -1.53166 -1.01057 0
M  V30 2163 H 205.902 -1.56603 -3.63719 0
M  V30 2164 H 207.076 -4.0434 -2.21011 0
M  V30 2165 H 205.391 -3.57529 -2.13452 0
M  V30 2166 H 207.988 -2.52856 -4.71135 0
M  V30 2167 H 208.331 -0.94733 -4.05378 0
M  V30 2168 H 208.864 -2.39973 -3.17266 0
M  V30 2169 H 205.603 -5.32648 -3.82055 0
M  V30 2170 H 205.123 -3.81596 -4.62757 0
M  V30 2171 H 206.802 -4.39869 -4.74473 0
M  V30 2172 N 206.934 1.1197 -1.10907 0
M  V30 2173 C 208.181 1.83588 -0.854507 0
M  V30 2174 C 208.509 1.84357 0.6199 0
M  V30 2175 O 207.764 1.28809 1.47332 0
M  V30 2176 C 208.063 3.30749 -1.35425 0
M  V30 2177 C 207.729 3.50146 -2.84093 0
M  V30 2178 C 206.391 3.55148 -3.2469 0
M  V30 2179 C 208.743 3.56857 -3.79872 0
M  V30 2180 C 206.071 3.6441 -4.59806 0
M  V30 2181 C 208.423 3.6765 -5.14797 0
M  V30 2182 C 207.087 3.7091 -5.54961 0
M  V30 2183 H 206.357 0.671795 -0.312686 0
M  V30 2184 H 209.004 1.32091 -1.38652 0
M  V30 2185 H 207.309 3.84703 -0.742361 0
M  V30 2186 H 209.006 3.8464 -1.1337 0
M  V30 2187 H 205.596 3.46919 -2.51685 0
M  V30 2188 H 209.78 3.52258 -3.49611 0
M  V30 2189 H 205.036 3.65208 -4.9034 0
M  V30 2190 H 209.21 3.71786 -5.88853 0
M  V30 2191 H 206.837 3.7784 -6.59652 0
M  V30 2192 N 208.412 0.89855 1.29475 0
M  V30 2193 C 209.659 0.523882 1.95606 0
M  V30 2194 C 209.987 -0.929608 1.70847 0
M  V30 2195 O 209.242 -1.67401 1.01367 0
M  V30 2196 C 209.541 0.761398 3.49195 0
M  V30 2197 C 209.207 2.19207 3.94029 0
M  V30 2198 C 207.869 2.58326 4.05982 0
M  V30 2199 C 210.221 3.12379 4.17216 0
M  V30 2200 C 207.549 3.898 4.38489 0
M  V30 2201 C 209.901 4.43401 4.51197 0
M  V30 2202 C 208.565 4.82394 4.61359 0
M  V30 2203 H 207.835 0.191702 0.715773 0
M  V30 2204 H 210.482 1.13699 1.54094 0
M  V30 2205 H 208.787 0.0653622 3.91745 0
M  V30 2206 H 210.484 0.450904 3.98457 0
M  V30 2207 H 207.074 1.87846 3.85242 0
M  V30 2208 H 211.258 2.83371 4.07449 0
M  V30 2209 H 206.514 4.19734 4.44559 0
M  V30 2210 H 210.688 5.15623 4.68087 0
M  V30 2211 H 208.315 5.84306 4.86303 0
M  V30 2212 N 209.89 -1.43072 0.660911 0
M  V30 2213 C 211.136 -2.0202 0.177708 0
M  V30 2214 C 211.469 -1.52066 -1.20787 0
M  V30 2215 O 210.744 -0.716987 -1.80802 0
M  V30 2216 C 211.027 -3.59561 0.197019 0
M  V30 2217 C 210.88 -4.19727 1.61706 0
M  V30 2218 C 212.199 -4.37664 -0.462396 0
M  V30 2219 H 209.318 -0.734034 0.0660494 0
M  V30 2220 H 211.96 -1.70272 0.843058 0
M  V30 2221 H 210.11 -3.86739 -0.369527 0
M  V30 2222 H 211.782 -4.03553 2.23479 0
M  V30 2223 H 210.025 -3.76084 2.16201 0
M  V30 2224 H 210.696 -5.28834 1.58237 0
M  V30 2225 H 213.172 -4.16095 0.0197215 0
M  V30 2226 H 212.048 -5.47305 -0.418188 0
M  V30 2227 H 212.309 -4.14493 -1.53778 0
M  V30 2228 N 211.368 -0.403325 -1.52352 0
M  V30 2229 C 212.593 0.176499 -2.06648 0
M  V30 2230 C 213.018 1.38577 -1.27193 0
M  V30 2231 O 212.376 1.7879 -0.300637 0
M  V30 2232 C 212.424 0.511061 -3.5696 0
M  V30 2233 O 211.528 1.60294 -3.79973 0
M  V30 2234 H 210.869 0.0167337 -0.663789 0
M  V30 2235 H 213.399 -0.574848 -1.96359 0
M  V30 2236 H 213.409 0.771362 -4.00642 0
M  V30 2237 H 212.084 -0.37296 -4.14224 0
M  V30 2238 H 210.661 1.33526 -3.48174 0
M  V30 2239 N 212.846 1.57033 -0.133567 0
M  V30 2240 C 213.809 2.14897 0.796995 0
M  V30 2241 C 214.809 1.0874 1.18458 0
M  V30 2242 O 215.999 1.34446 1.1077 0
M  V30 2243 C 213.131 2.70112 2.07973 0
M  V30 2244 H 214.324 2.98457 0.293873 0
M  V30 2245 H 211.877 1.55871 0.115787 0
M  V30 2246 H 212.612 1.9018 2.62682 0
M  V30 2247 H 212.397 3.47764 1.81115 0
M  V30 2248 H 213.887 3.14738 2.74462 0
M  V30 2249 N 214.325 -0.140222 1.56975 0
M  V30 2250 C 215.573 -0.850005 1.83356 0
M  V30 2251 C 215.894 -1.81399 0.71551 0
M  V30 2252 O 215.164 -1.94136 -0.262294 0
M  V30 2253 H 213.744 -0.316886 0.676456 0
M  V30 2254 H 216.406 -0.132608 1.94448 0
M  V30 2255 H 215.502 -1.40814 2.78528 0
M  V30 2256 N 215.803 -1.52179 -0.40978 0
M  V30 2257 C 216.733 -1.78435 -1.5061 0
M  V30 2258 C 217.714 -0.635295 -1.57791 0
M  V30 2259 O 218.899 -0.880823 -1.73076 0
M  V30 2260 C 216.029 -1.93444 -2.88439 0
M  V30 2261 C 214.983 -3.09038 -2.96108 0
M  V30 2262 C 214.309 -3.09268 -4.36185 0
M  V30 2263 C 215.609 -4.48508 -2.67652 0
M  V30 2264 H 217.303 -2.70237 -1.28889 0
M  V30 2265 H 214.849 -1.30036 -0.618605 0
M  V30 2266 H 216.802 -2.10394 -3.65119 0
M  V30 2267 H 215.526 -0.983129 -3.11452 0
M  V30 2268 H 214.185 -2.91837 -2.21872 0
M  V30 2269 H 213.833 -2.11861 -4.56206 0
M  V30 2270 H 213.533 -3.86907 -4.42241 0
M  V30 2271 H 215.057 -3.28348 -5.14801 0
M  V30 2272 H 216.471 -4.65918 -3.34056 0
M  V30 2273 H 214.868 -5.28059 -2.85085 0
M  V30 2274 H 215.938 -4.56649 -1.63095 0
M  V30 2275 N 217.281 0.66697 -1.42791 0
M  V30 2276 C 218.506 1.46004 -1.47301 0
M  V30 2277 C 218.931 1.87894 -0.0880317 0
M  V30 2278 O 218.289 1.56502 0.915253 0
M  V30 2279 C 218.337 2.68031 -2.41229 0
M  V30 2280 O 217.441 3.6659 -1.88906 0
M  V30 2281 H 216.782 0.43832 -0.49877 0
M  V30 2282 H 219.312 0.817391 -1.87563 0
M  V30 2283 H 219.322 3.1601 -2.58073 0
M  V30 2284 H 217.997 2.36883 -3.41847 0
M  V30 2285 H 216.574 3.25661 -1.81656 0
M  V30 2286 N 218.759 1.29093 0.90403 0
M  V30 2287 C 219.707 1.13727 2.02901 0
M  V30 2288 C 220.701 0.0539853 1.69314 0
M  V30 2289 O 221.907 0.213469 1.7873 0
M  V30 2290 H 218.282 0.35117 0.664969 0
M  V30 2291 H 220.253 2.08982 2.13001 0
M  V30 2292 C 219.002 0.826066 3.37745 0
M  V30 2293 H 218.325 1.65164 3.64089 0
M  V30 2294 H 219.765 0.758559 4.17159 0
M  V30 2295 C 218.224 -0.470541 3.33598 0
M  V30 2296 O 218.754 -1.49792 3.72727 0
M  V30 2297 N 216.96 -0.474812 2.86695 0
M  V30 2298 H 216.507 0.361692 2.55048 0
M  V30 2299 H 216.465 -1.34236 2.84303 0
M  V30 2300 N 220.237 -1.11381 1.11499 0
M  V30 2301 C 221.486 -1.82494 0.858993 0
M  V30 2302 C 221.799 -1.85605 -0.617278 0
M  V30 2303 O 223.005 -2.52824 -0.989552 0
M  V30 2304 C 221.461 -3.27745 1.48699 0
M  V30 2305 C 221.069 -3.32961 2.99735 0
M  V30 2306 C 222.813 -4.03754 1.31085 0
M  V30 2307 C 220.72 -4.72612 3.55516 0
M  V30 2308 H 219.65 -0.683802 0.317696 0
M  V30 2309 H 222.301 -1.25331 1.34031 0
M  V30 2310 H 220.683 -3.84844 0.933339 0
M  V30 2311 H 221.857 -2.85741 3.61509 0
M  V30 2312 H 220.172 -2.70433 3.16631 0
M  V30 2313 H 222.769 -5.06891 1.70192 0
M  V30 2314 H 223.112 -4.15527 0.253496 0
M  V30 2315 H 223.645 -3.53043 1.83318 0
M  V30 2316 H 220.384 -4.66036 4.60967 0
M  V30 2317 H 219.904 -5.2024 2.98513 0
M  V30 2318 H 221.583 -5.4157 3.53992 0
M  V30 2319 N 221.715 -0.905404 -1.28997 0
M  V30 2320 C 222.964 -0.530191 -1.94607 0
M  V30 2321 C 223.277 0.929185 -1.72121 0
M  V30 2322 O 224.483 1.41218 -2.31883 0
M  V30 2323 C 222.939 -0.897333 -3.48534 0
M  V30 2324 C 222.547 -2.37587 -3.79811 0
M  V30 2325 C 224.291 -0.592304 -4.20347 0
M  V30 2326 C 222.198 -2.68357 -5.27009 0
M  V30 2327 H 221.128 -0.194558 -0.728466 0
M  V30 2328 H 223.779 -1.10318 -1.46636 0
M  V30 2329 H 222.161 -0.253214 -3.9519 0
M  V30 2330 H 223.335 -3.06602 -3.43994 0
M  V30 2331 H 221.65 -2.6505 -3.2115 0
M  V30 2332 H 224.247 -0.798975 -5.28697 0
M  V30 2333 H 224.59 0.469474 -4.13644 0
M  V30 2334 H 225.123 -1.19452 -3.79442 0
M  V30 2335 H 221.862 -3.73355 -5.38782 0
M  V30 2336 H 221.382 -2.03971 -5.64053 0
M  V30 2337 H 223.061 -2.54922 -5.94663 0
M  V30 2338 N 223.193 1.4272 -0.668489 0
M  V30 2339 C 224.441 2.01226 -0.187769 0
M  V30 2340 C 224.762 1.53092 1.2078 0
M  V30 2341 O 224.032 0.74993 1.80977 0
M  V30 2342 H 222.612 0.744041 -0.0664272 0
M  V30 2343 H 225.274 1.74723 -0.863583 0
M  V30 2344 H 224.37 3.11556 -0.184166 0
M  V30 2345 N 224.671 0.411399 1.52136 0
M  V30 2346 C 225.92 -0.165009 2.01024 0
M  V30 2347 C 226.233 -1.4603 1.30133 0
M  V30 2348 O 227.439 -2.1181 1.69849 0
M  V30 2349 C 225.895 -0.344618 3.58246 0
M  V30 2350 C 225.503 0.938716 4.38055 0
M  V30 2351 C 227.247 -0.876195 4.15359 0
M  V30 2352 C 225.154 0.726172 5.86925 0
M  V30 2353 H 224.084 -0.0654407 0.751155 0
M  V30 2354 H 226.735 0.537192 1.75461 0
M  V30 2355 H 225.117 -1.10921 3.80148 0
M  V30 2356 H 226.291 1.70963 4.27912 0
M  V30 2357 H 224.606 1.39688 3.92271 0
M  V30 2358 H 227.203 -1.05128 5.24263 0
M  V30 2359 H 227.546 -1.85152 3.7286 0
M  V30 2360 H 228.079 -0.170607 3.97434 0
M  V30 2361 H 224.818 1.67312 6.33788 0
M  V30 2362 H 224.338 -0.00540283 5.998 0
M  V30 2363 H 226.017 0.369231 6.45946 0
M  V30 2364 N 226.149 -1.5696 0.141893 0
M  V30 2365 C 227.398 -1.95135 -0.510427 0
M  V30 2366 C 227.711 -1.02896 -1.66348 0
M  V30 2367 O 228.917 -1.30629 -2.38009 0
M  V30 2368 C 227.373 -3.46876 -0.959427 0
M  V30 2369 C 226.981 -4.47691 0.166419 0
M  V30 2370 C 228.725 -3.93927 -1.58183 0
M  V30 2371 C 226.632 -5.90636 -0.300565 0
M  V30 2372 H 225.562 -0.728494 -0.194454 0
M  V30 2373 H 228.213 -1.8211 0.22542 0
M  V30 2374 H 226.595 -3.55215 -1.75038 0
M  V30 2375 H 227.769 -4.51043 0.94325 0
M  V30 2376 H 226.084 -4.10527 0.696905 0
M  V30 2377 H 228.681 -4.98158 -1.94275 0
M  V30 2378 H 229.024 -3.3519 -2.46888 0
M  V30 2379 H 229.557 -3.88484 -0.855863 0
M  V30 2380 H 226.296 -6.5318 0.550989 0
M  V30 2381 H 225.816 -5.90655 -1.04338 0
M  V30 2382 H 227.495 -6.42588 -0.754265 0
M  V30 2383 N 227.627 0.131896 -1.57047 0
M  V30 2384 C 228.873 0.843179 -1.84441 0
M  V30 2385 C 229.206 1.80129 -0.725749 0
M  V30 2386 O 228.481 1.92624 0.269469 0
M  V30 2387 C 228.764 1.60442 -3.22382 0
M  V30 2388 C 228.617 0.666782 -4.4483 0
M  V30 2389 C 229.936 2.56354 -3.5773 0
M  V30 2390 H 227.055 0.305081 -0.670891 0
M  V30 2391 H 229.697 0.107839 -1.89694 0
M  V30 2392 H 227.847 2.23128 -3.18035 0
M  V30 2393 H 229.519 0.0497646 -4.61273 0
M  V30 2394 H 227.762 -0.022609 -4.33794 0
M  V30 2395 H 228.433 1.23579 -5.37989 0
M  V30 2396 H 230.909 2.0378 -3.62785 0
M  V30 2397 H 229.785 3.06657 -4.5525 0
M  V30 2398 H 230.046 3.38419 -2.84473 0
M  V30 2399 N 229.106 1.52395 0.401703 0
M  V30 2400 C 230.336 1.70429 1.1678 0
M  V30 2401 C 230.744 0.416702 1.84554 0
M  V30 2402 O 230.087 -0.617697 1.73003 0
M  V30 2403 C 230.149 2.78919 2.26814 0
M  V30 2404 C 229.813 4.20437 1.79113 0
M  V30 2405 C 230.81 5.04028 1.27482 0
M  V30 2406 C 228.495 4.66704 1.85722 0
M  V30 2407 C 230.489 6.31961 0.830913 0
M  V30 2408 C 228.176 5.94625 1.40942 0
M  V30 2409 C 229.174 6.77082 0.897128 0
M  V30 2410 O 228.862 8.02607 0.455822 0
M  V30 2411 H 228.594 0.574272 0.356634 0
M  V30 2412 H 231.148 1.99767 0.477724 0
M  V30 2413 H 229.378 2.44973 2.99207 0
M  V30 2414 H 231.067 2.8548 2.88541 0
M  V30 2415 H 231.833 4.69471 1.21744 0
M  V30 2416 H 227.712 4.0262 2.24539 0
M  V30 2417 H 231.256 6.96271 0.430368 0
M  V30 2418 H 227.153 6.28688 1.46362 0
M  V30 2419 H 227.921 8.16453 0.578457 0
M  V30 2420 N 230.584 -0.659388 1.43143 0
M  V30 2421 C 231.833 -1.41518 1.43721 0
M  V30 2422 C 232.146 -1.95499 0.0628176 0
M  V30 2423 O 233.352 -2.71446 -0.0539683 0
M  V30 2424 C 231.808 -2.5608 2.52885 0
M  V30 2425 C 231.416 -2.08733 3.96402 0
M  V30 2426 C 233.16 -3.3349 2.62649 0
M  V30 2427 C 231.067 -3.20469 4.97045 0
M  V30 2428 H 229.997 -0.531705 0.534608 0
M  V30 2429 H 232.648 -0.712343 1.69109 0
M  V30 2430 H 231.03 -3.28805 2.20688 0
M  V30 2431 H 232.204 -1.43059 4.3803 0
M  V30 2432 H 230.519 -1.44219 3.90627 0
M  V30 2433 H 233.116 -4.16734 3.35017 0
M  V30 2434 H 233.459 -3.8111 1.67513 0
M  V30 2435 H 233.992 -2.67842 2.94118 0
M  V30 2436 H 230.731 -2.77824 5.93712 0
M  V30 2437 H 230.251 -3.84874 4.60034 0
M  V30 2438 H 231.93 -3.85698 5.19467 0
M  V30 2439 N 232.062 -1.29571 -0.897171 0
M  V30 2440 C 233.287 -1.20705 -1.68656 0
M  V30 2441 C 233.712 0.228582 -1.86706 0
M  V30 2442 O 233.07 1.16494 -1.3892 0
M  V30 2443 C 233.118 -1.9282 -3.04717 0
M  V30 2444 O 232.222 -1.24697 -3.93096 0
M  V30 2445 H 231.563 -0.418126 -0.515816 0
M  V30 2446 H 234.093 -1.71183 -1.12061 0
M  V30 2447 H 234.103 -2.01372 -3.54843 0
M  V30 2448 H 232.778 -2.97239 -2.90899 0
M  V30 2449 H 231.355 -1.2442 -3.51531 0
M  V30 2450 N 233.54 1.10788 -1.12088 0
M  V30 2451 C 234.503 2.15207 -0.788577 0
M  V30 2452 C 235.503 1.59609 0.195317 0
M  V30 2453 O 236.693 1.74174 -0.0300193 0
M  V30 2454 C 233.825 3.4047 -0.171174 0
M  V30 2455 H 235.018 2.46116 -1.71368 0
M  V30 2456 H 232.571 1.26089 -0.923652 0
M  V30 2457 H 233.306 3.15176 0.763832 0
M  V30 2458 H 233.091 3.82109 -0.879514 0
M  V30 2459 H 234.581 4.17576 0.04496 0
M  V30 2460 N 235.018 0.912232 1.28515 0
M  V30 2461 C 235.966 0.389597 2.29314 0
M  V30 2462 C 236.96 -0.517915 1.61289 0
M  V30 2463 O 238.166 -0.399328 1.75515 0
M  V30 2464 H 234.541 0.107386 0.744293 0
M  V30 2465 H 236.512 1.25286 2.70825 0
M  V30 2466 C 235.261 -0.356496 3.45868 0
M  V30 2467 H 234.584 0.332608 3.98414 0
M  V30 2468 H 236.024 -0.686851 4.184 0
M  V30 2469 C 234.483 -1.56383 2.98406 0
M  V30 2470 O 235.013 -2.66294 3.00749 0
M  V30 2471 N 233.219 -1.41029 2.54085 0
M  V30 2472 H 232.766 -0.516089 2.52377 0
M  V30 2473 H 232.724 -2.21939 2.22689 0
M  V30 2474 N 236.496 -1.42363 0.676048 0
M  V30 2475 C 237.459 -2.29199 0.00766941 0
M  V30 2476 C 238.459 -1.43389 -0.727745 0
M  V30 2477 O 239.649 -1.64764 -0.56556 0
M  V30 2478 C 236.781 -3.2591 -0.999785 0
M  V30 2479 H 237.974 -2.89794 0.771988 0
M  V30 2480 H 235.527 -1.50024 0.438468 0
M  V30 2481 H 236.262 -2.70256 -1.79255 0
M  V30 2482 H 236.047 -3.89202 -0.475829 0
M  V30 2483 H 237.537 -3.91028 -1.46583 0
M  V30 2484 N 237.974 -0.419461 -1.51915 0
M  V30 2485 C 239.222 0.152637 -2.01523 0
M  V30 2486 C 239.543 1.44762 -1.30649 0
M  V30 2487 O 238.813 1.90997 -0.435535 0
M  V30 2488 H 237.393 0.0593966 -0.744635 0
M  V30 2489 H 240.055 -0.558073 -1.86739 0
M  V30 2490 H 239.151 0.341369 -3.10227 0
M  V30 2491 N 239.452 1.56882 -0.150215 0
M  V30 2492 C 240.729 1.87844 0.545327 0
M  V30 2493 C 241.109 1.0567 1.82749 0
M  V30 2494 O 240.457 0.144442 2.28043 0
M  V30 2495 C 240.667 3.39526 0.80767 0
M  V30 2496 C 242.015 4.08814 1.14703 0
M  V30 2497 O 243.039 3.44723 0.896917 0
M  V30 2498 O 241.898 5.22004 1.61784 0
M  V30 2499 H 238.992 0.778677 0.278553 0
M  V30 2500 H 241.538 1.68666 -0.187068 0
M  V30 2501 H 240.31 3.91173 -0.0996096 0
M  V30 2502 H 239.933 3.64243 1.59413 0
M  V30 2503 N 240.93 -0.123565 1.57115 0
M  V30 2504 C 242.341 -0.681198 1.73829 0
M  V30 2505 C 242.692 -1.80535 0.768214 0
M  V30 2506 O 241.817 -2.16317 -0.0599103 0
M  V30 2507 C 242.412 -1.24246 3.15196 0
M  V30 2508 C 240.971 -1.74643 3.33432 0
M  V30 2509 C 240.118 -0.644284 2.69711 0
M  V30 2510 H 243.069 0.102315 1.5837 0
M  V30 2511 H 243.09 -2.11216 3.16493 0
M  V30 2512 H 242.602 -0.424062 3.85776 0
M  V30 2513 H 240.703 -2.58974 2.67886 0
M  V30 2514 H 240.816 -1.85902 4.41562 0
M  V30 2515 H 239.18 -1.07676 2.3082 0
M  V30 2516 H 239.963 0.163058 3.42913 0
M  V30 2517 N 242.408 -1.52605 -0.393616 0
M  V30 2518 C 243.633 -1.71592 -1.16495 0
M  V30 2519 C 244.058 -0.43133 -1.83088 0
M  V30 2520 O 243.416 0.612523 -1.7064 0
M  V30 2521 C 243.464 -2.86318 -2.19213 0
M  V30 2522 O 242.568 -2.52969 -3.257 0
M  V30 2523 H 241.909 -0.570734 -0.33935 0
M  V30 2524 H 244.439 -1.99377 -0.459324 0
M  V30 2525 H 244.449 -3.1168 -2.63286 0
M  V30 2526 H 243.124 -3.79511 -1.7013 0
M  V30 2527 H 241.701 -2.38332 -2.86797 0
M  V30 2528 N 243.887 0.651787 -1.4349 0
M  V30 2529 C 244.834 1.76462 -1.4876 0
M  V30 2530 C 245.804 1.62641 -0.337189 0
M  V30 2531 O 246.989 1.82864 -0.544544 0
M  V30 2532 C 244.129 3.14623 -1.41796 0
M  V30 2533 C 243.242 3.39568 -2.67053 0
M  V30 2534 C 242.377 4.67585 -2.52068 0
M  V30 2535 C 241.416 4.85639 -3.72587 0
M  V30 2536 N 240.553 6.04915 -3.56402 0
M  V30 2537 H 245.393 1.71293 -2.43849 0
M  V30 2538 H 242.93 0.835889 -1.21043 0
M  V30 2539 H 244.888 3.94496 -1.35753 0
M  V30 2540 H 243.518 3.18859 -0.50288 0
M  V30 2541 H 242.57 2.53783 -2.8337 0
M  V30 2542 H 243.882 3.48795 -3.56572 0
M  V30 2543 H 243.036 5.55586 -2.4374 0
M  V30 2544 H 241.775 4.60681 -1.60075 0
M  V30 2545 H 240.78 3.96073 -3.81321 0
M  V30 2546 H 242.005 4.94372 -4.65589 0
M  V30 2547 H 239.951 5.9914 -2.67146 0
M  V30 2548 H 239.868 6.15106 -4.39524 0
M  V30 2549 H 241.136 6.95533 -3.51929 0
M  V30 2550 N 245.365 1.30045 0.890287 0
M  V30 2551 C 246.59 1.21598 1.68014 0
M  V30 2552 C 247.015 -0.218678 1.86825 0
M  V30 2553 O 246.373 -1.15756 1.39536 0
M  V30 2554 C 246.421 1.94434 3.03691 0
M  V30 2555 O 245.525 1.2678 3.92429 0
M  V30 2556 H 244.866 0.420856 0.513592 0
M  V30 2557 H 247.396 1.71775 1.11151 0
M  V30 2558 H 247.406 2.03251 3.5377 0
M  V30 2559 H 246.081 2.98777 2.89318 0
M  V30 2560 H 244.658 1.26282 3.50866 0
M  V30 2561 N 246.843 -1.10192 1.12674 0
M  V30 2562 C 248.12 -1.78717 0.794965 0
M  V30 2563 C 248.5 -1.98628 -0.714853 0
M  V30 2564 O 247.848 -1.58135 -1.64941 0
M  V30 2565 C 248.058 -3.11546 1.5729 0
M  V30 2566 C 249.406 -3.86382 1.76052 0
M  V30 2567 O 250.43 -3.21274 1.53823 0
M  V30 2568 O 249.289 -5.03246 2.13087 0
M  V30 2569 H 246.383 -0.774702 0.289423 0
M  V30 2570 H 248.929 -1.16819 1.23091 0
M  V30 2571 H 247.701 -2.92489 2.59935 0
M  V30 2572 H 247.324 -3.81164 1.13137 0
M  V30 2573 N 248.321 -0.919034 -1.28029 0
M  V30 2574 C 249.546 -0.570357 -1.99403 0
M  V30 2575 C 249.971 0.842486 -1.68178 0
M  V30 2576 O 249.329 1.56391 -0.917141 0
M  V30 2577 C 249.377 -0.792541 -3.51783 0
M  V30 2578 O 248.481 0.145988 -4.12142 0
M  V30 2579 H 247.822 -0.220555 -0.6263 0
M  V30 2580 H 250.352 -1.23592 -1.63053 0
M  V30 2581 H 250.362 -0.704708 -4.01868 0
M  V30 2582 H 249.037 -1.82247 -3.73844 0
M  V30 2583 H 247.614 0.00897528 -3.72899 0
M  V30 2584 N 249.799 1.42003 -0.683588 0
M  V30 2585 C 250.746 2.30798 -0.0107309 0
M  V30 2586 C 251.716 1.4645 0.783688 0
M  V30 2587 O 252.901 1.75263 0.754156 0
M  V30 2588 C 250.041 3.3238 0.928306 0
M  V30 2589 C 249.154 4.31814 0.126776 0
M  V30 2590 C 248.289 5.20468 1.06236 0
M  V30 2591 C 247.328 6.11577 0.253035 0
M  V30 2592 N 246.465 6.92754 1.14179 0
M  V30 2593 H 251.305 2.8778 -0.773727 0
M  V30 2594 H 248.842 1.41745 -0.393283 0
M  V30 2595 H 250.8 3.89813 1.48666 0
M  V30 2596 H 249.43 2.76976 1.65783 0
M  V30 2597 H 248.482 3.76427 -0.54833 0
M  V30 2598 H 249.794 4.96276 -0.501192 0
M  V30 2599 H 248.948 5.82677 1.69035 0
M  V30 2600 H 247.687 4.56204 1.7242 0
M  V30 2601 H 246.692 5.48428 -0.388108 0
M  V30 2602 H 247.917 6.77892 -0.404839 0
M  V30 2603 H 245.863 6.3111 1.78987 0
M  V30 2604 H 245.78 7.53855 0.569111 0
M  V30 2605 H 247.048 7.59441 1.75697 0
M  V30 2606 N 251.277 0.427512 1.51691 0
M  V30 2607 C 252.224 -0.388867 2.275 0
M  V30 2608 C 253.194 -1.02532 1.30677 0
M  V30 2609 O 254.379 -1.0461 1.59566 0
M  V30 2610 C 251.519 -1.48954 3.11298 0
M  V30 2611 C 250.632 -0.872194 4.23104 0
M  V30 2612 C 249.767 -1.94709 4.94228 0
M  V30 2613 C 248.806 -1.30766 5.97969 0
M  V30 2614 N 247.943 -2.32349 6.62539 0
M  V30 2615 H 252.783 0.263997 2.96828 0
M  V30 2616 H 250.32 0.142033 1.46413 0
M  V30 2617 H 252.278 -2.13887 3.58201 0
M  V30 2618 H 250.908 -2.11217 2.44105 0
M  V30 2619 H 249.96 -0.111419 3.80237 0
M  V30 2620 H 251.272 -0.365264 4.97461 0
M  V30 2621 H 250.426 -2.67327 5.44629 0
M  V30 2622 H 249.165 -2.48773 4.1948 0
M  V30 2623 H 248.17 -0.566902 5.4687 0
M  V30 2624 H 249.395 -0.774483 6.74669 0
M  V30 2625 H 247.341 -2.85511 5.90609 0
M  V30 2626 H 247.258 -1.8652 7.3263 0
M  V30 2627 H 248.526 -3.04481 7.17574 0
M  V30 2628 N 252.755 -1.56801 0.158532 0
M  V30 2629 C 253.703 -2.18638 -0.793729 0
M  V30 2630 C 254.697 -1.14669 -1.24689 0
M  V30 2631 O 255.903 -1.32895 -1.21403 0
M  V30 2632 H 252.278 -0.700226 -0.274204 0
M  V30 2633 H 254.249 -2.97367 -0.248095 0
M  V30 2634 C 252.998 -2.83139 -2.0181 0
M  V30 2635 H 252.321 -3.62863 -1.67841 0
M  V30 2636 H 253.761 -3.29894 -2.66357 0
M  V30 2637 C 252.22 -1.82244 -2.83353 0
M  V30 2638 O 252.75 -1.3 -3.80083 0
M  V30 2639 N 250.956 -1.51288 -2.48114 0
M  V30 2640 H 250.503 -1.93964 -1.69516 0
M  V30 2641 H 250.461 -0.840296 -3.02963 0
M  V30 2642 N 254.233 0.115231 -1.57178 0
M  V30 2643 C 255.458 0.840354 -1.89612 0
M  V30 2644 C 255.883 1.72464 -0.750845 0
M  V30 2645 O 255.241 1.78826 0.298478 0
M  V30 2646 C 255.289 1.64654 -3.20814 0
M  V30 2647 O 254.393 2.7538 -3.06985 0
M  V30 2648 H 253.734 0.232158 -0.622092 0
M  V30 2649 H 256.264 0.0964977 -2.04372 0
M  V30 2650 H 256.274 2.03499 -3.53627 0
M  V30 2651 H 254.949 0.997416 -4.03763 0
M  V30 2652 H 253.526 2.3971 -2.85646 0
M  V30 2653 N 255.711 1.52812 0.385517 0
M  V30 2654 C 256.941 1.71658 1.14966 0
M  V30 2655 C 257.349 0.436253 1.84102 0
M  V30 2656 O 256.692 -0.599313 1.73649 0
M  V30 2657 C 256.754 2.81309 2.23843 0
M  V30 2658 C 256.418 4.22313 1.74644 0
M  V30 2659 C 257.415 5.05352 1.22129 0
M  V30 2660 C 255.1 4.68648 1.80761 0
M  V30 2661 C 257.094 6.32807 0.763838 0
M  V30 2662 C 254.781 5.96086 1.34627 0
M  V30 2663 C 255.779 6.77996 0.825264 0
M  V30 2664 O 255.467 8.03045 0.370669 0
M  V30 2665 H 255.199 0.578022 0.350523 0
M  V30 2666 H 257.753 2.00263 0.456509 0
M  V30 2667 H 255.983 2.48133 2.96592 0
M  V30 2668 H 257.672 2.88524 2.85497 0
M  V30 2669 H 258.438 4.70736 1.16758 0
M  V30 2670 H 254.317 4.04979 2.20256 0
M  V30 2671 H 257.861 6.96689 0.356494 0
M  V30 2672 H 253.758 6.30205 1.39686 0
M  V30 2673 H 254.526 8.17021 0.491829 0
M  V30 2674 N 257.189 -0.644168 1.43834 0
M  V30 2675 C 258.414 -1.43642 1.49605 0
M  V30 2676 C 258.839 -1.8773 0.117913 0
M  V30 2677 O 258.197 -1.57938 -0.890239 0
M  V30 2678 C 258.245 -2.6416 2.45463 0
M  V30 2679 O 257.349 -3.63538 1.94714 0
M  V30 2680 H 256.69 -0.430329 0.50568 0
M  V30 2681 H 259.22 -0.787448 1.8884 0
M  V30 2682 H 259.23 -3.11864 2.63068 0
M  V30 2683 H 257.905 -2.31414 3.45572 0
M  V30 2684 H 256.482 -3.2273 1.86814 0
M  V30 2685 N 258.668 -1.30515 -0.883378 0
M  V30 2686 C 259.898 -1.22182 -1.66599 0
M  V30 2687 C 260.306 0.217507 -1.87946 0
M  V30 2688 O 259.649 1.1554 -1.42815 0
M  V30 2689 C 259.711 -1.88146 -3.06335 0
M  V30 2690 C 259.375 -3.37476 -3.08154 0
M  V30 2691 C 260.372 -4.33443 -2.87094 0
M  V30 2692 C 258.057 -3.7895 -3.29701 0
M  V30 2693 C 260.051 -5.68858 -2.8754 0
M  V30 2694 C 257.738 -5.14482 -3.29776 0
M  V30 2695 C 258.736 -6.09246 -3.0872 0
M  V30 2696 O 258.424 -7.42302 -3.08615 0
M  V30 2697 H 258.156 -0.423898 -0.52658 0
M  V30 2698 H 260.71 -1.72703 -1.11188 0
M  V30 2699 H 258.94 -1.32157 -3.63416 0
M  V30 2700 H 260.629 -1.7391 -3.66756 0
M  V30 2701 H 261.395 -4.02733 -2.70243 0
M  V30 2702 H 257.274 -3.05631 -3.45124 0
M  V30 2703 H 260.818 -6.428 -2.71024 0
M  V30 2704 H 256.715 -5.44832 -3.46163 0
M  V30 2705 H 257.483 -7.5131 -3.24769 0
M  V30 2706 N 260.146 1.09593 -1.13257 0
M  V30 2707 C 261.394 1.81375 -0.891492 0
M  V30 2708 C 261.715 1.86049 0.584009 0
M  V30 2709 O 260.985 1.34481 1.42449 0
M  V30 2710 H 259.565 0.671708 -0.326828 0
M  V30 2711 H 262.227 1.3256 -1.42877 0
M  V30 2712 H 261.323 2.84612 -1.28071 0
M  V30 2713 N 261.624 0.925811 1.2754 0
M  V30 2714 C 262.87 0.575575 1.95086 0
M  V30 2715 C 263.225 -0.873246 1.71441 0
M  V30 2716 O 262.518 -1.61443 1.03183 0
M  V30 2717 C 262.712 0.835296 3.47502 0
M  V30 2718 C 262.541 2.30781 3.85967 0
M  V30 2719 C 261.311 2.96017 4.09514 0
M  V30 2720 C 263.509 3.28519 3.95702 0
M  V30 2721 N 261.491 4.3344 4.34744 0
M  V30 2722 C 262.862 4.51146 4.25285 0
M  V30 2723 C 264.917 3.23753 3.7827 0
M  V30 2724 C 263.62 5.69606 4.39251 0
M  V30 2725 C 265.646 4.41523 3.9346 0
M  V30 2726 C 265.008 5.62928 4.23428 0
M  V30 2727 H 261.107 0.260711 0.737261 0
M  V30 2728 H 263.691 1.19204 1.53943 0
M  V30 2729 H 261.862 0.248005 3.87607 0
M  V30 2730 H 263.594 0.447878 4.02214 0
M  V30 2731 H 260.349 2.46695 4.04275 0
M  V30 2732 H 260.773 5.04528 4.5142 0
M  V30 2733 H 265.415 2.3096 3.54143 0
M  V30 2734 H 263.133 6.62866 4.62205 0
M  V30 2735 H 266.719 4.39351 3.81394 0
M  V30 2736 H 265.599 6.52538 4.34929 0
M  V30 2737 N 263.102 -1.41638 0.69111 0
M  V30 2738 C 264.327 -2.06148 0.227583 0
M  V30 2739 C 264.752 -1.51652 -1.11281 0
M  V30 2740 O 264.11 -0.64164 -1.69566 0
M  V30 2741 C 264.158 -3.60095 0.190858 0
M  V30 2742 O 263.262 -4.03845 -0.835664 0
M  V30 2743 H 262.603 -0.654434 0.112306 0
M  V30 2744 H 265.133 -1.81484 0.944714 0
M  V30 2745 H 265.143 -4.07995 0.020207 0
M  V30 2746 H 263.818 -3.99129 1.16915 0
M  V30 2747 H 262.395 -3.67458 -0.63473 0
M  V30 2748 N 264.58 -0.43555 -1.51462 0
M  V30 2749 C 265.827 0.131514 -2.02072 0
M  V30 2750 C 266.155 1.42868 -1.31981 0
M  V30 2751 O 265.41 1.91076 -0.422883 0
M  V30 2752 C 265.709 0.39942 -3.55161 0
M  V30 2753 C 265.375 -0.81172 -4.43533 0
M  V30 2754 C 264.037 -1.14387 -4.67407 0
M  V30 2755 C 266.389 -1.61976 -4.95392 0
M  V30 2756 C 263.717 -2.28477 -5.40384 0
M  V30 2757 C 266.069 -2.75164 -5.6962 0
M  V30 2758 C 264.733 -3.08835 -5.91758 0
M  V30 2759 H 264.003 0.0481244 -0.739436 0
M  V30 2760 H 266.65 -0.58238 -1.8243 0
M  V30 2761 H 264.955 1.19519 -3.73125 0
M  V30 2762 H 266.652 0.85157 -3.91854 0
M  V30 2763 H 263.242 -0.542898 -4.25148 0
M  V30 2764 H 267.426 -1.37637 -4.76833 0
M  V30 2765 H 262.682 -2.5488 -5.55739 0
M  V30 2766 H 266.856 -3.38147 -6.08793 0
M  V30 2767 H 264.483 -3.97353 -6.48086 0
M  V30 2768 N 266.058 1.56714 -0.166846 0
M  V30 2769 C 267.288 2.00828 0.48494 0
M  V30 2770 C 267.696 1.04612 1.57648 0
M  V30 2771 O 267.039 0.0383201 1.8366 0
M  V30 2772 C 267.101 3.4137 1.12723 0
M  V30 2773 C 266.765 4.56654 0.177886 0
M  V30 2774 C 267.762 5.16402 -0.60207 0
M  V30 2775 C 265.447 5.02244 0.0750139 0
M  V30 2776 C 267.441 6.20167 -1.47215 0
M  V30 2777 C 265.128 6.05859 -0.798649 0
M  V30 2778 C 266.126 6.64691 -1.57082 0
M  V30 2779 O 265.814 7.66297 -2.42989 0
M  V30 2780 H 265.546 0.663587 0.128953 0
M  V30 2781 H 268.1 2.03692 -0.264365 0
M  V30 2782 H 266.33 3.35406 1.92457 0
M  V30 2783 H 268.019 3.69466 1.68076 0
M  V30 2784 H 268.785 4.82065 -0.53274 0
M  V30 2785 H 264.664 4.56167 0.665812 0
M  V30 2786 H 268.208 6.66016 -2.07531 0
M  V30 2787 H 264.105 6.39621 -0.869199 0
M  V30 2788 H 264.873 7.83601 -2.36455 0
M  V30 2789 N 267.536 -0.106894 1.57237 0
M  V30 2790 C 268.783 -0.812526 1.85484 0
M  V30 2791 C 269.111 -1.79304 0.753687 0
M  V30 2792 O 268.366 -1.94047 -0.253853 0
M  V30 2793 C 268.665 -1.58628 3.20268 0
M  V30 2794 C 268.331 -0.748967 4.44636 0
M  V30 2795 C 266.993 -0.518104 4.78403 0
M  V30 2796 C 269.345 -0.166122 5.20935 0
M  V30 2797 C 266.673 0.305659 5.85903 0
M  V30 2798 C 269.025 0.644899 6.29304 0
M  V30 2799 C 267.689 0.885965 6.61594 0
M  V30 2800 H 266.959 -0.297324 0.678734 0
M  V30 2801 H 269.606 -0.0744332 1.91355 0
M  V30 2802 H 267.911 -2.39562 3.10028 0
M  V30 2803 H 269.608 -2.13643 3.39349 0
M  V30 2804 H 266.198 -0.939006 4.18187 0
M  V30 2805 H 270.382 -0.33167 4.95191 0
M  V30 2806 H 265.638 0.501528 6.0934 0
M  V30 2807 H 269.812 1.10345 6.87602 0
M  V30 2808 H 267.439 1.52609 7.44725 0
M  V30 2809 N 269.014 -1.53014 -0.377408 0
M  V30 2810 C 270.262 -1.6829 -1.11906 0
M  V30 2811 C 270.583 -0.431206 -1.90173 0
M  V30 2812 O 269.853 0.554595 -1.87886 0
M  V30 2813 H 268.433 -0.620371 -0.416112 0
M  V30 2814 H 271.095 -1.90167 -0.426893 0
M  V30 2815 H 270.191 -2.53862 -1.8155 0
M  V30 2816 N 270.492 0.636531 -1.44174 0
M  V30 2817 C 271.455 1.73063 -1.50273 0
M  V30 2818 C 272.455 1.56113 -0.385397 0
M  V30 2819 O 273.645 1.61707 -0.64781 0
M  V30 2820 C 270.777 3.12096 -1.37145 0
M  V30 2821 H 271.97 1.69031 -2.47727 0
M  V30 2822 H 269.523 0.849706 -1.31186 0
M  V30 2823 H 270.258 3.21728 -0.407636 0
M  V30 2824 H 270.043 3.25805 -2.18159 0
M  V30 2825 H 271.533 3.91846 -1.44382 0
M  V30 2826 N 271.97 1.30982 0.876444 0
M  V30 2827 C 272.9 1.20668 1.99903 0
M  V30 2828 C 273.881 0.095354 1.69833 0
M  V30 2829 O 275.066 0.27885 1.92188 0
M  V30 2830 C 272.196 0.90655 3.3526 0
M  V30 2831 C 271.15 1.97675 3.79617 0
M  V30 2832 C 270.476 1.52943 5.1236 0
M  V30 2833 C 271.776 3.389 3.97422 0
M  V30 2834 H 273.47 2.14586 2.0879 0
M  V30 2835 H 271.016 1.03308 1.00317 0
M  V30 2836 H 272.969 0.821025 4.13324 0
M  V30 2837 H 271.693 -0.0682969 3.26529 0
M  V30 2838 H 270.352 2.05205 3.03787 0
M  V30 2839 H 270 0.54262 5.00065 0
M  V30 2840 H 269.7 2.24532 5.43009 0
M  V30 2841 H 271.224 1.45786 5.92941 0
M  V30 2842 H 272.638 3.34081 4.659 0
M  V30 2843 H 271.035 4.0865 4.3946 0
M  V30 2844 H 272.105 3.80163 3.01006 0
M  V30 2845 N 273.449 -1.08991 1.13837 0
M  V30 2846 C 274.674 -1.85551 0.926585 0
M  V30 2847 C 275.099 -1.80782 -0.519566 0
M  V30 2848 O 274.457 -1.18855 -1.36906 0
M  V30 2849 C 274.505 -3.31266 1.42462 0
M  V30 2850 O 273.609 -4.07822 0.612789 0
M  V30 2851 H 272.95 -0.575192 0.331738 0
M  V30 2852 H 275.48 -1.37604 1.51414 0
M  V30 2853 H 275.49 -3.82112 1.43019 0
M  V30 2854 H 274.165 -3.34052 2.47754 0
M  V30 2855 H 272.742 -3.66731 0.675463 0
M  V30 2856 N 274.927 -0.932562 -1.27047 0
M  V30 2857 C 276.174 -0.575559 -1.94148 0
M  V30 2858 C 276.502 0.883984 -1.73251 0
M  V30 2859 O 275.757 1.64655 -1.0577 0
M  V30 2860 C 276.056 -0.853713 -3.47054 0
M  V30 2861 C 275.722 -2.29577 -3.88079 0
M  V30 2862 C 274.384 -2.68999 -3.9899 0
M  V30 2863 C 276.736 -3.23331 -4.08787 0
M  V30 2864 C 274.064 -4.01289 -4.28 0
M  V30 2865 C 276.416 -4.55207 -4.39282 0
M  V30 2866 C 275.08 -4.94457 -4.48407 0
M  V30 2867 H 274.35 -0.210612 -0.710439 0
M  V30 2868 H 276.997 -1.17744 -1.51025 0
M  V30 2869 H 275.302 -0.169204 -3.91434 0
M  V30 2870 H 276.999 -0.55639 -3.97121 0
M  V30 2871 H 273.589 -1.97994 -3.80127 0
M  V30 2872 H 277.773 -2.94074 -3.99793 0
M  V30 2873 H 273.029 -4.31374 -4.33275 0
M  V30 2874 H 277.203 -5.27852 -4.54252 0
M  V30 2875 H 274.83 -5.96994 -4.7064 0
M  V30 2876 N 276.405 1.4127 -0.698611 0
M  V30 2877 C 277.654 2.00408 -0.227949 0
M  V30 2878 C 277.967 1.55981 1.18023 0
M  V30 2879 O 279.173 2.07699 1.74852 0
M  V30 2880 C 277.629 3.58129 -0.356636 0
M  V30 2881 C 277.237 4.11536 -1.77037 0
M  V30 2882 C 278.981 4.24466 0.0540969 0
M  V30 2883 C 276.888 5.61701 -1.85055 0
M  V30 2884 H 275.818 0.749586 -0.0814657 0
M  V30 2885 H 278.469 1.61713 -0.867249 0
M  V30 2886 H 276.851 3.94442 0.350965 0
M  V30 2887 H 278.025 3.86636 -2.50698 0
M  V30 2888 H 276.34 3.57736 -2.13105 0
M  V30 2889 H 278.937 5.34698 0.0146723 0
M  V30 2890 H 279.28 4.01687 1.09332 0
M  V30 2891 H 279.813 3.93198 -0.603337 0
M  V30 2892 H 276.552 5.89312 -2.8704 0
M  V30 2893 H 276.072 5.88519 -1.15783 0
M  V30 2894 H 277.751 6.26524 -1.61484 0
M  V30 2895 N 277.883 0.443576 1.51229 0
M  V30 2896 C 279.132 -0.122332 2.01329 0
M  V30 2897 C 279.445 -1.43237 1.33201 0
M  V30 2898 O 280.651 -2.0816 1.74304 0
M  V30 2899 C 279.107 -0.268551 3.58897 0
M  V30 2900 C 278.715 1.03142 4.35965 0
M  V30 2901 C 280.459 -0.787894 4.17124 0
M  V30 2902 C 278.366 0.850504 5.85252 0
M  V30 2903 H 277.296 -0.0494929 0.752374 0
M  V30 2904 H 279.947 0.574289 1.74282 0
M  V30 2905 H 278.329 -1.02832 3.82415 0
M  V30 2906 H 279.503 1.80001 4.24189 0
M  V30 2907 H 277.818 1.47977 3.89219 0
M  V30 2908 H 280.415 -0.939841 5.26375 0
M  V30 2909 H 280.758 -1.77201 3.76703 0
M  V30 2910 H 281.291 -0.0862669 3.97706 0
M  V30 2911 H 278.03 1.80718 6.30096 0
M  V30 2912 H 277.55 0.121825 5.99676 0
M  V30 2913 H 279.229 0.506163 6.45017 0
M  V30 2914 N 279.361 -1.56624 0.175154 0
M  V30 2915 C 280.324 -2.16934 -0.739738 0
M  V30 2916 C 281.324 -1.11842 -1.15533 0
M  V30 2917 O 282.514 -1.37335 -1.07167 0
M  V30 2918 C 279.646 -2.75531 -2.00738 0
M  V30 2919 H 280.839 -2.99131 -0.214639 0
M  V30 2920 H 278.392 -1.56123 -0.0744197 0
M  V30 2921 H 279.127 -1.97078 -2.57548 0
M  V30 2922 H 278.912 -3.52444 -1.71831 0
M  V30 2923 H 280.402 -3.21904 -2.66021 0
M  V30 2924 N 280.839 0.0985539 -1.57292 0
M  V30 2925 C 281.749 1.13824 -2.05137 0
M  V30 2926 C 282.765 1.44076 -0.975604 0
M  V30 2927 O 283.941 1.54786 -1.28853 0
M  V30 2928 C 281.006 2.43969 -2.46333 0
M  V30 2929 C 280.067 2.2093 -3.68087 0
M  V30 2930 C 279.3 3.44869 -4.0731 0
M  V30 2931 O 279.523 4.52972 -3.46659 0
M  V30 2932 O 278.457 3.34661 -5.00285 0
M  V30 2933 H 282.283 0.761881 -2.93988 0
M  V30 2934 H 279.868 0.310818 -1.46131 0
M  V30 2935 H 281.75 3.20609 -2.73473 0
M  V30 2936 H 280.425 2.81038 -1.60621 0
M  V30 2937 H 279.332 1.42081 -3.46069 0
M  V30 2938 H 280.665 1.88755 -4.54568 0
M  V30 2939 N 282.317 1.53212 0.369288 0
M  V30 2940 C 283.25 1.74166 1.4745 0
M  V30 2941 C 284.228 0.589923 1.51521 0
M  V30 2942 O 285.412 0.822078 1.69629 0
M  V30 2943 C 282.539 1.81711 2.8583 0
M  V30 2944 C 281.585 3.03649 2.99499 0
M  V30 2945 S 282.418 4.63242 2.6864 0
M  V30 2946 C 283.574 4.7363 4.09177 0
M  V30 2947 H 283.807 2.67636 1.29454 0
M  V30 2948 H 281.34 1.43754 0.563396 0
M  V30 2949 H 283.298 1.86743 3.65564 0
M  V30 2950 H 281.959 0.89299 3.01139 0
M  V30 2951 H 281.152 3.05526 4.00836 0
M  V30 2952 H 280.754 2.9671 2.27683 0
M  V30 2953 H 283.046 4.53456 5.03372 0
M  V30 2954 H 283.989 5.75682 4.12306 0
M  V30 2955 H 284.397 4.02295 3.96004 0
M  V30 2956 N 283.795 -0.628877 1.44509 0
M  V30 2957 C 285.041 -1.39045 1.47629 0
M  V30 2958 C 285.374 -1.93892 0.109343 0
M  V30 2959 O 284.649 -1.7379 -0.87334 0
M  V30 2960 C 284.932 -2.55408 2.53848 0
M  V30 2961 C 284.785 -2.05896 3.99909 0
M  V30 2962 C 286.104 -3.5759 2.56549 0
M  V30 2963 H 283.223 -0.504232 0.537512 0
M  V30 2964 H 285.865 -0.710854 1.76201 0
M  V30 2965 H 284.015 -3.13384 2.29615 0
M  V30 2966 H 285.687 -1.52734 4.35282 0
M  V30 2967 H 283.93 -1.37061 4.11578 0
M  V30 2968 H 284.601 -2.89681 4.69882 0
M  V30 2969 H 287.077 -3.09419 2.78207 0
M  V30 2970 H 285.953 -4.36527 3.32769 0
M  V30 2971 H 286.214 -4.11808 1.60832 0
M  V30 2972 N 285.273 -1.31445 -0.869486 0
M  V30 2973 C 286.521 -1.20918 -1.61936 0
M  V30 2974 C 286.842 0.232683 -1.93607 0
M  V30 2975 O 286.112 1.15352 -1.58338 0
M  V30 2976 H 284.692 -0.44454 -0.600328 0
M  V30 2977 H 287.354 -1.64776 -1.0409 0
M  V30 2978 H 286.45 -1.78124 -2.56278 0
M  V30 2979 N 286.751 1.08385 -1.14413 0
M  V30 2980 C 287.997 1.81044 -0.913834 0
M  V30 2981 C 288.33 1.86004 0.558209 0
M  V30 2982 O 287.605 1.33606 1.4135 0
M  V30 2983 C 287.888 3.26648 -1.51569 0
M  V30 2984 C 287.741 3.29895 -3.0576 0
M  V30 2985 C 289.06 4.23629 -1.19273 0
M  V30 2986 H 286.179 0.65727 -0.333414 0
M  V30 2987 H 288.821 1.26896 -1.41412 0
M  V30 2988 H 286.971 3.72889 -1.09023 0
M  V30 2989 H 288.643 2.91977 -3.57137 0
M  V30 2990 H 286.886 2.69163 -3.40197 0
M  V30 2991 H 287.557 4.32516 -3.42977 0
M  V30 2992 H 290.033 3.85727 -1.56057 0
M  V30 2993 H 288.909 5.23822 -1.64017 0
M  V30 2994 H 289.17 4.41968 -0.108068 0
M  V30 2995 N 288.23 0.939286 1.26551 0
M  V30 2996 C 289.16 0.465044 2.28822 0
M  V30 2997 C 290.141 -0.480692 1.63167 0
M  V30 2998 O 291.326 -0.382955 1.90387 0
M  V30 2999 C 288.456 -0.27234 3.46231 0
M  V30 3000 C 287.41 0.58666 4.2396 0
M  V30 3001 C 286.736 -0.280573 5.33963 0
M  V30 3002 C 288.036 1.85704 4.88171 0
M  V30 3003 H 289.73 1.31979 2.68741 0
M  V30 3004 H 287.276 0.636061 1.29191 0
M  V30 3005 H 289.229 -0.615133 4.16886 0
M  V30 3006 H 287.953 -1.16121 3.0526 0
M  V30 3007 H 286.612 0.91232 3.55067 0
M  V30 3008 H 286.26 -1.16874 4.89234 0
M  V30 3009 H 285.96 0.29076 5.8688 0
M  V30 3010 H 287.484 -0.618678 6.07458 0
M  V30 3011 H 288.898 1.58161 5.51052 0
M  V30 3012 H 287.295 2.37279 5.51197 0
M  V30 3013 H 288.365 2.56957 4.11219 0
M  V30 3014 N 289.708 -1.40897 0.706093 0
M  V30 3015 C 290.671 -2.29131 0.0562841 0
M  V30 3016 C 291.671 -1.44901 -0.697166 0
M  V30 3017 O 292.861 -1.65926 -0.530484 0
M  V30 3018 C 289.993 -3.27957 -0.93043 0
M  V30 3019 H 291.186 -2.88091 0.833284 0
M  V30 3020 H 288.739 -1.4906 0.470192 0
M  V30 3021 H 289.474 -2.73997 -1.73482 0
M  V30 3022 H 289.259 -3.90124 -0.393166 0
M  V30 3023 H 290.749 -3.94049 -1.38256 0
M  V30 3024 N 291.186 -0.45159 -1.50991 0
M  V30 3025 C 292.432 0.110237 -2.025 0
M  V30 3026 C 292.765 1.41109 -1.33424 0
M  V30 3027 O 292.04 1.89135 -0.453659 0
M  V30 3028 C 292.323 0.314271 -3.58726 0
M  V30 3029 C 292.176 -1.00623 -4.38401 0
M  V30 3030 C 293.495 1.07767 -4.26702 0
M  V30 3031 H 290.614 0.0385897 -0.735989 0
M  V30 3032 H 293.256 -0.593374 -1.80497 0
M  V30 3033 H 291.406 0.913601 -3.77605 0
M  V30 3034 H 293.078 -1.64064 -4.31139 0
M  V30 3035 H 291.321 -1.6075 -4.02917 0
M  V30 3036 H 291.992 -0.817341 -5.45915 0
M  V30 3037 H 294.468 0.56986 -4.12179 0
M  V30 3038 H 293.344 1.18921 -5.35863 0
M  V30 3039 H 293.605 2.10939 -3.88532 0
M  V30 3040 N 292.664 1.56529 -0.183458 0
M  V30 3041 C 293.614 2.1515 0.754605 0
M  V30 3042 C 294.598 1.08904 1.18443 0
M  V30 3043 O 295.79 1.34997 1.14476 0
M  V30 3044 C 292.919 2.80531 1.97881 0
M  V30 3045 C 292.005 3.93952 1.57043 0
M  V30 3046 N 292.396 4.98221 0.87231 0
M  V30 3047 C 290.694 4.05338 1.86057 0
M  V30 3048 C 291.395 5.77836 0.669377 0
M  V30 3049 N 290.371 5.29858 1.21454 0
M  V30 3050 H 294.173 2.93132 0.212387 0
M  V30 3051 H 291.687 1.62391 0.0167725 0
M  V30 3052 H 293.684 3.20914 2.6612 0
M  V30 3053 H 292.344 2.04035 2.52586 0
M  V30 3054 H 293.355 5.15191 0.529033 0
M  V30 3055 H 290.032 3.39957 2.42354 0
M  V30 3056 H 291.422 6.71799 0.116422 0
M  V30 3057 N 294.142 -0.090211 1.57342 0
M  V30 3058 C 295.075 -1.14035 1.97664 0
M  V30 3059 C 296.053 -1.38576 0.850616 0
M  V30 3060 O 297.237 -1.52255 1.11134 0
M  V30 3061 C 294.364 -2.48854 2.2976 0
M  V30 3062 C 293.41 -2.40564 3.52181 0
M  V30 3063 S 294.243 -1.81745 5.03715 0
M  V30 3064 C 295.399 -3.18178 5.38993 0
M  V30 3065 H 295.632 -0.796636 2.86428 0
M  V30 3066 H 293.165 -0.298072 1.51496 0
M  V30 3067 H 295.123 -3.26413 2.48927 0
M  V30 3068 H 293.784 -2.80393 1.41558 0
M  V30 3069 H 292.977 -3.39942 3.72096 0
M  V30 3070 H 292.579 -1.71135 3.32549 0
M  V30 3071 H 294.871 -4.14461 5.35937 0
M  V30 3072 H 295.814 -3.03062 6.39968 0
M  V30 3073 H 296.222 -3.17935 4.66452 0
M  V30 3074 N 295.62 -1.53406 -0.361157 0
M  V30 3075 C 296.867 -1.69802 -1.10333 0
M  V30 3076 C 297.195 -0.452087 -1.89173 0
M  V30 3077 O 296.45 0.566017 -1.87336 0
M  V30 3078 C 296.749 -2.90211 -2.08596 0
M  V30 3079 C 296.415 -4.26539 -1.46203 0
M  V30 3080 C 295.077 -4.6361 -1.28915 0
M  V30 3081 C 297.429 -5.113 -1.01101 0
M  V30 3082 C 294.757 -5.83075 -0.651157 0
M  V30 3083 C 297.109 -6.31415 -0.387007 0
M  V30 3084 C 295.773 -6.67195 -0.201657 0
M  V30 3085 H 295.043 -0.621351 -0.403737 0
M  V30 3086 H 297.69 -1.87598 -0.384609 0
M  V30 3087 H 295.995 -2.66946 -2.86788 0
M  V30 3088 H 297.692 -3.00091 -2.65982 0
M  V30 3089 H 294.282 -3.97352 -1.60653 0
M  V30 3090 H 298.466 -4.83206 -1.13249 0
M  V30 3091 H 293.722 -6.09385 -0.496006 0
M  V30 3092 H 297.896 -6.96394 -0.0293563 0
M  V30 3093 H 295.523 -7.59628 0.294766 0
M  V30 3094 N 297.098 0.621204 -1.44841 0
M  V30 3095 C 298.347 1.37658 -1.47422 0
M  V30 3096 C 298.66 1.95264 -0.114629 0
M  V30 3097 O 299.866 2.71494 -0.0180199 0
M  V30 3098 C 298.322 2.49285 -2.59586 0
M  V30 3099 C 297.93 1.98149 -4.01797 0
M  V30 3100 C 299.674 3.26409 -2.71399 0
M  V30 3101 C 297.581 3.07178 -5.05367 0
M  V30 3102 H 296.511 0.517344 -0.548517 0
M  V30 3103 H 299.162 0.667257 -1.70938 0
M  V30 3104 H 297.544 3.22839 -2.29328 0
M  V30 3105 H 298.718 1.31395 -4.41669 0
M  V30 3106 H 297.033 1.33812 -3.94314 0
M  V30 3107 H 299.63 4.07706 -3.45948 0
M  V30 3108 H 299.973 3.76535 -1.77559 0
M  V30 3109 H 300.506 2.5995 -3.01116 0
M  V30 3110 H 297.245 2.61985 -6.00869 0
M  V30 3111 H 296.765 3.72542 -4.70077 0
M  V30 3112 H 298.444 3.71789 -5.29511 0
M  V30 3113 N 298.576 1.31904 0.862503 0
M  V30 3114 C 299.853 1.12644 1.59908 0
M  V30 3115 C 300.233 -0.316104 2.0872 0
M  V30 3116 O 299.581 -1.31145 1.87118 0
M  V30 3117 C 299.791 2.1472 2.7513 0
M  V30 3118 C 301.139 2.47637 3.44907 0
M  V30 3119 O 302.163 2.13205 2.85346 0
M  V30 3120 O 301.022 3.06632 4.52371 0
M  V30 3121 H 298.116 0.43416 0.703871 0
M  V30 3122 H 300.662 1.43408 0.907314 0
M  V30 3123 H 299.434 3.1172 2.3653 0
M  V30 3124 H 299.057 1.84905 3.51989 0
M  V30 3125 N 300.054 -1.07777 1.14986 0
M  V30 3126 C 301.47 -1.32373 0.891596 0
M  V30 3127 C 301.67 -1.9609 -0.463788 0
M  V30 3128 O 300.726 -2.21801 -1.20667 0
M  V30 3129 C 302.039 -2.21905 2.02925 0
M  V30 3130 C 303.587 -2.35367 2.06329 0
M  V30 3131 C 304.062 -3.28245 3.19405 0
M  V30 3132 N 305.553 -3.35824 3.19024 0
M  V30 3133 C 306.288 -4.07739 4.03158 0
M  V30 3134 N 305.784 -4.82306 4.97346 0
M  V30 3135 N 307.577 -4.03635 3.91197 0
M  V30 3136 H 299.728 -0.648039 2.02273 0
M  V30 3137 H 301.991 -0.348149 0.881757 0
M  V30 3138 H 301.697 -1.82342 3.0074 0
M  V30 3139 H 301.571 -3.22407 1.95789 0
M  V30 3140 H 303.958 -2.74186 1.09116 0
M  V30 3141 H 304.039 -1.34585 2.17533 0
M  V30 3142 H 303.683 -2.90146 4.16867 0
M  V30 3143 H 303.613 -4.28971 3.05437 0
M  V30 3144 H 306.104 -2.8267 2.50811 0
M  V30 3145 H 306.417 -5.34661 5.57994 0
M  V30 3146 H 304.762 -4.81337 5.01338 0
M  V30 3147 H 307.953 -3.44491 3.16928 0
M  V30 3148 H 308.126 -4.59417 4.5699 0
M  V30 3149 N 301.532 -0.945985 -1.26051 0
M  V30 3150 C 302.482 -0.430164 -2.23905 0
M  V30 3151 C 303.466 0.47579 -1.53704 0
M  V30 3152 O 304.658 0.310252 -1.7426 0
M  V30 3153 C 301.787 0.298957 -3.41996 0
M  V30 3154 C 300.873 -0.624566 -4.19476 0
M  V30 3155 N 301.264 -1.75245 -4.74471 0
M  V30 3156 C 299.562 -0.431082 -4.43912 0
M  V30 3157 C 300.263 -2.32834 -5.3307 0
M  V30 3158 N 299.239 -1.61583 -5.1903 0
M  V30 3159 H 303.041 -1.29107 -2.64024 0
M  V30 3160 H 300.555 -0.802428 -1.41191 0
M  V30 3161 H 302.552 0.685565 -4.11225 0
M  V30 3162 H 301.212 1.15657 -3.03403 0
M  V30 3163 H 302.223 -2.13449 -4.71868 0
M  V30 3164 H 298.9 0.384364 -4.15727 0
M  V30 3165 H 300.29 -3.27893 -5.86461 0
M  V30 3166 N 303.011 1.40521 -0.713556 0
M  V30 3167 C 303.958 2.30723 -0.059684 0
M  V30 3168 C 304.928 1.48079 0.752448 0
M  V30 3169 O 306.113 1.76823 0.71681 0
M  V30 3170 C 303.253 3.34274 0.857594 0
M  V30 3171 C 302.366 4.31986 0.0351536 0
M  V30 3172 C 301.501 5.22605 0.951724 0
M  V30 3173 C 300.54 6.11976 0.123253 0
M  V30 3174 N 299.677 6.9502 0.99459 0
M  V30 3175 H 304.517 2.86074 -0.834596 0
M  V30 3176 H 302.054 1.40879 -0.42326 0
M  V30 3177 H 304.012 3.92879 1.40364 0
M  V30 3178 H 302.642 2.8043 1.59871 0
M  V30 3179 H 301.694 3.7518 -0.628052 0
M  V30 3180 H 303.006 4.95101 -0.606347 0
M  V30 3181 H 302.16 5.86131 1.56638 0
M  V30 3182 H 300.899 4.59759 1.62705 0
M  V30 3183 H 299.904 5.47482 -0.50435 0
M  V30 3184 H 301.129 6.76881 -0.548539 0
M  V30 3185 H 299.075 6.34764 1.6556 0
M  V30 3186 H 298.992 7.54892 0.40908 0
M  V30 3187 H 300.26 7.62997 1.59549 0
M  V30 3188 N 304.489 0.459591 1.5075 0
M  V30 3189 C 305.421 -0.37665 2.26084 0
M  V30 3190 C 306.434 -0.967109 1.30961 0
M  V30 3191 O 307.623 -0.857468 1.56556 0
M  V30 3192 C 304.723 -1.54112 3.01832 0
M  V30 3193 C 303.896 -1.06553 4.24223 0
M  V30 3194 C 302.955 -2.1027 4.82362 0
M  V30 3195 O 301.981 -1.68798 5.43595 0
M  V30 3196 N 303.183 -3.42974 4.68347 0
M  V30 3197 H 305.948 0.269124 2.98489 0
M  V30 3198 H 303.509 0.28972 1.59287 0
M  V30 3199 H 305.501 -2.23165 3.37608 0
M  V30 3200 H 304.071 -2.0918 2.32298 0
M  V30 3201 H 303.291 -0.201274 3.93686 0
M  V30 3202 H 304.579 -0.725516 5.03601 0
M  V30 3203 H 303.977 -3.79385 4.19623 0
M  V30 3204 H 302.534 -4.07858 5.08424 0
M  V30 3205 N 305.967 -1.56429 0.191757 0
M  V30 3206 C 306.897 -2.21937 -0.725696 0
M  V30 3207 C 307.878 -1.1814 -1.2238 0
M  V30 3208 O 309.063 -1.46636 -1.27325 0
M  V30 3209 C 306.193 -2.87611 -1.94672 0
M  V30 3210 C 305.147 -3.97623 -1.58366 0
M  V30 3211 C 304.473 -4.50446 -2.88102 0
M  V30 3212 C 305.773 -5.16197 -0.796133 0
M  V30 3213 H 307.467 -2.98861 -0.179606 0
M  V30 3214 H 305.013 -1.43749 -0.0849464 0
M  V30 3215 H 306.966 -3.3212 -2.59373 0
M  V30 3216 H 305.69 -2.08087 -2.51728 0
M  V30 3217 H 304.349 -3.53801 -0.960247 0
M  V30 3218 H 303.997 -3.67688 -3.43241 0
M  V30 3219 H 303.697 -5.24675 -2.64556 0
M  V30 3220 H 305.221 -4.97654 -3.53798 0
M  V30 3221 H 306.635 -5.57271 -1.34618 0
M  V30 3222 H 305.032 -5.96471 -0.658928 0
M  V30 3223 H 306.102 -4.84473 0.203478 0
M  V30 3224 N 307.445 0.0818655 -1.57387 0
M  V30 3225 C 308.861 0.436412 -1.53517 0
M  V30 3226 C 309.061 1.79758 -0.910459 0
M  V30 3227 O 308.117 2.47324 -0.508636 0
M  V30 3228 C 309.43 0.386734 -2.98203 0
M  V30 3229 C 310.978 0.467644 -3.09487 0
M  V30 3230 C 311.453 0.447978 -4.55804 0
M  V30 3231 N 312.944 0.508348 -4.60402 0
M  V30 3232 C 313.679 0.515184 -5.71081 0
M  V30 3233 N 313.175 0.477435 -6.91153 0
M  V30 3234 N 314.968 0.560988 -5.59294 0
M  V30 3235 H 307.119 -0.809546 -1.96367 0
M  V30 3236 H 309.382 -0.302733 -0.898363 0
M  V30 3237 H 309.088 -0.546539 -3.47427 0
M  V30 3238 H 308.962 1.20075 -3.57578 0
M  V30 3239 H 311.349 1.39134 -2.60242 0
M  V30 3240 H 311.43 -0.374753 -2.5304 0
M  V30 3241 H 311.074 -0.471826 -5.05704 0
M  V30 3242 H 311.004 1.30777 -5.10103 0
M  V30 3243 H 313.495 0.54218 -3.7399 0
M  V30 3244 H 313.808 0.486299 -7.71268 0
M  V30 3245 H 312.153 0.444278 -6.93579 0
M  V30 3246 H 315.344 0.5881 -4.64391 0
M  V30 3247 H 315.517 0.562846 -6.45551 0
M  V30 3248 N 308.923 1.53595 0.353017 0
M  V30 3249 C 309.886 1.80232 1.41594 0
M  V30 3250 C 310.886 0.673081 1.46035 0
M  V30 3251 O 312.076 0.941335 1.46576 0
M  V30 3252 C 309.208 1.93578 2.80607 0
M  V30 3253 H 310.401 2.75174 1.19244 0
M  V30 3254 H 307.954 1.44864 0.586872 0
M  V30 3255 H 308.689 1.00746 3.08254 0
M  V30 3256 H 308.474 2.75724 2.78781 0
M  V30 3257 H 309.964 2.15735 3.57558 0
M  V30 3258 N 310.401 -0.613514 1.45168 0
M  V30 3259 C 311.629 -1.39946 1.5239 0
M  V30 3260 C 312.044 -1.88167 0.154531 0
M  V30 3261 O 311.401 -1.61872 -0.842843 0
M  V30 3262 C 311.452 -2.60795 2.50337 0
M  V30 3263 O 311.173 -2.1458 3.81952 0
M  V30 3264 C 312.674 -3.53723 2.67198 0
M  V30 3265 H 309.894 -0.428593 0.516284 0
M  V30 3266 H 312.438 -0.748753 1.903 0
M  V30 3267 H 310.593 -3.21919 2.15515 0
M  V30 3268 H 311.007 -2.93055 4.34993 0
M  V30 3269 H 312.481 -4.35079 3.39721 0
M  V30 3270 H 312.958 -4.0368 1.73029 0
M  V30 3271 H 313.564 -2.98456 3.02992 0
M  V30 3272 N 311.879 -1.3236 -0.855495 0
M  V30 3273 C 312.842 -1.21164 -1.94556 0
M  V30 3274 C 313.842 -0.134908 -1.60233 0
M  V30 3275 O 315.032 -0.385249 -1.69887 0
M  V30 3276 C 312.164 -0.863192 -3.29791 0
M  V30 3277 H 313.357 -2.18038 -2.05911 0
M  V30 3278 H 310.91 -1.16179 -1.04557 0
M  V30 3279 H 311.645 0.103769 -3.24134 0
M  V30 3280 H 311.43 -1.64166 -3.56078 0
M  V30 3281 H 312.92 -0.809156 -4.09686 0
M  V30 3282 N 313.357 1.07166 -1.15556 0
M  V30 3283 C 314.773 1.31899 -0.898603 0
M  V30 3284 C 314.973 1.96333 0.453383 0
M  V30 3285 O 314.029 2.22438 1.19489 0
M  V30 3286 C 315.342 2.20826 -2.04099 0
M  V30 3287 C 316.89 2.34269 -2.07574 0
M  V30 3288 C 317.365 3.26546 -3.21141 0
M  V30 3289 N 318.856 3.34127 -3.20801 0
M  V30 3290 C 319.591 4.05595 -4.05315 0
M  V30 3291 N 319.087 4.79661 -4.99897 0
M  V30 3292 N 320.88 4.01555 -3.93332 0
M  V30 3293 H 313.031 0.637302 -2.02613 0
M  V30 3294 H 315.294 0.343468 -0.883591 0
M  V30 3295 H 315 1.80744 -3.01703 0
M  V30 3296 H 314.874 3.21364 -1.97496 0
M  V30 3297 H 317.261 2.73603 -1.10568 0
M  V30 3298 H 317.342 1.33429 -2.18244 0
M  V30 3299 H 316.986 2.87931 -4.184 0
M  V30 3300 H 316.916 4.27345 -3.07708 0
M  V30 3301 H 319.407 2.81336 -2.52306 0
M  V30 3302 H 319.72 5.31694 -5.60822 0
M  V30 3303 H 318.065 4.78671 -5.03884 0
M  V30 3304 H 321.256 3.42806 -3.18751 0
M  V30 3305 H 321.429 4.56987 -4.5942 0
M  V30 3306 N 314.835 0.952656 1.25548 0
M  V30 3307 C 315.798 0.475794 2.24207 0
M  V30 3308 C 316.798 -0.419428 1.55234 0
M  V30 3309 O 317.988 -0.216994 1.72843 0
M  V30 3310 C 315.12 -0.312814 3.39462 0
M  V30 3311 H 316.313 1.34779 2.67908 0
M  V30 3312 H 313.866 0.735739 1.37901 0
M  V30 3313 H 314.601 -1.20257 3.01179 0
M  V30 3314 H 314.386 0.329404 3.90714 0
M  V30 3315 H 315.876 -0.635986 4.12729 0
M  V30 3316 N 316.313 -1.40141 0.720998 0
M  V30 3317 C 317.541 -2.05096 0.272656 0
M  V30 3318 C 317.956 -1.54334 -1.0875 0
M  V30 3319 O 317.313 -0.702211 -1.6845 0
M  V30 3320 C 317.364 -3.60636 0.249835 0
M  V30 3321 O 317.085 -4.09526 1.55629 0
M  V30 3322 C 318.586 -4.42772 -0.216396 0
M  V30 3323 H 315.806 -0.659897 0.121558 0
M  V30 3324 H 318.35 -1.79449 0.980723 0
M  V30 3325 H 316.505 -3.85232 -0.409237 0
M  V30 3326 H 316.919 -5.03758 1.4604 0
M  V30 3327 H 318.393 -5.51702 -0.181212 0
M  V30 3328 H 318.87 -4.20756 -1.25941 0
M  V30 3329 H 319.476 -4.23294 0.412596 0
M  V30 3330 N 317.792 -0.46758 -1.50504 0
M  V30 3331 C 319.069 0.15003 -1.95024 0
M  V30 3332 C 319.449 1.57304 -1.40779 0
M  V30 3333 O 318.797 2.20281 -0.607319 0
M  V30 3334 C 319.007 0.0969324 -3.48865 0
M  V30 3335 C 320.355 0.287565 -4.23625 0
M  V30 3336 O 321.379 0.173678 -3.55776 0
M  V30 3337 O 320.238 0.517186 -5.44047 0
M  V30 3338 H 317.332 0.113582 -0.819163 0
M  V30 3339 H 319.878 -0.52773 -1.61286 0
M  V30 3340 H 318.65 -0.896732 -3.80886 0
M  V30 3341 H 318.273 0.816303 -3.8913 0
M  V30 3342 N 319.27 1.56325 -0.20005 0
M  V30 3343 C 320.5 2.01811 0.442232 0
M  V30 3344 C 320.908 1.07932 1.55394 0
M  V30 3345 O 320.251 0.0772685 1.83537 0
M  V30 3346 C 320.313 3.43685 1.05457 0
M  V30 3347 C 319.977 4.56928 0.0809833 0
M  V30 3348 C 320.974 5.15009 -0.711471 0
M  V30 3349 C 318.659 5.0229 -0.0315364 0
M  V30 3350 C 320.653 6.16904 -1.60336 0
M  V30 3351 C 318.34 6.04028 -0.926981 0
M  V30 3352 C 319.338 6.6121 -1.71146 0
M  V30 3353 O 319.026 7.60971 -2.59189 0
M  V30 3354 H 318.758 0.666173 0.114848 0
M  V30 3355 H 321.312 2.03085 -0.307511 0
M  V30 3356 H 319.542 3.39413 1.85299 0
M  V30 3357 H 321.231 3.72948 1.60201 0
M  V30 3358 H 321.997 4.80827 -0.634873 0
M  V30 3359 H 317.876 4.57476 0.568902 0
M  V30 3360 H 321.42 6.61464 -2.21611 0
M  V30 3361 H 317.317 6.37634 -1.00468 0
M  V30 3362 H 318.085 7.7841 -2.53023 0
M  V30 3363 N 320.748 -0.0735177 1.57428 0
M  V30 3364 C 321.678 -1.0879 2.06608 0
M  V30 3365 C 322.659 -1.40473 0.959237 0
M  V30 3366 O 323.844 -1.5013 1.23185 0
M  V30 3367 C 320.974 -2.40183 2.50857 0
M  V30 3368 C 319.928 -2.22858 3.65402 0
M  V30 3369 C 319.254 -3.59619 3.957 0
M  V30 3370 C 320.554 -1.65123 4.95511 0
M  V30 3371 H 322.248 -0.678673 2.91607 0
M  V30 3372 H 319.794 -0.325013 1.40284 0
M  V30 3373 H 321.747 -3.11437 2.83874 0
M  V30 3374 H 320.471 -2.83083 1.62885 0
M  V30 3375 H 319.13 -1.54045 3.32664 0
M  V30 3376 H 318.778 -4.00086 3.04861 0
M  V30 3377 H 318.478 -3.48866 4.72828 0
M  V30 3378 H 320.002 -4.32306 4.31212 0
M  V30 3379 H 321.416 -2.26241 5.26771 0
M  V30 3380 H 319.813 -1.65071 5.7695 0
M  V30 3381 H 320.883 -0.612559 4.81015 0
M  V30 3382 N 322.226 -1.5378 -0.344866 0
M  V30 3383 C 323.158 -1.77988 -1.44406 0
M  V30 3384 C 324.171 -0.661138 -1.48771 0
M  V30 3385 O 325.36 -0.937842 -1.51877 0
M  V30 3386 C 322.46 -1.86345 -2.8307 0
M  V30 3387 C 321.633 -3.16256 -3.0216 0
M  V30 3388 C 320.692 -3.15588 -4.21059 0
M  V30 3389 O 319.718 -3.89314 -4.15239 0
M  V30 3390 N 320.92 -2.37864 -5.29529 0
M  V30 3391 H 323.685 -2.72839 -1.24012 0
M  V30 3392 H 321.246 -1.52814 -0.534737 0
M  V30 3393 H 323.238 -1.83351 -3.60783 0
M  V30 3394 H 321.808 -0.986858 -2.96614 0
M  V30 3395 H 321.028 -3.32385 -2.11929 0
M  V30 3396 H 322.316 -4.0207 -3.11797 0
M  V30 3397 H 321.714 -1.77514 -5.37127 0
M  V30 3398 H 320.271 -2.40668 -6.05741 0
M  V30 3399 N 323.704 0.605807 -1.45491 0
M  V30 3400 C 324.667 1.69836 -1.5391 0
M  V30 3401 C 325.667 1.55261 -0.418424 0
M  V30 3402 O 326.857 1.60296 -0.681965 0
M  V30 3403 C 323.989 3.09117 -1.43734 0
M  V30 3404 H 325.182 1.63738 -2.51257 0
M  V30 3405 H 322.735 0.821689 -1.32959 0
M  V30 3406 H 323.47 3.20791 -0.475788 0
M  V30 3407 H 323.255 3.21104 -2.25021 0
M  V30 3408 H 324.745 3.88696 -1.52661 0
M  V30 3409 N 325.182 1.32811 0.848464 0
M  V30 3410 C 326.407 1.26882 1.6406 0
M  V30 3411 C 326.832 -0.15913 1.87426 0
M  V30 3412 O 326.19 -1.11258 1.43148 0
M  V30 3413 C 326.238 2.03997 2.97351 0
M  V30 3414 O 325.342 1.39201 3.88197 0
M  V30 3415 H 324.683 0.436982 0.499943 0
M  V30 3416 H 327.213 1.75224 1.0563 0
M  V30 3417 H 327.223 2.14403 3.47124 0
M  V30 3418 H 325.898 3.0783 2.79666 0
M  V30 3419 H 324.475 1.37381 3.46671 0
M  V30 3420 N 326.66 -1.06551 1.16123 0
M  V30 3421 C 327.623 -2.12132 0.867906 0
M  V30 3422 C 328.623 -1.60224 -0.135944 0
M  V30 3423 O 329.813 -1.73943 0.0946422 0
M  V30 3424 C 326.945 -3.396 0.297419 0
M  V30 3425 H 328.138 -2.39586 1.80385 0
M  V30 3426 H 325.691 -1.22574 0.969812 0
M  V30 3427 H 326.426 -3.17794 -0.64633 0
M  V30 3428 H 326.211 -3.78581 1.02073 0
M  V30 3429 H 327.701 -4.17455 0.110052 0
M  V30 3430 N 328.138 -0.959301 -1.25041 0
M  V30 3431 C 329.387 -0.612254 -1.92183 0
M  V30 3432 C 329.7 0.855347 -1.75907 0
M  V30 3433 O 330.906 1.31256 -2.37664 0
M  V30 3434 C 329.362 -1.04435 -3.44414 0
M  V30 3435 C 328.97 -2.53482 -3.69393 0
M  V30 3436 C 330.714 -0.770055 -4.17457 0
M  V30 3437 C 328.621 -2.90468 -5.15153 0
M  V30 3438 H 327.551 -0.225279 -0.719559 0
M  V30 3439 H 330.202 -1.16438 -1.41825 0
M  V30 3440 H 328.584 -0.4206 -3.9376 0
M  V30 3441 H 329.758 -3.20916 -3.30681 0
M  V30 3442 H 328.073 -2.78432 -3.0962 0
M  V30 3443 H 330.67 -1.02249 -5.24832 0
M  V30 3444 H 331.013 0.293611 -4.15263 0
M  V30 3445 H 331.546 -1.35437 -3.74034 0
M  V30 3446 H 328.285 -3.95871 -5.22462 0
M  V30 3447 H 327.805 -2.27711 -5.54894 0
M  V30 3448 H 329.484 -2.79914 -5.83315 0
M  V30 3449 N 329.616 1.39756 -0.72842 0
M  V30 3450 C 330.844 2.04948 -0.283528 0
M  V30 3451 C 331.259 1.54908 1.0793 0
M  V30 3452 O 330.616 0.711135 1.68075 0
M  V30 3453 C 330.667 3.60498 -0.268957 0
M  V30 3454 O 330.388 4.08695 -1.57798 0
M  V30 3455 C 331.889 4.4288 0.192912 0
M  V30 3456 H 329.109 0.659243 -0.125056 0
M  V30 3457 H 331.653 1.78927 -0.990226 0
M  V30 3458 H 329.808 3.85444 0.388801 0
M  V30 3459 H 330.222 5.02977 -1.48709 0
M  V30 3460 H 331.696 5.51791 0.151952 0
M  V30 3461 H 332.173 4.21418 1.23708 0
M  V30 3462 H 332.779 4.23069 -0.435039 0
M  V30 3463 N 331.094 0.475555 1.50254 0
M  V30 3464 C 332.51 0.12997 1.5907 0
M  V30 3465 C 332.71 -1.36385 1.48328 0
M  V30 3466 O 331.766 -2.13754 1.34407 0
M  V30 3467 C 333.079 0.684139 2.92814 0
M  V30 3468 C 334.627 0.647965 3.0622 0
M  V30 3469 C 335.102 1.17975 4.42545 0
M  V30 3470 N 336.593 1.13936 4.48969 0
M  V30 3471 C 337.328 1.52129 5.52851 0
M  V30 3472 N 336.824 1.97793 6.63965 0
M  V30 3473 N 338.617 1.43704 5.4342 0
M  V30 3474 H 330.768 1.44706 1.55479 0
M  V30 3475 H 333.031 0.598691 0.735033 0
M  V30 3476 H 332.737 1.73079 3.06164 0
M  V30 3477 H 332.611 0.130204 3.76975 0
M  V30 3478 H 334.998 -0.38979 2.92514 0
M  V30 3479 H 335.079 1.23876 2.23805 0
M  V30 3480 H 334.723 2.21616 4.57 0
M  V30 3481 H 334.653 0.565138 5.23559 0
M  V30 3482 H 337.144 0.804488 3.69238 0
M  V30 3483 H 337.457 2.25072 7.39299 0
M  V30 3484 H 335.802 2.01749 6.65073 0
M  V30 3485 H 338.993 1.07867 4.55502 0
M  V30 3486 H 339.166 1.73794 6.24259 0
M  V30 3487 N 332.573 -1.56217 0.208337 0
M  V30 3488 C 333.822 -1.97124 -0.427204 0
M  V30 3489 C 334.135 -1.09859 -1.61835 0
M  V30 3490 O 335.341 -1.40606 -2.32255 0
M  V30 3491 C 333.797 -3.50633 -0.811442 0
M  V30 3492 C 333.405 -4.46582 0.35615 0
M  V30 3493 C 335.149 -4.00282 -1.41332 0
M  V30 3494 C 333.056 -5.91379 -0.0497852 0
M  V30 3495 H 331.986 -0.736086 -0.163381 0
M  V30 3496 H 334.637 -1.8099 0.302456 0
M  V30 3497 H 333.019 -3.62319 -1.59815 0
M  V30 3498 H 334.193 -4.46636 1.1337 0
M  V30 3499 H 332.508 -4.07202 0.870396 0
M  V30 3500 H 335.105 -5.0595 -1.72972 0
M  V30 3501 H 335.448 -3.45359 -2.32449 0
M  V30 3502 H 335.981 -3.91764 -0.690323 0
M  V30 3503 H 332.72 -6.50255 0.827529 0
M  V30 3504 H 332.24 -5.94549 -0.791926 0
M  V30 3505 H 333.919 -6.45209 -0.481042 0
M  V30 3506 N 334.051 0.0651679 -1.57465 0
M  V30 3507 C 335.462 0.616213 -1.76238 0
M  V30 3508 C 335.813 1.7756 -0.834689 0
M  V30 3509 O 334.938 2.1639 -0.0204156 0
M  V30 3510 C 335.533 1.12462 -3.1959 0
M  V30 3511 C 334.092 1.62147 -3.39684 0
M  V30 3512 C 333.239 0.543739 -2.71917 0
M  V30 3513 H 336.19 -0.161022 -1.57881 0
M  V30 3514 H 336.211 1.99324 -3.24114 0
M  V30 3515 H 335.723 0.280592 -3.87084 0
M  V30 3516 H 333.824 2.48854 -2.77313 0
M  V30 3517 H 333.937 1.69385 -4.48158 0
M  V30 3518 H 332.301 0.990352 -2.34657 0
M  V30 3519 H 333.084 -0.290216 -3.42071 0
M  V30 3520 N 335.529 1.53961 0.336706 0
M  V30 3521 C 336.754 1.75797 1.10046 0
M  V30 3522 C 337.179 0.498985 1.81361 0
M  V30 3523 O 336.537 -0.548769 1.72795 0
M  V30 3524 C 336.585 2.94257 2.08436 0
M  V30 3525 O 335.689 2.64883 3.16087 0
M  V30 3526 H 335.03 0.582936 0.317934 0
M  V30 3527 H 337.56 2.00945 0.38501 0
M  V30 3528 H 337.57 3.21237 2.51537 0
M  V30 3529 H 336.245 3.85564 1.55927 0
M  V30 3530 H 334.822 2.48812 2.77753 0
M  V30 3531 N 337.007 -0.598083 1.45811 0
M  V30 3532 C 338.237 -1.38121 1.53643 0
M  V30 3533 C 338.645 -1.88425 0.171081 0
M  V30 3534 O 337.988 -1.63409 -0.839237 0
M  V30 3535 C 338.05 -2.61432 2.46766 0
M  V30 3536 C 337.714 -2.32702 3.93318 0
M  V30 3537 C 338.711 -1.92479 4.82957 0
M  V30 3538 C 336.396 -2.45321 4.38318 0
M  V30 3539 C 338.39 -1.65248 6.15607 0
M  V30 3540 C 336.077 -2.17703 5.71007 0
M  V30 3541 C 337.075 -1.7773 6.5947 0
M  V30 3542 O 336.763 -1.50441 7.89698 0
M  V30 3543 H 336.495 -0.428863 0.522544 0
M  V30 3544 H 339.049 -0.73557 1.91777 0
M  V30 3545 H 337.279 -3.28749 2.0362 0
M  V30 3546 H 338.968 -3.23487 2.45175 0
M  V30 3547 H 339.734 -1.82258 4.49452 0
M  V30 3548 H 335.613 -2.75399 3.69697 0
M  V30 3549 H 339.157 -1.33973 6.84614 0
M  V30 3550 H 335.054 -2.27544 6.04065 0
M  V30 3551 H 335.822 -1.64415 8.01817 0
M  V30 3552 N 338.485 -1.33259 -0.841409 0
M  V30 3553 C 339.901 -1.12538 -1.13169 0
M  V30 3554 C 340.101 0.0854037 -2.01319 0
M  V30 3555 O 339.157 0.766417 -2.40587 0
M  V30 3556 C 340.47 -2.41156 -1.79623 0
M  V30 3557 C 342.018 -2.47038 -1.922 0
M  V30 3558 C 342.493 -3.7561 -2.6207 0
M  V30 3559 N 343.984 -3.76667 -2.69585 0
M  V30 3560 C 344.719 -4.72861 -3.2433 0
M  V30 3561 N 344.215 -5.79428 -3.79783 0
M  V30 3562 N 346.008 -4.6034 -3.22558 0
M  V30 3563 H 338.159 -2.10868 -0.254676 0
M  V30 3564 H 340.422 -0.931615 -0.175493 0
M  V30 3565 H 340.128 -3.29747 -1.22311 0
M  V30 3566 H 340.002 -2.53114 -2.79666 0
M  V30 3567 H 342.389 -1.58898 -2.48667 0
M  V30 3568 H 342.47 -2.39022 -0.911148 0
M  V30 3569 H 342.114 -4.64131 -2.06263 0
M  V30 3570 H 342.044 -3.80902 -3.63622 0
M  V30 3571 H 344.535 -2.99648 -2.30259 0
M  V30 3572 H 344.848 -6.48867 -4.19752 0
M  V30 3573 H 343.193 -5.83166 -3.78078 0
M  V30 3574 H 346.384 -3.76244 -2.78492 0
M  V30 3575 H 346.557 -5.35478 -3.64921 0
M  V30 3576 N 339.963 1.05934 -1.16686 0
M  V30 3577 C 341.193 1.82226 -0.973515 0
M  V30 3578 C 341.601 1.8297 0.481532 0
M  V30 3579 O 340.944 1.25009 1.34604 0
M  V30 3580 C 341.006 3.29897 -1.42858 0
M  V30 3581 C 340.67 3.52849 -2.90425 0
M  V30 3582 C 341.667 3.45595 -3.88407 0
M  V30 3583 C 339.352 3.80053 -3.28428 0
M  V30 3584 C 341.346 3.65217 -5.22394 0
M  V30 3585 C 339.033 3.99325 -4.62583 0
M  V30 3586 C 340.031 3.91905 -5.59374 0
M  V30 3587 O 339.719 4.10647 -6.91104 0
M  V30 3588 H 339.451 0.581314 -0.345036 0
M  V30 3589 H 342.005 1.3453 -1.55212 0
M  V30 3590 H 340.235 3.78472 -0.793477 0
M  V30 3591 H 341.924 3.87692 -1.20207 0
M  V30 3592 H 342.69 3.24564 -3.60393 0
M  V30 3593 H 338.569 3.84936 -2.53664 0
M  V30 3594 H 342.113 3.59341 -5.9793 0
M  V30 3595 H 338.01 4.19846 -4.90306 0
M  V30 3596 H 338.778 4.27915 -6.97733 0
M  V30 3597 N 341.441 0.965919 1.2453 0
M  V30 3598 C 342.857 0.67216 1.44756 0
M  V30 3599 C 343.057 -0.766609 1.86347 0
M  V30 3600 O 342.113 -1.5407 2.00047 0
M  V30 3601 C 343.426 1.65473 2.51076 0
M  V30 3602 C 344.974 1.66716 2.64905 0
M  V30 3603 C 345.449 2.63766 3.74421 0
M  V30 3604 N 346.94 2.62198 3.81846 0
M  V30 3605 C 347.675 3.33966 4.66106 0
M  V30 3606 N 347.171 4.15245 5.54566 0
M  V30 3607 N 348.964 3.22799 4.60171 0
M  V30 3608 H 341.115 1.89553 0.958293 0
M  V30 3609 H 343.378 0.815979 0.482579 0
M  V30 3610 H 343.084 2.68296 2.27399 0
M  V30 3611 H 342.958 1.4261 3.49202 0
M  V30 3612 H 345.345 0.646057 2.87941 0
M  V30 3613 H 345.426 1.93642 1.67142 0
M  V30 3614 H 345.07 3.6601 3.52135 0
M  V30 3615 H 345 2.34121 4.71694 0
M  V30 3616 H 347.491 2.032 3.18619 0
M  V30 3617 H 347.804 4.66898 6.15814 0
M  V30 3618 H 346.149 4.1934 5.54237 0
M  V30 3619 H 349.34 2.58764 3.90075 0
M  V30 3620 H 349.513 3.78994 5.25612 0
M  V30 3621 N 342.919 -1.39368 0.735821 0
M  V30 3622 C 344.149 -2.04498 0.293967 0
M  V30 3623 C 344.557 -1.55593 -1.07645 0
M  V30 3624 O 343.9 -0.716324 -1.69158 0
M  V30 3625 C 343.962 -3.58836 0.218342 0
M  V30 3626 C 343.626 -4.30721 1.52736 0
M  V30 3627 C 344.623 -4.57305 2.47322 0
M  V30 3628 C 342.308 -4.69251 1.79189 0
M  V30 3629 C 344.302 -5.21429 3.66593 0
M  V30 3630 C 341.989 -5.33104 2.98737 0
M  V30 3631 C 342.987 -5.59125 3.9226 0
M  V30 3632 O 342.675 -6.21653 5.09708 0
M  V30 3633 H 342.407 -0.664118 0.126189 0
M  V30 3634 H 344.961 -1.79385 1.00051 0
M  V30 3635 H 343.191 -3.8285 -0.544314 0
M  V30 3636 H 344.88 -4.05447 -0.191626 0
M  V30 3637 H 345.646 -4.27983 2.28156 0
M  V30 3638 H 341.525 -4.48354 1.07239 0
M  V30 3639 H 345.069 -5.41656 4.39607 0
M  V30 3640 H 340.966 -5.61846 3.17803 0
M  V30 3641 H 341.734 -6.40146 5.10054 0
M  V30 3642 N 344.397 -0.483516 -1.5 0
M  V30 3643 C 345.329 0.340634 -2.26655 0
M  V30 3644 C 346.342 0.946152 -1.32483 0
M  V30 3645 O 347.531 0.832453 -1.579 0
M  V30 3646 C 344.631 1.4929 -3.04246 0
M  V30 3647 C 343.804 0.997903 -4.25865 0
M  V30 3648 C 342.863 2.02569 -4.85646 0
M  V30 3649 O 341.889 1.60128 -5.46212 0
M  V30 3650 N 343.091 3.3548 -4.73744 0
M  V30 3651 H 345.856 -0.316577 -2.98023 0
M  V30 3652 H 343.417 -0.315024 -1.58806 0
M  V30 3653 H 345.409 2.17766 -3.41116 0
M  V30 3654 H 343.979 2.05458 -2.35597 0
M  V30 3655 H 343.199 0.138617 -3.93956 0
M  V30 3656 H 344.487 0.645305 -5.04691 0
M  V30 3657 H 343.885 3.72661 -4.25605 0
M  V30 3658 H 342.442 3.99718 -5.14848 0
M  V30 3659 N 345.875 1.56104 -0.216619 0
M  V30 3660 C 347.291 1.58995 0.13886 0
M  V30 3661 C 347.491 1.23333 1.59346 0
M  V30 3662 O 346.547 0.966234 2.33281 0
M  V30 3663 C 347.86 3.00143 -0.182968 0
M  V30 3664 C 349.408 3.12751 -0.124807 0
M  V30 3665 C 349.883 4.56068 -0.420241 0
M  V30 3666 N 351.374 4.61723 -0.369634 0
M  V30 3667 C 352.109 5.70542 -0.571789 0
M  V30 3668 N 351.605 6.87744 -0.835453 0
M  V30 3669 N 353.398 5.59831 -0.504563 0
M  V30 3670 H 345.549 1.77562 -1.16557 0
M  V30 3671 H 347.812 0.825091 -0.466828 0
M  V30 3672 H 347.518 3.30871 -1.19237 0
M  V30 3673 H 347.392 3.73813 0.504367 0
M  V30 3674 H 349.779 2.81822 0.875223 0
M  V30 3675 H 349.86 2.41421 -0.845544 0
M  V30 3676 H 349.504 4.87713 -1.41769 0
M  V30 3677 H 349.434 5.25617 0.321631 0
M  V30 3678 H 351.925 3.77502 -0.173338 0
M  V30 3679 H 352.238 7.66587 -0.977938 0
M  V30 3680 H 350.583 6.895 -0.872592 0
M  V30 3681 H 353.774 4.67145 -0.298842 0
M  V30 3682 H 353.947 6.44573 -0.665519 0
M  V30 3683 N 347.353 -0.0568162 1.57498 0
M  V30 3684 C 348.769 -0.411933 1.54192 0
M  V30 3685 C 348.969 -1.78287 0.938942 0
M  V30 3686 O 348.025 -2.46483 0.547919 0
M  V30 3687 C 349.338 -0.339244 2.9878 0
M  V30 3688 C 350.886 -0.418348 3.10192 0
M  V30 3689 C 351.361 -0.375407 4.56459 0
M  V30 3690 N 352.852 -0.435038 4.61153 0
M  V30 3691 C 353.587 -0.424265 5.71828 0
M  V30 3692 N 353.083 -0.367418 6.91825 0
M  V30 3693 N 354.876 -0.471938 5.60115 0
M  V30 3694 H 347.027 0.840684 1.95055 0
M  V30 3695 H 349.29 0.316987 0.893433 0
M  V30 3696 H 348.996 0.601742 3.46514 0
M  V30 3697 H 348.87 -1.14371 3.59443 0
M  V30 3698 H 351.257 -1.34976 2.62422 0
M  V30 3699 H 351.338 0.414962 2.52412 0
M  V30 3700 H 350.982 0.552219 5.04889 0
M  V30 3701 H 350.912 -1.22645 5.12119 0
M  V30 3702 H 353.403 -0.482612 3.74806 0
M  V30 3703 H 353.716 -0.363535 7.71944 0
M  V30 3704 H 352.061 -0.333879 6.94198 0
M  V30 3705 H 355.252 -0.514145 4.65268 0
M  V30 3706 H 355.425 -0.460073 6.46365 0
M  V30 3707 N 348.832 -1.54138 -0.328536 0
M  V30 3708 C 350.057 -1.76378 -1.09112 0
M  V30 3709 C 350.482 -0.508596 -1.81094 0
M  V30 3710 O 349.84 0.539598 -1.73084 0
M  V30 3711 C 349.888 -2.95358 -2.06872 0
M  V30 3712 O 348.992 -2.66556 -3.14677 0
M  V30 3713 H 348.333 -0.584614 -0.314838 0
M  V30 3714 H 350.863 -2.01146 -0.374348 0
M  V30 3715 H 350.873 -3.22566 -2.4983 0
M  V30 3716 H 349.548 -3.86385 -1.5388 0
M  V30 3717 H 348.125 -2.50282 -2.7643 0
M  V30 3718 N 350.31 0.590341 -1.46126 0
M  V30 3719 C 351.726 0.912917 -1.30912 0
M  V30 3720 C 351.926 1.99616 -0.274893 0
M  V30 3721 O 350.982 2.50397 0.325197 0
M  V30 3722 C 352.295 1.3375 -2.69317 0
M  V30 3723 C 353.843 1.45077 -2.77348 0
M  V30 3724 C 354.318 1.90904 -4.16317 0
M  V30 3725 N 355.809 1.9811 -4.18696 0
M  V30 3726 C 356.544 2.34828 -5.23109 0
M  V30 3727 N 356.04 2.70393 -6.37856 0
M  V30 3728 N 357.833 2.35317 -5.10473 0
M  V30 3729 H 349.984 -0.125358 -2.1203 0
M  V30 3730 H 352.247 0.00658481 -0.947977 0
M  V30 3731 H 351.953 0.615614 -3.4627 0
M  V30 3732 H 351.827 2.30058 -2.9892 0
M  V30 3733 H 354.214 2.16353 -2.00687 0
M  V30 3734 H 354.295 0.4704 -2.51438 0
M  V30 3735 H 353.939 1.20209 -4.9347 0
M  V30 3736 H 353.869 2.89886 -4.39629 0
M  V30 3737 H 356.36 1.73146 -3.359 0
M  V30 3738 H 356.673 2.97341 -7.13308 0
M  V30 3739 H 355.018 2.68048 -6.41229 0
M  V30 3740 H 358.209 2.0695 -4.19868 0
M  V30 3741 H 358.382 2.63605 -5.9196 0
M  V30 3742 N 351.788 1.33704 0.83433 0
M  V30 3743 C 353.013 1.28615 1.62705 0
M  V30 3744 C 353.438 -0.139242 1.87584 0
M  V30 3745 O 352.796 -1.09734 1.4432 0
M  V30 3746 C 352.844 2.07139 2.95171 0
M  V30 3747 O 351.948 1.4331 3.86699 0
M  V30 3748 H 351.289 0.44226 0.49528 0
M  V30 3749 H 353.819 1.76335 1.03766 0
M  V30 3750 H 353.829 2.18073 3.44831 0
M  V30 3751 H 352.504 3.10779 2.76386 0
M  V30 3752 H 351.081 1.4105 3.45195 0
M  V30 3753 N 353.266 -1.05314 1.17247 0
M  V30 3754 C 354.491 -1.82509 0.985148 0
M  V30 3755 C 354.916 -1.82343 -0.461788 0
M  V30 3756 O 354.274 -1.23151 -1.33055 0
M  V30 3757 C 354.322 -3.26566 1.52929 0
M  V30 3758 O 353.426 -4.05666 0.742225 0
M  V30 3759 H 352.767 -0.564347 0.349869 0
M  V30 3760 H 355.297 -1.32718 1.55715 0
M  V30 3761 H 355.307 -3.77369 1.55103 0
M  V30 3762 H 353.982 -3.26001 2.58256 0
M  V30 3763 H 352.559 -3.64397 0.791794 0
M  V30 3764 N 354.744 -0.972509 -1.24016 0
M  V30 3765 C 355.969 -0.654417 -1.96805 0
M  V30 3766 C 356.394 0.770398 -1.716 0
M  V30 3767 O 355.752 1.52361 -0.982647 0
M  V30 3768 C 355.8 -0.941031 -3.48105 0
M  V30 3769 O 354.904 -0.0289472 -4.1239 0
M  V30 3770 H 354.245 -0.24692 -0.616382 0
M  V30 3771 H 356.775 -1.30396 -1.57664 0
M  V30 3772 H 356.785 -0.87452 -3.98517 0
M  V30 3773 H 355.46 -1.97939 -3.65777 0
M  V30 3774 H 354.037 -0.149192 -3.72601 0
M  V30 3775 N 356.222 1.38976 -0.743202 0
M  V30 3776 C 357.638 1.53984 -0.419664 0
M  V30 3777 C 357.838 1.70837 1.0685 0
M  V30 3778 O 356.894 1.7135 1.8546 0
M  V30 3779 C 358.207 2.75287 -1.20985 0
M  V30 3780 C 359.755 2.89129 -1.19889 0
M  V30 3781 C 360.23 4.13381 -1.97181 0
M  V30 3782 N 361.721 4.20437 -1.94389 0
M  V30 3783 C 362.456 5.15547 -2.50996 0
M  V30 3784 N 361.952 6.16395 -3.16274 0
M  V30 3785 N 363.745 5.07822 -2.40984 0
M  V30 3786 H 355.896 1.26285 -1.7078 0
M  V30 3787 H 358.159 0.612689 -0.723406 0
M  V30 3788 H 357.865 2.69204 -2.26323 0
M  V30 3789 H 357.739 3.68184 -0.819759 0
M  V30 3790 H 360.126 2.947 -0.153606 0
M  V30 3791 H 360.207 1.97272 -1.62841 0
M  V30 3792 H 359.851 4.08572 -3.01714 0
M  V30 3793 H 359.781 5.04298 -1.51629 0
M  V30 3794 H 362.272 3.48205 -1.46839 0
M  V30 3795 H 362.585 6.85443 -3.56915 0
M  V30 3796 H 360.93 6.16758 -3.20367 0
M  V30 3797 H 364.121 4.27973 -1.89622 0
M  V30 3798 H 364.294 5.81767 -2.85397 0
M  V30 3799 N 357.7 0.491464 1.49741 0
M  V30 3800 C 358.925 -0.0557177 2.07325 0
M  V30 3801 C 359.35 -1.30925 1.35056 0
M  V30 3802 O 358.708 -1.76733 0.404365 0
M  V30 3803 C 358.756 -0.302074 3.59333 0
M  V30 3804 O 357.86 -1.37868 3.88672 0
M  V30 3805 H 357.201 0.0219956 0.663636 0
M  V30 3806 H 359.731 0.688352 1.92673 0
M  V30 3807 H 359.741 -0.536464 4.04458 0
M  V30 3808 H 358.416 0.61383 4.11345 0
M  V30 3809 H 356.993 -1.12999 3.55367 0
M  V30 3810 N 359.178 -1.55987 0.224894 0
M  V30 3811 C 360.406 -2.02784 -0.410665 0
M  V30 3812 C 360.821 -1.10464 -1.53112 0
M  V30 3813 O 360.178 -0.114871 -1.82138 0
M  V30 3814 C 360.229 -3.49087 -0.939165 0
M  V30 3815 O 359.95 -4.37887 0.136614 0
M  V30 3816 C 361.451 -4.11543 -1.64763 0
M  V30 3817 H 358.671 -0.663484 -0.100148 0
M  V30 3818 H 361.215 -2.01614 0.342326 0
M  V30 3819 H 359.37 -3.50861 -1.64242 0
M  V30 3820 H 359.784 -5.23849 -0.261155 0
M  V30 3821 H 361.258 -5.15673 -1.96939 0
M  V30 3822 H 361.735 -3.56736 -2.56195 0
M  V30 3823 H 362.341 -4.13629 -0.989503 0
M  V30 3824 N 360.656 0.0484629 -1.57525 0
M  V30 3825 C 361.566 1.07241 -2.08654 0
M  V30 3826 C 362.582 1.409 -1.02095 0
M  V30 3827 O 363.758 1.50609 -1.33712 0
M  V30 3828 C 360.823 2.36008 -2.5397 0
M  V30 3829 C 359.884 2.09108 -3.7493 0
M  V30 3830 C 359.117 3.31736 -4.18075 0
M  V30 3831 O 359.34 4.41714 -3.60895 0
M  V30 3832 O 358.274 3.18576 -5.10679 0
M  V30 3833 H 362.1 0.667965 -2.96263 0
M  V30 3834 H 359.685 0.26417 -1.47046 0
M  V30 3835 H 361.567 3.11747 -2.83535 0
M  V30 3836 H 360.242 2.75786 -1.69481 0
M  V30 3837 H 359.149 1.31 -3.50414 0
M  V30 3838 H 360.482 1.74198 -4.60343 0
M  V30 3839 N 362.134 1.5431 0.320358 0
M  V30 3840 C 363.545 1.63872 0.894594 0
M  V30 3841 C 363.896 0.534847 1.88769 0
M  V30 3842 O 363.021 -0.331732 2.13842 0
M  V30 3843 C 363.616 2.97049 1.62934 0
M  V30 3844 C 362.175 3.08796 2.15226 0
M  V30 3845 C 361.322 2.59456 0.978671 0
M  V30 3846 H 364.273 1.58398 0.0978544 0
M  V30 3847 H 364.294 2.87388 2.49376 0
M  V30 3848 H 363.806 3.7737 0.906302 0
M  V30 3849 H 361.907 2.33156 2.90636 0
M  V30 3850 H 362.02 4.14649 2.40006 0
M  V30 3851 H 360.384 2.1543 1.35875 0
M  V30 3852 H 361.167 3.42237 0.269895 0
M  V30 3853 N 363.613 -0.582584 1.46437 0
M  V30 3854 C 364.838 -1.37168 1.55563 0
M  V30 3855 C 365.263 -1.87061 0.19743 0
M  V30 3856 O 364.621 -1.61572 -0.822451 0
M  V30 3857 C 364.669 -2.53511 2.56446 0
M  V30 3858 O 363.773 -3.54953 2.09958 0
M  V30 3859 H 363.114 -0.408494 0.523477 0
M  V30 3860 H 365.644 -0.706646 1.9201 0
M  V30 3861 H 365.654 -3.00426 2.76058 0
M  V30 3862 H 364.329 -2.16549 3.55076 0
M  V30 3863 H 362.906 -3.14516 2.00334 0
M  V30 3864 N 365.091 -1.34144 -0.827227 0
M  V30 3865 C 366.041 -1.21923 -1.92663 0
M  V30 3866 C 367.025 -0.119294 -1.60457 0
M  V30 3867 O 368.217 -0.348539 -1.73534 0
M  V30 3868 C 365.346 -0.972492 -3.29238 0
M  V30 3869 C 364.432 -2.1154 -3.67576 0
M  V30 3870 N 364.823 -3.36627 -3.77512 0
M  V30 3871 C 363.121 -2.02468 -3.97395 0
M  V30 3872 C 363.822 -4.11658 -4.1099 0
M  V30 3873 N 362.798 -3.40207 -4.23981 0
M  V30 3874 H 366.6 -2.16721 -1.98517 0
M  V30 3875 H 364.114 -1.2632 -1.02064 0
M  V30 3876 H 366.111 -0.865847 -4.0781 0
M  V30 3877 H 364.771 -0.0331509 -3.24683 0
M  V30 3878 H 365.782 -3.71234 -3.61118 0
M  V30 3879 H 362.459 -1.16265 -4.00985 0
M  V30 3880 H 363.849 -5.19657 -4.25918 0
M  V30 3881 N 366.569 1.04691 -1.17803 0
M  V30 3882 C 367.794 1.81984 -0.994813 0
M  V30 3883 C 368.219 1.82586 0.452112 0
M  V30 3884 O 367.577 1.23854 1.324 0
M  V30 3885 C 367.625 3.2575 -1.54659 0
M  V30 3886 O 366.729 4.05267 -0.763728 0
M  V30 3887 H 366.07 0.562483 -0.352857 0
M  V30 3888 H 368.6 1.3189 -1.56417 0
M  V30 3889 H 368.61 3.76541 -1.57102 0
M  V30 3890 H 367.285 3.24627 -2.59981 0
M  V30 3891 H 365.862 3.63972 -0.811108 0
M  V30 3892 N 368.047 0.979072 1.23499 0
M  V30 3893 C 369.463 0.687475 1.44034 0
M  V30 3894 C 369.663 -0.746801 1.8715 0
M  V30 3895 O 368.719 -1.51939 2.0167 0
M  V30 3896 C 370.032 1.68127 2.49307 0
M  V30 3897 C 371.58 1.69516 2.63122 0
M  V30 3898 C 372.055 2.67723 3.71603 0
M  V30 3899 N 373.546 2.66233 3.79044 0
M  V30 3900 C 374.281 3.38891 4.62537 0
M  V30 3901 N 373.777 4.21103 5.50131 0
M  V30 3902 N 375.57 3.27661 4.56721 0
M  V30 3903 H 367.721 1.90559 0.938135 0
M  V30 3904 H 369.984 0.821051 0.473897 0
M  V30 3905 H 369.69 2.70693 2.2454 0
M  V30 3906 H 369.564 1.46306 3.4767 0
M  V30 3907 H 371.951 0.676561 2.8724 0
M  V30 3908 H 372.032 1.95404 1.65079 0
M  V30 3909 H 371.676 3.69724 3.48233 0
M  V30 3910 H 371.606 2.39111 4.69184 0
M  V30 3911 H 374.097 2.06568 3.16446 0
M  V30 3912 H 374.41 4.73403 6.10827 0
M  V30 3913 H 372.755 4.25195 5.49759 0
M  V30 3914 H 375.946 2.62887 3.87309 0
M  V30 3915 H 376.119 3.84547 5.21562 0
M  V30 3916 N 369.525 -1.3858 0.750561 0
M  V30 3917 C 370.802 -1.94231 0.231009 0
M  V30 3918 C 371.182 -1.68611 -1.27018 0
M  V30 3919 O 370.53 -1.02296 -2.04323 0
M  V30 3920 C 370.74 -3.44123 0.581428 0
M  V30 3921 C 372.088 -4.2116 0.539389 0
M  V30 3922 O 373.112 -3.52391 0.519541 0
M  V30 3923 O 371.971 -5.43749 0.54765 0
M  V30 3924 H 369.065 -0.825639 0.0474263 0
M  V30 3925 H 371.611 -1.4799 0.830478 0
M  V30 3926 H 370.383 -3.56267 1.61833 0
M  V30 3927 H 370.006 -3.97573 -0.0462047 0
M  V30 3928 N 371.003 -0.499398 -1.49478 0
M  V30 3929 C 371.966 0.268838 -2.27618 0
M  V30 3930 C 372.966 0.895383 -1.33565 0
M  V30 3931 O 374.156 0.760164 -1.56739 0
M  V30 3932 C 371.288 1.38559 -3.11471 0
M  V30 3933 H 372.481 -0.416812 -2.96989 0
M  V30 3934 H 370.034 -0.254313 -1.54217 0
M  V30 3935 H 370.769 2.10544 -2.46661 0
M  V30 3936 H 370.554 0.941797 -3.80621 0
M  V30 3937 H 372.044 1.92678 -3.70493 0
M  V30 3938 N 372.481 1.55866 -0.233164 0
M  V30 3939 C 373.706 2.03449 0.402906 0
M  V30 3940 C 374.131 1.11166 1.51736 0
M  V30 3941 O 373.489 0.101996 1.81013 0
M  V30 3942 C 373.537 3.49165 0.9009 0
M  V30 3943 O 372.641 3.60019 2.01147 0
M  V30 3944 H 371.982 0.657913 0.0897025 0
M  V30 3945 H 374.512 2.01493 -0.355201 0
M  V30 3946 H 374.522 3.89716 1.2077 0
M  V30 3947 H 373.197 4.15813 0.0852889 0
M  V30 3948 H 371.774 3.3136 1.71042 0
M  V30 3949 N 373.959 -0.0401083 1.57549 0
M  V30 3950 C 375.37 -0.588097 1.77196 0
M  V30 3951 C 375.721 -1.76209 0.862832 0
M  V30 3952 O 374.846 -2.16331 0.0548389 0
M  V30 3953 C 375.441 -1.07363 3.21339 0
M  V30 3954 C 374 -1.56723 3.42221 0
M  V30 3955 C 373.147 -0.50041 2.72747 0
M  V30 3956 H 376.098 0.186119 1.57605 0
M  V30 3957 H 376.119 -1.94143 3.27244 0
M  V30 3958 H 375.631 -0.218975 3.87482 0
M  V30 3959 H 373.732 -2.4441 2.81237 0
M  V30 3960 H 373.845 -1.62234 4.50796 0
M  V30 3961 H 372.209 -0.952894 2.36203 0
M  V30 3962 H 372.992 0.344599 3.41566 0
M  V30 3963 N 375.437 -1.54477 -0.31217 0
M  V30 3964 C 376.683 -1.73483 -1.0503 0
M  V30 3965 C 377.016 -0.513125 -1.87298 0
M  V30 3966 O 376.291 0.489864 -1.8823 0
M  V30 3967 C 376.574 -3.01723 -1.96558 0
M  V30 3968 C 376.427 -4.3417 -1.17545 0
M  V30 3969 C 377.746 -3.25772 -2.95907 0
M  V30 3970 H 374.865 -0.631222 -0.380432 0
M  V30 3971 H 377.507 -1.87184 -0.325932 0
M  V30 3972 H 375.657 -2.90174 -2.58324 0
M  V30 3973 H 377.329 -4.5762 -0.581513 0
M  V30 3974 H 375.572 -4.31159 -0.477925 0
M  V30 3975 H 376.243 -5.20143 -1.84811 0
M  V30 3976 H 378.719 -3.36857 -2.44267 0
M  V30 3977 H 377.595 -4.16838 -3.57123 0
M  V30 3978 H 377.856 -2.43537 -3.68974 0
M  V30 3979 N 376.915 0.57481 -1.46744 0
M  V30 3980 C 378.163 1.33009 -1.52161 0
M  V30 3981 C 378.484 1.94185 -0.178092 0
M  V30 3982 O 377.754 1.7899 0.796196 0
M  V30 3983 H 376.334 0.493873 -0.560445 0
M  V30 3984 H 378.996 0.672589 -1.82927 0
M  V30 3985 H 378.092 2.13273 -2.27862 0
M  V30 3986 N 378.394 1.34581 0.820102 0
M  V30 3987 C 379.643 1.26437 1.57151 0
M  V30 3988 C 379.956 -0.163111 1.94919 0
M  V30 3989 O 381.162 -0.366722 2.69012 0
M  V30 3990 C 379.618 2.21658 2.83541 0
M  V30 3991 C 379.226 3.69679 2.53065 0
M  V30 3992 C 380.97 2.22428 3.61561 0
M  V30 3993 C 378.877 4.56761 3.75664 0
M  V30 3994 H 377.807 0.469707 0.589823 0
M  V30 3995 H 380.458 1.59763 0.902656 0
M  V30 3996 H 378.84 1.81287 3.52067 0
M  V30 3997 H 380.014 4.18605 1.92631 0
M  V30 3998 H 378.329 3.71384 1.88316 0
M  V30 3999 H 380.926 2.8471 4.52597 0
M  V30 4000 H 381.269 1.22434 3.97889 0
M  V30 4001 H 381.802 2.61259 2.99981 0
M  V30 4002 H 378.541 5.57702 3.44454 0
M  V30 4003 H 378.061 4.12568 4.35371 0
M  V30 4004 H 379.74 4.71509 4.43044 0
M  V30 4005 N 379.872 -1.04064 1.18357 0
M  V30 4006 C 380.819 -2.12077 0.910603 0
M  V30 4007 C 381.789 -1.65421 -0.15 0
M  V30 4008 O 382.974 -1.90797 -0.0103614 0
M  V30 4009 C 380.114 -3.42252 0.442472 0
M  V30 4010 C 379.227 -4.0252 1.5685 0
M  V30 4011 C 378.362 -5.20657 1.05309 0
M  V30 4012 C 377.401 -5.72955 2.1538 0
M  V30 4013 N 376.538 -6.8238 1.65233 0
M  V30 4014 H 381.378 -2.34764 1.83548 0
M  V30 4015 H 378.915 -1.15157 0.915279 0
M  V30 4016 H 380.873 -4.16921 0.152534 0
M  V30 4017 H 379.503 -3.19712 -0.445428 0
M  V30 4018 H 378.555 -3.25178 1.97391 0
M  V30 4019 H 379.867 -4.37362 2.39824 0
M  V30 4020 H 379.021 -6.0244 0.717677 0
M  V30 4021 H 377.76 -4.87318 0.19293 0
M  V30 4022 H 376.765 -4.89793 2.49766 0
M  V30 4023 H 377.99 -6.08337 3.01832 0
M  V30 4024 H 375.936 -6.50917 0.815064 0
M  V30 4025 H 375.853 -7.16286 2.41805 0
M  V30 4026 H 377.121 -7.67788 1.34619 0
M  V30 4027 N 381.35 -0.985608 -1.22978 0
M  V30 4028 C 382.598 -0.656087 -1.91154 0
M  V30 4029 C 382.919 0.813561 -1.77218 0
M  V30 4030 O 382.189 1.58244 -1.1548 0
M  V30 4031 H 380.769 -0.239674 -0.707506 0
M  V30 4032 H 383.431 -1.25054 -1.49491 0
M  V30 4033 H 382.527 -0.912253 -2.9847 0
M  V30 4034 N 382.828 1.3818 -0.7579 0
M  V30 4035 C 384.075 2.00019 -0.315985 0
M  V30 4036 C 384.403 1.60163 1.10355 0
M  V30 4037 O 383.658 0.83264 1.77103 0
M  V30 4038 C 383.957 3.55252 -0.391218 0
M  V30 4039 C 383.623 4.14834 -1.76702 0
M  V30 4040 C 382.285 4.30821 -2.14353 0
M  V30 4041 C 384.637 4.47658 -2.66931 0
M  V30 4042 C 381.965 4.76928 -3.41696 0
M  V30 4043 C 384.317 4.95184 -3.93669 0
M  V30 4044 C 382.981 5.09377 -4.31383 0
M  V30 4045 H 382.251 0.731923 -0.115627 0
M  V30 4046 H 384.898 1.65161 -0.969223 0
M  V30 4047 H 383.203 3.90273 0.34558 0
M  V30 4048 H 384.9 4.00988 -0.030805 0
M  V30 4049 H 381.49 4.02808 -1.46435 0
M  V30 4050 H 385.674 4.34904 -2.39106 0
M  V30 4051 H 380.93 4.86103 -3.70829 0
M  V30 4052 H 385.104 5.19551 -4.63724 0
M  V30 4053 H 382.731 5.44865 -5.30119 0
M  V30 4054 N 384.306 0.507319 1.49211 0
M  V30 4055 C 385.254 -0.281364 2.30892 0
M  V30 4056 C 386.248 -0.95687 1.39787 0
M  V30 4057 O 387.454 -0.883838 1.56807 0
M  V30 4058 H 383.829 -0.109597 0.743971 0
M  V30 4059 H 385.8 0.42744 2.95323 0
M  V30 4060 C 384.549 -1.32918 3.21291 0
M  V30 4061 H 383.872 -0.818799 3.91326 0
M  V30 4062 H 385.312 -1.85288 3.81372 0
M  V30 4063 C 383.771 -2.35074 2.41333 0
M  V30 4064 O 384.301 -3.4108 2.12197 0
M  V30 4065 N 382.507 -2.07705 2.03241 0
M  V30 4066 H 382.054 -1.2152 2.27136 0
M  V30 4067 H 382.012 -2.76283 1.50051 0
M  V30 4068 N 385.784 -1.5574 0.241426 0
M  V30 4069 C 387.012 -2.03208 -0.389134 0
M  V30 4070 C 387.427 -1.12082 -1.51931 0
M  V30 4071 O 386.784 -0.134183 -1.82006 0
M  V30 4072 C 386.835 -3.50064 -0.902087 0
M  V30 4073 O 386.556 -4.37717 0.18305 0
M  V30 4074 C 388.057 -4.13268 -1.60389 0
M  V30 4075 H 385.277 -0.664509 -0.0931053 0
M  V30 4076 H 387.821 -2.0124 0.36369 0
M  V30 4077 H 385.976 -3.52583 -1.60511 0
M  V30 4078 H 386.39 -5.24097 -0.205579 0
M  V30 4079 H 387.864 -5.17733 -1.91458 0
M  V30 4080 H 388.341 -3.59434 -2.52397 0
M  V30 4081 H 388.947 -4.14655 -0.945576 0
M  V30 4082 N 387.262 0.0317525 -1.57568 0
M  V30 4083 C 388.192 1.03274 -2.0942 0
M  V30 4084 C 389.173 1.3788 -0.996143 0
M  V30 4085 O 390.358 1.46811 -1.27122 0
M  V30 4086 C 387.488 2.33448 -2.57137 0
M  V30 4087 C 386.442 2.13091 -3.71182 0
M  V30 4088 C 385.768 3.49001 -4.05095 0
M  V30 4089 C 387.068 1.51928 -4.99715 0
M  V30 4090 H 388.762 0.60112 -2.93303 0
M  V30 4091 H 386.308 0.287705 -1.41097 0
M  V30 4092 H 388.261 3.03802 -2.92032 0
M  V30 4093 H 386.985 2.78665 -1.70333 0
M  V30 4094 H 385.644 1.45171 -3.36632 0
M  V30 4095 H 385.292 3.91862 -3.15362 0
M  V30 4096 H 384.992 3.36207 -4.81911 0
M  V30 4097 H 386.516 4.20721 -4.42522 0
M  V30 4098 H 387.93 2.12196 -5.32584 0
M  V30 4099 H 386.327 1.49716 -5.81124 0
M  V30 4100 H 387.397 0.484811 -4.8247 0
M  V30 4101 N 388.74 1.54641 0.303973 0
M  V30 4102 C 390.151 1.64811 0.877163 0
M  V30 4103 C 390.502 0.554838 1.88191 0
M  V30 4104 O 389.627 -0.309033 2.14182 0
M  V30 4105 C 390.222 2.9876 1.59775 0
M  V30 4106 C 388.781 3.11061 2.11938 0
M  V30 4107 C 387.928 2.60479 0.951097 0
M  V30 4108 H 390.879 1.58493 0.0810486 0
M  V30 4109 H 390.9 2.90017 2.46314 0
M  V30 4110 H 390.412 3.7831 0.866226 0
M  V30 4111 H 388.513 2.36225 2.88146 0
M  V30 4112 H 388.626 4.17171 2.35595 0
M  V30 4113 H 386.99 2.16859 1.33583 0
M  V30 4114 H 387.773 3.42504 0.233581 0
M  V30 4115 N 390.218 -0.567019 1.47046 0
M  V30 4116 C 391.443 -1.3551 1.57009 0
M  V30 4117 C 391.868 -1.86841 0.217259 0
M  V30 4118 O 391.226 -1.62435 -0.805268 0
M  V30 4119 C 391.274 -2.50777 2.5912 0
M  V30 4120 O 390.378 -3.52706 2.13711 0
M  V30 4121 H 389.719 -0.402919 0.52778 0
M  V30 4122 H 392.249 -0.686241 1.92748 0
M  V30 4123 H 392.259 -2.97481 2.79229 0
M  V30 4124 H 390.934 -2.12771 3.57353 0
M  V30 4125 H 389.511 -3.12374 2.03659 0
M  V30 4126 N 391.696 -1.35014 -0.812953 0
M  V30 4127 C 392.924 -1.31031 -1.6012 0
M  V30 4128 C 393.339 0.113558 -1.88458 0
M  V30 4129 O 392.696 1.06363 -1.48301 0
M  V30 4130 C 392.747 -2.10872 -2.93624 0
M  V30 4131 O 392.468 -3.47706 -2.66518 0
M  V30 4132 C 393.969 -2.14401 -3.88004 0
M  V30 4133 H 391.189 -0.45037 -0.497401 0
M  V30 4134 H 393.733 -1.77775 -1.01076 0
M  V30 4135 H 391.888 -1.67744 -3.492 0
M  V30 4136 H 392.302 -3.89097 -3.51715 0
M  V30 4137 H 393.776 -2.74669 -4.78812 0
M  V30 4138 H 394.253 -1.14105 -4.24119 0
M  V30 4139 H 394.859 -2.57662 -3.38364 0
M  V30 4140 N 393.175 1.03435 -1.18907 0
M  V30 4141 C 394.085 2.15075 -0.937015 0
M  V30 4142 C 395.101 1.73706 0.101085 0
M  V30 4143 O 396.277 2.01232 -0.0822948 0
M  V30 4144 C 393.342 3.43458 -0.473057 0
M  V30 4145 C 392.403 3.99172 -1.57989 0
M  V30 4146 C 391.636 5.21427 -1.13797 0
M  V30 4147 O 391.859 5.704 0.000725941 0
M  V30 4148 O 390.793 5.69837 -1.9383 0
M  V30 4149 H 394.619 2.39198 -1.87131 0
M  V30 4150 H 392.204 1.13506 -0.971427 0
M  V30 4151 H 394.086 4.20811 -0.222702 0
M  V30 4152 H 392.761 3.20793 0.432869 0
M  V30 4153 H 391.668 3.23178 -1.88433 0
M  V30 4154 H 393.001 4.2619 -2.46217 0
M  V30 4155 N 394.653 0.992116 1.22453 0
M  V30 4156 C 395.902 0.662992 1.90492 0
M  V30 4157 C 396.215 -0.808407 1.78113 0
M  V30 4158 O 397.421 -1.24908 2.41061 0
M  V30 4159 C 395.877 1.1353 3.41524 0
M  V30 4160 C 395.485 2.63187 3.62542 0
M  V30 4161 C 397.229 0.880465 4.15269 0
M  V30 4162 C 395.136 3.04024 5.0727 0
M  V30 4163 H 394.066 0.244278 0.713333 0
M  V30 4164 H 396.717 1.20157 1.38688 0
M  V30 4165 H 395.099 0.52485 3.92506 0
M  V30 4166 H 396.273 3.2957 3.22056 0
M  V30 4167 H 394.588 2.86543 3.02129 0
M  V30 4168 H 397.185 1.16128 5.21937 0
M  V30 4169 H 397.528 -0.183408 4.15896 0
M  V30 4170 H 398.061 1.45307 3.70312 0
M  V30 4171 H 394.8 4.09584 5.11782 0
M  V30 4172 H 394.32 2.42343 5.48662 0
M  V30 4173 H 395.999 2.95282 5.75689 0
M  V30 4174 N 396.131 -1.37776 0.765217 0
M  V30 4175 C 397.356 -2.04651 0.336537 0
M  V30 4176 C 397.781 -1.57337 -1.03086 0
M  V30 4177 O 397.139 -0.730621 -1.65927 0
M  V30 4178 C 397.187 -3.58577 0.381468 0
M  V30 4179 O 396.291 -4.07706 -0.62042 0
M  V30 4180 H 395.632 -0.64756 0.146838 0
M  V30 4181 H 398.162 -1.76221 1.03959 0
M  V30 4182 H 398.172 -4.07314 0.236448 0
M  V30 4183 H 396.847 -3.9237 1.37907 0
M  V30 4184 H 395.424 -3.70306 -0.439056 0
M  V30 4185 N 397.609 -0.515225 -1.4894 0
M  V30 4186 C 398.542 0.302518 -2.26186 0
M  V30 4187 C 399.52 0.957895 -1.31389 0
M  V30 4188 O 400.704 0.985198 -1.60705 0
M  V30 4189 C 397.831 1.42719 -3.07163 0
M  V30 4190 C 396.877 0.884736 -4.17223 0
M  V30 4191 S 397.71 -0.235767 -5.34981 0
M  V30 4192 C 398.866 0.891731 -6.19515 0
M  V30 4193 H 399.099 -0.353076 -2.95196 0
M  V30 4194 H 396.632 -0.300753 -1.51443 0
M  V30 4195 H 398.59 2.07152 -3.54398 0
M  V30 4196 H 397.251 2.05445 -2.37595 0
M  V30 4197 H 396.444 1.72801 -4.73451 0
M  V30 4198 H 396.046 0.317362 -3.72651 0
M  V30 4199 H 398.338 1.79377 -6.53322 0
M  V30 4200 H 399.281 0.367751 -7.07144 0
M  V30 4201 H 399.689 1.16548 -5.52338 0
M  V30 4202 N 399.087 1.5561 -0.249682 0
M  V30 4203 C 400.317 2.03116 0.377803 0
M  V30 4204 C 400.725 1.12822 1.51881 0
M  V30 4205 O 400.068 0.13562 1.83199 0
M  V30 4206 C 400.13 3.46866 0.944693 0
M  V30 4207 C 399.794 4.56955 -0.0644259 0
M  V30 4208 C 400.791 5.12485 -0.874957 0
M  V30 4209 C 398.476 5.01936 -0.19132 0
M  V30 4210 C 400.47 6.11491 -1.79881 0
M  V30 4211 C 398.157 6.00773 -1.11868 0
M  V30 4212 C 399.155 6.5543 -1.92095 0
M  V30 4213 O 398.843 7.5234 -2.83267 0
M  V30 4214 H 398.575 0.669489 0.0935961 0
M  V30 4215 H 401.129 2.02004 -0.371966 0
M  V30 4216 H 399.359 3.45136 1.74407 0
M  V30 4217 H 401.048 3.77856 1.48255 0
M  V30 4218 H 401.814 4.78564 -0.787523 0
M  V30 4219 H 397.693 4.59055 0.423072 0
M  V30 4220 H 401.237 6.54078 -2.42543 0
M  V30 4221 H 397.134 6.34114 -1.20703 0
M  V30 4222 H 397.902 7.69966 -2.7766 0
M  V30 4223 N 400.565 -0.0233959 1.57583 0
M  V30 4224 C 401.793 -0.724682 1.93794 0
M  V30 4225 C 402.208 -1.68588 0.849912 0
M  V30 4226 O 401.565 -1.81676 -0.173204 0
M  V30 4227 C 401.616 -1.47684 3.29957 0
M  V30 4228 O 401.337 -0.554222 4.3458 0
M  V30 4229 C 402.838 -2.27477 3.80485 0
M  V30 4230 H 400.058 -0.203317 0.639455 0
M  V30 4231 H 402.602 0.0207653 2.04489 0
M  V30 4232 H 400.757 -2.17412 3.20641 0
M  V30 4233 H 401.171 -1.08232 5.13212 0
M  V30 4234 H 402.645 -2.7564 4.78254 0
M  V30 4235 H 403.122 -3.09144 3.11972 0
M  V30 4236 H 403.728 -1.62813 3.92902 0
M  V30 4237 N 402.043 -1.548 -0.295768 0
M  V30 4238 C 402.973 -1.89115 -1.36959 0
M  V30 4239 C 403.954 -0.75059 -1.52644 0
M  V30 4240 O 405.139 -1.00678 -1.66065 0
M  V30 4241 C 402.269 -2.14307 -2.73295 0
M  V30 4242 C 401.223 -3.30151 -2.72368 0
M  V30 4243 C 400.549 -3.40772 -4.12042 0
M  V30 4244 C 401.849 -4.67126 -2.33646 0
M  V30 4245 H 403.543 -2.79053 -1.08488 0
M  V30 4246 H 401.089 -1.34266 -0.520443 0
M  V30 4247 H 403.042 -2.36898 -3.48507 0
M  V30 4248 H 401.766 -1.21145 -3.03301 0
M  V30 4249 H 400.425 -3.0749 -1.99613 0
M  V30 4250 H 400.073 -2.45117 -4.39234 0
M  V30 4251 H 399.773 -4.18645 -4.12322 0
M  V30 4252 H 401.297 -3.6563 -4.89027 0
M  V30 4253 H 402.711 -4.89414 -2.98575 0
M  V30 4254 H 401.108 -5.47751 -2.45129 0
M  V30 4255 H 402.178 -4.67489 -1.28772 0
M  V30 4256 N 403.521 0.559213 -1.47345 0
M  V30 4257 C 404.746 1.34676 -1.57725 0
M  V30 4258 C 405.171 1.86723 -0.227164 0
M  V30 4259 O 404.529 1.6286 0.796642 0
M  V30 4260 C 404.577 2.49399 -2.60447 0
M  V30 4261 O 403.681 3.51567 -2.15578 0
M  V30 4262 H 403.022 0.400115 -0.52991 0
M  V30 4263 H 405.552 0.676009 -1.93109 0
M  V30 4264 H 405.562 2.95996 -2.80803 0
M  V30 4265 H 404.237 2.10873 -3.58477 0
M  V30 4266 H 402.814 3.11289 -2.05313 0
M  V30 4267 N 404.999 1.35443 0.805782 0
M  V30 4268 C 406.415 1.15499 1.10146 0
M  V30 4269 C 406.615 -0.0319975 2.01475 0
M  V30 4270 O 405.671 -0.70236 2.42535 0
M  V30 4271 C 406.984 2.45833 1.73166 0
M  V30 4272 C 408.532 2.52047 1.85583 0
M  V30 4273 C 409.007 3.82427 2.52019 0
M  V30 4274 N 410.498 3.83682 2.59504 0
M  V30 4275 C 411.233 4.81294 3.11679 0
M  V30 4276 N 410.729 5.89294 3.64287 0
M  V30 4277 N 412.522 4.6873 3.1024 0
M  V30 4278 H 404.673 2.11469 0.198678 0
M  V30 4279 H 406.936 0.93594 0.150731 0
M  V30 4280 H 406.642 3.32874 1.13526 0
M  V30 4281 H 406.516 2.6044 2.72857 0
M  V30 4282 H 408.903 1.65435 2.44367 0
M  V30 4283 H 408.984 2.41354 0.847455 0
M  V30 4284 H 408.628 4.69437 1.93885 0
M  V30 4285 H 408.558 3.90409 3.53395 0
M  V30 4286 H 411.049 3.05648 2.22234 0
M  V30 4287 H 411.362 6.59768 4.02401 0
M  V30 4288 H 409.707 5.92985 3.62483 0
M  V30 4289 H 412.898 3.83496 2.68419 0
M  V30 4290 H 413.071 5.44965 3.50596 0
M  V30 4291 N 406.477 -1.02803 1.19454 0
M  V30 4292 C 407.754 -1.73299 0.907013 0
M  V30 4293 C 408.134 -2.02772 -0.587086 0
M  V30 4294 O 407.482 -1.68304 -1.54551 0
M  V30 4295 C 407.692 -3.00912 1.76785 0
M  V30 4296 C 409.04 -3.74403 2.00268 0
M  V30 4297 O 410.064 -3.10841 1.73943 0
M  V30 4298 O 408.923 -4.88675 2.4466 0
M  V30 4299 H 406.017 -0.754727 0.338106 0
M  V30 4300 H 408.563 -1.08754 1.30271 0
M  V30 4301 H 407.335 -2.75366 2.7801 0
M  V30 4302 H 406.958 -3.73197 1.37149 0
M  V30 4303 N 407.956 -0.998596 -1.21925 0
M  V30 4304 C 409.367 -0.711939 -1.72593 0
M  V30 4305 C 409.718 0.770842 -1.80423 0
M  V30 4306 O 408.843 1.60237 -1.4544 0
M  V30 4307 C 409.438 -1.28567 -3.13458 0
M  V30 4308 C 407.997 -1.04828 -3.61508 0
M  V30 4309 C 407.144 -1.4024 -2.39224 0
M  V30 4310 H 410.095 -1.17027 -1.07193 0
M  V30 4311 H 410.116 -0.667098 -3.74607 0
M  V30 4312 H 409.628 -2.36486 -3.07727 0
M  V30 4313 H 407.729 0.0140383 -3.72597 0
M  V30 4314 H 407.842 -1.71566 -4.47328 0
M  V30 4315 H 406.206 -0.821077 -2.41103 0
M  V30 4316 H 406.989 -2.49176 -2.36149 0
M  V30 4317 N 409.434 1.37368 -0.772513 0
M  V30 4318 C 410.364 2.32856 -0.173304 0
M  V30 4319 C 411.345 1.55818 0.682262 0
M  V30 4320 O 412.53 1.84052 0.619566 0
M  V30 4321 C 409.66 3.40048 0.706007 0
M  V30 4322 C 408.614 4.27973 -0.0483144 0
M  V30 4323 C 407.94 5.26184 0.950491 0
M  V30 4324 C 409.24 5.07665 -1.22776 0
M  V30 4325 H 410.934 2.83217 -0.971002 0
M  V30 4326 H 408.48 1.3617 -0.468377 0
M  V30 4327 H 410.433 4.05827 1.13501 0
M  V30 4328 H 409.157 2.88214 1.53623 0
M  V30 4329 H 407.816 3.63726 -0.458107 0
M  V30 4330 H 407.464 4.7063 1.77529 0
M  V30 4331 H 407.164 5.85872 0.450314 0
M  V30 4332 H 408.688 5.94838 1.37842 0
M  V30 4333 H 410.102 5.66578 -0.875366 0
M  V30 4334 H 408.499 5.76681 -1.66007 0
M  V30 4335 H 409.569 4.40294 -2.03149 0
M  V30 4336 N 410.912 0.523116 1.48665 0
M  V30 4337 C 411.859 -0.243398 2.29513 0
M  V30 4338 C 412.829 -0.940139 1.36933 0
M  V30 4339 O 414.014 -0.942503 1.65896 0
M  V30 4340 C 411.154 -1.28855 3.20141 0
M  V30 4341 C 410.267 -0.60135 4.27794 0
M  V30 4342 C 409.402 -1.62884 5.05611 0
M  V30 4343 C 408.441 -0.924726 6.05075 0
M  V30 4344 N 407.578 -1.89744 6.75975 0
M  V30 4345 H 412.418 0.452234 2.94549 0
M  V30 4346 H 409.955 0.234858 1.45213 0
M  V30 4347 H 411.913 -1.90674 3.71079 0
M  V30 4348 H 410.543 -1.95266 2.57043 0
M  V30 4349 H 409.595 0.130623 3.80176 0
M  V30 4350 H 410.907 -0.0481585 4.98777 0
M  V30 4351 H 410.061 -2.32149 5.60528 0
M  V30 4352 H 408.8 -2.21592 4.34452 0
M  V30 4353 H 407.805 -0.217966 5.49368 0
M  V30 4354 H 409.03 -0.343851 6.78229 0
M  V30 4355 H 406.976 -2.47373 6.07571 0
M  V30 4356 H 406.893 -1.3955 7.43009 0
M  V30 4357 H 408.161 -2.58229 7.35485 0
M  V30 4358 N 412.39 -1.55475 0.257931 0
M  V30 4359 C 413.353 -2.20551 -0.623706 0
M  V30 4360 C 414.353 -1.17809 -1.09443 0
M  V30 4361 O 415.543 -1.42823 -0.997362 0
M  V30 4362 C 412.675 -2.85784 -1.8585 0
M  V30 4363 H 413.868 -2.99848 -0.0557743 0
M  V30 4364 H 411.421 -1.56298 0.0084422 0
M  V30 4365 H 412.156 -2.10453 -2.46739 0
M  V30 4366 H 411.941 -3.61057 -1.52907 0
M  V30 4367 H 413.431 -3.35553 -2.48584 0
M  V30 4368 N 413.868 0.0150385 -1.57593 0
M  V30 4369 C 414.831 0.995996 -2.06428 0
M  V30 4370 C 415.831 1.2818 -0.970903 0
M  V30 4371 O 417.021 1.22949 -1.23406 0
M  V30 4372 C 414.153 2.32506 -2.49307 0
M  V30 4373 H 415.346 0.573873 -2.94358 0
M  V30 4374 H 412.899 0.262186 -1.54085 0
M  V30 4375 H 413.634 2.79438 -1.64575 0
M  V30 4376 H 413.419 2.13087 -3.29145 0
M  V30 4377 H 414.909 3.02906 -2.87468 0
M  V30 4378 N 415.346 1.54954 0.287554 0
M  V30 4379 C 416.574 1.78881 1.03967 0
M  V30 4380 C 416.989 0.554894 1.80462 0
M  V30 4381 O 416.346 -0.475676 1.76192 0
M  V30 4382 C 416.397 3.00488 2.0097 0
M  V30 4383 O 416.118 4.19113 1.27577 0
M  V30 4384 C 417.619 3.36907 2.88112 0
M  V30 4385 H 414.839 0.596259 0.307761 0
M  V30 4386 H 417.383 2.01937 0.322749 0
M  V30 4387 H 415.538 2.79601 2.68145 0
M  V30 4388 H 415.952 4.87765 1.92835 0
M  V30 4389 H 417.426 4.25205 3.52001 0
M  V30 4390 H 417.903 2.55659 3.57121 0
M  V30 4391 H 418.509 3.60001 2.26449 0
M  V30 4392 N 416.824 -0.551391 1.4764 0
M  V30 4393 C 418.052 -1.33357 1.58189 0
M  V30 4394 C 418.467 -1.87342 0.234199 0
M  V30 4395 O 417.824 -1.65301 -0.77343 0
M  V30 4396 C 417.875 -2.49942 2.61173 0
M  V30 4397 O 417.596 -1.98187 3.90709 0
M  V30 4398 C 419.097 -3.42072 2.8196 0
M  V30 4399 H 416.317 -0.40631 0.533998 0
M  V30 4400 H 418.861 -0.667367 1.93304 0
M  V30 4401 H 417.016 -3.12489 2.28975 0
M  V30 4402 H 417.43 -2.74342 4.47031 0
M  V30 4403 H 418.904 -4.20278 3.57869 0
M  V30 4404 H 419.381 -3.95978 1.89995 0
M  V30 4405 H 419.987 -2.85336 3.15378 0
M  V30 4406 N 418.302 -1.35869 -0.798587 0
M  V30 4407 C 419.713 -1.26498 -1.37314 0
M  V30 4408 C 420.064 0.0991899 -1.95949 0
M  V30 4409 O 419.189 1.0004 -1.91888 0
M  V30 4410 C 419.784 -2.29054 -2.49639 0
M  V30 4411 C 418.343 -2.234 -3.02935 0
M  V30 4412 C 417.49 -2.14329 -1.75949 0
M  V30 4413 H 420.441 -1.46881 -0.600971 0
M  V30 4414 H 420.462 -1.92166 -3.28409 0
M  V30 4415 H 419.974 -3.2833 -2.06933 0
M  V30 4416 H 418.075 -1.27562 -3.50084 0
M  V30 4417 H 418.188 -3.15703 -3.60372 0
M  V30 4418 H 416.552 -1.60435 -1.9782 0
M  V30 4419 H 417.335 -3.15477 -1.35384 0
M  V30 4420 N 419.78 1.02168 -1.19998 0
M  V30 4421 C 421.008 1.79296 -1.03249 0
M  V30 4422 C 421.423 1.84103 0.418502 0
M  V30 4423 O 420.78 1.29031 1.29063 0
M  V30 4424 C 420.831 3.24007 -1.60319 0
M  V30 4425 O 420.552 3.19512 -2.99739 0
M  V30 4426 C 422.053 4.17704 -1.48453 0
M  V30 4427 H 419.273 0.564016 -0.363493 0
M  V30 4428 H 421.817 1.28639 -1.58973 0
M  V30 4429 H 419.972 3.7183 -1.08727 0
M  V30 4430 H 420.386 4.10306 -3.26725 0
M  V30 4431 H 421.86 5.17104 -1.93153 0
M  V30 4432 H 422.337 4.37029 -0.436193 0
M  V30 4433 H 422.943 3.7576 -1.99211 0
M  V30 4434 N 421.258 1.00505 1.21394 0
M  V30 4435 C 422.221 0.570459 2.21987 0
M  V30 4436 C 423.221 -0.353211 1.56873 0
M  V30 4437 O 424.411 -0.14349 1.73608 0
M  V30 4438 C 421.543 -0.168555 3.40483 0
M  V30 4439 H 422.736 1.46021 2.6195 0
M  V30 4440 H 420.289 0.793565 1.34656 0
M  V30 4441 H 421.024 -1.07374 3.06009 0
M  V30 4442 H 420.809 0.494823 3.88965 0
M  V30 4443 H 422.299 -0.460362 4.15055 0
M  V30 4444 N 422.737 -1.36956 0.779787 0
M  V30 4445 C 423.965 -2.03755 0.359398 0
M  V30 4446 C 424.38 -1.58807 -1.02106 0
M  V30 4447 O 423.737 -0.773024 -1.6532 0
M  V30 4448 C 423.788 -3.59251 0.402568 0
M  V30 4449 O 423.509 -4.02557 1.72858 0
M  V30 4450 C 425.01 -4.43291 -0.0284068 0
M  V30 4451 H 422.23 -0.654148 0.149437 0
M  V30 4452 H 424.774 -1.75128 1.05595 0
M  V30 4453 H 422.929 -3.86621 -0.245478 0
M  V30 4454 H 423.343 -4.97111 1.67275 0
M  V30 4455 H 424.817 -5.51975 0.0529466 0
M  V30 4456 H 425.294 -4.25719 -1.07982 0
M  V30 4457 H 425.9 -4.21163 0.591758 0
M  V30 4458 N 424.215 -0.530993 -1.48385 0
M  V30 4459 C 425.445 -0.00133928 -2.066 0
M  V30 4460 C 425.853 1.28599 -1.38777 0
M  V30 4461 O 425.196 1.77599 -0.469495 0
M  V30 4462 C 425.258 0.292137 -3.58311 0
M  V30 4463 C 424.922 -0.901864 -4.48013 0
M  V30 4464 C 425.919 -1.80053 -4.87726 0
M  V30 4465 C 423.604 -1.10915 -4.89901 0
M  V30 4466 C 425.598 -2.89038 -5.68098 0
M  V30 4467 C 423.285 -2.20213 -5.70043 0
M  V30 4468 C 424.283 -3.09107 -6.0905 0
M  V30 4469 O 423.971 -4.16514 -6.87583 0
M  V30 4470 H 423.703 -0.0308475 -0.675296 0
M  V30 4471 H 426.257 -0.736335 -1.91748 0
M  V30 4472 H 424.487 1.08112 -3.7128 0
M  V30 4473 H 426.176 0.763994 -3.98645 0
M  V30 4474 H 426.942 -1.65234 -4.55986 0
M  V30 4475 H 422.821 -0.426498 -4.59023 0
M  V30 4476 H 426.365 -3.58451 -5.98464 0
M  V30 4477 H 422.262 -2.35016 -6.01197 0
M  V30 4478 H 423.03 -4.14237 -7.05939 0
M  V30 4479 N 425.693 1.55336 -0.266172 0
M  V30 4480 C 426.641 2.23587 0.641228 0
M  V30 4481 C 427.635 1.22986 1.16494 0
M  V30 4482 O 428.841 1.40943 1.1196 0
M  V30 4483 H 425.216 0.717452 0.225315 0
M  V30 4484 H 427.187 2.9837 0.0426561 0
M  V30 4485 C 425.936 2.96369 1.81826 0
M  V30 4486 H 425.259 3.73563 1.42445 0
M  V30 4487 H 426.699 3.47459 2.42998 0
M  V30 4488 C 425.158 2.0133 2.70125 0
M  V30 4489 O 425.688 1.55875 3.70224 0
M  V30 4490 N 423.894 1.6802 2.37102 0
M  V30 4491 H 423.441 2.05181 1.55751 0
M  V30 4492 H 423.399 1.047 2.96454 0
M  V30 4493 N 427.171 -0.0066808 1.57599 0
M  V30 4494 C 428.396 -0.707738 1.94951 0
M  V30 4495 C 428.821 -1.66882 0.867868 0
M  V30 4496 O 428.179 -1.80457 -0.17458 0
M  V30 4497 C 428.227 -1.42162 3.31394 0
M  V30 4498 O 427.331 -2.53578 3.25226 0
M  V30 4499 H 426.672 -0.188752 0.636607 0
M  V30 4500 H 429.202 0.0445193 2.04552 0
M  V30 4501 H 429.212 -1.78655 3.66806 0
M  V30 4502 H 427.887 -0.716903 4.09675 0
M  V30 4503 H 426.464 -2.19463 3.01481 0
M  V30 4504 N 428.649 -1.55105 -0.279332 0
M  V30 4505 C 429.926 -1.66119 -1.03267 0
M  V30 4506 C 430.306 -0.523525 -2.04505 0
M  V30 4507 O 429.654 0.477194 -2.23462 0
M  V30 4508 C 429.864 -3.05067 -1.69515 0
M  V30 4509 C 431.212 -3.62606 -2.20912 0
M  V30 4510 O 432.236 -3.07659 -1.79512 0
M  V30 4511 O 431.095 -4.58861 -2.96831 0
M  V30 4512 H 428.189 -0.674429 -0.478618 0
M  V30 4513 H 430.735 -1.67446 -0.275694 0
M  V30 4514 H 429.507 -3.79311 -0.9612 0
M  V30 4515 H 429.13 -3.07611 -2.51915 0
M  V30 4516 N 430.127 0.543554 -1.4793 0
M  V30 4517 C 431.543 0.870806 -1.3375 0
M  V30 4518 C 431.743 1.9864 -0.338261 0
M  V30 4519 O 430.799 2.51305 0.245371 0
M  V30 4520 C 432.112 1.25114 -2.73435 0
M  V30 4521 C 433.66 1.3618 -2.81823 0
M  V30 4522 C 434.135 1.77563 -4.22179 0
M  V30 4523 N 435.626 1.8469 -4.24787 0
M  V30 4524 C 436.361 2.18067 -5.30315 0
M  V30 4525 N 435.857 2.49963 -6.46135 0
M  V30 4526 N 437.65 2.18958 -5.17701 0
M  V30 4527 H 429.801 -0.19275 -2.11524 0
M  V30 4528 H 432.064 -0.0235777 -0.947707 0
M  V30 4529 H 431.77 0.50514 -3.48053 0
M  V30 4530 H 431.644 2.20431 -3.06088 0
M  V30 4531 H 434.031 2.09859 -2.07468 0
M  V30 4532 H 434.112 0.390169 -2.52807 0
M  V30 4533 H 433.756 1.04449 -4.97044 0
M  V30 4534 H 433.686 2.75753 -4.48629 0
M  V30 4535 H 436.177 1.62372 -3.41239 0
M  V30 4536 H 436.49 2.74497 -7.22406 0
M  V30 4537 H 434.835 2.47513 -6.49432 0
M  V30 4538 H 438.026 1.93488 -4.2624 0
M  V30 4539 H 438.199 2.44639 -6.00047 0
M  V30 4540 N 431.605 1.3629 0.791371 0
M  V30 4541 C 432.882 1.20962 1.53712 0
M  V30 4542 C 433.262 -0.205021 2.10102 0
M  V30 4543 O 432.61 -1.21042 1.93807 0
M  V30 4544 C 432.82 2.29002 2.63361 0
M  V30 4545 C 434.168 2.65572 3.31295 0
M  V30 4546 O 435.192 2.2803 2.73643 0
M  V30 4547 O 434.051 3.3018 4.35481 0
M  V30 4548 H 431.145 0.47086 0.679867 0
M  V30 4549 H 433.691 1.48016 0.830021 0
M  V30 4550 H 432.463 3.2382 2.19674 0
M  V30 4551 H 432.086 2.03303 3.41692 0
M  V30 4552 N 433.083 -1.0153 1.20538 0
M  V30 4553 C 434.031 -2.12215 0.952235 0
M  V30 4554 C 435.025 -1.69123 -0.0968735 0
M  V30 4555 O 436.231 -1.7992 0.0536006 0
M  V30 4556 H 432.606 -0.693576 0.290613 0
M  V30 4557 H 434.577 -2.3075 1.89201 0
M  V30 4558 C 433.326 -3.43755 0.522287 0
M  V30 4559 H 432.649 -3.7734 1.32115 0
M  V30 4560 H 434.089 -4.22254 0.384389 0
M  V30 4561 C 432.548 -3.28088 -0.765489 0
M  V30 4562 O 433.078 -3.57921 -1.8236 0
M  V30 4563 N 431.284 -2.81333 -0.728011 0
M  V30 4564 H 430.831 -2.57255 0.133332 0
M  V30 4565 H 430.789 -2.71232 -1.58999 0
M  V30 4566 N 434.561 -1.01147 -1.20859 0
M  V30 4567 C 435.786 -0.716698 -1.94623 0
M  V30 4568 C 436.211 0.715415 -1.73964 0
M  V30 4569 O 435.569 1.49157 -1.03062 0
M  V30 4570 C 435.617 -1.0513 -3.44935 0
M  V30 4571 O 434.721 -0.160131 -4.12089 0
M  V30 4572 H 434.062 -0.266404 -0.608214 0
M  V30 4573 H 436.592 -1.35346 -1.53436 0
M  V30 4574 H 436.602 -1.00086 -3.95533 0
M  V30 4575 H 435.277 -2.09475 -3.59295 0
M  V30 4576 H 433.854 -0.267657 -3.71938 0
M  V30 4577 N 436.039 1.36541 -0.78704 0
M  V30 4578 C 437.286 1.99304 -0.358341 0
M  V30 4579 C 437.614 1.62467 1.06933 0
M  V30 4580 O 436.869 0.870019 1.75297 0
M  V30 4581 C 437.168 3.54343 -0.466485 0
M  V30 4582 C 436.834 4.10993 -1.85461 0
M  V30 4583 C 435.496 4.26177 -2.23443 0
M  V30 4584 C 437.848 4.41895 -2.76366 0
M  V30 4585 C 435.176 4.69573 -3.51736 0
M  V30 4586 C 437.528 4.86722 -4.04084 0
M  V30 4587 C 436.192 5.00112 -4.42091 0
M  V30 4588 H 435.462 0.729306 -0.131126 0
M  V30 4589 H 438.109 1.63068 -1.00404 0
M  V30 4590 H 436.414 3.90918 0.262719 0
M  V30 4591 H 438.111 4.00833 -0.115854 0
M  V30 4592 H 434.701 3.99612 -1.54946 0
M  V30 4593 H 438.885 4.29735 -2.48277 0
M  V30 4594 H 434.141 4.78127 -3.81057 0
M  V30 4595 H 438.315 5.09598 -4.7464 0
M  V30 4596 H 435.942 5.33498 -5.41557 0
M  V30 4597 N 437.518 0.538854 1.48102 0
M  V30 4598 C 438.448 -0.207654 2.32575 0
M  V30 4599 C 439.429 -0.926559 1.4265 0
M  V30 4600 O 440.614 -0.91061 1.71527 0
M  V30 4601 C 437.744 -1.24957 3.24042 0
M  V30 4602 C 436.698 -0.648263 4.23062 0
M  V30 4603 C 436.024 -1.79348 5.03725 0
M  V30 4604 C 437.324 0.385897 5.20872 0
M  V30 4605 H 439.018 0.497534 2.95237 0
M  V30 4606 H 436.564 0.240715 1.41974 0
M  V30 4607 H 438.517 -1.77983 3.81969 0
M  V30 4608 H 437.241 -1.98446 2.59397 0
M  V30 4609 H 435.9 -0.139452 3.66335 0
M  V30 4610 H 435.548 -2.51696 4.35498 0
M  V30 4611 H 435.248 -1.39702 5.70751 0
M  V30 4612 H 436.772 -2.32735 5.64506 0
M  V30 4613 H 438.186 -0.057607 5.73271 0
M  V30 4614 H 436.583 0.700227 5.96001 0
M  V30 4615 H 437.653 1.28848 4.67468 0
M  V30 4616 N 438.996 -1.55193 0.274407 0
M  V30 4617 C 439.928 -2.1989 -0.646595 0
M  V30 4618 C 440.941 -1.1834 -1.11801 0
M  V30 4619 O 442.13 -1.4507 -1.04004 0
M  V30 4620 C 439.23 -2.8104 -1.89393 0
M  V30 4621 C 438.403 -4.08274 -1.56943 0
M  V30 4622 C 437.462 -4.53478 -2.66916 0
M  V30 4623 O 436.488 -5.19267 -2.33132 0
M  V30 4624 N 437.69 -4.2356 -3.9696 0
M  V30 4625 H 440.455 -2.99556 -0.0928686 0
M  V30 4626 H 438.016 -1.61618 0.0954783 0
M  V30 4627 H 440.008 -3.08226 -2.62257 0
M  V30 4628 H 438.578 -2.05372 -2.35672 0
M  V30 4629 H 437.798 -3.88384 -0.674655 0
M  V30 4630 H 439.086 -4.91173 -1.32764 0
M  V30 4631 H 438.484 -3.70799 -4.27229 0
M  V30 4632 H 437.041 -4.55518 -4.66205 0
M  V30 4633 N 440.474 -0.00167713 -1.576 0
M  V30 4634 C 441.72 0.683832 -1.90923 0
M  V30 4635 C 442.053 1.7333 -0.875799 0
M  V30 4636 O 441.328 1.94215 0.10525 0
M  V30 4637 C 441.611 1.32543 -3.3482 0
M  V30 4638 C 441.464 0.287387 -4.48881 0
M  V30 4639 C 442.783 2.25114 -3.78169 0
M  V30 4640 H 439.902 0.247125 -0.694333 0
M  V30 4641 H 442.544 -0.0533149 -1.89925 0
M  V30 4642 H 440.694 1.95372 -3.35801 0
M  V30 4643 H 442.366 -0.341346 -4.60035 0
M  V30 4644 H 440.609 -0.39017 -4.32042 0
M  V30 4645 H 441.28 0.775393 -5.46527 0
M  V30 4646 H 443.756 1.723 -3.7875 0
M  V30 4647 H 442.632 2.66971 -4.79602 0
M  V30 4648 H 442.893 3.13092 -3.12131 0
M  V30 4649 N 441.952 1.55251 0.271103 0
M  V30 4650 C 442.902 1.84649 1.33749 0
M  V30 4651 C 443.886 0.705529 1.44607 0
M  V30 4652 O 445.078 0.966916 1.48256 0
M  V30 4653 C 442.207 2.12354 2.69742 0
M  V30 4654 C 441.293 3.32714 2.62988 0
M  V30 4655 N 441.684 4.52575 2.25853 0
M  V30 4656 C 439.982 3.35341 2.94045 0
M  V30 4657 C 440.683 5.34669 2.29136 0
M  V30 4658 N 439.659 4.73123 2.67685 0
M  V30 4659 H 443.461 2.74865 1.0405 0
M  V30 4660 H 440.975 1.55152 0.479738 0
M  V30 4661 H 442.972 2.31572 3.4667 0
M  V30 4662 H 441.632 1.23422 3.00328 0
M  V30 4663 H 442.643 4.78639 1.978 0
M  V30 4664 H 439.32 2.56608 3.2933 0
M  V30 4665 H 440.71 6.40509 2.02971 0
M  V30 4666 N 443.43 -0.535701 1.48216 0
M  V30 4667 C 444.378 -1.66179 1.62749 0
M  V30 4668 C 445.372 -1.62034 0.49409 0
M  V30 4669 O 446.578 -1.6696 0.672624 0
M  V30 4670 H 442.953 -0.550244 0.512578 0
M  V30 4671 H 444.924 -1.51063 2.57337 0
M  V30 4672 C 443.673 -3.04471 1.67907 0
M  V30 4673 H 442.996 -3.08351 2.54479 0
M  V30 4674 H 444.436 -3.82894 1.82121 0
M  V30 4675 C 442.895 -3.34314 0.416596 0
M  V30 4676 O 443.425 -3.98905 -0.473014 0
M  V30 4677 N 441.631 -2.89149 0.290038 0
M  V30 4678 H 441.178 -2.36764 1.01493 0
M  V30 4679 H 441.136 -3.09486 -0.55367 0
M  V30 4680 N 444.908 -1.36708 -0.784132 0
M  V30 4681 C 446.148 -1.32618 -1.55537 0
M  V30 4682 C 446.512 0.0920681 -1.91779 0
M  V30 4683 O 447.713 0.257573 -2.67563 0
M  V30 4684 C 445.984 -2.22788 -2.79464 0
M  V30 4685 S 447.543 -2.36432 -3.69656 0
M  V30 4686 H 444.361 -0.470973 -0.53264 0
M  V30 4687 H 446.963 -1.72333 -0.92312 0
M  V30 4688 H 445.667 -3.24774 -2.50899 0
M  V30 4689 H 445.198 -1.84112 -3.47658 0
M  V30 4690 H 447.213 -1.56573 -4.7085 0
M  V30 4691 N 446.386 1.0089 -1.21074 0
M  V30 4692 C 447.635 1.74019 -1.01981 0
M  V30 4693 C 447.948 1.90408 0.447665 0
M  V30 4694 O 449.154 2.60707 0.757906 0
M  V30 4695 C 447.61 3.13026 -1.77603 0
M  V30 4696 C 447.218 3.04623 -3.28495 0
M  V30 4697 C 448.962 3.90312 -1.66904 0
M  V30 4698 C 446.869 4.38685 -3.96623 0
M  V30 4699 H 445.799 0.652422 -0.377971 0
M  V30 4700 H 448.45 1.12755 -1.44771 0
M  V30 4701 H 446.832 3.74878 -1.27604 0
M  V30 4702 H 448.006 2.52032 -3.85767 0
M  V30 4703 H 446.321 2.40827 -3.39693 0
M  V30 4704 H 448.918 4.8951 -2.15138 0
M  V30 4705 H 449.261 4.11558 -0.62658 0
M  V30 4706 H 449.794 3.35104 -2.14359 0
M  V30 4707 H 446.533 4.22641 -5.01054 0
M  V30 4708 H 446.053 4.91252 -3.4414 0
M  V30 4709 H 447.732 5.075 -4.01314 0
M  V30 4710 N 447.864 1.01787 1.20321 0
M  V30 4711 C 448.796 0.547357 2.22568 0
M  V30 4712 C 449.809 -0.370922 1.58518 0
M  V30 4713 O 450.998 -0.169067 1.77698 0
M  V30 4714 C 448.098 -0.223031 3.38165 0
M  V30 4715 C 447.271 0.697472 4.31803 0
M  V30 4716 C 446.33 -0.025562 5.26194 0
M  V30 4717 O 445.356 0.597367 5.66057 0
M  V30 4718 N 446.558 -1.29999 5.65757 0
M  V30 4719 H 449.323 1.42668 2.63564 0
M  V30 4720 H 446.884 0.895552 1.34876 0
M  V30 4721 H 448.876 -0.716002 3.98316 0
M  V30 4722 H 447.446 -1.00366 2.9605 0
M  V30 4723 H 446.666 1.37073 3.69601 0
M  V30 4724 H 447.954 1.32347 4.91286 0
M  V30 4725 H 447.352 -1.827 5.35385 0
M  V30 4726 H 445.909 -1.73766 6.28211 0
M  V30 4727 N 449.342 -1.36122 0.79427 0
M  V30 4728 C 450.289 -2.29982 0.194101 0
M  V30 4729 C 451.259 -1.52214 -0.664833 0
M  V30 4730 O 452.444 -1.80702 -0.612498 0
M  V30 4731 C 449.584 -3.38706 -0.661244 0
M  V30 4732 C 448.697 -4.31456 0.216766 0
M  V30 4733 C 447.832 -5.27265 -0.645411 0
M  V30 4734 C 446.871 -6.11653 0.233756 0
M  V30 4735 N 446.008 -6.99636 -0.587682 0
M  V30 4736 H 450.848 -2.80722 0.999965 0
M  V30 4737 H 448.385 -1.38172 0.504677 0
M  V30 4738 H 450.343 -4.00394 -1.17219 0
M  V30 4739 H 448.973 -2.89274 -1.43249 0
M  V30 4740 H 448.025 -3.7088 0.845724 0
M  V30 4741 H 449.337 -4.90724 0.893973 0
M  V30 4742 H 448.491 -5.94266 -1.22198 0
M  V30 4743 H 447.23 -4.68463 -1.35623 0
M  V30 4744 H 446.235 -5.4361 0.82269 0
M  V30 4745 H 447.46 -6.72531 0.942247 0
M  V30 4746 H 445.406 -6.43337 -1.2827 0
M  V30 4747 H 445.323 -7.55993 0.0317402 0
M  V30 4748 H 446.591 -7.71001 -1.14792 0
M  V30 4749 N 450.82 -0.546701 -1.47814 0
M  V30 4750 C 451.73 0.21026 -2.33656 0
M  V30 4751 C 452.746 0.922413 -1.47538 0
M  V30 4752 O 453.922 0.893652 -1.80488 0
M  V30 4753 C 450.987 1.23348 -3.24016 0
M  V30 4754 C 450.048 0.529883 -4.26017 0
M  V30 4755 C 449.281 1.50435 -5.12059 0
M  V30 4756 O 449.504 2.73837 -5.00369 0
M  V30 4757 O 448.438 1.03459 -5.92942 0
M  V30 4758 H 452.264 -0.493605 -2.99662 0
M  V30 4759 H 449.849 -0.307427 -1.46203 0
M  V30 4760 H 451.731 1.82438 -3.79861 0
M  V30 4761 H 450.406 1.91945 -2.60651 0
M  V30 4762 H 449.313 -0.101948 -3.73961 0
M  V30 4763 H 450.646 -0.11445 -4.92067 0
M  V30 4764 N 452.299 1.55045 -0.282633 0
M  V30 4765 C 453.247 2.24254 0.617478 0
M  V30 4766 C 454.241 1.24215 1.15183 0
M  V30 4767 O 455.447 1.42123 1.10459 0
M  V30 4768 H 451.822 0.719801 0.217693 0
M  V30 4769 H 453.793 2.98398 0.0110076 0
M  V30 4770 C 452.542 2.98281 1.78672 0
M  V30 4771 H 451.865 3.75053 1.38475 0
M  V30 4772 H 453.305 3.50017 2.393 0
M  V30 4773 C 451.764 2.04184 2.67975 0
M  V30 4774 O 452.294 1.59792 3.6855 0
M  V30 4775 N 450.5 1.70526 2.35307 0
M  V30 4776 H 450.047 2.06821 1.53567 0
M  V30 4777 H 450.005 1.07839 2.95327 0
M  V30 4778 N 453.777 0.010035 1.57597 0
M  V30 4779 C 454.724 -0.978122 2.09049 0
M  V30 4780 C 455.694 -1.33509 0.988159 0
M  V30 4781 O 456.879 -1.43172 1.26121 0
M  V30 4782 C 454.019 -2.26158 2.60666 0
M  V30 4783 C 453.132 -1.96275 3.84838 0
M  V30 4784 C 452.267 -3.18776 4.24918 0
M  V30 4785 C 451.306 -2.84625 5.41899 0
M  V30 4786 N 450.443 -3.99693 5.77226 0
M  V30 4787 H 455.283 -0.532431 2.93205 0
M  V30 4788 H 452.82 -0.251234 1.44939 0
M  V30 4789 H 454.778 -3.01202 2.88675 0
M  V30 4790 H 453.408 -2.68378 1.79369 0
M  V30 4791 H 452.46 -1.11555 3.63675 0
M  V30 4792 H 453.772 -1.67111 4.69974 0
M  V30 4793 H 452.926 -4.02157 4.54262 0
M  V30 4794 H 451.665 -3.51087 3.38511 0
M  V30 4795 H 450.67 -1.99653 5.12268 0
M  V30 4796 H 451.895 -2.53551 6.29991 0
M  V30 4797 H 449.841 -4.31882 4.93776 0
M  V30 4798 H 449.758 -3.74087 6.56959 0
M  V30 4799 H 451.026 -4.83834 6.11167 0
M  V30 4800 N 455.255 -1.55392 -0.262866 0
M  V30 4801 C 456.532 -1.67204 -1.01499 0
M  V30 4802 C 456.912 -0.545186 -2.03939 0
M  V30 4803 O 456.26 0.453467 -2.23955 0
M  V30 4804 C 456.47 -3.06847 -1.6627 0
M  V30 4805 C 457.818 -3.64928 -2.17054 0
M  V30 4806 O 458.842 -3.09545 -1.76239 0
M  V30 4807 O 457.701 -4.61984 -2.91947 0
M  V30 4808 H 454.795 -0.679467 -0.471438 0
M  V30 4809 H 457.341 -1.67729 -0.257918 0
M  V30 4810 H 456.113 -3.80309 -0.920915 0
M  V30 4811 H 455.736 -3.10266 -2.48638 0
M  V30 4812 N 456.733 0.527833 -1.48498 0
M  V30 4813 C 457.958 1.313 -1.60546 0
M  V30 4814 C 458.383 1.86199 -0.26672 0
M  V30 4815 O 457.741 1.64513 0.761918 0
M  V30 4816 C 457.789 2.43818 -2.65678 0
M  V30 4817 O 456.893 3.46916 -2.22987 0
M  V30 4818 H 456.234 0.388784 -0.538277 0
M  V30 4819 H 458.764 0.634896 -1.945 0
M  V30 4820 H 458.774 2.89973 -2.87018 0
M  V30 4821 H 457.449 2.03222 -3.62869 0
M  V30 4822 H 456.026 3.06864 -2.11869 0
M  V30 4823 N 458.211 1.37122 0.776871 0
M  V30 4824 C 459.141 1.35164 1.90402 0
M  V30 4825 C 460.122 0.221069 1.68657 0
M  V30 4826 O 461.307 0.420642 1.8959 0
M  V30 4827 C 458.437 1.15274 3.27611 0
M  V30 4828 C 457.391 2.25289 3.63908 0
M  V30 4829 C 456.717 1.90527 4.99603 0
M  V30 4830 C 458.017 3.67446 3.71188 0
M  V30 4831 H 459.711 2.29482 1.92297 0
M  V30 4832 H 457.257 1.10465 0.923773 0
M  V30 4833 H 459.21 1.12536 4.06096 0
M  V30 4834 H 457.934 0.174102 3.26136 0
M  V30 4835 H 456.593 2.27174 2.87728 0
M  V30 4836 H 456.241 0.91206 4.94662 0
M  V30 4837 H 455.941 2.64193 5.24858 0
M  V30 4838 H 457.465 1.89367 5.80493 0
M  V30 4839 H 458.879 3.67719 4.39836 0
M  V30 4840 H 457.276 4.40123 4.07936 0
M  V30 4841 H 458.346 4.01443 2.71977 0
M  V30 4842 N 459.689 -1.00246 1.21608 0
M  V30 4843 C 460.639 -2.07492 0.945051 0
M  V30 4844 C 461.623 -1.60585 -0.100675 0
M  V30 4845 O 462.815 -1.76667 0.10859 0
M  V30 4846 C 459.944 -3.39425 0.514342 0
M  V30 4847 C 459.03 -3.92993 1.59428 0
M  V30 4848 N 459.421 -4.19898 2.81991 0
M  V30 4849 C 457.719 -4.21297 1.46374 0
M  V30 4850 C 458.42 -4.63297 3.51754 0
M  V30 4851 N 457.396 -4.66421 2.79199 0
M  V30 4852 H 461.198 -2.26222 1.87619 0
M  V30 4853 H 458.712 -1.18339 1.11219 0
M  V30 4854 H 460.709 -4.15808 0.301527 0
M  V30 4855 H 459.369 -3.22101 -0.410008 0
M  V30 4856 H 460.38 -4.08377 3.1851 0
M  V30 4857 H 457.057 -4.13095 0.604863 0
M  V30 4858 H 458.447 -4.92816 4.56708 0
M  V30 4859 N 461.167 -1.02423 -1.1978 0
M  V30 4860 C 462.392 -0.7373 -1.93852 0
M  V30 4861 C 462.817 0.696923 -1.74713 0
M  V30 4862 O 462.175 1.48056 -1.04638 0
M  V30 4863 C 462.223 -1.08783 -3.438 0
M  V30 4864 O 461.327 -0.20383 -4.11896 0
M  V30 4865 H 460.668 -0.27284 -0.605355 0
M  V30 4866 H 463.198 -1.36966 -1.51992 0
M  V30 4867 H 463.208 -1.04276 -3.9445 0
M  V30 4868 H 461.883 -2.13274 -3.57053 0
M  V30 4869 H 460.46 -0.307091 -3.71633 0
M  V30 4870 N 462.645 1.35699 -0.801477 0
M  V30 4871 C 463.593 2.3177 -0.196317 0
M  V30 4872 C 464.587 1.56388 0.651081 0
M  V30 4873 O 465.793 1.71557 0.544815 0
M  V30 4874 H 462.168 0.750669 -0.0447189 0
M  V30 4875 H 464.139 2.8036 -1.02181 0
M  V30 4876 C 462.888 3.41671 0.644702 0
M  V30 4877 H 462.211 3.998 0.0019921 0
M  V30 4878 H 463.651 4.11184 1.0346 0
M  V30 4879 C 462.11 2.84271 1.80808 0
M  V30 4880 O 462.64 2.77408 2.9053 0
M  V30 4881 N 460.846 2.41391 1.61799 0
M  V30 4882 H 460.393 2.47173 0.725493 0
M  V30 4883 H 460.351 2.03334 2.39797 0
M  V30 4884 N 464.123 0.554532 1.47522 0
M  V30 4885 C 465.351 0.034257 2.06872 0
M  V30 4886 C 465.766 -1.25826 1.40759 0
M  V30 4887 O 465.123 -1.75425 0.503217 0
M  V30 4888 C 465.174 -0.167827 3.6111 0
M  V30 4889 O 464.895 1.07351 4.24744 0
M  V30 4890 C 466.396 -0.72569 4.3732 0
M  V30 4891 H 463.616 0.0446275 0.669514 0
M  V30 4892 H 466.16 0.767181 1.89564 0
M  V30 4893 H 464.315 -0.850872 3.7794 0
M  V30 4894 H 464.729 0.869563 5.17242 0
M  V30 4895 H 466.203 -0.816394 5.45929 0
M  V30 4896 H 466.68 -1.73635 4.0342 0
M  V30 4897 H 467.286 -0.0784292 4.25228 0
M  V30 4898 N 465.601 -1.54893 0.290851 0
M  V30 4899 C 466.564 -2.21824 -0.576784 0
M  V30 4900 C 467.564 -1.20104 -1.06919 0
M  V30 4901 O 468.754 -1.44906 -0.966843 0
M  V30 4902 C 465.886 -2.89662 -1.79747 0
M  V30 4903 H 467.079 -2.99899 0.00784051 0
M  V30 4904 H 464.632 -1.56245 0.0415934 0
M  V30 4905 H 465.367 -2.15639 -2.42219 0
M  V30 4906 H 465.152 -3.64219 -1.45214 0
M  V30 4907 H 466.642 -3.4075 -2.4141 0
M  V30 4908 N 467.08 -0.0183926 -1.57589 0
M  V30 4909 C 468.028 0.985111 -2.10709 0
M  V30 4910 C 469.022 1.34397 -1.0312 0
M  V30 4911 O 470.228 1.32746 -1.21567 0
M  V30 4912 H 466.603 0.335418 -0.673052 0
M  V30 4913 H 468.574 0.511689 -2.9398 0
M  V30 4914 C 467.323 2.26202 -2.64061 0
M  V30 4915 H 466.646 1.9946 -3.4649 0
M  V30 4916 H 468.086 2.94652 -3.04887 0
M  V30 4917 C 466.545 2.98444 -1.5631 0
M  V30 4918 O 467.075 3.90142 -0.956674 0
M  V30 4919 N 465.281 2.6059 -1.28612 0
M  V30 4920 H 464.828 1.86101 -1.78112 0
M  V30 4921 H 464.786 3.09238 -0.567406 0
M  V30 4922 N 468.558 1.5553 0.254621 0
M  V30 4923 C 469.974 1.4778 0.602753 0
M  V30 4924 C 470.174 0.707047 1.88688 0
M  V30 4925 O 469.23 0.233288 2.5142 0
M  V30 4926 C 470.543 2.92133 0.712648 0
M  V30 4927 C 472.091 3.02458 0.805488 0
M  V30 4928 C 472.566 4.48102 0.947009 0
M  V30 4929 N 474.057 4.52008 1.01207 0
M  V30 4930 C 474.792 5.61939 1.1407 0
M  V30 4931 N 474.288 6.81697 1.23536 0
M  V30 4932 N 476.081 5.49719 1.17325 0
M  V30 4933 H 468.232 2.04085 -0.588463 0
M  V30 4934 H 470.495 0.926229 -0.202001 0
M  V30 4935 H 470.201 3.51332 -0.160766 0
M  V30 4936 H 470.075 3.42187 1.58707 0
M  V30 4937 H 472.462 2.43344 1.66936 0
M  V30 4938 H 472.543 2.55627 -0.0939266 0
M  V30 4939 H 472.187 5.07824 0.087725 0
M  V30 4940 H 472.117 4.92607 1.86135 0
M  V30 4941 H 474.608 3.65749 0.950577 0
M  V30 4942 H 474.921 7.61228 1.33236 0
M  V30 4943 H 473.266 6.84473 1.20508 0
M  V30 4944 H 476.457 4.55095 1.09573 0
M  V30 4945 H 476.63 6.35432 1.27005 0
M  V30 4946 N 470.036 -0.519951 1.48776 0
M  V30 4947 C 471.452 -0.849418 1.35119 0
M  V30 4948 C 471.652 -1.98077 0.36982 0
M  V30 4949 O 470.708 -2.51664 -0.205359 0
M  V30 4950 C 472.021 -1.20748 2.75391 0
M  V30 4951 C 473.569 -1.31679 2.83954 0
M  V30 4952 C 474.044 -1.70824 4.24951 0
M  V30 4953 N 475.535 -1.77908 4.27672 0
M  V30 4954 C 476.27 -2.09603 5.33717 0
M  V30 4955 N 475.766 -2.39652 6.5003 0
M  V30 4956 N 477.559 -2.10694 5.21119 0
M  V30 4957 H 469.71 0.226377 2.1119 0
M  V30 4958 H 471.973 0.0386519 0.947212 0
M  V30 4959 H 471.679 -0.449703 3.48813 0
M  V30 4960 H 471.553 -2.15534 3.09556 0
M  V30 4961 H 473.94 -2.06532 2.10781 0
M  V30 4962 H 474.021 -0.3499 2.53396 0
M  V30 4963 H 473.665 -0.965282 4.98643 0
M  V30 4964 H 473.595 -2.6858 4.52959 0
M  V30 4965 H 476.086 -1.56923 3.43779 0
M  V30 4966 H 476.399 -2.6297 7.26682 0
M  V30 4967 H 474.744 -2.37149 6.53288 0
M  V30 4968 H 477.935 -1.86682 4.29264 0
M  V30 4969 H 478.108 -2.35062 6.03863 0
M  V30 4970 N 471.514 -1.37532 -0.769588 0
M  V30 4971 C 472.742 -1.36059 -1.55871 0
M  V30 4972 C 473.157 0.053544 -1.88724 0
M  V30 4973 O 472.514 1.01591 -1.5161 0
M  V30 4974 C 472.565 -2.20107 -2.86767 0
M  V30 4975 O 472.286 -3.56009 -2.55321 0
M  V30 4976 C 473.787 -2.26636 -3.80987 0
M  V30 4977 H 471.007 -0.465967 -0.482821 0
M  V30 4978 H 473.551 -1.80901 -0.953686 0
M  V30 4979 H 471.706 -1.78768 -3.43687 0
M  V30 4980 H 472.12 -4.0009 -3.39158 0
M  V30 4981 H 473.594 -2.89763 -4.69831 0
M  V30 4982 H 474.071 -1.2754 -4.20274 0
M  V30 4983 H 474.677 -2.68296 -3.29996 0
M  V30 4984 N 472.992 0.995999 -1.22138 0
M  V30 4985 C 474.22 1.77066 -1.07029 0
M  V30 4986 C 474.635 1.8495 0.379357 0
M  V30 4987 O 473.992 1.3174 1.26297 0
M  V30 4988 C 474.043 3.20533 -1.67155 0
M  V30 4989 O 473.764 3.13082 -3.06449 0
M  V30 4990 C 475.265 4.14461 -1.5728 0
M  V30 4991 H 472.485 0.556179 -0.375374 0
M  V30 4992 H 475.029 1.25238 -1.61666 0
M  V30 4993 H 473.184 3.6944 -1.16589 0
M  V30 4994 H 473.598 4.03283 -3.35355 0
M  V30 4995 H 475.072 5.1289 -2.04078 0
M  V30 4996 H 475.549 4.36005 -0.528795 0
M  V30 4997 H 476.155 3.71449 -2.07136 0
M  V30 4998 N 474.47 1.03057 1.19235 0
M  V30 4999 C 475.881 0.757449 1.70645 0
M  V30 5000 C 476.232 -0.722735 1.82403 0
M  V30 5001 O 475.357 -1.56325 1.49638 0
M  V30 5002 C 475.952 1.36833 3.09939 0
M  V30 5003 C 474.511 1.14375 3.58602 0
M  V30 5004 C 473.658 1.46533 2.35422 0
M  V30 5005 H 476.609 1.19828 1.04052 0
M  V30 5006 H 476.63 0.766184 3.72706 0
M  V30 5007 H 476.142 2.44562 3.01349 0
M  V30 5008 H 474.243 0.0847542 3.72504 0
M  V30 5009 H 474.356 1.83366 4.42622 0
M  V30 5010 H 472.72 0.884712 2.38841 0
M  V30 5011 H 473.503 2.55349 2.2946 0
M  V30 5012 N 475.948 -1.35272 0.808662 0
M  V30 5013 C 477.194 -1.99003 0.390581 0
M  V30 5014 C 477.527 -1.63999 -1.0401 0
M  V30 5015 O 476.802 -0.904368 -1.72196 0
M  V30 5016 C 477.085 -3.55454 0.576566 0
M  V30 5017 C 476.938 -4.00249 2.05233 0
M  V30 5018 C 478.257 -4.401 0.00354277 0
M  V30 5019 H 475.376 -0.722917 0.143388 0
M  V30 5020 H 478.018 -1.6039 1.01858 0
M  V30 5021 H 476.168 -3.88477 0.0419766 0
M  V30 5022 H 477.84 -3.77626 2.64946 0
M  V30 5023 H 476.083 -3.51082 2.54801 0
M  V30 5024 H 476.754 -5.0911 2.13333 0
M  V30 5025 H 479.23 -4.13548 0.460117 0
M  V30 5026 H 478.106 -5.48656 0.163575 0
M  V30 5027 H 478.367 -4.28444 -1.09032 0
M  V30 5028 O 477.465 -0.703344 -1.4538 0
M  V30 5029 H 478.156 -0.244572 -1.9215 0
M  V30 END ATOM
M  V30 BEGIN BOND
M  V30 END BOND
M  V30 END CTAB
M  END
$$$$
