drugbank_target|P55017 Solute carrier family 12 member 3 (DB00436; DB00524; DB00562; DB00808; DB00880; DB00999; DB01021; DB01324; DB01325)
 OpenBabel12092119313D

  0  0  0     0  0            999 V3000
M  V30 BEGIN CTAB
M  V30 COUNTS 15993 16194 0 0 0
M  V30 BEGIN ATOM
M  V30 1 H -0.908 1.98254 -0.117106 0
M  V30 2 N 0 1.576 0 0
M  V30 3 C 0.933 2.03868 1.02534 0
M  V30 4 C 1.911 0.928543 1.3348 0
M  V30 5 O 3.095 1.19667 1.45644 0
M  V30 6 C 0.222 2.43627 2.35294 0
M  V30 7 C -0.732 3.65373 2.2001 0
M  V30 8 S 0.101 5.13292 1.52614 0
M  V30 9 C 1.257 5.56322 2.86805 0
M  V30 10 H 1.49 2.90518 0.631377 0
M  V30 11 H -0.977 1.52953 0.210867 0
M  V30 12 H 0.981 2.67203 3.11629 0
M  V30 13 H -0.358 1.57376 2.7183 0
M  V30 14 H -1.165 3.90944 3.18086 0
M  V30 15 H -1.563 3.418 1.51819 0
M  V30 16 H 0.729 5.58782 3.83104 0
M  V30 17 H 1.672 6.56266 2.65933 0
M  V30 18 H 2.08 4.83886 2.90714 0
M  V30 19 N 1.4781 -0.272755 1.55222 0
M  V30 20 C 2.4411 -1.32041 1.87344 0
M  V30 21 C 3.4411 -1.42342 0.74803 0
M  V30 22 O 4.6311 -1.41488 1.0162 0
M  V30 23 C 1.7631 -2.70173 2.07893 0
M  V30 24 H 2.9561 -1.04789 2.80997 0
M  V30 25 H 0.5091 -0.51083 1.47717 0
M  V30 26 H 1.2441 -3.02605 1.16622 0
M  V30 27 H 1.0291 -2.64082 2.89833 0
M  V30 28 H 2.5191 -3.45869 2.34017 0
M  V30 29 N 2.9562 -1.48159 -0.537278 0
M  V30 30 C 3.8662 -1.64807 -1.6696 0
M  V30 31 C 4.8822 -0.530651 -1.65711 0
M  V30 32 O 6.0582 -0.800784 -1.84796 0
M  V30 33 C 3.1232 -1.67708 -3.03438 0
M  V30 34 C 2.1842 -2.91025 -3.156 0
M  V30 35 C 1.4172 -2.93778 -4.45567 0
M  V30 36 O 1.6402 -2.05153 -5.3223 0
M  V30 37 O 0.5742 -3.85868 -4.61941 0
M  V30 38 H 4.4002 -2.6066 -1.55853 0
M  V30 39 H 1.9852 -1.31475 -0.709549 0
M  V30 40 H 3.8672 -1.7218 -3.84619 0
M  V30 41 H 2.5422 -0.750278 -3.14885 0
M  V30 42 H 1.4492 -2.92089 -2.33741 0
M  V30 43 H 2.7822 -3.83065 -3.09066 0
M  V30 44 N 4.4343 0.785586 -1.36625 0
M  V30 45 C 5.3643 1.91259 -1.33949 0
M  V30 46 C 6.3453 1.68795 -0.210325 0
M  V30 47 O 7.5303 1.89854 -0.408561 0
M  V30 48 C 4.6603 3.28339 -1.13186 0
M  V30 49 C 3.6143 3.65335 -2.22967 0
M  V30 50 C 2.9403 5.00806 -1.87342 0
M  V30 51 C 4.2403 3.7352 -3.65075 0
M  V30 52 H 5.9343 1.93755 -2.28253 0
M  V30 53 H 3.4803 0.930788 -1.09874 0
M  V30 54 H 5.4333 4.06804 -1.09948 0
M  V30 55 H 4.1573 3.2624 -0.153332 0
M  V30 56 H 2.8163 2.89169 -2.25337 0
M  V30 57 H 2.4643 4.95233 -0.880545 0
M  V30 58 H 2.1643 5.26529 -2.60846 0
M  V30 59 H 3.6883 5.81687 -1.85667 0
M  V30 60 H 5.1023 4.42168 -3.64911 0
M  V30 61 H 3.4993 4.10731 -4.37516 0
M  V30 62 H 4.5693 2.74527 -3.99703 0
M  V30 63 N 5.9124 1.20967 1.01018 0
M  V30 64 C 7.3234 1.02319 1.56165 0
M  V30 65 C 7.6744 -0.418546 1.91684 0
M  V30 66 O 6.7994 -1.30096 1.72928 0
M  V30 67 C 7.3944 1.85109 2.8376 0
M  V30 68 C 5.9534 1.70809 3.35412 0
M  V30 69 C 5.1004 1.82643 2.08655 0
M  V30 70 H 8.0514 1.35065 0.833255 0
M  V30 71 H 8.0724 1.35827 3.55431 0
M  V30 72 H 7.5844 2.90035 2.57878 0
M  V30 73 H 5.6854 0.685464 3.66241 0
M  V30 74 H 5.7984 2.52467 4.07182 0
M  V30 75 H 4.1624 1.25896 2.21409 0
M  V30 76 H 4.9454 2.89066 1.85191 0
M  V30 77 N 7.3905 -1.2043 1.01659 0
M  V30 78 C 8.6185 -1.93777 0.725132 0
M  V30 79 C 9.0335 -1.74772 -0.714166 0
M  V30 80 O 8.3905 -1.06169 -1.4844 0
M  V30 81 C 8.4415 -3.45876 1.05129 0
M  V30 82 O 8.1625 -3.6426 2.43406 0
M  V30 83 C 9.6635 -4.36368 0.780891 0
M  V30 84 H 6.8835 -0.615901 0.266284 0
M  V30 85 H 9.4275 -1.52922 1.35776 0
M  V30 86 H 7.5825 -3.8461 0.464065 0
M  V30 87 H 7.9965 -4.58246 2.55169 0
M  V30 88 H 9.4705 -5.41743 1.05918 0
M  V30 89 H 9.9475 -4.38275 -0.284937 0
M  V30 90 H 10.5535 -4.03296 1.35027 0
M  V30 91 N 8.8686 -0.792821 -1.36206 0
M  V30 92 C 10.0966 -0.378825 -2.03402 0
M  V30 93 C 10.5116 1.00586 -1.59774 0
M  V30 94 O 9.8686 1.64574 -0.788764 0
M  V30 95 C 9.9196 -0.43683 -3.58851 0
M  V30 96 O 9.6406 -1.76691 -4.00889 0
M  V30 97 C 11.1416 -0.0138943 -4.43298 0
M  V30 98 H 8.3616 -0.155673 -0.652692 0
M  V30 99 H 10.9056 -1.07261 -1.74113 0
M  V30 100 H 9.0606 0.208575 -3.86838 0
M  V30 101 H 9.4746 -1.72011 -4.95492 0
M  V30 102 H 10.9486 -0.105615 -5.51899 0
M  V30 103 H 11.4256 1.03915 -4.2673 0
M  V30 104 H 12.0316 -0.63192 -4.20579 0
M  V30 105 N 10.3467 1.47872 -0.545128 0
M  V30 106 C 11.2567 2.33633 0.212746 0
M  V30 107 C 12.2727 1.4744 0.923983 0
M  V30 108 O 13.4487 1.80393 0.895572 0
M  V30 109 C 10.5137 3.23884 1.23693 0
M  V30 110 C 9.5747 4.25961 0.534417 0
M  V30 111 C 8.8077 5.11899 1.5098 0
M  V30 112 O 9.0307 5.00077 2.7437 0
M  V30 113 O 7.9647 5.92831 1.0409 0
M  V30 114 H 11.7907 2.99714 -0.490416 0
M  V30 115 H 9.3757 1.46235 -0.305871 0
M  V30 116 H 11.2577 3.79666 1.82843 0
M  V30 117 H 9.9327 2.60446 1.92222 0
M  V30 118 H 8.8397 3.73972 -0.0979679 0
M  V30 119 H 10.1727 4.92079 -0.109213 0
M  V30 120 N 11.8248 0.280983 1.55075 0
M  V30 121 C 13.0528 -0.337293 2.04132 0
M  V30 122 C 13.4678 -1.4903 1.15912 0
M  V30 123 O 12.8248 -1.81606 0.180459 0
M  V30 124 C 12.8758 -0.812706 3.52246 0
M  V30 125 O 12.5968 0.294387 4.3711 0
M  V30 126 C 14.0978 -1.4982 4.17216 0
M  V30 127 H 11.3178 -0.0761638 0.666663 0
M  V30 128 H 13.8618 0.414787 2.00249 0
M  V30 129 H 12.0168 -1.51486 3.56554 0
M  V30 130 H 12.4308 -0.0721325 5.2445 0
M  V30 131 H 13.9048 -1.7822 5.22438 0
M  V30 132 H 14.3818 -2.43168 3.65741 0
M  V30 133 H 14.9878 -0.839742 4.16927 0
M  V30 134 N 13.3029 -1.57598 0.00835791 0
M  V30 135 C 14.7139 -1.7892 -0.53333 0
M  V30 136 C 15.0649 -0.916609 -1.73473 0
M  V30 137 O 14.1899 -0.121336 -2.1606 0
M  V30 138 C 14.7849 -3.24488 -0.974313 0
M  V30 139 C 13.3439 -3.46878 -1.46125 0
M  V30 140 C 12.4909 -2.74157 -0.416302 0
M  V30 141 H 15.4419 -1.56958 0.234495 0
M  V30 142 H 15.4629 -3.3306 -1.83988 0
M  V30 143 H 14.9749 -3.87972 -0.099718 0
M  V30 144 H 13.0759 -2.8862 -2.35646 0
M  V30 145 H 13.1889 -4.55572 -1.48295 0
M  V30 146 H 11.5529 -2.39022 -0.87981 0
M  V30 147 H 12.3359 -3.40345 0.44947 0
M  V30 148 N 14.781 0.264519 -1.55364 0
M  V30 149 C 16.029 0.993021 -1.76021 0
M  V30 150 C 16.35 1.86511 -0.569099 0
M  V30 151 O 15.62 1.91438 0.415735 0
M  V30 152 H 14.2 0.369639 -0.649135 0
M  V30 153 H 16.862 0.286707 -1.9278 0
M  V30 154 H 15.958 1.62502 -2.66457 0
M  V30 155 N 16.2591 1.48442 0.529413 0
M  V30 156 C 17.5361 1.46978 1.29062 0
M  V30 157 C 17.9161 0.181769 2.10316 0
M  V30 158 O 17.2641 -0.836481 2.12639 0
M  V30 159 C 17.4741 2.7321 2.17157 0
M  V30 160 C 18.8221 3.21562 2.77278 0
M  V30 161 O 19.8461 2.74131 2.27444 0
M  V30 162 O 18.7051 4.04094 3.67927 0
M  V30 163 H 15.7991 0.587003 0.582543 0
M  V30 164 H 18.3451 1.60676 0.546021 0
M  V30 165 H 17.1171 3.58465 1.56903 0
M  V30 166 H 16.7401 2.62235 2.98862 0
M  V30 167 N 17.7372 -0.778329 1.37039 0
M  V30 168 C 18.7002 -1.87301 1.32102 0
M  V30 169 C 19.7002 -1.59198 0.226405 0
M  V30 170 O 20.8902 -1.67403 0.481861 0
M  V30 171 C 18.0222 -3.24309 1.05055 0
M  V30 172 H 19.2152 -1.93093 2.29467 0
M  V30 173 H 16.7682 -0.977358 1.21973 0
M  V30 174 H 17.5032 -3.24196 0.0819373 0
M  V30 175 H 17.2882 -3.46098 1.84279 0
M  V30 176 H 18.7782 -4.04382 1.04234 0
M  V30 177 N 19.2153 -1.21501 -1.00376 0
M  V30 178 C 20.4433 -1.059 -1.77744 0
M  V30 179 C 20.8583 0.391125 -1.84704 0
M  V30 180 O 20.2153 1.27133 -1.30933 0
M  V30 181 C 20.2663 -1.65111 -3.21591 0
M  V30 182 O 19.9873 -3.0445 -3.15027 0
M  V30 183 C 21.4883 -1.54637 -4.15454 0
M  V30 184 H 18.7083 -0.371825 -0.558558 0
M  V30 185 H 21.2523 -1.60865 -1.26264 0
M  V30 186 H 19.4073 -1.14235 -3.70175 0
M  V30 187 H 19.8213 -3.3278 -4.0541 0
M  V30 188 H 21.2953 -2.00808 -5.14179 0
M  V30 189 H 21.7723 -0.501022 -4.36333 0
M  V30 190 H 22.3783 -2.04767 -3.72761 0
M  V30 191 N 20.6934 1.19889 -1.02296 0
M  V30 192 C 21.6234 2.25141 -0.619174 0
M  V30 193 C 22.6044 1.66051 0.368915 0
M  V30 194 O 23.7894 1.92546 0.252941 0
M  V30 195 C 20.9194 3.4728 0.0368783 0
M  V30 196 C 19.8734 4.19005 -0.872865 0
M  V30 197 C 19.1994 5.34637 -0.0822402 0
M  V30 198 C 20.4994 4.74452 -2.18387 0
M  V30 199 H 22.1934 2.59171 -1.49903 0
M  V30 200 H 19.7394 1.24579 -0.722222 0
M  V30 201 H 21.6924 4.20098 0.330958 0
M  V30 202 H 20.4164 3.12433 0.95149 0
M  V30 203 H 19.0754 3.48061 -1.15105 0
M  V30 204 H 18.7234 4.96034 0.83422 0
M  V30 205 H 18.4234 5.83557 -0.688149 0
M  V30 206 H 19.9474 6.10255 0.205238 0
M  V30 207 H 21.3614 5.39055 -1.95172 0
M  V30 208 H 19.7584 5.33834 -2.74119 0
M  V30 209 H 20.8284 3.92844 -2.84257 0
M  V30 210 N 22.1715 0.800033 1.35784 0
M  V30 211 C 23.4115 0.382891 2.00782 0
M  V30 212 C 23.7755 -1.02891 1.62103 0
M  V30 213 O 24.9765 -1.54771 2.19771 0
M  V30 214 C 23.2475 0.553299 3.53091 0
M  V30 215 S 24.8065 0.225608 4.3822 0
M  V30 216 H 21.6245 0.145737 0.695904 0
M  V30 217 H 24.2265 1.04085 1.65489 0
M  V30 218 H 22.9305 1.58091 3.78729 0
M  V30 219 H 22.4615 -0.120214 3.93216 0
M  V30 220 H 24.4765 -0.969074 4.86645 0
M  V30 221 N 23.6496 -1.47581 0.552962 0
M  V30 222 C 24.8746 -2.07378 0.0300593 0
M  V30 223 C 25.2996 -1.40355 -1.25229 0
M  V30 224 O 24.6576 -0.477099 -1.7491 0
M  V30 225 C 24.7056 -3.60274 -0.153231 0
M  V30 226 O 23.8096 -3.94041 -1.21678 0
M  V30 227 H 23.1506 -0.662158 0.0494182 0
M  V30 228 H 25.6806 -1.89662 0.767434 0
M  V30 229 H 25.6906 -4.0633 -0.368761 0
M  V30 230 H 24.3656 -4.08455 0.783397 0
M  V30 231 H 22.9426 -3.59735 -0.982079 0
M  V30 232 N 25.1277 -0.289203 -1.54924 0
M  V30 233 C 26.3757 0.322879 -1.99504 0
M  V30 234 C 26.6967 1.55313 -1.1791 0
M  V30 235 O 25.9667 1.94001 -0.272097 0
M  V30 236 H 24.5467 0.122291 -0.736922 0
M  V30 237 H 27.2087 -0.397802 -1.90797 0
M  V30 238 H 26.3047 0.603061 -3.06218 0
M  V30 239 N 26.6058 1.57591 -0.0167156 0
M  V30 240 C 28.0218 1.55946 0.339557 0
M  V30 241 C 28.2218 1.02109 1.73713 0
M  V30 242 O 27.2778 0.662303 2.43659 0
M  V30 243 C 28.5908 3.00037 0.199499 0
M  V30 244 C 30.1388 3.11805 0.273193 0
M  V30 245 C 30.6138 4.57713 0.162068 0
M  V30 246 N 32.1048 4.6268 0.219444 0
M  V30 247 C 32.8398 5.73185 0.157054 0
M  V30 248 N 32.3358 6.92786 0.0442936 0
M  V30 249 N 34.1288 5.61707 0.21014 0
M  V30 250 H 26.2798 1.90921 -0.930758 0
M  V30 251 H 28.5428 0.877674 -0.358319 0
M  V30 252 H 28.2488 3.4333 -0.76273 0
M  V30 253 H 28.1228 3.64387 0.974786 0
M  V30 254 H 30.5098 2.68433 1.22587 0
M  V30 255 H 30.5908 2.50201 -0.532256 0
M  V30 256 H 30.2348 5.01763 -0.78714 0
M  V30 257 H 30.1648 5.17283 0.986222 0
M  V30 258 H 32.6558 3.76649 0.307246 0
M  V30 259 H 32.9688 7.728 0.00304069 0
M  V30 260 H 31.3138 6.94999 0.00968457 0
M  V30 261 H 34.5048 4.6716 0.296546 0
M  V30 262 H 34.6778 6.47807 0.158054 0
M  V30 263 N 28.0839 -0.256276 1.55502 0
M  V30 264 C 29.3309 -0.985619 1.76895 0
M  V30 265 C 29.6589 -1.85671 0.579355 0
M  V30 266 O 28.9139 -1.90744 -0.437651 0
M  V30 267 C 29.2129 -1.88432 3.03691 0
M  V30 268 C 28.8789 -1.16936 4.35473 0
M  V30 269 C 27.5409 -0.97173 4.71286 0
M  V30 270 C 29.8929 -0.661889 5.1698 0
M  V30 271 C 27.2209 -0.254179 5.86149 0
M  V30 272 C 29.5729 0.042149 6.32586 0
M  V30 273 C 28.2369 0.25134 6.67027 0
M  V30 274 H 27.5069 -0.360663 0.647304 0
M  V30 275 H 30.1539 -0.256483 1.89775 0
M  V30 276 H 28.4589 -2.68021 2.85783 0
M  V30 277 H 30.1559 -2.45015 3.1744 0
M  V30 278 H 26.7459 -1.33332 4.07333 0
M  V30 279 H 30.9299 -0.802145 4.89775 0
M  V30 280 H 26.1859 -0.0815408 6.11346 0
M  V30 281 H 30.3599 0.443049 6.94989 0
M  V30 282 H 27.9869 0.809314 7.5588 0
M  V30 283 N 29.562 -1.4872 -0.521534 0
M  V30 284 C 30.79 -1.60843 -1.30142 0
M  V30 285 C 31.205 -0.271897 -1.86832 0
M  V30 286 O 30.562 0.739969 -1.66825 0
M  V30 287 C 30.613 -2.66155 -2.4463 0
M  V30 288 O 30.334 -3.94623 -1.90275 0
M  V30 289 C 31.835 -2.88795 -3.36322 0
M  V30 290 H 29.055 -0.542075 -0.395468 0
M  V30 291 H 31.599 -1.94609 -0.628285 0
M  V30 292 H 29.754 -2.35224 -3.07812 0
M  V30 293 H 30.168 -4.52468 -2.65279 0
M  V30 294 H 31.642 -3.66264 -4.12983 0
M  V30 295 H 32.119 -1.97934 -3.9207 0
M  V30 296 H 32.725 -3.21063 -2.78924 0
M  V30 297 N 31.0401 0.771051 -1.3745 0
M  V30 298 C 32.2891 1.52491 -1.3202 0
M  V30 299 C 32.6021 1.9538 0.0927347 0
M  V30 300 O 33.8081 2.70159 0.269503 0
M  V30 301 C 32.2641 2.75366 -2.31736 0
M  V30 302 C 31.8721 2.39573 -3.78562 0
M  V30 303 C 33.6161 3.53307 -2.35318 0
M  V30 304 C 31.5231 3.58954 -4.70007 0
M  V30 305 H 30.4531 0.572506 -0.490666 0
M  V30 306 H 33.1041 0.844474 -1.62914 0
M  V30 307 H 31.4861 3.45303 -1.93861 0
M  V30 308 H 32.6601 1.77415 -4.25277 0
M  V30 309 H 30.9751 1.74805 -3.77932 0
M  V30 310 H 33.5721 4.42039 -3.00842 0
M  V30 311 H 33.9151 3.93217 -1.36698 0
M  V30 312 H 34.4481 2.90367 -2.71904 0
M  V30 313 H 31.1871 3.24125 -5.69757 0
M  V30 314 H 30.7071 4.20214 -4.27996 0
M  V30 315 H 32.3861 4.25758 -4.87175 0
M  V30 316 N 32.5182 1.22032 0.997298 0
M  V30 317 C 33.7432 1.06921 1.77715 0
M  V30 318 C 34.1682 -0.376226 1.84299 0
M  V30 319 O 33.5262 -1.27165 1.29223 0
M  V30 320 C 33.5742 1.67996 3.19076 0
M  V30 321 O 32.6782 0.930653 4.01762 0
M  V30 322 H 32.0192 0.375814 0.547412 0
M  V30 323 H 34.5492 1.61737 1.25309 0
M  V30 324 H 34.5592 1.72538 3.69723 0
M  V30 325 H 33.2342 2.73182 3.13599 0
M  V30 326 H 31.8112 0.960917 3.60307 0
M  V30 327 N 33.9963 -1.19345 1.0293 0
M  V30 328 C 35.2243 -1.92997 0.745644 0
M  V30 329 C 35.6393 -1.75519 -0.695589 0
M  V30 330 O 34.9963 -1.07737 -1.47306 0
M  V30 331 C 35.0473 -3.44741 1.08792 0
M  V30 332 O 34.7683 -3.61658 2.47256 0
M  V30 333 C 36.2693 -4.35515 0.827129 0
M  V30 334 H 33.4893 -0.613042 0.272801 0
M  V30 335 H 36.0333 -1.51473 1.3739 0
M  V30 336 H 34.1883 -3.84097 0.504832 0
M  V30 337 H 34.6023 -4.55514 2.60015 0
M  V30 338 H 36.0763 -5.40589 1.11658 0
M  V30 339 H 36.5533 -4.38552 -0.238436 0
M  V30 340 H 37.1593 -4.01841 1.39297 0
M  V30 341 N 35.4744 -0.807222 -1.35358 0
M  V30 342 C 36.4044 -0.232509 -2.3234 0
M  V30 343 C 37.3854 0.642386 -1.57504 0
M  V30 344 O 38.5704 0.572526 -1.85569 0
M  V30 345 C 35.7004 0.619238 -3.41735 0
M  V30 346 C 34.6544 -0.157215 -4.27711 0
M  V30 347 C 33.9804 0.816273 -5.28433 0
M  V30 348 C 35.2804 -1.35656 -5.04376 0
M  V30 349 H 36.9744 -1.04276 -2.80654 0
M  V30 350 H 34.5204 -0.50288 -1.34934 0
M  V30 351 H 36.4734 1.03137 -4.08584 0
M  V30 352 H 35.1974 1.46239 -2.92031 0
M  V30 353 H 33.8564 -0.550525 -3.62443 0
M  V30 354 H 33.5044 1.65494 -4.74996 0
M  V30 355 H 33.2044 0.301067 -5.86828 0
M  V30 356 H 34.7284 1.22659 -5.98153 0
M  V30 357 H 36.1424 -1.01927 -5.64166 0
M  V30 358 H 34.5394 -1.8063 -5.7227 0
M  V30 359 H 35.6094 -2.14288 -4.34981 0
M  V30 360 N 36.9525 1.47285 -0.560781 0
M  V30 361 C 37.8825 2.32857 0.173105 0
M  V30 362 C 38.8635 1.44009 0.905281 0
M  V30 363 O 40.0485 1.7286 0.885046 0
M  V30 364 C 37.1785 3.25861 1.20133 0
M  V30 365 C 36.1325 4.23978 0.585388 0
M  V30 366 C 35.4585 5.06332 1.7185 0
M  V30 367 C 36.7585 5.20242 -0.463178 0
M  V30 368 H 38.4525 2.94466 -0.541307 0
M  V30 369 H 35.9985 1.41601 -0.261764 0
M  V30 370 H 37.9515 3.84569 1.72293 0
M  V30 371 H 36.6755 2.62315 1.94573 0
M  V30 372 H 35.3345 3.66501 0.085054 0
M  V30 373 H 34.9825 4.39186 2.45203 0
M  V30 374 H 34.6825 5.72762 1.31213 0
M  V30 375 H 36.2065 5.67899 2.24329 0
M  V30 376 H 37.6205 5.73293 -0.027502 0
M  V30 377 H 36.0175 5.94896 -0.788627 0
M  V30 378 H 37.0875 4.65504 -1.35773 0
M  V30 379 N 38.4306 0.297415 1.54768 0
M  V30 380 C 39.6556 -0.318435 2.04941 0
M  V30 381 C 40.0806 -1.4701 1.17345 0
M  V30 382 O 39.4386 -1.80436 0.176758 0
M  V30 383 C 39.4866 -0.755749 3.52592 0
M  V30 384 O 38.5906 -1.86088 3.68028 0
M  V30 385 H 37.9316 -0.062421 0.661059 0
M  V30 386 H 40.4616 0.438215 1.99852 0
M  V30 387 H 40.4716 -1.04552 3.94376 0
M  V30 388 H 39.1466 0.0867233 4.1581 0
M  V30 389 H 37.7236 -1.57193 3.38149 0
M  V30 390 N 39.9087 -1.5758 0.0250728 0
M  V30 391 C 41.1337 -1.96337 -0.668317 0
M  V30 392 C 41.5587 -0.901314 -1.651 0
M  V30 393 O 40.9167 0.138187 -1.80773 0
M  V30 394 C 40.9647 -3.34191 -1.35457 0
M  V30 395 O 40.0687 -3.30269 -2.46974 0
M  V30 396 H 39.4097 -0.640281 -0.175887 0
M  V30 397 H 41.9397 -2.0442 0.0857224 0
M  V30 398 H 41.9497 -3.70331 -1.71228 0
M  V30 399 H 40.6247 -4.11036 -0.634218 0
M  V30 400 H 39.2017 -3.05841 -2.13344 0
M  V30 401 N 41.3868 0.248026 -1.55636 0
M  V30 402 C 42.6638 0.998988 -1.68165 0
M  V30 403 C 43.0438 2.03409 -0.564621 0
M  V30 404 O 42.3918 2.24378 0.432076 0
M  V30 405 C 42.6018 1.63334 -3.0842 0
M  V30 406 C 43.9498 2.13562 -3.66983 0
M  V30 407 O 44.9738 1.73277 -3.11213 0
M  V30 408 O 43.8328 2.87526 -4.64749 0
M  V30 409 H 40.9268 0.464933 -0.683935 0
M  V30 410 H 43.4728 0.241902 -1.67967 0
M  V30 411 H 42.2448 0.884583 -3.8117 0
M  V30 412 H 41.8678 2.45666 -3.12624 0
M  V30 413 N 42.8649 1.48995 0.513639 0
M  V30 414 C 43.7749 1.67443 1.64317 0
M  V30 415 C 44.7909 0.556947 1.64846 0
M  V30 416 O 45.9669 0.830082 1.83498 0
M  V30 417 C 43.0319 1.72515 3.00732 0
M  V30 418 C 42.0929 2.96009 3.1093 0
M  V30 419 C 41.3259 3.00829 4.40837 0
M  V30 420 O 41.5489 2.13594 5.28898 0
M  V30 421 O 40.4829 3.93168 4.55744 0
M  V30 422 H 44.3089 2.63106 1.51687 0
M  V30 423 H 41.8939 1.32588 0.688543 0
M  V30 424 H 43.7759 1.78277 3.81831 0
M  V30 425 H 42.4509 0.800278 3.13651 0
M  V30 426 H 41.3579 2.9577 2.29065 0
M  V30 427 H 42.6909 3.87934 3.02933 0
M  V30 428 N 44.343 -0.763751 1.37857 0
M  V30 429 C 45.754 -1.3405 1.29952 0
M  V30 430 C 46.105 -1.96138 -0.0492898 0
M  V30 431 O 45.23 -1.94372 -0.951239 0
M  V30 432 C 45.825 -2.43729 2.35333 0
M  V30 433 C 44.384 -2.97151 2.31037 0
M  V30 434 C 43.531 -1.70438 2.18738 0
M  V30 435 H 46.482 -0.563396 1.48363 0
M  V30 436 H 46.503 -3.23412 2.00462 0
M  V30 437 H 46.015 -1.9851 3.33489 0
M  V30 438 H 44.116 -3.46724 1.3643 0
M  V30 439 H 44.229 -3.52221 3.24772 0
M  V30 440 H 42.593 -1.93673 1.65418 0
M  V30 441 H 43.376 -1.27312 3.18821 0
M  V30 442 N 45.8211 -1.22559 -0.990812 0
M  V30 443 C 47.0461 -1.07862 -1.77145 0
M  V30 444 C 47.4711 0.366447 -1.84496 0
M  V30 445 O 46.8291 1.26478 -1.29896 0
M  V30 446 C 46.8771 -1.69686 -3.18181 0
M  V30 447 O 45.9811 -0.951946 -4.01263 0
M  V30 448 H 45.3221 -0.378712 -0.545411 0
M  V30 449 H 47.8521 -1.62399 -1.2445 0
M  V30 450 H 47.8621 -1.74496 -3.68802 0
M  V30 451 H 46.5371 -2.74841 -3.12146 0
M  V30 452 H 45.1141 -0.980011 -3.59792 0
M  V30 453 N 47.2992 1.18797 -1.03562 0
M  V30 454 C 48.7102 1.70322 -0.764676 0
M  V30 455 C 49.0612 1.82708 0.714996 0
M  V30 456 O 48.1862 1.50299 1.55689 0
M  V30 457 C 48.7812 3.09356 -1.38145 0
M  V30 458 C 47.3402 3.58114 -1.15895 0
M  V30 459 C 46.4872 2.34798 -1.4753 0
M  V30 460 H 49.4382 1.03543 -1.20268 0
M  V30 461 H 49.4592 3.72378 -0.781977 0
M  V30 462 H 48.9712 3.00309 -2.45837 0
M  V30 463 H 47.0722 3.72464 -0.100544 0
M  V30 464 H 47.1852 4.4184 -1.8524 0
M  V30 465 H 45.5492 2.38464 -0.894829 0
M  V30 466 H 46.3322 2.28375 -2.56319 0
M  V30 467 N 48.7773 0.814389 1.34928 0
M  V30 468 C 50.1883 0.458364 1.80986 0
M  V30 469 C 50.5393 -1.02042 1.67577 0
M  V30 470 O 49.6643 -1.79352 1.21086 0
M  V30 471 C 50.2593 0.825212 3.28597 0
M  V30 472 C 48.8183 0.521677 3.72767 0
M  V30 473 C 47.9653 1.04668 2.56788 0
M  V30 474 H 50.9163 1.00533 1.22795 0
M  V30 475 H 50.9373 0.12571 3.80292 0
M  V30 476 H 50.4493 1.90154 3.38324 0
M  V30 477 H 48.5503 -0.545589 3.68584 0
M  V30 478 H 48.6633 1.05977 4.67232 0
M  V30 479 H 47.0273 0.468622 2.50352 0
M  V30 480 H 47.8103 2.12927 2.6929 0
M  V30 481 N 50.2554 -1.46986 0.568584 0
M  V30 482 C 51.2184 -2.28624 -0.162366 0
M  V30 483 C 52.2184 -1.37596 -0.832103 0
M  V30 484 O 53.4084 -1.60115 -0.68622 0
M  V30 485 C 50.5404 -3.17596 -1.23878 0
M  V30 486 H 51.7334 -2.94722 0.554899 0
M  V30 487 H 49.2864 -1.52863 0.325976 0
M  V30 488 H 50.0214 -2.56214 -1.98808 0
M  V30 489 H 49.8064 -3.846 -0.763219 0
M  V30 490 H 51.2964 -3.79078 -1.75185 0
M  V30 491 N 51.7335 -0.305618 -1.54608 0
M  V30 492 C 52.6965 0.555591 -2.22364 0
M  V30 493 C 53.6965 1.05768 -1.21119 0
M  V30 494 O 54.8865 0.952972 -1.45822 0
M  V30 495 C 52.0185 1.76974 -2.91364 0
M  V30 496 H 53.2115 -0.0364572 -2.99878 0
M  V30 497 H 50.7645 -0.0565007 -1.56198 0
M  V30 498 H 51.4995 2.40151 -2.17941 0
M  V30 499 H 51.2845 1.41732 -3.65588 0
M  V30 500 H 52.7745 2.38148 -3.43038 0
M  V30 501 N 53.2116 1.57565 -0.0334293 0
M  V30 502 C 54.4416 1.95996 0.653398 0
M  V30 503 C 54.8496 0.908749 1.65947 0
M  V30 504 O 54.1926 -0.117471 1.83324 0
M  V30 505 C 54.2546 3.30589 1.41249 0
M  V30 506 C 53.9186 4.53503 0.564263 0
M  V30 507 C 54.9156 5.19647 -0.16225 0
M  V30 508 C 52.6006 4.99801 0.500398 0
M  V30 509 C 54.5946 6.30412 -0.941255 0
M  V30 510 C 52.2816 6.10448 -0.282308 0
M  V30 511 C 53.2796 6.75612 -1.00184 0
M  V30 512 O 52.9676 7.84134 -1.77171 0
M  V30 513 H 52.6996 0.65027 0.184728 0
M  V30 514 H 55.2536 2.05199 -0.0907841 0
M  V30 515 H 53.4836 3.17888 2.20191 0
M  V30 516 H 55.1726 3.53892 1.98784 0
M  V30 517 H 55.9386 4.84846 -0.12227 0
M  V30 518 H 51.8176 4.48883 1.05002 0
M  V30 519 H 55.3616 6.81208 -1.50339 0
M  V30 520 H 51.2586 6.44686 -0.323989 0
M  V30 521 H 52.0266 8.00822 -1.69194 0
M  V30 522 N 54.6897 -0.239769 1.55765 0
M  V30 523 C 55.9667 -0.990056 1.68693 0
M  V30 524 C 56.3467 -2.03107 0.5754 0
M  V30 525 O 55.6947 -2.24604 -0.42017 0
M  V30 526 C 55.9047 -1.61696 3.09282 0
M  V30 527 C 57.2527 -2.11613 3.6811 0
M  V30 528 O 58.2767 -1.71624 3.12127 0
M  V30 529 O 57.1357 -2.85057 4.66267 0
M  V30 530 H 54.2297 -0.461299 0.686391 0
M  V30 531 H 56.7757 -0.232991 1.68093 0
M  V30 532 H 55.5477 -0.864357 3.81634 0
M  V30 533 H 55.1707 -2.44005 3.13923 0
M  V30 534 N 56.1678 -1.49265 -0.50573 0
M  V30 535 C 57.3928 -1.62478 -1.28902 0
M  V30 536 C 57.8178 -0.294332 -1.85783 0
M  V30 537 O 57.1758 0.737412 -1.65626 0
M  V30 538 C 57.2238 -2.69268 -2.39848 0
M  V30 539 O 56.3278 -2.28113 -3.43567 0
M  V30 540 H 55.6688 -0.54399 -0.380751 0
M  V30 541 H 58.1988 -1.95421 -0.605952 0
M  V30 542 H 58.2088 -2.91291 -2.85681 0
M  V30 543 H 56.8838 -3.65846 -1.97812 0
M  V30 544 H 55.4608 -2.16401 -3.03685 0
M  V30 545 N 57.6459 0.756429 -1.3826 0
M  V30 546 C 58.8709 1.55077 -1.37717 0
M  V30 547 C 59.2959 1.88073 0.03164 0
M  V30 548 O 58.6539 1.50364 1.01293 0
M  V30 549 C 58.7019 2.8283 -2.23695 0
M  V30 550 O 57.8059 3.77862 -1.6521 0
M  V30 551 H 57.1469 0.469152 -0.469885 0
M  V30 552 H 59.6769 0.935019 -1.81985 0
M  V30 553 H 59.6869 3.31783 -2.37453 0
M  V30 554 H 58.3619 2.58144 -3.2609 0
M  V30 555 H 56.9389 3.36555 -1.60578 0
M  V30 556 N 59.124 1.23083 0.984299 0
M  V30 557 C 60.074 0.975749 2.06066 0
M  V30 558 C 61.058 -0.0768251 1.60716 0
M  V30 559 O 62.25 0.134805 1.76486 0
M  V30 560 C 59.379 0.564673 3.38624 0
M  V30 561 C 58.465 1.65244 3.90583 0
M  V30 562 N 58.856 2.88193 4.15666 0
M  V30 563 C 57.154 1.52612 4.19077 0
M  V30 564 C 57.855 3.58593 4.58024 0
M  V30 565 N 56.831 2.86093 4.62225 0
M  V30 566 H 60.633 1.90957 2.23411 0
M  V30 567 H 58.147 1.12963 1.16675 0
M  V30 568 H 60.144 0.36322 4.15315 0
M  V30 569 H 58.804 -0.362147 3.22674 0
M  V30 570 H 59.815 3.24537 4.03604 0
M  V30 571 H 56.492 0.666121 4.12152 0
M  V30 572 H 57.882 4.63974 4.85982 0
M  V30 573 N 60.6021 -1.18246 1.0419 0
M  V30 574 C 62.0131 -1.69914 0.773698 0
M  V30 575 C 62.3641 -1.83085 -0.705297 0
M  V30 576 O 61.4891 -1.51123 -1.5489 0
M  V30 577 C 62.0841 -3.08619 1.39784 0
M  V30 578 C 60.6431 -3.57494 1.17792 0
M  V30 579 C 59.7901 -2.34013 1.48773 0
M  V30 580 H 62.7411 -1.02904 1.20816 0
M  V30 581 H 62.7621 -3.71958 0.801714 0
M  V30 582 H 62.2741 -2.99001 2.47426 0
M  V30 583 H 60.3751 -3.72406 0.120295 0
M  V30 584 H 60.4881 -4.40852 1.87581 0
M  V30 585 H 58.8521 -2.37986 0.907463 0
M  V30 586 H 59.6351 -2.27013 2.57527 0
M  V30 587 N 62.0802 -0.821533 -1.34494 0
M  V30 588 C 63.3052 -0.420873 -2.03085 0
M  V30 589 C 63.7302 0.964915 -1.61465 0
M  V30 590 O 63.0882 1.62763 -0.798607 0
M  V30 591 C 63.1362 -0.529414 -3.56693 0
M  V30 592 O 62.2402 0.451302 -4.09923 0
M  V30 593 H 61.5812 -0.173489 -0.640935 0
M  V30 594 H 64.1112 -1.11157 -1.71771 0
M  V30 595 H 64.1212 -0.404671 -4.05988 0
M  V30 596 H 62.7962 -1.54014 -3.86332 0
M  V30 597 H 61.3732 0.285558 -3.71805 0
M  V30 598 N 63.5583 1.46682 -0.576371 0
M  V30 599 C 64.5083 2.27278 0.181288 0
M  V30 600 C 65.4923 1.35497 0.867721 0
M  V30 601 O 66.6843 1.59717 0.762863 0
M  V30 602 C 63.8133 3.21703 1.19841 0
M  V30 603 C 62.8993 4.20969 0.51442 0
M  V30 604 N 63.2903 5.03999 -0.426407 0
M  V30 605 C 61.5883 4.39373 0.765963 0
M  V30 606 C 62.2893 5.75812 -0.825565 0
M  V30 607 N 61.2653 5.43315 -0.176116 0
M  V30 608 H 65.0673 2.88863 -0.541785 0
M  V30 609 H 62.5813 1.57455 -0.397697 0
M  V30 610 H 64.5783 3.78145 1.75533 0
M  V30 611 H 63.2383 2.61677 1.92238 0
M  V30 612 H 64.2493 5.11659 -0.8016 0
M  V30 613 H 60.9263 3.90502 1.47698 0
M  V30 614 H 62.3163 6.52577 -1.59976 0
M  V30 615 N 65.0364 0.313813 1.54444 0
M  V30 616 C 65.9664 -0.549454 2.26943 0
M  V30 617 C 66.9474 -1.12741 1.27372 0
M  V30 618 O 68.1324 -1.15436 1.56167 0
M  V30 619 C 65.2624 -1.71523 3.01989 0
M  V30 620 C 64.2164 -1.26703 4.08816 0
M  V30 621 C 63.5424 -2.51898 4.71647 0
M  V30 622 C 64.8424 -0.388962 5.2085 0
M  V30 623 H 66.5364 0.0552661 2.99349 0
M  V30 624 H 64.0824 0.0280207 1.43973 0
M  V30 625 H 66.0354 -2.32535 3.51433 0
M  V30 626 H 64.7594 -2.34639 2.27183 0
M  V30 627 H 63.4184 -0.679896 3.6024 0
M  V30 628 H 63.0664 -3.13356 3.93468 0
M  V30 629 H 62.7664 -2.22605 5.43802 0
M  V30 630 H 64.2904 -3.1369 5.23861 0
M  V30 631 H 65.7044 -0.905107 5.6611 0
M  V30 632 H 64.1014 -0.18924 5.99802 0
M  V30 633 H 65.1714 0.582699 4.81386 0
M  V30 634 N 66.5145 -1.57545 0.0417849 0
M  V30 635 C 67.7425 -1.96624 -0.643928 0
M  V30 636 C 68.1575 -0.918897 -1.64929 0
M  V30 637 O 67.5145 0.0979323 -1.82237 0
M  V30 638 C 67.5655 -3.35781 -1.33914 0
M  V30 639 O 67.2865 -4.365 -0.374048 0
M  V30 640 C 68.7875 -3.89566 -2.1155 0
M  V30 641 H 66.0075 -0.647316 -0.176702 0
M  V30 642 H 68.5515 -2.04229 0.105304 0
M  V30 643 H 66.7065 -3.29357 -2.03968 0
M  V30 644 H 67.1205 -5.17248 -0.869179 0
M  V30 645 H 68.5945 -4.89242 -2.55628 0
M  V30 646 H 69.0715 -3.24488 -2.9598 0
M  V30 647 H 69.6775 -3.99298 -1.46427 0
M  V30 648 N 67.9926 0.231505 -1.5589 0
M  V30 649 C 68.9426 1.29007 -1.87993 0
M  V30 650 C 69.9266 1.42764 -0.742102 0
M  V30 651 O 71.1186 1.45747 -1.00433 0
M  V30 652 C 68.2476 2.6425 -2.1915 0
M  V30 653 C 67.3336 2.54435 -3.39299 0
M  V30 654 N 67.7246 2.14262 -4.58176 0
M  V30 655 C 66.0226 2.85416 -3.42715 0
M  V30 656 C 66.7236 2.15455 -5.40328 0
M  V30 657 N 65.6996 2.55558 -4.79783 0
M  V30 658 H 69.5016 0.970213 -2.77424 0
M  V30 659 H 67.0156 0.440097 -1.56323 0
M  V30 660 H 69.0126 3.40665 -2.40319 0
M  V30 661 H 67.6726 2.9709 -1.31025 0
M  V30 662 H 68.6836 1.85554 -4.83518 0
M  V30 663 H 65.3606 3.22693 -2.64906 0
M  V30 664 H 66.7506 1.86605 -6.45467 0
M  V30 665 N 69.4707 1.49531 0.497807 0
M  V30 666 C 70.6957 1.63159 1.28039 0
M  V30 667 C 71.1207 0.30418 1.85624 0
M  V30 668 O 70.4787 -0.728618 1.66015 0
M  V30 669 C 70.5267 2.70537 2.38416 0
M  V30 670 O 69.6307 2.29931 3.42353 0
M  V30 671 H 68.9717 0.546001 0.377861 0
M  V30 672 H 71.5017 1.9574 0.59558 0
M  V30 673 H 71.5117 2.92802 2.84132 0
M  V30 674 H 70.1867 3.6689 1.95869 0
M  V30 675 H 68.7637 2.18009 3.02533 0
M  V30 676 N 70.9488 -0.749086 1.3866 0
M  V30 677 C 72.1738 -1.54344 1.38538 0
M  V30 678 C 72.5988 -1.88088 -0.0216655 0
M  V30 679 O 71.9568 -1.50899 -1.00494 0
M  V30 680 C 72.0048 -2.8164 2.25192 0
M  V30 681 O 71.1088 -3.7698 1.67212 0
M  V30 682 H 70.4498 -0.466654 0.472367 0
M  V30 683 H 72.9798 -0.925355 1.82478 0
M  V30 684 H 72.9898 -3.30519 2.3921 0
M  V30 685 H 71.6648 -2.56411 3.27454 0
M  V30 686 H 70.2418 -3.35699 1.6236 0
M  V30 687 N 72.4269 -1.23603 -0.977757 0
M  V30 688 C 73.6549 -1.09646 -1.75458 0
M  V30 689 C 74.0699 0.351859 -1.85492 0
M  V30 690 O 73.4269 1.24327 -1.336 0
M  V30 691 C 73.4779 -1.71895 -3.18016 0
M  V30 692 O 73.1989 -3.11063 -3.08498 0
M  V30 693 C 74.6999 -1.63415 -4.12081 0
M  V30 694 H 71.9199 -0.38359 -0.550545 0
M  V30 695 H 74.4639 -1.63507 -1.22824 0
M  V30 696 H 72.6189 -1.22061 -3.67668 0
M  V30 697 H 73.0329 -3.41305 -3.9826 0
M  V30 698 H 74.5069 -2.11669 -5.09804 0
M  V30 699 H 74.9839 -0.593462 -4.35172 0
M  V30 700 H 75.5899 -2.12628 -3.68334 0
M  V30 701 N 73.905 1.17692 -1.04816 0
M  V30 702 C 75.152 1.87859 -0.75599 0
M  V30 703 C 75.48 1.80812 0.716752 0
M  V30 704 O 74.735 1.20819 1.53952 0
M  V30 705 C 75.034 3.37462 -1.17703 0
M  V30 706 C 74.7 3.64713 -2.65133 0
M  V30 707 C 73.362 3.71859 -3.05408 0
M  V30 708 C 75.714 3.76492 -3.60421 0
M  V30 709 C 73.042 3.88271 -4.39843 0
M  V30 710 C 75.394 3.94421 -4.94585 0
M  V30 711 C 74.058 3.99806 -5.3452 0
M  V30 712 H 73.328 0.687425 -0.276636 0
M  V30 713 H 75.975 1.39255 -1.31455 0
M  V30 714 H 74.28 3.88097 -0.537395 0
M  V30 715 H 75.977 3.90109 -0.928218 0
M  V30 716 H 72.567 3.59772 -2.32942 0
M  V30 717 H 76.751 3.70295 -3.30447 0
M  V30 718 H 72.007 3.90687 -4.70291 0
M  V30 719 H 76.181 4.02477 -5.68318 0
M  V30 720 H 73.808 4.12276 -6.38696 0
M  V30 721 N 75.3831 0.828654 1.34056 0
M  V30 722 C 76.6231 0.425394 1.99924 0
M  V30 723 C 76.9871 -0.994294 1.64249 0
M  V30 724 O 78.1881 -1.50074 2.23005 0
M  V30 725 C 76.4591 0.628071 3.51838 0
M  V30 726 S 78.0181 0.318511 4.37642 0
M  V30 727 H 74.8361 0.160465 0.692656 0
M  V30 728 H 77.4381 1.07572 1.63244 0
M  V30 729 H 76.1421 1.66089 3.7529 0
M  V30 730 H 75.6731 -0.0367799 3.93383 0
M  V30 731 H 77.6881 -0.865632 4.88591 0
M  V30 732 N 76.8612 -1.46375 0.584142 0
M  V30 733 C 77.7942 -2.27351 -0.196676 0
M  V30 734 C 78.7722 -1.35715 -0.895561 0
M  V30 735 O 79.9562 -1.65126 -0.90916 0
M  V30 736 C 77.0832 -3.13486 -1.28235 0
M  V30 737 C 76.1292 -4.20896 -0.689145 0
M  V30 738 S 76.9622 -5.33299 0.48507 0
M  V30 739 C 78.1182 -6.23 -0.601767 0
M  V30 740 H 78.3512 -2.93228 0.490395 0
M  V30 741 H 75.8842 -1.49875 0.371071 0
M  V30 742 H 77.8422 -3.63676 -1.90395 0
M  V30 743 H 76.5032 -2.4692 -1.94138 0
M  V30 744 H 75.6962 -4.80997 -1.50527 0
M  V30 745 H 75.2982 -3.73726 -0.143181 0
M  V30 746 H 77.5902 -6.60979 -1.48705 0
M  V30 747 H 78.5332 -7.0809 -0.0374799 0
M  V30 748 H 78.9412 -5.57173 -0.906557 0
M  V30 749 N 78.3393 -0.321999 -1.54275 0
M  V30 750 C 79.7553 0.0306999 -1.5957 0
M  V30 751 C 79.9553 1.50614 -1.33857 0
M  V30 752 O 79.0113 2.2619 -1.12223 0
M  V30 753 C 80.3243 -0.386122 -2.98211 0
M  V30 754 C 81.8723 -0.336647 -3.11184 0
M  V30 755 C 82.3473 -0.728607 -4.52167 0
M  V30 756 N 83.8383 -0.681952 -4.58152 0
M  V30 757 C 84.5733 -0.957449 -5.6535 0
M  V30 758 N 84.0693 -1.3 -6.80494 0
M  V30 759 N 85.8623 -0.883113 -5.55119 0
M  V30 760 H 78.0133 -1.28332 -1.69247 0
M  V30 761 H 80.2763 -0.521716 -0.791528 0
M  V30 762 H 79.9823 -1.41404 -3.22022 0
M  V30 763 H 79.8563 0.249662 -3.76373 0
M  V30 764 H 82.2433 0.682058 -2.8711 0
M  V30 765 H 82.3243 -1.00734 -2.3513 0
M  V30 766 H 81.9683 -1.74522 -4.76974 0
M  V30 767 H 81.8983 -0.0356152 -5.26588 0
M  V30 768 H 84.3893 -0.428985 -3.75457 0
M  V30 769 H 84.7023 -1.49563 -7.58189 0
M  V30 770 H 83.0473 -1.33824 -6.81994 0
M  V30 771 H 86.2383 -0.615001 -4.64042 0
M  V30 772 H 86.4113 -1.10118 -6.38575 0
M  V30 773 N 79.8174 1.5752 -0.0501392 0
M  V30 774 C 81.0454 1.96963 0.633492 0
M  V30 775 C 81.4604 0.927631 1.6444 0
M  V30 776 O 80.8174 -0.0882665 1.82286 0
M  V30 777 C 80.8684 3.36487 1.32132 0
M  V30 778 O 80.5894 4.36693 0.350894 0
M  V30 779 C 82.0904 3.90682 2.09481 0
M  V30 780 H 79.3104 0.648244 0.173266 0
M  V30 781 H 81.8544 2.0417 -0.116134 0
M  V30 782 H 80.0094 3.30434 2.02218 0
M  V30 783 H 80.4234 5.17702 0.841735 0
M  V30 784 H 81.8974 4.90591 2.5303 0
M  V30 785 H 82.3744 3.26053 2.94255 0
M  V30 786 H 82.9804 4.00069 1.44307 0
M  V30 787 N 81.2955 -0.223234 1.56011 0
M  V30 788 C 82.5425 -0.947875 1.78946 0
M  V30 789 C 82.8705 -1.844 0.618608 0
M  V30 790 O 82.1255 -1.91629 -0.397093 0
M  V30 791 C 82.4245 -1.81948 3.0762 0
M  V30 792 C 82.0905 -1.07672 4.37856 0
M  V30 793 C 80.7525 -0.871544 4.73242 0
M  V30 794 C 83.1045 -0.552081 5.18268 0
M  V30 795 C 80.4325 -0.129791 5.86556 0
M  V30 796 C 82.7845 0.17632 6.32354 0
M  V30 797 C 81.4485 0.39277 6.66343 0
M  V30 798 H 80.7185 -0.346852 0.654809 0
M  V30 799 H 83.3655 -0.216171 1.90276 0
M  V30 800 H 81.6705 -2.61899 2.91404 0
M  V30 801 H 83.3675 -2.38227 3.22566 0
M  V30 802 H 79.9575 -1.24662 4.1007 0
M  V30 803 H 84.1415 -0.698076 4.91366 0
M  V30 804 H 79.3975 0.048153 6.11381 0
M  V30 805 H 83.5715 0.590367 6.93893 0
M  V30 806 H 81.1985 0.969466 7.53993 0
M  V30 807 N 82.7736 -1.49793 -0.48987 0
M  V30 808 C 84.0216 -1.59525 -1.24081 0
M  V30 809 C 84.3426 -0.288953 -1.92847 0
M  V30 810 O 83.6126 0.692436 -1.83254 0
M  V30 811 H 82.1926 -0.587796 -0.460983 0
M  V30 812 H 84.8546 -1.86477 -0.566778 0
M  V30 813 H 83.9506 -2.39696 -1.99881 0
M  V30 814 N 84.2517 0.741722 -1.39055 0
M  V30 815 C 85.4817 1.52876 -1.3897 0
M  V30 816 C 85.8897 1.8919 0.0193266 0
M  V30 817 O 85.2327 1.54138 0.999356 0
M  V30 818 C 85.2947 2.84929 -2.19216 0
M  V30 819 C 84.9587 2.71086 -3.67915 0
M  V30 820 C 85.9557 2.40084 -4.61146 0
M  V30 821 C 83.6407 2.88168 -4.11418 0
M  V30 822 C 85.6347 2.26335 -5.95862 0
M  V30 823 C 83.3217 2.74037 -5.46211 0
M  V30 824 C 84.3197 2.43166 -6.38247 0
M  V30 825 O 84.0077 2.29115 -7.70559 0
M  V30 826 H 83.7397 0.479252 -0.476753 0
M  V30 827 H 86.2937 0.924751 -1.83405 0
M  V30 828 H 84.5237 3.47564 -1.69518 0
M  V30 829 H 86.2127 3.46509 -2.11392 0
M  V30 830 H 86.9787 2.26545 -4.28838 0
M  V30 831 H 82.8577 3.11191 -3.40119 0
M  V30 832 H 86.4017 2.0216 -6.67665 0
M  V30 833 H 82.2987 2.87153 -5.78112 0
M  V30 834 H 83.0667 2.44237 -7.81211 0
M  V30 835 N 85.7298 1.2412 0.971189 0
M  V30 836 C 86.6778 1.02812 2.08644 0
M  V30 837 C 87.6718 -0.0358403 1.69362 0
M  V30 838 O 88.8778 0.118429 1.7961 0
M  V30 839 H 85.2528 0.315428 0.682649 0
M  V30 840 H 87.2238 1.97397 2.23779 0
M  V30 841 C 85.9728 0.645874 3.41649 0
M  V30 842 H 85.2958 1.45632 3.72332 0
M  V30 843 H 86.7358 0.536366 4.20594 0
M  V30 844 C 85.1948 -0.646713 3.30635 0
M  V30 845 O 85.7248 -1.69338 3.64263 0
M  V30 846 N 83.9308 -0.626115 2.83775 0
M  V30 847 H 83.4778 0.225988 2.56607 0
M  V30 848 H 83.4358 -1.49117 2.76788 0
M  V30 849 N 87.2079 -1.17134 1.05439 0
M  V30 850 C 88.4359 -1.91372 0.786414 0
M  V30 851 C 88.8509 -1.76955 -0.658202 0
M  V30 852 O 88.2079 -1.10838 -1.44987 0
M  V30 853 C 88.2589 -3.42356 1.1608 0
M  V30 854 O 87.9799 -3.56332 2.54871 0
M  V30 855 C 89.4809 -4.33663 0.919322 0
M  V30 856 H 86.7009 -0.607118 0.285743 0
M  V30 857 H 89.2449 -1.48525 1.40572 0
M  V30 858 H 87.3999 -3.82939 0.586191 0
M  V30 859 H 87.8139 -4.49896 2.69618 0
M  V30 860 H 89.2879 -5.38099 1.231 0
M  V30 861 H 89.7649 -4.38959 -0.145359 0
M  V30 862 H 90.3709 -3.98796 1.47789 0
M  V30 863 N 88.686 -0.835752 -1.33615 0
M  V30 864 C 89.935 -0.426289 -1.97144 0
M  V30 865 C 90.248 1.01912 -1.66953 0
M  V30 866 O 91.454 1.53311 -2.24072 0
M  V30 867 C 89.91 -0.711321 -3.52801 0
M  V30 868 C 89.518 -2.1712 -3.91871 0
M  V30 869 C 91.262 -0.368654 -4.22896 0
M  V30 870 C 89.169 -2.40044 -5.40493 0
M  V30 871 H 88.099 -0.15567 -0.737755 0
M  V30 872 H 90.75 -1.0239 -1.52278 0
M  V30 873 H 89.132 -0.0433766 -3.95976 0
M  V30 874 H 90.306 -2.87936 -3.59763 0
M  V30 875 H 88.621 -2.47654 -3.34749 0
M  V30 876 H 91.218 -0.517601 -5.32189 0
M  V30 877 H 91.561 0.688078 -4.10574 0
M  V30 878 H 92.094 -0.991702 -3.8524 0
M  V30 879 H 88.833 -3.44271 -5.57815 0
M  V30 880 H 88.353 -1.73785 -5.74072 0
M  V30 881 H 90.032 -2.23042 -6.0734 0
M  V30 882 N 90.1641 1.46063 -0.591896 0
M  V30 883 C 91.4411 1.95595 -0.0137119 0
M  V30 884 C 91.8211 1.5345 1.4497 0
M  V30 885 O 91.1691 0.789543 2.14426 0
M  V30 886 C 91.3791 3.48453 -0.195373 0
M  V30 887 C 92.7271 4.24546 -0.0679765 0
M  V30 888 O 93.7511 3.55982 -0.124681 0
M  V30 889 O 92.6101 5.46467 0.0600579 0
M  V30 890 H 89.7041 0.825795 0.0446279 0
M  V30 891 H 92.2501 1.56303 -0.660859 0
M  V30 892 H 91.0221 3.72045 -1.21235 0
M  V30 893 H 90.6451 3.94597 0.487775 0
M  V30 894 N 91.6422 0.330177 1.54103 0
M  V30 895 C 92.8882 -0.270806 2.00984 0
M  V30 896 C 93.2212 -1.51265 1.21789 0
M  V30 897 O 92.4962 -1.92142 0.301927 0
M  V30 898 C 92.7792 -0.598339 3.55094 0
M  V30 899 C 92.6322 0.654674 4.4501 0
M  V30 900 C 93.9512 -1.41334 4.16789 0
M  V30 901 H 91.0702 -0.0969531 0.730595 0
M  V30 902 H 93.7122 0.448066 1.84641 0
M  V30 903 H 91.8622 -1.21078 3.69151 0
M  V30 904 H 93.5342 1.29285 4.42813 0
M  V30 905 H 91.7772 1.28224 4.14416 0
M  V30 906 H 92.4482 0.380944 5.50684 0
M  V30 907 H 94.9242 -0.895597 4.06347 0
M  V30 908 H 93.8002 -1.61127 5.24718 0
M  V30 909 H 94.0612 -2.41146 3.70541 0
M  V30 910 N 93.1203 -1.57491 0.0584922 0
M  V30 911 C 94.3663 -1.93264 -0.614558 0
M  V30 912 C 94.6993 -0.937717 -1.7006 0
M  V30 913 O 93.9743 0.0351652 -1.94468 0
M  V30 914 C 94.2573 -3.3938 -1.20386 0
M  V30 915 C 94.1103 -4.49625 -0.125375 0
M  V30 916 C 95.4293 -3.86039 -2.11334 0
M  V30 917 H 92.5483 -0.702791 -0.221933 0
M  V30 918 H 95.1903 -1.8961 0.12175 0
M  V30 919 H 93.3403 -3.42626 -1.83139 0
M  V30 920 H 95.0123 -4.58506 0.506971 0
M  V30 921 H 93.2553 -4.30354 0.545672 0
M  V30 922 H 93.9263 -5.48967 -0.577861 0
M  V30 923 H 96.4023 -3.84716 -1.58534 0
M  V30 924 H 95.2783 -4.88914 -2.49507 0
M  V30 925 H 95.5393 -3.23215 -3.01636 0
M  V30 926 N 94.5984 0.214957 -1.56127 0
M  V30 927 C 96.0094 0.781386 -1.69562 0
M  V30 928 C 96.3604 1.84707 -0.66165 0
M  V30 929 O 95.4854 2.156 0.185927 0
M  V30 930 C 96.0804 1.42411 -3.07416 0
M  V30 931 C 94.6394 1.93786 -3.22683 0
M  V30 932 C 93.7864 0.800438 -2.65496 0
M  V30 933 H 96.7374 -0.00980633 -1.58697 0
M  V30 934 H 96.7584 2.29309 -3.0364 0
M  V30 935 H 96.2704 0.64826 -3.82648 0
M  V30 936 H 94.3714 2.74152 -2.52332 0
M  V30 937 H 94.4844 2.1133 -4.29973 0
M  V30 938 H 92.8484 1.2095 -2.2415 0
M  V30 939 H 93.6314 0.0371471 -3.4328 0
M  V30 940 N 96.0765 1.50051 0.48192 0
M  V30 941 C 97.3045 1.64237 1.25832 0
M  V30 942 C 97.7195 0.321336 1.86045 0
M  V30 943 O 97.0765 -0.695478 1.68729 0
M  V30 944 C 97.1275 2.72548 2.37487 0
M  V30 945 O 96.8485 3.99529 1.79745 0
M  V30 946 C 98.3495 2.9761 3.28547 0
M  V30 947 H 95.5695 0.55237 0.380957 0
M  V30 948 H 98.1135 1.96207 0.576467 0
M  V30 949 H 96.2685 2.43303 3.01467 0
M  V30 950 H 96.6825 4.59342 2.5319 0
M  V30 951 H 98.1565 3.77084 4.03127 0
M  V30 952 H 98.6335 2.0826 3.86684 0
M  V30 953 H 99.2395 3.28345 2.70314 0
M  V30 954 N 97.5546 -0.734337 1.39446 0
M  V30 955 C 98.7846 -1.52137 1.39778 0
M  V30 956 C 99.1926 -1.89198 -0.00929312 0
M  V30 957 O 98.5356 -1.54666 -0.991168 0
M  V30 958 C 98.5976 -2.83762 2.20724 0
M  V30 959 C 98.2616 -2.69131 3.69347 0
M  V30 960 C 99.2586 -2.37635 4.62413 0
M  V30 961 C 96.9436 -2.85982 4.1294 0
M  V30 962 C 98.9376 -2.23172 5.97054 0
M  V30 963 C 96.6246 -2.71137 5.47657 0
M  V30 964 C 97.6226 -2.39777 6.39528 0
M  V30 965 O 97.3106 -2.25026 7.71763 0
M  V30 966 H 97.0426 -0.476717 0.479288 0
M  V30 967 H 99.5966 -0.915012 1.83893 0
M  V30 968 H 97.8266 -3.4666 1.71359 0
M  V30 969 H 99.5156 -3.45383 2.13226 0
M  V30 970 H 100.282 -2.24267 4.30034 0
M  V30 971 H 96.1606 -3.09383 3.41765 0
M  V30 972 H 99.7046 -1.98617 6.68728 0
M  V30 973 H 95.6016 -2.84083 5.79626 0
M  V30 974 H 96.3696 -2.40091 7.82495 0
M  V30 975 N 99.0327 -1.24633 -0.964593 0
M  V30 976 C 99.9427 -1.05859 -2.09359 0
M  V30 977 C 100.959 0.00148855 -1.74 0
M  V30 978 O 102.135 -0.197346 -2.00431 0
M  V30 979 C 99.1997 -0.668879 -3.40187 0
M  V30 980 C 98.2607 -1.80578 -3.89474 0
M  V30 981 C 97.4937 -1.43457 -5.14058 0
M  V30 982 O 97.7167 -0.325775 -5.69469 0
M  V30 983 O 96.6507 -2.2613 -5.57807 0
M  V30 984 H 100.477 -2.00516 -2.28094 0
M  V30 985 H 98.0617 -1.03481 -1.0776 0
M  V30 986 H 99.9437 -0.463211 -4.18846 0
M  V30 987 H 98.6187 0.248536 -3.22744 0
M  V30 988 H 97.5257 -2.06623 -3.11862 0
M  V30 989 H 98.8587 -2.70208 -4.11398 0
M  V30 990 N 100.511 1.16574 -1.06058 0
M  V30 991 C 101.461 2.18854 -0.63929 0
M  V30 992 C 102.445 1.57505 0.328798 0
M  V30 993 O 103.637 1.76408 0.144623 0
M  V30 994 C 100.766 3.43291 -0.0247203 0
M  V30 995 C 99.8518 4.11722 -1.01716 0
M  V30 996 N 100.243 4.55841 -2.19186 0
M  V30 997 C 98.5408 4.37872 -0.847569 0
M  V30 998 C 99.2418 5.08751 -2.82042 0
M  V30 999 N 98.2178 5.01489 -2.09784 0
M  V30 1000 H 102.02 2.5068 -1.53417 0
M  V30 1001 H 99.5338 1.32999 -0.931935 0
M  V30 1002 H 101.531 4.15856 0.294915 0
M  V30 1003 H 100.191 3.12954 0.865448 0
M  V30 1004 H 101.202 4.49649 -2.56975 0
M  V30 1005 H 97.8788 4.17499 -0.00918848 0
M  V30 1006 H 99.2688 5.52944 -3.81709 0
M  V30 1007 N 101.989 0.842826 1.3317 0
M  V30 1008 C 103.219 0.453397 2.01564 0
M  V30 1009 C 103.627 -0.951147 1.63554 0
M  V30 1010 O 102.97 -1.63021 0.846746 0
M  V30 1011 C 103.032 0.499013 3.5602 0
M  V30 1012 C 102.696 1.86037 4.1742 0
M  V30 1013 C 103.693 2.82416 4.36506 0
M  V30 1014 C 101.378 2.15428 4.53757 0
M  V30 1015 C 103.372 4.06346 4.91082 0
M  V30 1016 C 101.059 3.39615 5.0804 0
M  V30 1017 C 102.057 4.3489 5.26649 0
M  V30 1018 O 101.745 5.5688 5.79776 0
M  V30 1019 H 101.477 0.177871 0.652179 0
M  V30 1020 H 104.031 1.13808 1.70988 0
M  V30 1021 H 102.261 -0.242467 3.85939 0
M  V30 1022 H 103.95 0.126852 4.05702 0
M  V30 1023 H 104.716 2.6101 4.08777 0
M  V30 1024 H 100.595 1.42061 4.38565 0
M  V30 1025 H 104.139 4.80722 5.05522 0
M  V30 1026 H 100.036 3.60876 5.352 0
M  V30 1027 H 100.804 5.58674 5.98185 0
M  V30 1028 N 103.467 -1.45747 0.599634 0
M  V30 1029 C 104.43 -2.28917 -0.113835 0
M  V30 1030 C 105.43 -1.3933 -0.802729 0
M  V30 1031 O 106.62 -1.61534 -0.652103 0
M  V30 1032 C 103.752 -3.20152 -1.17114 0
M  V30 1033 H 104.945 -2.93478 0.617289 0
M  V30 1034 H 102.498 -1.52137 0.358327 0
M  V30 1035 H 103.233 -2.60374 -1.93329 0
M  V30 1036 H 103.018 -3.86133 -0.681468 0
M  V30 1037 H 104.508 -3.82708 -1.67105 0
M  V30 1038 N 104.945 -0.338344 -1.53925 0
M  V30 1039 C 105.893 0.536231 -2.26335 0
M  V30 1040 C 106.887 1.1063 -1.28286 0
M  V30 1041 O 108.093 1.05264 -1.46012 0
M  V30 1042 H 104.468 0.191602 -0.727181 0
M  V30 1043 H 106.439 -0.0965747 -2.98244 0
M  V30 1044 C 105.188 1.67803 -3.04528 0
M  V30 1045 H 104.511 1.24864 -3.79801 0
M  V30 1046 H 105.951 2.26526 -3.58416 0
M  V30 1047 C 104.41 2.60439 -2.13712 0
M  V30 1048 O 104.94 3.6255 -1.72975 0
M  V30 1049 N 103.146 2.29006 -1.78898 0
M  V30 1050 H 102.693 1.46011 -2.12223 0
M  V30 1051 H 102.651 2.91248 -1.18416 0
M  V30 1052 N 106.423 1.57458 -0.0668435 0
M  V30 1053 C 107.648 1.9804 0.616027 0
M  V30 1054 C 108.073 0.944771 1.62652 0
M  V30 1055 O 107.431 -0.0902094 1.81075 0
M  V30 1056 C 107.479 3.37665 1.26549 0
M  V30 1057 O 106.583 3.36701 2.38131 0
M  V30 1058 H 105.924 0.644719 0.158849 0
M  V30 1059 H 108.454 2.04121 -0.139891 0
M  V30 1060 H 108.464 3.7474 1.6135 0
M  V30 1061 H 107.139 4.12573 0.525016 0
M  V30 1062 H 105.716 3.1139 2.0516 0
M  V30 1063 N 107.901 -0.206675 1.56239 0
M  V30 1064 C 109.129 -0.945345 1.8404 0
M  V30 1065 C 109.544 -1.77336 0.647885 0
M  V30 1066 O 108.901 -1.78425 -0.383511 0
M  V30 1067 C 108.952 -1.8509 3.10522 0
M  V30 1068 O 108.673 -1.05634 4.25174 0
M  V30 1069 C 110.174 -2.70222 3.51418 0
M  V30 1070 H 107.394 -0.276372 0.61144 0
M  V30 1071 H 109.938 -0.217417 2.03341 0
M  V30 1072 H 108.093 -2.53259 2.93153 0
M  V30 1073 H 108.507 -1.67238 4.97124 0
M  V30 1074 H 109.981 -3.29438 4.42916 0
M  V30 1075 H 110.458 -3.43358 2.73864 0
M  V30 1076 H 111.064 -2.07443 3.71278 0
M  V30 1077 N 109.379 -1.50304 -0.473955 0
M  V30 1078 C 110.311 -1.65109 -1.58971 0
M  V30 1079 C 111.324 -0.532676 -1.53839 0
M  V30 1080 O 112.513 -0.805751 -1.59279 0
M  V30 1081 C 109.613 -1.61684 -2.97845 0
M  V30 1082 C 108.786 -2.8951 -3.27876 0
M  V30 1083 C 107.845 -2.78768 -4.4629 0
M  V30 1084 O 106.871 -3.52722 -4.46739 0
M  V30 1085 N 108.073 -1.9213 -5.47783 0
M  V30 1086 H 110.838 -2.61347 -1.46689 0
M  V30 1087 H 108.399 -1.47732 -0.662324 0
M  V30 1088 H 110.391 -1.52114 -3.75024 0
M  V30 1089 H 108.961 -0.731925 -3.03911 0
M  V30 1090 H 108.181 -3.13228 -2.39336 0
M  V30 1091 H 109.469 -3.74199 -3.4475 0
M  V30 1092 H 108.867 -1.31353 -5.50239 0
M  V30 1093 H 107.424 -1.88466 -6.23958 0
M  V30 1094 N 110.857 0.726932 -1.39834 0
M  V30 1095 C 112.268 1.30558 -1.3346 0
M  V30 1096 C 112.619 1.962 -0.00273003 0
M  V30 1097 O 111.744 1.96826 0.899371 0
M  V30 1098 C 112.339 2.37404 -2.41713 0
M  V30 1099 C 110.898 2.90921 -2.38835 0
M  V30 1100 C 110.045 1.64578 -2.2318 0
M  V30 1101 H 112.996 0.523862 -1.49804 0
M  V30 1102 H 113.017 3.17984 -2.08966 0
M  V30 1103 H 112.529 1.89599 -3.38635 0
M  V30 1104 H 110.63 3.42985 -1.45575 0
M  V30 1105 H 110.743 3.43487 -3.33997 0
M  V30 1106 H 109.107 1.89219 -1.70494 0
M  V30 1107 H 109.89 1.18814 -3.22084 0
M  V30 1108 N 112.336 1.25143 0.95797 0
M  V30 1109 C 113.584 1.09476 1.69881 0
M  V30 1110 C 113.905 -0.365502 1.91544 0
M  V30 1111 O 113.175 -1.25985 1.50015 0
M  V30 1112 H 111.755 0.402128 0.629525 0
M  V30 1113 H 114.417 1.57214 1.15194 0
M  V30 1114 H 113.513 1.60046 2.6794 0
M  V30 1115 N 113.814 -1.1601 1.06675 0
M  V30 1116 C 114.724 -2.24156 0.692179 0
M  V30 1117 C 115.74 -1.71507 -0.293513 0
M  V30 1118 O 116.916 -2.009 -0.141861 0
M  V30 1119 C 113.981 -3.46587 0.0884131 0
M  V30 1120 C 113.042 -4.14257 1.12646 0
M  V30 1121 C 112.275 -5.30844 0.551416 0
M  V30 1122 O 112.498 -5.66858 -0.634656 0
M  V30 1123 O 111.432 -5.87848 1.29298 0
M  V30 1124 H 115.258 -2.58513 1.59388 0
M  V30 1125 H 112.843 -1.23599 0.83926 0
M  V30 1126 H 114.725 -4.20679 -0.246361 0
M  V30 1127 H 113.4 -3.13994 -0.786712 0
M  V30 1128 H 112.307 -3.42118 1.51348 0
M  V30 1129 H 113.64 -4.50914 1.97325 0
M  V30 1130 N 115.292 -0.849877 -1.32721 0
M  V30 1131 C 116.703 -0.506188 -1.79707 0
M  V30 1132 C 117.054 0.975627 -1.70223 0
M  V30 1133 O 116.179 1.76078 -1.25799 0
M  V30 1134 C 116.774 -0.912044 -3.26293 0
M  V30 1135 C 115.333 -0.620326 -3.71253 0
M  V30 1136 C 114.48 -1.11439 -2.53922 0
M  V30 1137 H 117.431 -1.03754 -1.20087 0
M  V30 1138 H 117.452 -0.226493 -3.79825 0
M  V30 1139 H 116.964 -1.99057 -3.33164 0
M  V30 1140 H 115.065 0.447674 -3.69901 0
M  V30 1141 H 115.178 -1.18327 -4.64258 0
M  V30 1142 H 113.542 -0.534834 -2.49021 0
M  V30 1143 H 114.325 -2.19992 -2.6355 0
M  V30 1144 N 116.77 1.45427 -0.607355 0
M  V30 1145 C 118.186 1.57283 -0.270985 0
M  V30 1146 C 118.386 1.59875 1.22647 0
M  V30 1147 O 117.442 1.52893 2.00948 0
M  V30 1148 C 118.755 2.85566 -0.941952 0
M  V30 1149 C 120.303 2.9924 -0.917849 0
M  V30 1150 C 120.778 4.30293 -1.56882 0
M  V30 1151 N 122.269 4.37051 -1.5343 0
M  V30 1152 C 123.004 5.37123 -2.00715 0
M  V30 1153 N 122.5 6.43734 -2.56084 0
M  V30 1154 N 124.293 5.28479 -1.91484 0
M  V30 1155 H 116.444 1.41988 -1.57966 0
M  V30 1156 H 118.707 0.67885 -0.661715 0
M  V30 1157 H 118.413 2.8955 -1.99633 0
M  V30 1158 H 118.287 3.74322 -0.465096 0
M  V30 1159 H 120.674 2.94822 0.127984 0
M  V30 1160 H 120.755 2.11895 -1.43297 0
M  V30 1161 H 120.399 4.35469 -2.61398 0
M  V30 1162 H 120.329 5.16454 -1.02873 0
M  V30 1163 H 122.82 3.60615 -1.12982 0
M  V30 1164 H 123.133 7.16341 -2.89958 0
M  V30 1165 H 121.478 6.44485 -2.60122 0
M  V30 1166 H 124.669 4.44098 -1.47967 0
M  V30 1167 H 124.842 6.0632 -2.28648 0
M  V30 1168 N 118.248 0.346503 1.53744 0
M  V30 1169 C 119.195 -0.508914 2.25119 0
M  V30 1170 C 120.165 -1.09315 1.25058 0
M  V30 1171 O 121.35 -1.12921 1.53797 0
M  V30 1172 C 118.49 -1.65246 3.02965 0
M  V30 1173 C 117.603 -1.09525 4.17886 0
M  V30 1174 C 116.738 -2.20634 4.83212 0
M  V30 1175 C 115.777 -1.62279 5.90196 0
M  V30 1176 N 114.914 -2.67143 6.49291 0
M  V30 1177 H 119.754 0.106283 2.9781 0
M  V30 1178 H 117.291 0.0642227 1.4696 0
M  V30 1179 H 119.249 -2.32574 3.4636 0
M  V30 1180 H 117.879 -2.2386 2.32565 0
M  V30 1181 H 116.931 -0.312818 3.79112 0
M  V30 1182 H 118.243 -0.628444 4.94825 0
M  V30 1183 H 117.397 -2.95821 5.29693 0
M  V30 1184 H 116.136 -2.70659 4.05703 0
M  V30 1185 H 115.141 -0.855989 5.43096 0
M  V30 1186 H 116.366 -1.13102 6.69615 0
M  V30 1187 H 114.312 -3.16417 5.74645 0
M  V30 1188 H 114.229 -2.25093 7.21713 0
M  V30 1189 H 115.497 -3.4209 7.00425 0
M  V30 1190 N 119.726 -1.57421 0.075193 0
M  V30 1191 C 120.972 -1.93905 -0.594025 0
M  V30 1192 C 121.305 -0.955701 -1.69056 0
M  V30 1193 O 120.58 0.0145373 -1.94495 0
M  V30 1194 C 120.863 -3.40638 -1.1678 0
M  V30 1195 C 120.716 -4.49733 -0.0776792 0
M  V30 1196 C 122.035 -3.88259 -2.07228 0
M  V30 1197 H 119.154 -0.705105 -0.214466 0
M  V30 1198 H 121.796 -1.8947 0.141854 0
M  V30 1199 H 119.946 -3.44549 -1.79494 0
M  V30 1200 H 121.618 -4.57942 0.555573 0
M  V30 1201 H 119.861 -4.29751 0.591286 0
M  V30 1202 H 120.532 -5.49549 -0.519603 0
M  V30 1203 H 123.008 -3.86376 -1.54445 0
M  V30 1204 H 121.884 -4.91533 -2.44308 0
M  V30 1205 H 122.145 -3.26396 -2.98191 0
M  V30 1206 N 121.204 0.198386 -1.56346 0
M  V30 1207 C 122.62 0.549085 -1.49857 0
M  V30 1208 C 122.82 1.86016 -0.774611 0
M  V30 1209 O 121.876 2.50416 -0.323776 0
M  V30 1210 C 123.189 0.606868 -2.94512 0
M  V30 1211 C 124.737 0.695925 -3.05165 0
M  V30 1212 C 125.212 0.784848 -4.51225 0
M  V30 1213 N 126.703 0.848463 -4.55363 0
M  V30 1214 C 127.438 0.937378 -5.65686 0
M  V30 1215 N 126.934 0.9888 -6.85707 0
M  V30 1216 N 128.727 0.974312 -5.53592 0
M  V30 1217 H 120.878 -0.661655 -2.01831 0
M  V30 1218 H 123.141 -0.235261 -0.918344 0
M  V30 1219 H 122.847 -0.28732 -3.50524 0
M  V30 1220 H 122.721 1.46268 -3.47686 0
M  V30 1221 H 125.108 1.58055 -2.49204 0
M  V30 1222 H 125.189 -0.186022 -2.55123 0
M  V30 1223 H 124.833 -0.0954072 -5.0781 0
M  V30 1224 H 124.763 1.68255 -4.98997 0
M  V30 1225 H 127.254 0.818103 -3.68938 0
M  V30 1226 H 127.567 1.05707 -7.65536 0
M  V30 1227 H 125.912 0.957534 -6.88372 0
M  V30 1228 H 129.103 0.930954 -4.58749 0
M  V30 1229 H 129.276 1.04015 -6.39597 0
M  V30 1230 N 122.682 1.50554 0.465978 0
M  V30 1231 C 124.093 1.54599 1.04671 0
M  V30 1232 C 124.444 0.352488 1.93008 0
M  V30 1233 O 123.569 -0.534044 2.09707 0
M  V30 1234 C 124.164 2.80166 1.90505 0
M  V30 1235 C 122.723 2.86876 2.43678 0
M  V30 1236 C 121.87 2.48947 1.22151 0
M  V30 1237 H 124.821 1.56744 0.248384 0
M  V30 1238 H 124.842 2.62311 2.75633 0
M  V30 1239 H 124.354 3.67013 1.26186 0
M  V30 1240 H 122.455 2.04393 3.11536 0
M  V30 1241 H 122.568 3.89885 2.78436 0
M  V30 1242 H 120.932 2.01498 1.5579 0
M  V30 1243 H 121.715 3.38107 0.594866 0
M  V30 1244 N 124.16 -0.719506 1.40217 0
M  V30 1245 C 125.388 -1.50864 1.41589 0
M  V30 1246 C 125.803 -1.88794 0.0145275 0
M  V30 1247 O 125.16 -1.55174 -0.960594 0
M  V30 1248 C 125.211 -2.78646 2.30302 0
M  V30 1249 O 124.932 -2.42321 3.64983 0
M  V30 1250 C 126.433 -3.72569 2.40224 0
M  V30 1251 H 123.653 -0.465709 0.48307 0
M  V30 1252 H 126.197 -0.88785 1.84221 0
M  V30 1253 H 124.352 -3.37019 1.91042 0
M  V30 1254 H 124.766 -3.24514 4.12057 0
M  V30 1255 H 126.24 -4.5908 3.06512 0
M  V30 1256 H 126.717 -4.15403 1.42608 0
M  V30 1257 H 127.323 -3.20109 2.80019 0
M  V30 1258 N 125.638 -1.25649 -0.95132 0
M  V30 1259 C 126.568 -1.08808 -2.06599 0
M  V30 1260 C 127.549 0.00382547 -1.701 0
M  V30 1261 O 128.734 -0.166325 -1.93486 0
M  V30 1262 C 125.864 -0.709542 -3.39975 0
M  V30 1263 C 124.818 -1.75206 -3.90496 0
M  V30 1264 C 124.144 -1.22811 -5.20405 0
M  V30 1265 C 125.444 -3.15153 -4.16504 0
M  V30 1266 H 127.138 -2.02048 -2.20946 0
M  V30 1267 H 124.684 -0.972835 -1.06169 0
M  V30 1268 H 126.637 -0.578649 -4.17408 0
M  V30 1269 H 125.361 0.258556 -3.25575 0
M  V30 1270 H 124.02 -1.87145 -3.15234 0
M  V30 1271 H 123.668 -0.250145 -5.02378 0
M  V30 1272 H 123.368 -1.92492 -5.55176 0
M  V30 1273 H 124.892 -1.10968 -6.00432 0
M  V30 1274 H 126.306 -3.06349 -4.84586 0
M  V30 1275 H 124.703 -3.82333 -4.62538 0
M  V30 1276 H 125.773 -3.61966 -3.22658 0
M  V30 1277 N 127.117 1.15442 -1.07289 0
M  V30 1278 C 128.08 2.18358 -0.696591 0
M  V30 1279 C 129.08 1.58637 0.262837 0
M  V30 1280 O 130.27 1.74145 0.0438809 0
M  V30 1281 C 127.402 3.4089 -0.0266151 0
M  V30 1282 H 128.595 2.53162 -1.60776 0
M  V30 1283 H 126.148 1.29893 -0.869342 0
M  V30 1284 H 126.883 3.11653 0.896822 0
M  V30 1285 H 126.668 3.85495 -0.716657 0
M  V30 1286 H 128.158 4.17009 0.222028 0
M  V30 1287 N 128.595 0.856903 1.32268 0
M  V30 1288 C 129.872 0.382583 1.91822 0
M  V30 1289 C 130.252 -1.13407 1.78051 0
M  V30 1290 O 129.6 -1.95673 1.18001 0
M  V30 1291 C 129.81 0.849446 3.38505 0
M  V30 1292 C 131.158 0.867936 4.15634 0
M  V30 1293 O 132.182 0.794232 3.47232 0
M  V30 1294 O 131.041 0.972286 5.37781 0
M  V30 1295 H 128.135 0.112014 0.819379 0
M  V30 1296 H 130.681 0.943952 1.41024 0
M  V30 1297 H 129.453 1.89267 3.42482 0
M  V30 1298 H 129.076 0.265652 3.96712 0
M  V30 1299 N 130.073 -1.45103 0.615059 0
M  V30 1300 C 131.003 -2.33339 -0.0865619 0
M  V30 1301 C 131.984 -1.4727 -0.851209 0
M  V30 1302 O 133.169 -1.76026 -0.820281 0
M  V30 1303 C 130.299 -3.30095 -1.07956 0
M  V30 1304 C 129.253 -4.25858 -0.427628 0
M  V30 1305 C 128.579 -5.12361 -1.5294 0
M  V30 1306 C 129.879 -5.18165 0.655944 0
M  V30 1307 H 131.573 -2.92254 0.650224 0
M  V30 1308 H 129.119 -1.40532 0.314138 0
M  V30 1309 H 131.072 -3.90698 -1.57901 0
M  V30 1310 H 129.796 -2.69355 -1.84703 0
M  V30 1311 H 128.455 -3.66564 0.0510292 0
M  V30 1312 H 128.103 -4.47984 -2.28734 0
M  V30 1313 H 127.803 -5.77238 -1.09865 0
M  V30 1314 H 129.327 -5.75833 -2.03098 0
M  V30 1315 H 130.741 -5.72796 0.240257 0
M  V30 1316 H 129.138 -5.91559 1.00888 0
M  V30 1317 H 130.208 -4.60144 1.52957 0
M  V30 1318 N 131.551 -0.354651 -1.53558 0
M  V30 1319 C 132.501 0.513179 -2.2215 0
M  V30 1320 C 133.485 1.05734 -1.21281 0
M  V30 1321 O 134.677 0.989202 -1.46778 0
M  V30 1322 C 131.806 1.65798 -3.00609 0
M  V30 1323 C 130.892 1.12722 -4.08845 0
M  V30 1324 N 131.283 0.318563 -5.04796 0
M  V30 1325 C 129.581 1.40307 -4.23356 0
M  V30 1326 C 130.282 0.0292224 -5.81693 0
M  V30 1327 N 129.258 0.623891 -5.40008 0
M  V30 1328 H 133.06 -0.111586 -2.93688 0
M  V30 1329 H 130.574 -0.162091 -1.61589 0
M  V30 1330 H 132.571 2.29176 -3.48258 0
M  V30 1331 H 131.231 2.28591 -2.306 0
M  V30 1332 H 132.242 -0.0413091 -5.17884 0
M  V30 1333 H 128.919 2.03458 -3.6457 0
M  V30 1334 H 130.309 -0.623808 -6.68998 0
M  V30 1335 N 133.029 1.57378 -0.0835403 0
M  V30 1336 C 134.254 1.98682 0.594987 0
M  V30 1337 C 134.679 0.961969 1.61641 0
M  V30 1338 O 134.037 -0.0709989 1.81161 0
M  V30 1339 C 134.085 3.38988 1.2296 0
M  V30 1340 O 133.189 3.39208 2.34546 0
M  V30 1341 H 132.53 0.646368 0.152002 0
M  V30 1342 H 135.06 2.03961 -0.161533 0
M  V30 1343 H 135.07 3.76431 1.57366 0
M  V30 1344 H 133.745 4.13107 0.481228 0
M  V30 1345 H 132.322 3.13548 2.01846 0
M  V30 1346 N 134.507 -0.190092 1.56449 0
M  V30 1347 C 135.754 -0.909705 1.80916 0
M  V30 1348 C 136.082 -1.83047 0.657583 0
M  V30 1349 O 135.337 -1.92428 -0.356356 0
M  V30 1350 C 135.636 -1.75382 3.1141 0
M  V30 1351 C 135.302 -0.983606 4.40041 0
M  V30 1352 C 133.964 -0.770967 4.74984 0
M  V30 1353 C 136.316 -0.442024 5.19322 0
M  V30 1354 C 133.644 -0.0053448 5.867 0
M  V30 1355 C 135.996 0.310412 6.31838 0
M  V30 1356 C 134.66 0.534023 6.6536 0
M  V30 1357 H 133.93 -0.332885 0.662019 0
M  V30 1358 H 136.577 -0.175762 1.90692 0
M  V30 1359 H 134.882 -2.55659 2.96893 0
M  V30 1360 H 136.579 -2.31331 3.27547 0
M  V30 1361 H 133.169 -1.15936 4.12622 0
M  V30 1362 H 137.353 -0.593693 4.92736 0
M  V30 1363 H 132.609 0.177825 6.11141 0
M  V30 1364 H 136.783 0.737419 6.92485 0
M  V30 1365 H 134.41 1.12918 7.51767 0
M  V30 1366 N 135.985 -1.50799 -0.457987 0
M  V30 1367 C 136.915 -1.73553 -1.5621 0
M  V30 1368 C 137.896 -0.584774 -1.59732 0
M  V30 1369 O 139.081 -0.825314 -1.7579 0
M  V30 1370 C 136.211 -1.84169 -2.94447 0
M  V30 1371 C 135.165 -2.99461 -3.0579 0
M  V30 1372 C 134.491 -2.95235 -4.45803 0
M  V30 1373 C 135.791 -4.39766 -2.81786 0
M  V30 1374 H 137.485 -2.66 -1.37421 0
M  V30 1375 H 135.031 -1.28002 -0.659662 0
M  V30 1376 H 136.984 -1.98672 -3.71628 0
M  V30 1377 H 135.708 -0.883545 -3.14422 0
M  V30 1378 H 134.367 -2.8463 -2.31044 0
M  V30 1379 H 134.015 -1.97239 -4.62715 0
M  V30 1380 H 133.715 -3.72642 -4.54326 0
M  V30 1381 H 135.239 -3.11803 -5.24987 0
M  V30 1382 H 136.653 -4.55054 -3.4871 0
M  V30 1383 H 135.05 -5.18722 -3.0174 0
M  V30 1384 H 136.12 -4.51229 -1.7754 0
M  V30 1385 N 137.463 0.71206 -1.40597 0
M  V30 1386 C 138.41 1.82613 -1.41142 0
M  V30 1387 C 139.38 1.63925 -0.267903 0
M  V30 1388 O 140.565 1.85009 -0.466495 0
M  V30 1389 C 137.705 3.20354 -1.28324 0
M  V30 1390 C 136.818 3.50589 -2.52411 0
M  V30 1391 C 135.953 4.77855 -2.32009 0
M  V30 1392 C 134.992 5.01005 -3.51654 0
M  V30 1393 N 134.129 6.19487 -3.30425 0
M  V30 1394 H 138.969 1.81482 -2.36365 0
M  V30 1395 H 136.506 0.886475 -1.17388 0
M  V30 1396 H 138.464 3.99899 -1.18899 0
M  V30 1397 H 137.094 3.20705 -0.367189 0
M  V30 1398 H 136.146 2.65573 -2.72351 0
M  V30 1399 H 137.458 3.63604 -3.41458 0
M  V30 1400 H 136.612 5.65424 -2.19956 0
M  V30 1401 H 135.351 4.67056 -1.40392 0
M  V30 1402 H 134.356 4.1189 -3.64179 0
M  V30 1403 H 135.581 5.13674 -4.44202 0
M  V30 1404 H 133.527 6.09932 -2.41494 0
M  V30 1405 H 133.444 6.33194 -4.13039 0
M  V30 1406 H 134.712 7.09834 -3.22113 0
M  V30 1407 N 138.941 1.26152 0.944643 0
M  V30 1408 C 139.873 1.03199 2.04652 0
M  V30 1409 C 140.886 -0.00642356 1.62799 0
M  V30 1410 O 142.075 0.233263 1.76969 0
M  V30 1411 C 139.175 0.540111 3.34568 0
M  V30 1412 C 138.348 1.64697 4.05208 0
M  V30 1413 C 137.407 1.15374 5.13396 0
M  V30 1414 O 136.433 1.85013 5.38293 0
M  V30 1415 N 137.635 0.00031529 5.805 0
M  V30 1416 H 140.4 1.9808 2.2491 0
M  V30 1417 H 137.961 1.17491 1.11389 0
M  V30 1418 H 139.953 0.194401 4.04233 0
M  V30 1419 H 138.523 -0.315021 3.11009 0
M  V30 1420 H 137.743 2.16379 3.29506 0
M  V30 1421 H 139.031 2.3903 4.49157 0
M  V30 1422 H 138.429 -0.581336 5.62705 0
M  V30 1423 H 136.986 -0.286346 6.51171 0
M  V30 1424 N 140.419 -1.14872 1.07899 0
M  V30 1425 C 141.329 -2.2341 0.715915 0
M  V30 1426 C 142.345 -1.71808 -0.275306 0
M  V30 1427 O 143.521 -2.01039 -0.120545 0
M  V30 1428 C 140.586 -3.46474 0.125168 0
M  V30 1429 C 139.647 -4.13039 1.17034 0
M  V30 1430 C 138.88 -5.30229 0.607688 0
M  V30 1431 O 139.103 -5.675 -0.574497 0
M  V30 1432 O 138.037 -5.86444 1.35526 0
M  V30 1433 H 141.863 -2.56808 1.62121 0
M  V30 1434 H 139.448 -1.22702 0.852322 0
M  V30 1435 H 141.33 -4.20917 -0.201729 0
M  V30 1436 H 140.005 -3.14811 -0.753364 0
M  V30 1437 H 138.912 -3.40493 1.54968 0
M  V30 1438 H 140.245 -4.48796 2.02097 0
M  V30 1439 N 141.898 -0.863906 -1.31812 0
M  V30 1440 C 143.146 -0.470904 -1.96537 0
M  V30 1441 C 143.467 0.978771 -1.68657 0
M  V30 1442 O 142.737 1.6853 -0.998717 0
M  V30 1443 H 141.317 -0.171148 -0.72713 0
M  V30 1444 H 143.979 -1.10236 -1.60729 0
M  V30 1445 H 143.075 -0.623616 -3.05806 0
M  V30 1446 N 143.376 1.44774 -0.622745 0
M  V30 1447 C 144.792 1.56986 -0.287652 0
M  V30 1448 C 144.992 1.61167 1.20944 0
M  V30 1449 O 144.048 1.55015 1.99315 0
M  V30 1450 C 145.361 2.84551 -0.972188 0
M  V30 1451 C 146.909 2.9825 -0.949536 0
M  V30 1452 C 147.384 4.28605 -1.61437 0
M  V30 1453 N 148.875 4.35399 -1.58057 0
M  V30 1454 C 149.61 5.34964 -2.064 0
M  V30 1455 N 149.106 6.40981 -2.62897 0
M  V30 1456 N 150.899 5.26419 -1.97078 0
M  V30 1457 H 143.05 1.40304 -1.59463 0
M  V30 1458 H 145.313 0.671794 -0.668878 0
M  V30 1459 H 145.019 2.87417 -2.02693 0
M  V30 1460 H 144.893 3.73807 -0.504771 0
M  V30 1461 H 147.28 2.94941 0.0967067 0
M  V30 1462 H 147.361 2.10364 -1.45536 0
M  V30 1463 H 147.005 4.32672 -2.66002 0
M  V30 1464 H 146.935 5.15334 -1.08344 0
M  V30 1465 H 149.426 3.59397 -1.16801 0
M  V30 1466 H 149.739 7.13225 -2.97539 0
M  V30 1467 H 148.084 6.4169 -2.66943 0
M  V30 1468 H 151.275 4.42504 -1.52669 0
M  V30 1469 H 151.448 6.03861 -2.35066 0
M  V30 1470 N 144.854 0.36279 1.53368 0
M  V30 1471 C 145.804 -0.501391 2.22419 0
M  V30 1472 C 146.788 -1.0509 1.2184 0
M  V30 1473 O 147.98 -0.981404 1.47301 0
M  V30 1474 C 145.109 -1.64201 3.01484 0
M  V30 1475 C 144.195 -1.10552 4.09438 0
M  V30 1476 N 144.586 -0.291788 5.04958 0
M  V30 1477 C 142.884 -1.3806 4.24094 0
M  V30 1478 C 143.585 0.00162655 5.817 0
M  V30 1479 N 142.561 -0.595244 5.40331 0
M  V30 1480 H 146.363 0.127159 2.93625 0
M  V30 1481 H 143.877 0.170658 1.61501 0
M  V30 1482 H 145.874 -2.27326 3.49469 0
M  V30 1483 H 144.534 -2.27365 2.31809 0
M  V30 1484 H 145.545 0.0687731 5.17854 0
M  V30 1485 H 142.222 -2.01522 3.65644 0
M  V30 1486 H 143.612 0.659278 6.68658 0
M  V30 1487 N 146.332 -1.57332 0.0918853 0
M  V30 1488 C 147.262 -2.16872 -0.865371 0
M  V30 1489 C 148.243 -1.10118 -1.29646 0
M  V30 1490 O 149.428 -1.38242 -1.36392 0
M  V30 1491 C 146.558 -2.74649 -2.12569 0
M  V30 1492 C 145.512 -3.86747 -1.83333 0
M  V30 1493 C 144.838 -4.31212 -3.16166 0
M  V30 1494 C 146.138 -5.10089 -1.1228 0
M  V30 1495 H 147.832 -2.97114 -0.369307 0
M  V30 1496 H 145.378 -1.42918 -0.176194 0
M  V30 1497 H 147.331 -3.14952 -2.7997 0
M  V30 1498 H 146.055 -1.91657 -2.64452 0
M  V30 1499 H 144.714 -3.46978 -1.18331 0
M  V30 1500 H 144.362 -3.45115 -3.6593 0
M  V30 1501 H 144.062 -5.06788 -2.97388 0
M  V30 1502 H 145.586 -4.74146 -3.84731 0
M  V30 1503 H 147 -5.47582 -1.69785 0
M  V30 1504 H 145.397 -5.91073 -1.03693 0
M  V30 1505 H 146.467 -4.84786 -0.105041 0
M  V30 1506 N 147.81 0.181792 -1.56548 0
M  V30 1507 C 148.76 1.22961 -1.92002 0
M  V30 1508 C 149.744 1.40331 -0.787146 0
M  V30 1509 O 150.936 1.42478 -1.05019 0
M  V30 1510 C 148.065 2.57144 -2.27446 0
M  V30 1511 C 147.151 2.43512 -3.47222 0
M  V30 1512 N 147.542 1.99577 -4.64761 0
M  V30 1513 C 145.84 2.74368 -3.51622 0
M  V30 1514 C 146.541 1.98156 -5.46909 0
M  V30 1515 N 145.517 2.40164 -4.8767 0
M  V30 1516 H 149.319 0.881462 -2.8037 0
M  V30 1517 H 146.833 0.390141 -1.57644 0
M  V30 1518 H 148.83 3.32847 -2.51035 0
M  V30 1519 H 147.49 2.92771 -1.40411 0
M  V30 1520 H 148.501 1.70078 -4.89177 0
M  V30 1521 H 145.178 3.14102 -2.75038 0
M  V30 1522 H 146.568 1.65975 -6.51077 0
M  V30 1523 N 149.288 1.51039 0.449983 0
M  V30 1524 C 150.251 1.70863 1.5277 0
M  V30 1525 C 151.251 0.578846 1.5002 0
M  V30 1526 O 152.441 0.846213 1.52266 0
M  V30 1527 C 149.573 1.75341 2.9235 0
M  V30 1528 H 150.766 2.67034 1.36502 0
M  V30 1529 H 148.319 1.40838 0.677812 0
M  V30 1530 H 149.054 0.809383 3.14037 0
M  V30 1531 H 148.839 2.57436 2.95752 0
M  V30 1532 H 150.329 1.92559 3.70555 0
M  V30 1533 N 150.766 -0.704594 1.40972 0
M  V30 1534 C 151.696 -1.83124 1.44872 0
M  V30 1535 C 152.677 -1.67281 0.30838 0
M  V30 1536 O 153.862 -1.87149 0.518556 0
M  V30 1537 C 150.992 -3.21181 1.32136 0
M  V30 1538 C 149.946 -3.51714 2.43888 0
M  V30 1539 C 149.272 -4.89032 2.16222 0
M  V30 1540 C 150.572 -3.516 3.86232 0
M  V30 1541 H 152.266 -1.80117 2.39161 0
M  V30 1542 H 149.812 -0.865145 1.15114 0
M  V30 1543 H 151.765 -3.99702 1.33479 0
M  V30 1544 H 150.489 -3.24791 0.343279 0
M  V30 1545 H 149.148 -2.75539 2.41813 0
M  V30 1546 H 148.796 -4.89256 1.16778 0
M  V30 1547 H 148.496 -5.10426 2.911 0
M  V30 1548 H 150.02 -5.69873 2.19265 0
M  V30 1549 H 151.434 -4.2014 3.9007 0
M  V30 1550 H 149.831 -3.84523 4.60719 0
M  V30 1551 H 150.901 -2.50757 4.15029 0
M  V30 1552 N 152.244 -1.26651 -0.937939 0
M  V30 1553 C 153.207 -1.08546 -2.01867 0
M  V30 1554 C 154.207 -0.0327327 -1.60767 0
M  V30 1555 O 155.397 -0.276427 -1.71993 0
M  V30 1556 C 152.529 -0.651711 -3.34613 0
M  V30 1557 H 153.722 -2.04502 -2.1936 0
M  V30 1558 H 151.275 -1.09294 -1.11734 0
M  V30 1559 H 152.01 0.309696 -3.22818 0
M  V30 1560 H 151.795 -1.41189 -3.65798 0
M  V30 1561 H 153.285 -0.546973 -4.14002 0
M  V30 1562 N 153.722 1.14298 -1.08507 0
M  V30 1563 C 154.969 1.85359 -0.815373 0
M  V30 1564 C 155.297 1.83001 0.658865 0
M  V30 1565 O 154.552 1.25655 1.50031 0
M  V30 1566 C 154.851 3.33547 -1.28379 0
M  V30 1567 C 154.517 3.56093 -2.76602 0
M  V30 1568 C 153.179 3.61955 -3.17084 0
M  V30 1569 C 155.531 3.64834 -3.72217 0
M  V30 1570 C 152.859 3.74082 -4.51973 0
M  V30 1571 C 155.211 3.78487 -5.06883 0
M  V30 1572 C 153.875 3.82598 -5.46969 0
M  V30 1573 H 153.145 0.678276 -0.298366 0
M  V30 1574 H 155.792 1.35002 -1.35819 0
M  V30 1575 H 154.097 3.86191 -0.660593 0
M  V30 1576 H 155.794 3.86959 -1.05186 0
M  V30 1577 H 152.384 3.52179 -2.4427 0
M  V30 1578 H 156.568 3.59595 -3.42061 0
M  V30 1579 H 151.824 3.75527 -4.82483 0
M  V30 1580 H 155.998 3.84193 -5.80834 0
M  V30 1581 H 153.625 3.91747 -6.51489 0
M  V30 1582 N 155.201 0.870884 1.31352 0
M  V30 1583 C 156.478 0.402907 1.91405 0
M  V30 1584 C 156.858 -1.11512 1.79244 0
M  V30 1585 O 156.206 -1.94411 1.2007 0
M  V30 1586 C 156.416 0.885301 3.37585 0
M  V30 1587 C 157.764 0.911971 4.14691 0
M  V30 1588 O 158.788 0.831016 3.46371 0
M  V30 1589 O 157.647 1.02927 5.3672 0
M  V30 1590 H 154.741 0.120698 0.818145 0
M  V30 1591 H 157.287 0.958857 1.40014 0
M  V30 1592 H 156.059 1.92889 3.40455 0
M  V30 1593 H 155.682 0.307714 3.96407 0
M  V30 1594 N 156.679 -1.44442 0.630414 0
M  V30 1595 C 157.904 -2.06927 0.139944 0
M  V30 1596 C 158.329 -1.46795 -1.17613 0
M  V30 1597 O 157.687 -0.569144 -1.72135 0
M  V30 1598 C 157.735 -3.6058 0.0379581 0
M  V30 1599 O 156.839 -3.99937 -1.0062 0
M  V30 1600 H 156.18 -0.658608 0.0844483 0
M  V30 1601 H 158.71 -1.85327 0.866891 0
M  V30 1602 H 158.72 -4.07714 -0.152856 0
M  V30 1603 H 157.395 -4.03728 0.998809 0
M  V30 1604 H 155.972 -3.64436 -0.79001 0
M  V30 1605 N 158.157 -0.370918 -1.53173 0
M  V30 1606 C 159.573 -0.0200818 -1.59587 0
M  V30 1607 C 159.773 1.46279 -1.38581 0
M  V30 1608 O 158.829 2.22506 -1.19363 0
M  V30 1609 C 160.142 -0.4808 -2.96831 0
M  V30 1610 C 161.69 -0.435477 -3.09956 0
M  V30 1611 C 162.165 -0.872092 -4.4962 0
M  V30 1612 N 163.656 -0.827364 -4.55751 0
M  V30 1613 C 164.391 -1.13683 -5.62018 0
M  V30 1614 N 163.887 -1.51584 -6.76014 0
M  V30 1615 N 165.68 -1.05927 -5.52029 0
M  V30 1616 H 157.831 -1.33652 -1.65079 0
M  V30 1617 H 160.094 -0.546634 -0.774529 0
M  V30 1618 H 159.8 -1.51577 -3.1736 0
M  V30 1619 H 159.674 0.129796 -3.76977 0
M  V30 1620 H 162.061 0.590371 -2.89134 0
M  V30 1621 H 162.142 -1.08164 -2.31806 0
M  V30 1622 H 161.786 -1.89608 -4.71181 0
M  V30 1623 H 161.716 -0.203127 -5.26208 0
M  V30 1624 H 164.207 -0.548216 -3.73902 0
M  V30 1625 H 164.52 -1.73609 -7.53047 0
M  V30 1626 H 162.865 -1.55454 -6.77391 0
M  V30 1627 H 166.056 -0.762321 -4.61851 0
M  V30 1628 H 166.229 -1.30378 -6.34749 0
M  V30 1629 N 159.635 1.57281 -0.100228 0
M  V30 1630 C 161.046 1.81725 0.428107 0
M  V30 1631 C 161.397 1.01619 1.67833 0
M  V30 1632 O 160.522 0.247098 2.14985 0
M  V30 1633 C 161.117 3.29617 0.78347 0
M  V30 1634 C 159.676 3.54808 1.25653 0
M  V30 1635 C 158.823 2.76118 0.255752 0
M  V30 1636 H 161.774 1.55324 -0.325608 0
M  V30 1637 H 161.795 3.4322 1.64256 0
M  V30 1638 H 161.307 3.87893 -0.12665 0
M  V30 1639 H 159.408 3.01868 2.18418 0
M  V30 1640 H 159.521 4.63443 1.21482 0
M  V30 1641 H 157.885 2.43745 0.738956 0
M  V30 1642 H 158.668 3.37145 -0.647136 0
M  V30 1643 N 161.113 -0.173488 1.56642 0
M  V30 1644 C 162.338 -0.910149 1.86363 0
M  V30 1645 C 162.763 -1.75132 0.686318 0
M  V30 1646 O 162.121 -1.77595 -0.364643 0
M  V30 1647 C 162.169 -1.76447 3.14482 0
M  V30 1648 O 161.273 -2.86584 2.96553 0
M  V30 1649 H 160.614 -0.255086 0.613047 0
M  V30 1650 H 163.144 -0.172283 2.03873 0
M  V30 1651 H 163.154 -2.16483 3.45831 0
M  V30 1652 H 161.829 -1.14658 3.99783 0
M  V30 1653 H 160.406 -2.50146 2.76553 0
M  V30 1654 N 162.591 -1.51276 -0.441967 0
M  V30 1655 C 163.541 -1.6864 -1.53442 0
M  V30 1656 C 164.525 -0.540444 -1.51552 0
M  V30 1657 O 165.717 -0.796157 -1.58083 0
M  V30 1658 C 162.846 -1.8106 -2.91672 0
M  V30 1659 C 161.932 -3.01424 -2.98336 0
M  V30 1660 N 162.323 -4.2467 -2.74752 0
M  V30 1661 C 160.621 -3.00584 -3.29493 0
M  V30 1662 C 161.322 -5.05891 -2.87139 0
M  V30 1663 N 160.298 -4.40442 -3.18609 0
M  V30 1664 H 164.1 -2.61598 -1.33954 0
M  V30 1665 H 161.614 -1.4886 -0.6492 0
M  V30 1666 H 163.611 -1.91609 -3.70259 0
M  V30 1667 H 162.271 -0.892795 -3.12185 0
M  V30 1668 H 163.282 -4.53691 -2.49769 0
M  V30 1669 H 159.959 -2.18417 -3.55809 0
M  V30 1670 H 161.349 -6.13983 -2.72899 0
M  V30 1671 N 164.069 0.697108 -1.41344 0
M  V30 1672 C 164.979 1.84088 -1.45427 0
M  V30 1673 C 165.995 1.70545 -0.34501 0
M  V30 1674 O 167.171 1.92488 -0.592492 0
M  V30 1675 C 164.236 3.20056 -1.33286 0
M  V30 1676 C 163.297 3.45718 -2.54514 0
M  V30 1677 C 162.53 4.75199 -2.42944 0
M  V30 1678 O 162.753 5.51579 -1.45318 0
M  V30 1679 O 161.687 5.0161 -3.32672 0
M  V30 1680 H 165.513 1.836 -2.41919 0
M  V30 1681 H 163.098 0.849966 -1.22866 0
M  V30 1682 H 164.98 4.01236 -1.28794 0
M  V30 1683 H 163.655 3.2123 -0.39909 0
M  V30 1684 H 162.562 2.64474 -2.64583 0
M  V30 1685 H 163.895 3.49356 -3.46715 0
M  V30 1686 N 165.547 1.27147 0.931209 0
M  V30 1687 C 166.48 1.0389 2.0318 0
M  V30 1688 C 167.458 -0.0395716 1.62552 0
M  V30 1689 O 168.642 0.104867 1.88208 0
M  V30 1690 C 165.769 0.575227 3.3378 0
M  V30 1691 C 164.815 1.64774 3.93385 0
M  V30 1692 S 165.648 3.23933 4.26413 0
M  V30 1693 C 166.804 2.79358 5.60098 0
M  V30 1694 H 167.037 1.97075 2.22596 0
M  V30 1695 H 164.57 1.10938 1.07387 0
M  V30 1696 H 166.528 0.314385 4.09294 0
M  V30 1697 H 165.189 -0.336505 3.12292 0
M  V30 1698 H 164.382 1.27454 4.87618 0
M  V30 1699 H 163.984 1.86048 3.24441 0
M  V30 1700 H 166.276 2.24443 6.39243 0
M  V30 1701 H 167.219 3.72322 6.02314 0
M  V30 1702 H 167.627 2.1861 5.20452 0
M  V30 1703 N 167.025 -1.13721 1.09112 0
M  V30 1704 C 168.253 -1.88773 0.846899 0
M  V30 1705 C 168.668 -1.7896 -0.601572 0
M  V30 1706 O 168.025 -1.15394 -1.41388 0
M  V30 1707 C 168.076 -3.3849 1.26913 0
M  V30 1708 O 167.797 -3.48043 2.66079 0
M  V30 1709 C 169.298 -4.30518 1.05682 0
M  V30 1710 H 166.518 -0.59772 0.304914 0
M  V30 1711 H 169.062 -1.43977 1.45227 0
M  V30 1712 H 167.217 -3.80881 0.707723 0
M  V30 1713 H 167.631 -4.4109 2.83795 0
M  V30 1714 H 169.105 -5.3391 1.40156 0
M  V30 1715 H 169.582 -4.392 -0.00563416 0
M  V30 1716 H 170.188 -3.93893 1.60402 0
M  V30 1717 N 168.503 -0.877838 -1.30888 0
M  V30 1718 C 169.78 -0.413052 -1.91189 0
M  V30 1719 C 170.16 1.1056 -1.79832 0
M  V30 1720 O 169.508 1.93771 -1.21099 0
M  V30 1721 C 169.718 -0.903191 -3.3711 0
M  V30 1722 C 171.066 -0.93395 -4.14201 0
M  V30 1723 O 172.09 -0.849373 -3.45925 0
M  V30 1724 O 170.949 -1.05772 -5.36167 0
M  V30 1725 H 168.043 -0.125035 -0.817493 0
M  V30 1726 H 170.589 -0.966269 -1.39504 0
M  V30 1727 H 169.361 -1.94692 -3.39427 0
M  V30 1728 H 168.984 -0.328732 -3.96239 0
M  V30 1729 N 169.982 1.44106 -0.638065 0
M  V30 1730 C 171.23 2.01579 -0.145043 0
M  V30 1731 C 171.551 1.50496 1.24 0
M  V30 1732 O 170.821 0.711374 1.82527 0
M  V30 1733 H 169.401 0.745282 -0.05063 0
M  V30 1734 H 172.063 1.76516 -0.826327 0
M  V30 1735 H 171.159 3.11877 -0.118039 0
M  V30 1736 N 171.46 0.379036 1.52974 0
M  V30 1737 C 172.39 -0.452706 2.29069 0
M  V30 1738 C 173.371 -1.07237 1.32039 0
M  V30 1739 O 174.556 -1.08708 1.60923 0
M  V30 1740 C 171.686 -1.5856 3.08992 0
M  V30 1741 C 170.64 -1.0925 4.13822 0
M  V30 1742 C 169.966 -2.31668 4.81907 0
M  V30 1743 C 171.266 -0.167702 5.22031 0
M  V30 1744 H 172.96 0.182181 2.98845 0
M  V30 1745 H 170.506 0.0890592 1.43724 0
M  V30 1746 H 172.459 -2.1742 3.6098 0
M  V30 1747 H 171.183 -2.24792 2.36931 0
M  V30 1748 H 169.842 -0.526494 3.628 0
M  V30 1749 H 169.49 -2.96386 4.06404 0
M  V30 1750 H 169.19 -1.9934 5.52754 0
M  V30 1751 H 170.714 -2.91189 5.36695 0
M  V30 1752 H 172.128 -0.664186 5.6944 0
M  V30 1753 H 170.525 0.0653265 6.00064 0
M  V30 1754 H 171.595 0.786347 4.78482 0
M  V30 1755 N 172.938 -1.57226 0.108567 0
M  V30 1756 C 174.184 -1.95121 -0.552761 0
M  V30 1757 C 174.517 -0.991345 -1.66991 0
M  V30 1758 O 173.792 -0.0267211 -1.94482 0
M  V30 1759 C 174.075 -3.43039 -1.09528 0
M  V30 1760 C 173.928 -4.49797 0.0177332 0
M  V30 1761 C 175.247 -3.92567 -1.98945 0
M  V30 1762 H 172.366 -0.709496 -0.199461 0
M  V30 1763 H 175.008 -1.89126 0.182011 0
M  V30 1764 H 173.158 -3.48279 -1.72146 0
M  V30 1765 H 174.83 -4.56661 0.652584 0
M  V30 1766 H 173.073 -4.284 0.682309 0
M  V30 1767 H 173.744 -5.50528 -0.402919 0
M  V30 1768 H 176.22 -3.89565 -1.46214 0
M  V30 1769 H 175.096 -4.96605 -2.33827 0
M  V30 1770 H 175.357 -3.32648 -2.91201 0
M  V30 1771 N 174.416 0.165178 -1.56732 0
M  V30 1772 C 175.326 1.22423 -2.00125 0
M  V30 1773 C 176.342 1.48084 -0.913619 0
M  V30 1774 O 177.518 1.60112 -1.22172 0
M  V30 1775 C 174.583 2.54197 -2.35764 0
M  V30 1776 C 173.644 2.36343 -3.58386 0
M  V30 1777 C 172.877 3.61834 -3.92316 0
M  V30 1778 O 173.1 4.67267 -3.27135 0
M  V30 1779 O 172.034 3.55579 -4.85641 0
M  V30 1780 H 175.86 0.885886 -2.90492 0
M  V30 1781 H 173.445 0.372518 -1.44681 0
M  V30 1782 H 175.327 3.3192 -2.59629 0
M  V30 1783 H 174.002 2.87598 -1.48557 0
M  V30 1784 H 172.909 1.56632 -3.39731 0
M  V30 1785 H 174.242 2.07865 -4.46154 0
M  V30 1786 N 175.894 1.51508 0.433938 0
M  V30 1787 C 177.142 1.6402 1.18075 0
M  V30 1788 C 177.463 0.360328 1.91642 0
M  V30 1789 O 176.733 -0.623945 1.85698 0
M  V30 1790 H 175.313 0.6045 0.43885 0
M  V30 1791 H 177.975 1.88452 0.497178 0
M  V30 1792 H 177.071 2.46949 1.90847 0
M  V30 1793 N 177.372 -0.689602 1.41712 0
M  V30 1794 C 178.282 -1.83314 1.46401 0
M  V30 1795 C 179.298 -1.7036 0.35405 0
M  V30 1796 O 180.474 -1.92171 0.602692 0
M  V30 1797 C 177.539 -3.19344 1.34982 0
M  V30 1798 C 176.6 -3.44363 2.56344 0
M  V30 1799 C 175.833 -4.73904 2.45461 0
M  V30 1800 O 176.056 -5.508 1.48241 0
M  V30 1801 O 174.99 -4.99839 3.35328 0
M  V30 1802 H 178.816 -1.82314 2.42889 0
M  V30 1803 H 176.401 -0.843438 1.23315 0
M  V30 1804 H 178.283 -4.00547 1.3092 0
M  V30 1805 H 176.958 -3.21014 0.41612 0
M  V30 1806 H 175.865 -2.63067 2.65982 0
M  V30 1807 H 177.198 -3.47512 3.48563 0
M  V30 1808 N 178.85 -1.27639 -0.924453 0
M  V30 1809 C 179.813 -1.10681 -2.00705 0
M  V30 1810 C 180.813 -0.0497823 -1.60723 0
M  V30 1811 O 182.003 -0.294654 -1.7169 0
M  V30 1812 C 179.135 -0.687164 -3.33902 0
M  V30 1813 H 180.328 -2.06817 -2.17179 0
M  V30 1814 H 177.881 -1.10473 -1.10569 0
M  V30 1815 H 178.616 0.275439 -3.23128 0
M  V30 1816 H 178.401 -1.45061 -3.6428 0
M  V30 1817 H 179.891 -0.590853 -4.13399 0
M  V30 1818 N 180.328 1.1314 -1.09713 0
M  V30 1819 C 181.576 1.84119 -0.833338 0
M  V30 1820 C 181.897 1.84097 0.642904 0
M  V30 1821 O 181.167 1.29881 1.46655 0
M  V30 1822 H 179.747 0.681766 -0.305293 0
M  V30 1823 H 182.409 1.37038 -1.38588 0
M  V30 1824 H 181.505 2.88543 -1.18951 0
M  V30 1825 N 181.806 0.884767 1.30421 0
M  V30 1826 C 183.034 0.518044 2.0031 0
M  V30 1827 C 183.449 -0.893408 1.66324 0
M  V30 1828 O 182.806 -1.5875 0.900262 0
M  V30 1829 C 182.857 0.682997 3.54989 0
M  V30 1830 O 182.578 2.03888 3.87764 0
M  V30 1831 C 184.079 0.31924 4.42149 0
M  V30 1832 H 181.299 0.200265 0.640418 0
M  V30 1833 H 183.843 1.19001 1.6631 0
M  V30 1834 H 181.998 0.0584052 3.87356 0
M  V30 1835 H 182.412 2.05735 4.82466 0
M  V30 1836 H 183.886 0.485555 5.4986 0
M  V30 1837 H 184.363 -0.742717 4.32875 0
M  V30 1838 H 184.969 0.920147 4.15227 0
M  V30 1839 N 183.284 -1.43765 0.645699 0
M  V30 1840 C 184.509 -2.06767 0.161883 0
M  V30 1841 C 184.934 -1.48034 -1.16049 0
M  V30 1842 O 184.292 -0.587369 -1.71522 0
M  V30 1843 C 184.34 -3.60519 0.0762003 0
M  V30 1844 O 183.444 -4.00982 -0.963721 0
M  V30 1845 H 182.785 -0.657675 0.091429 0
M  V30 1846 H 185.315 -1.84397 0.886499 0
M  V30 1847 H 185.325 -4.07853 -0.109604 0
M  V30 1848 H 184 -4.02646 1.04157 0
M  V30 1849 H 182.577 -3.65253 -0.751312 0
M  V30 1850 N 184.763 -0.387143 -1.52771 0
M  V30 1851 C 185.988 0.198407 -2.06449 0
M  V30 1852 C 186.413 1.39918 -1.25716 0
M  V30 1853 O 185.771 1.79099 -0.281657 0
M  V30 1854 C 185.819 0.548893 -3.56398 0
M  V30 1855 O 184.923 1.64315 -3.78252 0
M  V30 1856 H 184.264 0.0237731 -0.663574 0
M  V30 1857 H 186.794 -0.553989 -1.96957 0
M  V30 1858 H 186.804 0.813812 -3.99801 0
M  V30 1859 H 185.479 -0.329005 -4.14597 0
M  V30 1860 H 184.056 1.37211 -3.46738 0
M  V30 1861 N 186.241 1.57166 -0.116904 0
M  V30 1862 C 187.151 2.18745 0.847812 0
M  V30 1863 C 188.167 1.163 1.29423 0
M  V30 1864 O 189.343 1.48761 1.35765 0
M  V30 1865 C 186.408 2.77307 2.0809 0
M  V30 1866 C 185.469 3.94781 1.68661 0
M  V30 1867 C 184.702 4.50541 2.86091 0
M  V30 1868 O 184.925 4.05202 4.01456 0
M  V30 1869 O 183.859 5.41256 2.63298 0
M  V30 1870 H 187.685 3.01632 0.353778 0
M  V30 1871 H 185.27 1.49005 0.108599 0
M  V30 1872 H 187.152 3.14647 2.80313 0
M  V30 1873 H 185.827 1.97452 2.56504 0
M  V30 1874 H 184.734 3.62214 0.935518 0
M  V30 1875 H 186.067 4.76065 1.24991 0
M  V30 1876 N 187.719 -0.156864 1.56817 0
M  V30 1877 C 188.666 -1.19394 1.97519 0
M  V30 1878 C 189.636 -1.4322 0.841265 0
M  V30 1879 O 190.821 -1.55719 1.10255 0
M  V30 1880 C 187.961 -2.52483 2.35258 0
M  V30 1881 C 187.074 -2.35914 3.61896 0
M  V30 1882 C 186.209 -3.61969 3.88782 0
M  V30 1883 C 185.248 -3.40395 5.08722 0
M  V30 1884 N 184.385 -4.58556 5.31668 0
M  V30 1885 H 189.225 -0.839845 2.85921 0
M  V30 1886 H 186.762 -0.403264 1.41464 0
M  V30 1887 H 188.72 -3.30071 2.55165 0
M  V30 1888 H 187.35 -2.85859 1.49949 0
M  V30 1889 H 186.402 -1.49429 3.49821 0
M  V30 1890 H 187.714 -2.15926 4.49641 0
M  V30 1891 H 186.868 -4.47989 4.09135 0
M  V30 1892 H 185.607 -3.84951 2.9944 0
M  V30 1893 H 184.612 -2.52763 4.88253 0
M  V30 1894 H 185.837 -3.18822 5.99608 0
M  V30 1895 H 183.783 -4.81729 4.45279 0
M  V30 1896 H 183.7 -4.41535 6.13664 0
M  V30 1897 H 184.968 -5.45817 5.5651 0
M  V30 1898 N 189.197 -1.51736 -0.425897 0
M  V30 1899 C 190.145 -1.74464 -1.53834 0
M  V30 1900 C 191.139 -0.611241 -1.57988 0
M  V30 1901 O 192.345 -0.792899 -1.61596 0
M  V30 1902 H 188.72 -0.551437 -0.511293 0
M  V30 1903 H 190.691 -2.67694 -1.31843 0
M  V30 1904 C 189.44 -1.8972 -2.91379 0
M  V30 1905 H 188.763 -2.76344 -2.88919 0
M  V30 1906 H 190.203 -2.09629 -3.68553 0
M  V30 1907 C 188.662 -0.65992 -3.30374 0
M  V30 1908 O 189.192 0.180083 -4.01296 0
M  V30 1909 N 187.398 -0.500677 -2.86254 0
M  V30 1910 H 186.945 -1.18532 -2.28709 0
M  V30 1911 H 186.903 0.325903 -3.12706 0
M  V30 1912 N 190.675 0.682077 -1.42076 0
M  V30 1913 C 192.086 1.26246 -1.37546 0
M  V30 1914 C 192.437 1.96092 -0.0651481 0
M  V30 1915 O 191.562 1.99587 0.836297 0
M  V30 1916 C 192.157 2.29594 -2.49143 0
M  V30 1917 C 190.716 2.83175 -2.47969 0
M  V30 1918 C 189.863 1.57395 -2.28303 0
M  V30 1919 H 192.814 0.475937 -1.51395 0
M  V30 1920 H 192.835 3.11175 -2.18976 0
M  V30 1921 H 192.347 1.78729 -3.44496 0
M  V30 1922 H 190.448 3.3818 -1.56413 0
M  V30 1923 H 190.561 3.32687 -3.44755 0
M  V30 1924 H 188.925 1.83699 -1.76428 0
M  V30 1925 H 189.708 1.08507 -3.25701 0
M  V30 1926 N 192.153 1.28127 0.917671 0
M  V30 1927 C 193.063 1.13556 2.05286 0
M  V30 1928 C 194.079 0.0630914 1.73886 0
M  V30 1929 O 195.255 0.271598 1.9956 0
M  V30 1930 C 192.32 0.794676 3.3747 0
M  V30 1931 C 191.381 1.94909 3.82504 0
M  V30 1932 C 190.614 1.62437 5.0838 0
M  V30 1933 O 190.837 0.536905 5.67867 0
M  V30 1934 O 189.771 2.46677 5.4903 0
M  V30 1935 H 193.597 2.08844 2.20495 0
M  V30 1936 H 191.182 1.07409 1.03845 0
M  V30 1937 H 193.064 0.618344 4.16839 0
M  V30 1938 H 191.739 -0.128581 3.23445 0
M  V30 1939 H 190.646 2.18055 3.03978 0
M  V30 1940 H 191.979 2.85291 4.01086 0
M  V30 1941 N 193.631 -1.12557 1.10312 0
M  V30 1942 C 194.541 -2.21841 0.763142 0
M  V30 1943 C 195.557 -1.72354 -0.238801 0
M  V30 1944 O 196.733 -2.01249 -0.0778746 0
M  V30 1945 C 193.798 -3.46131 0.198632 0
M  V30 1946 C 192.859 -4.10464 1.25769 0
M  V30 1947 C 192.092 -5.28821 0.72002 0
M  V30 1948 O 192.315 -5.6859 -0.453993 0
M  V30 1949 O 191.249 -5.83437 1.47935 0
M  V30 1950 H 195.075 -2.53312 1.67532 0
M  V30 1951 H 192.66 -1.20867 0.878157 0
M  V30 1952 H 194.542 -4.2125 -0.112401 0
M  V30 1953 H 193.217 -3.16338 -0.686419 0
M  V30 1954 H 192.124 -3.3713 1.62156 0
M  V30 1955 H 193.457 -4.44408 2.11571 0
M  V30 1956 N 195.109 -0.891671 -1.2995 0
M  V30 1957 C 196.52 -0.563104 -1.78006 0
M  V30 1958 C 196.871 0.920978 -1.73241 0
M  V30 1959 O 195.996 1.71987 -1.31337 0
M  V30 1960 C 196.591 -1.01539 -3.23226 0
M  V30 1961 C 195.15 -0.738124 -3.69092 0
M  V30 1962 C 194.297 -1.19461 -2.50249 0
M  V30 1963 H 197.248 -1.07522 -1.16725 0
M  V30 1964 H 197.269 -0.347217 -3.78912 0
M  V30 1965 H 196.781 -2.09555 -3.26662 0
M  V30 1966 H 194.882 0.329766 -3.71138 0
M  V30 1967 H 194.995 -1.33037 -4.60259 0
M  V30 1968 H 193.359 -0.613787 -2.47194 0
M  V30 1969 H 194.142 -2.28265 -2.56417 0
M  V30 1970 N 196.587 1.43421 -0.653314 0
M  V30 1971 C 197.833 2.02111 -0.166992 0
M  V30 1972 C 198.166 1.51423 1.21592 0
M  V30 1973 O 197.441 0.707389 1.8118 0
M  V30 1974 C 197.724 3.5966 -0.177948 0
M  V30 1975 C 197.577 4.20579 -1.59478 0
M  V30 1976 C 198.896 4.37413 0.4856 0
M  V30 1977 H 196.015 0.734374 -0.0621557 0
M  V30 1978 H 198.657 1.70717 -0.834016 0
M  V30 1979 H 196.807 3.86537 0.390032 0
M  V30 1980 H 198.479 4.04732 -2.21336 0
M  V30 1981 H 196.722 3.77226 -2.14204 0
M  V30 1982 H 197.393 5.29665 -1.5543 0
M  V30 1983 H 199.869 4.161 0.00234528 0
M  V30 1984 H 198.745 5.47075 0.447207 0
M  V30 1985 H 199.006 4.13672 1.55974 0
M  V30 1986 N 198.065 0.39524 1.52563 0
M  V30 1987 C 199.481 0.0454682 1.59535 0
M  V30 1988 C 199.681 -1.44056 1.4089 0
M  V30 1989 O 198.737 -2.20579 1.22888 0
M  V30 1990 C 200.05 0.527963 2.96029 0
M  V30 1991 C 201.598 0.484733 3.09224 0
M  V30 1992 C 202.073 0.943512 4.48176 0
M  V30 1993 N 203.564 0.899765 4.54377 0
M  V30 1994 C 204.299 1.22609 5.60138 0
M  V30 1995 N 203.795 1.62319 6.73516 0
M  V30 1996 N 205.588 1.14696 5.50274 0
M  V30 1997 H 197.739 1.36261 1.62931 0
M  V30 1998 H 200.002 0.558887 0.765735 0
M  V30 1999 H 199.708 1.56607 3.14908 0
M  V30 2000 H 199.582 -0.0698056 3.77135 0
M  V30 2001 H 201.969 -0.544298 2.90037 0
M  V30 2002 H 202.05 1.11838 2.30056 0
M  V30 2003 H 201.694 1.9708 4.68104 0
M  V30 2004 H 201.624 0.286817 5.25818 0
M  V30 2005 H 204.115 0.607632 3.72983 0
M  V30 2006 H 204.428 1.85567 7.5019 0
M  V30 2007 H 202.773 1.66211 6.74833 0
M  V30 2008 H 205.964 0.835701 4.6058 0
M  V30 2009 H 206.137 1.40459 6.32594 0
M  V30 2010 N 199.544 -1.57102 0.125237 0
M  V30 2011 C 200.791 -1.95407 -0.531248 0
M  V30 2012 C 201.119 -1.0089 -1.66287 0
M  V30 2013 O 200.374 -0.0339431 -1.95671 0
M  V30 2014 C 200.673 -3.40096 -1.09862 0
M  V30 2015 C 200.339 -4.50815 -0.0876989 0
M  V30 2016 C 199.001 -4.80824 0.19026 0
M  V30 2017 C 201.353 -5.17724 0.600902 0
M  V30 2018 C 198.681 -5.75058 1.163 0
M  V30 2019 C 201.033 -6.13005 1.56231 0
M  V30 2020 C 199.697 -6.41403 1.8482 0
M  V30 2021 H 198.967 -0.715046 -0.194397 0
M  V30 2022 H 201.614 -1.90373 0.207463 0
M  V30 2023 H 199.919 -3.41855 -1.91422 0
M  V30 2024 H 201.616 -3.6705 -1.61478 0
M  V30 2025 H 198.206 -4.27444 -0.314528 0
M  V30 2026 H 202.39 -4.94691 0.399333 0
M  V30 2027 H 197.646 -5.95362 1.39117 0
M  V30 2028 H 201.82 -6.63934 2.10153 0
M  V30 2029 H 199.447 -7.14229 2.60349 0
M  V30 2030 N 201.022 0.148545 -1.56898 0
M  V30 2031 C 202.27 0.859717 -1.82902 0
M  V30 2032 C 202.591 1.81775 -0.70588 0
M  V30 2033 O 201.861 1.93994 0.272586 0
M  V30 2034 H 200.441 0.320469 -0.674766 0
M  V30 2035 H 203.103 0.142918 -1.94375 0
M  V30 2036 H 202.199 1.4229 -2.77777 0
M  V30 2037 N 202.5 1.5196 0.417844 0
M  V30 2038 C 203.746 1.66793 1.16411 0
M  V30 2039 C 204.101 0.388758 1.88432 0
M  V30 2040 O 203.394 -0.616409 1.81414 0
M  V30 2041 C 203.588 2.82269 2.19223 0
M  V30 2042 C 203.417 4.21293 1.57297 0
M  V30 2043 C 202.187 4.86948 1.34944 0
M  V30 2044 C 204.385 5.03704 1.03858 0
M  V30 2045 N 202.367 6.1003 0.688195 0
M  V30 2046 C 203.738 6.1795 0.503742 0
M  V30 2047 C 205.793 4.89095 0.932203 0
M  V30 2048 C 204.496 7.19188 -0.127034 0
M  V30 2049 C 206.522 5.90559 0.315293 0
M  V30 2050 C 205.884 7.0409 -0.208906 0
M  V30 2051 H 201.983 0.66407 0.412959 0
M  V30 2052 H 204.567 1.89242 0.457772 0
M  V30 2053 H 202.738 2.61451 2.87225 0
M  V30 2054 H 204.47 2.86183 2.86149 0
M  V30 2055 H 201.225 4.45156 1.61657 0
M  V30 2056 H 201.649 6.75964 0.374449 0
M  V30 2057 H 206.291 4.01557 1.32332 0
M  V30 2058 H 204.009 8.06359 -0.530231 0
M  V30 2059 H 207.595 5.81327 0.234625 0
M  V30 2060 H 206.475 7.81257 -0.67875 0
M  V30 2061 N 203.978 -0.674533 1.42435 0
M  V30 2062 C 205.224 -1.43671 1.43131 0
M  V30 2063 C 205.557 -1.94142 0.0476021 0
M  V30 2064 O 204.832 -1.70924 -0.928188 0
M  V30 2065 C 205.115 -2.63355 2.45594 0
M  V30 2066 C 204.968 -2.18514 3.93156 0
M  V30 2067 C 206.287 -3.65571 2.45043 0
M  V30 2068 H 203.406 -0.521077 0.521198 0
M  V30 2069 H 206.048 -0.766551 1.7385 0
M  V30 2070 H 204.198 -3.2053 2.19528 0
M  V30 2071 H 205.87 -1.66504 4.30202 0
M  V30 2072 H 204.113 -1.50086 4.07009 0
M  V30 2073 H 204.784 -3.04484 4.60428 0
M  V30 2074 H 207.26 -3.18113 2.68223 0
M  V30 2075 H 206.136 -4.46893 3.18713 0
M  V30 2076 H 206.397 -4.16716 1.47649 0
M  V30 2077 N 205.456 -1.28612 -0.910864 0
M  V30 2078 C 206.403 -1.12786 -2.01365 0
M  V30 2079 C 207.373 -0.024201 -1.66082 0
M  V30 2080 O 208.558 -0.189667 -1.89855 0
M  V30 2081 C 205.698 -0.798743 -3.35729 0
M  V30 2082 C 204.811 -1.98173 -3.83864 0
M  V30 2083 C 203.946 -1.59298 -5.06752 0
M  V30 2084 C 202.985 -2.74245 -5.47226 0
M  V30 2085 N 202.122 -2.35842 -6.61304 0
M  V30 2086 H 206.962 -2.07142 -2.14234 0
M  V30 2087 H 204.499 -1.03093 -1.0493 0
M  V30 2088 H 206.457 -0.588662 -4.13026 0
M  V30 2089 H 205.087 0.10789 -3.2262 0
M  V30 2090 H 204.139 -2.30386 -3.02699 0
M  V30 2091 H 205.451 -2.84343 -4.09818 0
M  V30 2092 H 204.605 -1.34513 -5.916 0
M  V30 2093 H 203.344 -0.702618 -4.82612 0
M  V30 2094 H 202.349 -2.99725 -4.60918 0
M  V30 2095 H 203.574 -3.63928 -5.73353 0
M  V30 2096 H 201.52 -1.49279 -6.38789 0
M  V30 2097 H 201.437 -3.15546 -6.86998 0
M  V30 2098 H 202.705 -2.14348 -7.4945 0
M  V30 2099 N 206.934 1.1197 -1.10907 0
M  V30 2100 C 208.182 1.83225 -0.852819 0
M  V30 2101 C 208.503 1.84769 0.623341 0
M  V30 2102 O 207.773 1.3143 1.45269 0
M  V30 2103 H 206.353 0.67849 -0.312507 0
M  V30 2104 H 209.015 1.3556 -1.40033 0
M  V30 2105 H 208.111 2.87265 -1.22005 0
M  V30 2106 N 208.412 0.89855 1.29475 0
M  V30 2107 C 209.658 0.524658 1.95896 0
M  V30 2108 C 209.991 -0.926468 1.70676 0
M  V30 2109 O 209.266 -1.65665 1.01908 0
M  V30 2110 C 209.549 0.81633 3.50725 0
M  V30 2111 C 209.402 2.31907 3.85408 0
M  V30 2112 C 210.721 0.302038 4.39062 0
M  V30 2113 H 207.84 0.19209 0.711527 0
M  V30 2114 H 210.482 1.12502 1.53112 0
M  V30 2115 H 208.632 0.305369 3.87298 0
M  V30 2116 H 210.304 2.89949 3.58786 0
M  V30 2117 H 208.547 2.78027 3.32992 0
M  V30 2118 H 209.218 2.47373 4.93468 0
M  V30 2119 H 211.694 0.739551 4.09475 0
M  V30 2120 H 210.57 0.535331 5.46283 0
M  V30 2121 H 210.831 -0.797216 4.34853 0
M  V30 2122 N 209.89 -1.43072 0.660911 0
M  V30 2123 C 210.823 -2.28074 -0.0758862 0
M  V30 2124 C 211.801 -1.40271 -0.822362 0
M  V30 2125 O 212.985 -1.69713 -0.820352 0
M  V30 2126 C 210.112 -3.19843 -1.11437 0
M  V30 2127 C 209.158 -4.23957 -0.465069 0
M  V30 2128 S 209.991 -5.29978 0.767078 0
M  V30 2129 C 211.147 -6.25314 -0.270682 0
M  V30 2130 H 211.38 -2.90216 0.645139 0
M  V30 2131 H 208.913 -1.47697 0.449995 0
M  V30 2132 H 210.871 -3.73257 -1.70849 0
M  V30 2133 H 209.532 -2.56863 -1.80776 0
M  V30 2134 H 208.725 -4.88299 -1.24819 0
M  V30 2135 H 208.327 -3.73959 0.0551242 0
M  V30 2136 H 210.619 -6.67932 -1.13459 0
M  V30 2137 H 211.562 -7.07293 0.337916 0
M  V30 2138 H 211.97 -5.61195 -0.609937 0
M  V30 2139 N 211.368 -0.403325 -1.52352 0
M  V30 2140 C 212.617 0.175668 -2.00934 0
M  V30 2141 C 212.93 1.46718 -1.29356 0
M  V30 2142 O 214.136 2.12708 -1.68724 0
M  V30 2143 C 212.592 0.363612 -3.58058 0
M  V30 2144 C 212.2 -0.915472 -4.38547 0
M  V30 2145 C 213.944 0.89821 -4.14888 0
M  V30 2146 C 211.851 -0.695035 -5.87302 0
M  V30 2147 H 210.781 0.0694234 -0.750797 0
M  V30 2148 H 213.432 -0.527879 -1.75743 0
M  V30 2149 H 211.814 1.12935 -3.79555 0
M  V30 2150 H 212.988 -1.68691 -4.28812 0
M  V30 2151 H 211.303 -1.37606 -3.93006 0
M  V30 2152 H 213.9 1.07907 -5.23699 0
M  V30 2153 H 214.243 1.87126 -3.71873 0
M  V30 2154 H 214.776 0.191681 -3.97338 0
M  V30 2155 H 211.515 -1.63948 -6.34666 0
M  V30 2156 H 211.035 0.0372116 -5.99788 0
M  V30 2157 H 212.714 -0.33497 -6.46132 0
M  V30 2158 N 212.846 1.57033 -0.133567 0
M  V30 2159 C 214.262 1.58035 0.222944 0
M  V30 2160 C 214.462 1.14713 1.6566 0
M  V30 2161 O 213.518 0.841218 2.38075 0
M  V30 2162 C 214.831 3.00691 -0.0236116 0
M  V30 2163 C 216.379 3.12973 0.0411512 0
M  V30 2164 C 216.854 4.57654 -0.177899 0
M  V30 2165 N 218.345 4.63033 -0.124365 0
M  V30 2166 C 219.08 5.72771 -0.268553 0
M  V30 2167 N 218.576 6.91206 -0.46972 0
M  V30 2168 N 220.369 5.61718 -0.2071 0
M  V30 2169 H 212.52 1.8349 -1.06981 0
M  V30 2170 H 214.783 0.848677 -0.422436 0
M  V30 2171 H 214.489 3.36726 -1.0153 0
M  V30 2172 H 214.363 3.70614 0.701808 0
M  V30 2173 H 216.75 2.76787 1.02338 0
M  V30 2174 H 216.831 2.45564 -0.716383 0
M  V30 2175 H 216.475 4.94542 -1.15717 0
M  V30 2176 H 216.405 5.23173 0.599797 0
M  V30 2177 H 218.896 3.7789 0.027011 0
M  V30 2178 H 219.209 7.70693 -0.570212 0
M  V30 2179 H 217.554 6.93156 -0.505876 0
M  V30 2180 H 220.745 4.68072 -0.0507986 0
M  V30 2181 H 220.918 6.47195 -0.322909 0
M  V30 2182 N 214.325 -0.140222 1.56975 0
M  V30 2183 C 215.565 -0.857823 1.85528 0
M  V30 2184 C 215.929 -1.78039 0.718768 0
M  V30 2185 O 217.13 -2.53795 0.885521 0
M  V30 2186 C 215.401 -1.60615 3.19277 0
M  V30 2187 S 216.96 -2.36824 3.69405 0
M  V30 2188 H 213.778 -0.286727 0.650622 0
M  V30 2189 H 216.38 -0.117408 1.95147 0
M  V30 2190 H 215.084 -0.919994 3.99955 0
M  V30 2191 H 214.615 -2.38735 3.12681 0
M  V30 2192 H 216.63 -3.62148 3.3921 0
M  V30 2193 N 215.803 -1.52179 -0.40978 0
M  V30 2194 C 216.736 -1.70196 -1.52015 0
M  V30 2195 C 217.714 -0.549542 -1.53032 0
M  V30 2196 O 218.898 -0.776815 -1.71749 0
M  V30 2197 C 216.025 -1.74069 -2.90547 0
M  V30 2198 C 215.071 -2.95601 -3.07445 0
M  V30 2199 S 215.904 -4.55956 -2.80827 0
M  V30 2200 C 217.06 -4.62614 -4.21591 0
M  V30 2201 H 217.293 -2.64109 -1.36504 0
M  V30 2202 H 214.826 -1.4221 -0.601312 0
M  V30 2203 H 216.784 -1.76985 -3.70387 0
M  V30 2204 H 215.445 -0.812835 -3.034 0
M  V30 2205 H 214.638 -2.94791 -4.08796 0
M  V30 2206 H 214.24 -2.90569 -2.35469 0
M  V30 2207 H 216.532 -4.39951 -5.15218 0
M  V30 2208 H 217.475 -5.64548 -4.27424 0
M  V30 2209 H 217.883 -3.91654 -4.06531 0
M  V30 2210 N 217.281 0.66697 -1.42791 0
M  V30 2211 C 218.211 1.79218 -1.49677 0
M  V30 2212 C 219.192 1.66405 -0.352623 0
M  V30 2213 O 220.377 1.85708 -0.567993 0
M  V30 2214 C 217.507 3.17565 -1.40605 0
M  V30 2215 C 216.461 3.45124 -2.53127 0
M  V30 2216 C 215.787 4.83127 -2.29112 0
M  V30 2217 C 217.087 3.41236 -3.95418 0
M  V30 2218 H 218.781 1.73713 -2.43853 0
M  V30 2219 H 216.327 0.83432 -1.17367 0
M  V30 2220 H 218.28 3.96022 -1.44029 0
M  V30 2221 H 217.004 3.23767 -0.429271 0
M  V30 2222 H 215.663 2.69031 -2.49034 0
M  V30 2223 H 215.311 4.85988 -1.29709 0
M  V30 2224 H 215.011 5.02528 -3.04531 0
M  V30 2225 H 216.535 5.63859 -2.34297 0
M  V30 2226 H 217.949 4.09651 -4.01073 0
M  V30 2227 H 216.346 3.72173 -4.70752 0
M  V30 2228 H 217.416 2.39665 -4.21532 0
M  V30 2229 N 218.759 1.29093 0.90403 0
M  V30 2230 C 219.707 1.13727 2.02901 0
M  V30 2231 C 220.701 0.0539853 1.69314 0
M  V30 2232 O 221.907 0.213469 1.7873 0
M  V30 2233 H 218.282 0.35117 0.664969 0
M  V30 2234 H 220.253 2.08982 2.13001 0
M  V30 2235 C 219.002 0.826066 3.37745 0
M  V30 2236 H 218.325 1.65164 3.64089 0
M  V30 2237 H 219.765 0.758559 4.17159 0
M  V30 2238 C 218.224 -0.470541 3.33598 0
M  V30 2239 O 218.754 -1.49792 3.72727 0
M  V30 2240 N 216.96 -0.474812 2.86695 0
M  V30 2241 H 216.507 0.361692 2.55048 0
M  V30 2242 H 216.465 -1.34236 2.84303 0
M  V30 2243 N 220.237 -1.11381 1.11499 0
M  V30 2244 C 221.486 -1.82494 0.858993 0
M  V30 2245 C 221.799 -1.85605 -0.617278 0
M  V30 2246 O 223.005 -2.52824 -0.989552 0
M  V30 2247 C 221.461 -3.27745 1.48699 0
M  V30 2248 C 221.069 -3.32961 2.99735 0
M  V30 2249 C 222.813 -4.03754 1.31085 0
M  V30 2250 C 220.72 -4.72612 3.55516 0
M  V30 2251 H 219.65 -0.683802 0.317696 0
M  V30 2252 H 222.301 -1.25331 1.34031 0
M  V30 2253 H 220.683 -3.84844 0.933339 0
M  V30 2254 H 221.857 -2.85741 3.61509 0
M  V30 2255 H 220.172 -2.70433 3.16631 0
M  V30 2256 H 222.769 -5.06891 1.70192 0
M  V30 2257 H 223.112 -4.15527 0.253496 0
M  V30 2258 H 223.645 -3.53043 1.83318 0
M  V30 2259 H 220.384 -4.66036 4.60967 0
M  V30 2260 H 219.904 -5.2024 2.98513 0
M  V30 2261 H 221.583 -5.4157 3.53992 0
M  V30 2262 N 221.715 -0.905404 -1.28997 0
M  V30 2263 C 222.961 -0.544465 -1.95977 0
M  V30 2264 C 223.316 0.90041 -1.70031 0
M  V30 2265 O 222.609 1.63064 -1.00601 0
M  V30 2266 C 222.803 -0.779906 -3.48787 0
M  V30 2267 C 222.632 -2.24612 -3.89589 0
M  V30 2268 C 221.402 -2.89464 -4.14172 0
M  V30 2269 C 223.6 -3.22182 -4.00878 0
M  V30 2270 N 221.582 -4.26469 -4.41585 0
M  V30 2271 C 222.953 -4.44323 -4.32409 0
M  V30 2272 C 225.008 -3.17694 -3.83373 0
M  V30 2273 C 223.711 -5.62546 -4.48258 0
M  V30 2274 C 225.737 -4.35208 -4.00435 0
M  V30 2275 C 225.099 -5.56121 -4.3233 0
M  V30 2276 H 221.198 -0.248948 -0.741316 0
M  V30 2277 H 223.782 -1.1674 -1.5582 0
M  V30 2278 H 221.953 -0.186308 -3.87953 0
M  V30 2279 H 223.685 -0.383833 -4.02876 0
M  V30 2280 H 220.44 -2.40232 -4.08149 0
M  V30 2281 H 220.864 -4.97283 -4.5939 0
M  V30 2282 H 225.506 -2.25297 -3.57773 0
M  V30 2283 H 223.224 -6.55429 -4.72692 0
M  V30 2284 H 226.81 -4.33228 -3.88336 0
M  V30 2285 H 225.69 -6.45537 -4.45255 0
M  V30 2286 N 223.193 1.4272 -0.668489 0
M  V30 2287 C 224.441 2.01226 -0.187769 0
M  V30 2288 C 224.762 1.53092 1.2078 0
M  V30 2289 O 224.032 0.74993 1.80977 0
M  V30 2290 H 222.612 0.744041 -0.0664272 0
M  V30 2291 H 225.274 1.74723 -0.863583 0
M  V30 2292 H 224.37 3.11556 -0.184166 0
M  V30 2293 N 224.671 0.411399 1.52136 0
M  V30 2294 C 225.917 -0.163888 2.02137 0
M  V30 2295 C 226.25 -1.44597 1.29636 0
M  V30 2296 O 225.525 -1.90272 0.403353 0
M  V30 2297 C 225.808 -0.40927 3.57767 0
M  V30 2298 C 225.661 0.889643 4.40914 0
M  V30 2299 C 226.98 -1.19042 4.23694 0
M  V30 2300 H 224.099 -0.0580896 0.734707 0
M  V30 2301 H 226.741 0.54531 1.82007 0
M  V30 2302 H 224.891 -1.0134 3.7505 0
M  V30 2303 H 226.563 1.52575 4.35337 0
M  V30 2304 H 224.806 1.50011 4.07037 0
M  V30 2305 H 225.477 0.672314 5.4789 0
M  V30 2306 H 227.953 -0.678942 4.10524 0
M  V30 2307 H 226.829 -1.33086 5.32522 0
M  V30 2308 H 227.09 -2.21166 3.82803 0
M  V30 2309 N 226.149 -1.5696 0.141893 0
M  V30 2310 C 227.398 -1.95135 -0.510427 0
M  V30 2311 C 227.711 -1.02896 -1.66348 0
M  V30 2312 O 228.917 -1.30629 -2.38009 0
M  V30 2313 C 227.373 -3.46876 -0.959427 0
M  V30 2314 C 226.981 -4.47691 0.166419 0
M  V30 2315 C 228.725 -3.93927 -1.58183 0
M  V30 2316 C 226.632 -5.90636 -0.300565 0
M  V30 2317 H 225.562 -0.728494 -0.194454 0
M  V30 2318 H 228.213 -1.8211 0.22542 0
M  V30 2319 H 226.595 -3.55215 -1.75038 0
M  V30 2320 H 227.769 -4.51043 0.94325 0
M  V30 2321 H 226.084 -4.10527 0.696905 0
M  V30 2322 H 228.681 -4.98158 -1.94275 0
M  V30 2323 H 229.024 -3.3519 -2.46888 0
M  V30 2324 H 229.557 -3.88484 -0.855863 0
M  V30 2325 H 226.296 -6.5318 0.550989 0
M  V30 2326 H 225.816 -5.90655 -1.04338 0
M  V30 2327 H 227.495 -6.42588 -0.754265 0
M  V30 2328 N 227.627 0.131896 -1.57047 0
M  V30 2329 C 228.557 1.16384 -2.02428 0
M  V30 2330 C 229.538 1.43936 -0.90644 0
M  V30 2331 O 230.723 1.54599 -1.17528 0
M  V30 2332 C 227.853 2.49328 -2.4177 0
M  V30 2333 C 226.807 2.36266 -3.56879 0
M  V30 2334 C 226.133 3.74057 -3.8208 0
M  V30 2335 C 227.433 1.834 -4.89042 0
M  V30 2336 H 229.127 0.786433 -2.88887 0
M  V30 2337 H 226.673 0.376855 -1.38981 0
M  V30 2338 H 228.626 3.21759 -2.7212 0
M  V30 2339 H 227.35 2.88934 -1.52266 0
M  V30 2340 H 226.009 1.66286 -3.26718 0
M  V30 2341 H 225.657 4.11125 -2.89803 0
M  V30 2342 H 225.357 3.66174 -4.59554 0
M  V30 2343 H 226.881 4.48012 -4.1487 0
M  V30 2344 H 228.295 2.45636 -5.18011 0
M  V30 2345 H 226.692 1.8637 -5.70426 0
M  V30 2346 H 227.762 0.790662 -4.7841 0
M  V30 2347 N 229.106 1.52395 0.401703 0
M  V30 2348 C 230.336 1.70429 1.1678 0
M  V30 2349 C 230.744 0.416702 1.84554 0
M  V30 2350 O 230.087 -0.617697 1.73003 0
M  V30 2351 C 230.149 2.78919 2.26814 0
M  V30 2352 C 229.813 4.20437 1.79113 0
M  V30 2353 C 230.81 5.04028 1.27482 0
M  V30 2354 C 228.495 4.66704 1.85722 0
M  V30 2355 C 230.489 6.31961 0.830913 0
M  V30 2356 C 228.176 5.94625 1.40942 0
M  V30 2357 C 229.174 6.77082 0.897128 0
M  V30 2358 O 228.862 8.02607 0.455822 0
M  V30 2359 H 228.594 0.574272 0.356634 0
M  V30 2360 H 231.148 1.99767 0.477724 0
M  V30 2361 H 229.378 2.44973 2.99207 0
M  V30 2362 H 231.067 2.8548 2.88541 0
M  V30 2363 H 231.833 4.69471 1.21744 0
M  V30 2364 H 227.712 4.0262 2.24539 0
M  V30 2365 H 231.256 6.96271 0.430368 0
M  V30 2366 H 227.153 6.28688 1.46362 0
M  V30 2367 H 227.921 8.16453 0.578457 0
M  V30 2368 N 230.584 -0.659388 1.43143 0
M  V30 2369 C 231.514 -1.78422 1.50625 0
M  V30 2370 C 232.495 -1.66216 0.361443 0
M  V30 2371 O 233.68 -1.85404 0.577834 0
M  V30 2372 C 230.81 -3.16815 1.42287 0
M  V30 2373 C 229.764 -3.43777 2.54954 0
M  V30 2374 C 229.09 -4.81905 2.31671 0
M  V30 2375 C 230.39 -3.39134 3.97222 0
M  V30 2376 H 232.084 -1.72417 2.44771 0
M  V30 2377 H 229.63 -0.828084 1.17808 0
M  V30 2378 H 231.583 -3.95253 1.46127 0
M  V30 2379 H 230.307 -3.23534 0.446435 0
M  V30 2380 H 228.966 -2.67707 2.50457 0
M  V30 2381 H 228.614 -4.85294 1.32284 0
M  V30 2382 H 228.314 -5.00906 3.07192 0
M  V30 2383 H 229.838 -5.62609 2.37284 0
M  V30 2384 H 231.252 -4.07518 4.03239 0
M  V30 2385 H 229.649 -3.69671 4.72719 0
M  V30 2386 H 230.719 -2.37426 4.22797 0
M  V30 2387 N 232.062 -1.29571 -0.897171 0
M  V30 2388 C 233.478 -1.07637 -1.17841 0
M  V30 2389 C 233.678 0.170713 -2.00776 0
M  V30 2390 O 232.734 0.867768 -2.3712 0
M  V30 2391 C 234.047 -2.3332 -1.8969 0
M  V30 2392 C 235.595 -2.38664 -2.02505 0
M  V30 2393 C 236.07 -3.64157 -2.77765 0
M  V30 2394 N 237.561 -3.64894 -2.85318 0
M  V30 2395 C 238.296 -4.58679 -3.44094 0
M  V30 2396 N 237.792 -5.62799 -4.04017 0
M  V30 2397 N 239.585 -4.46245 -3.41793 0
M  V30 2398 H 231.736 -2.09598 -0.343883 0
M  V30 2399 H 233.999 -0.923333 -0.214848 0
M  V30 2400 H 233.705 -3.24262 -1.36187 0
M  V30 2401 H 233.579 -2.41025 -2.9015 0
M  V30 2402 H 235.966 -1.48208 -2.55183 0
M  V30 2403 H 236.047 -2.34943 -1.01171 0
M  V30 2404 H 235.691 -4.54965 -2.25763 0
M  V30 2405 H 235.621 -3.65137 -3.7945 0
M  V30 2406 H 238.112 -2.89613 -2.42761 0
M  V30 2407 H 238.425 -6.3048 -4.46895 0
M  V30 2408 H 236.77 -5.66605 -4.02472 0
M  V30 2409 H 239.961 -3.64094 -2.94199 0
M  V30 2410 H 240.134 -5.19518 -3.87304 0
M  V30 2411 N 233.54 1.10788 -1.12088 0
M  V30 2412 C 234.47 2.19083 -0.807755 0
M  V30 2413 C 235.451 1.6858 0.226859 0
M  V30 2414 O 236.636 1.93997 0.0888475 0
M  V30 2415 C 233.766 3.46344 -0.257576 0
M  V30 2416 C 232.72 4.101 -1.22483 0
M  V30 2417 C 232.046 5.32016 -0.535052 0
M  V30 2418 C 233.346 4.54236 -2.57811 0
M  V30 2419 H 235.04 2.45534 -1.71328 0
M  V30 2420 H 232.586 1.1801 -0.825205 0
M  V30 2421 H 234.539 4.21392 -0.0262679 0
M  V30 2422 H 233.263 3.19373 0.683278 0
M  V30 2423 H 231.922 3.37054 -1.44189 0
M  V30 2424 H 231.57 5.01319 0.410827 0
M  V30 2425 H 231.27 5.75625 -1.18024 0
M  V30 2426 H 232.794 6.09799 -0.312695 0
M  V30 2427 H 234.208 5.20575 -2.40155 0
M  V30 2428 H 232.605 5.08682 -3.18375 0
M  V30 2429 H 233.675 3.6734 -3.16528 0
M  V30 2430 N 235.018 0.912232 1.28515 0
M  V30 2431 C 236.429 0.591352 1.77087 0
M  V30 2432 C 236.78 -0.8933 1.74684 0
M  V30 2433 O 235.905 -1.69876 1.34056 0
M  V30 2434 C 236.5 1.06668 3.2157 0
M  V30 2435 C 235.059 0.79675 3.67871 0
M  V30 2436 C 234.206 1.23427 2.48316 0
M  V30 2437 H 237.157 1.09365 1.15 0
M  V30 2438 H 237.178 0.407455 3.78312 0
M  V30 2439 H 236.69 2.14726 3.23287 0
M  V30 2440 H 234.791 -0.270679 3.71616 0
M  V30 2441 H 234.904 1.40343 4.58084 0
M  V30 2442 H 233.268 0.653036 2.46186 0
M  V30 2443 H 234.051 2.32316 2.52753 0
M  V30 2444 N 236.496 -1.42363 0.676048 0
M  V30 2445 C 237.742 -2.02336 0.207809 0
M  V30 2446 C 238.097 -1.52506 -1.17302 0
M  V30 2447 O 237.39 -0.718048 -1.77636 0
M  V30 2448 C 237.584 -3.56929 0.183431 0
M  V30 2449 C 237.413 -4.21762 1.56036 0
M  V30 2450 C 236.183 -4.56881 2.15842 0
M  V30 2451 C 238.381 -4.49267 2.50327 0
M  V30 2452 N 236.363 -5.069 3.46303 0
M  V30 2453 C 237.734 -5.00851 3.65443 0
M  V30 2454 C 239.789 -4.31257 2.48841 0
M  V30 2455 C 238.492 -5.36317 4.79329 0
M  V30 2456 C 240.518 -4.678 3.61824 0
M  V30 2457 C 239.88 -5.19537 4.75668 0
M  V30 2458 H 235.979 -0.772583 0.120993 0
M  V30 2459 H 238.563 -1.73203 0.889306 0
M  V30 2460 H 236.734 -3.85576 -0.467483 0
M  V30 2461 H 238.466 -4.03603 -0.297808 0
M  V30 2462 H 235.221 -4.4268 1.68319 0
M  V30 2463 H 235.645 -5.36338 4.13123 0
M  V30 2464 H 240.287 -3.90511 1.62051 0
M  V30 2465 H 238.005 -5.75995 5.66794 0
M  V30 2466 H 241.591 -4.55541 3.61903 0
M  V30 2467 H 240.471 -5.47287 5.61646 0
M  V30 2468 N 237.974 -0.419461 -1.51915 0
M  V30 2469 C 239.223 0.154346 -2.01109 0
M  V30 2470 C 239.536 1.45338 -1.30905 0
M  V30 2471 O 240.742 2.10906 -1.7097 0
M  V30 2472 C 239.198 0.325615 -3.58424 0
M  V30 2473 C 238.806 -0.961934 -4.37551 0
M  V30 2474 C 240.55 0.854155 -4.15818 0
M  V30 2475 C 238.457 -0.757287 -5.86531 0
M  V30 2476 H 237.387 0.0614563 -0.751491 0
M  V30 2477 H 240.038 -0.54649 -1.75173 0
M  V30 2478 H 238.42 1.08903 -3.80731 0
M  V30 2479 H 239.594 -1.7323 -4.26999 0
M  V30 2480 H 237.909 -1.41766 -3.91524 0
M  V30 2481 H 240.506 1.02346 -5.24814 0
M  V30 2482 H 240.849 1.83172 -3.73837 0
M  V30 2483 H 241.382 0.149528 -3.97519 0
M  V30 2484 H 238.121 -1.70671 -6.32892 0
M  V30 2485 H 237.641 -0.0264061 -5.99794 0
M  V30 2486 H 239.32 -0.403482 -6.45741 0
M  V30 2487 N 239.452 1.56882 -0.150215 0
M  V30 2488 C 240.68 2.00593 0.506948 0
M  V30 2489 C 241.095 1.03033 1.58208 0
M  V30 2490 O 240.452 0.0278396 1.82479 0
M  V30 2491 C 240.503 3.44209 1.10465 0
M  V30 2492 O 240.224 4.3804 0.0724636 0
M  V30 2493 C 241.725 4.03214 1.84211 0
M  V30 2494 H 238.945 0.65795 0.13169 0
M  V30 2495 H 241.489 2.03018 -0.245743 0
M  V30 2496 H 239.644 3.42625 1.80795 0
M  V30 2497 H 240.058 5.22007 0.510793 0
M  V30 2498 H 241.532 5.0569 2.21318 0
M  V30 2499 H 242.009 3.44107 2.72923 0
M  V30 2500 H 242.615 4.08437 1.18572 0
M  V30 2501 N 240.93 -0.123565 1.57115 0
M  V30 2502 C 241.893 -1.13583 1.99076 0
M  V30 2503 C 242.893 -1.34564 0.880296 0
M  V30 2504 O 244.083 -1.31158 1.14644 0
M  V30 2505 C 241.215 -2.49128 2.32698 0
M  V30 2506 H 242.408 -0.775287 2.89706 0
M  V30 2507 H 239.961 -0.36771 1.51913 0
M  V30 2508 H 240.696 -2.90111 1.44934 0
M  V30 2509 H 240.481 -2.35255 3.13684 0
M  V30 2510 H 241.971 -3.2199 2.65918 0
M  V30 2511 N 242.408 -1.52605 -0.393616 0
M  V30 2512 C 243.34 -1.73303 -1.49995 0
M  V30 2513 C 244.353 -0.613473 -1.50799 0
M  V30 2514 O 245.542 -0.889049 -1.54784 0
M  V30 2515 C 242.642 -1.77245 -2.88855 0
M  V30 2516 C 241.815 -3.06483 -3.12069 0
M  V30 2517 C 240.874 -3.02033 -4.30886 0
M  V30 2518 O 239.9 -3.75907 -4.27414 0
M  V30 2519 N 241.102 -2.20897 -5.36828 0
M  V30 2520 H 243.867 -2.68756 -1.32629 0
M  V30 2521 H 241.428 -1.51036 -0.583083 0
M  V30 2522 H 243.42 -1.7178 -3.66434 0
M  V30 2523 H 241.99 -0.891993 -2.99603 0
M  V30 2524 H 241.21 -3.25474 -2.22396 0
M  V30 2525 H 242.498 -3.91947 -3.2443 0
M  V30 2526 H 241.896 -1.60336 -5.42502 0
M  V30 2527 H 240.453 -2.21275 -6.13091 0
M  V30 2528 N 243.887 0.651787 -1.4349 0
M  V30 2529 C 244.85 1.74647 -1.48429 0
M  V30 2530 C 245.85 1.56513 -0.368817 0
M  V30 2531 O 247.04 1.62385 -0.630623 0
M  V30 2532 C 244.172 3.13533 -1.33827 0
M  V30 2533 H 245.365 1.71649 -2.4592 0
M  V30 2534 H 242.918 0.863573 -1.30277 0
M  V30 2535 H 243.653 3.22142 -0.37349 0
M  V30 2536 H 243.438 3.28101 -2.14691 0
M  V30 2537 H 244.928 3.93356 -1.40218 0
M  V30 2538 N 245.365 1.30045 0.890287 0
M  V30 2539 C 246.613 1.18327 1.63839 0
M  V30 2540 C 246.934 -0.263455 1.93212 0
M  V30 2541 O 246.204 -1.17856 1.56482 0
M  V30 2542 H 244.784 0.434933 0.607324 0
M  V30 2543 H 247.446 1.631 1.06698 0
M  V30 2544 H 246.542 1.74024 2.59079 0
M  V30 2545 N 246.843 -1.10192 1.12674 0
M  V30 2546 C 248.092 -1.81573 0.8783 0
M  V30 2547 C 248.405 -1.86249 -0.597557 0
M  V30 2548 O 249.611 -2.5386 -0.962681 0
M  V30 2549 C 248.067 -3.26149 1.52167 0
M  V30 2550 C 247.675 -3.29763 3.03249 0
M  V30 2551 C 249.419 -4.0234 1.3536 0
M  V30 2552 C 247.326 -4.68815 3.60508 0
M  V30 2553 H 246.256 -0.680394 0.324931 0
M  V30 2554 H 248.907 -1.23902 1.35353 0
M  V30 2555 H 247.289 -3.83832 0.974104 0
M  V30 2556 H 248.463 -2.8189 3.6452 0
M  V30 2557 H 246.778 -2.67059 3.19481 0
M  V30 2558 H 249.375 -5.05058 1.75559 0
M  V30 2559 H 249.718 -4.15235 0.297554 0
M  V30 2560 H 250.251 -3.51079 1.87052 0
M  V30 2561 H 246.99 -4.61121 4.65884 0
M  V30 2562 H 246.51 -5.17045 3.04014 0
M  V30 2563 H 248.189 -5.37785 3.59717 0
M  V30 2564 N 248.321 -0.919034 -1.28029 0
M  V30 2565 C 249.567 -0.555757 -1.95036 0
M  V30 2566 C 249.9 0.899198 -1.72128 0
M  V30 2567 O 249.175 1.64023 -1.04531 0
M  V30 2568 C 249.458 -0.872024 -3.49382 0
M  V30 2569 C 249.311 -2.3801 -3.81669 0
M  V30 2570 C 250.63 -0.37185 -4.38526 0
M  V30 2571 H 247.749 -0.203386 -0.708381 0
M  V30 2572 H 250.391 -1.14924 -1.51303 0
M  V30 2573 H 248.541 -0.366946 -3.86763 0
M  V30 2574 H 250.213 -2.9562 -3.54128 0
M  V30 2575 H 248.456 -2.83289 -3.28526 0
M  V30 2576 H 249.127 -2.55192 -4.8947 0
M  V30 2577 H 251.603 -0.804602 -4.08247 0
M  V30 2578 H 250.479 -0.622173 -5.45362 0
M  V30 2579 H 250.74 0.727934 -4.36066 0
M  V30 2580 N 249.799 1.42003 -0.683588 0
M  V30 2581 C 250.729 2.33487 -0.024866 0
M  V30 2582 C 251.71 1.51163 0.779975 0
M  V30 2583 O 252.895 1.79739 0.735362 0
M  V30 2584 C 250.025 3.3487 0.920836 0
M  V30 2585 C 248.979 4.27414 0.223958 0
M  V30 2586 C 248.305 5.19074 1.2832 0
M  V30 2587 C 249.605 5.14445 -0.90242 0
M  V30 2588 H 251.299 2.88819 -0.788921 0
M  V30 2589 H 248.845 1.38873 -0.38083 0
M  V30 2590 H 250.798 3.97787 1.39081 0
M  V30 2591 H 249.522 2.77861 1.71642 0
M  V30 2592 H 248.181 3.65904 -0.225864 0
M  V30 2593 H 247.829 4.58387 2.071 0
M  V30 2594 H 247.529 5.81822 0.821995 0
M  V30 2595 H 249.053 5.84867 1.75392 0
M  V30 2596 H 250.467 5.70998 -0.513272 0
M  V30 2597 H 248.864 5.86072 -1.28997 0
M  V30 2598 H 249.934 4.52322 -1.74737 0
M  V30 2599 N 251.277 0.427512 1.51691 0
M  V30 2600 C 252.505 -0.141191 2.06418 0
M  V30 2601 C 252.92 -1.37303 1.29589 0
M  V30 2602 O 252.277 -1.79059 0.352732 0
M  V30 2603 C 252.328 -0.473266 3.58389 0
M  V30 2604 O 252.049 0.709673 4.32314 0
M  V30 2605 C 253.55 -1.09371 4.29596 0
M  V30 2606 H 250.77 -0.0122747 0.670888 0
M  V30 2607 H 253.314 0.603764 1.95384 0
M  V30 2608 H 251.469 -1.16812 3.69369 0
M  V30 2609 H 251.883 0.42807 5.2275 0
M  V30 2610 H 253.357 -1.27613 5.37046 0
M  V30 2611 H 253.834 -2.072 3.87253 0
M  V30 2612 H 254.44 -0.43853 4.23033 0
M  V30 2613 N 252.755 -1.56801 0.158532 0
M  V30 2614 C 254.001 -1.97559 -0.483957 0
M  V30 2615 C 254.356 -1.04239 -1.61716 0
M  V30 2616 O 253.649 -0.079603 -1.91435 0
M  V30 2617 C 253.843 -3.4235 -1.02623 0
M  V30 2618 C 253.672 -4.49669 0.0528929 0
M  V30 2619 C 252.442 -5.02838 0.498234 0
M  V30 2620 C 254.64 -5.0725 0.848616 0
M  V30 2621 N 252.622 -5.93775 1.559 0
M  V30 2622 C 253.993 -5.94506 1.7596 0
M  V30 2623 C 256.048 -4.89788 0.895121 0
M  V30 2624 C 254.751 -6.66169 2.71314 0
M  V30 2625 C 256.777 -5.62161 1.83654 0
M  V30 2626 C 256.139 -6.49134 2.73503 0
M  V30 2627 H 252.238 -0.768332 -0.145566 0
M  V30 2628 H 254.822 -1.93012 0.255799 0
M  V30 2629 H 252.993 -3.47467 -1.73555 0
M  V30 2630 H 254.725 -3.70145 -1.63629 0
M  V30 2631 H 251.48 -4.73498 0.0983222 0
M  V30 2632 H 251.904 -6.43948 2.08949 0
M  V30 2633 H 256.546 -4.22255 0.21453 0
M  V30 2634 H 254.264 -7.32923 3.40367 0
M  V30 2635 H 257.85 -5.5064 1.87847 0
M  V30 2636 H 256.73 -7.04153 3.45163 0
M  V30 2637 N 254.233 0.115231 -1.57178 0
M  V30 2638 C 255.482 0.820945 -1.84237 0
M  V30 2639 C 255.795 1.80866 -0.744761 0
M  V30 2640 O 257.001 2.56083 -0.901871 0
M  V30 2641 C 255.457 1.51072 -3.26658 0
M  V30 2642 C 255.065 0.563795 -4.44438 0
M  V30 2643 C 256.809 2.20134 -3.62962 0
M  V30 2644 C 254.716 1.25701 -5.77887 0
M  V30 2645 H 253.646 0.310328 -0.687177 0
M  V30 2646 H 256.297 0.0737134 -1.83352 0
M  V30 2647 H 254.679 2.30471 -3.22024 0
M  V30 2648 H 255.853 -0.197247 -4.60378 0
M  V30 2649 H 254.168 -0.0200638 -4.16395 0
M  V30 2650 H 256.765 2.72696 -4.59936 0
M  V30 2651 H 257.108 2.98107 -2.90582 0
M  V30 2652 H 257.641 1.47619 -3.69396 0
M  V30 2653 H 254.38 0.518493 -6.53446 0
M  V30 2654 H 253.9 1.98997 -5.65827 0
M  V30 2655 H 255.579 1.78915 -6.2177 0
M  V30 2656 N 255.711 1.52812 0.385517 0
M  V30 2657 C 256.96 1.67249 1.12741 0
M  V30 2658 C 257.273 0.4205 1.91027 0
M  V30 2659 O 258.479 0.445064 2.67827 0
M  V30 2660 C 256.935 2.95583 2.05326 0
M  V30 2661 C 256.543 4.27974 1.32447 0
M  V30 2662 C 258.287 3.19386 2.7963 0
M  V30 2663 C 256.194 5.47412 2.23818 0
M  V30 2664 H 255.124 0.6231 0.424573 0
M  V30 2665 H 257.775 1.79309 0.389924 0
M  V30 2666 H 256.157 2.77277 2.82725 0
M  V30 2667 H 257.331 4.56844 0.602495 0
M  V30 2668 H 255.646 4.10459 0.700885 0
M  V30 2669 H 258.243 4.05801 3.48181 0
M  V30 2670 H 258.586 2.34604 3.43899 0
M  V30 2671 H 259.119 3.38274 2.09322 0
M  V30 2672 H 255.858 6.34612 1.64157 0
M  V30 2673 H 255.378 5.22849 2.93921 0
M  V30 2674 H 257.057 5.81423 2.83824 0
M  V30 2675 N 257.189 -0.644168 1.43834 0
M  V30 2676 C 258.438 -1.39985 1.45214 0
M  V30 2677 C 258.751 -1.95421 0.0835494 0
M  V30 2678 O 259.957 -2.71488 -0.0251748 0
M  V30 2679 C 258.413 -2.53384 2.55587 0
M  V30 2680 C 258.021 -2.04517 3.98594 0
M  V30 2681 C 259.765 -3.30685 2.66172 0
M  V30 2682 C 257.672 -3.1518 5.00416 0
M  V30 2683 H 256.602 -0.526005 0.540218 0
M  V30 2684 H 259.253 -0.694367 1.69855 0
M  V30 2685 H 257.635 -3.26446 2.24163 0
M  V30 2686 H 258.809 -1.38405 4.39523 0
M  V30 2687 H 257.124 -1.40068 3.92135 0
M  V30 2688 H 259.721 -4.13158 3.39418 0
M  V30 2689 H 260.064 -3.79312 1.71546 0
M  V30 2690 H 260.597 -2.64708 2.96942 0
M  V30 2691 H 257.336 -2.71511 5.96625 0
M  V30 2692 H 256.856 -3.79974 4.64091 0
M  V30 2693 H 258.535 -3.80166 5.23529 0
M  V30 2694 N 258.668 -1.30515 -0.883378 0
M  V30 2695 C 259.598 -1.19607 -2.00541 0
M  V30 2696 C 260.579 -0.086346 -1.69881 0
M  V30 2697 O 261.764 -0.268654 -1.92333 0
M  V30 2698 C 258.894 -0.888758 -3.35736 0
M  V30 2699 C 257.848 -1.95659 -3.8066 0
M  V30 2700 C 257.174 -1.50224 -5.13164 0
M  V30 2701 C 258.474 -3.36788 -3.99213 0
M  V30 2702 H 260.168 -2.13476 -2.09925 0
M  V30 2703 H 257.714 -1.02775 -1.00863 0
M  V30 2704 H 259.667 -0.799094 -4.13754 0
M  V30 2705 H 258.391 0.0856125 -3.26488 0
M  V30 2706 H 257.05 -2.03591 -3.04871 0
M  V30 2707 H 256.698 -0.516092 -5.00345 0
M  V30 2708 H 256.398 -2.2165 -5.44192 0
M  V30 2709 H 257.922 -1.42639 -5.93706 0
M  V30 2710 H 259.336 -3.31605 -4.67665 0
M  V30 2711 H 257.733 -4.06314 -4.41621 0
M  V30 2712 H 258.803 -3.78561 -3.03017 0
M  V30 2713 N 260.146 1.09593 -1.13257 0
M  V30 2714 C 261.076 2.18214 -0.830946 0
M  V30 2715 C 262.057 1.68812 0.208966 0
M  V30 2716 O 263.242 1.9408 0.0682666 0
M  V30 2717 C 260.372 3.46051 -0.294296 0
M  V30 2718 C 259.326 4.08778 -1.26826 0
M  V30 2719 C 258.652 5.31419 -0.591449 0
M  V30 2720 C 259.952 4.51476 -2.62615 0
M  V30 2721 H 261.646 2.43703 -1.73923 0
M  V30 2722 H 259.192 1.17128 -0.837675 0
M  V30 2723 H 261.145 4.2134 -0.0709606 0
M  V30 2724 H 259.869 3.20079 0.649366 0
M  V30 2725 H 258.528 3.35505 -1.47756 0
M  V30 2726 H 258.176 5.01727 0.357633 0
M  V30 2727 H 257.876 5.74341 -1.24123 0
M  V30 2728 H 259.4 6.09433 -0.377355 0
M  V30 2729 H 260.814 5.17999 -2.45663 0
M  V30 2730 H 259.211 5.05277 -3.23752 0
M  V30 2731 H 260.281 3.63962 -3.20406 0
M  V30 2732 N 261.624 0.925811 1.2754 0
M  V30 2733 C 262.849 0.580924 1.99098 0
M  V30 2734 C 263.274 -0.833555 1.68622 0
M  V30 2735 O 262.632 -1.55903 0.925422 0
M  V30 2736 C 262.68 0.811186 3.51358 0
M  V30 2737 O 261.784 -0.124129 4.12213 0
M  V30 2738 H 261.125 0.223873 0.625122 0
M  V30 2739 H 263.655 1.24455 1.62395 0
M  V30 2740 H 263.665 0.72601 4.01489 0
M  V30 2741 H 262.34 1.84227 3.72872 0
M  V30 2742 H 260.917 0.0108006 3.72898 0
M  V30 2743 N 263.102 -1.41638 0.69111 0
M  V30 2744 C 264.348 -2.01598 0.220519 0
M  V30 2745 C 264.681 -1.54594 -1.17535 0
M  V30 2746 O 263.956 -0.755177 -1.79241 0
M  V30 2747 C 264.239 -3.59062 0.273243 0
M  V30 2748 C 264.092 -4.16203 1.70573 0
M  V30 2749 C 265.411 -4.38546 -0.369457 0
M  V30 2750 H 262.53 -0.732468 0.0816045 0
M  V30 2751 H 265.172 -1.68445 0.878986 0
M  V30 2752 H 263.322 -3.87435 -0.287411 0
M  V30 2753 H 264.994 -3.98722 2.31989 0
M  V30 2754 H 263.237 -3.71414 2.2413 0
M  V30 2755 H 263.908 -5.25358 1.69419 0
M  V30 2756 H 266.384 -4.1596 0.107977 0
M  V30 2757 H 265.26 -5.48069 -0.302002 0
M  V30 2758 H 265.521 -4.17662 -1.44951 0
M  V30 2759 N 264.58 -0.43555 -1.51462 0
M  V30 2760 C 265.808 0.130242 -2.0649 0
M  V30 2761 C 266.223 1.36614 -1.30315 0
M  V30 2762 O 265.58 1.78869 -0.362223 0
M  V30 2763 C 265.631 0.454253 -3.58635 0
M  V30 2764 O 265.352 -0.73259 -4.31931 0
M  V30 2765 C 266.853 1.07091 -4.3017 0
M  V30 2766 H 264.073 0.00871669 -0.670943 0
M  V30 2767 H 266.617 -0.614117 -1.95061 0
M  V30 2768 H 264.772 1.14851 -3.69984 0
M  V30 2769 H 265.186 -0.455787 -5.22516 0
M  V30 2770 H 266.66 1.24764 -5.37716 0
M  V30 2771 H 267.137 2.05144 -3.88346 0
M  V30 2772 H 267.743 0.416089 -4.2326 0
M  V30 2773 N 266.058 1.56714 -0.166846 0
M  V30 2774 C 267.304 1.97039 0.479962 0
M  V30 2775 C 267.637 1.05264 1.63197 0
M  V30 2776 O 266.912 0.0988833 1.94248 0
M  V30 2777 C 267.195 3.46867 0.967212 0
M  V30 2778 C 267.048 4.49421 -0.18466 0
M  V30 2779 C 268.367 3.9968 1.84238 0
M  V30 2780 H 265.486 0.71641 0.172992 0
M  V30 2781 H 268.128 1.8832 -0.252079 0
M  V30 2782 H 266.278 3.54428 1.59101 0
M  V30 2783 H 267.95 4.53924 -0.821621 0
M  V30 2784 H 266.193 4.25573 -0.840837 0
M  V30 2785 H 266.864 5.51644 0.198317 0
M  V30 2786 H 269.34 3.94723 1.31655 0
M  V30 2787 H 268.216 5.04941 2.15234 0
M  V30 2788 H 268.477 3.43226 2.78654 0
M  V30 2789 N 267.536 -0.106894 1.57237 0
M  V30 2790 C 268.764 -0.826389 1.8968 0
M  V30 2791 C 269.179 -1.72856 0.759353 0
M  V30 2792 O 268.536 -1.80503 -0.269263 0
M  V30 2793 C 268.587 -1.64967 3.21665 0
M  V30 2794 O 268.308 -0.783804 4.31031 0
M  V30 2795 C 269.809 -2.47326 3.67892 0
M  V30 2796 H 267.029 -0.236927 0.627779 0
M  V30 2797 H 269.573 -0.0876593 2.04312 0
M  V30 2798 H 267.728 -2.34103 3.08666 0
M  V30 2799 H 268.142 -1.35284 5.06753 0
M  V30 2800 H 269.616 -3.00604 4.6297 0
M  V30 2801 H 270.093 -3.25247 2.95146 0
M  V30 2802 H 270.699 -1.83411 3.83719 0
M  V30 2803 N 269.014 -1.53014 -0.377408 0
M  V30 2804 C 270.239 -1.72818 -1.14668 0
M  V30 2805 C 270.664 -0.450725 -1.8262 0
M  V30 2806 O 270.022 0.59439 -1.7128 0
M  V30 2807 C 270.07 -2.88627 -2.16164 0
M  V30 2808 O 269.174 -2.56409 -3.22998 0
M  V30 2809 H 268.515 -0.574301 -0.333278 0
M  V30 2810 H 271.045 -1.99853 -0.438152 0
M  V30 2811 H 271.055 -3.14455 -2.59966 0
M  V30 2812 H 269.73 -3.81294 -1.66095 0
M  V30 2813 H 268.307 -2.4136 -2.84253 0
M  V30 2814 N 270.492 0.636531 -1.44174 0
M  V30 2815 C 271.741 1.39213 -1.45954 0
M  V30 2816 C 272.054 1.95374 -0.0939119 0
M  V30 2817 O 273.26 2.71498 0.0107767 0
M  V30 2818 C 271.716 2.52025 -2.56927 0
M  V30 2819 C 271.324 2.024 -3.99673 0
M  V30 2820 C 273.068 3.29269 -2.67922 0
M  V30 2821 C 270.975 3.12521 -5.0208 0
M  V30 2822 H 269.905 0.523132 -0.542999 0
M  V30 2823 H 272.556 0.685349 -1.70221 0
M  V30 2824 H 270.938 3.25253 -2.25891 0
M  V30 2825 H 272.112 1.36073 -4.40251 0
M  V30 2826 H 270.427 1.37987 -3.92872 0
M  V30 2827 H 273.024 4.11352 -3.41605 0
M  V30 2828 H 273.367 3.78397 -1.73555 0
M  V30 2829 H 273.9 2.63129 -2.98342 0
M  V30 2830 H 270.639 2.68343 -5.98057 0
M  V30 2831 H 270.159 3.77507 -4.66099 0
M  V30 2832 H 271.838 3.77385 -5.25538 0
M  V30 2833 N 271.97 1.30982 0.876444 0
M  V30 2834 C 273.198 1.23242 1.6619 0
M  V30 2835 C 273.613 -0.203345 1.87702 0
M  V30 2836 O 272.97 -1.13317 1.43057 0
M  V30 2837 C 273.021 1.96623 3.03351 0
M  V30 2838 O 272.742 3.34594 2.82804 0
M  V30 2839 C 274.243 1.95644 3.97792 0
M  V30 2840 H 271.463 0.426126 0.518322 0
M  V30 2841 H 274.007 1.7275 1.09442 0
M  V30 2842 H 272.162 1.50892 3.56806 0
M  V30 2843 H 272.576 3.71873 3.69879 0
M  V30 2844 H 274.05 2.51511 4.91372 0
M  V30 2845 H 274.527 0.937395 4.2908 0
M  V30 2846 H 275.133 2.41225 3.50272 0
M  V30 2847 N 273.449 -1.08991 1.13837 0
M  V30 2848 C 274.697 -1.80899 0.901098 0
M  V30 2849 C 275.018 -1.86356 -0.574134 0
M  V30 2850 O 274.288 -1.35235 -1.41733 0
M  V30 2851 H 272.868 -0.669966 0.330386 0
M  V30 2852 H 275.53 -1.318 1.43578 0
M  V30 2853 H 274.626 -2.83929 1.29578 0
M  V30 2854 N 274.927 -0.932562 -1.27047 0
M  V30 2855 C 275.857 -0.452902 -2.29066 0
M  V30 2856 C 276.838 0.489338 -1.62909 0
M  V30 2857 O 278.023 0.393046 -1.90181 0
M  V30 2858 C 275.153 0.290698 -3.46081 0
M  V30 2859 C 274.107 -0.564168 -4.24265 0
M  V30 2860 C 273.433 0.308886 -5.33807 0
M  V30 2861 C 274.733 -1.83112 -4.89149 0
M  V30 2862 H 276.427 -1.30552 -2.69437 0
M  V30 2863 H 273.973 -0.629201 -1.29526 0
M  V30 2864 H 275.926 0.637233 -4.16554 0
M  V30 2865 H 274.65 1.17738 -3.0464 0
M  V30 2866 H 273.309 -0.893477 -3.55545 0
M  V30 2867 H 272.957 1.19467 -4.88607 0
M  V30 2868 H 272.657 -0.259633 -5.87026 0
M  V30 2869 H 274.181 0.650884 -6.07121 0
M  V30 2870 H 275.595 -1.55236 -5.51883 0
M  V30 2871 H 273.992 -2.34353 -5.52448 0
M  V30 2872 H 275.062 -2.54772 -4.12576 0
M  V30 2873 N 276.405 1.4127 -0.698611 0
M  V30 2874 C 277.63 2.06024 -0.238512 0
M  V30 2875 C 278.055 1.5224 1.10475 0
M  V30 2876 O 277.413 0.650623 1.69223 0
M  V30 2877 C 277.461 3.59988 -0.209952 0
M  V30 2878 O 276.565 4.04282 0.814235 0
M  V30 2879 H 275.906 0.653829 -0.115775 0
M  V30 2880 H 278.436 1.8098 -0.954326 0
M  V30 2881 H 278.446 4.07979 -0.0418436 0
M  V30 2882 H 277.121 3.98503 -1.1903 0
M  V30 2883 H 275.698 3.6779 0.615234 0
M  V30 2884 N 277.883 0.443576 1.51229 0
M  V30 2885 C 279.132 -0.122332 2.01329 0
M  V30 2886 C 279.445 -1.43237 1.33201 0
M  V30 2887 O 280.651 -2.0816 1.74304 0
M  V30 2888 C 279.107 -0.268551 3.58897 0
M  V30 2889 C 278.715 1.03142 4.35965 0
M  V30 2890 C 280.459 -0.787894 4.17124 0
M  V30 2891 C 278.366 0.850504 5.85252 0
M  V30 2892 H 277.296 -0.0494929 0.752374 0
M  V30 2893 H 279.947 0.574289 1.74282 0
M  V30 2894 H 278.329 -1.02832 3.82415 0
M  V30 2895 H 279.503 1.80001 4.24189 0
M  V30 2896 H 277.818 1.47977 3.89219 0
M  V30 2897 H 280.415 -0.939841 5.26375 0
M  V30 2898 H 280.758 -1.77201 3.76703 0
M  V30 2899 H 281.291 -0.0862669 3.97706 0
M  V30 2900 H 278.03 1.80718 6.30096 0
M  V30 2901 H 277.55 0.121825 5.99676 0
M  V30 2902 H 279.229 0.506163 6.45017 0
M  V30 2903 N 279.361 -1.56624 0.175154 0
M  V30 2904 C 280.586 -2.01813 -0.478137 0
M  V30 2905 C 281.011 -1.05457 -1.55757 0
M  V30 2906 O 280.369 -0.0347439 -1.81267 0
M  V30 2907 C 280.417 -3.45581 -1.02987 0
M  V30 2908 O 279.521 -3.52305 -2.14371 0
M  V30 2909 H 278.862 -0.65413 -0.114059 0
M  V30 2910 H 281.392 -2.02673 0.280173 0
M  V30 2911 H 281.402 -3.84965 -1.35151 0
M  V30 2912 H 280.077 -4.1521 -0.239556 0
M  V30 2913 H 278.654 -3.24783 -1.83222 0
M  V30 2914 N 280.839 0.0985539 -1.57292 0
M  V30 2915 C 281.802 1.10402 -2.00858 0
M  V30 2916 C 282.802 1.33146 -0.901593 0
M  V30 2917 O 283.992 1.29318 -1.16716 0
M  V30 2918 C 281.124 2.45394 -2.36632 0
M  V30 2919 H 282.317 0.729099 -2.90902 0
M  V30 2920 H 279.87 0.343495 -1.52479 0
M  V30 2921 H 280.605 2.87769 -1.49531 0
M  V30 2922 H 280.39 2.30235 -3.17387 0
M  V30 2923 H 281.88 3.17718 -2.71007 0
M  V30 2924 N 282.317 1.53212 0.369288 0
M  V30 2925 C 283.566 1.68436 1.10961 0
M  V30 2926 C 283.879 0.440738 1.9057 0
M  V30 2927 O 285.085 0.473446 2.6734 0
M  V30 2928 C 283.541 2.97744 2.0218 0
M  V30 2929 C 283.149 4.29355 1.279 0
M  V30 2930 C 284.893 3.22334 2.76226 0
M  V30 2931 C 282.8 5.49755 2.17999 0
M  V30 2932 H 281.73 0.627568 0.41794 0
M  V30 2933 H 284.381 1.79713 0.370884 0
M  V30 2934 H 282.763 2.8026 2.79768 0
M  V30 2935 H 283.937 4.57458 0.554007 0
M  V30 2936 H 282.252 4.11179 0.657311 0
M  V30 2937 H 284.849 4.09471 3.43857 0
M  V30 2938 H 285.192 2.38238 3.41392 0
M  V30 2939 H 285.725 3.40475 2.05723 0
M  V30 2940 H 282.464 6.36318 1.57417 0
M  V30 2941 H 281.984 5.25937 2.88359 0
M  V30 2942 H 283.663 5.84401 2.77641 0
M  V30 2943 N 283.795 -0.628877 1.44509 0
M  V30 2944 C 285.02 -1.42048 1.5112 0
M  V30 2945 C 285.445 -1.87594 0.137818 0
M  V30 2946 O 284.803 -1.58873 -0.873437 0
M  V30 2947 C 284.851 -2.61541 2.48251 0
M  V30 2948 O 283.955 -3.61453 1.98559 0
M  V30 2949 H 283.296 -0.424942 0.510216 0
M  V30 2950 H 285.826 -0.767374 1.89664 0
M  V30 2951 H 285.836 -3.09057 2.66361 0
M  V30 2952 H 284.511 -2.27736 3.48007 0
M  V30 2953 H 283.088 -3.20731 1.90227 0
M  V30 2954 N 285.273 -1.31445 -0.869486 0
M  V30 2955 C 286.501 -1.24122 -1.65534 0
M  V30 2956 C 286.916 0.193387 -1.87807 0
M  V30 2957 O 286.273 1.12557 -1.43656 0
M  V30 2958 C 286.324 -1.98229 -3.02304 0
M  V30 2959 O 286.045 -3.3609 -2.81026 0
M  V30 2960 C 287.546 -1.97751 -3.96749 0
M  V30 2961 H 284.766 -0.428868 -0.516055 0
M  V30 2962 H 287.31 -1.73328 -1.08525 0
M  V30 2963 H 285.465 -1.52782 -3.56001 0
M  V30 2964 H 285.879 -3.7383 -3.67902 0
M  V30 2965 H 287.353 -2.54114 -4.90031 0
M  V30 2966 H 287.83 -0.960137 -4.28577 0
M  V30 2967 H 288.436 -2.43079 -3.48988 0
M  V30 2968 N 286.751 1.08385 -1.14413 0
M  V30 2969 C 287.699 2.17406 -0.826888 0
M  V30 2970 C 288.693 1.6827 0.195312 0
M  V30 2971 O 289.899 1.79927 0.0513892 0
M  V30 2972 H 286.274 0.70934 -0.249681 0
M  V30 2973 H 288.245 2.41388 -1.75426 0
M  V30 2974 C 286.994 3.46215 -0.320979 0
M  V30 2975 H 286.317 3.84401 -1.0989 0
M  V30 2976 H 287.757 4.23777 -0.137549 0
M  V30 2977 C 286.216 3.23067 0.955472 0
M  V30 2978 O 286.746 3.4668 2.02918 0
M  V30 2979 N 284.952 2.7661 0.890798 0
M  V30 2980 H 284.499 2.57594 0.0168815 0
M  V30 2981 H 284.457 2.61501 1.74542 0
M  V30 2982 N 288.23 0.939286 1.26551 0
M  V30 2983 C 289.478 0.58469 1.93457 0
M  V30 2984 C 289.799 -0.878774 1.74076 0
M  V30 2985 O 289.069 -1.62421 1.09528 0
M  V30 2986 H 287.649 0.21325 0.715914 0
M  V30 2987 H 290.311 1.1942 1.54029 0
M  V30 2988 H 289.407 0.800849 3.0165 0
M  V30 2989 N 289.708 -1.40897 0.706093 0
M  V30 2990 C 290.655 -2.30751 0.0474474 0
M  V30 2991 C 291.625 -1.47678 -0.76029 0
M  V30 2992 O 292.81 -1.76441 -0.726177 0
M  V30 2993 C 289.95 -3.33815 -0.875309 0
M  V30 2994 C 289.063 -4.31961 -0.0580623 0
M  V30 2995 C 288.198 -5.22093 -0.979425 0
M  V30 2996 C 287.237 -6.11902 -0.155706 0
M  V30 2997 N 286.374 -6.94482 -1.03144 0
M  V30 2998 H 291.214 -2.86513 0.819413 0
M  V30 2999 H 288.751 -1.41102 0.415783 0
M  V30 3000 H 290.709 -3.92129 -1.42446 0
M  V30 3001 H 289.339 -2.79579 -1.61356 0
M  V30 3002 H 288.391 -3.75507 0.608147 0
M  V30 3003 H 289.703 -4.95415 0.580082 0
M  V30 3004 H 288.857 -5.85292 -1.59744 0
M  V30 3005 H 287.596 -4.5889 -1.65141 0
M  V30 3006 H 286.601 -5.47742 0.475309 0
M  V30 3007 H 287.826 -6.77162 0.512635 0
M  V30 3008 H 285.772 -6.33877 -1.68924 0
M  V30 3009 H 285.689 -7.54665 -0.449108 0
M  V30 3010 H 286.957 -7.6214 -1.63593 0
M  V30 3011 N 291.186 -0.45159 -1.50991 0
M  V30 3012 C 292.432 0.110237 -2.025 0
M  V30 3013 C 292.765 1.41109 -1.33424 0
M  V30 3014 O 292.04 1.89135 -0.453659 0
M  V30 3015 C 292.323 0.314271 -3.58726 0
M  V30 3016 C 292.176 -1.00623 -4.38401 0
M  V30 3017 C 293.495 1.07767 -4.26702 0
M  V30 3018 H 290.614 0.0385897 -0.735989 0
M  V30 3019 H 293.256 -0.593374 -1.80497 0
M  V30 3020 H 291.406 0.913601 -3.77605 0
M  V30 3021 H 293.078 -1.64064 -4.31139 0
M  V30 3022 H 291.321 -1.6075 -4.02917 0
M  V30 3023 H 291.992 -0.817341 -5.45915 0
M  V30 3024 H 294.468 0.56986 -4.12179 0
M  V30 3025 H 293.344 1.18921 -5.35863 0
M  V30 3026 H 293.605 2.10939 -3.88532 0
M  V30 3027 N 292.664 1.56529 -0.183458 0
M  V30 3028 C 293.611 2.18546 0.742055 0
M  V30 3029 C 294.581 1.12912 1.2182 0
M  V30 3030 O 295.766 1.41115 1.28418 0
M  V30 3031 C 292.906 2.83977 1.96089 0
M  V30 3032 C 292.019 4.04105 1.52719 0
M  V30 3033 C 291.154 4.57427 2.70063 0
M  V30 3034 C 290.193 5.69938 2.23243 0
M  V30 3035 N 289.33 6.17717 3.33722 0
M  V30 3036 H 294.17 2.97284 0.206432 0
M  V30 3037 H 291.707 1.46823 0.0901571 0
M  V30 3038 H 293.665 3.20077 2.67594 0
M  V30 3039 H 292.295 2.07822 2.47002 0
M  V30 3040 H 291.347 3.73745 0.708436 0
M  V30 3041 H 292.659 4.85513 1.1436 0
M  V30 3042 H 291.813 4.95772 3.49708 0
M  V30 3043 H 290.552 3.75101 3.11689 0
M  V30 3044 H 289.557 5.31133 1.42048 0
M  V30 3045 H 290.782 6.54073 1.82661 0
M  V30 3046 H 288.728 5.38317 3.74902 0
M  V30 3047 H 288.645 6.94146 2.99495 0
M  V30 3048 H 289.913 6.60713 4.13616 0
M  V30 3049 N 294.142 -0.090211 1.57342 0
M  V30 3050 C 295.367 -0.810082 1.90925 0
M  V30 3051 C 295.792 -1.71248 0.778187 0
M  V30 3052 O 295.15 -1.79278 -0.269991 0
M  V30 3053 C 295.198 -1.59529 3.23393 0
M  V30 3054 O 294.302 -2.70461 3.11327 0
M  V30 3055 H 293.643 -0.222231 0.625707 0
M  V30 3056 H 296.173 -0.0639716 2.045 0
M  V30 3057 H 296.183 -1.97847 3.5682 0
M  V30 3058 H 294.858 -0.933055 4.05299 0
M  V30 3059 H 293.435 -2.35135 2.89423 0
M  V30 3060 N 295.62 -1.53406 -0.361157 0
M  V30 3061 C 296.868 -1.69467 -1.10115 0
M  V30 3062 C 297.189 -0.451352 -1.89705 0
M  V30 3063 O 296.459 0.534636 -1.88463 0
M  V30 3064 H 295.039 -0.624749 -0.409508 0
M  V30 3065 H 297.701 -1.90609 -0.406699 0
M  V30 3066 H 296.797 -2.55774 -1.78847 0
M  V30 3067 N 297.098 0.621204 -1.44841 0
M  V30 3068 C 298.346 1.37783 -1.47852 0
M  V30 3069 C 298.667 1.94653 -0.116224 0
M  V30 3070 O 297.937 1.76367 0.852737 0
M  V30 3071 H 296.517 0.511453 -0.544449 0
M  V30 3072 H 299.179 0.730446 -1.80694 0
M  V30 3073 H 298.275 2.20414 -2.20961 0
M  V30 3074 N 298.576 1.31904 0.862503 0
M  V30 3075 C 299.804 1.24998 1.64873 0
M  V30 3076 C 300.219 -0.183425 1.87907 0
M  V30 3077 O 299.576 -1.11794 1.44251 0
M  V30 3078 C 299.627 1.99829 3.01248 0
M  V30 3079 O 299.348 3.37575 2.79239 0
M  V30 3080 C 300.849 1.99852 3.95694 0
M  V30 3081 H 298.069 0.431599 0.513773 0
M  V30 3082 H 300.613 1.73901 1.07604 0
M  V30 3083 H 298.768 1.54668 3.55185 0
M  V30 3084 H 299.182 3.75776 3.65914 0
M  V30 3085 H 300.656 2.56709 4.88676 0
M  V30 3086 H 301.133 0.982852 4.28062 0
M  V30 3087 H 301.739 2.44926 3.47694 0
M  V30 3088 N 300.054 -1.07777 1.14986 0
M  V30 3089 C 301.284 -1.83752 0.944402 0
M  V30 3090 C 301.692 -1.8218 -0.51058 0
M  V30 3091 O 301.035 -1.22852 -1.36576 0
M  V30 3092 C 301.097 -3.32128 1.37592 0
M  V30 3093 C 300.761 -3.57425 2.84775 0
M  V30 3094 C 301.758 -3.5173 3.8286 0
M  V30 3095 C 299.443 -3.8523 3.2234 0
M  V30 3096 C 301.437 -3.73482 5.16517 0
M  V30 3097 C 299.124 -4.06634 4.56171 0
M  V30 3098 C 300.122 -4.00754 5.53069 0
M  V30 3099 O 299.81 -4.2159 6.84483 0
M  V30 3100 H 299.542 -0.58673 0.335744 0
M  V30 3101 H 302.096 -1.36982 1.53052 0
M  V30 3102 H 300.326 -3.79686 0.733165 0
M  V30 3103 H 302.015 -3.89555 1.14024 0
M  V30 3104 H 302.781 -3.30256 3.55184 0
M  V30 3105 H 298.66 -3.88923 2.47508 0
M  V30 3106 H 302.204 -3.68808 5.92137 0
M  V30 3107 H 298.101 -4.27593 4.83564 0
M  V30 3108 H 298.869 -4.38961 6.90837 0
M  V30 3109 N 301.532 -0.945985 -1.26051 0
M  V30 3110 C 302.779 -0.596118 -1.93527 0
M  V30 3111 C 303.107 0.865559 -1.74179 0
M  V30 3112 O 302.362 1.63524 -1.0751 0
M  V30 3113 C 302.661 -0.890475 -3.46129 0
M  V30 3114 C 302.327 -2.3368 -3.85622 0
M  V30 3115 C 300.989 -2.73216 -3.96114 0
M  V30 3116 C 303.341 -3.27648 -4.05334 0
M  V30 3117 C 300.669 -4.05806 -4.2372 0
M  V30 3118 C 303.021 -4.59841 -4.3443 0
M  V30 3119 C 301.685 -4.99185 -4.43137 0
M  V30 3120 H 300.955 -0.218135 -0.708165 0
M  V30 3121 H 303.602 -1.1934 -1.49768 0
M  V30 3122 H 301.907 -0.210711 -3.91233 0
M  V30 3123 H 303.604 -0.598478 -3.96509 0
M  V30 3124 H 300.194 -2.02015 -3.78005 0
M  V30 3125 H 304.378 -2.98298 -3.96651 0
M  V30 3126 H 299.634 -4.35945 -4.28675 0
M  V30 3127 H 303.808 -5.32641 -4.48628 0
M  V30 3128 H 301.435 -6.01952 -4.64282 0
M  V30 3129 N 303.011 1.40521 -0.713556 0
M  V30 3130 C 303.941 2.33381 -0.0743864 0
M  V30 3131 C 304.922 1.52784 0.747735 0
M  V30 3132 O 306.107 1.81258 0.697071 0
M  V30 3133 C 303.237 3.36748 0.849598 0
M  V30 3134 C 302.191 4.27793 0.133247 0
M  V30 3135 C 301.517 5.21679 1.17281 0
M  V30 3136 C 302.817 5.12415 -1.01134 0
M  V30 3137 H 304.511 2.87081 -0.850007 0
M  V30 3138 H 302.057 1.38034 -0.410201 0
M  V30 3139 H 304.01 4.00648 1.30612 0
M  V30 3140 H 302.734 2.81439 1.65709 0
M  V30 3141 H 301.393 3.65342 -0.303426 0
M  V30 3142 H 301.041 4.62677 1.9733 0
M  V30 3143 H 300.741 5.83435 0.698397 0
M  V30 3144 H 302.265 5.88456 1.62947 0
M  V30 3145 H 303.679 5.69781 -0.634274 0
M  V30 3146 H 302.076 5.83203 -1.41399 0
M  V30 3147 H 303.146 4.48514 -1.84292 0
M  V30 3148 N 304.489 0.459591 1.5075 0
M  V30 3149 C 305.738 -0.100971 2.01447 0
M  V30 3150 C 306.051 -1.41816 1.34713 0
M  V30 3151 O 307.257 -2.06299 1.76502 0
M  V30 3152 C 305.713 -0.23047 3.59161 0
M  V30 3153 C 305.321 1.0776 4.34847 0
M  V30 3154 C 307.065 -0.743608 4.17936 0
M  V30 3155 C 304.972 0.91253 5.84317 0
M  V30 3156 H 303.902 -0.0415102 0.752856 0
M  V30 3157 H 306.553 0.592742 1.73663 0
M  V30 3158 H 304.935 -0.987703 3.83485 0
M  V30 3159 H 306.109 1.8449 4.22256 0
M  V30 3160 H 304.424 1.52097 3.87628 0
M  V30 3161 H 307.021 -0.883959 5.27343 0
M  V30 3162 H 307.364 -1.73196 3.78562 0
M  V30 3163 H 307.897 -0.04408 3.97776 0
M  V30 3164 H 304.636 1.87391 6.28144 0
M  V30 3165 H 304.156 0.185422 5.99513 0
M  V30 3166 H 305.835 0.574547 6.44444 0
M  V30 3167 N 305.967 -1.56429 0.191757 0
M  V30 3168 C 307.192 -2.02309 -0.456706 0
M  V30 3169 C 307.617 -1.07103 -1.5463 0
M  V30 3170 O 306.975 -0.0539677 -1.8122 0
M  V30 3171 C 307.023 -3.46654 -0.993159 0
M  V30 3172 O 306.127 -3.54559 -2.10622 0
M  V30 3173 H 305.468 -0.655303 -0.107114 0
M  V30 3174 H 307.998 -2.02364 0.301653 0
M  V30 3175 H 308.008 -3.86377 -1.31061 0
M  V30 3176 H 306.683 -4.1544 -0.195504 0
M  V30 3177 H 305.26 -3.26708 -1.79767 0
M  V30 3178 N 307.445 0.0818655 -1.57387 0
M  V30 3179 C 308.861 0.436412 -1.53517 0
M  V30 3180 C 309.061 1.79758 -0.910459 0
M  V30 3181 O 308.117 2.47324 -0.508636 0
M  V30 3182 C 309.43 0.386734 -2.98203 0
M  V30 3183 C 310.978 0.467644 -3.09487 0
M  V30 3184 C 311.453 0.447978 -4.55804 0
M  V30 3185 N 312.944 0.508348 -4.60402 0
M  V30 3186 C 313.679 0.515184 -5.71081 0
M  V30 3187 N 313.175 0.477435 -6.91153 0
M  V30 3188 N 314.968 0.560988 -5.59294 0
M  V30 3189 H 307.119 -0.809546 -1.96367 0
M  V30 3190 H 309.382 -0.302733 -0.898363 0
M  V30 3191 H 309.088 -0.546539 -3.47427 0
M  V30 3192 H 308.962 1.20075 -3.57578 0
M  V30 3193 H 311.349 1.39134 -2.60242 0
M  V30 3194 H 311.43 -0.374753 -2.5304 0
M  V30 3195 H 311.074 -0.471826 -5.05704 0
M  V30 3196 H 311.004 1.30777 -5.10103 0
M  V30 3197 H 313.495 0.54218 -3.7399 0
M  V30 3198 H 313.808 0.486299 -7.71268 0
M  V30 3199 H 312.153 0.444278 -6.93579 0
M  V30 3200 H 315.344 0.5881 -4.64391 0
M  V30 3201 H 315.517 0.562846 -6.45551 0
M  V30 3202 N 308.923 1.53595 0.353017 0
M  V30 3203 C 310.148 1.7462 1.11904 0
M  V30 3204 C 310.573 0.479721 1.8188 0
M  V30 3205 O 309.931 -0.567066 1.72204 0
M  V30 3206 C 309.979 2.92029 2.11545 0
M  V30 3207 O 309.083 2.61516 3.18878 0
M  V30 3208 H 308.424 0.579531 0.324099 0
M  V30 3209 H 310.954 2.00525 0.406301 0
M  V30 3210 H 310.964 3.18551 2.5493 0
M  V30 3211 H 309.639 3.83888 1.60008 0
M  V30 3212 H 308.216 2.45852 2.80377 0
M  V30 3213 N 310.401 -0.613514 1.45168 0
M  V30 3214 C 311.331 -1.7354 1.56225 0
M  V30 3215 C 312.312 -1.64981 0.41414 0
M  V30 3216 O 313.497 -1.83472 0.636526 0
M  V30 3217 C 310.627 -3.12128 1.52295 0
M  V30 3218 C 309.581 -3.35491 2.65762 0
M  V30 3219 C 308.907 -4.74291 2.46885 0
M  V30 3220 C 310.207 -3.26325 4.0781 0
M  V30 3221 H 311.901 -1.64543 2.50132 0
M  V30 3222 H 309.447 -0.790185 1.20383 0
M  V30 3223 H 311.4 -3.90404 1.58628 0
M  V30 3224 H 310.124 -3.2195 0.549139 0
M  V30 3225 H 308.783 -2.59603 2.58847 0
M  V30 3226 H 308.431 -4.80839 1.47657 0
M  V30 3227 H 308.131 -4.9088 3.22972 0
M  V30 3228 H 309.655 -5.54775 2.55063 0
M  V30 3229 H 311.069 -3.94483 4.16 0
M  V30 3230 H 309.466 -3.54445 4.8424 0
M  V30 3231 H 310.536 -2.23855 4.30136 0
M  V30 3232 N 311.879 -1.3236 -0.855495 0
M  V30 3233 C 313.127 -1.22629 -1.60644 0
M  V30 3234 C 313.448 0.212136 -1.93843 0
M  V30 3235 O 312.718 1.13666 -1.59552 0
M  V30 3236 H 311.298 -0.450882 -0.595579 0
M  V30 3237 H 313.96 -1.65871 -1.02337 0
M  V30 3238 H 313.056 -1.80832 -2.54374 0
M  V30 3239 N 313.357 1.07166 -1.15556 0
M  V30 3240 C 314.768 1.6127 -0.940693 0
M  V30 3241 C 315.119 1.89251 0.517551 0
M  V30 3242 O 314.244 1.65937 1.38903 0
M  V30 3243 C 314.839 2.92993 -1.7012 0
M  V30 3244 C 313.398 3.43832 -1.53156 0
M  V30 3245 C 312.545 2.1786 -1.71558 0
M  V30 3246 H 315.496 0.90229 -1.30554 0
M  V30 3247 H 315.517 3.62007 -1.17181 0
M  V30 3248 H 315.029 2.72596 -2.76248 0
M  V30 3249 H 313.13 3.69307 -0.494294 0
M  V30 3250 H 313.243 4.19747 -2.30975 0
M  V30 3251 H 311.607 2.2765 -1.14225 0
M  V30 3252 H 312.39 1.99956 -2.79056 0
M  V30 3253 N 314.835 0.952656 1.25548 0
M  V30 3254 C 315.745 0.47782 2.29682 0
M  V30 3255 C 316.761 -0.453859 1.67977 0
M  V30 3256 O 317.937 -0.330587 1.98668 0
M  V30 3257 C 315.002 -0.238655 3.45878 0
M  V30 3258 C 314.063 0.730994 4.23031 0
M  V30 3259 C 313.296 0.0486165 5.33678 0
M  V30 3260 O 313.519 -1.16612 5.58353 0
M  V30 3261 O 312.453 0.733152 5.97418 0
M  V30 3262 H 316.279 1.34312 2.72386 0
M  V30 3263 H 313.864 0.719026 1.30959 0
M  V30 3264 H 315.746 -0.641774 4.16484 0
M  V30 3265 H 314.421 -1.07916 3.05181 0
M  V30 3266 H 313.328 1.18428 3.5486 0
M  V30 3267 H 314.661 1.53946 4.67506 0
M  V30 3268 N 316.313 -1.40141 0.720998 0
M  V30 3269 C 317.243 -2.33339 0.0867621 0
M  V30 3270 C 318.224 -1.53178 -0.739622 0
M  V30 3271 O 319.409 -1.81625 -0.687449 0
M  V30 3272 C 316.539 -3.37194 -0.831728 0
M  V30 3273 C 315.493 -4.27857 -0.110558 0
M  V30 3274 C 314.819 -5.22294 -1.14513 0
M  V30 3275 C 316.119 -5.11872 1.0385 0
M  V30 3276 H 317.813 -2.86626 0.865219 0
M  V30 3277 H 315.359 -1.37814 0.417516 0
M  V30 3278 H 317.312 -4.01335 -1.28485 0
M  V30 3279 H 316.036 -2.82314 -1.64214 0
M  V30 3280 H 314.695 -3.65176 0.322797 0
M  V30 3281 H 314.343 -4.63717 -1.94874 0
M  V30 3282 H 314.043 -5.83797 -0.667446 0
M  V30 3283 H 315.567 -5.89312 -1.59824 0
M  V30 3284 H 316.981 -5.69436 0.664482 0
M  V30 3285 H 315.378 -5.82445 1.4449 0
M  V30 3286 H 316.448 -4.4753 1.86668 0
M  V30 3287 N 317.792 -0.46758 -1.50504 0
M  V30 3288 C 319.04 0.0884469 -2.01906 0
M  V30 3289 C 319.361 1.40532 -1.35188 0
M  V30 3290 O 318.631 1.89515 -0.496079 0
M  V30 3291 H 317.211 0.0356765 -0.746148 0
M  V30 3292 H 319.873 -0.6172 -1.84869 0
M  V30 3293 H 318.969 0.2425 -3.11156 0
M  V30 3294 N 319.27 1.56325 -0.20005 0
M  V30 3295 C 320.518 1.97329 0.436547 0
M  V30 3296 C 320.839 1.08826 1.61808 0
M  V30 3297 O 320.109 0.160604 1.95241 0
M  V30 3298 H 318.689 0.728714 0.164272 0
M  V30 3299 H 321.351 1.92761 -0.287937 0
M  V30 3300 H 320.447 3.02264 0.777353 0
M  V30 3301 N 320.748 -0.0735177 1.57428 0
M  V30 3302 C 321.973 -0.789787 1.91774 0
M  V30 3303 C 322.398 -1.70413 0.796306 0
M  V30 3304 O 321.756 -1.79555 -0.250961 0
M  V30 3305 C 321.804 -1.5609 3.25067 0
M  V30 3306 O 320.908 -2.67144 3.14178 0
M  V30 3307 H 320.249 -0.215582 0.628029 0
M  V30 3308 H 322.779 -0.0422781 2.04556 0
M  V30 3309 H 322.789 -1.94052 3.58898 0
M  V30 3310 H 321.464 -0.890015 4.06265 0
M  V30 3311 H 320.041 -2.32052 2.91901 0
M  V30 3312 N 322.226 -1.5378 -0.344866 0
M  V30 3313 C 323.475 -1.7018 -1.08267 0
M  V30 3314 C 323.788 -0.471 -1.89845 0
M  V30 3315 O 324.994 -0.515917 -2.66553 0
M  V30 3316 C 323.45 -3.00923 -1.97417 0
M  V30 3317 C 323.058 -4.31335 -1.21053 0
M  V30 3318 C 324.802 -3.26688 -2.71063 0
M  V30 3319 C 322.709 -5.53153 -2.09225 0
M  V30 3320 H 321.639 -0.634138 -0.407903 0
M  V30 3321 H 324.29 -1.8028 -0.342246 0
M  V30 3322 H 322.672 -2.84676 -2.75274 0
M  V30 3323 H 323.846 -4.58281 -0.481159 0
M  V30 3324 H 322.161 -4.12173 -0.591813 0
M  V30 3325 H 324.758 -4.1489 -3.37299 0
M  V30 3326 H 325.101 -2.43639 -3.37558 0
M  V30 3327 H 325.634 -3.43705 -2.0028 0
M  V30 3328 H 322.373 -6.38741 -1.47274 0
M  V30 3329 H 321.893 -5.30458 -2.79955 0
M  V30 3330 H 323.572 -5.88744 -2.68308 0
M  V30 3331 N 323.704 0.605807 -1.45491 0
M  V30 3332 C 324.952 1.36207 -1.49305 0
M  V30 3333 C 325.273 1.94519 -0.136863 0
M  V30 3334 O 324.543 1.77261 0.833983 0
M  V30 3335 H 323.123 0.50565 -0.549843 0
M  V30 3336 H 325.785 0.711239 -1.81459 0
M  V30 3337 H 324.881 2.18058 -2.23287 0
M  V30 3338 N 325.182 1.32811 0.848464 0
M  V30 3339 C 326.112 1.24882 1.97299 0
M  V30 3340 C 327.093 0.131357 1.69592 0
M  V30 3341 O 328.278 0.319553 1.91553 0
M  V30 3342 C 325.408 0.97746 3.33261 0
M  V30 3343 C 324.362 2.05682 3.75338 0
M  V30 3344 C 323.688 1.63777 5.09 0
M  V30 3345 C 324.988 3.47254 3.90144 0
M  V30 3346 H 326.682 2.18966 2.04191 0
M  V30 3347 H 324.228 1.05413 0.981029 0
M  V30 3348 H 326.181 0.908513 4.1149 0
M  V30 3349 H 324.905 0.000980011 3.266 0
M  V30 3350 H 323.564 2.11603 2.99366 0
M  V30 3351 H 323.212 0.648569 4.98801 0
M  V30 3352 H 322.912 2.36 5.38124 0
M  V30 3353 H 324.436 1.5833 5.89715 0
M  V30 3354 H 325.85 3.43888 4.58709 0
M  V30 3355 H 324.247 4.1788 4.30693 0
M  V30 3356 H 325.317 3.86462 2.92874 0
M  V30 3357 N 326.66 -1.06551 1.16123 0
M  V30 3358 C 327.909 -1.78687 0.935622 0
M  V30 3359 C 328.222 -1.88056 -0.538001 0
M  V30 3360 O 329.428 -2.56794 -0.88143 0
M  V30 3361 C 327.884 -3.21143 1.62466 0
M  V30 3362 C 327.492 -3.19949 3.13587 0
M  V30 3363 C 329.236 -3.9783 1.48092 0
M  V30 3364 C 327.143 -4.57108 3.75241 0
M  V30 3365 H 326.073 -0.669712 0.346412 0
M  V30 3366 H 328.724 -1.19534 1.39226 0
M  V30 3367 H 327.106 -3.80539 1.09572 0
M  V30 3368 H 328.28 -2.70151 3.73303 0
M  V30 3369 H 326.595 -2.5676 3.27816 0
M  V30 3370 H 329.192 -4.99217 1.91538 0
M  V30 3371 H 329.535 -4.14078 0.429507 0
M  V30 3372 H 330.068 -3.4495 1.98127 0
M  V30 3373 H 326.807 -4.46065 4.80319 0
M  V30 3374 H 326.327 -5.07111 3.20309 0
M  V30 3375 H 328.006 -5.26069 3.76644 0
M  V30 3376 N 328.138 -0.959301 -1.25041 0
M  V30 3377 C 329.385 -0.616611 -1.92884 0
M  V30 3378 C 329.713 0.847036 -1.75087 0
M  V30 3379 O 328.968 1.62374 -1.09239 0
M  V30 3380 C 329.267 -0.927136 -3.45165 0
M  V30 3381 C 328.933 -2.37757 -3.83122 0
M  V30 3382 C 327.595 -2.77402 -3.93194 0
M  V30 3383 C 329.947 -3.31929 -4.01836 0
M  V30 3384 C 327.275 -4.10277 -4.19392 0
M  V30 3385 C 329.627 -4.64423 -4.29528 0
M  V30 3386 C 328.291 -5.03857 -4.37818 0
M  V30 3387 H 327.561 -0.225634 -0.705812 0
M  V30 3388 H 330.208 -1.20921 -1.48493 0
M  V30 3389 H 328.513 -0.252195 -3.90987 0
M  V30 3390 H 330.21 -0.6405 -3.95852 0
M  V30 3391 H 326.8 -2.06013 -3.75841 0
M  V30 3392 H 330.984 -3.02488 -3.93465 0
M  V30 3393 H 326.24 -4.40467 -4.24027 0
M  V30 3394 H 330.414 -5.37369 -4.42953 0
M  V30 3395 H 328.041 -6.06843 -4.57871 0
M  V30 3396 N 329.616 1.39756 -0.72842 0
M  V30 3397 C 330.579 2.29012 -0.0927297 0
M  V30 3398 C 331.579 1.45992 0.674025 0
M  V30 3399 O 332.769 1.66749 0.50402 0
M  V30 3400 C 329.901 3.29396 0.878137 0
M  V30 3401 H 331.094 2.86729 -0.879011 0
M  V30 3402 H 328.647 1.48293 -0.493847 0
M  V30 3403 H 329.382 2.76722 1.69101 0
M  V30 3404 H 329.167 3.907 0.331051 0
M  V30 3405 H 330.657 3.96199 1.3197 0
M  V30 3406 N 331.094 0.475555 1.50254 0
M  V30 3407 C 332.341 -0.0778919 2.0235 0
M  V30 3408 C 332.669 -1.39319 1.35722 0
M  V30 3409 O 331.924 -1.89888 0.473395 0
M  V30 3410 C 332.223 -0.305114 3.56095 0
M  V30 3411 C 331.889 0.92903 4.41225 0
M  V30 3412 C 330.551 1.26739 4.6421 0
M  V30 3413 C 332.903 1.75054 4.90923 0
M  V30 3414 C 330.231 2.42724 5.34137 0
M  V30 3415 C 332.583 2.9017 5.62125 0
M  V30 3416 C 331.247 3.24416 5.83362 0
M  V30 3417 H 330.517 -0.0285027 0.740452 0
M  V30 3418 H 333.164 0.630543 1.80821 0
M  V30 3419 H 331.469 -1.09584 3.76163 0
M  V30 3420 H 333.166 -0.747377 3.93974 0
M  V30 3421 H 329.756 0.655428 4.23559 0
M  V30 3422 H 333.94 1.50231 4.73016 0
M  V30 3423 H 329.196 2.69525 5.48786 0
M  V30 3424 H 333.37 3.54169 5.99614 0
M  V30 3425 H 330.997 4.14396 6.37323 0
M  V30 3426 N 332.573 -1.56217 0.208337 0
M  V30 3427 C 333.536 -2.18455 -0.693557 0
M  V30 3428 C 334.536 -1.14268 -1.13135 0
M  V30 3429 O 335.726 -1.39577 -1.0423 0
M  V30 3430 C 332.858 -2.79727 -1.94848 0
M  V30 3431 H 334.051 -2.99519 -0.15114 0
M  V30 3432 H 331.604 -1.56245 -0.041287 0
M  V30 3433 H 332.339 -2.02497 -2.53309 0
M  V30 3434 H 332.124 -3.56009 -1.64316 0
M  V30 3435 H 333.614 -3.27475 -2.59133 0
M  V30 3436 N 334.051 0.0651679 -1.57465 0
M  V30 3437 C 334.999 1.09542 -2.05191 0
M  V30 3438 C 335.993 1.39675 -0.958509 0
M  V30 3439 O 337.199 1.39003 -1.14359 0
M  V30 3440 H 333.574 0.370623 -0.654326 0
M  V30 3441 H 335.545 0.666802 -2.90854 0
M  V30 3442 C 334.294 2.39881 -2.51699 0
M  V30 3443 H 333.617 2.17547 -3.3543 0
M  V30 3444 H 335.057 3.104 -2.88839 0
M  V30 3445 C 333.516 3.0631 -1.40271 0
M  V30 3446 O 334.046 3.94664 -0.748523 0
M  V30 3447 N 332.252 2.67041 -1.14618 0
M  V30 3448 H 331.799 1.95281 -1.67997 0
M  V30 3449 H 331.757 3.1181 -0.402688 0
M  V30 3450 N 335.529 1.53961 0.336706 0
M  V30 3451 C 336.492 1.81724 1.39675 0
M  V30 3452 C 337.492 0.688532 1.45313 0
M  V30 3453 O 338.682 0.956829 1.45569 0
M  V30 3454 C 335.814 1.96543 2.78538 0
M  V30 3455 H 337.007 2.76424 1.16318 0
M  V30 3456 H 334.56 1.45478 0.571474 0
M  V30 3457 H 335.295 1.0401 3.07168 0
M  V30 3458 H 335.08 2.78665 2.75841 0
M  V30 3459 H 336.57 2.19516 3.5525 0
M  V30 3460 N 337.007 -0.598083 1.45811 0
M  V30 3461 C 338.253 -1.35882 1.50545 0
M  V30 3462 C 338.586 -1.93616 0.150445 0
M  V30 3463 O 337.861 -1.75604 -0.83628 0
M  V30 3464 C 338.144 -2.49966 2.59208 0
M  V30 3465 C 337.997 -1.97367 4.04186 0
M  V30 3466 C 339.316 -3.52068 2.64076 0
M  V30 3467 H 336.435 -0.492717 0.548087 0
M  V30 3468 H 339.077 -0.673319 1.77669 0
M  V30 3469 H 337.227 -3.08443 2.3621 0
M  V30 3470 H 338.899 -1.43466 4.38423 0
M  V30 3471 H 337.142 -1.283 4.14393 0
M  V30 3472 H 337.813 -2.79649 4.75921 0
M  V30 3473 H 340.289 -3.03448 2.84708 0
M  V30 3474 H 339.165 -4.2937 3.41954 0
M  V30 3475 H 339.426 -4.08304 1.69531 0
M  V30 3476 N 338.485 -1.33259 -0.841409 0
M  V30 3477 C 339.733 -1.24326 -1.59334 0
M  V30 3478 C 340.054 0.191564 -1.94057 0
M  V30 3479 O 339.324 1.11967 -1.60749 0
M  V30 3480 H 337.904 -0.457174 -0.590763 0
M  V30 3481 H 340.566 -1.66947 -1.00571 0
M  V30 3482 H 339.662 -1.8352 -2.52442 0
M  V30 3483 N 339.963 1.05934 -1.16686 0
M  V30 3484 C 341.209 1.79065 -0.95203 0
M  V30 3485 C 341.542 1.87147 0.518629 0
M  V30 3486 O 340.817 1.36574 1.38484 0
M  V30 3487 C 341.1 3.23359 -1.58464 0
M  V30 3488 C 340.953 3.23336 -3.12689 0
M  V30 3489 C 342.272 4.21004 -1.28232 0
M  V30 3490 H 339.391 0.65005 -0.34728 0
M  V30 3491 H 342.033 1.23868 -1.44072 0
M  V30 3492 H 340.183 3.70493 -1.16908 0
M  V30 3493 H 341.855 2.84336 -3.6325 0
M  V30 3494 H 340.098 2.61886 -3.4583 0
M  V30 3495 H 340.769 4.25144 -3.52075 0
M  V30 3496 H 343.245 3.8233 -1.64203 0
M  V30 3497 H 342.121 5.20225 -1.75092 0
M  V30 3498 H 342.382 4.41639 -0.201791 0
M  V30 3499 N 341.441 0.965919 1.2453 0
M  V30 3500 C 342.404 0.499547 2.2369 0
M  V30 3501 C 343.404 -0.40294 1.5567 0
M  V30 3502 O 344.594 -0.19865 1.73064 0
M  V30 3503 C 341.726 -0.276792 3.39774 0
M  V30 3504 H 342.919 1.37613 2.66463 0
M  V30 3505 H 340.472 0.750324 1.37112 0
M  V30 3506 H 341.207 -1.17055 3.02438 0
M  V30 3507 H 340.992 0.370826 3.90343 0
M  V30 3508 H 342.482 -0.592175 4.1338 0
M  V30 3509 N 342.919 -1.39368 0.735821 0
M  V30 3510 C 343.852 -2.28155 0.0451175 0
M  V30 3511 C 344.83 -1.44433 -0.746852 0
M  V30 3512 O 346.014 -1.73823 -0.729237 0
M  V30 3513 C 343.141 -3.253 -0.943266 0
M  V30 3514 C 342.187 -4.25826 -0.239685 0
M  V30 3515 S 343.02 -5.25166 1.04693 0
M  V30 3516 C 344.176 -6.2587 0.0611639 0
M  V30 3517 H 344.409 -2.86388 0.79807 0
M  V30 3518 H 341.942 -1.45104 0.527653 0
M  V30 3519 H 343.9 -3.81789 -1.50824 0
M  V30 3520 H 342.561 -2.66085 -1.66906 0
M  V30 3521 H 341.754 -4.94229 -0.987596 0
M  V30 3522 H 341.356 -3.73141 0.253274 0
M  V30 3523 H 343.648 -6.73007 -0.778941 0
M  V30 3524 H 344.591 -7.04508 0.712362 0
M  V30 3525 H 344.999 -5.63639 -0.311602 0
M  V30 3526 N 344.397 -0.483516 -1.5 0
M  V30 3527 C 345.347 0.32306 -2.257 0
M  V30 3528 C 346.331 0.950755 -1.29805 0
M  V30 3529 O 347.523 0.861247 -1.54634 0
M  V30 3530 C 344.652 1.39724 -3.13579 0
M  V30 3531 C 343.738 0.776663 -4.16928 0
M  V30 3532 N 344.129 -0.1104 -5.0568 0
M  V30 3533 C 342.427 1.03922 -4.33724 0
M  V30 3534 C 343.128 -0.46387 -5.79848 0
M  V30 3535 N 342.104 0.163987 -5.43353 0
M  V30 3536 H 345.906 -0.360086 -2.91686 0
M  V30 3537 H 343.42 -0.298456 -1.59634 0
M  V30 3538 H 345.417 1.98837 -3.66428 0
M  V30 3539 H 344.077 2.08225 -2.49143 0
M  V30 3540 H 345.088 -0.480069 -5.1567 0
M  V30 3541 H 341.765 1.71829 -3.80501 0
M  V30 3542 H 343.155 -1.18854 -6.61304 0
M  V30 3543 N 345.875 1.56104 -0.216619 0
M  V30 3544 C 347.103 2.02563 0.421413 0
M  V30 3545 C 347.518 1.0965 1.53695 0
M  V30 3546 O 346.875 0.10521 1.82196 0
M  V30 3547 C 346.926 3.48584 0.957665 0
M  V30 3548 O 346.647 4.37953 -0.113389 0
M  V30 3549 C 348.148 4.10664 1.66943 0
M  V30 3550 H 345.368 0.662944 0.103665 0
M  V30 3551 H 347.912 2.01793 -0.331629 0
M  V30 3552 H 346.067 3.49985 1.661 0
M  V30 3553 H 346.481 5.23704 0.288932 0
M  V30 3554 H 347.955 5.14622 1.99671 0
M  V30 3555 H 348.432 3.55373 2.58083 0
M  V30 3556 H 349.038 4.13098 1.01142 0
M  V30 3557 N 347.353 -0.0568162 1.57498 0
M  V30 3558 C 348.599 -0.75422 1.88253 0
M  V30 3559 C 348.932 -1.76461 0.810865 0
M  V30 3560 O 348.207 -1.93691 -0.177259 0
M  V30 3561 C 348.49 -1.44878 3.2967 0
M  V30 3562 C 348.343 -0.453789 4.47505 0
M  V30 3563 C 349.662 -2.38994 3.69554 0
M  V30 3564 H 346.781 -0.272724 0.684683 0
M  V30 3565 H 349.423 -0.0172113 1.89992 0
M  V30 3566 H 347.573 -2.077 3.28318 0
M  V30 3567 H 349.245 0.170371 4.60985 0
M  V30 3568 H 347.488 0.229552 4.33192 0
M  V30 3569 H 348.159 -0.977699 5.43273 0
M  V30 3570 H 350.635 -1.86239 3.72095 0
M  V30 3571 H 349.511 -2.84587 4.69363 0
M  V30 3572 H 349.772 -3.24461 3.00296 0
M  V30 3573 N 348.832 -1.54138 -0.328536 0
M  V30 3574 C 350.08 -1.71765 -1.06496 0
M  V30 3575 C 350.401 -0.49149 -1.88704 0
M  V30 3576 O 349.671 0.494539 -1.89555 0
M  V30 3577 H 348.251 -0.633295 -0.396164 0
M  V30 3578 H 350.913 -1.91429 -0.366176 0
M  V30 3579 H 350.009 -2.5951 -1.73381 0
M  V30 3580 N 350.31 0.590341 -1.46126 0
M  V30 3581 C 351.557 1.34882 -1.5104 0
M  V30 3582 C 351.885 1.93849 -0.159021 0
M  V30 3583 O 351.14 1.76544 0.844436 0
M  V30 3584 C 351.439 2.5032 -2.55097 0
M  V30 3585 C 351.105 2.09394 -3.99331 0
M  V30 3586 C 349.767 1.97947 -4.38601 0
M  V30 3587 C 352.119 1.77712 -4.89967 0
M  V30 3588 C 349.447 1.53065 -5.66381 0
M  V30 3589 C 351.799 1.34312 -6.18177 0
M  V30 3590 C 350.463 1.21436 -6.56361 0
M  V30 3591 H 349.733 0.493568 -0.552695 0
M  V30 3592 H 352.38 0.665539 -1.79563 0
M  V30 3593 H 350.685 3.24062 -2.20207 0
M  V30 3594 H 352.382 3.08541 -2.56132 0
M  V30 3595 H 348.972 2.19235 -3.68285 0
M  V30 3596 H 353.156 1.85445 -4.60352 0
M  V30 3597 H 348.412 1.41733 -5.94745 0
M  V30 3598 H 352.586 1.08849 -6.87841 0
M  V30 3599 H 350.213 0.864345 -7.5527 0
M  V30 3600 N 351.788 1.33704 0.83433 0
M  V30 3601 C 352.751 1.24244 1.92603 0
M  V30 3602 C 353.751 0.160383 1.59998 0
M  V30 3603 O 354.941 0.412228 1.69252 0
M  V30 3604 C 352.073 0.91555 3.28376 0
M  V30 3605 H 353.266 2.21287 2.02416 0
M  V30 3606 H 350.819 1.17827 1.02696 0
M  V30 3607 H 351.554 -0.0521886 3.24258 0
M  V30 3608 H 351.339 1.69811 3.53422 0
M  V30 3609 H 352.829 0.874231 4.08347 0
M  V30 3610 N 353.266 -1.05314 1.17247 0
M  V30 3611 C 354.176 -2.16538 0.90268 0
M  V30 3612 C 355.192 -1.73523 -0.128707 0
M  V30 3613 O 356.368 -2.01337 0.0502701 0
M  V30 3614 C 353.433 -3.44167 0.418356 0
M  V30 3615 C 352.494 -4.01635 1.51618 0
M  V30 3616 C 351.727 -5.23171 1.05487 0
M  V30 3617 O 351.95 -5.70327 -0.0914715 0
M  V30 3618 O 350.884 -5.72848 1.8474 0
M  V30 3619 H 354.71 -2.42145 1.83302 0
M  V30 3620 H 352.295 -1.15037 0.953246 0
M  V30 3621 H 354.177 -4.21112 0.155726 0
M  V30 3622 H 352.852 -3.20063 -0.48385 0
M  V30 3623 H 351.759 -3.26135 1.83268 0
M  V30 3624 H 353.092 -4.30053 2.39405 0
M  V30 3625 N 354.744 -0.972509 -1.24016 0
M  V30 3626 C 355.972 -0.654803 -1.96265 0
M  V30 3627 C 356.387 0.776708 -1.72083 0
M  V30 3628 O 355.744 1.52171 -1.00748 0
M  V30 3629 C 355.795 -0.92592 -3.49441 0
M  V30 3630 O 355.516 -2.30116 -3.72798 0
M  V30 3631 C 357.017 -0.623068 -4.38899 0
M  V30 3632 H 354.237 -0.243907 -0.6251 0
M  V30 3633 H 356.781 -1.30175 -1.57717 0
M  V30 3634 H 354.936 -0.325108 -3.86033 0
M  V30 3635 H 355.35 -2.38483 -4.67147 0
M  V30 3636 H 356.824 -0.863189 -5.45209 0
M  V30 3637 H 357.301 0.442754 -4.36963 0
M  V30 3638 H 357.907 -1.204 -4.07902 0
M  V30 3639 N 356.222 1.38976 -0.743202 0
M  V30 3640 C 357.468 2.0064 -0.295189 0
M  V30 3641 C 357.801 1.5885 1.11716 0
M  V30 3642 O 357.076 0.821181 1.76315 0
M  V30 3643 C 357.359 3.578 -0.406318 0
M  V30 3644 C 357.212 4.09586 -1.85903 0
M  V30 3645 C 358.531 4.39616 0.206439 0
M  V30 3646 H 355.65 0.728935 -0.108733 0
M  V30 3647 H 358.292 1.65067 -0.940897 0
M  V30 3648 H 356.442 3.88235 0.143419 0
M  V30 3649 H 358.114 3.89837 -2.46627 0
M  V30 3650 H 356.357 3.6284 -2.3776 0
M  V30 3651 H 357.028 5.18708 -1.888 0
M  V30 3652 H 359.504 4.15273 -0.262283 0
M  V30 3653 H 358.38 5.48812 0.0983819 0
M  V30 3654 H 358.641 4.22754 1.2935 0
M  V30 3655 N 357.7 0.491464 1.49741 0
M  V30 3656 C 359.116 0.146835 1.58923 0
M  V30 3657 C 359.316 -1.34804 1.49767 0
M  V30 3658 O 358.372 -2.12317 1.36667 0
M  V30 3659 C 359.685 0.715157 2.92072 0
M  V30 3660 C 361.233 0.680407 3.05515 0
M  V30 3661 C 361.708 1.22663 4.41269 0
M  V30 3662 N 363.199 1.18691 4.47735 0
M  V30 3663 C 363.934 1.57984 5.51207 0
M  V30 3664 N 363.43 2.04824 6.6183 0
M  V30 3665 N 365.223 1.49459 5.41866 0
M  V30 3666 H 357.374 1.46347 1.53936 0
M  V30 3667 H 359.637 0.606453 0.728642 0
M  V30 3668 H 359.343 1.76317 3.04311 0
M  V30 3669 H 359.217 0.17018 3.76816 0
M  V30 3670 H 361.604 -0.358743 2.92911 0
M  V30 3671 H 361.685 1.26242 2.22478 0
M  V30 3672 H 361.329 2.26451 4.54623 0
M  V30 3673 H 361.259 0.620637 5.2293 0
M  V30 3674 H 363.75 0.843605 3.68364 0
M  V30 3675 H 364.063 2.32901 7.3687 0
M  V30 3676 H 362.408 2.08791 6.62896 0
M  V30 3677 H 365.599 1.12692 4.54333 0
M  V30 3678 H 365.772 1.80406 6.22381 0
M  V30 3679 N 359.178 -1.55987 0.224894 0
M  V30 3680 C 360.455 -1.90232 -0.455083 0
M  V30 3681 C 360.835 -1.14269 -1.77499 0
M  V30 3682 O 360.183 -0.253079 -2.27094 0
M  V30 3683 C 360.393 -3.42993 -0.644758 0
M  V30 3684 C 361.741 -4.13821 -0.950669 0
M  V30 3685 O 362.765 -3.4861 -0.731423 0
M  V30 3686 O 361.624 -5.29128 -1.36695 0
M  V30 3687 H 358.718 -0.79108 -0.241084 0
M  V30 3688 H 361.264 -1.67581 0.267327 0
M  V30 3689 H 360.036 -3.90252 0.28613 0
M  V30 3690 H 359.659 -3.71434 -1.41853 0
M  V30 3691 N 360.656 0.0484629 -1.57525 0
M  V30 3692 C 361.586 1.0549 -2.08313 0
M  V30 3693 C 362.567 1.38929 -0.981463 0
M  V30 3694 O 363.752 1.48151 -1.25558 0
M  V30 3695 C 360.882 2.36162 -2.54646 0
M  V30 3696 C 359.836 2.17016 -3.68901 0
M  V30 3697 C 359.162 3.53278 -4.01371 0
M  V30 3698 C 360.462 1.57219 -4.98076 0
M  V30 3699 H 362.156 0.632195 -2.92649 0
M  V30 3700 H 359.702 0.302654 -1.40784 0
M  V30 3701 H 361.655 3.06882 -2.88793 0
M  V30 3702 H 360.379 2.80456 -1.67368 0
M  V30 3703 H 359.038 1.48733 -3.35073 0
M  V30 3704 H 358.686 3.95185 -3.11188 0
M  V30 3705 H 358.386 3.41299 -4.78318 0
M  V30 3706 H 359.91 4.25391 -4.38035 0
M  V30 3707 H 361.324 2.17832 -5.30304 0
M  V30 3708 H 359.721 1.55871 -5.79503 0
M  V30 3709 H 360.791 0.535956 -4.81929 0
M  V30 3710 N 362.134 1.5431 0.320358 0
M  V30 3711 C 363.064 1.86912 1.3995 0
M  V30 3712 C 364.045 0.726211 1.53819 0
M  V30 3713 O 365.23 0.980233 1.67646 0
M  V30 3714 C 362.36 2.09932 2.7667 0
M  V30 3715 C 361.314 3.25776 2.77586 0
M  V30 3716 C 360.64 3.34173 4.17412 0
M  V30 3717 C 361.94 4.6335 2.41048 0
M  V30 3718 H 363.634 2.77292 1.12914 0
M  V30 3719 H 361.18 1.33421 0.541738 0
M  V30 3720 H 363.133 2.31324 3.52232 0
M  V30 3721 H 361.857 1.16304 3.0519 0
M  V30 3722 H 360.516 3.04276 2.04479 0
M  V30 3723 H 360.164 2.38098 4.43078 0
M  V30 3724 H 359.864 4.12033 4.18931 0
M  V30 3725 H 361.388 3.57803 4.94782 0
M  V30 3726 H 362.802 4.84602 3.06324 0
M  V30 3727 H 361.199 5.43782 2.53813 0
M  V30 3728 H 362.269 4.65381 1.36193 0
M  V30 3729 N 363.613 -0.582584 1.46437 0
M  V30 3730 C 364.545 -1.70618 1.53043 0
M  V30 3731 C 365.558 -1.57322 0.418769 0
M  V30 3732 O 366.747 -1.64744 0.687136 0
M  V30 3733 C 363.847 -3.08869 1.39474 0
M  V30 3734 C 363.02 -3.48166 2.64762 0
M  V30 3735 C 362.079 -4.65478 2.4539 0
M  V30 3736 O 361.105 -4.71333 3.19114 0
M  V30 3737 N 362.307 -5.60365 1.51564 0
M  V30 3738 H 365.072 -1.65405 2.49923 0
M  V30 3739 H 362.633 -0.768567 1.42494 0
M  V30 3740 H 364.625 -3.85143 1.24287 0
M  V30 3741 H 363.195 -3.08449 0.507758 0
M  V30 3742 H 362.415 -2.61598 2.9489 0
M  V30 3743 H 363.703 -3.71188 3.4799 0
M  V30 3744 H 363.101 -5.5837 0.907705 0
M  V30 3745 H 361.658 -6.36068 1.4234 0
M  V30 3746 N 365.091 -1.34144 -0.827227 0
M  V30 3747 C 366.001 -1.27428 -1.96975 0
M  V30 3748 C 367.017 -0.182728 -1.73038 0
M  V30 3749 O 368.193 -0.408426 -1.97215 0
M  V30 3750 C 365.258 -1.02526 -3.31194 0
M  V30 3751 C 364.319 -2.20796 -3.68168 0
M  V30 3752 C 363.552 -1.97073 -4.95982 0
M  V30 3753 O 363.775 -0.926822 -5.6282 0
M  V30 3754 O 362.709 -2.83912 -5.30733 0
M  V30 3755 H 366.535 -2.23537 -2.05584 0
M  V30 3756 H 364.12 -1.14307 -0.961989 0
M  V30 3757 H 366.002 -0.904026 -4.11589 0
M  V30 3758 H 364.677 -0.0945389 -3.23562 0
M  V30 3759 H 363.584 -2.38477 -2.88235 0
M  V30 3760 H 364.917 -3.12243 -3.8048 0
M  V30 3761 N 366.569 1.04691 -1.17803 0
M  V30 3762 C 367.799 1.81183 -0.992788 0
M  V30 3763 C 368.207 1.8347 0.462098 0
M  V30 3764 O 367.55 1.2643 1.33271 0
M  V30 3765 C 367.612 3.28363 -1.46349 0
M  V30 3766 C 367.276 3.49749 -2.94151 0
M  V30 3767 C 368.273 3.41456 -3.92051 0
M  V30 3768 C 365.958 3.76548 -3.32441 0
M  V30 3769 C 367.952 3.59656 -5.26238 0
M  V30 3770 C 365.639 3.94396 -4.66792 0
M  V30 3771 C 366.637 3.8595 -5.635 0
M  V30 3772 O 366.325 4.03294 -6.9542 0
M  V30 3773 H 366.057 0.577622 -0.351182 0
M  V30 3774 H 368.611 1.32876 -1.5663 0
M  V30 3775 H 366.841 3.77609 -0.833574 0
M  V30 3776 H 368.53 3.86395 -1.24313 0
M  V30 3777 H 369.296 3.20723 -3.63815 0
M  V30 3778 H 365.175 3.82224 -2.57732 0
M  V30 3779 H 368.719 3.52979 -6.01707 0
M  V30 3780 H 364.616 4.14622 -4.94731 0
M  V30 3781 H 365.384 4.2049 -7.02232 0
M  V30 3782 N 368.047 0.979072 1.23499 0
M  V30 3783 C 369.295 0.645941 1.91499 0
M  V30 3784 C 369.616 -0.822948 1.76784 0
M  V30 3785 O 368.886 -1.58854 1.14639 0
M  V30 3786 H 367.466 0.235919 0.708767 0
M  V30 3787 H 370.128 1.2426 1.50152 0
M  V30 3788 H 369.224 0.896411 2.9895 0
M  V30 3789 N 369.525 -1.3858 0.750561 0
M  V30 3790 C 370.488 -2.28836 0.129152 0
M  V30 3791 C 371.488 -1.47045 -0.650714 0
M  V30 3792 O 372.678 -1.6753 -0.477428 0
M  V30 3793 C 369.81 -3.30751 -0.825622 0
M  V30 3794 H 371.003 -2.85294 0.924516 0
M  V30 3795 H 368.556 -1.47489 0.517376 0
M  V30 3796 H 369.291 -2.79378 -1.64677 0
M  V30 3797 H 369.076 -3.91177 -0.268852 0
M  V30 3798 H 370.566 -3.98249 -1.2565 0
M  V30 3799 N 371.003 -0.499398 -1.49478 0
M  V30 3800 C 372.414 -0.051215 -1.8663 0
M  V30 3801 C 372.765 1.36238 -1.41186 0
M  V30 3802 O 371.89 2.01502 -0.789051 0
M  V30 3803 C 372.485 -0.0861651 -3.3869 0
M  V30 3804 C 371.044 0.30667 -3.75149 0
M  V30 3805 C 370.191 -0.459397 -2.73468 0
M  V30 3806 H 373.142 -0.712264 -1.41818 0
M  V30 3807 H 373.163 0.709507 -3.73826 0
M  V30 3808 H 372.675 -1.11512 -3.71735 0
M  V30 3809 H 370.776 1.33892 -3.47712 0
M  V30 3810 H 370.889 -0.0116669 -4.79099 0
M  V30 3811 H 369.253 0.0905645 -2.54539 0
M  V30 3812 H 370.036 -1.4884 -3.09357 0
M  V30 3813 N 372.481 1.55866 -0.233164 0
M  V30 3814 C 373.73 1.97779 0.39579 0
M  V30 3815 C 374.043 1.12419 1.60066 0
M  V30 3816 O 375.249 1.44283 2.29988 0
M  V30 3817 C 373.705 3.5188 0.755556 0
M  V30 3818 C 373.313 4.45959 -0.427152 0
M  V30 3819 C 375.057 4.02479 1.34946 0
M  V30 3820 C 372.964 5.91383 -0.0443043 0
M  V30 3821 H 371.894 0.738592 0.15165 0
M  V30 3822 H 374.545 1.80486 -0.331212 0
M  V30 3823 H 372.927 3.64816 1.5403 0
M  V30 3824 H 374.101 4.44776 -1.20462 0
M  V30 3825 H 372.416 4.05765 -0.935068 0
M  V30 3826 H 375.013 5.08637 1.649 0
M  V30 3827 H 375.356 3.49014 2.26925 0
M  V30 3828 H 375.889 3.92813 0.62791 0
M  V30 3829 H 372.628 6.48857 -0.930874 0
M  V30 3830 H 372.148 5.95734 0.697238 0
M  V30 3831 H 373.827 6.45893 0.378334 0
M  V30 3832 N 373.959 -0.0401083 1.57549 0
M  V30 3833 C 375.205 -0.734211 1.89043 0
M  V30 3834 C 375.538 -1.75591 0.829535 0
M  V30 3835 O 374.813 -1.93868 -0.156706 0
M  V30 3836 C 375.096 -1.41374 3.31188 0
M  V30 3837 C 374.949 -0.406299 4.47961 0
M  V30 3838 C 376.268 -2.35061 3.72068 0
M  V30 3839 H 373.387 -0.265447 0.687537 0
M  V30 3840 H 376.029 0.00294087 1.9 0
M  V30 3841 H 374.179 -2.04206 3.30503 0
M  V30 3842 H 375.851 0.219255 4.60779 0
M  V30 3843 H 374.094 0.275485 4.32924 0
M  V30 3844 H 374.765 -0.920022 5.44279 0
M  V30 3845 H 377.241 -1.82282 3.74049 0
M  V30 3846 H 376.117 -2.79593 4.72355 0
M  V30 3847 H 376.378 -3.21258 3.0372 0
M  V30 3848 N 375.437 -1.54477 -0.31217 0
M  V30 3849 C 376.714 -1.63891 -1.06767 0
M  V30 3850 C 377.094 -0.480028 -2.0557 0
M  V30 3851 O 376.442 0.524487 -2.22399 0
M  V30 3852 C 376.652 -3.01402 -1.75948 0
M  V30 3853 C 378 -3.57838 -2.28554 0
M  V30 3854 O 379.024 -3.03782 -1.85998 0
M  V30 3855 O 377.883 -4.52462 -3.06497 0
M  V30 3856 H 374.977 -0.664125 -0.492816 0
M  V30 3857 H 377.523 -1.66823 -0.311149 0
M  V30 3858 H 376.295 -3.77187 -1.04144 0
M  V30 3859 H 375.918 -3.02199 -2.58383 0
M  V30 3860 N 376.915 0.57481 -1.46744 0
M  V30 3861 C 378.326 1.15695 -1.46532 0
M  V30 3862 C 378.677 1.95068 -0.210425 0
M  V30 3863 O 377.802 2.05241 0.685944 0
M  V30 3864 C 378.397 2.1048 -2.65487 0
M  V30 3865 C 376.956 2.64002 -2.68291 0
M  V30 3866 C 376.103 1.40026 -2.39349 0
M  V30 3867 H 379.054 0.362325 -1.54509 0
M  V30 3868 H 379.075 2.94074 -2.41455 0
M  V30 3869 H 378.587 1.52683 -3.56805 0
M  V30 3870 H 376.688 3.25646 -1.81067 0
M  V30 3871 H 376.801 3.06197 -3.68483 0
M  V30 3872 H 375.165 1.70106 -1.89568 0
M  V30 3873 H 375.948 0.840485 -3.32852 0
M  V30 3874 N 378.394 1.34581 0.820102 0
M  V30 3875 C 379.643 1.26437 1.57151 0
M  V30 3876 C 379.956 -0.163111 1.94919 0
M  V30 3877 O 381.162 -0.366722 2.69012 0
M  V30 3878 C 379.618 2.21658 2.83541 0
M  V30 3879 C 379.226 3.69679 2.53065 0
M  V30 3880 C 380.97 2.22428 3.61561 0
M  V30 3881 C 378.877 4.56761 3.75664 0
M  V30 3882 H 377.807 0.469707 0.589823 0
M  V30 3883 H 380.458 1.59763 0.902656 0
M  V30 3884 H 378.84 1.81287 3.52067 0
M  V30 3885 H 380.014 4.18605 1.92631 0
M  V30 3886 H 378.329 3.71384 1.88316 0
M  V30 3887 H 380.926 2.8471 4.52597 0
M  V30 3888 H 381.269 1.22434 3.97889 0
M  V30 3889 H 381.802 2.61259 2.99981 0
M  V30 3890 H 378.541 5.57702 3.44454 0
M  V30 3891 H 378.061 4.12568 4.35371 0
M  V30 3892 H 379.74 4.71509 4.43044 0
M  V30 3893 N 379.872 -1.04064 1.18357 0
M  V30 3894 C 380.82 -2.14187 0.907007 0
M  V30 3895 C 381.814 -1.68879 -0.132725 0
M  V30 3896 O 383.02 -1.79993 0.0154248 0
M  V30 3897 H 379.395 -0.699585 0.275835 0
M  V30 3898 H 381.366 -2.34711 1.84264 0
M  V30 3899 C 380.115 -3.44785 0.449254 0
M  V30 3900 H 379.438 -3.80058 1.24081 0
M  V30 3901 H 380.878 -4.22974 0.294737 0
M  V30 3902 C 379.337 -3.26391 -0.834909 0
M  V30 3903 O 379.867 -3.53973 -1.89911 0
M  V30 3904 N 378.073 -2.79726 -0.787523 0
M  V30 3905 H 377.62 -2.5748 0.0787347 0
M  V30 3906 H 377.578 -2.67798 -1.64716 0
M  V30 3907 N 381.35 -0.985608 -1.22978 0
M  V30 3908 C 382.627 -0.573599 -1.87001 0
M  V30 3909 C 383.007 0.949213 -1.88555 0
M  V30 3910 O 382.355 1.82811 -1.37086 0
M  V30 3911 C 382.565 -1.18564 -3.28243 0
M  V30 3912 C 383.913 -1.28163 -4.04796 0
M  V30 3913 O 384.937 -1.13949 -3.37482 0
M  V30 3914 O 383.796 -1.50832 -5.25273 0
M  V30 3915 H 380.89 -0.193868 -0.803955 0
M  V30 3916 H 383.436 -1.08102 -1.30813 0
M  V30 3917 H 382.208 -2.22758 -3.21706 0
M  V30 3918 H 381.831 -0.663363 -3.92027 0
M  V30 3919 N 382.828 1.3818 -0.7579 0
M  V30 3920 C 384.077 1.99261 -0.312744 0
M  V30 3921 C 384.39 1.60846 1.11301 0
M  V30 3922 O 385.596 2.14929 1.65885 0
M  V30 3923 C 384.052 3.56294 -0.50821 0
M  V30 3924 C 383.66 4.03657 -1.94333 0
M  V30 3925 C 385.404 4.24313 -0.125982 0
M  V30 3926 C 383.311 5.53347 -2.08712 0
M  V30 3927 H 382.241 0.745456 -0.113185 0
M  V30 3928 H 384.892 1.57889 -0.935056 0
M  V30 3929 H 383.274 3.95575 0.183353 0
M  V30 3930 H 384.448 3.75655 -2.66871 0
M  V30 3931 H 382.763 3.48376 -2.28086 0
M  V30 3932 H 385.36 5.34279 -0.212125 0
M  V30 3933 H 385.703 4.05962 0.921964 0
M  V30 3934 H 386.236 3.90285 -0.769563 0
M  V30 3935 H 382.975 5.76607 -3.11777 0
M  V30 3936 H 382.495 5.83078 -1.4064 0
M  V30 3937 H 384.174 6.19111 -1.87912 0
M  V30 3938 N 384.306 0.507319 1.49211 0
M  V30 3939 C 385.722 0.163682 1.58758 0
M  V30 3940 C 385.922 -1.33208 1.51188 0
M  V30 3941 O 384.978 -2.10855 1.38911 0
M  V30 3942 C 386.291 0.746095 2.91297 0
M  V30 3943 C 387.839 0.712773 3.04776 0
M  V30 3944 C 388.314 1.27336 4.39943 0
M  V30 3945 N 389.805 1.23433 4.46451 0
M  V30 3946 C 390.54 1.63821 5.495 0
M  V30 3947 N 390.036 2.11832 6.5962 0
M  V30 3948 N 391.829 1.55198 5.4025 0
M  V30 3949 H 383.98 1.47972 1.52375 0
M  V30 3950 H 386.243 0.614147 0.722168 0
M  V30 3951 H 385.949 1.79534 3.02424 0
M  V30 3952 H 385.823 0.210137 3.76614 0
M  V30 3953 H 388.21 -0.327656 2.93275 0
M  V30 3954 H 388.291 1.28595 2.21127 0
M  V30 3955 H 387.935 2.3126 4.52196 0
M  V30 3956 H 387.865 0.676066 5.22242 0
M  V30 3957 H 390.356 0.882627 3.67448 0
M  V30 3958 H 390.669 2.40703 7.34358 0
M  V30 3959 H 389.014 2.1581 6.60644 0
M  V30 3960 H 392.205 1.17505 4.53112 0
M  V30 3961 H 392.378 1.86997 6.20432 0
M  V30 3962 N 385.784 -1.5574 0.241426 0
M  V30 3963 C 387.033 -1.97986 -0.385295 0
M  V30 3964 C 387.346 -1.13267 -1.59468 0
M  V30 3965 O 388.552 -1.45501 -2.2922 0
M  V30 3966 C 387.008 -3.52275 -0.736884 0
M  V30 3967 C 386.616 -4.45726 0.450796 0
M  V30 3968 C 388.36 -4.03189 -1.3281 0
M  V30 3969 C 386.267 -5.91352 0.0756662 0
M  V30 3970 H 385.197 -0.739386 -0.147731 0
M  V30 3971 H 387.848 -1.80308 0.340779 0
M  V30 3972 H 386.23 -3.65628 -1.52094 0
M  V30 3973 H 387.404 -4.44131 1.22819 0
M  V30 3974 H 385.719 -4.05264 0.956573 0
M  V30 3975 H 388.316 -5.09505 -1.62201 0
M  V30 3976 H 388.659 -3.50212 -2.25071 0
M  V30 3977 H 389.192 -3.93141 -0.607069 0
M  V30 3978 H 385.931 -6.48354 0.965272 0
M  V30 3979 H 385.451 -5.96095 -0.665635 0
M  V30 3980 H 387.13 -6.46084 -0.344075 0
M  V30 3981 N 387.262 0.0317525 -1.57568 0
M  V30 3982 C 388.511 0.722131 -1.8833 0
M  V30 3983 C 388.824 1.76664 -0.839587 0
M  V30 3984 O 390.03 2.50942 -1.03635 0
M  V30 3985 C 388.486 1.33544 -3.34207 0
M  V30 3986 C 388.094 0.327415 -4.46802 0
M  V30 3987 C 389.838 2.00585 -3.7412 0
M  V30 3988 C 387.745 0.948915 -5.83738 0
M  V30 3989 H 386.675 0.273466 -0.702661 0
M  V30 3990 H 389.326 -0.0235811 -1.83485 0
M  V30 3991 H 387.708 2.13077 -3.33788 0
M  V30 3992 H 388.882 -0.441006 -4.58685 0
M  V30 3993 H 387.197 -0.240758 -4.15703 0
M  V30 3994 H 389.794 2.47932 -4.73744 0
M  V30 3995 H 390.137 2.82285 -3.05975 0
M  V30 3996 H 390.67 1.27831 -3.76702 0
M  V30 3997 H 387.409 0.171387 -6.55276 0
M  V30 3998 H 386.929 1.68724 -5.7558 0
M  V30 3999 H 388.608 1.45705 -6.3038 0
M  V30 4000 N 388.74 1.54641 0.303973 0
M  V30 4001 C 389.703 1.84646 1.35789 0
M  V30 4002 C 390.703 0.7192 1.4382 0
M  V30 4003 O 391.893 0.987491 1.43507 0
M  V30 4004 C 389.025 2.02407 2.74307 0
M  V30 4005 H 390.218 2.78829 1.10429 0
M  V30 4006 H 387.771 1.46658 0.540487 0
M  V30 4007 H 388.506 1.10502 3.04893 0
M  V30 4008 H 388.291 2.84453 2.69868 0
M  V30 4009 H 389.781 2.27002 3.50514 0
M  V30 4010 N 390.218 -0.567019 1.47046 0
M  V30 4011 C 391.464 -1.32658 1.53394 0
M  V30 4012 C 391.797 -1.93254 0.19148 0
M  V30 4013 O 391.072 -1.77338 -0.798844 0
M  V30 4014 C 391.355 -2.44412 2.64452 0
M  V30 4015 C 391.208 -1.88749 4.08282 0
M  V30 4016 C 392.527 -3.46387 2.71485 0
M  V30 4017 H 389.646 -0.48098 0.558415 0
M  V30 4018 H 392.288 -0.635481 1.79058 0
M  V30 4019 H 390.438 -3.03363 2.427 0
M  V30 4020 H 392.11 -1.34134 4.41368 0
M  V30 4021 H 390.353 -1.19481 4.17021 0
M  V30 4022 H 391.024 -2.69491 4.81745 0
M  V30 4023 H 393.5 -2.9734 2.91081 0
M  V30 4024 H 392.376 -4.2202 3.50985 0
M  V30 4025 H 392.637 -4.04616 1.78153 0
M  V30 4026 N 391.696 -1.35014 -0.812953 0
M  V30 4027 C 392.942 -1.2812 -1.57204 0
M  V30 4028 C 393.275 0.145869 -1.93651 0
M  V30 4029 O 392.55 1.0937 -1.60836 0
M  V30 4030 C 392.833 -2.18162 -2.86492 0
M  V30 4031 C 392.686 -3.69454 -2.56561 0
M  V30 4032 C 394.005 -2.07439 -3.88145 0
M  V30 4033 H 391.124 -0.466746 -0.570366 0
M  V30 4034 H 393.766 -1.65357 -0.935783 0
M  V30 4035 H 391.916 -1.86535 -3.40789 0
M  V30 4036 H 393.588 -4.11493 -2.08497 0
M  V30 4037 H 391.831 -3.9005 -1.89851 0
M  V30 4038 H 392.502 -4.27835 -3.48799 0
M  V30 4039 H 394.978 -2.35228 -3.4323 0
M  V30 4040 H 393.854 -2.7265 -4.76396 0
M  V30 4041 H 394.115 -1.05439 -4.29343 0
M  V30 4042 N 393.175 1.03435 -1.18907 0
M  V30 4043 C 394.4 1.80919 -1.01406 0
M  V30 4044 C 394.825 1.83055 0.432721 0
M  V30 4045 O 394.183 1.25252 1.31079 0
M  V30 4046 C 394.231 3.24091 -1.58105 0
M  V30 4047 O 393.335 4.04434 -0.806669 0
M  V30 4048 H 392.676 0.558709 -0.358803 0
M  V30 4049 H 395.206 1.30223 -1.57807 0
M  V30 4050 H 395.216 3.74853 -1.61087 0
M  V30 4051 H 393.891 3.21851 -2.6341 0
M  V30 4052 H 392.468 3.63091 -0.849666 0
M  V30 4053 N 394.653 0.992116 1.22453 0
M  V30 4054 C 395.899 0.668523 1.91464 0
M  V30 4055 C 396.232 -0.797313 1.77078 0
M  V30 4056 O 395.507 -1.5765 1.13916 0
M  V30 4057 C 395.79 1.07424 3.43703 0
M  V30 4058 C 395.643 2.59857 3.67143 0
M  V30 4059 C 396.962 0.626891 4.35612 0
M  V30 4060 H 394.081 0.244341 0.695318 0
M  V30 4061 H 396.723 1.2355 1.44345 0
M  V30 4062 H 394.873 0.591816 3.83966 0
M  V30 4063 H 396.545 3.15764 3.3629 0
M  V30 4064 H 394.788 3.01961 3.11451 0
M  V30 4065 H 395.459 2.83296 4.73759 0
M  V30 4066 H 397.935 1.04125 4.02861 0
M  V30 4067 H 396.811 0.939076 5.40807 0
M  V30 4068 H 397.072 -0.472457 4.39568 0
M  V30 4069 N 396.131 -1.37776 0.765217 0
M  V30 4070 C 397.359 -2.04124 0.337767 0
M  V30 4071 C 397.774 -1.57715 -1.03785 0
M  V30 4072 O 397.131 -0.755447 -1.6613 0
M  V30 4073 C 397.182 -3.59658 0.364442 0
M  V30 4074 O 396.903 -4.04367 1.68579 0
M  V30 4075 C 398.404 -4.43236 -0.0754221 0
M  V30 4076 H 395.624 -0.655696 0.142491 0
M  V30 4077 H 398.168 -1.76238 1.03732 0
M  V30 4078 H 396.323 -3.86339 -0.286471 0
M  V30 4079 H 396.737 -4.98857 1.61993 0
M  V30 4080 H 398.211 -5.52 -0.00560067 0
M  V30 4081 H 398.688 -4.2455 -1.12491 0
M  V30 4082 H 399.294 -4.21767 0.547055 0
M  V30 4083 N 397.609 -0.515225 -1.4894 0
M  V30 4084 C 398.855 0.0242508 -2.02785 0
M  V30 4085 C 399.188 1.35323 -1.39289 0
M  V30 4086 O 398.463 1.87041 -0.533469 0
M  V30 4087 C 398.746 0.16184 -3.59736 0
M  V30 4088 C 398.599 -1.19127 -4.33738 0
M  V30 4089 C 399.918 0.895719 -4.30888 0
M  V30 4090 H 397.037 0.00733914 -0.736963 0
M  V30 4091 H 399.679 -0.669395 -1.77818 0
M  V30 4092 H 397.829 0.752624 -3.8114 0
M  V30 4093 H 399.501 -1.82202 -4.23792 0
M  V30 4094 H 397.744 -1.77695 -3.95736 0
M  V30 4095 H 398.415 -1.04815 -5.41957 0
M  V30 4096 H 400.891 0.394528 -4.14225 0
M  V30 4097 H 399.767 0.960859 -5.40425 0
M  V30 4098 H 400.028 1.9427 -3.97129 0
M  V30 4099 N 399.087 1.5561 -0.249682 0
M  V30 4100 C 400.017 2.24477 0.642826 0
M  V30 4101 C 400.998 1.22601 1.17911 0
M  V30 4102 O 402.183 1.5126 1.21795 0
M  V30 4103 C 399.313 2.94638 1.83863 0
M  V30 4104 C 398.267 4.03227 1.435 0
M  V30 4105 C 397.593 4.60828 2.71186 0
M  V30 4106 C 398.893 5.18796 0.604002 0
M  V30 4107 H 400.587 2.99321 0.0685625 0
M  V30 4108 H 398.133 1.43965 0.0315363 0
M  V30 4109 H 400.086 3.41517 2.46868 0
M  V30 4110 H 398.81 2.17287 2.43832 0
M  V30 4111 H 397.469 3.57121 0.828275 0
M  V30 4112 H 397.117 3.80174 3.29358 0
M  V30 4113 H 396.817 5.34132 2.44901 0
M  V30 4114 H 398.341 5.10442 3.35084 0
M  V30 4115 H 399.755 5.61883 1.13842 0
M  V30 4116 H 398.152 5.98506 0.437097 0
M  V30 4117 H 399.222 4.83384 -0.383147 0
M  V30 4118 N 400.565 -0.0233959 1.57583 0
M  V30 4119 C 401.495 -1.02162 2.09965 0
M  V30 4120 C 402.476 -1.3735 1.00344 0
M  V30 4121 O 403.661 -1.46135 1.27899 0
M  V30 4122 C 400.791 -2.32081 2.58371 0
M  V30 4123 C 399.745 -2.1112 3.72307 0
M  V30 4124 C 399.071 -3.46848 4.06941 0
M  V30 4125 C 400.371 -1.49276 5.00514 0
M  V30 4126 H 402.065 -0.585557 2.93618 0
M  V30 4127 H 399.611 -0.280218 1.41247 0
M  V30 4128 H 401.564 -3.02249 2.93639 0
M  V30 4129 H 400.288 -2.77758 1.71808 0
M  V30 4130 H 398.947 -1.43384 3.37397 0
M  V30 4131 H 398.595 -3.90184 3.17436 0
M  V30 4132 H 398.295 -3.33646 4.83688 0
M  V30 4133 H 399.819 -4.18369 4.44747 0
M  V30 4134 H 401.233 -2.09368 5.33702 0
M  V30 4135 H 399.63 -1.46632 5.8191 0
M  V30 4136 H 400.7 -0.459217 4.82721 0
M  V30 4137 N 402.043 -1.548 -0.295768 0
M  V30 4138 C 403.006 -1.85363 -1.34808 0
M  V30 4139 C 404.006 -0.726817 -1.43436 0
M  V30 4140 O 405.196 -0.995088 -1.42981 0
M  V30 4141 C 402.328 -2.03859 -2.73229 0
M  V30 4142 H 403.521 -2.7941 -1.08949 0
M  V30 4143 H 401.074 -1.46942 -0.532702 0
M  V30 4144 H 401.809 -1.12117 -3.04303 0
M  V30 4145 H 401.594 -2.8588 -2.68356 0
M  V30 4146 H 403.084 -2.28857 -3.49305 0
M  V30 4147 N 403.521 0.559213 -1.47345 0
M  V30 4148 C 404.77 1.31281 -1.53128 0
M  V30 4149 C 405.083 1.94602 -0.197344 0
M  V30 4150 O 406.289 2.71173 -0.133154 0
M  V30 4151 C 404.745 2.38051 -2.69925 0
M  V30 4152 C 404.353 1.8093 -4.0984 0
M  V30 4153 C 406.097 3.14604 -2.84999 0
M  V30 4154 C 404.004 2.85468 -5.1794 0
M  V30 4155 H 402.934 0.493614 -0.569966 0
M  V30 4156 H 405.585 0.594155 -1.73615 0
M  V30 4157 H 403.967 3.12822 -2.42814 0
M  V30 4158 H 405.141 1.12544 -4.46845 0
M  V30 4159 H 403.456 1.16967 -3.99634 0
M  V30 4160 H 406.053 3.92666 -3.62929 0
M  V30 4161 H 406.396 3.68665 -1.93369 0
M  V30 4162 H 406.929 2.46945 -3.1187 0
M  V30 4163 H 403.668 2.36264 -6.1144 0
M  V30 4164 H 403.188 3.52269 -4.85455 0
M  V30 4165 H 404.867 3.48996 -5.44803 0
M  V30 4166 N 404.999 1.35443 0.805782 0
M  V30 4167 C 406.224 1.32037 1.59941 0
M  V30 4168 C 406.649 -0.0994215 1.87837 0
M  V30 4169 O 406.007 -1.06648 1.46615 0
M  V30 4170 C 406.055 2.13354 2.90711 0
M  V30 4171 O 405.159 1.5148 3.83572 0
M  V30 4172 H 404.5 0.452666 0.485787 0
M  V30 4173 H 407.03 1.78496 1.00002 0
M  V30 4174 H 407.04 2.25338 3.40128 0
M  V30 4175 H 405.715 3.16572 2.69732 0
M  V30 4176 H 404.292 1.4834 3.42125 0
M  V30 4177 N 406.477 -1.02803 1.19454 0
M  V30 4178 C 407.407 -2.12999 0.956758 0
M  V30 4179 C 408.388 -1.69743 -0.110188 0
M  V30 4180 O 409.573 -1.94148 0.0450038 0
M  V30 4181 C 406.703 -3.43746 0.495553 0
M  V30 4182 C 405.657 -4.00688 1.50443 0
M  V30 4183 C 404.983 -5.27067 0.900275 0
M  V30 4184 C 406.283 -4.35397 2.8849 0
M  V30 4185 H 407.977 -2.33148 1.87836 0
M  V30 4186 H 405.523 -1.12045 0.904539 0
M  V30 4187 H 407.476 -4.2021 0.316493 0
M  V30 4188 H 406.2 -3.23321 -0.461646 0
M  V30 4189 H 404.859 -3.2632 1.67065 0
M  V30 4190 H 404.507 -5.02959 -0.064503 0
M  V30 4191 H 404.207 -5.66127 1.57397 0
M  V30 4192 H 405.731 -6.06196 0.73203 0
M  V30 4193 H 407.145 -5.02795 2.75446 0
M  V30 4194 H 405.542 -4.85541 3.52661 0
M  V30 4195 H 406.612 -3.44662 3.41081 0
M  V30 4196 N 407.956 -0.998596 -1.21925 0
M  V30 4197 C 408.919 -0.558679 -2.22287 0
M  V30 4198 C 409.919 0.361525 -1.56683 0
M  V30 4199 O 411.109 0.152695 -1.73529 0
M  V30 4200 C 408.241 0.18661 -3.40389 0
M  V30 4201 H 409.434 -1.4463 -2.62721 0
M  V30 4202 H 406.987 -0.786413 -1.35075 0
M  V30 4203 H 407.722 1.08996 -3.05435 0
M  V30 4204 H 407.507 -0.474188 -3.89222 0
M  V30 4205 H 408.997 0.482367 -4.14805 0
M  V30 4206 N 409.434 1.37368 -0.772513 0
M  V30 4207 C 410.682 1.99279 -0.336516 0
M  V30 4208 C 411.003 1.6163 1.09091 0
M  V30 4209 O 410.273 0.882109 1.74916 0
M  V30 4210 H 408.853 0.737063 -0.121435 0
M  V30 4211 H 411.515 1.67836 -0.990809 0
M  V30 4212 H 410.611 3.09332 -0.414763 0
M  V30 4213 N 410.912 0.523116 1.48665 0
M  V30 4214 C 411.845 -0.290518 2.26343 0
M  V30 4215 C 412.823 -0.950913 1.31895 0
M  V30 4216 O 414.007 -0.976662 1.61225 0
M  V30 4217 C 411.134 -1.41088 3.07915 0
M  V30 4218 C 410.18 -0.862597 4.17686 0
M  V30 4219 S 411.013 0.264135 5.34848 0
M  V30 4220 C 412.169 -0.858864 6.19979 0
M  V30 4221 H 412.402 0.368726 2.95005 0
M  V30 4222 H 409.935 0.30878 1.51281 0
M  V30 4223 H 411.893 -2.0527 3.55492 0
M  V30 4224 H 410.554 -2.04182 2.38681 0
M  V30 4225 H 409.747 -1.70287 4.74361 0
M  V30 4226 H 409.349 -0.297595 3.72814 0
M  V30 4227 H 411.641 -1.7591 6.54264 0
M  V30 4228 H 412.584 -0.330244 7.07329 0
M  V30 4229 H 412.992 -1.13617 5.52948 0
M  V30 4230 N 412.39 -1.55475 0.257931 0
M  V30 4231 C 413.3 -2.2549 -0.647425 0
M  V30 4232 C 414.316 -1.2748 -1.18427 0
M  V30 4233 O 415.492 -1.6038 -1.2182 0
M  V30 4234 C 412.557 -2.94916 -1.82278 0
M  V30 4235 C 411.618 -4.08363 -1.32432 0
M  V30 4236 C 410.851 -4.74469 -2.44366 0
M  V30 4237 O 411.074 -4.39701 -3.63344 0
M  V30 4238 O 410.008 -5.62763 -2.13497 0
M  V30 4239 H 413.834 -3.03593 -0.0807707 0
M  V30 4240 H 411.419 -1.49377 0.0259962 0
M  V30 4241 H 413.301 -3.38606 -2.50846 0
M  V30 4242 H 411.976 -2.19744 -2.37685 0
M  V30 4243 H 410.883 -3.69166 -0.605605 0
M  V30 4244 H 412.216 -4.85385 -0.816211 0
M  V30 4245 N 413.868 0.0150385 -1.57593 0
M  V30 4246 C 415.114 0.69849 -1.91031 0
M  V30 4247 C 415.469 1.72208 -0.85804 0
M  V30 4248 O 414.762 1.91147 0.131614 0
M  V30 4249 C 414.956 1.39686 -3.28972 0
M  V30 4250 C 414.785 0.442428 -4.47518 0
M  V30 4251 C 413.555 0.0583223 -5.05266 0
M  V30 4252 C 415.753 -0.285072 -5.13509 0
M  V30 4253 N 413.735 -0.895893 -6.07328 0
M  V30 4254 C 415.106 -1.09447 -6.10263 0
M  V30 4255 C 417.161 -0.350518 -4.96665 0
M  V30 4256 C 415.864 -1.96333 -6.91987 0
M  V30 4257 C 417.89 -1.20655 -5.78962 0
M  V30 4258 C 417.252 -2.00383 -6.75297 0
M  V30 4259 H 413.351 0.22926 -0.747639 0
M  V30 4260 H 415.935 -0.0417748 -1.94655 0
M  V30 4261 H 414.106 2.1075 -3.2625 0
M  V30 4262 H 415.838 2.03381 -3.49883 0
M  V30 4263 H 412.593 0.423506 -4.71703 0
M  V30 4264 H 413.017 -1.36792 -6.63036 0
M  V30 4265 H 417.659 0.251596 -4.22051 0
M  V30 4266 H 415.377 -2.57618 -7.65936 0
M  V30 4267 H 418.963 -1.2609 -5.67972 0
M  V30 4268 H 417.843 -2.65552 -7.3787 0
M  V30 4269 N 415.346 1.54954 0.287554 0
M  V30 4270 C 416.256 1.8991 1.37736 0
M  V30 4271 C 417.272 0.794701 1.54792 0
M  V30 4272 O 418.448 1.09243 1.69198 0
M  V30 4273 C 415.513 2.15108 2.71899 0
M  V30 4274 C 414.574 3.38752 2.63715 0
M  V30 4275 C 413.807 3.62739 3.91479 0
M  V30 4276 O 414.03 2.89492 4.91478 0
M  V30 4277 O 412.964 4.56267 3.92561 0
M  V30 4278 H 416.79 2.82652 1.11092 0
M  V30 4279 H 414.375 1.41315 0.484807 0
M  V30 4280 H 416.257 2.32806 3.51254 0
M  V30 4281 H 414.932 1.25551 2.9836 0
M  V30 4282 H 413.839 3.26405 1.82786 0
M  V30 4283 H 415.172 4.28483 2.42205 0
M  V30 4284 N 416.824 -0.551391 1.4764 0
M  V30 4285 C 418.049 -1.33837 1.58437 0
M  V30 4286 C 418.474 -1.866 0.237063 0
M  V30 4287 O 417.832 -1.6328 -0.787994 0
M  V30 4288 C 417.88 -2.48014 2.61766 0
M  V30 4289 O 416.984 -3.50419 2.1744 0
M  V30 4290 H 416.325 -0.397299 0.532024 0
M  V30 4291 H 418.855 -0.665759 1.93465 0
M  V30 4292 H 418.865 -2.94503 2.82369 0
M  V30 4293 H 417.54 -2.08969 3.5959 0
M  V30 4294 H 416.117 -3.10196 2.06961 0
M  V30 4295 N 418.302 -1.35869 -0.798587 0
M  V30 4296 C 419.249 -1.29446 -1.91082 0
M  V30 4297 C 420.219 -0.16487 -1.6528 0
M  V30 4298 O 421.404 -0.349888 -1.87564 0
M  V30 4299 C 418.544 -1.0804 -3.27752 0
M  V30 4300 C 417.657 -2.29993 -3.65687 0
M  V30 4301 C 416.792 -2.01673 -4.91428 0
M  V30 4302 C 415.831 -3.19636 -5.22015 0
M  V30 4303 N 414.968 -2.91039 -6.38937 0
M  V30 4304 H 419.808 -2.24553 -1.95907 0
M  V30 4305 H 417.345 -1.11615 -0.958148 0
M  V30 4306 H 419.303 -0.936586 -4.06551 0
M  V30 4307 H 417.933 -0.16592 -3.22373 0
M  V30 4308 H 416.985 -2.55211 -2.82085 0
M  V30 4309 H 418.297 -3.18052 -3.84245 0
M  V30 4310 H 417.451 -1.84168 -5.78072 0
M  V30 4311 H 416.19 -1.10911 -4.74921 0
M  V30 4312 H 415.195 -3.37709 -4.33858 0
M  V30 4313 H 416.42 -4.11211 -5.40447 0
M  V30 4314 H 414.366 -2.0288 -6.2384 0
M  V30 4315 H 414.283 -3.72635 -6.57784 0
M  V30 4316 H 415.551 -2.77093 -7.28587 0
M  V30 4317 N 419.78 1.02168 -1.19998 0
M  V30 4318 C 420.743 2.08765 -0.94604 0
M  V30 4319 C 421.743 1.60618 0.0763846 0
M  V30 4320 O 422.933 1.73472 -0.159135 0
M  V30 4321 C 420.065 3.38262 -0.423255 0
M  V30 4322 H 421.258 2.32726 -1.89153 0
M  V30 4323 H 418.811 1.1889 -1.01464 0
M  V30 4324 H 419.546 3.19974 0.527938 0
M  V30 4325 H 419.331 3.74532 -1.16053 0
M  V30 4326 H 420.821 4.16759 -0.264911 0
M  V30 4327 N 421.258 1.00505 1.21394 0
M  V30 4328 C 422.19 0.52372 2.23136 0
M  V30 4329 C 423.203 -0.387714 1.58116 0
M  V30 4330 O 424.392 -0.187905 1.77508 0
M  V30 4331 C 421.492 -0.258885 3.3791 0
M  V30 4332 C 420.665 0.651634 4.32519 0
M  V30 4333 C 419.724 -0.0813705 5.26137 0
M  V30 4334 O 418.75 0.537295 5.66658 0
M  V30 4335 N 419.952 -1.35992 5.64346 0
M  V30 4336 H 422.717 1.39865 2.65062 0
M  V30 4337 H 420.278 0.881196 1.35818 0
M  V30 4338 H 422.27 -0.758208 3.97534 0
M  V30 4339 H 420.84 -1.035 2.94968 0
M  V30 4340 H 420.06 1.33145 3.71034 0
M  V30 4341 H 421.348 1.27129 4.92662 0
M  V30 4342 H 420.746 -1.88368 5.33417 0
M  V30 4343 H 419.303 -1.8042 6.26332 0
M  V30 4344 N 422.737 -1.36956 0.779787 0
M  V30 4345 C 423.983 -1.99787 0.348281 0
M  V30 4346 C 424.316 -1.61756 -1.07465 0
M  V30 4347 O 423.591 -0.867639 -1.74075 0
M  V30 4348 C 423.874 -3.56597 0.50104 0
M  V30 4349 C 423.727 -4.04513 1.96697 0
M  V30 4350 C 425.046 -4.40008 -0.0898097 0
M  V30 4351 H 422.165 -0.725796 0.128022 0
M  V30 4352 H 424.807 -1.62514 0.984331 0
M  V30 4353 H 422.957 -3.88479 -0.0404347 0
M  V30 4354 H 424.629 -3.83161 2.56876 0
M  V30 4355 H 422.872 -3.56408 2.47297 0
M  V30 4356 H 423.543 -5.1352 2.02486 0
M  V30 4357 H 426.019 -4.14431 0.372293 0
M  V30 4358 H 424.895 -5.4888 0.0471605 0
M  V30 4359 H 425.156 -4.26035 -1.18096 0
M  V30 4360 N 424.215 -0.530993 -1.48385 0
M  V30 4361 C 425.145 0.219985 -2.32461 0
M  V30 4362 C 426.126 0.934111 -1.42156 0
M  V30 4363 O 427.311 0.919694 -1.71042 0
M  V30 4364 C 424.441 1.26674 -3.23375 0
M  V30 4365 C 423.395 0.67069 -4.22712 0
M  V30 4366 C 422.721 1.82017 -5.02766 0
M  V30 4367 C 424.021 -0.358268 -5.2107 0
M  V30 4368 H 425.715 -0.48187 -2.95497 0
M  V30 4369 H 423.261 -0.233182 -1.42099 0
M  V30 4370 H 425.214 1.80006 -3.81019 0
M  V30 4371 H 423.938 1.99818 -2.58341 0
M  V30 4372 H 422.597 0.158878 -3.66256 0
M  V30 4373 H 422.245 2.54002 -4.34157 0
M  V30 4374 H 421.945 1.42727 -5.70003 0
M  V30 4375 H 423.469 2.35725 -5.63264 0
M  V30 4376 H 424.883 0.0880081 -5.73232 0
M  V30 4377 H 423.28 -0.66861 -5.96364 0
M  V30 4378 H 424.35 -1.26367 -4.68145 0
M  V30 4379 N 425.693 1.55336 -0.266172 0
M  V30 4380 C 426.94 1.99397 0.353158 0
M  V30 4381 C 427.268 1.15451 1.56529 0
M  V30 4382 O 426.523 0.209974 1.9457 0
M  V30 4383 C 426.822 3.48606 0.787957 0
M  V30 4384 C 426.488 4.49773 -0.318541 0
M  V30 4385 C 425.15 4.77158 -0.62239 0
M  V30 4386 C 427.502 5.10212 -1.06459 0
M  V30 4387 C 424.83 5.62251 -1.67602 0
M  V30 4388 C 427.182 5.96449 -2.10788 0
M  V30 4389 C 425.846 6.22158 -2.41817 0
M  V30 4390 H 425.116 0.729644 0.12923 0
M  V30 4391 H 427.763 1.87732 -0.37802 0
M  V30 4392 H 426.068 3.57701 1.59866 0
M  V30 4393 H 427.765 3.80098 1.27775 0
M  V30 4394 H 424.355 4.2854 -0.0715925 0
M  V30 4395 H 428.539 4.89086 -0.843098 0
M  V30 4396 H 423.795 5.80419 -1.92155 0
M  V30 4397 H 427.969 6.42317 -2.69076 0
M  V30 4398 H 425.596 6.87888 -3.23596 0
M  V30 4399 N 427.171 -0.0066808 1.57599 0
M  V30 4400 C 428.418 -0.69292 1.90276 0
M  V30 4401 C 428.746 -1.74148 0.866192 0
M  V30 4402 O 428.001 -1.95268 -0.129933 0
M  V30 4403 C 428.3 -1.37939 3.29708 0
M  V30 4404 C 427.966 -0.464679 4.48499 0
M  V30 4405 C 426.628 -0.212809 4.80729 0
M  V30 4406 C 428.98 0.16551 5.20937 0
M  V30 4407 C 426.308 0.677653 5.82773 0
M  V30 4408 C 428.66 1.04381 6.23929 0
M  V30 4409 C 427.324 1.30492 6.54621 0
M  V30 4410 H 426.594 -0.253558 0.696268 0
M  V30 4411 H 429.241 0.0474123 1.91441 0
M  V30 4412 H 427.546 -2.1936 3.24636 0
M  V30 4413 H 429.243 -1.9163 3.52249 0
M  V30 4414 H 425.833 -0.671153 4.23313 0
M  V30 4415 H 430.017 -0.0160756 4.96297 0
M  V30 4416 H 425.273 0.88803 6.04917 0
M  V30 4417 H 429.447 1.53851 6.79193 0
M  V30 4418 H 427.074 1.99662 7.33512 0
M  V30 4419 N 428.649 -1.55105 -0.279332 0
M  V30 4420 C 429.579 -1.90557 -1.34945 0
M  V30 4421 C 430.56 -0.766738 -1.51839 0
M  V30 4422 O 431.745 -1.02434 -1.64988 0
M  V30 4423 C 428.875 -2.17193 -2.71006 0
M  V30 4424 C 427.829 -3.33021 -2.68851 0
M  V30 4425 C 427.155 -3.45123 -4.08405 0
M  V30 4426 C 428.455 -4.69578 -2.28678 0
M  V30 4427 H 430.149 -2.80188 -1.05522 0
M  V30 4428 H 427.695 -1.34811 -0.506173 0
M  V30 4429 H 429.648 -2.40581 -3.45975 0
M  V30 4430 H 428.372 -1.24355 -3.01999 0
M  V30 4431 H 427.031 -3.0959 -1.9634 0
M  V30 4432 H 426.679 -2.49762 -4.3661 0
M  V30 4433 H 426.379 -4.22995 -4.07859 0
M  V30 4434 H 427.903 -3.70796 -4.85121 0
M  V30 4435 H 429.317 -4.92553 -2.93368 0
M  V30 4436 H 427.714 -5.5032 -2.39306 0
M  V30 4437 H 428.784 -4.68828 -1.23807 0
M  V30 4438 N 430.127 0.543554 -1.4793 0
M  V30 4439 C 431.373 1.30201 -1.55485 0
M  V30 4440 C 431.706 1.92925 -0.222201 0
M  V30 4441 O 430.981 1.78586 0.77053 0
M  V30 4442 C 431.264 2.40174 -2.68307 0
M  V30 4443 C 431.117 1.8223 -4.11233 0
M  V30 4444 C 432.436 3.42024 -2.76961 0
M  V30 4445 H 429.555 0.472036 -0.565996 0
M  V30 4446 H 432.197 0.606914 -1.80046 0
M  V30 4447 H 430.347 2.99463 -2.47495 0
M  V30 4448 H 432.019 1.27096 -4.43446 0
M  V30 4449 H 430.262 1.12832 -4.18869 0
M  V30 4450 H 430.933 2.61793 -4.85972 0
M  V30 4451 H 433.409 2.92672 -2.95774 0
M  V30 4452 H 432.285 4.16383 -3.57654 0
M  V30 4453 H 432.546 4.0173 -1.84568 0
M  V30 4454 N 431.605 1.3629 0.791371 0
M  V30 4455 C 432.854 1.29742 1.54434 0
M  V30 4456 C 433.167 -0.121729 1.95221 0
M  V30 4457 O 434.373 -0.309579 2.69729 0
M  V30 4458 C 432.829 2.27623 2.78776 0
M  V30 4459 C 432.437 3.74963 2.45166 0
M  V30 4460 C 434.181 2.30047 3.56761 0
M  V30 4461 C 432.088 4.64626 3.65891 0
M  V30 4462 H 431.018 0.482113 0.579727 0
M  V30 4463 H 433.669 1.61642 0.868565 0
M  V30 4464 H 432.051 1.88714 3.48142 0
M  V30 4465 H 433.225 4.22596 1.83709 0
M  V30 4466 H 431.54 3.75295 1.80396 0
M  V30 4467 H 434.137 2.94247 4.46456 0
M  V30 4468 H 434.48 1.30846 3.95203 0
M  V30 4469 H 435.013 2.67563 2.94372 0
M  V30 4470 H 431.752 5.64883 3.32547 0
M  V30 4471 H 431.272 4.2171 4.26521 0
M  V30 4472 H 432.951 4.80801 4.32943 0
M  V30 4473 N 433.083 -1.0153 1.20538 0
M  V30 4474 C 434.016 -2.09759 0.898695 0
M  V30 4475 C 434.994 -1.61909 -0.149733 0
M  V30 4476 O 436.178 -1.88486 -0.0230293 0
M  V30 4477 C 433.305 -3.36913 0.347512 0
M  V30 4478 C 432.351 -4.03655 1.37713 0
M  V30 4479 S 433.184 -4.47402 2.94265 0
M  V30 4480 C 434.34 -5.77756 2.40726 0
M  V30 4481 H 434.573 -2.3545 1.81523 0
M  V30 4482 H 432.106 -1.14665 1.03399 0
M  V30 4483 H 434.064 -4.10484 0.0360518 0
M  V30 4484 H 432.725 -3.09291 -0.547546 0
M  V30 4485 H 431.918 -4.9514 0.940872 0
M  V30 4486 H 431.52 -3.36313 1.63614 0
M  V30 4487 H 433.812 -6.52994 1.80569 0
M  V30 4488 H 434.755 -6.2618 3.30612 0
M  V30 4489 H 435.163 -5.34081 1.82806 0
M  V30 4490 N 434.561 -1.01147 -1.20859 0
M  V30 4491 C 435.807 -0.698899 -1.90377 0
M  V30 4492 C 436.14 0.76904 -1.78324 0
M  V30 4493 O 435.415 1.55817 -1.16409 0
M  V30 4494 C 435.698 -1.12878 -3.41951 0
M  V30 4495 C 435.551 -2.65665 -3.62963 0
M  V30 4496 C 436.87 -0.696114 -4.3456 0
M  V30 4497 H 433.989 -0.255372 -0.691342 0
M  V30 4498 H 436.631 -1.25831 -1.42361 0
M  V30 4499 H 434.781 -0.652827 -3.82976 0
M  V30 4500 H 436.453 -3.21074 -3.31224 0
M  V30 4501 H 434.696 -3.06878 -3.06608 0
M  V30 4502 H 435.367 -2.90797 -4.69192 0
M  V30 4503 H 437.843 -1.10521 -4.01154 0
M  V30 4504 H 436.719 -1.025 -5.39245 0
M  V30 4505 H 436.98 0.402465 -4.40264 0
M  V30 4506 N 436.039 1.36541 -0.78704 0
M  V30 4507 C 437.264 2.0409 -0.369053 0
M  V30 4508 C 437.689 1.58957 1.00569 0
M  V30 4509 O 437.047 0.756926 1.64743 0
M  V30 4510 C 437.095 3.57924 -0.438466 0
M  V30 4511 O 436.199 4.08642 0.555479 0
M  V30 4512 H 435.54 0.645142 -0.157122 0
M  V30 4513 H 438.07 1.74545 -1.06749 0
M  V30 4514 H 438.08 4.06887 -0.301218 0
M  V30 4515 H 436.755 3.90127 -1.44132 0
M  V30 4516 H 435.332 3.70958 0.380088 0
M  V30 4517 N 437.518 0.538854 1.48102 0
M  V30 4518 C 438.765 0.0080018 2.02498 0
M  V30 4519 C 439.093 -1.33437 1.41509 0
M  V30 4520 O 438.348 -1.87709 0.553507 0
M  V30 4521 C 438.647 -0.153808 3.57069 0
M  V30 4522 C 438.313 1.11533 4.36888 0
M  V30 4523 C 436.975 1.46314 4.58417 0
M  V30 4524 C 439.327 1.95718 4.83057 0
M  V30 4525 C 436.655 2.6516 5.23361 0
M  V30 4526 C 439.007 3.13751 5.49312 0
M  V30 4527 C 437.671 3.48866 5.69077 0
M  V30 4528 H 436.941 0.00292807 0.740994 0
M  V30 4529 H 439.588 0.706668 1.77984 0
M  V30 4530 H 437.893 -0.935309 3.80472 0
M  V30 4531 H 439.59 -0.579607 3.96789 0
M  V30 4532 H 436.18 0.834484 4.20398 0
M  V30 4533 H 440.364 1.70158 4.66219 0
M  V30 4534 H 435.62 2.92558 5.36861 0
M  V30 4535 H 439.794 3.79282 5.84053 0
M  V30 4536 H 437.421 4.41054 6.19173 0
M  V30 4537 N 438.996 -1.55193 0.274407 0
M  V30 4538 C 439.959 -2.212 -0.600279 0
M  V30 4539 C 440.959 -1.18963 -1.08187 0
M  V30 4540 O 442.149 -1.43873 -0.982158 0
M  V30 4541 C 439.281 -2.87739 -1.82809 0
M  V30 4542 H 440.474 -2.9989 -0.0239682 0
M  V30 4543 H 438.027 -1.5628 0.0250192 0
M  V30 4544 H 438.762 -2.13058 -2.44493 0
M  V30 4545 H 438.547 -3.62658 -1.49069 0
M  V30 4546 H 440.037 -3.38171 -2.45011 0
M  V30 4547 N 440.474 -0.00167713 -1.576 0
M  V30 4548 C 441.422 1.0074 -2.09652 0
M  V30 4549 C 442.416 1.35483 -1.01689 0
M  V30 4550 O 443.622 1.34028 -1.20152 0
M  V30 4551 H 439.997 0.342537 -0.669457 0
M  V30 4552 H 441.968 0.542841 -2.93421 0
M  V30 4553 C 440.717 2.2899 -2.61647 0
M  V30 4554 H 440.04 2.03124 -3.44355 0
M  V30 4555 H 441.48 2.9787 -3.01744 0
M  V30 4556 C 439.939 3.00085 -1.53136 0
M  V30 4557 O 440.469 3.91135 -0.91524 0
M  V30 4558 N 438.675 2.6194 -1.25841 0
M  V30 4559 H 438.222 1.8798 -1.76129 0
M  V30 4560 H 438.18 3.09822 -0.534576 0
M  V30 4561 N 441.952 1.55251 0.271103 0
M  V30 4562 C 443.182 1.79713 1.01916 0
M  V30 4563 C 443.59 0.571613 1.80359 0
M  V30 4564 O 442.933 -0.468853 1.77616 0
M  V30 4565 C 442.995 2.97138 2.02359 0
M  V30 4566 C 442.659 4.34104 1.42837 0
M  V30 4567 C 443.656 5.13019 0.843071 0
M  V30 4568 C 441.341 4.80765 1.455 0
M  V30 4569 C 443.335 6.36729 0.292333 0
M  V30 4570 C 441.022 6.0443 0.900402 0
M  V30 4571 C 442.02 6.8225 0.32007 0
M  V30 4572 O 441.708 8.03582 -0.226031 0
M  V30 4573 H 441.44 0.602431 0.306681 0
M  V30 4574 H 443.994 2.03097 0.306701 0
M  V30 4575 H 442.224 2.6945 2.77369 0
M  V30 4576 H 443.913 3.08907 2.63309 0
M  V30 4577 H 444.679 4.781 0.815178 0
M  V30 4578 H 440.558 4.20202 1.89609 0
M  V30 4579 H 444.102 6.97414 -0.161274 0
M  V30 4580 H 439.999 6.3883 0.925541 0
M  V30 4581 H 440.767 8.18418 -0.115572 0
M  V30 4582 N 443.43 -0.535701 1.48216 0
M  V30 4583 C 444.36 -1.65014 1.65204 0
M  V30 4584 C 445.341 -1.62554 0.501011 0
M  V30 4585 O 446.526 -1.7984 0.732886 0
M  V30 4586 C 443.656 -3.03616 1.68626 0
M  V30 4587 C 442.61 -3.20932 2.83172 0
M  V30 4588 C 441.936 -4.60537 2.71679 0
M  V30 4589 C 443.236 -3.04249 4.24535 0
M  V30 4590 H 444.93 -1.51053 2.58502 0
M  V30 4591 H 442.476 -0.725262 1.24402 0
M  V30 4592 H 444.429 -3.81446 1.79099 0
M  V30 4593 H 443.153 -3.18587 0.719026 0
M  V30 4594 H 441.812 -2.45517 2.72244 0
M  V30 4595 H 441.46 -4.72336 1.72937 0
M  V30 4596 H 441.16 -4.73069 3.48538 0
M  V30 4597 H 442.684 -5.40475 2.84112 0
M  V30 4598 H 444.098 -3.71877 4.36326 0
M  V30 4599 H 442.495 -3.28278 5.02348 0
M  V30 4600 H 443.565 -2.00739 4.41397 0
M  V30 4601 N 444.908 -1.36708 -0.784132 0
M  V30 4602 C 446.154 -1.31426 -1.54451 0
M  V30 4603 C 446.487 0.10476 -1.93917 0
M  V30 4604 O 445.762 1.05934 -1.6312 0
M  V30 4605 C 446.045 -2.24189 -2.818 0
M  V30 4606 C 445.898 -3.74813 -2.48667 0
M  V30 4607 C 447.217 -2.15626 -3.83658 0
M  V30 4608 H 444.336 -0.478739 -0.560337 0
M  V30 4609 H 446.978 -1.67305 -0.900498 0
M  V30 4610 H 445.128 -1.93722 -3.36755 0
M  V30 4611 H 446.8 -4.15823 -1.99722 0
M  V30 4612 H 445.043 -3.93989 -1.81535 0
M  V30 4613 H 445.714 -4.35138 -3.39646 0
M  V30 4614 H 448.19 -2.42456 -3.38163 0
M  V30 4615 H 447.066 -2.82694 -4.70506 0
M  V30 4616 H 447.327 -1.14522 -4.27009 0
M  V30 4617 N 446.386 1.0089 -1.21074 0
M  V30 4618 C 447.634 1.74262 -1.02358 0
M  V30 4619 C 447.955 1.89869 0.444393 0
M  V30 4620 O 447.225 1.44677 1.32081 0
M  V30 4621 H 445.805 0.645615 -0.375754 0
M  V30 4622 H 448.467 1.21596 -1.52317 0
M  V30 4623 H 447.563 2.74328 -1.4883 0
M  V30 4624 N 447.864 1.01787 1.20321 0
M  V30 4625 C 449.092 0.727194 1.937 0
M  V30 4626 C 449.507 -0.712305 1.74848 0
M  V30 4627 O 448.864 -1.48327 1.06327 0
M  V30 4628 C 448.915 1.05497 3.45764 0
M  V30 4629 O 448.636 2.43794 3.64 0
M  V30 4630 C 450.137 0.785534 4.36285 0
M  V30 4631 H 447.357 0.266939 0.615617 0
M  V30 4632 H 449.901 1.35939 1.52777 0
M  V30 4633 H 448.056 0.468158 3.84561 0
M  V30 4634 H 448.47 2.55656 4.57974 0
M  V30 4635 H 449.944 1.06495 5.4163 0
M  V30 4636 H 450.421 -0.280273 4.38305 0
M  V30 4637 H 451.027 1.35456 4.03152 0
M  V30 4638 N 449.342 -1.36122 0.79427 0
M  V30 4639 C 450.272 -2.32551 0.210328 0
M  V30 4640 C 451.253 -1.56884 -0.657386 0
M  V30 4641 O 452.438 -1.85014 -0.590207 0
M  V30 4642 C 449.568 -3.41128 -0.651819 0
M  V30 4643 C 448.522 -4.27842 0.116395 0
M  V30 4644 C 447.848 -5.2763 -0.86666 0
M  V30 4645 C 449.148 -5.05647 1.30837 0
M  V30 4646 H 450.842 -2.81636 1.01594 0
M  V30 4647 H 448.388 -1.35407 0.489981 0
M  V30 4648 H 450.341 -4.07581 -1.07031 0
M  V30 4649 H 449.065 -2.90622 -1.49019 0
M  V30 4650 H 447.724 -3.62952 0.515915 0
M  V30 4651 H 447.372 -4.73395 -1.70019 0
M  V30 4652 H 447.072 -5.86514 -0.35705 0
M  V30 4653 H 448.596 -5.96955 -1.28361 0
M  V30 4654 H 450.01 -5.65113 0.965393 0
M  V30 4655 H 448.407 -5.73967 1.75161 0
M  V30 4656 H 449.477 -4.37006 2.10128 0
M  V30 4657 N 450.82 -0.546701 -1.47814 0
M  V30 4658 C 452.069 -0.0166497 -2.01693 0
M  V30 4659 C 452.382 1.33721 -1.42752 0
M  V30 4660 O 453.588 1.95658 -1.8823 0
M  V30 4661 C 452.044 0.0206769 -3.59894 0
M  V30 4662 C 451.652 -1.3293 -4.27824 0
M  V30 4663 C 453.396 0.498674 -4.21561 0
M  V30 4664 C 451.303 -1.25165 -5.78003 0
M  V30 4665 H 450.233 -0.0024541 -0.753996 0
M  V30 4666 H 452.884 -0.692984 -1.69912 0
M  V30 4667 H 451.266 0.76244 -3.88591 0
M  V30 4668 H 452.44 -2.08795 -4.10781 0
M  V30 4669 H 450.755 -1.74438 -3.78101 0
M  V30 4670 H 453.352 0.575 -5.31599 0
M  V30 4671 H 453.695 1.5083 -3.88016 0
M  V30 4672 H 454.228 -0.18791 -3.97356 0
M  V30 4673 H 450.967 -2.23695 -6.1615 0
M  V30 4674 H 450.487 -0.53464 -5.97412 0
M  V30 4675 H 452.166 -0.949299 -6.39998 0
M  V30 4676 N 452.299 1.55045 -0.282633 0
M  V30 4677 C 453.71 1.85473 0.213655 0
M  V30 4678 C 454.061 1.20465 1.54863 0
M  V30 4679 O 453.186 0.495676 2.10647 0
M  V30 4680 C 453.781 3.36496 0.394445 0
M  V30 4681 C 452.34 3.67022 0.834961 0
M  V30 4682 C 451.487 2.77218 -0.0674081 0
M  V30 4683 H 454.438 1.50478 -0.504202 0
M  V30 4684 H 454.459 3.60007 1.23186 0
M  V30 4685 H 453.971 3.83782 -0.577326 0
M  V30 4686 H 452.072 3.25241 1.81794 0
M  V30 4687 H 452.185 4.74433 0.667075 0
M  V30 4688 H 450.549 2.5069 0.450196 0
M  V30 4689 H 451.332 3.2732 -1.0352 0
M  V30 4690 N 453.777 0.010035 1.57597 0
M  V30 4691 C 455.188 -0.531426 1.78977 0
M  V30 4692 C 455.539 -1.73375 0.918454 0
M  V30 4693 O 454.664 -2.16047 0.123635 0
M  V30 4694 C 455.259 -0.97086 3.24592 0
M  V30 4695 C 453.818 -1.45756 3.47033 0
M  V30 4696 C 452.965 -0.413384 2.74201 0
M  V30 4697 H 455.916 0.236166 1.56933 0
M  V30 4698 H 455.937 -1.83633 3.33255 0
M  V30 4699 H 455.449 -0.0955893 3.87982 0
M  V30 4700 H 453.55 -2.35339 2.88871 0
M  V30 4701 H 453.663 -1.4781 4.55729 0
M  V30 4702 H 452.027 -0.877266 2.39115 0
M  V30 4703 H 452.81 0.453092 3.40297 0
M  V30 4704 N 455.255 -1.55392 -0.262866 0
M  V30 4705 C 456.48 -1.80847 -1.01533 0
M  V30 4706 C 456.905 -0.584946 -1.78774 0
M  V30 4707 O 456.263 0.465701 -1.75217 0
M  V30 4708 C 456.311 -3.03866 -1.94159 0
M  V30 4709 O 455.415 -2.79662 -3.03089 0
M  V30 4710 H 454.756 -0.597441 -0.289759 0
M  V30 4711 H 457.286 -2.02553 -0.288698 0
M  V30 4712 H 457.296 -3.32872 -2.35924 0
M  V30 4713 H 455.971 -3.92564 -1.37354 0
M  V30 4714 H 454.548 -2.61781 -2.65566 0
M  V30 4715 N 456.733 0.527833 -1.48498 0
M  V30 4716 C 457.643 1.65907 -1.65867 0
M  V30 4717 C 458.659 1.6537 -0.541192 0
M  V30 4718 O 459.835 1.84282 -0.812534 0
M  V30 4719 C 456.9 3.02364 -1.69637 0
M  V30 4720 C 455.961 3.1374 -2.93028 0
M  V30 4721 C 455.194 4.43688 -2.96609 0
M  V30 4722 O 455.417 5.30913 -2.08538 0
M  V30 4723 O 454.351 4.59475 -3.88802 0
M  V30 4724 H 458.177 1.5419 -2.61647 0
M  V30 4725 H 455.762 0.701163 -1.31924 0
M  V30 4726 H 457.644 3.83515 -1.74625 0
M  V30 4727 H 456.319 3.14401 -0.770312 0
M  V30 4728 H 455.226 2.31877 -2.93571 0
M  V30 4729 H 456.559 3.06621 -3.85026 0
M  V30 4730 N 458.211 1.37122 0.776871 0
M  V30 4731 C 459.488 1.22586 1.52421 0
M  V30 4732 C 459.868 -0.182726 2.10308 0
M  V30 4733 O 459.216 -1.18979 1.9508 0
M  V30 4734 C 459.426 2.31782 2.60918 0
M  V30 4735 C 460.774 2.69071 3.2846 0
M  V30 4736 O 461.798 2.3092 2.71209 0
M  V30 4737 O 460.657 3.3478 4.31954 0
M  V30 4738 H 457.751 0.478045 0.674835 0
M  V30 4739 H 460.297 1.48888 0.814275 0
M  V30 4740 H 459.069 3.26131 2.16227 0
M  V30 4741 H 458.692 2.06916 3.39517 0
M  V30 4742 N 459.689 -1.00246 1.21608 0
M  V30 4743 C 460.636 -2.09073 0.977613 0
M  V30 4744 C 461.606 -1.65815 -0.097297 0
M  V30 4745 O 462.791 -1.90734 0.0503445 0
M  V30 4746 C 459.931 -3.40671 0.551133 0
M  V30 4747 C 459.044 -3.97326 1.69576 0
M  V30 4748 C 458.179 -5.17043 1.2182 0
M  V30 4749 C 457.218 -5.65813 2.335 0
M  V30 4750 N 456.355 -6.76778 1.86859 0
M  V30 4751 H 461.195 -2.28806 1.90924 0
M  V30 4752 H 458.732 -1.12186 0.951452 0
M  V30 4753 H 460.69 -4.16225 0.285097 0
M  V30 4754 H 459.32 -3.20967 -0.343489 0
M  V30 4755 H 458.372 -3.18734 2.07637 0
M  V30 4756 H 459.684 -4.29511 2.53617 0
M  V30 4757 H 458.838 -5.99852 0.908975 0
M  V30 4758 H 457.577 -4.86458 0.347869 0
M  V30 4759 H 456.582 -4.81599 2.65222 0
M  V30 4760 H 457.807 -5.98427 3.21033 0
M  V30 4761 H 455.753 -6.47994 1.02174 0
M  V30 4762 H 455.67 -7.08231 2.64471 0
M  V30 4763 H 456.938 -7.63116 1.58978 0
M  V30 4764 N 461.167 -1.02423 -1.1978 0
M  V30 4765 C 462.13 -0.605703 -2.21052 0
M  V30 4766 C 463.13 0.328209 -1.57415 0
M  V30 4767 O 464.32 0.115853 -1.73814 0
M  V30 4768 C 461.452 0.114366 -3.40708 0
M  V30 4769 H 462.645 -1.5017 -2.59594 0
M  V30 4770 H 460.198 -0.814888 -1.33376 0
M  V30 4771 H 460.933 1.02492 -3.07678 0
M  V30 4772 H 460.718 -0.556641 -3.88129 0
M  V30 4773 H 462.208 0.394272 -4.15735 0
M  V30 4774 N 462.645 1.35699 -0.801477 0
M  V30 4775 C 463.87 2.03687 -0.390678 0
M  V30 4776 C 464.295 1.60015 0.988778 0
M  V30 4777 O 463.653 0.774357 1.63931 0
M  V30 4778 C 463.701 3.57439 -0.476404 0
M  V30 4779 O 462.805 4.09208 0.512106 0
M  V30 4780 H 462.146 0.64344 -0.163956 0
M  V30 4781 H 464.676 1.73403 -1.08594 0
M  V30 4782 H 464.686 4.06544 -0.344357 0
M  V30 4783 H 463.361 3.88576 -1.48262 0
M  V30 4784 H 461.938 3.7134 0.340721 0
M  V30 4785 N 464.123 0.554532 1.47522 0
M  V30 4786 C 465.07 -0.19466 2.29978 0
M  V30 4787 C 466.04 -0.910882 1.38896 0
M  V30 4788 O 467.225 -0.907102 1.67858 0
M  V30 4789 C 464.365 -1.22035 3.22802 0
M  V30 4790 C 463.478 -0.510474 4.28973 0
M  V30 4791 C 462.613 -1.52123 5.08952 0
M  V30 4792 C 461.652 -0.796173 6.069 0
M  V30 4793 N 460.789 -1.75363 6.79847 0
M  V30 4794 H 465.629 0.51461 2.93523 0
M  V30 4795 H 463.166 0.265607 1.44682 0
M  V30 4796 H 465.124 -1.8276 3.7504 0
M  V30 4797 H 463.754 -1.89769 2.61127 0
M  V30 4798 H 462.806 0.211234 3.79813 0
M  V30 4799 H 464.118 0.0576503 4.98767 0
M  V30 4800 H 463.272 -2.20207 5.65326 0
M  V30 4801 H 462.011 -2.12327 4.39054 0
M  V30 4802 H 461.016 -0.101388 5.49707 0
M  V30 4803 H 462.241 -0.199911 6.78806 0
M  V30 4804 H 460.187 -2.3443 6.12682 0
M  V30 4805 H 460.104 -1.23759 7.45801 0
M  V30 4806 H 461.372 -2.4257 7.40797 0
M  V30 4807 N 465.601 -1.54893 0.290851 0
M  V30 4808 C 466.849 -1.99538 -0.320756 0
M  V30 4809 C 467.17 -1.18075 -1.55188 0
M  V30 4810 O 466.44 -0.274162 -1.93972 0
M  V30 4811 H 465.02 -0.737052 -0.121507 0
M  V30 4812 H 467.682 -1.90755 0.399832 0
M  V30 4813 H 466.778 -3.06282 -0.599802 0
M  V30 4814 N 467.08 -0.0183926 -1.57589 0
M  V30 4815 C 468.327 0.662562 -1.91354 0
M  V30 4816 C 468.655 1.72747 -0.893788 0
M  V30 4817 O 467.91 1.9545 0.0988509 0
M  V30 4818 C 468.209 1.32676 -3.31861 0
M  V30 4819 C 467.875 0.393267 -4.49182 0
M  V30 4820 C 466.537 0.136302 -4.81007 0
M  V30 4821 C 468.889 -0.248366 -5.20608 0
M  V30 4822 C 466.217 -0.770282 -5.81621 0
M  V30 4823 C 468.569 -1.14294 -6.22189 0
M  V30 4824 C 467.233 -1.4089 -6.52462 0
M  V30 4825 H 466.503 0.242448 -0.700214 0
M  V30 4826 H 469.15 -0.0778629 -1.91342 0
M  V30 4827 H 467.455 2.14168 -3.28084 0
M  V30 4828 H 469.152 1.86001 -3.55253 0
M  V30 4829 H 465.742 0.603723 -4.24327 0
M  V30 4830 H 469.926 -0.062883 -4.9626 0
M  V30 4831 H 465.182 -0.984154 -6.03427 0
M  V30 4832 H 469.356 -1.64637 -6.76659 0
M  V30 4833 H 466.983 -2.11306 -7.30242 0
M  V30 4834 N 468.558 1.5553 0.254621 0
M  V30 4835 C 469.805 1.77 0.983736 0
M  V30 4836 C 470.133 0.58133 1.85609 0
M  V30 4837 O 469.388 -0.435621 1.9079 0
M  V30 4838 C 469.687 3.03891 1.88109 0
M  V30 4839 C 469.353 4.35597 1.16472 0
M  V30 4840 C 468.015 4.7139 0.966714 0
M  V30 4841 C 470.367 5.1705 0.656387 0
M  V30 4842 C 467.695 5.86176 0.247942 0
M  V30 4843 C 470.047 6.32581 -0.0488807 0
M  V30 4844 C 468.711 6.67 -0.258438 0
M  V30 4845 H 467.981 0.647688 0.359974 0
M  V30 4846 H 470.628 1.89802 0.254463 0
M  V30 4847 H 468.933 2.86068 2.67717 0
M  V30 4848 H 470.63 3.17701 2.44677 0
M  V30 4849 H 467.22 4.07475 1.32899 0
M  V30 4850 H 471.404 4.8986 0.796933 0
M  V30 4851 H 466.66 6.11354 0.075035 0
M  V30 4852 H 470.834 6.94942 -0.450444 0
M  V30 4853 H 468.461 7.55793 -0.817358 0
M  V30 4854 N 470.036 -0.519951 1.48776 0
M  V30 4855 C 471.261 -1.30447 1.6124 0
M  V30 4856 C 471.686 -1.86055 0.276591 0
M  V30 4857 O 471.044 -1.64915 -0.753183 0
M  V30 4858 C 471.092 -2.42406 2.66967 0
M  V30 4859 O 470.196 -3.45728 2.24824 0
M  V30 4860 H 469.537 -0.385924 0.540332 0
M  V30 4861 H 472.067 -0.624572 1.94834 0
M  V30 4862 H 472.077 -2.88447 2.88552 0
M  V30 4863 H 470.752 -2.01294 3.63941 0
M  V30 4864 H 469.329 -3.05737 2.13494 0
M  V30 4865 N 471.514 -1.37532 -0.769588 0
M  V30 4866 C 472.744 -1.35861 -1.55645 0
M  V30 4867 C 473.152 0.0574398 -1.89113 0
M  V30 4868 O 472.495 1.03021 -1.52093 0
M  V30 4869 C 472.557 -2.13431 -2.89288 0
M  V30 4870 C 472.221 -3.62378 -2.78444 0
M  V30 4871 C 473.218 -4.56215 -2.49326 0
M  V30 4872 C 470.903 -4.05529 -2.96398 0
M  V30 4873 C 472.897 -5.91181 -2.38294 0
M  V30 4874 C 470.584 -5.40579 -2.84987 0
M  V30 4875 C 471.582 -6.33218 -2.55975 0
M  V30 4876 O 471.27 -7.65787 -2.44594 0
M  V30 4877 H 471.002 -0.467001 -0.48876 0
M  V30 4878 H 473.556 -1.81505 -0.961515 0
M  V30 4879 H 471.786 -1.62481 -3.50909 0
M  V30 4880 H 473.475 -2.04368 -3.50697 0
M  V30 4881 H 474.241 -4.24187 -2.35139 0
M  V30 4882 H 470.12 -3.33781 -3.1798 0
M  V30 4883 H 473.664 -6.63457 -2.15571 0
M  V30 4884 H 469.561 -5.72209 -2.98743 0
M  V30 4885 H 470.329 -7.76132 -2.59927 0
M  V30 4886 N 472.992 0.995999 -1.22138 0
M  V30 4887 C 474.408 1.25917 -0.980667 0
M  V30 4888 C 474.608 1.98819 0.327604 0
M  V30 4889 O 473.664 2.29587 1.05101 0
M  V30 4890 C 474.977 2.07399 -2.17729 0
M  V30 4891 C 476.525 2.20594 -2.22052 0
M  V30 4892 C 477 3.05462 -3.41258 0
M  V30 4893 N 478.491 3.13049 -3.41401 0
M  V30 4894 C 479.226 3.78997 -4.30289 0
M  V30 4895 N 478.722 4.46899 -5.2939 0
M  V30 4896 N 480.515 3.75728 -4.18073 0
M  V30 4897 H 472.666 0.507158 -2.06256 0
M  V30 4898 H 474.929 0.28658 -0.903646 0
M  V30 4899 H 474.635 1.61191 -3.12586 0
M  V30 4900 H 474.509 3.08154 -2.17534 0
M  V30 4901 H 476.896 2.66017 -1.27745 0
M  V30 4902 H 476.977 1.1928 -2.26287 0
M  V30 4903 H 476.621 2.60739 -4.35864 0
M  V30 4904 H 476.551 4.06911 -3.34262 0
M  V30 4905 H 479.042 2.64721 -2.69688 0
M  V30 4906 H 479.355 4.94952 -5.935 0
M  V30 4907 H 477.7 4.45657 -5.33306 0
M  V30 4908 H 480.891 3.2184 -3.39907 0
M  V30 4909 H 481.064 4.26845 -4.87553 0
M  V30 4910 N 474.47 1.03057 1.19235 0
M  V30 4911 C 475.433 0.617418 2.20727 0
M  V30 4912 C 476.433 -0.319856 1.57587 0
M  V30 4913 O 477.623 -0.106633 1.73873 0
M  V30 4914 C 474.755 -0.096296 3.40764 0
M  V30 4915 H 475.948 1.51544 2.58794 0
M  V30 4916 H 473.501 0.821949 1.32942 0
M  V30 4917 H 474.236 -1.00859 3.08217 0
M  V30 4918 H 474.021 0.577217 3.87828 0
M  V30 4919 H 475.511 -0.372219 4.15938 0
M  V30 4920 N 475.948 -1.35272 0.808662 0
M  V30 4921 C 477.225 -1.93077 0.313181 0
M  V30 4922 C 477.605 -1.73847 -1.19752 0
M  V30 4923 O 476.953 -1.1087 -1.998 0
M  V30 4924 C 477.163 -3.41347 0.726859 0
M  V30 4925 C 478.511 -4.18493 0.717532 0
M  V30 4926 O 479.535 -3.4987 0.668535 0
M  V30 4927 O 478.394 -5.40937 0.777779 0
M  V30 4928 H 475.488 -0.822885 0.0824018 0
M  V30 4929 H 478.034 -1.44335 0.892499 0
M  V30 4930 H 476.806 -3.49082 1.76797 0
M  V30 4931 H 476.429 -3.97411 0.122461 0
M  V30 4932 N 477.426 -0.562348 -1.47226 0
M  V30 4933 C 478.675 -0.038041 -2.01664 0
M  V30 4934 C 478.988 1.32199 -1.44162 0
M  V30 4935 O 480.194 1.9365 -1.90294 0
M  V30 4936 C 478.65 -0.0174958 -3.59896 0
M  V30 4937 C 478.258 -1.3746 -4.2639 0
M  V30 4938 C 480.002 0.453934 -4.22066 0
M  V30 4939 C 477.909 -1.31289 -5.76643 0
M  V30 4940 H 476.839 -0.0104511 -0.753928 0
M  V30 4941 H 479.49 -0.710966 -1.69167 0
M  V30 4942 H 477.872 0.721182 -3.89378 0
M  V30 4943 H 479.046 -2.1314 -4.08544 0
M  V30 4944 H 477.361 -1.78438 -3.7623 0
M  V30 4945 H 479.958 0.518584 -5.32179 0
M  V30 4946 H 480.301 1.46706 -3.89594 0
M  V30 4947 H 480.834 -0.230044 -3.97134 0
M  V30 4948 H 477.573 -2.30217 -6.13743 0
M  V30 4949 H 477.093 -0.597973 -5.96812 0
M  V30 4950 H 478.772 -1.01713 -6.38955 0
M  V30 4951 N 478.904 1.54736 -0.299062 0
M  V30 4952 C 480.151 2.00101 0.310784 0
M  V30 4953 C 480.479 1.18746 1.54045 0
M  V30 4954 O 479.734 0.251198 1.94081 0
M  V30 4955 C 480.033 3.50199 0.713835 0
M  V30 4956 C 479.699 4.48997 -0.413873 0
M  V30 4957 C 478.361 4.7573 -0.723462 0
M  V30 4958 C 480.713 5.07839 -1.17257 0
M  V30 4959 C 478.041 5.5857 -1.79491 0
M  V30 4960 C 480.393 5.91844 -2.23392 0
M  V30 4961 C 479.057 6.16889 -2.54959 0
M  V30 4962 H 478.327 0.732221 0.113724 0
M  V30 4963 H 480.974 1.86888 -0.417756 0
M  V30 4964 H 479.279 3.61012 1.52243 0
M  V30 4965 H 480.976 3.82723 1.19684 0
M  V30 4966 H 477.566 4.28292 -0.162476 0
M  V30 4967 H 481.75 4.87188 -0.946651 0
M  V30 4968 H 477.006 5.76213 -2.04423 0
M  V30 4969 H 481.18 6.36465 -2.8264 0
M  V30 4970 H 478.807 6.80869 -3.38114 0
M  V30 4971 N 480.382 0.0267497 1.57577 0
M  V30 4972 C 481.628 -0.653371 1.91987 0
M  V30 4973 C 481.961 -1.71915 0.903263 0
M  V30 4974 O 481.236 -1.94358 -0.0743387 0
M  V30 4975 C 481.519 -1.272 3.36886 0
M  V30 4976 C 481.372 -0.215938 4.49281 0
M  V30 4977 C 482.691 -2.19069 3.81703 0
M  V30 4978 H 479.81 -0.236047 0.698177 0
M  V30 4979 H 482.452 0.0835236 1.89816 0
M  V30 4980 H 480.602 -1.90005 3.38866 0
M  V30 4981 H 482.274 0.41449 4.59434 0
M  V30 4982 H 480.517 0.458855 4.31366 0
M  V30 4983 H 481.188 -0.688347 5.47691 0
M  V30 4984 H 483.664 -1.66253 3.81444 0
M  V30 4985 H 482.54 -2.59307 4.83788 0
M  V30 4986 H 482.801 -3.08087 3.17072 0
M  V30 4987 N 481.861 -1.55662 -0.24637 0
M  V30 4988 C 482.793 -1.86811 -1.32794 0
M  V30 4989 C 483.806 -0.754413 -1.44265 0
M  V30 4990 O 484.995 -1.03253 -1.45606 0
M  V30 4991 C 482.095 -2.0397 -2.70646 0
M  V30 4992 C 481.268 -3.34832 -2.81436 0
M  V30 4993 C 480.327 -3.41727 -4.00136 0
M  V30 4994 O 479.353 -4.14934 -3.89639 0
M  V30 4995 N 480.555 -2.71058 -5.1333 0
M  V30 4996 H 483.32 -2.80174 -1.06409 0
M  V30 4997 H 480.881 -1.55906 -0.43647 0
M  V30 4998 H 482.873 -2.05924 -3.48393 0
M  V30 4999 H 481.443 -1.1735 -2.89738 0
M  V30 5000 H 480.663 -3.4519 -1.90361 0
M  V30 5001 H 481.951 -4.21085 -2.85595 0
M  V30 5002 H 481.349 -2.11314 -5.2475 0
M  V30 5003 H 479.906 -2.78704 -5.89209 0
M  V30 5004 N 483.339 0.512053 -1.4905 0
M  V30 5005 C 484.287 1.63568 -1.65373 0
M  V30 5006 C 485.281 1.61228 -0.519806 0
M  V30 5007 O 486.487 1.65869 -0.699101 0
M  V30 5008 H 482.862 0.542019 -0.521267 0
M  V30 5009 H 484.833 1.4695 -2.59708 0
M  V30 5010 C 483.582 3.01761 -1.7273 0
M  V30 5011 H 482.905 3.04263 -2.59353 0
M  V30 5012 H 484.345 3.79948 -1.8819 0
M  V30 5013 C 482.804 3.33609 -0.46973 0
M  V30 5014 O 483.334 3.99607 0.409492 0
M  V30 5015 N 481.54 2.88651 -0.336003 0
M  V30 5016 H 481.087 2.35119 -1.05247 0
M  V30 5017 H 481.045 3.10328 0.504363 0
M  V30 5018 N 484.817 1.37938 0.762283 0
M  V30 5019 C 485.747 1.37176 1.88958 0
M  V30 5020 C 486.728 0.238945 1.68413 0
M  V30 5021 O 487.913 0.440726 1.89133 0
M  V30 5022 C 485.043 1.18742 3.2637 0
M  V30 5023 C 483.997 2.29136 3.61498 0
M  V30 5024 C 483.323 1.95816 4.97554 0
M  V30 5025 C 484.623 3.71363 3.6727 0
M  V30 5026 H 486.317 2.31509 1.89853 0
M  V30 5027 H 483.863 1.11438 0.912005 0
M  V30 5028 H 485.816 1.16837 4.04879 0
M  V30 5029 H 484.54 0.208683 3.25933 0
M  V30 5030 H 483.199 2.30213 2.85303 0
M  V30 5031 H 482.847 0.964475 4.93667 0
M  V30 5032 H 482.547 2.69745 5.22026 0
M  V30 5033 H 484.071 1.95513 5.78452 0
M  V30 5034 H 485.485 3.72364 4.35911 0
M  V30 5035 H 483.882 4.44425 4.03245 0
M  V30 5036 H 484.952 4.04305 2.67704 0
M  V30 5037 N 486.295 -0.989507 1.22664 0
M  V30 5038 C 487.541 -1.7321 1.05481 0
M  V30 5039 C 487.874 -1.89852 -0.408635 0
M  V30 5040 O 487.149 -1.44416 -1.30285 0
M  V30 5041 C 487.432 -3.1357 1.77047 0
M  V30 5042 C 487.285 -3.04555 3.31008 0
M  V30 5043 C 488.604 -4.12812 1.5256 0
M  V30 5044 H 485.723 -0.628697 0.384589 0
M  V30 5045 H 488.365 -1.15258 1.51049 0
M  V30 5046 H 486.515 -3.63046 1.3831 0
M  V30 5047 H 488.187 -2.62674 3.7921 0
M  V30 5048 H 486.43 -2.41278 3.6051 0
M  V30 5049 H 487.101 -4.03894 3.76263 0
M  V30 5050 H 489.577 -3.72106 1.86215 0
M  V30 5051 H 488.453 -5.09132 2.05124 0
M  V30 5052 H 488.714 -4.39711 0.458936 0
M  V30 5053 N 487.773 -1.03688 -1.18687 0
M  V30 5054 C 489.184 -0.766488 -1.70241 0
M  V30 5055 C 489.535 0.713052 -1.82784 0
M  V30 5056 O 488.66 1.55529 -1.50465 0
M  V30 5057 C 489.255 -1.38475 -3.09209 0
M  V30 5058 C 487.814 -1.16276 -3.5799 0
M  V30 5059 C 486.961 -1.4778 -2.34641 0
M  V30 5060 H 489.912 -1.20378 -1.03415 0
M  V30 5061 H 489.933 -0.785939 -3.72295 0
M  V30 5062 H 489.445 -2.46157 -3.00048 0
M  V30 5063 H 487.546 -0.104508 -3.72453 0
M  V30 5064 H 487.659 -1.8571 -4.41643 0
M  V30 5065 H 486.023 -0.897366 -2.38368 0
M  V30 5066 H 486.806 -2.56562 -2.28102 0
M  V30 5067 N 489.251 1.34841 -0.815825 0
M  V30 5068 C 490.528 1.92908 -0.323416 0
M  V30 5069 C 490.908 1.74479 1.18828 0
M  V30 5070 O 490.256 1.11928 1.99209 0
M  V30 5071 C 490.466 3.40957 -0.744952 0
M  V30 5072 C 491.814 4.18107 -0.739716 0
M  V30 5073 O 492.838 3.49511 -0.68708 0
M  V30 5074 O 491.697 5.40517 -0.806456 0
M  V30 5075 H 488.791 0.822436 -0.0867646 0
M  V30 5076 H 491.337 1.4386 -0.90014 0
M  V30 5077 H 490.109 3.4814 -1.78646 0
M  V30 5078 H 489.732 3.97341 -0.143535 0
M  V30 5079 N 490.729 0.570148 1.46925 0
M  V30 5080 C 491.975 0.0593124 2.03314 0
M  V30 5081 C 492.33 -1.28139 1.43521 0
M  V30 5082 O 491.623 -1.82411 0.586245 0
M  V30 5083 C 491.817 -0.0780336 3.57315 0
M  V30 5084 C 491.646 1.2478 4.32042 0
M  V30 5085 C 490.416 1.81859 4.7144 0
M  V30 5086 C 492.614 2.16808 4.66368 0
M  V30 5087 N 490.596 3.08313 5.30864 0
M  V30 5088 C 491.967 3.27845 5.2623 0
M  V30 5089 C 494.022 2.16643 4.48297 0
M  V30 5090 C 492.725 4.38832 5.69929 0
M  V30 5091 C 494.751 3.26652 4.93004 0
M  V30 5092 C 494.113 4.36408 5.52926 0
M  V30 5093 H 490.212 0.0641804 0.779362 0
M  V30 5094 H 492.796 0.760285 1.79242 0
M  V30 5095 H 490.967 -0.748151 3.81126 0
M  V30 5096 H 492.699 -0.59211 4.00345 0
M  V30 5097 H 489.454 1.35502 4.53802 0
M  V30 5098 H 489.878 3.72802 5.65108 0
M  V30 5099 H 494.52 1.33065 4.01315 0
M  V30 5100 H 492.238 5.23162 6.15896 0
M  V30 5101 H 495.824 3.27627 4.80782 0
M  V30 5102 H 494.704 5.20127 5.86888 0
M  V30 5103 N 492.207 -1.54576 0.307264 0
M  V30 5104 C 493.623 -1.59534 -0.0459251 0
M  V30 5105 C 493.823 -1.32414 -1.51884 0
M  V30 5106 O 492.879 -1.1006 -2.27251 0
M  V30 5107 C 494.192 -2.98566 0.357649 0
M  V30 5108 C 495.74 -3.11491 0.306937 0
M  V30 5109 C 496.215 -4.52842 0.685427 0
M  V30 5110 N 497.706 -4.58782 0.638203 0
M  V30 5111 C 498.441 -5.66238 0.903458 0
M  V30 5112 N 497.937 -6.81703 1.23501 0
M  V30 5113 N 499.73 -5.55937 0.830102 0
M  V30 5114 H 491.881 -1.70464 1.26712 0
M  V30 5115 H 494.144 -0.79647 0.514139 0
M  V30 5116 H 493.85 -3.23356 1.38325 0
M  V30 5117 H 493.724 -3.76117 -0.285565 0
M  V30 5118 H 496.111 -2.86446 -0.709424 0
M  V30 5119 H 496.192 -2.36081 0.984861 0
M  V30 5120 H 495.836 -4.78618 1.69963 0
M  V30 5121 H 495.766 -5.26598 -0.0146346 0
M  V30 5122 H 498.257 -3.75849 0.393138 0
M  V30 5123 H 498.57 -7.59582 1.42322 0
M  V30 5124 H 496.915 -6.8324 1.27311 0
M  V30 5125 H 500.106 -4.64608 0.570693 0
M  V30 5126 H 500.279 -6.39597 1.04019 0
M  V30 5127 N 493.685 -0.035106 -1.57561 0
M  V30 5128 C 494.933 0.64096 -1.91667 0
M  V30 5129 C 495.254 1.72323 -0.912681 0
M  V30 5130 O 494.524 1.95849 0.0449089 0
M  V30 5131 H 493.104 0.239743 -0.707483 0
M  V30 5132 H 495.766 -0.084321 -1.94718 0
M  V30 5133 H 494.862 1.08987 -2.92452 0
M  V30 5134 N 495.163 1.55791 0.238111 0
M  V30 5135 C 496.574 1.68383 0.806472 0
M  V30 5136 C 496.925 0.634157 1.85669 0
M  V30 5137 O 496.05 -0.217913 2.153 0
M  V30 5138 C 496.645 3.05268 1.46959 0
M  V30 5139 C 495.204 3.1977 1.98555 0
M  V30 5140 C 494.351 2.64279 0.839763 0
M  V30 5141 H 497.302 1.58694 0.0137535 0
M  V30 5142 H 497.323 3.00203 2.33792 0
M  V30 5143 H 496.835 3.81643 0.704993 0
M  V30 5144 H 494.936 2.48234 2.77868 0
M  V30 5145 H 495.049 4.26788 2.17689 0
M  V30 5146 H 493.413 2.22329 1.24265 0
M  V30 5147 H 494.196 3.43187 0.0881032 0
M  V30 5148 N 496.642 -0.504142 1.49319 0
M  V30 5149 C 497.919 -1.26548 1.49147 0
M  V30 5150 C 498.299 -2.09977 0.21744 0
M  V30 5151 O 497.647 -2.14028 -0.800269 0
M  V30 5152 C 497.857 -2.12489 2.76857 0
M  V30 5153 C 499.205 -2.7178 3.26222 0
M  V30 5154 O 500.229 -2.22758 2.77952 0
M  V30 5155 O 499.088 -3.61015 4.10281 0
M  V30 5156 H 496.182 -0.572495 0.596806 0
M  V30 5157 H 498.728 -0.51867 1.61579 0
M  V30 5158 H 497.5 -1.50796 3.61077 0
M  V30 5159 H 497.123 -2.94368 2.6727 0
M  V30 5160 N 498.12 -1.38341 -0.754957 0
M  V30 5161 C 499.368 -1.34208 -1.51105 0
M  V30 5162 C 499.689 0.0677634 -1.94882 0
M  V30 5163 O 498.959 1.01517 -1.67544 0
M  V30 5164 H 497.539 -0.493819 -0.560493 0
M  V30 5165 H 500.201 -1.73005 -0.897507 0
M  V30 5166 H 499.297 -1.99203 -2.4026 0
M  V30 5167 N 499.598 0.982988 -1.23187 0
M  V30 5168 C 500.826 1.75921 -1.08901 0
M  V30 5169 C 501.241 1.85341 0.359719 0
M  V30 5170 O 500.598 1.33072 1.24892 0
M  V30 5171 C 500.649 3.18742 -1.70545 0
M  V30 5172 O 500.37 3.09814 -3.09753 0
M  V30 5173 C 501.871 4.1277 -1.61667 0
M  V30 5174 H 499.091 0.552166 -0.381252 0
M  V30 5175 H 501.635 1.23516 -1.62985 0
M  V30 5176 H 499.79 3.68182 -1.20501 0
M  V30 5177 H 500.204 3.99703 -3.39614 0
M  V30 5178 H 501.678 5.10697 -2.09506 0
M  V30 5179 H 502.155 4.3542 -0.575009 0
M  V30 5180 H 502.761 3.69232 -2.11064 0
M  V30 5181 N 501.076 1.04316 1.18135 0
M  V30 5182 C 502.323 0.74802 1.88178 0
M  V30 5183 C 502.651 -0.72441 1.80506 0
M  V30 5184 O 501.906 -1.54463 1.20165 0
M  V30 5185 C 502.205 1.16271 3.37958 0
M  V30 5186 C 501.871 2.63585 3.65833 0
M  V30 5187 C 500.533 3.03829 3.73151 0
M  V30 5188 C 502.885 3.58822 3.78016 0
M  V30 5189 C 500.213 4.38194 3.90132 0
M  V30 5190 C 502.565 4.92909 3.96514 0
M  V30 5191 C 501.229 5.3282 4.02068 0
M  V30 5192 H 500.499 0.27372 0.688592 0
M  V30 5193 H 503.146 1.30863 1.39811 0
M  V30 5194 H 501.451 0.520938 3.88321 0
M  V30 5195 H 503.148 0.911672 3.90499 0
M  V30 5196 H 499.738 2.31414 3.60757 0
M  V30 5197 H 503.922 3.28875 3.71692 0
M  V30 5198 H 499.178 4.68631 3.92677 0
M  V30 5199 H 503.352 5.66606 4.04883 0
M  V30 5200 H 500.979 6.36943 4.14979 0
M  V30 5201 N 502.554 -1.34406 0.822964 0
M  V30 5202 C 503.801 -1.98284 0.411057 0
M  V30 5203 C 504.129 -1.65245 -1.02588 0
M  V30 5204 O 503.384 -0.91619 -1.72929 0
M  V30 5205 C 503.683 -3.52981 0.560268 0
M  V30 5206 C 503.349 -4.05931 1.96293 0
M  V30 5207 C 502.011 -4.20103 2.34664 0
M  V30 5208 C 504.363 -4.34412 2.87985 0
M  V30 5209 C 501.691 -4.60082 3.64062 0
M  V30 5210 C 504.043 -4.75838 4.16847 0
M  V30 5211 C 502.707 -4.88215 4.55195 0
M  V30 5212 H 501.977 -0.725573 0.150416 0
M  V30 5213 H 504.624 -1.60349 1.04692 0
M  V30 5214 H 502.929 -3.91477 -0.158982 0
M  V30 5215 H 504.626 -4.00385 0.222087 0
M  V30 5216 H 501.216 -3.95363 1.65487 0
M  V30 5217 H 505.4 -4.23001 2.59584 0
M  V30 5218 H 500.656 -4.67856 3.93599 0
M  V30 5219 H 504.83 -4.96834 4.87984 0
M  V30 5220 H 502.457 -5.18952 5.55512 0
M  V30 5221 N 504.032 -0.577932 -1.46621 0
M  V30 5222 C 505.28 -0.061566 -2.02006 0
M  V30 5223 C 505.601 1.30117 -1.4524 0
M  V30 5224 O 504.871 1.85313 -0.63529 0
M  V30 5225 H 503.451 -0.0197692 -0.746738 0
M  V30 5226 H 506.113 -0.752631 -1.79782 0
M  V30 5227 H 505.209 0.0110238 -3.12098 0
M  V30 5228 N 505.51 1.54411 -0.315457 0
M  V30 5229 C 506.443 2.20265 0.596522 0
M  V30 5230 C 507.421 1.17693 1.12192 0
M  V30 5231 O 508.605 1.46397 1.18744 0
M  V30 5232 C 505.732 2.85794 1.81767 0
M  V30 5233 C 504.778 4.02017 1.42424 0
M  V30 5234 S 505.611 5.33452 0.467836 0
M  V30 5235 C 506.767 6.02471 1.69645 0
M  V30 5236 H 507 2.97277 0.0370896 0
M  V30 5237 H 504.533 1.54079 -0.0995562 0
M  V30 5238 H 506.491 3.24172 2.51839 0
M  V30 5239 H 505.152 2.08601 2.34828 0
M  V30 5240 H 504.345 4.46701 2.33396 0
M  V30 5241 H 503.947 3.65271 0.803311 0
M  V30 5242 H 506.239 6.24157 2.63504 0
M  V30 5243 H 507.182 6.96215 1.29192 0
M  V30 5244 H 507.59 5.32284 1.87974 0
M  V30 5245 N 506.988 0.0434614 1.5754 0
M  V30 5246 C 508.235 -0.632035 1.92384 0
M  V30 5247 C 508.563 -1.71304 0.921157 0
M  V30 5248 O 507.818 -1.95583 -0.067744 0
M  V30 5249 C 508.117 -1.2738 3.3393 0
M  V30 5250 C 507.783 -0.321757 4.49751 0
M  V30 5251 C 506.445 -0.0597611 4.81163 0
M  V30 5252 C 508.797 0.331158 5.20147 0
M  V30 5253 C 506.125 0.862715 5.80322 0
M  V30 5254 C 508.477 1.24178 6.20292 0
M  V30 5255 C 507.141 1.51252 6.50138 0
M  V30 5256 H 506.411 -0.231278 0.703983 0
M  V30 5257 H 509.058 0.108294 1.91194 0
M  V30 5258 H 507.363 -2.08921 3.3145 0
M  V30 5259 H 509.06 -1.80326 3.58167 0
M  V30 5260 H 505.65 -0.53614 4.25233 0
M  V30 5261 H 509.834 0.141826 4.96097 0
M  V30 5262 H 505.09 1.08003 6.01785 0
M  V30 5263 H 509.264 1.75381 6.73954 0
M  V30 5264 H 506.891 2.22897 7.26788 0
M  V30 5265 N 508.466 -1.55915 -0.229846 0
M  V30 5266 C 509.691 -1.8296 -0.976743 0
M  V30 5267 C 510.116 -0.622735 -1.77493 0
M  V30 5268 O 509.474 0.428431 -1.76165 0
M  V30 5269 C 509.522 -3.07916 -1.8767 0
M  V30 5270 O 508.626 -2.86028 -2.97088 0
M  V30 5271 H 507.967 -0.603453 -0.277021 0
M  V30 5272 H 510.497 -2.0312 -0.245669 0
M  V30 5273 H 510.507 -3.37802 -2.2881 0
M  V30 5274 H 509.182 -3.95389 -1.28996 0
M  V30 5275 H 507.759 -2.67355 -2.59954 0
M  V30 5276 N 509.944 0.496216 -1.49584 0
M  V30 5277 C 511.193 1.24668 -1.58558 0
M  V30 5278 C 511.506 1.9359 -0.279703 0
M  V30 5279 O 512.712 2.70365 -0.248048 0
M  V30 5280 C 511.168 2.26388 -2.79779 0
M  V30 5281 C 510.776 1.63384 -4.17145 0
M  V30 5282 C 512.52 3.02233 -2.98086 0
M  V30 5283 C 510.427 2.63243 -5.29582 0
M  V30 5284 H 509.357 0.468995 -0.590389 0
M  V30 5285 H 512.008 0.519985 -1.75978 0
M  V30 5286 H 510.39 3.02241 -2.55863 0
M  V30 5287 H 511.564 0.93491 -4.51216 0
M  V30 5288 H 509.879 0.999121 -4.04236 0
M  V30 5289 H 512.476 3.76919 -3.79257 0
M  V30 5290 H 512.819 3.60132 -2.08831 0
M  V30 5291 H 513.352 2.33495 -3.22063 0
M  V30 5292 H 510.091 2.10119 -6.20911 0
M  V30 5293 H 509.611 3.31363 -4.99959 0
M  V30 5294 H 511.29 3.25575 -5.59115 0
M  V30 5295 N 511.423 1.38739 0.74761 0
M  V30 5296 C 512.67 1.35274 1.50689 0
M  V30 5297 C 512.998 -0.0553359 1.94421 0
M  V30 5298 O 512.253 -1.03365 1.66175 0
M  V30 5299 C 512.552 2.25992 2.7688 0
M  V30 5300 C 512.218 3.73854 2.5208 0
M  V30 5301 C 510.88 4.14145 2.45025 0
M  V30 5302 C 513.232 4.67427 2.30568 0
M  V30 5303 C 510.56 5.4609 2.14483 0
M  V30 5304 C 512.912 5.99635 2.01545 0
M  V30 5305 C 511.576 6.39004 1.92951 0
M  V30 5306 H 510.846 0.495003 0.55141 0
M  V30 5307 H 513.493 1.71145 0.859158 0
M  V30 5308 H 511.798 1.83196 3.46333 0
M  V30 5309 H 513.495 2.20611 3.34861 0
M  V30 5310 H 510.085 3.41913 2.58444 0
M  V30 5311 H 514.269 4.3714 2.34994 0
M  V30 5312 H 509.525 5.75528 2.06342 0
M  V30 5313 H 513.699 6.71678 1.83906 0
M  V30 5314 H 511.326 7.41165 1.6905 0
M  V30 5315 N 512.901 -0.976442 1.23707 0
M  V30 5316 C 514.148 -1.71827 1.07153 0
M  V30 5317 C 514.476 -1.9053 -0.390982 0
M  V30 5318 O 513.731 -1.45779 -1.30564 0
M  V30 5319 C 514.03 -3.11814 1.74662 0
M  V30 5320 C 513.696 -3.12978 3.24585 0
M  V30 5321 C 512.358 -3.13003 3.6549 0
M  V30 5322 C 514.71 -3.07986 4.20469 0
M  V30 5323 C 512.038 -3.05757 5.00729 0
M  V30 5324 C 514.39 -3.02282 5.55705 0
M  V30 5325 C 513.054 -3.00631 5.95968 0
M  V30 5326 H 512.324 -0.628758 0.392102 0
M  V30 5327 H 514.971 -1.14239 1.53693 0
M  V30 5328 H 513.276 -3.72812 1.20492 0
M  V30 5329 H 514.973 -3.67989 1.59328 0
M  V30 5330 H 511.563 -3.13718 2.92026 0
M  V30 5331 H 515.747 -3.07103 3.89874 0
M  V30 5332 H 511.003 -3.02834 5.31132 0
M  V30 5333 H 515.177 -2.97376 6.29714 0
M  V30 5334 H 512.804 -2.94771 7.00724 0
M  V30 5335 N 514.379 -1.04941 -1.1758 0
M  V30 5336 C 515.79 -0.784501 -1.69418 0
M  V30 5337 C 516.141 0.693625 -1.8353 0
M  V30 5338 O 515.266 1.53925 -1.52106 0
M  V30 5339 C 515.861 -1.41746 -3.07723 0
M  V30 5340 C 514.42 -1.20066 -3.56737 0
M  V30 5341 C 513.567 -1.5026 -2.33061 0
M  V30 5342 H 516.518 -1.21469 -1.02133 0
M  V30 5343 H 516.539 -0.825381 -3.7144 0
M  V30 5344 H 516.051 -2.49325 -2.9742 0
M  V30 5345 H 514.152 -0.144006 -3.72322 0
M  V30 5346 H 514.265 -1.90384 -4.39648 0
M  V30 5347 H 512.629 -0.922598 -2.37403 0
M  V30 5348 H 513.412 -2.58967 -2.25368 0
M  V30 5349 N 515.857 1.33968 -0.830081 0
M  V30 5350 C 517.082 2.02813 -0.433796 0
M  V30 5351 C 517.507 1.62076 0.954614 0
M  V30 5352 O 516.865 0.808955 1.62252 0
M  V30 5353 C 516.913 3.56348 -0.552115 0
M  V30 5354 O 516.017 4.10202 0.425191 0
M  V30 5355 H 515.358 0.639817 -0.177567 0
M  V30 5356 H 517.888 1.7106 -1.12248 0
M  V30 5357 H 517.898 4.05722 -0.430513 0
M  V30 5358 H 516.573 3.85344 -1.56471 0
M  V30 5359 H 515.15 3.71979 0.261878 0
M  V30 5360 N 517.335 0.585699 1.46312 0
M  V30 5361 C 518.298 -0.135673 2.28798 0
M  V30 5362 C 519.298 -0.815988 1.38558 0
M  V30 5363 O 520.488 -0.667487 1.60904 0
M  V30 5364 C 517.62 -1.20163 3.1902 0
M  V30 5365 H 518.813 0.589257 2.94054 0
M  V30 5366 H 516.366 0.343794 1.52472 0
M  V30 5367 H 517.101 -1.95804 2.58517 0
M  V30 5368 H 516.886 -0.718282 3.85465 0
M  V30 5369 H 518.376 -1.70749 3.81096 0
M  V30 5370 N 518.813 -1.54241 0.323641 0
M  V30 5371 C 520.041 -2.04985 -0.280871 0
M  V30 5372 C 520.456 -1.19978 -1.45777 0
M  V30 5373 O 519.813 -0.230471 -1.81039 0
M  V30 5374 C 519.864 -3.54353 -0.715258 0
M  V30 5375 O 519.585 -4.36132 0.414817 0
M  V30 5376 C 521.086 -4.21189 -1.38257 0
M  V30 5377 H 518.306 -0.66851 -0.0577502 0
M  V30 5378 H 520.85 -1.99029 0.469852 0
M  V30 5379 H 519.005 -3.60596 -1.41596 0
M  V30 5380 H 519.419 -5.2445 0.0725227 0
M  V30 5381 H 520.893 -5.27154 -1.63745 0
M  V30 5382 H 521.37 -3.72307 -2.32989 0
M  V30 5383 H 521.976 -4.19085 -0.724447 0
M  V30 5384 N 520.291 -0.0518155 -1.57515 0
M  V30 5385 C 521.539 0.620595 -1.92336 0
M  V30 5386 C 521.86 1.71345 -0.930907 0
M  V30 5387 O 521.13 1.95885 0.0241341 0
M  V30 5388 H 519.71 0.232226 -0.709986 0
M  V30 5389 H 522.372 -0.104969 -1.94617 0
M  V30 5390 H 521.468 1.05879 -2.93592 0
M  V30 5391 N 521.769 1.56035 0.221574 0
M  V30 5392 C 523.018 1.78245 0.944016 0
M  V30 5393 C 523.331 0.620371 1.85501 0
M  V30 5394 O 524.537 0.726103 2.6161 0
M  V30 5395 C 522.993 3.15659 1.7288 0
M  V30 5396 C 522.601 4.39591 0.863942 0
M  V30 5397 C 524.345 3.47195 2.44246 0
M  V30 5398 C 522.252 5.6803 1.64607 0
M  V30 5399 H 521.182 0.664547 0.356222 0
M  V30 5400 H 523.833 1.8243 0.197904 0
M  V30 5401 H 522.215 3.0565 2.51781 0
M  V30 5402 H 523.389 4.60655 0.115464 0
M  V30 5403 H 521.704 4.15572 0.262407 0
M  V30 5404 H 524.301 4.40381 3.03263 0
M  V30 5405 H 524.644 2.69693 3.1713 0
M  V30 5406 H 525.177 3.58533 1.72334 0
M  V30 5407 H 521.916 6.48425 0.960507 0
M  V30 5408 H 521.436 5.51027 2.36917 0
M  V30 5409 H 523.115 6.08203 2.20675 0
M  V30 5410 N 523.247 -0.488276 1.49845 0
M  V30 5411 C 524.177 -1.59675 1.70371 0
M  V30 5412 C 525.158 -1.60878 0.552473 0
M  V30 5413 O 526.343 -1.77417 0.78973 0
M  V30 5414 C 523.473 -2.98098 1.782 0
M  V30 5415 C 522.427 -3.11761 2.93239 0
M  V30 5416 C 521.753 -4.51661 2.86193 0
M  V30 5417 C 523.053 -2.90589 4.33999 0
M  V30 5418 H 524.747 -1.42752 2.63177 0
M  V30 5419 H 522.293 -0.685317 1.26647 0
M  V30 5420 H 524.246 -3.75555 1.91144 0
M  V30 5421 H 522.97 -3.16138 0.820018 0
M  V30 5422 H 521.629 -2.36732 2.79917 0
M  V30 5423 H 521.277 -4.66595 1.87877 0
M  V30 5424 H 520.977 -4.61742 3.63412 0
M  V30 5425 H 522.501 -5.31162 3.01163 0
M  V30 5426 H 523.915 -3.57807 4.47936 0
M  V30 5427 H 522.312 -3.1213 5.12538 0
M  V30 5428 H 523.382 -1.86595 4.4756 0
M  V30 5429 N 524.725 -1.39134 -0.740242 0
M  V30 5430 C 525.688 -1.37217 -1.83587 0
M  V30 5431 C 526.688 -0.270221 -1.58513 0
M  V30 5432 O 527.878 -0.527843 -1.6601 0
M  V30 5433 C 525.01 -1.13959 -3.21288 0
M  V30 5434 H 526.203 -2.34705 -1.86691 0
M  V30 5435 H 523.756 -1.24622 -0.94335 0
M  V30 5436 H 524.491 -0.17131 -3.23847 0
M  V30 5437 H 524.276 -1.93754 -3.40884 0
M  V30 5438 H 525.766 -1.15346 -4.01354 0
M  V30 5439 N 526.204 0.969867 -1.24223 0
M  V30 5440 C 527.452 1.70918 -1.0785 0
M  V30 5441 C 527.773 1.91186 0.383763 0
M  V30 5442 O 527.043 1.48806 1.27411 0
M  V30 5443 H 525.623 0.633334 -0.396103 0
M  V30 5444 H 528.285 1.16689 -1.56108 0
M  V30 5445 H 527.381 2.69455 -1.57482 0
M  V30 5446 N 527.682 1.05563 1.17022 0
M  V30 5447 C 528.645 0.664098 2.19368 0
M  V30 5448 C 529.645 -0.286358 1.5823 0
M  V30 5449 O 530.835 -0.069728 1.7406 0
M  V30 5450 C 527.967 -0.0239932 3.40892 0
M  V30 5451 H 529.16 1.57 2.55521 0
M  V30 5452 H 526.713 0.849964 1.31169 0
M  V30 5453 H 527.448 -0.942988 3.10287 0
M  V30 5454 H 527.233 0.659351 3.86516 0
M  V30 5455 H 528.723 -0.283909 4.16634 0
M  V30 5456 N 529.16 -1.33526 0.837174 0
M  V30 5457 C 530.108 -2.31168 0.257698 0
M  V30 5458 C 531.102 -1.5806 -0.609388 0
M  V30 5459 O 532.308 -1.72941 -0.499139 0
M  V30 5460 H 528.683 -0.74922 0.0646058 0
M  V30 5461 H 530.654 -2.77552 1.09578 0
M  V30 5462 C 529.403 -3.4326 -0.553887 0
M  V30 5463 H 528.726 -3.99665 0.104008 0
M  V30 5464 H 530.166 -4.13782 -0.925219 0
M  V30 5465 C 528.625 -2.88965 -1.73207 0
M  V30 5466 O 529.155 -2.85013 -2.83073 0
M  V30 5467 N 527.361 -2.45596 -1.55342 0
M  V30 5468 H 526.908 -2.49009 -0.659705 0
M  V30 5469 H 526.866 -2.0962 -2.34322 0
M  V30 5470 N 530.638 -0.59345 -1.46 0
M  V30 5471 C 531.887 -0.0808084 -2.01538 0
M  V30 5472 C 532.2 1.29112 -1.46934 0
M  V30 5473 O 533.406 1.8957 -1.94359 0
M  V30 5474 C 531.862 -0.0938311 -3.59778 0
M  V30 5475 C 531.47 -1.46474 -4.23379 0
M  V30 5476 C 533.214 0.364306 -4.22934 0
M  V30 5477 C 531.121 -1.4349 -5.73729 0
M  V30 5478 H 530.051 -0.0264407 -0.753536 0
M  V30 5479 H 532.702 -0.746689 -1.67621 0
M  V30 5480 H 531.084 0.638427 -3.9082 0
M  V30 5481 H 532.258 -2.21758 -4.03931 0
M  V30 5482 H 530.573 -1.86379 -3.7236 0
M  V30 5483 H 533.17 0.405584 -5.3316 0
M  V30 5484 H 533.513 1.38409 -3.92618 0
M  V30 5485 H 534.046 -0.31423 -3.96557 0
M  V30 5486 H 530.785 -2.43184 -6.08722 0
M  V30 5487 H 530.305 -0.724431 -5.95409 0
M  V30 5488 H 531.984 -1.15243 -6.36654 0
M  V30 5489 N 532.116 1.54067 -0.331816 0
M  V30 5490 C 533.341 2.05599 0.272705 0
M  V30 5491 C 533.766 1.2059 1.44359 0
M  V30 5492 O 533.124 0.216907 1.79998 0
M  V30 5493 C 533.172 3.54188 0.677021 0
M  V30 5494 O 532.276 3.72082 1.77844 0
M  V30 5495 H 531.617 0.662286 0.0476801 0
M  V30 5496 H 534.147 1.98826 -0.482624 0
M  V30 5497 H 534.157 3.96608 0.957415 0
M  V30 5498 H 532.832 4.15513 -0.179325 0
M  V30 5499 H 531.409 3.41566 1.49622 0
M  V30 5500 N 533.594 0.0601682 1.57485 0
M  V30 5501 C 534.842 -0.610386 1.92662 0
M  V30 5502 C 535.163 -1.70849 0.939981 0
M  V30 5503 O 534.433 -1.95895 -0.0137455 0
M  V30 5504 H 533.013 -0.228457 0.711208 0
M  V30 5505 H 535.675 0.115288 1.94559 0
M  V30 5506 H 534.771 -1.0432 2.94149 0
M  V30 5507 N 535.072 -1.5615 -0.213296 0
M  V30 5508 C 536.349 -1.70349 -0.961281 0
M  V30 5509 C 536.729 -0.609791 -2.02101 0
M  V30 5510 O 536.077 0.381987 -2.25285 0
M  V30 5511 C 536.287 -3.11982 -1.56424 0
M  V30 5512 C 537.635 -3.71649 -2.05334 0
M  V30 5513 O 538.659 -3.14995 -1.66302 0
M  V30 5514 O 537.518 -4.71038 -2.77102 0
M  V30 5515 H 534.612 -0.694121 -0.449582 0
M  V30 5516 H 537.158 -1.68464 -0.204426 0
M  V30 5517 H 535.93 -3.83046 -0.799457 0
M  V30 5518 H 535.553 -3.18019 -2.38641 0
M  V30 5519 N 536.55 0.480323 -1.50102 0
M  V30 5520 C 537.48 1.58769 -1.71215 0
M  V30 5521 C 538.461 1.60583 -0.560997 0
M  V30 5522 O 539.646 1.76996 -0.799127 0
M  V30 5523 C 536.776 2.97148 -1.79778 0
M  V30 5524 C 535.73 3.10201 -2.94888 0
M  V30 5525 C 535.056 4.50137 -2.88584 0
M  V30 5526 C 536.356 2.88283 -4.35534 0
M  V30 5527 H 538.05 1.41354 -2.6393 0
M  V30 5528 H 535.596 0.678591 -1.27008 0
M  V30 5529 H 537.549 3.74536 -1.93133 0
M  V30 5530 H 536.273 3.15699 -0.836772 0
M  V30 5531 H 534.932 2.35244 -2.81169 0
M  V30 5532 H 534.58 4.65593 -1.90349 0
M  V30 5533 H 534.28 4.59808 -3.65856 0
M  V30 5534 H 535.804 5.29558 -3.03976 0
M  V30 5535 H 537.218 3.55427 -4.49827 0
M  V30 5536 H 535.615 3.09408 -5.14186 0
M  V30 5537 H 536.685 1.84219 -4.48544 0
M  V30 5538 N 538.028 1.39524 0.732853 0
M  V30 5539 C 538.975 1.38416 1.84688 0
M  V30 5540 C 539.945 0.243539 1.64305 0
M  V30 5541 O 541.13 0.438979 1.85681 0
M  V30 5542 C 538.27 1.23555 3.22224 0
M  V30 5543 C 537.383 2.47179 3.54298 0
M  V30 5544 C 536.518 2.2489 4.81246 0
M  V30 5545 C 535.557 3.44178 5.0617 0
M  V30 5546 N 534.694 3.21192 6.24323 0
M  V30 5547 H 539.534 2.33645 1.84971 0
M  V30 5548 H 537.071 1.16059 0.903804 0
M  V30 5549 H 539.029 1.12949 4.0162 0
M  V30 5550 H 537.659 0.31954 3.21215 0
M  V30 5551 H 536.711 2.68379 2.69587 0
M  V30 5552 H 538.023 3.36022 3.68633 0
M  V30 5553 H 537.177 2.11538 5.68627 0
M  V30 5554 H 535.916 1.33443 4.69089 0
M  V30 5555 H 534.921 3.58025 4.17251 0
M  V30 5556 H 536.146 4.36528 5.20212 0
M  V30 5557 H 534.092 2.32413 6.1345 0
M  V30 5558 H 534.009 4.03594 6.39256 0
M  V30 5559 H 535.277 3.1154 7.14537 0
M  V30 5560 N 539.506 -0.963266 1.24736 0
M  V30 5561 C 540.783 -1.68248 0.9976 0
M  V30 5562 C 541.163 -2.05599 -0.478776 0
M  V30 5563 O 540.511 -1.7626 -1.45412 0
M  V30 5564 C 540.721 -2.91118 1.92487 0
M  V30 5565 C 542.069 -3.63261 2.19833 0
M  V30 5566 O 543.093 -3.01184 1.90176 0
M  V30 5567 O 541.952 -4.75019 2.7022 0
M  V30 5568 H 539.046 -0.735744 0.377637 0
M  V30 5569 H 541.592 -1.01696 1.35853 0
M  V30 5570 H 540.364 -2.60242 2.92215 0
M  V30 5571 H 539.987 -3.65402 1.56738 0
M  V30 5572 N 540.985 -1.06182 -1.16461 0
M  V30 5573 C 542.396 -0.802426 -1.68576 0
M  V30 5574 C 542.747 0.67412 -1.84255 0
M  V30 5575 O 541.872 1.52303 -1.5373 0
M  V30 5576 C 542.467 -1.45002 -3.06202 0
M  V30 5577 C 541.026 -1.23843 -3.55443 0
M  V30 5578 C 540.173 -1.52724 -2.31454 0
M  V30 5579 H 543.124 -1.22545 -1.00839 0
M  V30 5580 H 543.145 -0.864731 -3.70544 0
M  V30 5581 H 542.657 -2.52466 -2.94759 0
M  V30 5582 H 540.758 -0.183487 -3.72148 0
M  V30 5583 H 540.871 -1.95036 -4.37604 0
M  V30 5584 H 539.235 -0.947726 -2.36411 0
M  V30 5585 H 540.018 -2.61343 -2.22609 0
M  V30 5586 N 542.463 1.3308 -0.844243 0
M  V30 5587 C 543.426 2.27403 -0.286485 0
M  V30 5588 C 544.426 1.51179 0.547872 0
M  V30 5589 O 545.616 1.70421 0.360886 0
M  V30 5590 C 542.748 3.35653 0.595813 0
M  V30 5591 H 543.941 2.78248 -1.11885 0
M  V30 5592 H 541.494 1.43574 -0.617749 0
M  V30 5593 H 542.229 2.90058 1.4504 0
M  V30 5594 H 542.014 3.921 -0.00125994 0
M  V30 5595 H 543.504 4.05958 0.979168 0
M  V30 5596 N 543.941 0.601185 1.45683 0
M  V30 5597 C 545.19 0.0914953 2.01492 0
M  V30 5598 C 545.503 -1.28331 1.47616 0
M  V30 5599 O 546.709 -1.88537 1.95362 0
M  V30 5600 C 545.165 0.11291 3.59723 0
M  V30 5601 C 544.773 1.48717 4.22596 0
M  V30 5602 C 546.517 -0.341871 4.23121 0
M  V30 5603 C 544.424 1.46531 5.7296 0
M  V30 5604 H 543.354 0.0304365 0.753385 0
M  V30 5605 H 546.005 0.755568 1.67223 0
M  V30 5606 H 544.387 -0.617692 3.91153 0
M  V30 5607 H 545.561 2.23897 4.02749 0
M  V30 5608 H 543.876 1.88351 3.71366 0
M  V30 5609 H 546.473 -0.377304 5.33367 0
M  V30 5610 H 546.816 -1.36325 3.93346 0
M  V30 5611 H 547.349 0.335256 3.96385 0
M  V30 5612 H 544.088 2.46408 6.07423 0
M  V30 5613 H 543.608 0.755997 5.95017 0
M  V30 5614 H 545.287 1.18618 6.36034 0
M  V30 5615 N 545.419 -1.53889 0.339982 0
M  V30 5616 C 546.382 -2.23547 -0.50592 0
M  V30 5617 C 547.382 -1.23445 -1.03044 0
M  V30 5618 O 548.572 -1.47909 -0.920253 0
M  V30 5619 C 545.704 -2.95234 -1.7044 0
M  V30 5620 H 546.897 -2.99722 0.103247 0
M  V30 5621 H 544.45 -1.56033 0.0912804 0
M  V30 5622 H 545.185 -2.23236 -2.35236 0
M  V30 5623 H 544.97 -3.68654 -1.33553 0
M  V30 5624 H 546.46 -3.48258 -2.30447 0
M  V30 5625 N 546.897 -0.0685191 -1.57451 0
M  V30 5626 C 548.146 0.600898 -1.92541 0
M  V30 5627 C 548.459 1.70967 -0.950239 0
M  V30 5628 O 549.665 2.43844 -1.19384 0
M  V30 5629 C 548.121 1.12019 -3.42023 0
M  V30 5630 C 547.729 0.0426028 -4.4798 0
M  V30 5631 C 549.473 1.76386 -3.86119 0
M  V30 5632 C 547.38 0.575759 -5.88591 0
M  V30 5633 H 546.31 0.228225 -0.71863 0
M  V30 5634 H 548.961 -0.140223 -1.82963 0
M  V30 5635 H 547.343 1.91418 -3.46663 0
M  V30 5636 H 548.517 -0.73182 -4.54952 0
M  V30 5637 H 546.832 -0.504642 -4.13331 0
M  V30 5638 H 549.429 2.17302 -4.88553 0
M  V30 5639 H 549.772 2.62255 -3.23308 0
M  V30 5640 H 550.305 1.03615 -3.84069 0
M  V30 5641 H 547.044 -0.245691 -6.55039 0
M  V30 5642 H 546.564 1.31778 -5.85145 0
M  V30 5643 H 548.243 1.0532 -6.3837 0
M  V30 5644 N 548.375 1.56261 0.205012 0
M  V30 5645 C 549.786 1.70056 0.770574 0
M  V30 5646 C 550.137 0.673398 1.84282 0
M  V30 5647 O 549.262 -0.172196 2.15714 0
M  V30 5648 C 549.857 3.08316 1.40451 0
M  V30 5649 C 548.416 3.2391 1.91727 0
M  V30 5650 C 547.563 2.66001 0.783516 0
M  V30 5651 H 550.514 1.58688 -0.019911 0
M  V30 5652 H 550.535 3.05094 2.27371 0
M  V30 5653 H 550.047 3.83053 0.623882 0
M  V30 5654 H 548.148 2.54072 2.7254 0
M  V30 5655 H 548.261 4.3131 2.08588 0
M  V30 5656 H 546.625 2.24915 1.19521 0
M  V30 5657 H 547.408 3.43297 0.0152883 0
M  V30 5658 N 549.853 -0.472356 1.50355 0
M  V30 5659 C 550.8 -1.57051 1.69126 0
M  V30 5660 C 551.77 -1.5733 0.532574 0
M  V30 5661 O 552.955 -1.7488 0.762994 0
M  V30 5662 C 550.095 -2.95033 1.79024 0
M  V30 5663 C 549.208 -3.04552 3.06386 0
M  V30 5664 C 548.343 -4.33441 3.07087 0
M  V30 5665 C 547.382 -4.36697 4.28908 0
M  V30 5666 N 546.519 -5.57056 4.27356 0
M  V30 5667 H 551.359 -1.40351 2.62879 0
M  V30 5668 H 548.896 -0.682403 1.30314 0
M  V30 5669 H 550.854 -3.75048 1.82744 0
M  V30 5670 H 549.484 -3.10371 0.887109 0
M  V30 5671 H 548.536 -2.17419 3.12143 0
M  V30 5672 H 549.848 -3.02818 3.96362 0
M  V30 5673 H 549.002 -5.21801 3.09529 0
M  V30 5674 H 547.741 -4.37782 2.14939 0
M  V30 5675 H 546.746 -3.46734 4.2668 0
M  V30 5676 H 547.971 -4.34049 5.22282 0
M  V30 5677 H 545.917 -5.62184 3.3806 0
M  V30 5678 H 545.834 -5.57058 5.111 0
M  V30 5679 H 547.102 -6.47545 4.33942 0
M  V30 5680 N 551.331 -1.39911 -0.725443 0
M  V30 5681 C 552.579 -1.37382 -1.48224 0
M  V30 5682 C 552.9 0.0264107 -1.94982 0
M  V30 5683 O 552.17 0.979408 -1.6966 0
M  V30 5684 H 550.75 -0.505596 -0.549892 0
M  V30 5685 H 553.412 -1.7487 -0.860608 0
M  V30 5686 H 552.508 -2.04254 -2.3598 0
M  V30 5687 N 552.809 0.956637 -1.25245 0
M  V30 5688 C 554.037 1.73571 -1.12608 0
M  V30 5689 C 554.452 1.86063 0.320324 0
M  V30 5690 O 553.809 1.35691 1.22042 0
M  V30 5691 C 553.86 3.15053 -1.77268 0
M  V30 5692 O 553.581 3.03174 -3.16255 0
M  V30 5693 C 555.082 4.09248 -1.70386 0
M  V30 5694 H 552.302 0.543955 -0.392879 0
M  V30 5695 H 554.846 1.20031 -1.65568 0
M  V30 5696 H 553.001 3.65543 -1.28284 0
M  V30 5697 H 553.415 3.9241 -3.48015 0
M  V30 5698 H 554.889 5.06138 -2.20291 0
M  V30 5699 H 555.366 4.34102 -0.667239 0
M  V30 5700 H 555.972 3.64672 -2.18849 0
M  V30 5701 N 554.287 1.06798 1.15896 0
M  V30 5702 C 555.217 0.704677 2.22613 0
M  V30 5703 C 556.198 -0.305252 1.67339 0
M  V30 5704 O 557.383 -0.179247 1.93371 0
M  V30 5705 C 554.513 0.0957325 3.47168 0
M  V30 5706 C 553.467 1.0322 4.15367 0
M  V30 5707 C 552.793 0.286293 5.33933 0
M  V30 5708 C 554.093 2.36341 4.65768 0
M  V30 5709 H 555.787 1.59688 2.53259 0
M  V30 5710 H 553.333 0.769257 1.21731 0
M  V30 5711 H 555.286 -0.170333 4.21056 0
M  V30 5712 H 554.01 -0.831516 3.15838 0
M  V30 5713 H 552.669 1.28309 3.43413 0
M  V30 5714 H 552.317 -0.644237 4.98857 0
M  V30 5715 H 552.017 0.910436 5.80504 0
M  V30 5716 H 553.541 0.0278938 6.10594 0
M  V30 5717 H 554.955 2.1561 5.31211 0
M  V30 5718 H 553.352 2.94299 5.2298 0
M  V30 5719 H 554.422 2.99047 3.81705 0
M  V30 5720 N 555.766 -1.3263 0.851289 0
M  V30 5721 C 556.699 -2.26952 0.238318 0
M  V30 5722 C 557.677 -1.50243 -0.621757 0
M  V30 5723 O 558.861 -1.79378 -0.579298 0
M  V30 5724 C 555.988 -3.32124 -0.664178 0
M  V30 5725 C 555.034 -4.26325 0.122067 0
M  V30 5726 S 555.867 -5.14404 1.48824 0
M  V30 5727 C 557.023 -6.231 0.591372 0
M  V30 5728 H 557.256 -2.78594 1.03791 0
M  V30 5729 H 554.789 -1.4011 0.648731 0
M  V30 5730 H 556.747 -3.93197 -1.17924 0
M  V30 5731 H 555.408 -2.79273 -1.43755 0
M  V30 5732 H 554.601 -5.00821 -0.565181 0
M  V30 5733 H 554.203 -3.69652 0.568602 0
M  V30 5734 H 556.495 -6.77187 -0.205762 0
M  V30 5735 H 557.438 -6.95936 1.30687 0
M  V30 5736 H 557.846 -5.64252 0.167206 0
M  V30 5737 N 557.244 -0.608902 -1.45362 0
M  V30 5738 C 558.207 0.0992563 -2.28985 0
M  V30 5739 C 559.207 0.793841 -1.39838 0
M  V30 5740 O 560.397 0.641804 -1.61946 0
M  V30 5741 C 557.529 1.15073 -3.20891 0
M  V30 5742 H 558.722 -0.635964 -2.93079 0
M  V30 5743 H 556.275 -0.368007 -1.51906 0
M  V30 5744 H 557.01 1.91667 -2.616 0
M  V30 5745 H 556.795 0.656867 -3.86559 0
M  V30 5746 H 558.285 1.64665 -3.83765 0
M  V30 5747 N 558.722 1.53707 -0.348139 0
M  V30 5748 C 559.971 2.0017 0.247992 0
M  V30 5749 C 560.284 1.23983 1.51286 0
M  V30 5750 O 561.49 1.60946 2.18652 0
M  V30 5751 C 559.946 3.56515 0.492459 0
M  V30 5752 C 559.554 4.41562 -0.756777 0
M  V30 5753 C 561.298 4.11381 1.0472 0
M  V30 5754 C 559.205 5.89426 -0.482856 0
M  V30 5755 H 558.135 0.747806 0.0964452 0
M  V30 5756 H 560.786 1.77532 -0.464179 0
M  V30 5757 H 559.168 3.75236 1.26545 0
M  V30 5758 H 560.342 4.34615 -1.53122 0
M  V30 5759 H 558.657 3.97711 -1.23348 0
M  V30 5760 H 561.254 5.19468 1.26717 0
M  V30 5761 H 561.597 3.64885 2.00411 0
M  V30 5762 H 562.13 3.96389 0.334801 0
M  V30 5763 H 558.869 6.40164 -1.40962 0
M  V30 5764 H 558.389 5.99264 0.253416 0
M  V30 5765 H 560.068 6.4692 -0.101816 0
M  V30 5766 N 560.2 0.0768682 1.57412 0
M  V30 5767 C 561.447 -0.591085 1.93681 0
M  V30 5768 C 561.775 -1.69311 0.957286 0
M  V30 5769 O 561.03 -1.95682 -0.0262428 0
M  V30 5770 C 561.329 -1.20268 3.36557 0
M  V30 5771 C 560.995 -0.226286 4.50332 0
M  V30 5772 C 559.657 0.0423142 4.81181 0
M  V30 5773 C 562.009 0.441415 5.19327 0
M  V30 5774 C 559.337 0.985616 5.78362 0
M  V30 5775 C 561.689 1.37307 6.17519 0
M  V30 5776 C 560.353 1.65009 6.46783 0
M  V30 5777 H 559.623 -0.216293 0.70873 0
M  V30 5778 H 562.27 0.148824 1.90921 0
M  V30 5779 H 560.575 -2.01844 3.35807 0
M  V30 5780 H 562.272 -1.72688 3.61911 0
M  V30 5781 H 558.862 -0.445821 4.26275 0
M  V30 5782 H 563.046 0.247023 4.95685 0
M  V30 5783 H 558.302 1.20743 5.99359 0
M  V30 5784 H 562.476 1.89637 6.70083 0
M  V30 5785 H 560.103 2.38263 7.21897 0
M  V30 5786 N 561.678 -1.56367 -0.196722 0
M  V30 5787 C 562.924 -1.81698 -0.914182 0
M  V30 5788 C 563.279 -0.65367 -1.80956 0
M  V30 5789 O 562.572 0.351224 -1.88353 0
M  V30 5790 C 562.766 -3.10663 -1.767 0
M  V30 5791 C 562.595 -4.39428 -0.955689 0
M  V30 5792 C 561.365 -5.01221 -0.64076 0
M  V30 5793 C 563.563 -5.1337 -0.309165 0
M  V30 5794 N 561.545 -6.13608 0.189358 0
M  V30 5795 C 562.916 -6.18815 0.383225 0
M  V30 5796 C 564.971 -4.97393 -0.224726 0
M  V30 5797 C 563.674 -7.10015 1.15201 0
M  V30 5798 C 565.7 -5.89014 0.530658 0
M  V30 5799 C 565.062 -6.93903 1.2115 0
M  V30 5800 H 561.161 -0.716203 -0.31397 0
M  V30 5801 H 563.745 -1.93838 -0.18304 0
M  V30 5802 H 561.916 -2.99762 -2.46976 0
M  V30 5803 H 563.648 -3.24088 -2.42382 0
M  V30 5804 H 560.403 -4.63669 -0.96479 0
M  V30 5805 H 560.827 -6.74389 0.593979 0
M  V30 5806 H 565.469 -4.16331 -0.736754 0
M  V30 5807 H 563.187 -7.9054 1.67547 0
M  V30 5808 H 566.773 -5.78726 0.597326 0
M  V30 5809 H 565.653 -7.63576 1.78665 0
M  V30 5810 N 563.156 0.464375 -1.50603 0
M  V30 5811 C 564.384 1.23907 -1.65695 0
M  V30 5812 C 564.799 1.85658 -0.343027 0
M  V30 5813 O 564.156 1.69529 0.675739 0
M  V30 5814 C 564.207 2.3429 -2.75301 0
M  V30 5815 O 563.928 1.7507 -4.01599 0
M  V30 5816 C 565.429 3.25051 -3.01424 0
M  V30 5817 H 562.649 0.374485 -0.556778 0
M  V30 5818 H 565.193 0.55353 -1.96866 0
M  V30 5819 H 563.348 2.98607 -2.46804 0
M  V30 5820 H 563.762 2.47812 -4.62266 0
M  V30 5821 H 565.236 3.98699 -3.81763 0
M  V30 5822 H 565.713 3.84227 -2.12758 0
M  V30 5823 H 566.319 2.66463 -3.31477 0
M  V30 5824 N 564.634 1.40294 0.718013 0
M  V30 5825 C 565.862 1.4175 1.50714 0
M  V30 5826 C 566.277 0.0165366 1.88793 0
M  V30 5827 O 565.634 -0.958942 1.55276 0
M  V30 5828 C 565.685 2.30598 2.784 0
M  V30 5829 O 565.406 3.6524 2.41932 0
M  V30 5830 C 566.907 2.4062 3.72313 0
M  V30 5831 H 564.127 0.483565 0.465194 0
M  V30 5832 H 566.671 1.84316 0.885889 0
M  V30 5833 H 564.826 1.91401 3.36815 0
M  V30 5834 H 565.24 4.12402 3.24076 0
M  V30 5835 H 566.714 3.07001 4.58753 0
M  V30 5836 H 567.191 1.4305 4.15251 0
M  V30 5837 H 567.797 2.80359 3.19811 0
M  V30 5838 N 566.112 -0.949982 1.2575 0
M  V30 5839 C 567.361 -1.68956 1.10168 0
M  V30 5840 C 567.674 -1.92327 -0.356309 0
M  V30 5841 O 568.88 -2.64026 -0.632657 0
M  V30 5842 C 567.336 -3.04196 1.92336 0
M  V30 5843 C 566.944 -2.88603 3.42655 0
M  V30 5844 C 568.688 -3.81904 1.85336 0
M  V30 5845 C 566.595 -4.19262 4.17101 0
M  V30 5846 H 565.525 -0.633645 0.408668 0
M  V30 5847 H 568.176 -1.05719 1.49986 0
M  V30 5848 H 566.558 -3.68363 1.45344 0
M  V30 5849 H 567.732 -2.3334 3.97353 0
M  V30 5850 H 566.047 -2.24345 3.50796 0
M  V30 5851 H 568.644 -4.78688 2.38248 0
M  V30 5852 H 568.987 -4.08099 0.822226 0
M  V30 5853 H 569.52 -3.24495 2.30104 0
M  V30 5854 H 566.259 -3.98254 5.20648 0
M  V30 5855 H 565.779 -4.74273 3.67186 0
M  V30 5856 H 567.458 -4.87775 4.25071 0
M  V30 5857 N 567.59 -1.07411 -1.15328 0
M  V30 5858 C 568.815 -0.818856 -1.90551 0
M  V30 5859 C 569.24 0.622194 -1.77512 0
M  V30 5860 O 568.598 1.43484 -1.10824 0
M  V30 5861 C 568.646 -1.23267 -3.38877 0
M  V30 5862 O 567.75 -0.378345 -4.10661 0
M  V30 5863 H 567.091 -0.29827 -0.593238 0
M  V30 5864 H 569.621 -1.43289 -1.46046 0
M  V30 5865 H 569.631 -1.20912 -3.89672 0
M  V30 5866 H 568.306 -2.28226 -3.47686 0
M  V30 5867 H 566.883 -0.464437 -3.69996 0
M  V30 5868 N 569.068 1.32177 -0.85831 0
M  V30 5869 C 570.298 2.01021 -0.476889 0
M  V30 5870 C 570.706 1.64653 0.931995 0
M  V30 5871 O 570.049 0.865713 1.62022 0
M  V30 5872 C 570.111 3.55413 -0.540528 0
M  V30 5873 C 569.775 4.1522 -1.90895 0
M  V30 5874 C 570.772 4.3318 -2.87491 0
M  V30 5875 C 568.457 4.51212 -2.20709 0
M  V30 5876 C 570.451 4.86306 -4.1205 0
M  V30 5877 C 568.138 5.04042 -3.45521 0
M  V30 5878 C 569.136 5.21538 -4.41007 0
M  V30 5879 O 568.824 5.73238 -5.63608 0
M  V30 5880 H 568.556 0.650059 -0.18547 0
M  V30 5881 H 571.11 1.69648 -1.15796 0
M  V30 5882 H 569.34 3.86196 0.19741 0
M  V30 5883 H 571.029 4.05526 -0.174191 0
M  V30 5884 H 571.795 4.05704 -2.65762 0
M  V30 5885 H 567.674 4.36878 -1.4717 0
M  V30 5886 H 571.218 4.99877 -4.86589 0
M  V30 5887 H 567.115 5.30952 -3.67098 0
M  V30 5888 H 567.883 5.91625 -5.65617 0
M  V30 5889 N 570.547 0.616602 1.45037 0
M  V30 5890 C 571.477 -0.0840787 2.33349 0
M  V30 5891 C 572.458 -0.849641 1.4736 0
M  V30 5892 O 573.643 -0.818407 1.76113 0
M  V30 5893 C 570.773 -1.07604 3.3021 0
M  V30 5894 C 569.727 -0.423096 4.25904 0
M  V30 5895 C 569.053 -1.52394 5.12523 0
M  V30 5896 C 570.353 0.661457 5.18095 0
M  V30 5897 H 572.047 0.653333 2.92185 0
M  V30 5898 H 569.593 0.315634 1.40498 0
M  V30 5899 H 571.546 -1.57485 3.90866 0
M  V30 5900 H 570.27 -1.84416 2.69552 0
M  V30 5901 H 568.929 0.05493 3.66559 0
M  V30 5902 H 568.577 -2.28257 4.48227 0
M  V30 5903 H 568.277 -1.09251 5.77354 0
M  V30 5904 H 569.801 -2.02485 5.76049 0
M  V30 5905 H 571.215 0.246353 5.7277 0
M  V30 5906 H 569.612 1.01517 5.91451 0
M  V30 5907 H 570.682 1.53446 4.59981 0
M  V30 5908 N 572.025 -1.5352 0.356285 0
M  V30 5909 C 572.988 -2.24071 -0.482182 0
M  V30 5910 C 573.988 -1.24531 -1.01729 0
M  V30 5911 O 575.178 -1.48876 -0.904513 0
M  V30 5912 C 572.31 -2.97025 -1.67299 0
M  V30 5913 H 573.503 -2.99596 0.135031 0
M  V30 5914 H 571.056 -1.55928 0.107825 0
M  V30 5915 H 571.791 -2.25719 -2.32855 0
M  V30 5916 H 571.576 -3.7005 -1.29636 0
M  V30 5917 H 573.066 -3.50683 -2.26741 0
M  V30 5918 N 573.503 -0.0852151 -1.57369 0
M  V30 5919 C 574.752 0.580443 -1.93168 0
M  V30 5920 C 575.065 1.6995 -0.968319 0
M  V30 5921 O 576.271 2.42564 -1.21963 0
M  V30 5922 C 574.727 1.08386 -3.43192 0
M  V30 5923 C 574.335 -0.00491388 -4.48 0
M  V30 5924 C 576.079 1.72281 -3.87968 0
M  V30 5925 C 573.986 0.513299 -5.89168 0
M  V30 5926 H 572.916 0.22059 -0.72101 0
M  V30 5927 H 575.567 -0.159621 -1.82804 0
M  V30 5928 H 573.949 1.8773 -3.48674 0
M  V30 5929 H 575.123 -0.780032 -4.5415 0
M  V30 5930 H 573.438 -0.548453 -4.12772 0
M  V30 5931 H 576.035 2.12108 -4.9083 0
M  V30 5932 H 576.378 2.58811 -3.26071 0
M  V30 5933 H 576.911 0.995359 -3.85146 0
M  V30 5934 H 573.65 -0.315153 -6.54742 0
M  V30 5935 H 573.17 1.25564 -5.8651 0
M  V30 5936 H 574.849 0.985433 -6.39451 0
M  V30 5937 N 574.981 1.5647 0.188427 0
M  V30 5938 C 576.206 1.85486 0.927891 0
M  V30 5939 C 576.631 0.669575 1.75779 0
M  V30 5940 O 575.989 -0.381573 1.77239 0
M  V30 5941 C 576.037 3.12784 1.7944 0
M  V30 5942 O 575.141 2.93805 2.894 0
M  V30 5943 H 574.482 0.610585 0.260925 0
M  V30 5944 H 577.012 2.037 0.191729 0
M  V30 5945 H 577.022 3.43749 2.19774 0
M  V30 5946 H 575.697 3.98671 1.18468 0
M  V30 5947 H 574.274 2.74153 2.52774 0
M  V30 5948 N 576.459 -0.456382 1.50847 0
M  V30 5949 C 577.422 -1.53493 1.70213 0
M  V30 5950 C 578.422 -1.50264 0.572481 0
M  V30 5951 O 579.612 -1.52623 0.839751 0
M  V30 5952 C 576.744 -2.93091 1.741 0
M  V30 5953 H 577.937 -1.37633 2.66453 0
M  V30 5954 H 575.49 -0.683776 1.4055 0
M  V30 5955 H 576.225 -3.14378 0.796063 0
M  V30 5956 H 576.01 -2.9684 2.5618 0
M  V30 5957 H 577.5 -3.71368 1.90987 0
M  V30 5958 N 577.937 -1.40673 -0.710563 0
M  V30 5959 C 579.165 -1.42547 -1.4996 0
M  V30 5960 C 579.58 -0.0265485 -1.88781 0
M  V30 5961 O 578.937 0.950694 -1.55782 0
M  V30 5962 C 578.988 -2.32071 -2.77173 0
M  V30 5963 O 578.709 -3.66518 -2.39992 0
M  V30 5964 C 580.21 -2.42591 -3.71032 0
M  V30 5965 H 577.43 -0.486025 -0.462623 0
M  V30 5966 H 579.974 -1.84783 -0.876102 0
M  V30 5967 H 578.129 -1.93184 -3.35795 0
M  V30 5968 H 578.543 -4.14115 -3.21884 0
M  V30 5969 H 580.017 -3.09429 -4.57119 0
M  V30 5970 H 580.494 -1.4525 -4.14486 0
M  V30 5971 H 581.1 -2.82051 -3.18319 0
M  V30 5972 N 579.415 0.9433 -1.26252 0
M  V30 5973 C 580.664 1.68369 -1.11062 0
M  V30 5974 C 580.977 1.92514 0.346104 0
M  V30 5975 O 582.183 2.64358 0.618646 0
M  V30 5976 C 580.639 3.03171 -1.93946 0
M  V30 5977 C 580.247 2.86782 -3.4418 0
M  V30 5978 C 581.991 3.80916 -1.87359 0
M  V30 5979 C 579.898 4.17044 -4.19319 0
M  V30 5980 H 578.828 0.631469 -0.412023 0
M  V30 5981 H 581.479 1.04922 -1.50544 0
M  V30 5982 H 579.861 3.67587 -1.47296 0
M  V30 5983 H 581.035 2.31229 -3.98585 0
M  V30 5984 H 579.35 2.22482 -3.51981 0
M  V30 5985 H 581.947 4.77417 -2.40784 0
M  V30 5986 H 582.29 4.07658 -0.843857 0
M  V30 5987 H 582.823 3.2327 -2.31821 0
M  V30 5988 H 579.562 3.95487 -5.22753 0
M  V30 5989 H 579.082 4.72319 -3.69696 0
M  V30 5990 H 580.761 4.85513 -4.27651 0
M  V30 5991 N 580.893 1.08022 1.14757 0
M  V30 5992 C 582.141 0.805913 1.85336 0
M  V30 5993 C 582.462 -0.670162 1.83122 0
M  V30 5994 O 581.732 -1.48567 1.2769 0
M  V30 5995 H 580.312 0.295138 0.686223 0
M  V30 5996 H 582.974 1.36538 1.3908 0
M  V30 5997 H 582.07 1.14655 2.90277 0
M  V30 5998 N 582.371 -1.3172 0.865308 0
M  V30 5999 C 583.596 -2.01591 0.487415 0
M  V30 6000 C 584.021 -1.6455 -0.911307 0
M  V30 6001 O 583.379 -0.851689 -1.6005 0
M  V30 6002 C 583.427 -3.54759 0.646401 0
M  V30 6003 O 582.531 -4.11185 -0.316284 0
M  V30 6004 H 581.872 -0.634884 0.194468 0
M  V30 6005 H 584.402 -1.68024 1.16744 0
M  V30 6006 H 584.412 -4.04438 0.537932 0
M  V30 6007 H 583.087 -3.8106 1.66632 0
M  V30 6008 H 581.664 -3.72543 -0.163162 0
M  V30 6009 N 583.85 -0.624285 -1.44708 0
M  V30 6010 C 585.09 -0.129273 -2.03991 0
M  V30 6011 C 585.454 1.22321 -1.47992 0
M  V30 6012 O 586.654 1.80993 -1.98734 0
M  V30 6013 C 584.926 -0.108231 -3.57236 0
M  V30 6014 S 586.485 0.323158 -4.37608 0
M  V30 6015 H 583.303 -0.0577318 -0.708652 0
M  V30 6016 H 585.904 -0.826139 -1.77187 0
M  V30 6017 H 584.609 -1.0958 -3.955 0
M  V30 6018 H 584.139 0.610101 -3.8864 0
M  V30 6019 H 586.154 1.56894 -4.70743 0
M  V30 6020 N 585.328 1.53329 -0.364422 0
M  V30 6021 C 586.574 2.01537 0.225969 0
M  V30 6022 C 586.907 1.25128 1.48515 0
M  V30 6023 O 586.182 0.344653 1.91422 0
M  V30 6024 C 586.465 3.56339 0.519092 0
M  V30 6025 C 586.318 4.43441 -0.753639 0
M  V30 6026 C 587.637 4.19833 1.32015 0
M  V30 6027 H 584.756 0.732573 0.0806548 0
M  V30 6028 H 587.398 1.83597 -0.489084 0
M  V30 6029 H 585.548 3.71756 1.12825 0
M  V30 6030 H 587.22 4.39823 -1.39116 0
M  V30 6031 H 585.463 4.11457 -1.37424 0
M  V30 6032 H 586.134 5.49699 -0.503517 0
M  V30 6033 H 588.61 4.08242 0.804859 0
M  V30 6034 H 587.486 5.28177 1.49399 0
M  V30 6035 H 587.747 3.75821 2.32832 0
M  V30 6036 N 586.806 0.0935595 1.57322 0
M  V30 6037 C 588.052 -0.571355 1.94585 0
M  V30 6038 C 588.385 -1.67929 0.975366 0
M  V30 6039 O 587.66 -1.94498 0.00816206 0
M  V30 6040 C 587.943 -1.12797 3.41978 0
M  V30 6041 C 587.796 -0.0251881 4.49793 0
M  V30 6042 C 589.115 -2.02682 3.90651 0
M  V30 6043 H 586.234 -0.206223 0.70756 0
M  V30 6044 H 588.876 0.163956 1.89291 0
M  V30 6045 H 587.026 -1.75461 3.4662 0
M  V30 6046 H 588.698 0.608979 4.57263 0
M  V30 6047 H 586.941 0.641399 4.29032 0
M  V30 6048 H 587.612 -0.455433 5.50118 0
M  V30 6049 H 590.088 -1.49925 3.88152 0
M  V30 6050 H 588.964 -2.38555 4.94351 0
M  V30 6051 H 589.225 -2.94362 3.29854 0
M  V30 6052 N 588.284 -1.56567 -0.180126 0
M  V30 6053 C 589.7 -1.50488 -0.531559 0
M  V30 6054 C 589.9 -0.796267 -1.851 0
M  V30 6055 O 588.956 -0.352978 -2.50021 0
M  V30 6056 C 590.269 -2.95201 -0.572456 0
M  V30 6057 C 591.817 -3.05957 -0.660264 0
M  V30 6058 C 592.292 -4.5211 -0.732135 0
M  V30 6059 N 593.783 -4.56322 -0.795262 0
M  V30 6060 C 594.518 -5.66742 -0.871296 0
M  V30 6061 N 594.014 -6.86815 -0.908708 0
M  V30 6062 N 595.807 -5.54691 -0.909639 0
M  V30 6063 H 587.958 -2.01045 0.685165 0
M  V30 6064 H 590.221 -0.915536 0.245962 0
M  V30 6065 H 589.927 -3.50165 0.328208 0
M  V30 6066 H 589.801 -3.49369 -1.422 0
M  V30 6067 H 592.188 -2.51032 -1.55136 0
M  V30 6068 H 592.269 -2.54888 0.215783 0
M  V30 6069 H 591.913 -5.07664 0.154664 0
M  V30 6070 H 591.843 -5.00926 -1.6242 0
M  V30 6071 H 594.334 -3.69868 -0.77499 0
M  V30 6072 H 594.647 -7.66718 -0.967654 0
M  V30 6073 H 592.992 -6.89443 -0.877132 0
M  V30 6074 H 596.183 -4.59804 -0.877353 0
M  V30 6075 H 596.356 -6.40768 -0.965434 0
M  V30 6076 N 589.762 0.448376 -1.51087 0
M  V30 6077 C 591.039 1.20926 -1.53741 0
M  V30 6078 C 591.419 2.09025 -0.295222 0
M  V30 6079 O 590.767 2.16851 0.720283 0
M  V30 6080 C 590.977 2.02067 -2.84552 0
M  V30 6081 C 592.325 2.59486 -3.36084 0
M  V30 6082 O 593.349 2.12289 -2.86028 0
M  V30 6083 O 592.208 3.45539 -4.23397 0
M  V30 6084 H 589.302 0.549951 -0.617643 0
M  V30 6085 H 591.848 0.458344 -1.63393 0
M  V30 6086 H 590.62 1.37291 -3.66425 0
M  V30 6087 H 590.243 2.84246 -2.78011 0
M  V30 6088 N 591.24 1.41047 0.703093 0
M  V30 6089 C 592.203 1.42036 1.79884 0
M  V30 6090 C 593.203 0.312153 1.57741 0
M  V30 6091 O 594.393 0.571672 1.64553 0
M  V30 6092 C 591.525 1.22437 3.18154 0
M  V30 6093 H 592.718 2.39572 1.80403 0
M  V30 6094 H 590.271 1.27079 0.909977 0
M  V30 6095 H 591.006 0.257112 3.23279 0
M  V30 6096 H 590.791 2.02723 3.35627 0
M  V30 6097 H 592.281 1.25946 3.98155 0
M  V30 6098 N 592.718 -0.936591 1.26751 0
M  V30 6099 C 593.943 -1.72288 1.15462 0
M  V30 6100 C 594.368 -1.85915 -0.285887 0
M  V30 6101 O 593.726 -1.35272 -1.20711 0
M  V30 6102 C 593.774 -3.10503 1.83359 0
M  V30 6103 O 592.878 -3.96745 1.1255 0
M  V30 6104 H 592.219 -0.52843 0.402067 0
M  V30 6105 H 594.749 -1.17271 1.67656 0
M  V30 6106 H 594.759 -3.60867 1.90365 0
M  V30 6107 H 593.434 -2.99901 2.88153 0
M  V30 6108 H 592.011 -3.55191 1.13551 0
M  V30 6109 N 594.196 -1.08629 -1.14182 0
M  V30 6110 C 595.444 -0.815731 -1.84906 0
M  V30 6111 C 595.765 0.660441 -1.83475 0
M  V30 6112 O 595.035 1.47888 -1.28476 0
M  V30 6113 H 593.615 -0.298773 -0.684648 0
M  V30 6114 H 596.277 -1.37274 -1.38354 0
M  V30 6115 H 595.373 -1.16193 -2.89665 0
M  V30 6116 N 595.674 1.31259 -0.872281 0
M  V30 6117 C 596.92 1.96913 -0.485083 0
M  V30 6118 C 597.253 1.68774 0.960667 0
M  V30 6119 O 596.528 0.985495 1.67685 0
M  V30 6120 C 596.811 3.52299 -0.745502 0
M  V30 6121 C 596.664 3.90002 -2.24095 0
M  V30 6122 C 597.983 4.39582 -0.213516 0
M  V30 6123 H 595.102 0.715252 -0.177716 0
M  V30 6124 H 597.744 1.55347 -1.09395 0
M  V30 6125 H 595.894 3.87835 -0.227276 0
M  V30 6126 H 597.566 3.64555 -2.82661 0
M  V30 6127 H 595.809 3.38526 -2.71261 0
M  V30 6128 H 596.48 4.98352 -2.37381 0
M  V30 6129 H 598.956 4.10882 -0.656902 0
M  V30 6130 H 597.832 5.47251 -0.42516 0
M  V30 6131 H 598.093 4.33158 0.884666 0
M  V30 6132 N 597.152 0.631951 1.44375 0
M  V30 6133 C 598.082 -0.0593243 2.33425 0
M  V30 6134 C 599.063 -0.833964 1.48253 0
M  V30 6135 O 600.248 -0.799682 1.76971 0
M  V30 6136 C 597.378 -1.04096 3.31333 0
M  V30 6137 C 596.332 -0.377899 4.26328 0
M  V30 6138 C 595.658 -1.4695 5.14111 0
M  V30 6139 C 596.958 0.716371 5.17364 0
M  V30 6140 H 598.652 0.684287 2.91475 0
M  V30 6141 H 596.198 0.330518 1.40156 0
M  V30 6142 H 598.151 -1.53331 3.92514 0
M  V30 6143 H 596.875 -1.81547 2.71493 0
M  V30 6144 H 595.534 0.0938054 3.6648 0
M  V30 6145 H 595.182 -2.2349 4.50623 0
M  V30 6146 H 594.882 -1.03121 5.78481 0
M  V30 6147 H 596.406 -1.96363 5.78164 0
M  V30 6148 H 597.82 0.307089 5.72477 0
M  V30 6149 H 596.217 1.07784 5.90341 0
M  V30 6150 H 597.287 1.58316 4.58327 0
M  V30 6151 N 598.631 -1.53133 0.372548 0
M  V30 6152 C 599.579 -2.27473 -0.485681 0
M  V30 6153 C 600.573 -1.30719 -1.07745 0
M  V30 6154 O 601.779 -1.48321 -1.01985 0
M  V30 6155 H 598.154 -0.731269 -0.175356 0
M  V30 6156 H 600.125 -2.97955 0.162986 0
M  V30 6157 C 598.874 -3.08191 -1.60978 0
M  V30 6158 H 598.197 -3.82488 -1.16373 0
M  V30 6159 H 599.637 -3.63373 -2.18485 0
M  V30 6160 C 598.096 -2.19461 -2.55614 0
M  V30 6161 O 598.626 -1.81008 -3.58607 0
M  V30 6162 N 596.832 -1.83955 -2.24965 0
M  V30 6163 H 596.379 -2.15423 -1.41247 0
M  V30 6164 H 596.337 -1.24874 -2.88538 0
M  V30 6165 N 600.109 -0.101901 -1.5727 0
M  V30 6166 C 601.386 0.602832 -1.86079 0
M  V30 6167 C 601.766 1.85912 -1 0
M  V30 6168 O 601.114 2.28379 -0.0742488 0
M  V30 6169 C 601.324 0.911694 -3.36881 0
M  V30 6170 C 602.672 1.2722 -4.05093 0
M  V30 6171 O 603.696 1.0025 -3.41802 0
M  V30 6172 O 602.555 1.7776 -5.16782 0
M  V30 6173 H 599.649 0.302366 -0.769743 0
M  V30 6174 H 602.195 -0.135113 -1.69161 0
M  V30 6175 H 600.967 0.0207256 -3.91295 0
M  V30 6176 H 600.59 1.70538 -3.59169 0
M  V30 6177 N 601.587 1.56661 0.17182 0
M  V30 6178 C 602.815 1.861 0.904115 0
M  V30 6179 C 603.23 0.687227 1.75848 0
M  V30 6180 O 602.587 -0.343671 1.79235 0
M  V30 6181 C 602.638 3.14568 1.78127 0
M  V30 6182 O 602.359 4.27422 0.961366 0
M  V30 6183 C 603.86 3.5735 2.62327 0
M  V30 6184 H 601.08 0.617445 0.262684 0
M  V30 6185 H 603.624 2.03775 0.172068 0
M  V30 6186 H 601.779 2.98721 2.46666 0
M  V30 6187 H 602.193 5.00725 1.56123 0
M  V30 6188 H 603.667 4.50144 3.1949 0
M  V30 6189 H 604.144 2.81445 3.37173 0
M  V30 6190 H 604.75 3.75807 1.99121 0
M  V30 6191 N 603.065 -0.440357 1.51323 0
M  V30 6192 C 604.311 -1.19181 1.64085 0
M  V30 6193 C 604.644 -1.90936 0.354575 0
M  V30 6194 O 603.919 -1.8347 -0.645675 0
M  V30 6195 C 604.202 -2.2112 2.84215 0
M  V30 6196 C 604.055 -1.53468 4.22809 0
M  V30 6197 C 605.374 -3.22133 2.99864 0
M  V30 6198 H 602.493 -0.431924 0.597169 0
M  V30 6199 H 605.135 -0.481443 1.83799 0
M  V30 6200 H 603.285 -2.81703 2.67537 0
M  V30 6201 H 604.957 -0.962455 4.51148 0
M  V30 6202 H 603.2 -0.837086 4.25647 0
M  V30 6203 H 603.871 -2.27694 5.02852 0
M  V30 6204 H 606.347 -2.71601 3.15233 0
M  V30 6205 H 605.223 -3.90756 3.85488 0
M  V30 6206 H 605.484 -3.88061 2.11804 0
M  V30 6207 N 604.543 -1.41418 -0.695603 0
M  V30 6208 C 605.771 -1.4413 -1.48439 0
M  V30 6209 C 606.186 -0.0465698 -1.88743 0
M  V30 6210 O 605.543 0.934117 -1.56782 0
M  V30 6211 C 605.594 -2.34998 -2.74696 0
M  V30 6212 O 605.315 -3.69043 -2.36091 0
M  V30 6213 C 606.816 -2.46513 -3.68438 0
M  V30 6214 H 604.036 -0.490905 -0.457442 0
M  V30 6215 H 606.58 -1.85702 -0.856454 0
M  V30 6216 H 604.735 -1.96735 -3.33728 0
M  V30 6217 H 605.149 -4.17505 -3.17474 0
M  V30 6218 H 606.623 -3.1426 -4.53811 0
M  V30 6219 H 607.1 -1.49638 -4.12922 0
M  V30 6220 H 607.706 -2.85412 -3.1531 0
M  V30 6221 N 606.021 0.929856 -1.27246 0
M  V30 6222 C 607.432 1.49223 -1.12203 0
M  V30 6223 C 607.783 1.93989 0.293731 0
M  V30 6224 O 606.908 1.80978 1.18642 0
M  V30 6225 C 607.503 2.71198 -2.0307 0
M  V30 6226 C 606.062 3.23666 -1.92139 0
M  V30 6227 C 605.209 1.96409 -1.95752 0
M  V30 6228 H 608.16 0.744181 -1.4017 0
M  V30 6229 H 608.181 3.45905 -1.58524 0
M  V30 6230 H 607.693 2.38585 -3.06102 0
M  V30 6231 H 605.794 3.61042 -0.920834 0
M  V30 6232 H 605.907 3.90006 -2.78267 0
M  V30 6233 H 604.271 2.12806 -1.39949 0
M  V30 6234 H 605.054 1.66113 -3.00436 0
M  V30 6235 N 607.499 1.09233 1.13605 0
M  V30 6236 C 608.747 0.825525 1.84471 0
M  V30 6237 C 609.068 -0.650702 1.83823 0
M  V30 6238 O 608.338 -1.47204 1.29259 0
M  V30 6239 H 606.918 0.3024 0.683054 0
M  V30 6240 H 609.58 1.38006 1.37624 0
M  V30 6241 H 608.676 1.17727 2.89045 0
M  V30 6242 N 608.977 -1.30795 0.87923 0
M  V30 6243 C 610.223 -1.97035 0.50487 0
M  V30 6244 C 610.578 -1.68182 -0.934484 0
M  V30 6245 O 609.871 -0.972953 -1.65058 0
M  V30 6246 C 610.065 -3.50287 0.709476 0
M  V30 6247 C 609.894 -3.94035 2.16717 0
M  V30 6248 C 608.664 -4.1992 2.81061 0
M  V30 6249 C 610.862 -4.07288 3.1404 0
M  V30 6250 N 608.844 -4.50088 4.17486 0
M  V30 6251 C 610.215 -4.41273 4.35521 0
M  V30 6252 C 612.27 -3.89696 3.09906 0
M  V30 6253 C 610.973 -4.59501 5.534 0
M  V30 6254 C 612.999 -4.09122 4.27052 0
M  V30 6255 C 612.361 -4.43447 5.47297 0
M  V30 6256 H 608.46 -0.746181 0.233962 0
M  V30 6257 H 611.044 -1.5814 1.13577 0
M  V30 6258 H 609.215 -3.8825 0.108108 0
M  V30 6259 H 610.947 -4.03567 0.302585 0
M  V30 6260 H 607.702 -4.12906 2.3196 0
M  V30 6261 H 608.126 -4.69316 4.87926 0
M  V30 6262 H 612.768 -3.62239 2.18043 0
M  V30 6263 H 610.486 -4.85802 6.45773 0
M  V30 6264 H 614.072 -3.96985 4.25316 0
M  V30 6265 H 612.952 -4.58171 6.36435 0
M  V30 6266 N 610.455 -0.639598 -1.44038 0
M  V30 6267 C 611.703 -0.147188 -2.01563 0
M  V30 6268 C 612.024 1.2384 -1.50628 0
M  V30 6269 O 611.294 1.82452 -0.713316 0
M  V30 6270 H 609.874 -0.0514231 -0.745228 0
M  V30 6271 H 612.536 -0.828205 -1.76428 0
M  V30 6272 H 611.632 -0.121358 -3.11864 0
M  V30 6273 N 611.933 1.52934 -0.380664 0
M  V30 6274 C 612.896 2.24809 0.446473 0
M  V30 6275 C 613.896 1.26133 0.997347 0
M  V30 6276 O 615.086 1.50297 0.880714 0
M  V30 6277 C 612.218 2.99649 1.62553 0
M  V30 6278 H 613.411 2.99343 -0.182677 0
M  V30 6279 H 610.964 1.55736 -0.132618 0
M  V30 6280 H 611.699 2.29395 2.29235 0
M  V30 6281 H 611.484 3.72066 1.23732 0
M  V30 6282 H 612.974 3.54246 2.21133 0
M  V30 6283 N 613.412 0.11024 1.57214 0
M  V30 6284 C 614.652 -0.553061 1.96775 0
M  V30 6285 C 615.016 -1.64403 0.991753 0
M  V30 6286 O 616.217 -2.36561 1.27642 0
M  V30 6287 C 614.488 -1.08004 3.4069 0
M  V30 6288 S 616.047 -1.75309 4.02259 0
M  V30 6289 H 612.865 -0.18003 0.68783 0
M  V30 6290 H 615.467 0.193242 1.94543 0
M  V30 6291 H 614.171 -0.274735 4.09479 0
M  V30 6292 H 613.702 -1.86182 3.46554 0
M  V30 6293 H 615.717 -3.03834 3.923 0
M  V30 6294 N 614.89 -1.56749 -0.16351 0
M  V30 6295 C 615.8 -2.00255 -1.2221 0
M  V30 6296 C 616.816 -0.915194 -1.47987 0
M  V30 6297 O 617.992 -1.22342 -1.59982 0
M  V30 6298 C 615.057 -2.36035 -2.53946 0
M  V30 6299 C 614.118 -3.58637 -2.35962 0
M  V30 6300 C 613.351 -3.92701 -3.61416 0
M  V30 6301 O 613.574 -3.27632 -4.66919 0
M  V30 6302 O 612.508 -4.86019 -3.55062 0
M  V30 6303 H 616.334 -2.90586 -0.882794 0
M  V30 6304 H 613.919 -1.44721 -0.370978 0
M  V30 6305 H 615.801 -2.59982 -3.31643 0
M  V30 6306 H 614.476 -1.48863 -2.8744 0
M  V30 6307 H 613.383 -3.39898 -1.5627 0
M  V30 6308 H 614.716 -4.46374 -2.0739 0
M  V30 6309 N 616.368 0.432326 -1.51554 0
M  V30 6310 C 617.616 1.17901 -1.64146 0
M  V30 6311 C 617.937 1.91604 -0.362367 0
M  V30 6312 O 617.207 1.85764 0.621968 0
M  V30 6313 H 615.787 0.438206 -0.604966 0
M  V30 6314 H 618.449 0.495172 -1.88505 0
M  V30 6315 H 617.545 1.90584 -2.47152 0
M  V30 6316 N 617.846 1.41785 0.688094 0
M  V30 6317 C 618.776 1.47 1.8142 0
M  V30 6318 C 619.757 0.327881 1.6691 0
M  V30 6319 O 620.942 0.540362 1.86531 0
M  V30 6320 C 618.072 1.35876 3.19617 0
M  V30 6321 C 617.026 2.47976 3.48844 0
M  V30 6322 C 616.352 2.21915 4.86475 0
M  V30 6323 C 617.652 3.90309 3.47068 0
M  V30 6324 H 619.346 2.41247 1.77314 0
M  V30 6325 H 616.892 1.16116 0.851651 0
M  V30 6326 H 618.845 1.38134 3.98117 0
M  V30 6327 H 617.569 0.38116 3.24368 0
M  V30 6328 H 616.228 2.45013 2.72698 0
M  V30 6329 H 615.876 1.2248 4.8786 0
M  V30 6330 H 615.576 2.97037 5.06994 0
M  V30 6331 H 617.1 2.25901 5.67275 0
M  V30 6332 H 618.514 3.94947 4.1556 0
M  V30 6333 H 616.911 4.65175 3.7912 0
M  V30 6334 H 617.981 4.17927 2.45896 0
M  V30 6335 N 619.324 -0.923095 1.27737 0
M  V30 6336 C 620.287 -2.00587 1.10894 0
M  V30 6337 C 621.287 -1.60718 0.0514927 0
M  V30 6338 O 622.477 -1.71658 0.296481 0
M  V30 6339 C 619.609 -3.33829 0.690717 0
M  V30 6340 H 620.802 -2.16959 2.07048 0
M  V30 6341 H 618.355 -1.10451 1.1059 0
M  V30 6342 H 619.09 -3.23157 -0.272 0
M  V30 6343 H 618.875 -3.64125 1.45448 0
M  V30 6344 H 620.365 -4.13336 0.595252 0
M  V30 6345 N 620.802 -1.09834 -1.13024 0
M  V30 6346 C 622.042 -0.846664 -1.8604 0
M  V30 6347 C 622.406 0.616557 -1.81831 0
M  V30 6348 O 623.607 0.984329 -2.50129 0
M  V30 6349 C 621.878 -1.37228 -3.30005 0
M  V30 6350 S 623.437 -1.25511 -4.20467 0
M  V30 6351 H 620.255 -0.30611 -0.64173 0
M  V30 6352 H 622.857 -1.40255 -1.36194 0
M  V30 6353 H 621.561 -2.43138 -3.30624 0
M  V30 6354 H 621.092 -0.81271 -3.84914 0
M  V30 6355 H 623.107 -0.208762 -4.95761 0
M  V30 6356 N 622.28 1.30327 -0.886154 0
M  V30 6357 C 623.505 2.0079 -0.519425 0
M  V30 6358 C 623.93 1.65979 0.885013 0
M  V30 6359 O 623.288 0.877043 1.58675 0
M  V30 6360 C 623.336 3.53686 -0.702758 0
M  V30 6361 O 622.44 4.11637 0.250828 0
M  V30 6362 H 621.781 0.63171 -0.204544 0
M  V30 6363 H 624.311 1.66145 -1.19402 0
M  V30 6364 H 624.321 4.03531 -0.602207 0
M  V30 6365 H 622.996 3.78361 -1.72673 0
M  V30 6366 H 621.573 3.72755 0.103873 0
M  V30 6367 N 623.758 0.647228 1.43697 0
M  V30 6368 C 624.988 0.16551 2.05936 0
M  V30 6369 C 625.396 -1.17164 1.48557 0
M  V30 6370 O 624.739 -1.73307 0.60914 0
M  V30 6371 C 624.801 -0.00648082 3.59499 0
M  V30 6372 C 624.465 1.25503 4.39429 0
M  V30 6373 C 625.462 2.18241 4.71876 0
M  V30 6374 C 623.147 1.49494 4.79538 0
M  V30 6375 C 625.141 3.33268 5.43333 0
M  V30 6376 C 622.828 2.64815 5.50742 0
M  V30 6377 C 623.826 3.56528 5.82561 0
M  V30 6378 O 623.514 4.69836 6.52311 0
M  V30 6379 H 623.246 0.0844124 0.670709 0
M  V30 6380 H 625.8 0.88638 1.8529 0
M  V30 6381 H 624.03 -0.782661 3.78697 0
M  V30 6382 H 625.719 -0.444794 4.03456 0
M  V30 6383 H 626.485 2.00946 4.41413 0
M  V30 6384 H 622.364 0.789912 4.54182 0
M  V30 6385 H 625.908 4.04874 5.68087 0
M  V30 6386 H 621.805 2.82047 5.8062 0
M  V30 6387 H 622.573 4.69024 6.70789 0
M  V30 6388 N 625.236 -1.5273 0.388769 0
M  V30 6389 C 626.484 -2.01174 -0.193208 0
M  V30 6390 C 626.805 -1.27705 -1.47365 0
M  V30 6391 O 626.075 -0.396966 -1.91836 0
M  V30 6392 H 624.655 -0.743287 -0.0743871 0
M  V30 6393 H 627.317 -1.87826 0.520336 0
M  V30 6394 H 626.413 -3.09477 -0.403803 0
M  V30 6395 N 626.714 -0.118576 -1.57153 0
M  V30 6396 C 627.96 0.534078 -1.96263 0
M  V30 6397 C 628.315 1.64316 -1.0009 0
M  V30 6398 O 627.608 1.91575 -0.0308582 0
M  V30 6399 C 627.802 1.11303 -3.39627 0
M  V30 6400 C 627.631 0.0615624 -4.49658 0
M  V30 6401 C 626.401 -0.370103 -5.03943 0
M  V30 6402 C 628.599 -0.719249 -5.09246 0
M  V30 6403 N 626.581 -1.40738 -5.9755 0
M  V30 6404 C 627.952 -1.60774 -5.98792 0
M  V30 6405 C 630.007 -0.770183 -4.91907 0
M  V30 6406 C 628.71 -2.54272 -6.72858 0
M  V30 6407 C 630.736 -1.69288 -5.66653 0
M  V30 6408 C 630.098 -2.56894 -6.55885 0
M  V30 6409 H 626.197 0.165072 -0.764379 0
M  V30 6410 H 628.781 -0.206596 -1.93601 0
M  V30 6411 H 626.952 1.82342 -3.42937 0
M  V30 6412 H 628.684 1.72996 -3.65861 0
M  V30 6413 H 625.439 0.0222121 -4.73595 0
M  V30 6414 H 625.863 -1.92493 -6.49057 0
M  V30 6415 H 630.505 -0.106999 -4.22665 0
M  V30 6416 H 628.223 -3.21605 -7.41347 0
M  V30 6417 H 631.809 -1.73772 -5.55243 0
M  V30 6418 H 630.689 -3.27131 -7.1271 0
M  V30 6419 N 628.193 1.56834 0.155195 0
M  V30 6420 C 629.141 1.98584 1.21107 0
M  V30 6421 C 630.135 0.876987 1.44932 0
M  V30 6422 O 631.341 1.06215 1.45322 0
M  V30 6423 H 627.716 0.632039 0.407469 0
M  V30 6424 H 629.687 2.86561 0.832195 0
M  V30 6425 C 628.436 2.37555 2.53895 0
M  V30 6426 H 627.759 3.22428 2.3639 0
M  V30 6427 H 629.199 2.70598 3.26424 0
M  V30 6428 C 627.658 1.22507 3.13837 0
M  V30 6429 O 628.188 0.521388 3.98302 0
M  V30 6430 N 626.394 0.991444 2.73164 0
M  V30 6431 H 625.941 1.56544 2.04577 0
M  V30 6432 H 625.899 0.223546 3.13604 0
M  V30 6433 N 629.671 -0.424282 1.51781 0
M  V30 6434 C 630.918 -1.1726 1.65095 0
M  V30 6435 C 631.246 -1.90881 0.373477 0
M  V30 6436 O 630.501 -1.84835 -0.642997 0
M  V30 6437 C 630.8 -2.20418 2.81337 0
M  V30 6438 C 630.466 -1.63715 4.20129 0
M  V30 6439 C 629.128 -1.47975 4.57883 0
M  V30 6440 C 631.48 -1.22157 5.06682 0
M  V30 6441 C 628.808 -0.891703 5.79884 0
M  V30 6442 C 631.16 -0.647767 6.29275 0
M  V30 6443 C 629.824 -0.477371 6.65791 0
M  V30 6444 H 629.094 -0.429085 0.604125 0
M  V30 6445 H 631.741 -0.461852 1.85847 0
M  V30 6446 H 630.046 -2.97581 2.54859 0
M  V30 6447 H 631.743 -2.78163 2.88836 0
M  V30 6448 H 628.333 -1.76946 3.90369 0
M  V30 6449 H 632.517 -1.33133 4.7811 0
M  V30 6450 H 627.773 -0.747563 6.06813 0
M  V30 6451 H 631.947 -0.317291 6.95677 0
M  V30 6452 H 629.574 -0.0195936 7.60197 0
M  V30 6453 N 631.149 -1.42148 -0.680565 0
M  V30 6454 C 632.377 -1.45696 -1.46902 0
M  V30 6455 C 632.792 -0.0665858 -1.88683 0
M  V30 6456 O 632.149 0.917436 -1.57764 0
M  V30 6457 C 632.2 -2.37898 -2.72188 0
M  V30 6458 O 631.921 -3.71526 -2.32163 0
M  V30 6459 C 633.422 -2.50407 -3.65802 0
M  V30 6460 H 630.642 -0.495729 -0.45221 0
M  V30 6461 H 633.186 -1.866 -0.836709 0
M  V30 6462 H 631.341 -2.00263 -3.31622 0
M  V30 6463 H 631.755 -4.20849 -3.13027 0
M  V30 6464 H 633.229 -3.19056 -4.50452 0
M  V30 6465 H 633.706 -1.5401 -4.11312 0
M  V30 6466 H 634.312 -2.8874 -3.12265 0
M  V30 6467 N 632.627 0.916307 -1.28225 0
M  V30 6468 C 633.537 2.05165 -1.13775 0
M  V30 6469 C 634.553 1.73879 -0.0649418 0
M  V30 6470 O 635.729 1.99531 -0.273722 0
M  V30 6471 C 632.794 3.37385 -0.798267 0
M  V30 6472 C 631.855 3.82296 -1.95316 0
M  V30 6473 C 631.088 5.08206 -1.62978 0
M  V30 6474 O 631.311 5.6781 -0.542948 0
M  V30 6475 O 630.245 5.48768 -2.47261 0
M  V30 6476 H 634.071 2.20273 -2.09078 0
M  V30 6477 H 631.656 1.0373 -1.07519 0
M  V30 6478 H 633.538 4.16773 -0.62278 0
M  V30 6479 H 632.213 3.23458 0.125139 0
M  V30 6480 H 631.12 3.03746 -2.18378 0
M  V30 6481 H 632.453 4.00782 -2.85718 0
M  V30 6482 N 634.105 1.10431 1.1244 0
M  V30 6483 C 635.345 0.856518 1.85589 0
M  V30 6484 C 635.709 -0.606905 1.82156 0
M  V30 6485 O 636.91 -0.97105 2.50647 0
M  V30 6486 C 635.181 1.38977 3.29272 0
M  V30 6487 S 636.74 1.27739 4.19795 0
M  V30 6488 H 633.558 0.309509 0.640098 0
M  V30 6489 H 636.16 1.40975 1.35449 0
M  V30 6490 H 634.864 2.44887 3.2933 0
M  V30 6491 H 634.395 0.833112 3.84477 0
M  V30 6492 H 636.41 0.235051 4.95643 0
M  V30 6493 N 635.583 -1.29855 0.893053 0
M  V30 6494 C 636.811 -1.99976 0.530788 0
M  V30 6495 C 637.226 -1.66889 -0.882799 0
M  V30 6496 O 636.583 -0.910352 -1.58173 0
M  V30 6497 C 636.634 -3.54547 0.705587 0
M  V30 6498 O 636.355 -3.86458 2.06353 0
M  V30 6499 C 637.856 -4.41937 0.347387 0
M  V30 6500 H 635.076 -0.639129 0.204339 0
M  V30 6501 H 637.62 -1.65549 1.20057 0
M  V30 6502 H 635.775 -3.87311 0.0830685 0
M  V30 6503 H 636.189 -4.81146 2.08803 0
M  V30 6504 H 637.663 -5.4954 0.520557 0
M  V30 6505 H 638.14 -4.33339 -0.715139 0
M  V30 6506 H 638.746 -4.14633 0.946567 0
M  V30 6507 N 637.061 -0.65484 -1.43351 0
M  V30 6508 C 637.993 0.0744757 -2.29079 0
M  V30 6509 C 639.006 0.7855 -1.42596 0
M  V30 6510 O 640.195 0.642986 -1.66517 0
M  V30 6511 C 637.295 1.12859 -3.19556 0
M  V30 6512 C 636.468 0.495381 -4.34586 0
M  V30 6513 C 635.527 1.44659 -5.05925 0
M  V30 6514 O 634.553 0.954567 -5.61139 0
M  V30 6515 N 635.755 2.78051 -5.09576 0
M  V30 6516 H 638.52 -0.661346 -2.92312 0
M  V30 6517 H 636.081 -0.497744 -1.54059 0
M  V30 6518 H 638.073 1.76577 -3.64147 0
M  V30 6519 H 636.643 1.76636 -2.57912 0
M  V30 6520 H 635.863 -0.32092 -3.92892 0
M  V30 6521 H 637.151 0.0534203 -5.08772 0
M  V30 6522 H 636.549 3.20584 -4.66093 0
M  V30 6523 H 635.106 3.37068 -5.57878 0
M  V30 6524 N 638.539 1.52521 -0.396863 0
M  V30 6525 C 639.471 2.24333 0.469814 0
M  V30 6526 C 640.484 1.2685 1.02043 0
M  V30 6527 O 641.673 1.52876 0.92147 0
M  V30 6528 C 638.773 2.95202 1.66461 0
M  V30 6529 C 637.946 4.19454 1.24003 0
M  V30 6530 C 637.005 4.73255 2.30036 0
M  V30 6531 O 636.031 5.36151 1.91131 0
M  V30 6532 N 637.233 4.53765 3.62047 0
M  V30 6533 H 639.998 2.99347 -0.145468 0
M  V30 6534 H 637.559 1.60348 -0.223606 0
M  V30 6535 H 639.551 3.28092 2.36934 0
M  V30 6536 H 638.121 2.2345 2.18607 0
M  V30 6537 H 637.341 3.92517 0.363892 0
M  V30 6538 H 638.629 5.0017 0.933135 0
M  V30 6539 H 638.027 4.03576 3.96412 0
M  V30 6540 H 636.584 4.91124 4.28533 0
M  V30 6541 N 640.017 0.126909 1.57088 0
M  V30 6542 C 640.967 -0.831678 2.1229 0
M  V30 6543 C 641.951 -1.22292 1.04564 0
M  V30 6544 O 643.143 -1.19269 1.30782 0
M  V30 6545 C 640.272 -2.07866 2.73215 0
M  V30 6546 C 639.358 -1.71143 3.88035 0
M  V30 6547 N 639.749 -1.05136 4.94753 0
M  V30 6548 C 638.047 -2.00549 3.98367 0
M  V30 6549 C 638.748 -0.877257 5.75047 0
M  V30 6550 N 637.724 -1.40477 5.25135 0
M  V30 6551 H 641.526 -0.317926 2.92175 0
M  V30 6552 H 639.04 -0.0753052 1.62225 0
M  V30 6553 H 641.037 -2.77516 3.11111 0
M  V30 6554 H 639.697 -2.59778 1.94796 0
M  V30 6555 H 640.708 -0.71442 5.12949 0
M  V30 6556 H 637.385 -2.54452 3.30999 0
M  V30 6557 H 638.775 -0.358536 6.70943 0
M  V30 6558 N 641.495 -1.56914 -0.146875 0
M  V30 6559 C 642.72 -1.87881 -0.878386 0
M  V30 6560 C 643.145 -0.715945 -1.73942 0
M  V30 6561 O 642.503 0.334447 -1.78189 0
M  V30 6562 C 642.551 -3.17431 -1.71084 0
M  V30 6563 O 641.655 -3.01374 -2.81509 0
M  V30 6564 H 640.996 -0.617289 -0.244644 0
M  V30 6565 H 643.526 -2.04136 -0.137654 0
M  V30 6566 H 643.536 -3.49455 -2.10582 0
M  V30 6567 H 642.211 -4.01671 -1.07856 0
M  V30 6568 H 640.788 -2.80758 -2.45416 0
M  V30 6569 N 642.974 0.416227 -1.52004 0
M  V30 6570 C 644.214 1.17307 -1.67387 0
M  V30 6571 C 644.578 1.87959 -0.39183 0
M  V30 6572 O 645.779 2.65472 -0.421671 0
M  V30 6573 C 644.05 2.14661 -2.85754 0
M  V30 6574 S 645.609 2.98549 -3.21581 0
M  V30 6575 H 642.427 0.397505 -0.5895 0
M  V30 6576 H 645.029 0.461431 -1.89976 0
M  V30 6577 H 643.733 1.61431 -3.77317 0
M  V30 6578 H 643.264 2.90375 -2.65417 0
M  V30 6579 H 645.279 4.16536 -2.69652 0
M  V30 6580 N 644.452 1.42507 0.673017 0
M  V30 6581 C 645.402 1.4258 1.77919 0
M  V30 6582 C 646.386 0.296885 1.58137 0
M  V30 6583 O 647.578 0.539243 1.68586 0
M  V30 6584 C 644.707 1.33238 3.1639 0
M  V30 6585 C 643.793 2.51081 3.41788 0
M  V30 6586 N 644.184 3.76498 3.37761 0
M  V30 6587 C 642.482 2.4538 3.72431 0
M  V30 6588 C 643.183 4.54784 3.62693 0
M  V30 6589 N 642.159 3.8522 3.83544 0
M  V30 6590 H 645.961 2.37442 1.73201 0
M  V30 6591 H 643.475 1.36881 0.873924 0
M  V30 6592 H 645.472 1.31372 3.9566 0
M  V30 6593 H 644.132 0.393794 3.22303 0
M  V30 6594 H 645.143 4.09068 3.17622 0
M  V30 6595 H 641.82 1.60109 3.85579 0
M  V30 6596 H 643.21 5.63774 3.65525 0
M  V30 6597 N 645.93 -0.909495 1.28709 0
M  V30 6598 C 647.16 -1.69027 1.188 0
M  V30 6599 C 647.568 -1.87469 -0.255329 0
M  V30 6600 O 646.911 -1.40458 -1.18394 0
M  V30 6601 C 646.973 -3.10064 1.81936 0
M  V30 6602 C 646.637 -3.14891 3.31199 0
M  V30 6603 C 647.634 -2.95768 4.27571 0
M  V30 6604 C 645.319 -3.37269 3.7223 0
M  V30 6605 C 647.313 -2.98942 5.6295 0
M  V30 6606 C 645 -3.40074 5.07733 0
M  V30 6607 C 645.998 -3.20932 6.02903 0
M  V30 6608 O 645.686 -3.23507 7.35934 0
M  V30 6609 H 645.418 -0.535014 0.413203 0
M  V30 6610 H 647.972 -1.14645 1.70428 0
M  V30 6611 H 646.202 -3.66005 1.24808 0
M  V30 6612 H 647.891 -3.70185 1.66486 0
M  V30 6613 H 648.657 -2.78302 3.97206 0
M  V30 6614 H 644.536 -3.51212 2.98615 0
M  V30 6615 H 648.08 -2.83919 6.37209 0
M  V30 6616 H 643.977 -3.5707 5.37747 0
M  V30 6617 H 644.745 -3.3984 7.44615 0
M  V30 6618 N 647.408 -1.11026 -1.11852 0
M  V30 6619 C 648.656 -0.854769 -1.83134 0
M  V30 6620 C 648.977 0.621375 -1.84835 0
M  V30 6621 O 648.247 1.45129 -1.31584 0
M  V30 6622 H 646.827 -0.313229 -0.678157 0
M  V30 6623 H 649.489 -1.40178 -1.35411 0
M  V30 6624 H 648.585 -1.22311 -2.87135 0
M  V30 6625 N 648.886 1.2938 -0.899927 0
M  V30 6626 C 649.816 2.30144 -0.39446 0
M  V30 6627 C 650.797 1.61611 0.530639 0
M  V30 6628 O 651.982 1.89119 0.441319 0
M  V30 6629 C 649.112 3.45229 0.37868 0
M  V30 6630 C 648.066 4.25564 -0.456012 0
M  V30 6631 C 647.392 5.32848 0.444637 0
M  V30 6632 C 648.692 4.93651 -1.70605 0
M  V30 6633 H 650.386 2.72673 -1.23653 0
M  V30 6634 H 647.932 1.31086 -0.596034 0
M  V30 6635 H 649.885 4.14797 0.743037 0
M  V30 6636 H 648.609 3.01545 1.25453 0
M  V30 6637 H 647.268 3.57704 -0.802704 0
M  V30 6638 H 646.916 4.85408 1.31863 0
M  V30 6639 H 646.616 5.87497 -0.110154 0
M  V30 6640 H 648.14 6.05268 0.805182 0
M  V30 6641 H 649.554 5.55655 -1.41141 0
M  V30 6642 H 647.951 5.58233 -2.20217 0
M  V30 6643 H 649.021 4.18926 -2.4419 0
M  V30 6644 N 650.364 0.662433 1.43002 0
M  V30 6645 C 651.613 0.176873 2.00923 0
M  V30 6646 C 651.926 -1.21954 1.52927 0
M  V30 6647 O 653.132 -1.80081 2.03182 0
M  V30 6648 C 651.588 0.265379 3.5892 0
M  V30 6649 C 651.196 1.66507 4.15908 0
M  V30 6650 C 652.94 -0.162103 4.2419 0
M  V30 6651 C 650.847 1.707 5.66229 0
M  V30 6652 H 649.777 0.0623627 0.751417 0
M  V30 6653 H 652.428 0.825813 1.63868 0
M  V30 6654 H 650.81 -0.451235 3.93421 0
M  V30 6655 H 651.984 2.40777 3.92891 0
M  V30 6656 H 650.299 2.03932 3.63044 0
M  V30 6657 H 652.896 -0.150745 5.34487 0
M  V30 6658 H 653.239 -1.19519 3.98774 0
M  V30 6659 H 653.772 0.503075 3.94606 0
M  V30 6660 H 650.511 2.7195 5.96426 0
M  V30 6661 H 650.031 1.00768 5.91275 0
M  V30 6662 H 651.71 1.45487 6.3043 0
M  V30 6663 N 651.842 -1.52309 0.404946 0
M  V30 6664 C 652.79 -2.28452 -0.437321 0
M  V30 6665 C 653.784 -1.32975 -1.04948 0
M  V30 6666 O 654.99 -1.50451 -0.988159 0
M  V30 6667 H 651.365 -0.734824 -0.159805 0
M  V30 6668 H 653.336 -2.97542 0.22615 0
M  V30 6669 C 652.085 -3.11536 -1.54404 0
M  V30 6670 H 651.408 -3.84871 -1.08233 0
M  V30 6671 H 652.848 -3.67926 -2.10729 0
M  V30 6672 C 651.307 -2.24833 -2.50902 0
M  V30 6673 O 651.837 -1.88574 -3.54687 0
M  V30 6674 N 650.043 -1.88685 -2.21012 0
M  V30 6675 H 649.59 -2.18371 -1.36646 0
M  V30 6676 H 649.548 -1.30966 -2.85824 0
M  V30 6677 N 653.32 -0.135238 -1.57019 0
M  V30 6678 C 654.55 0.525303 -1.9981 0
M  V30 6679 C 654.958 1.59724 -1.01415 0
M  V30 6680 O 654.301 1.837 -0.00130938 0
M  V30 6681 C 654.363 1.19578 -3.3903 0
M  V30 6682 C 654.027 0.269855 -4.56203 0
M  V30 6683 C 655.024 -0.497905 -5.1751 0
M  V30 6684 C 652.709 0.176188 -5.01991 0
M  V30 6685 C 654.703 -1.3469 -6.23007 0
M  V30 6686 C 652.39 -0.676422 -6.07345 0
M  V30 6687 C 653.388 -1.43658 -6.67721 0
M  V30 6688 O 653.076 -2.27501 -7.71037 0
M  V30 6689 H 652.808 0.142296 -0.660854 0
M  V30 6690 H 655.362 -0.223272 -2.04183 0
M  V30 6691 H 653.592 1.99176 -3.3146 0
M  V30 6692 H 655.281 1.75486 -3.66005 0
M  V30 6693 H 656.047 -0.435507 -4.83041 0
M  V30 6694 H 651.926 0.757583 -4.54733 0
M  V30 6695 H 655.47 -1.9407 -6.70062 0
M  V30 6696 H 651.367 -0.740154 -6.41243 0
M  V30 6697 H 652.135 -2.20619 -7.88206 0
M  V30 6698 N 654.798 1.5699 0.138552 0
M  V30 6699 C 656.028 1.87704 0.863184 0
M  V30 6700 C 656.436 0.722411 1.74865 0
M  V30 6701 O 655.779 -0.316636 1.80951 0
M  V30 6702 C 655.841 3.13219 1.76449 0
M  V30 6703 C 655.505 4.44648 1.05532 0
M  V30 6704 C 656.502 5.18318 0.405252 0
M  V30 6705 C 654.187 4.91367 1.04231 0
M  V30 6706 C 656.181 6.36916 -0.24835 0
M  V30 6707 C 653.868 6.09887 0.384904 0
M  V30 6708 C 654.866 6.82508 -0.259292 0
M  V30 6709 O 654.554 7.98775 -0.906258 0
M  V30 6710 H 654.286 0.626255 0.254521 0
M  V30 6711 H 656.84 2.04966 0.133472 0
M  V30 6712 H 655.07 2.91988 2.53535 0
M  V30 6713 H 656.759 3.30111 2.36181 0
M  V30 6714 H 657.525 4.83289 0.407053 0
M  V30 6715 H 653.404 4.34759 1.53315 0
M  V30 6716 H 656.948 6.93538 -0.751755 0
M  V30 6717 H 652.845 6.44376 0.380799 0
M  V30 6718 H 653.613 8.14494 -0.80877 0
M  V30 6719 N 656.276 -0.40816 1.52223 0
M  V30 6720 C 657.208 -1.51642 1.71864 0
M  V30 6721 C 658.221 -1.51378 0.599056 0
M  V30 6722 O 659.41 -1.55626 0.874239 0
M  V30 6723 C 656.51 -2.90534 1.74481 0
M  V30 6724 C 655.683 -3.14979 3.03491 0
M  V30 6725 C 654.742 -4.33749 2.97907 0
M  V30 6726 O 653.768 -4.30982 3.71811 0
M  V30 6727 N 654.97 -5.38912 2.15764 0
M  V30 6728 H 657.735 -1.35188 2.67478 0
M  V30 6729 H 655.296 -0.597468 1.50472 0
M  V30 6730 H 657.288 -3.68056 1.68275 0
M  V30 6731 H 655.858 -3.00441 0.863363 0
M  V30 6732 H 655.078 -2.25492 3.23337 0
M  V30 6733 H 656.366 -3.28156 3.88833 0
M  V30 6734 H 655.764 -5.44008 1.55152 0
M  V30 6735 H 654.321 -6.15174 2.15415 0
M  V30 6736 N 657.755 -1.42862 -0.66545 0
M  V30 6737 C 658.983 -1.47246 -1.45349 0
M  V30 6738 C 659.398 -0.0865944 -1.88601 0
M  V30 6739 O 658.755 0.900652 -1.58728 0
M  V30 6740 C 658.806 -2.40772 -2.6965 0
M  V30 6741 O 658.527 -3.73968 -2.2821 0
M  V30 6742 C 660.028 -2.54272 -3.63126 0
M  V30 6743 H 657.248 -0.500497 -0.446927 0
M  V30 6744 H 659.792 -1.87477 -0.816871 0
M  V30 6745 H 657.947 -2.0377 -3.29479 0
M  V30 6746 H 658.361 -4.24146 -3.08546 0
M  V30 6747 H 659.835 -3.23815 -4.47043 0
M  V30 6748 H 660.312 -1.58364 -4.09656 0
M  V30 6749 H 660.918 -2.92036 -3.09185 0
M  V30 6750 N 659.233 0.902656 -1.29189 0
M  V30 6751 C 660.166 2.00816 -1.0839 0
M  V30 6752 C 661.144 1.626 0.00335266 0
M  V30 6753 O 662.328 1.87928 -0.146765 0
M  V30 6754 C 659.455 3.32415 -0.649435 0
M  V30 6755 C 658.501 3.89617 -1.73496 0
M  V30 6756 S 659.334 4.19091 -3.33351 0
M  V30 6757 C 660.49 5.53736 -2.91766 0
M  V30 6758 H 660.723 2.18151 -2.01984 0
M  V30 6759 H 658.256 1.0489 -1.13303 0
M  V30 6760 H 660.214 4.08492 -0.405479 0
M  V30 6761 H 658.875 3.12964 0.266857 0
M  V30 6762 H 658.068 4.84658 -1.38284 0
M  V30 6763 H 657.67 3.20217 -1.93229 0
M  V30 6764 H 659.962 6.34085 -2.38627 0
M  V30 6765 H 660.905 5.93871 -3.85647 0
M  V30 6766 H 661.313 5.15453 -2.30149 0
M  V30 6767 N 660.711 1.11618 1.11262 0
M  V30 6768 C 661.936 0.889013 1.8738 0
M  V30 6769 C 662.361 -0.555884 1.79698 0
M  V30 6770 O 661.719 -1.39272 1.16073 0
M  V30 6771 C 661.767 1.35759 3.34069 0
M  V30 6772 O 660.871 0.530499 4.08974 0
M  V30 6773 H 660.212 0.320082 0.581759 0
M  V30 6774 H 662.742 1.48611 1.40627 0
M  V30 6775 H 662.752 1.35291 3.84916 0
M  V30 6776 H 661.427 2.40973 3.38976 0
M  V30 6777 H 660.004 0.601439 3.68018 0
M  V30 6778 N 662.189 -1.289 0.906776 0
M  V30 6779 C 663.122 -2.25737 0.334362 0
M  V30 6780 C 664.1 -1.52745 -0.557474 0
M  V30 6781 O 665.284 -1.81673 -0.502697 0
M  V30 6782 C 662.411 -3.34642 -0.522716 0
M  V30 6783 C 661.457 -4.25424 0.302777 0
M  V30 6784 S 662.29 -5.07629 1.70508 0
M  V30 6785 C 663.446 -6.20031 0.855118 0
M  V30 6786 H 663.679 -2.73941 1.15514 0
M  V30 6787 H 661.212 -1.37233 0.707573 0
M  V30 6788 H 663.17 -3.97845 -1.01141 0
M  V30 6789 H 661.831 -2.85119 -1.31781 0
M  V30 6790 H 661.024 -5.02767 -0.352257 0
M  V30 6791 H 660.626 -3.66908 0.724873 0
M  V30 6792 H 662.918 -6.77451 0.0816418 0
M  V30 6793 H 663.861 -6.89767 1.60087 0
M  V30 6794 H 664.269 -5.63035 0.406375 0
M  V30 6795 N 663.667 -0.670007 -1.42649 0
M  V30 6796 C 664.913 -0.190568 -2.01903 0
M  V30 6797 C 665.246 1.19817 -1.52832 0
M  V30 6798 O 664.521 1.80342 -0.728485 0
M  V30 6799 C 664.804 -0.21991 -3.59428 0
M  V30 6800 C 664.657 -1.64376 -4.18689 0
M  V30 6801 C 665.976 0.434519 -4.3795 0
M  V30 6802 H 663.095 -0.0707219 -0.733599 0
M  V30 6803 H 665.737 -0.853883 -1.69732 0
M  V30 6804 H 663.887 0.344894 -3.86966 0
M  V30 6805 H 665.559 -2.26044 -4.02122 0
M  V30 6806 H 663.802 -2.18591 -3.747 0
M  V30 6807 H 664.473 -1.61601 -5.27815 0
M  V30 6808 H 666.949 -0.0462156 -4.16074 0
M  V30 6809 H 665.825 0.38333 -5.4756 0
M  V30 6810 H 666.086 1.51135 -4.15464 0
M  V30 6811 N 665.145 1.52092 -0.413018 0
M  V30 6812 C 666.37 2.06756 0.163338 0
M  V30 6813 C 666.795 1.28073 1.37764 0
M  V30 6814 O 666.153 0.312015 1.78595 0
M  V30 6815 C 666.201 3.57278 0.488322 0
M  V30 6816 O 665.305 3.80986 1.57871 0
M  V30 6817 H 664.646 0.663882 0.0125068 0
M  V30 6818 H 667.176 1.95988 -0.587339 0
M  V30 6819 H 667.186 4.01125 0.745836 0
M  V30 6820 H 665.861 4.13978 -0.399327 0
M  V30 6821 H 664.438 3.49017 1.31306 0
M  V30 6822 N 666.623 0.143563 1.56945 0
M  V30 6823 C 667.871 -0.507402 1.95627 0
M  V30 6824 C 668.192 -1.65626 1.02922 0
M  V30 6825 O 667.462 -1.95693 0.0901136 0
M  V30 6826 H 666.042 -0.190436 0.722318 0
M  V30 6827 H 668.704 0.218257 1.93674 0
M  V30 6828 H 667.8 -0.885816 2.99265 0
M  V30 6829 N 668.101 -1.57061 -0.130224 0
M  V30 6830 C 669.348 -1.84257 -0.839972 0
M  V30 6831 C 669.676 -0.726986 -1.80403 0
M  V30 6832 O 668.931 0.282632 -1.93648 0
M  V30 6833 C 669.23 -3.17878 -1.63365 0
M  V30 6834 C 668.896 -4.43475 -0.814891 0
M  V30 6835 C 667.558 -4.77581 -0.589066 0
M  V30 6836 C 669.91 -5.20631 -0.243437 0
M  V30 6837 C 667.238 -5.86292 0.218648 0
M  V30 6838 C 669.59 -6.30192 0.551408 0
M  V30 6839 C 668.254 -6.62837 0.787653 0
M  V30 6840 H 667.524 -0.674245 -0.307367 0
M  V30 6841 H 670.171 -1.91224 -0.102832 0
M  V30 6842 H 668.476 -3.06437 -2.44138 0
M  V30 6843 H 670.173 -3.3614 -2.18658 0
M  V30 6844 H 666.763 -4.16747 -1.00098 0
M  V30 6845 H 670.947 -4.94644 -0.405145 0
M  V30 6846 H 666.203 -6.10017 0.411016 0
M  V30 6847 H 670.377 -6.89165 1.00126 0
M  V30 6848 H 668.004 -7.46908 1.41537 0
M  V30 6849 N 669.579 0.400081 -1.52437 0
M  V30 6850 C 670.542 1.4707 -1.75793 0
M  V30 6851 C 671.542 1.48036 -0.627856 0
M  V30 6852 O 672.732 1.49401 -0.895817 0
M  V30 6853 C 669.864 2.86427 -1.84858 0
M  V30 6854 H 671.057 1.27649 -2.71377 0
M  V30 6855 H 668.61 0.631141 -1.42991 0
M  V30 6856 H 669.345 3.11207 -0.912194 0
M  V30 6857 H 669.13 2.87128 -2.6702 0
M  V30 6858 H 670.62 3.64023 -2.04638 0
M  V30 6859 N 671.057 1.43213 0.657864 0
M  V30 6860 C 672.468 1.39669 1.23893 0
M  V30 6861 C 672.819 0.0984217 1.95953 0
M  V30 6862 O 671.944 -0.8023 2.00978 0
M  V30 6863 C 672.539 2.53004 2.25332 0
M  V30 6864 C 671.098 2.5274 2.78926 0
M  V30 6865 C 670.245 2.30941 1.53497 0
M  V30 6866 H 673.196 1.52181 0.450172 0
M  V30 6867 H 673.217 2.24226 3.07413 0
M  V30 6868 H 672.729 3.4748 1.72856 0
M  V30 6869 H 670.83 1.6213 3.35477 0
M  V30 6870 H 670.943 3.50352 3.26787 0
M  V30 6871 H 669.307 1.7952 1.80678 0
M  V30 6872 H 670.09 3.27496 1.02963 0
M  V30 6873 N 672.536 -0.895792 1.29666 0
M  V30 6874 C 673.466 -2.01673 1.17688 0
M  V30 6875 C 674.447 -1.69955 0.0701317 0
M  V30 6876 O 675.632 -1.9258 0.250289 0
M  V30 6877 C 672.762 -3.36568 0.856681 0
M  V30 6878 C 671.716 -3.82509 1.92017 0
M  V30 6879 C 671.042 -5.14574 1.4532 0
M  V30 6880 C 672.342 -4.02409 3.32963 0
M  V30 6881 H 674.036 -2.11953 2.11463 0
M  V30 6882 H 671.582 -1.01839 1.01807 0
M  V30 6883 H 673.535 -4.14498 0.759577 0
M  V30 6884 H 672.259 -3.26391 -0.116763 0
M  V30 6885 H 670.918 -3.068 2.00673 0
M  V30 6886 H 670.566 -5.00815 0.468325 0
M  V30 6887 H 670.266 -5.46283 2.16447 0
M  V30 6888 H 671.79 -5.9504 1.36968 0
M  V30 6889 H 673.204 -4.70808 3.27127 0
M  V30 6890 H 671.601 -4.45478 4.02082 0
M  V30 6891 H 672.671 -3.06616 3.75652 0
M  V30 6892 N 674.014 -1.12206 -1.10668 0
M  V30 6893 C 675.263 -0.870595 -1.81944 0
M  V30 6894 C 675.576 0.605447 -1.85994 0
M  V30 6895 O 676.782 0.973433 -2.53449 0
M  V30 6896 C 675.238 -1.50783 -3.26791 0
M  V30 6897 C 674.846 -3.01849 -3.31046 0
M  V30 6898 C 676.59 -1.33653 -4.02911 0
M  V30 6899 C 674.497 -3.58518 -4.70339 0
M  V30 6900 H 673.427 -0.322043 -0.681765 0
M  V30 6901 H 676.078 -1.34827 -1.24475 0
M  V30 6902 H 674.46 -0.957825 -3.84242 0
M  V30 6903 H 675.634 -3.63321 -2.83433 0
M  V30 6904 H 673.949 -3.18346 -2.68411 0
M  V30 6905 H 676.546 -1.73416 -5.05797 0
M  V30 6906 H 676.889 -0.279949 -4.15358 0
M  V30 6907 H 677.422 -1.85562 -3.51868 0
M  V30 6908 H 674.161 -4.63925 -4.63091 0
M  V30 6909 H 673.681 -3.01819 -5.18329 0
M  V30 6910 H 675.36 -3.57434 -5.39305 0
M  V30 6911 N 675.492 1.28418 -0.913599 0
M  V30 6912 C 676.72 1.99106 -0.562536 0
M  V30 6913 C 677.135 1.68273 0.856137 0
M  V30 6914 O 676.492 0.935401 1.56705 0
M  V30 6915 C 676.543 3.5338 -0.761903 0
M  V30 6916 O 676.264 3.83127 -2.12475 0
M  V30 6917 C 677.765 4.41328 -0.417651 0
M  V30 6918 H 674.985 0.635798 -0.214481 0
M  V30 6919 H 677.529 1.63618 -1.22676 0
M  V30 6920 H 675.684 3.8713 -0.144676 0
M  V30 6921 H 676.098 4.77763 -2.16431 0
M  V30 6922 H 677.572 5.48642 -0.607919 0
M  V30 6923 H 678.049 4.34422 0.646108 0
M  V30 6924 H 678.655 4.13074 -1.01241 0
M  V30 6925 N 676.97 0.677563 1.42291 0
M  V30 6926 C 677.933 0.0101085 2.29198 0
M  V30 6927 C 678.933 -0.726219 1.43467 0
M  V30 6928 O 680.123 -0.563807 1.64824 0
M  V30 6929 C 677.255 -0.996316 3.26016 0
M  V30 6930 H 678.448 0.775071 2.89711 0
M  V30 6931 H 676.001 0.440065 1.49977 0
M  V30 6932 H 676.736 -1.78967 2.70446 0
M  V30 6933 H 676.521 -0.471687 3.89253 0
M  V30 6934 H 678.011 -1.46167 3.91184 0
M  V30 6935 N 678.448 -1.51871 0.421078 0
M  V30 6936 C 679.696 -2.01539 -0.150492 0
M  V30 6937 C 680.017 -1.30803 -1.44623 0
M  V30 6938 O 679.287 -0.437568 -1.90951 0
M  V30 6939 H 677.867 -0.744698 -0.0586041 0
M  V30 6940 H 680.529 -1.8668 0.560059 0
M  V30 6941 H 679.625 -3.10264 -0.338068 0
M  V30 6942 N 679.926 -0.151884 -1.56866 0
M  V30 6943 C 681.175 0.497992 -1.95456 0
M  V30 6944 C 681.488 1.6569 -1.03953 0
M  V30 6945 O 682.694 2.37173 -1.32142 0
M  V30 6946 C 681.15 0.93732 -3.4748 0
M  V30 6947 C 680.758 -0.194921 -4.47576 0
M  V30 6948 C 682.502 1.55671 -3.94926 0
M  V30 6949 C 680.409 0.26295 -5.90815 0
M  V30 6950 H 679.339 0.189811 -0.729717 0
M  V30 6951 H 681.99 -0.237011 -1.81963 0
M  V30 6952 H 680.372 1.72773 -3.56322 0
M  V30 6953 H 681.546 -0.971951 -4.50433 0
M  V30 6954 H 679.861 -0.72303 -4.10075 0
M  V30 6955 H 682.458 1.91099 -4.99385 0
M  V30 6956 H 682.801 2.44748 -3.36755 0
M  V30 6957 H 683.334 0.831109 -3.89021 0
M  V30 6958 H 680.073 -0.592568 -6.52816 0
M  V30 6959 H 679.593 1.00575 -5.91308 0
M  V30 6960 H 681.272 0.713333 -6.43056 0
M  V30 6961 N 681.404 1.57128 0.121893 0
M  V30 6962 C 682.651 1.847 0.830188 0
M  V30 6963 C 682.979 0.736543 1.80015 0
M  V30 6964 O 682.234 -0.272358 1.93796 0
M  V30 6965 C 682.533 3.1874 1.61677 0
M  V30 6966 C 682.199 4.43901 0.791361 0
M  V30 6967 C 680.861 4.77887 0.563731 0
M  V30 6968 C 683.213 5.20753 0.215823 0
M  V30 6969 C 680.541 5.86168 -0.249737 0
M  V30 6970 C 682.893 6.29891 -0.584821 0
M  V30 6971 C 681.557 6.6241 -0.822794 0
M  V30 6972 H 680.827 0.675866 0.303787 0
M  V30 6973 H 683.474 1.91276 0.0926894 0
M  V30 6974 H 681.779 3.07728 2.42509 0
M  V30 6975 H 683.476 3.37295 2.16872 0
M  V30 6976 H 680.066 4.17272 0.978867 0
M  V30 6977 H 684.25 4.94851 0.378907 0
M  V30 6978 H 679.506 6.0979 -0.44336 0
M  V30 6979 H 683.68 6.88624 -1.03779 0
M  V30 6980 H 681.307 7.46147 -1.45496 0
M  V30 6981 N 682.882 -0.391992 1.52647 0
M  V30 6982 C 684.13 -1.13507 1.67214 0
M  V30 6983 C 684.451 -1.90575 0.41304 0
M  V30 6984 O 683.721 -1.87348 -0.572498 0
M  V30 6985 H 682.301 -0.422013 0.616372 0
M  V30 6986 H 684.963 -0.44502 1.89751 0
M  V30 6987 H 684.059 -1.83964 2.52118 0
M  V30 6988 N 684.36 -1.4356 -0.65026 0
M  V30 6989 C 685.323 -1.48615 -1.74489 0
M  V30 6990 C 686.323 -0.370483 -1.56474 0
M  V30 6991 O 687.513 -0.632351 -1.62317 0
M  V30 6992 C 684.645 -1.34161 -3.13391 0
M  V30 6993 H 685.838 -2.46103 -1.71387 0
M  V30 6994 H 683.391 -1.30369 -0.862186 0
M  V30 6995 H 684.126 -0.376918 -3.22102 0
M  V30 6996 H 683.911 -2.1504 -3.27872 0
M  V30 6997 H 685.401 -1.40637 -3.93206 0
M  V30 6998 N 685.838 0.888903 -1.30139 0
M  V30 6999 C 687.066 1.67358 -1.21651 0
M  V30 7000 C 687.481 1.87499 0.221246 0
M  V30 7001 O 686.838 1.41969 1.14677 0
M  V30 7002 C 686.889 3.05213 -1.93719 0
M  V30 7003 O 686.61 2.85984 -3.31881 0
M  V30 7004 C 688.111 3.9964 -1.9184 0
M  V30 7005 H 685.331 0.522365 -0.42116 0
M  V30 7006 H 687.875 1.11086 -1.71698 0
M  V30 7007 H 686.03 3.5823 -1.4748 0
M  V30 7008 H 686.444 3.73411 -3.68327 0
M  V30 7009 H 687.918 4.93749 -2.46811 0
M  V30 7010 H 688.395 4.29955 -0.896409 0
M  V30 7011 H 689.001 3.52558 -2.37872 0
M  V30 7012 N 687.317 1.12792 1.10072 0
M  V30 7013 C 688.247 0.821688 2.18565 0
M  V30 7014 C 689.228 -0.21612 1.68721 0
M  V30 7015 O 690.413 -0.0764932 1.94049 0
M  V30 7016 C 687.543 0.279624 3.46172 0
M  V30 7017 C 686.497 1.25092 4.09312 0
M  V30 7018 C 685.823 0.568916 5.31665 0
M  V30 7019 C 687.123 2.60699 4.52585 0
M  V30 7020 H 688.817 1.72888 2.44438 0
M  V30 7021 H 686.363 0.832702 1.17482 0
M  V30 7022 H 688.316 0.053099 4.21367 0
M  V30 7023 H 687.04 -0.662929 3.19801 0
M  V30 7024 H 685.699 1.46332 3.36129 0
M  V30 7025 H 685.347 -0.378898 5.01571 0
M  V30 7026 H 685.047 1.21687 5.74862 0
M  V30 7027 H 686.571 0.351517 6.09587 0
M  V30 7028 H 687.985 2.43465 5.19035 0
M  V30 7029 H 686.382 3.21608 5.06644 0
M  V30 7030 H 687.452 3.1886 3.65317 0
M  V30 7031 N 688.795 -1.27931 0.920396 0
M  V30 7032 C 690.02 -1.99343 0.572478 0
M  V30 7033 C 690.445 -1.68267 -0.840696 0
M  V30 7034 O 689.803 -0.918805 -1.56294 0
M  V30 7035 C 689.851 -3.51698 0.796284 0
M  V30 7036 O 688.955 -4.12157 -0.141602 0
M  V30 7037 H 688.296 -0.626065 0.221221 0
M  V30 7038 H 690.826 -1.62921 1.23765 0
M  V30 7039 H 690.836 -4.01793 0.708984 0
M  V30 7040 H 689.511 -3.73649 1.82644 0
M  V30 7041 H 688.088 -3.729 -0.005007 0
M  V30 7042 N 690.273 -0.685099 -1.4193 0
M  V30 7043 C 691.498 -0.218842 -2.06242 0
M  V30 7044 C 691.923 1.11923 -1.51178 0
M  V30 7045 O 691.281 1.69837 -0.634446 0
M  V30 7046 C 691.329 -0.175592 -3.60172 0
M  V30 7047 O 690.433 0.852776 -4.03487 0
M  V30 7048 H 689.774 -0.109531 -0.654904 0
M  V30 7049 H 692.304 -0.937013 -1.81882 0
M  V30 7050 H 692.314 -0.00291151 -4.08 0
M  V30 7051 H 690.989 -1.15222 -3.99621 0
M  V30 7052 H 689.566 0.650301 -3.67186 0
M  V30 7053 N 691.751 1.51645 -0.429126 0
M  V30 7054 C 692.714 2.26116 0.374726 0
M  V30 7055 C 693.714 1.29242 0.956714 0
M  V30 7056 O 694.904 1.53022 0.832452 0
M  V30 7057 C 692.036 3.04669 1.52937 0
M  V30 7058 H 693.229 2.9861 -0.277818 0
M  V30 7059 H 690.782 1.55236 -0.182097 0
M  V30 7060 H 691.517 2.36571 2.21821 0
M  V30 7061 H 691.302 3.75814 1.11833 0
M  V30 7062 H 692.792 3.61102 2.09751 0
M  V30 7063 N 693.229 0.160201 1.56784 0
M  V30 7064 C 694.159 -0.770264 2.2043 0
M  V30 7065 C 695.14 -1.24736 1.15651 0
M  V30 7066 O 696.325 -1.30253 1.44041 0
M  V30 7067 C 693.455 -2.00427 2.83631 0
M  V30 7068 C 692.409 -1.66345 3.94352 0
M  V30 7069 C 691.735 -2.97119 4.4455 0
M  V30 7070 C 693.035 -0.899972 5.14488 0
M  V30 7071 H 694.729 -0.239783 2.98438 0
M  V30 7072 H 692.275 -0.113891 1.43549 0
M  V30 7073 H 694.228 -2.66012 3.26827 0
M  V30 7074 H 692.952 -2.5587 2.02973 0
M  V30 7075 H 691.611 -1.03133 3.51794 0
M  V30 7076 H 691.259 -3.5058 3.60698 0
M  V30 7077 H 690.959 -2.75073 5.19238 0
M  V30 7078 H 692.483 -3.63753 4.90425 0
M  V30 7079 H 693.897 -1.45818 5.54446 0
M  V30 7080 H 692.294 -0.778968 5.95023 0
M  V30 7081 H 693.364 0.105827 4.84785 0
M  V30 7082 N 694.707 -1.5719 -0.113559 0
M  V30 7083 C 695.67 -1.99796 -1.12314 0
M  V30 7084 C 696.67 -0.888847 -1.34001 0
M  V30 7085 O 697.86 -1.15476 -1.30426 0
M  V30 7086 C 694.992 -2.34279 -2.47641 0
M  V30 7087 H 696.185 -2.90193 -0.756825 0
M  V30 7088 H 693.738 -1.52144 -0.358029 0
M  V30 7089 H 694.473 -1.46778 -2.89183 0
M  V30 7090 H 694.258 -3.15175 -2.33253 0
M  V30 7091 H 695.748 -2.67963 -3.2029 0
M  V30 7092 N 696.185 0.383891 -1.52853 0
M  V30 7093 C 697.425 1.13731 -1.69837 0
M  V30 7094 C 697.789 1.87086 -0.431611 0
M  V30 7095 O 698.99 2.64518 -0.477886 0
M  V30 7096 C 697.261 2.08551 -2.90243 0
M  V30 7097 S 698.82 2.9166 -3.27841 0
M  V30 7098 H 695.638 0.384911 -0.5978 0
M  V30 7099 H 698.24 0.42103 -1.90913 0
M  V30 7100 H 696.944 1.53392 -3.80656 0
M  V30 7101 H 696.475 2.8468 -2.71516 0
M  V30 7102 H 698.49 4.10723 -2.78426 0
M  V30 7103 N 697.663 1.43903 0.642637 0
M  V30 7104 C 698.593 1.52697 1.76652 0
M  V30 7105 C 699.574 0.380816 1.65782 0
M  V30 7106 O 700.759 0.599432 1.84717 0
M  V30 7107 C 697.889 1.45975 3.15133 0
M  V30 7108 C 696.843 2.58949 3.40778 0
M  V30 7109 C 696.169 2.37279 4.79169 0
M  V30 7110 C 697.469 4.01153 3.34475 0
M  V30 7111 H 699.163 2.46766 1.69549 0
M  V30 7112 H 696.709 1.18767 0.814279 0
M  V30 7113 H 698.662 1.5073 3.93521 0
M  V30 7114 H 697.386 0.484162 3.22991 0
M  V30 7115 H 696.045 2.53564 2.64765 0
M  V30 7116 H 695.693 1.37939 4.83717 0
M  V30 7117 H 695.393 3.13016 4.97287 0
M  V30 7118 H 696.917 2.43834 5.59801 0
M  V30 7119 H 698.331 4.07968 4.02784 0
M  V30 7120 H 696.728 4.77001 3.64129 0
M  V30 7121 H 697.798 4.25539 2.32475 0
M  V30 7122 N 699.141 -0.881989 1.30609 0
M  V30 7123 C 700.387 -1.63647 1.19781 0
M  V30 7124 C 700.72 -1.92632 -0.246265 0
M  V30 7125 O 699.995 -1.54938 -1.17577 0
M  V30 7126 C 700.278 -2.97437 2.02985 0
M  V30 7127 C 700.131 -2.75406 3.55628 0
M  V30 7128 C 701.45 -3.98397 1.86997 0
M  V30 7129 H 698.569 -0.593841 0.436488 0
M  V30 7130 H 701.211 -1.02041 1.60273 0
M  V30 7131 H 699.361 -3.50018 1.68581 0
M  V30 7132 H 701.033 -2.2959 4.00107 0
M  V30 7133 H 699.276 -2.09856 3.79662 0
M  V30 7134 H 699.947 -3.70552 4.09139 0
M  V30 7135 H 702.423 -3.54986 2.17081 0
M  V30 7136 H 701.299 -4.89916 2.47536 0
M  V30 7137 H 701.56 -4.3424 0.829943 0
M  V30 7138 N 700.619 -1.13374 -1.09472 0
M  V30 7139 C 701.844 -0.918711 -1.85942 0
M  V30 7140 C 702.269 0.527225 -1.8056 0
M  V30 7141 O 701.627 1.37408 -1.18274 0
M  V30 7142 C 701.675 -1.41056 -3.31867 0
M  V30 7143 O 700.779 -0.595496 -4.08078 0
M  V30 7144 H 700.12 -0.329297 -0.576593 0
M  V30 7145 H 702.65 -1.50829 -1.38245 0
M  V30 7146 H 702.66 -1.41398 -3.82715 0
M  V30 7147 H 701.335 -2.46335 -3.35099 0
M  V30 7148 H 699.912 -0.659911 -3.67014 0
M  V30 7149 N 702.098 1.27442 -0.927168 0
M  V30 7150 C 703.061 2.2512 -0.430525 0
M  V30 7151 C 704.061 1.54357 0.450619 0
M  V30 7152 O 705.251 1.72371 0.251774 0
M  V30 7153 C 702.383 3.38763 0.381144 0
M  V30 7154 H 703.576 2.70569 -1.29354 0
M  V30 7155 H 701.129 1.39355 -0.707806 0
M  V30 7156 H 701.864 2.98695 1.263 0
M  V30 7157 H 701.649 3.91298 -0.250618 0
M  V30 7158 H 703.139 4.11364 0.719012 0
M  V30 7159 N 703.576 0.692616 1.41565 0
M  V30 7160 C 704.539 0.0344174 2.29174 0
M  V30 7161 C 705.539 -0.710961 1.44229 0
M  V30 7162 O 706.729 -0.546293 1.65412 0
M  V30 7163 C 703.861 -0.961682 3.27054 0
M  V30 7164 H 705.054 0.805755 2.88873 0
M  V30 7165 H 702.607 0.455947 1.49502 0
M  V30 7166 H 703.342 -1.76089 2.72329 0
M  V30 7167 H 703.127 -0.430375 3.89731 0
M  V30 7168 H 704.617 -1.4201 3.92712 0
M  V30 7169 N 705.054 -1.51416 0.437162 0
M  V30 7170 C 706.001 -2.27743 -0.374374 0
M  V30 7171 C 706.971 -1.31327 -1.01698 0
M  V30 7172 O 708.156 -1.60229 -1.03592 0
M  V30 7173 C 705.296 -3.12241 -1.46969 0
M  V30 7174 C 704.409 -4.23651 -0.845236 0
M  V30 7175 C 703.544 -4.95458 -1.91559 0
M  V30 7176 C 702.583 -5.98789 -1.26956 0
M  V30 7177 N 701.72 -6.64005 -2.28126 0
M  V30 7178 H 706.56 -2.96654 0.282892 0
M  V30 7179 H 704.097 -1.46319 0.151352 0
M  V30 7180 H 706.055 -3.59556 -2.11602 0
M  V30 7181 H 704.685 -2.45445 -2.09659 0
M  V30 7182 H 703.737 -3.803 -0.0872059 0
M  V30 7183 H 705.049 -4.97683 -0.333582 0
M  V30 7184 H 704.203 -5.46321 -2.63854 0
M  V30 7185 H 702.942 -4.21055 -2.46097 0
M  V30 7186 H 701.947 -5.47219 -0.53207 0
M  V30 7187 H 703.172 -6.75149 -0.731509 0
M  V30 7188 H 701.118 -5.92415 -2.81745 0
M  V30 7189 H 701.035 -7.33802 -1.81852 0
M  V30 7190 H 702.303 -7.19498 -2.99905 0
M  V30 7191 N 706.532 -0.168513 -1.56696 0
M  V30 7192 C 707.778 0.477865 -1.9709 0
M  V30 7193 C 708.111 1.63084 -1.05438 0
M  V30 7194 O 707.386 1.94238 -0.10095 0
M  V30 7195 C 707.669 0.963521 -3.4697 0
M  V30 7196 C 707.522 -0.189443 -4.49401 0
M  V30 7197 C 708.841 1.83813 -3.99876 0
M  V30 7198 H 705.96 0.172229 -0.716593 0
M  V30 7199 H 708.602 -0.254083 -1.88293 0
M  V30 7200 H 706.752 1.58724 -3.54597 0
M  V30 7201 H 708.424 -0.826451 -4.53836 0
M  V30 7202 H 706.667 -0.845366 -4.25483 0
M  V30 7203 H 707.338 0.192446 -5.51664 0
M  V30 7204 H 709.814 1.31235 -3.94863 0
M  V30 7205 H 708.69 2.14697 -5.0517 0
M  V30 7206 H 708.951 2.78289 -3.43523 0
M  V30 7207 N 708.01 1.57248 0.105221 0
M  V30 7208 C 709.257 1.8557 0.810552 0
M  V30 7209 C 709.585 0.755595 1.79223 0
M  V30 7210 O 708.84 -0.251788 1.94073 0
M  V30 7211 C 709.139 3.20437 1.58287 0
M  V30 7212 C 708.805 4.44716 0.744235 0
M  V30 7213 C 707.467 4.78458 0.513013 0
M  V30 7214 C 709.819 5.20953 0.160578 0
M  V30 7215 C 707.147 5.8587 -0.311894 0
M  V30 7216 C 709.499 6.29235 -0.651596 0
M  V30 7217 C 708.163 6.615 -0.893005 0
M  V30 7218 H 707.433 0.67905 0.296602 0
M  V30 7219 H 710.08 1.91363 0.0723968 0
M  V30 7220 H 708.385 3.10283 2.39232 0
M  V30 7221 H 710.082 3.39576 2.13282 0
M  V30 7222 H 706.672 4.18287 0.934555 0
M  V30 7223 H 710.856 4.95226 0.3264 0
M  V30 7224 H 706.112 6.09286 -0.508012 0
M  V30 7225 H 710.286 6.87484 -1.11077 0
M  V30 7226 H 707.913 7.44562 -1.53401 0
M  V30 7227 N 709.488 -0.375779 1.53054 0
M  V30 7228 C 710.42 -1.47963 1.75042 0
M  V30 7229 C 711.433 -1.50073 0.631031 0
M  V30 7230 O 712.622 -1.53736 0.907052 0
M  V30 7231 C 709.722 -2.86767 1.80604 0
M  V30 7232 C 708.895 -3.08471 3.10104 0
M  V30 7233 C 707.954 -4.27332 3.07041 0
M  V30 7234 O 706.98 -4.22998 3.80869 0
M  V30 7235 N 708.182 -5.34214 2.27147 0
M  V30 7236 H 710.947 -1.29484 2.70285 0
M  V30 7237 H 708.508 -0.565416 1.51706 0
M  V30 7238 H 710.5 -3.64404 1.76045 0
M  V30 7239 H 709.07 -2.98542 0.926897 0
M  V30 7240 H 708.29 -2.18583 3.28048 0
M  V30 7241 H 709.578 -3.19834 3.95706 0
M  V30 7242 H 708.976 -5.40594 1.66656 0
M  V30 7243 H 707.533 -6.10467 2.28415 0
M  V30 7244 N 710.966 -1.44241 -0.634997 0
M  V30 7245 C 712.206 -1.48339 -1.40623 0
M  V30 7246 C 712.57 -0.111479 -1.91676 0
M  V30 7247 O 713.771 -0.0271345 -2.68786 0
M  V30 7248 C 712.042 -2.51122 -2.54308 0
M  V30 7249 S 713.601 -2.74237 -3.42548 0
M  V30 7250 H 710.419 -0.524715 -0.479787 0
M  V30 7251 H 713.021 -1.81138 -0.735489 0
M  V30 7252 H 711.725 -3.49511 -2.15106 0
M  V30 7253 H 711.256 -2.19883 -3.26213 0
M  V30 7254 H 713.271 -2.0554 -4.51628 0
M  V30 7255 N 712.444 0.87505 -1.31075 0
M  V30 7256 C 713.374 1.99775 -1.20881 0
M  V30 7257 C 714.355 1.69822 -0.0971612 0
M  V30 7258 O 715.54 1.92158 -0.280895 0
M  V30 7259 C 712.67 3.35163 -0.910118 0
M  V30 7260 C 711.624 3.79406 -1.98078 0
M  V30 7261 C 710.95 5.12197 -1.53488 0
M  V30 7262 C 712.25 3.97061 -3.39323 0
M  V30 7263 H 713.944 2.08562 -2.14808 0
M  V30 7264 H 711.49 1.00207 -1.03415 0
M  V30 7265 H 713.443 4.13237 -0.825423 0
M  V30 7266 H 712.167 3.26536 0.064822 0
M  V30 7267 H 710.826 3.03568 -2.05528 0
M  V30 7268 H 710.474 5.00007 -0.547941 0
M  V30 7269 H 710.174 5.4277 -2.2511 0
M  V30 7270 H 711.698 5.92785 -1.46417 0
M  V30 7271 H 713.112 4.65545 -3.34576 0
M  V30 7272 H 711.509 4.39025 -4.09118 0
M  V30 7273 H 712.579 3.00601 -3.80483 0
M  V30 7274 N 713.922 1.13953 1.08869 0
M  V30 7275 C 715.162 0.915128 1.8277 0
M  V30 7276 C 715.526 -0.548647 1.83994 0
M  V30 7277 O 716.727 -0.890817 2.5361 0
M  V30 7278 C 714.998 1.49382 3.24684 0
M  V30 7279 S 716.557 1.4103 4.15519 0
M  V30 7280 H 713.375 0.329716 0.629927 0
M  V30 7281 H 715.977 1.45213 1.30895 0
M  V30 7282 H 714.681 2.55241 3.21372 0
M  V30 7283 H 714.212 0.955008 3.81632 0
M  V30 7284 H 716.227 0.392617 4.94644 0
M  V30 7285 N 715.4 -1.26948 0.933913 0
M  V30 7286 C 716.31 -2.30366 0.443671 0
M  V30 7287 C 717.326 -1.67284 -0.478745 0
M  V30 7288 O 718.502 -1.98156 -0.360043 0
M  V30 7289 C 715.567 -3.45485 -0.289974 0
M  V30 7290 C 714.628 -4.24069 0.668114 0
M  V30 7291 C 713.861 -5.33691 -0.0306138 0
M  V30 7292 O 714.084 -5.5656 -1.24888 0
M  V30 7293 O 713.018 -5.98441 0.644384 0
M  V30 7294 H 716.844 -2.74349 1.30254 0
M  V30 7295 H 714.429 -1.32012 0.699506 0
M  V30 7296 H 716.311 -4.15486 -0.70353 0
M  V30 7297 H 714.986 -3.03546 -1.12435 0
M  V30 7298 H 713.893 -3.56579 1.13147 0
M  V30 7299 H 715.226 -4.69739 1.46989 0
M  V30 7300 N 716.879 -0.700114 -1.41195 0
M  V30 7301 C 718.156 -0.160836 -1.94938 0
M  V30 7302 C 718.536 1.33014 -1.63922 0
M  V30 7303 O 717.884 2.07878 -0.948636 0
M  V30 7304 C 718.094 -0.456991 -3.45995 0
M  V30 7305 C 719.442 -0.387207 -4.22831 0
M  V30 7306 O 720.466 -0.392164 -3.54035 0
M  V30 7307 O 719.325 -0.351267 -5.4537 0
M  V30 7308 H 716.419 -0.0176304 -0.826812 0
M  V30 7309 H 718.965 -0.776586 -1.50888 0
M  V30 7310 H 717.737 -1.48884 -3.61869 0
M  V30 7311 H 717.36 0.189503 -3.97148 0
M  V30 7312 N 718.357 1.51182 -0.445186 0
M  V30 7313 C 719.289 2.25714 0.398206 0
M  V30 7314 C 720.302 1.30032 0.979562 0
M  V30 7315 O 721.491 1.55731 0.872368 0
M  V30 7316 C 718.591 3.00348 1.56985 0
M  V30 7317 C 717.764 4.23187 1.10596 0
M  V30 7318 C 716.823 4.80334 2.14863 0
M  V30 7319 O 715.849 5.4196 1.73977 0
M  V30 7320 N 717.051 4.65053 3.47427 0
M  V30 7321 H 719.816 2.98732 -0.240629 0
M  V30 7322 H 717.377 1.59556 -0.274507 0
M  V30 7323 H 719.369 3.35464 2.26376 0
M  V30 7324 H 717.939 2.30291 2.11387 0
M  V30 7325 H 717.159 3.93476 0.238832 0
M  V30 7326 H 718.447 5.02886 0.773537 0
M  V30 7327 H 717.845 4.15984 3.83372 0
M  V30 7328 H 716.402 5.04509 4.12691 0
M  V30 7329 N 719.835 0.176821 1.56605 0
M  V30 7330 C 720.765 -0.746841 2.21234 0
M  V30 7331 C 721.746 -1.23502 1.16967 0
M  V30 7332 O 722.931 -1.28718 1.45414 0
M  V30 7333 C 720.061 -1.97407 2.8574 0
M  V30 7334 C 719.015 -1.62153 3.96094 0
M  V30 7335 C 718.341 -2.92387 4.47676 0
M  V30 7336 C 719.641 -0.845353 5.15413 0
M  V30 7337 H 721.335 -0.208116 2.98676 0
M  V30 7338 H 718.881 -0.0986594 1.43662 0
M  V30 7339 H 720.834 -2.62531 3.2963 0
M  V30 7340 H 719.558 -2.53703 2.05676 0
M  V30 7341 H 718.217 -0.993964 3.52868 0
M  V30 7342 H 717.865 -3.46734 3.64396 0
M  V30 7343 H 717.565 -2.69551 5.22127 0
M  V30 7344 H 719.089 -3.5853 4.94255 0
M  V30 7345 H 720.503 -1.39929 5.55961 0
M  V30 7346 H 718.9 -0.715814 5.95815 0
M  V30 7347 H 719.97 0.157239 4.84645 0
M  V30 7348 N 721.313 -1.57302 -0.09688 0
M  V30 7349 C 722.543 -1.89926 -0.813114 0
M  V30 7350 C 722.951 -0.76852 -1.72888 0
M  V30 7351 O 722.294 0.268549 -1.81726 0
M  V30 7352 C 722.356 -3.17787 -1.68082 0
M  V30 7353 C 722.02 -4.4729 -0.937061 0
M  V30 7354 C 723.017 -5.1921 -0.267687 0
M  V30 7355 C 720.702 -4.93957 -0.911671 0
M  V30 7356 C 722.696 -6.36034 0.417129 0
M  V30 7357 C 720.383 -6.10693 -0.223068 0
M  V30 7358 C 721.381 -6.8158 0.440155 0
M  V30 7359 O 721.069 -7.96092 1.11772 0
M  V30 7360 H 720.801 -0.632783 -0.237828 0
M  V30 7361 H 723.355 -2.05248 -0.0790818 0
M  V30 7362 H 721.585 -2.98607 -2.45705 0
M  V30 7363 H 723.274 -3.36257 -2.27346 0
M  V30 7364 H 724.04 -4.84198 -0.278774 0
M  V30 7365 H 719.919 -4.38671 -1.41734 0
M  V30 7366 H 723.463 -6.91301 0.93537 0
M  V30 7367 H 719.36 -6.45159 -0.209821 0
M  V30 7368 H 720.128 -8.12064 1.02443 0
M  V30 7369 N 722.791 0.367657 -1.53252 0
M  V30 7370 C 724.202 0.944563 -1.61043 0
M  V30 7371 C 724.553 1.90325 -0.476546 0
M  V30 7372 O 723.678 2.12721 0.397333 0
M  V30 7373 C 724.273 1.71992 -2.91898 0
M  V30 7374 C 722.832 2.2462 -3.02031 0
M  V30 7375 C 721.979 1.05799 -2.56324 0
M  V30 7376 H 724.93 0.146516 -1.58022 0
M  V30 7377 H 724.951 2.58095 -2.79584 0
M  V30 7378 H 724.463 1.02192 -3.74404 0
M  V30 7379 H 722.564 2.97668 -2.24108 0
M  V30 7380 H 722.677 2.52644 -4.07073 0
M  V30 7381 H 721.041 1.42435 -2.1115 0
M  V30 7382 H 721.824 0.375008 -3.41246 0
M  V30 7383 N 724.269 1.44576 0.627338 0
M  V30 7384 C 725.199 1.54562 1.75022 0
M  V30 7385 C 726.18 0.398378 1.65369 0
M  V30 7386 O 727.365 0.61899 1.84071 0
M  V30 7387 C 724.495 1.49309 3.13567 0
M  V30 7388 C 723.449 2.62549 3.38012 0
M  V30 7389 C 722.775 2.42348 4.76625 0
M  V30 7390 C 724.075 4.04678 3.30202 0
M  V30 7391 H 725.769 2.4855 1.66922 0
M  V30 7392 H 723.315 1.19624 0.801636 0
M  V30 7393 H 725.268 1.54895 3.919 0
M  V30 7394 H 723.992 0.518392 3.2246 0
M  V30 7395 H 722.651 2.56358 2.62061 0
M  V30 7396 H 722.299 1.43062 4.82226 0
M  V30 7397 H 721.999 3.18273 4.93939 0
M  V30 7398 H 723.523 2.49758 5.57183 0
M  V30 7399 H 724.937 4.12217 3.98435 0
M  V30 7400 H 723.334 4.80836 3.5905 0
M  V30 7401 H 724.404 4.2798 2.27949 0
M  V30 7402 N 725.747 -0.868086 1.31537 0
M  V30 7403 C 726.996 -1.61607 1.20689 0
M  V30 7404 C 727.309 -1.94204 -0.233275 0
M  V30 7405 O 728.515 -2.67515 -0.463465 0
M  V30 7406 C 726.971 -2.91348 2.11292 0
M  V30 7407 C 726.579 -2.66227 3.60315 0
M  V30 7408 C 728.323 -3.69344 2.09249 0
M  V30 7409 C 726.23 -3.91887 4.42921 0
M  V30 7410 H 725.16 -0.606373 0.448138 0
M  V30 7411 H 727.811 -0.959666 1.56405 0
M  V30 7412 H 726.193 -3.58374 1.68477 0
M  V30 7413 H 727.367 -2.07597 4.11388 0
M  V30 7414 H 725.682 -2.01582 3.64354 0
M  V30 7415 H 728.279 -4.62567 2.68209 0
M  V30 7416 H 728.622 -4.02044 1.0801 0
M  V30 7417 H 729.155 -3.09205 2.50274 0
M  V30 7418 H 725.894 -3.64336 5.44922 0
M  V30 7419 H 725.414 -4.49961 3.96605 0
M  V30 7420 H 727.093 -4.59754 4.55231 0
M  V30 7421 N 727.225 -1.14528 -1.08264 0
M  V30 7422 C 728.473 -0.912599 -1.80322 0
M  V30 7423 C 728.794 0.562256 -1.86718 0
M  V30 7424 O 728.064 1.40869 -1.36135 0
M  V30 7425 H 726.644 -0.334645 -0.667849 0
M  V30 7426 H 729.306 -1.44415 -1.30883 0
M  V30 7427 H 728.402 -1.31384 -2.83098 0
M  V30 7428 N 728.703 1.26451 -0.940633 0
M  V30 7429 C 729.95 1.93778 -0.587909 0
M  V30 7430 C 730.278 1.73811 0.872935 0
M  V30 7431 O 729.533 1.06816 1.63978 0
M  V30 7432 C 729.832 3.46503 -0.875794 0
M  V30 7433 C 729.498 3.86609 -2.32043 0
M  V30 7434 C 728.16 3.97269 -2.71534 0
M  V30 7435 C 730.512 4.0672 -3.25927 0
M  V30 7436 C 727.84 4.25436 -4.04006 0
M  V30 7437 C 730.192 4.36375 -4.57995 0
M  V30 7438 C 728.856 4.45249 -4.97302 0
M  V30 7439 H 728.126 0.709084 -0.215131 0
M  V30 7440 H 730.773 1.50272 -1.18704 0
M  V30 7441 H 729.078 3.91319 -0.194124 0
M  V30 7442 H 730.775 3.96759 -0.581665 0
M  V30 7443 H 727.365 3.78858 -2.00411 0
M  V30 7444 H 731.549 3.97912 -2.96614 0
M  V30 7445 H 726.805 4.30519 -4.34124 0
M  V30 7446 H 730.979 4.50882 -5.30734 0
M  V30 7447 H 728.606 4.66829 -5.99979 0
M  V30 7448 N 730.181 0.707592 1.40822 0
M  V30 7449 C 731.428 0.243671 2.01029 0
M  V30 7450 C 731.756 -1.16057 1.5608 0
M  V30 7451 O 731.011 -1.7999 0.768251 0
M  V30 7452 C 731.31 0.262892 3.56432 0
M  V30 7453 C 730.976 1.61632 4.20935 0
M  V30 7454 C 729.638 1.98682 4.38268 0
M  V30 7455 C 731.99 2.50619 4.5699 0
M  V30 7456 C 729.318 3.2428 4.88937 0
M  V30 7457 C 731.67 3.75562 5.09054 0
M  V30 7458 C 730.334 4.12739 5.24598 0
M  V30 7459 H 729.604 0.0891654 0.735616 0
M  V30 7460 H 732.251 0.909051 1.68548 0
M  V30 7461 H 730.556 -0.486052 3.88773 0
M  V30 7462 H 732.253 -0.113775 4.00839 0
M  V30 7463 H 728.843 1.31818 4.07826 0
M  V30 7464 H 733.027 2.23272 4.43242 0
M  V30 7465 H 728.283 3.53064 4.99155 0
M  V30 7466 H 732.457 4.44692 5.35931 0
M  V30 7467 H 730.084 5.10132 5.63622 0
M  V30 7468 N 731.66 -1.50943 0.453197 0
M  V30 7469 C 732.908 -2.01813 -0.107709 0
M  V30 7470 C 733.229 -1.33841 -1.41816 0
M  V30 7471 O 732.499 -0.477973 -1.8998 0
M  V30 7472 H 731.079 -0.745773 -0.0427948 0
M  V30 7473 H 733.741 -1.8545 0.599531 0
M  V30 7474 H 732.837 -3.10911 -0.27218 0
M  V30 7475 N 733.138 -0.185124 -1.56509 0
M  V30 7476 C 734.085 0.739729 -2.18624 0
M  V30 7477 C 735.055 1.217 -1.13042 0
M  V30 7478 O 736.24 1.28268 -1.41251 0
M  V30 7479 C 733.38 1.95787 -2.84186 0
M  V30 7480 C 732.493 1.52289 -4.04267 0
M  V30 7481 C 731.628 2.69576 -4.57714 0
M  V30 7482 C 730.667 2.22636 -5.70175 0
M  V30 7483 N 729.804 3.33065 -6.18071 0
M  V30 7484 H 734.644 0.203269 -2.97306 0
M  V30 7485 H 732.181 0.0885946 -1.46833 0
M  V30 7486 H 734.139 2.67253 -3.20361 0
M  V30 7487 H 732.769 2.4678 -2.08085 0
M  V30 7488 H 731.821 0.704458 -3.7382 0
M  V30 7489 H 733.133 1.13843 -4.85635 0
M  V30 7490 H 732.287 3.4918 -4.96143 0
M  V30 7491 H 731.026 3.1129 -3.75433 0
M  V30 7492 H 730.031 1.41483 -5.31284 0
M  V30 7493 H 731.256 1.81964 -6.54267 0
M  V30 7494 H 729.202 3.74328 -5.38715 0
M  V30 7495 H 729.119 2.98756 -6.94464 0
M  V30 7496 H 730.387 4.12912 -6.61153 0
M  V30 7497 N 734.616 1.57351 0.0885366 0
M  V30 7498 C 735.864 1.86051 0.789262 0
M  V30 7499 C 736.185 0.774763 1.78948 0
M  V30 7500 O 735.455 -0.198324 1.94894 0
M  V30 7501 H 734.035 0.686508 0.294475 0
M  V30 7502 H 736.697 1.94779 0.0686055 0
M  V30 7503 H 735.793 2.83007 1.31581 0
M  V30 7504 N 736.094 -0.359525 1.53444 0
M  V30 7505 C 737.324 -1.12036 1.73585 0
M  V30 7506 C 737.732 -1.83335 0.467438 0
M  V30 7507 O 737.075 -1.74641 -0.569753 0
M  V30 7508 C 737.137 -2.19036 2.85068 0
M  V30 7509 C 736.801 -1.67451 4.25217 0
M  V30 7510 C 737.798 -1.13534 5.07352 0
M  V30 7511 C 735.483 -1.72781 4.71648 0
M  V30 7512 C 737.477 -0.656321 6.34012 0
M  V30 7513 C 735.164 -1.2449 5.98285 0
M  V30 7514 C 736.162 -0.710068 6.79299 0
M  V30 7515 O 735.85 -0.234314 8.03558 0
M  V30 7516 H 735.582 -0.340662 0.583888 0
M  V30 7517 H 738.136 -0.422452 2.01009 0
M  V30 7518 H 736.366 -2.92338 2.53131 0
M  V30 7519 H 738.055 -2.80559 2.93328 0
M  V30 7520 H 738.821 -1.08751 4.7265 0
M  V30 7521 H 734.7 -2.13351 4.08659 0
M  V30 7522 H 738.244 -0.238193 6.97193 0
M  V30 7523 H 734.141 -1.28969 6.32485 0
M  V30 7524 H 734.909 -0.353084 8.17738 0
M  V30 7525 N 737.572 -1.44907 -0.619662 0
M  V30 7526 C 738.82 -1.47999 -1.37625 0
M  V30 7527 C 739.141 -0.118295 -1.94641 0
M  V30 7528 O 738.411 0.85086 -1.76457 0
M  V30 7529 H 736.991 -0.544993 -0.510873 0
M  V30 7530 H 739.653 -1.80772 -0.728522 0
M  V30 7531 H 738.749 -2.21196 -2.20179 0
M  V30 7532 N 739.05 0.861098 -1.31996 0
M  V30 7533 C 739.997 1.96912 -1.20392 0
M  V30 7534 C 740.967 1.65869 -0.0875899 0
M  V30 7535 O 742.152 1.88992 -0.262011 0
M  V30 7536 C 739.292 3.32435 -0.926335 0
M  V30 7537 C 738.405 3.76018 -2.12684 0
M  V30 7538 C 737.54 5.00301 -1.78529 0
M  V30 7539 C 736.579 5.36357 -2.94937 0
M  V30 7540 N 735.716 6.51818 -2.60917 0
M  V30 7541 H 740.556 2.06169 -2.1517 0
M  V30 7542 H 738.093 1.00917 -1.07024 0
M  V30 7543 H 740.051 4.10478 -0.745917 0
M  V30 7544 H 738.681 3.22796 -0.0153578 0
M  V30 7545 H 737.733 2.93683 -2.41774 0
M  V30 7546 H 739.045 3.98664 -2.99781 0
M  V30 7547 H 738.199 5.86034 -1.57001 0
M  V30 7548 H 736.938 4.79578 -0.886356 0
M  V30 7549 H 735.943 4.49139 -3.17103 0
M  V30 7550 H 737.168 5.59041 -3.85552 0
M  V30 7551 H 735.114 6.32624 -1.73558 0
M  V30 7552 H 735.031 6.7445 -3.41544 0
M  V30 7553 H 736.299 7.4072 -2.42804 0
M  V30 7554 N 740.528 1.15101 1.07655 0
M  V30 7555 C 741.476 0.840714 2.16875 0
M  V30 7556 C 742.47 -0.184594 1.68391 0
M  V30 7557 O 743.676 -0.0399315 1.79956 0
M  V30 7558 H 740.051 0.254192 0.707736 0
M  V30 7559 H 742.022 1.76959 2.40266 0
M  V30 7560 C 740.771 0.343018 3.46004 0
M  V30 7561 H 740.094 1.12335 3.83694 0
M  V30 7562 H 741.534 0.16453 4.23681 0
M  V30 7563 C 739.993 -0.934881 3.23669 0
M  V30 7564 O 740.523 -2.00706 3.47965 0
M  V30 7565 N 738.729 -0.873167 2.77172 0
M  V30 7566 H 738.276 -0.000479072 2.576 0
M  V30 7567 H 738.234 -1.72873 2.62607 0
M  V30 7568 N 742.006 -1.2595 0.947325 0
M  V30 7569 C 742.953 -2.26159 0.460497 0
M  V30 7570 C 743.923 -1.58919 -0.483125 0
M  V30 7571 O 745.108 -1.86603 -0.397983 0
M  V30 7572 C 742.248 -3.441 -0.26247 0
M  V30 7573 C 741.361 -4.25999 0.717539 0
M  V30 7574 C 740.496 -5.31193 -0.0272486 0
M  V30 7575 C 739.535 -6.04774 0.944177 0
M  V30 7576 N 738.672 -7.01721 0.230741 0
M  V30 7577 H 743.512 -2.67173 1.31995 0
M  V30 7578 H 741.049 -1.31358 0.662088 0
M  V30 7579 H 743.007 -4.11317 -0.698137 0
M  V30 7580 H 741.637 -3.03983 -1.08602 0
M  V30 7581 H 740.689 -3.58513 1.27171 0
M  V30 7582 H 742.001 -4.76981 1.45913 0
M  V30 7583 H 741.155 -6.04451 -0.521903 0
M  V30 7584 H 739.894 -4.81066 -0.801682 0
M  V30 7585 H 738.899 -5.30338 1.4499 0
M  V30 7586 H 740.124 -6.56991 1.71872 0
M  V30 7587 H 738.07 -6.53895 -0.525088 0
M  V30 7588 H 737.987 -7.50484 0.911556 0
M  V30 7589 H 739.255 -7.79122 -0.242616 0
M  V30 7590 N 743.484 -0.715051 -1.40445 0
M  V30 7591 C 744.394 -0.0631624 -2.34515 0
M  V30 7592 C 745.41 0.744397 -1.57273 0
M  V30 7593 O 746.586 0.677475 -1.89663 0
M  V30 7594 C 743.651 0.847915 -3.36172 0
M  V30 7595 C 742.712 0.0303655 -4.29289 0
M  V30 7596 C 741.945 0.898051 -5.2609 0
M  V30 7597 O 742.168 2.13729 -5.28844 0
M  V30 7598 O 741.102 0.337328 -6.00954 0
M  V30 7599 H 744.928 -0.839078 -2.91879 0
M  V30 7600 H 742.513 -0.475527 -1.4163 0
M  V30 7601 H 744.395 1.3698 -3.98515 0
M  V30 7602 H 743.07 1.60299 -2.81222 0
M  V30 7603 H 741.977 -0.536573 -3.70232 0
M  V30 7604 H 743.31 -0.686474 -4.87389 0
M  V30 7605 N 744.962 1.50701 -0.461195 0
M  V30 7606 C 746.373 1.867 -0.00370227 0
M  V30 7607 C 746.724 1.37673 1.39787 0
M  V30 7608 O 745.849 0.737515 2.03445 0
M  V30 7609 C 746.444 3.388 5.75786e-05 0
M  V30 7610 C 745.003 3.74247 0.402044 0
M  V30 7611 C 744.15 2.74549 -0.389652 0
M  V30 7612 H 747.101 1.43585 -0.675942 0
M  V30 7613 H 747.122 3.719 0.804414 0
M  V30 7614 H 746.634 3.74452 -1.02015 0
M  V30 7615 H 744.735 3.44192 1.42697 0
M  V30 7616 H 744.848 4.78973 0.110265 0
M  V30 7617 H 743.212 2.54226 0.155314 0
M  V30 7618 H 743.995 3.13044 -1.40919 0
M  V30 7619 N 746.441 0.193421 1.56409 0
M  V30 7620 C 747.687 -0.446449 1.97825 0
M  V30 7621 C 748.02 -1.61386 1.08019 0
M  V30 7622 O 747.295 -1.94053 0.131839 0
M  V30 7623 C 747.578 -0.908199 3.48459 0
M  V30 7624 C 747.431 0.260914 4.49043 0
M  V30 7625 C 748.75 -1.77428 4.0275 0
M  V30 7626 H 745.869 -0.160807 0.719243 0
M  V30 7627 H 748.511 0.284006 1.87865 0
M  V30 7628 H 746.661 -1.53062 3.57077 0
M  V30 7629 H 748.333 0.898548 4.52464 0
M  V30 7630 H 746.576 0.912949 4.24085 0
M  V30 7631 H 747.247 -0.104657 5.51901 0
M  V30 7632 H 749.723 -1.24936 3.96901 0
M  V30 7633 H 748.599 -2.06633 5.08521 0
M  V30 7634 H 748.86 -2.72788 3.47907 0
M  V30 7635 N 747.919 -1.57396 -0.0801906 0
M  V30 7636 C 749.335 -1.53564 -0.434778 0
M  V30 7637 C 749.535 -0.912372 -1.79661 0
M  V30 7638 O 748.591 -0.511268 -2.4727 0
M  V30 7639 C 749.904 -2.98244 -0.383561 0
M  V30 7640 C 751.452 -3.09536 -0.46435 0
M  V30 7641 C 751.927 -4.55851 -0.443128 0
M  V30 7642 N 753.418 -4.60456 -0.503448 0
M  V30 7643 C 754.153 -5.71135 -0.509106 0
M  V30 7644 N 753.649 -6.91203 -0.47008 0
M  V30 7645 N 755.442 -5.59353 -0.555035 0
M  V30 7646 H 747.593 -1.96281 0.811635 0
M  V30 7647 H 749.856 -0.898041 0.303689 0
M  V30 7648 H 749.562 -3.47369 0.550236 0
M  V30 7649 H 749.436 -3.57705 -1.19694 0
M  V30 7650 H 751.823 -2.6039 -1.38857 0
M  V30 7651 H 751.904 -2.53 0.377445 0
M  V30 7652 H 751.548 -5.05653 0.477207 0
M  V30 7653 H 751.478 -5.10242 -1.30234 0
M  V30 7654 H 753.969 -3.74048 -0.538199 0
M  V30 7655 H 754.282 -7.7132 -0.478091 0
M  V30 7656 H 752.627 -6.93625 -0.436897 0
M  V30 7657 H 755.818 -4.64453 -0.583158 0
M  V30 7658 H 755.991 -6.4561 -0.555976 0
M  V30 7659 N 749.397 0.351382 -1.53633 0
M  V30 7660 C 750.645 1.09034 -1.70165 0
M  V30 7661 C 750.966 1.89413 -0.463422 0
M  V30 7662 O 750.236 1.888 0.522624 0
M  V30 7663 H 748.816 0.405522 -0.627344 0
M  V30 7664 H 751.478 0.394554 -1.90865 0
M  V30 7665 H 750.574 1.77215 -2.56907 0
M  V30 7666 N 750.875 1.45233 0.611969 0
M  V30 7667 C 752.105 1.52318 1.39581 0
M  V30 7668 C 752.513 0.153093 1.8858 0
M  V30 7669 O 751.856 -0.854792 1.62601 0
M  V30 7670 C 751.918 2.4426 2.63775 0
M  V30 7671 C 751.582 3.91079 2.36445 0
M  V30 7672 C 752.579 4.81099 1.97079 0
M  V30 7673 C 750.264 4.35958 2.49492 0
M  V30 7674 C 752.258 6.14002 1.71115 0
M  V30 7675 C 749.945 5.68903 2.23142 0
M  V30 7676 C 750.943 6.57744 1.84015 0
M  V30 7677 O 750.631 7.88226 1.5797 0
M  V30 7678 H 750.363 0.518428 0.43383 0
M  V30 7679 H 752.917 1.91067 0.753837 0
M  V30 7680 H 751.147 2.00474 3.30677 0
M  V30 7681 H 752.836 2.42077 3.25812 0
M  V30 7682 H 753.602 4.47692 1.86539 0
M  V30 7683 H 749.481 3.67053 2.78914 0
M  V30 7684 H 753.025 6.83305 1.405 0
M  V30 7685 H 748.922 6.01866 2.33297 0
M  V30 7686 H 749.69 8.00211 1.72058 0
M  V30 7687 N 752.353 -0.854086 1.3245 0
M  V30 7688 C 753.283 -1.97827 1.24044 0
M  V30 7689 C 754.264 -1.69646 0.124166 0
M  V30 7690 O 755.449 -1.91687 0.31143 0
M  V30 7691 C 752.579 -3.33673 0.963324 0
M  V30 7692 C 751.533 -3.76207 2.04089 0
M  V30 7693 C 750.859 -5.0969 1.61618 0
M  V30 7694 C 752.159 -3.91612 3.45597 0
M  V30 7695 H 753.853 -2.05118 2.18099 0
M  V30 7696 H 751.399 -0.985489 1.04996 0
M  V30 7697 H 753.352 -4.11871 0.891061 0
M  V30 7698 H 752.076 -3.26597 -0.0128649 0
M  V30 7699 H 750.735 -3.0026 2.10332 0
M  V30 7700 H 750.383 -4.99072 0.627418 0
M  V30 7701 H 750.083 -5.3912 2.33717 0
M  V30 7702 H 751.607 -5.90381 1.55829 0
M  V30 7703 H 753.021 -4.60163 3.4194 0
M  V30 7704 H 751.418 -4.3246 4.16051 0
M  V30 7705 H 752.488 -2.9451 3.85217 0
M  V30 7706 N 753.831 -1.1567 -1.07043 0
M  V30 7707 C 754.761 -0.879348 -2.16309 0
M  V30 7708 C 755.742 0.171311 -1.69235 0
M  V30 7709 O 756.927 0.0250175 -1.94184 0
M  V30 7710 C 754.057 -0.371307 -3.45309 0
M  V30 7711 C 753.011 -1.359 -4.05851 0
M  V30 7712 C 752.337 -0.709678 -5.29969 0
M  V30 7713 C 753.637 -2.72606 -4.45514 0
M  V30 7714 H 755.331 -1.79308 -2.39768 0
M  V30 7715 H 752.877 -0.863558 -1.15233 0
M  V30 7716 H 754.83 -0.164798 -4.21078 0
M  V30 7717 H 753.554 0.577906 -3.21446 0
M  V30 7718 H 752.213 -1.55193 -3.32131 0
M  V30 7719 H 751.861 0.245782 -5.02399 0
M  V30 7720 H 751.561 -1.36886 -5.71433 0
M  V30 7721 H 753.085 -0.513015 -6.08441 0
M  V30 7722 H 754.499 -2.57141 -5.12398 0
M  V30 7723 H 752.896 -3.34927 -4.97939 0
M  V30 7724 H 753.966 -3.28434 -3.56734 0
M  V30 7725 N 755.309 1.25446 -0.953992 0
M  V30 7726 C 756.272 2.24156 -0.478179 0
M  V30 7727 C 757.272 1.55278 0.417776 0
M  V30 7728 O 758.462 1.72866 0.215155 0
M  V30 7729 C 755.594 3.39495 0.309202 0
M  V30 7730 H 756.787 2.67764 -1.35064 0
M  V30 7731 H 754.34 1.37822 -0.737206 0
M  V30 7732 H 755.075 3.01307 1.19936 0
M  V30 7733 H 754.86 3.90679 -0.333562 0
M  V30 7734 H 756.35 4.12796 0.631594 0
M  V30 7735 N 756.787 0.722489 1.40064 0
M  V30 7736 C 758.017 0.274439 2.04769 0
M  V30 7737 C 758.425 -1.09125 1.54559 0
M  V30 7738 O 757.768 -1.69834 0.700149 0
M  V30 7739 C 757.83 0.184091 3.59028 0
M  V30 7740 C 757.494 1.48619 4.32159 0
M  V30 7741 C 758.491 2.42947 4.59644 0
M  V30 7742 C 756.176 1.74703 4.7094 0
M  V30 7743 C 758.17 3.616 5.24904 0
M  V30 7744 C 755.857 2.93636 5.3593 0
M  V30 7745 C 756.855 3.86907 5.62843 0
M  V30 7746 O 756.543 5.03753 6.26489 0
M  V30 7747 H 756.275 0.119847 0.665292 0
M  V30 7748 H 758.829 0.983352 1.80331 0
M  V30 7749 H 757.059 -0.580821 3.82313 0
M  V30 7750 H 758.748 -0.230306 4.05246 0
M  V30 7751 H 759.514 2.24062 4.30141 0
M  V30 7752 H 755.393 1.02955 4.49356 0
M  V30 7753 H 758.937 4.34418 5.45827 0
M  V30 7754 H 754.834 3.12428 5.64853 0
M  V30 7755 H 755.602 5.03922 6.44984 0
M  V30 7756 N 758.265 -1.50454 0.469181 0
M  V30 7757 C 759.228 -2.2703 -0.314643 0
M  V30 7758 C 760.228 -1.31734 -0.922111 0
M  V30 7759 O 761.418 -1.55176 -0.791588 0
M  V30 7760 C 758.55 -3.08616 -1.44806 0
M  V30 7761 H 759.743 -2.97769 0.356892 0
M  V30 7762 H 757.296 -1.54698 0.223191 0
M  V30 7763 H 758.031 -2.42369 -2.1547 0
M  V30 7764 H 757.816 -3.78647 -1.01829 0
M  V30 7765 H 759.306 -3.66536 -2.00103 0
M  V30 7766 N 759.743 -0.201713 -1.56304 0
M  V30 7767 C 760.992 0.435557 -1.96941 0
M  V30 7768 C 761.305 1.62299 -1.09172 0
M  V30 7769 O 762.511 2.32849 -1.3962 0
M  V30 7770 C 760.967 0.826298 -3.50286 0
M  V30 7771 C 760.575 -0.337216 -4.46729 0
M  V30 7772 C 762.319 1.43028 -3.99679 0
M  V30 7773 C 760.226 0.0748539 -5.91353 0
M  V30 7774 H 759.156 0.1665 -0.735387 0
M  V30 7775 H 761.807 -0.294781 -1.81117 0
M  V30 7776 H 760.189 1.61349 -3.61639 0
M  V30 7777 H 761.363 -1.11476 -4.47113 0
M  V30 7778 H 759.678 -0.853126 -4.07567 0
M  V30 7779 H 762.275 1.75115 -5.05212 0
M  V30 7780 H 762.618 2.33911 -3.44371 0
M  V30 7781 H 763.151 0.706924 -3.91468 0
M  V30 7782 H 759.89 -0.799957 -6.506 0
M  V30 7783 H 759.41 0.817122 -5.94208 0
M  V30 7784 H 761.089 0.508389 -6.45 0
M  V30 7785 N 761.222 1.57436 0.0718424 0
M  V30 7786 C 762.185 2.02703 1.06977 0
M  V30 7787 C 763.185 0.924062 1.31597 0
M  V30 7788 O 764.375 1.18894 1.27318 0
M  V30 7789 C 761.507 2.40763 2.41342 0
M  V30 7790 H 762.7 2.92098 0.679619 0
M  V30 7791 H 760.253 1.5304 0.317565 0
M  V30 7792 H 760.988 1.54394 2.8519 0
M  V30 7793 H 760.773 3.21249 2.24814 0
M  V30 7794 H 762.263 2.76361 3.13073 0
M  V30 7795 N 762.7 -0.34323 1.53817 0
M  V30 7796 C 763.946 -1.08504 1.71332 0
M  V30 7797 C 764.279 -1.88294 0.475285 0
M  V30 7798 O 763.554 -1.87205 -0.527688 0
M  V30 7799 C 763.837 -2.02597 2.97702 0
M  V30 7800 C 763.69 -1.26268 4.31713 0
M  V30 7801 C 765.009 -3.0241 3.19744 0
M  V30 7802 H 762.128 -0.393072 0.623429 0
M  V30 7803 H 764.77 -0.363579 1.86489 0
M  V30 7804 H 762.92 -2.64118 2.8491 0
M  V30 7805 H 764.592 -0.673594 4.56356 0
M  V30 7806 H 762.835 -0.564696 4.30109 0
M  V30 7807 H 763.506 -1.95253 5.16314 0
M  V30 7808 H 765.982 -2.51004 3.31868 0
M  V30 7809 H 764.858 -3.65449 4.09558 0
M  V30 7810 H 765.119 -3.73806 2.36054 0
M  V30 7811 N 764.178 -1.45556 -0.604258 0
M  V30 7812 C 765.141 -1.54091 -1.69672 0
M  V30 7813 C 766.141 -0.420076 -1.55216 0
M  V30 7814 O 767.331 -0.683671 -1.60224 0
M  V30 7815 C 764.463 -1.44063 -3.08964 0
M  V30 7816 H 765.656 -2.51431 -1.6347 0
M  V30 7817 H 763.209 -1.33046 -0.820273 0
M  V30 7818 H 763.944 -0.479201 -3.2074 0
M  V30 7819 H 763.729 -2.25362 -3.20865 0
M  V30 7820 H 765.219 -1.53075 -3.88533 0
M  V30 7821 N 765.656 0.84705 -1.32902 0
M  V30 7822 C 766.903 1.60176 -1.23894 0
M  V30 7823 C 767.231 1.93496 0.197341 0
M  V30 7824 O 766.486 1.58173 1.15238 0
M  V30 7825 C 766.785 2.92663 -2.05142 0
M  V30 7826 C 766.451 2.7874 -3.54422 0
M  V30 7827 C 765.113 2.7465 -3.95121 0
M  V30 7828 C 767.465 2.64128 -4.49317 0
M  V30 7829 C 764.793 2.53837 -5.28946 0
M  V30 7830 C 767.145 2.44849 -5.83294 0
M  V30 7831 C 765.809 2.39156 -6.23186 0
M  V30 7832 H 765.079 0.586127 -0.453361 0
M  V30 7833 H 767.726 0.981994 -1.64405 0
M  V30 7834 H 766.031 3.588 -1.57383 0
M  V30 7835 H 767.728 3.50095 -1.95537 0
M  V30 7836 H 764.318 2.82751 -3.22102 0
M  V30 7837 H 768.502 2.66327 -4.18788 0
M  V30 7838 H 763.758 2.4787 -5.58901 0
M  V30 7839 H 767.932 2.32524 -6.56434 0
M  V30 7840 H 765.559 2.22789 -7.26821 0
M  V30 7841 N 767.134 1.16236 1.06428 0
M  V30 7842 C 768.383 0.937523 1.78587 0
M  V30 7843 C 768.696 -0.536 1.88113 0
M  V30 7844 O 769.902 -0.878697 2.56887 0
M  V30 7845 C 768.358 1.62808 3.2097 0
M  V30 7846 C 767.966 3.13927 3.19615 0
M  V30 7847 C 769.71 1.48515 3.97673 0
M  V30 7848 C 767.617 3.75727 4.56709 0
M  V30 7849 H 766.547 0.347125 0.669343 0
M  V30 7850 H 769.198 1.39353 1.19385 0
M  V30 7851 H 767.58 1.09977 3.80422 0
M  V30 7852 H 768.754 3.7359 2.69753 0
M  V30 7853 H 767.069 3.28089 2.56411 0
M  V30 7854 H 769.666 1.92069 4.99013 0
M  V30 7855 H 770.009 0.433913 4.14032 0
M  V30 7856 H 770.542 1.98494 3.44739 0
M  V30 7857 H 767.281 4.80793 4.45554 0
M  V30 7858 H 766.801 3.20849 5.0677 0
M  V30 7859 H 768.48 3.77203 5.25668 0
M  V30 7860 N 768.612 -1.24939 0.960631 0
M  V30 7861 C 769.861 -1.92118 0.614298 0
M  V30 7862 C 770.174 -1.75998 -0.853474 0
M  V30 7863 O 771.38 -2.37804 -1.31003 0
M  V30 7864 C 769.836 -3.44303 1.04801 0
M  V30 7865 C 769.444 -3.69123 2.53875 0
M  V30 7866 C 771.188 -4.17375 0.774497 0
M  V30 7867 C 769.095 -5.14843 2.91016 0
M  V30 7868 H 768.025 -0.719319 0.226045 0
M  V30 7869 H 770.676 -1.41701 1.16589 0
M  V30 7870 H 769.058 -3.93715 0.42479 0
M  V30 7871 H 770.232 -3.30339 3.21267 0
M  V30 7872 H 768.547 -3.09323 2.78762 0
M  V30 7873 H 771.144 -5.24723 1.02808 0
M  V30 7874 H 771.487 -4.15294 -0.289192 0
M  V30 7875 H 772.02 -3.7389 1.35835 0
M  V30 7876 H 768.759 -5.2204 3.96427 0
M  V30 7877 H 768.279 -5.54652 2.28302 0
M  V30 7878 H 769.958 -5.83017 2.80535 0
M  V30 7879 N 770.09 -0.729906 -1.39679 0
M  V30 7880 C 771.339 -0.272534 -1.9985 0
M  V30 7881 C 771.652 1.14519 -1.58571 0
M  V30 7882 O 772.858 1.70182 -2.11543 0
M  V30 7883 C 771.314 -0.436322 -3.57245 0
M  V30 7884 C 770.922 -1.86161 -4.0749 0
M  V30 7885 C 772.666 -0.0404679 -4.24481 0
M  V30 7886 C 770.573 -1.97522 -5.5744 0
M  V30 7887 H 769.503 -0.0981428 -0.747585 0
M  V30 7888 H 772.154 -0.903056 -1.59741 0
M  V30 7889 H 770.536 0.263015 -3.95126 0
M  V30 7890 H 771.71 -2.59248 -3.80955 0
M  V30 7891 H 770.025 -2.21021 -3.529 0
M  V30 7892 H 772.622 -0.104437 -5.34598 0
M  V30 7893 H 772.965 1.00357 -4.04023 0
M  V30 7894 H 773.498 -0.690774 -3.91757 0
M  V30 7895 H 770.237 -3.00096 -5.82771 0
M  V30 7896 H 769.757 -1.28864 -5.85794 0
M  V30 7897 H 771.436 -1.754 -6.22771 0
M  V30 7898 N 771.568 1.50203 -0.477153 0
M  V30 7899 C 772.531 2.27194 0.302599 0
M  V30 7900 C 773.531 1.32221 0.915112 0
M  V30 7901 O 774.721 1.55593 0.783348 0
M  V30 7902 C 771.853 3.0938 1.43167 0
M  V30 7903 H 773.046 2.97575 -0.372678 0
M  V30 7904 H 770.599 1.54578 -0.231392 0
M  V30 7905 H 771.334 2.43509 2.14182 0
M  V30 7906 H 771.119 3.79181 0.998197 0
M  V30 7907 H 772.609 3.67592 1.98157 0
M  V30 7908 N 773.046 0.209999 1.56195 0
M  V30 7909 C 773.956 -0.716459 2.23392 0
M  V30 7910 C 774.972 -1.22291 1.23778 0
M  V30 7911 O 776.148 -1.26694 1.56558 0
M  V30 7912 C 773.213 -1.91261 2.89172 0
M  V30 7913 C 772.274 -1.44927 4.04097 0
M  V30 7914 C 771.507 -2.5884 4.66731 0
M  V30 7915 O 771.73 -3.76693 4.2832 0
M  V30 7916 O 770.664 -2.30701 5.55932 0
M  V30 7917 H 774.49 -0.174089 3.03201 0
M  V30 7918 H 772.075 -0.0199505 1.49387 0
M  V30 7919 H 773.957 -2.6114 3.30733 0
M  V30 7920 H 772.632 -2.4433 2.12331 0
M  V30 7921 H 771.539 -0.718839 3.67129 0
M  V30 7922 H 772.872 -0.965084 4.82646 0
M  V30 7923 N 774.524 -1.57472 -0.0634922 0
M  V30 7924 C 775.454 -2.07297 -1.07473 0
M  V30 7925 C 776.435 -0.968162 -1.39859 0
M  V30 7926 O 777.62 -1.24139 -1.49343 0
M  V30 7927 C 774.75 -2.52381 -2.38581 0
M  V30 7928 C 773.704 -3.66813 -2.20526 0
M  V30 7929 C 773.03 -3.97982 -3.57092 0
M  V30 7930 C 774.33 -4.96553 -1.61965 0
M  V30 7931 H 776.024 -2.92033 -0.660092 0
M  V30 7932 H 773.57 -1.40488 -0.316074 0
M  V30 7933 H 775.523 -2.85852 -3.09624 0
M  V30 7934 H 774.247 -1.64684 -2.8204 0
M  V30 7935 H 772.906 -3.33639 -1.51924 0
M  V30 7936 H 772.554 -3.07403 -3.98136 0
M  V30 7937 H 772.254 -4.7504 -3.45848 0
M  V30 7938 H 773.778 -4.33956 -4.29552 0
M  V30 7939 H 775.192 -5.28201 -2.22883 0
M  V30 7940 H 773.589 -5.7799 -1.61394 0
M  V30 7941 H 774.659 -4.81396 -0.581918 0
M  V30 7942 N 776.003 0.335068 -1.53997 0
M  V30 7943 C 776.951 1.43206 -1.83289 0
M  V30 7944 C 777.945 1.54081 -0.703953 0
M  V30 7945 O 779.151 1.56603 -0.887432 0
M  V30 7946 H 775.526 0.477655 -0.580818 0
M  V30 7947 H 777.497 1.15719 -2.75049 0
M  V30 7948 C 776.246 2.79602 -2.06683 0
M  V30 7949 H 775.569 2.72004 -2.93008 0
M  V30 7950 H 777.009 3.55459 -2.31139 0
M  V30 7951 C 775.468 3.25873 -0.854883 0
M  V30 7952 O 775.998 4.01657 -0.0584648 0
M  V30 7953 N 774.204 2.82777 -0.669729 0
M  V30 7954 H 773.751 2.21269 -1.31901 0
M  V30 7955 H 773.709 3.1409 0.13969 0
M  V30 7956 N 777.481 1.45874 0.596531 0
M  V30 7957 C 778.709 1.54013 1.38158 0
M  V30 7958 C 779.124 0.17648 1.87973 0
M  V30 7959 O 778.481 -0.823895 1.62844 0
M  V30 7960 C 778.532 2.53363 2.57855 0
M  V30 7961 O 778.253 3.8443 2.10108 0
M  V30 7962 C 779.754 2.71308 3.50581 0
M  V30 7963 H 776.974 0.521251 0.422538 0
M  V30 7964 H 779.518 1.9116 0.726493 0
M  V30 7965 H 777.673 2.19257 3.19382 0
M  V30 7966 H 778.087 4.38384 2.87958 0
M  V30 7967 H 779.561 3.44776 4.31084 0
M  V30 7968 H 780.038 1.77728 4.01633 0
M  V30 7969 H 780.644 3.06455 2.94899 0
M  V30 7970 N 778.959 -0.83999 1.33349 0
M  V30 7971 C 780.208 -1.59011 1.2409 0
M  V30 7972 C 780.521 -1.94655 -0.192029 0
M  V30 7973 O 781.727 -2.68438 -0.406617 0
M  V30 7974 C 780.183 -2.86801 2.17425 0
M  V30 7975 C 779.791 -2.58525 3.65881 0
M  V30 7976 C 781.535 -3.64823 2.17036 0
M  V30 7977 C 779.442 -3.82404 4.51133 0
M  V30 7978 H 778.372 -0.596731 0.460899 0
M  V30 7979 H 781.023 -0.926274 1.58406 0
M  V30 7980 H 779.405 -3.54719 1.7604 0
M  V30 7981 H 780.579 -1.98824 4.15699 0
M  V30 7982 H 778.894 -1.93808 3.68548 0
M  V30 7983 H 781.491 -4.56774 2.7796 0
M  V30 7984 H 781.834 -3.99663 1.16513 0
M  V30 7985 H 782.367 -3.03826 2.56777 0
M  V30 7986 H 779.106 -3.52696 5.52527 0
M  V30 7987 H 778.626 -4.41447 4.0606 0
M  V30 7988 H 780.305 -4.49995 4.6488 0
M  V30 7989 N 780.437 -1.16799 -1.0581 0
M  V30 7990 C 781.4 -0.881396 -2.11575 0
M  V30 7991 C 782.4 0.12574 -1.60308 0
M  V30 7992 O 783.59 -0.105716 -1.73879 0
M  V30 7993 C 780.722 -0.319037 -3.39404 0
M  V30 7994 H 781.915 -1.81907 -2.38432 0
M  V30 7995 H 779.468 -0.977597 -1.21954 0
M  V30 7996 H 780.203 0.626082 -3.18199 0
M  V30 7997 H 779.988 -1.04481 -3.77923 0
M  V30 7998 H 781.478 -0.13663 -4.17376 0
M  V30 7999 N 781.915 1.24427 -0.967243 0
M  V30 8000 C 783.326 1.74349 -0.667785 0
M  V30 8001 C 783.677 1.78403 0.816509 0
M  V30 8002 O 782.802 1.41315 1.63887 0
M  V30 8003 C 783.397 3.16628 -1.20548 0
M  V30 8004 C 781.956 3.64059 -0.955934 0
M  V30 8005 C 781.103 2.42715 -1.34106 0
M  V30 8006 H 784.054 1.10136 -1.14262 0
M  V30 8007 H 784.075 3.76183 -0.571547 0
M  V30 8008 H 783.587 3.13646 -2.28578 0
M  V30 8009 H 781.688 3.72441 0.108858 0
M  V30 8010 H 781.801 4.51549 -1.60126 0
M  V30 8011 H 780.165 2.43114 -0.759452 0
M  V30 8012 H 780.948 2.42414 -2.43085 0
M  V30 8013 N 783.393 0.737304 1.3929 0
M  V30 8014 C 784.642 0.283129 1.99703 0
M  V30 8015 C 784.955 -1.13677 1.59176 0
M  V30 8016 O 786.161 -1.69058 2.12442 0
M  V30 8017 C 784.617 0.455262 3.57009 0
M  V30 8018 C 784.225 1.88319 4.06497 0
M  V30 8019 C 785.969 0.0629786 4.24453 0
M  V30 8020 C 783.876 2.00475 5.56385 0
M  V30 8021 H 782.806 0.102106 0.747054 0
M  V30 8022 H 785.457 0.911515 1.5926 0
M  V30 8023 H 783.839 -0.242057 3.9526 0
M  V30 8024 H 785.013 2.61265 3.79575 0
M  V30 8025 H 783.328 2.2289 3.51723 0
M  V30 8026 H 785.925 0.132787 5.34535 0
M  V30 8027 H 786.268 -0.982128 4.04549 0
M  V30 8028 H 786.801 0.71154 3.91385 0
M  V30 8029 H 783.54 3.03182 5.81172 0
M  V30 8030 H 783.06 1.31969 5.85102 0
M  V30 8031 H 784.739 1.787 6.21832 0
M  V30 8032 N 784.871 -1.49948 0.485112 0
M  V30 8033 C 786.12 -2.01589 -0.066765 0
M  V30 8034 C 786.433 -1.371 -1.39509 0
M  V30 8035 O 787.639 -1.79978 -2.03274 0
M  V30 8036 C 786.095 -3.59501 -0.169476 0
M  V30 8037 C 785.703 -4.32955 1.15126 0
M  V30 8038 C 787.447 -4.19138 -0.672564 0
M  V30 8039 C 785.354 -5.82684 1.01158 0
M  V30 8040 H 784.284 -0.753453 -0.0287259 0
M  V30 8041 H 786.935 -1.72632 0.622132 0
M  V30 8042 H 785.317 -3.85106 -0.922471 0
M  V30 8043 H 786.491 -4.19064 1.9163 0
M  V30 8044 H 784.806 -3.84991 1.58654 0
M  V30 8045 H 787.403 -5.28767 -0.794325 0
M  V30 8046 H 787.746 -3.81447 -1.66745 0
M  V30 8047 H 788.279 -3.97793 0.0234415 0
M  V30 8048 H 785.018 -6.24873 1.98025 0
M  V30 8049 H 784.538 -5.99112 0.287151 0
M  V30 8050 H 786.217 -6.43376 0.683847 0
M  V30 8051 N 786.349 -0.21828 -1.56081 0
M  V30 8052 C 787.574 0.422302 -2.03055 0
M  V30 8053 C 787.999 1.5279 -1.09713 0
M  V30 8054 O 787.357 1.81102 -0.0847187 0
M  V30 8055 C 787.405 0.934177 -3.48289 0
M  V30 8056 O 786.509 2.04574 -3.58083 0
M  V30 8057 H 785.85 0.0959764 -0.657027 0
M  V30 8058 H 788.38 -0.335958 -2.01823 0
M  V30 8059 H 788.39 1.24484 -3.88546 0
M  V30 8060 H 787.065 0.124963 -4.15712 0
M  V30 8061 H 785.642 1.74196 -3.29712 0
M  V30 8062 N 787.827 1.57504 0.0551401 0
M  V30 8063 C 788.775 2.05884 1.08233 0
M  V30 8064 C 789.769 0.967383 1.39061 0
M  V30 8065 O 790.975 1.15242 1.38273 0
M  V30 8066 H 787.35 0.656673 0.366449 0
M  V30 8067 H 789.321 2.91273 0.648269 0
M  V30 8068 C 788.07 2.53221 2.38273 0
M  V30 8069 H 787.393 3.36809 2.15406 0
M  V30 8070 H 788.833 2.9081 3.08554 0
M  V30 8071 C 787.292 1.42218 3.05411 0
M  V30 8072 O 787.822 0.773638 3.9418 0
M  V30 8073 N 786.028 1.16316 2.66306 0
M  V30 8074 H 785.575 1.69237 1.94207 0
M  V30 8075 H 785.533 0.422534 3.11548 0
M  V30 8076 N 789.305 -0.326896 1.54172 0
M  V30 8077 C 790.552 -1.06523 1.72218 0
M  V30 8078 C 790.88 -1.88119 0.494114 0
M  V30 8079 O 790.135 -1.8855 -0.524147 0
M  V30 8080 C 790.434 -2.0208 2.94785 0
M  V30 8081 C 790.1 -1.36665 4.2969 0
M  V30 8082 C 788.762 -1.18556 4.66367 0
M  V30 8083 C 791.114 -0.896868 5.13425 0
M  V30 8084 C 788.442 -0.521113 5.84381 0
M  V30 8085 C 790.794 -0.246261 6.3212 0
M  V30 8086 C 789.458 -0.052987 6.67479 0
M  V30 8087 H 788.728 -0.389796 0.63019 0
M  V30 8088 H 791.375 -0.342725 1.88408 0
M  V30 8089 H 789.68 -2.8077 2.73268 0
M  V30 8090 H 791.377 -2.59231 3.05941 0
M  V30 8091 H 787.967 -1.51762 4.00832 0
M  V30 8092 H 792.151 -1.02458 4.85609 0
M  V30 8093 H 787.407 -0.36014 6.10338 0
M  V30 8094 H 791.581 0.125775 6.96286 0
M  V30 8095 H 789.208 0.463903 7.58783 0
M  V30 8096 N 790.784 -1.46188 -0.588786 0
M  V30 8097 C 792.031 -1.51184 -1.34721 0
M  V30 8098 C 792.359 -0.161084 -1.93832 0
M  V30 8099 O 791.614 0.842557 -1.76634 0
M  V30 8100 C 791.913 -2.55364 -2.50048 0
M  V30 8101 C 791.579 -3.99553 -2.08969 0
M  V30 8102 C 790.241 -4.38811 -1.9748 0
M  V30 8103 C 792.593 -4.90156 -1.77191 0
M  V30 8104 C 789.921 -5.66544 -1.52463 0
M  V30 8105 C 792.273 -6.1832 -1.33654 0
M  V30 8106 C 790.937 -6.5649 -1.20738 0
M  V30 8107 H 790.207 -0.55322 -0.49298 0
M  V30 8108 H 792.854 -1.79634 -0.663627 0
M  V30 8109 H 791.159 -2.20552 -3.23827 0
M  V30 8110 H 792.856 -2.5646 -3.08268 0
M  V30 8111 H 789.446 -3.68518 -2.18843 0
M  V30 8112 H 793.63 -4.60549 -1.84955 0
M  V30 8113 H 788.886 -5.94895 -1.411 0
M  V30 8114 H 793.06 -6.87956 -1.08117 0
M  V30 8115 H 790.687 -7.55362 -0.856307 0
M  V30 8116 N 792.262 0.832906 -1.33792 0
M  V30 8117 C 793.192 1.95828 -1.27176 0
M  V30 8118 C 794.173 1.69427 -0.15114 0
M  V30 8119 O 795.358 1.91167 -0.341886 0
M  V30 8120 C 792.488 3.32098 -1.01629 0
M  V30 8121 C 791.442 3.72912 -2.10049 0
M  V30 8122 C 790.768 5.07054 -1.69706 0
M  V30 8123 C 792.068 3.86064 -3.51783 0
M  V30 8124 H 793.762 2.01622 -2.21334 0
M  V30 8125 H 791.308 0.96866 -1.0655 0
M  V30 8126 H 793.261 4.10402 -0.956474 0
M  V30 8127 H 791.985 3.26577 -0.0390956 0
M  V30 8128 H 790.644 2.96876 -2.15082 0
M  V30 8129 H 790.292 4.9801 -0.706737 0
M  V30 8130 H 789.992 5.35333 -2.42264 0
M  V30 8131 H 791.516 5.87827 -1.65202 0
M  V30 8132 H 792.93 4.54665 -3.49218 0
M  V30 8133 H 791.327 4.25787 -4.22878 0
M  V30 8134 H 792.397 2.88344 -3.89854 0
M  V30 8135 N 793.74 1.17359 1.05189 0
M  V30 8136 C 794.98 0.972812 1.79766 0
M  V30 8137 C 795.344 -0.489832 1.85647 0
M  V30 8138 O 796.545 -0.809682 2.56315 0
M  V30 8139 C 794.816 1.59636 3.19767 0
M  V30 8140 S 796.375 1.54178 4.10822 0
M  V30 8141 H 793.193 0.34959 0.619119 0
M  V30 8142 H 795.795 1.49304 1.26209 0
M  V30 8143 H 794.499 2.65336 3.13089 0
M  V30 8144 H 794.03 1.07594 3.78401 0
M  V30 8145 H 796.045 0.549785 4.93145 0
M  V30 8146 N 795.218 -1.23913 0.973828 0
M  V30 8147 C 796.443 -1.96735 0.656511 0
M  V30 8148 C 796.868 -1.71682 -0.768571 0
M  V30 8149 O 796.226 -0.984267 -1.52256 0
M  V30 8150 C 796.274 -3.48004 0.944735 0
M  V30 8151 O 795.378 -4.12387 0.0333357 0
M  V30 8152 H 794.719 -0.616119 0.247575 0
M  V30 8153 H 797.249 -1.57525 1.30564 0
M  V30 8154 H 797.259 -3.98424 0.87876 0
M  V30 8155 H 795.934 -3.65567 1.98328 0
M  V30 8156 H 794.511 -3.72585 0.153157 0
M  V30 8157 N 796.696 -0.74468 -1.38897 0
M  V30 8158 C 797.926 -0.306982 -2.04307 0
M  V30 8159 C 798.334 1.06652 -1.56275 0
M  V30 8160 O 797.677 1.68699 -0.72708 0
M  V30 8161 C 797.739 -0.241186 -3.5869 0
M  V30 8162 C 797.403 -1.55476 -4.2974 0
M  V30 8163 C 798.4 -2.50229 -4.55721 0
M  V30 8164 C 796.085 -1.82173 -4.68101 0
M  V30 8165 C 798.079 -3.69905 -5.19085 0
M  V30 8166 C 795.766 -3.02125 -5.31191 0
M  V30 8167 C 796.764 -3.95812 -5.56616 0
M  V30 8168 O 796.452 -5.13656 -6.18395 0
M  V30 8169 H 796.184 -0.130416 -0.663301 0
M  V30 8170 H 798.738 -1.01192 -1.78744 0
M  V30 8171 H 796.968 0.519925 -3.83189 0
M  V30 8172 H 798.657 0.165806 -4.05561 0
M  V30 8173 H 799.423 -2.30877 -4.26522 0
M  V30 8174 H 795.302 -1.10091 -4.47662 0
M  V30 8175 H 798.846 -4.43047 -5.38846 0
M  V30 8176 H 794.743 -3.21374 -5.59811 0
M  V30 8177 H 795.511 -5.14119 -6.36886 0
M  V30 8178 N 798.174 1.49689 -0.493057 0
M  V30 8179 C 799.137 2.27502 0.278485 0
M  V30 8180 C 800.137 1.33184 0.901037 0
M  V30 8181 O 801.327 1.56415 0.766801 0
M  V30 8182 C 798.459 3.10881 1.39878 0
M  V30 8183 H 799.652 2.97163 -0.404219 0
M  V30 8184 H 797.205 1.54324 -0.247774 0
M  V30 8185 H 797.94 2.45767 2.11587 0
M  V30 8186 H 797.725 3.80219 0.957924 0
M  V30 8187 H 799.215 3.69673 1.94247 0
M  V30 8188 N 799.652 0.226554 1.55963 0
M  V30 8189 C 800.582 -0.676079 2.23498 0
M  V30 8190 C 801.563 -1.19718 1.20837 0
M  V30 8191 O 802.748 -1.24027 1.49436 0
M  V30 8192 C 799.878 -1.88217 2.91876 0
M  V30 8193 C 798.832 -1.4947 4.01052 0
M  V30 8194 C 798.158 -2.77997 4.56751 0
M  V30 8195 C 799.458 -0.680951 5.17842 0
M  V30 8196 H 801.152 -0.112989 2.99187 0
M  V30 8197 H 798.698 -0.0529046 1.43903 0
M  V30 8198 H 800.651 -2.51911 3.37815 0
M  V30 8199 H 799.375 -2.47031 2.13643 0
M  V30 8200 H 798.034 -0.881199 3.55852 0
M  V30 8201 H 797.682 -3.34966 3.75243 0
M  V30 8202 H 797.382 -2.52803 5.30438 0
M  V30 8203 H 798.906 -3.42625 5.05411 0
M  V30 8204 H 800.32 -1.22171 5.60131 0
M  V30 8205 H 798.717 -0.525898 5.97791 0
M  V30 8206 H 799.787 0.311346 4.83899 0
M  V30 8207 N 801.13 -1.57531 -0.0467866 0
M  V30 8208 C 802.379 -1.87632 -0.740069 0
M  V30 8209 C 802.692 -0.822691 -1.77457 0
M  V30 8210 O 803.898 -1.01235 -2.5192 0
M  V30 8211 C 802.354 -3.32917 -1.36727 0
M  V30 8212 C 801.962 -4.46469 -0.370035 0
M  V30 8213 C 803.706 -3.72189 -2.04146 0
M  V30 8214 C 801.613 -5.82806 -1.00457 0
M  V30 8215 H 800.543 -0.70002 -0.280158 0
M  V30 8216 H 803.194 -1.83499 0.00607151 0
M  V30 8217 H 801.576 -3.31739 -2.16252 0
M  V30 8218 H 802.75 -4.59085 0.397217 0
M  V30 8219 H 801.065 -4.15914 0.201079 0
M  V30 8220 H 803.662 -4.71357 -2.52441 0
M  V30 8221 H 804.005 -3.03268 -2.85192 0
M  V30 8222 H 804.538 -3.75465 -1.3142 0
M  V30 8223 H 801.277 -6.55083 -0.233907 0
M  V30 8224 H 800.797 -5.73944 -1.74209 0
M  V30 8225 H 802.476 -6.28961 -1.51713 0
M  V30 8226 N 802.608 0.318715 -1.54344 0
M  V30 8227 C 803.556 1.41254 -1.84798 0
M  V30 8228 C 804.55 1.53325 -0.720256 0
M  V30 8229 O 805.756 1.55653 -0.903992 0
M  V30 8230 H 802.131 0.471468 -0.585851 0
M  V30 8231 H 804.102 1.12795 -2.7626 0
M  V30 8232 C 802.851 2.77395 -2.09637 0
M  V30 8233 H 802.174 2.68881 -2.95876 0
M  V30 8234 H 803.614 3.52987 -2.34896 0
M  V30 8235 C 802.073 3.24948 -0.889398 0
M  V30 8236 O 802.603 4.01573 -0.101063 0
M  V30 8237 N 800.809 2.82051 -0.699684 0
M  V30 8238 H 800.356 2.19858 -1.3424 0
M  V30 8239 H 800.314 3.1422 0.106368 0
M  V30 8240 N 804.086 1.46499 0.581025 0
M  V30 8241 C 805.333 1.51896 1.33918 0
M  V30 8242 C 805.661 0.171361 1.93744 0
M  V30 8243 O 804.916 -0.833178 1.77078 0
M  V30 8244 C 805.215 2.56686 2.48691 0
M  V30 8245 C 804.881 4.00656 2.06847 0
M  V30 8246 C 803.543 4.39852 1.9515 0
M  V30 8247 C 805.895 4.91089 1.74589 0
M  V30 8248 C 803.223 5.67345 1.49456 0
M  V30 8249 C 805.575 6.1902 1.30373 0
M  V30 8250 C 804.239 6.57121 1.17255 0
M  V30 8251 H 803.509 0.555826 0.490039 0
M  V30 8252 H 806.156 1.79983 0.654092 0
M  V30 8253 H 804.461 2.22266 3.22653 0
M  V30 8254 H 806.158 2.58091 3.06904 0
M  V30 8255 H 802.748 3.69674 2.16886 0
M  V30 8256 H 806.932 4.61523 1.8251 0
M  V30 8257 H 802.188 5.95635 1.37944 0
M  V30 8258 H 806.362 6.8852 1.04467 0
M  V30 8259 H 803.989 7.55805 0.816236 0
M  V30 8260 N 805.565 -0.825799 1.34232 0
M  V30 8261 C 806.79 -1.61883 1.29648 0
M  V30 8262 C 807.215 -1.87669 -0.127295 0
M  V30 8263 O 806.573 -1.45016 -1.08813 0
M  V30 8264 C 806.621 -2.93846 2.09014 0
M  V30 8265 O 805.725 -3.85778 1.4577 0
M  V30 8266 H 805.066 -0.492454 0.445405 0
M  V30 8267 H 807.596 -1.02641 1.76992 0
M  V30 8268 H 807.606 -3.43435 2.20264 0
M  V30 8269 H 806.281 -2.74401 3.12533 0
M  V30 8270 H 804.858 -3.4429 1.43245 0
M  V30 8271 N 807.043 -1.17915 -1.04565 0
M  V30 8272 C 808.283 -0.982331 -1.79247 0
M  V30 8273 C 808.647 0.47998 -1.85904 0
M  V30 8274 O 809.848 0.796078 -2.56741 0
M  V30 8275 C 808.119 -1.61329 -3.18916 0
M  V30 8276 S 809.678 -1.56355 -4.09998 0
M  V30 8277 H 806.496 -0.352869 -0.617256 0
M  V30 8278 H 809.098 -1.49971 -1.25415 0
M  V30 8279 H 807.802 -2.66993 -3.11678 0
M  V30 8280 H 807.333 -1.09599 -3.77825 0
M  V30 8281 H 809.348 -0.57593 -4.92846 0
M  V30 8282 N 808.521 1.23394 -0.980386 0
M  V30 8283 C 809.768 1.91809 -0.649261 0
M  V30 8284 C 810.096 1.765 0.817197 0
M  V30 8285 O 809.351 1.11979 1.60497 0
M  V30 8286 C 809.65 3.43542 -0.985588 0
M  V30 8287 C 809.316 3.79031 -2.44225 0
M  V30 8288 C 807.978 3.88429 -2.84035 0
M  V30 8289 C 810.33 3.96145 -3.38702 0
M  V30 8290 C 807.658 4.12368 -4.17336 0
M  V30 8291 C 810.01 4.21583 -4.71646 0
M  V30 8292 C 808.674 4.29203 -5.11215 0
M  V30 8293 H 807.944 0.70188 -0.237581 0
M  V30 8294 H 810.591 1.4642 -1.23424 0
M  V30 8295 H 808.896 3.90503 -0.318521 0
M  V30 8296 H 810.593 3.94708 -0.707596 0
M  V30 8297 H 807.183 3.7229 -2.12362 0
M  V30 8298 H 811.367 3.88274 -3.09123 0
M  V30 8299 H 806.623 4.1649 -4.47601 0
M  V30 8300 H 810.797 4.33769 -5.4481 0
M  V30 8301 H 808.424 4.47505 -6.14527 0
M  V30 8302 N 809.999 0.752036 1.385 0
M  V30 8303 C 810.949 0.0990189 2.27785 0
M  V30 8304 C 811.933 -0.694867 1.45122 0
M  V30 8305 O 813.125 -0.561077 1.67872 0
M  V30 8306 C 810.254 -0.794531 3.33979 0
M  V30 8307 C 809.34 0.00611984 4.241 0
M  V30 8308 N 809.731 1.04174 4.94956 0
M  V30 8309 C 808.029 -0.220934 4.45452 0
M  V30 8310 C 808.73 1.52601 5.61327 0
M  V30 8311 N 807.706 0.84159 5.37046 0
M  V30 8312 H 811.508 0.892208 2.8003 0
M  V30 8313 H 809.022 0.587934 1.51384 0
M  V30 8314 H 811.019 -1.27797 3.96829 0
M  V30 8315 H 809.679 -1.58669 2.83292 0
M  V30 8316 H 810.69 1.42349 4.97953 0
M  V30 8317 H 807.367 -0.986556 4.05676 0
M  V30 8318 H 808.757 2.38857 6.2801 0
M  V30 8319 N 811.477 -1.49425 0.500989 0
M  V30 8320 C 812.44 -2.27646 -0.266416 0
M  V30 8321 C 813.44 -1.3366 -0.893961 0
M  V30 8322 O 814.63 -1.5682 -0.758495 0
M  V30 8323 C 811.762 -3.11618 -1.38227 0
M  V30 8324 H 812.955 -2.96945 0.419973 0
M  V30 8325 H 810.508 -1.5419 0.255954 0
M  V30 8326 H 811.243 -2.46885 -2.10281 0
M  V30 8327 H 811.028 -3.80721 -0.937746 0
M  V30 8328 H 812.518 -3.70698 -1.92283 0
M  V30 8329 N 812.955 -0.234822 -1.55841 0
M  V30 8330 C 814.18 0.400741 -2.03492 0
M  V30 8331 C 814.605 1.51618 -1.11327 0
M  V30 8332 O 813.963 1.81002 -0.103922 0
M  V30 8333 C 814.011 0.897184 -3.49261 0
M  V30 8334 O 813.115 2.00764 -3.60233 0
M  V30 8335 H 812.456 0.0890023 -0.658008 0
M  V30 8336 H 814.986 -0.357345 -2.01455 0
M  V30 8337 H 814.996 1.20356 -3.89844 0
M  V30 8338 H 813.671 0.0808639 -4.15821 0
M  V30 8339 H 812.248 1.70689 -3.31541 0
M  V30 8340 N 814.433 1.57553 0.0384317 0
M  V30 8341 C 815.682 1.88022 0.730108 0
M  V30 8342 C 815.995 0.83209 1.77019 0
M  V30 8343 O 817.201 1.0257 2.51379 0
M  V30 8344 C 815.657 3.33637 1.3496 0
M  V30 8345 C 815.265 4.46659 0.346352 0
M  V30 8346 C 817.009 3.73266 2.02169 0
M  V30 8347 C 814.916 5.8333 0.973652 0
M  V30 8348 H 813.846 0.701496 0.276442 0
M  V30 8349 H 816.497 1.83493 -0.0158028 0
M  V30 8350 H 814.879 3.32882 2.1449 0
M  V30 8351 H 816.053 4.58868 -0.421558 0
M  V30 8352 H 814.368 4.15802 -0.223133 0
M  V30 8353 H 816.965 4.72689 2.49938 0
M  V30 8354 H 817.308 3.04776 2.8358 0
M  V30 8355 H 817.841 3.76156 1.29427 0
M  V30 8356 H 814.58 6.55197 0.199163 0
M  V30 8357 H 814.1 5.7486 1.71162 0
M  V30 8358 H 815.779 6.29757 1.48376 0
M  V30 8359 N 815.911 -0.310526 1.54511 0
M  V30 8360 C 817.139 -1.06611 1.77318 0
M  V30 8361 C 817.554 -1.81265 0.528043 0
M  V30 8362 O 816.911 -1.75466 -0.50178 0
M  V30 8363 C 816.962 -2.05409 2.97472 0
M  V30 8364 O 816.683 -1.33785 4.17173 0
M  V30 8365 C 818.184 -2.93082 3.32593 0
M  V30 8366 H 815.404 -0.316578 0.591624 0
M  V30 8367 H 817.948 -0.352691 2.01436 0
M  V30 8368 H 816.103 -2.72266 2.7559 0
M  V30 8369 H 816.517 -2.00055 4.84849 0
M  V30 8370 H 817.991 -3.58274 4.19933 0
M  V30 8371 H 818.468 -3.60877 2.50329 0
M  V30 8372 H 819.074 -2.31768 3.566 0
M  V30 8373 N 817.389 -1.46805 -0.573248 0
M  V30 8374 C 818.337 -1.58468 -1.70267 0
M  V30 8375 C 819.331 -0.452694 -1.63239 0
M  V30 8376 O 820.537 -0.629915 -1.68618 0
M  V30 8377 H 816.912 -0.498408 -0.56311 0
M  V30 8378 H 818.883 -2.5341 -1.57563 0
M  V30 8379 C 817.632 -1.60104 -3.08645 0
M  V30 8380 H 816.955 -2.4655 -3.14727 0
M  V30 8381 H 818.395 -1.72318 -3.87405 0
M  V30 8382 C 816.854 -0.33138 -3.35266 0
M  V30 8383 O 817.384 0.57438 -3.97572 0
M  V30 8384 N 815.59 -0.216358 -2.89793 0
M  V30 8385 H 815.137 -0.954345 -2.3927 0
M  V30 8386 H 815.095 0.632253 -3.07977 0
M  V30 8387 N 818.867 0.818669 -1.34668 0
M  V30 8388 C 820.092 1.61193 -1.30505 0
M  V30 8389 C 820.517 1.87734 0.117341 0
M  V30 8390 O 819.875 1.45591 1.08042 0
M  V30 8391 C 819.923 2.92733 -2.1057 0
M  V30 8392 O 819.027 3.85 -1.47813 0
M  V30 8393 H 818.368 0.490085 -0.44801 0
M  V30 8394 H 820.898 1.01701 -1.77534 0
M  V30 8395 H 820.908 3.42262 -2.22082 0
M  V30 8396 H 819.583 2.7274 -3.13984 0
M  V30 8397 H 818.16 3.43525 -1.45069 0
M  V30 8398 N 820.346 1.18468 1.03938 0
M  V30 8399 C 821.757 0.984808 1.58614 0
M  V30 8400 C 822.108 -0.465165 1.90606 0
M  V30 8401 O 821.233 -1.34274 1.69704 0
M  V30 8402 C 821.828 1.78135 2.8819 0
M  V30 8403 C 820.387 1.62579 3.39478 0
M  V30 8404 C 819.534 1.77501 2.13046 0
M  V30 8405 H 822.485 1.32993 0.865944 0
M  V30 8406 H 822.506 1.27119 3.58638 0
M  V30 8407 H 822.018 2.83661 2.64874 0
M  V30 8408 H 820.119 0.59595 3.67803 0
M  V30 8409 H 820.232 2.42463 4.13217 0
M  V30 8410 H 818.596 1.2046 2.24414 0
M  V30 8411 H 819.379 2.84464 1.92185 0
M  V30 8412 N 821.824 -1.22873 0.986916 0
M  V30 8413 C 823.072 -1.91084 0.658121 0
M  V30 8414 C 823.393 -1.77304 -0.811675 0
M  V30 8415 O 822.663 -1.15649 -1.58121 0
M  V30 8416 H 821.243 -0.707251 0.240427 0
M  V30 8417 H 823.905 -1.49357 1.25213 0
M  V30 8418 H 823.001 -2.98373 0.915428 0
M  V30 8419 N 823.302 -0.75937 -1.38099 0
M  V30 8420 C 824.548 -0.327559 -2.00745 0
M  V30 8421 C 824.903 1.08042 -1.592 0
M  V30 8422 O 824.196 1.7306 -0.822236 0
M  V30 8423 C 824.39 -0.394999 -3.55211 0
M  V30 8424 C 824.219 -1.80798 -4.11755 0
M  V30 8425 C 822.989 -2.42585 -4.43262 0
M  V30 8426 C 825.187 -2.76556 -4.33614 0
M  V30 8427 N 823.169 -3.75784 -4.85448 0
M  V30 8428 C 824.54 -3.94532 -4.78273 0
M  V30 8429 C 826.595 -2.74004 -4.15724 0
M  V30 8430 C 825.298 -5.10322 -5.06916 0
M  V30 8431 C 827.324 -3.88957 -4.45496 0
M  V30 8432 C 826.686 -5.05672 -4.90383 0
M  V30 8433 H 822.785 -0.166644 -0.764038 0
M  V30 8434 H 825.369 -0.99056 -1.67619 0
M  V30 8435 H 823.54 0.237761 -3.87672 0
M  V30 8436 H 825.272 0.0576828 -4.04659 0
M  V30 8437 H 822.027 -1.94302 -4.31907 0
M  V30 8438 H 822.451 -4.44234 -5.10867 0
M  V30 8439 H 827.093 -1.84948 -3.80203 0
M  V30 8440 H 824.811 -5.99988 -5.41332 0
M  V30 8441 H 828.397 -3.88308 -4.33253 0
M  V30 8442 H 827.277 -5.93146 -5.1298 0
M  V30 8443 N 824.78 1.49157 -0.508906 0
M  V30 8444 C 826.196 1.58741 -0.165372 0
M  V30 8445 C 826.396 1.5133 1.33047 0
M  V30 8446 O 825.452 1.39135 2.10707 0
M  V30 8447 C 826.765 2.91217 -0.749194 0
M  V30 8448 C 828.313 3.047 -0.716015 0
M  V30 8449 C 828.788 4.39807 -1.27804 0
M  V30 8450 N 830.279 4.46319 -1.23908 0
M  V30 8451 C 831.014 5.49325 -1.64406 0
M  V30 8452 N 830.51 6.59395 -2.12534 0
M  V30 8453 N 832.303 5.40084 -1.55773 0
M  V30 8454 H 824.454 1.52217 -1.48134 0
M  V30 8455 H 826.717 0.721514 -0.614915 0
M  V30 8456 H 826.423 3.02233 -1.79856 0
M  V30 8457 H 826.297 3.76592 -0.214144 0
M  V30 8458 H 828.684 2.9331 0.324535 0
M  V30 8459 H 828.765 2.2099 -1.2883 0
M  V30 8460 H 828.409 4.5195 -2.31741 0
M  V30 8461 H 828.339 5.2217 -0.681623 0
M  V30 8462 H 830.83 3.67354 -0.886537 0
M  V30 8463 H 831.143 7.34102 -2.41485 0
M  V30 8464 H 829.488 6.60414 -2.16513 0
M  V30 8465 H 832.679 4.52986 -1.17987 0
M  V30 8466 H 832.852 6.20233 -1.87657 0
M  V30 8467 N 826.258 0.243083 1.55714 0
M  V30 8468 C 827.669 -0.260788 1.8487 0
M  V30 8469 C 828.02 -1.57879 1.16485 0
M  V30 8470 O 827.145 -2.1184 0.441908 0
M  V30 8471 C 827.74 -0.479954 3.35383 0
M  V30 8472 C 826.299 -0.928096 3.64778 0
M  V30 8473 C 825.446 -0.00316416 2.773 0
M  V30 8474 H 828.397 0.465743 1.51712 0
M  V30 8475 H 828.418 -1.32308 3.56756 0
M  V30 8476 H 827.93 0.479468 3.85127 0
M  V30 8477 H 826.031 -1.90012 3.20509 0
M  V30 8478 H 826.144 -0.7876 4.72582 0
M  V30 8479 H 824.508 -0.513849 2.49463 0
M  V30 8480 H 825.291 0.951562 3.29849 0
M  V30 8481 N 827.736 -1.57571 -0.0300757 0
M  V30 8482 C 828.961 -1.93879 -0.736601 0
M  V30 8483 C 829.386 -0.842998 -1.68152 0
M  V30 8484 O 828.744 0.20135 -1.80178 0
M  V30 8485 C 828.792 -3.29247 -1.47066 0
M  V30 8486 O 827.896 -3.21426 -2.58378 0
M  V30 8487 H 827.237 -0.633735 -0.198181 0
M  V30 8488 H 829.767 -2.04595 0.0141485 0
M  V30 8489 H 829.777 -3.64113 -1.84081 0
M  V30 8490 H 828.452 -4.08565 -0.77764 0
M  V30 8491 H 827.029 -2.98189 -2.23914 0
M  V30 8492 N 829.214 0.302327 -1.54673 0
M  V30 8493 C 830.461 1.0377 -1.73891 0
M  V30 8494 C 830.789 1.87309 -0.523979 0
M  V30 8495 O 830.044 1.8936 0.494084 0
M  V30 8496 C 830.343 1.97365 -2.97963 0
M  V30 8497 C 830.009 1.29812 -4.3181 0
M  V30 8498 C 828.671 1.11121 -4.68194 0
M  V30 8499 C 831.023 0.815073 -5.14787 0
M  V30 8500 C 828.351 0.428077 -5.85136 0
M  V30 8501 C 830.703 0.145665 -6.32432 0
M  V30 8502 C 829.367 -0.0532098 -6.67479 0
M  V30 8503 H 828.637 0.379721 -0.636312 0
M  V30 8504 H 831.284 0.312708 -1.8893 0
M  V30 8505 H 829.589 2.76387 -2.777 0
M  V30 8506 H 831.286 2.54331 -3.10027 0
M  V30 8507 H 827.876 1.45366 -4.03196 0
M  V30 8508 H 832.06 0.947191 -4.87178 0
M  V30 8509 H 827.316 0.262995 -6.10834 0
M  V30 8510 H 831.49 -0.236533 -6.95998 0
M  V30 8511 H 829.117 -0.58456 -7.57949 0
M  V30 8512 N 830.692 1.47107 0.565454 0
M  V30 8513 C 831.624 1.55024 1.6882 0
M  V30 8514 C 832.637 0.4371 1.56822 0
M  V30 8515 O 833.826 0.706315 1.63931 0
M  V30 8516 C 830.926 1.43069 3.0722 0
M  V30 8517 C 830.099 2.68807 3.45053 0
M  V30 8518 C 829.158 2.50806 4.62583 0
M  V30 8519 O 828.184 3.24593 4.67577 0
M  V30 8520 N 829.386 1.58093 5.58558 0
M  V30 8521 H 832.151 2.51836 1.62477 0
M  V30 8522 H 829.712 1.43382 0.751885 0
M  V30 8523 H 831.704 1.28773 3.83666 0
M  V30 8524 H 830.274 0.543721 3.07835 0
M  V30 8525 H 829.494 2.97923 2.58138 0
M  V30 8526 H 830.782 3.52298 3.67101 0
M  V30 8527 H 830.18 0.972807 5.57273 0
M  V30 8528 H 828.737 1.49753 6.34364 0
M  V30 8529 N 832.17 -0.811516 1.35101 0
M  V30 8530 C 833.4 -1.59749 1.31011 0
M  V30 8531 C 833.808 -1.88847 -0.115566 0
M  V30 8532 O 833.151 -1.48854 -1.07649 0
M  V30 8533 C 833.213 -2.95714 2.04435 0
M  V30 8534 C 832.877 -2.89456 3.53645 0
M  V30 8535 C 833.874 -2.63237 4.48333 0
M  V30 8536 C 831.559 -3.08728 3.96222 0
M  V30 8537 C 833.553 -2.56361 5.83573 0
M  V30 8538 C 831.24 -3.01475 5.3156 0
M  V30 8539 C 832.238 -2.75326 6.25048 0
M  V30 8540 O 831.926 -2.68026 7.57903 0
M  V30 8541 H 831.658 -0.502889 0.45175 0
M  V30 8542 H 834.212 -1.01687 1.78462 0
M  V30 8543 H 832.442 -3.55739 1.51613 0
M  V30 8544 H 834.131 -3.56816 1.93487 0
M  V30 8545 H 834.897 -2.48072 4.16756 0
M  V30 8546 H 830.776 -3.28094 3.23845 0
M  V30 8547 H 834.32 -2.35871 6.56514 0
M  V30 8548 H 830.217 -3.16197 5.62752 0
M  V30 8549 H 830.985 -2.8367 7.67772 0
M  V30 8550 N 833.648 -1.19017 -1.03309 0
M  V30 8551 C 834.878 -1.01387 -1.80012 0
M  V30 8552 C 835.286 0.440655 -1.83997 0
M  V30 8553 O 834.629 1.31786 -1.27977 0
M  V30 8554 C 834.691 -1.50171 -3.26633 0
M  V30 8555 C 834.355 -2.98213 -3.46292 0
M  V30 8556 C 835.352 -3.96009 -3.36857 0
M  V30 8557 C 833.037 -3.36812 -3.72643 0
M  V30 8558 C 835.031 -5.30399 -3.5349 0
M  V30 8559 C 832.718 -4.71363 -3.88922 0
M  V30 8560 C 833.716 -5.67966 -3.79347 0
M  V30 8561 O 833.404 -7.00079 -3.95151 0
M  V30 8562 H 833.136 -0.357899 -0.573484 0
M  V30 8563 H 835.69 -1.58171 -1.31039 0
M  V30 8564 H 833.92 -0.877586 -3.7661 0
M  V30 8565 H 835.609 -1.28814 -3.84918 0
M  V30 8566 H 836.375 -3.67534 -3.16455 0
M  V30 8567 H 832.254 -2.62175 -3.7919 0
M  V30 8568 H 835.798 -6.05786 -3.45933 0
M  V30 8569 H 831.695 -4.99536 -4.0882 0
M  V30 8570 H 832.463 -7.07092 -4.12266 0
M  V30 8571 N 835.127 1.22348 -0.993418 0
M  V30 8572 C 836.075 2.26315 -0.537052 0
M  V30 8573 C 837.069 1.643 0.412545 0
M  V30 8574 O 838.275 1.77729 0.285008 0
M  V30 8575 H 834.65 0.735792 -0.155286 0
M  V30 8576 H 836.621 2.62157 -1.42535 0
M  V30 8577 C 835.37 3.47449 0.132118 0
M  V30 8578 H 834.693 3.9543 -0.589519 0
M  V30 8579 H 836.133 4.21965 0.414884 0
M  V30 8580 C 834.592 3.07893 1.36761 0
M  V30 8581 O 835.122 3.17338 2.46291 0
M  V30 8582 N 833.328 2.62672 1.24305 0
M  V30 8583 H 832.875 2.55186 0.351826 0
M  V30 8584 H 832.833 2.36574 2.07076 0
M  V30 8585 N 836.605 0.766683 1.37694 0
M  V30 8586 C 837.552 0.147725 2.30327 0
M  V30 8587 C 838.522 -0.695366 1.50844 0
M  V30 8588 O 839.707 -0.64878 1.79431 0
M  V30 8589 C 836.847 -0.72935 3.37305 0
M  V30 8590 C 835.96 0.129795 4.31805 0
M  V30 8591 C 835.095 -0.751511 5.25857 0
M  V30 8592 C 834.134 0.110475 6.12 0
M  V30 8593 N 833.271 -0.728522 6.9831 0
M  V30 8594 H 838.111 0.943204 2.82679 0
M  V30 8595 H 835.648 0.476736 1.3916 0
M  V30 8596 H 837.606 -1.25263 3.97951 0
M  V30 8597 H 836.236 -1.49048 2.86329 0
M  V30 8598 H 835.288 0.770829 3.72508 0
M  V30 8599 H 836.6 0.794923 4.92425 0
M  V30 8600 H 835.754 -1.34146 5.91684 0
M  V30 8601 H 834.493 -1.45034 4.65636 0
M  V30 8602 H 833.498 0.712999 5.45157 0
M  V30 8603 H 834.723 0.806557 6.74293 0
M  V30 8604 H 832.669 -1.41206 6.40622 0
M  V30 8605 H 832.586 -0.12058 7.55904 0
M  V30 8606 H 833.854 -1.30303 7.68532 0
M  V30 8607 N 838.083 -1.48885 0.516809 0
M  V30 8608 C 839.329 -2.03395 -0.0140225 0
M  V30 8609 C 839.684 -1.38808 -1.33229 0
M  V30 8610 O 838.977 -0.520104 -1.84406 0
M  V30 8611 C 839.171 -3.56801 -0.206798 0
M  V30 8612 C 839 -4.36259 1.09124 0
M  V30 8613 C 837.77 -4.77689 1.64745 0
M  V30 8614 C 839.968 -4.73881 1.99854 0
M  V30 8615 N 837.95 -5.41634 2.88975 0
M  V30 8616 C 839.321 -5.37707 3.08661 0
M  V30 8617 C 841.376 -4.55816 2.00341 0
M  V30 8618 C 840.079 -5.85379 4.18001 0
M  V30 8619 C 842.105 -5.04459 3.08666 0
M  V30 8620 C 841.467 -5.68299 4.16191 0
M  V30 8621 H 837.566 -0.781169 0.036042 0
M  V30 8622 H 840.15 -1.81867 0.695173 0
M  V30 8623 H 838.321 -3.78181 -0.885064 0
M  V30 8624 H 840.053 -3.9795 -0.736053 0
M  V30 8625 H 836.808 -4.58392 1.19054 0
M  V30 8626 H 837.232 -5.78181 3.52187 0
M  V30 8627 H 841.874 -4.05851 1.18511 0
M  V30 8628 H 839.592 -6.34356 5.00618 0
M  V30 8629 H 843.178 -4.92281 3.10082 0
M  V30 8630 H 842.058 -6.05257 4.98631 0
M  V30 8631 N 839.561 -0.251338 -1.55583 0
M  V30 8632 C 840.524 0.63305 -2.20284 0
M  V30 8633 C 841.524 1.09941 -1.17344 0
M  V30 8634 O 842.714 1.00341 -1.42399 0
M  V30 8635 C 839.846 1.8706 -2.84993 0
M  V30 8636 H 841.039 0.0684846 -2.99822 0
M  V30 8637 H 838.592 -0.00181653 -1.563 0
M  V30 8638 H 839.327 2.47629 -2.09405 0
M  V30 8639 H 839.112 1.54436 -3.60405 0
M  V30 8640 H 840.602 2.50004 -3.34496 0
M  V30 8641 N 841.039 1.57585 0.0217189 0
M  V30 8642 C 842.002 2.06004 1.00474 0
M  V30 8643 C 843.002 0.965461 1.2859 0
M  V30 8644 O 844.192 1.22884 1.23471 0
M  V30 8645 C 841.324 2.48319 2.33561 0
M  V30 8646 H 842.517 2.94112 0.586346 0
M  V30 8647 H 840.07 1.53973 0.268716 0
M  V30 8648 H 840.805 1.63389 2.80133 0
M  V30 8649 H 840.59 3.28239 2.1448 0
M  V30 8650 H 842.08 2.86181 3.04122 0
M  V30 8651 N 842.517 -0.29412 1.54831 0
M  V30 8652 C 843.447 -1.36757 1.89261 0
M  V30 8653 C 844.428 -1.52564 0.752214 0
M  V30 8654 O 845.613 -1.65958 1.00855 0
M  V30 8655 C 842.743 -2.73066 2.14597 0
M  V30 8656 C 841.697 -2.72017 3.3044 0
M  V30 8657 C 841.023 -4.11679 3.4121 0
M  V30 8658 C 842.323 -2.33149 4.67375 0
M  V30 8659 H 844.017 -1.08191 2.79169 0
M  V30 8660 H 841.563 -0.519014 1.34321 0
M  V30 8661 H 843.516 -3.48255 2.37269 0
M  V30 8662 H 842.24 -3.03172 1.21467 0
M  V30 8663 H 840.899 -1.99285 3.07703 0
M  V30 8664 H 840.547 -4.38973 2.45584 0
M  V30 8665 H 840.247 -4.11877 4.19084 0
M  V30 8666 H 841.771 -4.88637 3.6615 0
M  V30 8667 H 843.185 -2.98054 4.89731 0
M  V30 8668 H 841.582 -2.44546 5.48012 0
M  V30 8669 H 842.652 -1.28275 4.67626 0
M  V30 8670 N 843.995 -1.47404 -0.557645 0
M  V30 8671 C 845.242 -1.54007 -1.31484 0
M  V30 8672 C 845.57 -0.202162 -1.93447 0
M  V30 8673 O 844.825 0.804901 -1.78381 0
M  V30 8674 C 845.124 -2.6061 -2.44575 0
M  V30 8675 C 844.79 -4.03896 -2.00446 0
M  V30 8676 C 843.452 -4.42901 -1.88127 0
M  V30 8677 C 845.804 -4.93804 -1.66754 0
M  V30 8678 C 843.132 -5.6965 -1.40411 0
M  V30 8679 C 845.484 -6.21016 -1.20509 0
M  V30 8680 C 844.148 -6.58903 -1.06786 0
M  V30 8681 H 843.418 -0.563552 -0.481134 0
M  V30 8682 H 846.065 -1.81001 -0.625375 0
M  V30 8683 H 844.37 -2.27371 -3.19076 0
M  V30 8684 H 846.067 -2.62941 -3.02759 0
M  V30 8685 H 842.657 -3.73077 -2.10977 0
M  V30 8686 H 846.841 -4.64369 -1.75144 0
M  V30 8687 H 842.097 -5.97755 -1.2845 0
M  V30 8688 H 846.271 -6.90095 -0.935001 0
M  V30 8689 H 843.898 -7.57008 -0.695891 0
M  V30 8690 N 845.473 0.80434 -1.35529 0
M  V30 8691 C 846.721 1.55845 -1.28673 0
M  V30 8692 C 847.042 1.94511 0.137976 0
M  V30 8693 O 846.312 1.63775 1.07492 0
M  V30 8694 H 844.892 0.577931 -0.473291 0
M  V30 8695 H 847.554 0.959293 -1.69657 0
M  V30 8696 H 846.65 2.47285 -1.90411 0
M  V30 8697 N 846.951 1.19563 1.02676 0
M  V30 8698 C 847.914 0.937182 2.09164 0
M  V30 8699 C 848.914 -0.0831927 1.60585 0
M  V30 8700 O 850.104 0.15178 1.73538 0
M  V30 8701 C 847.236 0.408912 3.38439 0
M  V30 8702 H 848.429 1.88164 2.33526 0
M  V30 8703 H 845.982 1.00959 1.19319 0
M  V30 8704 H 846.717 -0.541497 3.19747 0
M  V30 8705 H 846.502 1.14464 3.7502 0
M  V30 8706 H 847.992 0.247242 4.16867 0
M  V30 8707 N 848.429 -1.21819 0.999893 0
M  V30 8708 C 849.678 -1.90066 0.675108 0
M  V30 8709 C 849.991 -1.78624 -0.79705 0
M  V30 8710 O 851.197 -2.41851 -1.23371 0
M  V30 8711 C 849.653 -3.40795 1.15702 0
M  V30 8712 C 849.261 -3.60859 2.6549 0
M  V30 8713 C 851.005 -4.147 0.906889 0
M  V30 8714 C 848.912 -5.05324 3.07248 0
M  V30 8715 H 847.842 -0.711763 0.248815 0
M  V30 8716 H 850.493 -1.3792 1.21038 0
M  V30 8717 H 848.875 -3.92164 0.549832 0
M  V30 8718 H 850.049 -3.19951 3.31614 0
M  V30 8719 H 848.364 -3.00298 2.88461 0
M  V30 8720 H 850.961 -5.21187 1.1945 0
M  V30 8721 H 851.304 -4.16004 -0.156923 0
M  V30 8722 H 851.837 -3.69379 1.47662 0
M  V30 8723 H 848.576 -5.09164 4.12834 0
M  V30 8724 H 848.096 -5.47108 2.45832 0
M  V30 8725 H 849.775 -5.73797 2.98941 0
M  V30 8726 N 849.908 -0.773975 -1.37286 0
M  V30 8727 C 851.157 -0.335977 -1.98882 0
M  V30 8728 C 851.47 1.09416 -1.62134 0
M  V30 8729 O 852.676 1.63366 -2.1685 0
M  V30 8730 C 851.132 -0.549756 -3.55676 0
M  V30 8731 C 850.74 -1.9903 -4.01361 0
M  V30 8732 C 852.484 -0.175493 -4.24137 0
M  V30 8733 C 850.391 -2.15156 -5.50874 0
M  V30 8734 H 849.321 -0.121877 -0.744085 0
M  V30 8735 H 851.972 -0.953419 -1.56787 0
M  V30 8736 H 850.354 0.137175 -3.95762 0
M  V30 8737 H 851.528 -2.71237 -3.72515 0
M  V30 8738 H 849.843 -2.32137 -3.4569 0
M  V30 8739 H 852.44 -0.274463 -5.33995 0
M  V30 8740 H 852.783 0.874524 -4.07011 0
M  V30 8741 H 853.316 -0.815058 -3.89361 0
M  V30 8742 H 850.055 -3.18485 -5.72929 0
M  V30 8743 H 849.575 -1.47435 -5.81397 0
M  V30 8744 H 851.254 -1.95124 -6.16876 0
M  V30 8745 N 851.386 1.48609 -0.524698 0
M  V30 8746 C 852.611 2.07398 0.00952139 0
M  V30 8747 C 853.036 1.37939 1.27884 0
M  V30 8748 O 852.394 0.443633 1.75788 0
M  V30 8749 C 852.442 3.59916 0.221956 0
M  V30 8750 O 851.546 3.91647 1.29175 0
M  V30 8751 H 850.887 0.662981 -0.0367729 0
M  V30 8752 H 853.417 1.91092 -0.7311 0
M  V30 8753 H 853.427 4.05552 0.446236 0
M  V30 8754 H 852.102 4.09876 -0.705306 0
M  V30 8755 H 850.679 3.57796 1.05055 0
M  V30 8756 N 852.864 0.259585 1.55447 0
M  V30 8757 C 854.11 -0.362143 1.9954 0
M  V30 8758 C 854.443 -1.5666 1.14767 0
M  V30 8759 O 853.718 -1.93319 0.214025 0
M  V30 8760 C 854.001 -0.759588 3.51998 0
M  V30 8761 C 853.854 0.451134 4.47532 0
M  V30 8762 C 855.173 -1.60186 4.09913 0
M  V30 8763 H 852.292 -0.130157 0.725416 0
M  V30 8764 H 854.934 0.363431 1.86492 0
M  V30 8765 H 853.084 -1.3778 3.63248 0
M  V30 8766 H 854.756 1.08965 4.48246 0
M  V30 8767 H 852.999 1.092 4.19831 0
M  V30 8768 H 853.67 0.129518 5.51848 0
M  V30 8769 H 856.146 -1.0799 4.01842 0
M  V30 8770 H 855.022 -1.84879 5.16828 0
M  V30 8771 H 855.283 -2.57787 3.59163 0
M  V30 8772 N 854.342 -1.57594 -0.0133615 0
M  V30 8773 C 855.588 -1.90262 -0.702019 0
M  V30 8774 C 855.921 -0.859219 -1.74158 0
M  V30 8775 O 855.196 0.123778 -1.94106 0
M  V30 8776 C 855.479 -3.3354 -1.35732 0
M  V30 8777 C 855.332 -4.48586 -0.330208 0
M  V30 8778 C 856.651 -3.76004 -2.28712 0
M  V30 8779 H 853.77 -0.691943 -0.253739 0
M  V30 8780 H 856.412 -1.89967 0.0351894 0
M  V30 8781 H 854.562 -3.33921 -1.98567 0
M  V30 8782 H 856.234 -4.6034 0.297433 0
M  V30 8783 H 854.477 -4.32394 0.348926 0
M  V30 8784 H 855.148 -5.45762 -0.827508 0
M  V30 8785 H 857.624 -3.77089 -1.75906 0
M  V30 8786 H 856.5 -4.77032 -2.71535 0
M  V30 8787 H 856.761 -3.09129 -3.16056 0
M  V30 8788 N 855.82 0.285905 -1.54985 0
M  V30 8789 C 857.069 1.01691 -1.74189 0
M  V30 8790 C 857.382 1.87908 -0.543135 0
M  V30 8791 O 858.588 2.64389 -0.617305 0
M  V30 8792 C 857.044 1.85785 -3.0824 0
M  V30 8793 C 856.652 1.04497 -4.35642 0
M  V30 8794 C 858.396 2.58393 -3.36798 0
M  V30 8795 C 856.303 1.87955 -5.60738 0
M  V30 8796 H 855.233 0.383396 -0.649248 0
M  V30 8797 H 857.884 0.27317 -1.81455 0
M  V30 8798 H 856.266 2.64205 -2.94978 0
M  V30 8799 H 857.44 0.305847 -4.59784 0
M  V30 8800 H 855.755 0.434023 -4.14132 0
M  V30 8801 H 858.352 3.21214 -4.27464 0
M  V30 8802 H 858.695 3.28011 -2.56349 0
M  V30 8803 H 859.228 1.87012 -3.511 0
M  V30 8804 H 855.967 1.22781 -6.43898 0
M  V30 8805 H 855.487 2.59499 -5.40759 0
M  V30 8806 H 857.166 2.45636 -5.98558 0
M  V30 8807 N 857.298 1.47698 0.54982 0
M  V30 8808 C 858.231 1.55288 1.67215 0
M  V30 8809 C 859.209 0.404533 1.57487 0
M  V30 8810 O 860.393 0.613372 1.78241 0
M  V30 8811 C 857.52 1.46233 3.05505 0
M  V30 8812 C 856.566 2.65662 3.33655 0
M  V30 8813 S 857.399 4.278 3.22098 0
M  V30 8814 C 858.555 4.21311 4.62869 0
M  V30 8815 H 858.788 2.50238 1.60524 0
M  V30 8816 H 856.321 1.35987 0.731227 0
M  V30 8817 H 858.279 1.41696 3.85269 0
M  V30 8818 H 856.94 0.526543 3.09655 0
M  V30 8819 H 856.133 2.55411 4.3449 0
M  V30 8820 H 855.735 2.67359 2.61524 0
M  V30 8821 H 858.027 3.90021 5.53977 0
M  V30 8822 H 858.97 5.22257 4.78177 0
M  V30 8823 H 859.378 3.52063 4.41262 0
M  V30 8824 N 858.776 -0.797141 1.35954 0
M  V30 8825 C 860.023 -1.55468 1.29754 0
M  V30 8826 C 860.351 -1.94095 -0.125391 0
M  V30 8827 O 859.606 -1.62341 -1.09288 0
M  V30 8828 C 859.905 -2.84847 2.15863 0
M  V30 8829 C 859.571 -2.65394 3.64523 0
M  V30 8830 C 858.233 -2.59796 4.05042 0
M  V30 8831 C 860.585 -2.4727 4.58811 0
M  V30 8832 C 857.913 -2.3403 5.38002 0
M  V30 8833 C 860.265 -2.23032 5.91979 0
M  V30 8834 C 858.929 -2.15862 6.31633 0
M  V30 8835 H 858.199 -0.568897 0.474803 0
M  V30 8836 H 860.846 -0.920299 1.67937 0
M  V30 8837 H 859.151 -3.52712 1.70591 0
M  V30 8838 H 860.848 -3.42597 2.08395 0
M  V30 8839 H 857.438 -2.70602 3.32374 0
M  V30 8840 H 861.622 -2.506 4.28384 0
M  V30 8841 H 856.878 -2.26956 5.67715 0
M  V30 8842 H 861.052 -2.08001 6.64612 0
M  V30 8843 H 858.679 -1.9566 7.34589 0
M  V30 8844 N 860.254 -1.20106 -1.0204 0
M  V30 8845 C 861.184 -0.970301 -2.12385 0
M  V30 8846 C 862.165 0.099378 -1.69809 0
M  V30 8847 O 863.35 -0.057365 -1.94115 0
M  V30 8848 C 860.48 -0.517431 -3.43424 0
M  V30 8849 C 859.434 -1.52992 -3.99722 0
M  V30 8850 C 858.76 -0.933817 -5.26483 0
M  V30 8851 C 860.06 -2.91257 -4.33551 0
M  V30 8852 H 861.754 -1.89316 -2.31948 0
M  V30 8853 H 859.3 -0.911655 -1.11467 0
M  V30 8854 H 861.253 -0.343243 -4.2 0
M  V30 8855 H 859.977 0.441049 -3.23608 0
M  V30 8856 H 858.636 -1.6914 -3.2525 0
M  V30 8857 H 858.284 0.0324763 -5.0299 0
M  V30 8858 H 857.984 -1.60999 -5.65113 0
M  V30 8859 H 859.508 -0.770614 -6.05718 0
M  V30 8860 H 860.922 -2.78642 -5.0103 0
M  V30 8861 H 859.319 -3.55745 -4.83286 0
M  V30 8862 H 860.389 -3.43269 -3.42483 0
M  V30 8863 N 861.732 1.21287 -1.00634 0
M  V30 8864 C 862.662 2.25973 -0.588089 0
M  V30 8865 C 863.643 1.65527 0.391764 0
M  V30 8866 O 864.828 1.92179 0.279452 0
M  V30 8867 C 861.958 3.47197 0.0847336 0
M  V30 8868 C 860.912 4.20168 -0.815039 0
M  V30 8869 C 860.238 5.34699 -0.00855393 0
M  V30 8870 C 861.538 4.77416 -2.11828 0
M  V30 8871 H 863.232 2.61212 -1.46317 0
M  V30 8872 H 860.778 1.25563 -0.704985 0
M  V30 8873 H 862.731 4.19602 0.388821 0
M  V30 8874 H 861.455 3.11092 0.994456 0
M  V30 8875 H 860.114 3.49614 -1.10297 0
M  V30 8876 H 859.762 4.94837 0.902499 0
M  V30 8877 H 859.462 5.84449 -0.607664 0
M  V30 8878 H 860.986 6.09914 0.289317 0
M  V30 8879 H 862.4 5.41694 -1.87725 0
M  V30 8880 H 860.797 5.37561 -2.66736 0
M  V30 8881 H 861.867 3.96724 -2.78816 0
M  V30 8882 N 863.21 0.781244 1.36873 0
M  V30 8883 C 864.438 0.361566 2.03716 0
M  V30 8884 C 864.853 -1.01937 1.58916 0
M  V30 8885 O 864.21 -1.65237 0.774783 0
M  V30 8886 C 864.261 0.406391 3.59208 0
M  V30 8887 O 863.982 1.73286 4.02372 0
M  V30 8888 C 865.483 -0.0236894 4.43294 0
M  V30 8889 H 862.703 0.150133 0.653988 0
M  V30 8890 H 865.247 1.05781 1.75016 0
M  V30 8891 H 863.402 -0.241364 3.86647 0
M  V30 8892 H 863.816 1.67804 4.96933 0
M  V30 8893 H 865.29 0.0588205 5.51969 0
M  V30 8894 H 865.767 -1.07529 4.25833 0
M  V30 8895 H 866.373 0.59624 4.211 0
M  V30 8896 N 864.689 -1.48329 0.532571 0
M  V30 8897 C 865.935 -2.03399 0.00755104 0
M  V30 8898 C 866.29 -1.40213 -1.3175 0
M  V30 8899 O 865.583 -0.539633 -1.83844 0
M  V30 8900 C 865.777 -3.57 -0.168943 0
M  V30 8901 C 865.606 -4.35077 1.13745 0
M  V30 8902 C 864.376 -4.75915 1.69803 0
M  V30 8903 C 866.574 -4.71734 2.04869 0
M  V30 8904 N 864.556 -5.38538 2.94703 0
M  V30 8905 C 865.927 -5.34403 3.14346 0
M  V30 8906 C 867.982 -4.53665 2.05164 0
M  V30 8907 C 866.685 -5.80912 4.24186 0
M  V30 8908 C 868.711 -5.01157 3.13999 0
M  V30 8909 C 868.073 -5.63853 4.22195 0
M  V30 8910 H 864.172 -0.780743 0.0443253 0
M  V30 8911 H 866.756 -1.81119 0.714423 0
M  V30 8912 H 864.927 -3.79099 -0.844903 0
M  V30 8913 H 866.659 -3.98708 -0.693804 0
M  V30 8914 H 863.414 -4.57103 1.23909 0
M  V30 8915 H 863.838 -5.74413 3.583 0
M  V30 8916 H 868.48 -4.04571 1.22808 0
M  V30 8917 H 866.198 -6.2901 5.07318 0
M  V30 8918 H 869.784 -4.88965 3.15285 0
M  V30 8919 H 868.664 -5.99935 5.05023 0
M  V30 8920 N 866.167 -0.267825 -1.55308 0
M  V30 8921 C 867.413 0.34458 -2.0046 0
M  V30 8922 C 867.768 1.54028 -1.15296 0
M  V30 8923 O 867.061 1.90409 -0.213316 0
M  V30 8924 C 867.255 0.784247 -3.48689 0
M  V30 8925 C 867.084 -0.367304 -4.48197 0
M  V30 8926 C 865.854 -0.848746 -4.98121 0
M  V30 8927 C 868.052 -1.20136 -5.00072 0
M  V30 8928 N 866.034 -1.97052 -5.81415 0
M  V30 8929 C 867.405 -2.17115 -5.80742 0
M  V30 8930 C 869.46 -1.23553 -4.82327 0
M  V30 8931 C 868.163 -3.17248 -6.45559 0
M  V30 8932 C 870.189 -2.22527 -5.47938 0
M  V30 8933 C 869.551 -3.1824 -6.28413 0
M  V30 8934 H 865.65 0.091465 -0.776633 0
M  V30 8935 H 868.234 -0.390184 -1.9075 0
M  V30 8936 H 866.405 1.48825 -3.58756 0
M  V30 8937 H 868.137 1.37337 -3.80684 0
M  V30 8938 H 864.892 -0.429291 -4.7165 0
M  V30 8939 H 865.316 -2.53481 -6.27755 0
M  V30 8940 H 869.958 -0.50937 -4.1972 0
M  V30 8941 H 867.676 -3.90801 -7.07319 0
M  V30 8942 H 871.262 -2.25904 -5.36152 0
M  V30 8943 H 870.142 -3.93573 -6.78285 0
M  V30 8944 N 867.645 1.57599 0.00500368 0
M  V30 8945 C 868.608 2.07058 0.982832 0
M  V30 8946 C 869.608 0.979045 1.27559 0
M  V30 8947 O 870.798 1.24187 1.22161 0
M  V30 8948 C 867.93 2.50782 2.30914 0
M  V30 8949 H 869.123 2.94718 0.555119 0
M  V30 8950 H 866.676 1.54249 0.25237 0
M  V30 8951 H 867.411 1.66351 2.78385 0
M  V30 8952 H 867.196 3.30495 2.10987 0
M  V30 8953 H 868.686 2.89391 3.0107 0
M  V30 8954 N 869.123 -0.277682 1.55134 0
M  V30 8955 C 870.086 -1.32635 1.86924 0
M  V30 8956 C 871.086 -1.42578 0.743507 0
M  V30 8957 O 872.276 -1.4181 1.01171 0
M  V30 8958 C 869.408 -2.70832 2.07034 0
M  V30 8959 H 870.601 -1.0568 2.80663 0
M  V30 8960 H 868.154 -0.515517 1.47554 0
M  V30 8961 H 868.889 -3.02974 1.15661 0
M  V30 8962 H 868.674 -2.65001 2.88993 0
M  V30 8963 H 870.164 -3.46611 2.32918 0
M  V30 8964 N 870.601 -1.47988 -0.541979 0
M  V30 8965 C 871.531 -1.64503 -1.65713 0
M  V30 8966 C 872.512 -0.494116 -1.62765 0
M  V30 8967 O 873.697 -0.725256 -1.80149 0
M  V30 8968 C 870.827 -1.67337 -3.04328 0
M  V30 8969 C 869.781 -2.81809 -3.2213 0
M  V30 8970 C 869.107 -2.69724 -4.61685 0
M  V30 8971 C 870.407 -4.23241 -3.06046 0
M  V30 8972 H 872.101 -2.5786 -1.52147 0
M  V30 8973 H 869.647 -1.24094 -0.730529 0
M  V30 8974 H 871.6 -1.77481 -3.82202 0
M  V30 8975 H 870.324 -0.705514 -3.18889 0
M  V30 8976 H 868.983 -2.71201 -2.46669 0
M  V30 8977 H 868.631 -1.70934 -4.73065 0
M  V30 8978 H 868.331 -3.4653 -4.74543 0
M  V30 8979 H 869.855 -2.81818 -5.41674 0
M  V30 8980 H 871.269 -4.34746 -3.73723 0
M  V30 8981 H 869.666 -5.00952 -3.30405 0
M  V30 8982 H 870.736 -4.40543 -2.02609 0
M  V30 8983 N 872.079 0.78992 -1.36375 0
M  V30 8984 C 873.328 1.54296 -1.29906 0
M  V30 8985 C 873.641 1.95234 0.119651 0
M  V30 8986 O 874.847 2.69762 0.306708 0
M  V30 8987 C 873.303 2.78533 -2.27919 0
M  V30 8988 C 872.911 2.44767 -3.75224 0
M  V30 8989 C 874.655 3.56516 -2.30427 0
M  V30 8990 C 872.562 3.65397 -4.65015 0
M  V30 8991 H 871.492 0.579214 -0.482729 0
M  V30 8992 H 874.143 0.866845 -1.61735 0
M  V30 8993 H 872.525 3.47941 -1.89084 0
M  V30 8994 H 873.699 1.83259 -4.22792 0
M  V30 8995 H 872.014 1.79996 -3.75487 0
M  V30 8996 H 874.611 4.46143 -2.94722 0
M  V30 8997 H 874.954 3.95063 -1.31266 0
M  V30 8998 H 875.487 2.94087 -2.67876 0
M  V30 8999 H 872.226 3.31946 -5.65236 0
M  V30 9000 H 871.746 4.26072 -4.22164 0
M  V30 9001 H 873.425 4.32431 -4.81261 0
M  V30 9002 N 873.557 1.20646 1.01402 0
M  V30 9003 C 874.52 0.959314 2.08158 0
M  V30 9004 C 875.52 -0.0661558 1.60664 0
M  V30 9005 O 876.71 0.170177 1.73367 0
M  V30 9006 C 873.842 0.444785 3.37986 0
M  V30 9007 H 875.035 1.90631 2.31517 0
M  V30 9008 H 872.588 1.02219 1.18241 0
M  V30 9009 H 873.323 -0.507553 3.20304 0
M  V30 9010 H 873.108 1.18435 3.73785 0
M  V30 9011 H 874.598 0.291443 4.16582 0
M  V30 9012 N 875.035 -1.20752 1.01276 0
M  V30 9013 C 876.284 -1.8934 0.695229 0
M  V30 9014 C 876.597 -1.79459 -0.77806 0
M  V30 9015 O 877.803 -2.43146 -1.20799 0
M  V30 9016 C 876.259 -3.39548 1.1931 0
M  V30 9017 C 875.867 -3.58023 2.69302 0
M  V30 9018 C 877.611 -4.13714 0.950823 0
M  V30 9019 C 875.518 -5.02037 3.1259 0
M  V30 9020 H 874.448 -0.709084 0.25635 0
M  V30 9021 H 877.099 -1.36629 1.22494 0
M  V30 9022 H 875.481 -3.91559 0.591395 0
M  V30 9023 H 876.655 -3.16416 3.34989 0
M  V30 9024 H 874.97 -2.97222 2.9163 0
M  V30 9025 H 877.567 -5.19891 1.24971 0
M  V30 9026 H 877.91 -4.16147 -0.112791 0
M  V30 9027 H 878.443 -3.67792 1.51571 0
M  V30 9028 H 875.182 -5.04757 4.18211 0
M  V30 9029 H 874.702 -5.44469 2.51621 0
M  V30 9030 H 876.381 -5.70594 3.0501 0
M  V30 9031 N 876.513 -0.788492 -1.36457 0
M  V30 9032 C 877.761 -0.359749 -1.98872 0
M  V30 9033 C 878.082 1.07197 -1.62892 0
M  V30 9034 O 877.352 1.73875 -0.902463 0
M  V30 9035 H 875.932 -0.130029 -0.735596 0
M  V30 9036 H 878.594 -1.01033 -1.66668 0
M  V30 9037 H 877.69 -0.450835 -3.08827 0
M  V30 9038 N 877.991 1.48044 -0.54043 0
M  V30 9039 C 879.237 2.02797 -0.0101718 0
M  V30 9040 C 879.57 1.41565 1.32939 0
M  V30 9041 O 878.845 0.565139 1.86109 0
M  V30 9042 C 879.128 3.59959 0.100758 0
M  V30 9043 C 878.981 4.31654 -1.26471 0
M  V30 9044 C 880.3 4.32347 0.822455 0
M  V30 9045 H 877.419 0.736982 -0.00517052 0
M  V30 9046 H 880.061 1.76656 -0.69948 0
M  V30 9047 H 878.211 3.82363 0.687824 0
M  V30 9048 H 879.883 4.20639 -1.89369 0
M  V30 9049 H 878.126 3.92663 -1.84386 0
M  V30 9050 H 878.797 5.401 -1.13998 0
M  V30 9051 H 881.273 4.14835 0.324164 0
M  V30 9052 H 880.149 5.41978 0.868993 0
M  V30 9053 H 880.41 4.00369 1.87501 0
M  V30 9054 N 879.47 0.276058 1.55163 0
M  V30 9055 C 880.716 -0.340959 1.99913 0
M  V30 9056 C 881.049 -1.55434 1.16422 0
M  V30 9057 O 880.324 -1.93081 0.234517 0
M  V30 9058 C 880.607 -0.722211 3.52783 0
M  V30 9059 C 880.46 0.498575 4.47028 0
M  V30 9060 C 881.779 -1.5583 4.11589 0
M  V30 9061 H 878.898 -0.122455 0.726756 0
M  V30 9062 H 881.54 0.38319 1.86096 0
M  V30 9063 H 879.69 -1.33919 3.64689 0
M  V30 9064 H 881.362 1.13713 4.47065 0
M  V30 9065 H 879.605 1.13646 4.18649 0
M  V30 9066 H 880.276 0.188041 5.5168 0
M  V30 9067 H 882.752 -1.03722 4.02965 0
M  V30 9068 H 881.628 -1.79387 5.1876 0
M  V30 9069 H 881.889 -2.53963 3.61877 0
M  V30 9070 N 880.948 -1.576 0.00335426 0
M  V30 9071 C 881.878 -2.11668 -0.985839 0
M  V30 9072 C 882.859 -1.02661 -1.35627 0
M  V30 9073 O 884.044 -1.30361 -1.43943 0
M  V30 9074 C 881.174 -2.62273 -2.27662 0
M  V30 9075 C 880.128 -3.75837 -2.0477 0
M  V30 9076 C 879.454 -4.12769 -3.39891 0
M  V30 9077 C 880.754 -5.02975 -1.40759 0
M  V30 9078 H 882.448 -2.9457 -0.535637 0
M  V30 9079 H 879.994 -1.41702 -0.256204 0
M  V30 9080 H 881.947 -2.98727 -2.97221 0
M  V30 9081 H 880.671 -1.76498 -2.74802 0
M  V30 9082 H 879.33 -3.39782 -1.37636 0
M  V30 9083 H 878.978 -3.24013 -3.8474 0
M  V30 9084 H 878.678 -4.89281 -3.25389 0
M  V30 9085 H 880.202 -4.51784 -4.1076 0
M  V30 9086 H 881.616 -5.37179 -2.00279 0
M  V30 9087 H 880.013 -5.84315 -1.36734 0
M  V30 9088 H 881.083 -4.83431 -0.377218 0
M  V30 9089 N 882.426 0.269451 -1.5528 0
M  V30 9090 C 883.673 1.00058 -1.76053 0
M  V30 9091 C 884.001 1.86156 -0.563592 0
M  V30 9092 O 883.256 1.90366 0.453806 0
M  V30 9093 C 883.555 1.91 -3.02082 0
M  V30 9094 C 883.221 1.20623 -4.34466 0
M  V30 9095 C 881.883 1.01165 -4.70446 0
M  V30 9096 C 884.235 0.705695 -5.164 0
M  V30 9097 C 881.563 0.303865 -5.85913 0
M  V30 9098 C 883.915 0.0114838 -6.32599 0
M  V30 9099 C 882.579 -0.19478 -6.67216 0
M  V30 9100 H 881.849 0.366138 -0.644223 0
M  V30 9101 H 884.496 0.272563 -1.8955 0
M  V30 9102 H 882.801 2.70435 -2.835 0
M  V30 9103 H 884.498 2.47698 -3.15352 0
M  V30 9104 H 881.088 1.36781 -4.06188 0
M  V30 9105 H 885.272 0.84364 -4.89077 0
M  V30 9106 H 880.528 0.133368 -6.11255 0
M  V30 9107 H 884.702 -0.384111 -6.9534 0
M  V30 9108 H 882.329 -0.745201 -7.56539 0
M  V30 9109 N 883.904 1.48273 0.534124 0
M  V30 9110 C 884.834 1.6538 1.64839 0
M  V30 9111 C 885.815 0.502741 1.62501 0
M  V30 9112 O 887 0.734799 1.79762 0
M  V30 9113 C 884.13 1.68949 3.03436 0
M  V30 9114 C 883.084 2.83513 3.20631 0
M  V30 9115 C 882.41 2.72169 4.60248 0
M  V30 9116 C 883.71 4.24858 3.03797 0
M  V30 9117 H 885.404 2.58663 1.50777 0
M  V30 9118 H 882.95 1.24479 0.723937 0
M  V30 9119 H 884.903 1.79505 3.81256 0
M  V30 9120 H 883.627 0.722415 3.1851 0
M  V30 9121 H 882.286 2.72505 2.45227 0
M  V30 9122 H 881.934 1.7344 4.72152 0
M  V30 9123 H 881.634 3.49042 4.72698 0
M  V30 9124 H 883.158 2.84687 5.40172 0
M  V30 9125 H 884.572 4.36721 3.71413 0
M  V30 9126 H 882.969 5.02697 3.27743 0
M  V30 9127 H 884.039 4.41611 2.0027 0
M  V30 9128 N 885.382 -0.782676 1.36792 0
M  V30 9129 C 886.312 -1.90973 1.34356 0
M  V30 9130 C 887.293 -1.6875 0.213917 0
M  V30 9131 O 888.478 -1.89766 0.412601 0
M  V30 9132 C 885.608 -3.28097 1.13884 0
M  V30 9133 C 884.562 -3.6486 2.23744 0
M  V30 9134 C 883.888 -5.00406 1.88408 0
M  V30 9135 C 885.188 -3.72742 3.6587 0
M  V30 9136 H 886.882 -1.93268 2.28665 0
M  V30 9137 H 884.428 -0.928447 1.10072 0
M  V30 9138 H 886.381 -4.06569 1.10813 0
M  V30 9139 H 885.105 -3.26206 0.160275 0
M  V30 9140 H 883.764 -2.88689 2.25952 0
M  V30 9141 H 883.412 -4.95044 0.891083 0
M  V30 9142 H 883.112 -5.25973 2.61966 0
M  V30 9143 H 884.636 -5.81291 1.86905 0
M  V30 9144 H 886.05 -4.4139 3.65852 0
M  V30 9145 H 884.447 -4.09798 4.38389 0
M  V30 9146 H 885.517 -2.73676 4.00287 0
M  V30 9147 N 886.86 -1.21182 -1.00761 0
M  V30 9148 C 887.79 -0.992773 -2.11344 0
M  V30 9149 C 888.771 0.0813618 -1.69905 0
M  V30 9150 O 889.956 -0.0779503 -1.94043 0
M  V30 9151 C 887.086 -0.553826 -3.42856 0
M  V30 9152 C 886.04 -1.57223 -3.98077 0
M  V30 9153 C 885.366 -0.989605 -5.25463 0
M  V30 9154 C 886.666 -2.95839 -4.30438 0
M  V30 9155 H 888.36 -1.91766 -2.29927 0
M  V30 9156 H 885.906 -0.923426 -1.10494 0
M  V30 9157 H 887.859 -0.387771 -4.19612 0
M  V30 9158 H 886.583 0.406702 -3.24058 0
M  V30 9159 H 885.242 -1.7258 -3.23437 0
M  V30 9160 H 884.89 -0.0208743 -5.02996 0
M  V30 9161 H 884.59 -1.66984 -5.63374 0
M  V30 9162 H 886.114 -0.834815 -6.04866 0
M  V30 9163 H 887.528 -2.8394 -4.98047 0
M  V30 9164 H 885.925 -3.60851 -4.79486 0
M  V30 9165 H 886.995 -3.46882 -3.38823 0
M  V30 9166 N 888.338 1.20213 -1.01915 0
M  V30 9167 C 889.568 1.93341 -0.728197 0
M  V30 9168 C 889.976 1.75151 0.715454 0
M  V30 9169 O 889.319 1.06437 1.49722 0
M  V30 9170 C 889.381 3.45677 -0.9873 0
M  V30 9171 C 889.045 3.8763 -2.42057 0
M  V30 9172 C 890.042 3.93184 -3.40151 0
M  V30 9173 C 887.727 4.19547 -2.76199 0
M  V30 9174 C 889.721 4.30069 -4.70446 0
M  V30 9175 C 887.408 4.56106 -4.06707 0
M  V30 9176 C 888.406 4.6134 -5.03641 0
M  V30 9177 O 888.094 4.97059 -6.31813 0
M  V30 9178 H 887.826 0.621258 -0.266485 0
M  V30 9179 H 890.38 1.53577 -1.36393 0
M  V30 9180 H 888.61 3.85578 -0.294405 0
M  V30 9181 H 890.299 4.00035 -0.687536 0
M  V30 9182 H 891.065 3.68687 -3.15111 0
M  V30 9183 H 886.944 4.14663 -2.01434 0
M  V30 9184 H 890.488 4.34069 -5.46105 0
M  V30 9185 H 886.385 4.80059 -4.31525 0
M  V30 9186 H 887.153 5.15043 -6.36139 0
M  V30 9187 N 889.816 0.795718 1.36037 0
M  V30 9188 C 891.062 0.371574 1.99367 0
M  V30 9189 C 891.395 -1.0557 1.62999 0
M  V30 9190 O 890.67 -1.73051 0.887895 0
M  V30 9191 C 890.953 0.542622 3.55988 0
M  V30 9192 C 890.806 2.01404 4.0219 0
M  V30 9193 C 892.125 -0.0384527 4.40083 0
M  V30 9194 H 889.244 0.136483 0.724252 0
M  V30 9195 H 891.886 1.00323 1.61355 0
M  V30 9196 H 890.036 0.0049053 3.885 0
M  V30 9197 H 891.708 2.6133 3.80137 0
M  V30 9198 H 889.951 2.51439 3.53498 0
M  V30 9199 H 890.622 2.08466 5.11122 0
M  V30 9200 H 893.098 0.420634 4.13968 0
M  V30 9201 H 891.974 0.111214 5.48787 0
M  V30 9202 H 892.235 -1.13116 4.27384 0
M  V30 9203 N 891.294 -1.47756 0.548274 0
M  V30 9204 C 892.543 -2.01691 0.0187961 0
M  V30 9205 C 892.856 -1.42894 -1.33569 0
M  V30 9206 O 894.062 -1.88438 -1.95457 0
M  V30 9207 C 892.518 -3.59896 -0.016847 0
M  V30 9208 C 892.126 -4.27683 1.33385 0
M  V30 9209 C 893.87 -4.21614 -0.494188 0
M  V30 9210 C 891.777 -5.7787 1.2578 0
M  V30 9211 H 890.707 -0.753993 0.00325648 0
M  V30 9212 H 893.358 -1.69838 0.694792 0
M  V30 9213 H 891.74 -3.88672 -0.758304 0
M  V30 9214 H 892.914 -4.10559 2.09232 0
M  V30 9215 H 891.229 -3.77915 1.7484 0
M  V30 9216 H 893.826 -5.3166 -0.569342 0
M  V30 9217 H 894.169 -3.88176 -1.50417 0
M  V30 9218 H 894.702 -3.97336 0.192138 0
M  V30 9219 H 891.441 -6.15912 2.2435 0
M  V30 9220 H 890.961 -5.97355 0.540997 0
M  V30 9221 H 892.64 -6.39897 0.956109 0
M  V30 9222 N 892.772 -0.284283 -1.55015 0
M  V30 9223 C 894.002 0.332465 -2.03907 0
M  V30 9224 C 894.41 1.49331 -1.16177 0
M  V30 9225 O 893.753 1.82851 -0.176395 0
M  V30 9226 C 893.815 0.867193 -3.48884 0
M  V30 9227 C 893.479 -0.166198 -4.56698 0
M  V30 9228 C 894.476 -0.988898 -5.10408 0
M  V30 9229 C 892.161 -0.303081 -5.01385 0
M  V30 9230 C 894.155 -1.93458 -6.07333 0
M  V30 9231 C 891.842 -1.25223 -5.98133 0
M  V30 9232 C 892.84 -2.06647 -6.50988 0
M  V30 9233 O 892.528 -2.99955 -7.45843 0
M  V30 9234 H 892.26 0.0786597 -0.671408 0
M  V30 9235 H 894.814 -0.416871 -2.01125 0
M  V30 9236 H 893.044 1.66676 -3.48935 0
M  V30 9237 H 894.733 1.39802 -3.81065 0
M  V30 9238 H 895.499 -0.89393 -4.76691 0
M  V30 9239 H 891.378 0.320711 -4.59883 0
M  V30 9240 H 894.922 -2.57053 -6.48513 0
M  V30 9241 H 890.819 -1.34798 -6.31268 0
M  V30 9242 H 891.587 -2.94742 -7.6359 0
M  V30 9243 N 894.251 1.57596 -0.0117121 0
M  V30 9244 C 895.198 2.09153 0.975897 0
M  V30 9245 C 896.168 0.989579 1.33404 0
M  V30 9246 O 897.353 1.26273 1.43038 0
M  V30 9247 C 894.493 2.60906 2.2588 0
M  V30 9248 C 893.606 3.85046 1.95866 0
M  V30 9249 C 892.741 4.25257 3.18323 0
M  V30 9250 C 891.78 5.42202 2.84049 0
M  V30 9251 N 890.917 5.77651 3.99079 0
M  V30 9252 H 895.757 2.93261 0.52931 0
M  V30 9253 H 893.294 1.44965 0.249691 0
M  V30 9254 H 895.252 2.88995 3.00895 0
M  V30 9255 H 893.882 1.79654 2.68187 0
M  V30 9256 H 892.934 3.63794 1.11168 0
M  V30 9257 H 894.246 4.70151 1.66611 0
M  V30 9258 H 893.4 4.5469 4.01674 0
M  V30 9259 H 892.139 3.38884 3.50726 0
M  V30 9260 H 891.144 5.1248 1.99107 0
M  V30 9261 H 892.369 6.3026 2.52881 0
M  V30 9262 H 890.315 4.94235 4.31356 0
M  V30 9263 H 890.232 6.57356 3.73388 0
M  V30 9264 H 891.5 6.11681 4.83183 0
M  V30 9265 N 895.729 -0.261212 1.5542 0
M  V30 9266 C 896.676 -1.32315 1.89107 0
M  V30 9267 C 897.646 -1.48517 0.743767 0
M  V30 9268 O 898.831 -1.62733 0.996123 0
M  V30 9269 C 895.971 -2.67626 2.17877 0
M  V30 9270 C 895.084 -2.59549 3.45338 0
M  V30 9271 C 894.219 -3.87118 3.63748 0
M  V30 9272 C 893.258 -3.736 4.8486 0
M  V30 9273 N 892.395 -4.93029 4.99867 0
M  V30 9274 H 897.235 -1.02886 2.79675 0
M  V30 9275 H 894.772 -0.496812 1.38456 0
M  V30 9276 H 896.73 -3.4637 2.32559 0
M  V30 9277 H 895.36 -2.95232 1.30529 0
M  V30 9278 H 894.412 -1.72452 3.39064 0
M  V30 9279 H 895.724 -2.45465 4.34222 0
M  V30 9280 H 894.878 -4.74305 3.78312 0
M  V30 9281 H 893.617 -4.04084 2.73071 0
M  V30 9282 H 892.622 -2.84797 4.70288 0
M  V30 9283 H 893.847 -3.58143 5.76984 0
M  V30 9284 H 891.793 -5.10383 4.12123 0
M  V30 9285 H 891.71 -4.81521 5.82815 0
M  V30 9286 H 892.978 -5.81754 5.18828 0
M  V30 9287 N 897.207 -1.48554 -0.526253 0
M  V30 9288 C 898.618 -1.50256 -1.10815 0
M  V30 9289 C 898.969 -0.274445 -1.94271 0
M  V30 9290 O 898.094 0.618094 -2.07385 0
M  V30 9291 C 898.689 -2.72264 -2.01638 0
M  V30 9292 C 897.248 -2.76826 -2.55038 0
M  V30 9293 C 896.395 -2.43823 -1.32081 0
M  V30 9294 H 899.346 -1.55616 -0.31133 0
M  V30 9295 H 899.367 -2.50993 -2.85977 0
M  V30 9296 H 898.879 -3.61632 -1.4087 0
M  V30 9297 H 896.98 -1.91676 -3.19517 0
M  V30 9298 H 897.093 -3.78351 -2.93917 0
M  V30 9299 H 895.457 -1.95058 -1.63781 0
M  V30 9300 H 896.24 -3.35436 -0.730596 0
M  V30 9301 N 898.685 0.775411 -1.37205 0
M  V30 9302 C 899.595 1.91967 -1.34855 0
M  V30 9303 C 900.611 1.72214 -0.248656 0
M  V30 9304 O 901.787 1.95512 -0.483421 0
M  V30 9305 C 898.852 3.27038 -1.15096 0
M  V30 9306 C 897.913 3.5947 -2.34691 0
M  V30 9307 C 897.146 4.88097 -2.15865 0
M  V30 9308 O 897.369 5.58871 -1.14102 0
M  V30 9309 O 896.303 5.19507 -3.03967 0
M  V30 9310 H 900.129 1.969 -2.31223 0
M  V30 9311 H 897.714 0.917647 -1.17897 0
M  V30 9312 H 899.596 4.07837 -1.0605 0
M  V30 9313 H 898.271 3.22965 -0.217999 0
M  V30 9314 H 897.178 2.7892 -2.49308 0
M  V30 9315 H 898.511 3.68282 -3.26541 0
M  V30 9316 N 900.163 1.21714 1.00117 0
M  V30 9317 C 901.409 1.03823 1.74208 0
M  V30 9318 C 901.742 -0.426733 1.89454 0
M  V30 9319 O 901.017 -1.31658 1.43166 0
M  V30 9320 C 901.3 1.74047 3.15246 0
M  V30 9321 C 901.153 3.28087 3.077 0
M  V30 9322 C 902.472 1.48614 4.14249 0
M  V30 9323 H 899.591 0.378573 0.632338 0
M  V30 9324 H 902.233 1.49942 1.16694 0
M  V30 9325 H 900.383 1.3484 3.64349 0
M  V30 9326 H 902.055 3.76686 2.6628 0
M  V30 9327 H 900.298 3.58191 2.44707 0
M  V30 9328 H 900.969 3.72392 4.07466 0
M  V30 9329 H 903.445 1.82656 3.73866 0
M  V30 9330 H 902.321 2.00257 5.11066 0
M  V30 9331 H 902.582 0.416957 4.40129 0
M  V30 9332 N 901.641 -1.19671 1.02551 0
M  V30 9333 C 902.589 -2.24812 0.596867 0
M  V30 9334 C 903.583 -1.65336 -0.368839 0
M  V30 9335 O 904.789 -1.78422 -0.237786 0
M  V30 9336 H 901.164 -0.731417 0.174739 0
M  V30 9337 H 903.135 -2.58286 1.49435 0
M  V30 9338 C 901.884 -3.47677 -0.0399514 0
M  V30 9339 H 901.207 -3.93728 0.694153 0
M  V30 9340 H 902.647 -4.22917 -0.302861 0
M  V30 9341 C 901.106 -3.11411 -1.2855 0
M  V30 9342 O 901.636 -3.23757 -2.37791 0
M  V30 9343 N 899.842 -2.65875 -1.17297 0
M  V30 9344 H 899.389 -2.56029 -0.284045 0
M  V30 9345 H 899.347 -2.41981 -2.00731 0
M  V30 9346 N 903.119 -0.802921 -1.35613 0
M  V30 9347 C 904.365 -0.391259 -1.99601 0
M  V30 9348 C 904.72 1.02922 -1.62557 0
M  V30 9349 O 904.013 1.70357 -0.876878 0
M  V30 9350 C 904.207 -0.507806 -3.53774 0
M  V30 9351 C 904.036 -1.93807 -4.05794 0
M  V30 9352 C 902.806 -2.56564 -4.3532 0
M  V30 9353 C 905.004 -2.90211 -4.24596 0
M  V30 9354 N 902.986 -3.91038 -4.73247 0
M  V30 9355 C 904.357 -4.09548 -4.65479 0
M  V30 9356 C 906.412 -2.87091 -4.06796 0
M  V30 9357 C 905.115 -5.26191 -4.90424 0
M  V30 9358 C 907.141 -4.02933 -4.32896 0
M  V30 9359 C 906.503 -5.21017 -4.74047 0
M  V30 9360 H 902.602 -0.190867 -0.758349 0
M  V30 9361 H 905.186 -1.04338 -1.64382 0
M  V30 9362 H 903.357 0.114306 -3.88232 0
M  V30 9363 H 905.089 -0.0710855 -4.04638 0
M  V30 9364 H 901.844 -2.07945 -4.25507 0
M  V30 9365 H 902.268 -4.60262 -4.96475 0
M  V30 9366 H 906.91 -1.96951 -3.74126 0
M  V30 9367 H 904.628 -6.16906 -5.2197 0
M  V30 9368 H 908.214 -4.01895 -4.2068 0
M  V30 9369 H 907.094 -6.09165 -4.93849 0
M  V30 9370 N 904.597 1.47463 -0.556102 0
M  V30 9371 C 905.845 2.02075 -0.0315712 0
M  V30 9372 C 906.166 1.43292 1.32259 0
M  V30 9373 O 905.436 0.60771 1.86236 0
M  V30 9374 H 904.016 0.74695 -0.0086816 0
M  V30 9375 H 906.678 1.80879 -0.725859 0
M  V30 9376 H 905.774 3.12047 0.0573538 0
M  V30 9377 N 906.075 0.2925 1.54862 0
M  V30 9378 C 907.3 -0.32494 2.04839 0
M  V30 9379 C 907.725 -1.47381 1.16877 0
M  V30 9380 O 907.083 -1.80492 0.171028 0
M  V30 9381 C 907.131 -0.76694 3.5235 0
M  V30 9382 O 906.235 -1.87256 3.67436 0
M  V30 9383 H 905.576 -0.0645195 0.660858 0
M  V30 9384 H 908.106 0.431867 1.9999 0
M  V30 9385 H 908.116 -1.05804 3.94043 0
M  V30 9386 H 906.791 0.0735212 4.15835 0
M  V30 9387 H 905.368 -1.58266 3.37648 0
M  V30 9388 N 907.553 -1.57587 0.0200696 0
M  V30 9389 C 908.778 -1.96124 -0.674547 0
M  V30 9390 C 909.203 -0.896068 -1.65385 0
M  V30 9391 O 908.561 0.143925 -1.80728 0
M  V30 9392 C 908.609 -3.3376 -1.36517 0
M  V30 9393 O 907.713 -3.29483 -2.48022 0
M  V30 9394 H 907.054 -0.639719 -0.177919 0
M  V30 9395 H 909.584 -2.04447 0.0792317 0
M  V30 9396 H 909.594 -3.69785 -1.72403 0
M  V30 9397 H 908.269 -4.10832 -0.647265 0
M  V30 9398 H 906.846 -3.05162 -2.14314 0
M  V30 9399 N 909.032 0.252966 -1.55557 0
M  V30 9400 C 910.278 0.983306 -1.77367 0
M  V30 9401 C 910.611 1.85203 -0.584258 0
M  V30 9402 O 909.886 1.89963 0.417644 0
M  V30 9403 C 910.169 1.84896 -3.09007 0
M  V30 9404 C 910.022 1.00883 -4.38341 0
M  V30 9405 C 911.341 2.83254 -3.36831 0
M  V30 9406 H 908.46 0.356056 -0.645286 0
M  V30 9407 H 911.102 0.254232 -1.88291 0
M  V30 9408 H 909.252 2.47058 -2.99825 0
M  V30 9409 H 910.924 0.40638 -4.59507 0
M  V30 9410 H 909.167 0.31297 -4.3267 0
M  V30 9411 H 909.838 1.64818 -5.2682 0
M  V30 9412 H 912.314 2.31228 -3.45937 0
M  V30 9413 H 911.19 3.40949 -4.30169 0
M  V30 9414 H 911.451 3.59407 -2.57447 0
M  V30 9415 N 910.51 1.48831 0.518367 0
M  V30 9416 C 911.442 1.60317 1.63802 0
M  V30 9417 C 912.455 0.486771 1.55352 0
M  V30 9418 O 913.644 0.758111 1.61601 0
M  V30 9419 C 910.744 1.52771 3.02513 0
M  V30 9420 C 909.917 2.79649 3.36326 0
M  V30 9421 C 908.976 2.65396 4.54369 0
M  V30 9422 O 908.002 3.39304 4.57013 0
M  V30 9423 N 909.204 1.75784 5.53245 0
M  V30 9424 H 911.969 2.56878 1.54383 0
M  V30 9425 H 909.53 1.45701 0.705889 0
M  V30 9426 H 911.522 1.40914 3.79375 0
M  V30 9427 H 910.092 0.641381 3.05949 0
M  V30 9428 H 909.312 3.05985 2.48529 0
M  V30 9429 H 910.6 3.63799 3.55707 0
M  V30 9430 H 909.998 1.14961 5.53896 0
M  V30 9431 H 908.555 1.69859 6.29278 0
M  V30 9432 N 911.988 -0.768124 1.37614 0
M  V30 9433 C 912.951 -1.86314 1.3349 0
M  V30 9434 C 913.951 -1.59025 0.23823 0
M  V30 9435 O 915.141 -1.6704 0.494288 0
M  V30 9436 C 912.273 -3.23519 1.07462 0
M  V30 9437 H 913.466 -1.91382 2.30896 0
M  V30 9438 H 911.019 -0.968267 1.22696 0
M  V30 9439 H 911.754 -3.24127 0.106028 0
M  V30 9440 H 911.539 -3.44719 1.86846 0
M  V30 9441 H 913.029 -4.03597 1.07236 0
M  V30 9442 N 913.466 -1.22244 -0.994698 0
M  V30 9443 C 914.714 -1.04384 -1.73056 0
M  V30 9444 C 915.035 0.422204 -1.90374 0
M  V30 9445 O 914.305 1.30383 -1.46209 0
M  V30 9446 H 912.885 -0.383263 -0.641185 0
M  V30 9447 H 915.547 -1.53725 -1.1981 0
M  V30 9448 H 914.643 -1.52021 -2.72573 0
M  V30 9449 N 914.944 1.19125 -1.03184 0
M  V30 9450 C 916.169 1.93379 -0.749628 0
M  V30 9451 C 916.594 1.75153 0.685785 0
M  V30 9452 O 915.952 1.05579 1.47386 0
M  V30 9453 C 916 3.43101 -1.1097 0
M  V30 9454 O 915.104 4.11758 -0.230053 0
M  V30 9455 H 914.445 0.603605 -0.276689 0
M  V30 9456 H 916.975 1.51116 -1.37931 0
M  V30 9457 H 916.985 3.93778 -1.06785 0
M  V30 9458 H 915.66 3.55688 -2.15544 0
M  V30 9459 H 914.237 3.7143 -0.330748 0
M  V30 9460 N 916.422 0.810101 1.35185 0
M  V30 9461 C 917.652 0.404109 2.02609 0
M  V30 9462 C 918.06 -0.990748 1.61186 0
M  V30 9463 O 917.403 -1.65038 0.80674 0
M  V30 9464 C 917.465 0.412047 3.57131 0
M  V30 9465 C 917.129 1.75802 4.21832 0
M  V30 9466 C 918.126 2.71687 4.43263 0
M  V30 9467 C 915.811 2.04299 4.58876 0
M  V30 9468 C 917.805 3.9425 5.00845 0
M  V30 9469 C 915.492 3.27125 5.16171 0
M  V30 9470 C 916.49 4.21918 5.37098 0
M  V30 9471 O 916.178 5.42576 5.93184 0
M  V30 9472 H 915.91 0.161914 0.656323 0
M  V30 9473 H 918.464 1.09605 1.73712 0
M  V30 9474 H 916.694 -0.336509 3.85233 0
M  V30 9475 H 918.383 0.0278817 4.0589 0
M  V30 9476 H 919.149 2.50964 4.15021 0
M  V30 9477 H 915.028 1.31324 4.41899 0
M  V30 9478 H 918.572 4.68251 5.17094 0
M  V30 9479 H 914.469 3.47718 5.43841 0
M  V30 9480 H 915.237 5.43921 6.11631 0
M  V30 9481 N 917.9 -1.47166 0.563914 0
M  V30 9482 C 918.848 -2.31798 -0.193009 0
M  V30 9483 C 919.842 -1.43338 -0.902805 0
M  V30 9484 O 921.048 -1.60067 -0.823328 0
M  V30 9485 H 917.423 -0.747613 -0.0811139 0
M  V30 9486 H 919.394 -2.93476 0.539876 0
M  V30 9487 C 918.143 -3.26131 -1.20555 0
M  V30 9488 H 917.466 -3.94166 -0.668803 0
M  V30 9489 H 918.906 -3.88167 -1.70593 0
M  V30 9490 C 917.365 -2.50132 -2.25689 0
M  V30 9491 O 917.895 -2.25064 -3.3273 0
M  V30 9492 N 916.101 -2.11022 -1.99795 0
M  V30 9493 H 915.648 -2.3161 -1.1276 0
M  V30 9494 H 915.606 -1.60489 -2.70353 0
M  V30 9495 N 919.378 -0.300708 -1.54705 0
M  V30 9496 C 920.308 0.568675 -2.26469 0
M  V30 9497 C 921.289 1.13817 -1.26411 0
M  V30 9498 O 922.474 1.16756 -1.55183 0
M  V30 9499 C 919.604 1.74077 -3.00524 0
M  V30 9500 C 918.558 1.30165 -4.07727 0
M  V30 9501 C 917.884 2.55888 -4.69495 0
M  V30 9502 C 919.184 0.433106 -5.20501 0
M  V30 9503 H 920.878 -0.0298851 -2.99385 0
M  V30 9504 H 918.424 -0.0158135 -1.43991 0
M  V30 9505 H 920.377 2.35506 -3.49449 0
M  V30 9506 H 919.101 2.36556 -2.25186 0
M  V30 9507 H 917.76 0.710414 -3.59651 0
M  V30 9508 H 917.408 3.16681 -3.90797 0
M  V30 9509 H 917.108 2.27207 -5.41895 0
M  V30 9510 H 918.632 3.18121 -5.21183 0
M  V30 9511 H 920.046 0.95307 -5.65322 0
M  V30 9512 H 918.443 0.240085 -5.9962 0
M  V30 9513 H 919.513 -0.541866 -4.81863 0
M  V30 9514 N 920.856 1.57574 -0.0284266 0
M  V30 9515 C 921.819 2.09096 0.938691 0
M  V30 9516 C 922.819 1.00588 1.25454 0
M  V30 9517 O 924.009 1.2675 1.19499 0
M  V30 9518 C 921.141 2.55624 2.25542 0
M  V30 9519 H 922.334 2.95829 0.49248 0
M  V30 9520 H 919.887 1.5475 0.219594 0
M  V30 9521 H 920.622 1.72218 2.74793 0
M  V30 9522 H 920.407 3.34896 2.03929 0
M  V30 9523 H 921.897 2.95712 2.94863 0
M  V30 9524 N 922.334 -0.244713 1.55689 0
M  V30 9525 C 923.264 -1.30667 1.93516 0
M  V30 9526 C 924.245 -1.50094 0.800371 0
M  V30 9527 O 925.43 -1.62665 1.06083 0
M  V30 9528 C 922.56 -2.66101 2.23176 0
M  V30 9529 C 921.514 -2.61366 3.38927 0
M  V30 9530 C 920.84 -4.00616 3.54134 0
M  V30 9531 C 922.14 -2.18161 4.74555 0
M  V30 9532 H 923.834 -0.992546 2.82469 0
M  V30 9533 H 921.38 -0.476018 1.35905 0
M  V30 9534 H 923.333 -3.4053 2.48228 0
M  V30 9535 H 922.057 -2.99154 1.31051 0
M  V30 9536 H 920.716 -1.89395 3.13887 0
M  V30 9537 H 920.364 -4.30938 2.59426 0
M  V30 9538 H 920.064 -3.98335 4.31975 0
M  V30 9539 H 921.588 -4.76741 3.8151 0
M  V30 9540 H 923.002 -2.82323 4.98965 0
M  V30 9541 H 921.399 -2.26988 5.55515 0
M  V30 9542 H 922.469 -1.13333 4.7147 0
M  V30 9543 N 923.813 -1.49104 -0.510467 0
M  V30 9544 C 925.038 -1.62068 -1.29417 0
M  V30 9545 C 925.463 -0.288432 -1.85875 0
M  V30 9546 O 924.821 0.742667 -1.65391 0
M  V30 9547 C 924.869 -2.68506 -2.40701 0
M  V30 9548 O 923.973 -2.27021 -3.4429 0
M  V30 9549 H 923.314 -0.542778 -0.382476 0
M  V30 9550 H 925.844 -1.95228 -0.612154 0
M  V30 9551 H 925.854 -2.90383 -2.86604 0
M  V30 9552 H 924.529 -3.65216 -1.98973 0
M  V30 9553 H 923.106 -2.15436 -3.04371 0
M  V30 9554 N 925.291 0.760815 -1.38019 0
M  V30 9555 C 926.521 1.54776 -1.3685 0
M  V30 9556 C 926.929 1.89146 0.0453971 0
M  V30 9557 O 926.272 1.52746 1.0205 0
M  V30 9558 C 926.334 2.87923 -2.15269 0
M  V30 9559 C 925.998 2.76131 -3.64144 0
M  V30 9560 C 926.995 2.46417 -4.57794 0
M  V30 9561 C 924.68 2.9381 -4.07408 0
M  V30 9562 C 926.674 2.34525 -5.92686 0
M  V30 9563 C 924.361 2.81539 -5.42383 0
M  V30 9564 C 925.359 2.51938 -6.34836 0
M  V30 9565 O 925.047 2.39713 -7.67329 0
M  V30 9566 H 924.779 0.485776 -0.470104 0
M  V30 9567 H 927.333 0.949939 -1.82113 0
M  V30 9568 H 925.563 3.49867 -1.64712 0
M  V30 9569 H 927.252 3.49389 -2.06596 0
M  V30 9570 H 928.018 2.32433 -4.25676 0
M  V30 9571 H 923.897 3.15849 -3.35799 0
M  V30 9572 H 927.441 2.11342 -6.64816 0
M  V30 9573 H 923.338 2.95093 -5.741 0
M  V30 9574 H 924.106 2.5498 -7.77771 0
M  V30 9575 N 926.769 1.22769 0.988202 0
M  V30 9576 C 927.994 1.08239 1.76915 0
M  V30 9577 C 928.419 -0.362519 1.84574 0
M  V30 9578 O 927.777 -1.26202 1.30165 0
M  V30 9579 C 927.825 1.70363 3.17819 0
M  V30 9580 O 926.929 0.960484 4.01059 0
M  V30 9581 H 926.27 0.379872 0.544604 0
M  V30 9582 H 928.8 1.62663 1.24104 0
M  V30 9583 H 928.81 1.7528 3.6843 0
M  V30 9584 H 927.485 2.75505 3.1156 0
M  V30 9585 H 926.062 0.987667 3.59582 0
M  V30 9586 N 928.247 -1.18576 1.03814 0
M  V30 9587 C 929.493 -1.88773 0.741132 0
M  V30 9588 C 929.826 -1.79993 -0.729127 0
M  V30 9589 O 929.101 -1.19851 -1.53186 0
M  V30 9590 C 929.384 -3.39352 1.20468 0
M  V30 9591 C 929.237 -3.56955 2.73684 0
M  V30 9592 C 930.556 -4.32901 0.792741 0
M  V30 9593 H 927.675 -0.685482 0.270708 0
M  V30 9594 H 930.317 -1.39523 1.2897 0
M  V30 9595 H 928.467 -3.81427 0.737974 0
M  V30 9596 H 930.139 -3.2399 3.28372 0
M  V30 9597 H 928.382 -2.99696 3.13632 0
M  V30 9598 H 929.053 -4.62598 3.01176 0
M  V30 9599 H 931.529 -3.98592 1.1943 0
M  V30 9600 H 930.405 -5.36828 1.14486 0
M  V30 9601 H 930.666 -4.41052 -0.304295 0
M  V30 9602 N 929.725 -0.817259 -1.34754 0
M  V30 9603 C 930.973 -0.401852 -1.98065 0
M  V30 9604 C 931.294 1.03718 -1.65129 0
M  V30 9605 O 930.564 1.71921 -0.939141 0
M  V30 9606 H 929.144 -0.145603 -0.732672 0
M  V30 9607 H 931.806 -1.04545 -1.64488 0
M  V30 9608 H 930.902 -0.516241 -3.07801 0
M  V30 9609 N 931.203 1.46865 -0.571711 0
M  V30 9610 C 932.133 2.3298 0.155795 0
M  V30 9611 C 933.114 1.44678 0.894553 0
M  V30 9612 O 934.299 1.73513 0.872176 0
M  V30 9613 C 931.429 3.26745 1.17708 0
M  V30 9614 C 930.383 4.24401 0.553863 0
M  V30 9615 C 929.709 5.07595 1.68083 0
M  V30 9616 C 931.009 5.19884 -0.501827 0
M  V30 9617 H 932.703 2.94056 -0.563176 0
M  V30 9618 H 930.249 1.41402 -0.27228 0
M  V30 9619 H 932.202 3.85838 1.6943 0
M  V30 9620 H 930.926 2.63753 1.92618 0
M  V30 9621 H 929.585 3.66554 0.057815 0
M  V30 9622 H 929.233 4.40996 2.41933 0
M  V30 9623 H 928.933 5.73722 1.26953 0
M  V30 9624 H 930.457 5.6955 2.20103 0
M  V30 9625 H 931.871 5.73257 -0.0701057 0
M  V30 9626 H 930.268 5.94293 -0.832815 0
M  V30 9627 H 931.338 4.64482 -1.39229 0
M  V30 9628 N 932.681 0.308908 1.54543 0
M  V30 9629 C 933.629 -0.579326 2.2527 0
M  V30 9630 C 934.623 -1.13058 1.26152 0
M  V30 9631 O 935.829 -1.08031 1.43977 0
M  V30 9632 H 932.204 -0.205444 0.723392 0
M  V30 9633 H 934.175 0.0396415 2.98374 0
M  V30 9634 C 932.924 -1.73584 3.01271 0
M  V30 9635 H 932.247 -1.32089 3.77349 0
M  V30 9636 H 933.687 -2.33324 3.54028 0
M  V30 9637 C 932.146 -2.6447 2.08703 0
M  V30 9638 O 932.676 -3.65785 1.66025 0
M  V30 9639 N 930.882 -2.32379 1.74495 0
M  V30 9640 H 930.429 -1.50034 2.09398 0
M  V30 9641 H 930.387 -2.93454 1.12836 0
M  V30 9642 N 934.159 -1.57557 0.0367827 0
M  V30 9643 C 935.069 -2.14148 -0.958017 0
M  V30 9644 C 936.085 -1.09564 -1.35173 0
M  V30 9645 O 937.261 -1.4166 -1.43158 0
M  V30 9646 C 934.326 -2.6636 -2.21931 0
M  V30 9647 C 933.387 -3.85688 -1.8853 0
M  V30 9648 C 932.62 -4.35401 -3.08645 0
M  V30 9649 O 932.843 -3.8425 -4.21554 0
M  V30 9650 O 931.777 -5.27158 -2.90497 0
M  V30 9651 H 935.603 -2.99442 -0.506797 0
M  V30 9652 H 933.188 -1.48259 -0.184275 0
M  V30 9653 H 935.07 -2.99976 -2.9596 0
M  V30 9654 H 933.745 -1.84145 -2.66219 0
M  V30 9655 H 932.652 -3.56985 -1.11861 0
M  V30 9656 H 933.985 -4.69089 -1.49052 0
M  V30 9657 N 935.637 0.236453 -1.55816 0
M  V30 9658 C 936.883 0.964439 -1.784 0
M  V30 9659 C 937.216 1.84573 -0.603868 0
M  V30 9660 O 936.491 1.90395 0.397473 0
M  V30 9661 C 936.774 1.81608 -3.10951 0
M  V30 9662 C 936.627 0.962283 -4.39386 0
M  V30 9663 C 937.946 2.79665 -3.39817 0
M  V30 9664 H 935.065 0.349192 -0.649026 0
M  V30 9665 H 937.707 0.234247 -1.8855 0
M  V30 9666 H 935.857 2.43864 -3.02428 0
M  V30 9667 H 937.529 0.35762 -4.59912 0
M  V30 9668 H 935.772 0.267062 -4.32977 0
M  V30 9669 H 936.443 1.59222 -5.28538 0
M  V30 9670 H 938.919 2.27546 -3.4837 0
M  V30 9671 H 937.795 3.36367 -4.33761 0
M  V30 9672 H 938.056 3.56657 -2.61244 0
M  V30 9673 N 937.115 1.49373 0.502552 0
M  V30 9674 C 938.025 1.68659 1.63068 0
M  V30 9675 C 939.041 0.569182 1.64427 0
M  V30 9676 O 940.217 0.843695 1.82876 0
M  V30 9677 C 937.282 1.74745 2.99441 0
M  V30 9678 C 936.343 2.98311 3.08721 0
M  V30 9679 C 935.576 3.04097 4.38589 0
M  V30 9680 O 935.799 2.17519 5.27297 0
M  V30 9681 O 934.733 3.96544 4.52809 0
M  V30 9682 H 938.559 2.64226 1.49727 0
M  V30 9683 H 936.144 1.33096 0.67867 0
M  V30 9684 H 938.026 1.8111 3.80496 0
M  V30 9685 H 936.701 0.823565 3.13048 0
M  V30 9686 H 935.608 2.97465 2.2686 0
M  V30 9687 H 936.941 3.90174 3.00041 0
M  V30 9688 N 938.594 -0.753485 1.38421 0
M  V30 9689 C 939.871 -1.50318 1.25155 0
M  V30 9690 C 940.251 -2.10588 -0.147003 0
M  V30 9691 O 939.599 -1.97071 -1.15651 0
M  V30 9692 C 939.809 -2.56946 2.36177 0
M  V30 9693 C 941.157 -3.23846 2.74607 0
M  V30 9694 O 942.181 -2.67251 2.3549 0
M  V30 9695 O 941.04 -4.2621 3.42064 0
M  V30 9696 H 938.134 -0.666624 0.48943 0
M  V30 9697 H 940.68 -0.788887 1.50249 0
M  V30 9698 H 939.452 -2.1066 3.29754 0
M  V30 9699 H 939.075 -3.35956 2.12648 0
M  V30 9700 N 940.072 -1.23292 -0.981677 0
M  V30 9701 C 941.022 -0.980133 -2.05858 0
M  V30 9702 C 942.006 0.0734044 -1.60732 0
M  V30 9703 O 943.198 -0.138561 -1.76457 0
M  V30 9704 C 940.327 -0.571879 -3.38503 0
M  V30 9705 C 939.413 -1.66075 -3.90231 0
M  V30 9706 N 939.804 -2.89077 -4.15052 0
M  V30 9707 C 938.102 -1.53503 -4.18751 0
M  V30 9708 C 938.803 -3.59567 -4.5726 0
M  V30 9709 N 937.779 -2.87076 -4.61615 0
M  V30 9710 H 941.581 -1.91432 -2.23005 0
M  V30 9711 H 939.095 -1.13211 -1.16434 0
M  V30 9712 H 941.092 -0.372059 -4.15236 0
M  V30 9713 H 939.752 0.355278 -3.2275 0
M  V30 9714 H 940.763 -3.25395 -4.02912 0
M  V30 9715 H 937.44 -0.674891 -4.12009 0
M  V30 9716 H 938.83 -4.65007 -4.84993 0
M  V30 9717 N 941.55 1.18024 -1.04442 0
M  V30 9718 C 942.799 1.8743 -0.745185 0
M  V30 9719 C 943.112 1.81459 0.730206 0
M  V30 9720 O 944.318 2.46263 1.1431 0
M  V30 9721 C 942.774 3.36266 -1.28271 0
M  V30 9722 C 942.382 3.50757 -2.787 0
M  V30 9723 C 944.126 4.11048 -1.06018 0
M  V30 9724 C 942.033 4.93573 -3.25791 0
M  V30 9725 H 940.963 0.702038 -0.27506 0
M  V30 9726 H 943.614 1.33333 -1.26073 0
M  V30 9727 H 941.996 3.89853 -0.695002 0
M  V30 9728 H 943.17 3.07423 -3.43261 0
M  V30 9729 H 941.485 2.89385 -2.99408 0
M  V30 9730 H 944.082 5.16395 -1.38711 0
M  V30 9731 H 944.425 4.163 0.00241716 0
M  V30 9732 H 944.958 3.63644 -1.61269 0
M  V30 9733 H 941.697 4.93491 -4.31447 0
M  V30 9734 H 941.217 5.37607 -2.65968 0
M  V30 9735 H 942.896 5.62307 -3.20031 0
M  V30 9736 N 943.028 0.824394 1.34319 0
M  V30 9737 C 943.975 0.245282 2.29493 0
M  V30 9738 C 944.945 -0.630762 1.53657 0
M  V30 9739 O 946.13 -0.572094 1.82021 0
M  V30 9740 C 943.27 -0.585631 3.40095 0
M  V30 9741 C 942.383 0.312821 4.30866 0
M  V30 9742 C 941.518 -0.527801 5.28571 0
M  V30 9743 C 940.557 0.369946 6.10981 0
M  V30 9744 N 939.694 -0.43169 7.00772 0
M  V30 9745 H 944.534 1.06225 2.78425 0
M  V30 9746 H 942.071 0.53533 1.37013 0
M  V30 9747 H 944.029 -1.08271 4.02906 0
M  V30 9748 H 942.659 -1.3677 2.92393 0
M  V30 9749 H 941.711 0.928129 3.68904 0
M  V30 9750 H 943.023 1.00306 4.8861 0
M  V30 9751 H 942.177 -1.0893 5.96841 0
M  V30 9752 H 940.916 -1.25154 4.71368 0
M  V30 9753 H 939.921 0.943577 5.41643 0
M  V30 9754 H 941.146 1.09182 6.70266 0
M  V30 9755 H 939.092 -1.13908 6.46035 0
M  V30 9756 H 939.009 0.200133 7.55735 0
M  V30 9757 H 940.277 -0.975894 7.73367 0
M  V30 9758 N 944.506 -1.46559 0.579492 0
M  V30 9759 C 945.454 -2.3199 -0.168413 0
M  V30 9760 C 946.448 -1.44288 -0.887551 0
M  V30 9761 O 947.654 -1.60931 -0.806305 0
M  V30 9762 H 944.029 -0.748431 -0.0731799 0
M  V30 9763 H 946 -2.92886 0.570973 0
M  V30 9764 C 944.749 -3.27392 -1.1709 0
M  V30 9765 H 944.072 -3.94853 -0.626958 0
M  V30 9766 H 945.512 -3.89955 -1.66467 0
M  V30 9767 C 943.971 -2.52511 -2.23024 0
M  V30 9768 O 944.501 -2.2858 -3.30324 0
M  V30 9769 N 942.707 -2.1313 -1.97545 0
M  V30 9770 H 942.254 -2.32793 -1.10297 0
M  V30 9771 H 942.212 -1.63348 -2.68635 0
M  V30 9772 N 945.984 -0.3171 -1.54377 0
M  V30 9773 C 947.214 0.289138 -2.04567 0
M  V30 9774 C 947.622 1.46833 -1.19318 0
M  V30 9775 O 946.965 1.82436 -0.215141 0
M  V30 9776 C 947.027 0.792994 -3.50645 0
M  V30 9777 C 946.691 -0.263033 -4.56242 0
M  V30 9778 C 947.688 -1.09694 -5.08196 0
M  V30 9779 C 945.373 -0.409364 -5.00629 0
M  V30 9780 C 947.367 -2.06297 -6.03092 0
M  V30 9781 C 945.054 -1.37882 -5.95342 0
M  V30 9782 C 946.052 -2.20409 -6.46459 0
M  V30 9783 O 945.74 -3.15708 -7.39313 0
M  V30 9784 H 945.472 0.0644005 -0.672925 0
M  V30 9785 H 948.026 -0.459438 -2.00196 0
M  V30 9786 H 946.256 1.59237 -3.52392 0
M  V30 9787 H 947.945 1.31687 -3.83944 0
M  V30 9788 H 948.711 -0.994842 -4.74687 0
M  V30 9789 H 944.59 0.223091 -4.6046 0
M  V30 9790 H 948.134 -2.70751 -6.42915 0
M  V30 9791 H 944.031 -1.48158 -6.28267 0
M  V30 9792 H 944.799 -3.10873 -7.57166 0
M  V30 9793 N 947.462 1.57535 -0.0451378 0
M  V30 9794 C 948.878 1.56533 0.311373 0
M  V30 9795 C 949.078 1.05225 1.71843 0
M  V30 9796 O 948.134 0.706144 2.42425 0
M  V30 9797 C 949.447 3.00349 0.145348 0
M  V30 9798 C 950.995 3.12248 0.216908 0
M  V30 9799 C 951.47 4.57931 0.0794834 0
M  V30 9800 N 952.961 4.63 0.135954 0
M  V30 9801 C 953.696 5.73375 0.0536426 0
M  V30 9802 N 953.192 6.92753 -0.0806725 0
M  V30 9803 N 954.985 5.61995 0.108789 0
M  V30 9804 H 947.136 1.89211 -0.965044 0
M  V30 9805 H 949.399 0.871068 -0.374091 0
M  V30 9806 H 949.105 3.41898 -0.824533 0
M  V30 9807 H 948.979 3.66086 0.908903 0
M  V30 9808 H 951.366 2.70601 1.17726 0
M  V30 9809 H 951.447 2.49201 -0.577299 0
M  V30 9810 H 951.091 5.00262 -0.877516 0
M  V30 9811 H 951.021 5.18977 0.892758 0
M  V30 9812 H 953.512 3.77142 0.23926 0
M  V30 9813 H 953.825 7.7268 -0.136351 0
M  V30 9814 H 952.17 6.94904 -0.115675 0
M  V30 9815 H 955.361 4.67619 0.212235 0
M  V30 9816 H 955.534 6.47987 0.0411822 0
M  V30 9817 N 948.94 -0.228186 1.55939 0
M  V30 9818 C 950.351 -0.795734 1.68893 0
M  V30 9819 C 950.702 -1.85261 0.645967 0
M  V30 9820 O 949.827 -2.15434 -0.2042 0
M  V30 9821 C 950.422 -1.45013 3.06197 0
M  V30 9822 C 948.981 -1.96514 3.21028 0
M  V30 9823 C 948.128 -0.822918 2.64808 0
M  V30 9824 H 951.079 -0.0036485 1.587 0
M  V30 9825 H 951.1 -2.31875 3.01685 0
M  V30 9826 H 950.612 -0.680678 3.82084 0
M  V30 9827 H 948.713 -2.76282 2.49998 0
M  V30 9828 H 948.826 -2.14967 4.28166 0
M  V30 9829 H 947.19 -1.22846 2.23116 0
M  V30 9830 H 947.973 -0.0662493 3.43236 0
M  V30 9831 N 950.418 -1.49637 -0.494624 0
M  V30 9832 C 951.35 -1.62902 -1.61231 0
M  V30 9833 C 952.363 -0.511425 -1.54558 0
M  V30 9834 O 953.552 -0.783724 -1.60375 0
M  V30 9835 C 950.652 -1.57564 -3.00045 0
M  V30 9836 C 949.825 -2.84964 -3.31835 0
M  V30 9837 C 948.884 -2.72591 -4.5009 0
M  V30 9838 O 947.91 -3.46532 -4.51558 0
M  V30 9839 N 949.112 -1.84563 -5.50379 0
M  V30 9840 H 951.877 -2.59301 -1.50276 0
M  V30 9841 H 949.438 -1.46806 -0.68262 0
M  V30 9842 H 951.43 -1.46932 -3.77085 0
M  V30 9843 H 950 -0.689974 -3.0489 0
M  V30 9844 H 949.22 -3.099 -2.4363 0
M  V30 9845 H 950.508 -3.69412 -3.49875 0
M  V30 9846 H 949.906 -1.23758 -5.51997 0
M  V30 9847 H 948.463 -1.79849 -6.26496 0
M  V30 9848 N 951.896 0.746133 -1.38819 0
M  V30 9849 C 953.136 1.51821 -1.36857 0
M  V30 9850 C 953.5 1.9196 0.0391461 0
M  V30 9851 O 954.701 2.68172 0.183689 0
M  V30 9852 C 952.972 2.73214 -2.3041 0
M  V30 9853 S 954.531 3.62995 -2.46536 0
M  V30 9854 H 951.349 0.51945 -0.485482 0
M  V30 9855 H 953.951 0.875244 -1.74813 0
M  V30 9856 H 952.655 2.41847 -3.31569 0
M  V30 9857 H 952.186 3.42449 -1.9363 0
M  V30 9858 H 954.201 4.66353 -1.69498 0
M  V30 9859 N 953.375 1.23811 0.975125 0
M  V30 9860 C 954.305 1.04846 2.08638 0
M  V30 9861 C 955.286 -0.0362859 1.70061 0
M  V30 9862 O 956.471 0.12937 1.93769 0
M  V30 9863 C 953.601 0.644534 3.41267 0
M  V30 9864 C 952.555 1.67722 3.93768 0
M  V30 9865 C 951.881 1.12857 5.22654 0
M  V30 9866 C 953.181 3.07147 4.22443 0
M  V30 9867 H 954.875 1.97795 2.24761 0
M  V30 9868 H 952.421 0.952397 1.08006 0
M  V30 9869 H 954.374 0.498887 4.18436 0
M  V30 9870 H 953.098 -0.320641 3.25022 0
M  V30 9871 H 951.757 1.81095 3.18748 0
M  V30 9872 H 951.405 0.154227 5.02764 0
M  V30 9873 H 951.105 1.81862 5.58749 0
M  V30 9874 H 952.629 0.994891 6.0244 0
M  V30 9875 H 954.043 2.97045 4.90344 0
M  V30 9876 H 952.44 3.73437 4.6975 0
M  V30 9877 H 953.51 3.55743 3.29507 0
M  V30 9878 N 954.853 -1.17469 1.05066 0
M  V30 9879 C 956.099 -1.87976 0.761113 0
M  V30 9880 C 956.432 -1.80756 -0.709995 0
M  V30 9881 O 955.707 -1.21469 -1.51906 0
M  V30 9882 C 955.99 -3.38055 1.2406 0
M  V30 9883 C 955.843 -3.54032 2.77455 0
M  V30 9884 C 957.162 -4.32036 0.838612 0
M  V30 9885 H 954.281 -0.682573 0.277963 0
M  V30 9886 H 956.923 -1.38147 1.30443 0
M  V30 9887 H 955.073 -3.80622 0.778388 0
M  V30 9888 H 956.745 -3.20489 3.3179 0
M  V30 9889 H 954.988 -2.96352 3.16793 0
M  V30 9890 H 955.659 -4.59377 3.06066 0
M  V30 9891 H 958.135 -3.97303 1.23651 0
M  V30 9892 H 957.011 -5.35583 1.20173 0
M  V30 9893 H 957.272 -4.41349 -0.257498 0
M  V30 9894 N 956.331 -0.831506 -1.3388 0
M  V30 9895 C 957.261 -0.274378 -2.31882 0
M  V30 9896 C 958.242 0.613872 -1.58637 0
M  V30 9897 O 959.427 0.538961 -1.86571 0
M  V30 9898 C 956.557 0.557498 -3.42796 0
M  V30 9899 C 955.511 -0.234337 -4.27358 0
M  V30 9900 C 954.837 0.720825 -5.29819 0
M  V30 9901 C 956.137 -1.44732 -5.01847 0
M  V30 9902 H 957.831 -1.09322 -2.78728 0
M  V30 9903 H 955.377 -0.527136 -1.34005 0
M  V30 9904 H 957.33 0.957501 -4.10378 0
M  V30 9905 H 956.054 1.40947 -2.94621 0
M  V30 9906 H 954.713 -0.61581 -3.61391 0
M  V30 9907 H 954.361 1.569 -4.77903 0
M  V30 9908 H 954.061 0.195171 -5.87276 0
M  V30 9909 H 955.585 1.1185 -6.00268 0
M  V30 9910 H 956.999 -1.12087 -5.62236 0
M  V30 9911 H 955.396 -1.90923 -5.68919 0
M  V30 9912 H 956.466 -2.22099 -4.31045 0
M  V30 9913 N 957.809 1.4625 -0.587256 0
M  V30 9914 C 959.037 2.06744 -0.08033 0
M  V30 9915 C 959.452 1.43527 1.2266 0
M  V30 9916 O 958.809 0.542168 1.74261 0
M  V30 9917 C 958.86 3.61394 0.0873469 0
M  V30 9918 O 958.581 4.22247 -1.16785 0
M  V30 9919 C 960.082 4.38828 0.628095 0
M  V30 9920 H 957.302 0.668354 -0.0595301 0
M  V30 9921 H 959.846 1.87808 -0.809217 0
M  V30 9922 H 958.001 3.79742 0.766473 0
M  V30 9923 H 958.415 5.15176 -0.984565 0
M  V30 9924 H 959.889 5.47613 0.694583 0
M  V30 9925 H 960.366 4.07188 1.64606 0
M  V30 9926 H 960.972 4.25297 -0.0163115 0
M  V30 9927 N 959.287 0.325282 1.54207 0
M  V30 9928 C 960.535 -0.276229 2.00203 0
M  V30 9929 C 960.856 -1.52519 1.21503 0
M  V30 9930 O 960.126 -1.93313 0.317302 0
M  V30 9931 H 958.706 -0.105059 0.739575 0
M  V30 9932 H 961.368 0.442225 1.89817 0
M  V30 9933 H 960.464 -0.531427 3.07542 0
M  V30 9934 N 960.765 -1.57509 0.0534917 0
M  V30 9935 C 962.176 -1.80374 -0.481867 0
M  V30 9936 C 962.527 -0.965917 -1.70776 0
M  V30 9937 O 961.652 -0.183167 -2.15623 0
M  V30 9938 C 962.247 -3.27146 -0.880978 0
M  V30 9939 C 960.806 -3.50921 -1.3613 0
M  V30 9940 C 959.953 -2.75237 -0.337611 0
M  V30 9941 H 962.904 -1.56222 0.279353 0
M  V30 9942 H 962.925 -3.38193 -1.74373 0
M  V30 9943 H 962.437 -3.88098 0.011441 0
M  V30 9944 H 960.538 -2.95251 -2.27283 0
M  V30 9945 H 960.651 -4.59632 -1.35186 0
M  V30 9946 H 959.015 -2.41444 -0.810991 0
M  V30 9947 H 959.798 -3.38918 0.546763 0
M  V30 9948 N 962.243 0.219913 -1.56058 0
M  V30 9949 C 963.654 0.786766 -1.69313 0
M  V30 9950 C 964.005 1.84916 -0.655782 0
M  V30 9951 O 963.13 2.1554 0.192772 0
M  V30 9952 C 963.725 1.43387 -3.06962 0
M  V30 9953 C 962.284 1.94809 -3.22066 0
M  V30 9954 C 961.431 0.808863 -2.65241 0
M  V30 9955 H 964.382 -0.00476777 -1.58699 0
M  V30 9956 H 964.403 2.30272 -3.02911 0
M  V30 9957 H 963.915 0.660405 -3.8244 0
M  V30 9958 H 962.016 2.74952 -2.5146 0
M  V30 9959 H 962.129 2.12694 -4.293 0
M  V30 9960 H 960.493 1.21661 -2.23765 0
M  V30 9961 H 961.276 0.0480458 -3.43266 0
M  V30 9962 N 963.721 1.49897 0.486681 0
M  V30 9963 C 964.669 1.68125 1.60738 0
M  V30 9964 C 965.663 0.547097 1.60322 0
M  V30 9965 O 966.869 0.727153 1.64659 0
M  V30 9966 H 963.244 0.530391 0.533094 0
M  V30 9967 H 965.215 2.62165 1.42521 0
M  V30 9968 C 963.964 1.77827 2.98786 0
M  V30 9969 H 963.287 2.6448 2.99818 0
M  V30 9970 H 964.727 1.94611 3.76699 0
M  V30 9971 C 963.186 0.526287 3.32764 0
M  V30 9972 O 963.716 -0.341607 4.00245 0
M  V30 9973 N 961.922 0.384947 2.88039 0
M  V30 9974 H 961.469 1.09222 2.33299 0
M  V30 9975 H 961.427 -0.451618 3.11139 0
M  V30 9976 N 965.199 -0.738761 1.39212 0
M  V30 9977 C 966.446 -1.49824 1.36231 0
M  V30 9978 C 966.774 -1.94453 -0.0429552 0
M  V30 9979 O 966.029 -1.6683 -1.02304 0
M  V30 9980 C 966.328 -2.75435 2.2775 0
M  V30 9981 C 965.994 -2.49694 3.75451 0
M  V30 9982 C 964.656 -2.42383 4.15697 0
M  V30 9983 C 967.008 -2.27587 4.68885 0
M  V30 9984 C 964.336 -2.11001 5.47444 0
M  V30 9985 C 966.688 -1.97723 6.00906 0
M  V30 9986 C 965.352 -1.88879 6.4022 0
M  V30 9987 H 964.622 -0.548247 0.498504 0
M  V30 9988 H 967.269 -0.848244 1.71689 0
M  V30 9989 H 965.574 -3.45159 1.85398 0
M  V30 9990 H 967.271 -3.33449 2.22739 0
M  V30 9991 H 963.861 -2.56261 3.43552 0
M  V30 9992 H 968.045 -2.32206 4.38628 0
M  V30 9993 H 963.301 -2.02673 5.76831 0
M  V30 9994 H 967.475 -1.79625 6.72836 0
M  V30 9995 H 965.102 -1.64327 7.42227 0
M  V30 9996 N 966.677 -1.24326 -0.968545 0
M  V30 9997 C 968.093 -1.00847 -1.23701 0
M  V30 9998 C 968.293 0.283235 -1.99499 0
M  V30 9999 O 967.349 0.999607 -2.31871 0
M  V30 10000 C 968.662 -2.22295 -2.02498 0
M  V30 10001 C 970.21 -2.26911 -2.15593 0
M  V30 10002 C 970.685 -3.47978 -2.97784 0
M  V30 10003 N 972.176 -3.48289 -3.05367 0
M  V30 10004 C 972.911 -4.38625 -3.69318 0
M  V30 10005 N 972.407 -5.39213 -4.34995 0
M  V30 10006 N 974.2 -4.26339 -3.66322 0
M  V30 10007 H 966.351 -2.07335 -0.461087 0
M  V30 10008 H 968.614 -0.909805 -0.26638 0
M  V30 10009 H 968.32 -3.161 -1.54188 0
M  V30 10010 H 968.194 -2.24344 -3.03232 0
M  V30 10011 H 970.581 -1.33639 -2.63106 0
M  V30 10012 H 970.662 -2.28888 -1.14209 0
M  V30 10013 H 970.306 -4.41564 -2.50965 0
M  V30 10014 H 970.236 -3.43244 -3.99364 0
M  V30 10015 H 972.727 -2.75517 -2.58648 0
M  V30 10016 H 973.04 -6.04378 -4.81608 0
M  V30 10017 H 971.385 -5.43101 -4.33667 0
M  V30 10018 H 974.576 -3.46991 -3.14189 0
M  V30 10019 H 974.749 -4.9694 -4.15878 0
M  V30 10020 N 968.156 1.1691 -1.05688 0
M  V30 10021 C 969.567 1.68915 -0.795273 0
M  V30 10022 C 969.918 1.83968 0.681925 0
M  V30 10023 O 969.043 1.53083 1.52953 0
M  V30 10024 C 969.638 3.06814 -1.43703 0
M  V30 10025 C 968.197 3.55965 -1.22335 0
M  V30 10026 C 967.344 2.32099 -1.51741 0
M  V30 10027 H 970.295 1.01357 -1.22116 0
M  V30 10028 H 970.316 3.70907 -0.849016 0
M  V30 10029 H 969.828 2.95826 -2.51214 0
M  V30 10030 H 967.929 3.72222 -0.16771 0
M  V30 10031 H 968.042 4.38427 -1.9318 0
M  V30 10032 H 966.406 2.36811 -0.937696 0
M  V30 10033 H 967.189 2.23715 -2.60397 0
M  V30 10034 N 969.634 0.838594 1.33437 0
M  V30 10035 C 970.597 0.276843 2.27522 0
M  V30 10036 C 971.597 -0.554275 1.50945 0
M  V30 10037 O 972.787 -0.368107 1.70266 0
M  V30 10038 C 969.919 -0.610036 3.35397 0
M  V30 10039 H 971.112 1.10705 2.78719 0
M  V30 10040 H 968.665 0.611657 1.43835 0
M  V30 10041 H 969.4 -1.46269 2.89441 0
M  V30 10042 H 969.185 -0.0153615 3.92097 0
M  V30 10043 H 970.675 -0.996368 4.05539 0
M  V30 10044 N 971.112 -1.45937 0.595003 0
M  V30 10045 C 972.042 -2.33198 -0.11871 0
M  V30 10046 C 973.023 -1.46083 -0.871423 0
M  V30 10047 O 974.208 -1.74879 -0.844461 0
M  V30 10048 C 971.338 -3.28576 -1.12495 0
M  V30 10049 C 970.292 -4.25229 -0.486275 0
M  V30 10050 C 969.618 -5.10204 -1.59986 0
M  V30 10051 C 970.918 -5.19019 0.584473 0
M  V30 10052 H 972.612 -2.93122 0.609886 0
M  V30 10053 H 970.158 -1.40951 0.294742 0
M  V30 10054 H 972.111 -3.88485 -1.6327 0
M  V30 10055 H 970.835 -2.66784 -1.88398 0
M  V30 10056 H 969.494 -3.666 0.000507962 0
M  V30 10057 H 969.142 -4.44789 -2.34886 0
M  V30 10058 H 968.842 -5.75669 -1.1781 0
M  V30 10059 H 970.366 -5.7298 -2.11014 0
M  V30 10060 H 971.78 -5.73073 0.161297 0
M  V30 10061 H 970.177 -5.92893 0.927256 0
M  V30 10062 H 971.247 -4.62208 1.46601 0
M  V30 10063 N 972.59 -0.333456 -1.54032 0
M  V30 10064 C 973.836 0.266527 -2.01041 0
M  V30 10065 C 974.169 1.51006 -1.2211 0
M  V30 10066 O 973.444 1.92078 -0.306016 0
M  V30 10067 C 973.727 0.59078 -3.55221 0
M  V30 10068 C 973.58 -0.664143 -4.4487 0
M  V30 10069 C 974.899 1.40447 -4.17088 0
M  V30 10070 H 972.018 0.0953979 -0.7308 0
M  V30 10071 H 974.66 -0.451995 -1.84545 0
M  V30 10072 H 972.81 1.20292 -3.69408 0
M  V30 10073 H 974.482 -1.30227 -4.42537 0
M  V30 10074 H 972.725 -1.29106 -4.14143 0
M  V30 10075 H 973.396 -0.392664 -5.50602 0
M  V30 10076 H 975.872 0.886946 -4.06537 0
M  V30 10077 H 974.748 1.6001 -5.2506 0
M  V30 10078 H 975.009 2.40357 -3.71054 0
M  V30 10079 N 974.068 1.57479 -0.061844 0
M  V30 10080 C 975.345 1.84484 0.649993 0
M  V30 10081 C 975.725 0.952366 1.88396 0
M  V30 10082 O 975.073 0.0161035 2.28494 0
M  V30 10083 C 975.283 3.34452 0.997133 0
M  V30 10084 C 976.631 4.01724 1.37488 0
M  V30 10085 O 977.655 3.3914 1.08916 0
M  V30 10086 O 976.514 5.12091 1.90854 0
M  V30 10087 H 973.608 0.761798 0.321858 0
M  V30 10088 H 976.154 1.6945 -0.0920192 0
M  V30 10089 H 974.926 3.91115 0.120301 0
M  V30 10090 H 974.549 3.54713 1.79624 0
M  V30 10091 N 975.546 -0.211634 1.56173 0
M  V30 10092 C 976.793 -0.93455 1.79645 0
M  V30 10093 C 977.121 -1.83936 0.632294 0
M  V30 10094 O 976.376 -1.91919 -0.382841 0
M  V30 10095 C 976.675 -1.79657 3.08963 0
M  V30 10096 C 976.341 -1.04415 4.38644 0
M  V30 10097 C 975.003 -0.836351 4.73876 0
M  V30 10098 C 977.355 -0.51355 5.18664 0
M  V30 10099 C 974.683 -0.0861976 5.86637 0
M  V30 10100 C 977.035 0.223309 6.32206 0
M  V30 10101 C 975.699 0.442279 6.66033 0
M  V30 10102 H 974.969 -0.341976 0.657368 0
M  V30 10103 H 977.616 -0.202024 1.90431 0
M  V30 10104 H 975.921 -2.59726 2.93342 0
M  V30 10105 H 977.618 -2.35823 3.24328 0
M  V30 10106 H 974.208 -1.21611 4.10985 0
M  V30 10107 H 978.392 -0.661541 4.91871 0
M  V30 10108 H 973.648 0.0935866 6.11328 0
M  V30 10109 H 977.822 0.641917 6.93435 0
M  V30 10110 H 975.449 1.02547 7.53252 0
M  V30 10111 N 977.024 -1.50153 -0.478725 0
M  V30 10112 C 978.27 -1.60998 -1.23318 0
M  V30 10113 C 978.603 -0.305868 -1.91776 0
M  V30 10114 O 977.878 0.692158 -1.81767 0
M  V30 10115 C 978.161 -2.78495 -2.28282 0
M  V30 10116 C 978.014 -4.18767 -1.64178 0
M  V30 10117 C 979.333 -2.91569 -3.2966 0
M  V30 10118 H 976.452 -0.585983 -0.446982 0
M  V30 10119 H 979.094 -1.82514 -0.528063 0
M  V30 10120 H 977.244 -2.60281 -2.8842 0
M  V30 10121 H 978.916 -4.48552 -1.07696 0
M  V30 10122 H 977.159 -4.23379 -0.94514 0
M  V30 10123 H 977.83 -4.96894 -2.40417 0
M  V30 10124 H 980.306 -3.08219 -2.79536 0
M  V30 10125 H 979.182 -3.75419 -4.0044 0
M  V30 10126 H 979.443 -2.01859 -3.93326 0
M  V30 10127 N 978.502 0.731368 -1.39602 0
M  V30 10128 C 979.75 1.48805 -1.36753 0
M  V30 10129 C 980.071 1.94969 0.034676 0
M  V30 10130 O 979.341 1.69243 0.986591 0
M  V30 10131 H 977.921 0.55203 -0.503261 0
M  V30 10132 H 980.583 0.868013 -1.74504 0
M  V30 10133 H 979.679 2.36844 -2.03252 0
M  V30 10134 N 979.98 1.24838 0.961938 0
M  V30 10135 C 981.208 1.11871 1.74047 0
M  V30 10136 C 981.623 -0.328209 1.85925 0
M  V30 10137 O 980.98 -1.22616 1.35173 0
M  V30 10138 C 981.031 1.75931 3.15801 0
M  V30 10139 O 980.752 3.14967 3.04512 0
M  V30 10140 C 982.253 1.68649 4.09966 0
M  V30 10141 H 979.473 0.390569 0.545616 0
M  V30 10142 H 982.017 1.65058 1.20732 0
M  V30 10143 H 980.172 1.26733 3.66084 0
M  V30 10144 H 980.586 3.46349 3.93882 0
M  V30 10145 H 982.06 2.18144 5.07067 0
M  V30 10146 H 982.537 0.648831 4.34381 0
M  V30 10147 H 983.143 2.17301 3.65596 0
M  V30 10148 N 981.458 -1.16348 1.06306 0
M  V30 10149 C 982.705 -1.86881 0.779852 0
M  V30 10150 C 983.033 -1.8171 -0.693668 0
M  V30 10151 O 982.288 -1.22769 -1.52401 0
M  V30 10152 C 982.587 -3.35936 1.21991 0
M  V30 10153 C 982.253 -3.61307 2.69756 0
M  V30 10154 C 980.915 -3.6794 3.10119 0
M  V30 10155 C 983.267 -3.71871 3.65187 0
M  V30 10156 C 980.595 -3.82639 4.44752 0
M  V30 10157 C 982.947 -3.88091 4.99568 0
M  V30 10158 C 981.611 -3.92967 5.39568 0
M  V30 10159 H 980.881 -0.683847 0.285368 0
M  V30 10160 H 983.528 -1.37569 1.33218 0
M  V30 10161 H 981.833 -3.87381 0.586774 0
M  V30 10162 H 983.53 -3.88895 0.977821 0
M  V30 10163 H 980.12 -3.56777 2.37504 0
M  V30 10164 H 984.304 -3.66057 3.35136 0
M  V30 10165 H 979.56 -3.84666 4.75228 0
M  V30 10166 H 983.734 -3.95207 5.73397 0
M  V30 10167 H 981.361 -4.04109 6.43895 0
M  V30 10168 N 982.937 -0.845659 -1.3299 0
M  V30 10169 C 984.165 -0.45835 -2.01759 0
M  V30 10170 C 984.58 0.94239 -1.63598 0
M  V30 10171 O 983.937 1.61353 -0.852738 0
M  V30 10172 C 983.988 -0.577311 -3.5686 0
M  V30 10173 O 983.709 -1.92287 -3.93646 0
M  V30 10174 C 985.21 -0.187839 -4.42902 0
M  V30 10175 H 982.43 -0.181165 -0.646081 0
M  V30 10176 H 984.974 -1.14011 -1.6977 0
M  V30 10177 H 983.129 0.0566146 -3.87359 0
M  V30 10178 H 983.543 -1.91322 -4.88361 0
M  V30 10179 H 985.017 -0.322105 -5.51059 0
M  V30 10180 H 985.494 0.870896 -4.30479 0
M  V30 10181 H 986.1 -0.796473 -4.17776 0
M  V30 10182 N 984.415 1.45619 -0.602734 0
M  V30 10183 C 985.831 1.57368 -0.26599 0
M  V30 10184 C 986.031 1.59485 1.23154 0
M  V30 10185 O 985.087 1.52254 2.01432 0
M  V30 10186 C 986.4 2.85863 -0.932881 0
M  V30 10187 C 987.948 2.9953 -0.908344 0
M  V30 10188 C 988.423 4.30789 -1.55515 0
M  V30 10189 N 989.914 4.37536 -1.52042 0
M  V30 10190 C 990.649 5.37758 -1.99008 0
M  V30 10191 N 990.145 6.44544 -2.54038 0
M  V30 10192 N 991.938 5.29085 -1.89805 0
M  V30 10193 H 984.089 1.42489 -1.57514 0
M  V30 10194 H 986.352 0.680948 -0.659556 0
M  V30 10195 H 986.058 2.90183 -1.98713 0
M  V30 10196 H 985.932 3.74467 -0.453209 0
M  V30 10197 H 988.319 2.9478 0.137344 0
M  V30 10198 H 988.4 2.12349 -1.42623 0
M  V30 10199 H 988.044 4.36297 -2.60014 0
M  V30 10200 H 987.974 5.16778 -1.01232 0
M  V30 10201 H 990.465 3.60972 -1.11837 0
M  V30 10202 H 990.778 7.17258 -2.87682 0
M  V30 10203 H 989.123 6.45308 -2.58075 0
M  V30 10204 H 992.314 4.44566 -1.46556 0
M  V30 10205 H 992.487 6.07043 -2.26722 0
M  V30 10206 N 985.893 0.34162 1.53853 0
M  V30 10207 C 986.841 -0.531412 2.26448 0
M  V30 10208 C 987.835 -1.10357 1.28521 0
M  V30 10209 O 989.041 -1.04953 1.46236 0
M  V30 10210 H 985.416 -0.190054 0.727588 0
M  V30 10211 H 987.387 0.102922 2.98222 0
M  V30 10212 C 986.136 -1.67154 3.04885 0
M  V30 10213 H 985.459 -1.24055 3.80066 0
M  V30 10214 H 986.899 -2.25762 3.58898 0
M  V30 10215 C 985.358 -2.59984 2.14266 0
M  V30 10216 O 985.888 -3.62181 1.73746 0
M  V30 10217 N 984.094 -2.28625 1.79385 0
M  V30 10218 H 983.641 -1.45559 2.12533 0
M  V30 10219 H 983.599 -2.90995 1.19035 0
M  V30 10220 N 987.371 -1.57444 0.0701946 0
M  V30 10221 C 988.301 -2.15659 -0.895176 0
M  V30 10222 C 989.282 -1.08321 -1.31151 0
M  V30 10223 O 990.467 -1.36349 -1.38284 0
M  V30 10224 C 987.597 -2.71693 -2.16334 0
M  V30 10225 C 986.551 -3.84183 -1.88645 0
M  V30 10226 C 985.877 -4.26814 -3.22078 0
M  V30 10227 C 987.177 -5.08493 -1.19299 0
M  V30 10228 H 988.871 -2.96576 -0.410217 0
M  V30 10229 H 986.417 -1.42662 -0.195872 0
M  V30 10230 H 988.37 -3.11064 -2.84284 0
M  V30 10231 H 987.094 -1.87994 -2.67069 0
M  V30 10232 H 985.753 -3.45314 -1.23101 0
M  V30 10233 H 985.401 -3.40039 -3.70651 0
M  V30 10234 H 985.101 -5.02642 -3.04344 0
M  V30 10235 H 986.625 -4.68799 -3.91228 0
M  V30 10236 H 988.039 -5.4519 -1.77316 0
M  V30 10237 H 986.436 -5.89588 -1.11828 0
M  V30 10238 H 987.506 -4.84595 -0.171839 0
M  V30 10239 N 988.849 0.203349 -1.56283 0
M  V30 10240 C 990.074 0.945548 -1.84592 0
M  V30 10241 C 990.499 1.7641 -0.652772 0
M  V30 10242 O 989.857 1.76867 0.398468 0
M  V30 10243 C 989.905 1.82416 -3.11057 0
M  V30 10244 O 989.009 2.92191 -2.9103 0
M  V30 10245 H 988.35 0.266739 -0.608068 0
M  V30 10246 H 990.88 0.211158 -2.03507 0
M  V30 10247 H 990.89 2.23044 -3.41636 0
M  V30 10248 H 989.565 1.22267 -3.97522 0
M  V30 10249 H 988.142 2.55378 -2.71728 0
M  V30 10250 N 990.327 1.50405 0.470755 0
M  V30 10251 C 991.257 1.72222 1.57676 0
M  V30 10252 C 992.238 0.57121 1.60222 0
M  V30 10253 O 993.423 0.810381 1.76484 0
M  V30 10254 C 990.553 1.81666 2.95998 0
M  V30 10255 C 989.507 2.96857 3.08318 0
M  V30 10256 C 988.833 2.91445 4.4829 0
M  V30 10257 C 990.133 4.37361 2.85504 0
M  V30 10258 H 991.827 2.64825 1.39671 0
M  V30 10259 H 989.373 1.27438 0.67049 0
M  V30 10260 H 991.326 1.95514 3.73299 0
M  V30 10261 H 990.05 0.856856 3.1516 0
M  V30 10262 H 988.709 2.82661 2.33449 0
M  V30 10263 H 988.357 1.93309 4.64371 0
M  V30 10264 H 988.057 3.68776 4.57469 0
M  V30 10265 H 989.581 3.07341 5.27611 0
M  V30 10266 H 990.995 4.52081 3.52555 0
M  V30 10267 H 989.392 5.16145 3.06127 0
M  V30 10268 H 990.462 4.49708 1.81359 0
M  V30 10269 N 991.805 -0.723954 1.39988 0
M  V30 10270 C 992.738 -1.84725 1.33985 0
M  V30 10271 C 993.716 -1.61217 0.211623 0
M  V30 10272 O 994.9 -1.84338 0.393905 0
M  V30 10273 C 992.027 -3.20913 1.08317 0
M  V30 10274 C 991.073 -3.63262 2.23478 0
M  V30 10275 S 991.906 -3.71346 3.85827 0
M  V30 10276 C 993.062 -5.10307 3.62405 0
M  V30 10277 H 993.295 -1.89535 2.2905 0
M  V30 10278 H 990.828 -0.889911 1.26174 0
M  V30 10279 H 992.786 -3.99547 0.941921 0
M  V30 10280 H 991.447 -3.13745 0.149203 0
M  V30 10281 H 990.64 -4.62124 2.01139 0
M  V30 10282 H 990.242 -2.91863 2.33863 0
M  V30 10283 H 992.534 -5.96975 3.20354 0
M  V30 10284 H 993.477 -5.37679 4.60768 0
M  V30 10285 H 993.885 -4.80505 2.96269 0
M  V30 10286 N 993.283 -1.25346 -0.955304 0
M  V30 10287 C 994.532 -1.0945 -1.69421 0
M  V30 10288 C 994.845 0.364459 -1.92175 0
M  V30 10289 O 996.051 0.643843 -2.63755 0
M  V30 10290 C 994.507 -1.91045 -3.05008 0
M  V30 10291 C 994.115 -3.41428 -2.90053 0
M  V30 10292 C 995.859 -1.83716 -3.82686 0
M  V30 10293 C 993.766 -4.1532 -4.21026 0
M  V30 10294 H 992.696 -0.405978 -0.635372 0
M  V30 10295 H 995.347 -1.49536 -1.06354 0
M  V30 10296 H 993.729 -1.43781 -3.68975 0
M  V30 10297 H 994.903 -3.9636 -2.35022 0
M  V30 10298 H 993.218 -3.49842 -2.25831 0
M  V30 10299 H 995.815 -2.36217 -4.79693 0
M  V30 10300 H 996.158 -0.804919 -4.08444 0
M  V30 10301 H 996.691 -2.28726 -3.25468 0
M  V30 10302 H 993.43 -5.18955 -4.00457 0
M  V30 10303 H 992.95 -3.65172 -4.75825 0
M  V30 10304 H 994.629 -4.22999 -4.89572 0
M  V30 10305 N 994.761 1.15782 -1.06922 0
M  V30 10306 C 996.001 1.88135 -0.799043 0
M  V30 10307 C 996.365 1.80203 0.662632 0
M  V30 10308 O 997.566 2.47543 1.04767 0
M  V30 10309 C 995.837 3.3339 -1.28786 0
M  V30 10310 S 997.396 4.23525 -1.1477 0
M  V30 10311 H 994.214 0.649313 -0.289679 0
M  V30 10312 H 996.816 1.3972 -1.36743 0
M  V30 10313 H 995.52 3.36705 -2.34645 0
M  V30 10314 H 995.051 3.86857 -0.714489 0
M  V30 10315 H 997.066 4.96131 -0.0825264 0
M  V30 10316 N 996.239 0.8527 1.3254 0
M  V30 10317 C 997.487 0.454224 1.96929 0
M  V30 10318 C 997.808 -0.993034 1.67821 0
M  V30 10319 O 997.078 -1.69371 0.984393 0
M  V30 10320 H 995.658 0.164977 0.728554 0
M  V30 10321 H 998.32 1.0887 1.61658 0
M  V30 10322 H 997.416 0.597667 3.06324 0
M  V30 10323 N 997.718 -1.45297 0.610449 0
M  V30 10324 C 998.668 -2.27639 -0.128194 0
M  V30 10325 C 999.652 -1.37485 -0.835861 0
M  V30 10326 O 1000.84 -1.61454 -0.725378 0
M  V30 10327 C 997.973 -3.24413 -1.123 0
M  V30 10328 C 997.059 -4.22055 -0.416029 0
M  V30 10329 N 997.45 -5.02867 0.543921 0
M  V30 10330 C 995.748 -4.41041 -0.663208 0
M  V30 10331 C 996.449 -5.73728 0.959731 0
M  V30 10332 N 995.425 -5.42756 0.302873 0
M  V30 10333 H 999.227 -2.8752 0.609056 0
M  V30 10334 H 996.741 -1.56484 0.434338 0
M  V30 10335 H 998.738 -3.82139 -1.6666 0
M  V30 10336 H 997.398 -2.66092 -1.86078 0
M  V30 10337 H 998.409 -5.09649 0.920799 0
M  V30 10338 H 995.086 -3.93842 -1.38544 0
M  V30 10339 H 996.476 -6.48666 1.75163 0
M  V30 10340 N 999.196 -0.349774 -1.5367 0
M  V30 10341 C 1000.44 0.245189 -2.01312 0
M  V30 10342 C 1000.77 1.49702 -1.23705 0
M  V30 10343 O 1000.05 1.91742 -0.326371 0
M  V30 10344 C 1000.33 0.553071 -3.55827 0
M  V30 10345 C 1000.19 -0.71129 -4.4414 0
M  V30 10346 C 1001.5 1.36015 -4.18555 0
M  V30 10347 H 998.624 0.0876415 -0.73177 0
M  V30 10348 H 1001.27 -0.471543 -1.84056 0
M  V30 10349 H 999.416 1.16367 -3.70663 0
M  V30 10350 H 1001.09 -1.34913 -4.41131 0
M  V30 10351 H 999.331 -1.33491 -4.1275 0
M  V30 10352 H 1000 -0.45104 -5.50154 0
M  V30 10353 H 1002.48 0.843778 -4.07455 0
M  V30 10354 H 1001.35 1.54432 -5.26728 0
M  V30 10355 H 1001.61 2.36408 -3.73582 0
M  V30 10356 N 1000.67 1.57404 -0.0785433 0
M  V30 10357 C 1001.6 2.16131 0.883726 0
M  V30 10358 C 1002.58 1.09015 1.30575 0
M  V30 10359 O 1003.77 1.3708 1.37559 0
M  V30 10360 C 1000.9 2.72836 2.1489 0
M  V30 10361 C 999.854 3.85178 1.86605 0
M  V30 10362 C 999.18 4.28516 3.1981 0
M  V30 10363 C 1000.48 5.09118 1.16601 0
M  V30 10364 H 1002.17 2.9679 0.394484 0
M  V30 10365 H 999.72 1.42763 0.188304 0
M  V30 10366 H 1001.67 3.12567 2.8263 0
M  V30 10367 H 1000.4 1.89408 2.66068 0
M  V30 10368 H 999.056 3.45962 1.21268 0
M  V30 10369 H 998.704 3.42 3.68843 0
M  V30 10370 H 998.404 5.04249 3.01674 0
M  V30 10371 H 999.928 4.70868 3.88737 0
M  V30 10372 H 1001.34 5.46123 1.74422 0
M  V30 10373 H 999.739 5.90173 1.087 0
M  V30 10374 H 1000.81 4.8468 0.146138 0
M  V30 10375 N 1002.15 -0.195058 1.56388 0
M  V30 10376 C 1003.4 -0.913626 1.79821 0
M  V30 10377 C 1003.71 -1.84422 0.651767 0
M  V30 10378 O 1004.92 -2.6034 0.770402 0
M  V30 10379 C 1003.38 -1.67497 3.18548 0
M  V30 10380 C 1002.98 -0.789205 4.40994 0
M  V30 10381 C 1004.73 -2.38318 3.5129 0
M  V30 10382 C 1002.63 -1.54942 5.70742 0
M  V30 10383 H 1001.56 -0.344891 0.670497 0
M  V30 10384 H 1004.22 -0.166912 1.82739 0
M  V30 10385 H 1002.6 -2.46557 3.0988 0
M  V30 10386 H 1003.77 -0.0372595 4.60785 0
M  V30 10387 H 1002.09 -0.191834 4.15958 0
M  V30 10388 H 1004.68 -2.95745 4.45465 0
M  V30 10389 H 1005.03 -3.12507 2.75037 0
M  V30 10390 H 1005.56 -1.66224 3.61406 0
M  V30 10391 H 1002.3 -0.85031 6.49962 0
M  V30 10392 H 1001.82 -2.2753 5.54969 0
M  V30 10393 H 1003.5 -2.1032 6.11861 0
M  V30 10394 N 1003.63 -1.50653 -0.462772 0
M  V30 10395 C 1004.88 -1.61737 -1.21184 0
M  V30 10396 C 1005.2 -0.32369 -1.92295 0
M  V30 10397 O 1004.47 0.659269 -1.84473 0
M  V30 10398 H 1003.05 -0.596015 -0.450306 0
M  V30 10399 H 1005.71 -1.87469 -0.533051 0
M  V30 10400 H 1004.81 -2.43262 -1.95525 0
M  V30 10401 N 1005.11 0.71652 -1.4037 0
M  V30 10402 C 1006.52 1.29562 -1.34427 0
M  V30 10403 C 1006.87 1.96192 -0.0173106 0
M  V30 10404 O 1006 1.97488 0.884719 0
M  V30 10405 C 1006.59 2.35601 -2.4347 0
M  V30 10406 C 1005.15 2.89138 -2.4099 0
M  V30 10407 C 1004.3 1.62915 -2.24397 0
M  V30 10408 H 1007.25 0.512715 -1.5019 0
M  V30 10409 H 1007.27 3.16422 -2.11323 0
M  V30 10410 H 1006.78 1.87077 -3.40035 0
M  V30 10411 H 1004.88 3.41894 -1.4812 0
M  V30 10412 H 1004.99 3.40995 -3.3654 0
M  V30 10413 H 1003.36 1.87947 -1.71896 0
M  V30 10414 H 1004.14 1.16417 -3.22958 0
M  V30 10415 N 1006.59 1.25851 0.948643 0
M  V30 10416 C 1007.54 1.03437 2.03187 0
M  V30 10417 C 1008.52 -0.0307632 1.60871 0
M  V30 10418 O 1009.71 0.185296 1.76027 0
M  V30 10419 C 1006.84 0.661426 3.36868 0
M  V30 10420 C 1005.93 1.76363 3.8569 0
M  V30 10421 N 1006.32 2.9998 4.07241 0
M  V30 10422 C 1004.62 1.64552 4.14534 0
M  V30 10423 C 1005.32 3.71564 4.47566 0
M  V30 10424 N 1004.29 2.99214 4.53841 0
M  V30 10425 H 1008.1 1.97277 2.17851 0
M  V30 10426 H 1005.61 1.16258 1.13392 0
M  V30 10427 H 1007.61 0.482021 4.14104 0
M  V30 10428 H 1006.27 -0.269582 3.23579 0
M  V30 10429 H 1007.28 3.35963 3.94143 0
M  V30 10430 H 1003.95 0.783891 4.10075 0
M  V30 10431 H 1005.34 4.77702 4.72494 0
M  V30 10432 N 1008.06 -1.15214 1.07534 0
M  V30 10433 C 1009.01 -2.20013 0.697337 0
M  V30 10434 C 1009.98 -1.6314 -0.312168 0
M  V30 10435 O 1011.17 -1.89768 -0.198196 0
M  V30 10436 C 1008.31 -3.44945 0.103293 0
M  V30 10437 C 1007.42 -4.16009 1.1645 0
M  V30 10438 C 1006.55 -5.28496 0.535261 0
M  V30 10439 C 1005.59 -5.9138 1.57912 0
M  V30 10440 N 1004.73 -6.95335 0.972332 0
M  V30 10441 H 1009.57 -2.51698 1.59538 0
M  V30 10442 H 1007.11 -1.2361 0.797431 0
M  V30 10443 H 1009.07 -4.16397 -0.258766 0
M  V30 10444 H 1007.7 -3.13772 -0.758096 0
M  V30 10445 H 1006.75 -3.43035 1.64411 0
M  V30 10446 H 1008.06 -4.58853 1.9559 0
M  V30 10447 H 1007.21 -6.06579 0.120942 0
M  V30 10448 H 1005.95 -4.8685 -0.287889 0
M  V30 10449 H 1004.96 -5.12008 2.0032 0
M  V30 10450 H 1006.18 -6.35103 2.40459 0
M  V30 10451 H 1004.13 -6.55779 0.170119 0
M  V30 10452 H 1004.05 -7.36616 1.70095 0
M  V30 10453 H 1005.31 -7.77312 0.583577 0
M  V30 10454 N 1009.54 -0.859717 -1.32086 0
M  V30 10455 C 1010.47 -0.265258 -2.2766 0
M  V30 10456 C 1011.49 0.565889 -1.52648 0
M  V30 10457 O 1012.68 0.389554 -1.74197 0
M  V30 10458 C 1009.78 0.643397 -3.32737 0
M  V30 10459 C 1008.95 -0.153024 -4.37132 0
M  V30 10460 C 1008.01 0.682176 -5.21759 0
M  V30 10461 O 1007.03 0.113878 -5.69086 0
M  V30 10462 N 1008.24 1.99602 -5.45105 0
M  V30 10463 H 1011 -1.08653 -2.79311 0
M  V30 10464 H 1008.56 -0.720191 -1.45 0
M  V30 10465 H 1010.55 1.20759 -3.86263 0
M  V30 10466 H 1009.12 1.36535 -2.81206 0
M  V30 10467 H 1008.34 -0.898657 -3.8382 0
M  V30 10468 H 1009.63 -0.699877 -5.03963 0
M  V30 10469 H 1009.03 2.481 -5.08393 0
M  V30 10470 H 1007.59 2.50823 -6.01607 0
M  V30 10471 N 1011.02 1.44971 -0.618145 0
M  V30 10472 C 1012.44 1.57077 -0.282666 0
M  V30 10473 C 1012.64 1.60782 1.21456 0
M  V30 10474 O 1011.69 1.54382 1.99806 0
M  V30 10475 C 1013.01 2.84858 -0.963148 0
M  V30 10476 C 1014.55 2.9855 -0.940062 0
M  V30 10477 C 1015.03 4.29115 -1.60076 0
M  V30 10478 N 1016.52 4.35899 -1.56674 0
M  V30 10479 C 1017.25 5.35617 -2.04701 0
M  V30 10480 N 1016.75 6.41813 -2.6086 0
M  V30 10481 N 1018.54 5.27042 -1.95406 0
M  V30 10482 H 1010.69 1.4081 -1.59017 0
M  V30 10483 H 1012.96 0.673914 -0.666741 0
M  V30 10484 H 1012.66 2.88059 -2.0178 0
M  V30 10485 H 1012.54 3.73966 -0.492901 0
M  V30 10486 H 1014.92 2.94909 0.10607 0
M  V30 10487 H 1015.01 2.10825 -1.44868 0
M  V30 10488 H 1014.65 4.33514 -2.64627 0
M  V30 10489 H 1014.58 5.15675 -1.06708 0
M  V30 10490 H 1017.07 3.59766 -1.15659 0
M  V30 10491 H 1017.38 7.14166 -2.95273 0
M  V30 10492 H 1015.73 6.42534 -2.64905 0
M  V30 10493 H 1018.92 4.42987 -1.51263 0
M  V30 10494 H 1019.09 6.04604 -2.33147 0
M  V30 10495 N 1012.5 0.357919 1.53482 0
M  V30 10496 C 1013.43 -0.535553 2.21827 0
M  V30 10497 C 1014.41 -1.08904 1.20742 0
M  V30 10498 O 1015.59 -1.14661 1.49616 0
M  V30 10499 C 1012.72 -1.73817 2.90698 0
M  V30 10500 C 1011.77 -1.31283 4.05792 0
M  V30 10501 S 1012.6 -0.320548 5.3454 0
M  V30 10502 C 1013.76 -1.52967 6.0692 0
M  V30 10503 H 1013.99 0.0449045 2.97266 0
M  V30 10504 H 1011.52 0.142009 1.53746 0
M  V30 10505 H 1013.48 -2.42803 3.30994 0
M  V30 10506 H 1012.14 -2.28987 2.14998 0
M  V30 10507 H 1011.33 -2.20989 4.52968 0
M  V30 10508 H 1010.94 -0.702275 3.67347 0
M  V30 10509 H 1013.23 -2.46191 6.31186 0
M  V30 10510 H 1014.17 -1.09943 6.99513 0
M  V30 10511 H 1014.58 -1.73224 5.37265 0
M  V30 10512 N 1013.98 -1.5736 0.0868897 0
M  V30 10513 C 1015.39 -1.81356 -0.443499 0
M  V30 10514 C 1015.74 -1.00192 -1.68689 0
M  V30 10515 O 1014.86 -0.228863 -2.15186 0
M  V30 10516 C 1015.46 -3.28941 -0.811387 0
M  V30 10517 C 1014.02 -3.53729 -1.28656 0
M  V30 10518 C 1013.16 -2.75891 -0.279153 0
M  V30 10519 H 1016.12 -1.55594 0.312427 0
M  V30 10520 H 1016.14 -3.41815 -1.6716 0
M  V30 10521 H 1015.65 -3.87987 0.0937598 0
M  V30 10522 H 1013.75 -3.00005 -2.2097 0
M  V30 10523 H 1013.86 -4.62396 -1.25406 0
M  V30 10524 H 1012.23 -2.4311 -0.759595 0
M  V30 10525 H 1013.01 -3.37682 0.618529 0
M  V30 10526 N 1015.45 0.186762 -1.56489 0
M  V30 10527 C 1016.36 1.25169 -1.98419 0
M  V30 10528 C 1017.38 1.49329 -0.893124 0
M  V30 10529 O 1018.56 1.61781 -1.19954 0
M  V30 10530 C 1015.62 2.57422 -2.32239 0
M  V30 10531 C 1014.68 2.4126 -3.55095 0
M  V30 10532 C 1013.92 3.67206 -3.87292 0
M  V30 10533 O 1014.14 4.71731 -3.20665 0
M  V30 10534 O 1013.07 3.62238 -4.80695 0
M  V30 10535 H 1016.9 0.925834 -2.89244 0
M  V30 10536 H 1014.48 0.392421 -1.44154 0
M  V30 10537 H 1016.37 3.35466 -2.5503 0
M  V30 10538 H 1015.04 2.89618 -1.44579 0
M  V30 10539 H 1013.95 1.61299 -3.37541 0
M  V30 10540 H 1015.28 2.13994 -4.43247 0
M  V30 10541 N 1016.93 1.50896 0.454776 0
M  V30 10542 C 1017.86 1.73885 1.5584 0
M  V30 10543 C 1018.84 0.588172 1.59607 0
M  V30 10544 O 1020.03 0.829054 1.75614 0
M  V30 10545 C 1017.16 1.84796 2.94054 0
M  V30 10546 C 1016.11 3.00111 3.05152 0
M  V30 10547 C 1015.44 2.96183 4.45174 0
M  V30 10548 C 1016.74 4.40365 2.80849 0
M  V30 10549 H 1018.43 2.66292 1.36854 0
M  V30 10550 H 1015.98 1.28142 0.656936 0
M  V30 10551 H 1017.93 1.99462 3.71204 0
M  V30 10552 H 1016.66 0.890235 3.14233 0
M  V30 10553 H 1015.31 2.85121 2.30438 0
M  V30 10554 H 1014.96 1.98224 4.62295 0
M  V30 10555 H 1014.66 3.73608 4.53532 0
M  V30 10556 H 1016.19 3.1292 5.24322 0
M  V30 10557 H 1017.6 4.55795 3.47741 0
M  V30 10558 H 1016 5.19363 3.00636 0
M  V30 10559 H 1017.07 4.51606 1.76579 0
M  V30 10560 N 1018.41 -0.709066 1.40748 0
M  V30 10561 C 1019.34 -1.83412 1.37451 0
M  V30 10562 C 1020.36 -1.60394 0.27884 0
M  V30 10563 O 1021.54 -1.70147 0.539642 0
M  V30 10564 C 1018.64 -3.19935 1.1178 0
M  V30 10565 C 1017.82 -3.70095 2.33128 0
M  V30 10566 C 1016.88 -4.85249 2.03518 0
M  V30 10567 O 1015.9 -4.97563 2.76442 0
M  V30 10568 N 1017.1 -5.7152 1.01714 0
M  V30 10569 H 1019.87 -1.86736 2.34414 0
M  V30 10570 H 1017.43 -0.890863 1.35186 0
M  V30 10571 H 1019.42 -3.94578 0.899464 0
M  V30 10572 H 1017.99 -3.11718 0.234624 0
M  V30 10573 H 1017.21 -2.8651 2.70751 0
M  V30 10574 H 1018.5 -4.00344 3.1401 0
M  V30 10575 H 1017.9 -5.64188 0.413307 0
M  V30 10576 H 1016.46 -6.46119 0.858696 0
M  V30 10577 N 1019.89 -1.26353 -0.941956 0
M  V30 10578 C 1020.82 -1.10341 -2.05784 0
M  V30 10579 C 1021.8 -0.00881565 -1.70098 0
M  V30 10580 O 1022.99 -0.180699 -1.93357 0
M  V30 10581 C 1020.12 -0.734788 -3.39438 0
M  V30 10582 C 1019.07 -1.78103 -3.89183 0
M  V30 10583 C 1018.4 -1.26675 -5.19478 0
M  V30 10584 C 1019.7 -3.1824 -4.14151 0
M  V30 10585 H 1021.39 -2.03684 -2.19438 0
M  V30 10586 H 1018.94 -0.980698 -1.05443 0
M  V30 10587 H 1020.89 -0.609653 -4.16967 0
M  V30 10588 H 1019.61 0.234354 -3.25758 0
M  V30 10589 H 1018.27 -1.89482 -3.13835 0
M  V30 10590 H 1017.92 -0.287472 -5.02178 0
M  V30 10591 H 1017.62 -1.96612 -5.53731 0
M  V30 10592 H 1019.14 -1.15427 -5.99591 0
M  V30 10593 H 1020.56 -3.09942 -4.82296 0
M  V30 10594 H 1018.95 -3.8576 -4.59684 0
M  V30 10595 H 1020.02 -3.64354 -3.19959 0
M  V30 10596 N 1021.37 1.14642 -1.08144 0
M  V30 10597 C 1022.62 1.84964 -0.804437 0
M  V30 10598 C 1022.93 1.8369 0.672106 0
M  V30 10599 O 1024.14 2.49775 1.06417 0
M  V30 10600 C 1022.59 3.32015 -1.38904 0
M  V30 10601 C 1022.2 3.41713 -2.89718 0
M  V30 10602 C 1023.94 4.07467 -1.19041 0
M  V30 10603 C 1021.85 4.82958 -3.41329 0
M  V30 10604 H 1020.78 0.692932 -0.297256 0
M  V30 10605 H 1023.43 1.29255 -1.30251 0
M  V30 10606 H 1021.81 3.87445 -0.818679 0
M  V30 10607 H 1022.99 2.96347 -3.52867 0
M  V30 10608 H 1021.3 2.79713 -3.08463 0
M  V30 10609 H 1023.9 5.1172 -1.55069 0
M  V30 10610 H 1024.24 4.16097 -0.130027 0
M  V30 10611 H 1024.78 3.58329 -1.72757 0
M  V30 10612 H 1021.51 4.79515 -4.46929 0
M  V30 10613 H 1021.03 5.28873 -2.82937 0
M  V30 10614 H 1022.71 5.51841 -3.37759 0
M  V30 10615 N 1022.85 0.866709 1.31628 0
M  V30 10616 C 1023.81 0.325041 2.26883 0
M  V30 10617 C 1024.81 -0.522133 1.52087 0
M  V30 10618 O 1026 -0.331908 1.71009 0
M  V30 10619 C 1023.13 -0.538756 3.36616 0
M  V30 10620 H 1024.32 1.16592 2.76308 0
M  V30 10621 H 1021.88 0.642029 1.42505 0
M  V30 10622 H 1022.61 -1.40096 2.92478 0
M  V30 10623 H 1022.4 0.0678115 3.92041 0
M  V30 10624 H 1023.89 -0.910123 4.07562 0
M  V30 10625 N 1024.32 -1.44642 0.625825 0
M  V30 10626 C 1025.27 -2.32408 -0.0945221 0
M  V30 10627 C 1026.27 -1.47038 -0.841198 0
M  V30 10628 O 1027.47 -1.63415 -0.754698 0
M  V30 10629 H 1023.85 -0.75038 -0.0493321 0
M  V30 10630 H 1025.82 -2.90922 0.663863 0
M  V30 10631 C 1024.57 -3.30951 -1.06615 0
M  V30 10632 H 1023.89 -3.96648 -0.501021 0
M  V30 10633 H 1025.33 -3.95054 -1.53976 0
M  V30 10634 C 1023.79 -2.59479 -2.14877 0
M  V30 10635 O 1024.32 -2.38974 -3.22885 0
M  V30 10636 N 1022.52 -2.19307 -1.90665 0
M  V30 10637 H 1022.07 -2.36184 -1.02835 0
M  V30 10638 H 1022.03 -1.71811 -2.63303 0
M  V30 10639 N 1025.8 -0.366053 -1.5329 0
M  V30 10640 C 1027.05 0.223051 -2.00865 0
M  V30 10641 C 1027.37 1.49244 -1.25504 0
M  V30 10642 O 1026.64 1.92404 -0.368444 0
M  V30 10643 H 1025.22 0.085413 -0.742101 0
M  V30 10644 H 1027.88 -0.492396 -1.88578 0
M  V30 10645 H 1026.98 0.449701 -3.08843 0
M  V30 10646 N 1027.28 1.57312 -0.0952337 0
M  V30 10647 C 1028.23 2.10571 0.87428 0
M  V30 10648 C 1029.21 1.02079 1.24374 0
M  V30 10649 O 1030.41 1.28353 1.2188 0
M  V30 10650 C 1027.53 2.68972 2.13329 0
M  V30 10651 C 1026.62 3.84508 1.78926 0
M  V30 10652 N 1027.01 4.92534 1.15082 0
M  V30 10653 C 1025.31 3.94245 2.08535 0
M  V30 10654 C 1026.01 5.73163 0.992937 0
M  V30 10655 N 1024.99 5.22198 1.51029 0
M  V30 10656 H 1028.79 2.91476 0.376727 0
M  V30 10657 H 1026.3 1.62041 0.107974 0
M  V30 10658 H 1028.3 3.05457 2.83728 0
M  V30 10659 H 1026.96 1.89523 2.6365 0
M  V30 10660 H 1027.97 5.11405 0.817621 0
M  V30 10661 H 1024.65 3.25805 2.61069 0
M  V30 10662 H 1026.04 6.70084 0.493641 0
M  V30 10663 N 1028.76 -0.17846 1.56586 0
M  V30 10664 C 1029.99 -0.911996 1.85715 0
M  V30 10665 C 1030.4 -1.76138 0.679766 0
M  V30 10666 O 1029.76 -1.79088 -0.351266 0
M  V30 10667 C 1029.81 -1.79459 3.1381 0
M  V30 10668 O 1029.53 -0.979476 4.2701 0
M  V30 10669 C 1031.03 -2.6384 3.56235 0
M  V30 10670 H 1028.25 -0.265299 0.616326 0
M  V30 10671 H 1030.79 -0.180704 2.037 0
M  V30 10672 H 1028.95 -2.4793 2.97673 0
M  V30 10673 H 1029.36 -1.58244 5.00059 0
M  V30 10674 H 1030.84 -3.21396 4.48786 0
M  V30 10675 H 1031.31 -3.38363 2.80013 0
M  V30 10676 H 1031.92 -2.00712 3.7496 0
M  V30 10677 N 1030.24 -1.51135 -0.446768 0
M  V30 10678 C 1031.18 -1.71767 -1.54158 0
M  V30 10679 C 1032.15 -0.559201 -1.56404 0
M  V30 10680 O 1033.34 -0.792567 -1.7356 0
M  V30 10681 C 1030.48 -1.84006 -2.91952 0
M  V30 10682 C 1029.59 -3.11511 -2.99308 0
M  V30 10683 C 1028.73 -3.144 -4.28166 0
M  V30 10684 C 1027.76 -4.36258 -4.29355 0
M  V30 10685 N 1026.9 -4.3675 -5.49722 0
M  V30 10686 H 1031.74 -2.65224 -1.35869 0
M  V30 10687 H 1029.28 -1.31453 -0.660186 0
M  V30 10688 H 1031.24 -1.89083 -3.71892 0
M  V30 10689 H 1029.87 -0.939661 -3.08821 0
M  V30 10690 H 1028.92 -3.15788 -2.12089 0
M  V30 10691 H 1030.23 -4.01445 -2.96047 0
M  V30 10692 H 1029.38 -3.18341 -5.16473 0
M  V30 10693 H 1028.12 -2.22338 -4.3407 0
M  V30 10694 H 1027.13 -4.32503 -3.39442 0
M  V30 10695 H 1028.35 -5.29574 -4.25122 0
M  V30 10696 H 1026.3 -3.47554 -5.56365 0
M  V30 10697 H 1026.22 -5.20481 -5.48302 0
M  V30 10698 H 1027.48 -4.4487 -6.40086 0
M  V30 10699 N 1031.71 0.701592 -1.41122 0
M  V30 10700 C 1032.96 1.46245 -1.41364 0
M  V30 10701 C 1033.31 1.9239 -0.0200662 0
M  V30 10702 O 1032.61 1.6622 0.952971 0
M  V30 10703 C 1032.8 2.693 -2.34973 0
M  V30 10704 C 1032.63 2.35193 -3.83294 0
M  V30 10705 C 1031.4 2.2585 -4.52018 0
M  V30 10706 C 1033.6 1.98555 -4.74426 0
M  V30 10707 N 1031.58 1.84565 -5.85499 0
M  V30 10708 C 1032.95 1.67981 -5.9681 0
M  V30 10709 C 1035.01 1.85313 -4.62129 0
M  V30 10710 C 1033.71 1.25496 -7.08268 0
M  V30 10711 C 1035.74 1.44232 -5.73543 0
M  V30 10712 C 1035.1 1.14564 -6.95021 0
M  V30 10713 H 1031.2 0.532679 -0.572518 0
M  V30 10714 H 1033.78 0.812296 -1.76946 0
M  V30 10715 H 1031.95 3.32045 -2.01496 0
M  V30 10716 H 1033.68 3.35734 -2.25976 0
M  V30 10717 H 1030.44 2.4405 -4.05878 0
M  V30 10718 H 1030.86 1.66421 -6.56226 0
M  V30 10719 H 1035.5 2.06905 -3.68714 0
M  V30 10720 H 1033.22 1.02647 -8.01554 0
M  V30 10721 H 1036.81 1.34544 -5.66029 0
M  V30 10722 H 1035.69 0.832556 -7.79768 0
M  V30 10723 N 1033.19 1.2685 0.935242 0
M  V30 10724 C 1034.12 1.1143 2.05196 0
M  V30 10725 C 1035.1 0.0178362 1.70091 0
M  V30 10726 O 1036.29 0.190951 1.93259 0
M  V30 10727 C 1033.42 0.752779 3.39044 0
M  V30 10728 C 1032.37 1.80164 3.88233 0
M  V30 10729 C 1031.7 1.29428 5.18799 0
M  V30 10730 C 1033 3.20431 4.12457 0
M  V30 10731 H 1034.69 2.04845 2.18355 0
M  V30 10732 H 1032.24 0.986276 1.04922 0
M  V30 10733 H 1034.19 0.631757 4.16637 0
M  V30 10734 H 1032.91 -0.217075 3.25878 0
M  V30 10735 H 1031.57 1.91144 3.12825 0
M  V30 10736 H 1031.22 0.3141 5.02018 0
M  V30 10737 H 1030.92 1.99546 5.5268 0
M  V30 10738 H 1032.45 1.18605 5.9897 0
M  V30 10739 H 1033.86 3.12495 4.80645 0
M  V30 10740 H 1032.26 3.88193 4.57631 0
M  V30 10741 H 1033.33 3.66046 3.18023 0
M  V30 10742 N 1034.67 -1.14067 1.0875 0
M  V30 10743 C 1035.62 -2.21332 0.715195 0
M  V30 10744 C 1036.61 -1.67059 -0.280679 0
M  V30 10745 O 1037.82 -1.79432 -0.142874 0
M  V30 10746 H 1034.19 -0.721126 0.213264 0
M  V30 10747 H 1036.16 -2.50002 1.62916 0
M  V30 10748 C 1034.91 -3.474 0.144401 0
M  V30 10749 H 1034.24 -3.89495 0.901884 0
M  V30 10750 H 1035.68 -4.23928 -0.0782564 0
M  V30 10751 C 1034.14 -3.17787 -1.11862 0
M  V30 10752 O 1034.67 -3.35906 -2.20295 0
M  V30 10753 N 1032.87 -2.71719 -1.03039 0
M  V30 10754 H 1032.42 -2.57175 -0.14793 0
M  V30 10755 H 1032.38 -2.52281 -1.87621 0
M  V30 10756 N 1036.15 -0.873678 -1.31166 0
M  V30 10757 C 1037.1 -0.330288 -2.28424 0
M  V30 10758 C 1038.07 0.573299 -1.55893 0
M  V30 10759 O 1039.25 0.504143 -1.84019 0
M  V30 10760 C 1036.39 0.459004 -3.42034 0
M  V30 10761 C 1035.5 -0.472519 -4.29408 0
M  V30 10762 C 1034.64 0.331261 -5.30166 0
M  V30 10763 C 1033.68 -0.596453 -6.09187 0
M  V30 10764 N 1032.81 0.171305 -7.01891 0
M  V30 10765 H 1037.65 -1.16485 -2.7429 0
M  V30 10766 H 1035.19 -0.585813 -1.34932 0
M  V30 10767 H 1037.15 0.932432 -4.06647 0
M  V30 10768 H 1035.78 1.25824 -2.97268 0
M  V30 10769 H 1034.83 -1.06441 -3.65205 0
M  V30 10770 H 1036.14 -1.18372 -4.84551 0
M  V30 10771 H 1035.3 0.867038 -6.00473 0
M  V30 10772 H 1034.04 1.07573 -4.75688 0
M  V30 10773 H 1033.04 -1.14395 -5.37767 0
M  V30 10774 H 1034.27 -1.33983 -6.65752 0
M  V30 10775 H 1032.21 0.89852 -6.49817 0
M  V30 10776 H 1032.13 -0.480481 -7.54472 0
M  V30 10777 H 1033.4 0.688192 -7.76456 0
M  V30 10778 N 1037.63 1.44308 -0.633487 0
M  V30 10779 C 1039.04 1.56768 -0.29931 0
M  V30 10780 C 1039.24 1.62061 1.19743 0
M  V30 10781 O 1038.3 1.56492 1.98158 0
M  V30 10782 C 1039.61 2.8382 -0.993307 0
M  V30 10783 C 1041.16 2.97536 -0.971674 0
M  V30 10784 C 1041.63 4.27393 -1.64618 0
M  V30 10785 N 1043.13 4.34212 -1.61288 0
M  V30 10786 C 1043.86 5.33415 -2.1037 0
M  V30 10787 N 1043.36 6.3901 -2.67653 0
M  V30 10788 N 1045.15 5.24939 -2.00985 0
M  V30 10789 H 1037.3 1.39115 -1.60501 0
M  V30 10790 H 1039.56 0.666804 -0.673852 0
M  V30 10791 H 1039.27 2.85902 -2.04823 0
M  V30 10792 H 1039.14 3.73422 -0.532537 0
M  V30 10793 H 1041.53 2.95005 0.0747854 0
M  V30 10794 H 1041.61 2.09276 -1.47096 0
M  V30 10795 H 1041.26 4.30683 -2.6921 0
M  V30 10796 H 1041.19 5.14515 -1.12171 0
M  V30 10797 H 1043.68 3.58519 -1.19468 0
M  V30 10798 H 1043.99 7.10994 -3.02831 0
M  V30 10799 H 1042.33 6.39689 -2.71705 0
M  V30 10800 H 1045.53 4.41357 -1.55953 0
M  V30 10801 H 1045.7 6.02097 -2.39547 0
M  V30 10802 N 1039.1 0.374177 1.53094 0
M  V30 10803 C 1040.05 -0.468226 2.26001 0
M  V30 10804 C 1041.02 -1.07041 1.27009 0
M  V30 10805 O 1042.21 -1.10129 1.55809 0
M  V30 10806 C 1039.35 -1.59754 3.05896 0
M  V30 10807 C 1038.46 -1.01969 4.19793 0
M  V30 10808 C 1037.59 -2.11882 4.87113 0
M  V30 10809 C 1036.63 -1.51607 5.93028 0
M  V30 10810 N 1035.77 -2.55388 6.54004 0
M  V30 10811 H 1040.61 0.159983 2.9757 0
M  V30 10812 H 1038.15 0.0907196 1.4682 0
M  V30 10813 H 1040.11 -2.26288 3.50499 0
M  V30 10814 H 1038.74 -2.19628 2.36565 0
M  V30 10815 H 1037.79 -0.244386 3.79614 0
M  V30 10816 H 1039.1 -0.539089 4.95878 0
M  V30 10817 H 1038.25 -2.86218 5.34943 0
M  V30 10818 H 1036.99 -2.63297 4.10519 0
M  V30 10819 H 1036 -0.757891 5.44551 0
M  V30 10820 H 1037.22 -1.01006 6.71546 0
M  V30 10821 H 1035.17 -3.06 5.80258 0
M  V30 10822 H 1035.09 -2.12039 7.25655 0
M  V30 10823 H 1036.35 -3.294 7.06481 0
M  V30 10824 N 1040.58 -1.57259 0.103575 0
M  V30 10825 C 1041.83 -1.93832 -0.55786 0
M  V30 10826 C 1042.14 -0.988087 -1.68808 0
M  V30 10827 O 1043.35 -1.24786 -2.41124 0
M  V30 10828 C 1041.81 -3.44433 -1.04373 0
M  V30 10829 C 1041.41 -4.47963 0.0571971 0
M  V30 10830 C 1043.16 -3.89953 -1.67742 0
M  V30 10831 C 1041.07 -5.89727 -0.444505 0
M  V30 10832 H 1040 -0.723536 -0.212161 0
M  V30 10833 H 1042.65 -1.82606 0.180944 0
M  V30 10834 H 1041.03 -3.50841 -1.83648 0
M  V30 10835 H 1042.2 -4.53209 0.83298 0
M  V30 10836 H 1040.52 -4.12104 0.596588 0
M  V30 10837 H 1043.11 -4.93272 -2.06365 0
M  V30 10838 H 1043.46 -3.2907 -2.54988 0
M  V30 10839 H 1043.99 -3.86281 -0.950342 0
M  V30 10840 H 1040.73 -6.5433 0.391543 0
M  V30 10841 H 1040.25 -5.87935 -1.18711 0
M  V30 10842 H 1041.93 -6.40558 -0.910739 0
M  V30 10843 N 1042.06 0.170153 -1.56679 0
M  V30 10844 C 1043.01 1.21064 -1.965 0
M  V30 10845 C 1043.98 1.43928 -0.829092 0
M  V30 10846 O 1045.16 1.56649 -1.08931 0
M  V30 10847 C 1042.3 2.54468 -2.33109 0
M  V30 10848 C 1041.42 2.38974 -3.59883 0
M  V30 10849 C 1040.55 3.65252 -3.857 0
M  V30 10850 C 1039.59 3.44696 -5.05817 0
M  V30 10851 N 1038.73 4.63047 -5.27761 0
M  V30 10852 H 1043.57 0.864055 -2.85198 0
M  V30 10853 H 1041.1 0.415243 -1.41117 0
M  V30 10854 H 1043.06 3.32222 -2.52358 0
M  V30 10855 H 1041.69 2.8712 -1.4752 0
M  V30 10856 H 1040.74 1.5239 -3.48542 0
M  V30 10857 H 1042.06 2.19731 -4.47794 0
M  V30 10858 H 1041.21 4.51441 -4.05322 0
M  V30 10859 H 1039.95 3.87475 -2.96166 0
M  V30 10860 H 1038.95 2.56893 -4.86092 0
M  V30 10861 H 1040.18 3.23894 -5.96883 0
M  V30 10862 H 1038.12 4.85487 -4.41179 0
M  V30 10863 H 1038.04 4.46722 -6.09898 0
M  V30 10864 H 1039.31 5.50516 -5.51863 0
M  V30 10865 N 1043.54 1.5137 0.438746 0
M  V30 10866 C 1044.5 1.71993 1.51496 0
M  V30 10867 C 1045.5 0.589978 1.49586 0
M  V30 10868 O 1046.69 0.857505 1.51633 0
M  V30 10869 C 1043.82 1.77508 2.91039 0
M  V30 10870 H 1045.02 2.68041 1.34514 0
M  V30 10871 H 1042.57 1.41338 0.667326 0
M  V30 10872 H 1043.3 0.832698 3.13427 0
M  V30 10873 H 1043.09 2.59627 2.9383 0
M  V30 10874 H 1044.58 1.95308 3.69113 0
M  V30 10875 N 1045.02 -0.694098 1.41492 0
M  V30 10876 C 1046.26 -1.45415 1.40929 0
M  V30 10877 C 1046.59 -1.94491 0.0189301 0
M  V30 10878 O 1045.85 -1.7 -0.96945 0
M  V30 10879 C 1046.15 -2.6805 2.36398 0
M  V30 10880 C 1045.81 -2.37623 3.83205 0
M  V30 10881 C 1044.47 -2.29035 4.23198 0
M  V30 10882 C 1046.83 -2.12555 4.75888 0
M  V30 10883 C 1044.15 -1.93478 5.5388 0
M  V30 10884 C 1046.51 -1.78506 6.06892 0
M  V30 10885 C 1045.17 -1.68415 6.45905 0
M  V30 10886 H 1044.44 -0.53211 0.515694 0
M  V30 10887 H 1047.09 -0.793193 1.74301 0
M  V30 10888 H 1045.39 -3.39086 1.96285 0
M  V30 10889 H 1047.09 -3.26194 2.33234 0
M  V30 10890 H 1043.68 -2.45202 3.51531 0
M  V30 10891 H 1047.86 -2.18133 4.45793 0
M  V30 10892 H 1043.12 -1.84219 5.82986 0
M  V30 10893 H 1047.29 -1.58128 6.7821 0
M  V30 10894 H 1044.92 -1.40631 7.47079 0
M  V30 10895 N 1046.49 -1.27344 -0.928501 0
M  V30 10896 C 1047.72 -1.16278 -1.70772 0
M  V30 10897 C 1048.13 0.283131 -1.8707 0
M  V30 10898 O 1047.48 1.20466 -1.38685 0
M  V30 10899 C 1047.54 -1.77313 -3.1273 0
M  V30 10900 C 1047.2 -3.26488 -3.19773 0
M  V30 10901 C 1048.2 -4.23133 -3.02083 0
M  V30 10902 C 1045.88 -3.67182 -3.42757 0
M  V30 10903 C 1047.88 -5.5845 -3.07267 0
M  V30 10904 C 1045.56 -5.02629 -3.47574 0
M  V30 10905 C 1046.56 -5.98072 -3.29847 0
M  V30 10906 O 1046.25 -7.3105 -3.34397 0
M  V30 10907 H 1045.98 -0.405215 -0.541089 0
M  V30 10908 H 1048.54 -1.68707 -1.17163 0
M  V30 10909 H 1046.77 -1.19361 -3.67818 0
M  V30 10910 H 1048.46 -1.60972 -3.72616 0
M  V30 10911 H 1049.22 -3.93031 -2.84168 0
M  V30 10912 H 1045.1 -2.93369 -3.55606 0
M  V30 10913 H 1048.64 -6.32924 -2.93348 0
M  V30 10914 H 1044.54 -5.32387 -3.65013 0
M  V30 10915 H 1045.31 -7.39488 -3.50857 0
M  V30 10916 N 1047.97 1.13488 -1.09353 0
M  V30 10917 C 1049.2 1.89133 -0.85108 0
M  V30 10918 C 1049.62 1.78542 0.591976 0
M  V30 10919 O 1048.98 1.13243 1.41583 0
M  V30 10920 C 1049.03 3.36736 -1.29001 0
M  V30 10921 O 1048.13 4.09959 -0.447993 0
M  V30 10922 H 1047.47 0.58809 -0.308296 0
M  V30 10923 H 1050 1.43593 -1.45747 0
M  V30 10924 H 1050.01 3.87564 -1.27508 0
M  V30 10925 H 1048.69 3.43762 -2.34095 0
M  V30 10926 H 1047.27 3.69155 -0.52717 0
M  V30 10927 N 1049.45 0.880621 1.30701 0
M  V30 10928 C 1050.73 0.41712 1.91101 0
M  V30 10929 C 1051.11 -1.10177 1.80067 0
M  V30 10930 O 1050.46 -1.93513 1.21511 0
M  V30 10931 C 1050.67 0.910364 3.36917 0
M  V30 10932 C 1052.01 0.942764 4.14001 0
M  V30 10933 O 1053.04 0.856733 3.45743 0
M  V30 10934 O 1051.9 1.06913 5.3594 0
M  V30 10935 H 1048.99 0.126775 0.817225 0
M  V30 10936 H 1051.54 0.969236 1.39298 0
M  V30 10937 H 1050.31 1.95414 3.39012 0
M  V30 10938 H 1049.93 0.337164 3.96168 0
M  V30 10939 N 1050.93 -1.4397 0.641131 0
M  V30 10940 C 1052.18 -2.02246 0.14985 0
M  V30 10941 C 1052.51 -1.50387 -1.22871 0
M  V30 10942 O 1051.78 -0.692003 -1.81773 0
M  V30 10943 C 1052.07 -3.59798 0.147449 0
M  V30 10944 C 1051.92 -4.21916 1.55907 0
M  V30 10945 C 1053.24 -4.36985 -0.522667 0
M  V30 10946 H 1050.36 -0.734875 0.0559274 0
M  V30 10947 H 1053 -1.71418 0.819513 0
M  V30 10948 H 1051.15 -3.86193 -0.422789 0
M  V30 10949 H 1052.82 -4.06594 2.17896 0
M  V30 10950 H 1051.06 -3.79028 2.10998 0
M  V30 10951 H 1051.74 -5.30964 1.50934 0
M  V30 10952 H 1054.21 -4.16083 -0.0376226 0
M  V30 10953 H 1053.09 -5.46676 -0.493572 0
M  V30 10954 H 1053.35 -4.12335 -1.59475 0
M  V30 10955 N 1052.41 -0.382291 -1.52893 0
M  V30 10956 C 1053.66 0.203342 -2.00672 0
M  V30 10957 C 1053.97 1.48487 -1.27322 0
M  V30 10958 O 1055.18 2.15013 -1.65776 0
M  V30 10959 C 1053.63 0.412922 -3.57523 0
M  V30 10960 C 1053.24 -0.854949 -4.39767 0
M  V30 10961 C 1054.98 0.955301 -4.13611 0
M  V30 10962 C 1052.89 -0.614033 -5.88204 0
M  V30 10963 H 1051.82 0.0797635 -0.749769 0
M  V30 10964 H 1054.47 -0.50361 -1.76454 0
M  V30 10965 H 1052.85 1.18155 -3.77962 0
M  V30 10966 H 1054.03 -1.62765 -4.31096 0
M  V30 10967 H 1052.34 -1.32176 -3.94865 0
M  V30 10968 H 1054.94 1.15114 -5.22162 0
M  V30 10969 H 1055.28 1.92233 -3.69259 0
M  V30 10970 H 1055.82 0.24642 -3.97036 0
M  V30 10971 H 1052.55 -1.55187 -6.36865 0
M  V30 10972 H 1052.07 0.119865 -5.9968 0
M  V30 10973 H 1053.75 -0.245895 -6.46533 0
M  V30 10974 N 1053.89 1.57202 -0.111913 0
M  V30 10975 C 1054.85 2.13778 0.826534 0
M  V30 10976 C 1055.85 1.07097 1.19945 0
M  V30 10977 O 1057.04 1.32906 1.12613 0
M  V30 10978 C 1054.17 2.6722 2.11675 0
M  V30 10979 H 1055.36 2.98023 0.334975 0
M  V30 10980 H 1052.92 1.55696 0.137256 0
M  V30 10981 H 1053.65 1.86542 2.65278 0
M  V30 10982 H 1053.44 3.45235 1.8589 0
M  V30 10983 H 1054.93 3.10926 2.78774 0
M  V30 10984 N 1055.36 -0.161842 1.56767 0
M  V30 10985 C 1056.27 -1.21996 2.00385 0
M  V30 10986 C 1057.29 -1.4789 0.916768 0
M  V30 10987 O 1058.47 -1.59852 1.22513 0
M  V30 10988 C 1055.53 -2.53695 2.36305 0
M  V30 10989 C 1054.59 -2.3558 3.58888 0
M  V30 10990 C 1053.82 -3.60998 3.93085 0
M  V30 10991 O 1054.05 -4.6657 3.28129 0
M  V30 10992 O 1052.98 -3.54544 4.86397 0
M  V30 10993 H 1056.81 -0.879701 2.9068 0
M  V30 10994 H 1054.39 -0.369437 1.4476 0
M  V30 10995 H 1056.27 -3.31366 2.60335 0
M  V30 10996 H 1054.95 -2.87281 1.49169 0
M  V30 10997 H 1053.86 -1.55908 3.40064 0
M  V30 10998 H 1055.19 -2.06915 4.46595 0
M  V30 10999 N 1056.84 -1.516 -0.430713 0
M  V30 11000 C 1058.12 -1.55142 -1.19123 0
M  V30 11001 C 1058.5 -0.319596 -2.08667 0
M  V30 11002 O 1057.85 0.694927 -2.17676 0
M  V30 11003 C 1058.06 -2.86891 -1.98732 0
M  V30 11004 C 1059.4 -3.39089 -2.55546 0
M  V30 11005 O 1060.43 -2.88486 -2.08936 0
M  V30 11006 O 1059.29 -4.27401 -3.40574 0
M  V30 11007 H 1056.38 -0.624019 -0.542705 0
M  V30 11008 H 1058.93 -1.63917 -0.439244 0
M  V30 11009 H 1057.7 -3.68002 -1.33005 0
M  V30 11010 H 1057.32 -2.81309 -2.80982 0
M  V30 11011 N 1058.32 0.686584 -1.41858 0
M  V30 11012 C 1059.25 1.81264 -1.47193 0
M  V30 11013 C 1060.23 1.66875 -0.329657 0
M  V30 11014 O 1061.42 1.86473 -0.542347 0
M  V30 11015 C 1058.55 3.19472 -1.36216 0
M  V30 11016 C 1057.5 3.4858 -2.48347 0
M  V30 11017 C 1056.83 4.86239 -2.22432 0
M  V30 11018 C 1058.13 3.46653 -3.90678 0
M  V30 11019 H 1059.82 1.77057 -2.41436 0
M  V30 11020 H 1057.37 0.850415 -1.16206 0
M  V30 11021 H 1059.32 3.97969 -1.38558 0
M  V30 11022 H 1058.04 3.24327 -0.384611 0
M  V30 11023 H 1056.7 2.72437 -2.45303 0
M  V30 11024 H 1056.35 4.8773 -1.22999 0
M  V30 11025 H 1056.05 5.06677 -2.97577 0
M  V30 11026 H 1057.57 5.67034 -2.26505 0
M  V30 11027 H 1058.99 4.15139 -3.95389 0
M  V30 11028 H 1057.38 3.78625 -4.65578 0
M  V30 11029 H 1058.45 2.45451 -4.18189 0
M  V30 11030 N 1059.8 1.27835 0.921735 0
M  V30 11031 C 1061.21 1.05369 1.19873 0
M  V30 11032 C 1061.41 -0.208997 2.00413 0
M  V30 11033 O 1060.47 -0.912861 2.35421 0
M  V30 11034 C 1061.78 2.29658 1.94108 0
M  V30 11035 C 1063.33 2.34756 2.07023 0
M  V30 11036 C 1063.81 3.5879 2.84664 0
M  V30 11037 N 1065.3 3.59383 2.9223 0
M  V30 11038 C 1066.03 4.52029 3.52785 0
M  V30 11039 N 1065.53 5.54986 4.14683 0
M  V30 11040 N 1067.32 4.39641 3.50246 0
M  V30 11041 H 1059.47 2.08903 0.383819 0
M  V30 11042 H 1061.73 0.919065 0.232429 0
M  V30 11043 H 1061.44 3.21604 1.4235 0
M  V30 11044 H 1061.31 2.35444 2.94696 0
M  V30 11045 H 1063.7 1.43312 2.57965 0
M  V30 11046 H 1063.78 2.32969 1.05636 0
M  V30 11047 H 1063.43 4.50574 2.34404 0
M  V30 11048 H 1063.36 3.57829 3.86349 0
M  V30 11049 H 1065.85 2.84927 2.48244 0
M  V30 11050 H 1066.16 6.21837 4.58845 0
M  V30 11051 H 1064.51 5.58822 4.13211 0
M  V30 11052 H 1067.7 3.58413 3.01094 0
M  V30 11053 H 1067.87 5.12033 3.97148 0
M  V30 11054 N 1061.28 -1.12907 1.09954 0
M  V30 11055 C 1062.69 -1.363 0.830326 0
M  V30 11056 C 1062.89 -1.93772 -0.552694 0
M  V30 11057 O 1061.95 -2.1607 -1.30652 0
M  V30 11058 C 1063.26 -2.30925 1.92598 0
M  V30 11059 C 1064.81 -2.44528 1.95385 0
M  V30 11060 C 1065.28 -3.42464 3.0411 0
M  V30 11061 N 1066.77 -3.50018 3.03384 0
M  V30 11062 C 1067.51 -4.25693 3.84152 0
M  V30 11063 N 1067.01 -5.04476 4.74843 0
M  V30 11064 N 1068.8 -4.21049 3.7239 0
M  V30 11065 H 1060.95 -0.739571 1.99108 0
M  V30 11066 H 1063.21 -0.387983 0.86497 0
M  V30 11067 H 1062.92 -1.95861 2.92115 0
M  V30 11068 H 1062.79 -3.30997 1.80889 0
M  V30 11069 H 1065.18 -2.78875 0.965037 0
M  V30 11070 H 1065.26 -1.44361 2.11172 0
M  V30 11071 H 1064.9 -3.08847 4.03207 0
M  V30 11072 H 1064.83 -4.42448 2.85565 0
M  V30 11073 H 1067.33 -2.93809 2.37665 0
M  V30 11074 H 1067.64 -5.59541 5.33042 0
M  V30 11075 H 1065.98 -5.0369 4.78875 0
M  V30 11076 H 1069.17 -3.5858 3.00895 0
M  V30 11077 H 1069.35 -4.79771 4.35572 0
M  V30 11078 N 1062.75 -0.88754 -1.30232 0
M  V30 11079 C 1064 -0.506277 -1.95656 0
M  V30 11080 C 1064.32 0.948191 -1.70395 0
M  V30 11081 O 1063.59 1.66701 -1.02895 0
M  V30 11082 H 1062.17 -0.184235 -0.723924 0
M  V30 11083 H 1064.83 -1.13118 -1.58715 0
M  V30 11084 H 1063.93 -0.678673 -3.04632 0
M  V30 11085 N 1064.23 1.43628 -0.648757 0
M  V30 11086 C 1065.48 2.02163 -0.160574 0
M  V30 11087 C 1065.81 1.51037 1.22072 0
M  V30 11088 O 1065.09 0.701633 1.81404 0
M  V30 11089 C 1065.37 3.59715 -0.166528 0
M  V30 11090 C 1065.22 4.21083 -1.58142 0
M  V30 11091 C 1066.54 4.37256 0.499485 0
M  V30 11092 H 1063.66 0.734568 -0.0598238 0
M  V30 11093 H 1066.3 1.70981 -0.828592 0
M  V30 11094 H 1064.45 3.86411 0.402302 0
M  V30 11095 H 1066.12 4.05433 -2.2005 0
M  V30 11096 H 1064.37 3.77904 -2.13005 0
M  V30 11097 H 1065.04 5.30156 -1.53748 0
M  V30 11098 H 1067.51 4.16097 0.0155561 0
M  V30 11099 H 1066.39 5.4693 0.464574 0
M  V30 11100 H 1066.65 4.13175 1.57286 0
M  V30 11101 N 1065.71 0.390394 1.52688 0
M  V30 11102 C 1066.64 -0.479319 2.24132 0
M  V30 11103 C 1067.66 -1.0258 1.26416 0
M  V30 11104 O 1068.84 -0.927943 1.52484 0
M  V30 11105 C 1065.94 -1.67711 2.94493 0
M  V30 11106 C 1065.12 -1.2578 4.18925 0
M  V30 11107 C 1064.18 -2.3204 4.72275 0
M  V30 11108 O 1063.2 -1.93402 5.35336 0
M  V30 11109 N 1064.4 -3.63967 4.52226 0
M  V30 11110 H 1067.17 0.132777 2.99406 0
M  V30 11111 H 1064.73 0.216807 1.60442 0
M  V30 11112 H 1066.72 -2.38323 3.27084 0
M  V30 11113 H 1065.29 -2.19552 2.22521 0
M  V30 11114 H 1064.51 -0.380528 3.92359 0
M  V30 11115 H 1065.8 -0.954329 4.9977 0
M  V30 11116 H 1065.2 -3.98119 4.01892 0
M  V30 11117 H 1063.76 -4.30611 4.89303 0
M  V30 11118 N 1067.19 -1.57141 0.120249 0
M  V30 11119 C 1068.44 -1.94413 -0.53727 0
M  V30 11120 C 1068.75 -1.00594 -1.67751 0
M  V30 11121 O 1069.96 -1.27336 -2.39787 0
M  V30 11122 C 1068.41 -3.45521 -1.00714 0
M  V30 11123 C 1068.02 -4.47878 0.104706 0
M  V30 11124 C 1069.76 -3.9171 -1.63596 0
M  V30 11125 C 1067.67 -5.90165 -0.381932 0
M  V30 11126 H 1066.6 -0.725745 -0.204475 0
M  V30 11127 H 1069.25 -1.82404 0.200302 0
M  V30 11128 H 1067.63 -3.52769 -1.79917 0
M  V30 11129 H 1068.81 -4.523 0.881002 0
M  V30 11130 H 1067.12 -4.11448 0.640264 0
M  V30 11131 H 1069.72 -4.95433 -2.01122 0
M  V30 11132 H 1070.06 -3.31756 -2.51483 0
M  V30 11133 H 1070.6 -3.87268 -0.909319 0
M  V30 11134 H 1067.34 -6.53877 0.460921 0
M  V30 11135 H 1066.86 -5.89161 -1.12468 0
M  V30 11136 H 1068.53 -6.41488 -0.842748 0
M  V30 11137 N 1068.67 0.153526 -1.5685 0
M  V30 11138 C 1069.6 1.19162 -2.00805 0
M  V30 11139 C 1070.58 1.45172 -0.886518 0
M  V30 11140 O 1071.76 1.56203 -1.15387 0
M  V30 11141 C 1068.89 2.52637 -2.38311 0
M  V30 11142 C 1067.85 2.41161 -3.53589 0
M  V30 11143 C 1067.17 3.79287 -3.76889 0
M  V30 11144 C 1068.47 1.90122 -4.86468 0
M  V30 11145 H 1070.17 0.82617 -2.87776 0
M  V30 11146 H 1067.71 0.395972 -1.38449 0
M  V30 11147 H 1069.67 3.25478 -2.6766 0
M  V30 11148 H 1068.39 2.91005 -1.4827 0
M  V30 11149 H 1067.05 1.70772 -3.24395 0
M  V30 11150 H 1066.7 4.15079 -2.84109 0
M  V30 11151 H 1066.4 3.72472 -4.54465 0
M  V30 11152 H 1067.92 4.53687 -4.08657 0
M  V30 11153 H 1069.33 2.52752 -5.14577 0
M  V30 11154 H 1067.73 1.94214 -5.67804 0
M  V30 11155 H 1068.8 0.856517 -4.77275 0
M  V30 11156 N 1070.14 1.51827 0.422667 0
M  V30 11157 C 1071.08 1.68901 1.53453 0
M  V30 11158 C 1072.06 0.536549 1.53492 0
M  V30 11159 O 1073.24 0.762226 1.72402 0
M  V30 11160 C 1070.37 1.71599 2.92013 0
M  V30 11161 C 1069.41 2.92984 3.0994 0
M  V30 11162 S 1070.25 4.53559 2.84683 0
M  V30 11163 C 1071.4 4.59024 4.25498 0
M  V30 11164 H 1071.63 2.62943 1.38739 0
M  V30 11165 H 1069.17 1.41695 0.613347 0
M  V30 11166 H 1071.13 1.73838 3.71874 0
M  V30 11167 H 1069.79 0.787083 3.04079 0
M  V30 11168 H 1068.98 2.91315 4.1128 0
M  V30 11169 H 1068.58 2.88562 2.37924 0
M  V30 11170 H 1070.87 4.35567 5.18929 0
M  V30 11171 H 1071.82 5.60904 4.32195 0
M  V30 11172 H 1072.22 3.88193 4.09837 0
M  V30 11173 N 1071.62 -0.679052 1.4222 0
M  V30 11174 C 1072.55 -1.80455 1.41311 0
M  V30 11175 C 1073.57 -1.59767 0.312799 0
M  V30 11176 O 1074.76 -1.68964 0.575612 0
M  V30 11177 C 1071.86 -3.17492 1.18541 0
M  V30 11178 C 1071.03 -3.65066 2.40926 0
M  V30 11179 C 1070.09 -4.80823 2.13765 0
M  V30 11180 O 1069.11 -4.91587 2.86934 0
M  V30 11181 N 1070.32 -5.69233 1.13813 0
M  V30 11182 H 1073.08 -1.81722 2.38322 0
M  V30 11183 H 1070.64 -0.861988 1.37045 0
M  V30 11184 H 1072.63 -3.92581 0.982958 0
M  V30 11185 H 1071.2 -3.1115 0.300691 0
M  V30 11186 H 1070.42 -2.80702 2.76767 0
M  V30 11187 H 1071.71 -3.93593 3.22431 0
M  V30 11188 H 1071.11 -5.63185 0.532887 0
M  V30 11189 H 1069.67 -6.44152 0.995554 0
M  V30 11190 N 1073.1 -1.28322 -0.914942 0
M  V30 11191 C 1074.06 -1.12169 -1.99877 0
M  V30 11192 C 1075.06 -0.0617252 -1.60681 0
M  V30 11193 O 1076.25 -0.307405 -1.71466 0
M  V30 11194 C 1073.39 -0.711959 -3.33383 0
M  V30 11195 H 1074.58 -2.08425 -2.15636 0
M  V30 11196 H 1072.13 -1.11291 -1.09745 0
M  V30 11197 H 1072.87 0.251418 -3.23324 0
M  V30 11198 H 1072.65 -1.47764 -3.63192 0
M  V30 11199 H 1074.14 -0.621558 -4.12948 0
M  V30 11200 N 1074.58 1.12322 -1.10551 0
M  V30 11201 C 1075.54 2.16273 -0.758844 0
M  V30 11202 C 1076.54 1.59325 0.217294 0
M  V30 11203 O 1077.73 1.74199 -0.00601346 0
M  V30 11204 C 1074.86 3.40674 -0.124238 0
M  V30 11205 H 1076.06 2.48454 -1.6796 0
M  V30 11206 H 1073.61 1.2735 -0.906188 0
M  V30 11207 H 1074.34 3.14094 0.807194 0
M  V30 11208 H 1074.13 3.83284 -0.826772 0
M  V30 11209 H 1075.62 4.17474 0.102502 0
M  V30 11210 N 1076.06 0.894434 1.2976 0
M  V30 11211 C 1077.3 0.516646 1.95385 0
M  V30 11212 C 1077.63 -0.939141 1.70895 0
M  V30 11213 O 1076.9 -1.66153 1.03778 0
M  V30 11214 H 1075.48 0.188072 0.722937 0
M  V30 11215 H 1078.14 1.13958 1.58113 0
M  V30 11216 H 1077.23 0.694819 3.04267 0
M  V30 11217 N 1077.53 -1.43282 0.656365 0
M  V30 11218 C 1078.46 -2.33492 -0.0196962 0
M  V30 11219 C 1079.45 -1.49647 -0.80868 0
M  V30 11220 O 1080.63 -1.78303 -0.769529 0
M  V30 11221 C 1077.76 -3.33052 -0.984574 0
M  V30 11222 C 1076.71 -4.26908 -0.305483 0
M  V30 11223 C 1076.04 -5.16531 -1.38202 0
M  V30 11224 C 1077.34 -5.16073 0.804081 0
M  V30 11225 H 1079.03 -2.90272 0.733661 0
M  V30 11226 H 1076.58 -1.39574 0.354259 0
M  V30 11227 H 1078.53 -3.9506 -1.46647 0
M  V30 11228 H 1077.26 -2.74535 -1.76913 0
M  V30 11229 H 1075.92 -3.66268 0.155995 0
M  V30 11230 H 1075.56 -4.54351 -2.1581 0
M  V30 11231 H 1075.26 -5.80148 -0.932878 0
M  V30 11232 H 1076.79 -5.81414 -1.86522 0
M  V30 11233 H 1078.2 -5.71873 0.404212 0
M  V30 11234 H 1076.6 -5.88427 1.17789 0
M  V30 11235 H 1077.67 -4.55574 1.66073 0
M  V30 11236 N 1079.01 -0.398486 -1.52479 0
M  V30 11237 C 1080.26 0.180394 -2.01293 0
M  V30 11238 C 1080.58 1.46548 -1.28641 0
M  V30 11239 O 1079.85 1.91579 -0.409173 0
M  V30 11240 H 1078.43 0.0696528 -0.743746 0
M  V30 11241 H 1081.09 -0.532285 -1.87491 0
M  V30 11242 H 1080.19 0.38409 -3.09728 0
M  V30 11243 N 1080.49 1.57075 -0.12858 0
M  V30 11244 C 1081.91 1.57964 0.227961 0
M  V30 11245 C 1082.11 1.14186 1.66023 0
M  V30 11246 O 1081.16 0.833655 2.38341 0
M  V30 11247 C 1082.48 3.00697 -0.0140648 0
M  V30 11248 C 1084.02 3.12958 0.0510876 0
M  V30 11249 C 1084.5 4.57709 -0.163368 0
M  V30 11250 N 1085.99 4.6307 -0.109663 0
M  V30 11251 C 1086.73 5.72853 -0.250366 0
M  V30 11252 N 1086.22 6.91351 -0.447772 0
M  V30 11253 N 1088.01 5.61781 -0.189265 0
M  V30 11254 H 1080.17 1.83829 -1.06398 0
M  V30 11255 H 1082.43 0.850014 -0.419739 0
M  V30 11256 H 1082.13 3.37047 -1.00461 0
M  V30 11257 H 1082.01 3.70389 0.713571 0
M  V30 11258 H 1084.4 2.7646 1.03216 0
M  V30 11259 H 1084.48 2.4579 -0.708583 0
M  V30 11260 H 1084.12 4.94907 -1.14146 0
M  V30 11261 H 1084.05 5.2298 0.616405 0
M  V30 11262 H 1086.54 3.7788 0.0390086 0
M  V30 11263 H 1086.85 7.70871 -0.54574 0
M  V30 11264 H 1085.2 6.93314 -0.483866 0
M  V30 11265 H 1088.39 4.68086 -0.0359374 0
M  V30 11266 H 1088.56 6.47294 -0.302359 0
M  V30 11267 N 1081.97 -0.145205 1.5693 0
M  V30 11268 C 1082.9 -1.20881 1.93553 0
M  V30 11269 C 1083.88 -1.41467 0.801612 0
M  V30 11270 O 1085.06 -1.5605 1.05739 0
M  V30 11271 C 1082.19 -2.5674 2.20912 0
M  V30 11272 C 1081.24 -2.52738 3.43549 0
M  V30 11273 S 1082.07 -1.99257 4.97048 0
M  V30 11274 C 1083.23 -3.36842 5.27531 0
M  V30 11275 H 1083.46 -0.896362 2.83465 0
M  V30 11276 H 1080.99 -0.350894 1.5036 0
M  V30 11277 H 1082.95 -3.34923 2.37354 0
M  V30 11278 H 1081.61 -2.85174 1.31661 0
M  V30 11279 H 1080.8 -3.52753 3.59974 0
M  V30 11280 H 1080.41 -1.82665 3.26358 0
M  V30 11281 H 1082.7 -4.32958 5.21108 0
M  V30 11282 H 1083.64 -3.25268 6.28973 0
M  V30 11283 H 1084.05 -3.3406 4.55043 0
M  V30 11284 N 1083.45 -1.52049 -0.414609 0
M  V30 11285 C 1084.39 -1.74998 -1.5048 0
M  V30 11286 C 1085.36 -0.592251 -1.55182 0
M  V30 11287 O 1086.55 -0.829203 -1.7184 0
M  V30 11288 C 1083.69 -1.90157 -2.87983 0
M  V30 11289 C 1082.8 -3.17789 -2.92633 0
M  V30 11290 C 1081.94 -3.23411 -4.21401 0
M  V30 11291 C 1080.98 -4.45267 -4.20004 0
M  V30 11292 N 1080.11 -4.48312 -5.40334 0
M  V30 11293 H 1084.95 -2.68046 -1.30212 0
M  V30 11294 H 1082.49 -1.32824 -0.632154 0
M  V30 11295 H 1084.45 -1.96929 -3.67797 0
M  V30 11296 H 1083.08 -1.00496 -3.06758 0
M  V30 11297 H 1082.13 -3.20216 -2.05343 0
M  V30 11298 H 1083.44 -4.07634 -2.87465 0
M  V30 11299 H 1082.6 -3.29224 -5.09604 0
M  V30 11300 H 1081.34 -2.31495 -4.29257 0
M  V30 11301 H 1080.34 -4.39606 -3.30192 0
M  V30 11302 H 1081.57 -5.38472 -4.13793 0
M  V30 11303 H 1079.51 -3.59277 -5.48868 0
M  V30 11304 H 1079.43 -5.31994 -5.37139 0
M  V30 11305 H 1080.7 -4.58347 -6.30506 0
M  V30 11306 N 1084.93 0.6715 -1.42579 0
M  V30 11307 C 1086.34 1.2522 -1.38481 0
M  V30 11308 C 1086.69 1.96038 -0.079719 0
M  V30 11309 O 1085.81 2.00203 0.821441 0
M  V30 11310 C 1086.41 2.27736 -2.50842 0
M  V30 11311 C 1084.97 2.81325 -2.50067 0
M  V30 11312 C 1084.11 1.55694 -2.29466 0
M  V30 11313 H 1087.06 0.464673 -1.51745 0
M  V30 11314 H 1087.09 3.09539 -2.21283 0
M  V30 11315 H 1086.6 1.76164 -3.45815 0
M  V30 11316 H 1084.7 3.37008 -1.58922 0
M  V30 11317 H 1084.81 3.30116 -3.47218 0
M  V30 11318 H 1083.18 1.82383 -1.77788 0
M  V30 11319 H 1083.96 1.06084 -3.26498 0
M  V30 11320 N 1086.4 1.28806 0.908124 0
M  V30 11321 C 1087.35 1.13083 2.03261 0
M  V30 11322 C 1088.35 0.0486094 1.6933 0
M  V30 11323 O 1089.55 0.207794 1.78797 0
M  V30 11324 H 1085.93 0.349057 0.666081 0
M  V30 11325 H 1087.9 2.08304 2.13663 0
M  V30 11326 C 1086.65 0.815339 3.38005 0
M  V30 11327 H 1085.97 1.64007 3.64612 0
M  V30 11328 H 1087.41 0.745311 4.17398 0
M  V30 11329 C 1085.87 -0.48113 3.33447 0
M  V30 11330 O 1086.4 -1.50974 3.7225 0
M  V30 11331 N 1084.6 -0.483912 2.86543 0
M  V30 11332 H 1084.15 0.353593 2.55162 0
M  V30 11333 H 1084.11 -1.35138 2.83875 0
M  V30 11334 N 1087.88 -1.11734 1.11145 0
M  V30 11335 C 1089.13 -1.82766 0.853194 0
M  V30 11336 C 1089.44 -1.85408 -0.623168 0
M  V30 11337 O 1090.65 -2.52509 -0.997574 0
M  V30 11338 C 1089.11 -3.28215 1.47658 0
M  V30 11339 C 1088.71 -3.33911 2.98676 0
M  V30 11340 C 1090.46 -4.04168 1.29803 0
M  V30 11341 C 1088.36 -4.73739 3.54013 0
M  V30 11342 H 1087.29 -0.684807 0.315523 0
M  V30 11343 H 1089.95 -1.25756 1.33633 0
M  V30 11344 H 1088.33 -3.85138 0.921116 0
M  V30 11345 H 1089.5 -2.86887 3.606 0
M  V30 11346 H 1087.82 -2.71437 3.15771 0
M  V30 11347 H 1090.41 -5.07429 1.68582 0
M  V30 11348 H 1090.76 -4.15606 0.240302 0
M  V30 11349 H 1091.29 -3.53623 1.82196 0
M  V30 11350 H 1088.03 -4.67497 4.59485 0
M  V30 11351 H 1087.55 -5.21186 2.9686 0
M  V30 11352 H 1089.23 -5.42691 3.52271 0
M  V30 11353 N 1089.36 -0.901303 -1.29284 0
M  V30 11354 C 1090.29 -0.396909 -2.30102 0
M  V30 11355 C 1091.27 0.528919 -1.61668 0
M  V30 11356 O 1092.46 0.439306 -1.89166 0
M  V30 11357 C 1089.59 0.375006 -3.45269 0
M  V30 11358 C 1088.54 -0.46054 -4.25515 0
M  V30 11359 C 1087.87 0.438967 -5.32895 0
M  V30 11360 C 1089.17 -1.7113 -4.93469 0
M  V30 11361 H 1090.86 -1.23943 -2.72541 0
M  V30 11362 H 1088.41 -0.597428 -1.31022 0
M  V30 11363 H 1090.36 0.738622 -4.14876 0
M  V30 11364 H 1089.08 1.25132 -3.01678 0
M  V30 11365 H 1087.74 -0.80651 -3.57618 0
M  V30 11366 H 1087.39 1.31346 -4.85548 0
M  V30 11367 H 1087.09 -0.116406 -5.87485 0
M  V30 11368 H 1088.61 0.79874 -6.05353 0
M  V30 11369 H 1090.03 -1.41732 -5.55504 0
M  V30 11370 H 1088.42 -2.20811 -5.57999 0
M  V30 11371 H 1089.49 -2.44636 -4.18666 0
M  V30 11372 N 1090.84 1.42931 -0.663954 0
M  V30 11373 C 1092.08 2.01982 -0.182007 0
M  V30 11374 C 1092.42 1.52323 1.20463 0
M  V30 11375 O 1091.69 0.720834 1.80649 0
M  V30 11376 C 1091.97 3.59518 -0.204671 0
M  V30 11377 C 1091.83 4.19382 -1.62599 0
M  V30 11378 C 1093.15 4.37762 0.45308 0
M  V30 11379 H 1090.27 0.733892 -0.0676115 0
M  V30 11380 H 1092.91 1.70092 -0.84668 0
M  V30 11381 H 1091.06 3.86816 0.361295 0
M  V30 11382 H 1092.73 4.03076 -2.24337 0
M  V30 11383 H 1090.97 3.75623 -2.17001 0
M  V30 11384 H 1091.64 5.28496 -1.59362 0
M  V30 11385 H 1094.12 4.1609 -0.0285774 0
M  V30 11386 H 1093 5.47392 0.406538 0
M  V30 11387 H 1093.26 4.1482 1.52895 0
M  V30 11388 N 1092.32 0.406567 1.52266 0
M  V30 11389 C 1093.56 -0.170305 2.02084 0
M  V30 11390 C 1093.89 -1.45008 1.29176 0
M  V30 11391 O 1093.17 -1.90399 0.39731 0
M  V30 11392 C 1093.45 -0.420627 3.57635 0
M  V30 11393 C 1093.31 0.87564 4.41194 0
M  V30 11394 C 1094.62 -1.20387 4.23314 0
M  V30 11395 H 1091.74 -0.0604219 0.734519 0
M  V30 11396 H 1094.39 0.539529 1.82179 0
M  V30 11397 H 1092.54 -1.0253 3.74726 0
M  V30 11398 H 1094.21 1.51192 4.35819 0
M  V30 11399 H 1092.45 1.48718 4.07511 0
M  V30 11400 H 1093.12 0.654916 5.48101 0
M  V30 11401 H 1095.6 -0.691972 4.10306 0
M  V30 11402 H 1094.47 -1.34776 5.32096 0
M  V30 11403 H 1094.73 -2.2238 3.82099 0
M  V30 11404 N 1093.79 -1.57004 0.136909 0
M  V30 11405 C 1095.04 -1.9541 -0.51569 0
M  V30 11406 C 1095.36 -1.02219 -1.66061 0
M  V30 11407 O 1094.63 -0.0818172 -1.95729 0
M  V30 11408 H 1093.21 -0.721504 -0.193497 0
M  V30 11409 H 1095.88 -1.93765 0.210046 0
M  V30 11410 H 1094.97 -2.98887 -0.898494 0
M  V30 11411 N 1095.27 0.136881 -1.57004 0
M  V30 11412 C 1096.52 0.847775 -1.83899 0
M  V30 11413 C 1096.85 1.80709 -0.719332 0
M  V30 11414 O 1096.1 1.93527 0.290838 0
M  V30 11415 C 1096.4 1.64711 -3.17183 0
M  V30 11416 C 1096.07 0.833683 -4.43126 0
M  V30 11417 C 1094.73 0.609306 -4.77327 0
M  V30 11418 C 1097.08 0.265504 -5.20523 0
M  V30 11419 C 1094.41 -0.193793 -5.8638 0
M  V30 11420 C 1096.76 -0.524688 -6.3042 0
M  V30 11421 C 1095.43 -0.759548 -6.63164 0
M  V30 11422 H 1094.7 0.310223 -0.672936 0
M  V30 11423 H 1097.34 0.110937 -1.91178 0
M  V30 11424 H 1095.65 2.45435 -3.054 0
M  V30 11425 H 1097.34 2.20081 -3.3521 0
M  V30 11426 H 1093.93 1.01864 -4.16319 0
M  V30 11427 H 1098.12 0.426109 -4.94467 0
M  V30 11428 H 1093.37 -0.385153 -6.10186 0
M  V30 11429 H 1097.55 -0.972033 -6.89583 0
M  V30 11430 H 1095.18 -1.38369 -7.47501 0
M  V30 11431 N 1096.75 1.52266 0.40654 0
M  V30 11432 C 1097.7 1.75794 1.4955 0
M  V30 11433 C 1098.67 0.600472 1.54866 0
M  V30 11434 O 1099.85 0.838305 1.71397 0
M  V30 11435 C 1096.99 1.91682 2.86971 0
M  V30 11436 C 1096.11 3.19337 2.90943 0
M  V30 11437 C 1095.24 3.25641 4.1968 0
M  V30 11438 C 1094.28 4.47488 4.17637 0
M  V30 11439 N 1093.42 4.51171 5.37949 0
M  V30 11440 H 1098.26 2.68733 1.28789 0
M  V30 11441 H 1095.79 1.33157 0.625102 0
M  V30 11442 H 1097.75 1.98877 3.66748 0
M  V30 11443 H 1096.38 1.02121 3.06221 0
M  V30 11444 H 1095.43 3.21301 2.03642 0
M  V30 11445 H 1096.75 4.09153 2.85299 0
M  V30 11446 H 1095.9 3.31922 5.07851 0
M  V30 11447 H 1094.64 2.33769 4.28023 0
M  V30 11448 H 1093.64 4.41351 3.27856 0
M  V30 11449 H 1094.87 5.40659 4.10932 0
M  V30 11450 H 1092.81 3.62182 5.46955 0
M  V30 11451 H 1092.73 5.34835 5.3431 0
M  V30 11452 H 1094 4.61685 6.28066 0
M  V30 11453 N 1098.23 -0.663929 1.42933 0
M  V30 11454 C 1099.18 -1.77717 1.47259 0
M  V30 11455 C 1100.15 -1.62922 0.323387 0
M  V30 11456 O 1101.33 -1.83319 0.529021 0
M  V30 11457 C 1098.47 -3.15814 1.39124 0
M  V30 11458 C 1097.58 -3.4182 2.64165 0
M  V30 11459 C 1096.72 -4.69705 2.48094 0
M  V30 11460 C 1095.76 -4.88781 3.68456 0
M  V30 11461 N 1094.89 -6.07915 3.51261 0
M  V30 11462 H 1099.73 -1.73355 2.42388 0
M  V30 11463 H 1097.27 -0.846121 1.2033 0
M  V30 11464 H 1099.23 -3.95633 1.32403 0
M  V30 11465 H 1097.86 -3.19274 0.475829 0
M  V30 11466 H 1096.91 -2.56176 2.81208 0
M  V30 11467 H 1098.22 -3.51805 3.53602 0
M  V30 11468 H 1097.38 -5.57632 2.39021 0
M  V30 11469 H 1096.12 -4.62022 1.56164 0
M  V30 11470 H 1095.12 -3.99292 3.7795 0
M  V30 11471 H 1096.35 -4.98301 4.61381 0
M  V30 11472 H 1094.29 -6.01384 2.62057 0
M  V30 11473 H 1094.21 -6.1881 4.34293 0
M  V30 11474 H 1095.48 -6.98492 3.4602 0
M  V30 11475 N 1099.71 -1.29285 -0.901281 0
M  V30 11476 C 1100.65 -1.14159 -2.02659 0
M  V30 11477 C 1101.65 -0.0575887 -1.69302 0
M  V30 11478 O 1102.85 -0.217273 -1.78684 0
M  V30 11479 H 1099.23 -0.352584 -0.66422 0
M  V30 11480 H 1101.2 -2.09434 -2.12555 0
M  V30 11481 C 1099.95 -0.833253 -3.37568 0
M  V30 11482 H 1099.27 -1.65939 -3.63737 0
M  V30 11483 H 1100.71 -0.767436 -4.16997 0
M  V30 11484 C 1099.17 0.46344 -3.33697 0
M  V30 11485 O 1099.7 1.48998 -3.73045 0
M  V30 11486 N 1097.91 0.468709 -2.86795 0
M  V30 11487 H 1097.45 -0.36712 -2.54971 0
M  V30 11488 H 1097.41 1.3363 -2.84588 0
M  V30 11489 N 1101.18 1.11143 -1.11736 0
M  V30 11490 C 1102.43 1.8341 -0.879329 0
M  V30 11491 C 1102.79 1.83174 0.588657 0
M  V30 11492 O 1102.08 1.27609 1.42922 0
M  V30 11493 C 1102.27 3.29733 -1.3788 0
M  V30 11494 C 1102.1 3.44222 -2.89381 0
M  V30 11495 C 1100.87 3.57065 -3.57537 0
M  V30 11496 C 1103.07 3.38246 -3.8742 0
M  V30 11497 N 1101.05 3.60056 -4.97225 0
M  V30 11498 C 1102.42 3.47894 -5.13196 0
M  V30 11499 C 1104.48 3.21797 -3.79935 0
M  V30 11500 C 1103.18 3.4279 -6.32367 0
M  V30 11501 C 1105.21 3.18011 -4.98621 0
M  V30 11502 C 1104.57 3.28234 -6.23251 0
M  V30 11503 H 1100.67 0.686248 -0.374951 0
M  V30 11504 H 1103.25 1.32962 -1.42229 0
M  V30 11505 H 1101.42 3.78691 -0.86298 0
M  V30 11506 H 1103.15 3.89924 -1.08359 0
M  V30 11507 H 1099.91 3.59759 -3.08011 0
M  V30 11508 H 1100.33 3.65181 -5.70063 0
M  V30 11509 H 1104.98 3.12777 -2.84482 0
M  V30 11510 H 1102.69 3.50577 -7.28094 0
M  V30 11511 H 1106.28 3.06446 -4.94552 0
M  V30 11512 H 1105.16 3.25297 -7.13549 0
M  V30 11513 N 1102.66 0.908147 1.28804 0
M  V30 11514 C 1103.59 0.34957 2.26519 0
M  V30 11515 C 1104.61 -0.508845 1.54643 0
M  V30 11516 O 1105.8 -0.324633 1.75523 0
M  V30 11517 C 1102.9 -0.519461 3.34895 0
M  V30 11518 C 1102.07 0.315157 4.36263 0
M  V30 11519 C 1101.13 -0.488059 5.23932 0
M  V30 11520 O 1100.15 0.0974133 5.69117 0
M  V30 11521 N 1101.36 -1.79233 5.52137 0
M  V30 11522 H 1104.12 1.18945 2.75086 0
M  V30 11523 H 1101.68 0.77351 1.42227 0
M  V30 11524 H 1103.67 -1.0634 3.90479 0
M  V30 11525 H 1102.24 -1.26004 2.8608 0
M  V30 11526 H 1101.46 1.04049 3.8022 0
M  V30 11527 H 1102.75 0.886438 5.01019 0
M  V30 11528 H 1102.15 -2.2906 5.1725 0
M  V30 11529 H 1100.71 -2.28322 6.10502 0
M  V30 11530 N 1104.14 -1.42577 0.671525 0
M  V30 11531 C 1105.37 -2.06442 0.199152 0
M  V30 11532 C 1105.79 -1.50104 -1.1336 0
M  V30 11533 O 1105.15 -0.618211 -1.70434 0
M  V30 11534 C 1105.2 -3.60323 0.141215 0
M  V30 11535 O 1104.3 -4.02655 -0.891238 0
M  V30 11536 H 1103.64 -0.655919 0.103277 0
M  V30 11537 H 1106.17 -1.82768 0.919614 0
M  V30 11538 H 1106.18 -4.07984 -0.0360209 0
M  V30 11539 H 1104.86 -4.00702 1.11403 0
M  V30 11540 H 1103.43 -3.66549 -0.685309 0
M  V30 11541 N 1105.62 -0.414636 -1.52048 0
M  V30 11542 C 1106.58 0.396285 -2.25748 0
M  V30 11543 C 1107.58 0.969003 -1.28324 0
M  V30 11544 O 1108.77 0.847016 -1.52221 0
M  V30 11545 C 1105.9 1.55838 -3.03195 0
M  V30 11546 H 1107.1 -0.249311 -2.98862 0
M  V30 11547 H 1104.65 -0.167276 -1.55402 0
M  V30 11548 H 1105.38 2.24068 -2.34444 0
M  V30 11549 H 1105.17 1.15414 -3.74729 0
M  V30 11550 H 1106.66 2.13187 -3.59084 0
M  V30 11551 N 1107.1 1.56929 -0.145233 0
M  V30 11552 C 1108.05 2.13246 0.806846 0
M  V30 11553 C 1109.03 1.05984 1.21063 0
M  V30 11554 O 1110.22 1.32165 1.17734 0
M  V30 11555 C 1107.35 2.75622 2.04663 0
M  V30 11556 C 1106.44 3.90006 1.66603 0
M  V30 11557 N 1106.83 4.95946 0.993545 0
M  V30 11558 C 1105.13 4.0068 1.95886 0
M  V30 11559 C 1105.83 5.76032 0.810087 0
M  V30 11560 N 1104.8 5.26739 1.34339 0
M  V30 11561 H 1108.61 2.92527 0.283806 0
M  V30 11562 H 1106.12 1.62302 0.0563676 0
M  V30 11563 H 1108.12 3.14329 2.73867 0
M  V30 11564 H 1106.78 1.97815 2.57487 0
M  V30 11565 H 1107.79 5.13748 0.654508 0
M  V30 11566 H 1104.46 3.33946 2.50572 0
M  V30 11567 H 1105.85 6.71315 0.280209 0
M  V30 11568 N 1108.58 -0.128553 1.57075 0
M  V30 11569 C 1109.99 -0.686713 1.73612 0
M  V30 11570 C 1110.34 -1.80778 0.762478 0
M  V30 11571 O 1109.46 -2.16297 -0.0667779 0
M  V30 11572 C 1110.06 -1.25246 3.148 0
M  V30 11573 C 1108.62 -1.757 3.32876 0
M  V30 11574 C 1107.76 -0.652844 2.69506 0
M  V30 11575 H 1110.71 0.0972859 1.58402 0
M  V30 11576 H 1110.74 -2.1222 3.15821 0
M  V30 11577 H 1110.25 -0.436308 3.8564 0
M  V30 11578 H 1108.35 -2.59824 2.67063 0
M  V30 11579 H 1108.46 -1.87302 4.4097 0
M  V30 11580 H 1106.83 -1.08408 2.30477 0
M  V30 11581 H 1107.61 0.15217 3.42963 0
M  V30 11582 N 1110.05 -1.5248 -0.398459 0
M  V30 11583 C 1111.02 -1.75949 -1.46883 0
M  V30 11584 C 1112.02 -0.629431 -1.47969 0
M  V30 11585 O 1113.21 -0.897407 -1.49306 0
M  V30 11586 C 1110.34 -1.85162 -2.8623 0
M  V30 11587 H 1111.53 -2.71513 -1.2736 0
M  V30 11588 H 1109.08 -1.43058 -0.629619 0
M  V30 11589 H 1109.82 -0.915505 -3.11109 0
M  V30 11590 H 1109.6 -2.67326 -2.86844 0
M  V30 11591 H 1111.09 -2.05025 -3.63805 0
M  V30 11592 N 1111.53 0.65634 -1.43283 0
M  V30 11593 C 1112.76 1.44408 -1.48168 0
M  V30 11594 C 1113.17 1.88542 -0.0986016 0
M  V30 11595 O 1112.53 1.59298 0.890527 0
M  V30 11596 C 1112.58 2.68111 -2.42484 0
M  V30 11597 O 1112.3 2.25824 -3.75413 0
M  V30 11598 C 1113.8 3.61499 -2.56579 0
M  V30 11599 H 1111.02 0.443731 -0.503333 0
M  V30 11600 H 1113.57 0.804917 -1.87993 0
M  V30 11601 H 1111.72 3.28175 -2.05863 0
M  V30 11602 H 1112.14 3.05839 -4.26102 0
M  V30 11603 H 1113.61 4.44972 -3.26655 0
M  V30 11604 H 1114.09 4.08639 -1.60969 0
M  V30 11605 H 1114.69 3.07319 -2.93998 0
M  V30 11606 N 1113.01 1.29761 0.894412 0
M  V30 11607 C 1114.26 1.18214 1.64782 0
M  V30 11608 C 1114.59 -0.264635 1.92388 0
M  V30 11609 O 1113.86 -1.19051 1.53809 0
M  V30 11610 C 1114.15 2.00138 2.99361 0
M  V30 11611 C 1114 3.52984 2.78787 0
M  V30 11612 C 1115.32 1.83187 4.00163 0
M  V30 11613 H 1112.44 0.430802 0.597979 0
M  V30 11614 H 1115.08 1.59292 1.03566 0
M  V30 11615 H 1113.23 1.65233 3.51611 0
M  V30 11616 H 1114.9 3.97898 2.33398 0
M  V30 11617 H 1113.14 3.77642 2.13469 0
M  V30 11618 H 1113.82 4.05585 3.7444 0
M  V30 11619 H 1116.29 2.13684 3.57041 0
M  V30 11620 H 1115.17 2.42849 4.92255 0
M  V30 11621 H 1115.43 0.788469 4.35012 0
M  V30 11622 N 1114.49 -1.10549 1.12324 0
M  V30 11623 C 1115.4 -2.20428 0.803032 0
M  V30 11624 C 1116.41 -1.72756 -0.207674 0
M  V30 11625 O 1117.59 -2.01357 -0.0415623 0
M  V30 11626 C 1114.65 -3.45716 0.261032 0
M  V30 11627 C 1113.72 -4.08129 1.33152 0
M  V30 11628 C 1112.95 -5.27436 0.815288 0
M  V30 11629 O 1113.17 -5.69317 -0.351361 0
M  V30 11630 O 1112.11 -5.80674 1.58434 0
M  V30 11631 H 1115.93 -2.50249 1.72073 0
M  V30 11632 H 1113.52 -1.19263 0.899815 0
M  V30 11633 H 1115.4 -4.21384 -0.0364007 0
M  V30 11634 H 1114.07 -3.17525 -0.629249 0
M  V30 11635 H 1112.98 -3.3415 1.6821 0
M  V30 11636 H 1114.31 -4.4052 2.19552 0
M  V30 11637 N 1115.97 -0.914965 -1.28321 0
M  V30 11638 C 1117.24 -0.46764 -1.89928 0
M  V30 11639 C 1117.62 1.05364 -1.82925 0
M  V30 11640 O 1116.97 1.90223 -1.26599 0
M  V30 11641 C 1117.18 -0.999372 -3.34385 0
M  V30 11642 C 1118.53 -1.0522 -4.11356 0
M  V30 11643 O 1119.55 -0.9481 -3.4335 0
M  V30 11644 O 1118.41 -1.21085 -5.32917 0
M  V30 11645 H 1115.51 -0.148398 -0.813577 0
M  V30 11646 H 1118.05 -1.00583 -1.36679 0
M  V30 11647 H 1116.82 -2.04333 -3.33712 0
M  V30 11648 H 1116.45 -0.442083 -3.95135 0
M  V30 11649 N 1117.44 1.42219 -0.679077 0
M  V30 11650 C 1118.67 2.05516 -0.211342 0
M  V30 11651 C 1119.08 1.5113 1.13826 0
M  V30 11652 O 1118.42 0.647593 1.71907 0
M  V30 11653 C 1118.49 3.59425 -0.0736007 0
M  V30 11654 C 1118.15 4.36525 -1.3526 0
M  V30 11655 C 1119.15 4.66897 -2.28698 0
M  V30 11656 C 1116.83 4.76089 -1.60139 0
M  V30 11657 C 1118.83 5.35775 -3.45288 0
M  V30 11658 C 1116.51 5.44706 -2.77017 0
M  V30 11659 C 1117.51 5.74474 -3.69416 0
M  V30 11660 O 1117.2 6.41683 -4.8425 0
M  V30 11661 H 1116.93 0.668662 -0.0993318 0
M  V30 11662 H 1119.49 1.8327 -0.927434 0
M  V30 11663 H 1117.72 3.80346 0.69811 0
M  V30 11664 H 1119.4 4.04346 0.354813 0
M  V30 11665 H 1120.17 4.36828 -2.10729 0
M  V30 11666 H 1116.05 4.5231 -0.890887 0
M  V30 11667 H 1119.59 5.58927 -4.17428 0
M  V30 11668 H 1115.49 5.74194 -2.9491 0
M  V30 11669 H 1116.26 6.60175 -4.8385 0
M  V30 11670 N 1118.92 0.422693 1.51826 0
M  V30 11671 C 1120.17 -0.150066 2.01141 0
M  V30 11672 C 1120.48 -1.45059 1.31214 0
M  V30 11673 O 1121.69 -2.10542 1.71419 0
M  V30 11674 C 1120.15 -0.317985 3.58492 0
M  V30 11675 C 1119.75 0.971244 4.37345 0
M  V30 11676 C 1121.5 -0.845303 4.15999 0
M  V30 11677 C 1119.4 0.769769 5.86369 0
M  V30 11678 H 1118.33 -0.0598567 0.75162 0
M  V30 11679 H 1120.99 0.550217 1.75057 0
M  V30 11680 H 1119.37 -1.08092 3.80962 0
M  V30 11681 H 1120.54 1.74138 4.26629 0
M  V30 11682 H 1118.86 1.42599 3.91222 0
M  V30 11683 H 1121.45 -1.01229 5.2503 0
M  V30 11684 H 1121.8 -1.82375 3.74226 0
M  V30 11685 H 1122.33 -0.141067 3.9755 0
M  V30 11686 H 1119.07 1.72017 6.32527 0
M  V30 11687 H 1118.59 0.0391717 5.99787 0
M  V30 11688 H 1120.27 0.417225 6.45653 0
M  V30 11689 N 1120.4 -1.5685 0.153553 0
M  V30 11690 C 1121.65 -1.95946 -0.494936 0
M  V30 11691 C 1121.97 -1.03975 -1.64967 0
M  V30 11692 O 1121.24 -0.102572 -1.95631 0
M  V30 11693 H 1119.82 -0.723516 -0.185833 0
M  V30 11694 H 1122.48 -1.93531 0.230585 0
M  V30 11695 H 1121.58 -2.99823 -0.866743 0
M  V30 11696 N 1121.88 0.120221 -1.57141 0
M  V30 11697 C 1123.13 0.826791 -1.83976 0
M  V30 11698 C 1123.44 1.81102 -0.739014 0
M  V30 11699 O 1124.65 2.56368 -0.893736 0
M  V30 11700 C 1123.1 1.52108 -3.26176 0
M  V30 11701 C 1122.71 0.577902 -4.44257 0
M  V30 11702 C 1124.45 2.21286 -3.62261 0
M  V30 11703 C 1122.36 1.27535 -5.77485 0
M  V30 11704 H 1121.29 0.312508 -0.686189 0
M  V30 11705 H 1123.94 0.0795343 -1.83328 0
M  V30 11706 H 1122.32 2.31492 -3.2129 0
M  V30 11707 H 1123.5 -0.182629 -4.60438 0
M  V30 11708 H 1121.81 -0.00684348 -4.16399 0
M  V30 11709 H 1124.41 2.74154 -4.59068 0
M  V30 11710 H 1124.75 2.99029 -2.89634 0
M  V30 11711 H 1125.29 1.48791 -3.68925 0
M  V30 11712 H 1122.02 0.539237 -6.53278 0
M  V30 11713 H 1121.54 2.00792 -5.65192 0
M  V30 11714 H 1123.22 1.80888 -6.21199 0
M  V30 11715 N 1123.36 1.52689 0.390367 0
M  V30 11716 C 1124.29 1.80338 1.48325 0
M  V30 11717 C 1125.27 0.655338 1.56969 0
M  V30 11718 O 1126.45 0.902792 1.7194 0
M  V30 11719 C 1123.58 1.97101 2.85952 0
M  V30 11720 C 1122.54 3.12783 2.92148 0
M  V30 11721 C 1121.86 3.14798 4.32211 0
M  V30 11722 C 1123.16 4.5188 2.61919 0
M  V30 11723 H 1124.86 2.71857 1.25437 0
M  V30 11724 H 1122.4 1.30813 0.601995 0
M  V30 11725 H 1124.36 2.15027 3.62411 0
M  V30 11726 H 1123.08 1.02271 3.10174 0
M  V30 11727 H 1121.74 2.94638 2.18137 0
M  V30 11728 H 1121.39 2.17653 4.53471 0
M  V30 11729 H 1121.09 3.92507 4.37278 0
M  V30 11730 H 1122.61 3.34877 5.10578 0
M  V30 11731 H 1124.02 4.70134 3.28096 0
M  V30 11732 H 1122.42 5.31647 2.78337 0
M  V30 11733 H 1123.49 4.58689 1.57266 0
M  V30 11734 N 1124.83 -0.648732 1.43629 0
M  V30 11735 C 1125.78 -1.75473 1.45579 0
M  V30 11736 C 1126.77 -1.57611 0.323683 0
M  V30 11737 O 1127.96 -1.67646 0.56778 0
M  V30 11738 C 1125.09 -3.14083 1.38589 0
M  V30 11739 C 1124.18 -3.37477 2.56846 0
M  V30 11740 N 1124.57 -3.31322 3.82177 0
M  V30 11741 C 1122.86 -3.68212 2.51666 0
M  V30 11742 C 1123.57 -3.54921 4.60875 0
M  V30 11743 N 1122.54 -3.76951 3.91675 0
M  V30 11744 H 1126.34 -1.69146 2.40347 0
M  V30 11745 H 1123.86 -0.850566 1.38344 0
M  V30 11746 H 1125.85 -3.93374 1.38068 0
M  V30 11747 H 1124.51 -3.21588 0.448442 0
M  V30 11748 H 1125.53 -3.10633 4.144 0
M  V30 11749 H 1122.2 -3.82806 1.66631 0
M  V30 11750 H 1123.59 -3.55904 5.69897 0
M  V30 11751 N 1126.31 -1.30234 -0.887518 0
M  V30 11752 C 1127.59 -1.09572 -1.62029 0
M  V30 11753 C 1127.97 0.355877 -2.08079 0
M  V30 11754 O 1127.32 1.34692 -1.84582 0
M  V30 11755 C 1127.53 -2.0943 -2.79177 0
M  V30 11756 C 1128.88 -2.4101 -3.4957 0
M  V30 11757 O 1129.9 -2.0772 -2.89363 0
M  V30 11758 O 1128.76 -2.97943 -4.5814 0
M  V30 11759 H 1125.85 -0.420648 -0.712028 0
M  V30 11760 H 1128.4 -1.41651 -0.934517 0
M  V30 11761 H 1127.17 -3.07149 -2.42436 0
M  V30 11762 H 1126.79 -1.78154 -3.55453 0
M  V30 11763 N 1127.79 1.09952 -1.12909 0
M  V30 11764 C 1128.75 2.14615 -0.804548 0
M  V30 11765 C 1129.75 1.5975 0.18345 0
M  V30 11766 O 1130.94 1.74147 -0.0429623 0
M  V30 11767 C 1128.08 3.40333 -0.196471 0
M  V30 11768 H 1129.27 2.44835 -1.73193 0
M  V30 11769 H 1126.82 1.25399 -0.932997 0
M  V30 11770 H 1127.56 3.15735 0.740388 0
M  V30 11771 H 1127.34 3.81444 -0.907886 0
M  V30 11772 H 1128.83 4.17598 0.0139264 0
M  V30 11773 N 1129.27 0.921757 1.27833 0
M  V30 11774 C 1130.52 0.559078 1.94629 0
M  V30 11775 C 1130.84 -0.898641 1.72495 0
M  V30 11776 O 1130.1 -1.65546 1.0437 0
M  V30 11777 C 1130.4 0.824259 3.47765 0
M  V30 11778 C 1130.06 2.26278 3.90011 0
M  V30 11779 C 1128.73 2.65607 4.01256 0
M  V30 11780 C 1131.08 3.19853 4.11513 0
M  V30 11781 C 1128.41 3.97646 4.31387 0
M  V30 11782 C 1130.76 4.51467 4.43126 0
M  V30 11783 C 1129.42 4.90637 4.52583 0
M  V30 11784 H 1128.69 0.204581 0.712199 0
M  V30 11785 H 1131.34 1.1646 1.52018 0
M  V30 11786 H 1129.64 0.136011 3.91564 0
M  V30 11787 H 1131.34 0.522701 3.97579 0
M  V30 11788 H 1127.93 1.94765 3.81791 0
M  V30 11789 H 1132.11 2.90674 4.02271 0
M  V30 11790 H 1127.37 4.27685 4.36916 0
M  V30 11791 H 1131.54 5.23982 4.58711 0
M  V30 11792 H 1129.17 5.92982 4.75685 0
M  V30 11793 N 1130.75 -1.41857 0.686609 0
M  V30 11794 C 1132.02 -1.95082 0.142228 0
M  V30 11795 C 1132.4 -1.62646 -1.34572 0
M  V30 11796 O 1131.75 -0.928757 -2.08773 0
M  V30 11797 C 1131.96 -3.46415 0.423955 0
M  V30 11798 C 1133.31 -4.23181 0.346842 0
M  V30 11799 O 1134.33 -3.54393 0.358363 0
M  V30 11800 O 1133.19 -5.4568 0.299211 0
M  V30 11801 H 1130.29 -0.826943 0.00974 0
M  V30 11802 H 1132.83 -1.51622 0.762153 0
M  V30 11803 H 1131.6 -3.63273 1.45424 0
M  V30 11804 H 1131.23 -3.96949 -0.227391 0
M  V30 11805 N 1132.22 -0.430739 -1.51599 0
M  V30 11806 C 1133.47 0.137929 -2.0203 0
M  V30 11807 C 1133.8 1.43287 -1.31526 0
M  V30 11808 O 1133.05 1.9121 -0.416814 0
M  V30 11809 C 1133.35 0.410694 -3.55032 0
M  V30 11810 C 1133.02 -0.797634 -4.43789 0
M  V30 11811 C 1131.68 -1.12902 -4.67768 0
M  V30 11812 C 1134.03 -1.60403 -4.95904 0
M  V30 11813 C 1131.36 -2.2676 -5.41107 0
M  V30 11814 C 1133.71 -2.73354 -5.70491 0
M  V30 11815 C 1132.38 -3.06955 -5.92735 0
M  V30 11816 H 1131.65 0.0504718 -0.739279 0
M  V30 11817 H 1134.29 -0.576585 -1.82614 0
M  V30 11818 H 1132.6 1.20703 -3.72744 0
M  V30 11819 H 1134.3 0.864006 -3.91581 0
M  V30 11820 H 1130.89 -0.529397 -4.25318 0
M  V30 11821 H 1135.07 -1.36122 -4.77268 0
M  V30 11822 H 1130.33 -2.53114 -5.56546 0
M  V30 11823 H 1134.5 -3.36213 -6.09864 0
M  V30 11824 H 1132.13 -3.95293 -6.49344 0
M  V30 11825 N 1133.7 1.56767 -0.161869 0
M  V30 11826 C 1134.65 2.18807 0.789074 0
M  V30 11827 C 1135.64 1.14934 1.24445 0
M  V30 11828 O 1136.85 1.33154 1.2112 0
M  V30 11829 H 1133.23 0.700808 0.272713 0
M  V30 11830 H 1135.2 2.97419 0.241766 0
M  V30 11831 C 1133.95 2.83568 2.01207 0
M  V30 11832 H 1133.27 3.63219 1.67068 0
M  V30 11833 H 1134.71 3.3046 2.65654 0
M  V30 11834 C 1133.17 1.82846 2.82964 0
M  V30 11835 O 1133.7 1.30809 3.79805 0
M  V30 11836 N 1131.9 1.51815 2.47791 0
M  V30 11837 H 1131.45 1.94325 1.69103 0
M  V30 11838 H 1131.41 0.846742 3.02783 0
M  V30 11839 N 1135.18 -0.111886 1.57202 0
M  V30 11840 C 1136.41 -0.8312 1.89142 0
M  V30 11841 C 1136.82 -1.73614 0.751987 0
M  V30 11842 O 1136.16 -1.81462 -0.285877 0
M  V30 11843 C 1136.22 -1.71107 3.16169 0
M  V30 11844 C 1135.89 -0.9797 4.46375 0
M  V30 11845 C 1136.88 -0.317219 5.18931 0
M  V30 11846 C 1134.57 -0.958764 4.93065 0
M  V30 11847 C 1136.56 0.356419 6.36403 0
M  V30 11848 C 1134.25 -0.281332 6.10452 0
M  V30 11849 C 1135.25 0.375098 6.81969 0
M  V30 11850 O 1134.94 1.0417 7.97122 0
M  V30 11851 H 1134.67 -0.243855 0.630484 0
M  V30 11852 H 1137.22 -0.0986634 2.05163 0
M  V30 11853 H 1135.45 -2.48543 2.96249 0
M  V30 11854 H 1137.14 -2.30544 3.34072 0
M  V30 11855 H 1137.91 -0.324965 4.8391 0
M  V30 11856 H 1133.79 -1.45913 4.37299 0
M  V30 11857 H 1137.33 0.869362 6.92162 0
M  V30 11858 H 1133.23 -0.271374 6.44929 0
M  V30 11859 H 1134 0.946899 8.13004 0
M  V30 11860 N 1136.66 -1.52894 -0.382264 0
M  V30 11861 C 1137.91 -1.67933 -1.1244 0
M  V30 11862 C 1138.23 -0.425166 -1.90309 0
M  V30 11863 O 1137.5 0.560557 -1.87709 0
M  V30 11864 H 1136.08 -0.619047 -0.418079 0
M  V30 11865 H 1138.74 -1.90031 -0.432928 0
M  V30 11866 H 1137.84 -2.53285 -1.82355 0
M  V30 11867 N 1138.14 0.641106 -1.43971 0
M  V30 11868 C 1139.38 1.40291 -1.46445 0
M  V30 11869 C 1139.72 1.93978 -0.0929004 0
M  V30 11870 O 1138.99 1.73043 0.888043 0
M  V30 11871 C 1139.27 2.57551 -2.51673 0
M  V30 11872 C 1139.13 2.09279 -3.98149 0
M  V30 11873 C 1140.45 3.59752 -2.53508 0
M  V30 11874 H 1137.57 0.508771 -0.533218 0
M  V30 11875 H 1140.21 0.725767 -1.75592 0
M  V30 11876 H 1138.36 3.15319 -2.2695 0
M  V30 11877 H 1140.03 1.56418 -4.33971 0
M  V30 11878 H 1138.27 1.40545 -4.10402 0
M  V30 11879 H 1138.94 2.93655 -4.67409 0
M  V30 11880 H 1141.42 3.11766 -2.75574 0
M  V30 11881 H 1140.3 4.39332 -3.29057 0
M  V30 11882 H 1140.56 4.13156 -1.57335 0
M  V30 11883 N 1139.62 1.30703 0.880598 0
M  V30 11884 C 1140.86 1.21066 1.64688 0
M  V30 11885 C 1141.22 -0.230015 1.90617 0
M  V30 11886 O 1142.42 -0.449696 2.65012 0
M  V30 11887 C 1140.69 2.02072 2.94791 0
M  V30 11888 S 1142.25 2.09182 3.85731 0
M  V30 11889 H 1139.07 0.431369 0.565192 0
M  V30 11890 H 1141.67 1.65234 1.04489 0
M  V30 11891 H 1140.37 3.05851 2.73648 0
M  V30 11892 H 1139.91 1.58583 3.60021 0
M  V30 11893 H 1141.92 1.22239 4.80908 0
M  V30 11894 N 1141.09 -1.09351 1.1349 0
M  V30 11895 C 1142.34 -1.81812 0.898452 0
M  V30 11896 C 1142.67 -1.85525 -0.573959 0
M  V30 11897 O 1141.95 -1.32403 -1.42477 0
M  V30 11898 C 1142.23 -3.27921 1.48794 0
M  V30 11899 C 1142.08 -3.32476 3.02952 0
M  V30 11900 C 1143.4 -4.24625 1.15678 0
M  V30 11901 H 1140.52 -0.660074 0.327829 0
M  V30 11902 H 1143.16 -1.28091 1.40331 0
M  V30 11903 H 1141.31 -3.738 1.05858 0
M  V30 11904 H 1142.99 -2.94994 3.54649 0
M  V30 11905 H 1141.23 -2.72037 3.37903 0
M  V30 11906 H 1141.9 -4.35409 3.39298 0
M  V30 11907 H 1144.38 -3.87036 1.52781 0
M  V30 11908 H 1143.25 -5.25194 1.59571 0
M  V30 11909 H 1143.51 -4.42044 0.0705933 0
M  V30 11910 N 1142.57 -0.928524 -1.27343 0
M  V30 11911 C 1143.5 -0.372628 -2.25137 0
M  V30 11912 C 1144.48 0.531468 -1.53669 0
M  V30 11913 O 1145.67 0.471788 -1.825 0
M  V30 11914 C 1142.79 0.465841 -3.35481 0
M  V30 11915 C 1141.84 -0.374941 -4.24849 0
M  V30 11916 S 1142.67 -1.791 -5.04662 0
M  V30 11917 C 1143.83 -0.960233 -6.1849 0
M  V30 11918 H 1144.06 -1.20147 -2.71941 0
M  V30 11919 H 1141.59 -0.730764 -1.36012 0
M  V30 11920 H 1143.55 0.943741 -3.99504 0
M  V30 11921 H 1142.21 1.26922 -2.87314 0
M  V30 11922 H 1141.41 0.266871 -5.03293 0
M  V30 11923 H 1141.01 -0.787045 -3.65625 0
M  V30 11924 H 1143.3 -0.196615 -6.77215 0
M  V30 11925 H 1144.24 -1.71771 -6.8695 0
M  V30 11926 H 1144.65 -0.501881 -5.62265 0
M  V30 11927 N 1144.05 1.41491 -0.694123 0
M  V30 11928 C 1145.47 1.55358 -0.365532 0
M  V30 11929 C 1145.67 1.66994 1.12762 0
M  V30 11930 O 1144.72 1.64756 1.91342 0
M  V30 11931 C 1146.03 2.79352 -1.11279 0
M  V30 11932 C 1147.58 2.93147 -1.097 0
M  V30 11933 C 1148.06 4.20027 -1.82597 0
M  V30 11934 N 1149.55 4.26981 -1.7956 0
M  V30 11935 C 1150.28 5.24013 -2.32805 0
M  V30 11936 N 1149.78 6.27083 -2.94515 0
M  V30 11937 N 1151.57 5.15943 -2.23069 0
M  V30 11938 H 1143.72 1.32183 -1.66257 0
M  V30 11939 H 1145.99 0.637624 -0.701527 0
M  V30 11940 H 1145.69 2.76958 -2.16765 0
M  V30 11941 H 1145.57 3.70827 -0.690439 0
M  V30 11942 H 1147.95 2.95057 -0.0504037 0
M  V30 11943 H 1148.03 2.02849 -1.55839 0
M  V30 11944 H 1147.68 4.18878 -2.87235 0
M  V30 11945 H 1147.61 5.09294 -1.33893 0
M  V30 11946 H 1150.1 3.53129 -1.34567 0
M  V30 11947 H 1150.41 6.97511 -3.32714 0
M  V30 11948 H 1148.76 6.27589 -2.98592 0
M  V30 11949 H 1151.95 4.34346 -1.74532 0
M  V30 11950 H 1152.12 5.91396 -2.64868 0
M  V30 11951 N 1145.53 0.438773 1.51369 0
M  V30 11952 C 1146.46 -0.417215 2.24354 0
M  V30 11953 C 1147.44 -1.02351 1.26345 0
M  V30 11954 O 1148.62 -1.06569 1.55484 0
M  V30 11955 C 1145.75 -1.58163 2.99503 0
M  V30 11956 C 1144.8 -1.09588 4.1218 0
M  V30 11957 S 1145.63 -0.0367491 5.35487 0
M  V30 11958 C 1146.78 -1.2058 6.14175 0
M  V30 11959 H 1147.02 0.202416 2.9661 0
M  V30 11960 H 1144.55 0.223306 1.52777 0
M  V30 11961 H 1146.51 -2.24917 3.43399 0
M  V30 11962 H 1145.17 -2.17268 2.26833 0
M  V30 11963 H 1144.36 -1.96667 4.64045 0
M  V30 11964 H 1143.96 -0.506564 3.70554 0
M  V30 11965 H 1146.26 -2.12387 6.43349 0
M  V30 11966 H 1147.2 -0.727087 7.04357 0
M  V30 11967 H 1147.61 -1.44501 5.45692 0
M  V30 11968 N 1147.01 -1.56678 0.170181 0
M  V30 11969 C 1148.42 -1.58512 -0.185999 0
M  V30 11970 C 1148.62 -1.18548 -1.62937 0
M  V30 11971 O 1147.68 -0.896554 -2.36047 0
M  V30 11972 C 1148.99 -3.00554 0.0937842 0
M  V30 11973 C 1150.54 -3.12984 0.0319057 0
M  V30 11974 C 1151.01 -4.57115 0.284664 0
M  V30 11975 N 1152.5 -4.62617 0.2324 0
M  V30 11976 C 1153.24 -5.71988 0.40216 0
M  V30 11977 N 1152.74 -6.89921 0.630915 0
M  V30 11978 N 1154.53 -5.61082 0.338144 0
M  V30 11979 H 1146.68 -1.80944 1.11235 0
M  V30 11980 H 1148.94 -0.838586 0.442128 0
M  V30 11981 H 1148.65 -3.34265 1.09362 0
M  V30 11982 H 1148.52 -3.72151 -0.615118 0
M  V30 11983 H 1150.91 -2.791 -0.958502 0
M  V30 11984 H 1150.99 -2.43825 0.773501 0
M  V30 11985 H 1150.63 -4.91707 1.27227 0
M  V30 11986 H 1150.56 -5.2443 -0.477529 0
M  V30 11987 H 1153.06 -3.7785 0.0611933 0
M  V30 11988 H 1153.37 -7.69153 0.749931 0
M  V30 11989 H 1151.71 -6.91787 0.667516 0
M  V30 11990 H 1154.9 -4.67826 0.16003 0
M  V30 11991 H 1155.08 -6.46265 0.473872 0
M  V30 11992 N 1148.48 0.103547 -1.57259 0
M  V30 11993 C 1149.39 1.14475 -2.04774 0
M  V30 11994 C 1150.41 1.44385 -0.971025 0
M  V30 11995 O 1151.59 1.55195 -1.28361 0
M  V30 11996 C 1148.65 2.4475 -2.45558 0
M  V30 11997 C 1147.71 2.22098 -3.67384 0
M  V30 11998 C 1146.94 3.4616 -4.06213 0
M  V30 11999 O 1147.17 4.5407 -3.45219 0
M  V30 12000 O 1146.1 3.36248 -4.9922 0
M  V30 12001 H 1149.93 0.771211 -2.93745 0
M  V30 12002 H 1147.51 0.315456 -1.46032 0
M  V30 12003 H 1149.39 3.21476 -2.72454 0
M  V30 12004 H 1148.07 2.81547 -1.59728 0
M  V30 12005 H 1146.98 1.43179 -3.45616 0
M  V30 12006 H 1148.31 1.90197 -4.53967 0
M  V30 12007 N 1149.96 1.53094 0.37415 0
M  V30 12008 C 1151.21 1.68527 1.11548 0
M  V30 12009 C 1151.53 0.435253 1.9008 0
M  V30 12010 O 1150.8 -0.550594 1.88003 0
M  V30 12011 H 1149.38 0.621255 0.41479 0
M  V30 12012 H 1152.04 1.90258 0.422844 0
M  V30 12013 H 1151.14 2.54248 1.81009 0
M  V30 12014 N 1151.44 -0.633461 1.44309 0
M  V30 12015 C 1152.37 -1.75676 1.53819 0
M  V30 12016 C 1153.35 -1.65537 0.391365 0
M  V30 12017 O 1154.54 -1.84332 0.611181 0
M  V30 12018 C 1151.67 -3.14197 1.47979 0
M  V30 12019 C 1150.62 -3.39122 2.61113 0
M  V30 12020 C 1149.95 -4.77648 2.40325 0
M  V30 12021 C 1151.25 -3.31914 4.03274 0
M  V30 12022 H 1152.94 -1.67974 2.47841 0
M  V30 12023 H 1150.49 -0.8067 1.19283 0
M  V30 12024 H 1152.44 -3.92553 1.53233 0
M  V30 12025 H 1151.16 -3.22677 0.504718 0
M  V30 12026 H 1149.82 -2.63145 2.55245 0
M  V30 12027 H 1149.47 -4.82829 1.41016 0
M  V30 12028 H 1149.17 -4.95284 3.16177 0
M  V30 12029 H 1150.69 -5.58237 2.47394 0
M  V30 12030 H 1152.11 -4.00178 4.10524 0
M  V30 12031 H 1150.5 -3.61085 4.7931 0
M  V30 12032 H 1151.57 -2.29761 4.2701 0
M  V30 12033 N 1152.92 -1.31168 -0.873655 0
M  V30 12034 C 1153.87 -1.18432 -2.00191 0
M  V30 12035 C 1154.86 -0.0934873 -1.69142 0
M  V30 12036 O 1156.07 -0.255126 -1.78183 0
M  V30 12037 H 1152.44 -0.366594 -0.656592 0
M  V30 12038 H 1154.41 -2.13896 -2.08065 0
M  V30 12039 C 1153.16 -0.904668 -3.35725 0
M  V30 12040 H 1152.48 -1.73617 -3.60135 0
M  V30 12041 H 1153.92 -0.855715 -4.15275 0
M  V30 12042 C 1152.38 0.392554 -3.34605 0
M  V30 12043 O 1152.91 1.41052 -3.76121 0
M  V30 12044 N 1151.12 0.40777 -2.87725 0
M  V30 12045 H 1150.67 -0.42112 -2.54134 0
M  V30 12046 H 1150.62 1.27564 -2.87358 0
M  V30 12047 N 1154.4 1.08748 -1.14068 0
M  V30 12048 C 1155.64 1.81333 -0.908081 0
M  V30 12049 C 1155.98 1.85826 0.564112 0
M  V30 12050 O 1155.25 1.33157 1.41773 0
M  V30 12051 C 1155.53 3.27127 -1.50531 0
M  V30 12052 C 1155.39 3.30865 -3.04711 0
M  V30 12053 C 1156.71 4.24006 -1.17928 0
M  V30 12054 H 1153.82 0.658326 -0.331325 0
M  V30 12055 H 1156.47 1.27345 -1.41008 0
M  V30 12056 H 1154.62 3.73233 -1.07839 0
M  V30 12057 H 1156.29 2.93109 -3.56209 0
M  V30 12058 H 1154.53 2.70241 -3.39341 0
M  V30 12059 H 1155.2 4.33603 -3.41603 0
M  V30 12060 H 1157.68 3.86221 -1.54831 0
M  V30 12061 H 1156.55 5.2434 -1.62353 0
M  V30 12062 H 1156.82 4.42 -0.0940349 0
M  V30 12063 N 1155.87 0.935264 1.26849 0
M  V30 12064 C 1157.1 0.595704 1.98661 0
M  V30 12065 C 1157.52 -0.821001 1.69237 0
M  V30 12066 O 1156.88 -1.55211 0.936982 0
M  V30 12067 C 1156.93 0.837275 3.50745 0
M  V30 12068 O 1156.03 -0.0934914 4.12294 0
M  V30 12069 H 1155.38 0.228512 0.623441 0
M  V30 12070 H 1157.91 1.25658 1.61466 0
M  V30 12071 H 1157.92 0.755827 4.00938 0
M  V30 12072 H 1156.59 1.86993 3.71492 0
M  V30 12073 H 1155.17 0.0385124 3.7288 0
M  V30 12074 N 1157.35 -1.41121 0.701616 0
M  V30 12075 C 1158.3 -2.30765 0.040121 0
M  V30 12076 C 1159.27 -1.47436 -0.764975 0
M  V30 12077 O 1160.45 -1.76209 -0.731775 0
M  V30 12078 C 1157.59 -3.33535 -0.885903 0
M  V30 12079 C 1156.71 -4.3194 -0.0717765 0
M  V30 12080 C 1155.84 -5.21779 -0.995996 0
M  V30 12081 C 1154.88 -6.11849 -0.175133 0
M  V30 12082 N 1154.02 -6.94151 -1.05348 0
M  V30 12083 H 1158.86 -2.86772 0.810312 0
M  V30 12084 H 1156.4 -1.41233 0.411301 0
M  V30 12085 H 1158.35 -3.91675 -1.4369 0
M  V30 12086 H 1156.98 -2.79065 -1.62243 0
M  V30 12087 H 1156.04 -3.75698 0.596221 0
M  V30 12088 H 1157.35 -4.95597 0.56435 0
M  V30 12089 H 1156.5 -5.84782 -1.61601 0
M  V30 12090 H 1155.24 -4.58363 -1.66597 0
M  V30 12091 H 1154.25 -5.4789 0.457916 0
M  V30 12092 H 1155.47 -6.77322 0.491133 0
M  V30 12093 H 1153.42 -6.33338 -1.70936 0
M  V30 12094 H 1153.33 -7.54518 -0.473065 0
M  V30 12095 H 1154.6 -7.61617 -1.66012 0
M  V30 12096 N 1158.83 -0.446794 -1.51134 0
M  V30 12097 C 1159.76 0.405311 -2.24572 0
M  V30 12098 C 1160.74 1.01679 -1.26886 0
M  V30 12099 O 1161.93 1.05743 -1.56047 0
M  V30 12100 C 1159.05 1.56573 -3.00338 0
M  V30 12101 C 1158.1 1.07401 -4.12756 0
M  V30 12102 S 1158.93 0.00835038 -5.35499 0
M  V30 12103 C 1160.09 1.17321 -6.14806 0
M  V30 12104 H 1160.32 -0.218143 -2.96499 0
M  V30 12105 H 1157.85 -0.231405 -1.52656 0
M  V30 12106 H 1159.81 2.23092 -3.44587 0
M  V30 12107 H 1158.47 2.16062 -2.27982 0
M  V30 12108 H 1157.67 1.94204 -4.65082 0
M  V30 12109 H 1157.27 0.486906 -3.70817 0
M  V30 12110 H 1159.56 2.08972 -6.44466 0
M  V30 12111 H 1160.5 0.689723 -7.04733 0
M  V30 12112 H 1160.91 1.41605 -5.4645 0
M  V30 12113 N 1160.31 1.56586 -0.178487 0
M  V30 12114 C 1161.24 2.14168 0.787856 0
M  V30 12115 C 1162.22 1.07374 1.22105 0
M  V30 12116 O 1163.4 1.35391 1.31154 0
M  V30 12117 C 1160.53 2.68708 2.06189 0
M  V30 12118 C 1159.58 3.8794 1.77215 0
M  V30 12119 S 1160.41 5.27274 0.935002 0
M  V30 12120 C 1161.57 5.85224 2.21954 0
M  V30 12121 H 1161.8 2.958 0.298293 0
M  V30 12122 H 1159.33 1.54357 0.0362853 0
M  V30 12123 H 1161.29 3.00777 2.79363 0
M  V30 12124 H 1159.95 1.87149 2.52258 0
M  V30 12125 H 1159.14 4.24453 2.71764 0
M  V30 12126 H 1158.75 3.56795 1.12132 0
M  V30 12127 H 1161.04 5.98575 3.17355 0
M  V30 12128 H 1161.98 6.82162 1.89898 0
M  V30 12129 H 1162.39 5.13697 2.34042 0
M  V30 12130 N 1161.79 -0.095206 1.57312 0
M  V30 12131 C 1162.72 -1.14173 1.98739 0
M  V30 12132 C 1163.73 -1.36323 0.889934 0
M  V30 12133 O 1164.92 -1.34977 1.16805 0
M  V30 12134 C 1162.02 -2.49729 2.29104 0
M  V30 12135 C 1161.19 -2.47857 3.60396 0
M  V30 12136 C 1160.25 -3.65341 3.78699 0
M  V30 12137 O 1159.28 -3.47837 4.50553 0
M  V30 12138 N 1160.48 -4.84818 3.19268 0
M  V30 12139 H 1163.25 -0.789126 2.89124 0
M  V30 12140 H 1160.81 -0.284187 1.59386 0
M  V30 12141 H 1162.8 -3.26925 2.38541 0
M  V30 12142 H 1161.37 -2.7708 1.44726 0
M  V30 12143 H 1160.59 -1.56208 3.61929 0
M  V30 12144 H 1161.88 -2.43685 4.46649 0
M  V30 12145 H 1161.27 -5.01943 2.60902 0
M  V30 12146 H 1159.83 -5.59607 3.34191 0
M  V30 12147 N 1163.26 -1.53291 -0.366026 0
M  V30 12148 C 1164.23 -1.79025 -1.43117 0
M  V30 12149 C 1165.23 -0.660676 -1.46601 0
M  V30 12150 O 1166.42 -0.928875 -1.47369 0
M  V30 12151 C 1163.55 -1.91192 -2.82238 0
M  V30 12152 H 1164.74 -2.74154 -1.21572 0
M  V30 12153 H 1162.3 -1.44361 -0.599132 0
M  V30 12154 H 1163.03 -0.98129 -3.09097 0
M  V30 12155 H 1162.82 -2.7335 -2.81109 0
M  V30 12156 H 1164.31 -2.12696 -3.59375 0
M  V30 12157 N 1164.74 0.6258 -1.44643 0
M  V30 12158 C 1165.69 1.73135 -1.48352 0
M  V30 12159 C 1166.68 1.57076 -0.348716 0
M  V30 12160 O 1167.87 1.66722 -0.594379 0
M  V30 12161 C 1165 3.11838 -1.43568 0
M  V30 12162 C 1164.08 3.33348 -2.62183 0
M  V30 12163 N 1164.47 3.252 -3.87399 0
M  V30 12164 C 1162.77 3.64162 -2.57492 0
M  V30 12165 C 1163.47 3.47544 -4.66463 0
M  V30 12166 N 1162.45 3.70672 -3.97622 0
M  V30 12167 H 1166.25 1.65301 -2.43008 0
M  V30 12168 H 1163.77 0.828449 -1.3968 0
M  V30 12169 H 1165.76 3.91127 -1.44309 0
M  V30 12170 H 1164.42 3.20834 -0.499547 0
M  V30 12171 H 1165.43 3.04001 -4.19289 0
M  V30 12172 H 1162.11 3.80107 -1.727 0
M  V30 12173 H 1163.5 3.46792 -5.75487 0
M  V30 12174 N 1166.22 1.31629 0.866686 0
M  V30 12175 C 1167.47 1.20861 1.61479 0
M  V30 12176 C 1167.78 -0.231208 1.94229 0
M  V30 12177 O 1168.99 -0.460618 2.67564 0
M  V30 12178 C 1167.44 2.11602 2.91123 0
M  V30 12179 C 1167.05 3.60598 2.65844 0
M  V30 12180 C 1168.8 2.09642 3.69121 0
M  V30 12181 C 1166.7 4.43337 3.91415 0
M  V30 12182 H 1165.63 0.448783 0.605896 0
M  V30 12183 H 1168.28 1.56507 0.958001 0
M  V30 12184 H 1166.67 1.68858 3.58194 0
M  V30 12185 H 1167.84 4.11609 2.07159 0
M  V30 12186 H 1166.16 3.64568 2.01194 0
M  V30 12187 H 1168.75 2.68701 4.62281 0
M  V30 12188 H 1169.1 1.08438 4.01929 0
M  V30 12189 H 1169.63 2.50603 3.08938 0
M  V30 12190 H 1166.37 5.45309 3.63756 0
M  V30 12191 H 1165.89 3.97083 4.49539 0
M  V30 12192 H 1167.57 4.5572 4.5927 0
M  V30 12193 N 1167.7 -1.08142 1.14644 0
M  V30 12194 C 1168.65 -2.17229 0.831513 0
M  V30 12195 C 1169.64 -1.68311 -0.19173 0
M  V30 12196 O 1170.85 -1.79937 -0.0475596 0
M  V30 12197 H 1167.22 -0.708807 0.25119 0
M  V30 12198 H 1169.19 -2.41014 1.75939 0
M  V30 12199 C 1167.94 -3.46146 0.328347 0
M  V30 12200 H 1167.27 -3.84166 1.10708 0
M  V30 12201 H 1168.71 -4.23747 0.146568 0
M  V30 12202 C 1167.16 -3.2327 -0.948594 0
M  V30 12203 O 1167.69 -3.47111 -2.0218 0
M  V30 12204 N 1165.9 -2.76799 -0.884909 0
M  V30 12205 H 1165.45 -2.57597 -0.011399 0
M  V30 12206 H 1165.41 -2.61871 -1.73985 0
M  V30 12207 N 1169.18 -0.941978 -1.26351 0
M  V30 12208 C 1170.59 -0.632522 -1.75659 0
M  V30 12209 C 1170.94 0.852287 -1.76722 0
M  V30 12210 O 1170.06 1.66701 -1.37985 0
M  V30 12211 C 1170.66 -1.14145 -3.18993 0
M  V30 12212 C 1169.22 -0.882391 -3.65911 0
M  V30 12213 C 1168.37 -1.29189 -2.45368 0
M  V30 12214 H 1171.32 -1.12019 -1.12416 0
M  V30 12215 H 1171.34 -0.495639 -3.77258 0
M  V30 12216 H 1170.85 -2.22213 -3.18187 0
M  V30 12217 H 1168.95 0.183873 -3.72146 0
M  V30 12218 H 1169.06 -1.50996 -4.54683 0
M  V30 12219 H 1167.43 -0.710316 -2.44595 0
M  V30 12220 H 1168.21 -2.38152 -2.47262 0
M  V30 12221 N 1170.66 1.40747 -0.709091 0
M  V30 12222 C 1171.9 2.013 -0.246174 0
M  V30 12223 C 1172.23 1.56078 1.15556 0
M  V30 12224 O 1171.51 0.777941 1.78265 0
M  V30 12225 C 1171.79 3.58685 -0.318945 0
M  V30 12226 C 1171.65 4.13997 -1.75859 0
M  V30 12227 C 1172.96 4.38981 0.31358 0
M  V30 12228 H 1170.08 0.73137 -0.0909255 0
M  V30 12229 H 1172.73 1.67312 -0.900365 0
M  V30 12230 H 1170.88 3.8777 0.23805 0
M  V30 12231 H 1172.55 3.95735 -2.37047 0
M  V30 12232 H 1170.79 3.6853 -2.28841 0
M  V30 12233 H 1171.46 5.23158 -1.76095 0
M  V30 12234 H 1173.94 4.15789 -0.160939 0
M  V30 12235 H 1172.81 5.48409 0.232184 0
M  V30 12236 H 1173.07 4.19474 1.39621 0
M  V30 12237 N 1172.13 0.454803 1.50895 0
M  V30 12238 C 1173.38 -0.10577 2.02224 0
M  V30 12239 C 1173.71 -1.41176 1.33789 0
M  V30 12240 O 1172.96 -1.90522 0.447181 0
M  V30 12241 C 1173.26 -0.354159 3.55641 0
M  V30 12242 C 1172.93 0.868136 4.42464 0
M  V30 12243 C 1171.59 1.2033 4.65912 0
M  V30 12244 C 1173.94 1.68272 4.93289 0
M  V30 12245 C 1171.27 2.3534 5.37431 0
M  V30 12246 C 1173.62 2.82396 5.6607 0
M  V30 12247 C 1172.29 3.16346 5.87777 0
M  V30 12248 H 1171.56 -0.0387041 0.739989 0
M  V30 12249 H 1174.2 0.605564 1.81673 0
M  V30 12250 H 1172.51 -1.14757 3.74617 0
M  V30 12251 H 1174.21 -0.8016 3.92906 0
M  V30 12252 H 1170.8 0.596995 4.24422 0
M  V30 12253 H 1174.98 1.43698 4.75042 0
M  V30 12254 H 1170.24 2.61936 5.52449 0
M  V30 12255 H 1174.41 3.45873 6.04438 0
M  V30 12256 H 1172.04 4.05574 6.42973 0
M  V30 12257 N 1173.61 -1.56489 0.186789 0
M  V30 12258 C 1174.89 -1.89066 -0.501337 0
M  V30 12259 C 1175.27 -1.09906 -1.80233 0
M  V30 12260 O 1174.62 -0.197626 -2.27644 0
M  V30 12261 C 1174.83 -3.41318 -0.728207 0
M  V30 12262 C 1176.17 -4.11379 -1.0513 0
M  V30 12263 O 1177.2 -3.46722 -0.816216 0
M  V30 12264 O 1176.06 -5.25638 -1.49557 0
M  V30 12265 H 1173.15 -0.784966 -0.260303 0
M  V30 12266 H 1175.7 -1.68183 0.226382 0
M  V30 12267 H 1174.47 -3.90834 0.19088 0
M  V30 12268 H 1174.09 -3.67865 -1.50869 0
M  V30 12269 N 1175.09 0.086862 -1.5736 0
M  V30 12270 C 1176.5 0.640442 -1.75372 0
M  V30 12271 C 1176.85 1.78693 -0.81014 0
M  V30 12272 O 1175.98 2.16398 0.00940712 0
M  V30 12273 C 1176.57 1.16856 -3.1801 0
M  V30 12274 C 1175.13 1.66813 -3.37417 0
M  V30 12275 C 1174.28 0.58116 -2.71142 0
M  V30 12276 H 1177.23 -0.139249 -1.58088 0
M  V30 12277 H 1177.25 2.03772 -3.21337 0
M  V30 12278 H 1176.76 0.333909 -3.86661 0
M  V30 12279 H 1174.86 2.52652 -2.73858 0
M  V30 12280 H 1174.98 1.75545 -4.45781 0
M  V30 12281 H 1173.34 1.0226 -2.3327 0
M  V30 12282 H 1174.12 -0.243047 -3.42439 0
M  V30 12283 N 1176.57 1.53483 0.357892 0
M  V30 12284 C 1177.53 1.79782 1.42166 0
M  V30 12285 C 1178.53 0.668441 1.46248 0
M  V30 12286 O 1179.72 0.936677 1.46874 0
M  V30 12287 C 1176.85 1.92686 2.8122 0
M  V30 12288 H 1178.05 2.74794 1.20117 0
M  V30 12289 H 1175.6 1.44677 0.591468 0
M  V30 12290 H 1176.33 0.997669 3.08573 0
M  V30 12291 H 1176.12 2.74837 2.79655 0
M  V30 12292 H 1177.61 2.14599 3.58242 0
M  V30 12293 N 1178.05 -0.61812 1.44973 0
M  V30 12294 C 1178.96 -1.7579 1.55355 0
M  V30 12295 C 1179.97 -1.68384 0.438512 0
M  V30 12296 O 1181.15 -1.88928 0.697715 0
M  V30 12297 C 1178.21 -3.1222 1.50729 0
M  V30 12298 C 1177.27 -3.3116 2.73188 0
M  V30 12299 C 1176.51 -4.61082 2.68774 0
M  V30 12300 O 1176.73 -5.42728 1.75507 0
M  V30 12301 O 1175.66 -4.82506 3.59821 0
M  V30 12302 H 1179.49 -1.69983 2.51674 0
M  V30 12303 H 1177.07 -0.780934 1.27365 0
M  V30 12304 H 1178.96 -3.93524 1.5072 0
M  V30 12305 H 1177.63 -3.18541 0.575587 0
M  V30 12306 H 1176.54 -2.49485 2.78762 0
M  V30 12307 H 1177.87 -3.29709 3.65449 0
M  V30 12308 N 1179.52 -1.32087 -0.859693 0
M  V30 12309 C 1180.8 -1.12984 -1.59668 0
M  V30 12310 C 1181.18 0.311661 -2.08787 0
M  V30 12311 O 1180.53 1.30746 -1.87397 0
M  V30 12312 C 1180.74 -2.15305 -2.74672 0
M  V30 12313 C 1182.09 -2.48371 -3.44379 0
M  V30 12314 O 1183.11 -2.13811 -2.84891 0
M  V30 12315 O 1181.97 -3.07594 -4.51717 0
M  V30 12316 H 1179.06 -0.435657 -0.702945 0
M  V30 12317 H 1181.61 -1.43601 -0.90426 0
M  V30 12318 H 1180.38 -3.12223 -2.35866 0
M  V30 12319 H 1180 -1.85653 -3.51594 0
M  V30 12320 N 1181 1.07532 -1.15215 0
M  V30 12321 C 1182.25 1.79737 -0.924062 0
M  V30 12322 C 1182.57 1.87072 0.550356 0
M  V30 12323 O 1181.84 1.37029 1.4 0
M  V30 12324 H 1180.42 0.665704 -0.338891 0
M  V30 12325 H 1183.08 1.29961 -1.45245 0
M  V30 12326 H 1182.18 2.82256 -1.33184 0
M  V30 12327 N 1182.48 0.948665 1.2585 0
M  V30 12328 C 1183.43 0.462904 2.2611 0
M  V30 12329 C 1184.4 -0.481433 1.5897 0
M  V30 12330 O 1185.58 -0.395997 1.86645 0
M  V30 12331 C 1182.72 -0.258808 3.44128 0
M  V30 12332 C 1181.84 0.722072 4.25923 0
M  V30 12333 C 1180.97 -0.0215958 5.31196 0
M  V30 12334 C 1180.01 0.950612 6.04673 0
M  V30 12335 N 1179.15 0.238209 7.01696 0
M  V30 12336 H 1183.99 1.32279 2.67032 0
M  V30 12337 H 1181.52 0.663485 1.31287 0
M  V30 12338 H 1183.48 -0.693759 4.11391 0
M  V30 12339 H 1182.11 -1.08278 3.04098 0
M  V30 12340 H 1181.16 1.27552 3.58378 0
M  V30 12341 H 1182.48 1.46421 4.76825 0
M  V30 12342 H 1181.63 -0.51547 6.04506 0
M  V30 12343 H 1180.37 -0.796563 4.81151 0
M  V30 12344 H 1179.37 1.45554 5.30183 0
M  V30 12345 H 1180.6 1.72571 6.56808 0
M  V30 12346 H 1178.54 -0.518129 6.53951 0
M  V30 12347 H 1178.46 0.919542 7.50387 0
M  V30 12348 H 1179.73 -0.234325 7.79148 0
M  V30 12349 N 1183.96 -1.40369 0.716545 0
M  V30 12350 C 1184.87 -2.34508 0.065658 0
M  V30 12351 C 1185.88 -1.57352 -0.742723 0
M  V30 12352 O 1187.06 -1.89735 -0.675456 0
M  V30 12353 C 1184.13 -3.36262 -0.844337 0
M  V30 12354 C 1183.19 -4.29292 -0.0257971 0
M  V30 12355 C 1182.42 -5.26185 -0.892452 0
M  V30 12356 O 1182.64 -5.29071 -2.13166 0
M  V30 12357 O 1181.58 -6.0099 -0.330933 0
M  V30 12358 H 1185.4 -2.91789 0.842184 0
M  V30 12359 H 1182.99 -1.41579 0.477034 0
M  V30 12360 H 1184.87 -3.98661 -1.36555 0
M  V30 12361 H 1183.54 -2.81393 -1.59999 0
M  V30 12362 H 1182.45 -3.70175 0.540512 0
M  V30 12363 H 1183.78 -4.87316 0.69166 0
M  V30 12364 N 1185.44 -0.462799 -1.50652 0
M  V30 12365 C 1186.4 0.324264 -2.26895 0
M  V30 12366 C 1187.4 0.927687 -1.31342 0
M  V30 12367 O 1188.59 0.798159 -1.54839 0
M  V30 12368 C 1185.72 1.46113 -3.08 0
M  V30 12369 H 1186.91 -0.344266 -2.97917 0
M  V30 12370 H 1184.47 -0.216631 -1.54791 0
M  V30 12371 H 1185.2 2.16496 -2.41454 0
M  V30 12372 H 1184.99 1.03433 -3.78212 0
M  V30 12373 H 1186.48 2.01655 -3.65684 0
M  V30 12374 N 1186.91 1.56388 -0.195085 0
M  V30 12375 C 1188.14 2.02406 0.452399 0
M  V30 12376 C 1188.56 1.07432 1.54402 0
M  V30 12377 O 1187.92 0.0578246 1.81208 0
M  V30 12378 C 1187.97 3.46864 0.985778 0
M  V30 12379 O 1187.07 3.55007 2.09867 0
M  V30 12380 H 1186.42 0.65553 0.105719 0
M  V30 12381 H 1188.95 2.02299 -0.30596 0
M  V30 12382 H 1188.96 3.86655 1.30238 0
M  V30 12383 H 1187.63 4.15481 0.186662 0
M  V30 12384 H 1186.21 3.2709 1.79071 0
M  V30 12385 N 1188.39 -0.0785156 1.57404 0
M  V30 12386 C 1189.36 -1.07835 2.02248 0
M  V30 12387 C 1190.36 -1.31987 0.918475 0
M  V30 12388 O 1191.55 -1.27821 1.18353 0
M  V30 12389 C 1188.68 -2.42361 2.39737 0
M  V30 12390 H 1189.87 -0.691995 2.91807 0
M  V30 12391 H 1187.42 -0.32405 1.52904 0
M  V30 12392 H 1188.16 -2.85841 1.53183 0
M  V30 12393 H 1187.94 -2.26174 3.20293 0
M  V30 12394 H 1189.43 -3.14241 2.75031 0
M  V30 12395 N 1189.87 -1.5367 -0.349747 0
M  V30 12396 C 1191.29 -1.43796 -0.692457 0
M  V30 12397 C 1191.49 -0.58972 -1.92677 0
M  V30 12398 O 1190.54 -0.078294 -2.52379 0
M  V30 12399 C 1191.86 -2.872 -0.890881 0
M  V30 12400 C 1193.4 -2.96935 -0.989892 0
M  V30 12401 C 1193.88 -4.41433 -1.22068 0
M  V30 12402 N 1195.37 -4.44932 -1.28802 0
M  V30 12403 C 1196.1 -5.53864 -1.48398 0
M  V30 12404 N 1195.6 -6.72814 -1.65208 0
M  V30 12405 N 1197.39 -5.41467 -1.50896 0
M  V30 12406 H 1189.54 -2.07317 0.461895 0
M  V30 12407 H 1191.81 -0.936895 0.144681 0
M  V30 12408 H 1191.51 -3.51656 -0.0555095 0
M  V30 12409 H 1191.39 -3.31784 -1.79442 0
M  V30 12410 H 1193.77 -2.32622 -1.81579 0
M  V30 12411 H 1193.86 -2.55721 -0.0633906 0
M  V30 12412 H 1193.5 -5.06325 -0.399729 0
M  V30 12413 H 1193.43 -4.80233 -2.16064 0
M  V30 12414 H 1195.92 -3.59214 -1.17361 0
M  V30 12415 H 1196.23 -7.51598 -1.79779 0
M  V30 12416 H 1194.58 -6.7577 -1.62356 0
M  V30 12417 H 1197.77 -4.47498 -1.37342 0
M  V30 12418 H 1197.94 -6.26423 -1.65826 0
M  V30 12419 N 1191.35 0.610423 -1.45298 0
M  V30 12420 C 1192.59 1.37154 -1.49388 0
M  V30 12421 C 1192.93 1.93737 -0.134025 0
M  V30 12422 O 1192.2 1.74888 0.851138 0
M  V30 12423 C 1192.49 2.52155 -2.5708 0
M  V30 12424 C 1192.34 2.00786 -4.02498 0
M  V30 12425 C 1193.66 3.54294 -2.61082 0
M  V30 12426 H 1190.78 0.497346 -0.54389 0
M  V30 12427 H 1193.42 0.688358 -1.77092 0
M  V30 12428 H 1191.57 3.10434 -2.33587 0
M  V30 12429 H 1193.24 1.47178 -4.37191 0
M  V30 12430 H 1191.48 1.31809 -4.1329 0
M  V30 12431 H 1192.15 2.83674 -4.73533 0
M  V30 12432 H 1194.63 3.05851 -2.82125 0
M  V30 12433 H 1193.51 4.32254 -3.38301 0
M  V30 12434 H 1193.77 4.09726 -1.66063 0
M  V30 12435 N 1192.83 1.32541 0.852676 0
M  V30 12436 C 1194.1 1.1383 1.59067 0
M  V30 12437 C 1194.48 -0.300584 2.08949 0
M  V30 12438 O 1193.83 -1.29751 1.88088 0
M  V30 12439 C 1194.04 2.16758 2.73527 0
M  V30 12440 C 1195.39 2.50194 3.43057 0
M  V30 12441 O 1196.41 2.15319 2.83754 0
M  V30 12442 O 1195.27 3.09985 4.50079 0
M  V30 12443 H 1192.37 0.439379 0.700625 0
M  V30 12444 H 1194.91 1.44078 0.896632 0
M  V30 12445 H 1193.68 3.13469 2.34207 0
M  V30 12446 H 1193.31 1.87515 3.50605 0
M  V30 12447 N 1194.3 -1.0692 1.15784 0
M  V30 12448 C 1195.72 -1.61069 0.944123 0
M  V30 12449 C 1196.07 -1.8936 -0.513522 0
M  V30 12450 O 1195.19 -1.66232 -1.38549 0
M  V30 12451 C 1195.79 -2.9263 1.70743 0
M  V30 12452 C 1194.35 -3.43505 1.53887 0
M  V30 12453 C 1193.49 -2.17495 1.72021 0
M  V30 12454 H 1196.44 -0.89951 1.30746 0
M  V30 12455 H 1196.46 -3.61757 1.17951 0
M  V30 12456 H 1195.98 -2.72007 2.76828 0
M  V30 12457 H 1194.08 -3.69201 0.502153 0
M  V30 12458 H 1194.19 -4.19254 2.31868 0
M  V30 12459 H 1192.55 -2.27407 1.1471 0
M  V30 12460 H 1193.34 -1.99362 2.79481 0
M  V30 12461 N 1195.78 -0.955326 -1.25345 0
M  V30 12462 C 1196.73 -0.474888 -2.25862 0
M  V30 12463 C 1197.7 0.472996 -1.59223 0
M  V30 12464 O 1198.88 0.386094 -1.86853 0
M  V30 12465 C 1196.02 0.240554 -3.44261 0
M  V30 12466 C 1195.14 -0.74465 -4.25534 0
M  V30 12467 C 1194.27 -0.00657513 -5.312 0
M  V30 12468 C 1193.31 -0.982666 -6.04161 0
M  V30 12469 N 1192.45 -0.275418 -7.0156 0
M  V30 12470 H 1197.29 -1.33693 -2.66327 0
M  V30 12471 H 1194.83 -0.670439 -1.30933 0
M  V30 12472 H 1196.78 0.671933 -4.11753 0
M  V30 12473 H 1195.41 1.06664 -3.04668 0
M  V30 12474 H 1194.47 -1.29451 -3.57696 0
M  V30 12475 H 1195.78 -1.48948 -4.76042 0
M  V30 12476 H 1194.93 0.483404 -6.04771 0
M  V30 12477 H 1193.67 0.771035 -4.81567 0
M  V30 12478 H 1192.68 -1.48364 -5.29404 0
M  V30 12479 H 1193.9 -1.76052 -6.55883 0
M  V30 12480 H 1191.85 0.483441 -6.54216 0
M  V30 12481 H 1191.76 -0.959324 -7.49889 0
M  V30 12482 H 1193.03 0.193002 -7.79261 0
M  V30 12483 N 1197.26 1.39987 -0.723979 0
M  V30 12484 C 1198.22 2.29041 -0.0854583 0
M  V30 12485 C 1199.22 1.45777 0.678657 0
M  V30 12486 O 1200.41 1.66588 0.509311 0
M  V30 12487 C 1197.55 3.29115 0.88859 0
M  V30 12488 H 1198.74 2.87006 -0.869903 0
M  V30 12489 H 1196.29 1.48449 -0.489136 0
M  V30 12490 H 1197.03 2.76184 1.69979 0
M  V30 12491 H 1196.81 3.90593 0.343454 0
M  V30 12492 H 1198.3 3.95778 1.33227 0
M  V30 12493 N 1198.74 0.470782 1.50404 0
M  V30 12494 C 1199.67 -0.313458 2.31386 0
M  V30 12495 C 1200.65 -0.990623 1.38278 0
M  V30 12496 O 1201.84 -0.987854 1.67198 0
M  V30 12497 C 1198.97 -1.39599 3.18009 0
M  V30 12498 C 1197.92 -0.840443 4.19667 0
M  V30 12499 C 1197.25 -2.02124 4.95025 0
M  V30 12500 C 1198.55 0.148055 5.2209 0
M  V30 12501 H 1200.24 0.362432 2.97198 0
M  V30 12502 H 1197.79 0.175745 1.42924 0
M  V30 12503 H 1199.74 -1.9521 3.73458 0
M  V30 12504 H 1198.46 -2.10064 2.50081 0
M  V30 12505 H 1197.12 -0.306302 3.65318 0
M  V30 12506 H 1196.77 -2.71286 4.23571 0
M  V30 12507 H 1196.47 -1.65574 5.6379 0
M  V30 12508 H 1197.99 -2.58226 5.5331 0
M  V30 12509 H 1199.41 -0.318874 5.72413 0
M  V30 12510 H 1197.8 0.427811 5.98573 0
M  V30 12511 H 1198.87 1.07404 4.72855 0
M  V30 12512 N 1200.22 -1.56282 0.203376 0
M  V30 12513 C 1201.46 -1.98105 -0.433844 0
M  V30 12514 C 1201.8 -1.09044 -1.60695 0
M  V30 12515 O 1201.07 -0.144193 -1.93965 0
M  V30 12516 C 1201.35 -3.4903 -0.885992 0
M  V30 12517 C 1201.21 -4.48867 0.289501 0
M  V30 12518 C 1202.53 -4.03871 -1.7486 0
M  V30 12519 H 1199.65 -0.720252 -0.156224 0
M  V30 12520 H 1202.29 -1.87681 0.295963 0
M  V30 12521 H 1200.44 -3.58045 -1.50785 0
M  V30 12522 H 1202.11 -4.51883 0.92734 0
M  V30 12523 H 1200.35 -4.23495 0.939934 0
M  V30 12524 H 1201.02 -5.51956 -0.0695128 0
M  V30 12525 H 1203.5 -3.97688 -1.22407 0
M  V30 12526 H 1202.38 -5.09827 -2.03391 0
M  V30 12527 H 1202.64 -3.49637 -2.70567 0
M  V30 12528 N 1201.7 0.070167 -1.57444 0
M  V30 12529 C 1202.64 1.08322 -2.03801 0
M  V30 12530 C 1203.61 1.38364 -0.918946 0
M  V30 12531 O 1204.8 1.49404 -1.18672 0
M  V30 12532 C 1201.94 2.39128 -2.48821 0
M  V30 12533 C 1201.05 2.15603 -3.74352 0
M  V30 12534 C 1200.19 3.39984 -4.08148 0
M  V30 12535 C 1199.22 3.1183 -5.26715 0
M  V30 12536 N 1198.36 4.28546 -5.56141 0
M  V30 12537 H 1203.2 0.680931 -2.90116 0
M  V30 12538 H 1200.74 0.324657 -1.43473 0
M  V30 12539 H 1202.7 3.15501 -2.72975 0
M  V30 12540 H 1201.33 2.77157 -1.65481 0
M  V30 12541 H 1200.38 1.29915 -3.57528 0
M  V30 12542 H 1201.69 1.90808 -4.60862 0
M  V30 12543 H 1200.84 4.2475 -4.33211 0
M  V30 12544 H 1199.58 3.67856 -3.20208 0
M  V30 12545 H 1198.59 2.2546 -5.01446 0
M  V30 12546 H 1199.81 2.85278 -6.16273 0
M  V30 12547 H 1197.76 4.56447 -4.71161 0
M  V30 12548 H 1197.68 4.0703 -6.37073 0
M  V30 12549 H 1198.94 5.14305 -5.85757 0
M  V30 12550 N 1203.17 1.53854 0.341593 0
M  V30 12551 C 1204.08 1.84975 1.44297 0
M  V30 12552 C 1205.1 0.740057 1.57477 0
M  V30 12553 O 1206.28 1.03256 1.72917 0
M  V30 12554 C 1203.34 2.05464 2.79259 0
M  V30 12555 C 1202.4 3.29318 2.75405 0
M  V30 12556 C 1201.63 3.4882 4.03931 0
M  V30 12557 O 1201.86 2.7212 5.01305 0
M  V30 12558 O 1200.79 4.42253 4.08284 0
M  V30 12559 H 1204.62 2.78592 1.20913 0
M  V30 12560 H 1202.2 1.39532 0.533953 0
M  V30 12561 H 1204.08 2.20374 3.59184 0
M  V30 12562 H 1202.76 1.15035 3.0257 0
M  V30 12563 H 1201.67 3.1981 1.94094 0
M  V30 12564 H 1203 4.19746 2.57049 0
M  V30 12565 N 1204.65 -0.602709 1.4562 0
M  V30 12566 C 1205.56 -1.74132 1.5721 0
M  V30 12567 C 1206.58 -1.67909 0.456347 0
M  V30 12568 O 1207.75 -1.88178 0.717714 0
M  V30 12569 C 1204.82 -3.10604 1.54032 0
M  V30 12570 C 1203.88 -3.28244 2.76685 0
M  V30 12571 C 1203.11 -4.58205 2.73649 0
M  V30 12572 O 1203.34 -5.40836 1.81254 0
M  V30 12573 O 1202.27 -4.78663 3.64919 0
M  V30 12574 H 1206.1 -1.67304 2.53462 0
M  V30 12575 H 1203.68 -0.767381 1.28186 0
M  V30 12576 H 1205.56 -3.91904 1.54885 0
M  V30 12577 H 1204.24 -3.17913 0.60934 0
M  V30 12578 H 1203.14 -2.46514 2.81393 0
M  V30 12579 H 1204.48 -3.25814 3.68925 0
M  V30 12580 N 1206.13 -1.32992 -0.845635 0
M  V30 12581 C 1207.06 -1.18513 -1.96182 0
M  V30 12582 C 1208.07 -0.11781 -1.62373 0
M  V30 12583 O 1209.26 -0.36761 -1.74674 0
M  V30 12584 C 1206.36 -0.793812 -3.29472 0
M  V30 12585 C 1205.54 -1.95134 -3.91461 0
M  V30 12586 C 1204.6 -1.54209 -5.03096 0
M  V30 12587 O 1203.62 -2.25545 -5.22607 0
M  V30 12588 N 1204.82 -0.443235 -5.78805 0
M  V30 12589 H 1207.59 -2.14663 -2.09141 0
M  V30 12590 H 1205.15 -1.25648 -1.02099 0
M  V30 12591 H 1207.14 -0.502263 -4.01571 0
M  V30 12592 H 1205.71 0.0768031 -3.12506 0
M  V30 12593 H 1204.93 -2.40889 -3.12035 0
M  V30 12594 H 1206.22 -2.72604 -4.2961 0
M  V30 12595 H 1205.62 0.150298 -5.655 0
M  V30 12596 H 1204.17 -0.211331 -6.51457 0
M  V30 12597 N 1207.61 1.06304 -1.1635 0
M  V30 12598 C 1208.57 2.11947 -0.872419 0
M  V30 12599 C 1209.57 1.60253 0.132534 0
M  V30 12600 O 1210.76 1.73922 -0.0983441 0
M  V30 12601 C 1207.89 3.39536 -0.304646 0
M  V30 12602 H 1209.09 2.39201 -1.80894 0
M  V30 12603 H 1206.64 1.22367 -0.972419 0
M  V30 12604 H 1207.37 3.17931 0.639565 0
M  V30 12605 H 1207.16 3.78363 -1.02878 0
M  V30 12606 H 1208.65 4.17431 -0.118936 0
M  V30 12607 N 1209.09 0.96196 1.24836 0
M  V30 12608 C 1210.31 0.63814 1.96813 0
M  V30 12609 C 1210.73 -0.79127 1.71419 0
M  V30 12610 O 1210.09 -1.5302 0.994546 0
M  V30 12611 C 1210.14 0.89626 3.50213 0
M  V30 12612 O 1209.86 2.26947 3.74735 0
M  V30 12613 C 1211.36 0.585836 4.39412 0
M  V30 12614 H 1208.58 0.238598 0.627146 0
M  V30 12615 H 1211.12 1.28833 1.58815 0
M  V30 12616 H 1209.28 0.292368 3.86295 0
M  V30 12617 H 1209.69 2.34514 4.69152 0
M  V30 12618 H 1211.17 0.816935 5.45921 0
M  V30 12619 H 1211.64 -0.479784 4.36572 0
M  V30 12620 H 1212.25 1.16938 4.08908 0
M  V30 12621 N 1210.56 -1.39601 0.731392 0
M  V30 12622 C 1211.79 -2.04887 0.28789 0
M  V30 12623 C 1212.21 -1.55138 -1.076 0
M  V30 12624 O 1211.56 -0.71471 -1.67923 0
M  V30 12625 C 1211.61 -3.6044 0.276629 0
M  V30 12626 O 1211.34 -4.08358 1.58668 0
M  V30 12627 C 1212.84 -4.4292 -0.183485 0
M  V30 12628 H 1210.06 -0.658976 0.126459 0
M  V30 12629 H 1212.6 -1.78716 0.994031 0
M  V30 12630 H 1210.76 -3.85526 -0.380597 0
M  V30 12631 H 1211.17 -5.02659 1.4978 0
M  V30 12632 H 1212.64 -5.51822 -0.140207 0
M  V30 12633 H 1213.12 -4.2168 -1.22811 0
M  V30 12634 H 1213.73 -4.22976 0.444042 0
M  V30 12635 N 1212.04 -0.478751 -1.50152 0
M  V30 12636 C 1213.29 0.07531 -2.01559 0
M  V30 12637 C 1213.6 1.40089 -1.36508 0
M  V30 12638 O 1214.81 2.04035 -1.79115 0
M  V30 12639 C 1213.27 0.184714 -3.59426 0
M  V30 12640 C 1212.87 -1.13289 -4.33439 0
M  V30 12641 C 1214.62 0.690326 -4.18849 0
M  V30 12642 C 1212.53 -0.986866 -5.83108 0
M  V30 12643 H 1211.46 0.0319196 -0.753324 0
M  V30 12644 H 1214.11 -0.614809 -1.72894 0
M  V30 12645 H 1212.49 0.938788 -3.84711 0
M  V30 12646 H 1213.66 -1.89852 -4.19872 0
M  V30 12647 H 1211.98 -1.57021 -3.8566 0
M  V30 12648 H 1214.57 0.816733 -5.28426 0
M  V30 12649 H 1214.92 1.68361 -3.80737 0
M  V30 12650 H 1215.45 -0.00657846 -3.97799 0
M  V30 12651 H 1212.19 -1.95375 -6.25707 0
M  V30 12652 H 1211.71 -0.261752 -5.99229 0
M  V30 12653 H 1213.39 -0.656567 -6.4366 0
M  V30 12654 N 1213.52 1.56172 -0.211661 0
M  V30 12655 C 1214.77 1.98039 0.422706 0
M  V30 12656 C 1215.1 1.09904 1.60472 0
M  V30 12657 O 1214.35 0.141771 1.95186 0
M  V30 12658 C 1214.65 3.45636 0.909442 0
M  V30 12659 C 1214.32 4.50613 -0.160982 0
M  V30 12660 C 1212.98 4.79043 -0.455064 0
M  V30 12661 C 1215.33 5.13624 -0.885426 0
M  V30 12662 C 1212.66 5.67771 -1.47828 0
M  V30 12663 C 1215.01 6.03459 -1.8979 0
M  V30 12664 C 1213.67 6.30238 -2.19901 0
M  V30 12665 H 1212.94 0.724676 0.154679 0
M  V30 12666 H 1215.59 1.8894 -0.312106 0
M  V30 12667 H 1213.9 3.51889 1.72283 0
M  V30 12668 H 1215.59 3.75395 1.40995 0
M  V30 12669 H 1212.18 4.28528 0.0783864 0
M  V30 12670 H 1216.37 4.91737 -0.671463 0
M  V30 12671 H 1211.62 5.86787 -1.7173 0
M  V30 12672 H 1215.8 6.51338 -2.46438 0
M  V30 12673 H 1213.42 6.98788 -2.9933 0
M  V30 12674 N 1215 -0.0618163 1.57479 0
M  V30 12675 C 1215.93 -1.09931 2.01116 0
M  V30 12676 C 1216.94 -1.34405 0.91865 0
M  V30 12677 O 1218.13 -1.32469 1.19642 0
M  V30 12678 C 1215.23 -2.44814 2.34349 0
M  V30 12679 C 1214.41 -2.40157 3.65573 0
M  V30 12680 C 1213.46 -3.57226 3.86363 0
M  V30 12681 O 1212.49 -3.38202 4.5783 0
M  V30 12682 N 1213.69 -4.77937 3.2948 0
M  V30 12683 H 1216.46 -0.727621 2.90733 0
M  V30 12684 H 1214.02 -0.250315 1.59953 0
M  V30 12685 H 1216.01 -3.21792 2.45422 0
M  V30 12686 H 1214.58 -2.73947 1.50571 0
M  V30 12687 H 1213.8 -1.48496 3.65161 0
M  V30 12688 H 1215.09 -2.34156 4.51717 0
M  V30 12689 H 1214.49 -4.96296 2.7149 0
M  V30 12690 H 1213.04 -5.52392 3.45986 0
M  V30 12691 N 1216.48 -1.54033 -0.333429 0
M  V30 12692 C 1217.7 -1.76031 -1.09672 0
M  V30 12693 C 1218.13 -0.502844 -1.81254 0
M  V30 12694 O 1217.48 0.54509 -1.72912 0
M  V30 12695 C 1217.53 -2.947 -2.07809 0
M  V30 12696 O 1216.64 -2.65555 -3.15522 0
M  V30 12697 H 1215.98 -0.583611 -0.316692 0
M  V30 12698 H 1218.51 -2.01026 -0.380732 0
M  V30 12699 H 1218.52 -3.21771 -2.50853 0
M  V30 12700 H 1217.19 -3.85895 -1.55106 0
M  V30 12701 H 1215.77 -2.49403 -2.77223 0
M  V30 12702 N 1217.95 0.594978 -1.45938 0
M  V30 12703 C 1218.86 1.73296 -1.58132 0
M  V30 12704 C 1219.88 1.67665 -0.465245 0
M  V30 12705 O 1221.06 1.87794 -0.727684 0
M  V30 12706 C 1218.12 3.09783 -1.55677 0
M  V30 12707 C 1217.18 3.26772 -2.78422 0
M  V30 12708 C 1216.42 4.56748 -2.76075 0
M  V30 12709 O 1216.64 5.39867 -1.84119 0
M  V30 12710 O 1215.57 4.76721 -3.67452 0
M  V30 12711 H 1219.4 1.65957 -2.54346 0
M  V30 12712 H 1216.98 0.760572 -1.28591 0
M  V30 12713 H 1218.87 3.91077 -1.56961 0
M  V30 12714 H 1217.54 3.17585 -0.626191 0
M  V30 12715 H 1216.45 2.45018 -2.82696 0
M  V30 12716 H 1217.78 3.23853 -3.70648 0
M  V30 12717 N 1219.43 1.33438 0.838571 0
M  V30 12718 C 1220.36 1.19552 1.9555 0
M  V30 12719 C 1221.38 0.12642 1.62308 0
M  V30 12720 O 1222.57 0.376868 1.74476 0
M  V30 12721 C 1219.67 0.811273 3.29046 0
M  V30 12722 C 1218.84 1.97207 3.9042 0
M  V30 12723 C 1217.9 1.56875 5.02271 0
M  V30 12724 O 1216.92 2.28314 5.21403 0
M  V30 12725 N 1218.13 0.473924 5.78562 0
M  V30 12726 H 1220.89 2.15769 2.07999 0
M  V30 12727 H 1218.45 1.26187 1.01432 0
M  V30 12728 H 1220.44 0.523553 4.01299 0
M  V30 12729 H 1219.01 -0.0602291 3.12542 0
M  V30 12730 H 1218.23 2.4254 3.10754 0
M  V30 12731 H 1219.52 2.74878 4.28158 0
M  V30 12732 H 1218.92 -0.120306 5.65572 0
M  V30 12733 H 1217.48 0.245877 6.51336 0
M  V30 12734 N 1220.91 -1.05686 1.16912 0
M  V30 12735 C 1222.16 -1.78244 0.95254 0
M  V30 12736 C 1222.48 -1.87924 -0.520525 0
M  V30 12737 O 1221.75 -1.39239 -1.37802 0
M  V30 12738 H 1220.33 -0.660228 0.349439 0
M  V30 12739 H 1222.99 -1.27634 1.47294 0
M  V30 12740 H 1222.09 -2.80102 1.37657 0
M  V30 12741 N 1222.39 -0.968567 -1.24324 0
M  V30 12742 C 1223.34 -0.498817 -2.25345 0
M  V30 12743 C 1224.31 0.456082 -1.59716 0
M  V30 12744 O 1225.49 0.366254 -1.87252 0
M  V30 12745 C 1222.63 0.204027 -3.44496 0
M  V30 12746 C 1221.74 -0.789741 -4.2472 0
M  V30 12747 C 1220.88 -0.0629156 -5.31163 0
M  V30 12748 C 1219.92 -1.04669 -6.03084 0
M  V30 12749 N 1219.05 -0.349812 -7.01228 0
M  V30 12750 H 1223.89 -1.36511 -2.64894 0
M  V30 12751 H 1221.43 -0.684288 -1.30215 0
M  V30 12752 H 1223.39 0.628223 -4.12443 0
M  V30 12753 H 1222.02 1.03426 -3.05782 0
M  V30 12754 H 1221.07 -1.33237 -3.56303 0
M  V30 12755 H 1222.38 -1.53988 -4.74436 0
M  V30 12756 H 1221.54 0.419233 -6.0525 0
M  V30 12757 H 1220.28 0.719915 -4.82357 0
M  V30 12758 H 1219.28 -1.53971 -5.278 0
M  V30 12759 H 1220.51 -1.82998 -6.53979 0
M  V30 12760 H 1218.45 0.414026 -6.54692 0
M  V30 12761 H 1218.37 -1.03881 -7.48829 0
M  V30 12762 H 1219.64 0.11034 -7.79422 0
M  V30 12763 N 1223.87 1.39211 -0.738786 0
M  V30 12764 C 1224.81 2.30578 -0.10129 0
M  V30 12765 C 1225.78 1.49412 0.725616 0
M  V30 12766 O 1226.97 1.78087 0.684799 0
M  V30 12767 C 1224.11 3.35767 0.797161 0
M  V30 12768 C 1223.22 4.31979 -0.0427701 0
M  V30 12769 C 1222.36 5.24236 0.857306 0
M  V30 12770 C 1221.4 6.12099 0.0128501 0
M  V30 12771 N 1220.53 6.96701 0.869067 0
M  V30 12772 H 1225.37 2.84522 -0.88606 0
M  V30 12773 H 1222.91 1.40093 -0.448602 0
M  V30 12774 H 1224.87 3.95347 1.33255 0
M  V30 12775 H 1223.5 2.83268 1.54787 0
M  V30 12776 H 1222.55 3.73986 -0.695622 0
M  V30 12777 H 1223.86 4.93927 -0.69555 0
M  V30 12778 H 1223.02 5.88861 1.4604 0
M  V30 12779 H 1221.75 4.62619 1.54386 0
M  V30 12780 H 1220.76 5.46483 -0.603018 0
M  V30 12781 H 1221.98 6.75781 -0.67054 0
M  V30 12782 H 1219.93 6.37647 1.54084 0
M  V30 12783 H 1219.85 7.55507 0.272852 0
M  V30 12784 H 1221.12 7.65751 1.4576 0
M  V30 12785 N 1225.34 0.486708 1.49896 0
M  V30 12786 C 1226.57 -0.0600816 2.06813 0
M  V30 12787 C 1226.99 -1.32112 1.34877 0
M  V30 12788 O 1226.34 -1.77537 0.422725 0
M  V30 12789 C 1226.4 -0.332266 3.5997 0
M  V30 12790 O 1226.12 0.878771 4.29196 0
M  V30 12791 C 1227.62 -0.924289 4.33557 0
M  V30 12792 H 1224.84 0.0140611 0.670853 0
M  V30 12793 H 1227.38 0.67997 1.92864 0
M  V30 12794 H 1225.54 -1.02227 3.73669 0
M  V30 12795 H 1225.95 0.632873 5.20668 0
M  V30 12796 H 1227.42 -1.06441 5.4164 0
M  V30 12797 H 1227.9 -1.91844 3.95085 0
M  V30 12798 H 1228.51 -0.272189 4.24428 0
M  V30 12799 N 1226.82 -1.56058 0.219941 0
M  V30 12800 C 1228.07 -1.97436 -0.412543 0
M  V30 12801 C 1228.39 -1.11058 -1.61014 0
M  V30 12802 O 1229.59 -1.42328 -2.31203 0
M  V30 12803 C 1228.05 -3.51227 -0.785362 0
M  V30 12804 C 1227.66 -4.46305 0.389328 0
M  V30 12805 C 1229.4 -4.01321 -1.38354 0
M  V30 12806 C 1227.31 -5.914 -0.00583531 0
M  V30 12807 H 1226.24 -0.73728 -0.157906 0
M  V30 12808 H 1228.89 -1.8076 0.315898 0
M  V30 12809 H 1227.27 -3.63497 -1.57118 0
M  V30 12810 H 1228.44 -4.45781 1.16686 0
M  V30 12811 H 1226.76 -4.06543 0.900633 0
M  V30 12812 H 1229.36 -5.07221 -1.69207 0
M  V30 12813 H 1229.7 -3.47077 -2.29876 0
M  V30 12814 H 1230.23 -3.92267 -0.66119 0
M  V30 12815 H 1226.97 -6.49623 0.87583 0
M  V30 12816 H 1226.49 -5.95121 -0.74772 0
M  V30 12817 H 1228.17 -6.45549 -0.43308 0
M  V30 12818 N 1228.3 0.053464 -1.57509 0
M  V30 12819 C 1229.58 0.783141 -1.79238 0
M  V30 12820 C 1229.96 1.94855 -0.812069 0
M  V30 12821 O 1229.31 2.28 0.151006 0
M  V30 12822 C 1229.52 1.239 -3.26266 0
M  V30 12823 C 1230.86 1.66492 -3.90596 0
M  V30 12824 O 1231.89 1.33421 -3.30269 0
M  V30 12825 O 1230.75 2.27785 -4.96766 0
M  V30 12826 H 1227.84 0.376696 -0.736226 0
M  V30 12827 H 1230.39 0.0321229 -1.6967 0
M  V30 12828 H 1229.16 0.405948 -3.89189 0
M  V30 12829 H 1228.78 2.05078 -3.4063 0
M  V30 12830 N 1229.78 1.54207 0.325255 0
M  V30 12831 C 1231.03 1.71544 1.06091 0
M  V30 12832 C 1231.34 0.495137 1.89229 0
M  V30 12833 O 1232.55 0.54982 2.65874 0
M  V30 12834 C 1231 3.03412 1.93569 0
M  V30 12835 C 1230.61 4.32842 1.1555 0
M  V30 12836 C 1232.36 3.30113 2.66881 0
M  V30 12837 C 1230.26 5.55773 2.02164 0
M  V30 12838 H 1229.19 0.639281 0.399795 0
M  V30 12839 H 1231.84 1.80701 0.319261 0
M  V30 12840 H 1230.23 2.88158 2.71626 0
M  V30 12841 H 1231.4 4.58857 0.42276 0
M  V30 12842 H 1229.71 4.12893 0.539277 0
M  V30 12843 H 1232.31 4.19151 3.31988 0
M  V30 12844 H 1232.65 2.47918 3.34428 0
M  V30 12845 H 1233.19 3.46227 1.95887 0
M  V30 12846 H 1229.93 6.40565 1.39128 0
M  V30 12847 H 1229.45 5.3398 2.73177 0
M  V30 12848 H 1231.13 5.92113 2.60789 0
M  V30 12849 N 1231.26 -0.58723 1.46251 0
M  V30 12850 C 1232.49 -1.36976 1.54665 0
M  V30 12851 C 1232.9 -1.88293 0.185079 0
M  V30 12852 O 1232.24 -1.64028 -0.82707 0
M  V30 12853 C 1232.3 -2.59591 2.48702 0
M  V30 12854 C 1231.96 -2.29773 3.95036 0
M  V30 12855 C 1232.96 -1.88885 4.84374 0
M  V30 12856 C 1230.65 -2.42057 4.40129 0
M  V30 12857 C 1232.64 -1.60669 6.16818 0
M  V30 12858 C 1230.33 -2.13454 5.72609 0
M  V30 12859 C 1231.33 -1.72824 6.60773 0
M  V30 12860 O 1231.01 -1.44569 7.90794 0
M  V30 12861 H 1230.75 -0.424968 0.525717 0
M  V30 12862 H 1233.3 -0.721298 1.92319 0
M  V30 12863 H 1231.53 -3.27226 2.06058 0
M  V30 12864 H 1233.22 -3.21656 2.47573 0
M  V30 12865 H 1233.98 -1.78913 4.50794 0
M  V30 12866 H 1229.86 -2.72644 3.71734 0
M  V30 12867 H 1233.41 -1.28882 6.85591 0
M  V30 12868 H 1229.3 -2.23048 6.05739 0
M  V30 12869 H 1230.07 -1.58452 8.03016 0
M  V30 12870 N 1232.74 -1.33881 -0.831482 0
M  V30 12871 C 1233.98 -1.26951 -1.58918 0
M  V30 12872 C 1234.34 0.161359 -1.91722 0
M  V30 12873 O 1233.63 1.1054 -1.56498 0
M  V30 12874 C 1233.82 -2.08544 -2.90249 0
M  V30 12875 C 1233.65 -3.5942 -2.70273 0
M  V30 12876 C 1232.42 -4.28718 -2.67449 0
M  V30 12877 C 1234.62 -4.53599 -2.42388 0
M  V30 12878 N 1232.6 -5.65496 -2.38929 0
M  V30 12879 C 1233.97 -5.7832 -2.23485 0
M  V30 12880 C 1236.03 -4.42605 -2.28046 0
M  V30 12881 C 1234.73 -6.93286 -1.91695 0
M  V30 12882 C 1236.76 -5.57395 -1.97649 0
M  V30 12883 C 1236.12 -6.81129 -1.79563 0
M  V30 12884 H 1232.22 -0.519762 -0.58427 0
M  V30 12885 H 1234.8 -1.68502 -0.97546 0
M  V30 12886 H 1232.97 -1.69302 -3.49559 0
M  V30 12887 H 1234.71 -1.93325 -3.55538 0
M  V30 12888 H 1231.46 -3.81068 -2.81219 0
M  V30 12889 H 1231.88 -6.37619 -2.27532 0
M  V30 12890 H 1236.53 -3.47571 -2.40737 0
M  V30 12891 H 1234.24 -7.88311 -1.7774 0
M  V30 12892 H 1237.83 -5.50828 -1.87296 0
M  V30 12893 H 1236.71 -7.68449 -1.56382 0
M  V30 12894 N 1234.21 1.05064 -1.1747 0
M  V30 12895 C 1235.14 2.14786 -0.915936 0
M  V30 12896 C 1236.12 1.69502 0.142561 0
M  V30 12897 O 1237.31 1.94198 -0.00794522 0
M  V30 12898 C 1234.44 3.44629 -0.429864 0
M  V30 12899 C 1233.39 4.03486 -1.42769 0
M  V30 12900 C 1232.72 5.28689 -0.799528 0
M  V30 12901 C 1234.02 4.40823 -2.80129 0
M  V30 12902 H 1235.71 2.3669 -1.83352 0
M  V30 12903 H 1233.26 1.13751 -0.882992 0
M  V30 12904 H 1235.21 4.20737 -0.236245 0
M  V30 12905 H 1233.94 3.22381 0.523263 0
M  V30 12906 H 1232.6 3.29449 -1.60808 0
M  V30 12907 H 1232.24 5.02744 0.160474 0
M  V30 12908 H 1231.94 5.69028 -1.46565 0
M  V30 12909 H 1233.47 6.07483 -0.616212 0
M  V30 12910 H 1234.88 5.07959 -2.65801 0
M  V30 12911 H 1233.28 4.92183 -3.43331 0
M  V30 12912 H 1234.35 3.51108 -3.34441 0
M  V30 12913 N 1235.69 0.975146 1.23809 0
M  V30 12914 C 1236.94 0.641124 1.92083 0
M  V30 12915 C 1237.27 -0.824671 1.76152 0
M  V30 12916 O 1236.52 -1.6097 1.11298 0
M  V30 12917 C 1236.82 0.971016 3.43956 0
M  V30 12918 C 1236.49 2.42616 3.80063 0
M  V30 12919 C 1235.15 2.82386 3.8963 0
M  V30 12920 C 1237.5 3.37019 3.97577 0
M  V30 12921 C 1234.83 4.15585 4.14133 0
M  V30 12922 C 1237.18 4.69855 4.23579 0
M  V30 12923 C 1235.84 5.09391 4.31366 0
M  V30 12924 H 1235.11 0.234604 0.702881 0
M  V30 12925 H 1237.76 1.22803 1.46941 0
M  V30 12926 H 1236.07 0.301965 3.90635 0
M  V30 12927 H 1237.76 0.690858 3.95004 0
M  V30 12928 H 1234.35 2.10782 3.73187 0
M  V30 12929 H 1238.54 3.07474 3.89581 0
M  V30 12930 H 1233.79 4.45831 4.18383 0
M  V30 12931 H 1237.97 5.42966 4.36074 0
M  V30 12932 H 1235.59 6.12624 4.50106 0
M  V30 12933 N 1237.17 -1.38817 0.746158 0
M  V30 12934 C 1238.45 -1.94303 0.224841 0
M  V30 12935 C 1238.83 -1.68207 -1.27552 0
M  V30 12936 O 1238.17 -1.01647 -2.04646 0
M  V30 12937 C 1238.38 -3.44306 0.5705 0
M  V30 12938 C 1239.73 -4.21329 0.526015 0
M  V30 12939 O 1240.76 -3.52554 0.508351 0
M  V30 12940 O 1239.62 -5.4392 0.530383 0
M  V30 12941 H 1236.71 -0.825785 0.0448047 0
M  V30 12942 H 1239.26 -1.48253 0.825775 0
M  V30 12943 H 1238.03 -3.56779 1.60701 0
M  V30 12944 H 1237.65 -3.97556 -0.0588271 0
M  V30 12945 N 1238.65 -0.49465 -1.49636 0
M  V30 12946 C 1239.92 0.114829 -1.95263 0
M  V30 12947 C 1240.3 1.54739 -1.43593 0
M  V30 12948 O 1239.65 2.1915 -0.646953 0
M  V30 12949 C 1239.86 0.0339912 -3.48983 0
M  V30 12950 C 1241.21 0.211108 -4.24075 0
M  V30 12951 O 1242.23 0.109478 -3.56032 0
M  V30 12952 O 1241.09 0.418971 -5.44892 0
M  V30 12953 H 1238.19 0.0987883 -0.821078 0
M  V30 12954 H 1240.73 -0.556736 -1.60308 0
M  V30 12955 H 1239.51 -0.965287 -3.79207 0
M  V30 12956 H 1239.13 0.745982 -3.90539 0
M  V30 12957 N 1240.13 1.55939 -0.228214 0
M  V30 12958 C 1241.37 1.98084 0.400884 0
M  V30 12959 C 1241.69 1.11727 1.59819 0
M  V30 12960 O 1240.96 0.195794 1.94919 0
M  V30 12961 H 1239.54 0.731558 0.151102 0
M  V30 12962 H 1242.21 1.92211 -0.322659 0
M  V30 12963 H 1241.3 3.03617 0.722706 0
M  V30 12964 N 1241.6 -0.0451101 1.57535 0
M  V30 12965 C 1242.85 -0.737654 1.88157 0
M  V30 12966 C 1243.17 -1.76743 0.823817 0
M  V30 12967 O 1242.44 -1.95366 -0.144503 0
M  V30 12968 H 1241.02 -0.275431 0.694368 0
M  V30 12969 H 1243.69 -0.0148651 1.94894 0
M  V30 12970 H 1242.78 -1.23726 2.86528 0
M  V30 12971 N 1243.08 -1.54377 -0.317073 0
M  V30 12972 C 1244.01 -1.8721 -1.39552 0
M  V30 12973 C 1244.99 -0.729483 -1.53664 0
M  V30 12974 O 1246.18 -0.983799 -1.67437 0
M  V30 12975 C 1243.31 -2.1052 -2.76222 0
M  V30 12976 C 1242.26 -3.26366 -2.76892 0
M  V30 12977 C 1241.59 -3.35061 -4.16699 0
M  V30 12978 C 1242.89 -4.63862 -2.40061 0
M  V30 12979 H 1244.58 -2.77532 -1.12323 0
M  V30 12980 H 1242.13 -1.33536 -0.538897 0
M  V30 12981 H 1244.08 -2.32073 -3.51739 0
M  V30 12982 H 1242.81 -1.16953 -3.04942 0
M  V30 12983 H 1241.46 -3.0471 -2.03831 0
M  V30 12984 H 1241.11 -2.39041 -4.4257 0
M  V30 12985 H 1240.81 -4.12923 -4.18053 0
M  V30 12986 H 1242.34 -3.58856 -4.94019 0
M  V30 12987 H 1243.75 -4.85252 -3.05292 0
M  V30 12988 H 1242.15 -5.44321 -2.52655 0
M  V30 12989 H 1243.22 -4.6567 -1.35202 0
M  V30 12990 N 1244.56 0.579466 -1.4656 0
M  V30 12991 C 1245.79 1.36351 -1.55615 0
M  V30 12992 C 1246.2 1.87755 -0.198405 0
M  V30 12993 O 1245.56 1.63795 0.804834 0
M  V30 12994 C 1245.61 2.54881 -2.56355 0
M  V30 12995 O 1245.33 2.05607 -3.86856 0
M  V30 12996 C 1246.83 3.47391 -2.75381 0
M  V30 12997 H 1244.05 0.416426 -0.526147 0
M  V30 12998 H 1246.6 0.704134 -1.91995 0
M  V30 12999 H 1244.75 3.16802 -2.2297 0
M  V30 13000 H 1245.17 2.82823 -4.41714 0
M  V30 13001 H 1246.64 4.27031 -3.49783 0
M  V30 13002 H 1247.12 3.99532 -1.82403 0
M  V30 13003 H 1247.72 2.91303 -3.09875 0
M  V30 13004 N 1246.04 1.3432 0.824371 0
M  V30 13005 C 1246.97 1.2842 1.95014 0
M  V30 13006 C 1247.95 0.161925 1.69328 0
M  V30 13007 O 1249.13 0.354052 1.90945 0
M  V30 13008 C 1246.26 1.03741 3.31444 0
M  V30 13009 C 1245.22 2.12419 3.71567 0
M  V30 13010 C 1244.54 1.72931 5.05963 0
M  V30 13011 C 1245.84 3.54235 3.83817 0
M  V30 13012 H 1247.54 2.22614 2.00209 0
M  V30 13013 H 1245.08 1.07165 0.961856 0
M  V30 13014 H 1247.04 0.982586 4.09784 0
M  V30 13015 H 1245.76 0.0598892 3.26545 0
M  V30 13016 H 1244.42 2.16968 2.955 0
M  V30 13017 H 1244.07 0.738433 4.9755 0
M  V30 13018 H 1243.77 2.45668 5.3378 0
M  V30 13019 H 1245.29 1.68941 5.86763 0
M  V30 13020 H 1246.71 3.52106 4.52432 0
M  V30 13021 H 1245.1 4.25581 4.23085 0
M  V30 13022 H 1246.17 3.91682 2.85856 0
M  V30 13023 N 1247.52 -1.0444 1.18026 0
M  V30 13024 C 1248.45 -2.14297 0.927314 0
M  V30 13025 C 1249.43 -1.69575 -0.13357 0
M  V30 13026 O 1250.61 -1.94191 0.0182439 0
M  V30 13027 C 1247.74 -3.44397 0.448134 0
M  V30 13028 C 1246.7 -4.02723 1.44907 0
M  V30 13029 C 1246.02 -5.28257 0.827555 0
M  V30 13030 C 1247.32 -4.39331 2.82463 0
M  V30 13031 H 1249.02 -2.35715 1.84605 0
M  V30 13032 H 1246.56 -1.13281 0.889012 0
M  V30 13033 H 1248.52 -4.20606 0.258554 0
M  V30 13034 H 1247.24 -3.22654 -0.506159 0
M  V30 13035 H 1245.9 -3.28591 1.62552 0
M  V30 13036 H 1245.55 -5.02822 -0.13381 0
M  V30 13037 H 1245.25 -5.68242 1.49581 0
M  V30 13038 H 1246.77 -6.07147 0.64842 0
M  V30 13039 H 1248.18 -5.06543 2.68491 0
M  V30 13040 H 1246.58 -4.90355 3.45936 0
M  V30 13041 H 1247.65 -3.4933 3.36299 0
M  V30 13042 N 1248.99 -0.981699 -1.2329 0
M  V30 13043 C 1250.24 -0.646818 -1.91048 0
M  V30 13044 C 1250.56 0.823479 -1.77421 0
M  V30 13045 O 1251.76 1.26948 -2.39993 0
M  V30 13046 C 1250.22 -1.1063 -3.42475 0
M  V30 13047 C 1249.83 -2.60103 -3.6476 0
M  V30 13048 C 1251.57 -0.845227 -4.16 0
M  V30 13049 C 1249.48 -2.99712 -5.0983 0
M  V30 13050 H 1248.41 -0.238221 -0.715379 0
M  V30 13051 H 1251.06 -1.18977 -1.39702 0
M  V30 13052 H 1249.44 -0.491554 -3.92937 0
M  V30 13053 H 1250.61 -3.26828 -3.24839 0
M  V30 13054 H 1248.93 -2.83972 -3.04547 0
M  V30 13055 H 1251.53 -1.11699 -5.22903 0
M  V30 13056 H 1251.87 0.218661 -4.15725 0
M  V30 13057 H 1252.4 -1.42162 -3.7153 0
M  V30 13058 H 1249.14 -4.0523 -5.15237 0
M  V30 13059 H 1248.66 -2.37683 -5.50697 0
M  V30 13060 H 1250.34 -2.9039 -5.78172 0
M  V30 13061 N 1250.47 1.3842 -0.753509 0
M  V30 13062 C 1251.88 1.82847 -0.377331 0
M  V30 13063 C 1252.23 1.62867 1.09401 0
M  V30 13064 O 1251.36 1.12981 1.84565 0
M  V30 13065 C 1251.95 3.31945 -0.678095 0
M  V30 13066 C 1250.51 3.7472 -0.355196 0
M  V30 13067 C 1249.66 2.61193 -0.931311 0
M  V30 13068 H 1252.61 1.2715 -0.949667 0
M  V30 13069 H 1252.63 3.80475 0.0437292 0
M  V30 13070 H 1252.14 3.46455 -1.74902 0
M  V30 13071 H 1250.25 3.65789 0.70915 0
M  V30 13072 H 1250.36 4.71487 -0.850693 0
M  V30 13073 H 1248.72 2.5219 -0.356695 0
M  V30 13074 H 1249.51 2.78503 -2.00727 0
M  V30 13075 N 1251.95 0.502579 1.49372 0
M  V30 13076 C 1253.18 -0.0380876 2.06565 0
M  V30 13077 C 1253.59 -1.31224 1.36297 0
M  V30 13078 O 1252.93 -1.78463 0.435517 0
M  V30 13079 C 1252.99 -0.360462 3.57688 0
M  V30 13080 C 1252.66 0.816203 4.49652 0
M  V30 13081 C 1253.65 1.70713 4.91073 0
M  V30 13082 C 1251.34 1.01545 4.91929 0
M  V30 13083 C 1253.33 2.78144 5.73511 0
M  V30 13084 C 1251.02 2.09294 5.74142 0
M  V30 13085 C 1252.02 2.97428 6.14838 0
M  V30 13086 O 1251.71 4.03317 6.95407 0
M  V30 13087 H 1251.44 0.0179548 0.675762 0
M  V30 13088 H 1253.99 0.699609 1.93118 0
M  V30 13089 H 1252.22 -1.15177 3.69149 0
M  V30 13090 H 1253.91 -0.839931 3.97115 0
M  V30 13091 H 1254.68 1.56502 4.59056 0
M  V30 13092 H 1250.56 0.338822 4.59753 0
M  V30 13093 H 1254.1 3.46965 6.05195 0
M  V30 13094 H 1250 2.235 6.05572 0
M  V30 13095 H 1250.77 4.00689 7.13716 0
M  V30 13096 N 1253.43 -1.55816 0.23648 0
M  V30 13097 C 1254.36 -2.23924 -0.661834 0
M  V30 13098 C 1255.34 -1.21597 -1.18946 0
M  V30 13099 O 1256.52 -1.50222 -1.23073 0
M  V30 13100 C 1253.65 -2.93069 -1.86355 0
M  V30 13101 C 1252.61 -4.01996 -1.46913 0
M  V30 13102 C 1251.93 -4.58512 -2.75083 0
M  V30 13103 C 1253.23 -5.18265 -0.647964 0
M  V30 13104 H 1254.93 -2.99253 -0.0939368 0
M  V30 13105 H 1252.47 -1.43934 -0.0437407 0
M  V30 13106 H 1254.43 -3.39412 -2.49755 0
M  V30 13107 H 1253.15 -2.15212 -2.45665 0
M  V30 13108 H 1251.81 -3.56406 -0.858522 0
M  V30 13109 H 1251.46 -3.77368 -3.3257 0
M  V30 13110 H 1251.16 -5.32037 -2.49421 0
M  V30 13111 H 1252.68 -5.07583 -3.39399 0
M  V30 13112 H 1254.1 -5.60898 -1.18602 0
M  V30 13113 H 1252.49 -5.98114 -0.487823 0
M  V30 13114 H 1253.56 -4.83691 0.342151 0
M  V30 13115 N 1254.91 0.036755 -1.57557 0
M  V30 13116 C 1255.84 1.03939 -2.09091 0
M  V30 13117 C 1256.82 1.38196 -0.991761 0
M  V30 13118 O 1258 1.47214 -1.26656 0
M  V30 13119 C 1255.13 2.34263 -2.56394 0
M  V30 13120 C 1254.09 2.14269 -3.70504 0
M  V30 13121 C 1253.41 3.50286 -4.03985 0
M  V30 13122 C 1254.71 1.53514 -4.9923 0
M  V30 13123 H 1256.41 0.610429 -2.93111 0
M  V30 13124 H 1253.95 0.292183 -1.41005 0
M  V30 13125 H 1255.91 3.04727 -2.91066 0
M  V30 13126 H 1254.63 2.79205 -1.69447 0
M  V30 13127 H 1253.29 1.46239 -3.36169 0
M  V30 13128 H 1252.94 3.92861 -3.14116 0
M  V30 13129 H 1252.64 3.37735 -4.80842 0
M  V30 13130 H 1254.16 4.22124 -4.41184 0
M  V30 13131 H 1255.57 2.13885 -5.31908 0
M  V30 13132 H 1253.97 1.51561 -5.80646 0
M  V30 13133 H 1255.04 0.500126 -4.82314 0
M  V30 13134 N 1256.39 1.54543 0.308881 0
M  V30 13135 C 1257.63 1.73107 1.043 0
M  V30 13136 C 1257.95 0.515481 1.88063 0
M  V30 13137 O 1257.22 -0.47036 1.90169 0
M  V30 13138 H 1255.8 0.638289 0.388068 0
M  V30 13139 H 1258.47 1.9188 0.341769 0
M  V30 13140 H 1257.56 2.61697 1.70063 0
M  V30 13141 N 1257.86 -0.571685 1.46866 0
M  V30 13142 C 1259.28 -0.896172 1.32064 0
M  V30 13143 C 1259.48 -1.9925 0.300291 0
M  V30 13144 O 1258.54 -2.50791 -0.293284 0
M  V30 13145 C 1259.85 -1.3031 2.70998 0
M  V30 13146 C 1261.4 -1.41533 2.79173 0
M  V30 13147 C 1261.87 -1.85587 4.18714 0
M  V30 13148 N 1263.36 -1.92762 4.21185 0
M  V30 13149 C 1264.1 -2.28148 5.26057 0
M  V30 13150 N 1263.59 -2.62248 6.41247 0
M  V30 13151 N 1265.39 -2.28797 5.13428 0
M  V30 13152 H 1257.54 0.152349 2.11853 0
M  V30 13153 H 1259.8 0.00548777 0.947984 0
M  V30 13154 H 1259.51 -0.571469 3.47026 0
M  V30 13155 H 1259.38 -2.26233 3.01826 0
M  V30 13156 H 1261.77 -2.1378 2.03426 0
M  V30 13157 H 1261.85 -0.438342 2.52016 0
M  V30 13158 H 1261.49 -1.13915 4.9496 0
M  V30 13159 H 1261.42 -2.84264 4.43285 0
M  V30 13160 H 1263.91 -1.68854 3.38078 0
M  V30 13161 H 1264.23 -2.88234 7.17036 0
M  V30 13162 H 1262.57 -2.59861 6.44591 0
M  V30 13163 H 1265.76 -2.01587 4.22469 0
M  V30 13164 H 1265.94 -2.56045 5.95269 0
M  V30 13165 N 1259.34 -1.34755 -0.817236 0
M  V30 13166 C 1260.29 -1.26801 -1.92848 0
M  V30 13167 C 1261.26 -0.142077 -1.65491 0
M  V30 13168 O 1262.44 -0.324006 -1.88029 0
M  V30 13169 C 1259.58 -1.03513 -3.2921 0
M  V30 13170 C 1258.7 -2.24932 -3.68822 0
M  V30 13171 C 1257.83 -1.94881 -4.94161 0
M  V30 13172 C 1256.87 -3.12411 -5.2637 0
M  V30 13173 N 1256.01 -2.82207 -6.42887 0
M  V30 13174 H 1260.85 -2.21832 -1.98983 0
M  V30 13175 H 1258.38 -1.10284 -0.973439 0
M  V30 13176 H 1260.34 -0.88047 -4.07803 0
M  V30 13177 H 1258.97 -0.121478 -3.22571 0
M  V30 13178 H 1258.02 -2.51299 -2.85575 0
M  V30 13179 H 1259.34 -3.12726 -3.88592 0
M  V30 13180 H 1258.49 -1.76184 -5.80555 0
M  V30 13181 H 1257.23 -1.04355 -4.76405 0
M  V30 13182 H 1256.23 -3.31698 -4.3847 0
M  V30 13183 H 1257.46 -4.03724 -5.46062 0
M  V30 13184 H 1255.41 -1.94263 -6.26576 0
M  V30 13185 H 1255.32 -3.63534 -6.62857 0
M  V30 13186 H 1256.59 -2.67026 -7.32337 0
M  V30 13187 N 1260.82 1.03812 -1.18578 0
M  V30 13188 C 1262.24 1.29271 -0.936011 0
M  V30 13189 C 1262.44 1.97551 0.396965 0
M  V30 13190 O 1261.49 2.25769 1.13069 0
M  V30 13191 C 1262.8 2.1489 -2.1034 0
M  V30 13192 C 1264.35 2.28228 -2.14198 0
M  V30 13193 C 1264.83 3.17214 -3.30362 0
M  V30 13194 N 1266.32 3.24802 -3.30239 0
M  V30 13195 C 1267.05 3.9382 -4.16765 0
M  V30 13196 N 1266.55 4.65147 -5.1343 0
M  V30 13197 N 1268.34 3.90125 -4.04671 0
M  V30 13198 H 1260.49 0.579011 -2.04356 0
M  V30 13199 H 1262.76 0.318021 -0.893066 0
M  V30 13200 H 1262.46 1.72029 -3.06755 0
M  V30 13201 H 1262.34 3.15576 -2.06619 0
M  V30 13202 H 1264.72 2.70324 -1.18359 0
M  V30 13203 H 1264.8 1.27124 -2.21976 0
M  V30 13204 H 1264.45 2.75829 -4.26475 0
M  V30 13205 H 1264.38 4.18356 -3.19821 0
M  V30 13206 H 1266.87 2.73994 -2.60261 0
M  V30 13207 H 1267.18 5.15414 -5.7582 0
M  V30 13208 H 1265.53 4.64043 -5.17387 0
M  V30 13209 H 1268.72 3.33536 -3.28438 0
M  V30 13210 H 1268.89 4.43641 -4.7232 0
M  V30 13211 N 1262.3 0.988223 1.22768 0
M  V30 13212 C 1263.71 0.69816 1.4352 0
M  V30 13213 C 1263.91 -0.732872 1.877 0
M  V30 13214 O 1262.97 -1.50436 2.02793 0
M  V30 13215 C 1264.28 1.69975 2.4805 0
M  V30 13216 C 1265.83 1.71467 2.61855 0
M  V30 13217 C 1266.31 2.70477 3.69603 0
M  V30 13218 N 1267.8 2.69043 3.77055 0
M  V30 13219 C 1268.53 3.42319 4.60006 0
M  V30 13220 N 1268.03 4.2518 5.46986 0
M  V30 13221 N 1269.82 3.31047 4.54274 0
M  V30 13222 H 1261.97 1.91251 0.923948 0
M  V30 13223 H 1264.23 0.82455 0.467783 0
M  V30 13224 H 1263.94 2.72354 2.22523 0
M  V30 13225 H 1263.81 1.48885 3.46573 0
M  V30 13226 H 1266.2 0.697889 2.86729 0
M  V30 13227 H 1266.28 1.96625 1.63622 0
M  V30 13228 H 1265.93 3.72302 3.45476 0
M  V30 13229 H 1265.86 2.42591 4.67394 0
M  V30 13230 H 1268.35 2.08914 3.14902 0
M  V30 13231 H 1268.66 4.77929 6.07292 0
M  V30 13232 H 1267.01 4.29268 5.46584 0
M  V30 13233 H 1270.2 2.65758 3.85345 0
M  V30 13234 H 1270.37 3.88413 5.1869 0
M  V30 13235 N 1263.78 -1.38018 0.760839 0
M  V30 13236 C 1265.02 -2.0071 0.329695 0
M  V30 13237 C 1265.38 -1.59315 -1.07872 0
M  V30 13238 O 1264.67 -0.824077 -1.72973 0
M  V30 13239 C 1264.86 -3.55168 0.398778 0
M  V30 13240 C 1264.69 -4.11562 1.81237 0
M  V30 13241 C 1263.46 -4.43003 2.43056 0
M  V30 13242 C 1265.66 -4.3332 2.77018 0
M  V30 13243 N 1263.64 -4.85048 3.76301 0
M  V30 13244 C 1265.01 -4.77853 3.9504 0
M  V30 13245 C 1267.07 -4.15432 2.74446 0
M  V30 13246 C 1265.77 -5.06373 5.10861 0
M  V30 13247 C 1267.8 -4.45081 3.89431 0
M  V30 13248 C 1267.16 -4.89845 5.06193 0
M  V30 13249 H 1263.26 -0.76386 0.167457 0
M  V30 13250 H 1265.84 -1.67513 0.992343 0
M  V30 13251 H 1264.01 -3.87697 -0.233635 0
M  V30 13252 H 1265.75 -4.04665 -0.0533765 0
M  V30 13253 H 1262.5 -4.317 1.94762 0
M  V30 13254 H 1262.92 -5.10394 4.44778 0
M  V30 13255 H 1267.57 -3.80006 1.85353 0
M  V30 13256 H 1265.28 -5.40693 6.00564 0
M  V30 13257 H 1268.87 -4.32839 3.88769 0
M  V30 13258 H 1267.75 -5.12348 5.93691 0
M  V30 13259 N 1265.25 -0.510493 -1.49103 0
M  V30 13260 C 1266.48 0.0293113 -2.07379 0
M  V30 13261 C 1266.9 1.29195 -1.36713 0
M  V30 13262 O 1266.26 1.76204 -0.426838 0
M  V30 13263 C 1266.31 0.25629 -3.59688 0
M  V30 13264 O 1265.41 1.32907 -3.90397 0
M  V30 13265 H 1264.75 -0.0304449 -0.663302 0
M  V30 13266 H 1267.28 -0.712832 -1.91781 0
M  V30 13267 H 1267.29 0.484915 -4.05108 0
M  V30 13268 H 1265.97 -0.666163 -4.1053 0
M  V30 13269 H 1264.55 1.08464 -3.56777 0
M  V30 13270 N 1266.73 1.55688 -0.24474 0
M  V30 13271 C 1267.68 2.21289 0.655723 0
M  V30 13272 C 1268.65 1.17606 1.17295 0
M  V30 13273 O 1269.83 1.46045 1.22782 0
M  V30 13274 C 1266.97 2.91453 1.84794 0
M  V30 13275 C 1266.09 4.09787 1.36744 0
M  V30 13276 C 1265.22 4.67672 2.51905 0
M  V30 13277 C 1264.26 5.78259 2.00706 0
M  V30 13278 N 1263.4 6.30336 3.09225 0
M  V30 13279 H 1268.24 2.97865 0.0896156 0
M  V30 13280 H 1265.77 1.47064 0.0324725 0
M  V30 13281 H 1267.73 3.30331 2.54828 0
M  V30 13282 H 1266.36 2.17355 2.38656 0
M  V30 13283 H 1265.41 3.76237 0.561228 0
M  V30 13284 H 1266.73 4.89627 0.952199 0
M  V30 13285 H 1265.88 5.09113 3.29984 0
M  V30 13286 H 1264.62 3.87044 2.9673 0
M  V30 13287 H 1263.62 5.36298 1.21097 0
M  V30 13288 H 1264.85 6.60737 1.56853 0
M  V30 13289 H 1262.8 5.52614 3.53489 0
M  V30 13290 H 1262.71 7.05364 2.72025 0
M  V30 13291 H 1263.98 6.76435 3.8737 0
M  V30 13292 N 1268.21 -0.0283989 1.57574 0
M  V30 13293 C 1269.45 -0.723912 1.91151 0
M  V30 13294 C 1269.81 -1.72485 0.843381 0
M  V30 13295 O 1271.01 -2.46866 1.06351 0
M  V30 13296 C 1269.29 -1.37537 3.29876 0
M  V30 13297 S 1270.84 -2.09995 3.85289 0
M  V30 13298 H 1267.66 -0.239802 0.66934 0
M  V30 13299 H 1270.26 0.0214644 1.95488 0
M  V30 13300 H 1268.97 -0.633659 4.05479 0
M  V30 13301 H 1268.5 -2.15928 3.28844 0
M  V30 13302 H 1270.51 -3.37146 3.6407 0
M  V30 13303 N 1269.69 -1.54705 -0.300681 0
M  V30 13304 C 1270.63 -1.85678 -1.37084 0
M  V30 13305 C 1271.6 -0.70573 -1.50362 0
M  V30 13306 O 1272.79 -0.954385 -1.65215 0
M  V30 13307 C 1269.93 -2.10995 -2.73084 0
M  V30 13308 C 1269.04 -3.38621 -2.68254 0
M  V30 13309 C 1268.18 -3.53779 -3.9625 0
M  V30 13310 C 1267.22 -4.75195 -3.85818 0
M  V30 13311 N 1266.35 -4.87157 -5.05591 0
M  V30 13312 H 1271.19 -2.76967 -1.09971 0
M  V30 13313 H 1268.73 -1.37147 -0.531887 0
M  V30 13314 H 1270.69 -2.23669 -3.52176 0
M  V30 13315 H 1269.32 -1.22973 -2.98458 0
M  V30 13316 H 1268.37 -3.34566 -1.81025 0
M  V30 13317 H 1269.68 -4.27834 -2.56436 0
M  V30 13318 H 1268.84 -3.66119 -4.83779 0
M  V30 13319 H 1267.58 -2.62699 -4.10902 0
M  V30 13320 H 1266.58 -4.62888 -2.96673 0
M  V30 13321 H 1267.81 -5.67683 -3.72711 0
M  V30 13322 H 1265.75 -3.99001 -5.20706 0
M  V30 13323 H 1265.67 -5.70372 -4.96197 0
M  V30 13324 H 1266.94 -5.03854 -5.9477 0
M  V30 13325 N 1271.17 0.563888 -1.47167 0
M  V30 13326 C 1272.42 1.31766 -1.5271 0
M  V30 13327 C 1272.73 1.94664 -0.191164 0
M  V30 13328 O 1273.93 2.71214 -0.124543 0
M  V30 13329 C 1272.39 2.38907 -2.69168 0
M  V30 13330 C 1272 1.8223 -4.09263 0
M  V30 13331 C 1273.74 3.15508 -2.83999 0
M  V30 13332 C 1271.65 2.87111 -5.17031 0
M  V30 13333 H 1270.58 0.495421 -0.568396 0
M  V30 13334 H 1273.23 0.599665 -1.73425 0
M  V30 13335 H 1271.61 3.13591 -2.4182 0
M  V30 13336 H 1272.79 1.13963 -4.46485 0
M  V30 13337 H 1271.1 1.18235 -3.99261 0
M  V30 13338 H 1273.7 3.93816 -3.61681 0
M  V30 13339 H 1274.04 3.69277 -1.92197 0
M  V30 13340 H 1274.57 2.47934 -3.11085 0
M  V30 13341 H 1271.31 2.38204 -6.10687 0
M  V30 13342 H 1270.83 3.53809 -4.84334 0
M  V30 13343 H 1272.51 3.50724 -5.43692 0
M  V30 13344 N 1272.64 1.35187 0.810078 0
M  V30 13345 C 1274.06 1.15149 1.10512 0
M  V30 13346 C 1274.26 -0.038394 2.01463 0
M  V30 13347 O 1273.32 -0.710056 2.42311 0
M  V30 13348 C 1274.63 2.45282 1.73946 0
M  V30 13349 C 1276.18 2.51457 1.86382 0
M  V30 13350 C 1276.65 3.81625 2.53232 0
M  V30 13351 N 1278.14 3.82856 2.6072 0
M  V30 13352 C 1278.88 4.80302 3.13206 0
M  V30 13353 N 1278.37 5.88134 3.66156 0
M  V30 13354 N 1280.17 4.67743 3.11726 0
M  V30 13355 H 1272.32 2.11405 0.205391 0
M  V30 13356 H 1274.58 0.935457 0.153702 0
M  V30 13357 H 1274.29 3.32512 1.14582 0
M  V30 13358 H 1274.16 2.59573 2.73682 0
M  V30 13359 H 1276.55 1.64659 2.44891 0
M  V30 13360 H 1276.63 2.41084 0.855113 0
M  V30 13361 H 1276.27 4.68819 1.95375 0
M  V30 13362 H 1276.2 3.89285 3.54633 0
M  V30 13363 H 1278.69 3.04941 2.23203 0
M  V30 13364 H 1279.01 6.58487 4.04494 0
M  V30 13365 H 1277.35 5.91831 3.64364 0
M  V30 13366 H 1280.54 3.82642 2.69635 0
M  V30 13367 H 1280.72 5.43849 3.52324 0
M  V30 13368 N 1274.12 -1.03182 1.19127 0
M  V30 13369 C 1275.37 -1.76794 0.993563 0
M  V30 13370 C 1275.7 -1.88306 -0.474809 0
M  V30 13371 O 1274.98 -1.39769 -1.35258 0
M  V30 13372 C 1275.26 -3.19573 1.65968 0
M  V30 13373 C 1275.11 -3.1595 3.2015 0
M  V30 13374 C 1276.43 -4.17897 1.38023 0
M  V30 13375 H 1273.55 -0.641768 0.362357 0
M  V30 13376 H 1276.19 -1.20472 1.46924 0
M  V30 13377 H 1274.34 -3.67663 1.25524 0
M  V30 13378 H 1276.01 -2.7578 3.69788 0
M  V30 13379 H 1274.26 -2.53743 3.51848 0
M  V30 13380 H 1274.93 -4.16811 3.61901 0
M  V30 13381 H 1277.4 -3.78394 1.73082 0
M  V30 13382 H 1276.28 -5.15997 1.87186 0
M  V30 13383 H 1276.54 -4.41048 0.304812 0
M  V30 13384 N 1275.6 -0.99472 -1.22242 0
M  V30 13385 C 1276.85 -0.671602 -1.91039 0
M  V30 13386 C 1277.18 0.796543 -1.77441 0
M  V30 13387 O 1276.43 1.59179 -1.13845 0
M  V30 13388 C 1276.73 -1.02561 -3.42368 0
M  V30 13389 C 1276.4 -2.48632 -3.76155 0
M  V30 13390 C 1275.06 -2.88549 -3.85088 0
M  V30 13391 C 1277.41 -3.43302 -3.92165 0
M  V30 13392 C 1274.74 -4.22121 -4.07469 0
M  V30 13393 C 1277.09 -4.76534 -4.1605 0
M  V30 13394 C 1275.75 -5.1619 -4.23207 0
M  V30 13395 H 1275.02 -0.245756 -0.69906 0
M  V30 13396 H 1277.67 -1.25125 -1.44969 0
M  V30 13397 H 1275.98 -0.364073 -3.90105 0
M  V30 13398 H 1277.67 -0.753612 -3.93855 0
M  V30 13399 H 1274.26 -2.16693 -3.69787 0
M  V30 13400 H 1278.45 -3.13633 -3.8464 0
M  V30 13401 H 1273.7 -4.52431 -4.11238 0
M  V30 13402 H 1277.88 -5.49835 -4.27381 0
M  V30 13403 H 1275.5 -6.19708 -4.40303 0
M  V30 13404 N 1277.08 1.37613 -0.768148 0
M  V30 13405 C 1278.32 2.00075 -0.331331 0
M  V30 13406 C 1278.66 1.60839 1.08833 0
M  V30 13407 O 1277.93 0.852849 1.74805 0
M  V30 13408 C 1278.22 3.57009 -0.470789 0
M  V30 13409 C 1278.07 4.06166 -1.9326 0
M  V30 13410 C 1279.39 4.39916 0.127111 0
M  V30 13411 H 1276.51 0.726855 -0.121864 0
M  V30 13412 H 1279.15 1.63343 -0.970518 0
M  V30 13413 H 1277.3 3.88431 0.0733688 0
M  V30 13414 H 1278.97 3.85325 -2.53618 0
M  V30 13415 H 1277.21 3.58492 -2.44266 0
M  V30 13416 H 1277.88 5.15219 -1.98125 0
M  V30 13417 H 1280.36 4.14732 -0.337144 0
M  V30 13418 H 1279.24 5.489 -0.000624226 0
M  V30 13419 H 1279.5 4.25018 1.21704 0
M  V30 13420 N 1278.56 0.518393 1.4883 0
M  V30 13421 C 1279.8 -0.019866 2.0209 0
M  V30 13422 C 1280.13 -1.35863 1.3988 0
M  V30 13423 O 1279.4 -1.87722 0.560117 0
M  V30 13424 H 1277.98 -0.0103306 0.746929 0
M  V30 13425 H 1280.64 0.679591 1.82668 0
M  V30 13426 H 1279.73 -0.136749 3.118 0
M  V30 13427 N 1280.03 -1.55556 0.252993 0
M  V30 13428 C 1281.28 -1.98697 -0.369319 0
M  V30 13429 C 1281.6 -1.14256 -1.58021 0
M  V30 13430 O 1280.87 -0.226779 -1.94583 0
M  V30 13431 H 1279.45 -0.733869 -0.139444 0
M  V30 13432 H 1282.12 -1.91673 0.353197 0
M  V30 13433 H 1281.21 -3.04728 -0.674312 0
M  V30 13434 N 1281.51 0.0200419 -1.57587 0
M  V30 13435 C 1282.44 1.0456 -2.0396 0
M  V30 13436 C 1283.46 1.31922 -0.953962 0
M  V30 13437 O 1284.65 1.2925 -1.23112 0
M  V30 13438 C 1281.75 2.38514 -2.40758 0
M  V30 13439 C 1280.92 2.3038 -3.71812 0
M  V30 13440 C 1279.98 3.46856 -3.95698 0
M  V30 13441 O 1279 3.25944 -4.66636 0
M  V30 13442 N 1280.21 4.69033 -3.42036 0
M  V30 13443 H 1282.97 0.650282 -2.9256 0
M  V30 13444 H 1280.53 0.207818 -1.60561 0
M  V30 13445 H 1282.52 3.15172 -2.53868 0
M  V30 13446 H 1281.09 2.69859 -1.57781 0
M  V30 13447 H 1280.31 1.38762 -3.6897 0
M  V30 13448 H 1281.6 2.22097 -4.57767 0
M  V30 13449 H 1281 4.88923 -2.84553 0
M  V30 13450 H 1279.56 5.43025 -3.6051 0
M  V30 13451 N 1282.99 1.54862 0.292472 0
M  V30 13452 C 1284.24 1.73756 1.02429 0
M  V30 13453 C 1284.55 0.535164 1.88137 0
M  V30 13454 O 1285.76 0.606092 2.64648 0
M  V30 13455 C 1284.21 3.0745 1.8709 0
M  V30 13456 C 1283.82 4.35195 1.06343 0
M  V30 13457 C 1285.57 3.357 2.59819 0
M  V30 13458 C 1283.47 5.59936 1.9033 0
M  V30 13459 H 1282.4 0.647617 0.386145 0
M  V30 13460 H 1285.05 1.81338 0.28086 0
M  V30 13461 H 1283.44 2.93855 2.65453 0
M  V30 13462 H 1284.61 4.5965 0.325335 0
M  V30 13463 H 1282.93 4.13944 0.451574 0
M  V30 13464 H 1285.52 4.26099 3.23023 0
M  V30 13465 H 1285.87 2.54956 3.29094 0
M  V30 13466 H 1286.4 3.50304 1.88499 0
M  V30 13467 H 1283.14 6.43372 1.25509 0
M  V30 13468 H 1282.66 5.39654 2.61789 0
M  V30 13469 H 1284.34 5.97512 2.48171 0
M  V30 13470 N 1284.47 -0.556076 1.47464 0
M  V30 13471 C 1285.42 -1.68406 1.60444 0
M  V30 13472 C 1286.41 -1.627 0.471713 0
M  V30 13473 O 1287.62 -1.67871 0.649551 0
M  V30 13474 H 1283.99 -0.557255 0.504946 0
M  V30 13475 H 1285.96 -1.54595 2.55231 0
M  V30 13476 C 1284.71 -3.06756 1.63695 0
M  V30 13477 H 1284.03 -3.11829 2.50206 0
M  V30 13478 H 1285.47 -3.85368 1.76827 0
M  V30 13479 C 1283.93 -3.34857 0.370485 0
M  V30 13480 O 1284.46 -3.98216 -0.527942 0
M  V30 13481 N 1282.67 -2.89521 0.250163 0
M  V30 13482 H 1282.22 -2.3814 0.982204 0
M  V30 13483 H 1282.17 -3.08694 -0.596268 0
M  V30 13484 N 1285.95 -1.35615 -0.802897 0
M  V30 13485 C 1287.36 -1.15733 -1.099 0
M  V30 13486 C 1287.56 0.0277094 -2.01481 0
M  V30 13487 O 1286.62 0.697196 -2.42684 0
M  V30 13488 C 1287.93 -2.46201 -1.72643 0
M  V30 13489 C 1289.48 -2.52442 -1.85046 0
M  V30 13490 C 1289.96 -3.82962 -2.51205 0
M  V30 13491 N 1291.45 -3.84234 -2.58686 0
M  V30 13492 C 1292.18 -4.81956 -3.10654 0
M  V30 13493 N 1291.68 -5.90068 -3.63032 0
M  V30 13494 N 1293.47 -4.69389 -3.09241 0
M  V30 13495 H 1285.62 -2.11511 -0.194177 0
M  V30 13496 H 1287.88 -0.936259 -0.148739 0
M  V30 13497 H 1287.59 -3.33114 -1.12817 0
M  V30 13498 H 1287.46 -2.6102 -2.72302 0
M  V30 13499 H 1289.85 -1.65955 -2.44014 0
M  V30 13500 H 1289.93 -2.41534 -0.842316 0
M  V30 13501 H 1289.58 -4.69848 -1.92885 0
M  V30 13502 H 1289.51 -3.9116 -3.52564 0
M  V30 13503 H 1292 -3.0612 -2.21582 0
M  V30 13504 H 1292.31 -6.60623 -4.00996 0
M  V30 13505 H 1290.66 -5.93755 -3.6122 0
M  V30 13506 H 1293.85 -3.84066 -2.67602 0
M  V30 13507 H 1294.02 -5.4571 -3.49435 0
M  V30 13508 N 1287.43 1.02549 -1.19673 0
M  V30 13509 C 1288.36 2.10513 -0.880879 0
M  V30 13510 C 1289.34 1.61776 0.163455 0
M  V30 13511 O 1290.52 1.8846 0.0390085 0
M  V30 13512 C 1287.65 3.37195 -0.318936 0
M  V30 13513 C 1286.69 4.04808 -1.34286 0
M  V30 13514 S 1287.53 4.49881 -2.90461 0
M  V30 13515 C 1288.68 5.79776 -2.35819 0
M  V30 13516 H 1288.92 2.3698 -1.7952 0
M  V30 13517 H 1286.45 1.15537 -1.02423 0
M  V30 13518 H 1288.41 4.105 -0.00124931 0
M  V30 13519 H 1287.07 3.08815 0.573749 0
M  V30 13520 H 1286.26 4.9592 -0.898859 0
M  V30 13521 H 1285.86 3.37688 -1.60756 0
M  V30 13522 H 1288.15 6.54501 -1.75026 0
M  V30 13523 H 1289.1 6.2896 -3.25292 0
M  V30 13524 H 1289.51 5.35611 -1.78272 0
M  V30 13525 N 1288.9 1.00119 1.21713 0
M  V30 13526 C 1290.18 0.597366 1.86255 0
M  V30 13527 C 1290.56 -0.925124 1.89749 0
M  V30 13528 O 1289.91 -1.8105 1.39402 0
M  V30 13529 C 1290.12 1.22735 3.26707 0
M  V30 13530 C 1291.47 1.33307 4.03131 0
M  V30 13531 O 1292.49 1.18237 3.36003 0
M  V30 13532 O 1291.35 1.57509 5.2331 0
M  V30 13533 H 1288.44 0.204091 0.801421 0
M  V30 13534 H 1290.99 1.09759 1.29426 0
M  V30 13535 H 1289.76 2.26837 3.18843 0
M  V30 13536 H 1289.38 0.713232 3.91151 0
M  V30 13537 N 1290.38 -1.37203 0.775435 0
M  V30 13538 C 1291.31 -2.28873 0.122374 0
M  V30 13539 C 1292.33 -1.48811 -0.660239 0
M  V30 13540 O 1293.52 -1.7142 -0.497724 0
M  V30 13541 C 1290.62 -3.28062 -0.850212 0
M  V30 13542 C 1289.79 -4.37234 -0.120633 0
M  V30 13543 C 1288.85 -5.16472 -1.00712 0
M  V30 13544 O 1287.87 -5.6726 -0.469528 0
M  V30 13545 N 1289.08 -5.31556 -2.33299 0
M  V30 13546 H 1291.84 -2.85559 0.909741 0
M  V30 13547 H 1289.4 -1.49219 0.628107 0
M  V30 13548 H 1291.39 -3.77956 -1.44678 0
M  V30 13549 H 1289.96 -2.72118 -1.53853 0
M  V30 13550 H 1289.18 -3.88688 0.656879 0
M  V30 13551 H 1290.47 -5.07354 0.383358 0
M  V30 13552 H 1289.87 -4.91883 -2.79406 0
M  V30 13553 H 1288.43 -5.84745 -2.87953 0
M  V30 13554 N 1291.86 -0.526279 -1.48553 0
M  V30 13555 C 1292.77 0.24244 -2.33344 0
M  V30 13556 C 1293.79 0.942658 -1.46253 0
M  V30 13557 O 1294.96 0.91844 -1.79239 0
M  V30 13558 C 1292.03 1.27801 -3.22285 0
M  V30 13559 C 1291.09 0.588543 -4.25247 0
M  V30 13560 C 1290.32 1.57478 -5.09938 0
M  V30 13561 O 1290.54 2.80707 -4.96548 0
M  V30 13562 O 1289.48 1.11621 -5.9146 0
M  V30 13563 H 1293.3 -0.452262 -3.00314 0
M  V30 13564 H 1290.89 -0.287249 -1.46613 0
M  V30 13565 H 1292.77 1.87656 -3.7731 0
M  V30 13566 H 1291.45 1.95519 -2.57981 0
M  V30 13567 H 1290.35 -0.0504022 -3.74066 0
M  V30 13568 H 1291.69 -0.046627 -4.92178 0
M  V30 13569 N 1293.34 1.5542 -0.261239 0
M  V30 13570 C 1294.75 1.59327 0.0932655 0
M  V30 13571 C 1294.95 1.27846 1.55748 0
M  V30 13572 O 1294.01 1.03265 2.30418 0
M  V30 13573 C 1295.32 2.99496 -0.268856 0
M  V30 13574 C 1296.87 3.12265 -0.21433 0
M  V30 13575 C 1297.35 4.54677 -0.55069 0
M  V30 13576 N 1298.84 4.60475 -0.501723 0
M  V30 13577 C 1299.57 5.6867 -0.734961 0
M  V30 13578 N 1299.07 6.85069 -1.03209 0
M  V30 13579 N 1300.86 5.58156 -0.664696 0
M  V30 13580 H 1293.01 1.7415 -1.21595 0
M  V30 13581 H 1295.27 0.811382 -0.490268 0
M  V30 13582 H 1294.98 3.2732 -1.28664 0
M  V30 13583 H 1294.85 3.75104 0.397097 0
M  V30 13584 H 1297.24 2.84213 0.794148 0
M  V30 13585 H 1297.32 2.389 -0.914342 0
M  V30 13586 H 1296.97 4.83453 -1.55679 0
M  V30 13587 H 1296.9 5.26322 0.170959 0
M  V30 13588 H 1299.39 3.76851 -0.281387 0
M  V30 13589 H 1299.7 7.63472 -1.19709 0
M  V30 13590 H 1298.05 6.86718 -1.06971 0
M  V30 13591 H 1301.24 4.66098 -0.432513 0
M  V30 13592 H 1301.41 6.42403 -0.849857 0
M  V30 13593 N 1294.82 -0.0116844 1.57596 0
M  V30 13594 C 1295.76 -1.00684 2.07681 0
M  V30 13595 C 1296.73 -1.34858 0.969666 0
M  V30 13596 O 1297.92 -1.44896 1.24136 0
M  V30 13597 C 1295.06 -2.29729 2.57524 0
M  V30 13598 C 1294.17 -2.0156 3.82096 0
M  V30 13599 C 1293.31 -3.24601 4.20485 0
M  V30 13600 C 1292.34 -2.92066 5.37925 0
M  V30 13601 N 1291.48 -4.0761 5.71663 0
M  V30 13602 H 1296.32 -0.572787 2.92443 0
M  V30 13603 H 1293.86 -0.271184 1.44579 0
M  V30 13604 H 1295.82 -3.05152 2.84496 0
M  V30 13605 H 1294.45 -2.70824 1.75653 0
M  V30 13606 H 1293.5 -1.16556 3.62103 0
M  V30 13607 H 1294.81 -1.73572 4.67626 0
M  V30 13608 H 1293.96 -4.08379 4.48677 0
M  V30 13609 H 1292.7 -3.55718 3.3364 0
M  V30 13610 H 1291.71 -2.06693 5.09468 0
M  V30 13611 H 1292.93 -2.62209 6.26437 0
M  V30 13612 H 1290.88 -4.38645 4.87777 0
M  V30 13613 H 1290.8 -3.83105 6.51741 0
M  V30 13614 H 1292.06 -4.92211 6.04441 0
M  V30 13615 N 1296.29 -1.55015 -0.284256 0
M  V30 13616 C 1297.26 -1.8636 -1.33426 0
M  V30 13617 C 1298.26 -0.737457 -1.42892 0
M  V30 13618 O 1299.45 -1.00569 -1.42238 0
M  V30 13619 C 1296.58 -2.05884 -2.71707 0
M  V30 13620 H 1297.77 -2.80212 -1.06869 0
M  V30 13621 H 1295.32 -1.47334 -0.521767 0
M  V30 13622 H 1296.06 -1.14376 -3.03461 0
M  V30 13623 H 1295.84 -2.87867 -2.66224 0
M  V30 13624 H 1297.33 -2.31447 -3.47595 0
M  V30 13625 N 1297.77 0.548248 -1.47757 0
M  V30 13626 C 1299.02 1.30139 -1.54099 0
M  V30 13627 C 1299.33 1.9445 -0.2118 0
M  V30 13628 O 1300.54 2.71067 -0.153302 0
M  V30 13629 C 1299 2.36039 -2.71687 0
M  V30 13630 C 1298.6 1.77879 -4.11173 0
M  V30 13631 C 1300.35 3.12478 -2.87329 0
M  V30 13632 C 1298.25 2.81611 -5.20047 0
M  V30 13633 H 1297.18 0.489364 -0.573619 0
M  V30 13634 H 1299.84 0.581237 -1.74051 0
M  V30 13635 H 1298.22 3.11008 -2.45132 0
M  V30 13636 H 1299.39 1.09221 -4.47669 0
M  V30 13637 H 1297.71 1.13994 -4.00493 0
M  V30 13638 H 1300.3 3.89958 -3.65837 0
M  V30 13639 H 1300.65 3.67218 -1.96103 0
M  V30 13640 H 1301.18 2.4462 -3.13697 0
M  V30 13641 H 1297.92 2.31714 -6.13179 0
M  V30 13642 H 1297.44 3.48652 -4.88059 0
M  V30 13643 H 1299.12 3.44938 -5.47382 0
M  V30 13644 N 1299.25 1.36039 0.795694 0
M  V30 13645 C 1300.5 1.29251 1.54845 0
M  V30 13646 C 1300.81 -0.127926 1.95181 0
M  V30 13647 O 1302.02 -0.318141 2.6963 0
M  V30 13648 C 1300.47 2.26736 2.79497 0
M  V30 13649 C 1300.08 3.74183 2.46355 0
M  V30 13650 C 1301.83 2.28913 3.5749 0
M  V30 13651 C 1299.73 4.63462 3.67365 0
M  V30 13652 H 1298.66 0.48027 0.581255 0
M  V30 13653 H 1301.31 1.61366 0.873693 0
M  V30 13654 H 1299.7 1.87608 3.4874 0
M  V30 13655 H 1300.87 4.22011 1.8505 0
M  V30 13656 H 1299.18 3.7472 1.81586 0
M  V30 13657 H 1301.78 2.92828 4.47388 0
M  V30 13658 H 1302.12 1.2959 3.95616 0
M  V30 13659 H 1302.66 2.66627 2.9522 0
M  V30 13660 H 1299.4 5.63824 3.34339 0
M  V30 13661 H 1298.92 4.20354 4.27858 0
M  V30 13662 H 1300.6 4.79424 4.34467 0
M  V30 13663 N 1300.73 -1.01913 1.20215 0
M  V30 13664 C 1301.95 -1.79613 1.03702 0
M  V30 13665 C 1302.38 -1.83591 -0.409374 0
M  V30 13666 O 1301.74 -1.26911 -1.29473 0
M  V30 13667 C 1301.78 -3.22052 1.62219 0
M  V30 13668 O 1300.89 -4.03374 0.858106 0
M  V30 13669 H 1300.23 -0.554095 0.365889 0
M  V30 13670 H 1302.76 -1.28203 1.59452 0
M  V30 13671 H 1302.77 -3.72772 1.65847 0
M  V30 13672 H 1301.44 -3.18471 2.67487 0
M  V30 13673 H 1300.02 -3.6198 0.895835 0
M  V30 13674 N 1302.21 -1.00763 -1.2118 0
M  V30 13675 C 1303.14 -0.590493 -2.2591 0
M  V30 13676 C 1304.12 0.390002 -1.65569 0
M  V30 13677 O 1305.3 0.277406 -1.92208 0
M  V30 13678 C 1302.43 0.0810388 -3.47205 0
M  V30 13679 C 1301.39 -0.81951 -4.20081 0
M  V30 13680 C 1300.71 -0.014244 -5.34698 0
M  V30 13681 C 1302.01 -2.12336 -4.7719 0
M  V30 13682 H 1303.71 -1.46595 -2.61056 0
M  V30 13683 H 1301.25 -0.706321 -1.25487 0
M  V30 13684 H 1303.21 0.384355 -4.19644 0
M  V30 13685 H 1301.93 0.991145 -3.11197 0
M  V30 13686 H 1300.59 -1.10669 -3.49497 0
M  V30 13687 H 1300.24 0.897233 -4.94933 0
M  V30 13688 H 1299.94 -0.613883 -5.84384 0
M  V30 13689 H 1301.46 0.282827 -6.09945 0
M  V30 13690 H 1302.87 -1.88301 -5.41494 0
M  V30 13691 H 1301.27 -2.67308 -5.37277 0
M  V30 13692 H 1302.34 -2.79238 -3.96427 0
M  V30 13693 N 1303.68 1.3679 -0.7827 0
M  V30 13694 C 1304.61 2.32721 -0.190604 0
M  V30 13695 C 1305.6 1.56321 0.670663 0
M  V30 13696 O 1306.78 1.84507 0.605871 0
M  V30 13697 C 1303.91 3.40564 0.680717 0
M  V30 13698 C 1302.86 4.27925 -0.080118 0
M  V30 13699 C 1302.19 5.26876 0.911361 0
M  V30 13700 C 1303.49 5.06738 -1.26545 0
M  V30 13701 H 1305.18 2.82488 -0.992023 0
M  V30 13702 H 1302.73 1.35818 -0.478484 0
M  V30 13703 H 1304.68 4.06659 1.10482 0
M  V30 13704 H 1303.41 2.89348 1.51477 0
M  V30 13705 H 1302.07 3.63376 -0.485125 0
M  V30 13706 H 1301.71 4.71936 1.74026 0
M  V30 13707 H 1301.41 5.8619 0.406762 0
M  V30 13708 H 1302.94 5.95846 1.33418 0
M  V30 13709 H 1304.35 5.65911 -0.917448 0
M  V30 13710 H 1302.75 5.75432 -1.70289 0
M  V30 13711 H 1303.82 4.38772 -2.06415 0
M  V30 13712 N 1305.16 0.53415 1.48272 0
M  V30 13713 C 1306.39 0.00368464 2.074 0
M  V30 13714 C 1306.81 -1.27003 1.38751 0
M  V30 13715 O 1306.17 -1.75502 0.454817 0
M  V30 13716 C 1306.22 -0.199034 3.6005 0
M  V30 13717 O 1305.32 -1.26679 3.92462 0
M  V30 13718 H 1304.66 0.0409936 0.662733 0
M  V30 13719 H 1307.19 0.743253 1.90622 0
M  V30 13720 H 1307.2 -0.420404 4.05828 0
M  V30 13721 H 1305.88 0.731391 4.09418 0
M  V30 13722 H 1304.46 -1.02775 3.58457 0
M  V30 13723 N 1306.64 -1.55279 0.269478 0
M  V30 13724 C 1307.59 -2.22304 -0.620435 0
M  V30 13725 C 1308.56 -1.19457 -1.15409 0
M  V30 13726 O 1309.74 -1.4798 -1.20443 0
M  V30 13727 C 1306.88 -2.94356 -1.80134 0
M  V30 13728 C 1306 -4.1191 -1.30207 0
M  V30 13729 C 1305.13 -4.71621 -2.44433 0
M  V30 13730 C 1304.17 -5.81379 -1.91481 0
M  V30 13731 N 1303.31 -6.35176 -2.99158 0
M  V30 13732 H 1308.15 -2.9797 -0.0422165 0
M  V30 13733 H 1305.68 -1.47097 -0.00907173 0
M  V30 13734 H 1307.64 -3.34343 -2.4954 0
M  V30 13735 H 1306.27 -2.21124 -2.35168 0
M  V30 13736 H 1305.32 -3.77082 -0.501301 0
M  V30 13737 H 1306.64 -4.9108 -0.874183 0
M  V30 13738 H 1305.79 -5.14298 -3.21842 0
M  V30 13739 H 1304.53 -3.91715 -2.90535 0
M  V30 13740 H 1303.53 -5.38157 -1.12549 0
M  V30 13741 H 1304.76 -6.63149 -1.46322 0
M  V30 13742 H 1302.7 -5.58167 -3.44652 0
M  V30 13743 H 1302.62 -7.09602 -2.60769 0
M  V30 13744 H 1303.89 -6.82512 -3.7656 0
M  V30 13745 N 1308.12 0.00332656 -1.576 0
M  V30 13746 C 1309.37 0.688869 -1.90423 0
M  V30 13747 C 1309.69 1.73963 -0.869896 0
M  V30 13748 O 1308.95 1.95295 0.125777 0
M  V30 13749 C 1309.25 1.37237 -3.30001 0
M  V30 13750 C 1308.91 0.455132 -4.48597 0
M  V30 13751 C 1307.58 0.202577 -4.80773 0
M  V30 13752 C 1309.93 -0.176597 -5.20901 0
M  V30 13753 C 1307.26 -0.690055 -5.82628 0
M  V30 13754 C 1309.61 -1.05708 -6.23705 0
M  V30 13755 C 1308.27 -1.31885 -6.54341 0
M  V30 13756 H 1307.54 0.252075 -0.696806 0
M  V30 13757 H 1310.19 -0.0514867 -1.91431 0
M  V30 13758 H 1308.49 2.18669 -3.25102 0
M  V30 13759 H 1310.19 1.9088 -3.52656 0
M  V30 13760 H 1306.78 0.662142 -4.23454 0
M  V30 13761 H 1310.96 0.0055127 -4.963 0
M  V30 13762 H 1306.22 -0.900902 -6.04726 0
M  V30 13763 H 1310.39 -1.55296 -6.78864 0
M  V30 13764 H 1308.02 -2.01222 -7.33085 0
M  V30 13765 N 1309.6 1.55164 0.276031 0
M  V30 13766 C 1311.01 1.46936 0.623061 0
M  V30 13767 C 1311.21 0.680977 1.89644 0
M  V30 13768 O 1310.27 0.198618 2.51718 0
M  V30 13769 C 1311.58 2.91123 0.752839 0
M  V30 13770 C 1313.13 3.01319 0.847093 0
M  V30 13771 C 1313.6 4.46755 1.00867 0
M  V30 13772 N 1315.1 4.5057 1.07427 0
M  V30 13773 C 1315.83 5.60314 1.21804 0
M  V30 13774 N 1315.33 6.7993 1.32919 0
M  V30 13775 N 1317.12 5.4805 1.2489 0
M  V30 13776 H 1309.27 2.04877 -0.560282 0
M  V30 13777 H 1311.53 0.928925 -0.189217 0
M  V30 13778 H 1311.24 3.51521 -0.112333 0
M  V30 13779 H 1311.11 3.39967 1.63408 0
M  V30 13780 H 1313.5 2.41021 1.70274 0
M  V30 13781 H 1313.58 2.55733 -0.0586896 0
M  V30 13782 H 1313.23 5.07655 0.1577 0
M  V30 13783 H 1313.16 4.89995 1.92906 0
M  V30 13784 H 1315.65 3.64404 1.00089 0
M  V30 13785 H 1315.96 7.59319 1.43714 0
M  V30 13786 H 1314.3 6.82747 1.29929 0
M  V30 13787 H 1317.5 4.53542 1.15834 0
M  V30 13788 H 1317.67 6.33621 1.3575 0
M  V30 13789 N 1311.07 -0.540404 1.48045 0
M  V30 13790 C 1312 -1.65538 1.6468 0
M  V30 13791 C 1312.99 -1.62713 0.495847 0
M  V30 13792 O 1314.17 -1.80072 0.727172 0
M  V30 13793 C 1311.3 -3.0415 1.67661 0
M  V30 13794 C 1310.25 -3.2183 2.82152 0
M  V30 13795 C 1309.58 -4.61397 2.70216 0
M  V30 13796 C 1310.88 -3.05596 4.23567 0
M  V30 13797 H 1312.57 -1.51873 2.58021 0
M  V30 13798 H 1310.12 -0.729208 1.24171 0
M  V30 13799 H 1312.07 -3.82013 1.77887 0
M  V30 13800 H 1310.8 -3.18814 0.708907 0
M  V30 13801 H 1309.46 -2.4638 2.71463 0
M  V30 13802 H 1309.1 -4.72883 1.71437 0
M  V30 13803 H 1308.8 -4.74174 3.47035 0
M  V30 13804 H 1310.33 -5.41374 2.82395 0
M  V30 13805 H 1311.74 -3.73261 4.35143 0
M  V30 13806 H 1310.14 -3.29871 5.01303 0
M  V30 13807 H 1311.21 -2.0214 4.40758 0
M  V30 13808 N 1312.55 -1.36459 -0.788468 0
M  V30 13809 C 1313.8 -1.30483 -1.54333 0
M  V30 13810 C 1314.12 0.115266 -1.94659 0
M  V30 13811 O 1313.39 1.05573 -1.65019 0
M  V30 13812 H 1311.97 -0.480004 -0.572368 0
M  V30 13813 H 1314.63 -1.70765 -0.939428 0
M  V30 13814 H 1313.73 -1.93284 -2.45046 0
M  V30 13815 N 1314.03 1.01274 -1.20754 0
M  V30 13816 C 1315.28 1.74932 -1.02005 0
M  V30 13817 C 1315.61 1.89285 0.447372 0
M  V30 13818 O 1314.86 1.41838 1.34835 0
M  V30 13819 C 1315.16 3.16862 -1.65329 0
M  V30 13820 C 1314.83 3.22476 -3.15151 0
M  V30 13821 C 1313.49 3.23715 -3.56036 0
M  V30 13822 C 1315.84 3.20332 -4.11141 0
M  V30 13823 C 1313.17 3.20487 -4.91431 0
M  V30 13824 C 1315.52 3.18646 -5.46487 0
M  V30 13825 C 1314.18 3.18191 -5.8678 0
M  V30 13826 H 1313.45 0.640121 -0.373264 0
M  V30 13827 H 1316.1 1.18751 -1.50234 0
M  V30 13828 H 1314.41 3.76225 -1.09372 0
M  V30 13829 H 1316.1 3.72556 -1.48333 0
M  V30 13830 H 1312.69 3.22249 -2.82584 0
M  V30 13831 H 1316.88 3.18541 -3.80585 0
M  V30 13832 H 1312.13 3.18468 -5.21908 0
M  V30 13833 H 1316.31 3.1594 -6.20609 0
M  V30 13834 H 1313.93 3.15443 -6.91664 0
M  V30 13835 N 1315.51 1.01404 1.20644 0
M  V30 13836 C 1316.46 0.552956 2.21193 0
M  V30 13837 C 1317.44 -0.390324 1.56094 0
M  V30 13838 O 1318.64 -0.213705 1.75705 0
M  V30 13839 C 1315.76 -0.10995 3.43124 0
M  V30 13840 C 1314.85 0.854886 4.15394 0
M  V30 13841 N 1315.24 2.01137 4.64088 0
M  V30 13842 C 1313.54 0.675168 4.4086 0
M  V30 13843 C 1314.24 2.6187 5.19422 0
M  V30 13844 N 1313.22 1.89952 5.09332 0
M  V30 13845 H 1317.02 1.43467 2.56504 0
M  V30 13846 H 1314.53 0.87905 1.36552 0
M  V30 13847 H 1316.53 -0.457802 4.14379 0
M  V30 13848 H 1315.19 -0.987534 3.09318 0
M  V30 13849 H 1316.2 2.3914 4.59383 0
M  V30 13850 H 1312.88 -0.154577 4.17214 0
M  V30 13851 H 1314.27 3.59727 5.67491 0
M  V30 13852 N 1316.99 -1.36373 0.789944 0
M  V30 13853 C 1317.9 -2.3383 0.189873 0
M  V30 13854 C 1318.91 -1.61068 -0.65827 0
M  V30 13855 O 1320.09 -1.93049 -0.573932 0
M  V30 13856 C 1317.15 -3.40264 -0.664905 0
M  V30 13857 C 1316.22 -4.28825 0.201798 0
M  V30 13858 C 1315.45 -5.30176 -0.612278 0
M  V30 13859 O 1315.67 -5.39627 -1.84821 0
M  V30 13860 O 1314.61 -6.01899 -0.0118964 0
M  V30 13861 H 1318.43 -2.86915 0.995671 0
M  V30 13862 H 1316.02 -1.38852 0.551412 0
M  V30 13863 H 1317.9 -4.05339 -1.15231 0
M  V30 13864 H 1316.57 -2.89478 -1.44858 0
M  V30 13865 H 1315.48 -3.66789 0.735974 0
M  V30 13866 H 1316.81 -4.82965 0.949003 0
M  V30 13867 N 1318.47 -0.542005 -1.47987 0
M  V30 13868 C 1319.71 -0.0123299 -2.02796 0
M  V30 13869 C 1320.04 1.32789 -1.41707 0
M  V30 13870 O 1319.32 1.86048 -0.567119 0
M  V30 13871 C 1319.6 0.0969277 -3.5997 0
M  V30 13872 C 1319.46 -1.26931 -4.31519 0
M  V30 13873 C 1320.77 0.817854 -4.32434 0
M  V30 13874 H 1317.89 -0.00595479 -0.736976 0
M  V30 13875 H 1320.54 -0.70136 -1.76581 0
M  V30 13876 H 1318.69 0.683755 -3.82436 0
M  V30 13877 H 1320.36 -1.89817 -4.20437 0
M  V30 13878 H 1318.6 -1.84804 -3.92467 0
M  V30 13879 H 1319.27 -1.14573 -5.39979 0
M  V30 13880 H 1321.75 0.319749 -4.1487 0
M  V30 13881 H 1320.62 0.863225 -5.4207 0
M  V30 13882 H 1320.88 1.87075 -4.00569 0
M  V30 13883 N 1319.94 1.55134 -0.277709 0
M  V30 13884 C 1320.89 2.19317 0.623216 0
M  V30 13885 C 1321.88 1.15863 1.11645 0
M  V30 13886 O 1323.07 1.41668 1.0611 0
M  V30 13887 C 1320.2 2.91976 1.80568 0
M  V30 13888 C 1319.28 4.02722 1.3295 0
M  V30 13889 N 1319.68 5.02582 0.569654 0
M  V30 13890 C 1317.97 4.1584 1.61224 0
M  V30 13891 C 1318.67 5.80825 0.318983 0
M  V30 13892 N 1317.65 5.36229 0.892145 0
M  V30 13893 H 1321.45 2.93879 0.0348669 0
M  V30 13894 H 1318.97 1.62196 -0.0813871 0
M  V30 13895 H 1320.96 3.36408 2.46242 0
M  V30 13896 H 1319.62 2.18925 2.39796 0
M  V30 13897 H 1320.63 5.17446 0.216749 0
M  V30 13898 H 1317.31 3.53981 2.21368 0
M  V30 13899 H 1318.7 6.71275 -0.289742 0
M  V30 13900 N 1321.42 0.00503138 1.57599 0
M  V30 13901 C 1322.67 -0.677979 1.89964 0
M  V30 13902 C 1322.98 -1.74657 0.88059 0
M  V30 13903 O 1324.19 -2.48455 1.09463 0
M  V30 13904 C 1322.65 -1.25708 3.37232 0
M  V30 13905 C 1322.25 -0.223045 4.47444 0
M  V30 13906 C 1324 -1.91799 3.787 0
M  V30 13907 C 1321.9 -0.812416 5.85793 0
M  V30 13908 H 1320.83 -0.256991 0.708852 0
M  V30 13909 H 1323.49 0.0663988 1.8338 0
M  V30 13910 H 1321.87 -2.05228 3.3867 0
M  V30 13911 H 1323.04 0.54794 4.57531 0
M  V30 13912 H 1321.36 0.337714 4.15028 0
M  V30 13913 H 1323.95 -2.36808 4.79402 0
M  V30 13914 H 1324.3 -2.75067 3.1248 0
M  V30 13915 H 1324.83 -1.19004 3.79583 0
M  V30 13916 H 1321.57 -0.0184031 6.55497 0
M  V30 13917 H 1321.09 -1.55244 5.79361 0
M  V30 13918 H 1322.77 -1.30952 6.33609 0
M  V30 13919 N 1322.9 -1.55308 -0.267798 0
M  V30 13920 C 1323.83 -1.91555 -1.33525 0
M  V30 13921 C 1324.81 -0.778001 -1.51265 0
M  V30 13922 O 1326 -1.03657 -1.64222 0
M  V30 13923 C 1323.13 -2.19201 -2.69385 0
M  V30 13924 C 1322.08 -3.3501 -2.66369 0
M  V30 13925 C 1321.41 -3.48148 -4.05829 0
M  V30 13926 C 1322.71 -4.71265 -2.25182 0
M  V30 13927 H 1324.4 -2.80965 -1.03437 0
M  V30 13928 H 1321.95 -1.35183 -0.496141 0
M  V30 13929 H 1323.9 -2.43146 -3.44177 0
M  V30 13930 H 1322.62 -1.26596 -3.01067 0
M  V30 13931 H 1321.28 -3.11041 -1.94034 0
M  V30 13932 H 1320.93 -2.53 -4.34741 0
M  V30 13933 H 1320.63 -4.26014 -4.04704 0
M  V30 13934 H 1322.15 -3.74391 -4.82352 0
M  V30 13935 H 1323.57 -4.94719 -2.89699 0
M  V30 13936 H 1321.96 -5.52084 -2.3521 0
M  V30 13937 H 1323.03 -4.69735 -1.20319 0
M  V30 13938 N 1324.38 0.532545 -1.4833 0
M  V30 13939 C 1325.79 1.11451 -1.49785 0
M  V30 13940 C 1326.14 1.94386 -0.266207 0
M  V30 13941 O 1325.26 2.07121 0.62688 0
M  V30 13942 C 1325.86 2.0279 -2.71407 0
M  V30 13943 C 1324.42 2.56209 -2.75742 0
M  V30 13944 C 1323.57 1.33114 -2.43261 0
M  V30 13945 H 1326.52 0.317924 -1.55483 0
M  V30 13946 H 1326.54 2.87038 -2.49779 0
M  V30 13947 H 1326.05 1.42401 -3.61031 0
M  V30 13948 H 1324.15 3.20327 -1.9032 0
M  V30 13949 H 1324.26 2.95518 -3.77102 0
M  V30 13950 H 1322.63 1.64607 -1.94362 0
M  V30 13951 H 1323.41 0.744809 -3.35123 0
M  V30 13952 N 1325.86 1.36875 0.78122 0
M  V30 13953 C 1327.13 1.22101 1.52809 0
M  V30 13954 C 1327.51 -0.189402 2.10249 0
M  V30 13955 O 1326.86 -1.19598 1.94701 0
M  V30 13956 C 1327.07 2.30953 2.61652 0
M  V30 13957 C 1328.42 2.68027 3.29313 0
M  V30 13958 O 1329.44 2.30058 2.71941 0
M  V30 13959 O 1328.3 3.33407 4.33015 0
M  V30 13960 H 1325.4 0.4759 0.676349 0
M  V30 13961 H 1327.94 1.48629 0.818998 0
M  V30 13962 H 1326.71 3.25443 2.17261 0
M  V30 13963 H 1326.34 2.05837 3.40172 0
M  V30 13964 N 1327.33 -1.00632 1.21289 0
M  V30 13965 C 1328.58 -1.73802 1.02351 0
M  V30 13966 C 1328.9 -1.90503 -0.443611 0
M  V30 13967 O 1330.1 -2.60868 -0.752356 0
M  V30 13968 C 1328.56 -3.12647 1.78269 0
M  V30 13969 C 1328.17 -3.03923 3.29142 0
M  V30 13970 C 1329.91 -3.89956 1.67735 0
M  V30 13971 C 1327.82 -4.3784 3.97556 0
M  V30 13972 H 1326.75 -0.651616 0.379358 0
M  V30 13973 H 1329.4 -1.12446 1.45011 0
M  V30 13974 H 1327.78 -3.74605 1.28401 0
M  V30 13975 H 1328.95 -2.51211 3.86303 0
M  V30 13976 H 1327.27 -2.40103 3.40205 0
M  V30 13977 H 1329.87 -4.89051 2.1618 0
M  V30 13978 H 1330.21 -4.11423 0.635338 0
M  V30 13979 H 1330.74 -3.34647 2.15072 0
M  V30 13980 H 1327.48 -4.21573 5.01952 0
M  V30 13981 H 1327 -4.90518 3.45184 0
M  V30 13982 H 1328.68 -5.06644 4.02393 0
M  V30 13983 N 1328.81 -1.02043 -1.20104 0
M  V30 13984 C 1329.76 -0.587332 -2.25063 0
M  V30 13985 C 1330.75 0.375844 -1.65178 0
M  V30 13986 O 1331.96 0.245347 -1.7832 0
M  V30 13987 H 1328.33 -0.171637 -0.732151 0
M  V30 13988 H 1330.31 -1.48339 -2.58917 0
M  V30 13989 C 1329.05 0.0546893 -3.47657 0
M  V30 13990 H 1328.38 -0.677457 -3.94018 0
M  V30 13991 H 1329.82 0.320786 -4.22785 0
M  V30 13992 C 1328.28 1.29869 -3.10863 0
M  V30 13993 O 1328.81 2.39161 -3.22746 0
M  V30 13994 N 1327.01 1.18423 -2.65376 0
M  V30 13995 H 1326.56 0.294895 -2.55906 0
M  V30 13996 H 1326.52 2.01755 -2.41128 0
M  V30 13997 N 1330.29 1.35952 -0.797165 0
M  V30 13998 C 1331.22 2.28649 -0.15877 0
M  V30 13999 C 1332.24 1.49842 0.636481 0
M  V30 14000 O 1333.42 1.72191 0.47039 0
M  V30 14001 C 1330.52 3.29373 0.797913 0
M  V30 14002 C 1329.7 4.3737 0.0510574 0
M  V30 14003 C 1328.76 5.18009 0.924826 0
M  V30 14004 O 1327.78 5.67935 0.379223 0
M  V30 14005 N 1328.98 5.352 2.24813 0
M  V30 14006 H 1331.75 2.84075 -0.955056 0
M  V30 14007 H 1329.31 1.48201 -0.651767 0
M  V30 14008 H 1331.3 3.80209 1.38646 0
M  V30 14009 H 1329.87 2.74531 1.49504 0
M  V30 14010 H 1329.09 3.87594 -0.718633 0
M  V30 14011 H 1330.38 5.0668 -0.464025 0
M  V30 14012 H 1329.78 4.96266 2.71545 0
M  V30 14013 H 1328.34 5.89252 2.78614 0
M  V30 14014 N 1331.77 0.549846 1.47697 0
M  V30 14015 C 1332.72 -0.215119 2.31603 0
M  V30 14016 C 1333.71 -0.916441 1.4247 0
M  V30 14017 O 1334.92 -0.838565 1.59274 0
M  V30 14018 H 1331.29 -0.0882441 0.746805 0
M  V30 14019 H 1333.26 0.511847 2.93977 0
M  V30 14020 C 1332.01 -1.23662 3.24966 0
M  V30 14021 H 1331.33 -0.706384 3.9351 0
M  V30 14022 H 1332.77 -1.7429 3.86522 0
M  V30 14023 C 1331.23 -2.28066 2.47967 0
M  V30 14024 O 1331.76 -3.34862 2.21879 0
M  V30 14025 N 1329.97 -2.01799 2.09106 0
M  V30 14026 H 1329.52 -1.14965 2.30523 0
M  V30 14027 H 1329.47 -2.71872 1.57902 0
M  V30 14028 N 1333.25 -1.54984 0.285932 0
M  V30 14029 C 1334.66 -1.85519 -0.209707 0
M  V30 14030 C 1335.01 -1.20794 -1.54606 0
M  V30 14031 O 1334.13 -0.500159 -2.10541 0
M  V30 14032 C 1334.73 -3.36579 -0.387283 0
M  V30 14033 C 1333.29 -3.67199 -0.827148 0
M  V30 14034 C 1332.43 -2.77203 0.073308 0
M  V30 14035 H 1335.39 -1.5037 0.507404 0
M  V30 14036 H 1335.41 -3.60269 -1.2242 0
M  V30 14037 H 1334.92 -3.83658 0.585493 0
M  V30 14038 H 1333.02 -3.25627 -1.81101 0
M  V30 14039 H 1333.13 -4.74574 -0.656976 0
M  V30 14040 H 1331.5 -2.50785 -0.444859 0
M  V30 14041 H 1332.28 -3.27099 1.04216 0
M  V30 14042 N 1334.72 -0.0133892 -1.57594 0
M  V30 14043 C 1336.14 0.342848 -1.55874 0
M  V30 14044 C 1336.34 1.73928 -1.01742 0
M  V30 14045 O 1335.4 2.43798 -0.657158 0
M  V30 14046 C 1336.71 0.205831 -2.99995 0
M  V30 14047 C 1338.26 0.279774 -3.11747 0
M  V30 14048 C 1338.73 0.171729 -4.57678 0
M  V30 14049 N 1340.22 0.22921 -4.62633 0
M  V30 14050 C 1340.96 0.169153 -5.7315 0
M  V30 14051 N 1340.45 0.0589166 -6.92775 0
M  V30 14052 N 1342.25 0.221995 -5.61661 0
M  V30 14053 H 1334.4 -0.926727 -1.91117 0
M  V30 14054 H 1336.66 -0.356466 -0.878428 0
M  V30 14055 H 1336.37 -0.755482 -3.4349 0
M  V30 14056 H 1336.24 0.982476 -3.6418 0
M  V30 14057 H 1338.63 1.23154 -2.68174 0
M  V30 14058 H 1338.71 -0.526974 -2.50313 0
M  V30 14059 H 1338.35 -0.776547 -5.01928 0
M  V30 14060 H 1338.28 0.997138 -5.17073 0
M  V30 14061 H 1340.77 0.315196 -3.76583 0
M  V30 14062 H 1341.09 0.0193526 -7.72798 0
M  V30 14063 H 1339.43 0.0243543 -6.94996 0
M  V30 14064 H 1342.62 0.306406 -4.67096 0
M  V30 14065 H 1342.8 0.171727 -6.47772 0
M  V30 14066 N 1336.2 1.55448 0.259558 0
M  V30 14067 C 1337.17 1.88459 1.30445 0
M  V30 14068 C 1338.17 0.760096 1.41701 0
M  V30 14069 O 1339.36 1.02819 1.4062 0
M  V30 14070 C 1336.49 2.10181 2.68397 0
M  V30 14071 H 1337.68 2.81877 1.02398 0
M  V30 14072 H 1335.23 1.48145 0.498262 0
M  V30 14073 H 1335.97 1.19189 3.01603 0
M  V30 14074 H 1335.75 2.92066 2.6161 0
M  V30 14075 H 1337.24 2.36947 3.43869 0
M  V30 14076 N 1337.68 -0.524672 1.4861 0
M  V30 14077 C 1338.59 -1.65554 1.6622 0
M  V30 14078 C 1339.61 -1.65254 0.54471 0
M  V30 14079 O 1340.78 -1.84109 0.816454 0
M  V30 14080 C 1337.85 -3.02003 1.7028 0
M  V30 14081 C 1336.91 -3.13116 2.93695 0
M  V30 14082 C 1336.14 -4.43055 2.97553 0
M  V30 14083 O 1336.36 -5.30468 2.09667 0
M  V30 14084 O 1335.3 -4.58646 3.89779 0
M  V30 14085 H 1339.12 -1.53633 2.61974 0
M  V30 14086 H 1336.71 -0.698354 1.32073 0
M  V30 14087 H 1338.59 -3.83143 1.75441 0
M  V30 14088 H 1337.27 -3.14236 0.777002 0
M  V30 14089 H 1336.17 -2.31251 2.94064 0
M  V30 14090 H 1337.51 -3.058 3.85677 0
M  V30 14091 N 1339.16 -1.37287 -0.77395 0
M  V30 14092 C 1340.11 -1.29389 -1.8773 0
M  V30 14093 C 1341.09 -0.182167 -1.59865 0
M  V30 14094 O 1342.28 -0.416367 -1.72033 0
M  V30 14095 C 1339.41 -1.10094 -3.25168 0
M  V30 14096 C 1338.5 -2.25801 -3.58991 0
M  V30 14097 N 1338.89 -3.51182 -3.64012 0
M  V30 14098 C 1337.19 -2.17907 -3.89144 0
M  V30 14099 C 1337.89 -4.27468 -3.9452 0
M  V30 14100 N 1336.87 -3.56583 -4.10304 0
M  V30 14101 H 1340.67 -2.24344 -1.8986 0
M  V30 14102 H 1338.18 -1.30228 -0.970282 0
M  V30 14103 H 1340.18 -1.02521 -4.04098 0
M  V30 14104 H 1338.84 -0.160535 -3.24303 0
M  V30 14105 H 1339.85 -3.85118 -3.46272 0
M  V30 14106 H 1336.53 -1.3191 -3.96113 0
M  V30 14107 H 1337.92 -5.3597 -4.05198 0
M  V30 14108 N 1340.64 0.999871 -1.21821 0
M  V30 14109 C 1341.86 1.77405 -1.06467 0
M  V30 14110 C 1342.28 1.84828 0.385227 0
M  V30 14111 O 1341.64 1.31338 1.26714 0
M  V30 14112 C 1341.69 3.21062 -1.66137 0
M  V30 14113 O 1341.41 3.14054 -3.05454 0
M  V30 14114 C 1342.91 4.14958 -1.55963 0
M  V30 14115 H 1340.13 0.557368 -0.373607 0
M  V30 14116 H 1342.67 1.2575 -1.61267 0
M  V30 14117 H 1340.83 3.69808 -1.15416 0
M  V30 14118 H 1341.24 4.04346 -3.34073 0
M  V30 14119 H 1342.72 5.13536 -2.02448 0
M  V30 14120 H 1343.19 4.36171 -0.514949 0
M  V30 14121 H 1343.8 3.72105 -2.05956 0
M  V30 14122 N 1342.11 1.02678 1.19562 0
M  V30 14123 C 1343.06 0.605764 2.22709 0
M  V30 14124 C 1344.03 -0.37936 1.6171 0
M  V30 14125 O 1345.22 -0.276496 1.88786 0
M  V30 14126 C 1342.36 -0.0394312 3.45077 0
M  V30 14127 C 1341.47 0.991481 4.20468 0
M  V30 14128 C 1340.6 0.316269 5.30258 0
M  V30 14129 C 1339.64 1.33324 5.97404 0
M  V30 14130 N 1338.78 0.683979 6.9876 0
M  V30 14131 H 1343.62 1.48994 2.58079 0
M  V30 14132 H 1341.16 0.745636 1.26802 0
M  V30 14133 H 1343.12 -0.430726 4.14971 0
M  V30 14134 H 1341.75 -0.887193 3.10369 0
M  V30 14135 H 1340.8 1.50085 3.49541 0
M  V30 14136 H 1342.11 1.76449 4.66548 0
M  V30 14137 H 1341.26 -0.129983 6.06561 0
M  V30 14138 H 1340 -0.488956 4.85243 0
M  V30 14139 H 1339.01 1.78977 5.19853 0
M  V30 14140 H 1340.23 2.13992 6.44503 0
M  V30 14141 H 1338.18 -0.101192 6.55922 0
M  V30 14142 H 1338.1 1.3949 7.4302 0
M  V30 14143 H 1339.36 0.261658 7.79061 0
M  V30 14144 N 1343.59 -1.35528 0.804364 0
M  V30 14145 C 1345.01 -1.51962 0.487831 0
M  V30 14146 C 1345.21 -1.75426 -0.991353 0
M  V30 14147 O 1344.26 -1.7944 -1.77644 0
M  V30 14148 C 1345.58 -2.69626 1.33126 0
M  V30 14149 C 1347.13 -2.83502 1.32648 0
M  V30 14150 C 1347.6 -4.04188 2.15397 0
M  V30 14151 N 1349.09 -4.11362 2.12922 0
M  V30 14152 C 1349.83 -5.03856 2.73709 0
M  V30 14153 N 1349.32 -6.01696 3.43415 0
M  V30 14154 N 1351.12 -4.96585 2.63363 0
M  V30 14155 H 1343.27 -1.18553 1.76235 0
M  V30 14156 H 1345.53 -0.57986 0.749977 0
M  V30 14157 H 1345.24 -2.58857 2.38088 0
M  V30 14158 H 1345.11 -3.64168 0.982934 0
M  V30 14159 H 1347.5 -2.93723 0.284712 0
M  V30 14160 H 1347.58 -1.89824 1.71466 0
M  V30 14161 H 1347.22 -3.94728 3.19613 0
M  V30 14162 H 1347.15 -4.97044 1.7394 0
M  V30 14163 H 1349.64 -3.41319 1.62203 0
M  V30 14164 H 1349.96 -6.68866 3.8709 0
M  V30 14165 H 1348.3 -6.01877 3.47519 0
M  V30 14166 H 1351.49 -4.19103 2.08496 0
M  V30 14167 H 1351.66 -5.68478 3.11026 0
M  V30 14168 N 1345.07 -0.557671 -1.47404 0
M  V30 14169 C 1346.32 -0.0337884 -2.02472 0
M  V30 14170 C 1346.65 1.31624 -1.43197 0
M  V30 14171 O 1345.9 1.86989 -0.577366 0
M  V30 14172 C 1346.2 0.108324 -3.57236 0
M  V30 14173 C 1345.87 -1.17088 -4.35432 0
M  V30 14174 C 1344.53 -1.5214 -4.56516 0
M  V30 14175 C 1346.88 -2.01854 -4.80525 0
M  V30 14176 C 1344.21 -2.71803 -5.19942 0
M  V30 14177 C 1346.56 -3.2072 -5.45272 0
M  V30 14178 C 1345.22 -3.56085 -5.64588 0
M  V30 14179 H 1344.49 -0.012364 -0.740897 0
M  V30 14180 H 1347.14 -0.729276 -1.7707 0
M  V30 14181 H 1345.45 0.886781 -3.81633 0
M  V30 14182 H 1347.14 0.529031 -3.97495 0
M  V30 14183 H 1343.73 -0.887952 -4.19301 0
M  V30 14184 H 1347.92 -1.76081 -4.64014 0
M  V30 14185 H 1343.17 -2.99371 -5.33092 0
M  V30 14186 H 1347.35 -3.86689 -5.79176 0
M  V30 14187 H 1344.97 -4.48903 -6.13506 0
M  V30 14188 N 1346.55 1.54831 -0.294147 0
M  V30 14189 C 1347.46 2.26939 0.594621 0
M  V30 14190 C 1348.48 1.30209 1.15419 0
M  V30 14191 O 1349.65 1.6318 1.18044 0
M  V30 14192 C 1346.72 2.9909 1.75345 0
M  V30 14193 C 1345.78 4.11342 1.22865 0
M  V30 14194 C 1345.01 4.80043 2.33225 0
M  V30 14195 O 1345.23 4.48062 3.52983 0
M  V30 14196 O 1344.17 5.67593 2.00304 0
M  V30 14197 H 1347.99 3.03698 0.00989235 0
M  V30 14198 H 1345.58 1.49276 -0.0608528 0
M  V30 14199 H 1347.46 3.44369 2.42875 0
M  V30 14200 H 1346.14 2.25232 2.32492 0
M  V30 14201 H 1345.04 3.70478 0.519279 0
M  V30 14202 H 1346.38 4.87158 0.702703 0
M  V30 14203 N 1348.03 0.0217466 1.57585 0
M  V30 14204 C 1349.3 -0.696733 1.8277 0
M  V30 14205 C 1349.68 -1.90759 0.904112 0
M  V30 14206 O 1349.03 -2.28461 -0.0420522 0
M  V30 14207 C 1349.24 -1.08193 3.31806 0
M  V30 14208 C 1350.59 -1.47667 3.98095 0
M  V30 14209 O 1351.61 -1.17511 3.36258 0
M  V30 14210 O 1350.47 -2.03825 5.07068 0
M  V30 14211 H 1347.57 -0.341141 0.75336 0
M  V30 14212 H 1350.11 0.0488652 1.6963 0
M  V30 14213 H 1348.89 -0.219799 3.90682 0
M  V30 14214 H 1348.51 -1.88593 3.50026 0
M  V30 14215 N 1349.51 -1.55583 -0.251311 0
M  V30 14216 C 1350.44 -1.84909 -1.33731 0
M  V30 14217 C 1351.42 -0.703814 -1.46578 0
M  V30 14218 O 1352.6 -0.949108 -1.62862 0
M  V30 14219 C 1349.73 -2.0299 -2.71133 0
M  V30 14220 C 1348.77 -3.25615 -2.75458 0
M  V30 14221 S 1349.61 -4.82388 -2.32512 0
M  V30 14222 C 1350.76 -5.03469 -3.71846 0
M  V30 14223 H 1351 -2.76733 -1.08656 0
M  V30 14224 H 1348.53 -1.47634 -0.45207 0
M  V30 14225 H 1350.49 -2.14091 -3.5025 0
M  V30 14226 H 1349.15 -1.12016 -2.93447 0
M  V30 14227 H 1348.34 -3.35219 -3.76356 0
M  V30 14228 H 1347.94 -3.13217 -2.0438 0
M  V30 14229 H 1350.23 -4.90542 -4.67306 0
M  V30 14230 H 1351.18 -6.05463 -3.67179 0
M  V30 14231 H 1351.59 -4.31337 -3.64155 0
M  V30 14232 N 1350.98 0.516783 -1.48886 0
M  V30 14233 C 1352.23 1.26841 -1.56825 0
M  V30 14234 C 1352.55 1.93957 -0.252998 0
M  V30 14235 O 1353.75 2.70681 -0.210765 0
M  V30 14236 C 1352.21 2.30223 -2.76633 0
M  V30 14237 C 1351.82 1.69117 -4.14853 0
M  V30 14238 C 1353.56 3.06313 -2.93893 0
M  V30 14239 C 1351.47 2.70516 -5.25904 0
M  V30 14240 H 1350.4 0.477087 -0.58387 0
M  V30 14241 H 1353.05 0.544187 -1.75245 0
M  V30 14242 H 1351.43 3.05739 -2.51674 0
M  V30 14243 H 1352.6 0.997003 -4.49885 0
M  V30 14244 H 1350.92 1.05473 -4.0282 0
M  V30 14245 H 1353.52 3.8211 -3.74027 0
M  V30 14246 H 1353.86 3.62976 -2.03848 0
M  V30 14247 H 1354.39 2.37911 -3.18815 0
M  V30 14248 H 1351.13 2.18655 -6.17956 0
M  V30 14249 H 1350.65 3.38221 -4.95345 0
M  V30 14250 H 1352.33 3.3325 -5.54575 0
M  V30 14251 N 1352.46 1.37696 0.766659 0
M  V30 14252 C 1353.42 1.33688 1.86172 0
M  V30 14253 C 1354.42 0.239922 1.59 0
M  V30 14254 O 1355.61 0.496066 1.66988 0
M  V30 14255 C 1352.75 1.07807 3.23405 0
M  V30 14256 H 1353.94 2.311 1.91136 0
M  V30 14257 H 1351.49 1.22799 0.966961 0
M  V30 14258 H 1352.23 0.109477 3.24115 0
M  V30 14259 H 1352.01 1.87213 3.4452 0
M  V30 14260 H 1353.5 1.07665 4.03482 0
M  V30 14261 N 1353.94 -0.993397 1.22349 0
M  V30 14262 C 1355.35 -1.54739 1.04465 0
M  V30 14263 C 1355.7 -1.92243 -0.392057 0
M  V30 14264 O 1354.83 -1.74707 -1.27697 0
M  V30 14265 C 1355.42 -2.81179 1.89007 0
M  V30 14266 C 1353.98 -3.33023 1.75421 0
M  V30 14267 C 1353.13 -2.06114 1.85505 0
M  V30 14268 H 1356.08 -0.814539 1.36202 0
M  V30 14269 H 1356.1 -3.53523 1.40718 0
M  V30 14270 H 1355.61 -2.53851 2.93566 0
M  V30 14271 H 1353.71 -3.6526 0.735935 0
M  V30 14272 H 1353.83 -4.03659 2.58062 0
M  V30 14273 H 1352.19 -2.19651 1.2894 0
M  V30 14274 H 1352.97 -1.81184 2.91594 0
M  V30 14275 N 1355.42 -1.03311 -1.19015 0
M  V30 14276 C 1356.66 -0.732039 -1.88805 0
M  V30 14277 C 1356.99 0.739688 -1.79886 0
M  V30 14278 O 1356.25 1.55476 -1.18851 0
M  V30 14279 C 1356.55 -1.13402 -3.38932 0
M  V30 14280 C 1356.21 -2.60473 -3.68055 0
M  V30 14281 C 1354.87 -3.00654 -3.75713 0
M  V30 14282 C 1357.23 -3.55604 -3.81045 0
M  V30 14283 C 1354.55 -4.3487 -3.93833 0
M  V30 14284 C 1356.91 -4.89529 -4.00679 0
M  V30 14285 C 1355.57 -5.29392 -4.06571 0
M  V30 14286 H 1354.84 -0.267872 -0.690888 0
M  V30 14287 H 1357.49 -1.29673 -1.40915 0
M  V30 14288 H 1355.79 -0.487997 -3.88749 0
M  V30 14289 H 1357.49 -0.878532 -3.91258 0
M  V30 14290 H 1354.08 -2.28348 -3.62706 0
M  V30 14291 H 1358.26 -3.25711 -3.74467 0
M  V30 14292 H 1353.52 -4.65285 -3.96636 0
M  V30 14293 H 1357.69 -5.63153 -4.09672 0
M  V30 14294 H 1355.32 -6.33402 -4.20364 0
M  V30 14295 N 1356.9 1.35099 -0.81154 0
M  V30 14296 C 1358.31 1.51701 -0.495883 0
M  V30 14297 C 1358.51 1.7595 0.982035 0
M  V30 14298 O 1357.57 1.8038 1.7669 0
M  V30 14299 C 1358.88 2.68916 -1.34554 0
M  V30 14300 C 1360.43 2.82795 -1.34149 0
M  V30 14301 C 1360.9 4.0304 -2.17538 0
M  V30 14302 N 1362.39 4.10227 -2.151 0
M  V30 14303 C 1363.13 5.02397 -2.76377 0
M  V30 14304 N 1362.63 5.99866 -3.46601 0
M  V30 14305 N 1364.42 4.95181 -2.65992 0
M  V30 14306 H 1356.57 1.17617 -1.76862 0
M  V30 14307 H 1358.83 0.575875 -0.753042 0
M  V30 14308 H 1358.54 2.57591 -2.39458 0
M  V30 14309 H 1358.41 3.63641 -1.00223 0
M  V30 14310 H 1360.8 2.93568 -0.300285 0
M  V30 14311 H 1360.88 1.88912 -1.7247 0
M  V30 14312 H 1360.52 3.93027 -3.21702 0
M  V30 14313 H 1360.45 4.96114 -1.76574 0
M  V30 14314 H 1362.95 3.40454 -1.6401 0
M  V30 14315 H 1363.26 6.66803 -3.90632 0
M  V30 14316 H 1361.6 6.00025 -3.50706 0
M  V30 14317 H 1364.79 4.17991 -2.10715 0
M  V30 14318 H 1364.97 5.6682 -3.14036 0
M  V30 14319 N 1358.37 0.56548 1.47106 0
M  V30 14320 C 1359.3 -0.16567 2.32912 0
M  V30 14321 C 1360.28 -0.900678 1.44298 0
M  V30 14322 O 1361.47 -0.879523 1.73142 0
M  V30 14323 C 1358.6 -1.19092 3.26243 0
M  V30 14324 C 1357.55 -0.571849 4.24163 0
M  V30 14325 C 1356.88 -1.70233 5.06878 0
M  V30 14326 C 1358.18 0.479785 5.20092 0
M  V30 14327 H 1359.87 0.550705 2.94292 0
M  V30 14328 H 1357.42 0.266284 1.41517 0
M  V30 14329 H 1359.37 -1.71064 3.85117 0
M  V30 14330 H 1358.1 -1.93734 2.62934 0
M  V30 14331 H 1356.76 -0.073353 3.66527 0
M  V30 14332 H 1356.4 -2.438 4.39967 0
M  V30 14333 H 1356.1 -1.29384 5.73178 0
M  V30 14334 H 1357.63 -2.22515 5.68612 0
M  V30 14335 H 1359.04 0.0458042 5.73282 0
M  V30 14336 H 1357.44 0.807615 5.94641 0
M  V30 14337 H 1358.51 1.37259 4.65068 0
M  V30 14338 N 1359.85 -1.54672 0.302354 0
M  V30 14339 C 1360.8 -2.25022 -0.58887 0
M  V30 14340 C 1361.79 -1.25671 -1.13592 0
M  V30 14341 O 1363 -1.43518 -1.0864 0
M  V30 14342 H 1359.38 -0.722515 -0.208509 0
M  V30 14343 H 1361.35 -2.98388 0.0269928 0
M  V30 14344 C 1360.1 -3.00532 -1.74859 0
M  V30 14345 H 1359.42 -3.76786 -1.33688 0
M  V30 14346 H 1360.86 -3.53036 -2.34823 0
M  V30 14347 C 1359.32 -2.0758 -2.65353 0
M  V30 14348 O 1359.85 -1.64473 -3.66485 0
M  V30 14349 N 1358.05 -1.73508 -2.33116 0
M  V30 14350 H 1357.6 -2.0876 -1.5092 0
M  V30 14351 H 1357.56 -1.11591 -2.9393 0
M  V30 14352 N 1361.33 -0.0301034 -1.57571 0
M  V30 14353 C 1362.61 0.68703 -1.83137 0
M  V30 14354 C 1362.99 1.90277 -0.914216 0
M  V30 14355 O 1362.34 2.2848 0.0299358 0
M  V30 14356 C 1362.55 1.06431 -3.32375 0
M  V30 14357 C 1363.89 1.45554 -3.98873 0
M  V30 14358 O 1364.92 1.15727 -3.36877 0
M  V30 14359 O 1363.78 2.01133 -5.08142 0
M  V30 14360 H 1360.87 0.337141 -0.755159 0
M  V30 14361 H 1363.42 -0.0578604 -1.69601 0
M  V30 14362 H 1362.19 0.199077 -3.90793 0
M  V30 14363 H 1361.81 1.86734 -3.51022 0
M  V30 14364 N 1362.81 1.55714 0.243056 0
M  V30 14365 C 1364.06 1.77375 0.968638 0
M  V30 14366 C 1364.38 0.594781 1.85708 0
M  V30 14367 O 1363.65 -0.38928 1.91993 0
M  V30 14368 H 1362.23 0.654174 0.360646 0
M  V30 14369 H 1364.89 1.93157 0.260079 0
M  V30 14370 H 1363.99 2.68674 1.5881 0
M  V30 14371 N 1364.29 -0.50888 1.49158 0
M  V30 14372 C 1365.53 -1.2635 1.58247 0
M  V30 14373 C 1365.86 -1.92677 0.265654 0
M  V30 14374 O 1365.12 -1.80931 -0.745818 0
M  V30 14375 C 1365.42 -2.35875 2.6851 0
M  V30 14376 C 1365.08 -1.87059 4.10268 0
M  V30 14377 C 1363.74 -1.73464 4.48847 0
M  V30 14378 C 1366.1 -1.50429 4.9902 0
M  V30 14379 C 1363.42 -1.21606 5.73959 0
M  V30 14380 C 1365.78 -1.00026 6.24642 0
M  V30 14381 C 1364.44 -0.850646 6.62058 0
M  V30 14382 H 1363.71 -0.462346 0.579066 0
M  V30 14383 H 1366.36 -0.565528 1.82959 0
M  V30 14384 H 1364.66 -3.11428 2.37739 0
M  V30 14385 H 1366.36 -2.9395 2.72753 0
M  V30 14386 H 1362.95 -1.98597 3.79812 0
M  V30 14387 H 1367.13 -1.59782 4.69876 0
M  V30 14388 H 1362.39 -1.08728 6.01655 0
M  V30 14389 H 1366.56 -0.707608 6.92796 0
M  V30 14390 H 1364.19 -0.446627 7.58887 0
M  V30 14391 N 1365.76 -1.381 -0.759346 0
M  V30 14392 C 1366.71 -1.34866 -1.87296 0
M  V30 14393 C 1367.68 -0.212139 -1.6474 0
M  V30 14394 O 1368.87 -0.403464 -1.86485 0
M  V30 14395 C 1366.01 -1.17383 -3.24523 0
M  V30 14396 C 1365.12 -2.40372 -3.5895 0
M  V30 14397 C 1364.25 -2.15665 -4.8545 0
M  V30 14398 C 1363.29 -3.34455 -5.12646 0
M  V30 14399 N 1362.43 -3.0922 -6.30339 0
M  V30 14400 H 1367.27 -2.30072 -1.89396 0
M  V30 14401 H 1364.81 -1.14314 -0.925788 0
M  V30 14402 H 1366.77 -1.05264 -4.03702 0
M  V30 14403 H 1365.4 -0.258182 -3.21766 0
M  V30 14404 H 1364.45 -2.63185 -2.74659 0
M  V30 14405 H 1365.76 -3.28926 -3.74978 0
M  V30 14406 H 1364.91 -2.00649 -5.7256 0
M  V30 14407 H 1363.65 -1.24467 -4.7155 0
M  V30 14408 H 1362.66 -3.49997 -4.24007 0
M  V30 14409 H 1363.88 -4.26521 -5.28448 0
M  V30 14410 H 1361.83 -2.20664 -6.17773 0
M  V30 14411 H 1361.75 -3.91321 -6.46841 0
M  V30 14412 H 1363.01 -2.97847 -7.20352 0
M  V30 14413 N 1367.24 0.986894 -1.22875 0
M  V30 14414 C 1368.52 1.70121 -0.965311 0
M  V30 14415 C 1368.9 2.04648 0.517924 0
M  V30 14416 O 1368.25 1.73453 1.48749 0
M  V30 14417 C 1368.46 2.94738 -1.86897 0
M  V30 14418 C 1369.81 3.6739 -2.12861 0
M  V30 14419 O 1370.83 3.04758 -1.84394 0
M  V30 14420 O 1369.69 4.8009 -2.61106 0
M  V30 14421 H 1366.78 0.742817 -0.363527 0
M  V30 14422 H 1369.33 1.0427 -1.33887 0
M  V30 14423 H 1368.1 2.65771 -2.87196 0
M  V30 14424 H 1367.72 3.68327 -1.49736 0
M  V30 14425 N 1368.72 1.0394 1.18466 0
M  V30 14426 C 1369.63 0.639714 2.2571 0
M  V30 14427 C 1370.65 -0.333431 1.70775 0
M  V30 14428 O 1371.82 -0.188676 2.00514 0
M  V30 14429 C 1368.89 0.007559 3.46699 0
M  V30 14430 C 1367.95 1.02955 4.16772 0
M  V30 14431 C 1367.18 0.427464 5.31985 0
M  V30 14432 O 1367.4 -0.766684 5.65224 0
M  V30 14433 O 1366.34 1.15553 5.90704 0
M  V30 14434 H 1370.16 1.53316 2.6216 0
M  V30 14435 H 1367.75 0.810206 1.25523 0
M  V30 14436 H 1369.63 -0.344404 4.1999 0
M  V30 14437 H 1368.31 -0.859727 3.12074 0
M  V30 14438 H 1367.21 1.43328 3.45554 0
M  V30 14439 H 1368.55 1.86756 4.55393 0
M  V30 14440 N 1370.2 -1.34667 0.818693 0
M  V30 14441 C 1371.16 -2.27908 0.243037 0
M  V30 14442 C 1372.16 -1.50106 -0.576622 0
M  V30 14443 O 1373.35 -1.69701 -0.393342 0
M  V30 14444 C 1370.48 -3.34455 -0.659759 0
M  V30 14445 H 1371.68 -2.80332 1.06555 0
M  V30 14446 H 1369.23 -1.44727 0.590237 0
M  V30 14447 H 1369.96 -2.87238 -1.50549 0
M  V30 14448 H 1369.75 -3.92031 -0.073567 0
M  V30 14449 H 1371.24 -4.04016 -1.05646 0
M  V30 14450 N 1371.68 -0.573274 -1.46804 0
M  V30 14451 C 1372.9 -0.0605984 -2.06811 0
M  V30 14452 C 1373.32 1.24024 -1.4235 0
M  V30 14453 O 1372.68 1.7477 -0.525515 0
M  V30 14454 C 1372.73 0.121828 -3.61295 0
M  V30 14455 O 1372.45 -1.12751 -4.23342 0
M  V30 14456 C 1373.95 0.669941 -4.38208 0
M  V30 14457 H 1371.17 -0.0531498 -0.668892 0
M  V30 14458 H 1373.71 -0.791259 -1.88572 0
M  V30 14459 H 1371.87 0.802674 -3.78993 0
M  V30 14460 H 1372.28 -0.935361 -5.16092 0
M  V30 14461 H 1373.76 0.746806 -5.46925 0
M  V30 14462 H 1374.23 1.68483 -4.05598 0
M  V30 14463 H 1374.84 0.0242721 -4.25293 0
M  V30 14464 N 1373.15 1.5451 -0.310553 0
M  V30 14465 C 1374.4 2.00623 0.296343 0
M  V30 14466 C 1374.73 1.19855 1.52802 0
M  V30 14467 O 1374.01 0.277468 1.92511 0
M  V30 14468 C 1374.29 3.54305 0.643448 0
M  V30 14469 C 1374.14 4.45807 -0.598029 0
M  V30 14470 C 1375.46 4.14958 1.46623 0
M  V30 14471 H 1372.58 0.729303 0.106236 0
M  V30 14472 H 1375.22 1.85196 -0.424549 0
M  V30 14473 H 1373.37 3.67581 1.25762 0
M  V30 14474 H 1375.05 4.44421 -1.23643 0
M  V30 14475 H 1373.29 4.16014 -1.22944 0
M  V30 14476 H 1373.96 5.51124 -0.310883 0
M  V30 14477 H 1376.44 4.05176 0.947199 0
M  V30 14478 H 1375.31 5.22627 1.67787 0
M  V30 14479 H 1375.57 3.67445 2.45839 0
M  V30 14480 N 1374.63 0.0384594 1.57553 0
M  V30 14481 C 1375.58 -0.958199 2.11946 0
M  V30 14482 C 1376.58 -1.33073 1.04823 0
M  V30 14483 O 1377.78 -1.31187 1.23247 0
M  V30 14484 H 1374.16 -0.326819 0.677269 0
M  V30 14485 H 1376.13 -0.474211 2.94608 0
M  V30 14486 C 1374.88 -2.22821 2.6692 0
M  V30 14487 H 1374.2 -1.95032 3.49002 0
M  V30 14488 H 1375.64 -2.90746 3.08614 0
M  V30 14489 C 1374.1 -2.96429 1.60098 0
M  V30 14490 O 1374.63 -3.88892 1.00628 0
M  V30 14491 N 1372.83 -2.58931 1.3192 0
M  V30 14492 H 1372.38 -1.83818 1.80468 0
M  V30 14493 H 1372.34 -3.0849 0.60674 0
M  V30 14494 N 1376.11 -1.55841 -0.234795 0
M  V30 14495 C 1377.02 -1.94476 -1.31211 0
M  V30 14496 C 1378.04 -0.846782 -1.52005 0
M  V30 14497 O 1379.21 -1.14922 -1.65393 0
M  V30 14498 C 1376.28 -2.24213 -2.64442 0
M  V30 14499 C 1375.34 -3.47508 -2.52065 0
M  V30 14500 C 1374.57 -3.75817 -3.78942 0
M  V30 14501 O 1374.8 -3.06007 -4.81369 0
M  V30 14502 O 1373.73 -4.69328 -3.76848 0
M  V30 14503 H 1377.56 -2.8626 -1.01434 0
M  V30 14504 H 1375.14 -1.42879 -0.436563 0
M  V30 14505 H 1377.02 -2.44594 -3.4315 0
M  V30 14506 H 1375.7 -1.35605 -2.93927 0
M  V30 14507 H 1374.6 -3.32421 -1.71602 0
M  V30 14508 H 1375.94 -4.36457 -2.27523 0
M  V30 14509 N 1377.59 0.500963 -1.49426 0
M  V30 14510 C 1378.52 1.62019 -1.60701 0
M  V30 14511 C 1379.5 1.56072 -0.456092 0
M  V30 14512 O 1380.68 1.76128 -0.671642 0
M  V30 14513 C 1377.81 3.00532 -1.56199 0
M  V30 14514 C 1376.86 3.2474 -2.76489 0
M  V30 14515 S 1377.69 3.07859 -4.38159 0
M  V30 14516 C 1378.85 4.48767 -4.36301 0
M  V30 14517 H 1379.08 1.5221 -2.55381 0
M  V30 14518 H 1376.61 0.686122 -1.38317 0
M  V30 14519 H 1378.57 3.80402 -1.54287 0
M  V30 14520 H 1377.23 3.07757 -0.628067 0
M  V30 14521 H 1376.42 4.25858 -2.69558 0
M  V30 14522 H 1376.03 2.52593 -2.75813 0
M  V30 14523 H 1378.32 5.40854 -4.08023 0
M  V30 14524 H 1379.26 4.60748 -5.37696 0
M  V30 14525 H 1379.67 4.29448 -3.6638 0
M  V30 14526 N 1379.07 1.38501 0.752011 0
M  V30 14527 C 1380.48 1.19733 1.05529 0
M  V30 14528 C 1380.68 0.047088 2.01445 0
M  V30 14529 O 1379.74 -0.606645 2.45104 0
M  V30 14530 C 1381.05 2.52439 1.63386 0
M  V30 14531 C 1382.6 2.59136 1.7555 0
M  V30 14532 C 1383.08 3.92022 2.36819 0
M  V30 14533 N 1384.57 3.9357 2.44248 0
M  V30 14534 C 1385.3 4.93154 2.92553 0
M  V30 14535 N 1384.8 6.03135 3.40882 0
M  V30 14536 N 1386.59 4.80543 2.91607 0
M  V30 14537 H 1378.74 2.12085 0.115543 0
M  V30 14538 H 1381 0.941134 0.113888 0
M  V30 14539 H 1380.71 3.37072 1.00376 0
M  V30 14540 H 1380.58 2.70947 2.62427 0
M  V30 14541 H 1382.97 1.74897 2.37687 0
M  V30 14542 H 1383.05 2.44494 0.752092 0
M  V30 14543 H 1382.7 4.76684 1.75314 0
M  V30 14544 H 1382.63 4.03976 3.37803 0
M  V30 14545 H 1385.12 3.14133 2.10068 0
M  V30 14546 H 1385.43 6.7505 3.76201 0
M  V30 14547 H 1383.78 6.06752 3.38935 0
M  V30 14548 H 1386.97 3.93733 2.53163 0
M  V30 14549 H 1387.14 5.58303 3.28941 0
M  V30 14550 N 1380.55 -0.980364 1.23396 0
M  V30 14551 C 1381.96 -1.24658 0.996622 0
M  V30 14552 C 1382.16 -1.9922 -0.302259 0
M  V30 14553 O 1381.22 -2.30906 -1.02169 0
M  V30 14554 C 1382.53 -2.0461 2.20353 0
M  V30 14555 C 1384.08 -2.17749 2.24843 0
M  V30 14556 C 1384.55 -3.01091 3.4512 0
M  V30 14557 N 1386.04 -3.08676 3.4536 0
M  V30 14558 C 1386.78 -3.73487 4.3508 0
M  V30 14559 N 1386.28 -4.40121 5.35038 0
M  V30 14560 N 1388.07 -3.70373 4.22824 0
M  V30 14561 H 1380.22 -0.480851 2.06885 0
M  V30 14562 H 1382.48 -0.275049 0.907222 0
M  V30 14563 H 1382.19 -1.57197 3.14614 0
M  V30 14564 H 1382.06 -3.05359 2.21441 0
M  V30 14565 H 1384.45 -2.64369 1.31122 0
M  V30 14566 H 1384.53 -1.16388 2.27788 0
M  V30 14567 H 1384.17 -2.55168 4.39149 0
M  V30 14568 H 1384.1 -4.02621 3.39417 0
M  V30 14569 H 1386.6 -2.61265 2.73037 0
M  V30 14570 H 1386.91 -4.87354 5.99755 0
M  V30 14571 H 1385.25 -4.38829 5.38938 0
M  V30 14572 H 1388.44 -3.17486 3.43977 0
M  V30 14573 H 1388.62 -4.20601 4.92949 0
M  V30 14574 N 1382.02 -1.04567 -1.17913 0
M  V30 14575 C 1383.3 -0.666082 -1.8391 0
M  V30 14576 C 1383.68 0.854062 -1.93052 0
M  V30 14577 O 1383.03 1.75752 -1.46026 0
M  V30 14578 C 1383.24 -1.34776 -3.21926 0
M  V30 14579 C 1384.59 -1.48177 -3.97905 0
M  V30 14580 O 1385.61 -1.30627 -3.31384 0
M  V30 14581 O 1384.47 -1.76822 -5.17104 0
M  V30 14582 H 1381.56 -0.233694 -0.793294 0
M  V30 14583 H 1384.11 -1.14487 -1.25263 0
M  V30 14584 H 1382.88 -2.38514 -3.10204 0
M  V30 14585 H 1382.5 -0.857914 -3.88234 0
M  V30 14586 N 1383.5 1.34231 -0.825823 0
M  V30 14587 C 1384.74 2.00014 -0.421173 0
M  V30 14588 C 1385.11 1.64039 0.997759 0
M  V30 14589 O 1386.31 2.22688 1.50545 0
M  V30 14590 C 1384.58 3.5197 -0.620643 0
M  V30 14591 S 1386.14 4.37709 -0.309272 0
M  V30 14592 H 1382.95 0.692993 -0.159003 0
M  V30 14593 H 1385.56 1.63471 -1.07227 0
M  V30 14594 H 1384.26 3.7564 -1.65296 0
M  V30 14595 H 1383.79 3.93374 0.0450832 0
M  V30 14596 H 1385.81 4.88407 0.875943 0
M  V30 14597 N 1384.98 0.581051 1.46498 0
M  V30 14598 C 1386.39 0.154032 1.86064 0
M  V30 14599 C 1386.74 -1.28247 1.48483 0
M  V30 14600 O 1385.87 -1.96845 0.898945 0
M  V30 14601 C 1386.46 0.272764 3.377 0
M  V30 14602 C 1385.02 -0.0993724 3.76269 0
M  V30 14603 C 1384.17 0.60947 2.70519 0
M  V30 14604 H 1387.12 0.78937 1.37676 0
M  V30 14605 H 1387.14 -0.502326 3.7717 0
M  V30 14606 H 1386.65 1.31837 3.65021 0
M  V30 14607 H 1384.75 -1.14517 3.54565 0
M  V30 14608 H 1384.87 0.275791 4.78306 0
M  V30 14609 H 1383.23 0.0499083 2.54651 0
M  V30 14610 H 1384.01 1.65669 3.0068 0
M  V30 14611 N 1386.46 -1.54343 0.318742 0
M  V30 14612 C 1387.7 -2.01485 -0.278487 0
M  V30 14613 C 1388.06 -1.20298 -1.50154 0
M  V30 14614 O 1387.35 -0.275803 -1.89605 0
M  V30 14615 C 1387.55 -3.51079 -0.669181 0
M  V30 14616 C 1387.37 -4.46748 0.514464 0
M  V30 14617 C 1386.14 -4.95061 1.01206 0
M  V30 14618 C 1388.34 -4.95852 1.36512 0
M  V30 14619 N 1386.32 -5.74622 2.16061 0
M  V30 14620 C 1387.7 -5.7329 2.36091 0
M  V30 14621 C 1389.75 -4.78004 1.39344 0
M  V30 14622 C 1388.45 -6.3478 3.38301 0
M  V30 14623 C 1390.48 -5.40325 2.40422 0
M  V30 14624 C 1389.84 -6.1761 3.38728 0
M  V30 14625 H 1385.94 -0.77922 -0.0658815 0
M  V30 14626 H 1388.52 -1.89364 0.452687 0
M  V30 14627 H 1386.7 -3.63455 -1.3695 0
M  V30 14628 H 1388.43 -3.84994 -1.24747 0
M  V30 14629 H 1385.18 -4.69984 0.584127 0
M  V30 14630 H 1385.61 -6.19082 2.73983 0
M  V30 14631 H 1390.25 -4.17819 0.64709 0
M  V30 14632 H 1387.97 -6.94088 4.13845 0
M  V30 14633 H 1391.55 -5.28435 2.43409 0
M  V30 14634 H 1390.43 -6.64978 4.15661 0
M  V30 14635 N 1387.94 -0.0468143 -1.5753 0
M  V30 14636 C 1388.88 0.929065 -2.11275 0
M  V30 14637 C 1389.85 1.31166 -1.01905 0
M  V30 14638 O 1391.04 1.40189 -1.29428 0
M  V30 14639 C 1388.18 2.20012 -2.65873 0
M  V30 14640 C 1387.29 1.8724 -3.89314 0
M  V30 14641 C 1386.43 3.08772 -4.32242 0
M  V30 14642 C 1385.46 2.719 -5.48395 0
M  V30 14643 N 1384.6 3.86112 -5.86397 0
M  V30 14644 H 1389.44 0.463854 -2.94368 0
M  V30 14645 H 1386.98 0.217338 -1.45486 0
M  V30 14646 H 1388.94 2.94383 -2.95626 0
M  V30 14647 H 1387.57 2.64118 -1.85584 0
M  V30 14648 H 1386.62 1.03037 -3.6618 0
M  V30 14649 H 1387.93 1.56096 -4.73746 0
M  V30 14650 H 1387.08 3.91446 -4.63525 0
M  V30 14651 H 1385.82 3.4309 -3.46613 0
M  V30 14652 H 1384.83 1.87642 -5.16789 0
M  V30 14653 H 1386.05 2.38779 -6.35737 0
M  V30 14654 H 1384 4.2024 -5.03721 0
M  V30 14655 H 1383.92 3.58652 -6.65511 0
M  V30 14656 H 1385.18 4.69438 -6.22293 0
M  V30 14657 N 1389.41 1.55964 0.226527 0
M  V30 14658 C 1390.66 1.77944 0.94967 0
M  V30 14659 C 1390.98 0.614478 1.85697 0
M  V30 14660 O 1392.18 0.717793 2.6184 0
M  V30 14661 C 1390.64 3.15108 1.73881 0
M  V30 14662 C 1390.25 4.39314 0.877894 0
M  V30 14663 C 1391.99 3.46418 2.45347 0
M  V30 14664 C 1389.9 5.67505 1.6641 0
M  V30 14665 H 1388.83 0.663412 0.35833 0
M  V30 14666 H 1391.48 1.82366 0.203695 0
M  V30 14667 H 1389.86 3.04849 2.52751 0
M  V30 14668 H 1391.03 4.60616 0.130089 0
M  V30 14669 H 1389.35 4.15487 0.2756 0
M  V30 14670 H 1391.95 4.39416 3.0466 0
M  V30 14671 H 1392.29 2.68685 3.17985 0
M  V30 14672 H 1392.82 3.57984 1.73471 0
M  V30 14673 H 1389.56 6.48116 0.981089 0
M  V30 14674 H 1389.08 5.50272 2.38665 0
M  V30 14675 H 1390.76 6.075 2.22605 0
M  V30 14676 N 1390.89 -0.493031 1.4969 0
M  V30 14677 C 1392.12 -1.27517 1.63567 0
M  V30 14678 C 1392.54 -1.85526 0.310105 0
M  V30 14679 O 1391.9 -1.66246 -0.723314 0
M  V30 14680 C 1391.95 -2.37551 2.71296 0
M  V30 14681 O 1391.05 -3.41617 2.31023 0
M  V30 14682 H 1390.39 -0.376116 0.547205 0
M  V30 14683 H 1392.92 -0.589328 1.95929 0
M  V30 14684 H 1392.93 -2.83196 2.93708 0
M  V30 14685 H 1391.61 -1.94697 3.67513 0
M  V30 14686 H 1390.19 -3.01836 2.18974 0
M  V30 14687 N 1392.37 -1.38898 -0.744656 0
M  V30 14688 C 1393.65 -1.2611 -1.49518 0
M  V30 14689 C 1394.03 0.133592 -2.10677 0
M  V30 14690 O 1393.38 1.14394 -1.97804 0
M  V30 14691 C 1393.59 -2.37809 -2.55437 0
M  V30 14692 C 1394.93 -2.76664 -3.22091 0
M  V30 14693 O 1395.96 -2.37187 -2.65746 0
M  V30 14694 O 1394.82 -3.44771 -4.24023 0
M  V30 14695 H 1391.91 -0.493664 -0.663494 0
M  V30 14696 H 1394.46 -1.50748 -0.779304 0
M  V30 14697 H 1393.23 -3.31089 -2.08556 0
M  V30 14698 H 1392.85 -2.14783 -3.34595 0
M  V30 14699 N 1393.85 0.973806 -1.23914 0
M  V30 14700 C 1394.76 2.10138 -1.04304 0
M  V30 14701 C 1395.77 1.73994 0.0143888 0
M  V30 14702 O 1396.95 2.00572 -0.182481 0
M  V30 14703 C 1394.02 3.40673 -0.643639 0
M  V30 14704 C 1393.08 3.90802 -1.77686 0
M  V30 14705 C 1392.31 5.15108 -1.39642 0
M  V30 14706 O 1392.53 5.69695 -0.283546 0
M  V30 14707 O 1391.47 5.59468 -2.21988 0
M  V30 14708 H 1395.29 2.29574 -1.9882 0
M  V30 14709 H 1392.88 1.08524 -1.02679 0
M  V30 14710 H 1394.76 4.19178 -0.432145 0
M  V30 14711 H 1393.43 3.22551 0.272458 0
M  V30 14712 H 1392.34 3.13385 -2.04305 0
M  V30 14713 H 1393.67 4.1339 -2.67151 0
M  V30 14714 N 1395.33 1.05191 1.17357 0
M  V30 14715 C 1396.24 0.663617 2.25018 0
M  V30 14716 C 1397.25 -0.315299 1.71119 0
M  V30 14717 O 1398.43 -0.167398 2.00703 0
M  V30 14718 C 1395.49 0.0443307 3.46672 0
M  V30 14719 C 1394.55 1.07369 4.15656 0
M  V30 14720 C 1393.79 0.483864 5.31502 0
M  V30 14721 O 1394.01 -0.706692 5.66005 0
M  V30 14722 O 1392.94 1.21812 5.89445 0
M  V30 14723 H 1396.77 1.56088 2.60519 0
M  V30 14724 H 1394.36 0.823474 1.24657 0
M  V30 14725 H 1396.24 -0.299839 4.20332 0
M  V30 14726 H 1394.91 -0.826579 3.12969 0
M  V30 14727 H 1393.82 1.46985 3.44015 0
M  V30 14728 H 1395.15 1.91575 4.53387 0
M  V30 14729 N 1396.8 -1.33791 0.83293 0
M  V30 14730 C 1398.05 -1.97233 0.422127 0
M  V30 14731 C 1398.37 -1.66738 -1.02264 0
M  V30 14732 O 1399.57 -2.23747 -1.53783 0
M  V30 14733 C 1398.03 -3.5295 0.703872 0
M  V30 14734 C 1397.64 -3.92329 2.16292 0
M  V30 14735 C 1399.38 -4.22973 0.359727 0
M  V30 14736 C 1397.29 -5.40999 2.38903 0
M  V30 14737 H 1396.22 -0.738082 0.154112 0
M  V30 14738 H 1398.87 -1.52494 1.02068 0
M  V30 14739 H 1397.25 -3.95985 0.0350184 0
M  V30 14740 H 1398.42 -3.6037 2.87176 0
M  V30 14741 H 1396.74 -3.35271 2.46947 0
M  V30 14742 H 1399.34 -5.32297 0.506366 0
M  V30 14743 H 1399.68 -4.10428 -0.696743 0
M  V30 14744 H 1400.21 -3.85449 0.983568 0
M  V30 14745 H 1396.95 -5.58541 3.43093 0
M  V30 14746 H 1396.47 -5.74438 1.72573 0
M  V30 14747 H 1398.15 -6.07809 2.2176 0
M  V30 14748 N 1398.28 -0.588812 -1.46187 0
M  V30 14749 C 1399.51 -0.0825301 -2.06735 0
M  V30 14750 C 1399.93 1.22507 -1.43658 0
M  V30 14751 O 1399.28 1.74203 -0.544022 0
M  V30 14752 C 1399.33 0.083501 -3.61404 0
M  V30 14753 O 1399.05 -1.17235 -4.22123 0
M  V30 14754 C 1400.56 0.623425 -4.38894 0
M  V30 14755 H 1397.78 -0.0602413 -0.66829 0
M  V30 14756 H 1400.32 -0.811215 -1.87722 0
M  V30 14757 H 1398.47 0.762432 -3.79823 0
M  V30 14758 H 1398.89 -0.990047 -5.15071 0
M  V30 14759 H 1400.36 0.688755 -5.47686 0
M  V30 14760 H 1400.84 1.64172 -4.07362 0
M  V30 14761 H 1401.45 -0.0208373 -4.25295 0
M  V30 14762 N 1399.76 1.54172 -0.326923 0
M  V30 14763 C 1400.71 2.24454 0.537501 0
M  V30 14764 C 1401.68 1.23658 1.10896 0
M  V30 14765 O 1402.86 1.52348 1.14868 0
M  V30 14766 C 1400 3.00839 1.69085 0
M  V30 14767 C 1399.12 4.16459 1.1483 0
M  V30 14768 C 1398.25 4.80368 2.26761 0
M  V30 14769 C 1397.29 5.88085 1.69771 0
M  V30 14770 N 1396.43 6.45842 2.75378 0
M  V30 14771 H 1401.27 2.97921 -0.0684022 0
M  V30 14772 H 1398.8 1.4703 -0.0455287 0
M  V30 14773 H 1400.76 3.43375 2.36959 0
M  V30 14774 H 1399.39 2.297 2.26799 0
M  V30 14775 H 1398.44 3.78683 0.361004 0
M  V30 14776 H 1399.76 4.93986 0.69132 0
M  V30 14777 H 1398.91 5.25889 3.02533 0
M  V30 14778 H 1397.65 4.02228 2.75796 0
M  V30 14779 H 1396.65 5.41963 0.924985 0
M  V30 14780 H 1397.88 6.68123 1.21609 0
M  V30 14781 H 1395.82 5.70574 3.23699 0
M  V30 14782 H 1395.74 7.18792 2.34253 0
M  V30 14783 H 1397.01 6.96018 3.50969 0
M  V30 14784 N 1401.24 0.0551678 1.57503 0
M  V30 14785 C 1402.19 -0.935665 2.12951 0
M  V30 14786 C 1403.18 -1.31954 1.06229 0
M  V30 14787 O 1404.39 -1.29873 1.24632 0
M  V30 14788 H 1400.76 -0.319618 0.680697 0
M  V30 14789 H 1402.73 -0.442937 2.95094 0
M  V30 14790 C 1401.48 -2.19977 2.69268 0
M  V30 14791 H 1400.8 -1.91319 3.51051 0
M  V30 14792 H 1402.24 -2.87456 3.11681 0
M  V30 14793 C 1400.7 -2.94714 1.63233 0
M  V30 14794 O 1401.23 -3.87803 1.04747 0
M  V30 14795 N 1399.44 -2.57518 1.34659 0
M  V30 14796 H 1398.99 -1.81894 1.82407 0
M  V30 14797 H 1398.94 -3.07829 0.639425 0
M  V30 14798 N 1402.72 -1.56081 -0.218252 0
M  V30 14799 C 1404.13 -1.49147 -0.568098 0
M  V30 14800 C 1404.33 -0.750893 -1.86986 0
M  V30 14801 O 1403.39 -0.291904 -2.50807 0
M  V30 14802 C 1404.7 -2.93717 -0.644272 0
M  V30 14803 C 1406.25 -3.04256 -0.734677 0
M  V30 14804 C 1406.72 -4.50191 -0.842167 0
M  V30 14805 N 1408.22 -4.54247 -0.906302 0
M  V30 14806 C 1408.95 -5.64448 -1.00924 0
M  V30 14807 N 1408.45 -6.84394 -1.07592 0
M  V30 14808 N 1410.24 -5.52308 -1.04463 0
M  V30 14809 H 1402.39 -2.02656 0.635935 0
M  V30 14810 H 1404.65 -0.921262 0.223563 0
M  V30 14811 H 1404.36 -3.50861 0.242721 0
M  V30 14812 H 1404.23 -3.45798 -1.50678 0
M  V30 14813 H 1406.62 -2.47174 -1.61211 0
M  V30 14814 H 1406.7 -2.55339 0.153563 0
M  V30 14815 H 1406.35 -5.07891 0.0308214 0
M  V30 14816 H 1406.28 -4.96817 -1.74587 0
M  V30 14817 H 1408.77 -3.67868 -0.864954 0
M  V30 14818 H 1409.08 -7.6413 -1.15433 0
M  V30 14819 H 1407.42 -6.87099 -1.045 0
M  V30 14820 H 1410.62 -4.57528 -0.989218 0
M  V30 14821 H 1410.79 -6.38223 -1.1214 0
M  V30 14822 N 1404.2 0.485086 -1.49949 0
M  V30 14823 C 1405.44 1.23999 -1.60474 0
M  V30 14824 C 1405.77 1.91904 -0.297736 0
M  V30 14825 O 1405.05 1.81472 0.699857 0
M  V30 14826 C 1405.33 2.2946 -2.77525 0
M  V30 14827 C 1405.19 1.65952 -4.18067 0
M  V30 14828 C 1406.5 3.30893 -2.90169 0
M  V30 14829 H 1403.62 0.449462 -0.584083 0
M  V30 14830 H 1406.27 0.535795 -1.82289 0
M  V30 14831 H 1404.42 2.89521 -2.59056 0
M  V30 14832 H 1406.09 1.09596 -4.48092 0
M  V30 14833 H 1404.33 0.963079 -4.22974 0
M  V30 14834 H 1405 2.42521 -4.9587 0
M  V30 14835 H 1407.48 2.8084 -3.07031 0
M  V30 14836 H 1406.35 4.02027 -3.73718 0
M  V30 14837 H 1406.61 3.94178 -2.0019 0
M  V30 14838 N 1405.67 1.39291 0.737279 0
M  V30 14839 C 1406.62 1.37829 1.85127 0
M  V30 14840 C 1407.59 0.238321 1.64381 0
M  V30 14841 O 1408.78 0.433081 1.8582 0
M  V30 14842 C 1405.92 1.22531 3.22615 0
M  V30 14843 C 1405.03 2.46052 3.55081 0
M  V30 14844 C 1404.16 2.2336 4.81958 0
M  V30 14845 C 1403.2 3.42569 5.0726 0
M  V30 14846 N 1402.34 3.19209 6.2534 0
M  V30 14847 H 1407.18 2.33056 1.85712 0
M  V30 14848 H 1404.72 1.15772 0.907484 0
M  V30 14849 H 1406.67 1.11673 4.01976 0
M  V30 14850 H 1405.3 0.30934 3.21314 0
M  V30 14851 H 1404.36 2.67521 2.70438 0
M  V30 14852 H 1405.67 3.3485 3.69698 0
M  V30 14853 H 1404.82 2.09732 5.69295 0
M  V30 14854 H 1403.56 1.31953 4.6951 0
M  V30 14855 H 1402.57 3.56698 4.18386 0
M  V30 14856 H 1403.79 4.34874 5.21595 0
M  V30 14857 H 1401.74 2.30464 6.14184 0
M  V30 14858 H 1401.65 4.01562 6.40534 0
M  V30 14859 H 1402.92 3.09269 7.15523 0
M  V30 14860 N 1407.15 -0.967221 1.24429 0
M  V30 14861 C 1408.38 -1.75053 1.11226 0
M  V30 14862 C 1408.8 -1.85162 -0.331139 0
M  V30 14863 O 1408.16 -1.32288 -1.23974 0
M  V30 14864 C 1408.21 -3.14882 1.75733 0
M  V30 14865 O 1407.31 -3.99371 1.02842 0
M  V30 14866 H 1406.65 -0.538078 0.389061 0
M  V30 14867 H 1409.18 -1.21325 1.64746 0
M  V30 14868 H 1409.19 -3.65402 1.81509 0
M  V30 14869 H 1407.87 -3.06839 2.80754 0
M  V30 14870 H 1406.44 -3.57854 1.04856 0
M  V30 14871 N 1408.63 -1.05812 -1.16797 0
M  V30 14872 C 1409.56 -0.685778 -2.23202 0
M  V30 14873 C 1410.54 0.319428 -1.67074 0
M  V30 14874 O 1411.73 0.195635 -1.93212 0
M  V30 14875 C 1408.86 -0.0662958 -3.47237 0
M  V30 14876 C 1407.81 -0.996943 -4.16227 0
M  V30 14877 C 1407.14 -0.241015 -5.34157 0
M  V30 14878 C 1408.44 -2.32384 -4.67755 0
M  V30 14879 H 1410.13 -1.57535 -2.54604 0
M  V30 14880 H 1407.68 -0.758909 -1.22379 0
M  V30 14881 H 1409.63 0.206024 -4.20896 0
M  V30 14882 H 1408.35 0.858263 -3.15121 0
M  V30 14883 H 1407.01 -1.25393 -3.44488 0
M  V30 14884 H 1406.66 0.686508 -4.98293 0
M  V30 14885 H 1406.36 -0.861188 -5.81255 0
M  V30 14886 H 1407.88 0.0238739 -6.10595 0
M  V30 14887 H 1409.3 -2.11099 -5.3302 0
M  V30 14888 H 1407.69 -2.89855 -5.25456 0
M  V30 14889 H 1408.76 -2.958 -3.84227 0
M  V30 14890 N 1410.11 1.33347 -0.840014 0
M  V30 14891 C 1411.52 1.50615 -0.52795 0
M  V30 14892 C 1411.72 1.77993 0.944493 0
M  V30 14893 O 1410.78 1.84087 1.72824 0
M  V30 14894 C 1412.09 2.66001 -1.40228 0
M  V30 14895 C 1413.64 2.79886 -1.40117 0
M  V30 14896 C 1414.12 3.98335 -2.26038 0
M  V30 14897 N 1415.61 4.05572 -2.23753 0
M  V30 14898 C 1416.34 4.96422 -2.86972 0
M  V30 14899 N 1415.84 5.9238 -3.59247 0
M  V30 14900 N 1417.63 4.89428 -2.76436 0
M  V30 14901 H 1409.78 1.13839 -1.79317 0
M  V30 14902 H 1412.04 0.559772 -0.765088 0
M  V30 14903 H 1411.75 2.52453 -2.44868 0
M  V30 14904 H 1411.62 3.61434 -1.07914 0
M  V30 14905 H 1414.01 2.92865 -0.362487 0
M  V30 14906 H 1414.09 1.85211 -1.76439 0
M  V30 14907 H 1413.74 3.86115 -3.29966 0
M  V30 14908 H 1413.67 4.92257 -1.87057 0
M  V30 14909 H 1416.16 3.36899 -1.71195 0
M  V30 14910 H 1416.47 6.58367 -4.04688 0
M  V30 14911 H 1414.82 5.92451 -3.63354 0
M  V30 14912 H 1418.01 4.13428 -2.19534 0
M  V30 14913 H 1418.18 5.60032 -3.25989 0
M  V30 14914 N 1411.59 0.596556 1.45873 0
M  V30 14915 C 1412.52 -0.166704 2.28593 0
M  V30 14916 C 1413.53 -0.84231 1.39316 0
M  V30 14917 O 1414.72 -0.709548 1.63792 0
M  V30 14918 C 1411.82 -1.25641 3.1475 0
M  V30 14919 C 1410.99 -0.67006 4.32237 0
M  V30 14920 C 1410.05 -1.64924 4.99686 0
M  V30 14921 O 1409.08 -1.17986 5.56838 0
M  V30 14922 N 1410.28 -2.98355 4.9796 0
M  V30 14923 H 1413.04 0.543045 2.94739 0
M  V30 14924 H 1410.61 0.435274 1.55939 0
M  V30 14925 H 1412.6 -1.91104 3.56737 0
M  V30 14926 H 1411.17 -1.86883 2.50586 0
M  V30 14927 H 1410.39 0.162375 3.93865 0
M  V30 14928 H 1411.68 -0.258345 5.08144 0
M  V30 14929 H 1411.07 -3.39101 4.52799 0
M  V30 14930 H 1409.63 -3.5927 5.43846 0
M  V30 14931 N 1413.06 -1.53996 0.335095 0
M  V30 14932 C 1414.31 -2.01069 -0.264388 0
M  V30 14933 C 1414.64 -1.22271 -1.50876 0
M  V30 14934 O 1413.92 -0.30806 -1.92045 0
M  V30 14935 C 1414.2 -3.55283 -0.587 0
M  V30 14936 C 1414.05 -4.44799 0.668877 0
M  V30 14937 C 1415.37 -4.17238 -1.40003 0
M  V30 14938 H 1412.49 -0.730901 -0.0946202 0
M  V30 14939 H 1415.13 -1.84497 0.453958 0
M  V30 14940 H 1413.28 -3.69536 -1.19899 0
M  V30 14941 H 1414.96 -4.42398 1.30698 0
M  V30 14942 H 1413.2 -4.14005 1.29547 0
M  V30 14943 H 1413.87 -5.5056 0.398523 0
M  V30 14944 H 1416.35 -4.06631 -0.88262 0
M  V30 14945 H 1415.22 -5.2523 -1.59451 0
M  V30 14946 H 1415.48 -3.71309 -2.39962 0
M  V30 14947 N 1414.54 -0.0635198 -1.57472 0
M  V30 14948 C 1415.96 0.293084 -1.56886 0
M  V30 14949 C 1416.16 1.70603 -1.07224 0
M  V30 14950 O 1415.21 2.41584 -0.734388 0
M  V30 14951 C 1416.53 0.110286 -3.00498 0
M  V30 14952 C 1418.07 0.180453 -3.12479 0
M  V30 14953 C 1418.55 0.0260354 -4.57993 0
M  V30 14954 N 1420.04 0.0819109 -4.63128 0
M  V30 14955 C 1420.78 -0.0132764 -5.73398 0
M  V30 14956 N 1420.27 -0.161514 -6.92612 0
M  V30 14957 N 1422.06 0.0431948 -5.62083 0
M  V30 14958 H 1414.22 -0.98706 -1.88072 0
M  V30 14959 H 1416.48 -0.384232 -0.866643 0
M  V30 14960 H 1416.18 -0.864378 -3.40913 0
M  V30 14961 H 1416.06 0.866117 -3.67122 0
M  V30 14962 H 1418.45 1.1456 -2.71956 0
M  V30 14963 H 1418.53 -0.606342 -2.4851 0
M  V30 14964 H 1418.17 -0.935839 -4.99204 0
M  V30 14965 H 1418.1 0.832131 -5.19984 0
M  V30 14966 H 1420.59 0.195229 -3.77395 0
M  V30 14967 H 1420.9 -0.226517 -7.72468 0
M  V30 14968 H 1419.25 -0.196766 -6.94721 0
M  V30 14969 H 1422.44 0.157648 -4.67834 0
M  V30 14970 H 1422.61 -0.0344435 -6.47991 0
M  V30 14971 N 1416.02 1.56195 0.209972 0
M  V30 14972 C 1416.95 1.96378 1.26324 0
M  V30 14973 C 1417.93 0.833606 1.48273 0
M  V30 14974 O 1419.12 1.0968 1.60262 0
M  V30 14975 C 1416.25 2.29048 2.61064 0
M  V30 14976 C 1415.2 3.44665 2.53752 0
M  V30 14977 C 1414.53 3.6297 3.92628 0
M  V30 14978 C 1415.83 4.79297 2.07536 0
M  V30 14979 H 1417.52 2.8461 0.929379 0
M  V30 14980 H 1415.07 1.36931 0.445627 0
M  V30 14981 H 1417.02 2.55752 3.34916 0
M  V30 14982 H 1415.74 1.37682 2.96161 0
M  V30 14983 H 1414.4 3.18028 1.82356 0
M  V30 14984 H 1414.05 2.68961 4.25052 0
M  V30 14985 H 1413.75 4.40741 3.88614 0
M  V30 14986 H 1415.27 3.92035 4.68125 0
M  V30 14987 H 1416.69 5.05131 2.71138 0
M  V30 14988 H 1415.08 5.60433 2.14557 0
M  V30 14989 H 1416.15 4.73877 1.02802 0
M  V30 14990 N 1417.5 -0.477127 1.50204 0
M  V30 14991 C 1418.45 -1.59664 1.69145 0
M  V30 14992 C 1419.44 -1.59971 0.557294 0
M  V30 14993 O 1420.65 -1.64192 0.737623 0
M  V30 14994 H 1417.02 -0.529706 0.533775 0
M  V30 14995 H 1418.99 -1.40848 2.63067 0
M  V30 14996 C 1417.74 -2.97647 1.79726 0
M  V30 14997 H 1417.06 -2.98127 2.66383 0
M  V30 14998 H 1418.5 -3.75453 1.97006 0
M  V30 14999 C 1416.96 -3.32422 0.547464 0
M  V30 15000 O 1417.49 -4.00454 -0.316115 0
M  V30 15001 N 1415.7 -2.87788 0.40328 0
M  V30 15002 H 1415.25 -2.32598 1.10706 0
M  V30 15003 H 1415.2 -3.11421 -0.431797 0
M  V30 15004 N 1418.98 -1.3968 -0.729882 0
M  V30 15005 C 1419.89 -1.41094 -1.87429 0
M  V30 15006 C 1420.9 -0.305142 -1.71303 0
M  V30 15007 O 1422.08 -0.54744 -1.93817 0
M  V30 15008 C 1419.14 -1.25786 -3.23077 0
M  V30 15009 C 1418.2 -2.46382 -3.5156 0
M  V30 15010 C 1417.44 -2.31795 -4.80735 0
M  V30 15011 O 1417.66 -1.32415 -5.54818 0
M  V30 15012 O 1416.59 -3.20883 -5.09232 0
M  V30 15013 H 1420.42 -2.37571 -1.89192 0
M  V30 15014 H 1418.01 -1.2085 -0.878389 0
M  V30 15015 H 1419.89 -1.19402 -4.0413 0
M  V30 15016 H 1418.56 -0.324065 -3.22074 0
M  V30 15017 H 1417.47 -2.58343 -2.70573 0
M  V30 15018 H 1418.8 -3.38473 -3.57347 0
M  V30 15019 N 1420.45 0.960609 -1.2494 0
M  V30 15020 C 1421.7 1.69884 -1.08731 0
M  V30 15021 C 1422.02 1.92018 0.372602 0
M  V30 15022 O 1423.22 2.6348 0.655018 0
M  V30 15023 C 1421.68 3.05815 -1.8975 0
M  V30 15024 C 1421.29 2.91498 -3.40196 0
M  V30 15025 C 1423.03 3.83462 -1.82092 0
M  V30 15026 C 1420.94 4.22783 -4.13532 0
M  V30 15027 H 1419.87 0.637087 -0.403281 0
M  V30 15028 H 1422.52 1.06987 -1.49084 0
M  V30 15029 H 1420.9 3.69582 -1.42216 0
M  V30 15030 H 1422.07 2.367 -3.9536 0
M  V30 15031 H 1420.39 2.27312 -3.48882 0
M  V30 15032 H 1422.99 4.8069 -2.34181 0
M  V30 15033 H 1423.33 4.08782 -0.787597 0
M  V30 15034 H 1423.86 3.26435 -2.27344 0
M  V30 15035 H 1420.6 4.02653 -5.17253 0
M  V30 15036 H 1420.12 4.77369 -3.63152 0
M  V30 15037 H 1421.8 4.91361 -4.2092 0
M  V30 15038 N 1421.93 1.0643 1.16234 0
M  V30 15039 C 1423.18 0.782998 1.87075 0
M  V30 15040 C 1423.51 -0.688852 1.81572 0
M  V30 15041 O 1422.79 -1.50478 1.23234 0
M  V30 15042 C 1423.07 1.27997 3.36584 0
M  V30 15043 C 1422.92 2.81568 3.5077 0
M  V30 15044 C 1424.24 0.888975 4.31028 0
M  V30 15045 H 1421.36 0.28591 0.679282 0
M  V30 15046 H 1424 1.32046 1.36615 0
M  V30 15047 H 1422.15 0.822756 3.79688 0
M  V30 15048 H 1423.82 3.35508 3.16595 0
M  V30 15049 H 1422.07 3.2023 2.92635 0
M  V30 15050 H 1422.74 3.11406 4.55774 0
M  V30 15051 H 1425.21 1.28279 3.95833 0
M  V30 15052 H 1424.09 1.26416 5.34144 0
M  V30 15053 H 1424.35 -0.205973 4.4162 0
M  V30 15054 N 1423.41 -1.329 0.847073 0
M  V30 15055 C 1424.34 -2.31546 0.301422 0
M  V30 15056 C 1425.32 -1.59342 -0.595317 0
M  V30 15057 O 1426.51 -1.87188 -0.517151 0
M  V30 15058 C 1423.64 -3.43423 -0.517454 0
M  V30 15059 C 1422.59 -4.27055 0.284195 0
M  V30 15060 C 1421.92 -5.30624 -0.658944 0
M  V30 15061 C 1423.22 -5.00123 1.50578 0
M  V30 15062 H 1424.91 -2.77433 1.12567 0
M  V30 15063 H 1422.46 -1.3338 0.542739 0
M  V30 15064 H 1424.41 -4.11467 -0.909543 0
M  V30 15065 H 1423.13 -2.96246 -1.37499 0
M  V30 15066 H 1421.79 -3.60648 0.657944 0
M  V30 15067 H 1421.44 -4.79702 -1.51311 0
M  V30 15068 H 1421.14 -5.87464 -0.12662 0
M  V30 15069 H 1422.66 -6.01533 -1.04837 0
M  V30 15070 H 1424.08 -5.6089 1.18641 0
M  V30 15071 H 1422.48 -5.66652 1.97549 0
M  V30 15072 H 1423.55 -4.28424 2.27115 0
M  V30 15073 N 1424.89 -0.604284 -1.45555 0
M  V30 15074 C 1426.17 -0.0303285 -1.95576 0
M  V30 15075 C 1426.55 1.43661 -1.54676 0
M  V30 15076 O 1425.89 2.13747 -0.807731 0
M  V30 15077 C 1426.1 -0.22497 -3.48274 0
M  V30 15078 C 1427.45 -0.104042 -4.24473 0
M  V30 15079 O 1428.48 -0.154919 -3.55863 0
M  V30 15080 O 1427.33 0.0136297 -5.46498 0
M  V30 15081 H 1424.43 0.0376106 -0.826144 0
M  V30 15082 H 1426.97 -0.674114 -1.55736 0
M  V30 15083 H 1425.75 -1.24391 -3.71002 0
M  V30 15084 H 1425.37 0.454234 -3.94997 0
M  V30 15085 N 1426.37 1.53816 -0.343257 0
M  V30 15086 C 1427.6 2.05028 0.254375 0
M  V30 15087 C 1428 1.21793 1.44786 0
M  V30 15088 O 1427.35 0.246075 1.82044 0
M  V30 15089 C 1427.41 3.5194 0.733364 0
M  V30 15090 C 1427.07 4.5573 -0.340434 0
M  V30 15091 C 1428.07 5.06261 -1.18304 0
M  V30 15092 C 1425.76 4.99862 -0.494277 0
M  V30 15093 C 1427.75 5.99504 -2.16503 0
M  V30 15094 C 1425.44 5.92916 -1.47967 0
M  V30 15095 C 1426.43 6.42625 -2.3135 0
M  V30 15096 O 1426.12 7.33848 -3.28211 0
M  V30 15097 H 1425.85 0.673922 0.0529695 0
M  V30 15098 H 1428.41 1.99387 -0.493352 0
M  V30 15099 H 1426.64 3.55044 1.53233 0
M  V30 15100 H 1428.33 3.86124 1.25151 0
M  V30 15101 H 1429.09 4.7293 -1.07527 0
M  V30 15102 H 1424.97 4.60772 0.144904 0
M  V30 15103 H 1428.52 6.38227 -2.81624 0
M  V30 15104 H 1424.41 6.25662 -1.588 0
M  V30 15105 H 1425.18 7.51781 -3.23679 0
M  V30 15106 N 1427.84 0.0718701 1.57436 0
M  V30 15107 C 1429.07 -0.609701 1.98236 0
M  V30 15108 C 1429.49 -1.6235 0.949959 0
M  V30 15109 O 1428.85 -1.81103 -0.0844281 0
M  V30 15110 C 1428.9 -1.2547 3.38068 0
M  V30 15111 O 1428 -2.37055 3.37459 0
M  V30 15112 H 1427.35 -0.15679 0.645223 0
M  V30 15113 H 1429.88 0.146407 2.04076 0
M  V30 15114 H 1429.89 -1.60152 3.75254 0
M  V30 15115 H 1428.56 -0.511842 4.12738 0
M  V30 15116 H 1427.14 -2.04165 3.12043 0
M  V30 15117 N 1429.32 -1.56304 -0.201686 0
M  V30 15118 C 1430.74 -1.49741 -0.552247 0
M  V30 15119 C 1430.94 -0.770683 -1.86179 0
M  V30 15120 O 1429.99 -0.318489 -2.50483 0
M  V30 15121 C 1431.31 -2.94384 -0.613083 0
M  V30 15122 C 1432.86 -3.05018 -0.702365 0
M  V30 15123 C 1433.33 -4.51058 -0.794371 0
M  V30 15124 N 1434.82 -4.55183 -0.858072 0
M  V30 15125 C 1435.56 -5.65487 -0.949317 0
M  V30 15126 N 1435.05 -6.85497 -1.00327 0
M  V30 15127 N 1436.85 -5.53385 -0.985995 0
M  V30 15128 H 1429 -2.01971 0.657394 0
M  V30 15129 H 1431.26 -0.918839 0.233322 0
M  V30 15130 H 1430.97 -3.50584 0.279921 0
M  V30 15131 H 1430.84 -3.47376 -1.47002 0
M  V30 15132 H 1433.23 -2.4887 -1.5858 0
M  V30 15133 H 1433.31 -2.55161 0.180636 0
M  V30 15134 H 1432.95 -5.07829 0.0846883 0
M  V30 15135 H 1432.88 -4.98641 -1.69308 0
M  V30 15136 H 1435.37 -3.68765 -0.825888 0
M  V30 15137 H 1435.69 -7.65312 -1.07322 0
M  V30 15138 H 1434.03 -6.88169 -0.972061 0
M  V30 15139 H 1437.22 -4.58552 -0.940635 0
M  V30 15140 H 1437.39 -6.39376 -1.05365 0
M  V30 15141 N 1430.8 0.469154 -1.50455 0
M  V30 15142 C 1432.08 1.23033 -1.5206 0
M  V30 15143 C 1432.46 2.09412 -0.266388 0
M  V30 15144 O 1431.81 2.15837 0.750099 0
M  V30 15145 C 1432.02 2.05969 -2.81741 0
M  V30 15146 C 1433.36 2.64093 -3.32476 0
M  V30 15147 O 1434.39 2.1621 -2.83075 0
M  V30 15148 O 1433.25 3.51341 -4.18595 0
M  V30 15149 H 1430.34 0.55841 -0.610006 0
M  V30 15150 H 1432.89 0.480818 -1.62746 0
M  V30 15151 H 1431.66 1.42327 -3.64498 0
M  V30 15152 H 1431.28 2.8805 -2.74067 0
M  V30 15153 N 1432.28 1.40065 0.722464 0
M  V30 15154 C 1433.24 1.39544 1.81825 0
M  V30 15155 C 1434.24 0.290385 1.58156 0
M  V30 15156 O 1435.43 0.54894 1.65325 0
M  V30 15157 C 1432.56 1.18041 3.19811 0
M  V30 15158 H 1433.76 2.37063 1.83687 0
M  V30 15159 H 1431.31 1.25813 0.927404 0
M  V30 15160 H 1432.04 0.212536 3.23603 0
M  V30 15161 H 1431.83 1.98079 3.38389 0
M  V30 15162 H 1433.32 1.20447 3.99853 0
M  V30 15163 N 1433.76 -0.95397 1.25448 0
M  V30 15164 C 1434.72 -2.03231 1.0597 0
M  V30 15165 C 1435.72 -1.60795 0.0122855 0
M  V30 15166 O 1436.91 -1.7233 0.254533 0
M  V30 15167 C 1434.04 -3.35414 0.609105 0
M  V30 15168 H 1435.24 -2.21943 2.01696 0
M  V30 15169 H 1432.79 -1.13115 1.07864 0
M  V30 15170 H 1433.52 -3.22398 -0.350723 0
M  V30 15171 H 1433.31 -3.67564 1.36526 0
M  V30 15172 H 1434.8 -4.14664 0.49428 0
M  V30 15173 N 1435.24 -1.07045 -1.15668 0
M  V30 15174 C 1436.17 -0.709413 -2.22463 0
M  V30 15175 C 1437.15 0.30169 -1.67403 0
M  V30 15176 O 1438.33 0.175131 -1.93409 0
M  V30 15177 C 1435.46 -0.103121 -3.47147 0
M  V30 15178 C 1434.42 -1.04103 -4.15146 0
M  V30 15179 C 1433.74 -0.297656 -5.33871 0
M  V30 15180 C 1435.04 -2.37332 -4.65264 0
M  V30 15181 H 1436.74 -1.60227 -2.52918 0
M  V30 15182 H 1434.28 -0.771846 -1.21567 0
M  V30 15183 H 1436.23 0.161371 -4.21091 0
M  V30 15184 H 1434.96 0.824792 -3.16014 0
M  V30 15185 H 1433.62 -1.2904 -3.43139 0
M  V30 15186 H 1433.27 0.633618 -4.98993 0
M  V30 15187 H 1432.97 -0.922789 -5.80309 0
M  V30 15188 H 1434.49 -0.0408892 -6.10586 0
M  V30 15189 H 1435.9 -2.1674 -5.30751 0
M  V30 15190 H 1434.3 -2.95412 -5.22352 0
M  V30 15191 H 1435.37 -2.99859 -3.81068 0
M  V30 15192 N 1436.71 1.32449 -0.85411 0
M  V30 15193 C 1437.96 1.96537 -0.453451 0
M  V30 15194 C 1438.28 1.68344 0.995982 0
M  V30 15195 O 1439.48 2.26166 1.50204 0
M  V30 15196 C 1437.94 3.51785 -0.759934 0
M  V30 15197 C 1437.55 3.88838 -2.22506 0
M  V30 15198 C 1439.29 4.22347 -0.426973 0
M  V30 15199 C 1437.2 5.37129 -2.47479 0
M  V30 15200 H 1436.13 0.735537 -0.165835 0
M  V30 15201 H 1438.78 1.50851 -1.04481 0
M  V30 15202 H 1437.16 3.95879 -0.0980116 0
M  V30 15203 H 1438.33 3.55756 -2.92873 0
M  V30 15204 H 1436.65 3.31299 -2.52249 0
M  V30 15205 H 1439.25 5.31424 -0.590986 0
M  V30 15206 H 1439.59 4.11485 0.631359 0
M  V30 15207 H 1440.12 3.83835 -1.04477 0
M  V30 15208 H 1436.86 5.53012 -3.51935 0
M  V30 15209 H 1436.38 5.71619 -1.8169 0
M  V30 15210 H 1438.06 6.04204 -2.31401 0
M  V30 15211 N 1438.19 0.611994 1.45232 0
M  V30 15212 C 1439.44 0.109073 2.02506 0
M  V30 15213 C 1439.77 -1.25876 1.47881 0
M  V30 15214 O 1439.05 -1.83131 0.65524 0
M  V30 15215 C 1439.33 0.0749288 3.60022 0
M  V30 15216 C 1439.18 1.47374 4.24972 0
M  V30 15217 C 1440.5 -0.610602 4.35844 0
M  V30 15218 H 1437.62 0.0411101 0.735853 0
M  V30 15219 H 1440.26 0.78481 1.73034 0
M  V30 15220 H 1438.41 -0.500511 3.85262 0
M  V30 15221 H 1440.08 2.0966 4.10902 0
M  V30 15222 H 1438.33 2.03319 3.83202 0
M  V30 15223 H 1439 1.40206 5.33897 0
M  V30 15224 H 1441.47 -0.121445 4.15923 0
M  V30 15225 H 1440.35 -0.603614 5.45571 0
M  V30 15226 H 1440.61 -1.6775 4.09038 0
M  V30 15227 N 1439.67 -1.53632 0.351409 0
M  V30 15228 C 1440.92 -2.00222 -0.243731 0
M  V30 15229 C 1441.23 -1.24305 -1.51022 0
M  V30 15230 O 1442.44 -1.61411 -2.18309 0
M  V30 15231 C 1440.89 -3.56619 -0.48487 0
M  V30 15232 C 1440.5 -4.414 0.766173 0
M  V30 15233 C 1442.25 -4.11603 -1.03844 0
M  V30 15234 C 1440.15 -5.89321 0.4954 0
M  V30 15235 H 1439.08 -0.74801 -0.0948534 0
M  V30 15236 H 1441.73 -1.77433 0.467957 0
M  V30 15237 H 1440.12 -3.75505 -1.25746 0
M  V30 15238 H 1441.29 -4.34288 1.54047 0
M  V30 15239 H 1439.6 -3.97448 1.24194 0
M  V30 15240 H 1442.2 -5.19736 -1.25611 0
M  V30 15241 H 1442.54 -3.65311 -1.99634 0
M  V30 15242 H 1443.08 -3.96459 -0.326363 0
M  V30 15243 H 1439.82 -6.39863 1.42324 0
M  V30 15244 H 1439.34 -5.99317 -0.240662 0
M  V30 15245 H 1441.02 -6.46897 0.115584 0
M  V30 15246 N 1441.15 -0.0802183 -1.57396 0
M  V30 15247 C 1442.38 0.595754 -1.98137 0
M  V30 15248 C 1442.79 1.62638 -0.958871 0
M  V30 15249 O 1442.15 1.82422 0.0534316 0
M  V30 15250 C 1442.2 1.2568 -3.38949 0
M  V30 15251 O 1441.92 0.267417 -4.37283 0
M  V30 15252 C 1443.42 2.0198 -3.94612 0
M  V30 15253 H 1440.64 0.160853 -0.651435 0
M  V30 15254 H 1443.18 -0.155111 -2.03911 0
M  V30 15255 H 1441.34 1.9587 -3.34236 0
M  V30 15256 H 1441.75 0.742695 -5.19215 0
M  V30 15257 H 1443.23 2.43613 -4.95335 0
M  V30 15258 H 1443.7 2.87973 -3.31614 0
M  V30 15259 H 1444.31 1.36639 -4.02753 0
M  V30 15260 N 1442.63 1.56409 0.193394 0
M  V30 15261 C 1443.56 1.97707 1.24234 0
M  V30 15262 C 1444.54 0.849286 1.47381 0
M  V30 15263 O 1445.72 1.11374 1.59089 0
M  V30 15264 C 1442.85 2.31804 2.5862 0
M  V30 15265 C 1441.81 3.47337 2.50082 0
M  V30 15266 C 1441.13 3.67114 3.88756 0
M  V30 15267 C 1442.43 4.81472 2.02441 0
M  V30 15268 H 1444.13 2.8558 0.89914 0
M  V30 15269 H 1441.67 1.37396 0.431078 0
M  V30 15270 H 1443.62 2.5929 3.32185 0
M  V30 15271 H 1442.35 1.40816 2.94684 0
M  V30 15272 H 1441.01 3.19944 1.78973 0
M  V30 15273 H 1440.66 2.73454 4.22175 0
M  V30 15274 H 1440.36 4.44838 3.83918 0
M  V30 15275 H 1441.88 3.96978 4.6394 0
M  V30 15276 H 1443.29 5.07978 2.65766 0
M  V30 15277 H 1441.69 5.62677 2.08601 0
M  V30 15278 H 1442.76 4.74941 0.977704 0
M  V30 15279 N 1444.1 -0.461169 1.50702 0
M  V30 15280 C 1445.51 -1.04177 1.54932 0
M  V30 15281 C 1445.87 -1.92894 0.358648 0
M  V30 15282 O 1444.99 -2.09876 -0.527346 0
M  V30 15283 C 1445.59 -1.8961 2.80773 0
M  V30 15284 C 1444.14 -2.42761 2.87652 0
M  V30 15285 C 1443.29 -1.21356 2.49335 0
M  V30 15286 H 1446.24 -0.243379 1.56823 0
M  V30 15287 H 1446.26 -2.74794 2.63189 0
M  V30 15288 H 1445.78 -1.25014 3.67414 0
M  V30 15289 H 1443.88 -3.10881 2.05386 0
M  V30 15290 H 1443.99 -2.77189 3.90772 0
M  V30 15291 H 1442.35 -1.55146 2.01995 0
M  V30 15292 H 1443.14 -0.584069 3.38295 0
M  V30 15293 N 1445.58 -1.40446 -0.715026 0
M  V30 15294 C 1446.83 -1.38059 -1.47046 0
M  V30 15295 C 1447.14 0.0139125 -1.95595 0
M  V30 15296 O 1448.35 0.160398 -2.71026 0
M  V30 15297 C 1446.81 -2.42646 -2.65802 0
M  V30 15298 C 1446.41 -3.8791 -2.2412 0
M  V30 15299 C 1448.16 -2.49367 -3.43535 0
M  V30 15300 C 1446.06 -4.84092 -3.39719 0
M  V30 15301 H 1444.99 -0.513341 -0.552265 0
M  V30 15302 H 1447.65 -1.66185 -0.778126 0
M  V30 15303 H 1446.03 -2.07621 -3.37208 0
M  V30 15304 H 1447.2 -4.32082 -1.6013 0
M  V30 15305 H 1445.52 -3.8467 -1.5943 0
M  V30 15306 H 1448.11 -3.18414 -4.29554 0
M  V30 15307 H 1448.46 -1.52436 -3.87388 0
M  V30 15308 H 1448.99 -2.83386 -2.79173 0
M  V30 15309 H 1445.73 -5.82358 -3.00898 0
M  V30 15310 H 1445.25 -4.44584 -4.02623 0
M  V30 15311 H 1446.93 -5.03939 -4.05776 0
M  V30 15312 N 1447.06 0.947303 -1.25952 0
M  V30 15313 C 1448.31 1.68945 -1.10915 0
M  V30 15314 C 1448.63 1.91848 0.349216 0
M  V30 15315 O 1447.9 1.5108 1.24706 0
M  V30 15316 H 1446.48 0.626086 -0.407462 0
M  V30 15317 H 1449.14 1.13854 -1.58187 0
M  V30 15318 H 1448.24 2.6657 -1.62317 0
M  V30 15319 N 1448.54 1.07657 1.15099 0
M  V30 15320 C 1449.95 0.802696 1.37945 0
M  V30 15321 C 1450.15 -0.591622 1.92619 0
M  V30 15322 O 1449.21 -1.34979 2.13394 0
M  V30 15323 C 1450.52 1.87907 2.34759 0
M  V30 15324 C 1452.07 1.90418 2.48415 0
M  V30 15325 C 1452.55 2.97148 3.48521 0
M  V30 15326 N 1454.04 2.96271 3.56059 0
M  V30 15327 C 1454.77 3.75498 4.33346 0
M  V30 15328 N 1454.27 4.64583 5.1394 0
M  V30 15329 N 1456.06 3.63831 4.28466 0
M  V30 15330 H 1448.21 1.97578 0.779537 0
M  V30 15331 H 1450.48 0.856978 0.405331 0
M  V30 15332 H 1450.18 2.8811 2.01707 0
M  V30 15333 H 1450.06 1.74183 3.34575 0
M  V30 15334 H 1452.44 0.908655 2.80762 0
M  V30 15335 H 1452.52 2.0822 1.48586 0
M  V30 15336 H 1452.17 3.96903 3.16908 0
M  V30 15337 H 1452.1 2.76593 4.48112 0
M  V30 15338 H 1454.59 2.31697 2.98538 0
M  V30 15339 H 1454.9 5.2166 5.70167 0
M  V30 15340 H 1453.25 4.6863 5.13236 0
M  V30 15341 H 1456.44 2.93609 3.6457 0
M  V30 15342 H 1456.61 4.25818 4.8845 0
M  V30 15343 N 1450.02 -1.31994 0.861122 0
M  V30 15344 C 1450.96 -2.28729 0.308476 0
M  V30 15345 C 1451.93 -1.55338 -0.588148 0
M  V30 15346 O 1453.12 -1.8353 -0.52168 0
M  V30 15347 C 1450.26 -3.4158 -0.491621 0
M  V30 15348 C 1449.37 -4.29839 0.431522 0
M  V30 15349 C 1448.51 -5.29826 -0.381836 0
M  V30 15350 C 1447.55 -6.09728 0.538296 0
M  V30 15351 N 1446.68 -7.01696 -0.238274 0
M  V30 15352 H 1451.52 -2.75389 1.13863 0
M  V30 15353 H 1449.06 -1.35485 0.572911 0
M  V30 15354 H 1451.02 -4.05738 -0.971193 0
M  V30 15355 H 1449.65 -2.96054 -1.28654 0
M  V30 15356 H 1448.7 -3.66204 1.02951 0
M  V30 15357 H 1450.01 -4.85658 1.13742 0
M  V30 15358 H 1449.17 -5.99618 -0.924297 0
M  V30 15359 H 1447.9 -4.7464 -1.12107 0
M  V30 15360 H 1446.91 -5.38834 1.09259 0
M  V30 15361 H 1448.13 -6.67 1.27625 0
M  V30 15362 H 1446.08 -6.4893 -0.960486 0
M  V30 15363 H 1446 -7.54896 0.408466 0
M  V30 15364 H 1447.27 -7.75764 -0.762252 0
M  V30 15365 N 1451.49 -0.619688 -1.44906 0
M  V30 15366 C 1452.74 -0.119397 -2.01747 0
M  V30 15367 C 1453.06 1.25904 -1.48907 0
M  V30 15368 O 1452.33 1.83417 -0.688104 0
M  V30 15369 H 1450.91 -0.0411482 -0.745866 0
M  V30 15370 H 1453.58 -0.803813 -1.77552 0
M  V30 15371 H 1452.67 -0.078368 -3.12002 0
M  V30 15372 N 1452.97 1.53444 -0.359552 0
M  V30 15373 C 1453.92 2.25544 0.48977 0
M  V30 15374 C 1454.89 1.25982 1.08248 0
M  V30 15375 O 1456.07 1.54751 1.1161 0
M  V30 15376 C 1453.21 3.04358 1.62666 0
M  V30 15377 C 1452.33 4.18801 1.0597 0
M  V30 15378 C 1451.46 4.85069 2.1652 0
M  V30 15379 C 1450.5 5.91554 1.57259 0
M  V30 15380 N 1449.64 6.51537 2.61617 0
M  V30 15381 H 1454.48 2.97709 -0.13158 0
M  V30 15382 H 1452.02 1.469 -0.0767056 0
M  V30 15383 H 1453.97 3.48324 2.29623 0
M  V30 15384 H 1452.6 2.34459 2.21876 0
M  V30 15385 H 1451.66 3.79364 0.280599 0
M  V30 15386 H 1452.97 4.95341 0.586383 0
M  V30 15387 H 1452.12 5.32187 2.9131 0
M  V30 15388 H 1450.86 4.07988 2.67202 0
M  V30 15389 H 1449.87 5.43803 0.809818 0
M  V30 15390 H 1451.09 6.70552 1.07409 0
M  V30 15391 H 1449.04 5.77312 3.11523 0
M  V30 15392 H 1448.95 7.23599 2.18954 0
M  V30 15393 H 1450.22 7.03306 3.36127 0
M  V30 15394 N 1454.45 0.0885642 1.57351 0
M  V30 15395 C 1455.69 -0.580127 1.95995 0
M  V30 15396 C 1456.05 -1.65754 0.969003 0
M  V30 15397 O 1457.26 -2.38297 1.2437 0
M  V30 15398 C 1455.53 -1.12689 3.3917 0
M  V30 15399 S 1457.09 -1.80836 3.99805 0
M  V30 15400 H 1453.9 -0.189492 0.685284 0
M  V30 15401 H 1456.51 0.166414 1.9479 0
M  V30 15402 H 1455.21 -0.331139 4.09062 0
M  V30 15403 H 1454.74 -1.90941 3.43955 0
M  V30 15404 H 1456.76 -3.09211 3.88076 0
M  V30 15405 N 1455.93 -1.56509 -0.185096 0
M  V30 15406 C 1457.34 -1.71024 -0.748856 0
M  V30 15407 C 1457.69 -0.69681 -1.83409 0
M  V30 15408 O 1456.82 0.144711 -2.15916 0
M  V30 15409 C 1457.41 -3.1008 -1.36513 0
M  V30 15410 C 1455.97 -3.26325 -1.87587 0
M  V30 15411 C 1455.12 -2.66977 -0.749579 0
M  V30 15412 H 1458.07 -1.58649 0.0401175 0
M  V30 15413 H 1458.09 -3.07965 -2.23468 0
M  V30 15414 H 1457.6 -3.83816 -0.575051 0
M  V30 15415 H 1455.7 -2.57522 -2.69283 0
M  V30 15416 H 1455.81 -4.33931 -2.03078 0
M  V30 15417 H 1454.18 -2.26419 -1.16647 0
M  V30 15418 H 1454.96 -3.43288 0.0284301 0
M  V30 15419 N 1457.41 0.45317 -1.50944 0
M  V30 15420 C 1458.63 1.23136 -1.6689 0
M  V30 15421 C 1459.06 1.84639 -0.359185 0
M  V30 15422 O 1458.41 1.68106 0.678983 0
M  V30 15423 C 1458.46 2.30275 -2.77499 0
M  V30 15424 O 1457.57 3.35371 -2.39999 0
M  V30 15425 H 1456.91 0.361475 -0.556984 0
M  V30 15426 H 1459.44 0.537174 -1.97422 0
M  V30 15427 H 1459.45 2.75309 -3.01113 0
M  V30 15428 H 1458.12 1.84885 -3.72546 0
M  V30 15429 H 1456.7 2.95924 -2.26899 0
M  V30 15430 N 1458.88 1.40823 0.707568 0
M  V30 15431 C 1460.11 1.43061 1.50161 0
M  V30 15432 C 1460.53 0.0342144 1.88069 0
M  V30 15433 O 1459.89 -0.959674 1.53818 0
M  V30 15434 C 1459.94 2.33459 2.74826 0
M  V30 15435 O 1459.04 1.78336 3.71847 0
M  V30 15436 H 1458.39 0.48602 0.452417 0
M  V30 15437 H 1460.92 1.85147 0.870742 0
M  V30 15438 H 1460.93 2.48922 3.23267 0
M  V30 15439 H 1459.6 3.34927 2.46571 0
M  V30 15440 H 1458.18 1.7226 3.30728 0
M  V30 15441 N 1460.36 -0.94061 1.26453 0
M  V30 15442 C 1461.29 -2.05667 1.10559 0
M  V30 15443 C 1462.27 -1.70097 0.0106258 0
M  V30 15444 O 1463.46 -1.93338 0.182756 0
M  V30 15445 C 1460.59 -3.3936 0.7384 0
M  V30 15446 C 1459.54 -3.88993 1.78517 0
M  V30 15447 C 1458.87 -5.19343 1.27228 0
M  V30 15448 C 1460.17 -4.13812 3.1868 0
M  V30 15449 H 1461.86 -2.19221 2.03918 0
M  V30 15450 H 1459.41 -1.05339 0.98182 0
M  V30 15451 H 1461.36 -4.16902 0.61409 0
M  V30 15452 H 1460.09 -3.25783 -0.230887 0
M  V30 15453 H 1458.74 -3.13633 1.89816 0
M  V30 15454 H 1458.39 -5.02147 0.292816 0
M  V30 15455 H 1458.09 -5.53521 1.97201 0
M  V30 15456 H 1459.62 -5.99468 1.16065 0
M  V30 15457 H 1461.03 -4.81966 3.10455 0
M  V30 15458 H 1459.43 -4.59273 3.86249 0
M  V30 15459 H 1460.5 -3.19571 3.64695 0
M  V30 15460 N 1461.84 -1.08266 -1.14527 0
M  V30 15461 C 1463.07 -0.831673 -1.89121 0
M  V30 15462 C 1463.48 0.619702 -1.78763 0
M  V30 15463 O 1462.82 1.43748 -1.14377 0
M  V30 15464 C 1462.88 -1.17276 -3.39833 0
M  V30 15465 C 1462.55 -2.62662 -3.73975 0
M  V30 15466 C 1463.54 -3.60913 -3.74216 0
M  V30 15467 C 1461.23 -2.9848 -4.03999 0
M  V30 15468 C 1463.22 -4.93012 -4.04002 0
M  V30 15469 C 1460.91 -4.30773 -4.33448 0
M  V30 15470 C 1461.91 -5.27849 -4.33433 0
M  V30 15471 O 1461.6 -6.57765 -4.6217 0
M  V30 15472 H 1461.33 -0.299687 -0.60594 0
M  V30 15473 H 1463.88 -1.44498 -1.45978 0
M  V30 15474 H 1462.11 -0.502458 -3.83422 0
M  V30 15475 H 1463.8 -0.902831 -3.95732 0
M  V30 15476 H 1464.57 -3.34585 -3.5111 0
M  V30 15477 H 1460.45 -2.23561 -4.03164 0
M  V30 15478 H 1463.99 -5.68776 -4.03906 0
M  V30 15479 H 1459.89 -4.5685 -4.56024 0
M  V30 15480 H 1460.66 -6.63057 -4.79893 0
M  V30 15481 N 1463.32 1.31536 -0.86811 0
M  V30 15482 C 1464.25 2.2663 -0.2672 0
M  V30 15483 C 1465.23 1.51023 0.602574 0
M  V30 15484 O 1466.41 1.80101 0.556408 0
M  V30 15485 C 1463.54 3.32943 0.62183 0
M  V30 15486 C 1462.59 4.26135 -0.176348 0
M  V30 15487 S 1463.42 5.12467 -1.55363 0
M  V30 15488 C 1464.58 6.22296 -0.670673 0
M  V30 15489 H 1464.81 2.7725 -1.07331 0
M  V30 15490 H 1462.34 1.39273 -0.666521 0
M  V30 15491 H 1464.3 3.94667 1.12908 0
M  V30 15492 H 1462.96 2.81081 1.40187 0
M  V30 15493 H 1462.15 5.015 0.501358 0
M  V30 15494 H 1461.76 3.68898 -0.61563 0
M  V30 15495 H 1464.05 6.77395 0.119508 0
M  V30 15496 H 1464.99 6.94215 -1.39539 0
M  V30 15497 H 1465.4 5.63994 -0.239048 0
M  V30 15498 N 1464.8 0.627364 1.44575 0
M  V30 15499 C 1465.76 -0.0700881 2.29093 0
M  V30 15500 C 1466.76 -0.775969 1.40838 0
M  V30 15501 O 1467.95 -0.621129 1.6275 0
M  V30 15502 C 1465.08 -1.10977 3.2233 0
M  V30 15503 H 1466.28 0.673234 2.92246 0
M  V30 15504 H 1463.83 0.387322 1.51425 0
M  V30 15505 H 1464.56 -1.8832 2.64019 0
M  V30 15506 H 1464.35 -0.607587 3.87364 0
M  V30 15507 H 1465.84 -1.59764 3.8583 0
M  V30 15508 N 1466.28 -1.53251 0.367684 0
M  V30 15509 C 1467.52 -2.02269 -0.214246 0
M  V30 15510 C 1467.88 -1.25014 -1.46251 0
M  V30 15511 O 1467.17 -0.335984 -1.88631 0
M  V30 15512 C 1467.36 -3.53031 -0.557149 0
M  V30 15513 C 1467.19 -4.44885 0.656332 0
M  V30 15514 C 1465.96 -4.91591 1.16905 0
M  V30 15515 C 1468.16 -4.91258 1.52218 0
M  V30 15516 N 1466.14 -5.67457 2.34233 0
M  V30 15517 C 1467.51 -5.65488 2.5421 0
M  V30 15518 C 1469.57 -4.73329 1.54481 0
M  V30 15519 C 1468.27 -6.23696 3.58324 0
M  V30 15520 C 1470.3 -5.32403 2.5749 0
M  V30 15521 C 1469.66 -6.06521 3.58206 0
M  V30 15522 H 1465.76 -0.780921 -0.0410579 0
M  V30 15523 H 1468.34 -1.87828 0.512703 0
M  V30 15524 H 1466.51 -3.67628 -1.25317 0
M  V30 15525 H 1468.25 -3.88768 -1.12435 0
M  V30 15526 H 1465 -4.67888 0.733353 0
M  V30 15527 H 1465.42 -6.10052 2.9354 0
M  V30 15528 H 1470.07 -4.15549 0.779688 0
M  V30 15529 H 1467.78 -6.8057 4.35717 0
M  V30 15530 H 1471.37 -5.20423 2.60098 0
M  V30 15531 H 1470.25 -6.51418 4.36606 0
M  V30 15532 N 1467.75 -0.0969077 -1.57302 0
M  V30 15533 C 1468.68 0.858443 -2.17147 0
M  V30 15534 C 1469.66 1.29294 -1.10531 0
M  V30 15535 O 1470.85 1.3595 -1.38676 0
M  V30 15536 C 1467.98 2.11691 -2.75326 0
M  V30 15537 C 1466.93 1.82097 -3.8733 0
M  V30 15538 C 1466.26 3.14787 -4.32219 0
M  V30 15539 C 1467.56 1.10651 -5.10444 0
M  V30 15540 H 1469.25 0.35982 -2.9723 0
M  V30 15541 H 1466.8 0.17163 -1.42974 0
M  V30 15542 H 1468.75 2.78963 -3.15844 0
M  V30 15543 H 1467.48 2.63839 -1.925 0
M  V30 15544 H 1466.14 1.17222 -3.47354 0
M  V30 15545 H 1465.78 3.64826 -3.46281 0
M  V30 15546 H 1465.48 2.95769 -5.07735 0
M  V30 15547 H 1467.01 3.83215 -4.75372 0
M  V30 15548 H 1468.42 1.68036 -5.48121 0
M  V30 15549 H 1466.82 1.01805 -5.91401 0
M  V30 15550 H 1467.89 0.0895634 -4.84817 0
M  V30 15551 N 1469.23 1.56605 0.176793 0
M  V30 15552 C 1470.14 1.99211 1.23903 0
M  V30 15553 C 1471.16 0.902614 1.48758 0
M  V30 15554 O 1472.33 1.20982 1.61014 0
M  V30 15555 C 1469.4 2.33873 2.55938 0
M  V30 15556 C 1468.46 3.56624 2.38994 0
M  V30 15557 C 1467.69 3.89623 3.64733 0
M  V30 15558 O 1467.92 3.23662 4.6968 0
M  V30 15559 O 1466.85 4.82992 3.5917 0
M  V30 15560 H 1470.68 2.89827 0.907398 0
M  V30 15561 H 1468.26 1.44401 0.383234 0
M  V30 15562 H 1470.14 2.57161 3.33836 0
M  V30 15563 H 1468.82 1.46421 2.88691 0
M  V30 15564 H 1467.72 3.38561 1.59146 0
M  V30 15565 H 1469.06 4.446 2.11167 0
M  V30 15566 N 1470.71 -0.445159 1.51182 0
M  V30 15567 C 1471.94 -1.21787 1.67259 0
M  V30 15568 C 1472.35 -1.85206 0.366641 0
M  V30 15569 O 1471.71 -1.70376 -0.654095 0
M  V30 15570 C 1471.76 -2.30765 2.78262 0
M  V30 15571 O 1471.48 -1.69942 4.03796 0
M  V30 15572 C 1472.98 -3.21186 3.05539 0
M  V30 15573 H 1470.2 -0.367364 0.561502 0
M  V30 15574 H 1472.75 -0.528415 1.97555 0
M  V30 15575 H 1470.9 -2.9544 2.50587 0
M  V30 15576 H 1471.32 -2.41905 4.65384 0
M  V30 15577 H 1472.79 -3.93805 3.8681 0
M  V30 15578 H 1473.27 -3.81487 2.17634 0
M  V30 15579 H 1473.87 -2.62221 3.34844 0
M  V30 15580 N 1472.19 -1.41197 -0.700089 0
M  V30 15581 C 1473.12 -1.45456 -1.8266 0
M  V30 15582 C 1474.1 -0.313719 -1.67182 0
M  V30 15583 O 1475.28 -0.524528 -1.86982 0
M  V30 15584 C 1472.41 -1.33161 -3.20758 0
M  V30 15585 C 1471.37 -2.4501 -3.50933 0
M  V30 15586 C 1470.69 -2.17782 -4.88339 0
M  V30 15587 C 1471.99 -3.87352 -3.50365 0
M  V30 15588 H 1473.69 -2.39735 -1.79353 0
M  V30 15589 H 1471.23 -1.1539 -0.861465 0
M  V30 15590 H 1473.19 -1.34754 -3.99274 0
M  V30 15591 H 1471.91 -0.353646 -3.2468 0
M  V30 15592 H 1470.57 -2.42692 -2.74766 0
M  V30 15593 H 1470.22 -1.1834 -4.88881 0
M  V30 15594 H 1469.92 -2.92728 -5.09494 0
M  V30 15595 H 1471.44 -2.21083 -5.6917 0
M  V30 15596 H 1472.86 -3.9141 -4.18893 0
M  V30 15597 H 1471.25 -4.61944 -3.83051 0
M  V30 15598 H 1472.32 -4.15827 -2.4943 0
M  V30 15599 N 1473.67 0.933891 -1.2695 0
M  V30 15600 C 1474.89 1.72042 -1.15828 0
M  V30 15601 C 1475.32 1.85975 0.28193 0
M  V30 15602 O 1474.67 1.35528 1.20423 0
M  V30 15603 C 1474.72 3.10112 -1.84019 0
M  V30 15604 O 1473.83 3.96504 -1.13394 0
M  V30 15605 H 1473.17 0.527573 -0.40319 0
M  V30 15606 H 1475.7 1.16914 -1.67905 0
M  V30 15607 H 1475.71 3.60461 -1.91133 0
M  V30 15608 H 1474.38 2.99287 -2.8879 0
M  V30 15609 H 1472.96 3.54948 -1.14307 0
M  V30 15610 N 1475.14 1.08871 1.13951 0
M  V30 15611 C 1476.08 0.680849 2.18854 0
M  V30 15612 C 1477.09 -0.274456 1.6047 0
M  V30 15613 O 1478.28 -0.0613804 1.78394 0
M  V30 15614 C 1475.38 -0.0182788 3.38895 0
M  V30 15615 C 1474.55 0.957125 4.268 0
M  V30 15616 C 1473.61 0.29245 5.25387 0
M  V30 15617 O 1472.64 0.938329 5.61413 0
M  V30 15618 N 1473.84 -0.955738 5.72578 0
M  V30 15619 H 1476.6 1.58334 2.54461 0
M  V30 15620 H 1474.16 0.975417 1.29218 0
M  V30 15621 H 1476.16 -0.474001 4.01915 0
M  V30 15622 H 1474.73 -0.822932 3.01574 0
M  V30 15623 H 1473.95 1.59156 3.60642 0
M  V30 15624 H 1475.23 1.61792 4.82391 0
M  V30 15625 H 1474.63 -1.50014 5.45447 0
M  V30 15626 H 1473.19 -1.35488 6.37563 0
M  V30 15627 N 1476.62 -1.31073 0.875073 0
M  V30 15628 C 1477.9 -1.91276 0.409015 0
M  V30 15629 C 1478.28 -1.79599 -1.10939 0
M  V30 15630 O 1477.63 -1.2069 -1.94026 0
M  V30 15631 C 1477.84 -3.373 0.896074 0
M  V30 15632 C 1479.18 -4.14397 0.925205 0
M  V30 15633 O 1480.21 -3.46104 0.842069 0
M  V30 15634 O 1479.07 -5.36389 1.0464 0
M  V30 15635 H 1476.16 -0.817755 0.12331 0
M  V30 15636 H 1478.71 -1.39708 0.963322 0
M  V30 15637 H 1477.48 -3.39837 1.93975 0
M  V30 15638 H 1477.1 -3.96307 0.320367 0
M  V30 15639 N 1478.1 -0.635022 -1.4424 0
M  V30 15640 C 1479.03 0.0543561 -2.33437 0
M  V30 15641 C 1480.01 0.830807 -1.48431 0
M  V30 15642 O 1481.2 0.795913 -1.77141 0
M  V30 15643 C 1478.33 1.03391 -3.31553 0
M  V30 15644 C 1477.28 0.368824 -4.26408 0
M  V30 15645 C 1476.61 1.45855 -5.14422 0
M  V30 15646 C 1477.91 -0.727381 -5.1721 0
M  V30 15647 H 1479.6 -0.690489 -2.91329 0
M  V30 15648 H 1477.15 -0.3335 -1.40085 0
M  V30 15649 H 1479.1 1.52495 -3.9284 0
M  V30 15650 H 1477.82 1.80969 -2.71878 0
M  V30 15651 H 1476.48 -0.101605 -3.66459 0
M  V30 15652 H 1476.13 2.22531 -4.51098 0
M  V30 15653 H 1475.83 1.0189 -5.78699 0
M  V30 15654 H 1477.35 1.95132 -5.78581 0
M  V30 15655 H 1478.77 -0.319272 -5.7241 0
M  V30 15656 H 1477.17 -1.09041 -5.9011 0
M  V30 15657 H 1478.24 -1.59292 -4.57989 0
M  V30 15658 N 1479.58 1.53054 -0.375806 0
M  V30 15659 C 1480.99 1.5958 -0.0251765 0
M  V30 15660 C 1481.19 1.39047 1.45836 0
M  V30 15661 O 1480.25 1.20073 2.22123 0
M  V30 15662 C 1481.56 2.96676 -0.490274 0
M  V30 15663 C 1483.11 3.09815 -0.44537 0
M  V30 15664 C 1483.59 4.4934 -0.886442 0
M  V30 15665 N 1485.08 4.55484 -0.84191 0
M  V30 15666 C 1485.81 5.61652 -1.15476 0
M  V30 15667 N 1485.31 6.75526 -1.53741 0
M  V30 15668 N 1487.1 5.51688 -1.07689 0
M  V30 15669 H 1479.25 1.64651 -1.34178 0
M  V30 15670 H 1481.52 0.77278 -0.549104 0
M  V30 15671 H 1481.22 3.16874 -1.52589 0
M  V30 15672 H 1481.1 3.77016 0.11776 0
M  V30 15673 H 1483.48 2.89321 0.581138 0
M  V30 15674 H 1483.56 2.3146 -1.08903 0
M  V30 15675 H 1483.21 4.70573 -1.91111 0
M  V30 15676 H 1483.14 5.26141 -0.219925 0
M  V30 15677 H 1485.63 3.73725 -0.56015 0
M  V30 15678 H 1485.94 7.52489 -1.76012 0
M  V30 15679 H 1484.29 6.76892 -1.57616 0
M  V30 15680 H 1487.48 4.61605 -0.777062 0
M  V30 15681 H 1487.65 6.34329 -1.32403 0
M  V30 15682 N 1481.06 0.105248 1.57248 0
M  V30 15683 C 1482.47 -0.422304 1.81861 0
M  V30 15684 C 1482.82 -1.67508 1.02154 0
M  V30 15685 O 1481.94 -2.14905 0.253961 0
M  V30 15686 C 1482.54 -0.772943 3.29865 0
M  V30 15687 C 1481.1 -1.24519 3.55207 0
M  V30 15688 C 1480.24 -0.246936 2.76198 0
M  V30 15689 H 1483.2 0.330565 1.55219 0
M  V30 15690 H 1483.22 -1.6316 3.43743 0
M  V30 15691 H 1482.73 0.139033 3.87851 0
M  V30 15692 H 1480.83 -2.17453 3.02564 0
M  V30 15693 H 1480.94 -1.20001 4.63828 0
M  V30 15694 H 1479.31 -0.731171 2.43979 0
M  V30 15695 H 1480.09 0.657896 3.36937 0
M  V30 15696 N 1482.53 -1.56697 -0.168486 0
M  V30 15697 C 1483.95 -1.71808 -0.730674 0
M  V30 15698 C 1484.3 -0.716224 -1.8266 0
M  V30 15699 O 1483.42 0.121803 -2.16057 0
M  V30 15700 C 1484.02 -3.1151 -1.33217 0
M  V30 15701 C 1482.58 -3.28297 -1.84115 0
M  V30 15702 C 1481.72 -2.67757 -0.72122 0
M  V30 15703 H 1484.67 -1.58598 0.0569421 0
M  V30 15704 H 1484.69 -3.10318 -2.20189 0
M  V30 15705 H 1484.21 -3.84404 -0.53431 0
M  V30 15706 H 1482.31 -2.60364 -2.66536 0
M  V30 15707 H 1482.42 -4.3606 -1.98464 0
M  V30 15708 H 1480.78 -2.27644 -1.14239 0
M  V30 15709 H 1481.57 -3.43239 0.0648388 0
M  V30 15710 N 1484.01 0.437135 -1.51416 0
M  V30 15711 C 1485.26 1.18831 -1.64338 0
M  V30 15712 C 1485.59 1.9086 -0.358638 0
M  V30 15713 O 1484.87 1.83607 0.641769 0
M  V30 15714 C 1485.15 2.20515 -2.84685 0
M  V30 15715 C 1485 1.52568 -4.23135 0
M  V30 15716 C 1486.32 3.21494 -3.00549 0
M  V30 15717 H 1483.44 0.430652 -0.598087 0
M  V30 15718 H 1486.08 0.47753 -1.83901 0
M  V30 15719 H 1484.23 2.81132 -2.68136 0
M  V30 15720 H 1485.9 0.952851 -4.51352 0
M  V30 15721 H 1484.15 0.828025 -4.25824 0
M  V30 15722 H 1484.82 2.26623 -5.03335 0
M  V30 15723 H 1487.29 2.7093 -3.1581 0
M  V30 15724 H 1486.17 3.89934 -3.86319 0
M  V30 15725 H 1486.43 3.8761 -2.12629 0
M  V30 15726 N 1485.49 1.41566 0.692592 0
M  V30 15727 C 1486.74 1.40381 1.44831 0
M  V30 15728 C 1487.05 0.0172068 1.95592 0
M  V30 15729 O 1488.26 -0.11726 2.71247 0
M  V30 15730 C 1486.71 2.46844 2.61908 0
M  V30 15731 C 1486.32 3.91426 2.17921 0
M  V30 15732 C 1488.07 2.548 3.39525 0
M  V30 15733 C 1485.97 4.89436 3.31974 0
M  V30 15734 H 1484.9 0.522062 0.544028 0
M  V30 15735 H 1487.55 1.67402 0.751589 0
M  V30 15736 H 1485.94 2.12959 3.33863 0
M  V30 15737 H 1487.11 4.34575 1.53236 0
M  V30 15738 H 1485.43 3.87158 1.5329 0
M  V30 15739 H 1488.02 3.25207 4.24434 0
M  V30 15740 H 1488.37 1.58579 3.84913 0
M  V30 15741 H 1488.9 2.87791 2.74629 0
M  V30 15742 H 1485.64 5.87071 2.91595 0
M  V30 15743 H 1485.16 4.50933 3.95499 0
M  V30 15744 H 1486.84 5.10331 3.97708 0
M  V30 15745 N 1486.97 -0.927146 1.27443 0
M  V30 15746 C 1487.9 -2.04483 1.12735 0
M  V30 15747 C 1488.88 -1.70076 0.0286662 0
M  V30 15748 O 1490.06 -1.93133 0.203252 0
M  V30 15749 C 1487.19 -3.38557 0.774352 0
M  V30 15750 C 1486.15 -3.87078 1.82632 0
M  V30 15751 C 1485.47 -5.17964 1.32729 0
M  V30 15752 C 1486.77 -4.10409 3.23051 0
M  V30 15753 H 1488.47 -2.17046 2.06231 0
M  V30 15754 H 1486.01 -1.04292 0.992937 0
M  V30 15755 H 1487.97 -4.16227 0.658273 0
M  V30 15756 H 1486.69 -3.26009 -0.196321 0
M  V30 15757 H 1485.35 -3.11602 1.93132 0
M  V30 15758 H 1485 -5.01808 0.346059 0
M  V30 15759 H 1484.7 -5.51398 2.03061 0
M  V30 15760 H 1486.22 -5.98203 1.22416 0
M  V30 15761 H 1487.64 -4.78646 3.15549 0
M  V30 15762 H 1486.03 -4.5515 3.91099 0
M  V30 15763 H 1487.1 -3.15685 3.68064 0
M  V30 15764 N 1488.45 -1.09474 -1.13372 0
M  V30 15765 C 1489.7 -0.825968 -1.84013 0
M  V30 15766 C 1490.01 0.650623 -1.84462 0
M  V30 15767 O 1491.21 1.03495 -2.51 0
M  V30 15768 C 1489.67 -1.42769 -3.30371 0
M  V30 15769 C 1489.28 -2.93686 -3.38308 0
M  V30 15770 C 1491.02 -1.23788 -4.0605 0
M  V30 15771 C 1488.93 -3.46942 -4.78942 0
M  V30 15772 H 1487.86 -0.305322 -0.689416 0
M  V30 15773 H 1490.51 -1.31751 -1.27726 0
M  V30 15774 H 1488.89 -0.86384 -3.86463 0
M  V30 15775 H 1490.07 -3.56302 -2.92208 0
M  V30 15776 H 1488.38 -3.11706 -2.76094 0
M  V30 15777 H 1490.98 -1.61031 -5.09876 0
M  V30 15778 H 1491.32 -0.178578 -4.15917 0
M  V30 15779 H 1491.85 -1.76927 -3.56289 0
M  V30 15780 H 1488.59 -4.52495 -4.74267 0
M  V30 15781 H 1488.11 -2.8909 -5.25535 0
M  V30 15782 H 1489.79 -3.44176 -5.47861 0
M  V30 15783 N 1489.92 1.30607 -0.882012 0
M  V30 15784 C 1491.34 1.48859 -0.575599 0
M  V30 15785 C 1491.54 1.80908 0.887388 0
M  V30 15786 O 1490.6 1.89492 1.6688 0
M  V30 15787 C 1491.91 2.61405 -1.48619 0
M  V30 15788 C 1493.46 2.75286 -1.48951 0
M  V30 15789 C 1493.93 3.90942 -2.38596 0
M  V30 15790 N 1495.42 3.98248 -2.36543 0
M  V30 15791 C 1496.16 4.87041 -3.0262 0
M  V30 15792 N 1495.65 5.80651 -3.77911 0
M  V30 15793 N 1497.45 4.80385 -2.91867 0
M  V30 15794 H 1489.6 1.08076 -1.82848 0
M  V30 15795 H 1491.86 0.535148 -0.782509 0
M  V30 15796 H 1491.57 2.44535 -2.52775 0
M  V30 15797 H 1491.44 3.57818 -1.19358 0
M  V30 15798 H 1493.83 2.91564 -0.455477 0
M  V30 15799 H 1493.91 1.79504 -1.82242 0
M  V30 15800 H 1493.55 3.75422 -3.42083 0
M  V30 15801 H 1493.48 4.86057 -2.02623 0
M  V30 15802 H 1495.97 3.31282 -1.81827 0
M  V30 15803 H 1496.29 6.45159 -4.25428 0
M  V30 15804 H 1494.63 5.80592 -3.82019 0
M  V30 15805 H 1497.82 4.06234 -2.32576 0
M  V30 15806 H 1498 5.49377 -3.43641 0
M  V30 15807 N 1491.4 0.642663 1.43901 0
M  V30 15808 C 1492.65 0.151478 2.01532 0
M  V30 15809 C 1492.97 -1.23519 1.50891 0
M  V30 15810 O 1492.24 -1.82299 0.717197 0
M  V30 15811 H 1490.82 0.0530091 0.745117 0
M  V30 15812 H 1493.48 0.831958 1.76251 0
M  V30 15813 H 1492.58 0.127995 3.11837 0
M  V30 15814 N 1492.88 -1.52852 0.383918 0
M  V30 15815 C 1493.83 -2.27828 -0.468762 0
M  V30 15816 C 1494.82 -1.31516 -1.0677 0
M  V30 15817 O 1496.03 -1.49075 -1.0088 0
M  V30 15818 H 1492.4 -0.732552 -0.169917 0
M  V30 15819 H 1494.38 -2.97825 0.185124 0
M  V30 15820 C 1493.12 -3.09378 -1.58683 0
M  V30 15821 H 1492.45 -3.83343 -1.13527 0
M  V30 15822 H 1493.89 -3.64987 -2.15779 0
M  V30 15823 C 1492.35 -2.21354 -2.53976 0
M  V30 15824 O 1492.88 -1.83668 -3.57252 0
M  V30 15825 N 1491.08 -1.85621 -2.23591 0
M  V30 15826 H 1490.63 -2.16467 -1.39642 0
M  V30 15827 H 1490.59 -1.27015 -2.87602 0
M  V30 15828 N 1494.36 -0.113586 -1.5719 0
M  V30 15829 C 1495.29 0.868985 -2.12088 0
M  V30 15830 C 1496.3 1.23362 -1.06233 0
M  V30 15831 O 1497.49 1.18352 -1.33623 0
M  V30 15832 C 1494.59 2.17252 -2.60106 0
M  V30 15833 C 1493.77 1.9804 -3.89999 0
M  V30 15834 C 1492.83 3.12073 -4.23671 0
M  V30 15835 O 1491.85 2.85224 -4.92581 0
M  V30 15836 N 1493.05 4.38358 -3.80556 0
M  V30 15837 H 1495.82 0.399996 -2.97019 0
M  V30 15838 H 1493.38 0.0709947 -1.61744 0
M  V30 15839 H 1495.37 2.92523 -2.79665 0
M  V30 15840 H 1493.94 2.55516 -1.80084 0
M  V30 15841 H 1493.16 1.06993 -3.79402 0
M  V30 15842 H 1494.45 1.82502 -4.74943 0
M  V30 15843 H 1493.85 4.63048 -3.24966 0
M  V30 15844 H 1492.4 5.10518 -4.05234 0
M  V30 15845 N 1495.84 1.56784 0.160173 0
M  V30 15846 C 1496.75 2.00514 1.21783 0
M  V30 15847 C 1497.76 0.918341 1.47792 0
M  V30 15848 O 1498.94 1.22683 1.59721 0
M  V30 15849 C 1496 2.36575 2.53443 0
M  V30 15850 C 1495.07 3.59138 2.35198 0
M  V30 15851 C 1494.3 3.93469 3.6058 0
M  V30 15852 O 1494.52 3.28625 4.6622 0
M  V30 15853 O 1493.46 4.86774 3.54027 0
M  V30 15854 H 1497.28 2.90774 0.876607 0
M  V30 15855 H 1494.87 1.44799 0.367897 0
M  V30 15856 H 1496.75 2.60687 3.31089 0
M  V30 15857 H 1495.42 1.49474 2.87122 0
M  V30 15858 H 1494.33 3.4023 1.55546 0
M  V30 15859 H 1495.66 4.46815 2.0644 0
M  V30 15860 N 1497.32 -0.429099 1.51646 0
M  V30 15861 C 1498.26 -1.54202 1.74139 0
M  V30 15862 C 1499.26 -1.58117 0.607905 0
M  V30 15863 O 1500.46 -1.61763 0.789486 0
M  V30 15864 H 1496.84 -0.512456 0.550357 0
M  V30 15865 H 1498.81 -1.32408 2.67415 0
M  V30 15866 C 1497.56 -2.91779 1.89104 0
M  V30 15867 H 1496.88 -2.89502 2.75733 0
M  V30 15868 H 1498.32 -3.68995 2.08851 0
M  V30 15869 C 1496.78 -3.30512 0.652945 0
M  V30 15870 O 1497.31 -4.01257 -0.188553 0
M  V30 15871 N 1495.52 -2.86359 0.494634 0
M  V30 15872 H 1495.06 -2.28959 1.18049 0
M  V30 15873 H 1495.02 -3.12637 -0.332503 0
M  V30 15874 N 1498.79 -1.41931 -0.685074 0
M  V30 15875 C 1500.04 -1.42062 -1.44728 0
M  V30 15876 C 1500.37 -0.0332072 -1.94172 0
M  V30 15877 O 1499.65 0.940835 -1.70231 0
M  V30 15878 C 1499.93 -2.43634 -2.65168 0
M  V30 15879 C 1499.78 -3.91525 -2.21423 0
M  V30 15880 C 1501.1 -2.42325 -3.67378 0
M  V30 15881 H 1498.22 -0.517321 -0.524927 0
M  V30 15882 H 1500.86 -1.73277 -0.779419 0
M  V30 15883 H 1499.01 -2.17146 -3.22149 0
M  V30 15884 H 1500.69 -4.28956 -1.69689 0
M  V30 15885 H 1498.93 -4.05886 -1.53099 0
M  V30 15886 H 1499.6 -4.58158 -3.07889 0
M  V30 15887 H 1502.08 -2.65857 -3.20093 0
M  V30 15888 H 1500.95 -3.15391 -4.49243 0
M  V30 15889 H 1501.21 -1.44555 -4.17799 0
M  V30 15890 N 1500.27 0.920374 -1.27933 0
M  V30 15891 C 1501.2 2.03882 -1.13817 0
M  V30 15892 C 1502.18 1.70058 -0.0376853 0
M  V30 15893 O 1503.37 1.93023 -0.213492 0
M  V30 15894 C 1500.5 3.38142 -0.792296 0
M  V30 15895 C 1499.45 3.86104 -1.84683 0
M  V30 15896 C 1498.78 5.17253 -1.35474 0
M  V30 15897 C 1500.08 4.0869 -3.25223 0
M  V30 15898 H 1501.77 2.15949 -2.07379 0
M  V30 15899 H 1499.32 1.03764 -0.998454 0
M  V30 15900 H 1501.27 4.15872 -0.680337 0
M  V30 15901 H 1499.99 3.26109 0.179029 0
M  V30 15902 H 1498.65 3.10573 -1.94782 0
M  V30 15903 H 1498.3 5.01618 -0.372666 0
M  V30 15904 H 1498 5.50314 -2.05982 0
M  V30 15905 H 1499.53 5.97545 -1.25587 0
M  V30 15906 H 1500.94 4.76965 -3.18083 0
M  V30 15907 H 1499.34 4.5307 -3.93507 0
M  V30 15908 H 1500.41 3.13729 -3.69733 0
M  V30 15909 N 1501.75 1.10074 1.1279 0
M  V30 15910 C 1502.98 0.862906 1.88047 0
M  V30 15911 C 1503.39 -0.586346 1.79464 0
M  V30 15912 O 1502.75 -1.40402 1.16591 0
M  V30 15913 C 1502.8 1.29784 3.37399 0
M  V30 15914 O 1502.52 2.69026 3.4577 0
M  V30 15915 C 1504.02 1.09336 4.29605 0
M  V30 15916 H 1501.24 0.309981 0.595108 0
M  V30 15917 H 1503.79 1.46444 1.42738 0
M  V30 15918 H 1501.94 0.740056 3.80266 0
M  V30 15919 H 1502.36 2.87532 4.38663 0
M  V30 15920 H 1503.83 1.44687 5.327 0
M  V30 15921 H 1504.31 0.031679 4.39189 0
M  V30 15922 H 1504.91 1.63743 3.92516 0
M  V30 15923 N 1503.23 -1.30138 0.888926 0
M  V30 15924 C 1504.47 -1.95989 0.509365 0
M  V30 15925 C 1504.8 -1.70153 -0.942249 0
M  V30 15926 O 1504.06 -1.00123 -1.68148 0
M  V30 15927 C 1504.36 -3.4975 0.735488 0
M  V30 15928 C 1504.02 -3.95644 2.1628 0
M  V30 15929 C 1502.68 -4.07886 2.55309 0
M  V30 15930 C 1505.04 -4.1952 3.09277 0
M  V30 15931 C 1502.36 -4.41367 3.86539 0
M  V30 15932 C 1504.72 -4.54472 4.40043 0
M  V30 15933 C 1503.38 -4.64923 4.7896 0
M  V30 15934 H 1502.65 -0.717175 0.18639 0
M  V30 15935 H 1505.3 -1.54932 1.12553 0
M  V30 15936 H 1503.6 -3.91783 0.0363165 0
M  V30 15937 H 1505.3 -3.9878 0.421351 0
M  V30 15938 H 1501.89 -3.86624 1.84985 0
M  V30 15939 H 1506.07 -4.09539 2.80342 0
M  V30 15940 H 1501.33 -4.47659 4.16427 0
M  V30 15941 H 1505.5 -4.71897 5.12138 0
M  V30 15942 H 1503.13 -4.90622 5.80685 0
M  V30 15943 N 1504.71 -0.650285 -1.43559 0
M  V30 15944 C 1505.94 -0.169893 -2.059 0
M  V30 15945 C 1506.34 1.16848 -1.48806 0
M  V30 15946 O 1505.69 1.73177 -0.612827 0
M  V30 15947 C 1505.75 -0.00117055 -3.595 0
M  V30 15948 C 1505.41 -1.26438 -4.39161 0
M  V30 15949 C 1506.41 -2.19245 -4.7141 0
M  V30 15950 C 1504.09 -1.50514 -4.79219 0
M  V30 15951 C 1506.09 -3.34424 -5.42623 0
M  V30 15952 C 1503.78 -2.65987 -5.50177 0
M  V30 15953 C 1504.77 -3.57767 -5.81801 0
M  V30 15954 O 1504.46 -4.71223 -6.51309 0
M  V30 15955 H 1504.19 -0.0858397 -0.670528 0
M  V30 15956 H 1506.75 -0.890321 -1.85101 0
M  V30 15957 H 1504.98 0.774599 -3.78863 0
M  V30 15958 H 1506.67 0.436206 -4.03549 0
M  V30 15959 H 1507.43 -2.01885 -4.40985 0
M  V30 15960 H 1503.31 -0.799577 -4.54013 0
M  V30 15961 H 1506.86 -4.06082 -5.67224 0
M  V30 15962 H 1502.75 -2.83282 -5.80019 0
M  V30 15963 H 1503.52 -4.70451 -6.6979 0
M  V30 15964 N 1506.18 1.52647 -0.392018 0
M  V30 15965 C 1507.42 2.03524 0.189041 0
M  V30 15966 C 1507.79 1.27204 1.43816 0
M  V30 15967 O 1508.99 1.6822 2.09656 0
M  V30 15968 C 1507.26 3.54584 0.447779 0
M  V30 15969 S 1508.82 4.27283 0.998734 0
M  V30 15970 H 1505.64 0.709022 0.0530042 0
M  V30 15971 H 1508.24 1.87866 -0.540993 0
M  V30 15972 H 1506.94 4.07718 -0.468401 0
M  V30 15973 H 1506.47 3.74453 1.20616 0
M  V30 15974 H 1508.49 4.40671 2.28086 0
M  V30 15975 N 1507.66 0.121921 1.57128 0
M  V30 15976 C 1508.59 -0.857725 2.12546 0
M  V30 15977 C 1509.61 -1.22797 1.06886 0
M  V30 15978 O 1510.8 -1.17641 1.34249 0
M  V30 15979 C 1507.9 -2.15869 2.61254 0
M  V30 15980 C 1507.07 -1.95969 3.91043 0
M  V30 15981 C 1506.13 -3.09822 4.2532 0
M  V30 15982 O 1505.15 -2.82608 4.94087 0
M  V30 15983 N 1506.36 -4.36333 3.82875 0
M  V30 15984 H 1509.12 -0.384239 2.97227 0
M  V30 15985 H 1506.68 -0.062416 1.6178 0
M  V30 15986 H 1508.67 -2.91035 2.81213 0
M  V30 15987 H 1507.24 -2.54557 1.81437 0
M  V30 15988 H 1506.46 -1.04979 3.79965 0
M  V30 15989 H 1507.75 -1.79981 4.75904 0
M  V30 15990 H 1507.15 -4.61318 3.27417 0
M  V30 15991 H 1505.71 -5.08362 4.07936 0
M  V30 15992 O 1509.18 -1.61491 -0.0173858 0
M  V30 15993 H 1509.87 -1.82947 -0.636397 0
M  V30 END ATOM
M  V30 BEGIN BOND
M  V30 END BOND
M  V30 END CTAB
M  END
$$$$
