drugbank_target|P15151 Poliovirus receptor (DB03203; DB08231)
 OpenBabel12092120503D

  0  0  0     0  0            999 V3000
M  V30 BEGIN CTAB
M  V30 COUNTS 6336 6420 0 0 0
M  V30 BEGIN ATOM
M  V30 1 H -0.908 1.98254 -0.117106 0
M  V30 2 N 0 1.576 0 0
M  V30 3 C 0.933 2.03868 1.02534 0
M  V30 4 C 1.911 0.928543 1.3348 0
M  V30 5 O 3.095 1.19667 1.45644 0
M  V30 6 C 0.222 2.43627 2.35294 0
M  V30 7 C -0.732 3.65373 2.2001 0
M  V30 8 S 0.101 5.13292 1.52614 0
M  V30 9 C 1.257 5.56322 2.86805 0
M  V30 10 H 1.49 2.90518 0.631377 0
M  V30 11 H -0.977 1.52953 0.210867 0
M  V30 12 H 0.981 2.67203 3.11629 0
M  V30 13 H -0.358 1.57376 2.7183 0
M  V30 14 H -1.165 3.90944 3.18086 0
M  V30 15 H -1.563 3.418 1.51819 0
M  V30 16 H 0.729 5.58782 3.83104 0
M  V30 17 H 1.672 6.56266 2.65933 0
M  V30 18 H 2.08 4.83886 2.90714 0
M  V30 19 N 1.4781 -0.272755 1.55222 0
M  V30 20 C 2.4411 -1.32041 1.87344 0
M  V30 21 C 3.4411 -1.42342 0.74803 0
M  V30 22 O 4.6311 -1.41488 1.0162 0
M  V30 23 C 1.7631 -2.70173 2.07893 0
M  V30 24 H 2.9561 -1.04789 2.80997 0
M  V30 25 H 0.5091 -0.51083 1.47717 0
M  V30 26 H 1.2441 -3.02605 1.16622 0
M  V30 27 H 1.0291 -2.64082 2.89833 0
M  V30 28 H 2.5191 -3.45869 2.34017 0
M  V30 29 N 2.9562 -1.48159 -0.537278 0
M  V30 30 C 4.3722 -1.34118 -0.865129 0
M  V30 31 C 4.5722 -0.346678 -1.98495 0
M  V30 32 O 3.6282 0.234715 -2.51407 0
M  V30 33 C 4.9412 -2.73963 -1.23954 0
M  V30 34 C 6.4892 -2.82397 -1.34984 0
M  V30 35 C 6.9642 -4.22928 -1.75772 0
M  V30 36 N 8.4552 -4.25566 -1.82887 0
M  V30 37 C 9.1902 -5.31235 -2.15817 0
M  V30 38 N 8.6862 -6.47189 -2.47222 0
M  V30 39 N 10.4792 -5.18624 -2.16761 0
M  V30 40 H 2.6302 -2.1144 0.201715 0
M  V30 41 H 4.8932 -0.947598 0.0275949 0
M  V30 42 H 4.5992 -3.48264 -0.490381 0
M  V30 43 H 4.4732 -3.0702 -2.19132 0
M  V30 44 H 6.8602 -2.08356 -2.08978 0
M  V30 45 H 6.9412 -2.5297 -0.379448 0
M  V30 46 H 6.5852 -4.97482 -1.02341 0
M  V30 47 H 6.5152 -4.49794 -2.73848 0
M  V30 48 H 9.0062 -3.41924 -1.60924 0
M  V30 49 H 9.3192 -7.23564 -2.71433 0
M  V30 50 H 7.6642 -6.50476 -2.44757 0
M  V30 51 H 10.8552 -4.27056 -1.91679 0
M  V30 52 H 11.0282 -6.01078 -2.42093 0
M  V30 53 N 4.4343 0.785586 -1.36625 0
M  V30 54 C 5.3973 1.87999 -1.31107 0
M  V30 55 C 6.3973 1.59316 -0.217959 0
M  V30 56 O 7.5873 1.67656 -0.472977 0
M  V30 57 C 4.7193 3.24861 -1.03334 0
M  V30 58 H 5.9123 1.94307 -2.2844 0
M  V30 59 H 3.4653 0.983813 -1.21453 0
M  V30 60 H 4.2003 3.24235 -0.0647432 0
M  V30 61 H 3.9853 3.4707 -1.82441 0
M  V30 62 H 5.4753 4.04929 -1.02088 0
M  V30 63 N 5.9124 1.20967 1.01018 0
M  V30 64 C 6.8454 0.907578 2.09376 0
M  V30 65 C 7.8234 -0.142868 1.61971 0
M  V30 66 O 9.0074 -0.0150391 1.88494 0
M  V30 67 C 6.1344 0.361791 3.36762 0
M  V30 68 C 5.1804 1.39423 4.03068 0
M  V30 69 S 6.0134 2.96159 4.4615 0
M  V30 70 C 7.1694 2.43173 5.7673 0
M  V30 71 H 7.4024 1.82519 2.34678 0
M  V30 72 H 4.9354 1.03884 1.14225 0
M  V30 73 H 6.8934 0.0534523 4.10465 0
M  V30 74 H 5.5544 -0.53443 3.0952 0
M  V30 75 H 4.7474 0.961853 4.94737 0
M  V30 76 H 4.3494 1.65038 3.35617 0
M  V30 77 H 6.6414 1.83335 6.52223 0
M  V30 78 H 7.5844 3.33264 6.24773 0
M  V30 79 H 7.9924 1.85069 5.33301 0
M  V30 80 N 7.3905 -1.2043 1.01659 0
M  V30 81 C 8.3535 -2.21433 0.591616 0
M  V30 82 C 9.3535 -1.57203 -0.338226 0
M  V30 83 O 10.5435 -1.73737 -0.126918 0
M  V30 84 C 7.6755 -3.40628 -0.136058 0
M  V30 85 H 8.8685 -2.60545 1.48514 0
M  V30 86 H 6.4215 -1.33893 0.806379 0
M  V30 87 H 7.1565 -3.07019 -1.04449 0
M  V30 88 H 6.9415 -3.88475 0.531917 0
M  V30 89 H 8.4315 -4.15475 -0.420735 0
M  V30 90 N 8.8686 -0.792821 -1.36206 0
M  V30 91 C 9.8316 -0.199459 -2.2833 0
M  V30 92 C 10.8316 0.605189 -1.48977 0
M  V30 93 O 12.0216 0.425685 -1.68919 0
M  V30 94 C 9.1536 0.723523 -3.33134 0
M  V30 95 H 10.3466 -1.01181 -2.82316 0
M  V30 96 H 7.8996 -0.562485 -1.45828 0
M  V30 97 H 8.6346 1.56008 -2.84309 0
M  V30 98 H 8.4196 0.148436 -3.91819 0
M  V30 99 H 9.9096 1.13344 -4.01924 0
M  V30 100 N 10.3467 1.47872 -0.545128 0
M  V30 101 C 11.3097 2.28337 0.198717 0
M  V30 102 C 12.3097 1.36255 0.853888 0
M  V30 103 O 13.4997 1.59003 0.711606 0
M  V30 104 C 10.6317 3.15585 1.28915 0
M  V30 105 H 11.8247 2.95567 -0.507941 0
M  V30 106 H 9.3777 1.53362 -0.301616 0
M  V30 107 H 10.1127 2.53019 2.02859 0
M  V30 108 H 9.8977 3.83337 0.824309 0
M  V30 109 H 11.3877 3.76243 1.81194 0
M  V30 110 N 11.8248 0.280983 1.55075 0
M  V30 111 C 13.0708 -0.327573 2.00745 0
M  V30 112 C 13.4258 -1.53045 1.16598 0
M  V30 113 O 12.7188 -1.90221 0.229451 0
M  V30 114 C 12.9128 -0.754656 3.49342 0
M  V30 115 C 12.7418 0.40529 4.4787 0
M  V30 116 C 11.5118 0.890947 4.97383 0
M  V30 117 C 13.7098 1.24371 4.99035 0
M  V30 118 N 11.6918 2.01975 5.79724 0
M  V30 119 C 13.0628 2.22031 5.7888 0
M  V30 120 C 15.1178 1.27638 4.81262 0
M  V30 121 C 13.8208 3.22709 6.42846 0
M  V30 122 C 15.8468 2.27164 5.46031 0
M  V30 123 C 15.2088 3.23556 6.25692 0
M  V30 124 H 11.3078 -0.0848774 0.77738 0
M  V30 125 H 13.8918 0.406342 1.90413 0
M  V30 126 H 12.0628 -1.45778 3.60005 0
M  V30 127 H 13.7948 -1.34105 3.81835 0
M  V30 128 H 10.5498 0.469262 4.71269 0
M  V30 129 H 10.9738 2.58794 6.25584 0
M  V30 130 H 15.6158 0.544936 4.19274 0
M  V30 131 H 13.3338 3.96784 7.0398 0
M  V30 132 H 16.9198 2.30441 5.34217 0
M  V30 133 H 15.7998 3.99309 6.74924 0
M  V30 134 N 13.3029 -1.57598 0.00835791 0
M  V30 135 C 14.7139 -1.7892 -0.53333 0
M  V30 136 C 15.0649 -0.916609 -1.73473 0
M  V30 137 O 14.1899 -0.121336 -2.1606 0
M  V30 138 C 14.7849 -3.24488 -0.974313 0
M  V30 139 C 13.3439 -3.46878 -1.46125 0
M  V30 140 C 12.4909 -2.74157 -0.416302 0
M  V30 141 H 15.4419 -1.56958 0.234495 0
M  V30 142 H 15.4629 -3.3306 -1.83988 0
M  V30 143 H 14.9749 -3.87972 -0.099718 0
M  V30 144 H 13.0759 -2.8862 -2.35646 0
M  V30 145 H 13.1889 -4.55572 -1.48295 0
M  V30 146 H 11.5529 -2.39022 -0.87981 0
M  V30 147 H 12.3359 -3.40345 0.44947 0
M  V30 148 N 14.781 0.264519 -1.55364 0
M  V30 149 C 15.711 1.33121 -1.91836 0
M  V30 150 C 16.692 1.51101 -0.781192 0
M  V30 151 O 17.877 1.64003 -1.04003 0
M  V30 152 C 15.007 2.68921 -2.19769 0
M  V30 153 C 13.961 2.65661 -3.35571 0
M  V30 154 C 13.287 4.05093 -3.49004 0
M  V30 155 C 14.587 2.24187 -4.71739 0
M  V30 156 H 16.281 1.02844 -2.81182 0
M  V30 157 H 13.827 0.493286 -1.35287 0
M  V30 158 H 15.78 3.43663 -2.43872 0
M  V30 159 H 14.504 3.00799 -1.27231 0
M  V30 160 H 13.163 1.93377 -3.1145 0
M  V30 161 H 12.811 4.34206 -2.53917 0
M  V30 162 H 12.511 4.03804 -4.26868 0
M  V30 163 H 14.035 4.81561 -3.75408 0
M  V30 164 H 15.449 2.88654 -4.9533 0
M  V30 165 H 13.846 2.34044 -5.52579 0
M  V30 166 H 14.916 1.19327 -4.69988 0
M  V30 167 N 16.2591 1.48442 0.529413 0
M  V30 168 C 17.1891 1.65902 1.64313 0
M  V30 169 C 18.1701 0.507897 1.6234 0
M  V30 170 O 19.3551 0.740503 1.79528 0
M  V30 171 C 16.4851 1.69911 3.02898 0
M  V30 172 C 15.4391 2.8453 3.19729 0
M  V30 173 C 14.7651 2.73629 4.59381 0
M  V30 174 C 16.0651 4.25821 3.02447 0
M  V30 175 H 17.7591 2.5914 1.49955 0
M  V30 176 H 15.3051 1.24709 0.719982 0
M  V30 177 H 17.2581 1.80715 3.80684 0
M  V30 178 H 15.9821 0.732524 3.18279 0
M  V30 179 H 14.6411 2.73283 2.44361 0
M  V30 180 H 14.2891 1.74938 4.71599 0
M  V30 181 H 13.9891 3.50541 4.71588 0
M  V30 182 H 15.5131 2.86401 5.39265 0
M  V30 183 H 16.9271 4.37898 3.70024 0
M  V30 184 H 15.3241 5.03735 3.26146 0
M  V30 185 H 16.3941 4.42244 1.98867 0
M  V30 186 N 17.7372 -0.778329 1.37039 0
M  V30 187 C 18.6672 -1.90546 1.34962 0
M  V30 188 C 19.6482 -1.68681 0.219274 0
M  V30 189 O 20.8332 -1.89634 0.418624 0
M  V30 190 C 17.9632 -3.27734 1.14925 0
M  V30 191 C 16.9172 -3.64147 2.24902 0
M  V30 192 C 16.2432 -4.99806 1.89996 0
M  V30 193 C 17.5432 -3.71579 3.67051 0
M  V30 194 H 19.2372 -1.92541 2.29277 0
M  V30 195 H 16.7832 -0.924948 1.10366 0
M  V30 196 H 18.7362 -4.06215 1.12104 0
M  V30 197 H 17.4602 -3.26154 0.170631 0
M  V30 198 H 16.1192 -2.8797 2.26868 0
M  V30 199 H 15.7672 -4.94759 0.906796 0
M  V30 200 H 15.4672 -5.25139 2.63634 0
M  V30 201 H 16.9912 -5.80694 1.88749 0
M  V30 202 H 18.4052 -4.40227 3.67251 0
M  V30 203 H 16.8022 -4.08405 4.39688 0
M  V30 204 H 17.8722 -2.72404 4.01154 0
M  V30 205 N 19.2153 -1.21501 -1.00376 0
M  V30 206 C 20.4613 -1.03452 -1.74429 0
M  V30 207 C 20.7943 0.430764 -1.89362 0
M  V30 208 O 20.0693 1.31962 -1.42886 0
M  V30 209 C 20.3523 -1.73375 -3.15615 0
M  V30 210 C 20.2053 -3.27431 -3.08397 0
M  V30 211 C 21.5243 -1.47732 -4.14564 0
M  V30 212 H 18.6433 -0.377226 -0.633143 0
M  V30 213 H 21.2853 -1.49693 -1.17013 0
M  V30 214 H 19.4353 -1.34064 -3.64636 0
M  V30 215 H 21.1073 -3.76119 -2.67081 0
M  V30 216 H 19.3503 -3.5767 -2.45468 0
M  V30 217 H 20.0213 -3.71524 -4.08258 0
M  V30 218 H 22.4973 -1.8186 -3.74254 0
M  V30 219 H 21.3733 -1.99169 -5.11491 0
M  V30 220 H 21.6343 -0.407589 -4.40217 0
M  V30 221 N 20.6934 1.19889 -1.02296 0
M  V30 222 C 21.6564 2.21116 -0.603351 0
M  V30 223 C 22.6564 1.5738 0.329884 0
M  V30 224 O 23.8464 1.73802 0.117702 0
M  V30 225 C 20.9784 3.40696 0.117992 0
M  V30 226 H 22.1714 2.59754 -1.49893 0
M  V30 227 H 19.7244 1.33463 -0.813468 0
M  V30 228 H 20.4594 3.07569 1.0282 0
M  V30 229 H 20.2444 3.88188 -0.552511 0
M  V30 230 H 21.7344 4.15692 0.398696 0
M  V30 231 N 22.1715 0.800033 1.35784 0
M  V30 232 C 23.1015 0.220184 2.3246 0
M  V30 233 C 24.0825 -0.65073 1.57161 0
M  V30 234 O 25.2675 -0.582359 1.85263 0
M  V30 235 C 22.3975 -0.637353 3.41402 0
M  V30 236 C 21.3515 0.134531 4.27789 0
M  V30 237 C 20.6775 -0.844285 5.27992 0
M  V30 238 C 21.9775 1.32979 5.05088 0
M  V30 239 H 23.6715 1.02787 2.81203 0
M  V30 240 H 21.2175 0.495717 1.35199 0
M  V30 241 H 23.1705 -1.05302 4.08031 0
M  V30 242 H 21.8945 -1.47785 2.91251 0
M  V30 243 H 20.5535 0.531296 3.6273 0
M  V30 244 H 20.2015 -1.68011 4.74111 0
M  V30 245 H 19.9015 -0.332184 5.8666 0
M  V30 246 H 21.4255 -1.2583 5.97494 0
M  V30 247 H 22.8395 0.98934 5.64699 0
M  V30 248 H 21.2365 1.77593 5.7322 0
M  V30 249 H 22.3065 2.11978 4.36111 0
M  V30 250 N 23.6496 -1.47581 0.552962 0
M  V30 251 C 24.5796 -2.32762 -0.185451 0
M  V30 252 C 25.5606 -1.43527 -0.912905 0
M  V30 253 O 26.7456 -1.72388 -0.894201 0
M  V30 254 C 23.8756 -3.25219 -1.21859 0
M  V30 255 C 22.8296 -4.23661 -0.607864 0
M  V30 256 C 22.1556 -5.05413 -1.74533 0
M  V30 257 C 23.4556 -5.20481 0.435582 0
M  V30 258 H 25.1496 -2.94749 0.525684 0
M  V30 259 H 22.6956 -1.41738 0.254251 0
M  V30 260 H 24.6486 -3.8365 -1.7433 0
M  V30 261 H 23.3726 -2.61279 -1.95961 0
M  V30 262 H 22.0316 -3.66451 -0.104489 0
M  V30 263 H 21.6796 -4.3788 -2.47529 0
M  V30 264 H 21.3796 -5.72059 -1.34249 0
M  V30 265 H 22.9036 -5.66701 -2.27338 0
M  V30 266 H 24.3176 -5.733 -0.00290157 0
M  V30 267 H 22.7146 -5.95305 0.757067 0
M  V30 268 H 23.7846 -4.66217 1.33303 0
M  V30 269 N 25.1277 -0.289203 -1.54924 0
M  V30 270 C 26.3737 0.323998 -2.00195 0
M  V30 271 C 26.7067 1.54441 -1.17735 0
M  V30 272 O 25.9817 1.92875 -0.250878 0
M  V30 273 C 26.2647 0.692276 -3.53383 0
M  V30 274 C 26.1177 -0.536457 -4.46589 0
M  V30 275 C 27.4367 1.52335 -4.12895 0
M  V30 276 H 24.5557 0.116289 -0.727768 0
M  V30 277 H 27.1977 -0.398954 -1.85764 0
M  V30 278 H 25.3477 1.30822 -3.65811 0
M  V30 279 H 27.0197 -1.17499 -4.46085 0
M  V30 280 H 25.2627 -1.17192 -4.1767 0
M  V30 281 H 25.9337 -0.234806 -5.515 0
M  V30 282 H 28.4097 1.00302 -4.0383 0
M  V30 283 H 27.2857 1.74982 -5.20262 0
M  V30 284 H 27.5467 2.50886 -3.64018 0
M  V30 285 N 26.6058 1.57591 -0.0167156 0
M  V30 286 C 27.5358 2.12496 0.967858 0
M  V30 287 C 28.5168 1.03807 1.34752 0
M  V30 288 O 29.7018 1.31577 1.42833 0
M  V30 289 C 26.8318 2.64194 2.25431 0
M  V30 290 C 25.7858 3.77559 2.01576 0
M  V30 291 C 25.1118 4.15636 3.36379 0
M  V30 292 C 26.4118 5.04151 1.36489 0
M  V30 293 H 28.1058 2.95013 0.510643 0
M  V30 294 H 25.6518 1.41915 0.244181 0
M  V30 295 H 27.6048 3.01236 2.94678 0
M  V30 296 H 26.3288 1.78821 2.73296 0
M  V30 297 H 24.9878 3.40937 1.34751 0
M  V30 298 H 24.6358 3.27263 3.81979 0
M  V30 299 H 24.3358 4.92022 3.21229 0
M  V30 300 H 25.8598 4.5525 4.06915 0
M  V30 301 H 27.2738 5.38857 1.95718 0
M  V30 302 H 25.6708 5.85453 1.31776 0
M  V30 303 H 26.7408 4.83733 0.336219 0
M  V30 304 N 28.0839 -0.256276 1.55502 0
M  V30 305 C 29.3089 -1.00766 1.81276 0
M  V30 306 C 29.7339 -1.78524 0.59252 0
M  V30 307 O 29.0919 -1.75413 -0.45827 0
M  V30 308 C 29.1399 -1.92869 3.04687 0
M  V30 309 O 28.2439 -3.019 2.80945 0
M  V30 310 H 27.5849 -0.287224 0.598664 0
M  V30 311 H 30.1149 -0.280109 2.02674 0
M  V30 312 H 30.1249 -2.34511 3.33869 0
M  V30 313 H 28.7999 -1.35689 3.93143 0
M  V30 314 H 27.3769 -2.64454 2.62904 0
M  V30 315 N 29.562 -1.4872 -0.521534 0
M  V30 316 C 30.808 -1.58378 -1.27624 0
M  V30 317 C 31.163 -0.258028 -1.90662 0
M  V30 318 O 30.456 0.739917 -1.76736 0
M  V30 319 C 30.65 -2.66497 -2.38148 0
M  V30 320 C 30.479 -4.09456 -1.85945 0
M  V30 321 C 29.249 -4.76495 -1.68168 0
M  V30 322 C 31.447 -4.95353 -1.3831 0
M  V30 323 N 29.429 -6.0384 -1.1068 0
M  V30 324 C 30.8 -6.13012 -0.928238 0
M  V30 325 C 32.855 -4.81512 -1.26692 0
M  V30 326 C 31.558 -7.18354 -0.368701 0
M  V30 327 C 33.584 -5.86984 -0.721368 0
M  V30 328 C 32.946 -7.03857 -0.276623 0
M  V30 329 H 29.045 -0.634045 -0.457724 0
M  V30 330 H 31.629 -1.85639 -0.587049 0
M  V30 331 H 29.8 -2.41043 -3.04553 0
M  V30 332 H 31.532 -2.65791 -3.05184 0
M  V30 333 H 28.287 -4.32962 -1.91939 0
M  V30 334 H 28.711 -6.71778 -0.839217 0
M  V30 335 H 33.353 -3.91487 -1.5968 0
M  V30 336 H 31.071 -8.08096 -0.0265122 0
M  V30 337 H 34.657 -5.78329 -0.634531 0
M  V30 338 H 33.537 -7.84077 0.138947 0
M  V30 339 N 31.0401 0.771051 -1.3745 0
M  V30 340 C 32.4511 1.34737 -1.29239 0
M  V30 341 C 32.8021 1.96109 0.0596908 0
M  V30 342 O 31.9271 1.93865 0.961534 0
M  V30 343 C 32.5221 2.44973 -2.34037 0
M  V30 344 C 31.0811 2.98372 -2.29458 0
M  V30 345 C 30.2281 1.71595 -2.17831 0
M  V30 346 H 33.1791 0.571256 -1.48062 0
M  V30 347 H 33.2001 3.24471 -1.98744 0
M  V30 348 H 32.7121 2.00276 -3.32432 0
M  V30 349 H 30.8131 3.47443 -1.34589 0
M  V30 350 H 30.9261 3.53939 -3.229 0
M  V30 351 H 29.2901 1.94547 -1.64388 0
M  V30 352 H 30.0731 1.29001 -3.18141 0
M  V30 353 N 32.5182 1.22032 0.997298 0
M  V30 354 C 33.9292 1.0397 1.55071 0
M  V30 355 C 34.2802 -0.398192 1.92117 0
M  V30 356 O 33.4052 -1.28254 1.74298 0
M  V30 357 C 34.0002 1.88109 2.81781 0
M  V30 358 C 32.5592 1.74357 3.33581 0
M  V30 359 C 31.7062 1.84846 2.06706 0
M  V30 360 H 34.6572 1.35941 0.818883 0
M  V30 361 H 34.6782 1.39589 3.53971 0
M  V30 362 H 34.1902 2.92754 2.54787 0
M  V30 363 H 32.2912 0.72427 3.65493 0
M  V30 364 H 32.4042 2.56772 4.04481 0
M  V30 365 H 30.7682 1.28238 2.20062 0
M  V30 366 H 31.5512 2.91014 1.82114 0
M  V30 367 N 33.9963 -1.19345 1.0293 0
M  V30 368 C 35.4073 -1.70725 0.755633 0
M  V30 369 C 35.7583 -1.82326 -0.724676 0
M  V30 370 O 34.8833 -1.49471 -1.56484 0
M  V30 371 C 35.4783 -3.10084 1.36503 0
M  V30 372 C 34.0373 -3.58723 1.13994 0
M  V30 373 C 33.1843 -2.35577 1.46283 0
M  V30 374 H 36.1353 -1.0418 1.19718 0
M  V30 375 H 36.1563 -3.72787 0.762217 0
M  V30 376 H 35.6683 -3.01609 2.44241 0
M  V30 377 H 33.7693 -3.72512 0.0807901 0
M  V30 378 H 33.8823 -4.42816 1.82894 0
M  V30 379 H 32.2463 -2.38935 0.88217 0
M  V30 380 H 33.0293 -2.29731 2.55105 0
M  V30 381 N 35.4744 -0.807222 -1.35358 0
M  V30 382 C 36.7224 -0.387122 -1.98358 0
M  V30 383 C 37.0434 1.04942 -1.64354 0
M  V30 384 O 36.3134 1.72615 -0.926339 0
M  V30 385 H 34.8934 -0.140154 -0.733734 0
M  V30 386 H 37.5554 -1.0332 -1.6526 0
M  V30 387 H 36.6514 -0.493352 -3.08176 0
M  V30 388 N 36.9525 1.47285 -0.560781 0
M  V30 389 C 38.1805 2.06855 -0.0430262 0
M  V30 390 C 38.5955 1.41291 1.25229 0
M  V30 391 O 37.9525 0.510648 1.7521 0
M  V30 392 C 38.0035 3.61178 0.152518 0
M  V30 393 O 37.7245 4.24285 -1.0915 0
M  V30 394 C 39.2255 4.37624 0.707145 0
M  V30 395 H 36.4455 0.669319 -0.0474652 0
M  V30 396 H 38.9895 1.89237 -0.77521 0
M  V30 397 H 37.1445 3.78298 0.834843 0
M  V30 398 H 37.5585 5.16868 -0.891482 0
M  V30 399 H 39.0325 5.46271 0.793244 0
M  V30 400 H 39.5095 4.04152 1.71923 0
M  V30 401 H 40.1155 4.25257 0.0604027 0
M  V30 402 N 38.4306 0.297415 1.54768 0
M  V30 403 C 39.6786 -0.312295 1.99673 0
M  V30 404 C 39.9996 -1.54686 1.18732 0
M  V30 405 O 39.2696 -1.93854 0.282382 0
M  V30 406 H 37.8496 -0.118381 0.73756 0
M  V30 407 H 40.5116 0.407915 1.90583 0
M  V30 408 H 39.6076 -0.586813 3.06534 0
M  V30 409 N 39.9087 -1.5758 0.0250728 0
M  V30 410 C 41.1857 -1.82917 -0.692873 0
M  V30 411 C 41.5657 -0.908137 -1.90568 0
M  V30 412 O 40.9137 0.0372298 -2.2847 0
M  V30 413 C 41.1237 -3.32034 -1.07492 0
M  V30 414 C 42.4717 -3.98406 -1.46826 0
M  V30 415 O 43.4957 -3.36505 -1.16801 0
M  V30 416 O 42.3547 -5.07497 -2.02754 0
M  V30 417 H 39.4487 -0.754079 -0.33955 0
M  V30 418 H 41.9947 -1.69619 0.0524456 0
M  V30 419 H 40.7667 -3.90728 -0.211552 0
M  V30 420 H 40.3897 -3.50424 -1.87854 0
M  V30 421 N 41.3868 0.248026 -1.55636 0
M  V30 422 C 42.6328 0.97767 -1.77678 0
M  V30 423 C 42.9658 1.85016 -0.590135 0
M  V30 424 O 42.2408 1.90095 0.411611 0
M  V30 425 C 42.5238 1.83914 -3.09593 0
M  V30 426 C 42.3768 0.99491 -4.38659 0
M  V30 427 C 43.6958 2.82183 -3.37729 0
M  V30 428 H 40.8148 0.354005 -0.646413 0
M  V30 429 H 43.4568 0.248253 -1.88371 0
M  V30 430 H 41.6068 2.46104 -3.00608 0
M  V30 431 H 43.2788 0.391789 -4.59633 0
M  V30 432 H 41.5218 0.299231 -4.32767 0
M  V30 433 H 42.1928 1.63145 -5.2734 0
M  V30 434 H 44.6688 2.30129 -3.4667 0
M  V30 435 H 43.5448 3.39582 -4.31249 0
M  V30 436 H 43.8058 3.58588 -2.58586 0
M  V30 437 N 42.8649 1.48995 0.513639 0
M  V30 438 C 44.1109 1.58076 1.27042 0
M  V30 439 C 44.4439 0.261026 1.92438 0
M  V30 440 O 43.7189 -0.734393 1.80103 0
M  V30 441 C 44.0019 2.73091 2.34719 0
M  V30 442 C 43.8549 4.14821 1.73907 0
M  V30 443 C 45.1739 2.83796 3.36375 0
M  V30 444 H 42.2929 0.575391 0.460536 0
M  V30 445 H 44.9349 1.81232 0.570516 0
M  V30 446 H 43.0849 2.53479 2.94416 0
M  V30 447 H 44.7569 4.45917 1.18135 0
M  V30 448 H 42.9999 4.21058 1.0437 0
M  V30 449 H 43.6709 4.91147 2.51949 0
M  V30 450 H 46.1469 3.01611 2.86653 0
M  V30 451 H 45.0229 3.65971 4.09093 0
M  V30 452 H 45.2839 1.92624 3.9793 0
M  V30 453 N 44.343 -0.763751 1.37857 0
M  V30 454 C 45.589 -1.52483 1.33704 0
M  V30 455 C 45.922 -1.94051 -0.0759612 0
M  V30 456 O 45.197 -1.64675 -1.03501 0
M  V30 457 C 45.48 -2.78441 2.28348 0
M  V30 458 C 45.333 -2.43075 3.78463 0
M  V30 459 C 46.652 -3.80415 2.21298 0
M  V30 460 H 43.771 -0.553169 0.487005 0
M  V30 461 H 46.413 -0.875562 1.68624 0
M  V30 462 H 44.563 -3.33842 1.987 0
M  V30 463 H 46.235 -1.93527 4.18742 0
M  V30 464 H 44.478 -1.75666 3.96641 0
M  V30 465 H 45.149 -3.33149 4.40132 0
M  V30 466 H 47.625 -3.34527 2.47449 0
M  V30 467 H 46.501 -4.66257 2.89647 0
M  V30 468 H 46.762 -4.25262 1.20849 0
M  V30 469 N 45.8211 -1.22559 -0.990812 0
M  V30 470 C 46.7531 -0.955325 -2.08342 0
M  V30 471 C 47.7661 0.0668408 -1.62663 0
M  V30 472 O 48.9551 -0.167421 -1.77713 0
M  V30 473 C 46.0551 -0.415566 -3.36342 0
M  V30 474 C 45.2281 -1.49544 -4.11042 0
M  V30 475 C 44.2871 -0.962399 -5.17324 0
M  V30 476 O 43.3131 -1.64907 -5.44788 0
M  V30 477 N 44.5151 0.215134 -5.80101 0
M  V30 478 H 47.2801 -1.89596 -2.32106 0
M  V30 479 H 44.8411 -1.13276 -1.15673 0
M  V30 480 H 46.8331 -0.0442386 -4.04676 0
M  V30 481 H 45.4031 0.430232 -3.09625 0
M  V30 482 H 44.6231 -2.04 -3.37309 0
M  V30 483 H 45.9111 -2.22195 -4.57719 0
M  V30 484 H 45.3091 0.789779 -5.6016 0
M  V30 485 H 43.8661 0.527826 -6.49659 0
M  V30 486 N 47.2992 1.18797 -1.03562 0
M  V30 487 C 48.2622 2.20464 -0.626769 0
M  V30 488 C 49.2622 1.57721 0.313173 0
M  V30 489 O 50.4522 1.73917 0.0992615 0
M  V30 490 C 47.5842 3.40802 0.0818498 0
M  V30 491 H 48.7772 2.58149 -1.5264 0
M  V30 492 H 46.3302 1.32593 -0.827578 0
M  V30 493 H 47.0652 3.08642 0.995518 0
M  V30 494 H 46.8502 3.8758 -0.593652 0
M  V30 495 H 48.3402 4.16092 0.354584 0
M  V30 496 N 48.7773 0.814389 1.34928 0
M  V30 497 C 50.1883 0.458364 1.80986 0
M  V30 498 C 50.5393 -1.02042 1.67577 0
M  V30 499 O 49.6643 -1.79352 1.21086 0
M  V30 500 C 50.2593 0.825212 3.28597 0
M  V30 501 C 48.8183 0.521677 3.72767 0
M  V30 502 C 47.9653 1.04668 2.56788 0
M  V30 503 H 50.9163 1.00533 1.22795 0
M  V30 504 H 50.9373 0.12571 3.80292 0
M  V30 505 H 50.4493 1.90154 3.38324 0
M  V30 506 H 48.5503 -0.545589 3.68584 0
M  V30 507 H 48.6633 1.05977 4.67232 0
M  V30 508 H 47.0273 0.468622 2.50352 0
M  V30 509 H 47.8103 2.12927 2.6929 0
M  V30 510 N 50.2554 -1.46986 0.568584 0
M  V30 511 C 51.4834 -2.0683 0.0539956 0
M  V30 512 C 51.8984 -1.41953 -1.24478 0
M  V30 513 O 51.2554 -0.519933 -1.74937 0
M  V30 514 C 51.3064 -3.61254 -0.133362 0
M  V30 515 O 51.0274 -4.237 1.11399 0
M  V30 516 C 52.5284 -4.37992 -0.683927 0
M  V30 517 H 49.7484 -0.669058 0.0510141 0
M  V30 518 H 52.2924 -1.88824 0.785234 0
M  V30 519 H 50.4474 -3.78735 -0.81477 0
M  V30 520 H 50.8614 -5.16388 0.91888 0
M  V30 521 H 52.3354 -5.46684 -0.764263 0
M  V30 522 H 52.8124 -4.05058 -1.69778 0
M  V30 523 H 53.4184 -4.25283 -0.0378494 0
M  V30 524 N 51.7335 -0.305618 -1.54608 0
M  V30 525 C 52.6655 0.602161 -2.21149 0
M  V30 526 C 53.6785 1.09394 -1.20569 0
M  V30 527 O 54.8675 1.0106 -1.47136 0
M  V30 528 C 51.9675 1.83692 -2.84799 0
M  V30 529 C 51.1405 1.48686 -4.11353 0
M  V30 530 C 50.1995 2.57725 -4.58764 0
M  V30 531 O 49.2255 2.22623 -5.23858 0
M  V30 532 N 50.4275 3.88346 -4.31471 0
M  V30 533 H 53.1925 0.0324966 -2.99682 0
M  V30 534 H 50.7535 -0.128021 -1.61393 0
M  V30 535 H 52.7455 2.55994 -3.13448 0
M  V30 536 H 51.3155 2.31486 -2.10078 0
M  V30 537 H 50.5355 0.596269 -3.89664 0
M  V30 538 H 51.8235 1.22842 -4.93748 0
M  V30 539 H 51.2215 4.19671 -3.79331 0
M  V30 540 H 49.7785 4.56932 -4.64818 0
M  V30 541 N 53.2116 1.57565 -0.0334293 0
M  V30 542 C 54.4576 1.92262 0.645226 0
M  V30 543 C 54.7906 0.910543 1.71531 0
M  V30 544 O 54.0656 -0.066099 1.94388 0
M  V30 545 C 54.3486 3.37422 1.2577 0
M  V30 546 C 54.2016 4.49369 0.196891 0
M  V30 547 C 55.5206 3.82628 2.17449 0
M  V30 548 H 52.6396 0.699171 0.233085 0
M  V30 549 H 55.2816 1.89779 -0.0915694 0
M  V30 550 H 53.4316 3.39669 1.88566 0
M  V30 551 H 55.1036 4.59254 -0.433962 0
M  V30 552 H 53.3466 4.31168 -0.477137 0
M  V30 553 H 54.0176 5.47978 0.665124 0
M  V30 554 H 56.4936 3.82145 1.64634 0
M  V30 555 H 55.3696 4.84883 2.57254 0
M  V30 556 H 55.6306 3.18376 3.0674 0
M  V30 557 N 54.6897 -0.239769 1.55765 0
M  V30 558 C 56.1007 -0.808263 1.68297 0
M  V30 559 C 56.4517 -1.85736 0.632181 0
M  V30 560 O 55.5767 -2.15277 -0.220204 0
M  V30 561 C 56.1717 -1.47284 3.05111 0
M  V30 562 C 54.7307 -1.98895 3.19559 0
M  V30 563 C 53.8777 -0.842575 2.64189 0
M  V30 564 H 56.8287 -0.0154422 1.58692 0
M  V30 565 H 56.8497 -2.34111 2.99954 0
M  V30 566 H 56.3617 -0.709053 3.81568 0
M  V30 567 H 54.4627 -2.78132 2.47938 0
M  V30 568 H 54.5757 -2.18143 4.26556 0
M  V30 569 H 52.9397 -1.24501 2.22197 0
M  V30 570 H 53.7227 -0.0917552 3.43177 0
M  V30 571 N 56.1678 -1.49265 -0.50573 0
M  V30 572 C 57.4158 -1.582 -1.25766 0
M  V30 573 C 57.7368 -0.268482 -1.93143 0
M  V30 574 O 57.0068 0.711833 -1.8251 0
M  V30 575 H 55.5868 -0.582873 -0.467191 0
M  V30 576 H 58.2488 -1.85865 -0.586525 0
M  V30 577 H 57.3448 -2.37563 -2.02412 0
M  V30 578 N 57.6459 0.756429 -1.3826 0
M  V30 579 C 58.8929 1.51547 -1.34312 0
M  V30 580 C 59.2209 1.94382 0.0677144 0
M  V30 581 O 58.4759 1.65514 1.04421 0
M  V30 582 C 58.7749 2.78313 -2.24224 0
M  V30 583 C 58.4409 2.54455 -3.72241 0
M  V30 584 C 57.1029 2.47657 -4.12576 0
M  V30 585 C 59.4549 2.3354 -4.65949 0
M  V30 586 C 56.7829 2.17956 -5.44713 0
M  V30 587 C 59.1349 2.05359 -5.9834 0
M  V30 588 C 57.7989 1.97016 -6.37762 0
M  V30 589 H 57.0689 0.55455 -0.491482 0
M  V30 590 H 59.7159 0.870039 -1.70595 0
M  V30 591 H 58.0209 3.47492 -1.80987 0
M  V30 592 H 59.7179 3.36259 -2.18474 0
M  V30 593 H 56.3079 2.60616 -3.40261 0
M  V30 594 H 60.4919 2.37772 -4.35635 0
M  V30 595 H 55.7479 2.10003 -5.74203 0
M  V30 596 H 59.9219 1.88179 -6.70494 0
M  V30 597 H 57.5489 1.73766 -7.40074 0
M  V30 598 N 59.124 1.23083 0.984299 0
M  V30 599 C 60.054 1.03292 2.09411 0
M  V30 600 C 61.035 -0.048923 1.7003 0
M  V30 601 O 62.22 0.114967 1.93859 0
M  V30 602 C 59.35 0.619155 3.41736 0
M  V30 603 C 58.304 1.64791 3.95004 0
M  V30 604 C 57.63 1.0897 5.23478 0
M  V30 605 C 58.93 3.03999 4.24714 0
M  V30 606 H 60.624 1.96119 2.26225 0
M  V30 607 H 58.17 0.944344 1.08711 0
M  V30 608 H 60.123 0.467777 4.18796 0
M  V30 609 H 58.847 -0.344786 3.24775 0
M  V30 610 H 57.506 1.78721 3.20085 0
M  V30 611 H 57.154 0.11686 5.02864 0
M  V30 612 H 56.854 1.77704 5.60085 0
M  V30 613 H 58.378 0.950093 6.03163 0
M  V30 614 H 59.792 2.93393 4.92538 0
M  V30 615 H 58.189 3.69936 4.72512 0
M  V30 616 H 59.259 3.53285 3.32142 0
M  V30 617 N 60.6021 -1.18246 1.0419 0
M  V30 618 C 61.8501 -1.87886 0.744543 0
M  V30 619 C 62.1711 -1.8082 -0.730006 0
M  V30 620 O 61.4411 -1.22736 -1.52685 0
M  V30 621 H 60.0211 -0.695556 0.272417 0
M  V30 622 H 62.6831 -1.43494 1.31892 0
M  V30 623 H 61.7791 -2.9389 1.05049 0
M  V30 624 N 62.0802 -0.821533 -1.34494 0
M  V30 625 C 63.3572 -0.33159 -1.92769 0
M  V30 626 C 63.7372 1.18088 -1.74981 0
M  V30 627 O 63.0852 1.98733 -1.12772 0
M  V30 628 C 63.2952 -0.759398 -3.40638 0
M  V30 629 C 64.6432 -0.757433 -4.1779 0
M  V30 630 O 65.6672 -0.70189 -3.49216 0
M  V30 631 O 64.5262 -0.829361 -5.4017 0
M  V30 632 H 61.6202 -0.0902502 -0.822061 0
M  V30 633 H 64.1662 -0.906231 -1.43477 0
M  V30 634 H 62.9382 -1.8012 -3.47379 0
M  V30 635 H 62.5612 -0.160378 -3.97276 0
M  V30 636 N 63.5583 1.46682 -0.576371 0
M  V30 637 C 64.7833 2.07304 -0.0630475 0
M  V30 638 C 65.2083 1.42329 1.2298 0
M  V30 639 O 64.5663 0.504865 1.74129 0
M  V30 640 C 64.6143 3.60472 0.095895 0
M  V30 641 O 63.7183 3.95927 1.15394 0
M  V30 642 H 63.0593 0.661288 -0.0599463 0
M  V30 643 H 65.5893 1.88417 -0.797511 0
M  V30 644 H 65.5993 4.06865 0.304071 0
M  V30 645 H 64.2743 4.07157 -0.84828 0
M  V30 646 H 62.8513 3.61252 0.924724 0
M  V30 647 N 65.0364 0.313813 1.54444 0
M  V30 648 C 66.2824 -0.292108 2.00685 0
M  V30 649 C 66.6154 -1.52548 1.20177 0
M  V30 650 O 65.8904 -1.92452 0.281531 0
M  V30 651 C 66.1734 -0.635968 3.5444 0
M  V30 652 C 66.0264 0.607437 4.4568 0
M  V30 653 C 67.3454 -1.45747 4.15266 0
M  V30 654 H 64.4644 -0.104697 0.729526 0
M  V30 655 H 67.1064 0.428457 1.85106 0
M  V30 656 H 65.2564 -1.24986 3.67846 0
M  V30 657 H 66.9284 1.24581 4.44159 0
M  V30 658 H 65.1714 1.23822 4.15753 0
M  V30 659 H 65.8424 0.322515 5.51057 0
M  V30 660 H 68.3184 -0.938645 4.05375 0
M  V30 661 H 67.1944 -1.66683 5.2298 0
M  V30 662 H 67.4554 -2.45063 3.67963 0
M  V30 663 N 66.5145 -1.57545 0.0417849 0
M  V30 664 C 67.7425 -1.96624 -0.643928 0
M  V30 665 C 68.1575 -0.918897 -1.64929 0
M  V30 666 O 67.5145 0.0979323 -1.82237 0
M  V30 667 C 67.5655 -3.35781 -1.33914 0
M  V30 668 O 67.2865 -4.365 -0.374048 0
M  V30 669 C 68.7875 -3.89566 -2.1155 0
M  V30 670 H 66.0075 -0.647316 -0.176702 0
M  V30 671 H 68.5515 -2.04229 0.105304 0
M  V30 672 H 66.7065 -3.29357 -2.03968 0
M  V30 673 H 67.1205 -5.17248 -0.869179 0
M  V30 674 H 68.5945 -4.89242 -2.55628 0
M  V30 675 H 69.0715 -3.24488 -2.9598 0
M  V30 676 H 69.6775 -3.99298 -1.46427 0
M  V30 677 N 67.9926 0.231505 -1.5589 0
M  V30 678 C 68.9226 1.29022 -1.94617 0
M  V30 679 C 69.9036 1.4941 -0.813067 0
M  V30 680 O 71.0886 1.6176 -1.07459 0
M  V30 681 C 68.2186 2.64199 -2.25424 0
M  V30 682 C 67.1726 2.58484 -3.41131 0
M  V30 683 C 66.4986 3.97599 -3.57518 0
M  V30 684 C 67.7986 2.1413 -4.76388 0
M  V30 685 H 69.4926 0.968563 -2.83301 0
M  V30 686 H 67.0386 0.464479 -1.36303 0
M  V30 687 H 68.9916 3.38413 -2.51107 0
M  V30 688 H 67.7156 2.98032 -1.33583 0
M  V30 689 H 66.3746 1.86727 -3.15481 0
M  V30 690 H 66.0226 4.28723 -2.6307 0
M  V30 691 H 65.7226 3.94659 -4.35337 0
M  V30 692 H 67.2466 4.7349 -3.85538 0
M  V30 693 H 68.6606 2.78083 -5.01341 0
M  V30 694 H 67.0576 2.2227 -5.57419 0
M  V30 695 H 68.1276 1.09331 -4.72414 0
M  V30 696 N 69.4707 1.49531 0.497807 0
M  V30 697 C 70.8817 1.52344 1.07927 0
M  V30 698 C 71.2327 0.311469 1.93712 0
M  V30 699 O 70.3577 -0.578405 2.08527 0
M  V30 700 C 70.9527 2.76062 1.96405 0
M  V30 701 C 69.5117 2.81643 2.49709 0
M  V30 702 C 68.6587 2.46299 1.27404 0
M  V30 703 H 71.6097 1.56182 0.281576 0
M  V30 704 H 71.6307 2.56405 2.81135 0
M  V30 705 H 71.1427 3.64254 1.33943 0
M  V30 706 H 69.2437 1.97739 3.15801 0
M  V30 707 H 69.3567 3.83891 2.86643 0
M  V30 708 H 67.7207 1.98148 1.60029 0
M  V30 709 H 68.5037 3.36769 0.66645 0
M  V30 710 N 70.9488 -0.749086 1.3866 0
M  V30 711 C 72.1888 -1.52112 1.36534 0
M  V30 712 C 72.5528 -1.91951 -0.0432316 0
M  V30 713 O 73.7538 -2.68132 -0.189396 0
M  V30 714 C 72.0248 -2.73704 2.29828 0
M  V30 715 S 73.5838 -3.63519 2.45763 0
M  V30 716 H 70.4018 -0.520482 0.484375 0
M  V30 717 H 73.0038 -0.878963 1.74627 0
M  V30 718 H 71.7078 -2.42552 3.31054 0
M  V30 719 H 71.2388 -3.4286 1.929 0
M  V30 720 H 73.2538 -4.66712 1.68505 0
M  V30 721 N 72.4269 -1.23603 -0.977757 0
M  V30 722 C 73.6569 -1.09487 -1.75203 0
M  V30 723 C 74.0649 0.356321 -1.85814 0
M  V30 724 O 73.4079 1.25816 -1.33851 0
M  V30 725 C 73.4699 -1.64905 -3.19447 0
M  V30 726 C 73.1339 -3.13688 -3.32338 0
M  V30 727 C 74.1309 -4.10953 -3.18455 0
M  V30 728 C 71.8159 -3.53449 -3.56902 0
M  V30 729 C 73.8099 -5.45962 -3.28944 0
M  V30 730 C 71.4969 -4.88602 -3.6703 0
M  V30 731 C 72.4949 -5.84668 -3.53062 0
M  V30 732 O 72.1829 -7.17365 -3.62826 0
M  V30 733 H 71.9149 -0.38367 -0.556573 0
M  V30 734 H 74.4689 -1.6398 -1.23693 0
M  V30 735 H 72.6989 -1.04835 -3.72218 0
M  V30 736 H 74.3879 -1.46226 -3.78646 0
M  V30 737 H 75.1539 -3.81577 -2.99372 0
M  V30 738 H 71.0329 -2.79188 -3.66844 0
M  V30 739 H 74.5769 -6.20925 -3.17958 0
M  V30 740 H 70.4739 -5.17653 -3.85623 0
M  V30 741 H 71.2419 -7.2515 -3.79605 0
M  V30 742 N 73.905 1.17692 -1.04816 0
M  V30 743 C 74.835 2.23777 -0.666791 0
M  V30 744 C 75.816 1.66796 0.33361 0
M  V30 745 O 77.001 1.93039 0.212042 0
M  V30 746 C 74.131 3.47281 -0.0367933 0
M  V30 747 C 73.085 4.17059 -0.961546 0
M  V30 748 C 72.411 5.34342 -0.195626 0
M  V30 749 C 73.711 4.69713 -2.28402 0
M  V30 750 H 75.405 2.55933 -1.55367 0
M  V30 751 H 72.951 1.23019 -0.748484 0
M  V30 752 H 74.904 4.20706 0.241775 0
M  V30 753 H 73.628 3.14381 0.885004 0
M  V30 754 H 72.287 3.45541 -1.22462 0
M  V30 755 H 71.935 4.97692 0.728816 0
M  V30 756 H 71.635 5.81966 -0.811775 0
M  V30 757 H 73.159 6.10553 0.0757473 0
M  V30 758 H 74.573 5.34794 -2.06563 0
M  V30 759 H 72.97 5.279 -2.8538 0
M  V30 760 H 74.04 3.86726 -2.92525 0
M  V30 761 N 75.3831 0.828654 1.34056 0
M  V30 762 C 76.3151 0.212052 2.28217 0
M  V30 763 C 77.3281 -0.601362 1.51286 0
M  V30 764 O 78.5171 -0.430104 1.73241 0
M  V30 765 C 75.6171 -0.72088 3.31144 0
M  V30 766 C 74.7901 0.0509587 4.3737 0
M  V30 767 C 73.8491 -0.803766 5.20025 0
M  V30 768 O 72.8751 -0.246667 5.68665 0
M  V30 769 N 74.0771 -2.1227 5.40298 0
M  V30 770 H 76.8421 1.02105 2.81771 0
M  V30 771 H 74.4031 0.686153 1.46641 0
M  V30 772 H 76.3951 -1.29742 3.8334 0
M  V30 773 H 74.9651 -1.43061 2.77943 0
M  V30 774 H 74.1851 0.808831 3.85813 0
M  V30 775 H 75.4731 0.582065 5.0546 0
M  V30 776 H 74.8711 -2.59898 5.02464 0
M  V30 777 H 73.4281 -2.64796 5.95589 0
M  V30 778 N 76.8612 -1.46375 0.584142 0
M  V30 779 C 78.1072 -2.02678 0.0703716 0
M  V30 780 C 78.4402 -1.4545 -1.28678 0
M  V30 781 O 77.7152 -0.62014 -1.84349 0
M  V30 782 C 77.9982 -3.60099 0.00614674 0
M  V30 783 C 77.8512 -4.27709 1.3923 0
M  V30 784 C 79.1702 -4.34598 -0.693742 0
M  V30 785 H 76.2892 -0.736504 0.027047 0
M  V30 786 H 78.9312 -1.74501 0.751615 0
M  V30 787 H 77.0812 -3.84236 -0.574009 0
M  V30 788 H 78.7532 -4.14832 2.01773 0
M  V30 789 H 76.9962 -3.87016 1.95962 0
M  V30 790 H 77.6672 -5.36478 1.29982 0
M  V30 791 H 80.1432 -4.15615 -0.200869 0
M  V30 792 H 79.0192 -5.44318 -0.707714 0
M  V30 793 H 79.2802 -4.05759 -1.75533 0
M  V30 794 N 78.3393 -0.321999 -1.54275 0
M  V30 795 C 79.7503 0.166384 -1.85957 0
M  V30 796 C 80.1013 1.51747 -1.24367 0
M  V30 797 O 79.2263 2.09317 -0.549124 0
M  V30 798 C 79.8213 0.308681 -3.37391 0
M  V30 799 C 78.3803 0.741286 -3.69028 0
M  V30 800 C 77.5273 -0.137937 -2.76957 0
M  V30 801 H 80.4783 -0.542335 -1.49146 0
M  V30 802 H 80.4993 1.13984 -3.63026 0
M  V30 803 H 80.0113 -0.674809 -3.82188 0
M  V30 804 H 78.1123 1.73458 -3.29762 0
M  V30 805 H 78.2253 0.546118 -4.75977 0
M  V30 806 H 76.5893 0.386251 -2.51754 0
M  V30 807 H 77.3723 -1.11816 -3.2458 0
M  V30 808 N 79.8174 1.5752 -0.0501392 0
M  V30 809 C 80.7654 2.12651 0.942459 0
M  V30 810 C 81.7594 1.05807 1.32292 0
M  V30 811 O 82.9654 1.24217 1.3027 0
M  V30 812 H 79.3404 0.679673 0.321789 0
M  V30 813 H 81.3114 2.94951 0.452356 0
M  V30 814 C 80.0604 2.68565 2.20836 0
M  V30 815 H 79.3834 3.50439 1.92439 0
M  V30 816 H 80.8234 3.10761 2.8845 0
M  V30 817 C 79.2824 1.62291 2.95234 0
M  V30 818 O 79.8124 1.03508 3.88135 0
M  V30 819 N 78.0184 1.33836 2.57946 0
M  V30 820 H 77.5654 1.81826 1.82475 0
M  V30 821 H 77.5234 0.629595 3.08032 0
M  V30 822 N 81.2955 -0.223234 1.56011 0
M  V30 823 C 82.2285 -1.30377 1.87289 0
M  V30 824 C 83.2065 -1.45286 0.730112 0
M  V30 825 O 84.3905 -1.61126 0.978302 0
M  V30 826 C 81.5175 -2.67431 2.07843 0
M  V30 827 C 80.5635 -2.69546 3.30526 0
M  V30 828 S 81.3965 -2.23781 4.865 0
M  V30 829 C 82.5525 -3.62714 5.10088 0
M  V30 830 H 82.7855 -1.03652 2.78646 0
M  V30 831 H 80.3185 -0.425393 1.48424 0
M  V30 832 H 82.2765 -3.46336 2.20368 0
M  V30 833 H 80.9375 -2.91381 1.17285 0
M  V30 834 H 80.1305 -3.70255 3.41947 0
M  V30 835 H 79.7325 -1.98703 3.16849 0
M  V30 836 H 82.0245 -4.58391 4.98883 0
M  V30 837 H 82.9675 -3.5621 6.11981 0
M  V30 838 H 83.3755 -3.56323 4.37829 0
M  V30 839 N 82.7736 -1.49793 -0.48987 0
M  V30 840 C 83.6836 -1.70036 -1.61632 0
M  V30 841 C 84.6996 -0.583102 -1.63939 0
M  V30 842 O 85.8756 -0.859169 -1.82154 0
M  V30 843 C 82.9406 -1.77277 -2.97949 0
M  V30 844 C 82.0016 -3.00918 -3.06181 0
M  V30 845 C 81.2346 -3.07804 -4.35996 0
M  V30 846 O 81.4576 -2.21982 -5.25433 0
M  V30 847 O 80.3916 -4.00369 -4.49431 0
M  V30 848 H 84.2176 -2.65486 -1.47482 0
M  V30 849 H 81.8026 -1.33666 -0.667362 0
M  V30 850 H 83.6846 -1.84329 -3.78947 0
M  V30 851 H 82.3596 -0.850076 -3.12339 0
M  V30 852 H 81.2666 -2.99377 -2.2433 0
M  V30 853 H 82.5996 -3.92704 -2.96723 0
M  V30 854 N 84.2517 0.741722 -1.39055 0
M  V30 855 C 85.4977 1.50336 -1.36113 0
M  V30 856 C 85.8307 1.94148 0.0450796 0
M  V30 857 O 85.1057 1.66301 1.00868 0
M  V30 858 C 85.3887 2.74773 -2.32749 0
M  V30 859 C 85.2417 2.37023 -3.82283 0
M  V30 860 C 86.5607 3.76846 -2.27322 0
M  V30 861 H 83.6797 0.545351 -0.495743 0
M  V30 862 H 86.3217 0.848624 -1.69995 0
M  V30 863 H 84.4717 3.30639 -2.03986 0
M  V30 864 H 86.1437 1.8684 -4.21768 0
M  V30 865 H 84.3867 1.69334 -3.99385 0
M  V30 866 H 85.0577 3.26104 -4.45376 0
M  V30 867 H 87.5337 3.30548 -2.5274 0
M  V30 868 H 86.4097 4.6159 -2.97028 0
M  V30 869 H 86.6707 4.23286 -1.27599 0
M  V30 870 N 85.7298 1.2412 0.971189 0
M  V30 871 C 86.9578 1.10575 1.74874 0
M  V30 872 C 87.3728 -0.342017 1.85676 0
M  V30 873 O 86.7298 -1.23617 1.34258 0
M  V30 874 C 86.7808 1.73579 3.171 0
M  V30 875 O 86.5018 3.12695 3.06844 0
M  V30 876 C 88.0028 1.65598 4.11208 0
M  V30 877 H 85.2228 0.386504 0.548503 0
M  V30 878 H 87.7668 1.64156 1.21955 0
M  V30 879 H 85.9218 1.24009 3.67016 0
M  V30 880 H 86.3358 3.43412 3.96445 0
M  V30 881 H 87.8098 2.1437 5.08674 0
M  V30 882 H 88.2868 0.616532 4.34851 0
M  V30 883 H 88.8928 2.14578 3.67201 0
M  V30 884 N 87.2079 -1.17134 1.05439 0
M  V30 885 C 88.1579 -2.1919 0.627675 0
M  V30 886 C 89.1419 -1.57328 -0.337147 0
M  V30 887 O 90.3339 -1.76329 -0.153976 0
M  V30 888 C 87.4629 -3.43299 0.00651435 0
M  V30 889 C 86.5489 -4.12255 0.995312 0
M  V30 890 N 86.9399 -4.56997 2.16765 0
M  V30 891 C 85.2379 -4.38316 0.824336 0
M  V30 892 C 85.9389 -5.10239 2.7934 0
M  V30 893 N 84.9149 -5.02595 2.07122 0
M  V30 894 H 88.7169 -2.5149 1.52086 0
M  V30 895 H 86.2309 -1.33491 0.924868 0
M  V30 896 H 88.2279 -4.15693 -0.316965 0
M  V30 897 H 86.8879 -3.1249 -0.882033 0
M  V30 898 H 87.8989 -4.51006 2.54587 0
M  V30 899 H 84.5759 -4.17498 -0.0129526 0
M  V30 900 H 85.9659 -5.54961 3.78772 0
M  V30 901 N 88.686 -0.835752 -1.33615 0
M  V30 902 C 89.932 -0.430596 -1.98176 0
M  V30 903 C 90.265 1.00684 -1.66061 0
M  V30 904 O 89.54 1.70339 -0.938877 0
M  V30 905 C 89.823 -0.648065 -3.5422 0
M  V30 906 C 89.676 -2.13255 -3.96033 0
M  V30 907 C 90.995 -0.0922113 -4.40003 0
M  V30 908 H 88.114 -0.157924 -0.719881 0
M  V30 909 H 90.756 -1.05069 -1.58305 0
M  V30 910 H 88.906 -0.120237 -3.88314 0
M  V30 911 H 90.578 -2.725 -3.72211 0
M  V30 912 H 88.821 -2.61823 -3.45878 0
M  V30 913 H 89.492 -2.23547 -5.04708 0
M  V30 914 H 91.968 -0.543343 -4.12537 0
M  V30 915 H 90.844 -0.274083 -5.48215 0
M  V30 916 H 91.105 1.00378 -4.30554 0
M  V30 917 N 90.1641 1.46063 -0.591896 0
M  V30 918 C 91.3891 2.07226 -0.0850314 0
M  V30 919 C 91.8141 1.43625 1.21463 0
M  V30 920 O 91.1721 0.523305 1.73583 0
M  V30 921 C 91.2201 3.60554 0.0576567 0
M  V30 922 O 90.3241 3.97128 1.11188 0
M  V30 923 H 89.6651 0.660615 -0.0669568 0
M  V30 924 H 92.1951 1.8756 -0.81745 0
M  V30 925 H 92.2051 4.07165 0.2609 0
M  V30 926 H 90.8801 4.06235 -0.891416 0
M  V30 927 H 89.4571 3.62213 0.886356 0
M  V30 928 N 91.6422 0.330177 1.54103 0
M  V30 929 C 92.5742 -0.566902 2.22079 0
M  V30 930 C 93.5872 -1.07462 1.22294 0
M  V30 931 O 94.7762 -0.987065 1.48726 0
M  V30 932 C 91.8762 -1.79138 2.87685 0
M  V30 933 C 91.0492 -1.42123 4.13666 0
M  V30 934 C 90.1082 -2.50394 4.62806 0
M  V30 935 O 89.1342 -2.14261 5.27334 0
M  V30 936 N 90.3362 -3.81433 4.37595 0
M  V30 937 H 93.1012 0.0151844 2.99696 0
M  V30 938 H 90.6622 0.153681 1.61169 0
M  V30 939 H 92.6542 -2.50975 3.1748 0
M  V30 940 H 91.2242 -2.28115 2.13734 0
M  V30 941 H 90.4442 -0.534201 3.90564 0
M  V30 942 H 91.7322 -1.14971 4.9564 0
M  V30 943 H 91.1302 -4.13584 3.8596 0
M  V30 944 H 89.6872 -4.4948 4.72029 0
M  V30 945 N 93.1203 -1.57491 0.0584922 0
M  V30 946 C 94.0503 -2.14988 -0.911178 0
M  V30 947 C 95.0313 -1.07343 -1.31952 0
M  V30 948 O 96.2163 -1.35318 -1.39294 0
M  V30 949 C 93.3463 -2.70078 -2.18347 0
M  V30 950 C 92.3003 -3.82771 -1.91495 0
M  V30 951 C 91.6263 -4.24408 -3.25241 0
M  V30 952 C 92.9263 -5.07592 -1.23075 0
M  V30 953 H 94.6203 -2.96263 -0.432246 0
M  V30 954 H 92.1663 -1.42512 -0.206469 0
M  V30 955 H 94.1193 -3.08943 -2.86587 0
M  V30 956 H 92.8433 -1.86005 -2.68458 0
M  V30 957 H 91.5023 -3.44389 -1.25664 0
M  V30 958 H 91.1503 -3.37275 -3.73168 0
M  V30 959 H 90.8503 -5.00366 -3.08071 0
M  V30 960 H 92.3743 -4.65879 -3.94701 0
M  V30 961 H 93.7883 -5.43857 -1.81362 0
M  V30 962 H 92.1853 -5.88741 -1.16207 0
M  V30 963 H 93.2553 -4.84454 -0.207847 0
M  V30 964 N 94.5984 0.214957 -1.56127 0
M  V30 965 C 95.8264 0.955092 -1.83536 0
M  V30 966 C 96.2414 1.77677 -0.638472 0
M  V30 967 O 95.5984 1.78219 0.392968 0
M  V30 968 C 95.6494 1.86734 -3.09536 0
M  V30 969 O 95.3704 1.07887 -4.24608 0
M  V30 970 C 96.8714 2.72082 -3.4998 0
M  V30 971 H 94.0914 0.279611 -0.609966 0
M  V30 972 H 96.6354 0.228197 -2.03223 0
M  V30 973 H 94.7904 2.5481 -2.91806 0
M  V30 974 H 95.2044 1.69872 -4.9623 0
M  V30 975 H 96.6784 3.31782 -4.41163 0
M  V30 976 H 97.1554 3.44806 -2.7204 0
M  V30 977 H 97.7614 2.09409 -3.70173 0
M  V30 978 N 96.0765 1.50051 0.48192 0
M  V30 979 C 97.3225 1.61706 1.2338 0
M  V30 980 C 97.6775 0.308488 1.89911 0
M  V30 981 O 96.9705 -0.692798 1.78636 0
M  V30 982 C 97.1645 2.72717 2.30998 0
M  V30 983 C 96.9935 4.14242 1.75024 0
M  V30 984 C 95.7635 4.80786 1.55476 0
M  V30 985 C 97.9615 4.98846 1.25128 0
M  V30 986 N 95.9435 6.06563 0.946311 0
M  V30 987 C 97.3145 6.15258 0.765382 0
M  V30 988 C 99.3695 4.84702 1.13881 0
M  V30 989 C 98.0725 7.19079 0.178113 0
M  V30 990 C 100.098 5.8869 0.565486 0
M  V30 991 C 99.4605 7.04343 0.0899105 0
M  V30 992 H 95.5595 0.645958 0.440753 0
M  V30 993 H 98.1435 1.8713 0.537624 0
M  V30 994 H 96.3145 2.49033 2.98055 0
M  V30 995 H 98.0465 2.73789 2.9803 0
M  V30 996 H 94.8015 4.37899 1.80392 0
M  V30 997 H 95.2255 6.73767 0.660812 0
M  V30 998 H 99.8675 3.95583 1.49244 0
M  V30 999 H 97.5855 8.07882 -0.187749 0
M  V30 1000 H 101.171 5.79808 0.480974 0
M  V30 1001 H 100.051 7.83433 -0.346782 0
M  V30 1002 N 97.5546 -0.734337 1.39446 0
M  V30 1003 C 98.5176 -1.83004 1.37994 0
M  V30 1004 C 99.5176 -1.58397 0.276938 0
M  V30 1005 O 100.708 -1.65785 0.534875 0
M  V30 1006 C 97.8396 -3.20802 1.1532 0
M  V30 1007 H 99.0326 -1.85694 2.35494 0
M  V30 1008 H 96.5856 -0.938059 1.25021 0
M  V30 1009 H 97.3206 -3.23772 0.185036 0
M  V30 1010 H 97.1056 -3.4006 1.95197 0
M  V30 1011 H 98.5956 -4.00862 1.17046 0
M  V30 1012 N 99.0327 -1.24633 -0.964593 0
M  V30 1013 C 100.449 -1.01239 -1.2338 0
M  V30 1014 C 100.649 0.2769 -1.99588 0
M  V30 1015 O 99.7047 0.992241 -2.32187 0
M  V30 1016 C 101.018 -2.22937 -2.01791 0
M  V30 1017 C 102.566 -2.27594 -2.14872 0
M  V30 1018 C 103.041 -3.48921 -2.96678 0
M  V30 1019 N 104.532 -3.49257 -3.04259 0
M  V30 1020 C 105.267 -4.39795 -3.67924 0
M  V30 1021 N 104.763 -5.40591 -4.33281 0
M  V30 1022 N 106.556 -4.275 -3.64966 0
M  V30 1023 H 98.7067 -2.0748 -0.454502 0
M  V30 1024 H 100.97 -0.910647 -0.26349 0
M  V30 1025 H 100.676 -3.16587 -1.53184 0
M  V30 1026 H 100.55 -2.25306 -3.02518 0
M  V30 1027 H 102.937 -1.34473 -2.6268 0
M  V30 1028 H 103.018 -2.2925 -1.13482 0
M  V30 1029 H 102.662 -4.42359 -2.49562 0
M  V30 1030 H 102.592 -3.4451 -3.98272 0
M  V30 1031 H 105.083 -2.76337 -2.57771 0
M  V30 1032 H 105.396 -6.05904 -4.79687 0
M  V30 1033 H 103.741 -5.44475 -4.3194 0
M  V30 1034 H 106.932 -3.47987 -3.13086 0
M  V30 1035 H 107.105 -4.98258 -4.14298 0
M  V30 1036 N 100.511 1.16574 -1.06058 0
M  V30 1037 C 101.461 2.18854 -0.63929 0
M  V30 1038 C 102.445 1.57505 0.328798 0
M  V30 1039 O 103.637 1.76408 0.144623 0
M  V30 1040 C 100.766 3.43291 -0.0247203 0
M  V30 1041 C 99.8518 4.11722 -1.01716 0
M  V30 1042 N 100.243 4.55841 -2.19186 0
M  V30 1043 C 98.5408 4.37872 -0.847569 0
M  V30 1044 C 99.2418 5.08751 -2.82042 0
M  V30 1045 N 98.2178 5.01489 -2.09784 0
M  V30 1046 H 102.02 2.5068 -1.53417 0
M  V30 1047 H 99.5338 1.32999 -0.931935 0
M  V30 1048 H 101.531 4.15856 0.294915 0
M  V30 1049 H 100.191 3.12954 0.865448 0
M  V30 1050 H 101.202 4.49649 -2.56975 0
M  V30 1051 H 97.8788 4.17499 -0.00918848 0
M  V30 1052 H 99.2688 5.52944 -3.81709 0
M  V30 1053 N 101.989 0.842826 1.3317 0
M  V30 1054 C 103.237 0.439577 1.97262 0
M  V30 1055 C 103.558 -1.00548 1.67078 0
M  V30 1056 O 102.828 -1.70098 0.971779 0
M  V30 1057 H 101.408 0.159558 0.72976 0
M  V30 1058 H 104.07 1.07665 1.62463 0
M  V30 1059 H 103.166 0.574886 3.0676 0
M  V30 1060 N 103.467 -1.45747 0.599634 0
M  V30 1061 C 104.377 -2.34262 -0.125888 0
M  V30 1062 C 105.393 -1.50768 -0.868625 0
M  V30 1063 O 106.569 -1.83592 -0.828003 0
M  V30 1064 C 103.634 -3.28252 -1.11587 0
M  V30 1065 C 102.695 -4.27651 -0.375956 0
M  V30 1066 C 101.928 -5.1715 -1.31877 0
M  V30 1067 O 102.151 -5.09916 -2.55621 0
M  V30 1068 O 101.085 -5.96286 -0.820157 0
M  V30 1069 H 104.911 -2.97688 0.601315 0
M  V30 1070 H 102.496 -1.44999 0.359934 0
M  V30 1071 H 104.378 -3.86191 -1.68626 0
M  V30 1072 H 103.053 -2.67401 -1.82424 0
M  V30 1073 H 101.96 -3.7335 0.236698 0
M  V30 1074 H 103.293 -4.91334 0.29177 0
M  V30 1075 N 104.945 -0.338344 -1.53925 0
M  V30 1076 C 106.17 0.263987 -2.05713 0
M  V30 1077 C 106.595 1.43847 -1.21201 0
M  V30 1078 O 105.953 1.79904 -0.224535 0
M  V30 1079 C 106.001 0.662 -3.54471 0
M  V30 1080 O 105.105 1.76265 -3.72833 0
M  V30 1081 H 104.446 0.0448722 -0.662482 0
M  V30 1082 H 106.976 -0.491048 -1.9862 0
M  V30 1083 H 106.986 0.940594 -3.9701 0
M  V30 1084 H 105.661 -0.196937 -4.15433 0
M  V30 1085 H 104.238 1.48173 -3.42198 0
M  V30 1086 N 106.423 1.57458 -0.0668435 0
M  V30 1087 C 107.671 1.92919 0.602214 0
M  V30 1088 C 107.992 0.947215 1.70449 0
M  V30 1089 O 107.262 -0.00544117 1.95899 0
M  V30 1090 H 105.842 0.71217 0.22544 0
M  V30 1091 H 108.504 1.94508 -0.123535 0
M  V30 1092 H 107.6 2.94589 1.03073 0
M  V30 1093 N 107.901 -0.206675 1.56239 0
M  V30 1094 C 109.126 -0.949474 1.8439 0
M  V30 1095 C 109.551 -1.76549 0.649016 0
M  V30 1096 O 108.909 -1.76782 -0.402231 0
M  V30 1097 C 108.957 -1.83078 3.10668 0
M  V30 1098 O 108.061 -2.9281 2.90407 0
M  V30 1099 H 107.402 -0.268033 0.607499 0
M  V30 1100 H 109.932 -0.215488 2.03462 0
M  V30 1101 H 109.942 -2.2377 3.41161 0
M  V30 1102 H 108.617 -1.23112 3.97261 0
M  V30 1103 H 107.194 -2.55956 2.71184 0
M  V30 1104 N 109.379 -1.50304 -0.473955 0
M  V30 1105 C 110.312 -1.63595 -1.59097 0
M  V30 1106 C 111.29 -0.484142 -1.55225 0
M  V30 1107 O 112.474 -0.703271 -1.7489 0
M  V30 1108 C 109.601 -1.61589 -2.97669 0
M  V30 1109 C 108.647 -2.82295 -3.19705 0
M  V30 1110 S 109.48 -4.43635 -2.99913 0
M  V30 1111 C 110.636 -4.44317 -4.40832 0
M  V30 1112 H 110.869 -2.58082 -1.47583 0
M  V30 1113 H 108.402 -1.39531 -0.661087 0
M  V30 1114 H 110.36 -1.61116 -3.7756 0
M  V30 1115 H 109.021 -0.683421 -3.06575 0
M  V30 1116 H 108.214 -2.77188 -4.20931 0
M  V30 1117 H 107.816 -2.8032 -2.47582 0
M  V30 1118 H 110.108 -4.17703 -5.33414 0
M  V30 1119 H 111.051 -5.45911 -4.50984 0
M  V30 1120 H 111.459 -3.74059 -4.22777 0
M  V30 1121 N 110.857 0.726932 -1.39834 0
M  V30 1122 C 111.82 1.82269 -1.38962 0
M  V30 1123 C 112.82 1.58248 -0.285334 0
M  V30 1124 O 114.01 1.65499 -0.54366 0
M  V30 1125 C 111.142 3.20186 -1.17019 0
M  V30 1126 H 112.335 1.84443 -2.36476 0
M  V30 1127 H 109.888 0.931416 -1.25516 0
M  V30 1128 H 110.623 3.23669 -0.202204 0
M  V30 1129 H 110.408 3.3902 -1.96998 0
M  V30 1130 H 111.898 4.00235 -1.1917 0
M  V30 1131 N 112.336 1.25143 0.95797 0
M  V30 1132 C 113.582 1.09855 1.70469 0
M  V30 1133 C 113.915 -0.360187 1.90831 0
M  V30 1134 O 113.19 -1.26568 1.47685 0
M  V30 1135 C 113.473 1.8497 3.08963 0
M  V30 1136 C 113.326 3.38652 2.96032 0
M  V30 1137 C 114.645 1.63016 4.08795 0
M  V30 1138 H 111.764 0.400465 0.618706 0
M  V30 1139 H 114.406 1.53933 1.11376 0
M  V30 1140 H 112.556 1.47505 3.59409 0
M  V30 1141 H 114.228 3.85772 2.52938 0
M  V30 1142 H 112.471 3.66534 2.32025 0
M  V30 1143 H 113.142 3.8642 3.94187 0
M  V30 1144 H 115.618 1.95625 3.67247 0
M  V30 1145 H 114.494 2.18015 5.03747 0
M  V30 1146 H 114.755 0.570692 4.38401 0
M  V30 1147 N 113.814 -1.1601 1.06675 0
M  V30 1148 C 115.061 -1.86633 0.785781 0
M  V30 1149 C 115.389 -1.81929 -0.687896 0
M  V30 1150 O 114.644 -1.23253 -1.52011 0
M  V30 1151 C 114.943 -3.35547 1.23057 0
M  V30 1152 C 114.609 -3.60448 2.70902 0
M  V30 1153 C 113.271 -3.66954 3.11285 0
M  V30 1154 C 115.623 -3.7071 3.66365 0
M  V30 1155 C 112.951 -3.81225 4.45965 0
M  V30 1156 C 115.303 -3.86503 5.00797 0
M  V30 1157 C 113.967 -3.91252 5.40813 0
M  V30 1158 H 113.237 -0.682937 0.287538 0
M  V30 1159 H 115.884 -1.37146 1.33654 0
M  V30 1160 H 114.189 -3.87193 0.59907 0
M  V30 1161 H 115.886 -3.88583 0.990163 0
M  V30 1162 H 112.476 -3.56021 2.38636 0
M  V30 1163 H 116.66 -3.64991 3.36296 0
M  V30 1164 H 111.916 -3.83155 4.76447 0
M  V30 1165 H 116.09 -3.93385 5.74649 0
M  V30 1166 H 113.717 -4.02062 6.45174 0
M  V30 1167 N 115.292 -0.849877 -1.32721 0
M  V30 1168 C 116.242 -0.262892 -2.26479 0
M  V30 1169 C 117.226 0.588493 -1.49752 0
M  V30 1170 O 118.418 0.438659 -1.71478 0
M  V30 1171 C 115.547 0.551818 -3.38836 0
M  V30 1172 C 114.633 -0.311689 -4.22953 0
M  V30 1173 N 115.024 -1.39567 -4.86163 0
M  V30 1174 C 113.322 -0.100611 -4.45887 0
M  V30 1175 C 114.023 -1.92651 -5.48872 0
M  V30 1176 N 112.999 -1.22637 -5.29586 0
M  V30 1177 H 116.801 -1.09166 -2.72873 0
M  V30 1178 H 114.315 -0.695486 -1.46754 0
M  V30 1179 H 116.312 0.988713 -4.05006 0
M  V30 1180 H 114.972 1.37844 -2.93988 0
M  V30 1181 H 115.983 -1.77859 -4.86402 0
M  V30 1182 H 112.66 0.691681 -4.11731 0
M  V30 1183 H 114.05 -2.83487 -6.09167 0
M  V30 1184 N 116.77 1.45427 -0.607355 0
M  V30 1185 C 117.702 2.2871 0.149752 0
M  V30 1186 C 118.715 1.39937 0.831958 0
M  V30 1187 O 119.904 1.64313 0.697385 0
M  V30 1188 C 117.004 3.15673 1.23304 0
M  V30 1189 C 116.177 4.32722 0.637996 0
M  V30 1190 C 115.236 5.00895 1.61215 0
M  V30 1191 O 114.262 5.57697 1.13854 0
M  V30 1192 N 115.464 5.00159 2.94655 0
M  V30 1193 H 118.229 2.94328 -0.564882 0
M  V30 1194 H 115.79 1.55612 -0.446823 0
M  V30 1195 H 117.782 3.58144 1.88454 0
M  V30 1196 H 116.352 2.51965 1.8502 0
M  V30 1197 H 115.572 3.93734 -0.191572 0
M  V30 1198 H 116.86 5.08321 0.220665 0
M  V30 1199 H 116.258 4.553 3.35735 0
M  V30 1200 H 114.815 5.46495 3.55228 0
M  V30 1201 N 118.248 0.346503 1.53744 0
M  V30 1202 C 119.476 -0.25041 2.05379 0
M  V30 1203 C 119.891 -1.43979 1.22129 0
M  V30 1204 O 119.248 -1.80677 0.257321 0
M  V30 1205 C 119.299 -0.662575 3.55376 0
M  V30 1206 O 119.02 0.479515 4.35468 0
M  V30 1207 C 120.521 -1.31989 4.23195 0
M  V30 1208 H 117.741 -0.0478198 0.669294 0
M  V30 1209 H 120.285 0.499346 1.9831 0
M  V30 1210 H 118.44 -1.36227 3.62658 0
M  V30 1211 H 118.854 0.15037 5.24284 0
M  V30 1212 H 120.328 -1.55902 5.29527 0
M  V30 1213 H 120.805 -2.27436 3.75725 0
M  V30 1214 H 121.411 -0.662154 4.20114 0
M  V30 1215 N 119.726 -1.57421 0.075193 0
M  V30 1216 C 120.658 -2.09904 -0.920483 0
M  V30 1217 C 121.671 -1.03191 -1.25918 0
M  V30 1218 O 122.86 -1.30695 -1.21577 0
M  V30 1219 C 119.96 -2.54726 -2.23534 0
M  V30 1220 C 119.133 -3.8505 -2.07498 0
M  V30 1221 C 118.192 -4.15929 -3.22319 0
M  V30 1222 O 117.218 -4.85474 -2.9716 0
M  V30 1223 N 118.42 -3.69745 -4.47514 0
M  V30 1224 H 121.185 -2.95954 -0.472359 0
M  V30 1225 H 118.746 -1.61523 -0.110444 0
M  V30 1226 H 120.738 -2.72443 -2.9926 0
M  V30 1227 H 119.308 -1.73795 -2.59835 0
M  V30 1228 H 118.528 -3.76679 -1.16219 0
M  V30 1229 H 119.816 -4.70348 -1.94038 0
M  V30 1230 H 119.214 -3.13569 -4.7084 0
M  V30 1231 H 117.771 -3.92655 -5.20255 0
M  V30 1232 N 121.204 0.198386 -1.56346 0
M  V30 1233 C 122.452 0.91747 -1.80075 0
M  V30 1234 C 122.773 1.83929 -0.647692 0
M  V30 1235 O 122.043 1.93029 0.334166 0
M  V30 1236 H 120.623 0.341774 -0.664228 0
M  V30 1237 H 123.285 0.204684 -1.93822 0
M  V30 1238 H 122.381 1.51055 -2.7311 0
M  V30 1239 N 122.682 1.50554 0.465978 0
M  V30 1240 C 124.093 1.54599 1.04671 0
M  V30 1241 C 124.444 0.352488 1.93008 0
M  V30 1242 O 123.569 -0.534044 2.09707 0
M  V30 1243 C 124.164 2.80166 1.90505 0
M  V30 1244 C 122.723 2.86876 2.43678 0
M  V30 1245 C 121.87 2.48947 1.22151 0
M  V30 1246 H 124.821 1.56744 0.248384 0
M  V30 1247 H 124.842 2.62311 2.75633 0
M  V30 1248 H 124.354 3.67013 1.26186 0
M  V30 1249 H 122.455 2.04393 3.11536 0
M  V30 1250 H 122.568 3.89885 2.78436 0
M  V30 1251 H 120.932 2.01498 1.5579 0
M  V30 1252 H 121.715 3.38107 0.594866 0
M  V30 1253 N 124.16 -0.719506 1.40217 0
M  V30 1254 C 125.385 -1.51371 1.4178 0
M  V30 1255 C 125.81 -1.88091 0.0182355 0
M  V30 1256 O 125.168 -1.52997 -0.972707 0
M  V30 1257 C 125.216 -2.768 2.31115 0
M  V30 1258 O 124.32 -3.73349 1.7517 0
M  V30 1259 H 123.661 -0.456529 0.482159 0
M  V30 1260 H 126.191 -0.88644 1.844 0
M  V30 1261 H 126.201 -3.25371 2.46167 0
M  V30 1262 H 124.876 -2.49407 3.3282 0
M  V30 1263 H 123.453 -3.32179 1.69444 0
M  V30 1264 N 125.638 -1.25649 -0.95132 0
M  V30 1265 C 126.868 -1.13179 -1.72841 0
M  V30 1266 C 127.276 0.316827 -1.86528 0
M  V30 1267 O 126.619 1.22948 -1.3649 0
M  V30 1268 C 126.681 -1.71644 -3.15878 0
M  V30 1269 C 126.345 -3.20667 -3.25609 0
M  V30 1270 C 127.342 -4.17616 -3.09666 0
M  V30 1271 C 125.027 -3.6094 -3.49324 0
M  V30 1272 C 127.021 -5.52817 -3.17289 0
M  V30 1273 C 124.708 -4.96278 -3.56584 0
M  V30 1274 C 125.706 -5.92025 -3.40581 0
M  V30 1275 O 125.394 -7.24899 -3.47528 0
M  V30 1276 H 125.126 -0.395389 -0.54831 0
M  V30 1277 H 127.68 -1.66566 -1.20187 0
M  V30 1278 H 125.91 -1.12707 -3.69911 0
M  V30 1279 H 127.599 -1.54225 -3.75459 0
M  V30 1280 H 128.365 -3.87842 -2.91211 0
M  V30 1281 H 124.244 -2.86907 -3.6084 0
M  V30 1282 H 127.788 -6.2753 -3.04716 0
M  V30 1283 H 123.685 -5.25716 -3.74556 0
M  V30 1284 H 124.453 -7.33039 -3.64138 0
M  V30 1285 N 127.117 1.15442 -1.07289 0
M  V30 1286 C 128.342 1.90638 -0.816828 0
M  V30 1287 C 128.767 1.77445 0.624083 0
M  V30 1288 O 128.125 1.10671 1.43602 0
M  V30 1289 C 128.173 3.39008 -1.22906 0
M  V30 1290 O 127.277 4.10701 -0.373975 0
M  V30 1291 H 126.618 0.593555 -0.297638 0
M  V30 1292 H 129.148 1.46198 -1.43134 0
M  V30 1293 H 129.158 3.89801 -1.20497 0
M  V30 1294 H 127.833 3.47929 -2.27856 0
M  V30 1295 H 126.41 3.70046 -0.460499 0
M  V30 1296 N 128.595 0.856903 1.32268 0
M  V30 1297 C 129.505 0.306131 2.32594 0
M  V30 1298 C 130.521 -0.577209 1.64147 0
M  V30 1299 O 131.697 -0.477043 1.95669 0
M  V30 1300 C 128.762 -0.494561 3.43154 0
M  V30 1301 C 127.823 0.415186 4.27288 0
M  V30 1302 C 127.056 -0.347387 5.32568 0
M  V30 1303 O 127.279 -1.57708 5.48165 0
M  V30 1304 O 126.213 0.287982 6.01211 0
M  V30 1305 H 130.039 1.13737 2.81598 0
M  V30 1306 H 127.624 0.619902 1.35932 0
M  V30 1307 H 129.506 -0.948944 4.10576 0
M  V30 1308 H 128.181 -1.30257 2.96336 0
M  V30 1309 H 127.088 0.917793 3.62667 0
M  V30 1310 H 128.421 1.18844 4.77637 0
M  V30 1311 N 130.073 -1.45103 0.615059 0
M  V30 1312 C 131.298 -2.07064 0.117988 0
M  V30 1313 C 131.723 -1.4554 -1.19163 0
M  V30 1314 O 131.081 -0.550855 -1.72729 0
M  V30 1315 C 131.129 -3.606 -0.000288387 0
M  V30 1316 O 130.233 -3.98847 -1.04856 0
M  V30 1317 H 129.574 -0.659467 0.0774581 0
M  V30 1318 H 132.104 -1.86236 0.847186 0
M  V30 1319 H 132.114 -4.07529 -0.196091 0
M  V30 1320 H 130.789 -4.04765 0.955932 0
M  V30 1321 H 129.366 -3.63577 -0.828619 0
M  V30 1322 N 131.551 -0.354651 -1.53558 0
M  V30 1323 C 132.498 0.496968 -2.25386 0
M  V30 1324 C 133.468 1.0865 -1.25636 0
M  V30 1325 O 134.653 1.12104 -1.54394 0
M  V30 1326 C 131.793 1.63637 -3.03837 0
M  V30 1327 C 130.906 1.07307 -4.18461 0
M  V30 1328 C 130.041 2.18068 -4.84376 0
M  V30 1329 C 129.08 1.59147 -5.91049 0
M  V30 1330 N 128.217 2.63695 -6.50699 0
M  V30 1331 H 133.057 -0.122075 -2.9775 0
M  V30 1332 H 130.594 -0.0720154 -1.46924 0
M  V30 1333 H 132.552 2.30734 -3.47589 0
M  V30 1334 H 131.182 2.22623 -2.33749 0
M  V30 1335 H 130.234 0.292708 -3.79272 0
M  V30 1336 H 131.546 0.602193 -4.95152 0
M  V30 1337 H 130.7 2.93007 -5.31255 0
M  V30 1338 H 129.439 2.68504 -4.07133 0
M  V30 1339 H 128.444 0.827175 -5.43542 0
M  V30 1340 H 129.669 1.09549 -6.70206 0
M  V30 1341 H 127.615 3.13365 -5.76315 0
M  V30 1342 H 127.532 2.21263 -7.22896 0
M  V30 1343 H 128.8 3.3837 -7.02229 0
M  V30 1344 N 133.029 1.57378 -0.0835403 0
M  V30 1345 C 134.445 1.57246 0.273109 0
M  V30 1346 C 134.645 1.09385 1.69225 0
M  V30 1347 O 133.701 0.765051 2.40631 0
M  V30 1348 C 135.014 3.00614 0.0720628 0
M  V30 1349 C 136.562 3.12684 0.1407 0
M  V30 1350 C 137.037 4.57989 -0.0322094 0
M  V30 1351 N 138.528 4.63194 0.0230085 0
M  V30 1352 C 139.263 5.73335 -0.0861941 0
M  V30 1353 N 138.759 6.9235 -0.24958 0
M  V30 1354 N 140.552 5.62093 -0.0282886 0
M  V30 1355 H 132.703 1.86801 -1.0109 0
M  V30 1356 H 134.966 0.861687 -0.395222 0
M  V30 1357 H 134.672 3.39786 -0.907662 0
M  V30 1358 H 134.546 3.68193 0.81936 0
M  V30 1359 H 136.933 2.73391 1.11092 0
M  V30 1360 H 137.014 2.47719 -0.637896 0
M  V30 1361 H 136.658 4.97973 -0.999247 0
M  V30 1362 H 136.588 5.21 0.765937 0
M  V30 1363 H 139.079 3.77613 0.14722 0
M  V30 1364 H 139.392 7.72117 -0.324733 0
M  V30 1365 H 137.737 6.94415 -0.285097 0
M  V30 1366 H 140.928 4.67997 0.0981408 0
M  V30 1367 H 141.101 6.47895 -0.116845 0
M  V30 1368 N 134.507 -0.190092 1.56449 0
M  V30 1369 C 135.437 -1.23816 1.97969 0
M  V30 1370 C 136.418 -1.47201 0.852395 0
M  V30 1371 O 137.603 -1.58854 1.1171 0
M  V30 1372 C 134.733 -2.5813 2.3235 0
M  V30 1373 C 133.687 -2.49348 3.47864 0
M  V30 1374 C 133.013 -3.8798 3.67934 0
M  V30 1375 C 134.313 -2.01424 4.81898 0
M  V30 1376 H 136.007 -0.89311 2.85769 0
M  V30 1377 H 133.553 -0.428177 1.37487 0
M  V30 1378 H 135.506 -3.31637 2.59991 0
M  V30 1379 H 134.23 -2.94386 1.41438 0
M  V30 1380 H 132.889 -1.78297 3.20321 0
M  V30 1381 H 132.537 -4.21597 2.74344 0
M  V30 1382 H 132.237 -3.82978 4.45648 0
M  V30 1383 H 133.761 -4.63101 3.97957 0
M  V30 1384 H 135.175 -2.64693 5.08538 0
M  V30 1385 H 133.572 -2.07413 5.63116 0
M  V30 1386 H 134.642 -0.967677 4.75146 0
M  V30 1387 N 135.985 -1.50799 -0.457987 0
M  V30 1388 C 136.895 -1.73426 -1.57989 0
M  V30 1389 C 137.911 -0.617745 -1.62665 0
M  V30 1390 O 139.087 -0.897614 -1.80291 0
M  V30 1391 C 136.152 -1.83557 -2.94122 0
M  V30 1392 C 135.213 -3.07345 -2.99729 0
M  V30 1393 C 134.446 -3.16983 -4.29368 0
M  V30 1394 O 134.669 -2.33077 -5.20607 0
M  V30 1395 O 133.603 -4.09812 -4.40837 0
M  V30 1396 H 137.429 -2.68555 -1.41817 0
M  V30 1397 H 135.014 -1.35052 -0.638859 0
M  V30 1398 H 136.896 -1.92326 -3.74952 0
M  V30 1399 H 135.571 -0.916137 -3.10465 0
M  V30 1400 H 134.478 -3.04068 -2.1793 0
M  V30 1401 H 135.811 -3.9891 -2.88326 0
M  V30 1402 N 137.463 0.71206 -1.40597 0
M  V30 1403 C 138.71 1.47197 -1.39065 0
M  V30 1404 C 139.038 1.94499 0.00583891 0
M  V30 1405 O 138.293 1.68752 0.99102 0
M  V30 1406 C 138.592 2.71039 -2.32965 0
M  V30 1407 C 138.258 2.42484 -3.80148 0
M  V30 1408 C 136.92 2.34406 -4.20247 0
M  V30 1409 C 139.272 2.18598 -4.73143 0
M  V30 1410 C 136.6 2.00516 -5.51371 0
M  V30 1411 C 138.952 1.8622 -6.0457 0
M  V30 1412 C 137.616 1.76626 -6.43708 0
M  V30 1413 H 136.886 0.538634 -0.508876 0
M  V30 1414 H 139.533 0.815325 -1.73276 0
M  V30 1415 H 137.838 3.41558 -1.91951 0
M  V30 1416 H 139.535 3.29138 -2.29061 0
M  V30 1417 H 136.125 2.49659 -3.4838 0
M  V30 1418 H 140.309 2.23793 -4.42979 0
M  V30 1419 H 135.565 1.91628 -5.80593 0
M  V30 1420 H 139.739 1.66752 -6.76141 0
M  V30 1421 H 137.366 1.50133 -7.45228 0
M  V30 1422 N 138.941 1.26152 0.944643 0
M  V30 1423 C 140.187 1.11657 1.69294 0
M  V30 1424 C 140.52 -0.339926 1.91202 0
M  V30 1425 O 139.795 -1.24994 1.49019 0
M  V30 1426 C 140.078 1.88236 3.06984 0
M  V30 1427 C 139.931 3.41772 2.92424 0
M  V30 1428 C 141.25 1.67343 4.07043 0
M  V30 1429 H 138.369 0.407004 0.614424 0
M  V30 1430 H 141.011 1.55106 1.09737 0
M  V30 1431 H 139.161 1.51308 3.57824 0
M  V30 1432 H 140.833 3.88433 2.48832 0
M  V30 1433 H 139.076 3.68974 2.28124 0
M  V30 1434 H 139.747 3.90579 3.90067 0
M  V30 1435 H 142.223 1.99509 3.65151 0
M  V30 1436 H 141.099 2.23346 5.01406 0
M  V30 1437 H 141.36 0.617158 4.37771 0
M  V30 1438 N 140.419 -1.14872 1.07899 0
M  V30 1439 C 141.382 -2.17986 0.708161 0
M  V30 1440 C 142.382 -1.58775 -0.25442 0
M  V30 1441 O 143.572 -1.74166 -0.034645 0
M  V30 1442 C 140.704 -3.40871 0.0446929 0
M  V30 1443 H 141.897 -2.52306 1.62116 0
M  V30 1444 H 139.45 -1.2943 0.876218 0
M  V30 1445 H 140.185 -3.12124 -0.880281 0
M  V30 1446 H 139.97 -3.8511 0.737091 0
M  V30 1447 H 141.46 -4.17121 -0.19991 0
M  V30 1448 N 141.898 -0.863906 -1.31812 0
M  V30 1449 C 142.861 -0.320212 -2.26952 0
M  V30 1450 C 143.861 0.525369 -1.51975 0
M  V30 1451 O 145.051 0.335547 -1.70938 0
M  V30 1452 C 142.183 0.545919 -3.365 0
M  V30 1453 H 143.376 -1.16004 -2.76556 0
M  V30 1454 H 140.929 -0.638995 -1.42641 0
M  V30 1455 H 141.664 1.40718 -2.92179 0
M  V30 1456 H 141.449 -0.0594674 -3.92055 0
M  V30 1457 H 142.939 0.918796 -4.07367 0
M  V30 1458 N 143.376 1.44774 -0.622745 0
M  V30 1459 C 144.792 1.56986 -0.287652 0
M  V30 1460 C 144.992 1.61167 1.20944 0
M  V30 1461 O 144.048 1.55015 1.99315 0
M  V30 1462 C 145.361 2.84551 -0.972188 0
M  V30 1463 C 146.909 2.9825 -0.949536 0
M  V30 1464 C 147.384 4.28605 -1.61437 0
M  V30 1465 N 148.875 4.35399 -1.58057 0
M  V30 1466 C 149.61 5.34964 -2.064 0
M  V30 1467 N 149.106 6.40981 -2.62897 0
M  V30 1468 N 150.899 5.26419 -1.97078 0
M  V30 1469 H 143.05 1.40304 -1.59463 0
M  V30 1470 H 145.313 0.671794 -0.668878 0
M  V30 1471 H 145.019 2.87417 -2.02693 0
M  V30 1472 H 144.893 3.73807 -0.504771 0
M  V30 1473 H 147.28 2.94941 0.0967067 0
M  V30 1474 H 147.361 2.10364 -1.45536 0
M  V30 1475 H 147.005 4.32672 -2.66002 0
M  V30 1476 H 146.935 5.15334 -1.08344 0
M  V30 1477 H 149.426 3.59397 -1.16801 0
M  V30 1478 H 149.739 7.13225 -2.97539 0
M  V30 1479 H 148.084 6.4169 -2.66943 0
M  V30 1480 H 151.275 4.42504 -1.52669 0
M  V30 1481 H 151.448 6.03861 -2.35066 0
M  V30 1482 N 144.854 0.36279 1.53368 0
M  V30 1483 C 145.784 -0.476976 2.28576 0
M  V30 1484 C 146.765 -1.08631 1.30894 0
M  V30 1485 O 147.95 -1.10409 1.59761 0
M  V30 1486 C 145.08 -1.61828 3.07293 0
M  V30 1487 C 144.034 -1.13633 4.1264 0
M  V30 1488 C 143.36 -2.36766 4.79423 0
M  V30 1489 C 144.66 -0.223061 5.21823 0
M  V30 1490 H 146.354 0.150474 2.99022 0
M  V30 1491 H 143.9 0.0738103 1.43811 0
M  V30 1492 H 145.853 -2.21237 3.58653 0
M  V30 1493 H 144.577 -2.27292 2.34533 0
M  V30 1494 H 143.236 -0.564945 3.62221 0
M  V30 1495 H 142.884 -3.0068 4.03238 0
M  V30 1496 H 142.584 -2.05192 5.50609 0
M  V30 1497 H 144.108 -2.96865 5.33576 0
M  V30 1498 H 145.522 -0.724545 5.68703 0
M  V30 1499 H 143.919 0.001678 6.001 0
M  V30 1500 H 144.989 0.735553 4.79289 0
M  V30 1501 N 146.332 -1.57332 0.0918853 0
M  V30 1502 C 147.58 -1.93853 -0.571446 0
M  V30 1503 C 147.901 -0.974212 -1.6892 0
M  V30 1504 O 147.171 -0.0257254 -1.95883 0
M  V30 1505 H 145.751 -0.715666 -0.214082 0
M  V30 1506 H 148.413 -1.94287 0.154464 0
M  V30 1507 H 147.509 -2.96191 -0.983729 0
M  V30 1508 N 147.81 0.181792 -1.56548 0
M  V30 1509 C 148.773 1.20894 -1.94724 0
M  V30 1510 C 149.773 1.37738 -0.829747 0
M  V30 1511 O 150.963 1.35323 -1.09697 0
M  V30 1512 C 148.095 2.57593 -2.23291 0
M  V30 1513 H 149.288 0.882275 -2.86629 0
M  V30 1514 H 146.841 0.423838 -1.50444 0
M  V30 1515 H 147.576 2.95291 -1.34067 0
M  V30 1516 H 147.361 2.46735 -3.04736 0
M  V30 1517 H 148.851 3.31637 -2.53785 0
M  V30 1518 N 149.288 1.51039 0.449983 0
M  V30 1519 C 150.198 1.74261 1.57067 0
M  V30 1520 C 151.214 0.626363 1.62335 0
M  V30 1521 O 152.39 0.907162 1.79812 0
M  V30 1522 C 149.455 1.85114 2.93144 0
M  V30 1523 C 148.516 3.0893 2.98095 0
M  V30 1524 C 147.749 3.19256 4.27681 0
M  V30 1525 O 147.972 2.35835 5.19363 0
M  V30 1526 O 146.906 4.12144 4.38658 0
M  V30 1527 H 150.732 2.69303 1.40391 0
M  V30 1528 H 148.317 1.35389 0.631688 0
M  V30 1529 H 150.199 1.94311 3.73926 0
M  V30 1530 H 148.874 0.932588 3.09975 0
M  V30 1531 H 147.781 3.0522 2.16314 0
M  V30 1532 H 149.114 4.00433 2.86206 0
M  V30 1533 N 150.766 -0.704594 1.40972 0
M  V30 1534 C 151.696 -1.83124 1.44872 0
M  V30 1535 C 152.677 -1.67281 0.30838 0
M  V30 1536 O 153.862 -1.87149 0.518556 0
M  V30 1537 C 150.992 -3.21181 1.32136 0
M  V30 1538 C 149.946 -3.51714 2.43888 0
M  V30 1539 C 149.272 -4.89032 2.16222 0
M  V30 1540 C 150.572 -3.516 3.86232 0
M  V30 1541 H 152.266 -1.80117 2.39161 0
M  V30 1542 H 149.812 -0.865145 1.15114 0
M  V30 1543 H 151.765 -3.99702 1.33479 0
M  V30 1544 H 150.489 -3.24791 0.343279 0
M  V30 1545 H 149.148 -2.75539 2.41813 0
M  V30 1546 H 148.796 -4.89256 1.16778 0
M  V30 1547 H 148.496 -5.10426 2.911 0
M  V30 1548 H 150.02 -5.69873 2.19265 0
M  V30 1549 H 151.434 -4.2014 3.9007 0
M  V30 1550 H 149.831 -3.84523 4.60719 0
M  V30 1551 H 150.901 -2.50757 4.15029 0
M  V30 1552 N 152.244 -1.26651 -0.937939 0
M  V30 1553 C 153.66 -1.03834 -1.21205 0
M  V30 1554 C 153.86 0.234502 -2.00131 0
M  V30 1555 O 152.916 0.942767 -2.3424 0
M  V30 1556 C 154.229 -2.27167 -1.97017 0
M  V30 1557 C 155.777 -2.32101 -2.09996 0
M  V30 1558 C 156.252 -3.55136 -2.8921 0
M  V30 1559 N 157.743 -3.55632 -2.96783 0
M  V30 1560 C 158.478 -4.475 -3.58512 0
M  V30 1561 N 157.974 -5.4966 -4.21717 0
M  V30 1562 N 159.767 -4.35145 -3.55816 0
M  V30 1563 H 151.918 -2.08398 -0.410391 0
M  V30 1564 H 154.181 -0.916031 -0.244114 0
M  V30 1565 H 153.887 -3.19765 -1.46434 0
M  V30 1566 H 153.761 -2.31672 -2.97671 0
M  V30 1567 H 156.148 -1.40015 -2.59769 0
M  V30 1568 H 156.229 -2.31605 -1.08594 0
M  V30 1569 H 155.873 -4.47553 -2.40123 0
M  V30 1570 H 155.803 -3.5288 -3.90875 0
M  V30 1571 H 158.294 -2.81743 -2.51852 0
M  V30 1572 H 158.607 -6.15943 -4.66727 0
M  V30 1573 H 156.952 -5.53514 -4.20294 0
M  V30 1574 H 160.143 -3.5455 -3.05634 0
M  V30 1575 H 160.316 -5.06934 -4.03636 0
M  V30 1576 N 153.722 1.14298 -1.08507 0
M  V30 1577 C 154.67 2.21483 -0.710483 0
M  V30 1578 C 155.664 1.66998 0.284234 0
M  V30 1579 O 156.87 1.79401 0.146692 0
M  V30 1580 H 153.245 0.721578 -0.211729 0
M  V30 1581 H 155.216 2.50348 -1.62384 0
M  V30 1582 C 153.965 3.4743 -0.137007 0
M  V30 1583 H 153.288 3.89686 -0.893592 0
M  V30 1584 H 154.728 4.2391 0.0872789 0
M  V30 1585 C 153.187 3.17548 1.12538 0
M  V30 1586 O 153.717 3.35437 2.21009 0
M  V30 1587 N 151.923 2.71499 1.03617 0
M  V30 1588 H 151.47 2.57143 0.153403 0
M  V30 1589 H 151.428 2.51881 1.88158 0
M  V30 1590 N 155.201 0.870884 1.31352 0
M  V30 1591 C 156.164 0.332243 2.26779 0
M  V30 1592 C 157.164 -0.517302 1.52252 0
M  V30 1593 O 158.354 -0.326477 1.71113 0
M  V30 1594 C 155.486 -0.528066 3.36785 0
M  V30 1595 H 156.679 1.17469 2.75937 0
M  V30 1596 H 154.232 0.64655 1.423 0
M  V30 1597 H 154.967 -1.39167 2.92922 0
M  V30 1598 H 154.752 0.0802582 3.92018 0
M  V30 1599 H 156.242 -0.897179 4.07849 0
M  V30 1600 N 156.679 -1.44442 0.630414 0
M  V30 1601 C 157.904 -2.06927 0.139944 0
M  V30 1602 C 158.329 -1.46795 -1.17613 0
M  V30 1603 O 157.687 -0.569144 -1.72135 0
M  V30 1604 C 157.735 -3.6058 0.0379581 0
M  V30 1605 O 156.839 -3.99937 -1.0062 0
M  V30 1606 H 156.18 -0.658608 0.0844483 0
M  V30 1607 H 158.71 -1.85327 0.866891 0
M  V30 1608 H 158.72 -4.07714 -0.152856 0
M  V30 1609 H 157.395 -4.03728 0.998809 0
M  V30 1610 H 155.972 -3.64436 -0.79001 0
M  V30 1611 N 158.157 -0.370918 -1.53173 0
M  V30 1612 C 159.087 0.464847 -2.28826 0
M  V30 1613 C 160.068 1.07936 -1.31468 0
M  V30 1614 O 161.253 1.0956 -1.60344 0
M  V30 1615 C 158.383 1.60196 -3.08147 0
M  V30 1616 C 157.337 1.11443 -4.13237 0
M  V30 1617 C 156.663 2.3422 -4.80672 0
M  V30 1618 C 157.963 0.195384 -5.21934 0
M  V30 1619 H 159.657 -0.166329 -2.98938 0
M  V30 1620 H 157.203 -0.0814359 -1.4377 0
M  V30 1621 H 159.156 2.19332 -3.59822 0
M  V30 1622 H 157.88 2.26045 -2.35735 0
M  V30 1623 H 156.539 0.545727 -3.62515 0
M  V30 1624 H 156.187 2.98537 -4.04827 0
M  V30 1625 H 155.887 2.02269 -5.51689 0
M  V30 1626 H 157.411 2.94032 -5.35143 0
M  V30 1627 H 158.825 0.694375 -5.69079 0
M  V30 1628 H 157.222 -0.0335027 -6.00091 0
M  V30 1629 H 158.292 -0.760961 -4.78892 0
M  V30 1630 N 159.635 1.57281 -0.100228 0
M  V30 1631 C 161.051 1.57527 0.256416 0
M  V30 1632 C 161.251 1.11173 1.68056 0
M  V30 1633 O 160.307 0.79053 2.39806 0
M  V30 1634 C 161.62 3.00673 0.0401747 0
M  V30 1635 C 163.168 3.12815 0.107528 0
M  V30 1636 C 163.643 4.57929 -0.0807834 0
M  V30 1637 N 165.134 4.63193 -0.0261207 0
M  V30 1638 C 165.869 5.73212 -0.146999 0
M  V30 1639 N 165.365 6.92047 -0.322999 0
M  V30 1640 N 167.158 5.62031 -0.0879044 0
M  V30 1641 H 159.309 1.85718 -1.03065 0
M  V30 1642 H 161.572 0.857446 -0.404339 0
M  V30 1643 H 161.278 3.38804 -0.943649 0
M  V30 1644 H 161.152 3.69042 0.780262 0
M  V30 1645 H 163.539 2.74554 1.08186 0
M  V30 1646 H 163.62 2.47028 -0.664134 0
M  V30 1647 H 163.264 4.96886 -1.05201 0
M  V30 1648 H 163.194 5.21783 0.710635 0
M  V30 1649 H 165.685 3.77748 0.107161 0
M  V30 1650 H 165.998 7.7173 -0.406608 0
M  V30 1651 H 164.343 6.94074 -0.358733 0
M  V30 1652 H 167.534 4.68075 0.048498 0
M  V30 1653 H 167.707 6.47734 -0.185557 0
M  V30 1654 N 161.113 -0.173488 1.56642 0
M  V30 1655 C 162.046 -1.24353 1.91342 0
M  V30 1656 C 163.024 -1.4289 0.775965 0
M  V30 1657 O 164.208 -1.57932 1.02907 0
M  V30 1658 C 161.335 -2.60683 2.16245 0
M  V30 1659 C 160.381 -2.58894 3.38934 0
M  V30 1660 S 161.214 -2.0819 4.93373 0
M  V30 1661 C 162.37 -3.46302 5.21369 0
M  V30 1662 H 162.603 -0.947345 2.81803 0
M  V30 1663 H 160.136 -0.377958 1.49703 0
M  V30 1664 H 162.094 -3.39149 2.31275 0
M  V30 1665 H 160.755 -2.87502 1.26496 0
M  V30 1666 H 159.948 -3.59188 3.53553 0
M  V30 1667 H 159.55 -1.88522 3.2301 0
M  V30 1668 H 161.842 -4.42287 5.13214 0
M  V30 1669 H 162.785 -3.3656 6.23003 0
M  V30 1670 H 163.193 -3.42214 4.48943 0
M  V30 1671 N 162.591 -1.51276 -0.441967 0
M  V30 1672 C 163.838 -1.63715 -1.19179 0
M  V30 1673 C 164.166 -0.351175 -1.91303 0
M  V30 1674 O 163.421 0.664524 -1.84072 0
M  V30 1675 C 163.72 -2.78746 -2.23686 0
M  V30 1676 C 163.386 -4.18189 -1.68607 0
M  V30 1677 C 162.048 -4.56125 -1.53308 0
M  V30 1678 C 164.4 -5.05222 -1.28062 0
M  V30 1679 C 161.728 -5.78804 -0.959317 0
M  V30 1680 C 164.08 -6.28476 -0.721162 0
M  V30 1681 C 162.744 -6.65188 -0.55504 0
M  V30 1682 H 162.014 -0.599076 -0.436106 0
M  V30 1683 H 164.661 -1.85296 -0.48351 0
M  V30 1684 H 162.966 -2.51369 -3.00535 0
M  V30 1685 H 164.663 -2.8557 -2.81515 0
M  V30 1686 H 161.253 -3.88277 -1.8149 0
M  V30 1687 H 165.437 -4.76524 -1.38704 0
M  V30 1688 H 160.693 -6.05899 -0.81833 0
M  V30 1689 H 164.867 -6.95259 -0.398458 0
M  V30 1690 H 162.494 -7.60123 -0.108311 0
M  V30 1691 N 164.069 0.697108 -1.41344 0
M  V30 1692 C 165.317 1.45426 -1.40341 0
M  V30 1693 C 165.638 1.94996 -0.0128787 0
M  V30 1694 O 164.908 1.71599 0.945027 0
M  V30 1695 H 163.488 0.539594 -0.516573 0
M  V30 1696 H 166.15 0.825201 -1.76569 0
M  V30 1697 H 165.246 2.31817 -2.08967 0
M  V30 1698 N 165.547 1.27147 0.931209 0
M  V30 1699 C 166.477 1.12081 2.04842 0
M  V30 1700 C 167.458 0.0232364 1.70084 0
M  V30 1701 O 168.643 0.197085 1.93197 0
M  V30 1702 C 165.773 0.76354 3.38803 0
M  V30 1703 C 164.727 1.81396 3.87659 0
M  V30 1704 C 164.053 1.31075 5.18385 0
M  V30 1705 C 165.353 3.21739 4.11438 0
M  V30 1706 H 167.047 2.05537 2.17703 0
M  V30 1707 H 164.593 0.989603 1.04608 0
M  V30 1708 H 166.546 0.644982 4.16435 0
M  V30 1709 H 165.27 -0.206727 3.25945 0
M  V30 1710 H 163.929 1.92136 3.12217 0
M  V30 1711 H 163.577 0.330037 5.01916 0
M  V30 1712 H 163.277 2.013 5.52044 0
M  V30 1713 H 164.801 1.20506 5.98591 0
M  V30 1714 H 166.215 3.14019 4.79651 0
M  V30 1715 H 164.612 3.89644 4.56397 0
M  V30 1716 H 165.682 3.67054 3.16859 0
M  V30 1717 N 167.025 -1.13721 1.09112 0
M  V30 1718 C 168.441 -1.36914 0.820174 0
M  V30 1719 C 168.641 -1.93356 -0.567079 0
M  V30 1720 O 167.697 -2.15093 -1.32255 0
M  V30 1721 C 169.01 -2.3235 1.90877 0
M  V30 1722 C 170.558 -2.45973 1.93562 0
M  V30 1723 C 171.033 -3.44714 3.01556 0
M  V30 1724 N 172.524 -3.52263 3.00775 0
M  V30 1725 C 173.259 -4.28536 3.80978 0
M  V30 1726 N 172.755 -5.07991 4.71081 0
M  V30 1727 N 174.548 -4.23804 3.69251 0
M  V30 1728 H 166.699 -0.754348 1.98553 0
M  V30 1729 H 168.962 -0.3944 0.862063 0
M  V30 1730 H 168.668 -1.98027 2.90651 0
M  V30 1731 H 168.542 -3.32332 1.78424 0
M  V30 1732 H 170.929 -2.79584 0.944286 0
M  V30 1733 H 171.01 -1.45926 2.10093 0
M  V30 1734 H 170.654 -3.11835 4.00901 0
M  V30 1735 H 170.584 -4.44558 2.82269 0
M  V30 1736 H 173.075 -2.95567 2.35475 0
M  V30 1737 H 173.388 -5.63487 5.28869 0
M  V30 1738 H 171.733 -5.07235 4.75119 0
M  V30 1739 H 174.924 -3.60806 2.98222 0
M  V30 1740 H 175.097 -4.82995 4.31995 0
M  V30 1741 N 168.503 -0.877838 -1.30888 0
M  V30 1742 C 169.749 -0.493426 -1.96706 0
M  V30 1743 C 170.082 0.953504 -1.6918 0
M  V30 1744 O 169.357 1.67266 -0.992594 0
M  V30 1745 C 169.64 -0.760429 -3.51979 0
M  V30 1746 C 169.493 -2.25747 -3.89048 0
M  V30 1747 C 170.812 -0.232148 -4.39487 0
M  V30 1748 H 167.931 -0.180746 -0.714493 0
M  V30 1749 H 170.573 -1.10052 -1.54882 0
M  V30 1750 H 168.723 -0.243715 -3.87735 0
M  V30 1751 H 170.395 -2.84204 -3.63354 0
M  V30 1752 H 168.638 -2.72694 -3.37373 0
M  V30 1753 H 169.309 -2.39491 -4.97341 0
M  V30 1754 H 171.785 -0.674314 -4.106 0
M  V30 1755 H 170.661 -0.448355 -5.47066 0
M  V30 1756 H 170.922 0.866297 -4.33529 0
M  V30 1757 N 169.982 1.44106 -0.638065 0
M  V30 1758 C 170.892 2.34513 0.0637334 0
M  V30 1759 C 171.908 1.53018 0.828346 0
M  V30 1760 O 173.084 1.85723 0.779036 0
M  V30 1761 C 170.149 3.31095 1.02844 0
M  V30 1762 C 169.21 4.28497 0.26244 0
M  V30 1763 C 168.443 5.20465 1.1812 0
M  V30 1764 O 168.666 5.16514 2.42011 0
M  V30 1765 O 167.6 5.98251 0.661774 0
M  V30 1766 H 171.426 2.95989 -0.68003 0
M  V30 1767 H 169.011 1.43994 -0.398252 0
M  V30 1768 H 170.893 3.90526 1.58327 0
M  V30 1769 H 169.568 2.72144 1.7527 0
M  V30 1770 H 168.475 3.72592 -0.335602 0
M  V30 1771 H 169.808 4.90388 -0.421936 0
M  V30 1772 N 171.46 0.379036 1.52974 0
M  V30 1773 C 172.737 -0.263479 1.93817 0
M  V30 1774 C 173.117 -1.65244 1.31368 0
M  V30 1775 O 172.465 -2.23448 0.477856 0
M  V30 1776 C 172.675 -0.300166 3.47707 0
M  V30 1777 C 174.023 -0.534061 4.21228 0
M  V30 1778 O 175.047 -0.38081 3.54159 0
M  V30 1779 O 173.906 -0.833501 5.40106 0
M  V30 1780 H 171 -0.161149 0.811147 0
M  V30 1781 H 173.546 0.432798 1.64088 0
M  V30 1782 H 172.318 0.673138 3.85467 0
M  V30 1783 H 171.941 -1.04179 3.83709 0
M  V30 1784 N 172.938 -1.57226 0.108567 0
M  V30 1785 C 173.848 -2.18292 -0.859401 0
M  V30 1786 C 174.864 -1.15612 -1.30038 0
M  V30 1787 O 176.04 -1.48039 -1.36552 0
M  V30 1788 C 173.105 -2.762 -2.09558 0
M  V30 1789 C 172.166 -3.93881 -1.70752 0
M  V30 1790 C 171.399 -4.49018 -2.88477 0
M  V30 1791 O 171.622 -4.03068 -4.036 0
M  V30 1792 O 170.556 -5.39852 -2.66164 0
M  V30 1793 H 174.382 -3.01441 -0.369769 0
M  V30 1794 H 171.967 -1.48945 -0.1165 0
M  V30 1795 H 173.849 -3.13156 -2.81978 0
M  V30 1796 H 172.524 -1.96089 -2.57548 0
M  V30 1797 H 171.431 -3.61713 -0.954714 0
M  V30 1798 H 172.764 -4.75396 -1.27513 0
M  V30 1799 N 174.416 0.165178 -1.56732 0
M  V30 1800 C 175.664 0.879068 -1.8198 0
M  V30 1801 C 175.985 1.82514 -0.686561 0
M  V30 1802 O 175.255 1.93694 0.293146 0
M  V30 1803 H 173.835 0.327608 -0.671329 0
M  V30 1804 H 176.497 0.163526 -1.94213 0
M  V30 1805 H 175.593 1.45228 -2.76252 0
M  V30 1806 N 175.894 1.51508 0.433938 0
M  V30 1807 C 176.842 1.73646 1.54757 0
M  V30 1808 C 177.836 0.602854 1.5831 0
M  V30 1809 O 179.042 0.784318 1.62014 0
M  V30 1810 H 175.417 0.548718 0.51421 0
M  V30 1811 H 177.388 2.66991 1.33261 0
M  V30 1812 C 176.137 1.88172 2.92381 0
M  V30 1813 H 175.46 2.74808 2.90381 0
M  V30 1814 H 176.9 2.07672 3.6966 0
M  V30 1815 C 175.359 0.64239 3.30719 0
M  V30 1816 O 175.889 -0.201362 4.01195 0
M  V30 1817 N 174.095 0.485489 2.86516 0
M  V30 1818 H 173.642 1.17318 2.29334 0
M  V30 1819 H 173.6 -0.342482 3.12529 0
M  V30 1820 N 177.372 -0.689602 1.41712 0
M  V30 1821 C 178.602 -1.47613 1.44548 0
M  V30 1822 C 179.01 -1.89132 0.0509034 0
M  V30 1823 O 178.353 -1.57741 -0.94146 0
M  V30 1824 C 178.415 -2.76596 2.2964 0
M  V30 1825 C 178.079 -2.57245 3.77722 0
M  V30 1826 C 179.076 -2.22804 4.69739 0
M  V30 1827 C 176.761 -2.727 4.2183 0
M  V30 1828 C 178.755 -2.04064 6.03851 0
M  V30 1829 C 176.442 -2.53576 5.56006 0
M  V30 1830 C 177.44 -2.1931 6.46832 0
M  V30 1831 O 177.128 -2.00359 7.78532 0
M  V30 1832 H 176.86 -0.461227 0.494212 0
M  V30 1833 H 179.414 -0.856045 1.86711 0
M  V30 1834 H 177.644 -3.41033 1.82301 0
M  V30 1835 H 179.333 -3.38424 2.24107 0
M  V30 1836 H 180.099 -2.10473 4.36951 0
M  V30 1837 H 175.978 -2.98353 3.51435 0
M  V30 1838 H 179.522 -1.77241 6.74708 0
M  V30 1839 H 175.419 -2.65499 5.88371 0
M  V30 1840 H 176.187 -2.15075 7.89737 0
M  V30 1841 N 178.85 -1.27639 -0.924453 0
M  V30 1842 C 180.078 -1.16989 -1.70649 0
M  V30 1843 C 180.493 0.272869 -1.86818 0
M  V30 1844 O 179.85 1.18549 -1.38753 0
M  V30 1845 C 179.901 -1.85229 -3.10439 0
M  V30 1846 O 179.622 -3.23868 -2.95028 0
M  V30 1847 C 181.123 -1.80746 -4.04779 0
M  V30 1848 H 178.343 -0.406595 -0.53378 0
M  V30 1849 H 180.887 -1.68569 -1.15778 0
M  V30 1850 H 179.042 -1.37545 -3.6216 0
M  V30 1851 H 179.456 -3.57889 -3.83426 0
M  V30 1852 H 180.93 -2.33101 -5.00368 0
M  V30 1853 H 181.407 -0.777499 -4.32263 0
M  V30 1854 H 182.013 -2.28059 -3.58984 0
M  V30 1855 N 180.328 1.1314 -1.09713 0
M  V30 1856 C 181.568 1.8613 -0.844683 0
M  V30 1857 C 181.932 1.81765 0.618491 0
M  V30 1858 O 183.133 2.50024 0.98699 0
M  V30 1859 C 181.404 3.30151 -1.36877 0
M  V30 1860 S 182.963 4.206 -1.25064 0
M  V30 1861 H 179.781 0.642056 -0.305427 0
M  V30 1862 H 182.383 1.36343 -1.4011 0
M  V30 1863 H 181.087 3.30883 -2.42786 0
M  V30 1864 H 180.618 3.85 -0.808614 0
M  V30 1865 H 182.633 4.95783 -0.203486 0
M  V30 1866 N 181.806 0.884767 1.30421 0
M  V30 1867 C 182.736 0.367574 2.30589 0
M  V30 1868 C 183.717 -0.549464 1.60981 0
M  V30 1869 O 184.902 -0.46336 1.88591 0
M  V30 1870 C 182.032 -0.418944 3.44764 0
M  V30 1871 C 180.986 0.406316 4.26067 0
M  V30 1872 C 180.312 -0.506793 5.32293 0
M  V30 1873 C 181.612 1.64832 4.95608 0
M  V30 1874 H 183.306 1.20462 2.74097 0
M  V30 1875 H 180.852 0.580695 1.31772 0
M  V30 1876 H 182.805 -0.791395 4.13902 0
M  V30 1877 H 181.529 -1.28964 3.0006 0
M  V30 1878 H 180.188 0.760903 3.58617 0
M  V30 1879 H 179.836 -1.37519 4.83836 0
M  V30 1880 H 179.536 0.0415828 5.87585 0
M  V30 1881 H 181.06 -0.875764 6.04287 0
M  V30 1882 H 182.474 1.34646 5.57264 0
M  V30 1883 H 180.871 2.13688 5.60765 0
M  V30 1884 H 181.941 2.39284 4.21748 0
M  V30 1885 N 183.284 -1.43765 0.645699 0
M  V30 1886 C 184.531 -2.01898 0.15604 0
M  V30 1887 C 184.859 -1.50887 -1.22733 0
M  V30 1888 O 184.114 -0.689271 -1.8316 0
M  V30 1889 C 184.413 -3.57238 0.107679 0
M  V30 1890 C 184.079 -4.27564 1.43178 0
M  V30 1891 C 182.741 -4.46492 1.7944 0
M  V30 1892 C 185.093 -4.67454 2.30513 0
M  V30 1893 C 182.421 -5.02573 3.02716 0
M  V30 1894 C 184.773 -5.24901 3.53074 0
M  V30 1895 C 183.437 -5.42046 3.89541 0
M  V30 1896 H 182.707 -0.738797 0.057099 0
M  V30 1897 H 185.354 -1.72341 0.834912 0
M  V30 1898 H 183.659 -3.86293 -0.654618 0
M  V30 1899 H 185.356 -3.99965 -0.287938 0
M  V30 1900 H 181.946 -4.13171 1.13963 0
M  V30 1901 H 186.13 -4.5253 2.0379 0
M  V30 1902 H 181.386 -5.14033 3.31028 0
M  V30 1903 H 185.56 -5.54758 4.20971 0
M  V30 1904 H 183.187 -5.85268 4.85145 0
M  V30 1905 N 184.763 -0.387143 -1.52771 0
M  V30 1906 C 186.009 0.196025 -2.0185 0
M  V30 1907 C 186.342 1.46641 -1.27319 0
M  V30 1908 O 185.617 1.90889 -0.373032 0
M  V30 1909 C 185.9 0.466136 -3.5707 0
M  V30 1910 C 185.753 -0.819385 -4.42274 0
M  V30 1911 C 187.072 1.25768 -4.21747 0
M  V30 1912 H 184.191 0.0697708 -0.73369 0
M  V30 1913 H 186.833 -0.516286 -1.82851 0
M  V30 1914 H 184.983 1.07293 -3.7339 0
M  V30 1915 H 186.655 -1.4563 -4.37709 0
M  V30 1916 H 184.898 -1.43517 -4.09372 0
M  V30 1917 H 185.569 -0.585065 -5.48891 0
M  V30 1918 H 188.045 0.744167 -4.09391 0
M  V30 1919 H 186.921 1.41541 -5.30337 0
M  V30 1920 H 187.182 2.27228 -3.79236 0
M  V30 1921 N 186.241 1.57166 -0.116904 0
M  V30 1922 C 187.469 1.99473 0.549383 0
M  V30 1923 C 187.884 0.996541 1.60357 0
M  V30 1924 O 187.241 -0.0108731 1.82497 0
M  V30 1925 C 187.292 3.41788 1.17741 0
M  V30 1926 O 187.013 4.37788 0.165362 0
M  V30 1927 C 188.514 3.99216 1.92722 0
M  V30 1928 H 185.734 0.655009 0.145616 0
M  V30 1929 H 188.278 2.03494 -0.202625 0
M  V30 1930 H 186.433 3.38713 1.88021 0
M  V30 1931 H 186.847 5.20806 0.621403 0
M  V30 1932 H 188.321 5.00882 2.31995 0
M  V30 1933 H 188.798 3.3824 2.80161 0
M  V30 1934 H 189.404 4.0583 1.27209 0
M  V30 1935 N 187.719 -0.156864 1.56817 0
M  V30 1936 C 188.966 -0.871125 1.82805 0
M  V30 1937 C 189.294 -1.81611 0.696262 0
M  V30 1938 O 188.549 -1.93141 -0.315459 0
M  V30 1939 C 188.848 -1.68737 3.1506 0
M  V30 1940 C 188.514 -0.890045 4.42028 0
M  V30 1941 C 187.176 -0.670042 4.76512 0
M  V30 1942 C 189.528 -0.331769 5.20143 0
M  V30 1943 C 186.856 0.119104 5.86579 0
M  V30 1944 C 189.208 0.444365 6.31037 0
M  V30 1945 C 187.872 0.675035 6.64078 0
M  V30 1946 H 187.142 -0.318767 0.668931 0
M  V30 1947 H 189.789 -0.135274 1.91022 0
M  V30 1948 H 188.094 -2.49304 3.0225 0
M  V30 1949 H 189.791 -2.24331 3.3238 0
M  V30 1950 H 186.381 -1.07157 4.14988 0
M  V30 1951 H 190.565 -0.489043 4.93885 0
M  V30 1952 H 185.821 0.307417 6.10627 0
M  V30 1953 H 189.995 0.884139 6.90765 0
M  V30 1954 H 187.622 1.28839 7.49203 0
M  V30 1955 N 189.197 -1.51736 -0.425897 0
M  V30 1956 C 190.608 -1.5732 -1.00536 0
M  V30 1957 C 190.959 -0.403537 -1.92005 0
M  V30 1958 O 190.084 0.478256 -2.11049 0
M  V30 1959 C 190.679 -2.85119 -1.8301 0
M  V30 1960 C 189.238 -2.93236 -2.35987 0
M  V30 1961 C 188.385 -2.52098 -1.15508 0
M  V30 1962 H 191.336 -1.57348 -0.206739 0
M  V30 1963 H 191.357 -2.69526 -2.68581 0
M  V30 1964 H 190.869 -3.7023 -1.16411 0
M  V30 1965 H 188.97 -2.12581 -3.06007 0
M  V30 1966 H 189.083 -3.9713 -2.68001 0
M  V30 1967 H 187.447 -2.05558 -1.50393 0
M  V30 1968 H 188.23 -3.39565 -0.505014 0
M  V30 1969 N 190.675 0.682077 -1.42076 0
M  V30 1970 C 191.607 1.80755 -1.40926 0
M  V30 1971 C 192.62 1.59833 -0.309398 0
M  V30 1972 O 193.809 1.69087 -0.572014 0
M  V30 1973 C 190.909 3.17744 -1.17865 0
M  V30 1974 C 190.082 3.65578 -2.40149 0
M  V30 1975 C 189.141 4.81277 -2.12742 0
M  V30 1976 O 188.167 4.92197 -2.85887 0
M  V30 1977 N 189.369 5.69474 -1.12602 0
M  V30 1978 H 192.134 1.82229 -2.37935 0
M  V30 1979 H 189.695 0.864903 -1.36861 0
M  V30 1980 H 191.687 3.9279 -0.9746 0
M  V30 1981 H 190.257 3.11214 -0.294068 0
M  V30 1982 H 189.477 2.81291 -2.76169 0
M  V30 1983 H 190.765 3.94278 -3.21593 0
M  V30 1984 H 190.163 5.63297 -0.520899 0
M  V30 1985 H 188.72 6.44363 -0.981842 0
M  V30 1986 N 192.153 1.28127 0.917671 0
M  V30 1987 C 193.401 1.14825 1.66312 0
M  V30 1988 C 193.722 -0.304379 1.9261 0
M  V30 1989 O 192.992 -1.21149 1.53947 0
M  V30 1990 H 191.572 0.421953 0.616413 0
M  V30 1991 H 194.234 1.608 1.10134 0
M  V30 1992 H 193.33 1.68489 2.62712 0
M  V30 1993 N 193.631 -1.12557 1.10312 0
M  V30 1994 C 194.856 -1.88405 0.867085 0
M  V30 1995 C 195.281 -1.79038 -0.576817 0
M  V30 1996 O 194.639 -1.14439 -1.40618 0
M  V30 1997 C 194.687 -3.3563 1.31851 0
M  V30 1998 O 193.791 -4.09565 0.482734 0
M  V30 1999 H 193.132 -0.585455 0.313271 0
M  V30 2000 H 195.662 -1.42352 1.4696 0
M  V30 2001 H 195.672 -3.86469 1.3079 0
M  V30 2002 H 194.347 -3.41765 2.37001 0
M  V30 2003 H 192.924 -3.68695 0.558448 0
M  V30 2004 N 195.109 -0.891671 -1.2995 0
M  V30 2005 C 196.525 -0.58662 -1.48428 0
M  V30 2006 C 196.725 0.873951 -1.81561 0
M  V30 2007 O 195.781 1.65471 -1.90724 0
M  V30 2008 C 197.094 -1.50553 -2.60296 0
M  V30 2009 C 198.642 -1.50988 -2.74175 0
M  V30 2010 C 199.117 -2.41488 -3.89163 0
M  V30 2011 N 200.608 -2.39489 -3.96483 0
M  V30 2012 C 201.343 -3.06223 -4.84784 0
M  V30 2013 N 200.839 -3.82206 -5.77833 0
M  V30 2014 N 202.632 -2.95421 -4.78208 0
M  V30 2015 H 194.783 -1.83644 -1.06718 0
M  V30 2016 H 197.046 -0.786455 -0.529332 0
M  V30 2017 H 196.752 -2.54581 -2.42654 0
M  V30 2018 H 196.626 -1.22008 -3.56923 0
M  V30 2019 H 199.013 -0.47708 -2.91218 0
M  V30 2020 H 199.094 -1.83567 -1.78148 0
M  V30 2021 H 198.738 -3.44857 -3.72876 0
M  V30 2022 H 198.668 -2.06222 -4.84541 0
M  V30 2023 H 201.159 -1.84278 -3.29924 0
M  V30 2024 H 201.472 -4.302 -6.41988 0
M  V30 2025 H 199.817 -3.86313 -5.77743 0
M  V30 2026 H 203.008 -2.35581 -4.04499 0
M  V30 2027 H 203.181 -3.47704 -5.46814 0
M  V30 2028 N 196.587 1.43421 -0.653314 0
M  V30 2029 C 197.812 2.06678 -0.172846 0
M  V30 2030 C 198.237 1.48648 1.15262 0
M  V30 2031 O 197.595 0.596457 1.71208 0
M  V30 2032 C 197.643 3.60474 -0.0953184 0
M  V30 2033 O 196.747 4.01487 0.942442 0
M  V30 2034 H 196.088 0.657181 -0.0949155 0
M  V30 2035 H 198.618 1.83925 -0.896265 0
M  V30 2036 H 198.628 4.07905 0.0879728 0
M  V30 2037 H 197.303 4.02088 -1.06291 0
M  V30 2038 H 195.88 3.65646 0.731932 0
M  V30 2039 N 198.065 0.39524 1.52563 0
M  V30 2040 C 199.311 -0.185318 2.01952 0
M  V30 2041 C 199.644 -1.45964 1.28095 0
M  V30 2042 O 198.919 -1.90689 0.38315 0
M  V30 2043 C 199.202 -0.447193 3.57312 0
M  V30 2044 C 199.055 0.842828 4.41833 0
M  V30 2045 C 200.374 -1.23529 4.22408 0
M  V30 2046 H 197.493 -0.0658788 0.73405 0
M  V30 2047 H 200.135 0.525975 1.82575 0
M  V30 2048 H 198.285 -1.05312 3.73954 0
M  V30 2049 H 199.957 1.4795 4.36931 0
M  V30 2050 H 198.2 1.45686 4.08605 0
M  V30 2051 H 198.871 0.614165 5.48573 0
M  V30 2052 H 201.347 -0.722445 4.0978 0
M  V30 2053 H 200.223 -1.38727 5.3108 0
M  V30 2054 H 200.484 -2.25213 3.80436 0
M  V30 2055 N 199.544 -1.57102 0.125237 0
M  V30 2056 C 200.821 -1.86953 -0.575142 0
M  V30 2057 C 201.201 -1.02749 -1.84407 0
M  V30 2058 O 200.549 -0.108144 -2.28244 0
M  V30 2059 C 200.759 -3.38198 -0.861583 0
M  V30 2060 C 202.107 -4.06937 -1.21192 0
M  V30 2061 O 203.131 -3.43252 -0.951645 0
M  V30 2062 O 201.99 -5.19364 -1.70068 0
M  V30 2063 H 199.084 -0.774147 -0.290906 0
M  V30 2064 H 201.63 -1.68942 0.160211 0
M  V30 2065 H 200.402 -3.91282 0.0373647 0
M  V30 2066 H 200.025 -3.61661 -1.65188 0
M  V30 2067 N 201.022 0.148545 -1.56898 0
M  V30 2068 C 202.271 0.85984 -1.82454 0
M  V30 2069 C 202.584 1.82406 -0.706229 0
M  V30 2070 O 203.79 2.57938 -0.847349 0
M  V30 2071 C 202.246 1.57967 -3.2338 0
M  V30 2072 C 201.854 0.65794 -4.43142 0
M  V30 2073 C 203.598 2.27784 -3.58211 0
M  V30 2074 C 201.505 1.3793 -5.75091 0
M  V30 2075 H 200.435 0.324834 -0.68044 0
M  V30 2076 H 203.086 0.112588 -1.83154 0
M  V30 2077 H 201.468 2.37249 -3.17063 0
M  V30 2078 H 202.642 -0.0995497 -4.60692 0
M  V30 2079 H 200.957 0.0682643 -4.16344 0
M  V30 2080 H 203.554 2.8239 -4.54048 0
M  V30 2081 H 203.897 3.04204 -2.84193 0
M  V30 2082 H 204.43 1.55421 -3.66182 0
M  V30 2083 H 201.169 0.656982 -6.52199 0
M  V30 2084 H 200.689 2.10954 -5.61479 0
M  V30 2085 H 202.368 1.92063 -6.17835 0
M  V30 2086 N 202.5 1.5196 0.417844 0
M  V30 2087 C 203.746 1.66793 1.16411 0
M  V30 2088 C 204.101 0.388758 1.88432 0
M  V30 2089 O 203.394 -0.616409 1.81414 0
M  V30 2090 C 203.588 2.82269 2.19223 0
M  V30 2091 C 203.417 4.21293 1.57297 0
M  V30 2092 C 202.187 4.86948 1.34944 0
M  V30 2093 C 204.385 5.03704 1.03858 0
M  V30 2094 N 202.367 6.1003 0.688195 0
M  V30 2095 C 203.738 6.1795 0.503742 0
M  V30 2096 C 205.793 4.89095 0.932203 0
M  V30 2097 C 204.496 7.19188 -0.127034 0
M  V30 2098 C 206.522 5.90559 0.315293 0
M  V30 2099 C 205.884 7.0409 -0.208906 0
M  V30 2100 H 201.983 0.66407 0.412959 0
M  V30 2101 H 204.567 1.89242 0.457772 0
M  V30 2102 H 202.738 2.61451 2.87225 0
M  V30 2103 H 204.47 2.86183 2.86149 0
M  V30 2104 H 201.225 4.45156 1.61657 0
M  V30 2105 H 201.649 6.75964 0.374449 0
M  V30 2106 H 206.291 4.01557 1.32332 0
M  V30 2107 H 204.009 8.06359 -0.530231 0
M  V30 2108 H 207.595 5.81327 0.234625 0
M  V30 2109 H 206.475 7.81257 -0.67875 0
M  V30 2110 N 203.978 -0.674533 1.42435 0
M  V30 2111 C 204.908 -1.80009 1.48724 0
M  V30 2112 C 205.889 -1.6659 0.343793 0
M  V30 2113 O 207.074 -1.86007 0.558137 0
M  V30 2114 C 204.204 -3.18306 1.38919 0
M  V30 2115 C 203.158 -3.46461 2.51294 0
M  V30 2116 C 202.484 -4.84335 2.26547 0
M  V30 2117 C 203.784 -3.43328 3.93603 0
M  V30 2118 H 205.478 -1.75004 2.42928 0
M  V30 2119 H 203.024 -0.840533 1.16923 0
M  V30 2120 H 204.977 -3.9678 1.41927 0
M  V30 2121 H 203.701 -3.2399 0.412094 0
M  V30 2122 H 202.36 -2.70348 2.47604 0
M  V30 2123 H 202.008 -4.86669 1.2713 0
M  V30 2124 H 201.708 -5.04136 3.01861 0
M  V30 2125 H 203.232 -5.65094 2.31304 0
M  V30 2126 H 204.646 -4.11772 3.98894 0
M  V30 2127 H 203.043 -3.74664 4.68771 0
M  V30 2128 H 204.113 -2.41897 4.20255 0
M  V30 2129 N 205.456 -1.28612 -0.910864 0
M  V30 2130 C 206.872 -1.06381 -1.18976 0
M  V30 2131 C 207.072 0.191998 -2.00583 0
M  V30 2132 O 206.128 0.892869 -2.36187 0
M  V30 2133 C 207.441 -2.31295 -1.92154 0
M  V30 2134 C 208.989 -2.36503 -2.05025 0
M  V30 2135 C 209.464 -3.61191 -2.81612 0
M  V30 2136 N 210.955 -3.61847 -2.89172 0
M  V30 2137 C 211.69 -4.55004 -3.4894 0
M  V30 2138 N 211.186 -5.58482 -4.09963 0
M  V30 2139 N 212.979 -4.42594 -3.46506 0
M  V30 2140 H 205.13 -2.09221 -0.366094 0
M  V30 2141 H 207.393 -0.921003 -0.224629 0
M  V30 2142 H 207.099 -3.228 -1.39618 0
M  V30 2143 H 206.973 -2.37934 -2.9269 0
M  V30 2144 H 209.36 -1.45494 -2.5674 0
M  V30 2145 H 209.441 -2.33857 -1.03657 0
M  V30 2146 H 209.085 -4.52545 -2.30576 0
M  V30 2147 H 209.015 -3.61092 -3.83302 0
M  V30 2148 H 211.506 -2.87022 -2.45819 0
M  V30 2149 H 211.819 -6.25704 -4.53557 0
M  V30 2150 H 210.164 -5.62305 -4.08459 0
M  V30 2151 H 213.355 -3.60953 -2.98045 0
M  V30 2152 H 213.528 -5.15381 -3.92793 0
M  V30 2153 N 206.934 1.1197 -1.10907 0
M  V30 2154 C 208.18 1.8386 -0.855773 0
M  V30 2155 C 208.513 1.84134 0.617103 0
M  V30 2156 O 207.788 1.29041 1.45529 0
M  V30 2157 C 208.071 3.31305 -1.411 0
M  V30 2158 C 207.924 3.39456 -2.9511 0
M  V30 2159 C 209.243 4.2721 -1.05736 0
M  V30 2160 H 206.362 0.667545 -0.312334 0
M  V30 2161 H 209.004 1.31331 -1.37303 0
M  V30 2162 H 207.154 3.76169 -0.97105 0
M  V30 2163 H 208.826 3.03191 -3.47668 0
M  V30 2164 H 207.069 2.79849 -3.31462 0
M  V30 2165 H 207.74 4.43209 -3.29044 0
M  V30 2166 H 210.216 3.90497 -1.43706 0
M  V30 2167 H 209.092 5.28775 -1.47269 0
M  V30 2168 H 209.353 4.42088 0.0325958 0
M  V30 2169 N 208.412 0.89855 1.29475 0
M  V30 2170 C 209.342 0.39201 2.30186 0
M  V30 2171 C 210.323 -0.532359 1.61555 0
M  V30 2172 O 211.508 -0.443331 1.89072 0
M  V30 2173 C 208.638 -0.382353 3.45189 0
M  V30 2174 C 207.592 0.451483 4.25612 0
M  V30 2175 C 206.918 -0.450307 5.328 0
M  V30 2176 C 208.218 1.70079 4.93832 0
M  V30 2177 H 209.912 1.23362 2.72804 0
M  V30 2178 H 207.458 0.594638 1.31149 0
M  V30 2179 H 209.411 -0.747451 4.14718 0
M  V30 2180 H 208.135 -1.25774 3.01411 0
M  V30 2181 H 206.794 0.798897 3.57789 0
M  V30 2182 H 206.442 -1.32379 4.85268 0
M  V30 2183 H 206.142 0.103902 5.87508 0
M  V30 2184 H 207.666 -0.811623 6.05182 0
M  V30 2185 H 209.08 1.40549 5.55805 0
M  V30 2186 H 207.477 2.19623 5.58467 0
M  V30 2187 H 208.547 2.43744 4.19186 0
M  V30 2188 N 209.89 -1.43072 0.660911 0
M  V30 2189 C 210.853 -2.29194 -0.0166406 0
M  V30 2190 C 211.853 -1.42609 -0.742912 0
M  V30 2191 O 213.043 -1.64155 -0.583004 0
M  V30 2192 C 210.175 -3.24831 -1.0343 0
M  V30 2193 H 211.368 -2.90596 0.741208 0
M  V30 2194 H 208.921 -1.5048 0.422532 0
M  V30 2195 H 209.656 -2.68339 -1.82111 0
M  V30 2196 H 209.441 -3.88676 -0.517082 0
M  V30 2197 H 210.931 -3.89451 -1.50723 0
M  V30 2198 N 211.368 -0.403325 -1.52352 0
M  V30 2199 C 212.315 0.425011 -2.26853 0
M  V30 2200 C 213.285 1.04598 -1.29029 0
M  V30 2201 O 214.47 1.07135 -1.57882 0
M  V30 2202 C 211.61 1.53888 -3.08889 0
M  V30 2203 C 210.723 0.939396 -4.21663 0
M  V30 2204 C 209.858 2.02547 -4.91068 0
M  V30 2205 C 208.897 1.40263 -5.95813 0
M  V30 2206 N 208.034 2.4286 -6.58759 0
M  V30 2207 H 212.874 -0.21674 -2.97211 0
M  V30 2208 H 210.411 -0.118722 -1.4662 0
M  V30 2209 H 212.369 2.19558 -3.54753 0
M  V30 2210 H 210.999 2.15074 -2.40714 0
M  V30 2211 H 210.051 0.171898 -3.80011 0
M  V30 2212 H 211.363 0.44436 -4.96817 0
M  V30 2213 H 210.517 2.75958 -5.40308 0
M  V30 2214 H 209.256 2.55415 -4.15469 0
M  V30 2215 H 208.261 0.653833 -5.45898 0
M  V30 2216 H 209.486 0.881719 -6.73352 0
M  V30 2217 H 207.432 2.94871 -5.85992 0
M  V30 2218 H 207.349 1.98152 -7.2957 0
M  V30 2219 H 208.617 3.15858 -7.12639 0
M  V30 2220 N 212.846 1.57033 -0.133567 0
M  V30 2221 C 214.257 1.82593 0.389464 0
M  V30 2222 C 214.608 1.05156 1.6564 0
M  V30 2223 O 213.733 0.292644 2.14412 0
M  V30 2224 C 214.328 3.31204 0.713377 0
M  V30 2225 C 212.887 3.57393 1.18098 0
M  V30 2226 C 212.034 2.76598 0.197126 0
M  V30 2227 H 214.985 1.54598 -0.358481 0
M  V30 2228 H 215.006 3.46627 1.56939 0
M  V30 2229 H 214.518 3.87537 -0.2089 0
M  V30 2230 H 212.619 3.06433 2.11966 0
M  V30 2231 H 212.732 4.65915 1.11624 0
M  V30 2232 H 211.096 2.45257 0.687088 0
M  V30 2233 H 211.879 3.35697 -0.718504 0
M  V30 2234 N 214.325 -0.140222 1.56975 0
M  V30 2235 C 215.257 -1.19818 1.95388 0
M  V30 2236 C 216.27 -1.38816 0.850525 0
M  V30 2237 O 217.459 -1.38267 1.12891 0
M  V30 2238 C 214.559 -2.56189 2.21857 0
M  V30 2239 C 213.732 -2.58077 3.5315 0
M  V30 2240 C 212.791 -3.76037 3.6808 0
M  V30 2241 O 211.817 -3.60598 4.40406 0
M  V30 2242 N 213.019 -4.93763 3.05251 0
M  V30 2243 H 215.784 -0.871609 2.86746 0
M  V30 2244 H 213.345 -0.32972 1.58507 0
M  V30 2245 H 215.337 -3.33623 2.2908 0
M  V30 2246 H 213.907 -2.81111 1.36731 0
M  V30 2247 H 213.127 -1.6651 3.57307 0
M  V30 2248 H 214.415 -2.56377 4.39486 0
M  V30 2249 H 213.813 -5.09209 2.46419 0
M  V30 2250 H 212.37 -5.68949 3.18026 0
M  V30 2251 N 215.803 -1.52179 -0.40978 0
M  V30 2252 C 216.751 -1.76086 -1.51975 0
M  V30 2253 C 217.745 -0.627964 -1.57331 0
M  V30 2254 O 218.951 -0.809993 -1.60745 0
M  V30 2255 H 215.326 -0.556829 -0.505416 0
M  V30 2256 H 217.297 -2.69077 -1.28996 0
M  V30 2257 C 216.046 -1.92799 -2.8935 0
M  V30 2258 H 215.369 -2.79392 -2.85972 0
M  V30 2259 H 216.809 -2.13527 -3.66309 0
M  V30 2260 C 215.268 -0.694923 -3.29655 0
M  V30 2261 O 215.798 0.13751 -4.01465 0
M  V30 2262 N 214.004 -0.53101 -2.85707 0
M  V30 2263 H 213.551 -1.20952 -2.27439 0
M  V30 2264 H 213.509 0.292718 -3.13034 0
M  V30 2265 N 217.281 0.66697 -1.42791 0
M  V30 2266 C 218.509 1.45505 -1.47091 0
M  V30 2267 C 218.924 1.8861 -0.0845873 0
M  V30 2268 O 218.281 1.58632 0.90234 0
M  V30 2269 C 218.332 2.69906 -2.40485 0
M  V30 2270 O 218.053 2.28608 -3.73725 0
M  V30 2271 C 219.554 3.63396 -2.53886 0
M  V30 2272 H 216.774 0.447459 -0.500022 0
M  V30 2273 H 219.318 0.818866 -1.8739 0
M  V30 2274 H 217.473 3.29696 -2.03419 0
M  V30 2275 H 217.887 3.08997 -4.23817 0
M  V30 2276 H 219.361 4.47387 -3.2334 0
M  V30 2277 H 219.838 4.09824 -1.57927 0
M  V30 2278 H 220.444 3.09495 -2.91706 0
M  V30 2279 N 218.759 1.29093 0.90403 0
M  V30 2280 C 219.722 1.1386 1.98919 0
M  V30 2281 C 220.722 0.0753457 1.60623 0
M  V30 2282 O 221.912 0.321931 1.71199 0
M  V30 2283 C 219.044 0.740198 3.32767 0
M  V30 2284 H 220.237 2.10246 2.13861 0
M  V30 2285 H 217.79 1.12218 1.08797 0
M  V30 2286 H 218.525 -0.223997 3.23525 0
M  V30 2287 H 218.31 1.50838 3.61926 0
M  V30 2288 H 219.8 0.656546 4.12407 0
M  V30 2289 N 220.237 -1.11381 1.11499 0
M  V30 2290 C 221.147 -2.21019 0.786628 0
M  V30 2291 C 222.163 -1.72597 -0.220507 0
M  V30 2292 O 223.339 -2.01321 -0.0565251 0
M  V30 2293 C 220.404 -3.459 0.235333 0
M  V30 2294 C 219.465 -4.09107 1.30115 0
M  V30 2295 C 218.698 -5.28027 0.776068 0
M  V30 2296 O 218.921 -5.6904 -0.393661 0
M  V30 2297 O 217.855 -5.81835 1.54114 0
M  V30 2298 H 221.681 -2.51521 1.70209 0
M  V30 2299 H 219.266 -1.19928 0.890928 0
M  V30 2300 H 221.148 -4.21346 -0.067715 0
M  V30 2301 H 219.823 -3.17049 -0.652828 0
M  V30 2302 H 218.73 -3.35391 1.65722 0
M  V30 2303 H 220.063 -4.42139 2.16273 0
M  V30 2304 N 221.715 -0.905404 -1.28997 0
M  V30 2305 C 222.961 -0.535039 -1.95615 0
M  V30 2306 C 223.294 0.917404 -1.71165 0
M  V30 2307 O 222.569 1.65123 -1.02785 0
M  V30 2308 C 222.852 -0.834918 -3.50287 0
M  V30 2309 C 222.705 -2.33948 -3.84172 0
M  V30 2310 C 224.024 -0.325318 -4.38896 0
M  V30 2311 H 221.143 -0.195861 -0.710498 0
M  V30 2312 H 223.785 -1.13313 -1.52513 0
M  V30 2313 H 221.935 -0.325904 -3.87131 0
M  V30 2314 H 223.607 -2.91847 -3.57243 0
M  V30 2315 H 221.85 -2.79789 -3.31513 0
M  V30 2316 H 222.521 -2.49987 -4.92149 0
M  V30 2317 H 224.997 -0.761256 -4.09077 0
M  V30 2318 H 223.873 -0.564295 -5.45992 0
M  V30 2319 H 224.134 0.774144 -4.35269 0
M  V30 2320 N 223.193 1.4272 -0.668489 0
M  V30 2321 C 224.125 2.2914 0.052613 0
M  V30 2322 C 225.138 1.43339 0.771857 0
M  V30 2323 O 226.327 1.67123 0.627067 0
M  V30 2324 C 223.427 3.20618 1.09804 0
M  V30 2325 C 222.6 4.35039 0.45389 0
M  V30 2326 C 221.659 5.07282 1.39825 0
M  V30 2327 O 220.685 5.62024 0.900978 0
M  V30 2328 N 221.887 5.12206 2.73176 0
M  V30 2329 H 224.652 2.91668 -0.689209 0
M  V30 2330 H 222.213 1.53577 -0.512422 0
M  V30 2331 H 224.205 3.65815 1.73094 0
M  V30 2332 H 222.775 2.59585 1.74167 0
M  V30 2333 H 221.995 3.92567 -0.358396 0
M  V30 2334 H 223.283 5.088 0.00486972 0
M  V30 2335 H 222.681 4.6913 3.16122 0
M  V30 2336 H 221.238 5.61069 3.31729 0
M  V30 2337 N 224.671 0.411399 1.52136 0
M  V30 2338 C 225.618 -0.412975 2.27075 0
M  V30 2339 C 226.588 -1.03912 1.29582 0
M  V30 2340 O 227.773 -1.06296 1.58448 0
M  V30 2341 C 224.913 -1.52247 3.09701 0
M  V30 2342 C 224.026 -0.917021 4.22155 0
M  V30 2343 C 223.161 -1.9994 4.92135 0
M  V30 2344 C 222.2 -1.37101 5.96548 0
M  V30 2345 N 221.337 -2.39364 6.60038 0
M  V30 2346 H 226.177 0.232499 2.97092 0
M  V30 2347 H 223.714 0.126496 1.46555 0
M  V30 2348 H 225.672 -2.17674 3.55913 0
M  V30 2349 H 224.302 -2.13794 2.41851 0
M  V30 2350 H 223.354 -0.151742 3.80097 0
M  V30 2351 H 224.666 -0.418006 4.97045 0
M  V30 2352 H 223.82 -2.73088 5.41763 0
M  V30 2353 H 222.559 -2.53208 4.16818 0
M  V30 2354 H 221.564 -0.624873 5.46237 0
M  V30 2355 H 222.789 -0.845998 6.7381 0
M  V30 2356 H 220.735 -2.91759 5.87548 0
M  V30 2357 H 220.652 -1.9428 7.3061 0
M  V30 2358 H 221.92 -3.12074 7.14304 0
M  V30 2359 N 226.149 -1.5696 0.141893 0
M  V30 2360 C 227.395 -1.9625 -0.511248 0
M  V30 2361 C 227.728 -1.02654 -1.64851 0
M  V30 2362 O 227.003 -0.0679676 -1.94381 0
M  V30 2363 C 227.286 -3.45285 -1.02227 0
M  V30 2364 C 227.139 -4.49658 0.113138 0
M  V30 2365 C 228.458 -3.96698 -1.90574 0
M  V30 2366 H 225.577 -0.713567 -0.184367 0
M  V30 2367 H 228.219 -1.88698 0.222087 0
M  V30 2368 H 226.369 -3.51852 -1.64719 0
M  V30 2369 H 228.041 -4.55174 0.749302 0
M  V30 2370 H 226.284 -4.26857 0.773026 0
M  V30 2371 H 226.955 -5.51258 -0.286053 0
M  V30 2372 H 229.431 -3.92578 -1.37918 0
M  V30 2373 H 228.307 -5.01453 -2.2324 0
M  V30 2374 H 228.568 -3.3875 -2.84079 0
M  V30 2375 N 227.627 0.131896 -1.57047 0
M  V30 2376 C 228.559 1.1878 -1.9602 0
M  V30 2377 C 229.572 1.38363 -0.857875 0
M  V30 2378 O 230.761 1.37666 -1.13623 0
M  V30 2379 C 227.861 2.55008 -2.23213 0
M  V30 2380 C 227.034 2.56201 -3.54513 0
M  V30 2381 C 226.093 3.7408 -3.70069 0
M  V30 2382 O 225.119 3.58258 -4.42312 0
M  V30 2383 N 226.321 4.92137 -3.07866 0
M  V30 2384 H 229.086 0.85639 -2.87204 0
M  V30 2385 H 226.647 0.321309 -1.5868 0
M  V30 2386 H 228.639 3.32404 -2.30846 0
M  V30 2387 H 227.209 2.80382 -1.3822 0
M  V30 2388 H 226.429 1.64613 -3.58185 0
M  V30 2389 H 227.717 2.54043 -4.4084 0
M  V30 2390 H 227.115 5.07895 -2.49116 0
M  V30 2391 H 225.672 5.67254 -3.21039 0
M  V30 2392 N 229.106 1.52395 0.401703 0
M  V30 2393 C 230.036 1.79231 1.49661 0
M  V30 2394 C 231.017 0.643654 1.57452 0
M  V30 2395 O 232.202 0.889989 1.72606 0
M  V30 2396 C 229.332 1.94971 2.87409 0
M  V30 2397 C 228.286 3.10604 2.94465 0
M  V30 2398 C 227.612 3.11577 4.34538 0
M  V30 2399 C 228.912 4.49921 2.6527 0
M  V30 2400 H 230.606 2.70917 1.27454 0
M  V30 2401 H 228.152 1.30362 0.6117 0
M  V30 2402 H 230.105 2.12328 3.63999 0
M  V30 2403 H 228.829 0.999632 3.10926 0
M  V30 2404 H 227.488 2.93009 2.20321 0
M  V30 2405 H 227.136 2.14277 4.55076 0
M  V30 2406 H 226.836 3.89247 4.40183 0
M  V30 2407 H 228.36 3.31073 5.13053 0
M  V30 2408 H 229.774 4.67683 3.31581 0
M  V30 2409 H 228.171 5.29564 2.82281 0
M  V30 2410 H 229.241 4.57507 1.60671 0
M  V30 2411 N 230.584 -0.659388 1.43143 0
M  V30 2412 C 231.812 -1.44723 1.47861 0
M  V30 2413 C 232.227 -1.88563 0.0945886 0
M  V30 2414 O 231.584 -1.59108 -0.893915 0
M  V30 2415 C 231.635 -2.68627 2.41913 0
M  V30 2416 O 231.356 -2.26623 3.74932 0
M  V30 2417 C 232.857 -3.62045 2.55809 0
M  V30 2418 H 230.077 -0.444801 0.502387 0
M  V30 2419 H 232.621 -0.808916 1.87821 0
M  V30 2420 H 230.776 -3.28613 2.05164 0
M  V30 2421 H 231.19 -3.06745 4.2545 0
M  V30 2422 H 232.664 -4.45666 3.25708 0
M  V30 2423 H 233.141 -4.08981 1.60099 0
M  V30 2424 H 233.747 -3.07944 2.93344 0
M  V30 2425 N 232.062 -1.29571 -0.897171 0
M  V30 2426 C 233.31 -1.17456 -1.64464 0
M  V30 2427 C 233.631 0.273698 -1.9307 0
M  V30 2428 O 232.901 1.18684 -1.55855 0
M  V30 2429 H 231.481 -0.431706 -0.609622 0
M  V30 2430 H 234.143 -1.62531 -1.07562 0
M  V30 2431 H 233.239 -1.72648 -2.59998 0
M  V30 2432 N 233.54 1.10788 -1.12088 0
M  V30 2433 C 234.45 2.20599 -0.798338 0
M  V30 2434 C 235.466 1.72712 0.21135 0
M  V30 2435 O 236.642 2.01348 0.0458477 0
M  V30 2436 C 233.707 3.45771 -0.253674 0
M  V30 2437 C 232.768 4.08411 -1.32283 0
M  V30 2438 C 232.001 5.27608 -0.80406 0
M  V30 2439 O 232.224 5.69241 0.363478 0
M  V30 2440 O 231.158 5.8101 -1.57198 0
M  V30 2441 H 234.984 2.50614 -1.7154 0
M  V30 2442 H 232.569 1.19454 -0.897275 0
M  V30 2443 H 234.451 4.21376 0.0453691 0
M  V30 2444 H 233.126 3.1739 0.636005 0
M  V30 2445 H 232.033 3.34507 -1.67499 0
M  V30 2446 H 233.366 4.40986 -2.18614 0
M  V30 2447 N 235.018 0.912232 1.28515 0
M  V30 2448 C 236.429 0.591352 1.77087 0
M  V30 2449 C 236.78 -0.8933 1.74684 0
M  V30 2450 O 235.905 -1.69876 1.34056 0
M  V30 2451 C 236.5 1.06668 3.2157 0
M  V30 2452 C 235.059 0.79675 3.67871 0
M  V30 2453 C 234.206 1.23427 2.48316 0
M  V30 2454 H 237.157 1.09365 1.15 0
M  V30 2455 H 237.178 0.407455 3.78312 0
M  V30 2456 H 236.69 2.14726 3.23287 0
M  V30 2457 H 234.791 -0.270679 3.71616 0
M  V30 2458 H 234.904 1.40343 4.58084 0
M  V30 2459 H 233.268 0.653036 2.46186 0
M  V30 2460 H 234.051 2.32316 2.52753 0
M  V30 2461 N 236.496 -1.42363 0.676048 0
M  V30 2462 C 237.742 -2.0182 0.199125 0
M  V30 2463 C 238.075 -1.53339 -1.19168 0
M  V30 2464 O 237.35 -0.736124 -1.80032 0
M  V30 2465 C 237.633 -3.59331 0.235144 0
M  V30 2466 C 237.486 -4.17989 1.66149 0
M  V30 2467 C 238.805 -4.3813 -0.41595 0
M  V30 2468 H 235.924 -0.733293 0.0738311 0
M  V30 2469 H 238.566 -1.69368 0.86107 0
M  V30 2470 H 236.716 -3.87109 -0.328487 0
M  V30 2471 H 238.388 -4.0116 2.27747 0
M  V30 2472 H 236.631 -3.7377 2.20178 0
M  V30 2473 H 237.302 -5.27126 1.63837 0
M  V30 2474 H 239.778 -4.16051 0.0638529 0
M  V30 2475 H 238.654 -5.47717 -0.360115 0
M  V30 2476 H 238.915 -4.16101 -1.49373 0
M  V30 2477 N 237.974 -0.419461 -1.51915 0
M  V30 2478 C 239.385 0.0477853 -1.86639 0
M  V30 2479 C 239.736 1.43531 -1.33766 0
M  V30 2480 O 238.861 2.05401 -0.68113 0
M  V30 2481 C 239.456 0.0934885 -3.38671 0
M  V30 2482 C 238.015 0.505097 -3.72996 0
M  V30 2483 C 237.162 -0.313792 -2.75519 0
M  V30 2484 H 240.113 -0.636088 -1.45395 0
M  V30 2485 H 240.134 0.906667 -3.6954 0
M  V30 2486 H 239.646 -0.916501 -3.77123 0
M  V30 2487 H 237.747 1.52135 -3.40126 0
M  V30 2488 H 237.86 0.242309 -4.78487 0
M  V30 2489 H 236.224 0.225363 -2.53701 0
M  V30 2490 H 237.007 -1.32232 -3.16812 0
M  V30 2491 N 239.452 1.56882 -0.150215 0
M  V30 2492 C 240.385 2.12712 0.826358 0
M  V30 2493 C 241.363 1.05154 1.24022 0
M  V30 2494 O 242.547 1.33004 1.33575 0
M  V30 2495 C 239.674 2.64945 2.11002 0
M  V30 2496 C 238.72 3.8468 1.84183 0
M  V30 2497 S 239.553 5.25502 1.02995 0
M  V30 2498 C 240.709 5.81125 2.32474 0
M  V30 2499 H 240.942 2.95214 0.351598 0
M  V30 2500 H 238.475 1.54267 0.0641211 0
M  V30 2501 H 240.433 2.95689 2.84742 0
M  V30 2502 H 239.094 1.82568 2.55593 0
M  V30 2503 H 238.287 4.19482 2.79375 0
M  V30 2504 H 237.889 3.54714 1.1855 0
M  V30 2505 H 240.181 5.92753 3.281 0
M  V30 2506 H 241.124 6.78625 2.02171 0
M  V30 2507 H 241.532 5.09392 2.43269 0
M  V30 2508 N 240.93 -0.123565 1.57115 0
M  V30 2509 C 241.893 -1.13583 1.99076 0
M  V30 2510 C 242.893 -1.34564 0.880296 0
M  V30 2511 O 244.083 -1.31158 1.14644 0
M  V30 2512 C 241.215 -2.49128 2.32698 0
M  V30 2513 H 242.408 -0.775287 2.89706 0
M  V30 2514 H 239.961 -0.36771 1.51913 0
M  V30 2515 H 240.696 -2.90111 1.44934 0
M  V30 2516 H 240.481 -2.35255 3.13684 0
M  V30 2517 H 241.971 -3.2199 2.65918 0
M  V30 2518 N 242.408 -1.52605 -0.393616 0
M  V30 2519 C 243.824 -1.41753 -0.733357 0
M  V30 2520 C 244.024 -0.534293 -1.94287 0
M  V30 2521 O 243.08 -0.0059787 -2.52499 0
M  V30 2522 C 244.393 -2.84531 -0.972772 0
M  V30 2523 C 245.941 -2.93978 -1.07453 0
M  V30 2524 C 246.416 -4.37756 -1.3466 0
M  V30 2525 N 247.907 -4.4106 -1.41492 0
M  V30 2526 C 248.642 -5.49387 -1.642 0
M  V30 2527 N 248.138 -6.67806 -1.8441 0
M  V30 2528 N 249.931 -5.36923 -1.66342 0
M  V30 2529 H 242.082 -2.08555 0.402328 0
M  V30 2530 H 244.345 -0.940654 0.117789 0
M  V30 2531 H 244.051 -3.51353 -0.156204 0
M  V30 2532 H 243.925 -3.26508 -1.88871 0
M  V30 2533 H 246.312 -2.27326 -1.88167 0
M  V30 2534 H 246.393 -2.55435 -0.136605 0
M  V30 2535 H 246.037 -5.04972 -0.544581 0
M  V30 2536 H 245.967 -4.73848 -2.2973 0
M  V30 2537 H 248.458 -3.55705 -1.27601 0
M  V30 2538 H 248.771 -7.46141 -2.01231 0
M  V30 2539 H 247.116 -6.70843 -1.81644 0
M  V30 2540 H 250.307 -4.43381 -1.50102 0
M  V30 2541 H 250.48 -6.21416 -1.837 0
M  V30 2542 N 243.887 0.651787 -1.4349 0
M  V30 2543 C 245.127 1.42345 -1.46688 0
M  V30 2544 C 245.491 1.91793 -0.0891023 0
M  V30 2545 O 246.692 2.688 0.00423594 0
M  V30 2546 C 244.963 2.57221 -2.48137 0
M  V30 2547 S 246.522 3.45725 -2.70221 0
M  V30 2548 H 243.34 0.485878 -0.51908 0
M  V30 2549 H 245.942 0.756578 -1.80267 0
M  V30 2550 H 244.646 2.1917 -3.46976 0
M  V30 2551 H 244.177 3.28757 -2.16061 0
M  V30 2552 H 246.192 4.53996 -2.00255 0
M  V30 2553 N 245.365 1.30045 0.890287 0
M  V30 2554 C 246.611 1.18737 1.64406 0
M  V30 2555 C 246.944 -0.258525 1.92472 0
M  V30 2556 O 246.219 -1.18562 1.54186 0
M  V30 2557 C 246.502 2.01087 2.98724 0
M  V30 2558 C 246.355 3.53867 2.77665 0
M  V30 2559 C 247.674 1.84457 3.9958 0
M  V30 2560 H 244.793 0.432698 0.596608 0
M  V30 2561 H 247.435 1.5962 1.0306 0
M  V30 2562 H 245.585 1.66349 3.51084 0
M  V30 2563 H 247.257 3.98637 2.32133 0
M  V30 2564 H 245.5 3.78318 2.12269 0
M  V30 2565 H 246.171 4.06772 3.7315 0
M  V30 2566 H 248.647 2.14817 3.56361 0
M  V30 2567 H 247.523 2.44411 4.91482 0
M  V30 2568 H 247.784 0.802276 4.3476 0
M  V30 2569 N 246.843 -1.10192 1.12674 0
M  V30 2570 C 248.068 -1.86523 0.906853 0
M  V30 2571 C 248.493 -1.80221 -0.538711 0
M  V30 2572 O 247.851 -1.17396 -1.38158 0
M  V30 2573 C 247.899 -3.32758 1.3894 0
M  V30 2574 O 247.003 -4.08449 0.5695 0
M  V30 2575 H 246.344 -0.578678 0.325619 0
M  V30 2576 H 248.874 -1.39203 1.49946 0
M  V30 2577 H 248.884 -3.83608 1.38958 0
M  V30 2578 H 247.559 -3.36661 2.44197 0
M  V30 2579 H 246.136 -3.67427 0.636528 0
M  V30 2580 N 248.321 -0.919034 -1.28029 0
M  V30 2581 C 249.549 -0.570971 -1.98866 0
M  V30 2582 C 249.964 0.848996 -1.68634 0
M  V30 2583 O 249.321 1.56307 -0.942036 0
M  V30 2584 C 249.372 -0.776876 -3.53054 0
M  V30 2585 O 249.093 -2.14097 -3.82222 0
M  V30 2586 C 250.594 -0.436356 -4.41147 0
M  V30 2587 H 247.814 -0.217175 -0.634883 0
M  V30 2588 H 250.358 -1.23368 -1.63097 0
M  V30 2589 H 248.513 -0.161085 -3.87065 0
M  V30 2590 H 248.927 -2.18455 -4.76841 0
M  V30 2591 H 250.401 -0.63117 -5.4838 0
M  V30 2592 H 250.878 0.627686 -4.34692 0
M  V30 2593 H 251.484 -1.02991 -4.12641 0
M  V30 2594 N 249.799 1.42003 -0.683588 0
M  V30 2595 C 251.047 2.01015 -0.209101 0
M  V30 2596 C 251.368 1.54365 1.19149 0
M  V30 2597 O 250.638 0.769083 1.80172 0
M  V30 2598 H 249.218 0.743294 -0.074315 0
M  V30 2599 H 251.88 1.73798 -0.882066 0
M  V30 2600 H 250.976 3.11343 -0.2172 0
M  V30 2601 N 251.277 0.427512 1.51691 0
M  V30 2602 C 252.525 -0.141948 2.01601 0
M  V30 2603 C 252.846 -1.44067 1.31414 0
M  V30 2604 O 252.116 -1.90763 0.445658 0
M  V30 2605 H 250.696 -0.0554468 0.744939 0
M  V30 2606 H 253.358 0.567968 1.86441 0
M  V30 2607 H 252.454 -0.324913 3.10404 0
M  V30 2608 N 252.755 -1.56801 0.158532 0
M  V30 2609 C 254.171 -1.5837 -0.197774 0
M  V30 2610 C 254.371 -1.17334 -1.63814 0
M  V30 2611 O 253.427 -0.878988 -2.36707 0
M  V30 2612 C 254.74 -3.00615 0.0714459 0
M  V30 2613 C 256.288 -3.12999 0.00864533 0
M  V30 2614 C 256.763 -4.57313 0.250685 0
M  V30 2615 N 258.254 -4.62777 0.198014 0
M  V30 2616 C 258.989 -5.72271 0.359642 0
M  V30 2617 N 258.485 -6.90371 0.579625 0
M  V30 2618 N 260.278 -5.61318 0.296438 0
M  V30 2619 H 252.429 -1.81765 1.09887 0
M  V30 2620 H 254.692 -0.841849 0.435884 0
M  V30 2621 H 254.398 -3.35068 1.06874 0
M  V30 2622 H 254.272 -3.71683 -0.642757 0
M  V30 2623 H 256.659 -2.7838 -0.979217 0
M  V30 2624 H 256.74 -2.44393 0.755359 0
M  V30 2625 H 256.384 -4.92639 1.2357 0
M  V30 2626 H 256.314 -5.24061 -0.516489 0
M  V30 2627 H 258.805 -3.77885 0.0331115 0
M  V30 2628 H 259.118 -7.69689 0.69275 0
M  V30 2629 H 257.463 -6.92264 0.616087 0
M  V30 2630 H 260.654 -4.67932 0.125258 0
M  V30 2631 H 260.827 -6.46599 0.425831 0
M  V30 2632 N 254.233 0.115231 -1.57178 0
M  V30 2633 C 255.644 0.67197 -1.74188 0
M  V30 2634 C 255.995 1.80125 -0.777777 0
M  V30 2635 O 255.12 2.16346 0.0484376 0
M  V30 2636 C 255.715 1.22573 -3.1585 0
M  V30 2637 C 254.274 1.72872 -3.34353 0
M  V30 2638 C 253.421 0.629972 -2.70049 0
M  V30 2639 H 256.372 -0.110712 -1.58313 0
M  V30 2640 H 256.393 2.09535 -3.17609 0
M  V30 2641 H 255.905 0.403598 -3.85996 0
M  V30 2642 H 254.006 2.5755 -2.69256 0
M  V30 2643 H 254.119 1.83557 -4.42542 0
M  V30 2644 H 252.483 1.0645 -2.31388 0
M  V30 2645 H 253.266 -0.181241 -3.42821 0
M  V30 2646 N 255.711 1.52812 0.385517 0
M  V30 2647 C 257.122 1.5993 0.963293 0
M  V30 2648 C 257.473 0.454302 1.90868 0
M  V30 2649 O 256.598 -0.422132 2.12243 0
M  V30 2650 C 257.193 2.89871 1.75387 0
M  V30 2651 C 255.752 2.99389 2.28129 0
M  V30 2652 C 254.899 2.55071 1.08783 0
M  V30 2653 H 257.85 1.5784 0.164948 0
M  V30 2654 H 257.871 2.76553 2.61341 0
M  V30 2655 H 257.383 3.73186 1.06554 0
M  V30 2656 H 255.484 2.20619 3.00263 0
M  V30 2657 H 255.597 4.04096 2.57377 0
M  V30 2658 H 253.961 2.09473 1.4489 0
M  V30 2659 H 254.744 3.40785 0.414807 0
M  V30 2660 N 257.189 -0.644168 1.43834 0
M  V30 2661 C 258.152 -1.73857 1.49353 0
M  V30 2662 C 259.152 -1.56315 0.377112 0
M  V30 2663 O 260.342 -1.62048 0.639226 0
M  V30 2664 C 257.474 -3.12819 1.35488 0
M  V30 2665 H 258.667 -1.70342 2.46827 0
M  V30 2666 H 256.22 -0.856652 1.30733 0
M  V30 2667 H 256.955 -3.2194 0.390569 0
M  V30 2668 H 256.74 -3.26958 2.16428 0
M  V30 2669 H 258.23 -3.92606 1.42302 0
M  V30 2670 N 258.668 -1.30515 -0.883378 0
M  V30 2671 C 259.6 -1.12846 -1.99496 0
M  V30 2672 C 260.613 -0.0712571 -1.62644 0
M  V30 2673 O 261.802 -0.317432 -1.75655 0
M  V30 2674 C 258.902 -0.699123 -3.3161 0
M  V30 2675 C 258.075 -1.83842 -3.96889 0
M  V30 2676 C 257.134 -1.39737 -5.07307 0
M  V30 2677 O 256.16 -2.10485 -5.28852 0
M  V30 2678 N 257.362 -0.277279 -5.79837 0
M  V30 2679 H 260.127 -2.08585 -2.15203 0
M  V30 2680 H 257.688 -1.22672 -1.05656 0
M  V30 2681 H 259.68 -0.387044 -4.02845 0
M  V30 2682 H 258.25 0.166276 -3.12157 0
M  V30 2683 H 257.47 -2.31853 -3.18807 0
M  V30 2684 H 258.758 -2.60187 -4.37241 0
M  V30 2685 H 258.156 0.3122 -5.64838 0
M  V30 2686 H 256.713 -0.0246623 -6.51795 0
M  V30 2687 N 260.146 1.09593 -1.13257 0
M  V30 2688 C 261.395 1.81105 -0.887917 0
M  V30 2689 C 261.708 1.86563 0.587672 0
M  V30 2690 O 262.914 2.54367 0.949204 0
M  V30 2691 C 261.37 3.25338 -1.53895 0
M  V30 2692 C 260.978 3.28151 -3.04994 0
M  V30 2693 C 262.722 4.01617 -1.37492 0
M  V30 2694 C 260.629 4.66897 -3.6299 0
M  V30 2695 H 259.559 0.678661 -0.328534 0
M  V30 2696 H 262.21 1.23183 -1.36008 0
M  V30 2697 H 260.592 3.8331 -0.994446 0
M  V30 2698 H 261.766 2.79953 -3.66009 0
M  V30 2699 H 260.081 2.65361 -3.20893 0
M  V30 2700 H 262.678 5.04119 -1.78235 0
M  V30 2701 H 263.021 4.15072 -0.31957 0
M  V30 2702 H 263.554 3.50082 -1.88912 0
M  V30 2703 H 260.293 4.58643 -4.68323 0
M  V30 2704 H 259.813 5.15426 -3.06752 0
M  V30 2705 H 261.492 5.3587 -3.62563 0
M  V30 2706 N 261.624 0.925811 1.2754 0
M  V30 2707 C 262.852 0.581509 1.9856 0
M  V30 2708 C 263.267 -0.840041 1.69082 0
M  V30 2709 O 262.624 -1.55805 0.950312 0
M  V30 2710 C 262.675 0.795589 3.52637 0
M  V30 2711 O 262.396 2.16121 3.81082 0
M  V30 2712 C 263.897 0.459744 4.4091 0
M  V30 2713 H 261.117 0.220538 0.633722 0
M  V30 2714 H 263.661 1.24232 1.6244 0
M  V30 2715 H 261.816 0.18161 3.86974 0
M  V30 2716 H 262.23 2.2098 4.75676 0
M  V30 2717 H 263.704 0.660244 5.48037 0
M  V30 2718 H 264.181 -0.604625 4.35018 0
M  V30 2719 H 264.787 1.05178 4.12089 0
M  V30 2720 N 263.102 -1.41638 0.69111 0
M  V30 2721 C 264.348 -2.02104 0.229258 0
M  V30 2722 C 264.703 -1.53741 -1.15678 0
M  V30 2723 O 263.996 -0.736849 -1.76865 0
M  V30 2724 C 264.19 -3.56714 0.221277 0
M  V30 2725 C 264.019 -4.20083 1.605 0
M  V30 2726 C 262.789 -4.54566 2.20676 0
M  V30 2727 C 264.987 -4.46587 2.55078 0
M  V30 2728 N 262.969 -5.03199 3.5166 0
M  V30 2729 C 264.34 -4.96946 3.70735 0
M  V30 2730 C 266.395 -4.28593 2.53401 0
M  V30 2731 C 265.098 -5.31203 4.8499 0
M  V30 2732 C 267.124 -4.63936 3.66765 0
M  V30 2733 C 266.486 -5.14463 4.81152 0
M  V30 2734 H 262.585 -0.771256 0.12918 0
M  V30 2735 H 265.169 -1.72251 0.907626 0
M  V30 2736 H 263.34 -3.86051 -0.426562 0
M  V30 2737 H 265.072 -4.03896 -0.254983 0
M  V30 2738 H 261.827 -4.4087 1.73005 0
M  V30 2739 H 262.251 -5.31926 4.18789 0
M  V30 2740 H 266.893 -3.88771 1.66184 0
M  V30 2741 H 264.611 -5.69951 5.72871 0
M  V30 2742 H 268.197 -4.51677 3.66714 0
M  V30 2743 H 267.077 -5.41299 5.67419 0
M  V30 2744 N 264.58 -0.43555 -1.51462 0
M  V30 2745 C 265.53 0.394701 -2.24558 0
M  V30 2746 C 266.514 0.99157 -1.26715 0
M  V30 2747 O 267.706 0.910007 -1.51815 0
M  V30 2748 C 264.835 1.4963 -3.08975 0
M  V30 2749 C 263.921 0.908912 -4.14246 0
M  V30 2750 N 264.312 0.0505335 -5.05775 0
M  V30 2751 C 262.61 1.17668 -4.30198 0
M  V30 2752 C 263.311 -0.279161 -5.8103 0
M  V30 2753 N 262.287 0.336767 -5.42556 0
M  V30 2754 H 266.089 -0.267106 -2.92684 0
M  V30 2755 H 263.603 -0.247518 -1.60503 0
M  V30 2756 H 265.6 2.10394 -3.59917 0
M  V30 2757 H 264.26 2.16046 -2.42393 0
M  V30 2758 H 265.271 -0.31577 -5.16936 0
M  V30 2759 H 261.948 1.83847 -3.74842 0
M  V30 2760 H 263.338 -0.977553 -6.64751 0
M  V30 2761 N 266.058 1.56714 -0.166846 0
M  V30 2762 C 267.283 2.01557 0.488833 0
M  V30 2763 C 267.708 1.0463 1.56314 0
M  V30 2764 O 267.066 0.0251304 1.81283 0
M  V30 2765 C 267.114 3.4503 1.04818 0
M  V30 2766 O 266.218 3.51163 2.16236 0
M  V30 2767 H 265.559 0.653516 0.117526 0
M  V30 2768 H 268.089 2.02818 -0.269421 0
M  V30 2769 H 268.099 3.84243 1.37191 0
M  V30 2770 H 266.774 4.15077 0.261572 0
M  V30 2771 H 265.351 3.23807 1.84942 0
M  V30 2772 N 267.536 -0.106894 1.57237 0
M  V30 2773 C 268.813 -0.843526 1.76477 0
M  V30 2774 C 269.193 -1.97499 0.745464 0
M  V30 2775 O 268.541 -2.27357 -0.228306 0
M  V30 2776 C 268.751 -1.34903 3.21873 0
M  V30 2777 C 270.099 -1.79654 3.8472 0
M  V30 2778 O 271.123 -1.44554 3.2555 0
M  V30 2779 O 269.982 -2.44515 4.88748 0
M  V30 2780 H 267.076 -0.401468 0.723016 0
M  V30 2781 H 269.622 -0.0896927 1.69463 0
M  V30 2782 H 268.394 -0.53781 3.87586 0
M  V30 2783 H 268.017 -2.16522 3.33473 0
M  V30 2784 N 269.014 -1.53014 -0.377408 0
M  V30 2785 C 269.944 -1.81589 -1.46791 0
M  V30 2786 C 270.925 -0.668622 -1.56408 0
M  V30 2787 O 272.11 -0.917337 -1.71168 0
M  V30 2788 C 269.24 -1.99519 -2.8427 0
M  V30 2789 C 268.194 -3.15249 -2.89486 0
M  V30 2790 C 267.52 -3.18451 -4.29527 0
M  V30 2791 C 268.82 -4.54084 -2.58079 0
M  V30 2792 H 270.514 -2.7291 -1.23127 0
M  V30 2793 H 268.06 -1.31319 -0.590883 0
M  V30 2794 H 270.013 -2.18092 -3.60575 0
M  V30 2795 H 268.737 -1.04897 -3.09296 0
M  V30 2796 H 267.396 -2.96477 -2.15631 0
M  V30 2797 H 267.044 -2.2149 -4.5161 0
M  V30 2798 H 266.744 -3.962 -4.33934 0
M  V30 2799 H 268.268 -3.39193 -5.07721 0
M  V30 2800 H 269.682 -4.72899 -3.24098 0
M  V30 2801 H 268.079 -5.33987 -2.7382 0
M  V30 2802 H 269.149 -4.60006 -1.53372 0
M  V30 2803 N 270.492 0.636531 -1.44174 0
M  V30 2804 C 271.74 1.39343 -1.46383 0
M  V30 2805 C 272.061 1.94766 -0.0955715 0
M  V30 2806 O 271.331 1.75452 0.871395 0
M  V30 2807 H 269.911 0.517199 -0.538994 0
M  V30 2808 H 272.573 0.74957 -1.7991 0
M  V30 2809 H 271.669 2.22746 -2.18611 0
M  V30 2810 N 271.97 1.30982 0.876444 0
M  V30 2811 C 273.218 1.20058 1.62575 0
M  V30 2812 C 273.539 -0.242947 1.93481 0
M  V30 2813 O 272.809 -1.1619 1.57724 0
M  V30 2814 H 271.389 0.44135 0.602677 0
M  V30 2815 H 274.051 1.64222 1.04962 0
M  V30 2816 H 273.147 1.76762 2.57219 0
M  V30 2817 N 273.449 -1.08991 1.13837 0
M  V30 2818 C 274.382 -2.15049 0.763477 0
M  V30 2819 C 275.36 -1.60629 -0.252398 0
M  V30 2820 O 276.544 -1.87958 -0.142853 0
M  V30 2821 C 273.671 -3.38441 0.132545 0
M  V30 2822 C 272.717 -4.11596 1.11763 0
M  V30 2823 S 273.55 -4.6521 2.65216 0
M  V30 2824 C 274.706 -5.91896 2.03495 0
M  V30 2825 H 274.939 -2.46518 1.66182 0
M  V30 2826 H 272.472 -1.21008 0.958976 0
M  V30 2827 H 274.43 -4.09883 -0.225074 0
M  V30 2828 H 273.091 -3.05182 -0.743135 0
M  V30 2829 H 272.284 -5.00121 0.624076 0
M  V30 2830 H 271.886 -3.46038 1.41894 0
M  V30 2831 H 274.178 -6.63156 1.38675 0
M  V30 2832 H 275.121 -6.45938 2.9012 0
M  V30 2833 H 275.529 -5.44625 1.48471 0
M  V30 2834 N 274.927 -0.932562 -1.27047 0
M  V30 2835 C 276.338 -0.619451 -1.76124 0
M  V30 2836 C 276.689 0.865397 -1.76083 0
M  V30 2837 O 275.814 1.67722 -1.36742 0
M  V30 2838 C 276.409 -1.11771 -3.19832 0
M  V30 2839 C 274.968 -0.855174 -3.66557 0
M  V30 2840 C 274.115 -1.27362 -2.46321 0
M  V30 2841 H 277.066 -1.11181 -1.13245 0
M  V30 2842 H 277.087 -0.46759 -3.77616 0
M  V30 2843 H 276.599 -2.19842 -3.1983 0
M  V30 2844 H 274.7 0.211524 -3.71999 0
M  V30 2845 H 274.813 -1.47613 -4.55793 0
M  V30 2846 H 273.177 -0.692119 -2.45116 0
M  V30 2847 H 273.96 -2.36307 -2.49025 0
M  V30 2848 N 276.405 1.4127 -0.698611 0
M  V30 2849 C 277.353 2.32588 -0.023855 0
M  V30 2850 C 278.347 1.51128 0.765292 0
M  V30 2851 O 279.553 1.67043 0.670571 0
M  V30 2852 H 275.928 0.751918 0.0110871 0
M  V30 2853 H 277.899 2.87167 -0.811031 0
M  V30 2854 C 276.648 3.35947 0.896369 0
M  V30 2855 H 275.971 3.98684 0.298548 0
M  V30 2856 H 277.411 4.02376 1.33676 0
M  V30 2857 C 275.87 2.70076 2.01396 0
M  V30 2858 O 276.4 2.55093 3.10307 0
M  V30 2859 N 274.606 2.28724 1.79259 0
M  V30 2860 H 274.153 2.4111 0.906841 0
M  V30 2861 H 274.111 1.84986 2.54219 0
M  V30 2862 N 277.883 0.443576 1.51229 0
M  V30 2863 C 279.111 -0.11929 2.06556 0
M  V30 2864 C 279.526 -1.35921 1.31038 0
M  V30 2865 O 278.883 -1.78675 0.371704 0
M  V30 2866 C 278.934 -0.435228 3.5887 0
M  V30 2867 O 278.655 0.755486 4.31537 0
M  V30 2868 C 280.156 -1.04808 4.30732 0
M  V30 2869 H 277.376 -0.0051584 0.67098 0
M  V30 2870 H 279.92 0.624453 1.94733 0
M  V30 2871 H 278.075 -1.12887 3.70588 0
M  V30 2872 H 278.489 0.483491 5.22267 0
M  V30 2873 H 279.963 -1.2191 5.3837 0
M  V30 2874 H 280.44 -2.03081 3.89429 0
M  V30 2875 H 281.046 -0.393637 4.23474 0
M  V30 2876 N 279.361 -1.56624 0.175154 0
M  V30 2877 C 280.586 -2.01813 -0.478137 0
M  V30 2878 C 281.011 -1.05457 -1.55757 0
M  V30 2879 O 280.369 -0.0347439 -1.81267 0
M  V30 2880 C 280.417 -3.45581 -1.02987 0
M  V30 2881 O 279.521 -3.52305 -2.14371 0
M  V30 2882 H 278.862 -0.65413 -0.114059 0
M  V30 2883 H 281.392 -2.02673 0.280173 0
M  V30 2884 H 281.402 -3.84965 -1.35151 0
M  V30 2885 H 280.077 -4.1521 -0.239556 0
M  V30 2886 H 278.654 -3.24783 -1.83222 0
M  V30 2887 N 280.839 0.0985539 -1.57292 0
M  V30 2888 C 281.771 1.14595 -1.98496 0
M  V30 2889 C 282.784 1.36512 -0.887031 0
M  V30 2890 O 283.973 1.35225 -1.16518 0
M  V30 2891 C 281.073 2.50216 -2.28572 0
M  V30 2892 C 280.246 2.48624 -3.59868 0
M  V30 2893 C 279.305 3.66146 -3.7792 0
M  V30 2894 O 278.331 3.48795 -4.49812 0
M  V30 2895 N 279.533 4.85496 -3.18235 0
M  V30 2896 H 282.298 0.795277 -2.88956 0
M  V30 2897 H 279.859 0.287579 -1.59325 0
M  V30 2898 H 281.851 3.27432 -2.37845 0
M  V30 2899 H 280.421 2.77387 -1.44136 0
M  V30 2900 H 279.641 1.56978 -3.61596 0
M  V30 2901 H 280.929 2.44635 -4.46129 0
M  V30 2902 H 280.327 5.02497 -2.59833 0
M  V30 2903 H 278.884 5.60317 -3.32999 0
M  V30 2904 N 282.317 1.53212 0.369288 0
M  V30 2905 C 283.563 1.69466 1.11397 0
M  V30 2906 C 283.896 0.443257 1.89074 0
M  V30 2907 O 283.171 -0.559386 1.86282 0
M  V30 2908 C 283.454 2.9422 2.07621 0
M  V30 2909 C 283.307 4.29508 1.33577 0
M  V30 2910 C 284.626 3.14565 3.07794 0
M  V30 2911 H 281.745 0.616667 0.403597 0
M  V30 2912 H 284.387 1.85845 0.395179 0
M  V30 2913 H 282.537 2.80387 2.68916 0
M  V30 2914 H 284.209 4.55147 0.750955 0
M  V30 2915 H 282.452 4.29088 0.637618 0
M  V30 2916 H 283.123 5.12926 2.03989 0
M  V30 2917 H 285.599 3.2756 2.56601 0
M  V30 2918 H 284.475 4.03297 3.72348 0
M  V30 2919 H 284.736 2.29675 3.77759 0
M  V30 2920 N 283.795 -0.628877 1.44509 0
M  V30 2921 C 285.206 -1.21054 1.42137 0
M  V30 2922 C 285.557 -1.95715 0.137881 0
M  V30 2923 O 284.682 -2.02554 -0.761645 0
M  V30 2924 C 285.277 -2.20189 2.57493 0
M  V30 2925 C 283.836 -2.73777 2.58308 0
M  V30 2926 C 282.983 -1.48813 2.33987 0
M  V30 2927 H 285.934 -0.41942 1.53057 0
M  V30 2928 H 285.955 -3.02833 2.30375 0
M  V30 2929 H 285.467 -1.6582 3.50892 0
M  V30 2930 H 283.568 -3.32142 1.68856 0
M  V30 2931 H 283.681 -3.19662 3.56865 0
M  V30 2932 H 282.045 -1.77024 1.83124 0
M  V30 2933 H 282.828 -0.963442 3.29504 0
M  V30 2934 N 285.273 -1.31445 -0.869486 0
M  V30 2935 C 286.521 -1.20918 -1.61936 0
M  V30 2936 C 286.842 0.232683 -1.93607 0
M  V30 2937 O 286.112 1.15352 -1.58338 0
M  V30 2938 H 284.692 -0.44454 -0.600328 0
M  V30 2939 H 287.354 -1.64776 -1.0409 0
M  V30 2940 H 286.45 -1.78124 -2.56278 0
M  V30 2941 N 286.751 1.08385 -1.14413 0
M  V30 2942 C 287.998 1.80776 -0.912482 0
M  V30 2943 C 288.326 1.86236 0.560934 0
M  V30 2944 O 287.581 1.33431 1.43159 0
M  V30 2945 C 287.88 3.26273 -1.45879 0
M  V30 2946 C 287.546 3.4093 -2.95089 0
M  V30 2947 C 286.208 3.44638 -3.35824 0
M  V30 2948 C 288.56 3.44591 -3.91033 0
M  V30 2949 C 285.888 3.49597 -4.71167 0
M  V30 2950 C 288.24 3.51086 -5.26233 0
M  V30 2951 C 286.904 3.53067 -5.6648 0
M  V30 2952 H 286.174 0.661507 -0.333901 0
M  V30 2953 H 288.821 1.27613 -1.42784 0
M  V30 2954 H 287.126 3.82146 -0.864376 0
M  V30 2955 H 288.823 3.80839 -1.2555 0
M  V30 2956 H 285.413 3.38736 -2.62594 0
M  V30 2957 H 289.597 3.40957 -3.60641 0
M  V30 2958 H 284.853 3.49424 -5.0171 0
M  V30 2959 H 289.027 3.52864 -6.00383 0
M  V30 2960 H 286.654 3.56662 -6.71339 0
M  V30 2961 N 288.23 0.939286 1.26551 0
M  V30 2962 C 289.16 0.465044 2.28822 0
M  V30 2963 C 290.141 -0.480692 1.63167 0
M  V30 2964 O 291.326 -0.382955 1.90387 0
M  V30 2965 C 288.456 -0.27234 3.46231 0
M  V30 2966 C 287.41 0.58666 4.2396 0
M  V30 2967 C 286.736 -0.280573 5.33963 0
M  V30 2968 C 288.036 1.85704 4.88171 0
M  V30 2969 H 289.73 1.31979 2.68741 0
M  V30 2970 H 287.276 0.636061 1.29191 0
M  V30 2971 H 289.229 -0.615133 4.16886 0
M  V30 2972 H 287.953 -1.16121 3.0526 0
M  V30 2973 H 286.612 0.91232 3.55067 0
M  V30 2974 H 286.26 -1.16874 4.89234 0
M  V30 2975 H 285.96 0.29076 5.8688 0
M  V30 2976 H 287.484 -0.618678 6.07458 0
M  V30 2977 H 288.898 1.58161 5.51052 0
M  V30 2978 H 287.295 2.37279 5.51197 0
M  V30 2979 H 288.365 2.56957 4.11219 0
M  V30 2980 N 289.708 -1.40897 0.706093 0
M  V30 2981 C 290.933 -2.05895 0.249435 0
M  V30 2982 C 291.358 -1.52823 -1.09666 0
M  V30 2983 O 290.716 -0.659589 -1.68876 0
M  V30 2984 C 290.764 -3.59872 0.22904 0
M  V30 2985 O 289.868 -4.04708 -0.792784 0
M  V30 2986 H 289.209 -0.653206 0.119241 0
M  V30 2987 H 291.739 -1.80471 0.96391 0
M  V30 2988 H 291.749 -4.07951 0.0634791 0
M  V30 2989 H 290.424 -3.97866 1.21141 0
M  V30 2990 H 289.001 -3.68111 -0.59572 0
M  V30 2991 N 291.186 -0.45159 -1.50991 0
M  V30 2992 C 292.434 0.109857 -2.01801 0
M  V30 2993 C 292.755 1.41958 -1.3369 0
M  V30 2994 O 292.025 1.9003 -0.475951 0
M  V30 2995 H 290.605 0.0435884 -0.745727 0
M  V30 2996 H 293.267 -0.597557 -1.85514 0
M  V30 2997 H 292.363 0.275489 -3.10882 0
M  V30 2998 N 292.664 1.56529 -0.183458 0
M  V30 2999 C 293.892 2.01623 0.464285 0
M  V30 3000 C 294.307 1.06366 1.55986 0
M  V30 3001 O 293.664 0.0665398 1.82379 0
M  V30 3002 C 293.715 3.46475 1.03139 0
M  V30 3003 O 293.436 4.38095 -0.0204675 0
M  V30 3004 C 294.937 4.0703 1.75617 0
M  V30 3005 H 292.157 0.660596 0.117704 0
M  V30 3006 H 294.701 2.02451 -0.288751 0
M  V30 3007 H 292.856 3.46383 1.73486 0
M  V30 3008 H 293.27 5.22973 0.399952 0
M  V30 3009 H 294.744 5.10271 2.10542 0
M  V30 3010 H 295.221 3.49819 2.65563 0
M  V30 3011 H 295.827 4.1086 1.09882 0
M  V30 3012 N 294.142 -0.090211 1.57342 0
M  V30 3013 C 295.388 -0.793982 1.86611 0
M  V30 3014 C 295.721 -1.78142 0.773252 0
M  V30 3015 O 294.996 -1.93271 -0.218304 0
M  V30 3016 C 295.279 -1.51839 3.26523 0
M  V30 3017 C 295.132 -0.548609 4.46442 0
M  V30 3018 C 296.451 -2.46779 3.64401 0
M  V30 3019 H 293.57 -0.287186 0.678744 0
M  V30 3020 H 296.212 -0.0575076 1.89913 0
M  V30 3021 H 294.362 -2.14617 3.23839 0
M  V30 3022 H 296.034 0.0725513 4.61243 0
M  V30 3023 H 294.277 0.137614 4.33582 0
M  V30 3024 H 294.948 -1.09271 5.41076 0
M  V30 3025 H 297.424 -1.94089 3.68061 0
M  V30 3026 H 296.3 -2.94479 4.63221 0
M  V30 3027 H 296.561 -3.30758 2.93346 0
M  V30 3028 N 295.62 -1.53406 -0.361157 0
M  V30 3029 C 296.848 -1.73717 -1.12383 0
M  V30 3030 C 297.263 -0.468161 -1.82904 0
M  V30 3031 O 296.62 0.559198 -1.73722 0
M  V30 3032 C 296.671 -2.90558 -2.15078 0
M  V30 3033 O 296.392 -4.12549 -1.47428 0
M  V30 3034 C 297.893 -3.22777 -3.03858 0
M  V30 3035 H 295.113 -0.580896 -0.335858 0
M  V30 3036 H 297.657 -2.00167 -0.418728 0
M  V30 3037 H 295.812 -2.66489 -2.8118 0
M  V30 3038 H 296.226 -4.78009 -2.15887 0
M  V30 3039 H 297.7 -4.07927 -3.71887 0
M  V30 3040 H 298.177 -2.38329 -3.68912 0
M  V30 3041 H 298.783 -3.48787 -2.43367 0
M  V30 3042 N 297.098 0.621204 -1.44841 0
M  V30 3043 C 298.344 1.3826 -1.48365 0
M  V30 3044 C 298.677 1.93831 -0.119624 0
M  V30 3045 O 297.952 1.74251 0.864111 0
M  V30 3046 C 298.235 2.54058 -2.55199 0
M  V30 3047 C 298.088 2.03772 -4.00995 0
M  V30 3048 C 299.407 3.56225 -2.58442 0
M  V30 3049 H 296.526 0.501374 -0.540179 0
M  V30 3050 H 299.168 0.7015 -1.76576 0
M  V30 3051 H 297.318 3.12162 -2.31274 0
M  V30 3052 H 298.99 1.50423 -4.36086 0
M  V30 3053 H 297.233 1.34876 -4.12299 0
M  V30 3054 H 297.904 2.87185 -4.71411 0
M  V30 3055 H 300.38 3.07939 -2.79844 0
M  V30 3056 H 299.256 4.34756 -3.3508 0
M  V30 3057 H 299.517 4.10949 -1.63013 0
M  V30 3058 N 298.576 1.31904 0.862503 0
M  V30 3059 C 299.804 1.24998 1.64873 0
M  V30 3060 C 300.219 -0.183425 1.87907 0
M  V30 3061 O 299.576 -1.11794 1.44251 0
M  V30 3062 C 299.627 1.99829 3.01248 0
M  V30 3063 O 299.348 3.37575 2.79239 0
M  V30 3064 C 300.849 1.99852 3.95694 0
M  V30 3065 H 298.069 0.431599 0.513773 0
M  V30 3066 H 300.613 1.73901 1.07604 0
M  V30 3067 H 298.768 1.54668 3.55185 0
M  V30 3068 H 299.182 3.75776 3.65914 0
M  V30 3069 H 300.656 2.56709 4.88676 0
M  V30 3070 H 301.133 0.982852 4.28062 0
M  V30 3071 H 301.739 2.44926 3.47694 0
M  V30 3072 N 300.054 -1.07777 1.14986 0
M  V30 3073 C 301.279 -1.84558 0.946213 0
M  V30 3074 C 301.704 -1.81323 -0.500362 0
M  V30 3075 O 301.062 -1.20301 -1.35637 0
M  V30 3076 C 301.11 -3.29736 1.45968 0
M  V30 3077 O 300.214 -4.07149 0.65601 0
M  V30 3078 H 299.555 -0.571641 0.33782 0
M  V30 3079 H 302.085 -1.35991 1.52865 0
M  V30 3080 H 302.095 -3.80574 1.47063 0
M  V30 3081 H 300.77 -3.31406 2.51283 0
M  V30 3082 H 299.347 -3.65994 0.714322 0
M  V30 3083 N 301.532 -0.945985 -1.26051 0
M  V30 3084 C 302.462 -0.477172 -2.28572 0
M  V30 3085 C 303.443 0.472032 -1.63419 0
M  V30 3086 O 304.628 0.372853 -1.90587 0
M  V30 3087 C 301.758 0.253975 -3.4637 0
M  V30 3088 C 300.712 -0.609135 -4.23643 0
M  V30 3089 C 300.038 0.252252 -5.34105 0
M  V30 3090 C 301.338 -1.8829 -4.8718 0
M  V30 3091 H 303.032 -1.33402 -2.68038 0
M  V30 3092 H 300.578 -0.642904 -1.28852 0
M  V30 3093 H 302.531 0.593016 -4.17207 0
M  V30 3094 H 301.255 1.145 -3.05871 0
M  V30 3095 H 299.914 -0.931138 -3.54578 0
M  V30 3096 H 299.562 1.14278 -4.89846 0
M  V30 3097 H 299.262 -0.32188 -5.86718 0
M  V30 3098 H 300.786 0.586454 -6.07777 0
M  V30 3099 H 302.2 -1.61081 -5.50205 0
M  V30 3100 H 300.597 -2.40199 -5.49931 0
M  V30 3101 H 301.667 -2.59134 -4.09851 0
M  V30 3102 N 303.011 1.40521 -0.713556 0
M  V30 3103 C 304.257 2.01714 -0.261382 0
M  V30 3104 C 304.612 1.55562 1.13217 0
M  V30 3105 O 303.905 0.764893 1.7567 0
M  V30 3106 C 304.099 3.56317 -0.278 0
M  V30 3107 C 303.928 4.17476 -1.67163 0
M  V30 3108 C 302.698 4.50998 -2.2788 0
M  V30 3109 C 304.896 4.42472 -2.6215 0
M  V30 3110 N 302.878 4.9754 -3.5962 0
M  V30 3111 C 304.249 4.90985 -3.78594 0
M  V30 3112 C 306.304 4.24508 -2.60188 0
M  V30 3113 C 305.007 5.2342 -4.9338 0
M  V30 3114 C 307.033 4.58043 -3.741 0
M  V30 3115 C 306.395 5.06743 -4.89276 0
M  V30 3116 H 302.494 0.769104 -0.141434 0
M  V30 3117 H 305.078 1.70785 -0.934915 0
M  V30 3118 H 303.249 3.8668 0.36509 0
M  V30 3119 H 304.981 4.0425 0.190695 0
M  V30 3120 H 301.736 4.38062 -1.79997 0
M  V30 3121 H 302.16 5.25196 -4.27198 0
M  V30 3122 H 306.802 3.86078 -1.72348 0
M  V30 3123 H 304.52 5.60765 -5.81866 0
M  V30 3124 H 308.106 4.45785 -3.73854 0
M  V30 3125 H 306.986 5.32204 -5.75959 0
M  V30 3126 N 304.489 0.459591 1.5075 0
M  V30 3127 C 305.738 -0.100971 2.01447 0
M  V30 3128 C 306.051 -1.41816 1.34713 0
M  V30 3129 O 307.257 -2.06299 1.76502 0
M  V30 3130 C 305.713 -0.23047 3.59161 0
M  V30 3131 C 305.321 1.0776 4.34847 0
M  V30 3132 C 307.065 -0.743608 4.17936 0
M  V30 3133 C 304.972 0.91253 5.84317 0
M  V30 3134 H 303.902 -0.0415102 0.752856 0
M  V30 3135 H 306.553 0.592742 1.73663 0
M  V30 3136 H 304.935 -0.987703 3.83485 0
M  V30 3137 H 306.109 1.8449 4.22256 0
M  V30 3138 H 304.424 1.52097 3.87628 0
M  V30 3139 H 307.021 -0.883959 5.27343 0
M  V30 3140 H 307.364 -1.73196 3.78562 0
M  V30 3141 H 307.897 -0.04408 3.97776 0
M  V30 3142 H 304.636 1.87391 6.28144 0
M  V30 3143 H 304.156 0.185422 5.99513 0
M  V30 3144 H 305.835 0.574547 6.44444 0
M  V30 3145 N 305.967 -1.56429 0.191757 0
M  V30 3146 C 306.897 -2.21937 -0.725696 0
M  V30 3147 C 307.878 -1.1814 -1.2238 0
M  V30 3148 O 309.063 -1.46636 -1.27325 0
M  V30 3149 C 306.193 -2.87611 -1.94672 0
M  V30 3150 C 305.147 -3.97623 -1.58366 0
M  V30 3151 C 304.473 -4.50446 -2.88102 0
M  V30 3152 C 305.773 -5.16197 -0.796133 0
M  V30 3153 H 307.467 -2.98861 -0.179606 0
M  V30 3154 H 305.013 -1.43749 -0.0849464 0
M  V30 3155 H 306.966 -3.3212 -2.59373 0
M  V30 3156 H 305.69 -2.08087 -2.51728 0
M  V30 3157 H 304.349 -3.53801 -0.960247 0
M  V30 3158 H 303.997 -3.67688 -3.43241 0
M  V30 3159 H 303.697 -5.24675 -2.64556 0
M  V30 3160 H 305.221 -4.97654 -3.53798 0
M  V30 3161 H 306.635 -5.57271 -1.34618 0
M  V30 3162 H 305.032 -5.96471 -0.658928 0
M  V30 3163 H 306.102 -4.84473 0.203478 0
M  V30 3164 N 307.445 0.0818655 -1.57387 0
M  V30 3165 C 308.691 0.784074 -1.8703 0
M  V30 3166 C 309.024 1.77729 -0.782689 0
M  V30 3167 O 308.299 1.93384 0.208051 0
M  V30 3168 C 308.582 1.50105 -3.27323 0
M  V30 3169 C 308.435 0.524925 -4.46727 0
M  V30 3170 C 309.754 2.44843 -3.65705 0
M  V30 3171 H 306.873 0.283582 -0.680257 0
M  V30 3172 H 309.515 0.0474352 -1.89941 0
M  V30 3173 H 307.665 2.12897 -3.24972 0
M  V30 3174 H 309.337 -0.0970111 -4.61198 0
M  V30 3175 H 307.58 -0.160606 -4.33503 0
M  V30 3176 H 308.251 1.064 -5.41648 0
M  V30 3177 H 310.727 1.92135 -3.69085 0
M  V30 3178 H 309.603 2.92018 -4.64776 0
M  V30 3179 H 309.864 3.29197 -2.95096 0
M  V30 3180 N 308.923 1.53595 0.353017 0
M  V30 3181 C 310.334 1.61937 0.929153 0
M  V30 3182 C 310.685 0.494686 1.89861 0
M  V30 3183 O 309.81 -0.377017 2.1309 0
M  V30 3184 C 310.405 2.93526 1.69199 0
M  V30 3185 C 308.964 3.04161 2.21727 0
M  V30 3186 C 308.111 2.57322 1.03348 0
M  V30 3187 H 311.062 1.58155 0.131431 0
M  V30 3188 H 311.083 2.82034 2.55416 0
M  V30 3189 H 310.595 3.75362 0.986144 0
M  V30 3190 H 308.696 2.26938 2.95516 0
M  V30 3191 H 308.809 4.09465 2.48748 0
M  V30 3192 H 307.173 2.12499 1.40414 0
M  V30 3193 H 307.956 3.41588 0.342428 0
M  V30 3194 N 310.401 -0.613514 1.45168 0
M  V30 3195 C 311.626 -1.40437 1.52618 0
M  V30 3196 C 312.051 -1.87438 0.157707 0
M  V30 3197 O 311.409 -1.59791 -0.856537 0
M  V30 3198 C 311.457 -2.58894 2.51011 0
M  V30 3199 O 310.561 -3.59326 2.02382 0
M  V30 3200 H 309.902 -0.419506 0.514695 0
M  V30 3201 H 312.432 -0.747215 1.90467 0
M  V30 3202 H 312.442 -3.06214 2.69624 0
M  V30 3203 H 311.117 -2.24032 3.50403 0
M  V30 3204 H 309.694 -3.18695 1.93618 0
M  V30 3205 N 311.879 -1.3236 -0.855495 0
M  V30 3206 C 313.104 -1.2601 -1.64731 0
M  V30 3207 C 313.529 0.169068 -1.87339 0
M  V30 3208 O 312.887 1.12016 -1.42556 0
M  V30 3209 C 312.935 -2.02417 -2.98429 0
M  V30 3210 O 312.039 -1.3714 -3.8893 0
M  V30 3211 H 311.38 -0.434325 -0.502253 0
M  V30 3212 H 313.91 -1.74661 -1.06558 0
M  V30 3213 H 313.92 -2.12559 -3.48257 0
M  V30 3214 H 312.595 -3.06343 -2.81295 0
M  V30 3215 H 311.172 -1.3554 -3.47395 0
M  V30 3216 N 313.357 1.07166 -1.15556 0
M  V30 3217 C 314.289 2.14341 -0.811815 0
M  V30 3218 C 315.302 1.61835 0.177015 0
M  V30 3219 O 316.491 1.78439 -0.0464996 0
M  V30 3220 C 313.591 3.38387 -0.186481 0
M  V30 3221 C 312.764 4.20238 -1.21321 0
M  V30 3222 C 311.823 5.2266 -0.609302 0
M  V30 3223 O 310.849 5.54719 -1.27576 0
M  V30 3224 N 312.051 5.77306 0.608099 0
M  V30 3225 H 314.816 2.44431 -1.73417 0
M  V30 3226 H 312.377 1.23089 -1.0517 0
M  V30 3227 H 314.369 4.04044 0.230339 0
M  V30 3228 H 312.939 3.05994 0.639249 0
M  V30 3229 H 312.159 3.50369 -1.80652 0
M  V30 3230 H 313.447 4.71736 -1.90638 0
M  V30 3231 H 312.845 5.53513 1.1679 0
M  V30 3232 H 311.402 6.44583 0.96725 0
M  V30 3233 N 314.835 0.952656 1.25548 0
M  V30 3234 C 316.081 0.607272 1.93494 0
M  V30 3235 C 316.414 -0.853245 1.74452 0
M  V30 3236 O 315.689 -1.61194 1.08843 0
M  V30 3237 C 315.972 0.96435 3.46947 0
M  V30 3238 C 315.825 2.48045 3.75225 0
M  V30 3239 C 317.144 0.487987 4.37386 0
M  V30 3240 H 314.263 0.222096 0.702739 0
M  V30 3241 H 316.905 1.18895 1.48203 0
M  V30 3242 H 315.055 0.469361 3.85654 0
M  V30 3243 H 316.727 3.04905 3.46166 0
M  V30 3244 H 314.97 2.919 3.209 0
M  V30 3245 H 315.641 2.6808 4.82532 0
M  V30 3246 H 318.117 0.912558 4.0597 0
M  V30 3247 H 316.993 0.766547 5.43521 0
M  V30 3248 H 317.254 -0.612063 4.37843 0
M  V30 3249 N 316.313 -1.40141 0.720998 0
M  V30 3250 C 317.59 -1.94677 0.189757 0
M  V30 3251 C 317.97 -1.65879 -1.30566 0
M  V30 3252 O 317.318 -0.979391 -2.06447 0
M  V30 3253 C 317.528 -3.45279 0.508304 0
M  V30 3254 C 318.876 -4.22209 0.449934 0
M  V30 3255 O 319.9 -3.53413 0.444677 0
M  V30 3256 O 318.759 -5.44788 0.432189 0
M  V30 3257 H 315.853 -0.826459 0.0299026 0
M  V30 3258 H 318.399 -1.49719 0.7989 0
M  V30 3259 H 317.171 -3.59619 1.54239 0
M  V30 3260 H 316.794 -3.97386 -0.130525 0
M  V30 3261 N 317.792 -0.46758 -1.50504 0
M  V30 3262 C 319.04 0.0884469 -2.01906 0
M  V30 3263 C 319.361 1.40532 -1.35188 0
M  V30 3264 O 318.631 1.89515 -0.496079 0
M  V30 3265 H 317.211 0.0356765 -0.746148 0
M  V30 3266 H 319.873 -0.6172 -1.84869 0
M  V30 3267 H 318.969 0.2425 -3.11156 0
M  V30 3268 N 319.27 1.56325 -0.20005 0
M  V30 3269 C 320.217 2.1932 0.718833 0
M  V30 3270 C 321.187 1.14198 1.20615 0
M  V30 3271 O 322.372 1.42469 1.26914 0
M  V30 3272 C 319.512 2.86041 1.93066 0
M  V30 3273 C 318.625 4.05702 1.48425 0
M  V30 3274 C 317.76 4.60266 2.65196 0
M  V30 3275 C 316.799 5.72273 2.17185 0
M  V30 3276 N 315.936 6.21221 3.27152 0
M  V30 3277 H 320.776 2.97486 0.17489 0
M  V30 3278 H 318.313 1.46911 0.0745794 0
M  V30 3279 H 320.271 3.22897 2.64184 0
M  V30 3280 H 318.901 2.1043 2.44783 0
M  V30 3281 H 317.953 3.74475 0.668755 0
M  V30 3282 H 319.265 4.86699 1.09204 0
M  V30 3283 H 318.419 4.99453 3.4443 0
M  V30 3284 H 317.158 3.78386 3.07693 0
M  V30 3285 H 316.163 5.3261 1.36407 0
M  V30 3286 H 317.388 6.55974 1.75713 0
M  V30 3287 H 315.334 5.42263 3.69171 0
M  V30 3288 H 315.251 6.97284 2.92116 0
M  V30 3289 H 316.519 6.65063 4.06585 0
M  V30 3290 N 320.748 -0.0735177 1.57428 0
M  V30 3291 C 321.696 -1.10628 2.04607 0
M  V30 3292 C 322.69 -1.40181 0.951088 0
M  V30 3293 O 323.896 -1.39608 1.1362 0
M  V30 3294 H 320.271 -0.374088 0.652351 0
M  V30 3295 H 322.242 -0.682218 2.90497 0
M  V30 3296 C 320.991 -2.41212 2.50423 0
M  V30 3297 H 320.314 -2.19322 3.34272 0
M  V30 3298 H 321.754 -3.11927 2.87189 0
M  V30 3299 C 320.213 -3.0705 1.38644 0
M  V30 3300 O 320.743 -3.95056 0.727582 0
M  V30 3301 N 318.949 -2.67645 1.132 0
M  V30 3302 H 318.496 -1.96169 1.66959 0
M  V30 3303 H 318.454 -3.1202 0.386147 0
M  V30 3304 N 322.226 -1.5378 -0.344866 0
M  V30 3305 C 323.472 -1.71216 -1.08687 0
M  V30 3306 C 323.805 -0.473281 -1.88345 0
M  V30 3307 O 323.08 0.52968 -1.87149 0
M  V30 3308 C 323.363 -2.97486 -2.02914 0
M  V30 3309 C 323.216 -4.31579 -1.26727 0
M  V30 3310 C 324.535 -3.19422 -3.0275 0
M  V30 3311 H 321.654 -0.62301 -0.393735 0
M  V30 3312 H 324.296 -1.8645 -0.365563 0
M  V30 3313 H 322.446 -2.84629 -2.64421 0
M  V30 3314 H 324.118 -4.56284 -0.67845 0
M  V30 3315 H 322.361 -4.30049 -0.569273 0
M  V30 3316 H 323.032 -5.16106 -1.95803 0
M  V30 3317 H 325.508 -3.316 -2.51357 0
M  V30 3318 H 324.384 -4.09169 -3.65885 0
M  V30 3319 H 324.645 -2.35656 -3.74057 0
M  V30 3320 N 323.704 0.605807 -1.45491 0
M  V30 3321 C 324.932 1.39136 -1.5313 0
M  V30 3322 C 325.347 1.88082 -0.164507 0
M  V30 3323 O 324.704 1.62316 0.834247 0
M  V30 3324 C 324.755 2.59463 -2.51716 0
M  V30 3325 O 324.476 2.12551 -3.83084 0
M  V30 3326 C 325.977 3.52301 -2.6907 0
M  V30 3327 H 323.197 0.425849 -0.51855 0
M  V30 3328 H 325.741 0.73865 -1.90694 0
M  V30 3329 H 323.896 3.20772 -2.17219 0
M  V30 3330 H 324.31 2.90744 -4.36541 0
M  V30 3331 H 325.784 4.33271 -3.42024 0
M  V30 3332 H 326.261 4.02757 -1.75167 0
M  V30 3333 H 326.867 2.96845 -3.04571 0
M  V30 3334 N 325.182 1.32811 0.848464 0
M  V30 3335 C 326.422 1.25046 1.61687 0
M  V30 3336 C 326.786 -0.183464 1.91121 0
M  V30 3337 O 327.987 -0.384937 2.66029 0
M  V30 3338 C 326.258 2.09201 2.89775 0
M  V30 3339 S 327.817 2.18526 3.80515 0
M  V30 3340 H 324.635 0.445023 0.554505 0
M  V30 3341 H 327.237 1.67733 1.00429 0
M  V30 3342 H 325.941 3.12433 2.66108 0
M  V30 3343 H 325.472 1.67315 3.56047 0
M  V30 3344 H 327.487 1.3393 4.77784 0
M  V30 3345 N 326.66 -1.06551 1.16123 0
M  V30 3346 C 327.607 -2.13961 0.865414 0
M  V30 3347 C 328.577 -1.65066 -0.185055 0
M  V30 3348 O 329.762 -1.90732 -0.05083 0
M  V30 3349 C 326.902 -3.43113 0.369776 0
M  V30 3350 C 326.015 -4.05756 1.48276 0
M  V30 3351 C 325.15 -5.22773 0.942414 0
M  V30 3352 C 324.189 -5.77395 2.03179 0
M  V30 3353 N 323.326 -6.85731 1.50721 0
M  V30 3354 H 328.166 -2.38605 1.78527 0
M  V30 3355 H 325.703 -1.17072 0.890646 0
M  V30 3356 H 327.661 -4.17151 0.0640643 0
M  V30 3357 H 326.291 -3.18695 -0.513143 0
M  V30 3358 H 325.343 -3.29292 1.9045 0
M  V30 3359 H 326.655 -4.42351 2.30493 0
M  V30 3360 H 325.809 -6.03827 0.589729 0
M  V30 3361 H 324.548 -4.87618 0.0895191 0
M  V30 3362 H 323.553 -4.94981 2.3932 0
M  V30 3363 H 324.778 -6.14603 2.8886 0
M  V30 3364 H 322.724 -6.52499 0.676811 0
M  V30 3365 H 322.641 -7.21254 2.26557 0
M  V30 3366 H 323.909 -7.7047 1.18303 0
M  V30 3367 N 328.138 -0.959301 -1.25041 0
M  V30 3368 C 329.384 -0.617525 -1.9317 0
M  V30 3369 C 329.717 0.843981 -1.74902 0
M  V30 3370 O 328.992 1.60615 -1.09696 0
M  V30 3371 C 329.275 -0.982736 -3.46431 0
M  V30 3372 C 329.128 -2.50032 -3.73904 0
M  V30 3373 C 330.447 -0.511176 -4.37121 0
M  V30 3374 H 327.566 -0.22582 -0.701552 0
M  V30 3375 H 330.208 -1.19679 -1.4757 0
M  V30 3376 H 328.358 -0.489806 -3.854 0
M  V30 3377 H 330.03 -3.06737 -3.44544 0
M  V30 3378 H 328.273 -2.93598 -3.19348 0
M  V30 3379 H 328.944 -2.70635 -4.81103 0
M  V30 3380 H 331.42 -0.934075 -4.0548 0
M  V30 3381 H 330.296 -0.795361 -5.43107 0
M  V30 3382 H 330.557 0.588834 -4.38161 0
M  V30 3383 N 329.616 1.39756 -0.72842 0
M  V30 3384 C 330.526 2.34444 -0.0855374 0
M  V30 3385 C 331.542 1.57976 0.729356 0
M  V30 3386 O 332.718 1.90301 0.659346 0
M  V30 3387 C 329.783 3.36965 0.815798 0
M  V30 3388 C 328.844 4.29299 -0.0105996 0
M  V30 3389 C 328.077 5.26923 0.84781 0
M  V30 3390 O 328.3 5.30859 2.08673 0
M  V30 3391 O 327.234 6.01249 0.279969 0
M  V30 3392 H 331.06 2.91065 -0.866892 0
M  V30 3393 H 328.645 1.4117 -0.48902 0
M  V30 3394 H 330.527 3.99804 1.33171 0
M  V30 3395 H 329.202 2.82739 1.57608 0
M  V30 3396 H 328.109 3.69703 -0.571877 0
M  V30 3397 H 329.442 4.86712 -0.73295 0
M  V30 3398 N 331.094 0.475555 1.50254 0
M  V30 3399 C 332.044 -0.335025 2.25525 0
M  V30 3400 C 333.028 -0.957625 1.29299 0
M  V30 3401 O 334.22 -0.869436 1.54175 0
M  V30 3402 C 331.349 -1.41385 3.12834 0
M  V30 3403 C 330.435 -0.798762 4.1651 0
M  V30 3404 N 330.826 0.0835815 5.05731 0
M  V30 3405 C 329.124 -1.06221 4.33166 0
M  V30 3406 C 329.825 0.433113 5.80085 0
M  V30 3407 N 328.801 -0.1928 5.43258 0
M  V30 3408 H 332.603 0.344612 2.91873 0
M  V30 3409 H 330.117 0.289986 1.5979 0
M  V30 3410 H 332.114 -2.00777 3.65368 0
M  V30 3411 H 330.774 -2.09543 2.48036 0
M  V30 3412 H 331.785 0.452715 5.15918 0
M  V30 3413 H 328.462 -1.73844 3.79585 0
M  V30 3414 H 329.852 1.15346 6.61925 0
M  V30 3415 N 332.573 -1.56217 0.208337 0
M  V30 3416 C 333.483 -2.23316 -0.718836 0
M  V30 3417 C 334.499 -1.23648 -1.22422 0
M  V30 3418 O 335.675 -1.56423 -1.26861 0
M  V30 3419 C 332.74 -2.88968 -1.91568 0
M  V30 3420 C 331.801 -4.03943 -1.45357 0
M  V30 3421 C 331.034 -4.66455 -2.59337 0
M  V30 3422 O 331.257 -4.27919 -3.77149 0
M  V30 3423 O 330.191 -5.55686 -2.31293 0
M  V30 3424 H 334.017 -3.03182 -0.177315 0
M  V30 3425 H 331.602 -1.49384 -0.0215402 0
M  V30 3426 H 333.484 -3.30455 -2.61491 0
M  V30 3427 H 332.159 -2.12071 -2.44556 0
M  V30 3428 H 331.066 -3.67052 -0.722746 0
M  V30 3429 H 332.399 -4.82543 -0.970219 0
M  V30 3430 N 334.051 0.0651679 -1.57465 0
M  V30 3431 C 335.276 0.779605 -1.9219 0
M  V30 3432 C 335.701 1.69988 -0.805333 0
M  V30 3433 O 335.059 1.79685 0.241435 0
M  V30 3434 C 335.107 1.54364 -3.2589 0
M  V30 3435 O 334.211 2.65474 -3.1559 0
M  V30 3436 H 333.552 0.212249 -0.629163 0
M  V30 3437 H 336.082 0.0314294 -2.04576 0
M  V30 3438 H 336.092 1.92146 -3.59922 0
M  V30 3439 H 334.767 0.868457 -4.06732 0
M  V30 3440 H 333.344 2.30501 -2.93128 0
M  V30 3441 N 335.529 1.53961 0.336706 0
M  V30 3442 C 336.776 1.71536 1.07618 0
M  V30 3443 C 337.104 0.482125 1.8843 0
M  V30 3444 O 336.359 -0.536142 1.88213 0
M  V30 3445 C 336.658 2.93493 2.03953 0
M  V30 3446 C 336.324 4.28811 1.39399 0
M  V30 3447 C 334.986 4.65602 1.21523 0
M  V30 3448 C 337.338 5.12844 0.929541 0
M  V30 3449 C 334.666 5.84037 0.558312 0
M  V30 3450 C 337.018 6.31951 0.286505 0
M  V30 3451 C 335.682 6.67432 0.0954869 0
M  V30 3452 H 334.952 0.627696 0.393801 0
M  V30 3453 H 337.599 1.88186 0.354715 0
M  V30 3454 H 335.904 2.71475 2.82504 0
M  V30 3455 H 337.601 3.04285 2.61174 0
M  V30 3456 H 334.191 3.99858 1.54311 0
M  V30 3457 H 338.375 4.84947 1.05548 0
M  V30 3458 H 333.631 6.10097 0.398995 0
M  V30 3459 H 337.805 6.96352 -0.0814376 0
M  V30 3460 H 335.432 7.59063 -0.415579 0
M  V30 3461 N 337.007 -0.598083 1.45811 0
M  V30 3462 C 337.917 -1.73632 1.57763 0
M  V30 3463 C 338.933 -1.67763 0.461676 0
M  V30 3464 O 340.109 -1.87949 0.723685 0
M  V30 3465 C 337.174 -3.10114 1.55018 0
M  V30 3466 C 336.235 -3.27364 2.77726 0
M  V30 3467 C 335.468 -4.57334 2.75102 0
M  V30 3468 O 335.691 -5.40258 1.8297 0
M  V30 3469 O 334.625 -4.77502 3.66437 0
M  V30 3470 H 338.451 -1.66498 2.53992 0
M  V30 3471 H 336.036 -0.763308 1.28429 0
M  V30 3472 H 337.918 -3.9141 1.56129 0
M  V30 3473 H 336.593 -3.17718 0.619431 0
M  V30 3474 H 335.5 -2.45619 2.82174 0
M  V30 3475 H 336.833 -3.24641 3.69958 0
M  V30 3476 N 338.485 -1.33259 -0.841409 0
M  V30 3477 C 339.432 -1.23302 -1.95103 0
M  V30 3478 C 340.402 -0.112204 -1.65721 0
M  V30 3479 O 341.587 -0.290038 -1.88583 0
M  V30 3480 C 338.727 -0.975583 -3.31023 0
M  V30 3481 C 337.84 -2.18243 -3.72819 0
M  V30 3482 C 336.975 -1.85936 -4.97595 0
M  V30 3483 C 336.014 -3.02866 -5.3192 0
M  V30 3484 N 335.151 -2.70565 -6.47873 0
M  V30 3485 H 339.991 -2.18207 -2.02952 0
M  V30 3486 H 337.528 -1.0851 -0.993173 0
M  V30 3487 H 339.486 -0.80677 -4.09325 0
M  V30 3488 H 338.116 -0.0632755 -3.22738 0
M  V30 3489 H 337.168 -2.46107 -2.90061 0
M  V30 3490 H 338.48 -3.05666 -3.94169 0
M  V30 3491 H 337.634 -1.65684 -5.83638 0
M  V30 3492 H 336.373 -0.957452 -4.78209 0
M  V30 3493 H 335.378 -3.23736 -4.44382 0
M  V30 3494 H 336.603 -3.93809 -5.53255 0
M  V30 3495 H 334.549 -1.8293 -6.29978 0
M  V30 3496 H 334.466 -3.51519 -6.69306 0
M  V30 3497 H 335.734 -2.53774 -7.37034 0
M  V30 3498 N 339.963 1.05934 -1.16686 0
M  V30 3499 C 341.374 1.60263 -0.957745 0
M  V30 3500 C 341.725 1.89789 0.49745 0
M  V30 3501 O 340.85 1.67401 1.37135 0
M  V30 3502 C 341.445 2.91172 -1.73218 0
M  V30 3503 C 340.004 3.42188 -1.56794 0
M  V30 3504 C 339.151 2.16028 -1.73859 0
M  V30 3505 H 342.102 0.888392 -1.31504 0
M  V30 3506 H 342.123 3.60744 -1.21014 0
M  V30 3507 H 341.635 2.6965 -2.79124 0
M  V30 3508 H 339.736 3.68762 -0.533437 0
M  V30 3509 H 339.849 4.17273 -2.35414 0
M  V30 3510 H 338.213 2.26426 -1.16633 0
M  V30 3511 H 338.996 1.96985 -2.81161 0
M  V30 3512 N 341.441 0.965919 1.2453 0
M  V30 3513 C 342.373 0.452465 2.2469 0
M  V30 3514 C 343.386 -0.437821 1.56802 0
M  V30 3515 O 344.575 -0.244283 1.76821 0
M  V30 3516 C 341.675 -0.366258 3.36915 0
M  V30 3517 C 340.848 0.513701 4.34373 0
M  V30 3518 C 339.907 -0.248716 5.25612 0
M  V30 3519 O 338.933 0.356745 5.68081 0
M  V30 3520 N 340.135 -1.53877 5.59734 0
M  V30 3521 H 342.9 1.31361 2.69378 0
M  V30 3522 H 340.461 0.837541 1.38553 0
M  V30 3523 H 342.453 -0.884297 3.94921 0
M  V30 3524 H 341.023 -1.12832 2.91526 0
M  V30 3525 H 340.243 1.21273 3.75082 0
M  V30 3526 H 341.531 1.11391 4.96457 0
M  V30 3527 H 340.929 -2.05243 5.27154 0
M  V30 3528 H 339.486 -2.00254 6.20275 0
M  V30 3529 N 342.919 -1.39368 0.735821 0
M  V30 3530 C 343.849 -2.33234 0.111506 0
M  V30 3531 C 344.83 -1.53954 -0.723334 0
M  V30 3532 O 346.015 -1.82344 -0.668147 0
M  V30 3533 C 343.145 -3.38057 -0.795917 0
M  V30 3534 C 342.099 -4.2795 -0.065172 0
M  V30 3535 C 341.425 -5.23479 -1.08967 0
M  V30 3536 C 342.725 -5.10741 1.09273 0
M  V30 3537 H 344.419 -2.85692 0.895571 0
M  V30 3538 H 341.965 -1.37364 0.432109 0
M  V30 3539 H 343.918 -4.02675 -1.24221 0
M  V30 3540 H 342.642 -2.8404 -1.61211 0
M  V30 3541 H 341.301 -3.64813 0.361511 0
M  V30 3542 H 340.949 -4.65758 -1.89944 0
M  V30 3543 H 340.649 -5.84472 -0.605489 0
M  V30 3544 H 342.173 -5.90974 -1.53565 0
M  V30 3545 H 343.587 -5.68699 0.724841 0
M  V30 3546 H 341.984 -5.8088 1.50659 0
M  V30 3547 H 343.054 -4.45525 1.91404 0
M  V30 3548 N 344.397 -0.483516 -1.5 0
M  V30 3549 C 345.327 0.293829 -2.31644 0
M  V30 3550 C 346.308 0.978864 -1.39112 0
M  V30 3551 O 347.493 0.973644 -1.68029 0
M  V30 3552 C 344.623 1.36897 -3.19181 0
M  V30 3553 C 343.577 0.804833 -4.20365 0
M  V30 3554 C 342.903 1.9792 -4.96721 0
M  V30 3555 C 344.203 -0.192313 -5.21946 0
M  V30 3556 H 345.897 -0.387616 -2.9688 0
M  V30 3557 H 343.443 -0.187856 -1.42769 0
M  V30 3558 H 345.396 1.92037 -3.751 0
M  V30 3559 H 344.12 2.07936 -2.51853 0
M  V30 3560 H 342.779 0.275319 -3.65565 0
M  V30 3561 H 342.427 2.67686 -4.25856 0
M  V30 3562 H 342.127 1.60789 -5.65173 0
M  V30 3563 H 343.651 2.53526 -5.55479 0
M  V30 3564 H 345.065 0.270333 -5.72662 0
M  V30 3565 H 343.462 -0.478543 -5.98189 0
M  V30 3566 H 344.532 -1.11409 -4.71928 0
M  V30 3567 N 345.875 1.56104 -0.216619 0
M  V30 3568 C 347.103 2.02563 0.421413 0
M  V30 3569 C 347.518 1.0965 1.53695 0
M  V30 3570 O 346.875 0.10521 1.82196 0
M  V30 3571 C 346.926 3.48584 0.957665 0
M  V30 3572 O 346.647 4.37953 -0.113389 0
M  V30 3573 C 348.148 4.10664 1.66943 0
M  V30 3574 H 345.368 0.662944 0.103665 0
M  V30 3575 H 347.912 2.01793 -0.331629 0
M  V30 3576 H 346.067 3.49985 1.661 0
M  V30 3577 H 346.481 5.23704 0.288932 0
M  V30 3578 H 347.955 5.14622 1.99671 0
M  V30 3579 H 348.432 3.55373 2.58083 0
M  V30 3580 H 349.038 4.13098 1.01142 0
M  V30 3581 N 347.353 -0.0568162 1.57498 0
M  V30 3582 C 348.599 -0.75422 1.88253 0
M  V30 3583 C 348.932 -1.76461 0.810865 0
M  V30 3584 O 348.207 -1.93691 -0.177259 0
M  V30 3585 C 348.49 -1.44878 3.2967 0
M  V30 3586 C 348.343 -0.453789 4.47505 0
M  V30 3587 C 349.662 -2.38994 3.69554 0
M  V30 3588 H 346.781 -0.272724 0.684683 0
M  V30 3589 H 349.423 -0.0172113 1.89992 0
M  V30 3590 H 347.573 -2.077 3.28318 0
M  V30 3591 H 349.245 0.170371 4.60985 0
M  V30 3592 H 347.488 0.229552 4.33192 0
M  V30 3593 H 348.159 -0.977699 5.43273 0
M  V30 3594 H 350.635 -1.86239 3.72095 0
M  V30 3595 H 349.511 -2.84587 4.69363 0
M  V30 3596 H 349.772 -3.24461 3.00296 0
M  V30 3597 N 348.832 -1.54138 -0.328536 0
M  V30 3598 C 349.78 -1.83894 -1.42428 0
M  V30 3599 C 350.774 -0.710478 -1.53781 0
M  V30 3600 O 351.98 -0.894062 -1.56226 0
M  V30 3601 H 348.355 -0.582837 -0.475189 0
M  V30 3602 H 350.326 -2.75537 -1.14552 0
M  V30 3603 C 349.075 -2.07866 -2.78724 0
M  V30 3604 H 348.398 -2.94158 -2.7076 0
M  V30 3605 H 349.838 -2.32644 -3.54476 0
M  V30 3606 C 348.297 -0.868689 -3.25508 0
M  V30 3607 O 348.827 -0.0754908 -4.01629 0
M  V30 3608 N 347.033 -0.681711 -2.82491 0
M  V30 3609 H 346.58 -1.32838 -2.20708 0
M  V30 3610 H 346.538 0.126374 -3.14146 0
M  V30 3611 N 350.31 0.590341 -1.46126 0
M  V30 3612 C 351.24 1.71032 -1.58966 0
M  V30 3613 C 352.221 1.64302 -0.440335 0
M  V30 3614 O 353.406 1.82436 -0.665634 0
M  V30 3615 C 350.536 3.09665 -1.57241 0
M  V30 3616 C 349.49 3.31221 -2.71066 0
M  V30 3617 C 348.816 4.70303 -2.54399 0
M  V30 3618 C 350.116 3.19796 -4.1295 0
M  V30 3619 H 351.81 1.60543 -2.52718 0
M  V30 3620 H 349.356 0.770933 -1.21625 0
M  V30 3621 H 351.309 3.87831 -1.64819 0
M  V30 3622 H 350.033 3.21036 -0.600289 0
M  V30 3623 H 348.692 2.55452 -2.62944 0
M  V30 3624 H 348.34 4.78429 -1.55288 0
M  V30 3625 H 348.04 4.85679 -3.30741 0
M  V30 3626 H 349.564 5.50647 -2.63857 0
M  V30 3627 H 350.978 3.87815 -4.22223 0
M  V30 3628 H 349.375 3.46696 -4.89818 0
M  V30 3629 H 350.445 2.16983 -4.33643 0
M  V30 3630 N 351.788 1.33704 0.83433 0
M  V30 3631 C 353.016 1.28467 1.62185 0
M  V30 3632 C 353.431 -0.143526 1.88254 0
M  V30 3633 O 352.788 -1.08709 1.4659 0
M  V30 3634 C 352.839 2.06174 2.96942 0
M  V30 3635 O 352.56 3.43422 2.72016 0
M  V30 3636 C 354.061 2.08201 3.91366 0
M  V30 3637 H 351.281 0.4424 0.504503 0
M  V30 3638 H 353.825 1.76145 1.03891 0
M  V30 3639 H 351.98 1.62167 3.51825 0
M  V30 3640 H 352.394 3.83453 3.57861 0
M  V30 3641 H 353.868 2.67017 4.83121 0
M  V30 3642 H 354.345 1.07343 4.2588 0
M  V30 3643 H 354.951 2.52246 3.42421 0
M  V30 3644 N 353.266 -1.05314 1.17247 0
M  V30 3645 C 354.512 -1.78557 0.961513 0
M  V30 3646 C 354.845 -1.87419 -0.508697 0
M  V30 3647 O 354.12 -1.37307 -1.37757 0
M  V30 3648 C 354.403 -3.22514 1.60176 0
M  V30 3649 C 354.256 -3.21673 3.14399 0
M  V30 3650 C 355.575 -4.20318 1.30463 0
M  V30 3651 H 352.694 -0.6482 0.350723 0
M  V30 3652 H 355.336 -1.23102 1.44727 0
M  V30 3653 H 353.486 -3.69867 1.18871 0
M  V30 3654 H 355.158 -2.82405 3.64753 0
M  V30 3655 H 353.401 -2.60048 3.47214 0
M  V30 3656 H 354.072 -4.23271 3.54324 0
M  V30 3657 H 356.548 -3.81454 1.66229 0
M  V30 3658 H 355.424 -5.19289 1.77848 0
M  V30 3659 H 355.685 -4.41526 0.22521 0
M  V30 3660 N 354.744 -0.972509 -1.24016 0
M  V30 3661 C 355.974 -0.653853 -1.9598 0
M  V30 3662 C 356.382 0.781801 -1.72292 0
M  V30 3663 O 355.725 1.53677 -1.00644 0
M  V30 3664 C 355.787 -0.854608 -3.49194 0
M  V30 3665 C 355.451 -2.27082 -3.96589 0
M  V30 3666 C 356.448 -3.24892 -4.05883 0
M  V30 3667 C 354.133 -2.5998 -4.29786 0
M  V30 3668 C 356.127 -4.53684 -4.47716 0
M  V30 3669 C 353.814 -3.88997 -4.71301 0
M  V30 3670 C 354.812 -4.85661 -4.80232 0
M  V30 3671 O 354.5 -6.12376 -5.20818 0
M  V30 3672 H 354.232 -0.242572 -0.630979 0
M  V30 3673 H 356.786 -1.30431 -1.58673 0
M  V30 3674 H 355.016 -0.146985 -3.86421 0
M  V30 3675 H 356.705 -0.534311 -4.02368 0
M  V30 3676 H 357.471 -3.00805 -3.80449 0
M  V30 3677 H 353.35 -1.85457 -4.22051 0
M  V30 3678 H 356.894 -5.29135 -4.54601 0
M  V30 3679 H 352.791 -4.12882 -4.96184 0
M  V30 3680 H 353.559 -6.16013 -5.38953 0
M  V30 3681 N 356.222 1.38976 -0.743202 0
M  V30 3682 C 357.452 2.04339 -0.304807 0
M  V30 3683 C 357.86 1.56162 1.06819 0
M  V30 3684 O 357.203 0.725284 1.68776 0
M  V30 3685 C 357.265 3.58716 -0.237369 0
M  V30 3686 C 356.929 4.29905 -1.55018 0
M  V30 3687 C 357.926 4.55987 -2.49744 0
M  V30 3688 C 355.611 4.68294 -1.81675 0
M  V30 3689 C 357.605 5.19478 -3.69353 0
M  V30 3690 C 355.292 5.31512 -3.0156 0
M  V30 3691 C 356.29 5.57037 -3.9522 0
M  V30 3692 O 355.978 6.18941 -5.12998 0
M  V30 3693 H 355.71 0.663439 -0.12971 0
M  V30 3694 H 358.264 1.78852 -1.01001 0
M  V30 3695 H 356.494 3.83133 0.524003 0
M  V30 3696 H 358.183 4.05543 0.170121 0
M  V30 3697 H 358.949 4.26767 -2.30423 0
M  V30 3698 H 354.828 4.47779 -1.09615 0
M  V30 3699 H 358.372 5.39318 -4.42473 0
M  V30 3700 H 354.269 5.60153 -3.20778 0
M  V30 3701 H 355.037 6.37433 -5.13441 0
M  V30 3702 N 357.7 0.491464 1.49741 0
M  V30 3703 C 359.111 0.0413169 1.86654 0
M  V30 3704 C 359.462 -1.36985 1.40462 0
M  V30 3705 O 358.587 -2.01917 0.778354 0
M  V30 3706 C 359.182 0.0682023 3.38731 0
M  V30 3707 C 357.741 -0.32656 3.74981 0
M  V30 3708 C 356.888 0.444888 2.73708 0
M  V30 3709 H 359.839 0.704733 1.42194 0
M  V30 3710 H 359.86 -0.729322 3.73445 0
M  V30 3711 H 359.372 1.09539 3.72321 0
M  V30 3712 H 357.473 -1.35734 3.46997 0
M  V30 3713 H 357.586 -0.013741 4.79098 0
M  V30 3714 H 355.95 -0.104062 2.54487 0
M  V30 3715 H 356.733 1.47197 3.10142 0
M  V30 3716 N 359.178 -1.55987 0.224894 0
M  V30 3717 C 360.589 -1.84553 -0.282345 0
M  V30 3718 C 360.94 -1.14634 -1.59227 0
M  V30 3719 O 360.065 -0.417155 -2.12341 0
M  V30 3720 C 360.66 -3.348 -0.519062 0
M  V30 3721 C 359.219 -3.63671 -0.970604 0
M  V30 3722 C 358.366 -2.77277 -0.0355261 0
M  V30 3723 H 361.317 -1.52245 0.448006 0
M  V30 3724 H 361.338 -3.55187 -1.36463 0
M  V30 3725 H 360.85 -3.8566 0.43449 0
M  V30 3726 H 358.951 -3.1827 -1.9374 0
M  V30 3727 H 359.064 -4.71631 -0.842698 0
M  V30 3728 H 357.428 -2.48846 -0.542927 0
M  V30 3729 H 358.211 -3.30937 0.913003 0
M  V30 3730 N 360.656 0.0484629 -1.57525 0
M  V30 3731 C 361.566 1.07241 -2.08654 0
M  V30 3732 C 362.582 1.409 -1.02095 0
M  V30 3733 O 363.758 1.50609 -1.33712 0
M  V30 3734 C 360.823 2.36008 -2.5397 0
M  V30 3735 C 359.884 2.09108 -3.7493 0
M  V30 3736 C 359.117 3.31736 -4.18075 0
M  V30 3737 O 359.34 4.41714 -3.60895 0
M  V30 3738 O 358.274 3.18576 -5.10679 0
M  V30 3739 H 362.1 0.667965 -2.96263 0
M  V30 3740 H 359.685 0.26417 -1.47046 0
M  V30 3741 H 361.567 3.11747 -2.83535 0
M  V30 3742 H 360.242 2.75786 -1.69481 0
M  V30 3743 H 359.149 1.31 -3.50414 0
M  V30 3744 H 360.482 1.74198 -4.60343 0
M  V30 3745 N 362.134 1.5431 0.320358 0
M  V30 3746 C 363.38 1.72924 1.05949 0
M  V30 3747 C 363.713 0.503185 1.87568 0
M  V30 3748 O 362.988 -0.499839 1.87968 0
M  V30 3749 C 363.271 3.00676 1.98156 0
M  V30 3750 C 363.124 4.3354 1.19845 0
M  V30 3751 C 364.443 3.24198 2.9763 0
M  V30 3752 H 361.562 0.629195 0.383774 0
M  V30 3753 H 364.204 1.87008 0.335854 0
M  V30 3754 H 362.354 2.888 2.59859 0
M  V30 3755 H 364.026 4.57305 0.605773 0
M  V30 3756 H 362.269 4.309 0.500784 0
M  V30 3757 H 362.94 5.19156 1.87567 0
M  V30 3758 H 365.416 3.35557 2.4605 0
M  V30 3759 H 364.292 4.14938 3.59329 0
M  V30 3760 H 364.553 2.41577 3.7026 0
M  V30 3761 N 363.613 -0.582584 1.46437 0
M  V30 3762 C 364.838 -1.37168 1.55563 0
M  V30 3763 C 365.263 -1.87061 0.19743 0
M  V30 3764 O 364.621 -1.61572 -0.822451 0
M  V30 3765 C 364.669 -2.53511 2.56446 0
M  V30 3766 O 363.773 -3.54953 2.09958 0
M  V30 3767 H 363.114 -0.408494 0.523477 0
M  V30 3768 H 365.644 -0.706646 1.9201 0
M  V30 3769 H 365.654 -3.00426 2.76058 0
M  V30 3770 H 364.329 -2.16549 3.55076 0
M  V30 3771 H 362.906 -3.14516 2.00334 0
M  V30 3772 N 365.091 -1.34144 -0.827227 0
M  V30 3773 C 366.34 -1.25602 -1.5782 0
M  V30 3774 C 366.653 0.173445 -1.94829 0
M  V30 3775 O 367.859 0.380984 -2.68814 0
M  V30 3776 C 366.315 -2.20151 -2.84713 0
M  V30 3777 C 365.923 -3.68331 -2.55021 0
M  V30 3778 C 367.667 -2.20508 -3.62735 0
M  V30 3779 C 365.574 -4.54762 -3.78082 0
M  V30 3780 H 364.504 -0.466573 -0.592306 0
M  V30 3781 H 367.155 -1.59283 -0.911116 0
M  V30 3782 H 365.537 -1.79417 -3.53023 0
M  V30 3783 H 366.711 -4.17577 -1.94849 0
M  V30 3784 H 365.026 -3.7038 -1.90283 0
M  V30 3785 H 367.623 -2.82306 -4.54101 0
M  V30 3786 H 367.966 -1.20322 -3.98533 0
M  V30 3787 H 368.499 -2.59664 -3.01362 0
M  V30 3788 H 365.238 -5.55867 -3.47407 0
M  V30 3789 H 364.758 -4.10254 -4.37552 0
M  V30 3790 H 366.437 -4.69153 -4.45538 0
M  V30 3791 N 366.569 1.04691 -1.17803 0
M  V30 3792 C 367.794 1.81984 -0.994813 0
M  V30 3793 C 368.219 1.82586 0.452112 0
M  V30 3794 O 367.577 1.23854 1.324 0
M  V30 3795 C 367.625 3.2575 -1.54659 0
M  V30 3796 O 366.729 4.05267 -0.763728 0
M  V30 3797 H 366.07 0.562483 -0.352857 0
M  V30 3798 H 368.6 1.3189 -1.56417 0
M  V30 3799 H 368.61 3.76541 -1.57102 0
M  V30 3800 H 367.285 3.24627 -2.59981 0
M  V30 3801 H 365.862 3.63972 -0.811108 0
M  V30 3802 N 368.047 0.979072 1.23499 0
M  V30 3803 C 369.295 0.645941 1.91499 0
M  V30 3804 C 369.616 -0.822948 1.76784 0
M  V30 3805 O 368.886 -1.58854 1.14639 0
M  V30 3806 H 367.466 0.235919 0.708767 0
M  V30 3807 H 370.128 1.2426 1.50152 0
M  V30 3808 H 369.224 0.896411 2.9895 0
M  V30 3809 N 369.525 -1.3858 0.750561 0
M  V30 3810 C 370.755 -2.04175 0.31564 0
M  V30 3811 C 371.163 -1.56726 -1.05989 0
M  V30 3812 O 370.506 -0.734225 -1.68389 0
M  V30 3813 C 370.568 -3.58585 0.256389 0
M  V30 3814 C 370.232 -4.29077 1.57296 0
M  V30 3815 C 371.229 -4.54656 2.52159 0
M  V30 3816 C 368.914 -4.67324 1.84156 0
M  V30 3817 C 370.908 -5.17512 3.72103 0
M  V30 3818 C 368.595 -5.29905 3.04374 0
M  V30 3819 C 369.593 -5.54933 3.98168 0
M  V30 3820 O 369.281 -6.16212 5.16273 0
M  V30 3821 H 369.013 -0.662742 0.133226 0
M  V30 3822 H 371.567 -1.78313 1.01948 0
M  V30 3823 H 369.797 -3.83406 -0.503677 0
M  V30 3824 H 371.486 -4.05628 -0.148612 0
M  V30 3825 H 372.252 -4.25539 2.32683 0
M  V30 3826 H 368.131 -4.47191 1.11988 0
M  V30 3827 H 371.675 -5.36963 4.45327 0
M  V30 3828 H 367.572 -5.58444 3.23745 0
M  V30 3829 H 368.34 -6.34701 5.16815 0
M  V30 3830 N 371.003 -0.499398 -1.49478 0
M  V30 3831 C 372.28 0.108629 -1.95298 0
M  V30 3832 C 372.66 1.54282 -1.44084 0
M  V30 3833 O 372.008 2.18944 -0.653908 0
M  V30 3834 C 372.218 0.0229111 -3.48992 0
M  V30 3835 C 373.566 0.197643 -4.2414 0
M  V30 3836 O 374.59 0.0981735 -3.56065 0
M  V30 3837 O 373.449 0.401669 -5.45022 0
M  V30 3838 H 370.543 0.096181 -0.821388 0
M  V30 3839 H 373.089 -0.561822 -1.6013 0
M  V30 3840 H 371.861 -0.977321 -3.78899 0
M  V30 3841 H 371.484 0.733579 -3.90774 0
M  V30 3842 N 372.481 1.55866 -0.233164 0
M  V30 3843 C 373.429 2.22176 0.68851 0
M  V30 3844 C 374.423 1.20487 1.19076 0
M  V30 3845 O 375.629 1.38536 1.14925 0
M  V30 3846 H 372.004 0.712511 0.240483 0
M  V30 3847 H 373.975 2.98212 0.105935 0
M  V30 3848 C 372.724 2.92446 1.88071 0
M  V30 3849 H 372.047 3.70458 1.50337 0
M  V30 3850 H 373.487 3.42226 2.50314 0
M  V30 3851 C 371.946 1.95555 2.74335 0
M  V30 3852 O 372.476 1.47986 3.73447 0
M  V30 3853 N 370.682 1.62953 2.40613 0
M  V30 3854 H 370.229 2.01831 1.60069 0
M  V30 3855 H 370.187 0.983886 2.98609 0
M  V30 3856 N 373.959 -0.0401083 1.57549 0
M  V30 3857 C 374.907 -1.06264 2.06908 0
M  V30 3858 C 375.901 -1.38132 0.980608 0
M  V30 3859 O 377.107 -1.37167 1.16556 0
M  V30 3860 H 373.482 -0.360166 0.660139 0
M  V30 3861 H 375.453 -0.620445 2.91878 0
M  V30 3862 C 374.202 -2.35846 2.55483 0
M  V30 3863 H 373.525 -2.12183 3.38849 0
M  V30 3864 H 374.965 -3.05765 2.93741 0
M  V30 3865 C 373.424 -3.0404 1.45126 0
M  V30 3866 O 373.954 -3.93424 0.811216 0
M  V30 3867 N 372.16 -2.65184 1.18852 0
M  V30 3868 H 371.707 -1.92584 1.71083 0
M  V30 3869 H 371.665 -3.1113 0.452244 0
M  V30 3870 N 375.437 -1.54477 -0.31217 0
M  V30 3871 C 376.683 -1.74417 -1.04644 0
M  V30 3872 C 377.038 -0.517641 -1.85306 0
M  V30 3873 O 376.331 0.489973 -1.85229 0
M  V30 3874 C 376.525 -2.967 -1.99258 0
M  V30 3875 C 376.354 -4.31128 -1.27901 0
M  V30 3876 C 375.124 -4.95087 -1.01079 0
M  V30 3877 C 377.322 -5.09662 -0.689119 0
M  V30 3878 N 375.304 -6.13322 -0.266323 0
M  V30 3879 C 376.675 -6.19952 -0.0768523 0
M  V30 3880 C 378.73 -4.94355 -0.593061 0
M  V30 3881 C 377.433 -7.16604 0.622165 0
M  V30 3882 C 379.459 -5.91328 0.0922792 0
M  V30 3883 C 378.821 -7.00978 0.693443 0
M  V30 3884 H 374.92 -0.69094 -0.366231 0
M  V30 3885 H 377.504 -1.91946 -0.326319 0
M  V30 3886 H 375.675 -2.80616 -2.68532 0
M  V30 3887 H 377.407 -3.05216 -2.65755 0
M  V30 3888 H 374.162 -4.55235 -1.30607 0
M  V30 3889 H 374.586 -6.76937 0.0920973 0
M  V30 3890 H 379.228 -4.09719 -1.04355 0
M  V30 3891 H 376.946 -8.0079 1.08445 0
M  V30 3892 H 380.532 -5.81562 0.166396 0
M  V30 3893 H 379.412 -7.74725 1.21533 0
M  V30 3894 N 376.915 0.57481 -1.46744 0
M  V30 3895 C 378.145 1.35659 -1.55821 0
M  V30 3896 C 378.553 1.88129 -0.201036 0
M  V30 3897 O 377.896 1.64723 0.813134 0
M  V30 3898 C 377.958 2.57473 -2.50894 0
M  V30 3899 C 377.622 2.26415 -3.9697 0
M  V30 3900 C 378.619 1.84771 -4.85958 0
M  V30 3901 C 376.304 2.38316 -4.42166 0
M  V30 3902 C 378.298 1.55434 -6.18158 0
M  V30 3903 C 375.985 2.08591 -5.74398 0
M  V30 3904 C 376.983 1.67216 -6.62214 0
M  V30 3905 O 376.671 1.37859 -7.91991 0
M  V30 3906 H 376.403 0.420496 -0.529301 0
M  V30 3907 H 378.957 0.704967 -1.92923 0
M  V30 3908 H 377.187 3.25468 -2.08824 0
M  V30 3909 H 378.876 3.19546 -2.50291 0
M  V30 3910 H 379.642 1.75085 -4.52295 0
M  V30 3911 H 375.521 2.69483 -3.74032 0
M  V30 3912 H 379.065 1.23065 -6.86659 0
M  V30 3913 H 374.962 2.17905 -6.07608 0
M  V30 3914 H 375.73 1.51638 -8.04331 0
M  V30 3915 N 378.394 1.34581 0.820102 0
M  V30 3916 C 379.324 1.29038 1.94606 0
M  V30 3917 C 380.305 0.1673 1.69275 0
M  V30 3918 O 381.49 0.360112 1.90832 0
M  V30 3919 C 378.62 1.04793 3.31113 0
M  V30 3920 C 377.574 2.13597 3.70891 0
M  V30 3921 C 376.9 1.74537 5.05412 0
M  V30 3922 C 378.2 3.55451 3.8269 0
M  V30 3923 H 379.894 2.23248 1.99501 0
M  V30 3924 H 377.44 1.0747 0.958449 0
M  V30 3925 H 379.393 0.995592 4.0947 0
M  V30 3926 H 378.117 0.0702565 3.26524 0
M  V30 3927 H 376.776 2.17905 2.9481 0
M  V30 3928 H 376.424 0.754226 4.97313 0
M  V30 3929 H 376.124 2.47361 5.32997 0
M  V30 3930 H 377.648 1.70803 5.86224 0
M  V30 3931 H 379.062 3.5354 4.51312 0
M  V30 3932 H 377.459 4.26922 4.21732 0
M  V30 3933 H 378.529 3.92587 2.84611 0
M  V30 3934 N 379.872 -1.04064 1.18357 0
M  V30 3935 C 381.12 -1.76915 0.977013 0
M  V30 3936 C 381.441 -1.88624 -0.494577 0
M  V30 3937 O 380.711 -1.41125 -1.3587 0
M  V30 3938 H 379.291 -0.65535 0.358504 0
M  V30 3939 H 381.953 -1.25592 1.49039 0
M  V30 3940 H 381.049 -2.78178 1.41504 0
M  V30 3941 N 381.35 -0.985608 -1.22978 0
M  V30 3942 C 382.282 -0.488154 -2.23941 0
M  V30 3943 C 383.295 0.41282 -1.57479 0
M  V30 3944 O 384.484 0.216121 -1.77187 0
M  V30 3945 C 381.584 0.312611 -3.37455 0
M  V30 3946 C 380.757 -0.582741 -4.33501 0
M  V30 3947 C 379.816 0.165064 -5.25941 0
M  V30 3948 O 378.842 -0.447077 -5.67442 0
M  V30 3949 N 380.044 1.44953 -5.62111 0
M  V30 3950 H 382.809 -1.3563 -2.67254 0
M  V30 3951 H 380.37 -0.859477 -1.37203 0
M  V30 3952 H 382.362 0.821357 -3.96277 0
M  V30 3953 H 380.932 1.0818 -2.93285 0
M  V30 3954 H 380.152 -1.27225 -3.73105 0
M  V30 3955 H 381.44 -1.19275 -4.94622 0
M  V30 3956 H 380.838 1.9683 -5.30353 0
M  V30 3957 H 379.395 1.90361 -6.23383 0
M  V30 3958 N 382.828 1.3818 -0.7579 0
M  V30 3959 C 383.776 2.32277 -0.122482 0
M  V30 3960 C 384.77 1.54238 0.700505 0
M  V30 3961 O 385.976 1.69737 0.599119 0
M  V30 3962 H 382.351 0.751712 -0.0208143 0
M  V30 3963 H 384.322 2.83469 -0.932099 0
M  V30 3964 C 383.071 3.39447 0.753076 0
M  V30 3965 H 382.394 3.99591 0.129184 0
M  V30 3966 H 383.834 4.07684 1.16489 0
M  V30 3967 C 382.293 2.78375 1.8976 0
M  V30 3968 O 382.823 2.68025 2.99208 0
M  V30 3969 N 381.029 2.36121 1.69397 0
M  V30 3970 H 380.576 2.4474 0.803762 0
M  V30 3971 H 380.534 1.95602 2.46145 0
M  V30 3972 N 384.306 0.507319 1.49211 0
M  V30 3973 C 385.216 -0.272136 2.33016 0
M  V30 3974 C 386.232 -0.961206 1.45041 0
M  V30 3975 O 387.408 -0.941191 1.78055 0
M  V30 3976 C 384.473 -1.31895 3.20631 0
M  V30 3977 C 383.534 -0.642648 4.24463 0
M  V30 3978 C 382.767 -1.63959 5.07891 0
M  V30 3979 O 382.99 -2.87007 4.92933 0
M  V30 3980 O 381.924 -1.19143 5.8999 0
M  V30 3981 H 385.75 0.413982 3.00865 0
M  V30 3982 H 383.335 0.268556 1.46966 0
M  V30 3983 H 385.217 -1.92446 3.7489 0
M  V30 3984 H 383.892 -1.98788 2.5547 0
M  V30 3985 H 382.799 0.00276252 3.741 0
M  V30 3986 H 384.132 -0.0160534 4.92197 0
M  V30 3987 N 385.784 -1.5574 0.241426 0
M  V30 3988 C 386.747 -2.19877 -0.647063 0
M  V30 3989 C 387.747 -1.16642 -1.10686 0
M  V30 3990 O 388.937 -1.41757 -1.01245 0
M  V30 3991 C 386.069 -2.83797 -1.88871 0
M  V30 3992 H 387.262 -2.99772 -0.087574 0
M  V30 3993 H 384.815 -1.56298 -0.00813574 0
M  V30 3994 H 385.55 -2.07824 -2.48957 0
M  V30 3995 H 385.335 -3.59414 -1.56728 0
M  V30 3996 H 386.825 -3.32898 -2.52129 0
M  V30 3997 N 387.262 0.0317525 -1.57568 0
M  V30 3998 C 388.49 0.734949 -1.93407 0
M  V30 3999 C 388.905 1.69036 -0.84096 0
M  V30 4000 O 388.262 1.81582 0.182836 0
M  V30 4001 C 388.313 1.49432 -3.29169 0
M  V30 4002 O 388.034 0.577261 -4.3428 0
M  V30 4003 C 389.535 2.29492 -3.79273 0
M  V30 4004 H 386.755 0.206706 -0.638368 0
M  V30 4005 H 389.299 -0.00992046 -2.04498 0
M  V30 4006 H 387.454 2.1911 -3.19483 0
M  V30 4007 H 387.868 1.10952 -5.1263 0
M  V30 4008 H 389.342 2.78172 -4.76785 0
M  V30 4009 H 389.819 3.10794 -3.10328 0
M  V30 4010 H 390.425 1.64894 -3.92033 0
M  V30 4011 N 388.74 1.54641 0.303973 0
M  V30 4012 C 389.67 1.88386 1.3796 0
M  V30 4013 C 390.651 0.742485 1.5304 0
M  V30 4014 O 391.836 0.997959 1.66597 0
M  V30 4015 C 388.966 2.12854 2.74427 0
M  V30 4016 C 387.92 3.28702 2.74115 0
M  V30 4017 C 387.246 3.38582 4.13844 0
M  V30 4018 C 388.546 4.65881 2.3612 0
M  V30 4019 H 390.24 2.78474 1.09966 0
M  V30 4020 H 387.786 1.33988 0.527556 0
M  V30 4021 H 389.739 2.35047 3.49758 0
M  V30 4022 H 388.463 1.19535 3.03939 0
M  V30 4023 H 387.122 3.06428 2.0124 0
M  V30 4024 H 386.77 2.42784 4.40528 0
M  V30 4025 H 386.47 4.16453 4.14537 0
M  V30 4026 H 387.994 3.63031 4.90959 0
M  V30 4027 H 389.408 4.87823 3.01167 0
M  V30 4028 H 387.805 5.46444 2.48031 0
M  V30 4029 H 388.875 4.66799 1.3125 0
M  V30 4030 N 390.218 -0.567019 1.47046 0
M  V30 4031 C 391.446 -1.35027 1.56765 0
M  V30 4032 C 391.861 -1.8758 0.214316 0
M  V30 4033 O 391.218 -1.64471 -0.790919 0
M  V30 4034 C 391.269 -2.52698 2.58507 0
M  V30 4035 O 390.99 -2.0232 3.88585 0
M  V30 4036 C 392.491 -3.45043 2.78316 0
M  V30 4037 H 389.711 -0.41195 0.529658 0
M  V30 4038 H 392.255 -0.687832 1.92585 0
M  V30 4039 H 390.41 -3.149 2.25648 0
M  V30 4040 H 390.824 -2.79068 4.44096 0
M  V30 4041 H 392.298 -4.2405 3.53391 0
M  V30 4042 H 392.775 -3.97971 1.85784 0
M  V30 4043 H 393.381 -2.88665 3.12334 0
M  V30 4044 N 391.696 -1.35014 -0.812953 0
M  V30 4045 C 392.936 -1.29289 -1.58315 0
M  V30 4046 C 393.3 0.132727 -1.91541 0
M  V30 4047 O 394.501 0.314269 -2.66957 0
M  V30 4048 C 392.772 -2.1681 -2.84127 0
M  V30 4049 S 394.331 -2.28538 -3.74588 0
M  V30 4050 H 391.149 -0.459569 -0.542511 0
M  V30 4051 H 393.751 -1.70336 -0.959467 0
M  V30 4052 H 392.455 -3.19379 -2.57731 0
M  V30 4053 H 391.986 -1.76697 -3.51485 0
M  V30 4054 H 394.001 -1.4655 -4.74065 0
M  V30 4055 N 393.175 1.03435 -1.18907 0
M  V30 4056 C 394.452 1.73778 -0.89781 0
M  V30 4057 C 394.832 2.02458 0.597832 0
M  V30 4058 O 394.18 1.67482 1.55441 0
M  V30 4059 C 394.39 3.01845 -1.75187 0
M  V30 4060 C 395.738 3.7546 -1.9828 0
M  V30 4061 O 396.762 3.11759 -1.72293 0
M  V30 4062 O 395.621 4.89966 -2.42065 0
M  V30 4063 H 392.715 0.75651 -0.334098 0
M  V30 4064 H 395.261 1.09444 -1.29693 0
M  V30 4065 H 394.033 2.76836 -2.76545 0
M  V30 4066 H 393.656 3.73919 -1.35167 0
M  V30 4067 N 394.653 0.992116 1.22453 0
M  V30 4068 C 395.616 0.546883 2.2258 0
M  V30 4069 C 396.616 -0.369829 1.56489 0
M  V30 4070 O 397.806 -0.161896 1.73446 0
M  V30 4071 C 394.938 -0.204659 3.40285 0
M  V30 4072 H 396.131 1.43234 2.63484 0
M  V30 4073 H 393.684 0.779239 1.3549 0
M  V30 4074 H 394.419 -1.10614 3.04853 0
M  V30 4075 H 394.204 0.45354 3.89468 0
M  V30 4076 H 395.694 -0.504358 4.14543 0
M  V30 4077 N 396.131 -1.37776 0.765217 0
M  V30 4078 C 397.547 -1.53297 0.444108 0
M  V30 4079 C 397.747 -1.72515 -1.04119 0
M  V30 4080 O 396.803 -1.74278 -1.82711 0
M  V30 4081 C 398.116 -2.73328 1.25349 0
M  V30 4082 C 399.664 -2.87185 1.24473 0
M  V30 4083 C 400.139 -4.10191 2.03733 0
M  V30 4084 N 401.63 -4.17291 2.01053 0
M  V30 4085 C 402.365 -5.11488 2.59166 0
M  V30 4086 N 401.861 -6.11285 3.26041 0
M  V30 4087 N 403.654 -5.03924 2.49032 0
M  V30 4088 H 395.805 -1.23552 1.72768 0
M  V30 4089 H 398.068 -0.601103 0.733062 0
M  V30 4090 H 397.774 -2.6557 2.30577 0
M  V30 4091 H 397.648 -3.66834 0.87823 0
M  V30 4092 H 400.035 -2.94418 0.20047 0
M  V30 4093 H 400.116 -1.94657 1.65959 0
M  V30 4094 H 399.76 -4.0372 3.08176 0
M  V30 4095 H 399.69 -5.01821 1.59633 0
M  V30 4096 H 402.181 -3.45825 1.5236 0
M  V30 4097 H 402.494 -6.79678 3.67774 0
M  V30 4098 H 400.839 -6.11583 3.30138 0
M  V30 4099 H 404.03 -4.24902 1.96407 0
M  V30 4100 H 404.203 -5.77152 2.94617 0
M  V30 4101 N 397.609 -0.515225 -1.4894 0
M  V30 4102 C 398.834 0.022727 -2.07388 0
M  V30 4103 C 399.259 1.2876 -1.37122 0
M  V30 4104 O 398.617 1.76067 -0.432431 0
M  V30 4105 C 398.665 0.244869 -3.59768 0
M  V30 4106 O 397.769 1.31667 -3.90817 0
M  V30 4107 H 397.11 -0.0325506 -0.663202 0
M  V30 4108 H 399.64 -0.718918 -1.91553 0
M  V30 4109 H 399.65 0.47205 -4.0526 0
M  V30 4110 H 398.325 -0.679194 -4.10317 0
M  V30 4111 H 396.902 1.07331 -3.5712 0
M  V30 4112 N 399.087 1.5561 -0.249682 0
M  V30 4113 C 400.035 2.22894 0.664906 0
M  V30 4114 C 401.029 1.21743 1.17792 0
M  V30 4115 O 402.235 1.39748 1.13449 0
M  V30 4116 H 398.61 0.715022 0.232912 0
M  V30 4117 H 400.581 2.98307 0.0742998 0
M  V30 4118 C 399.33 2.94424 1.84959 0
M  V30 4119 H 398.653 3.72031 1.46399 0
M  V30 4120 H 400.093 3.44862 2.4667 0
M  V30 4121 C 398.552 1.98454 2.72245 0
M  V30 4122 O 399.082 1.51939 3.71857 0
M  V30 4123 N 397.288 1.65496 2.38871 0
M  V30 4124 H 396.835 2.03517 1.57919 0
M  V30 4125 H 396.793 1.0155 2.97548 0
M  V30 4126 N 400.565 -0.0233959 1.57583 0
M  V30 4127 C 401.976 -0.56927 1.77809 0
M  V30 4128 C 402.327 -1.75284 0.881472 0
M  V30 4129 O 401.452 -2.1626 0.0777805 0
M  V30 4130 C 402.047 -1.03949 3.22459 0
M  V30 4131 C 400.606 -1.53084 3.43864 0
M  V30 4132 C 399.753 -0.471454 2.73263 0
M  V30 4133 H 402.704 0.202825 1.57399 0
M  V30 4134 H 402.725 -1.90661 3.29285 0
M  V30 4135 H 402.237 -0.177865 3.87692 0
M  V30 4136 H 400.338 -2.41414 2.83814 0
M  V30 4137 H 400.451 -1.57443 4.52491 0
M  V30 4138 H 398.815 -0.927788 2.37201 0
M  V30 4139 H 399.598 0.380808 3.41181 0
M  V30 4140 N 402.043 -1.548 -0.295768 0
M  V30 4141 C 402.953 -1.89177 -1.38742 0
M  V30 4142 C 403.969 -0.786481 -1.55211 0
M  V30 4143 O 405.145 -1.08344 -1.69775 0
M  V30 4144 C 402.21 -2.13663 -2.73036 0
M  V30 4145 C 401.271 -3.37349 -2.65508 0
M  V30 4146 C 400.504 -3.60658 -3.93398 0
M  V30 4147 O 400.727 -2.86882 -4.93006 0
M  V30 4148 O 399.661 -4.54179 -3.94975 0
M  V30 4149 H 403.487 -2.82059 -1.12589 0
M  V30 4150 H 401.072 -1.41056 -0.492295 0
M  V30 4151 H 402.954 -2.3094 -3.52484 0
M  V30 4152 H 401.629 -1.23967 -2.99022 0
M  V30 4153 H 400.536 -3.25431 -1.84514 0
M  V30 4154 H 401.869 -4.27192 -2.44474 0
M  V30 4155 N 403.521 0.559213 -1.47345 0
M  V30 4156 C 404.932 1.14134 -1.47751 0
M  V30 4157 C 405.283 1.94834 -0.231103 0
M  V30 4158 O 404.408 2.05957 0.664137 0
M  V30 4159 C 405.003 2.07653 -2.67705 0
M  V30 4160 C 403.562 2.61141 -2.71076 0
M  V30 4161 C 402.709 1.3748 -2.40821 0
M  V30 4162 H 405.66 0.345917 -1.54884 0
M  V30 4163 H 405.681 2.91497 -2.44561 0
M  V30 4164 H 405.193 1.4889 -3.58404 0
M  V30 4165 H 403.294 3.23707 -1.84511 0
M  V30 4166 H 403.407 3.02272 -3.7171 0
M  V30 4167 H 401.771 1.68086 -1.91362 0
M  V30 4168 H 402.554 0.805135 -3.33725 0
M  V30 4169 N 404.999 1.35443 0.805782 0
M  V30 4170 C 406.227 1.31878 1.59423 0
M  V30 4171 C 406.642 -0.103562 1.88516 0
M  V30 4172 O 405.999 -1.05575 1.48863 0
M  V30 4173 C 406.05 2.12426 2.92502 0
M  V30 4174 O 405.771 3.49115 2.6467 0
M  V30 4175 C 407.272 2.16455 3.86862 0
M  V30 4176 H 404.492 0.453002 0.495005 0
M  V30 4177 H 407.036 1.78309 1.00131 0
M  V30 4178 H 405.191 1.69593 3.48306 0
M  V30 4179 H 405.605 3.90957 3.49647 0
M  V30 4180 H 407.079 2.77204 4.77349 0
M  V30 4181 H 407.556 1.16352 4.23508 0
M  V30 4182 H 408.162 2.59453 3.36993 0
M  V30 4183 N 406.477 -1.02803 1.19454 0
M  V30 4184 C 407.725 -1.75869 0.995722 0
M  V30 4185 C 408.046 -1.89138 -0.474543 0
M  V30 4186 O 407.316 -1.42558 -1.34366 0
M  V30 4187 H 405.896 -0.651511 0.365435 0
M  V30 4188 H 408.558 -1.24004 1.50363 0
M  V30 4189 H 407.654 -2.76661 1.44447 0
M  V30 4190 N 407.956 -0.998596 -1.21925 0
M  V30 4191 C 409.186 -0.695276 -1.94549 0
M  V30 4192 C 409.594 0.745079 -1.73911 0
M  V30 4193 O 408.937 1.51507 -1.03881 0
M  V30 4194 C 408.999 -0.928485 -3.47303 0
M  V30 4195 C 408.663 -2.35443 -3.91683 0
M  V30 4196 C 409.66 -3.33428 -3.98901 0
M  V30 4197 C 407.345 -2.69038 -4.24174 0
M  V30 4198 C 409.339 -4.63079 -4.37992 0
M  V30 4199 C 407.026 -3.98906 -4.62944 0
M  V30 4200 C 408.024 -4.95738 -4.69822 0
M  V30 4201 O 407.712 -6.23285 -5.07711 0
M  V30 4202 H 407.444 -0.255902 -0.625692 0
M  V30 4203 H 409.998 -1.33767 -1.5587 0
M  V30 4204 H 408.228 -0.228917 -3.86022 0
M  V30 4205 H 409.917 -0.619539 -4.01144 0
M  V30 4206 H 410.683 -3.08807 -3.73983 0
M  V30 4207 H 406.562 -1.94367 -4.18022 0
M  V30 4208 H 410.106 -5.38658 -4.43275 0
M  V30 4209 H 406.003 -4.23314 -4.87314 0
M  V30 4210 H 406.771 -6.27306 -5.25766 0
M  V30 4211 N 409.434 1.37368 -0.772513 0
M  V30 4212 C 410.382 2.32134 -0.147111 0
M  V30 4213 C 411.376 1.54972 0.684106 0
M  V30 4214 O 412.582 1.70363 0.581083 0
M  V30 4215 H 408.957 0.751449 -0.028786 0
M  V30 4216 H 410.928 2.82464 -0.962112 0
M  V30 4217 C 409.677 3.40226 0.71703 0
M  V30 4218 H 409 3.99706 0.0867951 0
M  V30 4219 H 410.44 4.08897 1.12159 0
M  V30 4220 C 408.899 2.80372 1.86797 0
M  V30 4221 O 409.429 2.71183 2.96349 0
M  V30 4222 N 407.635 2.37904 1.66883 0
M  V30 4223 H 407.182 2.45578 0.777759 0
M  V30 4224 H 407.14 1.98202 2.44056 0
M  V30 4225 N 410.912 0.523116 1.48665 0
M  V30 4226 C 412.158 -0.00540031 2.03399 0
M  V30 4227 C 412.513 -1.3264 1.39372 0
M  V30 4228 O 411.806 -1.84184 0.527916 0
M  V30 4229 C 412 -0.191671 3.56886 0
M  V30 4230 C 411.829 1.10972 4.35793 0
M  V30 4231 C 410.599 1.66769 4.76987 0
M  V30 4232 C 412.797 2.01861 4.73029 0
M  V30 4233 N 410.779 2.91268 5.40404 0
M  V30 4234 C 412.15 3.10937 5.36394 0
M  V30 4235 C 414.205 2.02271 4.54962 0
M  V30 4236 C 412.908 4.20478 5.83601 0
M  V30 4237 C 414.934 3.10802 5.03146 0
M  V30 4238 C 414.296 4.18597 5.6653 0
M  V30 4239 H 410.395 0.0393531 0.781009 0
M  V30 4240 H 412.979 0.702876 1.8157 0
M  V30 4241 H 411.15 -0.869025 3.78553 0
M  V30 4242 H 412.882 -0.719177 3.98259 0
M  V30 4243 H 409.637 1.20996 4.57883 0
M  V30 4244 H 410.061 3.54635 5.76683 0
M  V30 4245 H 414.703 1.2023 4.05345 0
M  V30 4246 H 412.421 5.03303 6.32228 0
M  V30 4247 H 416.007 3.12166 4.90962 0
M  V30 4248 H 414.887 5.01193 6.03138 0
M  V30 4249 N 412.39 -1.55475 0.257931 0
M  V30 4250 C 413.615 -2.04064 -0.370488 0
M  V30 4251 C 414.04 -1.13565 -1.49948 0
M  V30 4252 O 413.398 -0.130781 -1.80828 0
M  V30 4253 C 413.446 -3.50554 -0.845237 0
M  V30 4254 O 412.55 -3.63173 -1.95394 0
M  V30 4255 H 411.891 -0.659257 -0.0792243 0
M  V30 4256 H 414.421 -2.00903 0.387212 0
M  V30 4257 H 414.431 -3.91588 -1.14555 0
M  V30 4258 H 413.106 -4.15896 -0.0191259 0
M  V30 4259 H 411.683 -3.34039 -1.65748 0
M  V30 4260 N 413.868 0.0150385 -1.57593 0
M  V30 4261 C 415.096 0.714395 -1.94175 0
M  V30 4262 C 415.511 1.68135 -0.858841 0
M  V30 4263 O 414.868 1.81766 0.163567 0
M  V30 4264 C 414.919 1.45933 -3.30735 0
M  V30 4265 O 414.64 0.531167 -4.34868 0
M  V30 4266 C 416.141 2.25456 -3.81686 0
M  V30 4267 H 413.361 0.199923 -0.640525 0
M  V30 4268 H 415.905 -0.0316096 -2.04476 0
M  V30 4269 H 414.06 2.15709 -3.21789 0
M  V30 4270 H 414.474 1.05509 -5.13778 0
M  V30 4271 H 415.948 2.731 -4.79709 0
M  V30 4272 H 416.425 3.07485 -3.13607 0
M  V30 4273 H 417.031 1.60727 -3.9376 0
M  V30 4274 N 415.346 1.54954 0.287554 0
M  V30 4275 C 416.574 1.78881 1.03967 0
M  V30 4276 C 416.989 0.554894 1.80462 0
M  V30 4277 O 416.346 -0.475676 1.76192 0
M  V30 4278 C 416.397 3.00488 2.0097 0
M  V30 4279 O 416.118 4.19113 1.27577 0
M  V30 4280 C 417.619 3.36907 2.88112 0
M  V30 4281 H 414.839 0.596259 0.307761 0
M  V30 4282 H 417.383 2.01937 0.322749 0
M  V30 4283 H 415.538 2.79601 2.68145 0
M  V30 4284 H 415.952 4.87765 1.92835 0
M  V30 4285 H 417.426 4.25205 3.52001 0
M  V30 4286 H 417.903 2.55659 3.57121 0
M  V30 4287 H 418.509 3.60001 2.26449 0
M  V30 4288 N 416.824 -0.551391 1.4764 0
M  V30 4289 C 417.757 -1.6738 1.5511 0
M  V30 4290 C 418.735 -1.5753 0.402856 0
M  V30 4291 O 419.919 -1.78307 0.611475 0
M  V30 4292 C 417.046 -3.05661 1.45908 0
M  V30 4293 C 416.092 -3.33938 2.65307 0
M  V30 4294 S 416.925 -3.22553 4.27457 0
M  V30 4295 C 418.081 -4.63317 4.20818 0
M  V30 4296 H 418.314 -1.6079 2.50068 0
M  V30 4297 H 415.847 -0.732674 1.35909 0
M  V30 4298 H 417.805 -3.8542 1.41286 0
M  V30 4299 H 416.466 -3.09711 0.523248 0
M  V30 4300 H 415.659 -4.34761 2.54948 0
M  V30 4301 H 415.261 -2.61809 2.67081 0
M  V30 4302 H 417.553 -5.54391 3.89431 0
M  V30 4303 H 418.496 -4.78732 5.21748 0
M  V30 4304 H 418.904 -4.41636 3.51593 0
M  V30 4305 N 418.302 -1.35869 -0.798587 0
M  V30 4306 C 419.55 -1.29332 -1.55298 0
M  V30 4307 C 419.871 0.129729 -1.94568 0
M  V30 4308 O 419.141 1.06796 -1.6423 0
M  V30 4309 H 417.721 -0.475737 -0.57592 0
M  V30 4310 H 420.383 -1.70062 -0.952093 0
M  V30 4311 H 419.479 -1.91458 -2.46476 0
M  V30 4312 N 419.78 1.02168 -1.19998 0
M  V30 4313 C 421.191 1.57135 -1.00825 0
M  V30 4314 C 421.542 1.91276 0.436818 0
M  V30 4315 O 420.667 1.71679 1.3174 0
M  V30 4316 C 421.262 2.85514 -1.82393 0
M  V30 4317 C 419.821 3.37027 -1.67601 0
M  V30 4318 C 418.968 2.10388 -1.80644 0
M  V30 4319 H 421.919 0.846106 -1.34264 0
M  V30 4320 H 421.94 3.56711 -1.32429 0
M  V30 4321 H 421.452 2.60634 -2.87561 0
M  V30 4322 H 419.553 3.66878 -0.650485 0
M  V30 4323 H 419.666 4.09572 -2.4857 0
M  V30 4324 H 418.03 2.22601 -1.23778 0
M  V30 4325 H 418.813 1.8794 -2.87286 0
M  V30 4326 N 421.258 1.00505 1.21394 0
M  V30 4327 C 422.188 0.585684 2.26035 0
M  V30 4328 C 423.169 -0.393525 1.65485 0
M  V30 4329 O 424.354 -0.281497 1.92149 0
M  V30 4330 C 421.484 -0.0884283 3.47187 0
M  V30 4331 C 420.438 0.810567 4.20254 0
M  V30 4332 C 419.764 0.00286382 5.347 0
M  V30 4333 C 421.064 2.1132 4.77641 0
M  V30 4334 H 422.758 1.46039 2.61368 0
M  V30 4335 H 420.304 0.703648 1.25638 0
M  V30 4336 H 422.257 -0.393286 4.19561 0
M  V30 4337 H 420.981 -0.997766 3.10986 0
M  V30 4338 H 419.64 1.09925 3.49731 0
M  V30 4339 H 419.288 -0.907765 4.94741 0
M  V30 4340 H 418.988 0.601444 5.84514 0
M  V30 4341 H 420.512 -0.295808 6.09883 0
M  V30 4342 H 421.926 1.87148 5.41893 0
M  V30 4343 H 420.323 2.66164 5.37845 0
M  V30 4344 H 421.393 2.78393 3.9702 0
M  V30 4345 N 422.737 -1.36956 0.779787 0
M  V30 4346 C 424.148 -1.82094 0.412156 0
M  V30 4347 C 424.499 -1.64926 -1.06273 0
M  V30 4348 O 423.624 -1.16483 -1.82375 0
M  V30 4349 C 424.219 -3.3059 0.741319 0
M  V30 4350 C 422.778 -3.73974 0.426641 0
M  V30 4351 C 421.925 -2.59368 0.980987 0
M  V30 4352 H 424.876 -1.25314 0.973758 0
M  V30 4353 H 424.897 -3.80489 0.028887 0
M  V30 4354 H 424.409 -3.43054 1.81482 0
M  V30 4355 H 422.51 -3.67076 -0.639215 0
M  V30 4356 H 422.623 -4.69778 0.940515 0
M  V30 4357 H 420.987 -2.51463 0.404757 0
M  V30 4358 H 421.77 -2.74621 2.06005 0
M  V30 4359 N 424.215 -0.530993 -1.48385 0
M  V30 4360 C 425.626 -0.0907905 -1.86479 0
M  V30 4361 C 425.977 1.33213 -1.44044 0
M  V30 4362 O 425.102 1.99783 -0.831615 0
M  V30 4363 C 425.697 -0.157987 -3.38431 0
M  V30 4364 C 424.256 0.227026 -3.75715 0
M  V30 4365 C 423.403 -0.5173 -2.72432 0
M  V30 4366 H 426.354 -0.742186 -1.40276 0
M  V30 4367 H 426.375 0.630053 -3.75247 0
M  V30 4368 H 425.887 -1.19372 -3.69286 0
M  V30 4369 H 423.988 1.26486 -3.50474 0
M  V30 4370 H 424.101 -0.113288 -4.78966 0
M  V30 4371 H 422.465 0.0365527 -2.54674 0
M  V30 4372 H 423.248 -1.55368 -3.0613 0
M  V30 4373 N 425.693 1.55336 -0.266172 0
M  V30 4374 C 426.94 1.99397 0.353158 0
M  V30 4375 C 427.268 1.15451 1.56529 0
M  V30 4376 O 426.523 0.209974 1.9457 0
M  V30 4377 C 426.822 3.48606 0.787957 0
M  V30 4378 C 426.488 4.49773 -0.318541 0
M  V30 4379 C 425.15 4.77158 -0.62239 0
M  V30 4380 C 427.502 5.10212 -1.06459 0
M  V30 4381 C 424.83 5.62251 -1.67602 0
M  V30 4382 C 427.182 5.96449 -2.10788 0
M  V30 4383 C 425.846 6.22158 -2.41817 0
M  V30 4384 H 425.116 0.729644 0.12923 0
M  V30 4385 H 427.763 1.87732 -0.37802 0
M  V30 4386 H 426.068 3.57701 1.59866 0
M  V30 4387 H 427.765 3.80098 1.27775 0
M  V30 4388 H 424.355 4.2854 -0.0715925 0
M  V30 4389 H 428.539 4.89086 -0.843098 0
M  V30 4390 H 423.795 5.80419 -1.92155 0
M  V30 4391 H 427.969 6.42317 -2.69076 0
M  V30 4392 H 425.596 6.87888 -3.23596 0
M  V30 4393 N 427.171 -0.0066808 1.57599 0
M  V30 4394 C 428.134 -0.985035 2.06953 0
M  V30 4395 C 429.134 -1.27663 0.977687 0
M  V30 4396 O 430.324 -1.22293 1.24057 0
M  V30 4397 C 427.456 -2.3118 2.50536 0
M  V30 4398 H 428.649 -0.558255 2.94658 0
M  V30 4399 H 426.202 -0.254011 1.54222 0
M  V30 4400 H 426.937 -2.78561 1.66054 0
M  V30 4401 H 426.722 -2.11338 3.3027 0
M  V30 4402 H 428.212 -3.01377 2.8907 0
M  V30 4403 N 428.649 -1.55105 -0.279332 0
M  V30 4404 C 429.895 -1.75672 -1.01327 0
M  V30 4405 C 430.228 -0.552739 -1.86168 0
M  V30 4406 O 429.503 0.449827 -1.89227 0
M  V30 4407 C 429.786 -3.05825 -1.90114 0
M  V30 4408 C 429.639 -4.36565 -1.08309 0
M  V30 4409 C 430.958 -3.31975 -2.8893 0
M  V30 4410 H 428.077 -0.639149 -0.366957 0
M  V30 4411 H 430.719 -1.87833 -0.286154 0
M  V30 4412 H 428.869 -2.95588 -2.52111 0
M  V30 4413 H 430.541 -4.58751 -0.484314 0
M  V30 4414 H 428.784 -4.32076 -0.386362 0
M  V30 4415 H 429.455 -5.23946 -1.73737 0
M  V30 4416 H 431.931 -3.41963 -2.37067 0
M  V30 4417 H 430.807 -4.2432 -3.48201 0
M  V30 4418 H 431.068 -2.51309 -3.63725 0
M  V30 4419 N 430.127 0.543554 -1.4793 0
M  V30 4420 C 431.09 1.63156 -1.60975 0
M  V30 4421 C 432.09 1.53346 -0.483899 0
M  V30 4422 O 433.28 1.5726 -0.749339 0
M  V30 4423 C 430.412 3.02743 -1.56716 0
M  V30 4424 H 431.605 1.52934 -2.57975 0
M  V30 4425 H 429.158 0.764557 -1.36324 0
M  V30 4426 H 429.893 3.18484 -0.611418 0
M  V30 4427 H 429.678 3.11272 -2.38438 0
M  V30 4428 H 431.168 3.81871 -1.6901 0
M  V30 4429 N 431.605 1.3629 0.791371 0
M  V30 4430 C 432.537 1.26321 1.91248 0
M  V30 4431 C 433.55 0.18313 1.61767 0
M  V30 4432 O 434.739 0.437682 1.73051 0
M  V30 4433 C 431.839 0.925901 3.26007 0
M  V30 4434 C 431.012 2.10746 3.83281 0
M  V30 4435 C 430.071 1.74352 4.96475 0
M  V30 4436 O 429.097 2.46416 5.13096 0
M  V30 4437 N 430.299 0.676058 5.7655 0
M  V30 4438 H 433.064 2.22915 2.00323 0
M  V30 4439 H 430.625 1.29659 0.969546 0
M  V30 4440 H 432.617 0.663636 3.99222 0
M  V30 4441 H 431.187 0.0491581 3.12561 0
M  V30 4442 H 430.407 2.53264 3.02077 0
M  V30 4443 H 431.695 2.8969 4.18279 0
M  V30 4444 H 431.093 0.0776467 5.65647 0
M  V30 4445 H 429.65 0.473612 6.50077 0
M  V30 4446 N 433.083 -1.0153 1.20538 0
M  V30 4447 C 434.331 -1.74803 1.01432 0
M  V30 4448 C 434.652 -1.8963 -0.454456 0
M  V30 4449 O 433.922 -1.43975 -1.32846 0
M  V30 4450 H 432.502 -0.647598 0.372324 0
M  V30 4451 H 435.164 -1.22402 1.5167 0
M  V30 4452 H 434.26 -2.75114 1.47373 0
M  V30 4453 N 434.561 -1.01147 -1.20859 0
M  V30 4454 C 435.524 -0.582224 -2.21682 0
M  V30 4455 C 436.524 0.344887 -1.57058 0
M  V30 4456 O 437.714 0.134281 -1.73682 0
M  V30 4457 C 434.846 0.150496 -3.40568 0
M  V30 4458 H 436.039 -1.47408 -2.61172 0
M  V30 4459 H 433.592 -0.800695 -1.34233 0
M  V30 4460 H 434.327 1.0575 -3.06574 0
M  V30 4461 H 434.112 -0.515444 -3.88697 0
M  V30 4462 H 435.602 0.438344 -4.15293 0
M  V30 4463 N 436.039 1.36541 -0.78704 0
M  V30 4464 C 436.971 2.28761 -0.141773 0
M  V30 4465 C 437.984 1.49365 0.647599 0
M  V30 4466 O 439.173 1.71836 0.483173 0
M  V30 4467 C 436.273 3.28771 0.822368 0
M  V30 4468 C 435.446 4.3732 0.0835594 0
M  V30 4469 C 434.505 5.17307 0.963296 0
M  V30 4470 O 433.531 5.67638 0.421419 0
M  V30 4471 N 434.733 5.33515 2.28784 0
M  V30 4472 H 437.498 2.84777 -0.933919 0
M  V30 4473 H 435.059 1.48682 -0.640735 0
M  V30 4474 H 437.051 3.79169 1.41468 0
M  V30 4475 H 435.621 2.73412 1.5154 0
M  V30 4476 H 434.841 3.88118 -0.689809 0
M  V30 4477 H 436.129 5.0701 -0.426358 0
M  V30 4478 H 435.527 4.94234 2.75226 0
M  V30 4479 H 434.084 5.87165 2.82985 0
M  V30 4480 N 437.518 0.538854 1.48102 0
M  V30 4481 C 438.448 -0.207654 2.32575 0
M  V30 4482 C 439.429 -0.926559 1.4265 0
M  V30 4483 O 440.614 -0.91061 1.71527 0
M  V30 4484 C 437.744 -1.24957 3.24042 0
M  V30 4485 C 436.698 -0.648263 4.23062 0
M  V30 4486 C 436.024 -1.79348 5.03725 0
M  V30 4487 C 437.324 0.385897 5.20872 0
M  V30 4488 H 439.018 0.497534 2.95237 0
M  V30 4489 H 436.564 0.240715 1.41974 0
M  V30 4490 H 438.517 -1.77983 3.81969 0
M  V30 4491 H 437.241 -1.98446 2.59397 0
M  V30 4492 H 435.9 -0.139452 3.66335 0
M  V30 4493 H 435.548 -2.51696 4.35498 0
M  V30 4494 H 435.248 -1.39702 5.70751 0
M  V30 4495 H 436.772 -2.32735 5.64506 0
M  V30 4496 H 438.186 -0.057607 5.73271 0
M  V30 4497 H 436.583 0.700227 5.96001 0
M  V30 4498 H 437.653 1.28848 4.67468 0
M  V30 4499 N 438.996 -1.55193 0.274407 0
M  V30 4500 C 439.926 -2.25471 -0.607032 0
M  V30 4501 C 440.907 -1.24461 -1.15946 0
M  V30 4502 O 442.092 -1.53179 -1.19373 0
M  V30 4503 C 439.222 -2.97526 -1.79153 0
M  V30 4504 C 438.176 -4.05459 -1.37067 0
M  V30 4505 C 437.502 -4.65084 -2.6382 0
M  V30 4506 C 438.802 -5.19691 -0.521389 0
M  V30 4507 H 440.496 -2.99393 -0.0209343 0
M  V30 4508 H 438.042 -1.43997 -0.00862866 0
M  V30 4509 H 439.995 -3.45402 -2.41404 0
M  V30 4510 H 438.719 -2.21138 -2.40344 0
M  V30 4511 H 437.378 -3.58393 -0.771355 0
M  V30 4512 H 437.026 -3.85365 -3.23268 0
M  V30 4513 H 436.726 -5.37961 -2.36372 0
M  V30 4514 H 438.25 -5.15708 -3.26921 0
M  V30 4515 H 439.664 -5.63623 -1.04889 0
M  V30 4516 H 438.061 -5.99126 -0.341825 0
M  V30 4517 H 439.131 -4.82713 0.46 0
M  V30 4518 N 440.474 -0.00167713 -1.576 0
M  V30 4519 C 441.723 0.682021 -1.89819 0
M  V30 4520 C 442.036 1.74844 -0.876871 0
M  V30 4521 O 443.242 2.48688 -1.08934 0
M  V30 4522 C 441.698 1.26425 -3.36964 0
M  V30 4523 C 441.306 0.232568 -4.47396 0
M  V30 4524 C 443.05 1.92604 -3.78291 0
M  V30 4525 C 440.957 0.824882 -5.85619 0
M  V30 4526 H 439.887 0.258499 -0.708304 0
M  V30 4527 H 442.538 -0.0624957 -1.83394 0
M  V30 4528 H 440.92 2.05949 -3.38232 0
M  V30 4529 H 442.094 -0.5382 -4.57646 0
M  V30 4530 H 440.409 -0.32888 -4.15099 0
M  V30 4531 H 443.006 2.37827 -4.78897 0
M  V30 4532 H 443.349 2.75732 -3.11894 0
M  V30 4533 H 443.882 1.19812 -3.79328 0
M  V30 4534 H 440.621 0.0323542 -6.55492 0
M  V30 4535 H 440.141 1.56477 -5.79029 0
M  V30 4536 H 441.82 1.32301 -6.33329 0
M  V30 4537 N 441.952 1.55251 0.271103 0
M  V30 4538 C 443.368 1.47133 0.618393 0
M  V30 4539 C 443.568 0.686994 1.89427 0
M  V30 4540 O 442.624 0.206609 2.51653 0
M  V30 4541 C 443.937 2.91361 0.743593 0
M  V30 4542 C 445.485 3.01587 0.837522 0
M  V30 4543 C 445.96 4.47073 0.994483 0
M  V30 4544 N 447.451 4.50909 1.05996 0
M  V30 4545 C 448.186 5.60698 1.20024 0
M  V30 4546 N 447.682 6.80348 1.30759 0
M  V30 4547 N 449.475 5.48444 1.23149 0
M  V30 4548 H 441.626 2.04698 -0.566784 0
M  V30 4549 H 443.889 0.928319 -0.192165 0
M  V30 4550 H 443.595 3.51483 -0.123493 0
M  V30 4551 H 443.469 3.40484 1.62328 0
M  V30 4552 H 445.856 2.4156 1.69507 0
M  V30 4553 H 445.937 2.55713 -0.0668086 0
M  V30 4554 H 445.581 5.07703 0.141582 0
M  V30 4555 H 445.511 4.90605 1.91349 0
M  V30 4556 H 448.002 3.6472 0.989316 0
M  V30 4557 H 448.315 7.59772 1.41303 0
M  V30 4558 H 446.66 6.83156 1.27761 0
M  V30 4559 H 449.851 4.53907 1.14394 0
M  V30 4560 H 450.024 6.34049 1.33738 0
M  V30 4561 N 443.43 -0.535701 1.48216 0
M  V30 4562 C 444.841 -1.11769 1.49548 0
M  V30 4563 C 445.192 -1.94442 0.26207 0
M  V30 4564 O 444.317 -2.06987 -0.631287 0
M  V30 4565 C 444.912 -2.03367 2.70975 0
M  V30 4566 C 443.471 -2.56795 2.75196 0
M  V30 4567 C 442.618 -1.33631 2.42977 0
M  V30 4568 H 445.569 -0.321232 1.55415 0
M  V30 4569 H 445.59 -2.87569 2.49167 0
M  V30 4570 H 445.102 -1.43169 3.60727 0
M  V30 4571 H 443.203 -3.20731 1.89638 0
M  V30 4572 H 443.316 -2.9632 3.76472 0
M  V30 4573 H 441.68 -1.6502 1.94012 0
M  V30 4574 H 442.463 -0.75194 3.34964 0
M  V30 4575 N 444.908 -1.36708 -0.784132 0
M  V30 4576 C 446.154 -1.31426 -1.54451 0
M  V30 4577 C 446.487 0.10476 -1.93917 0
M  V30 4578 O 445.762 1.05934 -1.6312 0
M  V30 4579 C 446.045 -2.24189 -2.818 0
M  V30 4580 C 445.898 -3.74813 -2.48667 0
M  V30 4581 C 447.217 -2.15626 -3.83658 0
M  V30 4582 H 444.336 -0.478739 -0.560337 0
M  V30 4583 H 446.978 -1.67305 -0.900498 0
M  V30 4584 H 445.128 -1.93722 -3.36755 0
M  V30 4585 H 446.8 -4.15823 -1.99722 0
M  V30 4586 H 445.043 -3.93989 -1.81535 0
M  V30 4587 H 445.714 -4.35138 -3.39646 0
M  V30 4588 H 448.19 -2.42456 -3.38163 0
M  V30 4589 H 447.066 -2.82694 -4.70506 0
M  V30 4590 H 447.327 -1.14522 -4.27009 0
M  V30 4591 N 446.386 1.0089 -1.21074 0
M  V30 4592 C 447.663 1.71834 -0.934469 0
M  V30 4593 C 448.043 2.0368 0.554753 0
M  V30 4594 O 447.391 1.70742 1.51854 0
M  V30 4595 C 447.601 2.98061 -1.8155 0
M  V30 4596 C 448.949 3.7117 -2.06199 0
M  V30 4597 O 449.973 3.08034 -1.78867 0
M  V30 4598 O 448.832 4.84721 -2.52404 0
M  V30 4599 H 445.926 0.749253 -0.35007 0
M  V30 4600 H 448.472 1.06668 -1.31985 0
M  V30 4601 H 447.244 2.70908 -2.82355 0
M  V30 4602 H 446.867 3.70968 -1.43068 0
M  V30 4603 N 447.864 1.01787 1.20321 0
M  V30 4604 C 448.811 0.589197 2.23153 0
M  V30 4605 C 449.781 -0.391367 1.61423 0
M  V30 4606 O 450.966 -0.290518 1.88575 0
M  V30 4607 C 448.106 -0.0650747 3.45039 0
M  V30 4608 C 447.219 0.960207 4.21194 0
M  V30 4609 C 446.354 0.276854 5.30478 0
M  V30 4610 C 445.393 1.2888 5.98378 0
M  V30 4611 N 444.53 0.632031 6.99249 0
M  V30 4612 H 449.37 1.47071 2.59179 0
M  V30 4613 H 446.907 0.736192 1.27352 0
M  V30 4614 H 448.865 -0.461552 4.14639 0
M  V30 4615 H 447.495 -0.910233 3.09701 0
M  V30 4616 H 446.547 1.47484 3.50646 0
M  V30 4617 H 447.859 1.72977 4.67847 0
M  V30 4618 H 447.013 -0.175056 6.06447 0
M  V30 4619 H 445.752 -0.525004 4.84866 0
M  V30 4620 H 444.757 1.75109 5.21169 0
M  V30 4621 H 445.982 2.09196 6.46076 0
M  V30 4622 H 443.928 -0.149935 6.55829 0
M  V30 4623 H 443.845 1.33964 7.44036 0
M  V30 4624 H 445.113 0.203755 7.79234 0
M  V30 4625 N 449.342 -1.36122 0.79427 0
M  V30 4626 C 450.753 -1.81646 0.431446 0
M  V30 4627 C 451.104 -1.66043 -1.04518 0
M  V30 4628 O 450.229 -1.1841 -1.8113 0
M  V30 4629 C 450.824 -3.29785 0.776341 0
M  V30 4630 C 449.383 -3.73501 0.466282 0
M  V30 4631 C 448.53 -2.58313 1.00844 0
M  V30 4632 H 451.481 -1.24274 0.986995 0
M  V30 4633 H 451.502 -3.80437 0.0692413 0
M  V30 4634 H 451.014 -3.4111 1.8511 0
M  V30 4635 H 449.115 -3.67733 -0.600245 0
M  V30 4636 H 449.228 -4.68754 0.990288 0
M  V30 4637 H 447.592 -2.5102 0.431406 0
M  V30 4638 H 448.375 -2.72421 2.08906 0
M  V30 4639 N 450.82 -0.546701 -1.47814 0
M  V30 4640 C 452.069 -0.0166497 -2.01693 0
M  V30 4641 C 452.382 1.33721 -1.42752 0
M  V30 4642 O 453.588 1.95658 -1.8823 0
M  V30 4643 C 452.044 0.0206769 -3.59894 0
M  V30 4644 C 451.652 -1.3293 -4.27824 0
M  V30 4645 C 453.396 0.498674 -4.21561 0
M  V30 4646 C 451.303 -1.25165 -5.78003 0
M  V30 4647 H 450.233 -0.0024541 -0.753996 0
M  V30 4648 H 452.884 -0.692984 -1.69912 0
M  V30 4649 H 451.266 0.76244 -3.88591 0
M  V30 4650 H 452.44 -2.08795 -4.10781 0
M  V30 4651 H 450.755 -1.74438 -3.78101 0
M  V30 4652 H 453.352 0.575 -5.31599 0
M  V30 4653 H 453.695 1.5083 -3.88016 0
M  V30 4654 H 454.228 -0.18791 -3.97356 0
M  V30 4655 H 450.967 -2.23695 -6.1615 0
M  V30 4656 H 450.487 -0.53464 -5.97412 0
M  V30 4657 H 452.166 -0.949299 -6.39998 0
M  V30 4658 N 452.299 1.55045 -0.282633 0
M  V30 4659 C 453.247 2.24254 0.617478 0
M  V30 4660 C 454.241 1.24215 1.15183 0
M  V30 4661 O 455.447 1.42123 1.10459 0
M  V30 4662 H 451.822 0.719801 0.217693 0
M  V30 4663 H 453.793 2.98398 0.0110076 0
M  V30 4664 C 452.542 2.98281 1.78672 0
M  V30 4665 H 451.865 3.75053 1.38475 0
M  V30 4666 H 453.305 3.50017 2.393 0
M  V30 4667 C 451.764 2.04184 2.67975 0
M  V30 4668 O 452.294 1.59792 3.6855 0
M  V30 4669 N 450.5 1.70526 2.35307 0
M  V30 4670 H 450.047 2.06821 1.53567 0
M  V30 4671 H 450.005 1.07839 2.95327 0
M  V30 4672 N 453.777 0.010035 1.57597 0
M  V30 4673 C 455.005 -0.683413 1.95287 0
M  V30 4674 C 455.42 -1.66747 0.885481 0
M  V30 4675 O 454.777 -1.82003 -0.134629 0
M  V30 4676 C 454.828 -1.40652 3.33015 0
M  V30 4677 O 454.549 -0.461916 4.35658 0
M  V30 4678 C 456.05 -2.19356 3.85225 0
M  V30 4679 H 453.27 -0.189708 0.643624 0
M  V30 4680 H 455.814 0.0641359 2.04399 0
M  V30 4681 H 453.969 -2.10562 3.2518 0
M  V30 4682 H 454.383 -0.973215 5.15392 0
M  V30 4683 H 455.857 -2.65433 4.83993 0
M  V30 4684 H 456.334 -3.02457 3.18459 0
M  V30 4685 H 456.94 -1.54442 3.96267 0
M  V30 4686 N 455.255 -1.55392 -0.262866 0
M  V30 4687 C 456.483 -1.80513 -1.01108 0
M  V30 4688 C 456.898 -0.583533 -1.79556 0
M  V30 4689 O 456.255 0.447585 -1.76926 0
M  V30 4690 C 456.306 -3.03648 -1.96164 0
M  V30 4691 O 456.027 -4.2109 -1.20893 0
M  V30 4692 C 457.528 -3.41448 -2.82715 0
M  V30 4693 H 454.748 -0.601079 -0.298236 0
M  V30 4694 H 457.292 -2.02425 -0.290582 0
M  V30 4695 H 455.447 -2.83832 -2.63663 0
M  V30 4696 H 455.861 -4.90771 -1.85051 0
M  V30 4697 H 457.335 -4.30751 -3.45192 0
M  V30 4698 H 457.812 -2.61308 -3.53008 0
M  V30 4699 H 458.418 -3.63559 -2.20693 0
M  V30 4700 N 456.733 0.527833 -1.48498 0
M  V30 4701 C 457.663 1.64136 -1.66077 0
M  V30 4702 C 458.644 1.62286 -0.509625 0
M  V30 4703 O 459.829 1.79449 -0.742413 0
M  V30 4704 C 456.959 3.02717 -1.70234 0
M  V30 4705 C 455.913 3.19426 -2.8487 0
M  V30 4706 C 455.239 4.5909 -2.74118 0
M  V30 4707 C 456.539 3.01993 -4.26142 0
M  V30 4708 H 458.233 1.4968 -2.593 0
M  V30 4709 H 455.779 0.718654 -1.24785 0
M  V30 4710 H 457.732 3.80491 -1.8112 0
M  V30 4711 H 456.456 3.18201 -0.735911 0
M  V30 4712 H 455.115 2.4407 -2.73542 0
M  V30 4713 H 454.763 4.71413 -1.7544 0
M  V30 4714 H 454.463 4.71214 -3.51042 0
M  V30 4715 H 455.987 5.3896 -2.86974 0
M  V30 4716 H 457.401 3.69558 -4.38292 0
M  V30 4717 H 455.798 3.2561 -5.04082 0
M  V30 4718 H 456.868 1.98396 -4.42456 0
M  V30 4719 N 458.211 1.37122 0.776871 0
M  V30 4720 C 459.46 1.31373 1.53049 0
M  V30 4721 C 459.773 -0.101016 1.95339 0
M  V30 4722 O 460.979 -0.280953 2.70042 0
M  V30 4723 C 459.435 2.30567 2.76346 0
M  V30 4724 C 459.043 3.77543 2.41175 0
M  V30 4725 C 460.787 2.33818 3.54301 0
M  V30 4726 C 458.694 4.68481 3.60943 0
M  V30 4727 H 457.624 0.488234 0.574581 0
M  V30 4728 H 460.275 1.62554 0.851372 0
M  V30 4729 H 458.657 1.92396 3.46121 0
M  V30 4730 H 459.831 4.24521 1.79216 0
M  V30 4731 H 458.146 3.77187 1.76405 0
M  V30 4732 H 460.743 2.98965 4.4331 0
M  V30 4733 H 461.086 1.3503 3.93793 0
M  V30 4734 H 461.619 2.7067 2.91518 0
M  V30 4735 H 458.358 5.68378 3.26537 0
M  V30 4736 H 457.878 4.2621 4.22025 0
M  V30 4737 H 459.557 4.85366 4.27819 0
M  V30 4738 N 459.689 -1.00246 1.21608 0
M  V30 4739 C 460.929 -1.75589 1.04631 0
M  V30 4740 C 461.293 -1.87513 -0.412648 0
M  V30 4741 O 462.494 -2.59444 -0.703003 0
M  V30 4742 C 460.765 -3.12893 1.72722 0
M  V30 4743 S 462.324 -4.04095 1.71034 0
M  V30 4744 H 459.142 -0.604133 0.374892 0
M  V30 4745 H 461.744 -1.19927 1.54395 0
M  V30 4746 H 460.448 -3.0185 2.78055 0
M  V30 4747 H 459.979 -3.73628 1.23149 0
M  V30 4748 H 461.994 -4.9045 0.753231 0
M  V30 4749 N 461.167 -1.02423 -1.1978 0
M  V30 4750 C 462.115 -0.594474 -2.24875 0
M  V30 4751 C 463.109 0.370598 -1.65296 0
M  V30 4752 O 464.315 0.239684 -1.78397 0
M  V30 4753 H 460.69 -0.173961 -0.731602 0
M  V30 4754 H 462.661 -1.4916 -2.58445 0
M  V30 4755 C 461.41 0.0436512 -3.47673 0
M  V30 4756 H 460.733 -0.689963 -3.93801 0
M  V30 4757 H 462.173 0.307362 -4.22884 0
M  V30 4758 C 460.632 1.28881 -3.11274 0
M  V30 4759 O 461.162 2.38135 -3.23503 0
M  V30 4760 N 459.368 1.1758 -2.6575 0
M  V30 4761 H 458.915 0.286769 -2.55999 0
M  V30 4762 H 458.873 2.00988 -2.41767 0
M  V30 4763 N 462.645 1.35699 -0.801477 0
M  V30 4764 C 463.891 1.99208 -0.380022 0
M  V30 4765 C 464.224 1.63445 1.04878 0
M  V30 4766 O 463.499 0.895223 1.72673 0
M  V30 4767 C 463.782 3.55755 -0.557708 0
M  V30 4768 C 463.635 4.01332 -2.03107 0
M  V30 4769 C 464.954 4.40096 0.0197968 0
M  V30 4770 H 462.073 0.723667 -0.139552 0
M  V30 4771 H 464.715 1.60928 -1.01006 0
M  V30 4772 H 462.865 3.88494 -0.0213741 0
M  V30 4773 H 464.537 3.79026 -2.62939 0
M  V30 4774 H 462.78 3.52429 -2.52936 0
M  V30 4775 H 463.451 5.10234 -2.1063 0
M  V30 4776 H 465.927 4.13786 -0.438179 0
M  V30 4777 H 464.803 5.48735 -0.134477 0
M  V30 4778 H 465.064 4.2786 1.11303 0
M  V30 4779 N 464.123 0.554532 1.47522 0
M  V30 4780 C 465.351 0.034257 2.06872 0
M  V30 4781 C 465.766 -1.25826 1.40759 0
M  V30 4782 O 465.123 -1.75425 0.503217 0
M  V30 4783 C 465.174 -0.167827 3.6111 0
M  V30 4784 O 464.895 1.07351 4.24744 0
M  V30 4785 C 466.396 -0.72569 4.3732 0
M  V30 4786 H 463.616 0.0446275 0.669514 0
M  V30 4787 H 466.16 0.767181 1.89564 0
M  V30 4788 H 464.315 -0.850872 3.7794 0
M  V30 4789 H 464.729 0.869563 5.17242 0
M  V30 4790 H 466.203 -0.816394 5.45929 0
M  V30 4791 H 466.68 -1.73635 4.0342 0
M  V30 4792 H 467.286 -0.0784292 4.25228 0
M  V30 4793 N 465.601 -1.54893 0.290851 0
M  V30 4794 C 466.549 -2.24579 -0.605576 0
M  V30 4795 C 467.543 -1.24824 -1.14522 0
M  V30 4796 O 468.749 -1.42706 -1.09704 0
M  V30 4797 H 465.124 -0.720946 -0.213872 0
M  V30 4798 H 467.095 -2.984 0.0048173 0
M  V30 4799 C 465.844 -2.99224 -1.77088 0
M  V30 4800 H 465.167 -3.75782 -1.36484 0
M  V30 4801 H 466.607 -3.51281 -2.3744 0
M  V30 4802 C 465.066 -2.05602 -2.66888 0
M  V30 4803 O 465.596 -1.61745 -3.67698 0
M  V30 4804 N 463.802 -1.71771 -2.34399 0
M  V30 4805 H 463.349 -2.07633 -1.52468 0
M  V30 4806 H 463.307 -1.09403 -2.94751 0
M  V30 4807 N 467.08 -0.0183926 -1.57589 0
M  V30 4808 C 468.043 0.951986 -2.08494 0
M  V30 4809 C 469.043 1.26092 -0.997874 0
M  V30 4810 O 470.233 1.20304 -1.25987 0
M  V30 4811 C 467.365 2.27165 -2.54182 0
M  V30 4812 H 468.558 0.511307 -2.95509 0
M  V30 4813 H 466.111 0.229444 -1.54607 0
M  V30 4814 H 466.846 2.75884 -1.70465 0
M  V30 4815 H 466.631 2.06057 -3.33591 0
M  V30 4816 H 468.121 2.9674 -2.93828 0
M  V30 4817 N 468.558 1.5553 0.254621 0
M  V30 4818 C 469.488 1.9268 1.31897 0
M  V30 4819 C 470.469 0.790797 1.506 0
M  V30 4820 O 471.654 1.05045 1.63337 0
M  V30 4821 C 468.784 2.21477 2.67517 0
M  V30 4822 C 467.738 3.37256 2.63519 0
M  V30 4823 C 467.064 3.51576 4.02862 0
M  V30 4824 C 468.364 4.73157 2.21179 0
M  V30 4825 H 470.058 2.81832 1.01051 0
M  V30 4826 H 467.604 1.35599 0.484662 0
M  V30 4827 H 469.557 2.46055 3.42104 0
M  V30 4828 H 468.281 1.29144 2.99982 0
M  V30 4829 H 466.94 3.12675 1.9139 0
M  V30 4830 H 466.588 2.56676 4.32581 0
M  V30 4831 H 466.288 4.2943 4.01078 0
M  V30 4832 H 467.812 3.78467 4.79161 0
M  V30 4833 H 469.226 4.97158 2.85494 0
M  V30 4834 H 467.623 5.54058 2.30521 0
M  V30 4835 H 468.693 4.70739 1.16332 0
M  V30 4836 N 470.036 -0.519951 1.48776 0
M  V30 4837 C 471.284 -1.2727 1.56993 0
M  V30 4838 C 471.605 -1.9339 0.25004 0
M  V30 4839 O 470.875 -1.81822 -0.729216 0
M  V30 4840 H 469.455 -0.472732 0.578389 0
M  V30 4841 H 472.117 -0.604234 1.85297 0
M  V30 4842 H 471.213 -2.04669 2.3562 0
M  V30 4843 N 471.514 -1.37532 -0.769588 0
M  V30 4844 C 472.477 -1.33292 -1.86456 0
M  V30 4845 C 473.477 -0.236537 -1.59051 0
M  V30 4846 O 474.667 -0.492511 -1.67093 0
M  V30 4847 C 471.799 -1.07118 -3.23633 0
M  V30 4848 H 472.992 -2.30692 -1.91628 0
M  V30 4849 H 470.545 -1.22593 -0.969572 0
M  V30 4850 H 471.28 -0.102578 -3.24138 0
M  V30 4851 H 471.065 -1.86479 -3.44917 0
M  V30 4852 H 472.555 -1.06806 -4.03711 0
M  V30 4853 N 472.992 0.995999 -1.22138 0
M  V30 4854 C 474.408 1.25917 -0.980667 0
M  V30 4855 C 474.608 1.98819 0.327604 0
M  V30 4856 O 473.664 2.29587 1.05101 0
M  V30 4857 C 474.977 2.07399 -2.17729 0
M  V30 4858 C 476.525 2.20594 -2.22052 0
M  V30 4859 C 477 3.05462 -3.41258 0
M  V30 4860 N 478.491 3.13049 -3.41401 0
M  V30 4861 C 479.226 3.78997 -4.30289 0
M  V30 4862 N 478.722 4.46899 -5.2939 0
M  V30 4863 N 480.515 3.75728 -4.18073 0
M  V30 4864 H 472.666 0.507158 -2.06256 0
M  V30 4865 H 474.929 0.28658 -0.903646 0
M  V30 4866 H 474.635 1.61191 -3.12586 0
M  V30 4867 H 474.509 3.08154 -2.17534 0
M  V30 4868 H 476.896 2.66017 -1.27745 0
M  V30 4869 H 476.977 1.1928 -2.26287 0
M  V30 4870 H 476.621 2.60739 -4.35864 0
M  V30 4871 H 476.551 4.06911 -3.34262 0
M  V30 4872 H 479.042 2.64721 -2.69688 0
M  V30 4873 H 479.355 4.94952 -5.935 0
M  V30 4874 H 477.7 4.45657 -5.33306 0
M  V30 4875 H 480.891 3.2184 -3.39907 0
M  V30 4876 H 481.064 4.26845 -4.87553 0
M  V30 4877 N 474.47 1.03057 1.19235 0
M  V30 4878 C 475.402 0.570932 2.21975 0
M  V30 4879 C 476.415 -0.354088 1.58903 0
M  V30 4880 O 477.604 -0.150211 1.77867 0
M  V30 4881 C 474.704 -0.187152 3.38383 0
M  V30 4882 C 473.877 0.743231 4.31039 0
M  V30 4883 C 472.936 0.0302493 5.26191 0
M  V30 4884 O 471.962 0.657371 5.65391 0
M  V30 4885 N 473.164 -1.23991 5.67104 0
M  V30 4886 H 475.929 1.45456 2.62036 0
M  V30 4887 H 473.49 0.909807 1.33918 0
M  V30 4888 H 475.482 -0.673715 3.99053 0
M  V30 4889 H 474.052 -0.972205 2.97098 0
M  V30 4890 H 473.272 1.40985 3.68126 0
M  V30 4891 H 474.56 1.3755 4.89854 0
M  V30 4892 H 473.958 -1.77011 5.37293 0
M  V30 4893 H 472.515 -1.67093 6.30018 0
M  V30 4894 N 475.948 -1.35272 0.808662 0
M  V30 4895 C 476.911 -2.28082 0.226093 0
M  V30 4896 C 477.911 -1.49673 -0.587762 0
M  V30 4897 O 479.101 -1.69404 -0.405943 0
M  V30 4898 C 476.233 -3.33955 -0.684596 0
M  V30 4899 H 477.426 -2.81116 1.04469 0
M  V30 4900 H 474.979 -1.45162 0.579466 0
M  V30 4901 H 475.714 -2.86111 -1.5268 0
M  V30 4902 H 475.499 -3.91965 -0.102699 0
M  V30 4903 H 476.989 -4.03219 -1.08646 0
M  V30 4904 N 477.426 -0.562348 -1.47226 0
M  V30 4905 C 478.336 0.185466 -2.33866 0
M  V30 4906 C 479.352 0.906713 -1.48508 0
M  V30 4907 O 480.528 0.874458 -1.81425 0
M  V30 4908 C 477.593 1.19904 -3.25306 0
M  V30 4909 C 476.654 0.484669 -4.26555 0
M  V30 4910 C 475.887 1.44996 -5.13626 0
M  V30 4911 O 476.11 2.68515 -5.03245 0
M  V30 4912 O 475.044 0.971642 -5.94006 0
M  V30 4913 H 478.87 -0.525361 -2.99121 0
M  V30 4914 H 476.455 -0.322916 -1.45868 0
M  V30 4915 H 478.337 1.78399 -3.81774 0
M  V30 4916 H 477.012 1.8917 -2.62672 0
M  V30 4917 H 475.919 -0.141605 -3.73832 0
M  V30 4918 H 477.252 -0.166634 -4.91918 0
M  V30 4919 N 478.904 1.54736 -0.299062 0
M  V30 4920 C 479.834 2.26409 0.571085 0
M  V30 4921 C 480.815 1.2629 1.13951 0
M  V30 4922 O 482 1.55059 1.16921 0
M  V30 4923 C 479.13 3.00338 1.74396 0
M  V30 4924 C 478.084 4.07588 1.30599 0
M  V30 4925 C 477.41 4.69222 2.56387 0
M  V30 4926 C 478.71 5.20455 0.438645 0
M  V30 4927 H 480.404 2.99388 -0.0266991 0
M  V30 4928 H 477.95 1.43993 -0.0142812 0
M  V30 4929 H 479.903 3.49198 2.35878 0
M  V30 4930 H 478.627 2.24934 2.36796 0
M  V30 4931 H 477.286 3.59575 0.71424 0
M  V30 4932 H 476.934 3.9046 3.17097 0
M  V30 4933 H 476.634 5.41653 2.27784 0
M  V30 4934 H 478.158 5.20844 3.18675 0
M  V30 4935 H 479.572 5.65221 0.959085 0
M  V30 4936 H 477.969 5.99594 0.246466 0
M  V30 4937 H 479.039 4.8192 -0.536738 0
M  V30 4938 N 480.382 0.0267497 1.57577 0
M  V30 4939 C 481.61 -0.662661 1.96001 0
M  V30 4940 C 482.025 -1.65799 0.903117 0
M  V30 4941 O 481.382 -1.82135 -0.115317 0
M  V30 4942 C 481.433 -1.37112 3.34488 0
M  V30 4943 O 481.154 -0.415683 4.36123 0
M  V30 4944 C 482.655 -2.15257 3.8753 0
M  V30 4945 H 479.875 -0.18287 0.6456 0
M  V30 4946 H 482.419 0.0858116 2.0432 0
M  V30 4947 H 480.574 -2.07101 3.27395 0
M  V30 4948 H 480.988 -0.918496 5.16395 0
M  V30 4949 H 482.462 -2.60285 4.86781 0
M  V30 4950 H 482.939 -2.99063 3.21649 0
M  V30 4951 H 483.545 -1.50231 3.97883 0
M  V30 4952 N 481.861 -1.55662 -0.24637 0
M  V30 4953 C 483.107 -1.77782 -0.975779 0
M  V30 4954 C 483.44 -0.592103 -1.84953 0
M  V30 4955 O 482.715 0.409588 -1.90138 0
M  V30 4956 C 482.998 -3.09788 -1.83584 0
M  V30 4957 C 482.851 -4.38764 -0.990241 0
M  V30 4958 C 484.17 -3.38029 -2.81823 0
M  V30 4959 H 481.289 -0.646789 -0.353317 0
M  V30 4960 H 483.931 -1.88398 -0.246248 0
M  V30 4961 H 482.081 -3.00869 -2.45784 0
M  V30 4962 H 483.753 -4.59675 -0.386897 0
M  V30 4963 H 481.996 -4.32798 -0.294626 0
M  V30 4964 H 482.667 -5.27514 -1.62584 0
M  V30 4965 H 485.143 -3.46915 -2.2976 0
M  V30 4966 H 484.019 -4.3161 -3.39122 0
M  V30 4967 H 484.28 -2.58968 -3.58313 0
M  V30 4968 N 483.339 0.512053 -1.4905 0
M  V30 4969 C 484.271 1.63121 -1.6101 0
M  V30 4970 C 485.284 1.55145 -0.493352 0
M  V30 4971 O 486.473 1.61278 -0.764955 0
M  V30 4972 C 483.573 3.01863 -1.54052 0
M  V30 4973 C 482.746 3.35138 -2.81072 0
M  V30 4974 C 481.805 4.5324 -2.67319 0
M  V30 4975 O 480.831 4.55571 -3.41238 0
M  V30 4976 N 482.033 5.52495 -1.78127 0
M  V30 4977 H 484.798 1.53292 -2.5753 0
M  V30 4978 H 482.359 0.699706 -1.45999 0
M  V30 4979 H 484.351 3.78774 -1.42521 0
M  V30 4980 H 482.921 3.05675 -0.654345 0
M  V30 4981 H 482.141 2.4723 -3.07036 0
M  V30 4982 H 483.429 3.54162 -3.65304 0
M  V30 4983 H 482.827 5.53403 -1.17308 0
M  V30 4984 H 481.384 6.28553 -1.72525 0
M  V30 4985 N 484.817 1.37938 0.762283 0
M  V30 4986 C 486.063 1.33866 1.52341 0
M  V30 4987 C 486.396 -0.0738961 1.94059 0
M  V30 4988 O 485.671 -1.03326 1.64785 0
M  V30 4989 C 485.954 2.28644 2.78197 0
M  V30 4990 C 485.807 3.78722 2.42672 0
M  V30 4991 C 487.126 2.21702 3.80179 0
M  V30 4992 H 484.245 0.487593 0.55265 0
M  V30 4993 H 486.887 1.68717 0.873767 0
M  V30 4994 H 485.037 1.99055 3.33631 0
M  V30 4995 H 486.709 4.18948 1.93081 0
M  V30 4996 H 484.952 3.96827 1.75244 0
M  V30 4997 H 485.623 4.40486 3.3268 0
M  V30 4998 H 488.099 2.47805 3.34263 0
M  V30 4999 H 486.975 2.90143 4.65949 0
M  V30 5000 H 487.236 1.21301 4.25133 0
M  V30 5001 N 486.295 -0.989507 1.22664 0
M  V30 5002 C 487.242 -2.08024 0.999733 0
M  V30 5003 C 488.212 -1.65909 -0.0797047 0
M  V30 5004 O 489.397 -1.90669 0.0705715 0
M  V30 5005 C 486.537 -3.40067 0.587234 0
M  V30 5006 C 485.65 -3.95505 1.73781 0
M  V30 5007 C 484.785 -5.15722 1.27297 0
M  V30 5008 C 483.824 -5.63305 2.39488 0
M  V30 5009 N 482.961 -6.74758 1.94026 0
M  V30 5010 H 487.801 -2.26768 1.9334 0
M  V30 5011 H 485.338 -1.11171 0.963297 0
M  V30 5012 H 487.296 -4.15899 0.329227 0
M  V30 5013 H 485.926 -3.21314 -0.309426 0
M  V30 5014 H 484.978 -3.16513 2.11006 0
M  V30 5015 H 486.29 -4.26797 2.58158 0
M  V30 5016 H 485.444 -5.98854 0.972546 0
M  V30 5017 H 484.183 -4.86061 0.399445 0
M  V30 5018 H 483.188 -4.78759 2.70315 0
M  V30 5019 H 484.413 -5.94988 3.27362 0
M  V30 5020 H 482.359 -6.46874 1.09041 0
M  V30 5021 H 482.276 -7.05386 2.71968 0
M  V30 5022 H 483.544 -7.61387 1.67062 0
M  V30 5023 N 487.773 -1.03688 -1.18687 0
M  V30 5024 C 488.683 -0.634908 -2.25845 0
M  V30 5025 C 489.699 0.337065 -1.70704 0
M  V30 5026 O 490.875 0.192943 -2.00474 0
M  V30 5027 C 487.94 -0.000180054 -3.467 0
M  V30 5028 C 487.001 -1.02067 -4.1699 0
M  V30 5029 C 486.234 -0.41614 -5.32075 0
M  V30 5030 O 486.457 0.778712 -5.65059 0
M  V30 5031 O 485.391 -1.14296 -5.90948 0
M  V30 5032 H 489.217 -1.52757 -2.62486 0
M  V30 5033 H 486.802 -0.807533 -1.25695 0
M  V30 5034 H 488.684 0.353342 -4.19916 0
M  V30 5035 H 487.359 0.866367 -3.11891 0
M  V30 5036 H 486.266 -1.42592 -3.45859 0
M  V30 5037 H 487.599 -1.85786 -4.5579 0
M  V30 5038 N 489.251 1.34841 -0.815825 0
M  V30 5039 C 490.499 1.98107 -0.399744 0
M  V30 5040 C 490.82 1.65019 1.03894 0
M  V30 5041 O 490.09 0.937311 1.72021 0
M  V30 5042 H 488.67 0.732827 -0.144823 0
M  V30 5043 H 491.332 1.64599 -1.0437 0
M  V30 5044 H 490.428 3.07856 -0.512965 0
M  V30 5045 N 490.729 0.570148 1.46925 0
M  V30 5046 C 492.14 0.1402 1.86173 0
M  V30 5047 C 492.491 -1.29347 1.47526 0
M  V30 5048 O 491.616 -1.97508 0.884292 0
M  V30 5049 C 492.211 0.247661 3.37894 0
M  V30 5050 C 490.77 -0.127332 3.76185 0
M  V30 5051 C 489.917 0.589349 2.70965 0
M  V30 5052 H 492.868 0.779117 1.38259 0
M  V30 5053 H 492.889 -0.530341 3.76786 0
M  V30 5054 H 492.401 1.29121 3.65991 0
M  V30 5055 H 490.502 -1.17149 3.53704 0
M  V30 5056 H 490.615 0.240238 4.78497 0
M  V30 5057 H 488.979 0.0309824 2.54681 0
M  V30 5058 H 489.762 1.6343 3.01903 0
M  V30 5059 N 492.207 -1.54576 0.307264 0
M  V30 5060 C 493.618 -1.8579 -0.184121 0
M  V30 5061 C 493.969 -1.22914 -1.52927 0
M  V30 5062 O 493.094 -0.529126 -2.09831 0
M  V30 5063 C 493.689 -3.37081 -0.340862 0
M  V30 5064 C 492.248 -3.68304 -0.776465 0
M  V30 5065 C 491.395 -2.77076 0.111503 0
M  V30 5066 H 494.346 -1.49656 0.528078 0
M  V30 5067 H 494.367 -3.61922 -1.17443 0
M  V30 5068 H 493.879 -3.82815 0.638309 0
M  V30 5069 H 491.98 -3.28092 -1.76596 0
M  V30 5070 H 492.093 -4.75434 -0.591512 0
M  V30 5071 H 490.457 -2.51374 -0.410256 0
M  V30 5072 H 491.24 -3.25632 1.08714 0
M  V30 5073 N 493.685 -0.035106 -1.57561 0
M  V30 5074 C 494.91 0.655802 -1.96759 0
M  V30 5075 C 495.335 1.64523 -0.911809 0
M  V30 5076 O 494.693 1.80857 0.126673 0
M  V30 5077 C 494.741 1.33326 -3.35047 0
M  V30 5078 O 493.845 2.44866 -3.31835 0
M  V30 5079 H 493.186 0.171807 -0.641388 0
M  V30 5080 H 495.716 -0.0987369 -2.04362 0
M  V30 5081 H 495.726 1.68867 -3.71413 0
M  V30 5082 H 494.401 0.608033 -4.11431 0
M  V30 5083 H 492.978 2.11392 -3.07193 0
M  V30 5084 N 495.163 1.55791 0.238111 0
M  V30 5085 C 496.073 1.94196 1.31625 0
M  V30 5086 C 497.089 0.843545 1.52185 0
M  V30 5087 O 498.265 1.1457 1.65637 0
M  V30 5088 C 495.33 2.2365 2.64918 0
M  V30 5089 C 494.391 3.46971 2.52804 0
M  V30 5090 C 493.624 3.7501 3.79741 0
M  V30 5091 O 493.847 3.04982 4.82019 0
M  V30 5092 O 492.781 4.68525 3.77846 0
M  V30 5093 H 496.607 2.86044 1.02043 0
M  V30 5094 H 494.192 1.42786 0.439603 0
M  V30 5095 H 496.074 2.43863 3.4367 0
M  V30 5096 H 494.749 1.34979 2.94215 0
M  V30 5097 H 493.656 3.32055 1.72309 0
M  V30 5098 H 494.989 4.35971 2.28451 0
M  V30 5099 N 496.642 -0.504142 1.49319 0
M  V30 5100 C 497.592 -1.60284 1.62151 0
M  V30 5101 C 498.576 -1.53657 0.477315 0
M  V30 5102 O 499.768 -1.6124 0.730108 0
M  V30 5103 C 496.897 -2.98909 1.68844 0
M  V30 5104 C 495.983 -3.10544 2.8883 0
M  V30 5105 N 496.374 -2.92078 4.12946 0
M  V30 5106 C 494.672 -3.4164 2.86702 0
M  V30 5107 C 495.373 -3.07812 4.93585 0
M  V30 5108 N 494.349 -3.36549 4.26891 0
M  V30 5109 H 498.151 -1.44656 2.55835 0
M  V30 5110 H 495.665 -0.710198 1.46048 0
M  V30 5111 H 497.662 -3.77865 1.76134 0
M  V30 5112 H 496.322 -3.15609 0.762943 0
M  V30 5113 H 497.333 -2.68316 4.42975 0
M  V30 5114 H 494.01 -3.64537 2.03517 0
M  V30 5115 H 495.4 -2.98054 6.02174 0
M  V30 5116 N 498.12 -1.38341 -0.754957 0
M  V30 5117 C 499.345 -1.37882 -1.5493 0
M  V30 5118 C 499.77 0.0296385 -1.88077 0
M  V30 5119 O 499.128 1.01133 -1.50472 0
M  V30 5120 C 499.176 -2.23996 -2.82592 0
M  V30 5121 O 498.28 -1.65612 -3.77686 0
M  V30 5122 H 497.621 -0.470384 -0.468652 0
M  V30 5123 H 500.151 -1.82084 -0.933082 0
M  V30 5124 H 500.161 -2.37806 -3.3153 0
M  V30 5125 H 498.836 -3.26365 -2.57796 0
M  V30 5126 H 497.413 -1.60936 -3.36384 0
M  V30 5127 N 499.598 0.982988 -1.23187 0
M  V30 5128 C 500.846 1.72052 -1.06031 0
M  V30 5129 C 501.167 1.90769 0.404019 0
M  V30 5130 O 500.437 1.47446 1.28982 0
M  V30 5131 H 499.017 0.637499 -0.389363 0
M  V30 5132 H 501.679 1.18338 -1.54862 0
M  V30 5133 H 500.775 2.7111 -1.54615 0
M  V30 5134 N 501.076 1.04316 1.18135 0
M  V30 5135 C 502.325 0.74319 1.87509 0
M  V30 5136 C 502.638 -0.732136 1.81381 0
M  V30 5137 O 503.844 -1.14572 2.46141 0
M  V30 5138 C 502.3 1.27913 3.36402 0
M  V30 5139 C 501.908 2.78326 3.51053 0
M  V30 5140 C 503.652 1.0558 4.11161 0
M  V30 5141 C 501.559 3.25266 4.93919 0
M  V30 5142 H 500.489 0.274313 0.702331 0
M  V30 5143 H 503.14 1.25931 1.33467 0
M  V30 5144 H 501.522 0.690853 3.89927 0
M  V30 5145 H 502.696 3.42933 3.07788 0
M  V30 5146 H 501.011 2.991 2.89704 0
M  V30 5147 H 503.608 1.38161 5.16542 0
M  V30 5148 H 503.951 -0.00684729 4.16299 0
M  V30 5149 H 504.484 1.60882 3.63816 0
M  V30 5150 H 501.223 4.30922 4.9395 0
M  V30 5151 H 500.743 2.65396 5.3789 0
M  V30 5152 H 502.422 3.19433 5.62647 0
M  V30 5153 N 502.554 -1.34406 0.822964 0
M  V30 5154 C 503.779 -2.0304 0.423034 0
M  V30 5155 C 504.204 -1.61568 -0.963196 0
M  V30 5156 O 503.562 -0.800339 -1.62678 0
M  V30 5157 C 503.61 -3.56636 0.53321 0
M  V30 5158 O 502.714 -4.09971 -0.446939 0
M  V30 5159 H 502.055 -0.64075 0.174171 0
M  V30 5160 H 504.585 -1.71653 1.11339 0
M  V30 5161 H 504.595 -4.05945 0.408991 0
M  V30 5162 H 503.27 -3.86168 1.54425 0
M  V30 5163 H 501.847 -3.71835 -0.281601 0
M  V30 5164 N 504.032 -0.577932 -1.46621 0
M  V30 5165 C 505.448 -0.239242 -1.57797 0
M  V30 5166 C 505.648 1.25843 -1.57371 0
M  V30 5167 O 504.704 2.03988 -1.48813 0
M  V30 5168 C 506.017 -0.884227 -2.87405 0
M  V30 5169 C 507.565 -0.857373 -3.01028 0
M  V30 5170 C 508.04 -1.48181 -4.33366 0
M  V30 5171 N 509.531 -1.44593 -4.40053 0
M  V30 5172 C 510.266 -1.89852 -5.41058 0
M  V30 5173 N 509.762 -2.43062 -6.48762 0
M  V30 5174 N 511.555 -1.80797 -5.3223 0
M  V30 5175 H 503.706 -1.55073 -1.45142 0
M  V30 5176 H 505.969 -0.647903 -0.692044 0
M  V30 5177 H 505.675 -1.93759 -2.93514 0
M  V30 5178 H 505.549 -0.389585 -3.75183 0
M  V30 5179 H 507.936 0.187357 -2.94505 0
M  V30 5180 H 508.017 -1.38999 -2.14739 0
M  V30 5181 H 507.661 -2.52572 -4.40647 0
M  V30 5182 H 507.591 -0.924464 -5.18422 0
M  V30 5183 H 510.082 -1.05694 -3.62819 0
M  V30 5184 H 510.395 -2.75466 -7.22038 0
M  V30 5185 H 508.74 -2.47085 -6.49595 0
M  V30 5186 H 511.931 -1.38989 -4.46989 0
M  V30 5187 H 512.104 -2.16385 -6.10804 0
M  V30 5188 N 505.51 1.54411 -0.315457 0
M  V30 5189 C 506.458 2.25514 0.569771 0
M  V30 5190 C 507.452 1.2663 1.12522 0
M  V30 5191 O 508.658 1.44434 1.07419 0
M  V30 5192 H 505.033 0.724257 0.202376 0
M  V30 5193 H 507.004 2.98354 -0.0522895 0
M  V30 5194 C 505.753 3.02004 1.72305 0
M  V30 5195 H 505.076 3.77906 1.30488 0
M  V30 5196 H 506.516 3.55014 2.31821 0
M  V30 5197 C 504.975 2.09822 2.63583 0
M  V30 5198 O 505.505 1.67574 3.65078 0
M  V30 5199 N 503.711 1.75478 2.31637 0
M  V30 5200 H 503.258 2.10032 1.49145 0
M  V30 5201 H 503.216 1.14079 2.92973 0
M  V30 5202 N 506.988 0.0434614 1.5754 0
M  V30 5203 C 507.951 -0.918696 2.09982 0
M  V30 5204 C 508.951 -1.24488 1.01781 0
M  V30 5205 O 510.141 -1.18284 1.27885 0
M  V30 5206 C 507.273 -2.23093 2.57764 0
M  V30 5207 H 508.466 -0.464229 2.96285 0
M  V30 5208 H 506.019 -0.204818 1.54952 0
M  V30 5209 H 506.754 -2.73137 1.74832 0
M  V30 5210 H 506.539 -2.00724 3.36827 0
M  V30 5211 H 508.029 -2.92028 2.98512 0
M  V30 5212 N 508.466 -1.55915 -0.229846 0
M  V30 5213 C 509.715 -1.77742 -0.953455 0
M  V30 5214 C 510.028 -0.610524 -1.85828 0
M  V30 5215 O 511.234 -0.712219 -2.61992 0
M  V30 5216 C 509.69 -3.14738 -1.74551 0
M  V30 5217 C 509.298 -4.39126 -0.887242 0
M  V30 5218 C 511.042 -3.45895 -2.46084 0
M  V30 5219 C 508.949 -5.67149 -1.67617 0
M  V30 5220 H 507.879 -0.662648 -0.359741 0
M  V30 5221 H 510.53 -1.82322 -0.207576 0
M  V30 5222 H 508.912 -3.04311 -2.53399 0
M  V30 5223 H 510.086 -4.60588 -0.139892 0
M  V30 5224 H 508.401 -4.15427 -0.284443 0
M  V30 5225 H 510.998 -4.38767 -3.05594 0
M  V30 5226 H 511.341 -2.68007 -3.18556 0
M  V30 5227 H 511.874 -3.57614 -1.74233 0
M  V30 5228 H 508.613 -6.47906 -0.994881 0
M  V30 5229 H 508.133 -5.49763 -2.39836 0
M  V30 5230 H 509.812 -6.07025 -2.23898 0
M  V30 5231 N 509.944 0.496216 -1.49584 0
M  V30 5232 C 511.193 1.24668 -1.58558 0
M  V30 5233 C 511.506 1.9359 -0.279703 0
M  V30 5234 O 512.712 2.70365 -0.248048 0
M  V30 5235 C 511.168 2.26388 -2.79779 0
M  V30 5236 C 510.776 1.63384 -4.17145 0
M  V30 5237 C 512.52 3.02233 -2.98086 0
M  V30 5238 C 510.427 2.63243 -5.29582 0
M  V30 5239 H 509.357 0.468995 -0.590389 0
M  V30 5240 H 512.008 0.519985 -1.75978 0
M  V30 5241 H 510.39 3.02241 -2.55863 0
M  V30 5242 H 511.564 0.93491 -4.51216 0
M  V30 5243 H 509.879 0.999121 -4.04236 0
M  V30 5244 H 512.476 3.76919 -3.79257 0
M  V30 5245 H 512.819 3.60132 -2.08831 0
M  V30 5246 H 513.352 2.33495 -3.22063 0
M  V30 5247 H 510.091 2.10119 -6.20911 0
M  V30 5248 H 509.611 3.31363 -4.99959 0
M  V30 5249 H 511.29 3.25575 -5.59115 0
M  V30 5250 N 511.423 1.38739 0.74761 0
M  V30 5251 C 512.67 1.35274 1.50689 0
M  V30 5252 C 512.998 -0.0553359 1.94421 0
M  V30 5253 O 512.253 -1.03365 1.66175 0
M  V30 5254 C 512.552 2.25992 2.7688 0
M  V30 5255 C 512.218 3.73854 2.5208 0
M  V30 5256 C 510.88 4.14145 2.45025 0
M  V30 5257 C 513.232 4.67427 2.30568 0
M  V30 5258 C 510.56 5.4609 2.14483 0
M  V30 5259 C 512.912 5.99635 2.01545 0
M  V30 5260 C 511.576 6.39004 1.92951 0
M  V30 5261 H 510.846 0.495003 0.55141 0
M  V30 5262 H 513.493 1.71145 0.859158 0
M  V30 5263 H 511.798 1.83196 3.46333 0
M  V30 5264 H 513.495 2.20611 3.34861 0
M  V30 5265 H 510.085 3.41913 2.58444 0
M  V30 5266 H 514.269 4.3714 2.34994 0
M  V30 5267 H 509.525 5.75528 2.06342 0
M  V30 5268 H 513.699 6.71678 1.83906 0
M  V30 5269 H 511.326 7.41165 1.6905 0
M  V30 5270 N 512.901 -0.976442 1.23707 0
M  V30 5271 C 513.831 -2.08749 1.04624 0
M  V30 5272 C 514.812 -1.70057 -0.0380956 0
M  V30 5273 O 515.997 -1.93782 0.127308 0
M  V30 5274 C 513.127 -3.41335 0.640902 0
M  V30 5275 C 512.081 -3.93947 1.67302 0
M  V30 5276 C 511.407 -5.22774 1.12301 0
M  V30 5277 C 512.707 -4.22769 3.06697 0
M  V30 5278 H 514.401 -2.24972 1.97555 0
M  V30 5279 H 511.947 -1.08108 0.951247 0
M  V30 5280 H 513.9 -4.18489 0.494434 0
M  V30 5281 H 512.624 -3.24988 -0.324099 0
M  V30 5282 H 511.283 -3.18941 1.80755 0
M  V30 5283 H 510.931 -5.0278 0.148877 0
M  V30 5284 H 510.631 -5.58942 1.81267 0
M  V30 5285 H 512.155 -6.02546 0.988479 0
M  V30 5286 H 513.569 -4.90659 2.96524 0
M  V30 5287 H 511.966 -4.70147 3.72937 0
M  V30 5288 H 513.036 -3.29885 3.55392 0
M  V30 5289 N 514.379 -1.04941 -1.1758 0
M  V30 5290 C 515.625 -0.759112 -1.88057 0
M  V30 5291 C 515.958 0.711918 -1.8068 0
M  V30 5292 O 515.233 1.52035 -1.21308 0
M  V30 5293 C 515.516 -1.237 -3.38187 0
M  V30 5294 C 515.369 -2.77078 -3.54327 0
M  V30 5295 C 516.688 -0.834014 -4.32125 0
M  V30 5296 H 513.807 -0.277237 -0.682868 0
M  V30 5297 H 516.449 -1.30296 -1.38286 0
M  V30 5298 H 514.599 -0.774337 -3.80705 0
M  V30 5299 H 516.271 -3.31449 -3.20842 0
M  V30 5300 H 514.514 -3.16477 -2.96689 0
M  V30 5301 H 515.185 -3.05577 -4.59703 0
M  V30 5302 H 517.661 -1.23228 -3.97434 0
M  V30 5303 H 516.537 -1.19603 -5.35711 0
M  V30 5304 H 516.798 0.262195 -4.41322 0
M  V30 5305 N 515.857 1.33968 -0.830081 0
M  V30 5306 C 516.787 2.31911 -0.271911 0
M  V30 5307 C 517.768 1.58571 0.61556 0
M  V30 5308 O 518.953 1.86514 0.540946 0
M  V30 5309 C 516.083 3.42737 0.561146 0
M  V30 5310 C 515.037 4.27383 -0.229789 0
M  V30 5311 C 514.363 5.29742 0.726463 0
M  V30 5312 C 515.663 5.02 -1.44197 0
M  V30 5313 H 517.357 2.78844 -1.09025 0
M  V30 5314 H 514.903 1.34061 -0.52571 0
M  V30 5315 H 516.856 4.10276 0.961867 0
M  V30 5316 H 515.58 2.94471 1.41261 0
M  V30 5317 H 514.239 3.61456 -0.611964 0
M  V30 5318 H 513.887 4.77736 1.57408 0
M  V30 5319 H 513.587 5.87255 0.20142 0
M  V30 5320 H 515.111 6.00149 1.12489 0
M  V30 5321 H 516.525 5.62355 -1.11488 0
M  V30 5322 H 514.922 5.69122 -1.90317 0
M  V30 5323 H 515.992 4.31281 -2.2164 0
M  V30 5324 N 517.335 0.585699 1.46312 0
M  V30 5325 C 518.583 0.072278 2.01971 0
M  V30 5326 C 518.904 -1.29345 1.45928 0
M  V30 5327 O 518.174 -1.84973 0.645109 0
M  V30 5328 H 516.754 0.023729 0.746623 0
M  V30 5329 H 519.416 0.762155 1.7938 0
M  V30 5330 H 518.512 0.00552767 3.121 0
M  V30 5331 N 518.813 -1.54241 0.323641 0
M  V30 5332 C 520.062 -1.9975 -0.279806 0
M  V30 5333 C 520.375 -1.2156 -1.5324 0
M  V30 5334 O 521.581 -1.57447 -2.21185 0
M  V30 5335 C 520.037 -3.55686 -0.549115 0
M  V30 5336 C 519.645 -4.4271 0.686432 0
M  V30 5337 C 521.389 -4.09663 -1.11251 0
M  V30 5338 C 519.296 -5.90119 0.389022 0
M  V30 5339 H 518.226 -0.746177 -0.10833 0
M  V30 5340 H 520.877 -1.78248 0.435877 0
M  V30 5341 H 519.259 -3.73176 -1.32499 0
M  V30 5342 H 520.433 -4.36996 1.46188 0
M  V30 5343 H 518.748 -3.99623 1.17005 0
M  V30 5344 H 521.345 -5.17386 -1.34965 0
M  V30 5345 H 521.688 -3.61651 -2.06191 0
M  V30 5346 H 522.221 -3.95806 -0.39782 0
M  V30 5347 H 518.96 -6.42326 1.30759 0
M  V30 5348 H 518.48 -5.98785 -0.348722 0
M  V30 5349 H 520.159 -6.47 -0.0011164 0
M  V30 5350 N 520.291 -0.0518155 -1.57515 0
M  V30 5351 C 521.221 0.920283 -2.146 0
M  V30 5352 C 522.202 1.32406 -1.06783 0
M  V30 5353 O 523.387 1.39866 -1.34726 0
M  V30 5354 C 520.517 2.1949 -2.6915 0
M  V30 5355 C 519.471 1.93116 -3.81956 0
M  V30 5356 C 518.797 3.27037 -4.23026 0
M  V30 5357 C 520.097 1.25225 -5.07066 0
M  V30 5358 H 521.791 0.444801 -2.96077 0
M  V30 5359 H 519.337 0.212508 -1.42423 0
M  V30 5360 H 521.29 2.87894 -3.07725 0
M  V30 5361 H 520.014 2.69244 -1.84865 0
M  V30 5362 H 518.673 1.27123 -3.43854 0
M  V30 5363 H 518.321 3.74595 -3.3569 0
M  V30 5364 H 518.021 3.10189 -4.99056 0
M  V30 5365 H 519.545 3.96673 -4.64202 0
M  V30 5366 H 520.959 1.83666 -5.43083 0
M  V30 5367 H 519.356 1.18702 -5.88243 0
M  V30 5368 H 520.426 0.228382 -4.84362 0
M  V30 5369 N 521.769 1.56035 0.221574 0
M  V30 5370 C 523.015 1.79312 0.947372 0
M  V30 5371 C 523.348 0.621453 1.83988 0
M  V30 5372 O 522.623 -0.379287 1.90766 0
M  V30 5373 C 522.906 3.1267 1.78633 0
M  V30 5374 C 522.759 4.40284 0.920312 0
M  V30 5375 C 524.078 3.4247 2.7641 0
M  V30 5376 H 521.197 0.652328 0.342982 0
M  V30 5377 H 523.839 1.88765 0.216244 0
M  V30 5378 H 521.989 3.04741 2.40967 0
M  V30 5379 H 523.661 4.60232 0.313718 0
M  V30 5380 H 521.904 4.33212 0.225734 0
M  V30 5381 H 522.575 5.30033 1.54171 0
M  V30 5382 H 525.051 3.50526 2.24211 0
M  V30 5383 H 523.927 4.3695 3.32213 0
M  V30 5384 H 524.188 2.64635 3.54148 0
M  V30 5385 N 523.247 -0.488276 1.49845 0
M  V30 5386 C 524.494 -1.24157 1.59973 0
M  V30 5387 C 524.822 -1.92293 0.292182 0
M  V30 5388 O 524.077 -1.81942 -0.720813 0
M  V30 5389 C 524.376 -2.32152 2.71735 0
M  V30 5390 C 524.042 -1.81387 4.12807 0
M  V30 5391 C 522.704 -1.67262 4.51195 0
M  V30 5392 C 525.056 -1.43537 5.01045 0
M  V30 5393 C 522.384 -1.13685 5.7558 0
M  V30 5394 C 524.736 -0.914081 6.25961 0
M  V30 5395 C 523.4 -0.759327 6.63167 0
M  V30 5396 H 522.67 -0.454322 0.585383 0
M  V30 5397 H 525.317 -0.540261 1.83721 0
M  V30 5398 H 523.622 -3.08122 2.42008 0
M  V30 5399 H 525.319 -2.90164 2.76778 0
M  V30 5400 H 521.909 -1.93344 3.82513 0
M  V30 5401 H 526.093 -1.53292 4.72033 0
M  V30 5402 H 521.349 -1.00426 6.03096 0
M  V30 5403 H 525.523 -0.612066 6.93705 0
M  V30 5404 H 523.15 -0.342002 7.5943 0
M  V30 5405 N 524.725 -1.39134 -0.740242 0
M  V30 5406 C 525.655 -1.40165 -1.86751 0
M  V30 5407 C 526.636 -0.265708 -1.68012 0
M  V30 5408 O 527.821 -0.47076 -1.88408 0
M  V30 5409 C 524.951 -1.2392 -3.2444 0
M  V30 5410 C 523.905 -2.34858 -3.57807 0
M  V30 5411 C 523.231 -2.03707 -4.94376 0
M  V30 5412 C 524.531 -3.77159 -3.61315 0
M  V30 5413 H 526.225 -2.345 -1.86145 0
M  V30 5414 H 523.771 -1.12875 -0.89416 0
M  V30 5415 H 525.724 -1.23263 -4.02969 0
M  V30 5416 H 524.448 -0.26051 -3.25559 0
M  V30 5417 H 523.107 -2.34723 -2.81604 0
M  V30 5418 H 522.755 -1.04289 -4.9207 0
M  V30 5419 H 522.455 -2.78016 -5.17669 0
M  V30 5420 H 523.979 -2.04691 -5.75268 0
M  V30 5421 H 525.393 -3.79252 -4.29931 0
M  V30 5422 H 523.79 -4.50784 -3.96124 0
M  V30 5423 H 524.86 -4.08513 -2.61238 0
M  V30 5424 N 526.204 0.969867 -1.24223 0
M  V30 5425 C 527.453 1.70687 -1.07466 0
M  V30 5426 C 527.766 1.91736 0.386861 0
M  V30 5427 O 528.972 2.62986 0.674581 0
M  V30 5428 C 527.428 3.07217 -1.87472 0
M  V30 5429 C 527.036 2.94018 -3.3802 0
M  V30 5430 C 528.78 3.84804 -1.79237 0
M  V30 5431 C 526.687 4.25844 -4.10379 0
M  V30 5432 H 525.617 0.640067 -0.398536 0
M  V30 5433 H 528.268 1.08092 -1.48285 0
M  V30 5434 H 526.65 3.70628 -1.39466 0
M  V30 5435 H 527.824 2.39632 -3.9359 0
M  V30 5436 H 526.139 2.29898 -3.47183 0
M  V30 5437 H 528.736 4.82417 -2.30603 0
M  V30 5438 H 529.079 4.09356 -0.757197 0
M  V30 5439 H 529.612 3.28115 -2.24912 0
M  V30 5440 H 526.351 4.06486 -5.14246 0
M  V30 5441 H 525.871 4.80054 -3.59594 0
M  V30 5442 H 527.55 4.94475 -4.17257 0
M  V30 5443 N 527.682 1.05563 1.17022 0
M  V30 5444 C 528.612 0.681026 2.23348 0
M  V30 5445 C 529.593 -0.322983 1.67005 0
M  V30 5446 O 530.778 -0.199746 1.9317 0
M  V30 5447 C 527.908 0.0589053 3.4725 0
M  V30 5448 C 526.862 0.988082 4.16438 0
M  V30 5449 C 526.188 0.229646 5.34207 0
M  V30 5450 C 527.488 2.31388 4.68249 0
M  V30 5451 H 529.182 1.56993 2.54938 0
M  V30 5452 H 526.728 0.756302 1.2254 0
M  V30 5453 H 528.681 -0.214982 4.20851 0
M  V30 5454 H 527.405 -0.864968 3.14938 0
M  V30 5455 H 526.064 1.24659 3.44754 0
M  V30 5456 H 525.712 -0.697111 4.98146 0
M  V30 5457 H 525.412 0.848815 5.81437 0
M  V30 5458 H 526.936 -0.0368694 6.10589 0
M  V30 5459 H 528.35 2.09964 5.33468 0
M  V30 5460 H 526.747 2.88736 5.26072 0
M  V30 5461 H 527.817 2.94982 3.84855 0
M  V30 5462 N 529.16 -1.33526 0.837174 0
M  V30 5463 C 530.09 -2.31764 0.284206 0
M  V30 5464 C 531.071 -1.58896 -0.607142 0
M  V30 5465 O 532.256 -1.86798 -0.531047 0
M  V30 5466 C 529.386 -3.43029 -0.542962 0
M  V30 5467 C 528.34 -4.27255 0.252451 0
M  V30 5468 C 527.666 -5.3012 -0.69836 0
M  V30 5469 C 528.966 -5.01229 1.46858 0
M  V30 5470 H 530.66 -2.78262 1.10502 0
M  V30 5471 H 528.206 -1.3378 0.532812 0
M  V30 5472 H 530.159 -4.1078 -0.940096 0
M  V30 5473 H 528.883 -2.95216 -1.39697 0
M  V30 5474 H 527.542 -3.61127 0.631124 0
M  V30 5475 H 527.19 -4.78564 -1.54872 0
M  V30 5476 H 526.89 -5.87353 -0.170274 0
M  V30 5477 H 528.414 -6.00737 -1.09305 0
M  V30 5478 H 529.828 -5.61756 1.14469 0
M  V30 5479 H 528.225 -5.68104 1.93333 0
M  V30 5480 H 529.295 -4.301 2.23924 0
M  V30 5481 N 530.638 -0.59345 -1.46 0
M  V30 5482 C 531.886 -0.082988 -2.0193 0
M  V30 5483 C 532.207 1.28569 -1.46612 0
M  V30 5484 O 531.477 1.84629 -0.654909 0
M  V30 5485 H 530.057 -0.0276882 -0.746487 0
M  V30 5486 H 532.719 -0.771657 -1.78973 0
M  V30 5487 H 531.815 -0.022079 -3.12092 0
M  V30 5488 N 532.116 1.54067 -0.331816 0
M  V30 5489 C 533.365 1.99895 0.269209 0
M  V30 5490 C 533.678 1.22371 1.52593 0
M  V30 5491 O 534.884 1.58618 2.20347 0
M  V30 5492 C 533.34 3.55972 0.530244 0
M  V30 5493 C 532.948 4.4234 -0.709901 0
M  V30 5494 C 534.692 4.10247 1.09077 0
M  V30 5495 C 532.599 5.89905 -0.420312 0
M  V30 5496 H 531.529 0.746741 0.104371 0
M  V30 5497 H 534.18 1.78014 -0.445324 0
M  V30 5498 H 532.562 3.73873 1.30518 0
M  V30 5499 H 533.736 4.36215 -1.48504 0
M  V30 5500 H 532.051 3.98997 -1.19123 0
M  V30 5501 H 534.648 5.18095 1.32219 0
M  V30 5502 H 534.991 3.62739 2.0427 0
M  V30 5503 H 535.524 3.96011 0.376824 0
M  V30 5504 H 532.263 6.41623 -1.34164 0
M  V30 5505 H 531.783 5.98962 0.316962 0
M  V30 5506 H 533.462 6.46991 -0.0331956 0
M  V30 5507 N 533.594 0.0601682 1.57485 0
M  V30 5508 C 534.842 -0.610386 1.92662 0
M  V30 5509 C 535.163 -1.70849 0.939981 0
M  V30 5510 O 534.433 -1.95895 -0.0137455 0
M  V30 5511 H 533.013 -0.228457 0.711208 0
M  V30 5512 H 535.675 0.115288 1.94559 0
M  V30 5513 H 534.771 -1.0432 2.94149 0
M  V30 5514 N 535.072 -1.5615 -0.213296 0
M  V30 5515 C 536.321 -1.78743 -0.93455 0
M  V30 5516 C 536.634 -0.630199 -1.8517 0
M  V30 5517 O 537.84 -0.739966 -2.61222 0
M  V30 5518 C 536.296 -3.16571 -1.71203 0
M  V30 5519 C 535.904 -4.40043 -0.840617 0
M  V30 5520 C 537.648 -3.48485 -2.42401 0
M  V30 5521 C 535.555 -5.68895 -1.61592 0
M  V30 5522 H 534.485 -0.666426 -0.352692 0
M  V30 5523 H 537.136 -1.82532 -0.188227 0
M  V30 5524 H 535.518 -3.06981 -2.50157 0
M  V30 5525 H 536.692 -4.6071 -0.0910326 0
M  V30 5526 H 535.007 -4.15706 -0.240365 0
M  V30 5527 H 537.604 -4.41983 -3.00924 0
M  V30 5528 H 537.947 -2.71371 -3.15695 0
M  V30 5529 H 538.48 -3.59442 -1.7043 0
M  V30 5530 H 535.219 -6.48925 -0.926106 0
M  V30 5531 H 534.739 -5.52275 -2.33991 0
M  V30 5532 H 536.418 -6.09365 -2.17447 0
M  V30 5533 N 536.55 0.480323 -1.50102 0
M  V30 5534 C 537.78 1.25475 -1.64133 0
M  V30 5535 C 538.188 1.8647 -0.320272 0
M  V30 5536 O 537.531 1.69561 0.70673 0
M  V30 5537 C 537.593 2.40996 -2.6676 0
M  V30 5538 C 537.257 2.00711 -4.10565 0
M  V30 5539 C 538.254 1.53492 -4.96725 0
M  V30 5540 C 535.939 2.09714 -4.56427 0
M  V30 5541 C 537.933 1.15806 -6.26792 0
M  V30 5542 C 535.62 1.7164 -5.86501 0
M  V30 5543 C 536.618 1.24763 -6.71508 0
M  V30 5544 O 536.306 0.872122 -7.99155 0
M  V30 5545 H 536.038 0.385983 -0.554971 0
M  V30 5546 H 538.592 0.580848 -1.97016 0
M  V30 5547 H 536.822 3.11528 -2.291 0
M  V30 5548 H 538.511 3.02981 -2.70106 0
M  V30 5549 H 539.277 1.45966 -4.62514 0
M  V30 5550 H 535.156 2.4515 -3.90413 0
M  V30 5551 H 538.7 0.791465 -6.93096 0
M  V30 5552 H 534.597 1.78822 -6.20236 0
M  V30 5553 H 535.365 1.00178 -8.12346 0
M  V30 5554 N 538.028 1.39524 0.732853 0
M  V30 5555 C 539.275 1.36865 1.49246 0
M  V30 5556 C 539.603 -0.0347118 1.94469 0
M  V30 5557 O 538.858 -1.01596 1.67262 0
M  V30 5558 C 539.157 2.28916 2.74468 0
M  V30 5559 C 538.823 3.76506 2.481 0
M  V30 5560 C 537.485 4.16721 2.40619 0
M  V30 5561 C 539.837 4.69846 2.25598 0
M  V30 5562 C 537.165 5.48334 2.08679 0
M  V30 5563 C 539.517 6.01739 1.95174 0
M  V30 5564 C 538.181 6.41015 1.86163 0
M  V30 5565 H 537.451 0.500824 0.546129 0
M  V30 5566 H 540.098 1.72047 0.840958 0
M  V30 5567 H 538.403 1.86859 3.4437 0
M  V30 5568 H 540.1 2.2415 3.32502 0
M  V30 5569 H 536.69 3.44635 2.54803 0
M  V30 5570 H 540.874 4.39608 2.30344 0
M  V30 5571 H 536.13 5.77685 2.00226 0
M  V30 5572 H 540.304 6.73591 1.76771 0
M  V30 5573 H 537.931 7.42917 1.61179 0
M  V30 5574 N 539.506 -0.963266 1.24736 0
M  V30 5575 C 540.736 -1.73913 1.11524 0
M  V30 5576 C 541.144 -1.86218 -0.334612 0
M  V30 5577 O 540.487 -1.3531 -1.24245 0
M  V30 5578 C 540.549 -3.17501 1.68622 0
M  V30 5579 C 540.213 -3.28655 3.17546 0
M  V30 5580 C 541.21 -3.13637 4.14642 0
M  V30 5581 C 538.895 -3.52753 3.5759 0
M  V30 5582 C 540.889 -3.2255 5.49764 0
M  V30 5583 C 538.576 -3.61303 4.92852 0
M  V30 5584 C 539.574 -3.46214 5.88748 0
M  V30 5585 O 539.262 -3.5443 7.2155 0
M  V30 5586 H 538.994 -0.552057 0.390139 0
M  V30 5587 H 541.548 -1.2177 1.65412 0
M  V30 5588 H 539.778 -3.70969 1.09172 0
M  V30 5589 H 541.467 -3.76914 1.50635 0
M  V30 5590 H 542.233 -2.94899 3.85045 0
M  V30 5591 H 538.112 -3.63561 2.83451 0
M  V30 5592 H 541.656 -3.1069 6.24594 0
M  V30 5593 H 537.553 -3.79556 5.22118 0
M  V30 5594 H 538.321 -3.71116 7.29531 0
M  V30 5595 N 540.985 -1.06182 -1.16461 0
M  V30 5596 C 542.231 -0.788825 -1.87481 0
M  V30 5597 C 542.586 0.677298 -1.80085 0
M  V30 5598 O 541.879 1.48976 -1.20486 0
M  V30 5599 C 542.073 -1.21633 -3.36066 0
M  V30 5600 C 541.902 -2.72247 -3.57927 0
M  V30 5601 C 540.672 -3.39696 -3.74079 0
M  V30 5602 C 542.87 -3.70461 -3.56739 0
M  V30 5603 N 540.852 -4.79072 -3.83879 0
M  V30 5604 C 542.223 -4.95616 -3.72511 0
M  V30 5605 C 544.278 -3.63788 -3.39945 0
M  V30 5606 C 542.981 -6.14895 -3.73225 0
M  V30 5607 C 545.007 -4.82517 -3.41953 0
M  V30 5608 C 544.369 -6.065 -3.58242 0
M  V30 5609 H 540.468 -0.341034 -0.703719 0
M  V30 5610 H 543.052 -1.35575 -1.39741 0
M  V30 5611 H 541.223 -0.67725 -3.8245 0
M  V30 5612 H 542.955 -0.892119 -3.94745 0
M  V30 5613 H 539.71 -2.90097 -3.74354 0
M  V30 5614 H 540.134 -5.51573 -3.92551 0
M  V30 5615 H 544.776 -2.68888 -3.26281 0
M  V30 5616 H 542.494 -7.10129 -3.85672 0
M  V30 5617 H 546.08 -4.79017 -3.30203 0
M  V30 5618 H 544.96 -6.96833 -3.59712 0
M  V30 5619 N 542.463 1.3308 -0.844243 0
M  V30 5620 C 543.688 2.02341 -0.455282 0
M  V30 5621 C 544.113 1.6308 0.93737 0
M  V30 5622 O 543.471 0.826118 1.61385 0
M  V30 5623 C 543.519 3.55743 -0.58988 0
M  V30 5624 O 542.623 4.1063 0.38166 0
M  V30 5625 H 541.964 0.637898 -0.184343 0
M  V30 5626 H 544.494 1.6986 -1.14056 0
M  V30 5627 H 544.504 4.05243 -0.473522 0
M  V30 5628 H 543.179 3.83662 -1.60549 0
M  V30 5629 H 541.756 3.72236 0.22241 0
M  V30 5630 N 543.941 0.601185 1.45683 0
M  V30 5631 C 544.888 -0.121396 2.30481 0
M  V30 5632 C 545.858 -0.866232 1.41724 0
M  V30 5633 O 547.043 -0.85324 1.70659 0
M  V30 5634 C 544.183 -1.11704 3.26521 0
M  V30 5635 C 543.296 -0.373741 4.3038 0
M  V30 5636 C 542.431 -1.35854 5.13534 0
M  V30 5637 C 541.47 -0.602689 6.09126 0
M  V30 5638 N 540.607 -1.53645 6.85082 0
M  V30 5639 H 545.447 0.607732 2.91737 0
M  V30 5640 H 542.984 0.311502 1.43764 0
M  V30 5641 H 544.942 -1.70735 3.80664 0
M  V30 5642 H 543.572 -1.81366 2.67032 0
M  V30 5643 H 542.624 0.331962 3.78949 0
M  V30 5644 H 543.936 0.2163 4.98331 0
M  V30 5645 H 543.09 -2.02111 5.72046 0
M  V30 5646 H 541.829 -1.98251 4.45587 0
M  V30 5647 H 540.834 0.0735482 5.49751 0
M  V30 5648 H 542.059 0.0161467 6.79098 0
M  V30 5649 H 540.005 -2.14819 6.1983 0
M  V30 5650 H 539.922 -0.999688 7.49361 0
M  V30 5651 H 541.19 -2.1888 7.48139 0
M  V30 5652 N 545.419 -1.53889 0.339982 0
M  V30 5653 C 546.659 -2.02765 -0.258011 0
M  V30 5654 C 547.023 -1.22249 -1.48051 0
M  V30 5655 O 548.224 -1.61007 -2.15245 0
M  V30 5656 C 546.495 -3.5286 -0.567872 0
M  V30 5657 S 548.054 -4.23647 -1.14318 0
M  V30 5658 H 544.872 -0.706814 -0.0770389 0
M  V30 5659 H 547.474 -1.89594 0.476917 0
M  V30 5660 H 546.178 -4.09073 0.329745 0
M  V30 5661 H 545.709 -3.70144 -1.33256 0
M  V30 5662 H 547.724 -4.32676 -2.42911 0
M  V30 5663 N 546.897 -0.0685191 -1.57451 0
M  V30 5664 C 548.122 0.613919 -1.98106 0
M  V30 5665 C 548.547 1.62551 -0.946501 0
M  V30 5666 O 547.905 1.81085 0.0882824 0
M  V30 5667 C 547.953 1.26189 -3.378 0
M  V30 5668 O 547.057 2.37773 -3.36954 0
M  V30 5669 H 546.398 0.158163 -0.644888 0
M  V30 5670 H 548.928 -0.142063 -2.04106 0
M  V30 5671 H 548.938 1.60951 -3.74912 0
M  V30 5672 H 547.613 0.520625 -4.12629 0
M  V30 5673 H 546.19 2.04829 -3.11608 0
M  V30 5674 N 548.375 1.56261 0.205012 0
M  V30 5675 C 549.791 1.49623 0.555433 0
M  V30 5676 C 549.991 0.766719 1.86343 0
M  V30 5677 O 549.047 0.313158 2.50551 0
M  V30 5678 C 550.36 2.94253 0.619347 0
M  V30 5679 C 551.908 3.04868 0.708855 0
M  V30 5680 C 552.383 4.50888 0.803969 0
M  V30 5681 N 553.874 4.54999 0.867758 0
M  V30 5682 C 554.609 5.65284 0.96135 0
M  V30 5683 N 554.105 6.85282 1.01786 0
M  V30 5684 N 555.898 5.53174 0.997771 0
M  V30 5685 H 548.049 2.0211 -0.653094 0
M  V30 5686 H 550.312 0.919333 -0.231366 0
M  V30 5687 H 550.018 3.50643 -0.272458 0
M  V30 5688 H 549.892 3.47063 1.47741 0
M  V30 5689 H 552.279 2.48532 1.5911 0
M  V30 5690 H 552.36 2.55199 -0.175205 0
M  V30 5691 H 552.004 5.07846 -0.0738798 0
M  V30 5692 H 551.934 4.98279 1.70369 0
M  V30 5693 H 554.425 3.68588 0.833735 0
M  V30 5694 H 554.738 7.65081 1.08951 0
M  V30 5695 H 553.083 6.8796 0.986706 0
M  V30 5696 H 556.274 4.5835 0.950392 0
M  V30 5697 H 556.447 6.39151 1.06725 0
M  V30 5698 N 549.853 -0.472356 1.50355 0
M  V30 5699 C 550.763 -1.59637 1.7191 0
M  V30 5700 C 551.779 -1.63247 0.602195 0
M  V30 5701 O 552.955 -1.81139 0.880369 0
M  V30 5702 C 550.02 -2.9586 1.80742 0
M  V30 5703 C 549.081 -3.02649 3.04471 0
M  V30 5704 C 548.314 -4.32374 3.12872 0
M  V30 5705 O 548.537 -5.22807 2.28099 0
M  V30 5706 O 547.471 -4.44728 4.05587 0
M  V30 5707 H 551.297 -1.44373 2.67189 0
M  V30 5708 H 548.882 -0.651717 1.34436 0
M  V30 5709 H 550.764 -3.7677 1.88739 0
M  V30 5710 H 549.439 -3.11325 0.88647 0
M  V30 5711 H 548.346 -2.20821 3.01975 0
M  V30 5712 H 549.679 -2.92119 3.9614 0
M  V30 5713 N 551.331 -1.39911 -0.725443 0
M  V30 5714 C 552.577 -1.37858 -1.48738 0
M  V30 5715 C 552.91 0.0224187 -1.94187 0
M  V30 5716 O 552.185 0.989204 -1.67466 0
M  V30 5717 C 552.468 -2.3594 -2.72038 0
M  V30 5718 C 552.321 -3.85023 -2.32546 0
M  V30 5719 C 553.64 -2.31704 -3.74167 0
M  V30 5720 H 550.759 -0.502074 -0.539528 0
M  V30 5721 H 553.401 -1.70974 -0.828728 0
M  V30 5722 H 551.551 -2.0783 -3.28236 0
M  V30 5723 H 553.223 -4.2392 -1.81905 0
M  V30 5724 H 551.466 -4.01334 -1.64661 0
M  V30 5725 H 552.137 -4.49152 -3.20884 0
M  V30 5726 H 554.613 -2.5658 -3.27576 0
M  V30 5727 H 553.489 -3.02395 -4.58092 0
M  V30 5728 H 553.75 -1.3253 -4.21768 0
M  V30 5729 N 552.809 0.956637 -1.25245 0
M  V30 5730 C 553.739 2.07058 -1.07931 0
M  V30 5731 C 554.72 1.70096 0.0110361 0
M  V30 5732 O 555.905 1.93555 -0.158121 0
M  V30 5733 C 553.035 3.40272 -0.695124 0
M  V30 5734 C 551.989 3.91235 -1.73549 0
M  V30 5735 C 551.315 5.20921 -1.20604 0
M  V30 5736 C 552.615 4.17837 -3.13385 0
M  V30 5737 H 554.309 2.218 -2.01109 0
M  V30 5738 H 551.855 1.06581 -0.968326 0
M  V30 5739 H 553.808 4.1765 -0.560949 0
M  V30 5740 H 552.532 3.25462 0.272355 0
M  V30 5741 H 551.191 3.16025 -1.85807 0
M  V30 5742 H 550.839 5.02479 -0.228846 0
M  V30 5743 H 550.539 5.55987 -1.90136 0
M  V30 5744 H 552.063 6.00897 -1.08421 0
M  V30 5745 H 553.477 4.8588 -3.04292 0
M  V30 5746 H 551.874 4.64154 -3.80369 0
M  V30 5747 H 552.944 3.2419 -3.60595 0
M  V30 5748 N 554.287 1.06798 1.15896 0
M  V30 5749 C 555.533 0.798757 1.8706 0
M  V30 5750 C 555.888 -0.667739 1.80441 0
M  V30 5751 O 555.181 -1.48334 1.21274 0
M  V30 5752 C 555.375 1.23414 3.35416 0
M  V30 5753 C 555.204 2.74142 3.56478 0
M  V30 5754 C 553.974 3.41675 3.72272 0
M  V30 5755 C 556.172 3.72348 3.5477 0
M  V30 5756 N 554.154 4.81101 3.81333 0
M  V30 5757 C 555.525 4.97585 3.69877 0
M  V30 5758 C 557.58 3.65585 3.38011 0
M  V30 5759 C 556.283 6.16866 3.69959 0
M  V30 5760 C 558.309 4.84323 3.39389 0
M  V30 5761 C 557.671 6.08391 3.5502 0
M  V30 5762 H 553.77 0.344761 0.7019 0
M  V30 5763 H 556.354 1.36314 1.3902 0
M  V30 5764 H 554.525 0.697522 3.82085 0
M  V30 5765 H 556.257 0.91304 3.94266 0
M  V30 5766 H 553.012 2.92078 3.7281 0
M  V30 5767 H 553.436 5.53647 3.8962 0
M  V30 5768 H 558.078 2.70615 3.2485 0
M  V30 5769 H 555.796 7.12164 3.819 0
M  V30 5770 H 559.382 4.80762 3.27658 0
M  V30 5771 H 558.262 6.98731 3.56012 0
M  V30 5772 N 555.766 -1.3263 0.851289 0
M  V30 5773 C 556.716 -2.26451 0.265302 0
M  V30 5774 C 557.7 -1.49814 -0.586899 0
M  V30 5775 O 558.892 -1.71525 -0.436834 0
M  V30 5776 C 556.021 -3.38895 -0.548212 0
M  V30 5777 C 555.107 -4.2292 0.316189 0
M  V30 5778 N 555.498 -4.86014 1.40084 0
M  V30 5779 C 553.796 -4.45876 0.105356 0
M  V30 5780 C 554.497 -5.48667 1.93235 0
M  V30 5781 N 553.473 -5.29455 1.232 0
M  V30 5782 H 557.275 -2.72757 1.09457 0
M  V30 5783 H 554.789 -1.4668 0.697047 0
M  V30 5784 H 556.786 -4.05111 -0.984402 0
M  V30 5785 H 555.446 -2.94135 -1.37531 0
M  V30 5786 H 556.457 -4.86212 1.78377 0
M  V30 5787 H 553.134 -4.11804 -0.687299 0
M  V30 5788 H 554.524 -6.08865 2.84135 0
M  V30 5789 N 557.244 -0.608902 -1.45362 0
M  V30 5790 C 558.484 -0.10763 -2.04116 0
M  V30 5791 C 558.848 1.23883 -1.46686 0
M  V30 5792 O 560.049 1.83091 -1.96803 0
M  V30 5793 C 558.32 -0.0703351 -3.57331 0
M  V30 5794 S 559.879 0.369554 -4.37241 0
M  V30 5795 H 556.697 -0.0502123 -0.709225 0
M  V30 5796 H 559.299 -0.8073 -1.78053 0
M  V30 5797 H 558.003 -1.05379 -3.9664 0
M  V30 5798 H 557.534 0.651287 -3.87971 0
M  V30 5799 H 559.549 1.61878 -4.69052 0
M  V30 5800 N 558.722 1.53707 -0.348139 0
M  V30 5801 C 559.672 2.2193 0.522592 0
M  V30 5802 C 560.656 1.20831 1.06248 0
M  V30 5803 O 561.848 1.46357 0.995415 0
M  V30 5804 C 558.977 2.99904 1.6707 0
M  V30 5805 C 558.063 4.08364 1.14454 0
M  V30 5806 N 558.454 5.04656 0.339958 0
M  V30 5807 C 556.752 4.22757 1.421 0
M  V30 5808 C 557.453 5.81675 0.0538806 0
M  V30 5809 N 556.429 5.39739 0.646776 0
M  V30 5810 H 560.231 2.93733 -0.099135 0
M  V30 5811 H 557.745 1.61656 -0.15524 0
M  V30 5812 H 559.742 3.47284 2.30651 0
M  V30 5813 H 558.402 2.29629 2.29566 0
M  V30 5814 H 559.413 5.17896 -0.0193552 0
M  V30 5815 H 556.09 3.63704 2.05002 0
M  V30 5816 H 557.48 6.69256 -0.595443 0
M  V30 5817 N 560.2 0.0768682 1.57412 0
M  V30 5818 C 561.13 -0.886026 2.16037 0
M  V30 5819 C 562.111 -1.30691 1.08876 0
M  V30 5820 O 563.296 -1.37705 1.36934 0
M  V30 5821 C 560.426 -2.1518 2.72608 0
M  V30 5822 C 559.38 -1.87015 3.8498 0
M  V30 5823 C 558.706 -3.20266 4.28175 0
M  V30 5824 C 560.006 -1.17143 5.08994 0
M  V30 5825 H 561.7 -0.397642 2.96748 0
M  V30 5826 H 559.246 -0.189823 1.42743 0
M  V30 5827 H 561.199 -2.82962 3.12266 0
M  V30 5828 H 559.923 -2.66269 1.89125 0
M  V30 5829 H 558.582 -1.21636 3.45833 0
M  V30 5830 H 558.23 -3.69207 3.41607 0
M  V30 5831 H 557.93 -3.0221 5.03927 0
M  V30 5832 H 559.454 -3.89237 4.70454 0
M  V30 5833 H 560.868 -1.75003 5.45937 0
M  V30 5834 H 559.265 -1.09328 5.90057 0
M  V30 5835 H 560.335 -0.151295 4.84664 0
M  V30 5836 N 561.678 -1.56367 -0.196722 0
M  V30 5837 C 562.918 -1.82315 -0.92415 0
M  V30 5838 C 563.282 -0.654117 -1.80514 0
M  V30 5839 O 564.483 -0.79345 -2.56823 0
M  V30 5840 C 562.754 -3.13279 -1.72021 0
M  V30 5841 S 564.313 -3.60627 -2.49988 0
M  V30 5842 H 561.131 -0.639862 -0.309997 0
M  V30 5843 H 563.733 -1.94597 -0.187684 0
M  V30 5844 H 562.437 -3.96379 -1.06358 0
M  V30 5845 H 561.968 -3.03871 -2.49852 0
M  V30 5846 H 563.983 -3.25934 -3.74141 0
M  V30 5847 N 563.156 0.464375 -1.50603 0
M  V30 5848 C 564.567 1.04507 -1.5471 0
M  V30 5849 C 564.918 1.9297 -0.354542 0
M  V30 5850 O 564.043 2.09763 0.531812 0
M  V30 5851 C 564.638 1.90207 -2.80369 0
M  V30 5852 C 563.197 2.43373 -2.87135 0
M  V30 5853 C 562.344 1.21886 -2.49076 0
M  V30 5854 H 565.295 0.246716 -1.56771 0
M  V30 5855 H 565.316 2.75353 -2.62604 0
M  V30 5856 H 564.828 1.25796 -3.67147 0
M  V30 5857 H 562.929 3.11318 -2.04724 0
M  V30 5858 H 563.042 2.7802 -3.90181 0
M  V30 5859 H 561.406 1.55575 -2.01664 0
M  V30 5860 H 562.189 0.591268 -3.3817 0
M  V30 5861 N 564.634 1.40294 0.718013 0
M  V30 5862 C 565.859 1.41941 1.5122 0
M  V30 5863 C 566.284 0.0202371 1.88089 0
M  V30 5864 O 565.642 -0.971078 1.53101 0
M  V30 5865 C 565.69 2.3141 2.76554 0
M  V30 5866 O 564.794 1.75567 3.73162 0
M  V30 5867 H 564.135 0.482644 0.456016 0
M  V30 5868 H 566.665 1.84494 0.884478 0
M  V30 5869 H 566.675 2.46513 3.25108 0
M  V30 5870 H 565.35 3.33085 2.49053 0
M  V30 5871 H 563.927 1.69798 3.31999 0
M  V30 5872 N 566.112 -0.949982 1.2575 0
M  V30 5873 C 567.337 -1.73503 1.13628 0
M  V30 5874 C 567.762 -1.85601 -0.30559 0
M  V30 5875 O 567.12 -1.33984 -1.22139 0
M  V30 5876 C 567.168 -3.1243 1.80055 0
M  V30 5877 O 566.272 -3.97916 1.08336 0
M  V30 5878 H 565.613 -0.532665 0.396439 0
M  V30 5879 H 568.143 -1.19043 1.66403 0
M  V30 5880 H 568.153 -3.62866 1.86527 0
M  V30 5881 H 566.828 -3.02941 2.84956 0
M  V30 5882 H 565.405 -3.56375 1.09777 0
M  V30 5883 N 567.59 -1.07411 -1.15328 0
M  V30 5884 C 568.818 -0.818782 -1.90009 0
M  V30 5885 C 569.233 0.628072 -1.78047 0
M  V30 5886 O 568.59 1.43085 -1.13282 0
M  V30 5887 C 568.641 -1.21874 -3.40337 0
M  V30 5888 O 568.362 -2.60883 -3.51954 0
M  V30 5889 C 569.863 -0.992796 -4.3204 0
M  V30 5890 H 567.083 -0.296007 -0.60218 0
M  V30 5891 H 569.627 -1.43073 -1.46117 0
M  V30 5892 H 567.782 -0.651103 -3.81889 0
M  V30 5893 H 568.196 -2.77216 -4.45255 0
M  V30 5894 H 569.67 -1.32215 -5.35932 0
M  V30 5895 H 570.147 0.0708331 -4.39143 0
M  V30 5896 H 570.753 -1.54537 -3.9623 0
M  V30 5897 N 569.068 1.32177 -0.85831 0
M  V30 5898 C 569.978 2.32561 -0.308606 0
M  V30 5899 C 570.994 1.64209 0.575462 0
M  V30 5900 O 572.17 1.95719 0.474961 0
M  V30 5901 C 569.235 3.43207 0.490909 0
M  V30 5902 C 568.296 4.27243 -0.419733 0
M  V30 5903 C 567.529 5.32605 0.341719 0
M  V30 5904 O 567.752 5.48332 1.57125 0
M  V30 5905 O 566.686 6.0118 -0.294379 0
M  V30 5906 H 570.512 2.81477 -1.14037 0
M  V30 5907 H 568.097 1.35866 -0.621349 0
M  V30 5908 H 569.979 4.10677 0.944574 0
M  V30 5909 H 568.654 2.96474 1.29941 0
M  V30 5910 H 567.561 3.62569 -0.921652 0
M  V30 5911 H 568.894 4.7751 -1.19352 0
M  V30 5912 N 570.547 0.616602 1.45037 0
M  V30 5913 C 571.497 -0.118543 2.27692 0
M  V30 5914 C 572.481 -0.830025 1.37838 0
M  V30 5915 O 573.673 -0.718528 1.6176 0
M  V30 5916 C 570.802 -1.10924 3.24886 0
M  V30 5917 C 569.888 -0.398134 4.22227 0
M  V30 5918 N 570.279 0.565233 5.02632 0
M  V30 5919 C 568.577 -0.644506 4.41319 0
M  V30 5920 C 569.278 0.984043 5.73316 0
M  V30 5921 N 568.254 0.325879 5.42622 0
M  V30 5922 H 572.056 0.621239 2.87259 0
M  V30 5923 H 569.57 0.440968 1.56299 0
M  V30 5924 H 571.567 -1.65038 3.82842 0
M  V30 5925 H 570.227 -1.84948 2.66879 0
M  V30 5926 H 571.238 0.942395 5.09254 0
M  V30 5927 H 567.915 -1.36873 3.94426 0
M  V30 5928 H 569.305 1.77911 6.47918 0
M  V30 5929 N 572.025 -1.5352 0.356285 0
M  V30 5930 C 572.988 -2.24071 -0.482182 0
M  V30 5931 C 573.988 -1.24531 -1.01729 0
M  V30 5932 O 575.178 -1.48876 -0.904513 0
M  V30 5933 C 572.31 -2.97025 -1.67299 0
M  V30 5934 H 573.503 -2.99596 0.135031 0
M  V30 5935 H 571.056 -1.55928 0.107825 0
M  V30 5936 H 571.791 -2.25719 -2.32855 0
M  V30 5937 H 571.576 -3.7005 -1.29636 0
M  V30 5938 H 573.066 -3.50683 -2.26741 0
M  V30 5939 N 573.503 -0.0852151 -1.57369 0
M  V30 5940 C 574.728 0.592872 -1.98746 0
M  V30 5941 C 575.153 1.61538 -0.963689 0
M  V30 5942 O 574.511 1.81168 0.069071 0
M  V30 5943 C 574.559 1.22599 -3.39119 0
M  V30 5944 O 573.663 2.34185 -3.39457 0
M  V30 5945 H 573.004 0.151314 -0.646529 0
M  V30 5946 H 575.534 -0.163703 -2.03944 0
M  V30 5947 H 575.544 1.56965 -3.76598 0
M  V30 5948 H 574.219 0.476831 -4.13158 0
M  V30 5949 H 572.796 2.01512 -3.13763 0
M  V30 5950 N 574.981 1.5647 0.188427 0
M  V30 5951 C 575.944 1.9421 1.21718 0
M  V30 5952 C 576.944 0.823901 1.38089 0
M  V30 5953 O 578.134 1.09122 1.35787 0
M  V30 5954 C 575.266 2.22197 2.58537 0
M  V30 5955 H 576.459 2.86252 0.894418 0
M  V30 5956 H 574.012 1.50263 0.430211 0
M  V30 5957 H 574.747 1.32814 2.95856 0
M  V30 5958 H 574.532 3.03688 2.48025 0
M  V30 5959 H 576.022 2.52376 3.3271 0
M  V30 5960 N 576.459 -0.456382 1.50847 0
M  V30 5961 C 577.684 -1.2349 1.66628 0
M  V30 5962 C 578.109 -1.84715 0.355254 0
M  V30 5963 O 577.467 -1.67961 -0.682559 0
M  V30 5964 C 577.515 -2.30865 2.77009 0
M  V30 5965 O 576.619 -3.35882 2.39285 0
M  V30 5966 H 575.96 -0.36266 0.556214 0
M  V30 5967 H 578.49 -0.541374 1.97308 0
M  V30 5968 H 578.5 -2.75949 3.00526 0
M  V30 5969 H 577.175 -1.85677 3.72152 0
M  V30 5970 H 575.752 -2.96406 2.26269 0
M  V30 5971 N 577.937 -1.40673 -0.710563 0
M  V30 5972 C 578.9 -1.4108 -1.80635 0
M  V30 5973 C 579.9 -0.303783 -1.57904 0
M  V30 5974 O 581.09 -0.562937 -1.64853 0
M  V30 5975 C 578.222 -1.20748 -3.18799 0
M  V30 5976 H 579.415 -2.38612 -1.81671 0
M  V30 5977 H 576.968 -1.26595 -0.916704 0
M  V30 5978 H 577.703 -0.239964 -3.23411 0
M  V30 5979 H 577.488 -2.00941 -3.36698 0
M  V30 5980 H 578.978 -1.23833 -3.98817 0
M  V30 5981 N 579.415 0.9433 -1.26252 0
M  V30 5982 C 580.363 2.06302 -1.07434 0
M  V30 5983 C 581.357 1.694 -0.00189471 0
M  V30 5984 O 582.563 1.79302 -0.158408 0
M  V30 5985 H 578.938 0.675453 -0.330556 0
M  V30 5986 H 580.909 2.19326 -2.02333 0
M  V30 5987 C 579.658 3.40125 -0.721817 0
M  V30 5988 H 578.981 3.68996 -1.5389 0
M  V30 5989 H 580.421 4.19295 -0.629922 0
M  V30 5990 C 578.88 3.31993 0.572902 0
M  V30 5991 O 579.41 3.67945 1.61182 0
M  V30 5992 N 577.616 2.85099 0.562748 0
M  V30 5993 H 577.163 2.5604 -0.283092 0
M  V30 5994 H 577.121 2.80041 1.42915 0
M  V30 5995 N 580.893 1.08022 1.14757 0
M  V30 5996 C 582.141 0.805913 1.85336 0
M  V30 5997 C 582.462 -0.670162 1.83122 0
M  V30 5998 O 581.732 -1.48567 1.2769 0
M  V30 5999 H 580.312 0.295138 0.686223 0
M  V30 6000 H 582.974 1.36538 1.3908 0
M  V30 6001 H 582.07 1.14655 2.90277 0
M  V30 6002 N 582.371 -1.3172 0.865308 0
M  V30 6003 C 583.321 -2.26157 0.289305 0
M  V30 6004 C 584.305 -1.50428 -0.570977 0
M  V30 6005 O 585.497 -1.71978 -0.418617 0
M  V30 6006 C 582.626 -3.39457 -0.512237 0
M  V30 6007 C 581.712 -4.22561 0.361028 0
M  V30 6008 N 582.103 -4.84501 1.45231 0
M  V30 6009 C 580.401 -4.45739 0.152641 0
M  V30 6010 C 581.102 -5.46586 1.99043 0
M  V30 6011 N 580.078 -5.28119 1.28809 0
M  V30 6012 H 583.88 -2.71581 1.12344 0
M  V30 6013 H 581.394 -1.45932 0.712565 0
M  V30 6014 H 583.391 -4.06133 -0.941379 0
M  V30 6015 H 582.051 -2.95577 -1.34404 0
M  V30 6016 H 583.062 -4.84293 1.83524 0
M  V30 6017 H 579.739 -4.1251 -0.643583 0
M  V30 6018 H 581.129 -6.05817 2.90577 0
M  V30 6019 N 583.85 -0.624285 -1.44708 0
M  V30 6020 C 585.096 -0.126237 -2.02407 0
M  V30 6021 C 585.428 1.24618 -1.48943 0
M  V30 6022 O 584.704 1.82569 -0.670742 0
M  V30 6023 C 584.986 -0.105449 -3.59946 0
M  V30 6024 C 584.84 -1.50972 -4.23707 0
M  V30 6025 C 586.159 0.573629 -4.36346 0
M  V30 6026 H 583.278 -0.0473472 -0.735478 0
M  V30 6027 H 585.92 -0.799452 -1.72362 0
M  V30 6028 H 584.07 0.46783 -3.85673 0
M  V30 6029 H 585.742 -2.13136 -4.0911 0
M  V30 6030 H 583.985 -2.0656 -3.81465 0
M  V30 6031 H 584.656 -1.44727 -5.32689 0
M  V30 6032 H 587.132 0.0861787 -4.16011 0
M  V30 6033 H 586.008 0.557338 -5.46063 0
M  V30 6034 H 586.269 1.64276 -4.10446 0
M  V30 6035 N 585.328 1.53329 -0.364422 0
M  V30 6036 C 586.553 2.06132 0.229033 0
M  V30 6037 C 586.978 1.23625 1.41769 0
M  V30 6038 O 586.336 0.255038 1.79497 0
M  V30 6039 C 586.384 3.55544 0.60174 0
M  V30 6040 O 585.488 3.75771 1.69912 0
M  V30 6041 H 584.829 0.663148 0.0336213 0
M  V30 6042 H 587.359 1.97758 -0.524689 0
M  V30 6043 H 587.369 3.98549 0.873073 0
M  V30 6044 H 586.044 4.15039 -0.267421 0
M  V30 6045 H 584.621 3.44663 1.42343 0
M  V30 6046 N 586.806 0.0935595 1.57322 0
M  V30 6047 C 588.036 -0.578095 1.98347 0
M  V30 6048 C 588.444 -1.62357 0.971441 0
M  V30 6049 O 587.787 -1.83639 -0.0473959 0
M  V30 6050 C 587.849 -1.28525 3.3574 0
M  V30 6051 C 587.513 -0.390714 4.55327 0
M  V30 6052 C 588.51 0.360522 5.18648 0
M  V30 6053 C 586.195 -0.309221 5.01347 0
M  V30 6054 C 588.189 1.18125 6.26359 0
M  V30 6055 C 585.876 0.515157 6.08925 0
M  V30 6056 C 586.874 1.25904 6.71295 0
M  V30 6057 O 586.562 2.06978 7.76798 0
M  V30 6058 H 586.294 -0.159767 0.656849 0
M  V30 6059 H 588.848 0.169058 2.04703 0
M  V30 6060 H 587.078 -2.07894 3.26063 0
M  V30 6061 H 588.767 -1.85128 3.61223 0
M  V30 6062 H 589.533 0.307285 4.84026 0
M  V30 6063 H 585.412 -0.877881 4.52564 0
M  V30 6064 H 588.956 1.76236 6.74971 0
M  V30 6065 H 584.853 0.56988 6.42979 0
M  V30 6066 H 585.621 1.99644 7.93779 0
M  V30 6067 N 588.284 -1.56567 -0.180126 0
M  V30 6068 C 589.509 -1.85975 -0.918041 0
M  V30 6069 C 589.934 -0.678888 -1.75422 0
M  V30 6070 O 589.292 0.372168 -1.77439 0
M  V30 6071 C 589.34 -3.13731 -1.77779 0
M  V30 6072 O 588.444 -2.95335 -2.87838 0
M  V30 6073 H 587.785 -0.61196 -0.257683 0
M  V30 6074 H 590.315 -2.03798 -0.180923 0
M  V30 6075 H 590.325 -3.4491 -2.17948 0
M  V30 6076 H 589 -3.99293 -1.16352 0
M  V30 6077 H 587.577 -2.7549 -2.51316 0
M  V30 6078 N 589.762 0.448376 -1.51087 0
M  V30 6079 C 590.725 1.52588 -1.71025 0
M  V30 6080 C 591.725 1.49958 -0.580442 0
M  V30 6081 O 592.915 1.52176 -0.847833 0
M  V30 6082 C 590.047 2.92163 -1.75652 0
M  V30 6083 H 591.24 1.36218 -2.67179 0
M  V30 6084 H 588.793 0.676313 -1.4091 0
M  V30 6085 H 589.528 3.13951 -0.812724 0
M  V30 6086 H 589.313 2.95478 -2.57751 0
M  V30 6087 H 590.803 3.70349 -1.92953 0
M  V30 6088 N 591.24 1.41047 0.703093 0
M  V30 6089 C 592.486 1.40207 1.46526 0
M  V30 6090 C 592.819 0.00847763 1.94198 0
M  V30 6091 O 592.094 -0.962437 1.69019 0
M  V30 6092 C 592.377 2.40238 2.6825 0
M  V30 6093 C 592.23 3.88674 2.26391 0
M  V30 6094 C 593.549 2.37627 3.70434 0
M  V30 6095 H 590.668 0.510594 0.531472 0
M  V30 6096 H 593.31 1.72271 0.801422 0
M  V30 6097 H 591.46 2.13026 3.24888 0
M  V30 6098 H 593.132 4.2676 1.75138 0
M  V30 6099 H 591.375 4.03903 1.58255 0
M  V30 6100 H 592.046 4.542 3.13698 0
M  V30 6101 H 594.522 2.61759 3.23452 0
M  V30 6102 H 593.398 3.09645 4.53223 0
M  V30 6103 H 593.659 1.39223 4.19606 0
M  V30 6104 N 592.718 -0.936591 1.26751 0
M  V30 6105 C 593.943 -1.72288 1.15462 0
M  V30 6106 C 594.368 -1.85915 -0.285887 0
M  V30 6107 O 593.726 -1.35272 -1.20711 0
M  V30 6108 C 593.774 -3.10503 1.83359 0
M  V30 6109 O 592.878 -3.96745 1.1255 0
M  V30 6110 H 592.219 -0.52843 0.402067 0
M  V30 6111 H 594.749 -1.17271 1.67656 0
M  V30 6112 H 594.759 -3.60867 1.90365 0
M  V30 6113 H 593.434 -2.99901 2.88153 0
M  V30 6114 H 592.011 -3.55191 1.13551 0
M  V30 6115 N 594.196 -1.08629 -1.14182 0
M  V30 6116 C 595.612 -0.814363 -1.3726 0
M  V30 6117 C 595.812 0.575271 -1.93114 0
M  V30 6118 O 594.868 1.33165 -2.1453 0
M  V30 6119 C 596.181 -1.8989 -2.33157 0
M  V30 6120 C 597.729 -1.92518 -2.46791 0
M  V30 6121 C 598.204 -3.00092 -3.45989 0
M  V30 6122 N 599.695 -2.99279 -3.53534 0
M  V30 6123 C 600.43 -3.79158 -4.30147 0
M  V30 6124 N 599.926 -4.68923 -5.09983 0
M  V30 6125 N 601.719 -3.67451 -4.25366 0
M  V30 6126 H 593.87 -1.98232 -0.762758 0
M  V30 6127 H 596.133 -0.860383 -0.398051 0
M  V30 6128 H 595.839 -2.89809 -1.99257 0
M  V30 6129 H 595.713 -1.77013 -3.33086 0
M  V30 6130 H 598.1 -0.932425 -2.79982 0
M  V30 6131 H 598.181 -2.09473 -1.46816 0
M  V30 6132 H 597.825 -3.99575 -3.13532 0
M  V30 6133 H 597.755 -2.80382 -4.45751 0
M  V30 6134 H 600.246 -2.3422 -2.96563 0
M  V30 6135 H 600.559 -5.26475 -5.65724 0
M  V30 6136 H 598.904 -4.72964 -5.09244 0
M  V30 6137 H 602.095 -2.9669 -3.62067 0
M  V30 6138 H 602.268 -4.29944 -4.84822 0
M  V30 6139 N 595.674 1.31259 -0.872281 0
M  V30 6140 C 596.584 2.32221 -0.333255 0
M  V30 6141 C 597.6 1.6481 0.558013 0
M  V30 6142 O 598.776 1.96212 0.454175 0
M  V30 6143 C 595.841 3.43708 0.454479 0
M  V30 6144 C 594.902 4.26774 -0.465024 0
M  V30 6145 C 594.135 5.32937 0.28521 0
M  V30 6146 O 594.358 5.49968 1.513 0
M  V30 6147 O 593.292 6.00834 -0.358126 0
M  V30 6148 H 597.118 2.80252 -1.17016 0
M  V30 6149 H 594.703 1.352 -0.635724 0
M  V30 6150 H 596.585 4.11656 0.900963 0
M  V30 6151 H 595.26 2.97836 1.26789 0
M  V30 6152 H 594.167 3.61571 -0.960055 0
M  V30 6153 H 595.5 4.76217 -1.2441 0
M  V30 6154 N 597.152 0.631951 1.44375 0
M  V30 6155 C 598.1 -0.0846693 2.32446 0
M  V30 6156 C 599.094 -0.834957 1.47393 0
M  V30 6157 O 600.3 -0.747764 1.63733 0
M  V30 6158 H 596.675 -0.0461508 0.750583 0
M  V30 6159 H 598.646 0.67619 2.90638 0
M  V30 6160 C 597.395 -1.05211 3.314 0
M  V30 6161 H 596.718 -0.484203 3.96857 0
M  V30 6162 H 598.158 -1.523 3.95703 0
M  V30 6163 C 596.617 -2.13776 2.60387 0
M  V30 6164 O 597.147 -3.21869 2.4034 0
M  V30 6165 N 595.353 -1.89733 2.20113 0
M  V30 6166 H 594.9 -1.01833 2.36618 0
M  V30 6167 H 594.858 -2.62572 1.72926 0
M  V30 6168 N 598.631 -1.53133 0.372548 0
M  V30 6169 C 599.856 -2.0625 -0.218098 0
M  V30 6170 C 600.281 -1.24375 -1.41111 0
M  V30 6171 O 599.639 -0.264554 -1.79359 0
M  V30 6172 C 599.687 -3.55858 -0.582876 0
M  V30 6173 O 598.791 -3.76667 -1.67917 0
M  V30 6174 H 598.132 -0.663317 -0.030104 0
M  V30 6175 H 600.662 -1.97477 0.535169 0
M  V30 6176 H 600.672 -3.99007 -0.851925 0
M  V30 6177 H 599.347 -4.14892 0.289428 0
M  V30 6178 H 597.924 -3.45413 -1.40513 0
M  V30 6179 N 600.109 -0.101901 -1.5727 0
M  V30 6180 C 601.334 0.571759 -1.99363 0
M  V30 6181 C 601.759 1.60507 -0.980768 0
M  V30 6182 O 601.117 1.81231 0.0498517 0
M  V30 6183 C 601.165 1.18996 -3.404 0
M  V30 6184 O 600.269 2.30572 -3.41922 0
M  V30 6185 H 599.61 0.144449 -0.648098 0
M  V30 6186 H 602.14 -0.185325 -2.03759 0
M  V30 6187 H 602.15 1.52962 -3.78241 0
M  V30 6188 H 600.825 0.432984 -4.1364 0
M  V30 6189 H 599.402 1.98173 -3.15883 0
M  V30 6190 N 601.587 1.56661 0.17182 0
M  V30 6191 C 602.812 1.86459 0.908165 0
M  V30 6192 C 603.237 0.688181 1.75059 0
M  V30 6193 O 602.595 -0.362753 1.77634 0
M  V30 6194 C 602.643 3.14669 1.76112 0
M  V30 6195 O 601.747 2.96858 2.86268 0
M  V30 6196 H 601.088 0.613318 0.254434 0
M  V30 6197 H 603.618 2.03892 0.170113 0
M  V30 6198 H 603.628 3.46061 2.16115 0
M  V30 6199 H 602.303 3.99905 1.14233 0
M  V30 6200 H 600.88 2.76819 2.49852 0
M  V30 6201 N 603.065 -0.440357 1.51323 0
M  V30 6202 C 603.997 -1.55254 1.68609 0
M  V30 6203 C 605.01 -1.52614 0.566812 0
M  V30 6204 O 606.199 -1.57445 0.841032 0
M  V30 6205 C 603.299 -2.94169 1.68279 0
M  V30 6206 C 602.472 -3.21346 2.96742 0
M  V30 6207 C 601.531 -4.3997 2.8864 0
M  V30 6208 O 600.557 -4.38771 3.62586 0
M  V30 6209 N 601.759 -5.43367 2.04285 0
M  V30 6210 H 604.524 -1.40831 2.6455 0
M  V30 6211 H 602.085 -0.629251 1.49171 0
M  V30 6212 H 604.077 -3.71543 1.60431 0
M  V30 6213 H 602.647 -3.02205 0.799441 0
M  V30 6214 H 601.867 -2.32299 3.18482 0
M  V30 6215 H 603.155 -3.3633 3.81785 0
M  V30 6216 H 602.553 -5.47176 1.43578 0
M  V30 6217 H 601.11 -6.19605 2.02318 0
M  V30 6218 N 604.543 -1.41418 -0.695603 0
M  V30 6219 C 605.82 -1.31264 -1.45014 0
M  V30 6220 C 606.2 0.0597994 -2.11015 0
M  V30 6221 O 605.548 1.07403 -2.01685 0
M  V30 6222 C 605.758 -2.466 -2.4696 0
M  V30 6223 C 607.106 -2.87763 -3.12214 0
M  V30 6224 O 608.13 -2.46339 -2.57285 0
M  V30 6225 O 606.989 -3.59395 -4.11701 0
M  V30 6226 H 604.083 -0.516576 -0.645816 0
M  V30 6227 H 606.629 -1.53382 -0.726084 0
M  V30 6228 H 605.401 -3.38183 -1.96845 0
M  V30 6229 H 605.024 -2.26358 -3.26876 0
M  V30 6230 N 606.021 0.929856 -1.27246 0
M  V30 6231 C 607.432 1.49223 -1.12203 0
M  V30 6232 C 607.783 1.93989 0.293731 0
M  V30 6233 O 606.908 1.80978 1.18642 0
M  V30 6234 C 607.503 2.71198 -2.0307 0
M  V30 6235 C 606.062 3.23666 -1.92139 0
M  V30 6236 C 605.209 1.96409 -1.95752 0
M  V30 6237 H 608.16 0.744181 -1.4017 0
M  V30 6238 H 608.181 3.45905 -1.58524 0
M  V30 6239 H 607.693 2.38585 -3.06102 0
M  V30 6240 H 605.794 3.61042 -0.920834 0
M  V30 6241 H 605.907 3.90006 -2.78267 0
M  V30 6242 H 604.271 2.12806 -1.39949 0
M  V30 6243 H 605.054 1.66113 -3.00436 0
M  V30 6244 N 607.499 1.09233 1.13605 0
M  V30 6245 C 608.431 0.687794 2.18637 0
M  V30 6246 C 609.444 -0.26936 1.60556 0
M  V30 6247 O 610.633 -0.0557162 1.78413 0
M  V30 6248 C 607.733 -0.00751901 3.38899 0
M  V30 6249 C 606.906 0.97067 4.26494 0
M  V30 6250 C 605.965 0.309129 5.25291 0
M  V30 6251 O 604.991 0.956149 5.61112 0
M  V30 6252 N 606.193 -0.937555 5.72879 0
M  V30 6253 H 608.958 1.59141 2.53957 0
M  V30 6254 H 606.519 0.979515 1.28907 0
M  V30 6255 H 608.511 -0.461238 4.02063 0
M  V30 6256 H 607.081 -0.813353 3.01833 0
M  V30 6257 H 606.301 1.603 3.60135 0
M  V30 6258 H 607.589 1.63323 4.81875 0
M  V30 6259 H 606.987 -1.48281 5.4592 0
M  V30 6260 H 605.544 -1.33463 6.3799 0
M  V30 6261 N 608.977 -1.30795 0.87923 0
M  V30 6262 C 610.205 -2.00527 0.509548 0
M  V30 6263 C 610.62 -1.65944 -0.90045 0
M  V30 6264 O 609.977 -0.893525 -1.5913 0
M  V30 6265 C 610.028 -3.55276 0.667943 0
M  V30 6266 O 609.749 -3.88625 2.02242 0
M  V30 6267 C 611.25 -4.4228 0.300494 0
M  V30 6268 H 608.47 -0.641261 0.197549 0
M  V30 6269 H 611.014 -1.66813 1.18295 0
M  V30 6270 H 609.169 -3.87377 0.0419843 0
M  V30 6271 H 609.583 -4.83334 2.03688 0
M  V30 6272 H 611.057 -5.50061 0.462242 0
M  V30 6273 H 611.534 -4.32556 -0.76106 0
M  V30 6274 H 612.14 -4.15613 0.902536 0
M  V30 6275 N 610.455 -0.639598 -1.44038 0
M  V30 6276 C 611.365 0.0612377 -2.3452 0
M  V30 6277 C 612.381 0.826717 -1.53106 0
M  V30 6278 O 613.557 0.777059 -1.85806 0
M  V30 6279 C 610.622 1.02492 -3.31204 0
M  V30 6280 C 609.683 0.25788 -4.28525 0
M  V30 6281 C 608.916 1.17566 -5.2059 0
M  V30 6282 O 609.139 2.41461 -5.16771 0
M  V30 6283 O 608.073 0.655407 -5.98321 0
M  V30 6284 H 611.899 -0.68318 -2.95916 0
M  V30 6285 H 609.484 -0.399784 -1.43952 0
M  V30 6286 H 611.366 1.57911 -3.90694 0
M  V30 6287 H 610.041 1.7498 -2.7233 0
M  V30 6288 H 608.948 -0.339566 -3.72556 0
M  V30 6289 H 610.281 -0.427154 -4.90343 0
M  V30 6290 N 611.933 1.52934 -0.380664 0
M  V30 6291 C 613.181 2.01069 0.203874 0
M  V30 6292 C 613.502 1.26922 1.4804 0
M  V30 6293 O 612.772 0.386787 1.92044 0
M  V30 6294 H 611.352 0.742882 0.0783279 0
M  V30 6295 H 614.014 1.88099 -0.510368 0
M  V30 6296 H 613.11 3.09258 0.42021 0
M  V30 6297 N 613.412 0.11024 1.57214 0
M  V30 6298 C 614.64 -0.557834 1.99238 0
M  V30 6299 C 615.055 -1.60778 0.989734 0
M  V30 6300 O 614.412 -1.82491 -0.0186092 0
M  V30 6301 C 614.463 -1.19189 3.41286 0
M  V30 6302 O 614.184 -0.183919 4.37714 0
M  V30 6303 C 615.685 -1.94413 3.98395 0
M  V30 6304 H 612.905 -0.148392 0.654386 0
M  V30 6305 H 615.449 0.193996 2.03578 0
M  V30 6306 H 613.604 -1.89456 3.37913 0
M  V30 6307 H 614.018 -0.643475 5.20538 0
M  V30 6308 H 615.492 -2.34116 4.99894 0
M  V30 6309 H 615.969 -2.81592 3.3705 0
M  V30 6310 H 616.575 -1.28928 4.05287 0
M  V30 6311 N 614.89 -1.56749 -0.16351 0
M  V30 6312 C 616.306 -1.51043 -0.515567 0
M  V30 6313 C 616.506 -0.815855 -1.84245 0
M  V30 6314 O 615.562 -0.379477 -2.49632 0
M  V30 6315 C 616.875 -2.95791 -0.541114 0
M  V30 6316 C 618.423 -3.0664 -0.627776 0
M  V30 6317 C 618.898 -4.52861 -0.684141 0
M  V30 6318 N 620.389 -4.5714 -0.746818 0
M  V30 6319 C 621.124 -5.67634 -0.811137 0
M  V30 6320 N 620.62 -6.8774 -0.835811 0
M  V30 6321 N 622.413 -5.55624 -0.850756 0
M  V30 6322 H 614.564 -2.00307 0.70645 0
M  V30 6323 H 616.827 -0.912876 0.255659 0
M  V30 6324 H 616.533 -3.49797 0.365329 0
M  V30 6325 H 616.407 -3.50858 -1.38487 0
M  V30 6326 H 618.794 -2.52663 -1.52464 0
M  V30 6327 H 618.875 -2.54645 0.242805 0
M  V30 6328 H 618.519 -5.07472 0.2085 0
M  V30 6329 H 618.449 -5.02621 -1.57098 0
M  V30 6330 H 620.94 -3.70669 -0.735717 0
M  V30 6331 H 621.253 -7.67701 -0.886279 0
M  V30 6332 H 619.598 -6.90334 -0.803958 0
M  V30 6333 H 622.789 -4.60709 -0.828535 0
M  V30 6334 H 622.962 -6.41756 -0.897418 0
M  V30 6335 O 616.407 0.308401 -1.58528 0
M  V30 6336 H 617.098 0.955962 -1.68467 0
M  V30 END ATOM
M  V30 BEGIN BOND
M  V30 END BOND
M  V30 END CTAB
M  END
$$$$
