drugbank_target|Q15822 Neuronal acetylcholine receptor subunit alpha-2 (DB00184; DB00411; DB00416; DB00472; DB00483; DB00514; DB00565; DB00657; DB00721; DB00728; DB00732; DB00898; DB01135; DB01199; DB01226; DB01245; DB01336; DB01337; DB01338; DB01339; DB05740; DB07720; DB08960)
 OpenBabel12092119383D

  0  0  0     0  0            999 V3000
M  V30 BEGIN CTAB
M  V30 COUNTS 8411 8541 0 0 0
M  V30 BEGIN ATOM
M  V30 1 H -0.908 1.98254 -0.117106 0
M  V30 2 N 0 1.576 0 0
M  V30 3 C 0.933 2.03868 1.02534 0
M  V30 4 C 1.911 0.928543 1.3348 0
M  V30 5 O 3.095 1.19667 1.45644 0
M  V30 6 C 0.222 2.43627 2.35294 0
M  V30 7 C -0.732 3.65373 2.2001 0
M  V30 8 S 0.101 5.13292 1.52614 0
M  V30 9 C 1.257 5.56322 2.86805 0
M  V30 10 H 1.49 2.90518 0.631377 0
M  V30 11 H -0.977 1.52953 0.210867 0
M  V30 12 H 0.981 2.67203 3.11629 0
M  V30 13 H -0.358 1.57376 2.7183 0
M  V30 14 H -1.165 3.90944 3.18086 0
M  V30 15 H -1.563 3.418 1.51819 0
M  V30 16 H 0.729 5.58782 3.83104 0
M  V30 17 H 1.672 6.56266 2.65933 0
M  V30 18 H 2.08 4.83886 2.90714 0
M  V30 19 N 1.4781 -0.272755 1.55222 0
M  V30 20 C 2.7261 -1.00234 1.75492 0
M  V30 21 C 3.0471 -1.8681 0.5592 0
M  V30 22 O 2.3171 -1.91215 -0.425882 0
M  V30 23 H 0.8971 -0.373076 0.647166 0
M  V30 24 H 3.5591 -0.296926 1.92625 0
M  V30 25 H 2.6551 -1.63913 2.65592 0
M  V30 26 N 2.9562 -1.48159 -0.537278 0
M  V30 27 C 4.3672 -1.49429 -1.11928 0
M  V30 28 C 4.7182 -0.26 -1.9447 0
M  V30 29 O 3.8432 0.633489 -2.0692 0
M  V30 30 C 4.4382 -2.70758 -2.03656 0
M  V30 31 C 2.9972 -2.74923 -2.57088 0
M  V30 32 C 2.1442 -2.42835 -1.3389 0
M  V30 33 H 5.0952 -1.55381 -0.322886 0
M  V30 34 H 5.1162 -2.48861 -2.87834 0
M  V30 35 H 4.6282 -3.60575 -1.43553 0
M  V30 36 H 2.7292 -1.89296 -3.20933 0
M  V30 37 H 2.8422 -3.76157 -2.9672 0
M  V30 38 H 1.2062 -1.93836 -1.65226 0
M  V30 39 H 1.9892 -3.34884 -0.755504 0
M  V30 40 N 4.4343 0.785586 -1.36625 0
M  V30 41 C 5.6593 1.57963 -1.34397 0
M  V30 42 C 6.0843 1.87964 0.071526 0
M  V30 43 O 5.4423 1.48182 1.0446 0
M  V30 44 C 5.4903 2.87511 -2.17646 0
M  V30 45 O 4.5943 3.81281 -1.57158 0
M  V30 46 H 3.9353 0.479014 -0.459828 0
M  V30 47 H 6.4653 0.973411 -1.79961 0
M  V30 48 H 6.4753 3.36745 -2.30362 0
M  V30 49 H 5.1503 2.65002 -3.20541 0
M  V30 50 H 3.7273 3.39885 -1.53403 0
M  V30 51 N 5.9124 1.20967 1.01018 0
M  V30 52 C 7.1524 1.03511 1.76252 0
M  V30 53 C 7.5164 -0.42458 1.87247 0
M  V30 54 O 8.7174 -0.719508 2.58991 0
M  V30 55 C 6.9884 1.70726 3.13986 0
M  V30 56 S 8.5474 1.68458 4.05176 0
M  V30 57 H 5.3654 0.371037 0.606508 0
M  V30 58 H 7.9674 1.53628 1.20908 0
M  V30 59 H 6.6714 2.76128 3.03614 0
M  V30 60 H 6.2024 1.20767 3.74405 0
M  V30 61 H 8.2174 0.721987 4.90919 0
M  V30 62 N 7.3905 -1.2043 1.01659 0
M  V30 63 C 8.8015 -1.71517 0.737482 0
M  V30 64 C 9.1525 -1.81547 -0.743973 0
M  V30 65 O 8.2775 -1.47803 -1.58061 0
M  V30 66 C 8.8725 -3.11515 1.33206 0
M  V30 67 C 7.4315 -3.59912 1.10183 0
M  V30 68 C 6.5785 -2.37116 1.43776 0
M  V30 69 H 9.5295 -1.05444 1.18606 0
M  V30 70 H 9.5505 -3.73575 0.722636 0
M  V30 71 H 9.0625 -3.04182 2.41028 0
M  V30 72 H 7.1635 -3.72577 0.0412756 0
M  V30 73 H 7.2765 -4.44731 1.78188 0
M  V30 74 H 5.6405 -2.39857 0.856778 0
M  V30 75 H 6.4235 -2.32424 2.52654 0
M  V30 76 N 8.8686 -0.792821 -1.36206 0
M  V30 77 C 10.1146 -0.36733 -1.99446 0
M  V30 78 C 10.4476 1.05917 -1.62774 0
M  V30 79 O 9.7226 1.7324 -0.88421 0
M  V30 80 C 10.0056 -0.535044 -3.56103 0
M  V30 81 C 9.8586 -2.00548 -4.02617 0
M  V30 82 C 11.1776 0.0478191 -4.40074 0
M  V30 83 H 8.2966 -0.134941 -0.724541 0
M  V30 84 H 10.9386 -0.999794 -1.61568 0
M  V30 85 H 9.0886 0.00336329 -3.885 0
M  V30 86 H 10.7606 -2.60521 -3.80692 0
M  V30 87 H 9.0036 -2.50686 -3.54032 0
M  V30 88 H 9.6746 -2.07377 -5.11565 0
M  V30 89 H 12.1506 -0.411822 -4.14057 0
M  V30 90 H 11.0266 -0.0995336 -5.4881 0
M  V30 91 H 11.2876 1.14025 -4.27142 0
M  V30 92 N 10.3467 1.47872 -0.545128 0
M  V30 93 C 11.5937 2.02493 -0.0165858 0
M  V30 94 C 11.9217 1.42073 1.32836 0
M  V30 95 O 11.1767 0.561459 1.87473 0
M  V30 96 C 11.4757 3.57131 0.13867 0
M  V30 97 C 11.1417 4.36411 -1.13384 0
M  V30 98 C 9.8037 4.57792 -1.48256 0
M  V30 99 C 12.1557 4.82223 -1.97764 0
M  V30 100 C 9.4837 5.22233 -2.67376 0
M  V30 101 C 11.8357 5.47977 -3.16076 0
M  V30 102 C 10.4997 5.67593 -3.51275 0
M  V30 103 H 9.7697 0.740975 -0.00606918 0
M  V30 104 H 12.4167 1.77683 -0.714207 0
M  V30 105 H 10.7217 3.80865 0.919172 0
M  V30 106 H 12.4187 3.97031 0.562782 0
M  V30 107 H 9.0087 4.2004 -0.852297 0
M  V30 108 H 13.1927 4.65493 -1.72132 0
M  V30 109 H 8.4487 5.35616 -2.94831 0
M  V30 110 H 12.6227 5.8244 -3.81755 0
M  V30 111 H 10.2497 6.17298 -4.43675 0
M  V30 112 N 11.8248 0.280983 1.55075 0
M  V30 113 C 12.7548 -0.597469 2.25727 0
M  V30 114 C 13.7358 -1.15417 1.24952 0
M  V30 115 O 14.9208 -1.18722 1.53684 0
M  V30 116 C 12.0508 -1.7789 2.98283 0
M  V30 117 C 11.0048 -1.35347 4.06036 0
M  V30 118 C 10.3308 -2.61846 4.66198 0
M  V30 119 C 11.6308 -0.499354 5.19907 0
M  V30 120 H 13.3248 -0.00824265 2.99399 0
M  V30 121 H 10.8708 -0.0025244 1.44 0
M  V30 122 H 12.8238 -2.39937 3.46422 0
M  V30 123 H 11.5478 -2.39405 2.22155 0
M  V30 124 H 10.2068 -0.756156 3.58717 0
M  V30 125 H 9.8548 -3.21632 3.86732 0
M  V30 126 H 9.5548 -2.3409 5.38958 0
M  V30 127 H 11.0788 -3.24732 5.1709 0
M  V30 128 H 12.4928 -1.02498 5.64063 0
M  V30 129 H 10.8898 -0.316424 5.99265 0
M  V30 130 H 11.9598 0.480459 4.82514 0
M  V30 131 N 13.3029 -1.57598 0.00835791 0
M  V30 132 C 14.5279 -1.95617 -0.689103 0
M  V30 133 C 14.9529 -0.883753 -1.66046 0
M  V30 134 O 14.3109 0.157352 -1.80616 0
M  V30 135 C 14.3589 -3.32736 -1.38994 0
M  V30 136 O 13.4629 -3.27631 -2.50463 0
M  V30 137 H 12.8039 -0.638379 -0.182668 0
M  V30 138 H 15.3339 -2.045 0.064036 0
M  V30 139 H 15.3439 -3.68494 -1.75147 0
M  V30 140 H 14.0189 -4.1034 -0.677778 0
M  V30 141 H 12.5959 -3.03561 -2.16576 0
M  V30 142 N 14.781 0.264519 -1.55364 0
M  V30 143 C 16.028 0.994986 -1.7637 0
M  V30 144 C 16.356 1.85976 -0.5695 0
M  V30 145 O 15.611 1.90509 0.44776 0
M  V30 146 C 15.91 1.9004 -3.02687 0
M  V30 147 C 15.576 1.19243 -4.34847 0
M  V30 148 C 14.238 0.996709 -4.70764 0
M  V30 149 C 16.59 0.689296 -5.16622 0
M  V30 150 C 13.918 0.285261 -5.86006 0
M  V30 151 C 16.27 -0.00860079 -6.32599 0
M  V30 152 C 14.934 -0.215963 -6.67151 0
M  V30 153 H 14.204 0.364091 -0.645383 0
M  V30 154 H 16.851 0.266543 -1.89636 0
M  V30 155 H 15.156 2.69533 -2.84357 0
M  V30 156 H 16.853 2.46695 -3.16137 0
M  V30 157 H 13.443 1.3549 -4.06621 0
M  V30 158 H 17.627 0.828108 -4.89342 0
M  V30 159 H 12.883 0.113961 -6.11294 0
M  V30 160 H 17.057 -0.406186 -6.95214 0
M  V30 161 H 14.684 -0.769217 -7.56298 0
M  V30 162 N 16.2591 1.48442 0.529413 0
M  V30 163 C 17.4871 1.60151 1.30994 0
M  V30 164 C 17.9021 0.261985 1.86973 0
M  V30 165 O 17.2591 -0.748805 1.66431 0
M  V30 166 C 17.3101 2.64854 2.46038 0
M  V30 167 O 17.0311 3.93608 1.92365 0
M  V30 168 C 18.5321 2.87007 3.37849 0
M  V30 169 H 15.7521 0.539971 0.398338 0
M  V30 170 H 18.2961 1.94273 0.638597 0
M  V30 171 H 16.4511 2.33589 3.09055 0
M  V30 172 H 16.8651 4.51055 2.67675 0
M  V30 173 H 18.3391 3.64068 4.14919 0
M  V30 174 H 18.8161 1.95852 3.93114 0
M  V30 175 H 19.4221 3.19579 2.80623 0
M  V30 176 N 17.7372 -0.778329 1.37039 0
M  V30 177 C 18.6842 -1.89139 1.32269 0
M  V30 178 C 19.6542 -1.65017 0.189387 0
M  V30 179 O 20.8392 -1.87024 0.377693 0
M  V30 180 C 17.9792 -3.26112 1.12894 0
M  V30 181 C 17.0922 -3.62233 2.35396 0
M  V30 182 C 16.2272 -4.8838 2.08946 0
M  V30 183 C 15.2662 -5.17212 3.2735 0
M  V30 184 N 14.4032 -6.34546 3.00492 0
M  V30 185 H 19.2432 -1.92552 2.27437 0
M  V30 186 H 16.7802 -0.941473 1.13025 0
M  V30 187 H 18.7382 -4.05116 0.996835 0
M  V30 188 H 17.3682 -3.22091 0.213758 0
M  V30 189 H 16.4202 -2.78265 2.5937 0
M  V30 190 H 17.7322 -3.79481 3.23721 0
M  V30 191 H 16.8862 -5.75274 1.92729 0
M  V30 192 H 15.6252 -4.73222 1.17949 0
M  V30 193 H 14.6302 -4.28796 3.44113 0
M  V30 194 H 15.8552 -5.34283 4.19188 0
M  V30 195 H 13.8012 -6.20759 2.12118 0
M  V30 196 H 13.7182 -6.52179 3.82358 0
M  V30 197 H 14.9862 -7.24394 2.87879 0
M  V30 198 N 19.2153 -1.21501 -1.00376 0
M  V30 199 C 20.1453 -0.999478 -2.11028 0
M  V30 200 C 21.1263 0.0759671 -1.6993 0
M  V30 201 O 22.3113 -0.0841106 -1.94018 0
M  V30 202 C 19.4413 -0.564709 -3.42678 0
M  V30 203 C 18.3953 -1.58486 -3.97576 0
M  V30 204 C 17.7213 -1.00628 -5.25146 0
M  V30 205 C 19.0213 -2.97204 -4.29496 0
M  V30 206 H 20.7153 -1.92495 -2.29317 0
M  V30 207 H 18.2613 -0.92693 -1.102 0
M  V30 208 H 20.2143 -0.401091 -4.19487 0
M  V30 209 H 18.9383 0.396411 -3.24185 0
M  V30 210 H 17.5973 -1.73606 -3.22888 0
M  V30 211 H 17.2453 -0.0368439 -5.02987 0
M  V30 212 H 16.9453 -1.68771 -5.62841 0
M  V30 213 H 18.4693 -0.854015 -6.04598 0
M  V30 214 H 19.8833 -2.8552 -4.97143 0
M  V30 215 H 18.2803 -3.62372 -4.78338 0
M  V30 216 H 19.3503 -3.47956 -3.3772 0
M  V30 217 N 20.6934 1.19889 -1.02296 0
M  V30 218 C 21.9184 1.9393 -0.735237 0
M  V30 219 C 22.3434 1.74639 0.698782 0
M  V30 220 O 21.7014 1.04481 1.48167 0
M  V30 221 C 21.7494 3.43916 -1.08417 0
M  V30 222 O 20.8534 4.11917 -0.199446 0
M  V30 223 H 20.1944 0.605645 -0.272196 0
M  V30 224 H 22.7244 1.52137 -1.36804 0
M  V30 225 H 22.7344 3.9456 -1.03856 0
M  V30 226 H 21.4094 3.5728 -2.12894 0
M  V30 227 H 19.9864 3.71666 -0.303136 0
M  V30 228 N 22.1715 0.800033 1.35784 0
M  V30 229 C 23.1015 0.220184 2.3246 0
M  V30 230 C 24.0825 -0.65073 1.57161 0
M  V30 231 O 25.2675 -0.582359 1.85263 0
M  V30 232 C 22.3975 -0.637353 3.41402 0
M  V30 233 C 21.3515 0.134531 4.27789 0
M  V30 234 C 20.6775 -0.844285 5.27992 0
M  V30 235 C 21.9775 1.32979 5.05088 0
M  V30 236 H 23.6715 1.02787 2.81203 0
M  V30 237 H 21.2175 0.495717 1.35199 0
M  V30 238 H 23.1705 -1.05302 4.08031 0
M  V30 239 H 21.8945 -1.47785 2.91251 0
M  V30 240 H 20.5535 0.531296 3.6273 0
M  V30 241 H 20.2015 -1.68011 4.74111 0
M  V30 242 H 19.9015 -0.332184 5.8666 0
M  V30 243 H 21.4255 -1.2583 5.97494 0
M  V30 244 H 22.8395 0.98934 5.64699 0
M  V30 245 H 21.2365 1.77593 5.7322 0
M  V30 246 H 22.3065 2.11978 4.36111 0
M  V30 247 N 23.6496 -1.47581 0.552962 0
M  V30 248 C 24.8956 -2.03369 0.0355807 0
M  V30 249 C 25.2506 -1.42016 -1.29805 0
M  V30 250 O 24.5436 -0.564917 -1.83083 0
M  V30 251 C 24.7376 -3.57199 -0.119728 0
M  V30 252 C 24.5666 -4.33468 1.1973 0
M  V30 253 C 23.3366 -4.7353 1.76345 0
M  V30 254 C 25.5346 -4.68866 2.11351 0
M  V30 255 N 23.5166 -5.34426 3.02097 0
M  V30 256 C 24.8876 -5.3002 3.21681 0
M  V30 257 C 26.9426 -4.50795 2.11397 0
M  V30 258 C 25.6456 -5.75011 4.32151 0
M  V30 259 C 27.6716 -4.96782 3.20876 0
M  V30 260 C 27.0336 -5.57981 4.29926 0
M  V30 261 H 23.1326 -0.780058 0.0550806 0
M  V30 262 H 25.7166 -1.80117 0.739315 0
M  V30 263 H 23.8876 -3.80227 -0.792579 0
M  V30 264 H 25.6196 -3.99627 -0.638792 0
M  V30 265 H 22.3746 -4.55352 1.30196 0
M  V30 266 H 22.7986 -5.69421 3.66182 0
M  V30 267 H 27.4406 -4.0284 1.28372 0
M  V30 268 H 25.1586 -6.21959 5.15938 0
M  V30 269 H 28.7446 -4.84573 3.21994 0
M  V30 270 H 27.6246 -5.92918 5.13243 0
M  V30 271 N 25.1277 -0.289203 -1.54924 0
M  V30 272 C 26.3737 0.316922 -2.00916 0
M  V30 273 C 26.7287 1.52424 -1.17408 0
M  V30 274 O 26.0217 1.90097 -0.239536 0
M  V30 275 C 26.2157 0.736119 -3.49737 0
M  V30 276 C 26.0447 -0.429036 -4.47649 0
M  V30 277 C 24.8147 -0.917311 -4.96904 0
M  V30 278 C 27.0127 -1.27016 -4.98369 0
M  V30 279 N 24.9947 -2.05046 -5.78644 0
M  V30 280 C 26.3657 -2.25097 -5.77695 0
M  V30 281 C 28.4207 -1.30188 -4.80578 0
M  V30 282 C 27.1237 -3.26114 -6.41126 0
M  V30 283 C 29.1497 -2.30057 -5.44819 0
M  V30 284 C 28.5117 -3.2687 -6.23968 0
M  V30 285 H 24.6107 0.0807535 -0.777819 0
M  V30 286 H 27.1947 -0.416434 -1.90194 0
M  V30 287 H 25.3657 1.43867 -3.60773 0
M  V30 288 H 27.0977 1.32078 -3.82541 0
M  V30 289 H 23.8527 -0.494248 -4.71014 0
M  V30 290 H 24.2767 -2.62108 -6.24202 0
M  V30 291 H 28.9187 -0.567163 -4.18979 0
M  V30 292 H 26.6367 -4.00512 -7.01866 0
M  V30 293 H 30.2227 -2.33271 -5.32988 0
M  V30 294 H 29.1027 -4.02883 -6.72796 0
M  V30 295 N 26.6058 1.57591 -0.0167156 0
M  V30 296 C 27.5358 2.12496 0.967858 0
M  V30 297 C 28.5168 1.03807 1.34752 0
M  V30 298 O 29.7018 1.31577 1.42833 0
M  V30 299 C 26.8318 2.64194 2.25431 0
M  V30 300 C 25.7858 3.77559 2.01576 0
M  V30 301 C 25.1118 4.15636 3.36379 0
M  V30 302 C 26.4118 5.04151 1.36489 0
M  V30 303 H 28.1058 2.95013 0.510643 0
M  V30 304 H 25.6518 1.41915 0.244181 0
M  V30 305 H 27.6048 3.01236 2.94678 0
M  V30 306 H 26.3288 1.78821 2.73296 0
M  V30 307 H 24.9878 3.40937 1.34751 0
M  V30 308 H 24.6358 3.27263 3.81979 0
M  V30 309 H 24.3358 4.92022 3.21229 0
M  V30 310 H 25.8598 4.5525 4.06915 0
M  V30 311 H 27.2738 5.38857 1.95718 0
M  V30 312 H 25.6708 5.85453 1.31776 0
M  V30 313 H 26.7408 4.83733 0.336219 0
M  V30 314 N 28.0839 -0.256276 1.55502 0
M  V30 315 C 29.0139 -1.32102 1.92539 0
M  V30 316 C 29.9949 -1.50684 0.789194 0
M  V30 317 O 31.1799 -1.63449 1.04872 0
M  V30 318 C 28.3099 -2.67752 2.21192 0
M  V30 319 C 27.2639 -2.63878 3.36975 0
M  V30 320 C 26.5899 -4.03236 3.51147 0
M  V30 321 C 27.8899 -2.21682 4.72921 0
M  V30 322 H 29.5839 -1.01351 2.81724 0
M  V30 323 H 27.1299 -0.486105 1.35547 0
M  V30 324 H 29.0829 -3.42365 2.45691 0
M  V30 325 H 27.8069 -3.0012 1.28824 0
M  V30 326 H 26.4659 -1.91722 3.12471 0
M  V30 327 H 26.1139 -4.32854 2.56216 0
M  V30 328 H 25.8139 -4.01535 4.29003 0
M  V30 329 H 27.3379 -4.79563 3.77957 0
M  V30 330 H 28.7519 -2.86023 4.96854 0
M  V30 331 H 27.1489 -2.3111 5.53812 0
M  V30 332 H 28.2189 -1.16833 4.70615 0
M  V30 333 N 29.562 -1.4872 -0.521534 0
M  V30 334 C 30.492 -1.66771 -1.63431 0
M  V30 335 C 31.473 -0.516499 -1.62069 0
M  V30 336 O 32.658 -0.750013 -1.79132 0
M  V30 337 C 29.788 -1.71515 -3.01993 0
M  V30 338 C 28.742 -2.86222 -3.18216 0
M  V30 339 C 28.068 -2.76061 -4.57924 0
M  V30 340 C 29.368 -4.27419 -3.00184 0
M  V30 341 H 31.062 -2.59932 -1.48579 0
M  V30 342 H 28.608 -1.25089 -0.713358 0
M  V30 343 H 30.561 -1.82731 -3.7972 0
M  V30 344 H 29.285 -0.749393 -3.17886 0
M  V30 345 H 27.944 -2.74575 -2.42908 0
M  V30 346 H 27.592 -1.77437 -4.70665 0
M  V30 347 H 27.292 -3.53037 -4.69722 0
M  V30 348 H 28.816 -2.89256 -5.37739 0
M  V30 349 H 30.23 -4.39855 -3.67697 0
M  V30 350 H 28.627 -5.05458 -3.2347 0
M  V30 351 H 29.697 -4.43293 -1.96518 0
M  V30 352 N 31.0401 0.771051 -1.3745 0
M  V30 353 C 32.2681 1.56015 -1.35893 0
M  V30 354 C 32.6831 1.88718 0.0555523 0
M  V30 355 O 32.0401 1.51502 1.01752 0
M  V30 356 C 32.0911 2.87001 -2.19801 0
M  V30 357 O 31.8121 2.557 -3.55738 0
M  V30 358 C 33.3131 3.81228 -2.26231 0
M  V30 359 H 30.5331 0.483317 -0.465453 0
M  V30 360 H 33.0771 0.955611 -1.80799 0
M  V30 361 H 31.2321 3.43877 -1.78402 0
M  V30 362 H 31.6461 3.39584 -3.99729 0
M  V30 363 H 33.1201 4.70139 -2.89263 0
M  V30 364 H 33.5971 4.20409 -1.27093 0
M  V30 365 H 34.2031 3.30281 -2.67945 0
M  V30 366 N 32.5182 1.22032 0.997298 0
M  V30 367 C 33.9292 1.0397 1.55071 0
M  V30 368 C 34.2802 -0.398192 1.92117 0
M  V30 369 O 33.4052 -1.28254 1.74298 0
M  V30 370 C 34.0002 1.88109 2.81781 0
M  V30 371 C 32.5592 1.74357 3.33581 0
M  V30 372 C 31.7062 1.84846 2.06706 0
M  V30 373 H 34.6572 1.35941 0.818883 0
M  V30 374 H 34.6782 1.39589 3.53971 0
M  V30 375 H 34.1902 2.92754 2.54787 0
M  V30 376 H 32.2912 0.72427 3.65493 0
M  V30 377 H 32.4042 2.56772 4.04481 0
M  V30 378 H 30.7682 1.28238 2.20062 0
M  V30 379 H 31.5512 2.91014 1.82114 0
M  V30 380 N 33.9963 -1.19345 1.0293 0
M  V30 381 C 34.9593 -2.20793 0.615069 0
M  V30 382 C 35.9593 -1.57553 -0.321533 0
M  V30 383 O 37.1493 -1.73862 -0.108483 0
M  V30 384 C 34.2813 -3.40754 -0.0999222 0
M  V30 385 H 35.4743 -2.58955 1.51269 0
M  V30 386 H 33.0273 -1.3303 0.820534 0
M  V30 387 H 33.7623 -3.0811 -1.01187 0
M  V30 388 H 33.5473 -3.87889 0.57309 0
M  V30 389 H 35.0373 -4.15898 -0.376645 0
M  V30 390 N 35.4744 -0.807222 -1.35358 0
M  V30 391 C 36.7224 -0.387122 -1.98358 0
M  V30 392 C 37.0434 1.04942 -1.64354 0
M  V30 393 O 36.3134 1.72615 -0.926339 0
M  V30 394 H 34.8934 -0.140154 -0.733734 0
M  V30 395 H 37.5554 -1.0332 -1.6526 0
M  V30 396 H 36.6514 -0.493352 -3.08176 0
M  V30 397 N 36.9525 1.47285 -0.560781 0
M  V30 398 C 38.2005 2.02064 -0.0379868 0
M  V30 399 C 38.5215 1.43711 1.31803 0
M  V30 400 O 37.7915 0.61362 1.86042 0
M  V30 401 H 36.3715 0.746918 -0.0110531 0
M  V30 402 H 39.0335 1.80648 -0.731598 0
M  V30 403 H 38.1295 3.12064 0.0474463 0
M  V30 404 N 38.4306 0.297415 1.54768 0
M  V30 405 C 39.3406 -0.58983 2.27064 0
M  V30 406 C 40.3566 -1.15144 1.30453 0
M  V30 407 O 41.5326 -1.17699 1.63428 0
M  V30 408 C 38.5976 -1.74714 2.9946 0
M  V30 409 C 37.6586 -1.21997 4.11601 0
M  V30 410 C 36.8916 -2.32212 4.80535 0
M  V30 411 O 37.1146 -3.52036 4.48806 0
M  V30 412 O 36.0486 -1.99106 5.68014 0
M  V30 413 H 39.8746 -0.00348199 3.037 0
M  V30 414 H 37.4596 0.0640035 1.49263 0
M  V30 415 H 39.3416 -2.42147 3.44881 0
M  V30 416 H 38.0166 -2.32016 2.25722 0
M  V30 417 H 36.9236 -0.511458 3.70587 0
M  V30 418 H 38.2566 -0.692419 4.87305 0
M  V30 419 N 39.9087 -1.5758 0.0250728 0
M  V30 420 C 40.8187 -2.1343 -0.973905 0
M  V30 421 C 41.8347 -1.08556 -1.35984 0
M  V30 422 O 43.0107 -1.40592 -1.44207 0
M  V30 423 C 40.0757 -2.64703 -2.23904 0
M  V30 424 C 39.1367 -3.84276 -1.91391 0
M  V30 425 C 38.3697 -4.33095 -3.11873 0
M  V30 426 O 38.5927 -3.81107 -4.24398 0
M  V30 427 O 37.5267 -5.24984 -2.94406 0
M  V30 428 H 41.3527 -2.99057 -0.529036 0
M  V30 429 H 38.9377 -1.48118 -0.195288 0
M  V30 430 H 40.8197 -2.97769 -2.98181 0
M  V30 431 H 39.4947 -1.82161 -2.6758 0
M  V30 432 H 38.4017 -3.56143 -1.14511 0
M  V30 433 H 39.7347 -4.67968 -1.52534 0
M  V30 434 N 41.3868 0.248026 -1.55636 0
M  V30 435 C 42.3498 1.29044 -1.89421 0
M  V30 436 C 43.3498 1.41134 -0.770581 0
M  V30 437 O 44.5398 1.39854 -1.03858 0
M  V30 438 C 41.6718 2.66831 -2.12165 0
M  V30 439 H 42.8648 1.00305 -2.82629 0
M  V30 440 H 40.4178 0.487265 -1.48511 0
M  V30 441 H 41.1528 3.00711 -1.21422 0
M  V30 442 H 40.9378 2.59438 -2.93997 0
M  V30 443 H 42.4278 3.42103 -2.3949 0
M  V30 444 N 42.8649 1.48995 0.513639 0
M  V30 445 C 43.8119 1.6473 1.61656 0
M  V30 446 C 44.7819 0.488984 1.58739 0
M  V30 447 O 45.9669 0.714478 1.76918 0
M  V30 448 C 43.1069 1.7082 2.99858 0
M  V30 449 C 42.2199 2.9787 3.12885 0
M  V30 450 C 41.3549 2.95017 4.41744 0
M  V30 451 C 40.3939 4.16702 4.48359 0
M  V30 452 N 39.5309 4.11832 5.68629 0
M  V30 453 H 44.3709 2.58909 1.47547 0
M  V30 454 H 41.9079 1.28382 0.71808 0
M  V30 455 H 43.8659 1.72331 3.79944 0
M  V30 456 H 42.4959 0.801181 3.12699 0
M  V30 457 H 41.5479 3.06029 2.25944 0
M  V30 458 H 42.8599 3.8786 3.13633 0
M  V30 459 H 42.0139 2.95021 5.30139 0
M  V30 460 H 40.7529 2.02784 4.43542 0
M  V30 461 H 39.7579 4.16955 3.58369 0
M  V30 462 H 40.9829 5.10113 4.48287 0
M  V30 463 H 38.9289 3.22428 5.71293 0
M  V30 464 H 38.8459 4.95543 5.7094 0
M  V30 465 H 40.1139 4.1592 6.59266 0
M  V30 466 N 44.343 -0.763751 1.37857 0
M  V30 467 C 45.759 -1.06542 1.18832 0
M  V30 468 C 45.959 -2.01478 0.0299722 0
M  V30 469 O 45.015 -2.4458 -0.627447 0
M  V30 470 C 46.328 -1.65525 2.51042 0
M  V30 471 C 47.876 -1.77745 2.57635 0
M  V30 472 C 48.351 -2.4014 3.89996 0
M  V30 473 N 49.842 -2.47582 3.91481 0
M  V30 474 C 50.577 -2.96732 4.9065 0
M  V30 475 N 50.073 -3.45993 6.00217 0
M  V30 476 N 51.866 -2.95679 4.78048 0
M  V30 477 H 44.017 -0.133556 2.1198 0
M  V30 478 H 46.28 -0.121879 0.940133 0
M  V30 479 H 45.986 -1.03236 3.36207 0
M  V30 480 H 45.86 -2.64719 2.68707 0
M  V30 481 H 48.247 -2.39164 1.72872 0
M  V30 482 H 48.328 -0.772836 2.43846 0
M  V30 483 H 47.972 -1.79358 4.75177 0
M  V30 484 H 47.902 -3.41223 4.01092 0
M  V30 485 H 50.393 -2.1273 3.12337 0
M  V30 486 H 50.706 -3.81922 6.7183 0
M  V30 487 H 49.051 -3.44077 6.03851 0
M  V30 488 H 52.242 -2.56499 3.91568 0
M  V30 489 H 52.415 -3.33672 5.55488 0
M  V30 490 N 45.8211 -1.22559 -0.990812 0
M  V30 491 C 47.2321 -1.04791 -1.54518 0
M  V30 492 C 47.5831 0.387998 -1.92325 0
M  V30 493 O 46.7081 1.27328 -1.74976 0
M  V30 494 C 47.3031 -1.896 -2.80779 0
M  V30 495 C 45.8621 -1.76124 -3.32652 0
M  V30 496 C 45.0091 -1.8594 -2.05722 0
M  V30 497 H 47.9601 -1.36374 -0.811662 0
M  V30 498 H 47.9811 -1.41464 -3.53225 0
M  V30 499 H 47.4931 -2.94101 -2.53231 0
M  V30 500 H 45.5941 -0.743643 -3.65104 0
M  V30 501 H 45.7071 -2.58913 -4.03114 0
M  V30 502 H 44.0711 -1.29403 -2.19379 0
M  V30 503 H 44.8541 -2.91976 -1.80568 0
M  V30 504 N 47.2992 1.18797 -1.03562 0
M  V30 505 C 48.7102 1.70322 -0.764676 0
M  V30 506 C 49.0612 1.82708 0.714996 0
M  V30 507 O 48.1862 1.50299 1.55689 0
M  V30 508 C 48.7812 3.09356 -1.38145 0
M  V30 509 C 47.3402 3.58114 -1.15895 0
M  V30 510 C 46.4872 2.34798 -1.4753 0
M  V30 511 H 49.4382 1.03543 -1.20268 0
M  V30 512 H 49.4592 3.72378 -0.781977 0
M  V30 513 H 48.9712 3.00309 -2.45837 0
M  V30 514 H 47.0722 3.72464 -0.100544 0
M  V30 515 H 47.1852 4.4184 -1.8524 0
M  V30 516 H 45.5492 2.38464 -0.894829 0
M  V30 517 H 46.3322 2.28375 -2.56319 0
M  V30 518 N 48.7773 0.814389 1.34928 0
M  V30 519 C 50.1883 0.458364 1.80986 0
M  V30 520 C 50.5393 -1.02042 1.67577 0
M  V30 521 O 49.6643 -1.79352 1.21086 0
M  V30 522 C 50.2593 0.825212 3.28597 0
M  V30 523 C 48.8183 0.521677 3.72767 0
M  V30 524 C 47.9653 1.04668 2.56788 0
M  V30 525 H 50.9163 1.00533 1.22795 0
M  V30 526 H 50.9373 0.12571 3.80292 0
M  V30 527 H 50.4493 1.90154 3.38324 0
M  V30 528 H 48.5503 -0.545589 3.68584 0
M  V30 529 H 48.6633 1.05977 4.67232 0
M  V30 530 H 47.0273 0.468622 2.50352 0
M  V30 531 H 47.8103 2.12927 2.6929 0
M  V30 532 N 50.2554 -1.46986 0.568584 0
M  V30 533 C 51.6714 -1.57946 0.229189 0
M  V30 534 C 51.8714 -1.56567 -1.26843 0
M  V30 535 O 50.9274 -1.47511 -2.04931 0
M  V30 536 C 52.2404 -2.87963 0.865909 0
M  V30 537 C 53.7884 -3.01568 0.838188 0
M  V30 538 C 54.2634 -4.34301 1.45419 0
M  V30 539 N 55.7544 -4.40965 1.41788 0
M  V30 540 C 56.4894 -5.42256 1.86403 0
M  V30 541 N 55.9854 -6.50297 2.38926 0
M  V30 542 N 57.7784 -5.3337 1.77405 0
M  V30 543 H 49.9294 -1.46126 1.54146 0
M  V30 544 H 52.1924 -0.696156 0.643484 0
M  V30 545 H 51.8984 -2.94742 1.91886 0
M  V30 546 H 51.7724 -3.75423 0.365687 0
M  V30 547 H 54.1594 -2.94379 -0.206106 0
M  V30 548 H 54.2404 -2.1562 1.37629 0
M  V30 549 H 53.8844 -4.42247 2.49761 0
M  V30 550 H 53.8144 -5.19 0.891435 0
M  V30 551 H 56.3054 -3.63484 1.03381 0
M  V30 552 H 56.6184 -7.23777 2.70863 0
M  V30 553 H 54.9634 -6.51155 2.42944 0
M  V30 554 H 58.1544 -4.47865 1.3614 0
M  V30 555 H 58.3274 -6.12169 2.12492 0
M  V30 556 N 51.7335 -0.305618 -1.54608 0
M  V30 557 C 52.6965 0.555591 -2.22364 0
M  V30 558 C 53.6965 1.05768 -1.21119 0
M  V30 559 O 54.8865 0.952972 -1.45822 0
M  V30 560 C 52.0185 1.76974 -2.91364 0
M  V30 561 H 53.2115 -0.0364572 -2.99878 0
M  V30 562 H 50.7645 -0.0565007 -1.56198 0
M  V30 563 H 51.4995 2.40151 -2.17941 0
M  V30 564 H 51.2845 1.41732 -3.65588 0
M  V30 565 H 52.7745 2.38148 -3.43038 0
M  V30 566 N 53.2116 1.57565 -0.0334293 0
M  V30 567 C 54.6226 1.79746 0.504798 0
M  V30 568 C 54.9736 0.944091 1.71992 0
M  V30 569 O 54.0986 0.155694 2.15839 0
M  V30 570 C 54.6936 3.25997 0.922567 0
M  V30 571 C 53.2526 3.49159 1.40588 0
M  V30 572 C 52.3996 2.74785 0.372633 0
M  V30 573 H 55.3506 1.56565 -0.259436 0
M  V30 574 H 55.3716 3.35945 1.78666 0
M  V30 575 H 54.8836 3.88081 0.0379825 0
M  V30 576 H 52.9846 2.92332 2.31025 0
M  V30 577 H 53.0976 4.57873 1.41028 0
M  V30 578 H 51.4616 2.40391 0.841672 0
M  V30 579 H 52.2446 3.39587 -0.503559 0
M  V30 580 N 54.6897 -0.239769 1.55765 0
M  V30 581 C 55.9377 -0.964892 1.77579 0
M  V30 582 C 56.2587 -1.85582 0.598699 0
M  V30 583 O 55.5287 -1.92075 -0.385226 0
M  V30 584 H 54.1087 -0.359265 0.654933 0
M  V30 585 H 56.7707 -0.256001 1.93211 0
M  V30 586 H 55.8667 -1.58243 2.69009 0
M  V30 587 N 56.1678 -1.49265 -0.50573 0
M  V30 588 C 57.4448 -1.49012 -1.26707 0
M  V30 589 C 57.8248 -0.215205 -2.1 0
M  V30 590 O 57.1728 0.802547 -2.13943 0
M  V30 591 C 57.3828 -2.7663 -2.12783 0
M  V30 592 C 58.7308 -3.25932 -2.72127 0
M  V30 593 O 59.7548 -2.77715 -2.23054 0
M  V30 594 O 58.6138 -4.09897 -3.61451 0
M  V30 595 H 55.7078 -0.596197 -0.57313 0
M  V30 596 H 58.2538 -1.61524 -0.52039 0
M  V30 597 H 57.0258 -3.60916 -1.5118 0
M  V30 598 H 56.6488 -2.66956 -2.94653 0
M  V30 599 N 57.6459 0.756429 -1.3826 0
M  V30 600 C 59.0569 1.33359 -1.30661 0
M  V30 601 C 59.4079 1.96161 0.0388875 0
M  V30 602 O 58.5329 1.94874 0.940918 0
M  V30 603 C 59.1279 2.42477 -2.36622 0
M  V30 604 C 57.6869 2.95922 -2.3261 0
M  V30 605 C 56.8339 1.69275 -2.19639 0
M  V30 606 H 59.7849 0.55552 -1.4866 0
M  V30 607 H 59.8059 3.22345 -2.02174 0
M  V30 608 H 59.3179 1.96739 -3.34538 0
M  V30 609 H 57.4189 3.45996 -1.38267 0
M  V30 610 H 57.5319 3.50494 -3.26636 0
M  V30 611 H 55.8959 1.92793 -1.66442 0
M  V30 612 H 56.6789 1.25619 -3.19491 0
M  V30 613 N 59.124 1.23083 0.984299 0
M  V30 614 C 60.054 1.03292 2.09411 0
M  V30 615 C 61.035 -0.048923 1.7003 0
M  V30 616 O 62.22 0.114967 1.93859 0
M  V30 617 C 59.35 0.619155 3.41736 0
M  V30 618 C 58.304 1.64791 3.95004 0
M  V30 619 C 57.63 1.0897 5.23478 0
M  V30 620 C 58.93 3.03999 4.24714 0
M  V30 621 H 60.624 1.96119 2.26225 0
M  V30 622 H 58.17 0.944344 1.08711 0
M  V30 623 H 60.123 0.467777 4.18796 0
M  V30 624 H 58.847 -0.344786 3.24775 0
M  V30 625 H 57.506 1.78721 3.20085 0
M  V30 626 H 57.154 0.11686 5.02864 0
M  V30 627 H 56.854 1.77704 5.60085 0
M  V30 628 H 58.378 0.950093 6.03163 0
M  V30 629 H 59.792 2.93393 4.92538 0
M  V30 630 H 58.189 3.69936 4.72512 0
M  V30 631 H 59.259 3.53285 3.32142 0
M  V30 632 N 60.6021 -1.18246 1.0419 0
M  V30 633 C 61.8271 -1.92736 0.765996 0
M  V30 634 C 62.2521 -1.75728 -0.67091 0
M  V30 635 O 61.6101 -1.06825 -1.46486 0
M  V30 636 C 61.6581 -3.42148 1.13875 0
M  V30 637 O 60.7621 -4.11548 0.264954 0
M  V30 638 H 60.1031 -0.601238 0.281797 0
M  V30 639 H 62.6331 -1.49942 1.39207 0
M  V30 640 H 62.6431 -3.92858 1.1012 0
M  V30 641 H 61.3181 -3.53848 2.18551 0
M  V30 642 H 59.8951 -3.71137 0.362226 0
M  V30 643 N 62.0802 -0.821533 -1.34494 0
M  V30 644 C 63.3052 -0.420873 -2.03085 0
M  V30 645 C 63.7302 0.964915 -1.61465 0
M  V30 646 O 63.0882 1.62763 -0.798607 0
M  V30 647 C 63.1362 -0.529414 -3.56693 0
M  V30 648 O 62.2402 0.451302 -4.09923 0
M  V30 649 H 61.5812 -0.173489 -0.640935 0
M  V30 650 H 64.1112 -1.11157 -1.71771 0
M  V30 651 H 64.1212 -0.404671 -4.05988 0
M  V30 652 H 62.7962 -1.54014 -3.86332 0
M  V30 653 H 61.3732 0.285558 -3.71805 0
M  V30 654 N 63.5583 1.46682 -0.576371 0
M  V30 655 C 64.9693 1.86112 -0.148091 0
M  V30 656 C 65.3203 1.48073 1.2872 0
M  V30 657 O 64.4453 0.892656 1.97131 0
M  V30 658 C 65.0403 3.37786 -0.261982 0
M  V30 659 C 63.5993 3.76235 0.111384 0
M  V30 660 C 62.7463 2.70713 -0.60083 0
M  V30 661 H 65.6973 1.37927 -0.78497 0
M  V30 662 H 65.7183 3.77007 0.514364 0
M  V30 663 H 65.2303 3.6544 -1.30671 0
M  V30 664 H 63.3313 3.54198 1.15649 0
M  V30 665 H 63.4443 4.78391 -0.26052 0
M  V30 666 H 61.8083 2.54666 -0.0417783 0
M  V30 667 H 62.5913 3.01208 -1.64708 0
M  V30 668 N 65.0364 0.313813 1.54444 0
M  V30 669 C 66.2614 -0.296681 2.05267 0
M  V30 670 C 66.6864 -1.45757 1.18897 0
M  V30 671 O 66.0444 -1.80239 0.195886 0
M  V30 672 C 66.0924 -0.71831 3.53373 0
M  V30 673 O 65.1964 -1.82175 3.69981 0
M  V30 674 H 64.5374 -0.0554061 0.661684 0
M  V30 675 H 67.0674 0.459387 1.99376 0
M  V30 676 H 67.0774 -1.00364 3.95463 0
M  V30 677 H 65.7524 0.130821 4.15694 0
M  V30 678 H 64.3294 -1.53598 3.39797 0
M  V30 679 N 66.5145 -1.57545 0.0417849 0
M  V30 680 C 67.9255 -1.80011 -0.495259 0
M  V30 681 C 68.2765 -0.953199 -1.71489 0
M  V30 682 O 67.4015 -0.167138 -2.15754 0
M  V30 683 C 67.9965 -3.26482 -0.905265 0
M  V30 684 C 66.5555 -3.499 -1.38734 0
M  V30 685 C 65.7025 -2.74979 -0.358056 0
M  V30 686 H 68.6535 -1.56425 0.267736 0
M  V30 687 H 68.6745 -3.36887 -1.76882 0
M  V30 688 H 68.1865 -3.88096 -0.017401 0
M  V30 689 H 66.2875 -2.93553 -2.29471 0
M  V30 690 H 66.4005 -4.58615 -1.38598 0
M  V30 691 H 64.7645 -2.40834 -0.828912 0
M  V30 692 H 65.5475 -3.39315 0.521561 0
M  V30 693 N 67.9926 0.231505 -1.5589 0
M  V30 694 C 69.2206 0.974505 -1.82513 0
M  V30 695 C 69.6356 1.78344 -0.619591 0
M  V30 696 O 68.9926 1.77792 0.411848 0
M  V30 697 C 69.0436 1.90007 -3.07538 0
M  V30 698 O 68.7646 1.12385 -4.2344 0
M  V30 699 C 70.2656 2.75779 -3.47075 0
M  V30 700 H 67.4856 0.286065 -0.606966 0
M  V30 701 H 70.0296 0.249739 -2.02969 0
M  V30 702 H 68.1846 2.57891 -2.89086 0
M  V30 703 H 68.5986 1.75125 -4.944 0
M  V30 704 H 70.0726 3.36443 -4.37619 0
M  V30 705 H 70.5496 3.47672 -2.68367 0
M  V30 706 H 71.1556 2.13323 -3.67931 0
M  V30 707 N 69.4707 1.49531 0.497807 0
M  V30 708 C 70.4337 1.65916 1.58128 0
M  V30 709 C 71.4337 0.530825 1.51786 0
M  V30 710 O 72.6237 0.797342 1.54881 0
M  V30 711 C 69.7557 1.65951 2.9778 0
M  V30 712 H 70.9487 2.62556 1.44929 0
M  V30 713 H 68.5017 1.38611 0.722275 0
M  V30 714 H 69.2367 0.709065 3.16453 0
M  V30 715 H 69.0217 2.47897 3.03792 0
M  V30 716 H 70.5117 1.80673 3.76493 0
M  V30 717 N 70.9488 -0.749086 1.3866 0
M  V30 718 C 71.8788 -1.8764 1.38973 0
M  V30 719 C 72.8598 -1.68178 0.255004 0
M  V30 720 O 74.0448 -1.88704 0.458754 0
M  V30 721 C 71.1748 -3.25222 1.21851 0
M  V30 722 C 70.1288 -3.59295 2.32575 0
M  V30 723 C 69.4548 -4.95663 2.00555 0
M  V30 724 C 70.7548 -3.63709 3.7485 0
M  V30 725 H 72.4488 -1.87635 2.3331 0
M  V30 726 H 69.9948 -0.901329 1.12303 0
M  V30 727 H 71.9478 -4.03746 1.20695 0
M  V30 728 H 70.6718 -3.25719 0.239775 0
M  V30 729 H 69.3308 -2.83093 2.32925 0
M  V30 730 H 68.9788 -4.92724 1.01154 0
M  V30 731 H 68.6788 -5.19429 2.74714 0
M  V30 732 H 70.2028 -5.7656 2.01024 0
M  V30 733 H 71.6168 -4.32338 3.76506 0
M  V30 734 H 70.0138 -3.98986 4.48252 0
M  V30 735 H 71.0838 -2.63834 4.06841 0
M  V30 736 N 72.4269 -1.23603 -0.977757 0
M  V30 737 C 73.8379 -1.06424 -1.53398 0
M  V30 738 C 74.1889 0.367578 -1.92726 0
M  V30 739 O 73.3139 1.25465 -1.76316 0
M  V30 740 C 73.9089 -1.92568 -2.78753 0
M  V30 741 C 72.4679 -1.79642 -3.30765 0
M  V30 742 C 71.6149 -1.88111 -2.03739 0
M  V30 743 H 74.5659 -1.37227 -0.797152 0
M  V30 744 H 74.5869 -1.45203 -3.51705 0
M  V30 745 H 74.0989 -2.96771 -2.50098 0
M  V30 746 H 72.1999 -0.782325 -3.64294 0
M  V30 747 H 72.3129 -2.63174 -4.00345 0
M  V30 748 H 70.6769 -1.31723 -2.17994 0
M  V30 749 H 71.4599 -2.93875 -1.77461 0
M  V30 750 N 73.905 1.17692 -1.04816 0
M  V30 751 C 74.837 2.21103 -0.603822 0
M  V30 752 C 75.85 1.59411 0.33046 0
M  V30 753 O 77.039 1.7807 0.12379 0
M  V30 754 C 74.139 3.38623 0.136898 0
M  V30 755 C 73.312 4.29888 -0.807137 0
M  V30 756 C 72.371 5.26088 -0.10836 0
M  V30 757 O 71.397 5.64353 -0.741232 0
M  V30 758 N 72.599 5.68882 1.15558 0
M  V30 759 H 75.364 2.59848 -1.49329 0
M  V30 760 H 72.925 1.32553 -0.929587 0
M  V30 761 H 74.917 4.00009 0.614401 0
M  V30 762 H 73.487 2.98508 0.927993 0
M  V30 763 H 72.707 3.65993 -1.46434 0
M  V30 764 H 73.995 4.87759 -1.44807 0
M  V30 765 H 73.393 5.39861 1.69015 0
M  V30 766 H 71.95 6.32429 1.57722 0
M  V30 767 N 75.3831 0.828654 1.34056 0
M  V30 768 C 76.6311 0.41863 1.97717 0
M  V30 769 C 76.9521 -1.02314 1.66002 0
M  V30 770 O 76.2221 -1.71119 0.953683 0
M  V30 771 H 74.8021 0.151809 0.731412 0
M  V30 772 H 77.4641 1.05936 1.63596 0
M  V30 773 H 76.5601 0.542318 3.07352 0
M  V30 774 N 76.8612 -1.46375 0.584142 0
M  V30 775 C 78.1092 -2.01978 0.0701287 0
M  V30 776 C 78.4302 -1.4579 -1.295 0
M  V30 777 O 77.7002 -0.64314 -1.85042 0
M  V30 778 H 76.2802 -0.746648 0.0229345 0
M  V30 779 H 78.9422 -1.79461 0.760245 0
M  V30 780 H 78.0382 -3.121 0.0022064 0
M  V30 781 N 78.3393 -0.321999 -1.54275 0
M  V30 782 C 79.5643 0.285791 -2.05422 0
M  V30 783 C 79.9893 1.45124 -1.19669 0
M  V30 784 O 79.3473 1.80132 -0.205441 0
M  V30 785 C 79.3953 0.69956 -3.53749 0
M  V30 786 O 78.4993 1.8021 -3.70942 0
M  V30 787 H 77.8403 0.0518962 -0.661969 0
M  V30 788 H 80.3703 -0.469954 -1.9913 0
M  V30 789 H 80.3803 0.982649 -3.9599 0
M  V30 790 H 79.0553 -0.152864 -4.15619 0
M  V30 791 H 77.6323 1.51794 -3.40607 0
M  V30 792 N 79.8174 1.5752 -0.0501392 0
M  V30 793 C 80.7674 2.07981 0.934231 0
M  V30 794 C 81.7514 0.984745 1.27246 0
M  V30 795 O 82.9434 1.24809 1.25506 0
M  V30 796 C 80.0724 2.62751 2.20945 0
M  V30 797 C 79.1584 3.79225 1.89865 0
M  V30 798 N 79.5494 4.89036 1.29142 0
M  V30 799 C 77.8474 3.88111 2.19741 0
M  V30 800 C 78.5484 5.70084 1.15669 0
M  V30 801 N 77.5244 5.17659 1.65923 0
M  V30 802 H 81.3264 2.90277 0.460053 0
M  V30 803 H 78.8404 1.61665 0.15434 0
M  V30 804 H 80.8374 2.97205 2.9236 0
M  V30 805 H 79.4974 1.81894 2.6897 0
M  V30 806 H 80.5084 5.08854 0.963756 0
M  V30 807 H 77.1854 3.18194 2.70293 0
M  V30 808 H 78.5754 6.68395 0.685356 0
M  V30 809 N 81.2955 -0.223234 1.56011 0
M  V30 810 C 82.5235 -0.964812 1.83027 0
M  V30 811 C 82.9385 -1.78013 0.62904 0
M  V30 812 O 82.2955 -1.78008 -0.402414 0
M  V30 813 C 82.3465 -1.88373 3.08542 0
M  V30 814 O 82.0675 -1.10137 4.2403 0
M  V30 815 C 83.5685 -2.73934 3.48533 0
M  V30 816 H 80.7885 -0.282842 0.608475 0
M  V30 817 H 83.3325 -0.238971 2.03099 0
M  V30 818 H 81.4875 -2.56354 2.9045 0
M  V30 819 H 81.9015 -1.72501 4.95322 0
M  V30 820 H 83.3755 -3.34117 4.39397 0
M  V30 821 H 83.8525 -3.46244 2.70207 0
M  V30 822 H 84.4585 -2.11369 3.69057 0
M  V30 823 N 82.7736 -1.49793 -0.48987 0
M  V30 824 C 83.6836 -1.70036 -1.61632 0
M  V30 825 C 84.6996 -0.583102 -1.63939 0
M  V30 826 O 85.8756 -0.859169 -1.82154 0
M  V30 827 C 82.9406 -1.77277 -2.97949 0
M  V30 828 C 82.0016 -3.00918 -3.06181 0
M  V30 829 C 81.2346 -3.07804 -4.35996 0
M  V30 830 O 81.4576 -2.21982 -5.25433 0
M  V30 831 O 80.3916 -4.00369 -4.49431 0
M  V30 832 H 84.2176 -2.65486 -1.47482 0
M  V30 833 H 81.8026 -1.33666 -0.667362 0
M  V30 834 H 83.6846 -1.84329 -3.78947 0
M  V30 835 H 82.3596 -0.850076 -3.12339 0
M  V30 836 H 81.2666 -2.99377 -2.2433 0
M  V30 837 H 82.5996 -3.92704 -2.96723 0
M  V30 838 N 84.2517 0.741722 -1.39055 0
M  V30 839 C 85.4797 1.53098 -1.39171 0
M  V30 840 C 85.8947 1.88794 0.0155099 0
M  V30 841 O 85.2517 1.53626 0.985159 0
M  V30 842 C 85.3027 2.82274 -2.2584 0
M  V30 843 O 85.0237 2.48097 -3.61081 0
M  V30 844 C 86.5247 3.76343 -2.34266 0
M  V30 845 H 83.7447 0.473335 -0.4756 0
M  V30 846 H 86.2887 0.917045 -1.82785 0
M  V30 847 H 84.4437 3.40015 -1.85656 0
M  V30 848 H 84.8577 3.31029 -4.06842 0
M  V30 849 H 86.3317 4.63898 -2.9917 0
M  V30 850 H 86.8087 4.17619 -1.35982 0
M  V30 851 H 87.4147 3.24523 -2.74891 0
M  V30 852 N 85.7298 1.2412 0.971189 0
M  V30 853 C 86.6398 1.04747 2.09917 0
M  V30 854 C 87.6558 -0.0107162 1.73997 0
M  V30 855 O 88.8318 0.186714 2.00533 0
M  V30 856 C 85.8968 0.650828 3.40537 0
M  V30 857 C 84.9578 1.7851 3.90426 0
M  V30 858 C 84.1908 1.40729 5.14812 0
M  V30 859 O 84.4138 0.29557 5.69634 0
M  V30 860 O 83.3478 2.23168 5.58999 0
M  V30 861 H 87.1738 1.99304 2.29154 0
M  V30 862 H 84.7588 1.02908 1.08307 0
M  V30 863 H 86.6408 0.440992 4.19086 0
M  V30 864 H 85.3158 -0.265649 3.22608 0
M  V30 865 H 84.2228 2.04966 3.12953 0
M  V30 866 H 85.5558 2.68023 4.12825 0
M  V30 867 N 87.2079 -1.17134 1.05439 0
M  V30 868 C 88.4849 -1.83411 0.679699 0
M  V30 869 C 88.8649 -1.9368 -0.839726 0
M  V30 870 O 88.2129 -1.47325 -1.74664 0
M  V30 871 C 88.4229 -3.20918 1.37159 0
M  V30 872 C 89.7709 -3.96796 1.51123 0
M  V30 873 O 90.7949 -3.30406 1.3308 0
M  V30 874 O 89.6539 -5.15778 1.80651 0
M  V30 875 H 86.7479 -0.79154 0.239569 0
M  V30 876 H 89.2939 -1.24411 1.15413 0
M  V30 877 H 88.0659 -3.08428 2.40807 0
M  V30 878 H 87.6889 -3.87587 0.886674 0
M  V30 879 N 88.686 -0.835752 -1.33615 0
M  V30 880 C 90.102 -0.523139 -1.50783 0
M  V30 881 C 90.302 0.950171 -1.77691 0
M  V30 882 O 89.358 1.73411 -1.83534 0
M  V30 883 C 90.671 -1.39378 -2.66448 0
M  V30 884 C 92.219 -1.39223 -2.80332 0
M  V30 885 C 92.694 -2.24765 -3.99055 0
M  V30 886 N 94.185 -2.22458 -4.06284 0
M  V30 887 C 94.92 -2.85386 -4.97336 0
M  V30 888 N 94.416 -3.57354 -5.93523 0
M  V30 889 N 96.209 -2.74872 -4.90308 0
M  V30 890 H 88.36 -1.78952 -1.14411 0
M  V30 891 H 90.623 -0.763297 -0.562212 0
M  V30 892 H 90.329 -2.44061 -2.53234 0
M  V30 893 H 90.203 -1.0676 -3.61776 0
M  V30 894 H 92.59 -0.353136 -2.92979 0
M  V30 895 H 92.671 -1.75846 -1.85773 0
M  V30 896 H 92.315 -3.28732 -3.87167 0
M  V30 897 H 92.245 -1.85485 -4.92852 0
M  V30 898 H 94.736 -1.70119 -3.37443 0
M  V30 899 H 95.049 -4.02584 -6.59656 0
M  V30 900 H 93.394 -3.61461 -5.93608 0
M  V30 901 H 96.585 -2.18213 -4.14126 0
M  V30 902 H 96.758 -3.24199 -5.61069 0
M  V30 903 N 90.1641 1.46063 -0.591896 0
M  V30 904 C 91.0941 2.33172 0.123673 0
M  V30 905 C 92.0751 1.45897 0.87453 0
M  V30 906 O 93.2601 1.74698 0.848181 0
M  V30 907 C 90.3901 3.28336 1.13194 0
M  V30 908 C 89.3441 4.25124 0.495324 0
M  V30 909 C 88.6701 5.09863 1.61071 0
M  V30 910 C 89.9701 5.19143 -0.573425 0
M  V30 911 H 91.6641 2.93252 -0.603646 0
M  V30 912 H 89.2101 1.41014 -0.291741 0
M  V30 913 H 91.1631 3.88137 1.64097 0
M  V30 914 H 89.8871 2.66383 1.88965 0
M  V30 915 H 88.5461 3.66599 0.00729452 0
M  V30 916 H 88.1941 4.44288 2.35832 0
M  V30 917 H 87.8941 5.75417 1.19035 0
M  V30 918 H 89.4181 5.72529 2.12233 0
M  V30 919 H 90.8321 5.73106 -0.1491 0
M  V30 920 H 89.2291 5.93089 -0.914636 0
M  V30 921 H 90.2991 4.62519 -1.45617 0
M  V30 922 N 91.6422 0.330177 1.54103 0
M  V30 923 C 92.8892 -0.270405 2.00686 0
M  V30 924 C 93.2172 -1.51621 1.21825 0
M  V30 925 O 92.4722 -1.93536 0.29025 0
M  V30 926 C 92.7712 -0.643134 3.51566 0
M  V30 927 C 92.4372 0.504251 4.48072 0
M  V30 928 C 91.0992 0.819163 4.74176 0
M  V30 929 C 93.4512 1.27465 5.05373 0
M  V30 930 C 90.7792 1.90708 5.5484 0
M  V30 931 C 93.1312 2.35271 5.87223 0
M  V30 932 C 91.7952 2.67336 6.11627 0
M  V30 933 H 91.0652 -0.0989482 0.734364 0
M  V30 934 H 93.7122 0.455324 1.86008 0
M  V30 935 H 92.0172 -1.44938 3.64006 0
M  V30 936 H 93.7142 -1.11949 3.85056 0
M  V30 937 H 90.3042 0.248733 4.27878 0
M  V30 938 H 94.4882 1.04462 4.85182 0
M  V30 939 H 89.7442 2.15991 5.71977 0
M  V30 940 H 93.9182 2.95405 6.30641 0
M  V30 941 H 91.5452 3.51763 6.73919 0
M  V30 942 N 93.1203 -1.57491 0.0584922 0
M  V30 943 C 94.0673 -2.11958 -0.913376 0
M  V30 944 C 95.0373 -1.02875 -1.30407 0
M  V30 945 O 96.2223 -1.30464 -1.39226 0
M  V30 946 C 93.3623 -2.67497 -2.18035 0
M  V30 947 C 92.4753 -3.90691 -1.84349 0
M  V30 948 C 91.6103 -4.3452 -3.05559 0
M  V30 949 C 90.6493 -5.50395 -2.67827 0
M  V30 950 N 89.7863 -5.89244 -3.81754 0
M  V30 951 H 94.6263 -2.94704 -0.442017 0
M  V30 952 H 92.1633 -1.45643 -0.206545 0
M  V30 953 H 94.1213 -2.978 -2.92183 0
M  V30 954 H 92.7513 -1.87537 -2.62735 0
M  V30 955 H 91.8033 -3.66934 -1.00319 0
M  V30 956 H 93.1153 -4.7489 -1.5258 0
M  V30 957 H 92.2693 -4.66414 -3.87998 0
M  V30 958 H 91.0083 -3.49147 -3.40511 0
M  V30 959 H 90.0133 -5.18165 -1.83806 0
M  V30 960 H 91.2383 -6.3749 -2.34059 0
M  V30 961 H 89.1843 -5.06823 -4.16493 0
M  V30 962 H 89.1013 -6.68151 -3.53708 0
M  V30 963 H 90.3693 -6.25756 -4.64811 0
M  V30 964 N 94.5984 0.214957 -1.56127 0
M  V30 965 C 95.5484 1.27006 -1.8935 0
M  V30 966 C 96.5324 1.41969 -0.757202 0
M  V30 967 O 97.7244 1.44673 -1.01973 0
M  V30 968 C 94.8534 2.61911 -2.2194 0
M  V30 969 C 93.9394 2.50822 -3.41978 0
M  V30 970 N 94.3304 2.09391 -4.60423 0
M  V30 971 C 92.6284 2.81765 -3.45723 0
M  V30 972 C 93.3294 2.09712 -5.42582 0
M  V30 973 N 92.3054 2.50454 -4.82466 0
M  V30 974 H 96.1074 0.940734 -2.78437 0
M  V30 975 H 93.6214 0.423492 -1.56781 0
M  V30 976 H 95.6184 3.38096 -2.43919 0
M  V30 977 H 94.2784 2.95684 -1.34169 0
M  V30 978 H 95.2894 1.80416 -4.85459 0
M  V30 979 H 91.9664 3.19865 -2.68314 0
M  V30 980 H 93.3564 1.79748 -6.4741 0
M  V30 981 N 96.0765 1.50051 0.48192 0
M  V30 982 C 97.0065 1.71046 1.58951 0
M  V30 983 C 97.9875 0.559288 1.60642 0
M  V30 984 O 99.1725 0.797243 1.77081 0
M  V30 985 C 96.3025 1.79462 2.97339 0
M  V30 986 C 95.2565 2.94558 3.10515 0
M  V30 987 C 94.5825 2.88105 4.50444 0
M  V30 988 C 95.8825 4.35227 2.88747 0
M  V30 989 H 97.5765 2.6378 1.41635 0
M  V30 990 H 95.1225 1.26936 0.679942 0
M  V30 991 H 97.0755 1.92734 3.74742 0
M  V30 992 H 95.7995 0.833412 3.15788 0
M  V30 993 H 94.4585 2.80918 2.35543 0
M  V30 994 H 94.1065 1.89853 4.65795 0
M  V30 995 H 93.8065 3.65366 4.60197 0
M  V30 996 H 95.3305 3.03412 5.29881 0
M  V30 997 H 96.7445 4.49449 3.55905 0
M  V30 998 H 95.1415 5.13856 3.09955 0
M  V30 999 H 96.2115 4.48347 1.84696 0
M  V30 1000 N 97.5546 -0.734337 1.39446 0
M  V30 1001 C 98.8016 -1.49391 1.36706 0
M  V30 1002 C 99.1296 -1.94465 -0.0367813 0
M  V30 1003 O 98.3846 -1.67154 -1.01774 0
M  V30 1004 C 98.6836 -2.74711 2.28623 0
M  V30 1005 C 98.3496 -2.48501 3.76242 0
M  V30 1006 C 97.0116 -2.41062 4.16464 0
M  V30 1007 C 99.3636 -2.26098 4.69606 0
M  V30 1008 C 96.6916 -2.09262 5.48112 0
M  V30 1009 C 99.0436 -1.95814 6.01531 0
M  V30 1010 C 97.7076 -1.86845 6.40816 0
M  V30 1011 H 96.9776 -0.546661 0.500243 0
M  V30 1012 H 99.6246 -0.842788 1.71957 0
M  V30 1013 H 97.9296 -3.44569 1.86492 0
M  V30 1014 H 99.6266 -3.32741 2.23796 0
M  V30 1015 H 96.2166 -2.55169 3.44364 0
M  V30 1016 H 100.401 -2.30812 4.39363 0
M  V30 1017 H 95.6566 -2.00841 5.77471 0
M  V30 1018 H 99.8306 -1.77488 6.73403 0
M  V30 1019 H 97.4576 -1.6197 7.42745 0
M  V30 1020 N 99.0327 -1.24633 -0.964593 0
M  V30 1021 C 100.449 -1.01239 -1.2338 0
M  V30 1022 C 100.649 0.2769 -1.99588 0
M  V30 1023 O 99.7047 0.992241 -2.32187 0
M  V30 1024 C 101.018 -2.22937 -2.01791 0
M  V30 1025 C 102.566 -2.27594 -2.14872 0
M  V30 1026 C 103.041 -3.48921 -2.96678 0
M  V30 1027 N 104.532 -3.49257 -3.04259 0
M  V30 1028 C 105.267 -4.39795 -3.67924 0
M  V30 1029 N 104.763 -5.40591 -4.33281 0
M  V30 1030 N 106.556 -4.275 -3.64966 0
M  V30 1031 H 98.7067 -2.0748 -0.454502 0
M  V30 1032 H 100.97 -0.910647 -0.26349 0
M  V30 1033 H 100.676 -3.16587 -1.53184 0
M  V30 1034 H 100.55 -2.25306 -3.02518 0
M  V30 1035 H 102.937 -1.34473 -2.6268 0
M  V30 1036 H 103.018 -2.2925 -1.13482 0
M  V30 1037 H 102.662 -4.42359 -2.49562 0
M  V30 1038 H 102.592 -3.4451 -3.98272 0
M  V30 1039 H 105.083 -2.76337 -2.57771 0
M  V30 1040 H 105.396 -6.05904 -4.79687 0
M  V30 1041 H 103.741 -5.44475 -4.3194 0
M  V30 1042 H 106.932 -3.47987 -3.13086 0
M  V30 1043 H 107.105 -4.98258 -4.14298 0
M  V30 1044 N 100.511 1.16574 -1.06058 0
M  V30 1045 C 101.759 1.86677 -0.77434 0
M  V30 1046 C 102.08 1.81959 0.701147 0
M  V30 1047 O 101.35 1.2515 1.50713 0
M  V30 1048 H 99.9298 0.691134 -0.283449 0
M  V30 1049 H 102.592 1.41378 -1.34158 0
M  V30 1050 H 101.688 2.92181 -1.09711 0
M  V30 1051 N 101.989 0.842826 1.3317 0
M  V30 1052 C 103.219 0.453397 2.01564 0
M  V30 1053 C 103.627 -0.951147 1.63554 0
M  V30 1054 O 102.97 -1.63021 0.846746 0
M  V30 1055 C 103.032 0.499013 3.5602 0
M  V30 1056 C 102.696 1.86037 4.1742 0
M  V30 1057 C 103.693 2.82416 4.36506 0
M  V30 1058 C 101.378 2.15428 4.53757 0
M  V30 1059 C 103.372 4.06346 4.91082 0
M  V30 1060 C 101.059 3.39615 5.0804 0
M  V30 1061 C 102.057 4.3489 5.26649 0
M  V30 1062 O 101.745 5.5688 5.79776 0
M  V30 1063 H 101.477 0.177871 0.652179 0
M  V30 1064 H 104.031 1.13808 1.70988 0
M  V30 1065 H 102.261 -0.242467 3.85939 0
M  V30 1066 H 103.95 0.126852 4.05702 0
M  V30 1067 H 104.716 2.6101 4.08777 0
M  V30 1068 H 100.595 1.42061 4.38565 0
M  V30 1069 H 104.139 4.80722 5.05522 0
M  V30 1070 H 100.036 3.60876 5.352 0
M  V30 1071 H 100.804 5.58674 5.98185 0
M  V30 1072 N 103.467 -1.45747 0.599634 0
M  V30 1073 C 104.415 -2.322 -0.136426 0
M  V30 1074 C 105.409 -1.45497 -0.867583 0
M  V30 1075 O 106.615 -1.62027 -0.78405 0
M  V30 1076 H 102.99 -0.749368 -0.0628588 0
M  V30 1077 H 104.961 -2.92072 0.611281 0
M  V30 1078 C 103.71 -3.28974 -1.12567 0
M  V30 1079 H 103.033 -3.9568 -0.572484 0
M  V30 1080 H 104.473 -3.92212 -1.61077 0
M  V30 1081 C 102.932 -2.55561 -2.19523 0
M  V30 1082 O 103.462 -2.33111 -3.27143 0
M  V30 1083 N 101.668 -2.15832 -1.94589 0
M  V30 1084 H 101.215 -2.3429 -1.07078 0
M  V30 1085 H 101.173 -1.67034 -2.66359 0
M  V30 1086 N 104.945 -0.338344 -1.53925 0
M  V30 1087 C 106.361 0.0137736 -1.59594 0
M  V30 1088 C 106.561 1.49186 -1.35447 0
M  V30 1089 O 105.617 2.24987 -1.14616 0
M  V30 1090 C 106.93 -0.41773 -2.97784 0
M  V30 1091 C 108.478 -0.369633 -3.1081 0
M  V30 1092 C 108.953 -0.776524 -4.51369 0
M  V30 1093 N 110.444 -0.730506 -4.57403 0
M  V30 1094 C 111.179 -1.01736 -5.64303 0
M  V30 1095 N 110.675 -1.3721 -6.79077 0
M  V30 1096 N 112.468 -0.941942 -5.54151 0
M  V30 1097 H 104.619 -1.3012 -1.67876 0
M  V30 1098 H 106.882 -0.530082 -0.78595 0
M  V30 1099 H 106.588 -1.44811 -3.20504 0
M  V30 1100 H 106.462 0.209729 -3.76616 0
M  V30 1101 H 108.849 0.651568 -2.87817 0
M  V30 1102 H 108.93 -1.03223 -2.34049 0
M  V30 1103 H 108.574 -1.79571 -4.75096 0
M  V30 1104 H 108.504 -0.0914649 -5.26521 0
M  V30 1105 H 110.995 -0.468783 -3.74981 0
M  V30 1106 H 111.308 -1.57597 -7.5656 0
M  V30 1107 H 109.653 -1.4105 -6.80536 0
M  V30 1108 H 112.844 -0.664184 -4.63364 0
M  V30 1109 H 113.017 -1.16884 -6.37371 0
M  V30 1110 N 106.423 1.57458 -0.0668435 0
M  V30 1111 C 107.669 1.94401 0.598316 0
M  V30 1112 C 108.024 0.946335 1.67518 0
M  V30 1113 O 107.317 -0.0321442 1.91573 0
M  V30 1114 C 107.511 3.35784 1.22409 0
M  V30 1115 C 107.34 4.49212 0.209367 0
M  V30 1116 C 106.11 5.04887 -0.204218 0
M  V30 1117 C 108.308 5.11335 -0.551431 0
M  V30 1118 N 106.29 6.01854 -1.21016 0
M  V30 1119 C 107.661 6.03754 -1.41 0
M  V30 1120 C 109.716 4.94173 -0.608038 0
M  V30 1121 C 108.419 6.80854 -2.32013 0
M  V30 1122 C 110.445 5.71912 -1.50566 0
M  V30 1123 C 109.807 6.63976 -2.35191 0
M  V30 1124 H 105.906 0.758538 0.190114 0
M  V30 1125 H 108.49 1.94175 -0.142832 0
M  V30 1126 H 106.661 3.36757 1.93518 0
M  V30 1127 H 108.393 3.59976 1.84931 0
M  V30 1128 H 105.148 4.73266 0.177908 0
M  V30 1129 H 105.572 6.55035 -1.71049 0
M  V30 1130 H 110.214 4.22788 0.032022 0
M  V30 1131 H 107.932 7.5152 -2.97057 0
M  V30 1132 H 111.518 5.60656 -1.55423 0
M  V30 1133 H 110.398 7.2308 -3.03522 0
M  V30 1134 N 107.901 -0.206675 1.56239 0
M  V30 1135 C 108.864 -1.23976 1.92776 0
M  V30 1136 C 109.864 -1.39041 0.807729 0
M  V30 1137 O 111.054 -1.37051 1.0753 0
M  V30 1138 C 108.186 -2.61112 2.19165 0
M  V30 1139 H 109.379 -0.927764 2.85189 0
M  V30 1140 H 106.932 -0.447718 1.4975 0
M  V30 1141 H 107.667 -2.97386 1.29352 0
M  V30 1142 H 107.452 -2.51552 3.00772 0
M  V30 1143 H 108.942 -3.35633 2.48476 0
M  V30 1144 N 109.379 -1.50304 -0.473955 0
M  V30 1145 C 110.795 -1.37667 -0.807466 0
M  V30 1146 C 110.995 -0.430555 -1.96846 0
M  V30 1147 O 110.051 0.127874 -2.52176 0
M  V30 1148 C 111.364 -2.78974 -1.12223 0
M  V30 1149 C 112.912 -2.87868 -1.22885 0
M  V30 1150 C 113.387 -4.30003 -1.57676 0
M  V30 1151 N 114.878 -4.3294 -1.64673 0
M  V30 1152 C 115.613 -5.3991 -1.93091 0
M  V30 1153 N 115.109 -6.57092 -2.1955 0
M  V30 1154 N 116.902 -5.27351 -1.94569 0
M  V30 1155 H 109.053 -2.10394 0.291212 0
M  V30 1156 H 111.316 -0.945575 0.0677609 0
M  V30 1157 H 111.022 -3.50031 -0.342229 0
M  V30 1158 H 110.896 -3.16038 -2.05913 0
M  V30 1159 H 113.283 -2.17032 -1.99953 0
M  V30 1160 H 113.364 -2.54352 -0.271814 0
M  V30 1161 H 113.008 -5.01375 -0.81149 0
M  V30 1162 H 112.938 -4.61004 -2.54525 0
M  V30 1163 H 115.429 -3.48441 -1.46277 0
M  V30 1164 H 115.742 -7.34425 -2.405 0
M  V30 1165 H 114.087 -6.60272 -2.16948 0
M  V30 1166 H 117.278 -4.34801 -1.73394 0
M  V30 1167 H 117.451 -6.10805 -2.16381 0
M  V30 1168 N 110.857 0.726932 -1.39834 0
M  V30 1169 C 112.268 1.30558 -1.3346 0
M  V30 1170 C 112.619 1.962 -0.00273003 0
M  V30 1171 O 111.744 1.96826 0.899371 0
M  V30 1172 C 112.339 2.37404 -2.41713 0
M  V30 1173 C 110.898 2.90921 -2.38835 0
M  V30 1174 C 110.045 1.64578 -2.2318 0
M  V30 1175 H 112.996 0.523862 -1.49804 0
M  V30 1176 H 113.017 3.17984 -2.08966 0
M  V30 1177 H 112.529 1.89599 -3.38635 0
M  V30 1178 H 110.63 3.42985 -1.45575 0
M  V30 1179 H 110.743 3.43487 -3.33997 0
M  V30 1180 H 109.107 1.89219 -1.70494 0
M  V30 1181 H 109.89 1.18814 -3.22084 0
M  V30 1182 N 112.336 1.25143 0.95797 0
M  V30 1183 C 113.582 1.09855 1.70469 0
M  V30 1184 C 113.915 -0.360187 1.90831 0
M  V30 1185 O 113.19 -1.26568 1.47685 0
M  V30 1186 C 113.473 1.8497 3.08963 0
M  V30 1187 C 113.326 3.38652 2.96032 0
M  V30 1188 C 114.645 1.63016 4.08795 0
M  V30 1189 H 111.764 0.400465 0.618706 0
M  V30 1190 H 114.406 1.53933 1.11376 0
M  V30 1191 H 112.556 1.47505 3.59409 0
M  V30 1192 H 114.228 3.85772 2.52938 0
M  V30 1193 H 112.471 3.66534 2.32025 0
M  V30 1194 H 113.142 3.8642 3.94187 0
M  V30 1195 H 115.618 1.95625 3.67247 0
M  V30 1196 H 114.494 2.18015 5.03747 0
M  V30 1197 H 114.755 0.570692 4.38401 0
M  V30 1198 N 113.814 -1.1601 1.06675 0
M  V30 1199 C 115.225 -1.68235 0.809565 0
M  V30 1200 C 115.576 -1.8454 -0.666303 0
M  V30 1201 O 114.701 -1.54374 -1.5165 0
M  V30 1202 C 115.296 -3.05585 1.46299 0
M  V30 1203 C 113.855 -3.54915 1.25349 0
M  V30 1204 C 113.002 -2.30804 1.53703 0
M  V30 1205 H 115.953 -1.00318 1.22971 0
M  V30 1206 H 115.974 -3.70174 0.880431 0
M  V30 1207 H 115.486 -2.93686 2.53713 0
M  V30 1208 H 113.587 -3.72067 0.199261 0
M  V30 1209 H 113.7 -4.36774 1.9689 0
M  V30 1210 H 112.064 -2.36007 0.957739 0
M  V30 1211 H 112.847 -2.21499 2.62284 0
M  V30 1212 N 115.292 -0.849877 -1.32721 0
M  V30 1213 C 116.24 -0.279745 -2.30912 0
M  V30 1214 C 117.234 0.594278 -1.58634 0
M  V30 1215 O 118.44 0.482613 -1.73409 0
M  V30 1216 H 114.815 -0.0717521 -0.748569 0
M  V30 1217 H 116.786 -1.12222 -2.76494 0
M  V30 1218 C 115.535 0.521108 -3.43773 0
M  V30 1219 H 114.858 -0.142141 -3.99547 0
M  V30 1220 H 116.298 0.885693 -4.14646 0
M  V30 1221 C 114.757 1.70442 -2.90605 0
M  V30 1222 O 115.287 2.8034 -2.87702 0
M  V30 1223 N 113.493 1.52991 -2.47067 0
M  V30 1224 H 113.04 0.635914 -2.49628 0
M  V30 1225 H 112.998 2.32311 -2.11847 0
M  V30 1226 N 116.77 1.45427 -0.607355 0
M  V30 1227 C 117.998 2.06614 -0.108814 0
M  V30 1228 C 118.413 1.45204 1.2067 0
M  V30 1229 O 117.77 0.566132 1.73497 0
M  V30 1230 C 117.821 3.61481 0.0375347 0
M  V30 1231 O 117.542 4.20598 -1.22593 0
M  V30 1232 C 119.043 4.39652 0.567561 0
M  V30 1233 H 116.263 0.66747 -0.0687351 0
M  V30 1234 H 118.807 1.86675 -0.835022 0
M  V30 1235 H 116.962 3.80762 0.714068 0
M  V30 1236 H 117.376 5.1377 -1.05547 0
M  V30 1237 H 118.85 5.48518 0.61905 0
M  V30 1238 H 119.327 4.09417 1.58978 0
M  V30 1239 H 119.933 4.25234 -0.0749202 0
M  V30 1240 N 118.248 0.346503 1.53744 0
M  V30 1241 C 119.473 -0.253074 2.0585 0
M  V30 1242 C 119.898 -1.43202 1.21962 0
M  V30 1243 O 119.256 -1.79783 0.234073 0
M  V30 1244 C 119.304 -0.643193 3.54817 0
M  V30 1245 O 118.408 -1.74286 3.73762 0
M  V30 1246 H 117.749 -0.0413583 0.662711 0
M  V30 1247 H 120.279 0.501574 1.98357 0
M  V30 1248 H 120.289 -0.919526 3.97503 0
M  V30 1249 H 118.964 0.218966 4.15323 0
M  V30 1250 H 117.541 -1.46356 3.42979 0
M  V30 1251 N 119.726 -1.57421 0.075193 0
M  V30 1252 C 121.003 -1.85029 -0.634329 0
M  V30 1253 C 121.383 -0.968305 -1.87582 0
M  V30 1254 O 120.731 -0.0354749 -2.28472 0
M  V30 1255 C 120.941 -3.35286 -0.968742 0
M  V30 1256 C 122.289 -4.02875 -1.34077 0
M  V30 1257 O 123.313 -3.40051 -1.06037 0
M  V30 1258 O 122.172 -5.13691 -1.86506 0
M  V30 1259 H 119.266 -0.7645 -0.315387 0
M  V30 1260 H 121.812 -1.69366 0.106382 0
M  V30 1261 H 120.584 -3.91203 -0.0871376 0
M  V30 1262 H 120.207 -3.56223 -1.7661 0
M  V30 1263 N 121.204 0.198386 -1.56346 0
M  V30 1264 C 122.45 0.920648 -1.80698 0
M  V30 1265 C 122.783 1.83045 -0.648697 0
M  V30 1266 O 122.058 1.91308 0.350925 0
M  V30 1267 C 122.341 1.73971 -3.15287 0
M  V30 1268 C 122.194 0.85485 -4.41602 0
M  V30 1269 C 123.513 2.71296 -3.46535 0
M  V30 1270 H 120.632 0.333261 -0.657348 0
M  V30 1271 H 123.274 0.188198 -1.89066 0
M  V30 1272 H 121.424 2.36416 -3.08285 0
M  V30 1273 H 123.096 0.245362 -4.60647 0
M  V30 1274 H 121.339 0.161398 -4.335 0
M  V30 1275 H 122.01 1.46286 -5.32264 0
M  V30 1276 H 124.486 2.18983 -3.53816 0
M  V30 1277 H 123.362 3.2569 -4.41834 0
M  V30 1278 H 123.623 3.5018 -2.69864 0
M  V30 1279 N 122.682 1.50554 0.465978 0
M  V30 1280 C 123.928 1.62038 1.21949 0
M  V30 1281 C 124.261 0.322116 1.9151 0
M  V30 1282 O 123.536 -0.676723 1.82348 0
M  V30 1283 C 123.819 2.80421 2.25912 0
M  V30 1284 C 123.672 4.20144 1.60622 0
M  V30 1285 C 124.991 2.94354 3.27176 0
M  V30 1286 H 122.11 0.589752 0.441998 0
M  V30 1287 H 124.752 1.82956 0.51257 0
M  V30 1288 H 122.902 2.62717 2.86203 0
M  V30 1289 H 124.574 4.49449 1.03889 0
M  V30 1290 H 122.817 4.24165 0.909211 0
M  V30 1291 H 123.488 4.98914 2.36196 0
M  V30 1292 H 125.964 3.10578 2.76913 0
M  V30 1293 H 124.84 3.788 3.97242 0
M  V30 1294 H 125.101 2.05186 3.916 0
M  V30 1295 N 124.16 -0.719506 1.40217 0
M  V30 1296 C 125.409 -1.47486 1.37589 0
M  V30 1297 C 125.722 -1.9559 -0.0201568 0
M  V30 1298 O 126.928 -2.70973 -0.169049 0
M  V30 1299 C 125.384 -2.66575 2.41796 0
M  V30 1300 C 124.992 -2.25358 3.87192 0
M  V30 1301 C 126.736 -3.4433 2.48269 0
M  V30 1302 C 124.643 -3.41262 4.83005 0
M  V30 1303 H 123.573 -0.553901 0.511576 0
M  V30 1304 H 126.224 -0.783427 1.65936 0
M  V30 1305 H 124.606 -3.3787 2.06543 0
M  V30 1306 H 125.78 -1.61509 4.31569 0
M  V30 1307 H 124.095 -1.60657 3.84159 0
M  V30 1308 H 126.692 -4.30569 3.17041 0
M  V30 1309 H 127.035 -3.87872 1.51198 0
M  V30 1310 H 127.568 -2.80076 2.82493 0
M  V30 1311 H 124.307 -3.02755 5.81394 0
M  V30 1312 H 123.827 -4.0404 4.43297 0
M  V30 1313 H 125.506 -4.07383 5.02641 0
M  V30 1314 N 125.638 -1.25649 -0.95132 0
M  V30 1315 C 126.884 -1.10757 -1.69884 0
M  V30 1316 C 127.217 0.350061 -1.91019 0
M  V30 1317 O 126.492 1.25783 -1.48354 0
M  V30 1318 C 126.775 -1.86606 -3.07978 0
M  V30 1319 C 126.628 -3.40217 -2.94232 0
M  V30 1320 C 127.947 -1.65182 -4.07925 0
M  V30 1321 H 125.066 -0.40374 -0.616574 0
M  V30 1322 H 127.708 -1.54521 -1.10558 0
M  V30 1323 H 125.858 -1.49409 -3.58621 0
M  V30 1324 H 127.53 -3.87108 -2.50889 0
M  V30 1325 H 125.773 -3.67759 -2.30078 0
M  V30 1326 H 126.444 -3.88505 -3.92133 0
M  V30 1327 H 128.92 -1.9757 -3.66204 0
M  V30 1328 H 127.796 -2.20683 -5.02583 0
M  V30 1329 H 128.057 -0.593933 -4.38092 0
M  V30 1330 N 127.117 1.15442 -1.07289 0
M  V30 1331 C 128.533 1.38201 -0.798288 0
M  V30 1332 C 128.733 1.92429 0.597769 0
M  V30 1333 O 127.789 2.12962 1.3566 0
M  V30 1334 C 129.102 2.35357 -1.87156 0
M  V30 1335 C 130.65 2.49021 -1.89624 0
M  V30 1336 C 131.125 3.49468 -2.96034 0
M  V30 1337 N 132.616 3.57003 -2.95132 0
M  V30 1338 C 133.351 4.34543 -3.74112 0
M  V30 1339 N 132.847 5.15421 -4.6294 0
M  V30 1340 N 134.64 4.29625 -3.62462 0
M  V30 1341 H 126.791 0.78584 -1.97328 0
M  V30 1342 H 129.054 0.408065 -0.855679 0
M  V30 1343 H 128.76 2.02626 -2.87464 0
M  V30 1344 H 128.634 3.35129 -1.73114 0
M  V30 1345 H 131.021 2.81051 -0.899687 0
M  V30 1346 H 131.102 1.4925 -2.07745 0
M  V30 1347 H 130.746 3.18173 -3.95889 0
M  V30 1348 H 130.676 4.48992 -2.75161 0
M  V30 1349 H 133.167 2.99276 -2.30743 0
M  V30 1350 H 133.48 5.7183 -5.19837 0
M  V30 1351 H 131.825 5.14729 -4.66989 0
M  V30 1352 H 135.016 3.65505 -2.92444 0
M  V30 1353 H 135.189 4.89807 -4.24256 0
M  V30 1354 N 128.595 0.856903 1.32268 0
M  V30 1355 C 129.842 0.461386 1.97174 0
M  V30 1356 C 130.17 -0.983491 1.67803 0
M  V30 1357 O 129.425 -1.70541 0.959903 0
M  V30 1358 C 129.724 0.649919 3.51441 0
M  V30 1359 C 129.39 2.0656 4.00804 0
M  V30 1360 C 128.052 2.45279 4.13995 0
M  V30 1361 C 130.404 2.98947 4.26943 0
M  V30 1362 C 127.732 3.75653 4.50668 0
M  V30 1363 C 130.084 4.28822 4.65075 0
M  V30 1364 C 128.748 4.67472 4.76472 0
M  V30 1365 H 128.018 0.168833 0.72151 0
M  V30 1366 H 130.665 1.08739 1.57633 0
M  V30 1367 H 128.97 -0.0593018 3.91755 0
M  V30 1368 H 130.667 0.32391 3.9969 0
M  V30 1369 H 127.257 1.75495 3.91024 0
M  V30 1370 H 131.441 2.70265 4.16258 0
M  V30 1371 H 126.697 4.05379 4.57688 0
M  V30 1372 H 130.871 5.0047 4.84255 0
M  V30 1373 H 128.498 5.68539 5.04646 0
M  V30 1374 N 130.073 -1.45103 0.615059 0
M  V30 1375 C 131.321 -2.01784 0.112955 0
M  V30 1376 C 131.642 -1.48504 -1.26378 0
M  V30 1377 O 130.912 -0.682245 -1.83636 0
M  V30 1378 H 129.492 -0.745993 0.0387668 0
M  V30 1379 H 132.154 -1.77808 0.798141 0
M  V30 1380 H 131.25 -3.12025 0.0684069 0
M  V30 1381 N 131.551 -0.354651 -1.53558 0
M  V30 1382 C 132.481 0.489091 -2.2832 0
M  V30 1383 C 133.462 1.09324 -1.30316 0
M  V30 1384 O 134.647 1.11255 -1.59173 0
M  V30 1385 C 131.777 1.63456 -3.0643 0
M  V30 1386 C 130.731 1.1582 -4.12031 0
M  V30 1387 C 130.057 2.39305 -4.7816 0
M  V30 1388 C 131.357 0.250731 -5.21698 0
M  V30 1389 H 133.051 -0.134614 -2.99097 0
M  V30 1390 H 130.597 -0.0661826 -1.43848 0
M  V30 1391 H 132.55 2.23136 -3.57475 0
M  V30 1392 H 131.274 2.28533 -2.33325 0
M  V30 1393 H 129.933 0.584146 -3.61916 0
M  V30 1394 H 129.581 3.02814 -4.01637 0
M  V30 1395 H 129.281 2.08109 -5.49513 0
M  V30 1396 H 130.805 2.99691 -5.31994 0
M  V30 1397 H 132.219 0.754695 -5.68311 0
M  V30 1398 H 130.616 0.0301468 -6.00092 0
M  V30 1399 H 131.686 -0.710125 -4.79672 0
M  V30 1400 N 133.029 1.57378 -0.0835403 0
M  V30 1401 C 134.254 1.98682 0.594987 0
M  V30 1402 C 134.679 0.961969 1.61641 0
M  V30 1403 O 134.037 -0.0709989 1.81161 0
M  V30 1404 C 134.085 3.38988 1.2296 0
M  V30 1405 O 133.189 3.39208 2.34546 0
M  V30 1406 H 132.53 0.646368 0.152002 0
M  V30 1407 H 135.06 2.03961 -0.161533 0
M  V30 1408 H 135.07 3.76431 1.57366 0
M  V30 1409 H 133.745 4.13107 0.481228 0
M  V30 1410 H 132.322 3.13548 2.01846 0
M  V30 1411 N 134.507 -0.190092 1.56449 0
M  V30 1412 C 135.756 -0.907912 1.80111 0
M  V30 1413 C 136.069 -1.84214 0.657619 0
M  V30 1414 O 137.275 -2.60094 0.778663 0
M  V30 1415 C 135.731 -1.66485 3.19078 0
M  V30 1416 C 135.339 -0.7752 4.41242 0
M  V30 1417 C 137.083 -2.37201 3.52045 0
M  V30 1418 C 134.99 -1.53129 5.71231 0
M  V30 1419 H 133.92 -0.34276 0.671589 0
M  V30 1420 H 136.571 -0.161109 1.82791 0
M  V30 1421 H 134.953 -2.45572 3.10661 0
M  V30 1422 H 136.127 -0.0226298 4.60794 0
M  V30 1423 H 134.442 -0.178627 4.16017 0
M  V30 1424 H 137.039 -2.94329 4.46402 0
M  V30 1425 H 137.382 -3.11632 2.76028 0
M  V30 1426 H 137.915 -1.65075 3.61932 0
M  V30 1427 H 134.654 -0.82967 6.50228 0
M  V30 1428 H 134.174 -2.25767 5.55688 0
M  V30 1429 H 135.853 -2.08377 6.12526 0
M  V30 1430 N 135.985 -1.50799 -0.457987 0
M  V30 1431 C 136.948 -1.7005 -1.53674 0
M  V30 1432 C 137.948 -0.570881 -1.50325 0
M  V30 1433 O 139.138 -0.838126 -1.52712 0
M  V30 1434 C 136.27 -1.73788 -2.93276 0
M  V30 1435 H 137.463 -2.66306 -1.37917 0
M  V30 1436 H 135.016 -1.40477 -0.685271 0
M  V30 1437 H 135.751 -0.792717 -3.14462 0
M  V30 1438 H 135.536 -2.55864 -2.97113 0
M  V30 1439 H 137.026 -1.90591 -3.71571 0
M  V30 1440 N 137.463 0.71206 -1.40597 0
M  V30 1441 C 138.395 1.83704 -1.37061 0
M  V30 1442 C 139.408 1.60453 -0.275426 0
M  V30 1443 O 140.597 1.70262 -0.53602 0
M  V30 1444 C 137.697 3.20172 -1.11099 0
M  V30 1445 C 136.87 3.7059 -2.3234 0
M  V30 1446 C 135.929 4.85681 -2.02485 0
M  V30 1447 O 134.955 4.9815 -2.75382 0
M  V30 1448 N 136.157 5.71735 -1.00497 0
M  V30 1449 H 138.922 1.87235 -2.34016 0
M  V30 1450 H 136.483 0.893739 -1.34996 0
M  V30 1451 H 138.475 3.94768 -0.891064 0
M  V30 1452 H 137.045 3.11767 -0.227989 0
M  V30 1453 H 136.265 2.87085 -2.7014 0
M  V30 1454 H 137.553 4.01011 -3.13157 0
M  V30 1455 H 136.951 5.64275 -0.401298 0
M  V30 1456 H 135.508 6.463 -0.844942 0
M  V30 1457 N 138.941 1.26152 0.944643 0
M  V30 1458 C 139.871 1.09902 2.06019 0
M  V30 1459 C 140.852 0.00519538 1.70099 0
M  V30 1460 O 142.037 0.176583 1.93396 0
M  V30 1461 C 139.167 0.727562 3.39594 0
M  V30 1462 C 138.121 1.77274 3.89561 0
M  V30 1463 C 137.447 1.25569 5.19747 0
M  V30 1464 C 138.747 3.17357 4.14827 0
M  V30 1465 H 140.441 2.03217 2.19871 0
M  V30 1466 H 137.987 0.978452 1.05652 0
M  V30 1467 H 139.94 0.600777 4.17095 0
M  V30 1468 H 138.664 -0.241287 3.25707 0
M  V30 1469 H 137.323 1.88814 3.14237 0
M  V30 1470 H 136.971 0.276783 5.02238 0
M  V30 1471 H 136.671 1.95433 5.54148 0
M  V30 1472 H 138.195 1.1415 5.99835 0
M  V30 1473 H 139.609 3.08914 4.82954 0
M  V30 1474 H 138.006 3.84781 4.60504 0
M  V30 1475 H 139.076 3.63673 3.20734 0
M  V30 1476 N 140.419 -1.14872 1.07899 0
M  V30 1477 C 141.668 -1.85135 0.800499 0
M  V30 1478 C 141.981 -1.83547 -0.676014 0
M  V30 1479 O 143.187 -2.49548 -1.06948 0
M  V30 1480 C 141.643 -3.3231 1.38197 0
M  V30 1481 C 141.251 -3.42329 2.8899 0
M  V30 1482 C 142.995 -4.0772 1.18174 0
M  V30 1483 C 140.902 -4.83684 3.403 0
M  V30 1484 H 139.832 -0.693563 0.29578 0
M  V30 1485 H 142.483 -1.29532 1.29976 0
M  V30 1486 H 140.865 -3.87618 0.810431 0
M  V30 1487 H 142.039 -2.97097 3.52236 0
M  V30 1488 H 140.354 -2.80369 3.07867 0
M  V30 1489 H 142.951 -5.12049 1.5398 0
M  V30 1490 H 143.294 -4.16124 0.12117 0
M  V30 1491 H 143.827 -3.58696 1.71994 0
M  V30 1492 H 140.566 -4.80465 4.45907 0
M  V30 1493 H 140.086 -5.29474 2.81811 0
M  V30 1494 H 141.765 -5.52558 3.36584 0
M  V30 1495 N 141.898 -0.863906 -1.31812 0
M  V30 1496 C 143.175 -0.39275 -1.91616 0
M  V30 1497 C 143.555 1.12461 -1.7865 0
M  V30 1498 O 142.903 1.95045 -1.19037 0
M  V30 1499 C 143.113 -0.867385 -3.38049 0
M  V30 1500 C 144.461 -0.889966 -4.15168 0
M  V30 1501 O 145.485 -0.812635 -3.46806 0
M  V30 1502 O 144.344 -1.00079 -5.37258 0
M  V30 1503 H 141.438 -0.116358 -0.818773 0
M  V30 1504 H 143.984 -0.951418 -1.40521 0
M  V30 1505 H 142.756 -1.91081 -3.41473 0
M  V30 1506 H 142.379 -0.286687 -3.96565 0
M  V30 1507 N 143.376 1.44774 -0.622745 0
M  V30 1508 C 144.622 2.0242 -0.124083 0
M  V30 1509 C 144.955 1.4881 1.24777 0
M  V30 1510 O 144.23 0.668799 1.8264 0
M  V30 1511 C 144.513 3.59957 -0.101619 0
M  V30 1512 C 144.366 4.23867 -1.50521 0
M  V30 1513 C 145.685 4.36284 0.578272 0
M  V30 1514 H 142.804 0.735528 -0.0465645 0
M  V30 1515 H 145.446 1.72447 -0.797617 0
M  V30 1516 H 143.596 3.85623 0.471934 0
M  V30 1517 H 145.268 4.09336 -2.12701 0
M  V30 1518 H 143.511 3.81684 -2.06154 0
M  V30 1519 H 144.182 5.32843 -1.4416 0
M  V30 1520 H 146.658 4.16001 0.0906057 0
M  V30 1521 H 145.534 5.46004 0.563149 0
M  V30 1522 H 145.795 4.10271 1.64713 0
M  V30 1523 N 144.854 0.36279 1.53368 0
M  V30 1524 C 146.131 -0.284021 1.93527 0
M  V30 1525 C 146.511 -1.66628 1.29608 0
M  V30 1526 O 145.859 -2.23942 0.45413 0
M  V30 1527 C 146.069 -0.337028 3.47369 0
M  V30 1528 C 147.417 -0.578708 4.20638 0
M  V30 1529 O 148.441 -0.418352 3.53735 0
M  V30 1530 O 147.3 -0.89074 5.39192 0
M  V30 1531 H 144.394 -0.169743 0.809393 0
M  V30 1532 H 146.94 0.41537 1.64538 0
M  V30 1533 H 145.712 0.632217 3.86159 0
M  V30 1534 H 145.335 -1.08243 3.82582 0
M  V30 1535 N 146.332 -1.57332 0.0918853 0
M  V30 1536 C 147.242 -2.17368 -0.882505 0
M  V30 1537 C 148.258 -1.14226 -1.31257 0
M  V30 1538 O 149.434 -1.46582 -1.38115 0
M  V30 1539 C 146.499 -2.73962 -2.12476 0
M  V30 1540 C 145.56 -3.92048 -1.7492 0
M  V30 1541 C 144.793 -4.45933 -2.93223 0
M  V30 1542 O 145.016 -3.98764 -4.07852 0
M  V30 1543 O 143.95 -5.36999 -2.71875 0
M  V30 1544 H 147.776 -3.01031 -0.40172 0
M  V30 1545 H 145.361 -1.48813 -0.132291 0
M  V30 1546 H 147.243 -3.10147 -2.85283 0
M  V30 1547 H 145.918 -1.93347 -2.59613 0
M  V30 1548 H 144.825 -3.6068 -0.993025 0
M  V30 1549 H 146.158 -4.74017 -1.32548 0
M  V30 1550 N 147.81 0.181792 -1.56548 0
M  V30 1551 C 148.757 1.22521 -1.95595 0
M  V30 1552 C 149.727 1.4454 -0.818373 0
M  V30 1553 O 150.912 1.57454 -1.07763 0
M  V30 1554 C 148.052 2.56193 -2.31212 0
M  V30 1555 C 147.165 2.41641 -3.58097 0
M  V30 1556 C 146.3 3.68108 -3.82975 0
M  V30 1557 C 145.339 3.48445 -5.03242 0
M  V30 1558 N 144.476 4.66956 -5.24306 0
M  V30 1559 H 149.316 0.885226 -2.84548 0
M  V30 1560 H 146.853 0.425718 -1.40805 0
M  V30 1561 H 148.811 3.34088 -2.49882 0
M  V30 1562 H 147.441 2.88208 -1.45382 0
M  V30 1563 H 146.493 1.54976 -3.474 0
M  V30 1564 H 147.805 2.23052 -4.46149 0
M  V30 1565 H 146.959 4.54441 -4.01956 0
M  V30 1566 H 145.698 3.89666 -2.93278 0
M  V30 1567 H 144.703 2.60499 -4.8417 0
M  V30 1568 H 145.928 3.2832 -5.9446 0
M  V30 1569 H 143.874 4.88752 -4.37559 0
M  V30 1570 H 143.791 4.51242 -6.06561 0
M  V30 1571 H 145.059 5.54602 -5.47756 0
M  V30 1572 N 149.288 1.51039 0.449983 0
M  V30 1573 C 150.236 1.71995 1.5659 0
M  V30 1574 C 151.23 0.586029 1.5894 0
M  V30 1575 O 152.436 0.76709 1.62837 0
M  V30 1576 H 148.811 0.543233 0.520001 0
M  V30 1577 H 150.782 2.65562 1.36085 0
M  V30 1578 C 149.531 1.8506 2.9436 0
M  V30 1579 H 148.854 2.71712 2.93279 0
M  V30 1580 H 150.294 2.0374 3.71842 0
M  V30 1581 C 148.753 0.607277 3.31382 0
M  V30 1582 O 149.283 -0.243903 4.00959 0
M  V30 1583 N 147.489 0.455073 2.87015 0
M  V30 1584 H 147.036 1.14879 2.30566 0
M  V30 1585 H 146.994 -0.375611 3.12148 0
M  V30 1586 N 150.766 -0.704594 1.40972 0
M  V30 1587 C 151.698 -1.82974 1.38033 0
M  V30 1588 C 152.711 -1.60305 0.283931 0
M  V30 1589 O 153.9 -1.69975 0.545042 0
M  V30 1590 C 151 -3.19578 1.12795 0
M  V30 1591 C 150.173 -3.69352 2.34302 0
M  V30 1592 C 149.232 -4.84601 2.05058 0
M  V30 1593 O 148.258 -4.96682 2.7802 0
M  V30 1594 N 149.46 -5.71194 1.03528 0
M  V30 1595 H 152.225 -1.85991 2.35005 0
M  V30 1596 H 149.786 -0.886567 1.35468 0
M  V30 1597 H 151.778 -3.9429 0.911987 0
M  V30 1598 H 150.348 -3.11642 0.24452 0
M  V30 1599 H 149.568 -2.85649 2.71659 0
M  V30 1600 H 150.856 -3.99345 3.1528 0
M  V30 1601 H 150.254 -5.64054 0.431217 0
M  V30 1602 H 148.811 -6.45843 0.879205 0
M  V30 1603 N 152.244 -1.26651 -0.937939 0
M  V30 1604 C 153.177 -1.02811 -2.03728 0
M  V30 1605 C 154.155 0.0481915 -1.62529 0
M  V30 1606 O 155.339 -0.0948839 -1.88261 0
M  V30 1607 C 152.466 -0.557517 -3.3408 0
M  V30 1608 C 151.512 -1.62686 -3.94253 0
M  V30 1609 S 152.345 -3.21667 -4.28125 0
M  V30 1610 C 153.501 -2.76384 -5.61572 0
M  V30 1611 H 153.734 -1.95891 -2.23638 0
M  V30 1612 H 151.267 -1.10367 -1.07974 0
M  V30 1613 H 153.225 -0.292674 -4.09455 0
M  V30 1614 H 151.886 0.353062 -3.12109 0
M  V30 1615 H 151.079 -1.24866 -4.88287 0
M  V30 1616 H 150.681 -1.84324 -3.25424 0
M  V30 1617 H 152.973 -2.2105 -6.40424 0
M  V30 1618 H 153.916 -3.69123 -6.0428 0
M  V30 1619 H 154.324 -2.15847 -5.21604 0
M  V30 1620 N 153.722 1.14298 -1.08507 0
M  V30 1621 C 154.655 2.18447 -0.660004 0
M  V30 1622 C 155.633 1.59242 0.328749 0
M  V30 1623 O 156.817 1.87062 0.232367 0
M  V30 1624 C 153.944 3.38688 0.0290807 0
M  V30 1625 C 152.99 4.1646 -0.919982 0
M  V30 1626 S 153.823 4.77334 -2.42718 0
M  V30 1627 C 154.979 6.00931 -1.75024 0
M  V30 1628 H 155.212 2.54166 -1.54231 0
M  V30 1629 H 152.745 1.25446 -0.900149 0
M  V30 1630 H 154.703 4.08342 0.420378 0
M  V30 1631 H 153.364 3.01289 0.887895 0
M  V30 1632 H 152.557 5.02529 -0.384751 0
M  V30 1633 H 152.159 3.52414 -1.25223 0
M  V30 1634 H 154.451 6.69017 -1.06877 0
M  V30 1635 H 155.394 6.59044 -2.58971 0
M  V30 1636 H 155.802 5.51089 -1.22317 0
M  V30 1637 N 155.201 0.870884 1.31352 0
M  V30 1638 C 156.429 0.49677 2.00848 0
M  V30 1639 C 156.844 -0.910998 1.65367 0
M  V30 1640 O 156.201 -1.59696 0.883374 0
M  V30 1641 C 156.252 0.645308 3.55694 0
M  V30 1642 O 155.973 1.99764 3.89905 0
M  V30 1643 C 157.474 0.272326 4.42463 0
M  V30 1644 H 154.694 0.193462 0.642506 0
M  V30 1645 H 157.238 1.1723 1.67563 0
M  V30 1646 H 155.393 0.0173176 3.87396 0
M  V30 1647 H 155.807 2.00607 4.84621 0
M  V30 1648 H 157.281 0.427208 5.50344 0
M  V30 1649 H 157.758 -0.788587 4.32062 0
M  V30 1650 H 158.364 0.876054 4.1618 0
M  V30 1651 N 156.679 -1.44442 0.630414 0
M  V30 1652 C 157.907 -2.06414 0.141671 0
M  V30 1653 C 158.322 -1.47105 -1.18345 0
M  V30 1654 O 157.679 -0.593662 -1.72574 0
M  V30 1655 C 157.73 -3.61494 0.0199784 0
M  V30 1656 O 157.451 -4.18594 1.29269 0
M  V30 1657 C 158.952 -4.40499 -0.497544 0
M  V30 1658 H 156.172 -0.666292 0.0793452 0
M  V30 1659 H 158.716 -1.85323 0.864614 0
M  V30 1660 H 156.871 -3.8185 -0.653402 0
M  V30 1661 H 157.285 -5.12026 1.13707 0
M  V30 1662 H 158.759 -5.49433 -0.531708 0
M  V30 1663 H 159.236 -4.11895 -1.52445 0
M  V30 1664 H 159.842 -4.25061 0.142562 0
M  V30 1665 N 158.157 -0.370918 -1.53173 0
M  V30 1666 C 159.105 0.488101 -2.27421 0
M  V30 1667 C 160.099 1.07884 -1.30604 0
M  V30 1668 O 161.305 1.02143 -1.48212 0
M  V30 1669 H 157.68 0.176134 -0.731082 0
M  V30 1670 H 159.651 -0.159815 -2.97972 0
M  V30 1671 C 158.4 1.61306 -3.08019 0
M  V30 1672 H 157.723 1.1678 -3.82364 0
M  V30 1673 H 159.163 2.18872 -3.63141 0
M  V30 1674 C 157.622 2.55848 -2.19188 0
M  V30 1675 O 158.152 3.58799 -1.80626 0
M  V30 1676 N 156.358 2.2516 -1.83715 0
M  V30 1677 H 155.905 1.41476 -2.15273 0
M  V30 1678 H 155.863 2.8867 -1.24567 0
M  V30 1679 N 159.635 1.57281 -0.100228 0
M  V30 1680 C 160.881 1.94826 0.563101 0
M  V30 1681 C 161.214 0.982475 1.67514 0
M  V30 1682 O 160.489 0.0164069 1.94493 0
M  V30 1683 C 160.772 3.42453 1.11346 0
M  V30 1684 C 160.625 4.498 0.00612081 0
M  V30 1685 C 161.944 3.91506 2.01024 0
M  V30 1686 H 159.063 0.708428 0.203221 0
M  V30 1687 H 161.705 1.8922 -0.171979 0
M  V30 1688 H 159.855 3.47361 1.7399 0
M  V30 1689 H 161.527 4.57 -0.628357 0
M  V30 1690 H 159.77 4.28756 -0.659581 0
M  V30 1691 H 160.441 5.50306 0.432109 0
M  V30 1692 H 162.917 3.88784 1.48278 0
M  V30 1693 H 161.793 4.95358 2.36457 0
M  V30 1694 H 162.054 3.31099 2.92961 0
M  V30 1695 N 161.113 -0.173488 1.56642 0
M  V30 1696 C 162.359 -0.887108 1.83035 0
M  V30 1697 C 162.714 -1.79965 0.680461 0
M  V30 1698 O 162.007 -1.88854 -0.323225 0
M  V30 1699 C 162.201 -1.72069 3.13252 0
M  V30 1700 C 162.03 -0.89035 4.40798 0
M  V30 1701 C 160.8 -0.566282 5.02117 0
M  V30 1702 C 162.998 -0.232921 5.13772 0
M  V30 1703 N 160.98 0.280427 6.13259 0
M  V30 1704 C 162.351 0.475046 6.18177 0
M  V30 1705 C 164.406 -0.150863 4.97671 0
M  V30 1706 C 163.109 1.25729 7.08227 0
M  V30 1707 C 165.135 0.618039 5.88162 0
M  V30 1708 C 164.497 1.31438 6.92029 0
M  V30 1709 H 160.596 -0.303303 0.720785 0
M  V30 1710 H 163.18 -0.154244 1.94088 0
M  V30 1711 H 161.351 -2.42499 3.03395 0
M  V30 1712 H 163.083 -2.37545 3.2765 0
M  V30 1713 H 159.838 -0.895852 4.6505 0
M  V30 1714 H 160.262 0.694027 6.73433 0
M  V30 1715 H 164.904 -0.674868 4.17379 0
M  V30 1716 H 162.622 1.79265 7.87966 0
M  V30 1717 H 166.208 0.683173 5.77775 0
M  V30 1718 H 165.088 1.89981 7.6084 0
M  V30 1719 N 162.591 -1.51276 -0.441967 0
M  V30 1720 C 163.521 -1.752 -1.54361 0
M  V30 1721 C 164.502 -0.601682 -1.59103 0
M  V30 1722 O 165.687 -0.843913 -1.74905 0
M  V30 1723 C 162.817 -1.87282 -2.92477 0
M  V30 1724 C 161.771 -3.02687 -3.02596 0
M  V30 1725 C 161.097 -2.99947 -4.42647 0
M  V30 1726 C 162.397 -4.4273 -2.77106 0
M  V30 1727 H 164.091 -2.67442 -1.34592 0
M  V30 1728 H 161.637 -1.28694 -0.646048 0
M  V30 1729 H 163.59 -2.02602 -3.695 0
M  V30 1730 H 162.314 -0.916844 -3.13467 0
M  V30 1731 H 160.973 -2.87065 -2.28012 0
M  V30 1732 H 160.621 -2.02136 -4.60597 0
M  V30 1733 H 160.321 -3.77439 -4.50348 0
M  V30 1734 H 161.845 -3.17354 -5.2165 0
M  V30 1735 H 163.259 -4.58727 -3.43864 0
M  V30 1736 H 161.656 -5.21893 -2.96222 0
M  V30 1737 H 162.726 -4.53087 -1.72744 0
M  V30 1738 N 164.069 0.697108 -1.41344 0
M  V30 1739 C 165.016 1.81106 -1.43071 0
M  V30 1740 C 165.986 1.63632 -0.285275 0
M  V30 1741 O 167.171 1.84504 -0.486091 0
M  V30 1742 C 164.311 3.18975 -1.31715 0
M  V30 1743 C 163.424 3.47892 -2.56115 0
M  V30 1744 C 162.559 4.75367 -2.37064 0
M  V30 1745 C 161.598 4.97247 -3.56948 0
M  V30 1746 N 160.735 6.15947 -3.36977 0
M  V30 1747 H 165.575 1.78965 -2.38276 0
M  V30 1748 H 163.112 0.873975 -1.18322 0
M  V30 1749 H 165.07 3.98615 -1.23133 0
M  V30 1750 H 163.7 3.20297 -0.401183 0
M  V30 1751 H 162.752 2.62669 -2.75153 0
M  V30 1752 H 164.064 3.59962 -3.45295 0
M  V30 1753 H 163.218 5.63059 -2.25941 0
M  V30 1754 H 161.957 4.65541 -1.45338 0
M  V30 1755 H 160.962 4.08004 -3.68527 0
M  V30 1756 H 162.187 5.08934 -4.49626 0
M  V30 1757 H 160.133 6.07336 -2.47949 0
M  V30 1758 H 160.05 6.28777 -4.19732 0
M  V30 1759 H 161.318 7.06377 -3.29623 0
M  V30 1760 N 165.547 1.27147 0.931209 0
M  V30 1761 C 166.479 1.05364 2.03546 0
M  V30 1762 C 167.492 0.0108438 1.62796 0
M  V30 1763 O 168.681 0.25202 1.76712 0
M  V30 1764 C 165.781 0.575566 3.33977 0
M  V30 1765 C 164.954 1.68985 4.03439 0
M  V30 1766 C 164.013 1.20813 5.12143 0
M  V30 1767 O 163.039 1.90712 5.363 0
M  V30 1768 N 164.241 0.0618851 5.80467 0
M  V30 1769 H 167.006 2.00454 2.22796 0
M  V30 1770 H 164.567 1.18666 1.10136 0
M  V30 1771 H 166.559 0.237264 4.04004 0
M  V30 1772 H 165.129 -0.282016 3.11325 0
M  V30 1773 H 164.349 2.19861 3.27192 0
M  V30 1774 H 165.637 2.4378 4.46597 0
M  V30 1775 H 165.035 -0.521621 5.6329 0
M  V30 1776 H 163.592 -0.217264 6.51438 0
M  V30 1777 N 167.025 -1.13721 1.09112 0
M  V30 1778 C 167.935 -2.22638 0.73957 0
M  V30 1779 C 168.951 -1.72091 -0.257068 0
M  V30 1780 O 170.127 -2.01155 -0.0992154 0
M  V30 1781 C 167.192 -3.46322 0.16191 0
M  V30 1782 C 166.253 -4.11775 1.21408 0
M  V30 1783 C 165.486 -5.29555 0.663891 0
M  V30 1784 O 165.709 -5.68077 -0.514274 0
M  V30 1785 O 164.643 -5.84973 1.41738 0
M  V30 1786 H 168.469 -2.55074 1.64836 0
M  V30 1787 H 166.054 -1.21791 0.865289 0
M  V30 1788 H 167.936 -4.21107 -0.157073 0
M  V30 1789 H 166.611 -3.15593 -0.719932 0
M  V30 1790 H 165.518 -3.3883 1.58571 0
M  V30 1791 H 166.851 -4.46627 2.06845 0
M  V30 1792 N 168.503 -0.877838 -1.30888 0
M  V30 1793 C 169.749 -0.502773 -1.97088 0
M  V30 1794 C 170.104 0.936274 -1.68082 0
M  V30 1795 O 169.397 1.65162 -0.971196 0
M  V30 1796 C 169.591 -0.705748 -3.50363 0
M  V30 1797 C 169.42 -2.16297 -3.94266 0
M  V30 1798 C 168.19 -2.80614 -4.20219 0
M  V30 1799 C 170.388 -3.13606 -4.07622 0
M  V30 1800 N 168.37 -4.17007 -4.50532 0
M  V30 1801 C 169.741 -4.35051 -4.41736 0
M  V30 1802 C 171.796 -3.09491 -3.90026 0
M  V30 1803 C 170.499 -5.52911 -4.60089 0
M  V30 1804 C 172.525 -4.26616 -4.09576 0
M  V30 1805 C 171.887 -5.46825 -4.44029 0
M  V30 1806 H 167.986 -0.233168 -0.746429 0
M  V30 1807 H 170.57 -1.13408 -1.58261 0
M  V30 1808 H 168.741 -0.103976 -3.88261 0
M  V30 1809 H 170.473 -0.298291 -4.03599 0
M  V30 1810 H 167.228 -2.3152 -4.13153 0
M  V30 1811 H 167.652 -4.87426 -4.69834 0
M  V30 1812 H 172.294 -2.17657 -3.62471 0
M  V30 1813 H 170.012 -6.45255 -4.86489 0
M  V30 1814 H 173.598 -4.24894 -3.97438 0
M  V30 1815 H 172.478 -6.35947 -4.58848 0
M  V30 1816 N 169.982 1.44106 -0.638065 0
M  V30 1817 C 171.207 2.0685 -0.150916 0
M  V30 1818 C 171.632 1.47417 1.16833 0
M  V30 1819 O 170.99 0.578264 1.71831 0
M  V30 1820 C 171.038 3.60555 -0.05708 0
M  V30 1821 O 170.142 4.00465 0.984972 0
M  V30 1822 H 169.483 0.658151 -0.0879399 0
M  V30 1823 H 172.013 1.84865 -0.876707 0
M  V30 1824 H 172.023 4.07789 0.131232 0
M  V30 1825 H 170.698 4.03193 -1.02021 0
M  V30 1826 H 169.275 3.64849 0.770672 0
M  V30 1827 N 171.46 0.379036 1.52974 0
M  V30 1828 C 172.737 -0.263479 1.93817 0
M  V30 1829 C 173.117 -1.65244 1.31368 0
M  V30 1830 O 172.465 -2.23448 0.477856 0
M  V30 1831 C 172.675 -0.300166 3.47707 0
M  V30 1832 C 174.023 -0.534061 4.21228 0
M  V30 1833 O 175.047 -0.38081 3.54159 0
M  V30 1834 O 173.906 -0.833501 5.40106 0
M  V30 1835 H 171 -0.161149 0.811147 0
M  V30 1836 H 173.546 0.432798 1.64088 0
M  V30 1837 H 172.318 0.673138 3.85467 0
M  V30 1838 H 171.941 -1.04179 3.83709 0
M  V30 1839 N 172.938 -1.57226 0.108567 0
M  V30 1840 C 174.168 -1.9889 -0.559142 0
M  V30 1841 C 174.576 -0.986889 -1.61422 0
M  V30 1842 O 173.919 0.0298705 -1.83676 0
M  V30 1843 C 173.981 -3.36952 -1.25315 0
M  V30 1844 C 173.645 -4.55679 -0.347248 0
M  V30 1845 C 174.642 -5.18281 0.409996 0
M  V30 1846 C 172.327 -5.0162 -0.261367 0
M  V30 1847 C 174.321 -6.25203 1.24096 0
M  V30 1848 C 172.008 -6.08405 0.573238 0
M  V30 1849 C 173.006 -6.70063 1.32304 0
M  V30 1850 O 172.694 -7.74788 2.14381 0
M  V30 1851 H 172.426 -0.658343 -0.153492 0
M  V30 1852 H 174.98 -2.04532 0.188584 0
M  V30 1853 H 173.21 -3.28032 -2.04773 0
M  V30 1854 H 174.899 -3.62974 -1.81673 0
M  V30 1855 H 175.665 -4.8371 0.353457 0
M  V30 1856 H 171.544 -4.53381 -0.834656 0
M  V30 1857 H 175.088 -6.73259 1.82669 0
M  V30 1858 H 170.985 -6.42406 0.631208 0
M  V30 1859 H 171.753 -7.91837 2.07209 0
M  V30 1860 N 174.416 0.165178 -1.56732 0
M  V30 1861 C 175.363 1.2044 -1.96883 0
M  V30 1862 C 176.333 1.43664 -0.833657 0
M  V30 1863 O 177.518 1.56302 -1.09427 0
M  V30 1864 C 174.658 2.53727 -2.33916 0
M  V30 1865 C 173.771 2.3783 -3.6064 0
M  V30 1866 C 172.906 3.64026 -3.86857 0
M  V30 1867 C 171.945 3.43088 -5.06909 0
M  V30 1868 N 171.082 4.61369 -5.29229 0
M  V30 1869 H 175.922 0.854996 -2.85471 0
M  V30 1870 H 173.459 0.41076 -1.41249 0
M  V30 1871 H 175.417 3.31419 -2.53411 0
M  V30 1872 H 174.047 2.8665 -1.48431 0
M  V30 1873 H 173.099 1.51282 -3.49024 0
M  V30 1874 H 174.411 2.18308 -4.4849 0
M  V30 1875 H 173.565 4.50152 -4.06753 0
M  V30 1876 H 172.304 3.86533 -2.97394 0
M  V30 1877 H 171.309 2.55349 -4.86906 0
M  V30 1878 H 172.534 3.21997 -5.97909 0
M  V30 1879 H 170.48 4.84084 -4.42718 0
M  V30 1880 H 170.397 4.44783 -6.11313 0
M  V30 1881 H 171.665 5.48761 -5.53608 0
M  V30 1882 N 175.894 1.51508 0.433938 0
M  V30 1883 C 176.824 1.76016 1.53429 0
M  V30 1884 C 177.805 0.610112 1.58782 0
M  V30 1885 O 178.99 0.853177 1.74455 0
M  V30 1886 C 176.12 1.88831 2.9148 0
M  V30 1887 C 175.074 3.04288 3.00987 0
M  V30 1888 C 174.4 3.0229 4.4105 0
M  V30 1889 C 175.7 4.44193 2.74754 0
M  V30 1890 H 177.394 2.68152 1.33171 0
M  V30 1891 H 174.94 1.29035 0.639214 0
M  V30 1892 H 176.893 2.04559 3.6842 0
M  V30 1893 H 175.617 0.933455 3.12976 0
M  V30 1894 H 174.276 2.8827 2.26486 0
M  V30 1895 H 173.924 2.04576 4.59519 0
M  V30 1896 H 173.624 3.79822 4.4834 0
M  V30 1897 H 175.148 3.20116 5.1996 0
M  V30 1898 H 176.562 4.60544 3.41426 0
M  V30 1899 H 174.959 5.23457 2.9345 0
M  V30 1900 H 176.029 4.53996 1.70339 0
M  V30 1901 N 177.372 -0.689602 1.41712 0
M  V30 1902 C 178.788 -1.00093 1.24312 0
M  V30 1903 C 178.988 -2.01036 0.136729 0
M  V30 1904 O 178.044 -2.47562 -0.496918 0
M  V30 1905 C 179.357 -1.51985 2.59463 0
M  V30 1906 C 180.905 -1.63838 2.66695 0
M  V30 1907 C 181.38 -2.1913 4.02177 0
M  V30 1908 N 182.871 -2.26483 4.04054 0
M  V30 1909 C 183.606 -2.70306 5.0569 0
M  V30 1910 N 183.102 -3.13691 6.17713 0
M  V30 1911 N 184.895 -2.69923 4.9305 0
M  V30 1912 H 177.046 -0.0210029 2.1239 0
M  V30 1913 H 179.309 -0.0718733 0.945272 0
M  V30 1914 H 179.015 -0.85269 3.41207 0
M  V30 1915 H 178.889 -2.50103 2.82362 0
M  V30 1916 H 181.276 -2.29664 1.85306 0
M  V30 1917 H 181.357 -0.642492 2.476 0
M  V30 1918 H 181.001 -1.53918 4.84016 0
M  V30 1919 H 180.931 -3.19482 4.18615 0
M  V30 1920 H 183.422 -1.95874 3.23174 0
M  V30 1921 H 183.735 -3.45773 6.9113 0
M  V30 1922 H 182.08 -3.11585 6.21241 0
M  V30 1923 H 185.271 -2.35382 4.04614 0
M  V30 1924 H 185.444 -3.03758 5.72394 0
M  V30 1925 N 178.85 -1.27639 -0.924453 0
M  V30 1926 C 180.096 -1.15345 -1.67532 0
M  V30 1927 C 180.451 0.297096 -1.90092 0
M  V30 1928 O 179.744 1.21374 -1.48253 0
M  V30 1929 C 179.938 -1.87407 -3.04325 0
M  V30 1930 C 179.767 -3.3932 -2.95114 0
M  V30 1931 C 178.537 -4.08644 -2.97218 0
M  V30 1932 C 180.735 -4.35242 -2.73987 0
M  V30 1933 N 178.717 -5.47102 -2.78482 0
M  V30 1934 C 180.088 -5.6099 -2.63988 0
M  V30 1935 C 182.143 -4.25294 -2.589 0
M  V30 1936 C 180.846 -6.77924 -2.40442 0
M  V30 1937 C 182.872 -5.41952 -2.36731 0
M  V30 1938 C 182.234 -6.66658 -2.27478 0
M  V30 1939 H 178.333 -0.47696 -0.619704 0
M  V30 1940 H 180.917 -1.6115 -1.09265 0
M  V30 1941 H 179.088 -1.44053 -3.60699 0
M  V30 1942 H 180.82 -1.6759 -3.68369 0
M  V30 1943 H 177.575 -3.60136 -3.07569 0
M  V30 1944 H 177.999 -6.19852 -2.72236 0
M  V30 1945 H 182.641 -3.29598 -2.64811 0
M  V30 1946 H 180.359 -7.73699 -2.3327 0
M  V30 1947 H 183.945 -5.36137 -2.25938 0
M  V30 1948 H 182.825 -7.55405 -2.10555 0
M  V30 1949 N 180.328 1.1314 -1.09713 0
M  V30 1950 C 181.276 2.20717 -0.733934 0
M  V30 1951 C 182.27 1.6729 0.266506 0
M  V30 1952 O 183.476 1.79547 0.127656 0
M  V30 1953 H 179.851 0.719292 -0.21937 0
M  V30 1954 H 181.822 2.48611 -1.6503 0
M  V30 1955 C 180.571 3.47265 -0.173849 0
M  V30 1956 H 179.894 3.88716 -0.934873 0
M  V30 1957 H 181.334 4.23979 0.0423126 0
M  V30 1958 C 179.793 3.18724 1.09164 0
M  V30 1959 O 180.323 3.37762 2.17439 0
M  V30 1960 N 178.529 2.72583 1.00732 0
M  V30 1961 H 178.076 2.57291 0.126121 0
M  V30 1962 H 178.034 2.53862 1.85476 0
M  V30 1963 N 181.806 0.884767 1.30421 0
M  V30 1964 C 183.217 0.553656 1.78302 0
M  V30 1965 C 183.568 -0.930153 1.7275 0
M  V30 1966 O 182.693 -1.72681 1.30423 0
M  V30 1967 C 183.288 0.998234 3.2376 0
M  V30 1968 C 181.847 0.71854 3.69478 0
M  V30 1969 C 180.994 1.18132 2.50879 0
M  V30 1970 H 183.945 1.06901 1.17294 0
M  V30 1971 H 183.966 0.327118 3.79091 0
M  V30 1972 H 183.478 2.0782 3.27769 0
M  V30 1973 H 181.579 -0.349444 3.70958 0
M  V30 1974 H 181.692 1.30595 4.60958 0
M  V30 1975 H 180.056 0.600669 2.47516 0
M  V30 1976 H 180.839 2.26902 2.57624 0
M  V30 1977 N 183.284 -1.43765 0.645699 0
M  V30 1978 C 184.512 -2.06253 0.163556 0
M  V30 1979 C 184.927 -1.48352 -1.16778 0
M  V30 1980 O 184.284 -0.611932 -1.71935 0
M  V30 1981 C 184.335 -3.61453 0.0583186 0
M  V30 1982 O 184.056 -4.172 1.33702 0
M  V30 1983 C 185.557 -4.41002 -0.450795 0
M  V30 1984 H 182.777 -0.665413 0.0864077 0
M  V30 1985 H 185.321 -1.84396 0.884222 0
M  V30 1986 H 183.476 -3.82522 -0.612865 0
M  V30 1987 H 183.89 -5.10791 1.19131 0
M  V30 1988 H 185.364 -5.49966 -0.473403 0
M  V30 1989 H 185.841 -4.13488 -1.48068 0
M  V30 1990 H 186.447 -4.24886 0.187637 0
M  V30 1991 N 184.763 -0.387143 -1.52771 0
M  V30 1992 C 186.04 0.253197 -1.93954 0
M  V30 1993 C 186.42 1.64545 -1.32243 0
M  V30 1994 O 185.768 2.23191 -0.489699 0
M  V30 1995 C 185.978 0.281722 -3.47861 0
M  V30 1996 C 187.326 0.511715 -4.21505 0
M  V30 1997 O 188.35 0.362023 -3.54356 0
M  V30 1998 O 187.209 0.804847 -5.40541 0
M  V30 1999 H 184.303 0.156845 -0.811991 0
M  V30 2000 H 186.849 -0.441494 -1.63856 0
M  V30 2001 H 185.621 -0.693571 -3.85104 0
M  V30 2002 H 185.244 1.02142 -3.84256 0
M  V30 2003 N 186.241 1.57166 -0.116904 0
M  V30 2004 C 187.488 1.95123 0.541603 0
M  V30 2005 C 187.816 1.00006 1.6682 0
M  V30 2006 O 187.071 0.0235658 1.95686 0
M  V30 2007 C 187.37 3.39508 1.11664 0
M  V30 2008 C 187.036 4.50762 0.111606 0
M  V30 2009 C 185.698 4.80918 -0.164758 0
M  V30 2010 C 188.05 5.18036 -0.573438 0
M  V30 2011 C 185.378 5.75666 -1.13249 0
M  V30 2012 C 187.73 6.13824 -1.52978 0
M  V30 2013 C 186.394 6.42374 -1.81415 0
M  V30 2014 H 185.664 0.714005 0.198187 0
M  V30 2015 H 188.311 1.9048 -0.197365 0
M  V30 2016 H 186.616 3.40835 1.93232 0
M  V30 2017 H 188.313 3.66189 1.63422 0
M  V30 2018 H 184.903 4.27272 0.337192 0
M  V30 2019 H 189.087 4.94896 -0.373092 0
M  V30 2020 H 184.343 5.96092 -1.35958 0
M  V30 2021 H 188.517 6.65039 -2.06629 0
M  V30 2022 H 186.144 7.15599 -2.56557 0
M  V30 2023 N 187.719 -0.156864 1.56817 0
M  V30 2024 C 188.967 -0.869404 1.82444 0
M  V30 2025 C 189.288 -1.82147 0.69623 0
M  V30 2026 O 188.558 -1.93847 -0.28287 0
M  V30 2027 H 187.138 -0.324043 0.673056 0
M  V30 2028 H 189.8 -0.153224 1.94297 0
M  V30 2029 H 188.896 -1.43761 2.77019 0
M  V30 2030 N 189.197 -1.51736 -0.425897 0
M  V30 2031 C 190.145 -1.74464 -1.53834 0
M  V30 2032 C 191.139 -0.611241 -1.57988 0
M  V30 2033 O 192.345 -0.792899 -1.61596 0
M  V30 2034 H 188.72 -0.551437 -0.511293 0
M  V30 2035 H 190.691 -2.67694 -1.31843 0
M  V30 2036 C 189.44 -1.8972 -2.91379 0
M  V30 2037 H 188.763 -2.76344 -2.88919 0
M  V30 2038 H 190.203 -2.09629 -3.68553 0
M  V30 2039 C 188.662 -0.65992 -3.30374 0
M  V30 2040 O 189.192 0.180083 -4.01296 0
M  V30 2041 N 187.398 -0.500677 -2.86254 0
M  V30 2042 H 186.945 -1.18532 -2.28709 0
M  V30 2043 H 186.903 0.325903 -3.12706 0
M  V30 2044 N 190.675 0.682077 -1.42076 0
M  V30 2045 C 191.924 1.43786 -1.41451 0
M  V30 2046 C 192.237 1.95574 -0.0317074 0
M  V30 2047 O 193.443 2.71326 0.0971462 0
M  V30 2048 C 191.899 2.60071 -2.48779 0
M  V30 2049 C 191.507 2.15013 -3.93031 0
M  V30 2050 C 193.251 3.37626 -2.57311 0
M  V30 2051 C 191.158 3.28336 -4.91883 0
M  V30 2052 H 190.088 0.540143 -0.526082 0
M  V30 2053 H 192.739 0.739157 -1.67955 0
M  V30 2054 H 191.121 3.32275 -2.15429 0
M  V30 2055 H 192.295 1.5001 -4.35699 0
M  V30 2056 H 190.61 1.50416 -3.88284 0
M  V30 2057 H 193.207 4.22012 -3.28345 0
M  V30 2058 H 193.55 3.83727 -1.61429 0
M  V30 2059 H 194.083 2.72488 -2.89819 0
M  V30 2060 H 190.822 2.87234 -5.89217 0
M  V30 2061 H 190.342 3.92145 -4.53853 0
M  V30 2062 H 192.021 3.93913 -5.13265 0
M  V30 2063 N 192.153 1.28127 0.917671 0
M  V30 2064 C 193.381 1.17892 1.70026 0
M  V30 2065 C 193.796 -0.262958 1.8696 0
M  V30 2066 O 193.153 -1.17811 1.3938 0
M  V30 2067 C 193.204 1.86872 3.09453 0
M  V30 2068 O 192.925 3.25428 2.93306 0
M  V30 2069 C 194.426 1.8289 4.03815 0
M  V30 2070 H 191.646 0.40942 0.531617 0
M  V30 2071 H 194.19 1.69181 1.14883 0
M  V30 2072 H 192.345 1.39464 3.61426 0
M  V30 2073 H 192.759 3.59918 3.81523 0
M  V30 2074 H 194.233 2.35751 4.99125 0
M  V30 2075 H 194.71 0.800412 4.31845 0
M  V30 2076 H 195.316 2.29959 3.57769 0
M  V30 2077 N 193.631 -1.12557 1.10312 0
M  V30 2078 C 194.856 -1.88405 0.867085 0
M  V30 2079 C 195.281 -1.79038 -0.576817 0
M  V30 2080 O 194.639 -1.14439 -1.40618 0
M  V30 2081 C 194.687 -3.3563 1.31851 0
M  V30 2082 O 193.791 -4.09565 0.482734 0
M  V30 2083 H 193.132 -0.585455 0.313271 0
M  V30 2084 H 195.662 -1.42352 1.4696 0
M  V30 2085 H 195.672 -3.86469 1.3079 0
M  V30 2086 H 194.347 -3.41765 2.37001 0
M  V30 2087 H 192.924 -3.68695 0.558448 0
M  V30 2088 N 195.109 -0.891671 -1.2995 0
M  V30 2089 C 196.039 -0.379797 -2.30391 0
M  V30 2090 C 197.02 0.540919 -1.6127 0
M  V30 2091 O 198.205 0.453352 -1.88834 0
M  V30 2092 C 195.335 0.400654 -3.44981 0
M  V30 2093 C 194.289 -0.428905 -4.25846 0
M  V30 2094 C 193.615 0.478557 -5.32554 0
M  V30 2095 C 194.915 -1.67458 -4.94727 0
M  V30 2096 H 196.609 -1.21914 -2.73454 0
M  V30 2097 H 194.155 -0.587675 -1.31462 0
M  V30 2098 H 196.108 0.769434 -4.14316 0
M  V30 2099 H 194.832 1.27371 -3.0074 0
M  V30 2100 H 193.491 -0.779911 -3.58208 0
M  V30 2101 H 193.139 1.34951 -4.84559 0
M  V30 2102 H 192.839 -0.0727433 -5.87555 0
M  V30 2103 H 194.363 0.843705 -6.04743 0
M  V30 2104 H 195.777 -1.376 -5.56542 0
M  V30 2105 H 194.174 -2.16659 -5.59624 0
M  V30 2106 H 195.244 -2.41518 -4.20473 0
M  V30 2107 N 196.587 1.43421 -0.653314 0
M  V30 2108 C 198.003 1.56341 -0.320886 0
M  V30 2109 C 198.203 1.63696 1.17499 0
M  V30 2110 O 197.259 1.59208 1.95982 0
M  V30 2111 C 198.572 2.82424 -1.03233 0
M  V30 2112 C 200.12 2.96168 -1.01259 0
M  V30 2113 C 200.595 4.25084 -1.70492 0
M  V30 2114 N 202.086 4.31948 -1.67257 0
M  V30 2115 C 202.821 5.30466 -2.17701 0
M  V30 2116 N 202.317 6.35261 -2.76434 0
M  V30 2117 N 204.11 5.2212 -2.082 0
M  V30 2118 H 196.261 1.3689 -1.62403 0
M  V30 2119 H 198.524 0.657455 -0.682977 0
M  V30 2120 H 198.23 2.83053 -2.08744 0
M  V30 2121 H 198.104 3.72653 -0.583948 0
M  V30 2122 H 200.491 2.9508 0.0341235 0
M  V30 2123 H 200.572 2.07229 -1.49966 0
M  V30 2124 H 200.216 4.26932 -2.7512 0
M  V30 2125 H 200.146 5.1292 -1.19251 0
M  V30 2126 H 202.637 3.56838 -1.24398 0
M  V30 2127 H 202.95 7.06754 -3.12601 0
M  V30 2128 H 201.295 6.35884 -2.80495 0
M  V30 2129 H 204.486 4.39166 -1.62021 0
M  V30 2130 H 204.659 5.98739 -2.47822 0
M  V30 2131 N 198.065 0.39524 1.52563 0
M  V30 2132 C 199.311 -0.185318 2.01952 0
M  V30 2133 C 199.644 -1.45964 1.28095 0
M  V30 2134 O 198.919 -1.90689 0.38315 0
M  V30 2135 C 199.202 -0.447193 3.57312 0
M  V30 2136 C 199.055 0.842828 4.41833 0
M  V30 2137 C 200.374 -1.23529 4.22408 0
M  V30 2138 H 197.493 -0.0658788 0.73405 0
M  V30 2139 H 200.135 0.525975 1.82575 0
M  V30 2140 H 198.285 -1.05312 3.73954 0
M  V30 2141 H 199.957 1.4795 4.36931 0
M  V30 2142 H 198.2 1.45686 4.08605 0
M  V30 2143 H 198.871 0.614165 5.48573 0
M  V30 2144 H 201.347 -0.722445 4.0978 0
M  V30 2145 H 200.223 -1.38727 5.3108 0
M  V30 2146 H 200.484 -2.25213 3.80436 0
M  V30 2147 N 199.544 -1.57102 0.125237 0
M  V30 2148 C 200.955 -1.82384 -0.399142 0
M  V30 2149 C 201.306 -1.04276 -1.66195 0
M  V30 2150 O 200.431 -0.281269 -2.14564 0
M  V30 2151 C 201.026 -3.30821 -0.730932 0
M  V30 2152 C 199.585 -3.56762 -1.19992 0
M  V30 2153 C 198.732 -2.7649 -0.211792 0
M  V30 2154 H 201.683 -1.54786 0.350277 0
M  V30 2155 H 201.704 -3.4579 -1.58775 0
M  V30 2156 H 201.216 -3.87643 0.188345 0
M  V30 2157 H 199.317 -3.05305 -2.13588 0
M  V30 2158 H 199.43 -4.65317 -1.14093 0
M  V30 2159 H 197.794 -2.4489 -0.700085 0
M  V30 2160 H 198.577 -3.36073 0.700691 0
M  V30 2161 N 201.022 0.148545 -1.56898 0
M  V30 2162 C 202.247 0.880385 -1.87787 0
M  V30 2163 C 202.672 1.74018 -0.714093 0
M  V30 2164 O 202.03 1.78153 0.336343 0
M  V30 2165 C 202.078 1.71422 -3.17249 0
M  V30 2166 O 201.182 2.8183 -3.01074 0
M  V30 2167 H 200.523 0.245301 -0.617028 0
M  V30 2168 H 203.053 0.139826 -2.04122 0
M  V30 2169 H 203.063 2.10954 -3.49231 0
M  V30 2170 H 201.738 1.08284 -4.01556 0
M  V30 2171 H 200.315 2.45715 -2.80497 0
M  V30 2172 N 202.5 1.5196 0.417844 0
M  V30 2173 C 203.41 1.77554 1.53336 0
M  V30 2174 C 204.426 0.660655 1.6097 0
M  V30 2175 O 205.602 0.945099 1.77848 0
M  V30 2176 C 202.667 1.91291 2.89152 0
M  V30 2177 C 201.728 3.15183 2.91475 0
M  V30 2178 C 200.961 3.28256 4.20813 0
M  V30 2179 O 201.184 2.46798 5.14244 0
M  V30 2180 O 200.118 4.21356 4.29817 0
M  V30 2181 H 203.944 2.7222 1.34647 0
M  V30 2182 H 201.529 1.36698 0.602828 0
M  V30 2183 H 203.411 2.02199 3.69721 0
M  V30 2184 H 202.086 0.998129 3.07927 0
M  V30 2185 H 200.993 3.09739 2.09791 0
M  V30 2186 H 202.326 4.06414 2.77648 0
M  V30 2187 N 203.978 -0.674533 1.42435 0
M  V30 2188 C 204.911 -1.79924 1.40366 0
M  V30 2189 C 205.889 -1.60378 0.267899 0
M  V30 2190 O 207.073 -1.82847 0.458159 0
M  V30 2191 C 204.2 -3.16927 1.19478 0
M  V30 2192 C 203.246 -3.55221 2.36051 0
M  V30 2193 S 204.079 -3.5762 3.98583 0
M  V30 2194 C 205.235 -4.97315 3.80038 0
M  V30 2195 H 205.468 -1.81405 2.35541 0
M  V30 2196 H 203.001 -0.845221 1.29211 0
M  V30 2197 H 204.959 -3.96007 1.08114 0
M  V30 2198 H 203.62 -3.13031 0.258883 0
M  V30 2199 H 202.813 -4.54804 2.17185 0
M  V30 2200 H 202.415 -2.83502 2.43932 0
M  V30 2201 H 204.707 -5.85401 3.41045 0
M  V30 2202 H 205.65 -5.21228 4.79298 0
M  V30 2203 H 206.058 -4.69845 3.12899 0
M  V30 2204 N 205.456 -1.28612 -0.910864 0
M  V30 2205 C 206.705 -1.15311 -1.65488 0
M  V30 2206 C 207.018 0.296999 -1.93332 0
M  V30 2207 O 208.224 0.551168 -2.65847 0
M  V30 2208 C 206.68 -2.01599 -2.98137 0
M  V30 2209 C 206.288 -3.51367 -2.7793 0
M  V30 2210 C 208.032 -1.96993 -3.76024 0
M  V30 2211 C 205.939 -4.29797 -4.06237 0
M  V30 2212 H 204.869 -0.42796 -0.620779 0
M  V30 2213 H 207.52 -1.53166 -1.01057 0
M  V30 2214 H 205.902 -1.56603 -3.63719 0
M  V30 2215 H 207.076 -4.0434 -2.21011 0
M  V30 2216 H 205.391 -3.57529 -2.13452 0
M  V30 2217 H 207.988 -2.52856 -4.71135 0
M  V30 2218 H 208.331 -0.94733 -4.05378 0
M  V30 2219 H 208.864 -2.39973 -3.17266 0
M  V30 2220 H 205.603 -5.32648 -3.82055 0
M  V30 2221 H 205.123 -3.81596 -4.62757 0
M  V30 2222 H 206.802 -4.39869 -4.74473 0
M  V30 2223 N 206.934 1.1197 -1.10907 0
M  V30 2224 C 208.18 1.84059 -0.865674 0
M  V30 2225 C 208.535 1.82731 0.602254 0
M  V30 2226 O 207.828 1.26543 1.43866 0
M  V30 2227 C 208.022 3.30749 -1.35425 0
M  V30 2228 C 207.851 3.46363 -2.86815 0
M  V30 2229 C 206.621 3.59712 -3.54874 0
M  V30 2230 C 208.819 3.41116 -3.84895 0
M  V30 2231 N 206.801 3.63741 -4.94536 0
M  V30 2232 C 208.172 3.51698 -5.10596 0
M  V30 2233 C 210.227 3.24612 -3.77533 0
M  V30 2234 C 208.93 3.4748 -6.29802 0
M  V30 2235 C 210.956 3.21708 -4.96244 0
M  V30 2236 C 210.318 3.32856 -6.20795 0
M  V30 2237 H 206.417 0.689015 -0.369841 0
M  V30 2238 H 209.001 1.34016 -1.41237 0
M  V30 2239 H 207.172 3.79322 -0.834814 0
M  V30 2240 H 208.904 3.90718 -1.05458 0
M  V30 2241 H 205.659 3.62038 -3.05329 0
M  V30 2242 H 206.083 3.69408 -5.67333 0
M  V30 2243 H 210.725 3.14883 -2.8215 0
M  V30 2244 H 208.443 3.55978 -7.25469 0
M  V30 2245 H 212.029 3.10113 -4.92261 0
M  V30 2246 H 210.909 3.3059 -7.11112 0
M  V30 2247 N 208.412 0.89855 1.29475 0
M  V30 2248 C 209.661 0.519863 1.94885 0
M  V30 2249 C 209.974 -0.9383 1.71625 0
M  V30 2250 O 211.18 -1.42445 2.31131 0
M  V30 2251 C 209.636 0.878836 3.49005 0
M  V30 2252 C 209.244 2.35569 3.81066 0
M  V30 2253 C 210.988 0.570004 4.20656 0
M  V30 2254 C 208.895 2.65558 5.28425 0
M  V30 2255 H 207.825 0.190692 0.729488 0
M  V30 2256 H 210.476 1.09539 1.47219 0
M  V30 2257 H 208.858 0.232253 3.95318 0
M  V30 2258 H 210.032 3.04773 3.45616 0
M  V30 2259 H 208.347 2.63343 3.22552 0
M  V30 2260 H 210.944 0.770925 5.29113 0
M  V30 2261 H 211.287 -0.491404 4.1339 0
M  V30 2262 H 211.82 1.17438 3.8007 0
M  V30 2263 H 208.559 3.70493 5.40754 0
M  V30 2264 H 208.079 2.00977 5.65127 0
M  V30 2265 H 209.758 2.51765 5.96006 0
M  V30 2266 N 209.89 -1.43072 0.660911 0
M  V30 2267 C 211.301 -1.84932 0.256348 0
M  V30 2268 C 211.652 -1.55325 -1.19868 0
M  V30 2269 O 210.777 -1.00607 -1.91591 0
M  V30 2270 C 211.372 -3.35684 0.458475 0
M  V30 2271 C 209.931 -3.76245 0.108161 0
M  V30 2272 C 209.078 -2.66749 0.757641 0
M  V30 2273 H 212.029 -1.33116 0.864051 0
M  V30 2274 H 212.05 -3.79365 -0.293683 0
M  V30 2275 H 211.562 -3.572 1.51755 0
M  V30 2276 H 209.663 -3.60338 -0.948014 0
M  V30 2277 H 209.776 -4.76058 0.538992 0
M  V30 2278 H 208.14 -2.53989 0.190185 0
M  V30 2279 H 208.923 -2.91092 1.81989 0
M  V30 2280 N 211.368 -0.403325 -1.52352 0
M  V30 2281 C 212.645 0.232611 -1.94212 0
M  V30 2282 C 213.025 1.63133 -1.33981 0
M  V30 2283 O 212.373 2.22659 -0.513344 0
M  V30 2284 C 212.583 0.244811 -3.4814 0
M  V30 2285 C 213.931 0.46698 -4.22024 0
M  V30 2286 O 214.955 0.324419 -3.5472 0
M  V30 2287 O 213.814 0.74747 -5.41364 0
M  V30 2288 H 210.908 0.148223 -0.813609 0
M  V30 2289 H 213.454 -0.458848 -1.63379 0
M  V30 2290 H 212.226 -0.734378 -3.84347 0
M  V30 2291 H 211.849 0.980611 -3.85318 0
M  V30 2292 N 212.846 1.57033 -0.133567 0
M  V30 2293 C 214.095 1.94861 0.520768 0
M  V30 2294 C 214.408 1.02012 1.66892 0
M  V30 2295 O 215.614 1.29365 2.38699 0
M  V30 2296 C 214.07 3.46362 0.977809 0
M  V30 2297 C 213.678 4.47773 -0.142674 0
M  V30 2298 C 215.422 3.93083 1.60269 0
M  V30 2299 C 213.329 5.90468 0.331883 0
M  V30 2300 H 212.259 0.727453 0.198315 0
M  V30 2301 H 214.91 1.82227 -0.215759 0
M  V30 2302 H 213.292 3.54282 1.7692 0
M  V30 2303 H 214.466 4.51536 -0.919317 0
M  V30 2304 H 212.781 4.10891 -0.675124 0
M  V30 2305 H 215.378 4.97121 1.96914 0
M  V30 2306 H 215.721 3.33876 2.48662 0
M  V30 2307 H 216.254 3.88025 0.876453 0
M  V30 2308 H 212.993 6.53463 -0.516341 0
M  V30 2309 H 212.513 5.90094 1.07469 0
M  V30 2310 H 214.192 6.42179 0.788332 0
M  V30 2311 N 214.325 -0.140222 1.56975 0
M  V30 2312 C 215.571 -0.852949 1.83991 0
M  V30 2313 C 215.904 -1.80512 0.716187 0
M  V30 2314 O 215.179 -1.92479 -0.279681 0
M  V30 2315 C 215.462 -1.6215 3.21527 0
M  V30 2316 C 215.315 -0.690363 4.4447 0
M  V30 2317 C 216.634 -2.58247 3.56366 0
M  V30 2318 H 213.753 -0.308634 0.669264 0
M  V30 2319 H 216.395 -0.117898 1.89634 0
M  V30 2320 H 214.545 -2.24812 3.16847 0
M  V30 2321 H 216.217 -0.0742264 4.6124 0
M  V30 2322 H 214.46 -0.000396433 4.338 0
M  V30 2323 H 215.131 -1.2643 5.37326 0
M  V30 2324 H 217.607 -2.05701 3.61699 0
M  V30 2325 H 216.483 -3.09067 4.53617 0
M  V30 2326 H 216.744 -3.39923 2.82674 0
M  V30 2327 N 215.803 -1.52179 -0.40978 0
M  V30 2328 C 216.733 -1.78435 -1.5061 0
M  V30 2329 C 217.714 -0.635295 -1.57791 0
M  V30 2330 O 218.899 -0.880823 -1.73076 0
M  V30 2331 C 216.029 -1.93444 -2.88439 0
M  V30 2332 C 214.983 -3.09038 -2.96108 0
M  V30 2333 C 214.309 -3.09268 -4.36185 0
M  V30 2334 C 215.609 -4.48508 -2.67652 0
M  V30 2335 H 217.303 -2.70237 -1.28889 0
M  V30 2336 H 214.849 -1.30036 -0.618605 0
M  V30 2337 H 216.802 -2.10394 -3.65119 0
M  V30 2338 H 215.526 -0.983129 -3.11452 0
M  V30 2339 H 214.185 -2.91837 -2.21872 0
M  V30 2340 H 213.833 -2.11861 -4.56206 0
M  V30 2341 H 213.533 -3.86907 -4.42241 0
M  V30 2342 H 215.057 -3.28348 -5.14801 0
M  V30 2343 H 216.471 -4.65918 -3.34056 0
M  V30 2344 H 214.868 -5.28059 -2.85085 0
M  V30 2345 H 215.938 -4.56649 -1.63095 0
M  V30 2346 N 217.281 0.66697 -1.42791 0
M  V30 2347 C 218.511 1.45294 -1.46878 0
M  V30 2348 C 218.919 1.89027 -0.0809861 0
M  V30 2349 O 218.262 1.59219 0.916246 0
M  V30 2350 C 218.324 2.72908 -2.34012 0
M  V30 2351 C 217.988 2.51203 -3.81767 0
M  V30 2352 C 218.985 2.15302 -4.73224 0
M  V30 2353 C 216.67 2.65954 -4.26115 0
M  V30 2354 C 218.664 1.94431 -6.07022 0
M  V30 2355 C 216.351 2.44699 -5.59969 0
M  V30 2356 C 217.349 2.08992 -6.5024 0
M  V30 2357 O 217.037 1.87948 -7.81621 0
M  V30 2358 H 216.769 0.453306 -0.501487 0
M  V30 2359 H 219.323 0.826232 -1.88049 0
M  V30 2360 H 217.553 3.38089 -1.87703 0
M  V30 2361 H 219.242 3.34816 -2.29462 0
M  V30 2362 H 220.008 2.03495 -4.40244 0
M  V30 2363 H 215.887 2.92724 -3.56137 0
M  V30 2364 H 219.431 1.66484 -6.77443 0
M  V30 2365 H 215.328 2.56105 -5.9252 0
M  V30 2366 H 216.096 2.02483 -7.93059 0
M  V30 2367 N 218.759 1.29093 0.90403 0
M  V30 2368 C 219.707 1.13727 2.02901 0
M  V30 2369 C 220.701 0.0539853 1.69314 0
M  V30 2370 O 221.907 0.213469 1.7873 0
M  V30 2371 H 218.282 0.35117 0.664969 0
M  V30 2372 H 220.253 2.08982 2.13001 0
M  V30 2373 C 219.002 0.826066 3.37745 0
M  V30 2374 H 218.325 1.65164 3.64089 0
M  V30 2375 H 219.765 0.758559 4.17159 0
M  V30 2376 C 218.224 -0.470541 3.33598 0
M  V30 2377 O 218.754 -1.49792 3.72727 0
M  V30 2378 N 216.96 -0.474812 2.86695 0
M  V30 2379 H 216.507 0.361692 2.55048 0
M  V30 2380 H 216.465 -1.34236 2.84303 0
M  V30 2381 N 220.237 -1.11381 1.11499 0
M  V30 2382 C 221.185 -2.19522 0.768956 0
M  V30 2383 C 222.179 -1.67693 -0.239857 0
M  V30 2384 O 223.385 -1.79727 -0.0990755 0
M  V30 2385 H 219.76 -0.715711 0.230786 0
M  V30 2386 H 221.731 -2.45954 1.68964 0
M  V30 2387 C 220.48 -3.46945 0.229073 0
M  V30 2388 H 219.803 -3.8718 0.996596 0
M  V30 2389 H 221.243 -4.23993 0.0251441 0
M  V30 2390 C 219.702 -3.2042 -1.04079 0
M  V30 2391 O 220.232 -3.41178 -2.12038 0
M  V30 2392 N 218.438 -2.74151 -0.963823 0
M  V30 2393 H 217.985 -2.57459 -0.0851722 0
M  V30 2394 H 217.943 -2.56781 -1.81414 0
M  V30 2395 N 221.715 -0.905404 -1.28997 0
M  V30 2396 C 222.678 -0.392253 -2.25819 0
M  V30 2397 C 223.678 0.476753 -1.5357 0
M  V30 2398 O 224.868 0.280994 -1.71919 0
M  V30 2399 C 222 0.438588 -3.38067 0
M  V30 2400 H 223.193 -1.24743 -2.72725 0
M  V30 2401 H 220.746 -0.684051 -1.40536 0
M  V30 2402 H 221.481 1.31352 -2.96508 0
M  V30 2403 H 221.266 -0.184167 -3.91667 0
M  V30 2404 H 222.756 0.78873 -4.10084 0
M  V30 2405 N 223.193 1.4272 -0.668489 0
M  V30 2406 C 224.47 1.95248 -0.117373 0
M  V30 2407 C 224.85 1.60919 1.36632 0
M  V30 2408 O 224.198 0.902095 2.09939 0
M  V30 2409 C 224.408 3.46927 -0.379806 0
M  V30 2410 C 225.756 4.23588 -0.292923 0
M  V30 2411 O 226.78 3.5482 -0.313204 0
M  V30 2412 O 225.639 5.46017 -0.229697 0
M  V30 2413 H 222.733 0.827 0.00079152 0
M  V30 2414 H 225.279 1.52581 -0.742783 0
M  V30 2415 H 224.051 3.65096 -1.40786 0
M  V30 2416 H 223.674 3.96627 0.277923 0
M  V30 2417 N 224.671 0.411399 1.52136 0
M  V30 2418 C 225.919 -0.163322 2.01439 0
M  V30 2419 C 226.24 -1.45453 1.29879 0
M  V30 2420 O 225.51 -1.91225 0.4254 0
M  V30 2421 H 224.09 -0.0633447 0.744309 0
M  V30 2422 H 226.752 0.548161 1.87033 0
M  V30 2423 H 225.848 -0.357817 3.10042 0
M  V30 2424 N 226.149 -1.5696 0.141893 0
M  V30 2425 C 227.059 -2.20066 -0.812905 0
M  V30 2426 C 228.075 -1.18344 -1.27557 0
M  V30 2427 O 229.251 -1.50902 -1.33381 0
M  V30 2428 C 226.316 -2.80583 -2.03652 0
M  V30 2429 C 225.377 -3.97414 -1.62359 0
M  V30 2430 C 224.61 -4.55036 -2.78887 0
M  V30 2431 O 224.833 -4.11538 -3.94959 0
M  V30 2432 O 223.767 -5.45376 -2.54653 0
M  V30 2433 H 227.593 -3.02157 -0.305746 0
M  V30 2434 H 225.178 -1.49159 -0.0848799 0
M  V30 2435 H 227.06 -3.19067 -2.75272 0
M  V30 2436 H 225.735 -2.01508 -2.5333 0
M  V30 2437 H 224.642 -3.63656 -0.877775 0
M  V30 2438 H 225.975 -4.77994 -1.17401 0
M  V30 2439 N 227.627 0.131896 -1.57047 0
M  V30 2440 C 228.874 0.841932 -1.84168 0
M  V30 2441 C 229.202 1.8048 -0.725066 0
M  V30 2442 O 228.457 1.93618 0.284692 0
M  V30 2443 C 228.756 1.63703 -3.17704 0
M  V30 2444 C 228.422 0.81961 -4.43388 0
M  V30 2445 C 227.084 0.594148 -4.77518 0
M  V30 2446 C 229.436 0.248977 -5.20605 0
M  V30 2447 C 226.764 -0.212409 -5.86315 0
M  V30 2448 C 229.116 -0.544701 -6.30251 0
M  V30 2449 C 227.78 -0.780599 -6.6292 0
M  V30 2450 H 227.05 0.308085 -0.673917 0
M  V30 2451 H 229.697 0.104867 -1.91213 0
M  V30 2452 H 228.002 2.44464 -3.06177 0
M  V30 2453 H 229.699 2.19015 -3.35907 0
M  V30 2454 H 226.289 1.00542 -4.16641 0
M  V30 2455 H 230.473 0.410408 -4.946 0
M  V30 2456 H 225.729 -0.404524 -6.1006 0
M  V30 2457 H 229.903 -0.993922 -6.89271 0
M  V30 2458 H 227.53 -1.40742 -7.47058 0
M  V30 2459 N 229.106 1.52395 0.401703 0
M  V30 2460 C 230.069 1.75636 1.47257 0
M  V30 2461 C 231.069 0.62628 1.48103 0
M  V30 2462 O 232.259 0.894227 1.49497 0
M  V30 2463 C 229.391 1.84553 2.86624 0
M  V30 2464 H 230.584 2.71241 1.27938 0
M  V30 2465 H 228.137 1.42923 0.632662 0
M  V30 2466 H 228.872 0.908882 3.11303 0
M  V30 2467 H 228.657 2.66715 2.87412 0
M  V30 2468 H 230.147 2.04251 3.64241 0
M  V30 2469 N 230.584 -0.659388 1.43143 0
M  V30 2470 C 231.83 -1.42145 1.44647 0
M  V30 2471 C 232.163 -1.9408 0.0681907 0
M  V30 2472 O 231.438 -1.71899 -0.910007 0
M  V30 2473 C 231.721 -2.60735 2.48373 0
M  V30 2474 C 231.574 -2.14332 3.95451 0
M  V30 2475 C 232.893 -3.62951 2.48906 0
M  V30 2476 H 230.012 -0.51552 0.526696 0
M  V30 2477 H 232.654 -0.748069 1.74654 0
M  V30 2478 H 230.804 -3.18184 2.22916 0
M  V30 2479 H 232.476 -1.61932 4.31944 0
M  V30 2480 H 230.719 -1.4576 4.08578 0
M  V30 2481 H 231.39 -2.99583 4.63631 0
M  V30 2482 H 233.866 -3.1525 2.71582 0
M  V30 2483 H 232.742 -4.43487 3.23435 0
M  V30 2484 H 233.003 -4.15126 1.52061 0
M  V30 2485 N 232.062 -1.29571 -0.897171 0
M  V30 2486 C 233.29 -1.20583 -1.68129 0
M  V30 2487 C 233.705 0.233181 -1.87354 0
M  V30 2488 O 233.062 1.15579 -1.41236 0
M  V30 2489 C 233.113 -1.91772 -3.06441 0
M  V30 2490 O 232.834 -3.30053 -2.88091 0
M  V30 2491 C 234.335 -1.89291 -4.00854 0
M  V30 2492 H 231.555 -0.417826 -0.525036 0
M  V30 2493 H 234.099 -1.70987 -1.12177 0
M  V30 2494 H 232.254 -1.45196 -3.59161 0
M  V30 2495 H 232.668 -3.65942 -3.75748 0
M  V30 2496 H 234.142 -2.43662 -4.95311 0
M  V30 2497 H 234.619 -0.869014 -4.30517 0
M  V30 2498 H 235.225 -2.35622 -3.54066 0
M  V30 2499 N 233.54 1.10788 -1.12088 0
M  V30 2500 C 234.49 2.15158 -0.754401 0
M  V30 2501 C 235.474 1.59026 0.244846 0
M  V30 2502 O 236.666 1.76927 0.0509097 0
M  V30 2503 C 233.795 3.42677 -0.206657 0
M  V30 2504 C 232.881 4.05751 -1.23398 0
M  V30 2505 N 233.272 4.43582 -2.43041 0
M  V30 2506 C 231.57 4.32764 -1.07848 0
M  V30 2507 C 232.271 4.93085 -3.08613 0
M  V30 2508 N 231.247 4.89664 -2.36072 0
M  V30 2509 H 235.049 2.42195 -1.6649 0
M  V30 2510 H 232.563 1.27872 -1.00112 0
M  V30 2511 H 234.56 4.16834 0.0740646 0
M  V30 2512 H 233.22 3.17101 0.698342 0
M  V30 2513 H 234.231 4.35395 -2.80449 0
M  V30 2514 H 230.908 4.16863 -0.230483 0
M  V30 2515 H 232.298 5.31933 -4.10483 0
M  V30 2516 N 235.018 0.912232 1.28515 0
M  V30 2517 C 235.951 0.343928 2.25593 0
M  V30 2518 C 236.929 -0.550994 1.5298 0
M  V30 2519 O 238.113 -0.494991 1.81885 0
M  V30 2520 C 235.24 -0.508525 3.34861 0
M  V30 2521 C 234.286 0.320808 4.25292 0
M  V30 2522 S 235.119 1.72658 5.06902 0
M  V30 2523 C 236.275 0.881394 6.19663 0
M  V30 2524 H 236.508 1.16674 2.73449 0
M  V30 2525 H 234.041 0.713384 1.36931 0
M  V30 2526 H 235.999 -0.994539 3.9827 0
M  V30 2527 H 234.66 -1.30571 2.85675 0
M  V30 2528 H 233.853 -0.330941 5.02912 0
M  V30 2529 H 233.455 0.74042 3.66598 0
M  V30 2530 H 235.747 0.110359 6.7741 0
M  V30 2531 H 236.69 1.63009 6.89082 0
M  V30 2532 H 237.098 0.430239 5.62858 0
M  V30 2533 N 236.496 -1.42363 0.676048 0
M  V30 2534 C 237.724 -2.05859 0.207268 0
M  V30 2535 C 238.139 -1.50796 -1.13605 0
M  V30 2536 O 237.496 -0.648265 -1.70598 0
M  V30 2537 C 237.547 -3.61248 0.134975 0
M  V30 2538 O 237.268 -4.1427 1.42521 0
M  V30 2539 C 238.769 -4.41859 -0.357151 0
M  V30 2540 H 235.989 -0.663431 0.100503 0
M  V30 2541 H 238.533 -1.82479 0.923136 0
M  V30 2542 H 236.688 -3.83735 -0.531588 0
M  V30 2543 H 237.102 -5.0815 1.29939 0
M  V30 2544 H 238.576 -5.50847 -0.356641 0
M  V30 2545 H 239.053 -4.16536 -1.39264 0
M  V30 2546 H 239.659 -4.24392 0.27772 0
M  V30 2547 N 237.974 -0.419461 -1.51915 0
M  V30 2548 C 238.921 0.400927 -2.27291 0
M  V30 2549 C 239.891 1.03224 -1.30131 0
M  V30 2550 O 241.076 1.05455 -1.59009 0
M  V30 2551 C 238.216 1.50603 -3.10504 0
M  V30 2552 C 237.329 0.89462 -4.22635 0
M  V30 2553 C 236.464 1.97328 -4.93189 0
M  V30 2554 C 235.503 1.33935 -5.97267 0
M  V30 2555 N 234.64 2.3586 -6.61298 0
M  V30 2556 H 239.48 -0.248251 -2.96964 0
M  V30 2557 H 237.017 -0.134266 -1.46486 0
M  V30 2558 H 238.975 2.15783 -3.57062 0
M  V30 2559 H 237.605 2.12509 -2.42981 0
M  V30 2560 H 236.657 0.131583 -3.80172 0
M  V30 2561 H 237.969 0.391641 -4.9726 0
M  V30 2562 H 237.123 2.70211 -5.43204 0
M  V30 2563 H 235.862 2.50994 -4.18155 0
M  V30 2564 H 234.867 0.595896 -5.46561 0
M  V30 2565 H 236.092 0.810252 -6.74249 0
M  V30 2566 H 234.038 2.88639 -5.89087 0
M  V30 2567 H 233.955 1.90403 -7.3163 0
M  V30 2568 H 235.223 3.08282 -7.15949 0
M  V30 2569 N 239.452 1.56882 -0.150215 0
M  V30 2570 C 240.415 2.1573 0.774157 0
M  V30 2571 C 241.415 1.0999 1.17298 0
M  V30 2572 O 242.605 1.35613 1.09338 0
M  V30 2573 C 239.737 2.72302 2.05096 0
M  V30 2574 H 240.93 2.98752 0.262201 0
M  V30 2575 H 238.483 1.55985 0.099248 0
M  V30 2576 H 239.218 1.92956 2.6065 0
M  V30 2577 H 239.003 3.49665 1.77416 0
M  V30 2578 H 240.493 3.17632 2.71109 0
M  V30 2579 N 240.93 -0.123565 1.57115 0
M  V30 2580 C 241.88 -1.1575 1.96433 0
M  V30 2581 C 242.864 -1.37313 0.838686 0
M  V30 2582 O 244.056 -1.38482 1.10235 0
M  V30 2583 C 241.185 -2.48526 2.36833 0
M  V30 2584 C 240.271 -2.30457 3.5602 0
M  V30 2585 N 240.662 -1.8219 4.71848 0
M  V30 2586 C 238.96 -2.61129 3.61563 0
M  V30 2587 C 239.661 -1.77721 5.53886 0
M  V30 2588 N 238.637 -2.21899 4.96248 0
M  V30 2589 H 242.439 -0.776797 2.83449 0
M  V30 2590 H 239.953 -0.331364 1.58983 0
M  V30 2591 H 241.95 -3.233 2.63216 0
M  V30 2592 H 240.61 -2.87358 1.5118 0
M  V30 2593 H 241.621 -1.51805 4.95152 0
M  V30 2594 H 238.298 -3.03678 2.86507 0
M  V30 2595 H 239.688 -1.41697 6.56789 0
M  V30 2596 N 242.408 -1.52605 -0.393616 0
M  V30 2597 C 243.338 -1.80022 -1.48709 0
M  V30 2598 C 244.319 -0.651995 -1.57108 0
M  V30 2599 O 245.504 -0.89913 -1.72132 0
M  V30 2600 C 242.634 -1.96492 -2.86371 0
M  V30 2601 C 241.588 -3.12161 -2.92813 0
M  V30 2602 C 240.914 -3.13877 -4.3288 0
M  V30 2603 C 242.214 -4.51322 -2.6288 0
M  V30 2604 H 243.908 -2.71589 -1.26015 0
M  V30 2605 H 241.454 -1.30684 -0.604778 0
M  V30 2606 H 243.407 -2.14255 -3.62867 0
M  V30 2607 H 242.131 -1.01611 -3.10391 0
M  V30 2608 H 240.79 -2.94173 -2.18764 0
M  V30 2609 H 240.438 -2.16687 -4.53933 0
M  V30 2610 H 240.138 -3.91576 -4.38112 0
M  V30 2611 H 241.662 -3.33789 -5.1129 0
M  V30 2612 H 243.076 -4.69435 -3.29096 0
M  V30 2613 H 241.473 -5.31053 -2.79468 0
M  V30 2614 H 242.543 -4.58353 -1.58242 0
M  V30 2615 N 243.887 0.651787 -1.4349 0
M  V30 2616 C 245.134 1.41167 -1.45183 0
M  V30 2617 C 245.462 1.94349 -0.0766601 0
M  V30 2618 O 244.717 1.72804 0.918555 0
M  V30 2619 C 245.016 2.60914 -2.44251 0
M  V30 2620 C 244.682 2.26142 -3.9009 0
M  V30 2621 C 243.344 2.16371 -4.2981 0
M  V30 2622 C 245.696 1.98334 -4.81989 0
M  V30 2623 C 243.024 1.7695 -5.5938 0
M  V30 2624 C 245.376 1.6041 -6.11924 0
M  V30 2625 C 244.04 1.49166 -6.5062 0
M  V30 2626 H 243.31 0.516566 -0.531263 0
M  V30 2627 H 245.957 0.741099 -1.76579 0
M  V30 2628 H 244.262 3.3311 -2.06265 0
M  V30 2629 H 245.959 3.19127 -2.42815 0
M  V30 2630 H 242.549 2.34658 -3.58655 0
M  V30 2631 H 246.733 2.04803 -4.52072 0
M  V30 2632 H 241.989 1.66831 -5.88198 0
M  V30 2633 H 246.163 1.37925 -6.82605 0
M  V30 2634 H 243.79 1.1839 -7.50925 0
M  V30 2635 N 245.365 1.30045 0.890287 0
M  V30 2636 C 246.59 1.21598 1.68014 0
M  V30 2637 C 247.015 -0.218678 1.86825 0
M  V30 2638 O 246.373 -1.15756 1.39536 0
M  V30 2639 C 246.421 1.94434 3.03691 0
M  V30 2640 O 245.525 1.2678 3.92429 0
M  V30 2641 H 244.866 0.420856 0.513592 0
M  V30 2642 H 247.396 1.71775 1.11151 0
M  V30 2643 H 247.406 2.03251 3.5377 0
M  V30 2644 H 246.081 2.98777 2.89318 0
M  V30 2645 H 244.658 1.26282 3.50866 0
M  V30 2646 N 246.843 -1.10192 1.12674 0
M  V30 2647 C 248.071 -1.85983 0.906527 0
M  V30 2648 C 248.486 -1.80783 -0.544333 0
M  V30 2649 O 247.843 -1.19834 -1.37645 0
M  V30 2650 C 247.894 -3.34281 1.37618 0
M  V30 2651 O 247.615 -3.39401 2.77017 0
M  V30 2652 C 249.116 -4.26938 1.19325 0
M  V30 2653 H 246.336 -0.587716 0.323775 0
M  V30 2654 H 248.88 -1.39284 1.49734 0
M  V30 2655 H 247.035 -3.78436 0.828539 0
M  V30 2656 H 247.449 -4.31838 2.97684 0
M  V30 2657 H 248.923 -5.29181 1.57071 0
M  V30 2658 H 249.4 -4.38995 0.134097 0
M  V30 2659 H 250.006 -3.8859 1.72852 0
M  V30 2660 N 248.321 -0.919034 -1.28029 0
M  V30 2661 C 249.569 -0.553838 -1.94363 0
M  V30 2662 C 249.89 0.906357 -1.72656 0
M  V30 2663 O 249.16 1.64143 -1.0693 0
M  V30 2664 H 247.74 -0.201834 -0.719216 0
M  V30 2665 H 250.402 -1.16954 -1.55909 0
M  V30 2666 H 249.498 -0.752758 -3.02886 0
M  V30 2667 N 249.799 1.42003 -0.683588 0
M  V30 2668 C 251.027 2.05746 -0.218182 0
M  V30 2669 C 251.442 1.51396 1.12804 0
M  V30 2670 O 250.799 0.657303 1.70252 0
M  V30 2671 C 250.85 3.61171 -0.154131 0
M  V30 2672 O 250.571 4.13508 -1.44716 0
M  V30 2673 C 252.072 4.42042 0.333713 0
M  V30 2674 H 249.292 0.662888 -0.10402 0
M  V30 2675 H 251.836 1.81987 -0.9328 0
M  V30 2676 H 249.991 3.84012 0.511231 0
M  V30 2677 H 250.405 5.07453 -1.32632 0
M  V30 2678 H 251.879 5.51028 0.327423 0
M  V30 2679 H 252.356 4.17269 1.37053 0
M  V30 2680 H 252.962 4.24239 -0.300222 0
M  V30 2681 N 251.277 0.427512 1.51691 0
M  V30 2682 C 252.523 -0.142439 2.02299 0
M  V30 2683 C 252.856 -1.43214 1.31162 0
M  V30 2684 O 252.131 -1.89833 0.423511 0
M  V30 2685 C 252.414 -0.371301 3.58181 0
M  V30 2686 C 252.267 0.936358 4.39946 0
M  V30 2687 C 253.586 -1.14542 4.24933 0
M  V30 2688 H 250.705 -0.0502937 0.735282 0
M  V30 2689 H 253.347 0.564584 1.81418 0
M  V30 2690 H 251.497 -0.973559 3.76104 0
M  V30 2691 H 253.169 1.57184 4.33694 0
M  V30 2692 H 251.412 1.5432 4.05423 0
M  V30 2693 H 252.083 0.730388 5.47147 0
M  V30 2694 H 254.559 -0.635362 4.11221 0
M  V30 2695 H 253.435 -1.27431 5.33903 0
M  V30 2696 H 253.696 -2.17093 3.85127 0
M  V30 2697 N 252.755 -1.56801 0.158532 0
M  V30 2698 C 253.705 -2.13923 -0.788738 0
M  V30 2699 C 254.689 -1.07006 -1.2016 0
M  V30 2700 O 255.881 -1.33159 -1.1661 0
M  V30 2701 C 253.01 -2.77348 -2.02319 0
M  V30 2702 C 252.096 -3.91404 -1.6329 0
M  V30 2703 N 252.487 -4.9677 -0.951463 0
M  V30 2704 C 250.785 -4.02326 -1.92482 0
M  V30 2705 C 251.486 -5.76698 -0.761221 0
M  V30 2706 N 250.462 -5.27859 -1.29869 0
M  V30 2707 H 254.264 -2.92757 -0.258995 0
M  V30 2708 H 251.778 -1.62344 -0.0426055 0
M  V30 2709 H 253.775 -3.16639 -2.71192 0
M  V30 2710 H 252.435 -1.99991 -2.558 0
M  V30 2711 H 253.446 -5.14284 -0.610928 0
M  V30 2712 H 250.123 -3.36059 -2.47732 0
M  V30 2713 H 251.513 -6.71529 -0.223284 0
M  V30 2714 N 254.233 0.115231 -1.57178 0
M  V30 2715 C 255.479 0.818565 -1.86202 0
M  V30 2716 C 255.834 1.77316 -0.746785 0
M  V30 2717 O 255.127 1.89923 0.25291 0
M  V30 2718 C 255.321 1.60324 -3.19423 0
M  V30 2719 C 255.15 0.726138 -4.43799 0
M  V30 2720 C 253.92 0.379535 -5.03873 0
M  V30 2721 C 256.118 0.0420774 -5.14283 0
M  V30 2722 N 254.1 -0.507841 -6.11796 0
M  V30 2723 C 255.471 -0.704152 -6.15988 0
M  V30 2724 C 257.526 -0.0339486 -4.97888 0
M  V30 2725 C 256.229 -1.51927 -7.03072 0
M  V30 2726 C 258.255 -0.835906 -5.85463 0
M  V30 2727 C 257.617 -1.57031 -6.86673 0
M  V30 2728 H 253.716 0.276343 -0.731545 0
M  V30 2729 H 256.3 0.0821032 -1.94527 0
M  V30 2730 H 254.471 2.31072 -3.12186 0
M  V30 2731 H 256.203 2.2522 -3.36241 0
M  V30 2732 H 252.958 0.722634 -4.68054 0
M  V30 2733 H 253.382 -0.94349 -6.70393 0
M  V30 2734 H 258.024 0.519496 -4.19596 0
M  V30 2735 H 255.742 -2.08386 -7.80769 0
M  V30 2736 H 259.328 -0.89714 -5.74841 0
M  V30 2737 H 258.208 -2.18088 -7.53264 0
M  V30 2738 N 255.711 1.52812 0.385517 0
M  V30 2739 C 256.957 1.68275 1.13188 0
M  V30 2740 C 257.29 0.423179 1.89533 0
M  V30 2741 O 256.565 -0.579113 1.85679 0
M  V30 2742 C 256.848 2.92001 2.1073 0
M  V30 2743 C 256.701 4.28067 1.38125 0
M  V30 2744 C 258.02 3.11283 3.11113 0
M  V30 2745 H 255.139 0.612352 0.410115 0
M  V30 2746 H 257.781 1.85415 0.414869 0
M  V30 2747 H 255.931 2.77519 2.71874 0
M  V30 2748 H 257.603 4.54324 0.799187 0
M  V30 2749 H 255.846 4.28388 0.683092 0
M  V30 2750 H 256.517 5.10733 2.09417 0
M  V30 2751 H 258.993 3.2482 2.6006 0
M  V30 2752 H 257.869 3.99325 3.76605 0
M  V30 2753 H 258.13 2.25656 3.80173 0
M  V30 2754 N 257.189 -0.644168 1.43834 0
M  V30 2755 C 258.6 -1.22554 1.40845 0
M  V30 2756 C 258.951 -1.9585 0.117115 0
M  V30 2757 O 258.076 -2.01734 -0.783086 0
M  V30 2758 C 258.671 -2.22907 2.55143 0
M  V30 2759 C 257.23 -2.76501 2.5539 0
M  V30 2760 C 256.377 -1.51287 2.32396 0
M  V30 2761 H 259.328 -0.43563 1.52604 0
M  V30 2762 H 259.349 -3.05259 2.2715 0
M  V30 2763 H 258.861 -1.69533 3.49114 0
M  V30 2764 H 256.962 -3.33914 1.65324 0
M  V30 2765 H 257.075 -3.23429 3.53455 0
M  V30 2766 H 255.439 -1.78957 1.81236 0
M  V30 2767 H 256.222 -0.998336 3.28463 0
M  V30 2768 N 258.668 -1.30515 -0.883378 0
M  V30 2769 C 260.079 -1.17509 -1.45081 0
M  V30 2770 C 260.43 0.223605 -1.94922 0
M  V30 2771 O 259.555 1.12041 -1.85137 0
M  V30 2772 C 260.15 -2.12715 -2.63701 0
M  V30 2773 C 258.709 -2.03682 -3.16529 0
M  V30 2774 C 257.856 -2.02706 -1.89224 0
M  V30 2775 H 260.807 -1.42762 -0.693165 0
M  V30 2776 H 260.828 -1.70891 -3.39965 0
M  V30 2777 H 260.34 -3.14505 -2.27395 0
M  V30 2778 H 258.441 -1.05039 -3.57488 0
M  V30 2779 H 258.554 -2.92146 -3.7972 0
M  V30 2780 H 256.918 -1.4753 -2.07622 0
M  V30 2781 H 257.701 -3.06229 -1.55174 0
M  V30 2782 N 260.146 1.09593 -1.13257 0
M  V30 2783 C 261.109 2.14359 -0.811358 0
M  V30 2784 C 262.109 1.59808 0.178377 0
M  V30 2785 O 263.299 1.74132 -0.0484911 0
M  V30 2786 C 260.431 3.40269 -0.207276 0
M  V30 2787 H 261.624 2.44284 -1.73969 0
M  V30 2788 H 259.177 1.25102 -0.936973 0
M  V30 2789 H 259.912 3.15969 0.73036 0
M  V30 2790 H 259.697 3.81154 -0.919992 0
M  V30 2791 H 261.187 4.176 0.000667944 0
M  V30 2792 N 261.624 0.925811 1.2754 0
M  V30 2793 C 262.873 0.561084 1.93739 0
M  V30 2794 C 263.186 -0.901685 1.73577 0
M  V30 2795 O 264.392 -1.37511 2.34101 0
M  V30 2796 C 262.848 0.952668 3.47062 0
M  V30 2797 C 262.456 2.43599 3.75983 0
M  V30 2798 C 264.2 0.659103 4.19352 0
M  V30 2799 C 262.107 2.76707 5.22673 0
M  V30 2800 H 261.037 0.206122 0.725279 0
M  V30 2801 H 263.688 1.12637 1.44863 0
M  V30 2802 H 262.07 0.316053 3.94737 0
M  V30 2803 H 263.244 3.12035 3.39073 0
M  V30 2804 H 261.559 2.70125 3.16893 0
M  V30 2805 H 264.156 0.882985 5.27359 0
M  V30 2806 H 264.499 -0.403607 4.14339 0
M  V30 2807 H 265.032 1.25473 3.77494 0
M  V30 2808 H 261.771 3.8188 5.32774 0
M  V30 2809 H 261.291 2.12919 5.60737 0
M  V30 2810 H 262.97 2.6435 5.90532 0
M  V30 2811 N 263.102 -1.41638 0.69111 0
M  V30 2812 C 264.332 -2.0533 0.228758 0
M  V30 2813 C 264.74 -1.52089 -1.12541 0
M  V30 2814 O 264.083 -0.662145 -1.71351 0
M  V30 2815 C 264.145 -3.59349 0.10407 0
M  V30 2816 C 263.809 -4.35362 1.38956 0
M  V30 2817 C 264.806 -4.64942 2.32648 0
M  V30 2818 C 262.491 -4.74714 1.64169 0
M  V30 2819 C 264.485 -5.32828 3.49818 0
M  V30 2820 C 262.172 -5.42338 2.81625 0
M  V30 2821 C 263.17 -5.71322 3.74273 0
M  V30 2822 O 262.858 -6.37554 4.89673 0
M  V30 2823 H 262.59 -0.667796 0.104997 0
M  V30 2824 H 265.144 -1.82477 0.942938 0
M  V30 2825 H 263.374 -3.80924 -0.665839 0
M  V30 2826 H 265.063 -4.04633 -0.320519 0
M  V30 2827 H 265.829 -4.35025 2.14425 0
M  V30 2828 H 261.708 -4.51538 0.929202 0
M  V30 2829 H 265.252 -5.55368 4.22152 0
M  V30 2830 H 261.149 -5.71673 2.99768 0
M  V30 2831 H 261.917 -6.56049 4.8943 0
M  V30 2832 N 264.58 -0.43555 -1.51462 0
M  V30 2833 C 265.527 0.376797 -2.27703 0
M  V30 2834 C 266.497 1.01838 -1.31219 0
M  V30 2835 O 267.682 1.03762 -1.60119 0
M  V30 2836 C 264.822 1.47301 -3.12084 0
M  V30 2837 C 263.935 0.849744 -4.2356 0
M  V30 2838 C 263.07 1.92086 -4.95254 0
M  V30 2839 C 262.109 1.27593 -5.98654 0
M  V30 2840 N 261.246 2.28833 -6.63762 0
M  V30 2841 H 266.086 -0.279734 -2.96684 0
M  V30 2842 H 263.623 -0.149795 -1.46335 0
M  V30 2843 H 265.581 2.11984 -3.59331 0
M  V30 2844 H 264.211 2.0992 -2.45221 0
M  V30 2845 H 263.263 0.0912529 -3.80291 0
M  V30 2846 H 264.575 0.338878 -4.97648 0
M  V30 2847 H 263.729 2.64435 -5.46039 0
M  V30 2848 H 262.468 2.46545 -4.20793 0
M  V30 2849 H 261.473 0.537893 -5.47162 0
M  V30 2850 H 262.698 0.738693 -6.7507 0
M  V30 2851 H 260.644 2.82375 -5.92115 0
M  V30 2852 H 260.561 1.82632 -7.33608 0
M  V30 2853 H 261.829 3.00671 -7.19178 0
M  V30 2854 N 266.058 1.56714 -0.166846 0
M  V30 2855 C 267.283 2.01557 0.488833 0
M  V30 2856 C 267.708 1.0463 1.56314 0
M  V30 2857 O 267.066 0.0251304 1.81283 0
M  V30 2858 C 267.114 3.4503 1.04818 0
M  V30 2859 O 266.218 3.51163 2.16236 0
M  V30 2860 H 265.559 0.653516 0.117526 0
M  V30 2861 H 268.089 2.02818 -0.269421 0
M  V30 2862 H 268.099 3.84243 1.37191 0
M  V30 2863 H 266.774 4.15077 0.261572 0
M  V30 2864 H 265.351 3.23807 1.84942 0
M  V30 2865 N 267.536 -0.106894 1.57237 0
M  V30 2866 C 268.761 -0.830287 1.90055 0
M  V30 2867 C 269.186 -1.72064 0.75998 0
M  V30 2868 O 268.544 -1.78982 -0.288991 0
M  V30 2869 C 268.592 -1.6295 3.21683 0
M  V30 2870 O 267.696 -2.73748 3.08441 0
M  V30 2871 H 267.037 -0.228855 0.623315 0
M  V30 2872 H 269.567 -0.085658 2.04421 0
M  V30 2873 H 269.577 -2.01621 3.54701 0
M  V30 2874 H 268.252 -0.975989 4.04286 0
M  V30 2875 H 266.829 -2.38192 2.86913 0
M  V30 2876 N 269.014 -1.53014 -0.377408 0
M  V30 2877 C 270.254 -1.70318 -1.1301 0
M  V30 2878 C 270.618 -0.439538 -1.86901 0
M  V30 2879 O 271.819 -0.489095 -2.64313 0
M  V30 2880 C 270.09 -2.91125 -2.07319 0
M  V30 2881 S 271.649 -3.29075 -2.90268 0
M  V30 2882 H 268.467 -0.599426 -0.382374 0
M  V30 2883 H 271.069 -1.91089 -0.412933 0
M  V30 2884 H 269.773 -3.81303 -1.51777 0
M  V30 2885 H 269.304 -2.7272 -2.83526 0
M  V30 2886 H 271.319 -2.80165 -4.09539 0
M  V30 2887 N 270.492 0.636531 -1.44174 0
M  V30 2888 C 271.717 1.42847 -1.50364 0
M  V30 2889 C 272.142 1.87665 -0.127867 0
M  V30 2890 O 271.5 1.58408 0.88185 0
M  V30 2891 C 271.548 2.62854 -2.4686 0
M  V30 2892 O 270.652 3.62501 -1.9664 0
M  V30 2893 H 269.993 0.427642 -0.507955 0
M  V30 2894 H 272.523 0.777422 -1.89255 0
M  V30 2895 H 272.533 3.10465 -2.64718 0
M  V30 2896 H 271.208 2.29578 -3.46795 0
M  V30 2897 H 269.785 3.21735 -1.88523 0
M  V30 2898 N 271.97 1.30982 0.876444 0
M  V30 2899 C 273.219 1.19658 1.62373 0
M  V30 2900 C 273.532 -0.245636 1.94052 0
M  V30 2901 O 274.738 -0.48049 2.67214 0
M  V30 2902 C 273.194 2.09433 2.92687 0
M  V30 2903 C 272.802 3.58613 2.68516 0
M  V30 2904 C 274.546 2.06893 3.70669 0
M  V30 2905 C 272.453 4.40416 3.94699 0
M  V30 2906 H 271.383 0.444268 0.609214 0
M  V30 2907 H 274.034 1.55791 0.969605 0
M  V30 2908 H 272.416 1.66191 3.59439 0
M  V30 2909 H 273.59 4.10058 2.10212 0
M  V30 2910 H 271.905 3.63063 2.03898 0
M  V30 2911 H 274.502 2.65258 4.64265 0
M  V30 2912 H 274.845 1.05448 4.02724 0
M  V30 2913 H 275.378 2.48301 3.10792 0
M  V30 2914 H 272.117 5.42591 3.67798 0
M  V30 2915 H 271.637 3.93731 4.52477 0
M  V30 2916 H 273.316 4.52294 4.62644 0
M  V30 2917 N 273.449 -1.08991 1.13837 0
M  V30 2918 C 274.726 -1.77863 0.813876 0
M  V30 2919 C 275.106 -1.99375 -0.693746 0
M  V30 2920 O 274.454 -1.59875 -1.63255 0
M  V30 2921 C 274.664 -3.0986 1.60586 0
M  V30 2922 C 276.012 -3.84493 1.8014 0
M  V30 2923 O 277.036 -3.19624 1.57222 0
M  V30 2924 O 275.895 -5.00957 2.18413 0
M  V30 2925 H 272.989 -0.771589 0.297624 0
M  V30 2926 H 275.535 -1.15507 1.24323 0
M  V30 2927 H 274.307 -2.89715 2.63022 0
M  V30 2928 H 273.93 -3.79942 1.17173 0
M  V30 2929 N 274.927 -0.932562 -1.27047 0
M  V30 2930 C 276.173 -0.576412 -1.94436 0
M  V30 2931 C 276.506 0.880891 -1.73072 0
M  V30 2932 O 275.781 1.62905 -1.06264 0
M  V30 2933 C 276.064 -0.909031 -3.48437 0
M  V30 2934 C 275.917 -2.42044 -3.79123 0
M  V30 2935 C 277.236 -0.418341 -4.38107 0
M  V30 2936 H 274.355 -0.210888 -0.706184 0
M  V30 2937 H 276.997 -1.16522 -1.50075 0
M  V30 2938 H 275.147 -0.407947 -3.86352 0
M  V30 2939 H 276.819 -2.99359 -3.50973 0
M  V30 2940 H 275.062 -2.86758 -3.25503 0
M  V30 2941 H 275.733 -2.6037 -4.86736 0
M  V30 2942 H 278.209 -0.847856 -4.0737 0
M  V30 2943 H 277.085 -0.679981 -5.44672 0
M  V30 2944 H 277.346 0.681642 -4.36814 0
M  V30 2945 N 276.405 1.4127 -0.698611 0
M  V30 2946 C 277.633 2.05503 -0.239992 0
M  V30 2947 C 278.048 1.52584 1.11191 0
M  V30 2948 O 277.405 0.675323 1.69545 0
M  V30 2949 C 277.456 3.60987 -0.192429 0
M  V30 2950 O 277.177 4.1195 -1.49094 0
M  V30 2951 C 278.678 4.42371 0.28681 0
M  V30 2952 H 275.898 0.661748 -0.111045 0
M  V30 2953 H 278.442 1.80987 -0.95205 0
M  V30 2954 H 276.597 3.84533 0.470472 0
M  V30 2955 H 277.011 5.06018 -1.38007 0
M  V30 2956 H 278.485 5.51344 0.26896 0
M  V30 2957 H 278.962 4.18699 1.32619 0
M  V30 2958 H 279.568 4.23897 -0.345201 0
M  V30 2959 N 277.883 0.443576 1.51229 0
M  V30 2960 C 279.13 -0.120796 2.02139 0
M  V30 2961 C 279.458 -1.42166 1.32736 0
M  V30 2962 O 278.713 -1.90849 0.43301 0
M  V30 2963 C 279.012 -0.380579 3.55368 0
M  V30 2964 C 278.678 0.83523 4.43097 0
M  V30 2965 C 277.34 1.16864 4.66794 0
M  V30 2966 C 279.692 1.64601 4.94526 0
M  V30 2967 C 277.02 2.31339 5.39165 0
M  V30 2968 C 279.372 2.78181 5.68153 0
M  V30 2969 C 278.036 3.11969 5.90112 0
M  V30 2970 H 277.306 -0.0442023 0.73968 0
M  V30 2971 H 279.953 0.592046 1.82118 0
M  V30 2972 H 278.258 -1.17538 3.73754 0
M  V30 2973 H 279.955 -0.830777 3.923 0
M  V30 2974 H 276.545 0.565437 4.24854 0
M  V30 2975 H 280.729 1.40163 4.76097 0
M  V30 2976 H 275.985 2.57823 5.5438 0
M  V30 2977 H 280.159 3.41371 6.06992 0
M  V30 2978 H 277.786 4.00784 6.45969 0
M  V30 2979 N 279.361 -1.56624 0.175154 0
M  V30 2980 C 280.608 -1.96999 -0.468811 0
M  V30 2981 C 280.936 -1.06129 -1.62994 0
M  V30 2982 O 280.191 -0.0961771 -1.95464 0
M  V30 2983 C 280.49 -3.43419 -0.989864 0
M  V30 2984 C 280.156 -4.50866 0.0557687 0
M  V30 2985 C 278.818 -4.79975 0.343134 0
M  V30 2986 C 281.17 -5.15551 0.765308 0
M  V30 2987 C 278.498 -5.71066 1.34536 0
M  V30 2988 C 280.85 -6.07724 1.75654 0
M  V30 2989 C 279.514 -6.35199 2.05132 0
M  V30 2990 H 278.784 -0.720869 -0.17155 0
M  V30 2991 H 281.431 -1.89616 0.267924 0
M  V30 2992 H 279.736 -3.47772 -1.80449 0
M  V30 2993 H 281.433 -3.72002 -1.49719 0
M  V30 2994 H 278.023 -4.28229 -0.178381 0
M  V30 2995 H 282.207 -4.9317 0.556513 0
M  V30 2996 H 277.463 -5.90635 1.57988 0
M  V30 2997 H 281.637 -6.56912 2.31169 0
M  V30 2998 H 279.264 -7.05584 2.8294 0
M  V30 2999 N 280.839 0.0985539 -1.57292 0
M  V30 3000 C 282.25 0.653457 -1.74891 0
M  V30 3001 C 282.601 1.7929 -0.796838 0
M  V30 3002 O 281.726 2.16385 0.0254886 0
M  V30 3003 C 282.321 1.19216 -3.17133 0
M  V30 3004 C 280.88 1.69316 -3.36168 0
M  V30 3005 C 280.027 0.601294 -2.70702 0
M  V30 3006 H 282.978 -0.127497 -1.58187 0
M  V30 3007 H 282.999 2.06154 -3.19814 0
M  V30 3008 H 282.511 0.362635 -3.86402 0
M  V30 3009 H 280.612 2.5468 -2.71972 0
M  V30 3010 H 280.725 1.78853 -4.44464 0
M  V30 3011 H 279.089 1.0399 -2.32504 0
M  V30 3012 H 279.872 -0.217592 -3.4261 0
M  V30 3013 N 282.317 1.53212 0.369288 0
M  V30 3014 C 283.564 1.69215 1.11232 0
M  V30 3015 C 283.892 0.442048 1.8941 0
M  V30 3016 O 283.147 -0.575944 1.87033 0
M  V30 3017 C 283.446 2.89101 2.10132 0
M  V30 3018 C 283.112 4.25758 1.48463 0
M  V30 3019 C 281.774 4.6292 1.31372 0
M  V30 3020 C 284.126 5.10757 1.03811 0
M  V30 3021 C 281.454 5.82722 0.68207 0
M  V30 3022 C 283.806 6.31201 0.420487 0
M  V30 3023 C 282.47 6.67079 0.237038 0
M  V30 3024 H 281.74 0.619201 0.407027 0
M  V30 3025 H 284.387 1.87391 0.394552 0
M  V30 3026 H 282.692 2.65421 2.88199 0
M  V30 3027 H 284.389 2.98676 2.6757 0
M  V30 3028 H 280.979 3.96494 1.62758 0
M  V30 3029 H 285.163 4.82599 1.1581 0
M  V30 3030 H 280.419 6.09113 0.528316 0
M  V30 3031 H 284.593 6.96368 0.0662874 0
M  V30 3032 H 282.22 7.59774 -0.254477 0
M  V30 3033 N 283.795 -0.628877 1.44509 0
M  V30 3034 C 285.072 -1.38733 1.37886 0
M  V30 3035 C 285.452 -2.11065 0.0387008 0
M  V30 3036 O 284.8 -2.06476 -0.97878 0
M  V30 3037 C 285.01 -2.35188 2.57852 0
M  V30 3038 C 286.358 -2.9845 3.02014 0
M  V30 3039 O 287.382 -2.45513 2.58073 0
M  V30 3040 O 286.241 -3.94487 3.78209 0
M  V30 3041 H 283.335 -0.621015 0.54614 0
M  V30 3042 H 285.881 -0.653744 1.56602 0
M  V30 3043 H 284.653 -1.80855 3.46998 0
M  V30 3044 H 284.276 -3.1596 2.4136 0
M  V30 3045 N 285.273 -1.31445 -0.869486 0
M  V30 3046 C 286.205 -1.14955 -1.98287 0
M  V30 3047 C 287.218 -0.0885037 -1.62559 0
M  V30 3048 O 288.407 -0.336044 -1.75308 0
M  V30 3049 C 285.507 -0.734255 -3.3085 0
M  V30 3050 C 284.68 -1.88042 -3.94917 0
M  V30 3051 C 283.739 -1.4511 -5.05796 0
M  V30 3052 O 282.765 -2.16082 -5.2659 0
M  V30 3053 N 283.967 -0.338763 -5.79511 0
M  V30 3054 H 286.732 -2.10856 -2.12979 0
M  V30 3055 H 284.293 -1.23786 -1.04349 0
M  V30 3056 H 286.285 -0.42975 -4.02412 0
M  V30 3057 H 284.855 0.133158 -3.12316 0
M  V30 3058 H 284.075 -2.35222 -3.1633 0
M  V30 3059 H 285.363 -2.6481 -4.34457 0
M  V30 3060 H 284.761 0.252274 -5.65137 0
M  V30 3061 H 283.318 -0.0937925 -6.51733 0
M  V30 3062 N 286.751 1.08385 -1.14413 0
M  V30 3063 C 287.683 2.1519 -0.789036 0
M  V30 3064 C 288.696 1.61638 0.19417 0
M  V30 3065 O 289.885 1.78479 -0.0275711 0
M  V30 3066 C 286.985 3.38565 -0.15058 0
M  V30 3067 C 286.158 4.21501 -1.16857 0
M  V30 3068 C 285.217 5.23277 -0.553832 0
M  V30 3069 O 284.243 5.56041 -1.21686 0
M  V30 3070 N 285.445 5.76629 0.669296 0
M  V30 3071 H 288.21 2.46257 -1.70814 0
M  V30 3072 H 285.771 1.24198 -1.03858 0
M  V30 3073 H 287.763 4.03777 0.273181 0
M  V30 3074 H 286.333 3.05299 0.671667 0
M  V30 3075 H 285.553 3.52265 -1.76926 0
M  V30 3076 H 286.841 4.73731 -1.85624 0
M  V30 3077 H 286.239 5.52243 1.22654 0
M  V30 3078 H 284.796 6.43521 1.03556 0
M  V30 3079 N 288.23 0.939286 1.26551 0
M  V30 3080 C 289.178 0.43815 2.28436 0
M  V30 3081 C 290.172 -0.483587 1.62351 0
M  V30 3082 O 291.378 -0.362009 1.76322 0
M  V30 3083 H 287.753 0.123149 0.741848 0
M  V30 3084 H 289.724 1.31002 2.68106 0
M  V30 3085 C 288.473 -0.283052 3.46546 0
M  V30 3086 H 287.796 0.417043 3.97619 0
M  V30 3087 H 289.236 -0.597948 4.19763 0
M  V30 3088 C 287.695 -1.50018 3.01656 0
M  V30 3089 O 288.225 -2.59855 3.0633 0
M  V30 3090 N 286.431 -1.35608 2.57019 0
M  V30 3091 H 285.978 -0.46244 2.53415 0
M  V30 3092 H 285.936 -2.17165 2.27347 0
M  V30 3093 N 289.708 -1.40897 0.706093 0
M  V30 3094 C 290.948 -2.02916 0.245827 0
M  V30 3095 C 291.312 -1.54751 -1.13649 0
M  V30 3096 O 292.513 -2.08768 -1.69321 0
M  V30 3097 C 290.784 -3.56031 0.312537 0
M  V30 3098 S 292.343 -4.38741 -0.0721388 0
M  V30 3099 H 289.161 -0.704186 0.0982007 0
M  V30 3100 H 291.763 -1.72168 0.926207 0
M  V30 3101 H 290.467 -3.88579 1.32039 0
M  V30 3102 H 289.998 -3.91495 -0.386641 0
M  V30 3103 H 292.013 -4.78952 -1.29692 0
M  V30 3104 N 291.186 -0.45159 -1.50991 0
M  V30 3105 C 292.133 0.352625 -2.2809 0
M  V30 3106 C 293.103 1.0044 -1.32291 0
M  V30 3107 O 294.288 1.02058 -1.6121 0
M  V30 3108 C 291.428 1.43983 -3.13629 0
M  V30 3109 C 290.541 0.804772 -4.24438 0
M  V30 3110 C 289.676 1.86822 -4.97263 0
M  V30 3111 C 288.715 1.21236 -5.99973 0
M  V30 3112 N 287.852 2.2178 -6.66152 0
M  V30 3113 H 292.692 -0.311186 -2.96371 0
M  V30 3114 H 290.229 -0.165308 -1.46168 0
M  V30 3115 H 292.187 2.08161 -3.61559 0
M  V30 3116 H 290.817 2.07307 -2.47434 0
M  V30 3117 H 289.869 0.0509129 -3.80366 0
M  V30 3118 H 291.181 0.286076 -4.97979 0
M  V30 3119 H 290.335 2.58628 -5.48813 0
M  V30 3120 H 289.074 2.42068 -4.23385 0
M  V30 3121 H 288.079 0.479828 -5.47702 0
M  V30 3122 H 289.304 0.667051 -6.75816 0
M  V30 3123 H 287.25 2.76079 -5.95077 0
M  V30 3124 H 287.167 1.74841 -7.35504 0
M  V30 3125 H 288.435 2.93026 -7.22327 0
M  V30 3126 N 292.664 1.56529 -0.183458 0
M  V30 3127 C 293.597 2.14417 0.781052 0
M  V30 3128 C 294.575 1.07761 1.21763 0
M  V30 3129 O 295.759 1.35807 1.30724 0
M  V30 3130 C 292.886 2.69361 2.05335 0
M  V30 3131 C 291.932 3.885 1.75982 0
M  V30 3132 S 292.765 5.27568 0.918256 0
M  V30 3133 C 293.921 5.85926 2.20095 0
M  V30 3134 H 294.154 2.95893 0.2889 0
M  V30 3135 H 291.687 1.54368 0.0313844 0
M  V30 3136 H 293.645 3.01662 2.78406 0
M  V30 3137 H 292.306 1.87949 2.51663 0
M  V30 3138 H 291.499 4.25314 2.70415 0
M  V30 3139 H 291.101 3.57149 1.10999 0
M  V30 3140 H 293.393 5.99579 3.15453 0
M  V30 3141 H 294.336 6.82761 1.87731 0
M  V30 3142 H 294.744 5.14438 2.32409 0
M  V30 3143 N 294.142 -0.090211 1.57342 0
M  V30 3144 C 295.089 -1.10909 2.02405 0
M  V30 3145 C 296.059 -1.39523 0.901252 0
M  V30 3146 O 297.244 -1.50903 1.1676 0
M  V30 3147 C 294.384 -2.42277 2.45755 0
M  V30 3148 C 293.497 -2.20352 3.71576 0
M  V30 3149 C 292.632 -3.45154 4.03785 0
M  V30 3150 C 291.671 -3.18512 5.22701 0
M  V30 3151 N 290.808 -4.35593 5.50639 0
M  V30 3152 H 295.648 -0.71782 2.89225 0
M  V30 3153 H 293.185 -0.342901 1.43048 0
M  V30 3154 H 295.143 -3.18951 2.68935 0
M  V30 3155 H 293.773 -2.79242 1.61938 0
M  V30 3156 H 292.825 -1.34458 3.55844 0
M  V30 3157 H 294.137 -1.96661 4.58395 0
M  V30 3158 H 293.291 -4.30233 4.27767 0
M  V30 3159 H 292.03 -3.71904 3.15498 0
M  V30 3160 H 291.035 -2.31827 4.98534 0
M  V30 3161 H 292.26 -2.93103 6.12591 0
M  V30 3162 H 290.206 -4.6241 4.6531 0
M  V30 3163 H 290.123 -4.1511 6.31838 0
M  V30 3164 H 291.391 -5.21723 5.7916 0
M  V30 3165 N 295.62 -1.53406 -0.361157 0
M  V30 3166 C 296.867 -1.69802 -1.10333 0
M  V30 3167 C 297.195 -0.452087 -1.89173 0
M  V30 3168 O 296.45 0.566017 -1.87336 0
M  V30 3169 C 296.749 -2.90211 -2.08596 0
M  V30 3170 C 296.415 -4.26539 -1.46203 0
M  V30 3171 C 295.077 -4.6361 -1.28915 0
M  V30 3172 C 297.429 -5.113 -1.01101 0
M  V30 3173 C 294.757 -5.83075 -0.651157 0
M  V30 3174 C 297.109 -6.31415 -0.387007 0
M  V30 3175 C 295.773 -6.67195 -0.201657 0
M  V30 3176 H 295.043 -0.621351 -0.403737 0
M  V30 3177 H 297.69 -1.87598 -0.384609 0
M  V30 3178 H 295.995 -2.66946 -2.86788 0
M  V30 3179 H 297.692 -3.00091 -2.65982 0
M  V30 3180 H 294.282 -3.97352 -1.60653 0
M  V30 3181 H 298.466 -4.83206 -1.13249 0
M  V30 3182 H 293.722 -6.09385 -0.496006 0
M  V30 3183 H 297.896 -6.96394 -0.0293563 0
M  V30 3184 H 295.523 -7.59628 0.294766 0
M  V30 3185 N 297.098 0.621204 -1.44841 0
M  V30 3186 C 298.346 1.37783 -1.47852 0
M  V30 3187 C 298.667 1.94653 -0.116224 0
M  V30 3188 O 297.937 1.76367 0.852737 0
M  V30 3189 H 296.517 0.511453 -0.544449 0
M  V30 3190 H 299.179 0.730446 -1.80694 0
M  V30 3191 H 298.275 2.20414 -2.20961 0
M  V30 3192 N 298.576 1.31904 0.862503 0
M  V30 3193 C 299.801 1.25135 1.65397 0
M  V30 3194 C 300.226 -0.179 1.87246 0
M  V30 3195 O 299.584 -1.1277 1.4196 0
M  V30 3196 C 299.632 2.00832 2.99498 0
M  V30 3197 O 298.736 1.35075 3.89652 0
M  V30 3198 H 298.077 0.431655 0.504549 0
M  V30 3199 H 300.607 1.74094 1.07483 0
M  V30 3200 H 300.617 2.10709 3.49379 0
M  V30 3201 H 299.292 3.04847 2.82916 0
M  V30 3202 H 297.869 1.33696 3.48109 0
M  V30 3203 N 300.054 -1.07777 1.14986 0
M  V30 3204 C 301.3 -1.80719 0.93339 0
M  V30 3205 C 301.655 -1.8484 -0.534019 0
M  V30 3206 O 300.948 -1.31795 -1.3907 0
M  V30 3207 C 301.142 -3.25495 1.47608 0
M  V30 3208 C 300.971 -3.3548 2.99472 0
M  V30 3209 C 299.741 -3.46293 3.6798 0
M  V30 3210 C 301.939 -3.26596 3.97291 0
M  V30 3211 N 299.921 -3.45136 5.07695 0
M  V30 3212 C 301.292 -3.32506 5.23297 0
M  V30 3213 C 303.347 -3.10376 3.89321 0
M  V30 3214 C 302.05 -3.23866 6.42264 0
M  V30 3215 C 304.076 -3.03069 5.07842 0
M  V30 3216 C 303.438 -3.09587 6.32721 0
M  V30 3217 H 299.537 -0.674814 0.395158 0
M  V30 3218 H 302.121 -1.28681 1.46114 0
M  V30 3219 H 300.292 -3.75963 0.975022 0
M  V30 3220 H 302.024 -3.86535 1.19887 0
M  V30 3221 H 298.779 -3.50456 3.18555 0
M  V30 3222 H 299.203 -3.48097 5.80653 0
M  V30 3223 H 303.845 -3.04194 2.93642 0
M  V30 3224 H 301.563 -3.28807 7.38181 0
M  V30 3225 H 305.149 -2.91629 5.03432 0
M  V30 3226 H 304.029 -3.0397 7.22891 0
M  V30 3227 N 301.532 -0.945985 -1.26051 0
M  V30 3228 C 302.76 -0.613025 -1.9761 0
M  V30 3229 C 303.175 0.813035 -1.70397 0
M  V30 3230 O 302.532 1.54274 -0.974979 0
M  V30 3231 C 302.583 -0.85159 -3.51326 0
M  V30 3232 O 302.304 -2.22157 -3.77595 0
M  V30 3233 C 303.805 -0.529831 -4.40122 0
M  V30 3234 H 301.025 -0.230593 -0.630133 0
M  V30 3235 H 303.569 -1.268 -1.60443 0
M  V30 3236 H 301.724 -0.243151 -3.86636 0
M  V30 3237 H 302.138 -2.2852 -4.721 0
M  V30 3238 H 303.612 -0.747348 -5.46917 0
M  V30 3239 H 304.089 0.535341 -4.35925 0
M  V30 3240 H 304.695 -1.11721 -4.10364 0
M  V30 3241 N 303.011 1.40521 -0.713556 0
M  V30 3242 C 304.241 2.0494 -0.261395 0
M  V30 3243 C 304.649 1.53861 1.10107 0
M  V30 3244 O 303.992 0.689321 1.70276 0
M  V30 3245 C 304.054 3.59138 -0.161227 0
M  V30 3246 C 303.718 4.33096 -1.45865 0
M  V30 3247 C 304.715 4.61182 -2.40016 0
M  V30 3248 C 302.4 4.72043 -1.71701 0
M  V30 3249 C 304.394 5.27196 -3.58251 0
M  V30 3250 C 302.081 5.37789 -2.90218 0
M  V30 3251 C 303.079 5.65295 -3.83315 0
M  V30 3252 O 302.767 6.29683 -4.99754 0
M  V30 3253 H 302.499 0.666041 -0.115608 0
M  V30 3254 H 305.053 1.80954 -0.971849 0
M  V30 3255 H 303.283 3.81936 0.605153 0
M  V30 3256 H 304.972 4.05091 0.256105 0
M  V30 3257 H 305.738 4.31559 -2.21318 0
M  V30 3258 H 301.617 4.50003 -1.00092 0
M  V30 3259 H 305.161 5.48582 -4.30934 0
M  V30 3260 H 301.058 5.66831 -3.08825 0
M  V30 3261 H 301.826 6.4818 -4.99805 0
M  V30 3262 N 304.489 0.459591 1.5075 0
M  V30 3263 C 305.766 -0.160371 1.94941 0
M  V30 3264 C 306.146 -1.58048 1.39943 0
M  V30 3265 O 305.494 -2.206 0.595629 0
M  V30 3266 C 305.704 -0.115432 3.48809 0
M  V30 3267 C 307.052 -0.310026 4.23467 0
M  V30 3268 O 308.076 -0.192543 3.55679 0
M  V30 3269 O 306.935 -0.546031 5.43765 0
M  V30 3270 H 304.029 -0.117925 0.818549 0
M  V30 3271 H 306.575 0.519169 1.61563 0
M  V30 3272 H 305.347 0.87652 3.81357 0
M  V30 3273 H 304.97 -0.836928 3.88692 0
M  V30 3274 N 305.967 -1.56429 0.191757 0
M  V30 3275 C 306.914 -2.18936 -0.730454 0
M  V30 3276 C 307.884 -1.13557 -1.21219 0
M  V30 3277 O 309.069 -1.41794 -1.27668 0
M  V30 3278 C 306.209 -2.85013 -1.9458 0
M  V30 3279 C 305.322 -4.04909 -1.50574 0
M  V30 3280 C 304.457 -4.58853 -2.67634 0
M  V30 3281 C 303.496 -5.71114 -2.20217 0
M  V30 3282 N 302.633 -6.19478 -3.30442 0
M  V30 3283 H 307.473 -2.97389 -0.190664 0
M  V30 3284 H 305.01 -1.46869 -0.0823694 0
M  V30 3285 H 306.968 -3.21492 -2.65893 0
M  V30 3286 H 305.598 -2.09129 -2.45896 0
M  V30 3287 H 304.65 -3.74115 -0.688605 0
M  V30 3288 H 305.962 -4.86113 -1.11784 0
M  V30 3289 H 305.116 -4.97619 -3.47074 0
M  V30 3290 H 303.855 -3.76749 -3.09696 0
M  V30 3291 H 302.86 -5.31879 -1.3923 0
M  V30 3292 H 304.085 -6.55033 -1.79189 0
M  V30 3293 H 302.031 -5.40297 -3.72041 0
M  V30 3294 H 301.948 -6.95725 -2.9581 0
M  V30 3295 H 303.216 -6.62898 -4.10106 0
M  V30 3296 N 307.445 0.0818655 -1.57387 0
M  V30 3297 C 308.408 1.08265 -2.02018 0
M  V30 3298 C 309.408 1.32183 -0.915664 0
M  V30 3299 O 310.598 1.28073 -1.18081 0
M  V30 3300 C 307.73 2.42871 -2.39221 0
M  V30 3301 H 308.923 0.698204 -2.91659 0
M  V30 3302 H 306.476 0.327303 -1.52835 0
M  V30 3303 H 307.211 2.86167 -1.52575 0
M  V30 3304 H 306.996 2.26855 -3.19811 0
M  V30 3305 H 308.486 3.14826 -2.74362 0
M  V30 3306 N 308.923 1.53595 0.353017 0
M  V30 3307 C 309.87 1.80919 1.43308 0
M  V30 3308 C 310.84 0.654288 1.5267 0
M  V30 3309 O 312.025 0.897759 1.6836 0
M  V30 3310 C 309.165 2.01605 2.80089 0
M  V30 3311 C 308.278 3.29321 2.79593 0
M  V30 3312 C 307.413 3.40125 4.0803 0
M  V30 3313 C 306.452 4.61826 4.01725 0
M  V30 3314 N 305.589 4.69716 5.21834 0
M  V30 3315 H 310.429 2.73074 1.19308 0
M  V30 3316 H 307.966 1.35263 0.578131 0
M  V30 3317 H 309.924 2.11586 3.59565 0
M  V30 3318 H 308.554 1.12772 3.0246 0
M  V30 3319 H 307.606 3.28229 1.92276 0
M  V30 3320 H 308.918 4.18884 2.70809 0
M  V30 3321 H 308.072 3.49488 4.95927 0
M  V30 3322 H 306.811 2.48601 4.19582 0
M  V30 3323 H 305.816 4.52552 3.12213 0
M  V30 3324 H 307.041 5.54705 3.91764 0
M  V30 3325 H 304.987 3.81097 5.33948 0
M  V30 3326 H 304.904 5.53202 5.1527 0
M  V30 3327 H 306.172 4.83376 6.11529 0
M  V30 3328 N 310.401 -0.613514 1.45168 0
M  V30 3329 C 311.65 -1.36874 1.4815 0
M  V30 3330 C 311.963 -1.952 0.124982 0
M  V30 3331 O 313.169 -2.71481 0.0324176 0
M  V30 3332 C 311.625 -2.47905 2.60904 0
M  V30 3333 C 311.233 -1.96016 4.02842 0
M  V30 3334 C 312.977 -3.24965 2.73126 0
M  V30 3335 C 310.884 -3.04494 5.06988 0
M  V30 3336 H 309.814 -0.514428 0.551253 0
M  V30 3337 H 312.465 -0.658182 1.7129 0
M  V30 3338 H 310.847 -3.21618 2.31037 0
M  V30 3339 H 312.021 -1.29051 4.4236 0
M  V30 3340 H 310.336 -1.31719 3.95018 0
M  V30 3341 H 312.933 -4.05865 3.48106 0
M  V30 3342 H 313.276 -3.75588 1.79553 0
M  V30 3343 H 313.809 -2.5835 3.0249 0
M  V30 3344 H 310.548 -2.58795 6.0225 0
M  V30 3345 H 310.068 -3.70044 4.72046 0
M  V30 3346 H 311.747 -3.68976 5.31475 0
M  V30 3347 N 311.879 -1.3236 -0.855495 0
M  V30 3348 C 313.156 -1.13491 -1.59309 0
M  V30 3349 C 313.536 0.30503 -2.08885 0
M  V30 3350 O 312.884 1.30151 -1.87811 0
M  V30 3351 C 313.094 -2.16176 -2.73987 0
M  V30 3352 C 314.442 -2.49463 -3.43589 0
M  V30 3353 O 315.466 -2.14715 -2.84211 0
M  V30 3354 O 314.325 -3.09027 -4.50738 0
M  V30 3355 H 311.419 -0.437887 -0.701559 0
M  V30 3356 H 313.965 -1.43887 -0.899696 0
M  V30 3357 H 312.737 -3.1297 -2.34873 0
M  V30 3358 H 312.36 -1.86769 -3.51003 0
M  V30 3359 N 313.357 1.07166 -1.15556 0
M  V30 3360 C 314.287 2.16403 -0.877046 0
M  V30 3361 C 315.268 1.69217 0.173111 0
M  V30 3362 O 316.453 1.94181 0.027084 0
M  V30 3363 C 313.583 3.45349 -0.367632 0
M  V30 3364 C 312.537 4.05995 -1.35468 0
M  V30 3365 C 311.863 5.30045 -0.704038 0
M  V30 3366 C 313.163 4.45804 -2.72132 0
M  V30 3367 H 314.857 2.39959 -1.79053 0
M  V30 3368 H 312.403 1.15325 -0.862331 0
M  V30 3369 H 314.356 4.21095 -0.160317 0
M  V30 3370 H 313.08 3.21385 0.581326 0
M  V30 3371 H 311.739 3.32296 -1.54839 0
M  V30 3372 H 311.387 5.02373 0.251128 0
M  V30 3373 H 311.087 5.71579 -1.36277 0
M  V30 3374 H 312.611 6.08495 -0.50654 0
M  V30 3375 H 314.025 5.12671 -2.56595 0
M  V30 3376 H 312.422 4.98296 -3.34397 0
M  V30 3377 H 313.492 3.57083 -3.28054 0
M  V30 3378 N 314.835 0.952656 1.25548 0
M  V30 3379 C 315.745 0.47782 2.29682 0
M  V30 3380 C 316.761 -0.453859 1.67977 0
M  V30 3381 O 317.937 -0.330587 1.98668 0
M  V30 3382 C 315.002 -0.238655 3.45878 0
M  V30 3383 C 314.063 0.730994 4.23031 0
M  V30 3384 C 313.296 0.0486165 5.33678 0
M  V30 3385 O 313.519 -1.16612 5.58353 0
M  V30 3386 O 312.453 0.733152 5.97418 0
M  V30 3387 H 316.279 1.34312 2.72386 0
M  V30 3388 H 313.864 0.719026 1.30959 0
M  V30 3389 H 315.746 -0.641774 4.16484 0
M  V30 3390 H 314.421 -1.07916 3.05181 0
M  V30 3391 H 313.328 1.18428 3.5486 0
M  V30 3392 H 314.661 1.53946 4.67506 0
M  V30 3393 N 316.313 -1.40141 0.720998 0
M  V30 3394 C 317.245 -2.29177 0.0324669 0
M  V30 3395 C 318.258 -1.46105 -0.718126 0
M  V30 3396 O 319.447 -1.69335 -0.564608 0
M  V30 3397 C 316.547 -3.24473 -0.978292 0
M  V30 3398 C 315.72 -4.36423 -0.292115 0
M  V30 3399 C 314.779 -5.12122 -1.20901 0
M  V30 3400 O 313.805 -5.64981 -0.691766 0
M  V30 3401 N 315.007 -5.21992 -2.53978 0
M  V30 3402 H 317.772 -2.88909 0.796984 0
M  V30 3403 H 315.333 -1.51569 0.569068 0
M  V30 3404 H 317.325 -3.71987 -1.59398 0
M  V30 3405 H 315.895 -2.65871 -1.64413 0
M  V30 3406 H 315.115 -3.90967 0.503847 0
M  V30 3407 H 316.403 -5.08467 0.183971 0
M  V30 3408 H 315.801 -4.8054 -2.98493 0
M  V30 3409 H 314.358 -5.72995 -3.10677 0
M  V30 3410 N 317.792 -0.46758 -1.50504 0
M  V30 3411 C 318.725 0.374324 -2.25109 0
M  V30 3412 C 319.703 0.99921 -1.28275 0
M  V30 3413 O 320.887 1.03583 -1.57489 0
M  V30 3414 C 318.014 1.52419 -3.02467 0
M  V30 3415 C 317.06 1.01702 -4.14197 0
M  V30 3416 S 317.893 -0.0654477 -5.3546 0
M  V30 3417 C 319.049 1.08837 -6.16365 0
M  V30 3418 H 319.282 -0.258983 -2.9617 0
M  V30 3419 H 316.815 -0.252421 -1.52323 0
M  V30 3420 H 318.773 2.18322 -3.47628 0
M  V30 3421 H 317.434 2.129 -2.30938 0
M  V30 3422 H 316.627 1.87776 -4.67714 0
M  V30 3423 H 316.229 0.435757 -3.71453 0
M  V30 3424 H 318.521 2.00071 -6.47285 0
M  V30 3425 H 319.464 0.592538 -7.05616 0
M  V30 3426 H 319.872 1.34061 -5.4835 0
M  V30 3427 N 319.27 1.56325 -0.20005 0
M  V30 3428 C 320.18 2.22931 0.730668 0
M  V30 3429 C 321.196 1.22997 1.23076 0
M  V30 3430 O 322.372 1.55748 1.27689 0
M  V30 3431 C 319.437 2.87948 1.93098 0
M  V30 3432 C 318.498 4.03166 1.47497 0
M  V30 3433 C 317.731 4.65073 2.61807 0
M  V30 3434 O 317.954 4.25913 3.79413 0
M  V30 3435 O 316.888 5.54452 2.34237 0
M  V30 3436 H 320.714 3.03084 0.193391 0
M  V30 3437 H 318.299 1.49371 0.0294621 0
M  V30 3438 H 320.181 3.29063 2.6324 0
M  V30 3439 H 318.856 2.10771 2.45677 0
M  V30 3440 H 317.763 3.66664 0.742201 0
M  V30 3441 H 319.096 4.82022 0.995796 0
M  V30 3442 N 320.748 -0.0735177 1.57428 0
M  V30 3443 C 321.68 -1.11423 2.00294 0
M  V30 3444 C 322.693 -1.35084 0.908637 0
M  V30 3445 O 323.882 -1.33355 1.18654 0
M  V30 3446 C 320.982 -2.46548 2.32523 0
M  V30 3447 C 320.155 -2.42867 3.63778 0
M  V30 3448 C 319.214 -3.60087 3.83697 0
M  V30 3449 O 318.24 -3.41595 4.55304 0
M  V30 3450 N 319.442 -4.80372 3.25919 0
M  V30 3451 H 322.207 -0.749206 2.90184 0
M  V30 3452 H 319.768 -0.262195 1.59763 0
M  V30 3453 H 321.76 -3.23607 2.43024 0
M  V30 3454 H 320.33 -2.75059 1.48531 0
M  V30 3455 H 319.55 -1.51206 3.64047 0
M  V30 3456 H 320.838 -2.37506 4.49965 0
M  V30 3457 H 320.236 -4.983 2.67795 0
M  V30 3458 H 318.793 -5.54948 3.41871 0
M  V30 3459 N 322.226 -1.5378 -0.344866 0
M  V30 3460 C 323.454 -1.74899 -1.10534 0
M  V30 3461 C 323.869 -0.487534 -1.82397 0
M  V30 3462 O 323.226 0.540741 -1.74305 0
M  V30 3463 C 323.277 -2.92822 -2.11984 0
M  V30 3464 O 322.998 -4.14089 -1.43044 0
M  V30 3465 C 324.499 -3.25982 -3.00417 0
M  V30 3466 H 321.719 -0.584426 -0.329678 0
M  V30 3467 H 324.263 -2.006 -0.397474 0
M  V30 3468 H 322.418 -2.69457 -2.78338 0
M  V30 3469 H 322.832 -4.80272 -2.10805 0
M  V30 3470 H 324.306 -4.11848 -3.67539 0
M  V30 3471 H 324.783 -2.42228 -3.66363 0
M  V30 3472 H 325.389 -3.51349 -2.39654 0
M  V30 3473 N 323.704 0.605807 -1.45491 0
M  V30 3474 C 324.95 1.36679 -1.49823 0
M  V30 3475 C 325.283 1.93693 -0.140175 0
M  V30 3476 O 324.558 1.75158 0.845581 0
M  V30 3477 C 324.841 2.51337 -2.57879 0
M  V30 3478 C 324.694 1.99508 -4.03134 0
M  V30 3479 C 326.013 3.53463 -2.62205 0
M  V30 3480 H 323.132 0.495617 -0.545466 0
M  V30 3481 H 325.774 0.682732 -1.7731 0
M  V30 3482 H 323.924 3.09691 -2.34571 0
M  V30 3483 H 325.596 1.45789 -4.37656 0
M  V30 3484 H 323.839 1.30496 -4.13707 0
M  V30 3485 H 324.51 2.82169 -4.74431 0
M  V30 3486 H 326.986 3.04953 -2.83095 0
M  V30 3487 H 325.862 4.31178 -3.39672 0
M  V30 3488 H 326.123 4.09197 -1.67363 0
M  V30 3489 N 325.182 1.32811 0.848464 0
M  V30 3490 C 326.459 1.14334 1.58704 0
M  V30 3491 C 326.839 -0.293948 2.09043 0
M  V30 3492 O 326.187 -1.29153 1.88499 0
M  V30 3493 C 326.397 2.17626 2.72837 0
M  V30 3494 C 327.745 2.51282 3.42261 0
M  V30 3495 O 328.769 2.16219 2.83068 0
M  V30 3496 O 327.628 3.11413 4.49093 0
M  V30 3497 H 324.722 0.441601 0.699226 0
M  V30 3498 H 327.268 1.44362 0.892053 0
M  V30 3499 H 326.04 3.14211 2.3321 0
M  V30 3500 H 325.663 1.88628 3.50008 0
M  V30 3501 N 326.66 -1.06551 1.16123 0
M  V30 3502 C 327.59 -2.15935 0.88851 0
M  V30 3503 C 328.571 -1.69306 -0.164135 0
M  V30 3504 O 329.756 -1.94193 -0.0167857 0
M  V30 3505 C 326.886 -3.45149 0.385942 0
M  V30 3506 C 325.84 -4.05271 1.3762 0
M  V30 3507 C 325.166 -5.29664 0.732137 0
M  V30 3508 C 326.466 -4.44355 2.74493 0
M  V30 3509 H 328.16 -2.39006 1.80323 0
M  V30 3510 H 325.706 -1.14866 0.868435 0
M  V30 3511 H 327.659 -4.21004 0.182647 0
M  V30 3512 H 326.383 -3.21689 -0.564274 0
M  V30 3513 H 325.042 -3.3147 1.56599 0
M  V30 3514 H 324.69 -5.02499 -0.224483 0
M  V30 3515 H 324.39 -5.70848 1.39307 0
M  V30 3516 H 325.914 -6.08218 0.538802 0
M  V30 3517 H 327.328 -5.11303 2.59311 0
M  V30 3518 H 325.725 -4.96515 3.37035 0
M  V30 3519 H 326.795 -3.55339 3.29943 0
M  V30 3520 N 328.138 -0.959301 -1.25041 0
M  V30 3521 C 329.085 -0.482057 -2.2571 0
M  V30 3522 C 330.055 0.467939 -1.59372 0
M  V30 3523 O 331.24 0.380159 -1.86974 0
M  V30 3524 C 328.38 0.229623 -3.44335 0
M  V30 3525 C 327.493 -0.758156 -4.25295 0
M  V30 3526 C 326.628 -0.0234403 -5.31195 0
M  V30 3527 C 325.667 -1.00184 -6.03846 0
M  V30 3528 N 324.804 -0.29769 -7.01469 0
M  V30 3529 H 329.644 -1.34538 -2.65901 0
M  V30 3530 H 327.181 -0.674592 -1.3072 0
M  V30 3531 H 329.139 0.658856 -4.11965 0
M  V30 3532 H 327.769 1.05696 -3.05005 0
M  V30 3533 H 326.821 -1.30586 -3.57284 0
M  V30 3534 H 328.133 -1.50458 -4.75567 0
M  V30 3535 H 327.287 0.464201 -6.04922 0
M  V30 3536 H 326.026 0.755741 -4.81809 0
M  V30 3537 H 325.031 -1.50044 -5.2893 0
M  V30 3538 H 326.256 -1.78133 -6.55321 0
M  V30 3539 H 324.202 0.462668 -6.54366 0
M  V30 3540 H 324.119 -0.983128 -7.4958 0
M  V30 3541 H 325.387 0.16826 -7.79318 0
M  V30 3542 N 329.616 1.39756 -0.72842 0
M  V30 3543 C 330.893 1.94574 -0.200079 0
M  V30 3544 C 331.273 1.66569 1.29684 0
M  V30 3545 O 330.621 0.990326 2.05924 0
M  V30 3546 C 330.831 3.45004 -0.526608 0
M  V30 3547 C 332.179 4.21965 -0.472318 0
M  V30 3548 O 333.203 3.53173 -0.463413 0
M  V30 3549 O 332.062 5.44552 -0.461075 0
M  V30 3550 H 329.156 0.826289 -0.0342851 0
M  V30 3551 H 331.702 1.49293 -0.806829 0
M  V30 3552 H 330.474 3.58796 -1.56144 0
M  V30 3553 H 330.097 3.97449 0.109449 0
M  V30 3554 N 331.094 0.475555 1.50254 0
M  V30 3555 C 332.324 -0.0753399 2.06463 0
M  V30 3556 C 332.732 -1.33661 1.33908 0
M  V30 3557 O 332.075 -1.79219 0.403257 0
M  V30 3558 C 332.137 -0.424921 3.5698 0
M  V30 3559 C 331.801 0.734965 4.51051 0
M  V30 3560 C 332.798 1.61827 4.94073 0
M  V30 3561 C 330.483 0.926557 4.9368 0
M  V30 3562 C 332.477 2.67754 5.78434 0
M  V30 3563 C 330.164 1.98904 5.77824 0
M  V30 3564 C 331.162 2.8629 6.20103 0
M  V30 3565 O 330.85 3.90708 7.02568 0
M  V30 3566 H 330.582 0.00576308 0.675975 0
M  V30 3567 H 333.136 0.664662 1.94349 0
M  V30 3568 H 331.366 -1.21817 3.67012 0
M  V30 3569 H 333.055 -0.911422 3.95535 0
M  V30 3570 H 333.821 1.48196 4.61804 0
M  V30 3571 H 329.7 0.25584 4.6029 0
M  V30 3572 H 333.244 3.35992 6.11355 0
M  V30 3573 H 329.141 2.12541 6.09505 0
M  V30 3574 H 329.909 3.87751 7.20827 0
M  V30 3575 N 332.573 -1.56217 0.208337 0
M  V30 3576 C 333.819 -1.98998 -0.42086 0
M  V30 3577 C 334.174 -1.09331 -1.58317 0
M  V30 3578 O 333.467 -0.140466 -1.91084 0
M  V30 3579 C 333.661 -3.45441 -0.916797 0
M  V30 3580 C 333.49 -4.49273 0.195925 0
M  V30 3581 C 332.26 -5.00998 0.657956 0
M  V30 3582 C 334.458 -5.04294 1.00956 0
M  V30 3583 N 332.44 -5.88514 1.74712 0
M  V30 3584 C 333.811 -5.88607 1.94785 0
M  V30 3585 C 335.866 -4.86692 1.05049 0
M  V30 3586 C 334.569 -6.572 2.9237 0
M  V30 3587 C 336.595 -5.56034 2.01446 0
M  V30 3588 C 335.957 -6.40105 2.94016 0
M  V30 3589 H 332.056 -0.772574 -0.121048 0
M  V30 3590 H 334.64 -1.92101 0.317075 0
M  V30 3591 H 332.811 -3.52812 -1.62413 0
M  V30 3592 H 334.543 -3.75164 -1.51771 0
M  V30 3593 H 331.298 -4.72945 0.248912 0
M  V30 3594 H 331.722 -6.36975 2.2933 0
M  V30 3595 H 336.364 -4.21359 0.348759 0
M  V30 3596 H 334.082 -7.21723 3.63512 0
M  V30 3597 H 337.668 -5.44385 2.0527 0
M  V30 3598 H 336.548 -6.92816 3.6739 0
M  V30 3599 N 334.051 0.0651679 -1.57465 0
M  V30 3600 C 334.961 1.09448 -2.07505 0
M  V30 3601 C 335.977 1.41974 -1.00595 0
M  V30 3602 O 337.153 1.52018 -1.32107 0
M  V30 3603 C 334.218 2.38689 -2.51453 0
M  V30 3604 C 333.279 2.13073 -3.72691 0
M  V30 3605 C 332.512 3.36152 -4.14533 0
M  V30 3606 O 332.735 4.45517 -3.56189 0
M  V30 3607 O 331.669 3.23974 -5.07272 0
M  V30 3608 H 335.495 0.69935 -2.95538 0
M  V30 3609 H 333.08 0.279752 -1.46757 0
M  V30 3610 H 334.962 3.14736 -2.80212 0
M  V30 3611 H 333.637 2.77568 -1.66546 0
M  V30 3612 H 332.544 1.34709 -3.49005 0
M  V30 3613 H 333.877 1.79071 -4.5847 0
M  V30 3614 N 335.529 1.53961 0.336706 0
M  V30 3615 C 336.754 1.75797 1.10046 0
M  V30 3616 C 337.179 0.498985 1.81361 0
M  V30 3617 O 336.537 -0.548769 1.72795 0
M  V30 3618 C 336.585 2.94257 2.08436 0
M  V30 3619 O 335.689 2.64883 3.16087 0
M  V30 3620 H 335.03 0.582936 0.317934 0
M  V30 3621 H 337.56 2.00945 0.38501 0
M  V30 3622 H 337.57 3.21237 2.51537 0
M  V30 3623 H 336.245 3.85564 1.55927 0
M  V30 3624 H 334.822 2.48812 2.77753 0
M  V30 3625 N 337.007 -0.598083 1.45811 0
M  V30 3626 C 338.255 -1.35413 1.50026 0
M  V30 3627 C 338.576 -1.94444 0.147177 0
M  V30 3628 O 337.846 -1.77701 -0.824571 0
M  V30 3629 H 336.426 -0.502727 0.552517 0
M  V30 3630 H 339.088 -0.701606 1.81834 0
M  V30 3631 H 338.184 -2.16871 2.2444 0
M  V30 3632 N 338.485 -1.33259 -0.841409 0
M  V30 3633 C 339.395 -1.25332 -1.98316 0
M  V30 3634 C 340.411 -0.164364 -1.73222 0
M  V30 3635 O 341.587 -0.387486 -1.97637 0
M  V30 3636 C 338.652 -0.990078 -3.32262 0
M  V30 3637 C 337.713 -2.16879 -3.70489 0
M  V30 3638 C 336.946 -1.91801 -4.98044 0
M  V30 3639 O 337.169 -0.867075 -5.63771 0
M  V30 3640 O 336.103 -2.78267 -5.33714 0
M  V30 3641 H 339.929 -2.21344 -2.07944 0
M  V30 3642 H 337.514 -1.1328 -0.974058 0
M  V30 3643 H 339.396 -0.860321 -4.12524 0
M  V30 3644 H 338.071 -0.0602155 -3.23644 0
M  V30 3645 H 336.978 -2.35407 -2.90748 0
M  V30 3646 H 338.311 -3.0819 -3.8377 0
M  V30 3647 N 339.963 1.05934 -1.16686 0
M  V30 3648 C 341.209 1.79211 -0.962023 0
M  V30 3649 C 341.564 1.85667 0.504545 0
M  V30 3650 O 340.857 1.33991 1.36956 0
M  V30 3651 C 341.051 3.23105 -1.52767 0
M  V30 3652 C 340.88 3.30673 -3.04771 0
M  V30 3653 C 339.65 3.40395 -3.73442 0
M  V30 3654 C 341.848 3.20234 -4.02436 0
M  V30 3655 N 339.83 3.37015 -5.13122 0
M  V30 3656 C 341.201 3.24138 -5.28521 0
M  V30 3657 C 343.256 3.04143 -3.9421 0
M  V30 3658 C 341.959 3.13607 -6.47336 0
M  V30 3659 C 343.985 2.94951 -5.12599 0
M  V30 3660 C 343.347 2.99481 -6.37566 0
M  V30 3661 H 339.446 0.668442 -0.405844 0
M  V30 3662 H 342.03 1.26341 -1.48142 0
M  V30 3663 H 340.201 3.74364 -1.03471 0
M  V30 3664 H 341.933 3.84579 -1.26021 0
M  V30 3665 H 338.688 3.45344 -3.2409 0
M  V30 3666 H 339.112 3.38815 -5.86117 0
M  V30 3667 H 343.754 2.99484 -2.98445 0
M  V30 3668 H 341.472 3.17022 -7.43319 0
M  V30 3669 H 345.058 2.83583 -5.08008 0
M  V30 3670 H 343.938 2.92431 -7.27636 0
M  V30 3671 N 341.441 0.965919 1.2453 0
M  V30 3672 C 342.404 0.499547 2.2369 0
M  V30 3673 C 343.404 -0.40294 1.5567 0
M  V30 3674 O 344.594 -0.19865 1.73064 0
M  V30 3675 C 341.726 -0.276792 3.39774 0
M  V30 3676 H 342.919 1.37613 2.66463 0
M  V30 3677 H 340.472 0.750324 1.37112 0
M  V30 3678 H 341.207 -1.17055 3.02438 0
M  V30 3679 H 340.992 0.370826 3.90343 0
M  V30 3680 H 342.482 -0.592175 4.1338 0
M  V30 3681 N 342.919 -1.39368 0.735821 0
M  V30 3682 C 344.168 -1.99733 0.281004 0
M  V30 3683 C 344.481 -1.59055 -1.13846 0
M  V30 3684 O 345.687 -2.12262 -1.69284 0
M  V30 3685 C 344.143 -3.57057 0.451462 0
M  V30 3686 C 343.751 -4.06697 1.87886 0
M  V30 3687 C 345.495 -4.2446 0.0584616 0
M  V30 3688 C 343.402 -5.56598 1.99883 0
M  V30 3689 H 342.332 -0.747163 0.101311 0
M  V30 3690 H 344.983 -1.59357 0.909819 0
M  V30 3691 H 343.365 -3.95234 -0.246263 0
M  V30 3692 H 344.539 -3.79853 2.60861 0
M  V30 3693 H 342.854 -3.5196 2.22515 0
M  V30 3694 H 345.451 -5.34549 0.127099 0
M  V30 3695 H 345.794 -4.04444 -0.986433 0
M  V30 3696 H 346.327 -3.9146 0.707374 0
M  V30 3697 H 343.066 -5.81494 3.02564 0
M  V30 3698 H 342.586 -5.85242 1.31346 0
M  V30 3699 H 344.265 -6.22022 1.78039 0
M  V30 3700 N 344.397 -0.483516 -1.5 0
M  V30 3701 C 345.643 0.0672592 -2.02688 0
M  V30 3702 C 345.976 1.38247 -1.36387 0
M  V30 3703 O 345.251 1.88131 -0.493675 0
M  V30 3704 C 345.534 0.238109 -3.59312 0
M  V30 3705 C 345.387 -1.099 -4.36168 0
M  V30 3706 C 346.706 0.986916 -4.28892 0
M  V30 3707 H 343.825 0.0229696 -0.736642 0
M  V30 3708 H 346.467 -0.631527 -1.79197 0
M  V30 3709 H 344.617 0.8333 -3.79458 0
M  V30 3710 H 346.289 -1.73172 -4.27562 0
M  V30 3711 H 344.532 -1.69261 -3.99416 0
M  V30 3712 H 345.203 -0.932954 -5.44059 0
M  V30 3713 H 347.679 0.482302 -4.13295 0
M  V30 3714 H 346.555 1.07527 -5.38265 0
M  V30 3715 H 346.816 2.0265 -3.92919 0
M  V30 3716 N 345.875 1.56104 -0.216619 0
M  V30 3717 C 346.823 2.21434 0.712036 0
M  V30 3718 C 347.817 1.19218 1.20348 0
M  V30 3719 O 349.023 1.3731 1.16387 0
M  V30 3720 H 345.398 0.70992 0.248026 0
M  V30 3721 H 347.369 2.98083 0.137558 0
M  V30 3722 C 346.118 2.90434 1.91163 0
M  V30 3723 H 345.441 3.68842 1.54258 0
M  V30 3724 H 346.881 3.39552 2.5393 0
M  V30 3725 C 345.34 1.92635 2.76394 0
M  V30 3726 O 345.87 1.44017 3.74996 0
M  V30 3727 N 344.076 1.60392 2.42328 0
M  V30 3728 H 343.623 2.00122 1.622 0
M  V30 3729 H 343.581 0.952159 2.99635 0
M  V30 3730 N 347.353 -0.0568162 1.57498 0
M  V30 3731 C 348.316 -1.05038 2.03715 0
M  V30 3732 C 349.316 -1.30709 0.936577 0
M  V30 3733 O 350.506 -1.26178 1.20103 0
M  V30 3734 C 347.638 -2.39034 2.43055 0
M  V30 3735 H 348.831 -0.651715 2.92733 0
M  V30 3736 H 346.384 -0.302947 1.53336 0
M  V30 3737 H 347.119 -2.83703 1.57108 0
M  V30 3738 H 346.904 -2.21739 3.2338 0
M  V30 3739 H 348.394 -3.10421 2.79336 0
M  V30 3740 N 348.832 -1.54138 -0.328536 0
M  V30 3741 C 350.06 -1.76062 -1.08673 0
M  V30 3742 C 350.475 -0.506852 -1.81869 0
M  V30 3743 O 349.832 0.522223 -1.74869 0
M  V30 3744 C 349.883 -2.95054 -2.08866 0
M  V30 3745 O 349.604 -4.15583 -1.38644 0
M  V30 3746 C 351.105 -3.2915 -2.96943 0
M  V30 3747 H 348.325 -0.587889 -0.323461 0
M  V30 3748 H 350.869 -2.0101 -0.376175 0
M  V30 3749 H 349.024 -2.72394 -2.75464 0
M  V30 3750 H 349.438 -4.82481 -2.05699 0
M  V30 3751 H 350.912 -4.15723 -3.63151 0
M  V30 3752 H 351.389 -2.461 -3.63774 0
M  V30 3753 H 351.995 -3.53871 -2.35914 0
M  V30 3754 N 350.31 0.590341 -1.46126 0
M  V30 3755 C 351.558 1.34616 -1.50742 0
M  V30 3756 C 351.879 1.94363 -0.157486 0
M  V30 3757 O 351.149 1.78136 0.815136 0
M  V30 3758 H 349.729 0.499789 -0.555175 0
M  V30 3759 H 352.391 0.691953 -1.82203 0
M  V30 3760 H 351.487 2.15678 -2.25587 0
M  V30 3761 N 351.788 1.33704 0.83433 0
M  V30 3762 C 353.016 1.28467 1.62185 0
M  V30 3763 C 353.431 -0.143526 1.88254 0
M  V30 3764 O 352.788 -1.08709 1.4659 0
M  V30 3765 C 352.839 2.06174 2.96942 0
M  V30 3766 O 352.56 3.43422 2.72016 0
M  V30 3767 C 354.061 2.08201 3.91366 0
M  V30 3768 H 351.281 0.4424 0.504503 0
M  V30 3769 H 353.825 1.76145 1.03891 0
M  V30 3770 H 351.98 1.62167 3.51825 0
M  V30 3771 H 352.394 3.83453 3.57861 0
M  V30 3772 H 353.868 2.67017 4.83121 0
M  V30 3773 H 354.345 1.07343 4.2588 0
M  V30 3774 H 354.951 2.52246 3.42421 0
M  V30 3775 N 353.266 -1.05314 1.17247 0
M  V30 3776 C 354.496 -1.81707 0.983166 0
M  V30 3777 C 354.904 -1.83222 -0.471822 0
M  V30 3778 O 354.247 -1.25721 -1.3394 0
M  V30 3779 C 354.309 -3.29134 1.44606 0
M  V30 3780 C 353.973 -3.51304 2.92292 0
M  V30 3781 C 354.97 -3.4353 3.90235 0
M  V30 3782 C 352.655 -3.78306 3.30439 0
M  V30 3783 C 354.649 -3.62442 5.24323 0
M  V30 3784 C 352.336 -3.96866 4.64694 0
M  V30 3785 C 353.334 -3.88933 5.61445 0
M  V30 3786 O 353.022 -4.06976 6.93272 0
M  V30 3787 H 352.754 -0.579476 0.348114 0
M  V30 3788 H 355.308 -1.33705 1.55924 0
M  V30 3789 H 353.538 -3.78046 0.813537 0
M  V30 3790 H 355.227 -3.87049 1.22262 0
M  V30 3791 H 355.993 -3.22648 3.62109 0
M  V30 3792 H 351.872 -3.83585 2.55702 0
M  V30 3793 H 355.416 -3.56165 5.99827 0
M  V30 3794 H 351.313 -4.1724 4.92525 0
M  V30 3795 H 352.081 -4.24209 6.99992 0
M  V30 3796 N 354.744 -0.972509 -1.24016 0
M  V30 3797 C 355.692 -0.498562 -2.27194 0
M  V30 3798 C 356.686 0.440372 -1.63576 0
M  V30 3799 O 357.892 0.315133 -1.7722 0
M  V30 3800 H 354.267 -0.142775 -0.738322 0
M  V30 3801 H 356.238 -1.38065 -2.64539 0
M  V30 3802 C 354.987 0.191072 -3.47175 0
M  V30 3803 H 354.31 -0.522318 -3.96373 0
M  V30 3804 H 355.75 0.486445 -4.212 0
M  V30 3805 C 354.209 1.41967 -3.05527 0
M  V30 3806 O 354.739 2.51642 -3.13112 0
M  V30 3807 N 352.945 1.28746 -2.60524 0
M  V30 3808 H 352.492 0.395089 -2.54552 0
M  V30 3809 H 352.45 2.11061 -2.33025 0
M  V30 3810 N 356.222 1.38976 -0.743202 0
M  V30 3811 C 357.447 2.05161 -0.303936 0
M  V30 3812 C 357.872 1.55677 1.05576 0
M  V30 3813 O 357.23 0.704131 1.67068 0
M  V30 3814 C 357.278 3.59138 -0.324373 0
M  V30 3815 O 356.382 4.06668 0.685204 0
M  V30 3816 H 355.723 0.649815 -0.136518 0
M  V30 3817 H 358.253 1.77852 -1.01142 0
M  V30 3818 H 358.263 4.07639 -0.171618 0
M  V30 3819 H 356.938 3.94515 -1.31647 0
M  V30 3820 H 355.515 3.69561 0.497913 0
M  V30 3821 N 357.7 0.491464 1.49741 0
M  V30 3822 C 358.647 -0.292027 2.28945 0
M  V30 3823 C 359.617 -0.968973 1.34908 0
M  V30 3824 O 360.802 -0.97748 1.6386 0
M  V30 3825 C 357.942 -1.35617 3.17336 0
M  V30 3826 C 357.055 -0.691957 4.26422 0
M  V30 3827 C 356.19 -1.73572 5.02042 0
M  V30 3828 C 355.229 -1.05286 6.02977 0
M  V30 3829 N 354.366 -2.0404 6.71798 0
M  V30 3830 H 359.206 0.389654 2.95442 0
M  V30 3831 H 356.743 0.204003 1.45679 0
M  V30 3832 H 358.701 -1.98502 3.66951 0
M  V30 3833 H 357.331 -2.00674 2.52844 0
M  V30 3834 H 356.383 0.0499523 3.80367 0
M  V30 3835 H 357.695 -0.153946 4.98562 0
M  V30 3836 H 356.849 -2.43987 5.55478 0
M  V30 3837 H 355.588 -2.30757 4.29654 0
M  V30 3838 H 354.593 -0.334446 5.48782 0
M  V30 3839 H 355.818 -0.487636 6.77347 0
M  V30 3840 H 353.764 -2.60205 6.02187 0
M  V30 3841 H 353.681 -1.55279 7.39881 0
M  V30 3842 H 354.949 -2.73772 7.29842 0
M  V30 3843 N 359.178 -1.55987 0.224894 0
M  V30 3844 C 360.125 -2.20436 -0.68385 0
M  V30 3845 C 361.095 -1.16102 -1.18783 0
M  V30 3846 O 362.28 -1.4447 -1.24632 0
M  V30 3847 C 359.42 -2.89076 -1.88491 0
M  V30 3848 C 358.533 -4.08012 -1.41951 0
M  V30 3849 C 357.668 -4.64426 -2.5784 0
M  V30 3850 C 356.707 -5.75656 -2.08053 0
M  V30 3851 N 355.844 -6.26347 -3.17227 0
M  V30 3852 H 360.684 -2.97727 -0.12754 0
M  V30 3853 H 358.221 -1.47011 -0.0511978 0
M  V30 3854 H 360.179 -3.27059 -2.59014 0
M  V30 3855 H 358.809 -2.14298 -2.41405 0
M  V30 3856 H 357.861 -3.75492 -0.609095 0
M  V30 3857 H 359.173 -4.88375 -1.01447 0
M  V30 3858 H 358.327 -5.04869 -3.3644 0
M  V30 3859 H 357.066 -3.83233 -3.01635 0
M  V30 3860 H 356.071 -5.34712 -1.27916 0
M  V30 3861 H 357.296 -6.58686 -1.65255 0
M  V30 3862 H 355.242 -5.48067 -3.60497 0
M  V30 3863 H 355.159 -7.01843 -2.80986 0
M  V30 3864 H 356.427 -6.71447 -3.95953 0
M  V30 3865 N 360.656 0.0484629 -1.57525 0
M  V30 3866 C 361.886 0.754326 -1.92337 0
M  V30 3867 C 362.294 1.70443 -0.82132 0
M  V30 3868 O 361.637 1.82466 0.21254 0
M  V30 3869 C 361.699 1.58231 -3.22805 0
M  V30 3870 C 361.363 0.799074 -4.4996 0
M  V30 3871 C 362.36 0.1079 -5.19788 0
M  V30 3872 C 360.045 0.759345 -4.96527 0
M  V30 3873 C 362.039 -0.612516 -6.3445 0
M  V30 3874 C 359.726 0.0351713 -6.1109 0
M  V30 3875 C 360.724 -0.649537 -6.79904 0
M  V30 3876 O 360.412 -1.36199 -7.92278 0
M  V30 3877 H 360.144 0.218257 -0.639797 0
M  V30 3878 H 362.698 0.0159295 -2.05394 0
M  V30 3879 H 360.928 2.36406 -3.06021 0
M  V30 3880 H 362.617 2.16898 -3.43089 0
M  V30 3881 H 363.383 0.129748 -4.84826 0
M  V30 3882 H 359.262 1.28177 -4.42822 0
M  V30 3883 H 362.806 -1.14751 -6.88097 0
M  V30 3884 H 358.703 0.0113314 -6.45499 0
M  V30 3885 H 359.471 -1.27366 -8.0853 0
M  V30 3886 N 362.134 1.5431 0.320358 0
M  V30 3887 C 363.411 1.63322 1.07635 0
M  V30 3888 C 363.791 0.46912 2.05821 0
M  V30 3889 O 363.139 -0.536274 2.22118 0
M  V30 3890 C 363.349 3.00465 1.77544 0
M  V30 3891 C 364.697 3.56621 2.30449 0
M  V30 3892 O 365.721 3.02791 1.87606 0
M  V30 3893 O 364.58 4.5083 3.08892 0
M  V30 3894 H 361.674 0.661502 0.496331 0
M  V30 3895 H 364.22 1.66656 0.319992 0
M  V30 3896 H 362.992 3.76629 1.06143 0
M  V30 3897 H 362.615 3.00824 2.59982 0
M  V30 3898 N 363.613 -0.582584 1.46437 0
M  V30 3899 C 364.853 -1.35184 1.53312 0
M  V30 3900 C 365.217 -1.9115 0.180508 0
M  V30 3901 O 366.418 -2.68514 0.124017 0
M  V30 3902 C 364.689 -2.45089 2.60127 0
M  V30 3903 S 366.248 -3.32439 2.86408 0
M  V30 3904 H 363.066 -0.460559 0.54167 0
M  V30 3905 H 365.668 -0.669709 1.83671 0
M  V30 3906 H 364.372 -2.02366 3.57038 0
M  V30 3907 H 363.903 -3.18074 2.315 0
M  V30 3908 H 365.918 -4.43924 2.21688 0
M  V30 3909 N 365.091 -1.34144 -0.827227 0
M  V30 3910 C 366.331 -1.27603 -1.59677 0
M  V30 3911 C 366.695 0.153035 -1.91389 0
M  V30 3912 O 367.896 0.342566 -2.66608 0
M  V30 3913 C 366.167 -2.13784 -2.86411 0
M  V30 3914 S 367.726 -2.24552 -3.76991 0
M  V30 3915 H 364.544 -0.453789 -0.547354 0
M  V30 3916 H 367.146 -1.69309 -0.977479 0
M  V30 3917 H 365.85 -3.16627 -2.61104 0
M  V30 3918 H 365.381 -1.72959 -3.5334 0
M  V30 3919 H 367.396 -1.41514 -4.75593 0
M  V30 3920 N 366.569 1.04691 -1.17803 0
M  V30 3921 C 367.532 2.10724 -0.901545 0
M  V30 3922 C 368.532 1.6042 0.110437 0
M  V30 3923 O 369.722 1.7377 -0.122303 0
M  V30 3924 C 366.854 3.39084 -0.351409 0
M  V30 3925 H 368.047 2.36686 -1.84174 0
M  V30 3926 H 365.6 1.21015 -0.98919 0
M  V30 3927 H 366.335 3.18782 0.59569 0
M  V30 3928 H 366.12 3.76909 -1.08083 0
M  V30 3929 H 367.61 4.17227 -0.176451 0
M  V30 3930 N 368.047 0.979072 1.23499 0
M  V30 3931 C 368.957 0.526431 2.28617 0
M  V30 3932 C 369.973 -0.418126 1.68901 0
M  V30 3933 O 371.149 -0.288372 1.99325 0
M  V30 3934 C 368.214 -0.165235 3.46306 0
M  V30 3935 C 367.275 0.82056 4.21385 0
M  V30 3936 C 366.508 0.161807 5.33455 0
M  V30 3937 O 366.731 -1.04742 5.60701 0
M  V30 3938 O 365.665 0.859708 5.95729 0
M  V30 3939 H 369.491 1.4006 2.69475 0
M  V30 3940 H 367.076 0.746643 1.29405 0
M  V30 3941 H 368.958 -0.553287 4.17752 0
M  V30 3942 H 367.633 -1.01419 3.07402 0
M  V30 3943 H 366.54 1.25929 3.52268 0
M  V30 3944 H 367.873 1.63828 4.64135 0
M  V30 3945 N 369.525 -1.3858 0.750561 0
M  V30 3946 C 370.774 -1.99424 0.302172 0
M  V30 3947 C 371.087 -1.60254 -1.12152 0
M  V30 3948 O 372.293 -2.14046 -1.67023 0
M  V30 3949 C 370.749 -3.56558 0.489307 0
M  V30 3950 C 370.357 -4.04682 1.92189 0
M  V30 3951 C 372.101 -4.24374 0.103478 0
M  V30 3952 C 370.008 -5.54446 2.05775 0
M  V30 3953 H 368.938 -0.746046 0.10923 0
M  V30 3954 H 371.589 -1.58383 0.92667 0
M  V30 3955 H 369.971 -3.95472 -0.204329 0
M  V30 3956 H 371.145 -3.77065 2.64875 0
M  V30 3957 H 369.46 -3.4958 2.26236 0
M  V30 3958 H 372.057 -5.34384 0.183787 0
M  V30 3959 H 372.4 -4.05468 -0.943481 0
M  V30 3960 H 372.933 -3.90688 0.748854 0
M  V30 3961 H 369.672 -5.78252 3.08714 0
M  V30 3962 H 369.192 -5.83816 1.37546 0
M  V30 3963 H 370.871 -6.20099 1.84626 0
M  V30 3964 N 371.003 -0.499398 -1.49478 0
M  V30 3965 C 372.233 0.0424839 -2.06556 0
M  V30 3966 C 372.641 1.31514 -1.36018 0
M  V30 3967 O 371.984 1.78555 -0.431718 0
M  V30 3968 C 372.046 0.368074 -3.57611 0
M  V30 3969 C 371.71 -0.806631 -4.49825 0
M  V30 3970 C 372.707 -1.69667 -4.91436 0
M  V30 3971 C 370.392 -1.00498 -4.92144 0
M  V30 3972 C 372.386 -2.76923 -5.74101 0
M  V30 3973 C 370.073 -2.08072 -5.74586 0
M  V30 3974 C 371.071 -2.96119 -6.15469 0
M  V30 3975 O 370.759 -4.01836 -6.96264 0
M  V30 3976 H 370.491 -0.0165165 -0.675798 0
M  V30 3977 H 373.045 -0.695497 -1.93267 0
M  V30 3978 H 371.275 1.15963 -3.68903 0
M  V30 3979 H 372.964 0.848381 -3.96935 0
M  V30 3980 H 373.73 -1.55524 -4.59388 0
M  V30 3981 H 369.609 -0.329036 -4.59824 0
M  V30 3982 H 373.153 -3.45676 -6.05932 0
M  V30 3983 H 369.05 -2.22211 -6.06047 0
M  V30 3984 H 369.818 -3.9917 -7.14567 0
M  V30 3985 N 372.481 1.55866 -0.233164 0
M  V30 3986 C 373.892 1.847 0.272554 0
M  V30 3987 C 374.243 1.15477 1.58617 0
M  V30 3988 O 373.368 0.42841 2.12117 0
M  V30 3989 C 373.963 3.35071 0.501299 0
M  V30 3990 C 372.522 3.6418 0.951304 0
M  V30 3991 C 371.669 2.77292 0.0208209 0
M  V30 3992 H 374.62 1.52005 -0.456074 0
M  V30 3993 H 374.641 3.55906 1.34577 0
M  V30 3994 H 374.153 3.85424 -0.454936 0
M  V30 3995 H 372.254 3.19293 1.92049 0
M  V30 3996 H 372.367 4.72071 0.817675 0
M  V30 3997 H 370.731 2.49131 0.529723 0
M  V30 3998 H 371.514 3.30448 -0.93054 0
M  V30 3999 N 373.959 -0.0401083 1.57549 0
M  V30 4000 C 375.236 -0.767917 1.79896 0
M  V30 4001 C 375.616 -1.9416 0.82856 0
M  V30 4002 O 374.964 -2.2812 -0.131671 0
M  V30 4003 C 375.174 -1.2113 3.27305 0
M  V30 4004 C 376.522 -1.63175 3.91994 0
M  V30 4005 O 377.546 -1.30616 3.31388 0
M  V30 4006 O 376.405 -2.23565 4.98679 0
M  V30 4007 H 373.499 -0.370441 0.739393 0
M  V30 4008 H 376.045 -0.017737 1.69691 0
M  V30 4009 H 374.817 -0.372937 3.89519 0
M  V30 4010 H 374.44 -2.02183 3.42356 0
M  V30 4011 N 375.437 -1.54477 -0.31217 0
M  V30 4012 C 376.683 -1.73483 -1.0503 0
M  V30 4013 C 377.016 -0.513125 -1.87298 0
M  V30 4014 O 376.291 0.489864 -1.8823 0
M  V30 4015 C 376.574 -3.01723 -1.96558 0
M  V30 4016 C 376.427 -4.3417 -1.17545 0
M  V30 4017 C 377.746 -3.25772 -2.95907 0
M  V30 4018 H 374.865 -0.631222 -0.380432 0
M  V30 4019 H 377.507 -1.87184 -0.325932 0
M  V30 4020 H 375.657 -2.90174 -2.58324 0
M  V30 4021 H 377.329 -4.5762 -0.581513 0
M  V30 4022 H 375.572 -4.31159 -0.477925 0
M  V30 4023 H 376.243 -5.20143 -1.84811 0
M  V30 4024 H 378.719 -3.36857 -2.44267 0
M  V30 4025 H 377.595 -4.16838 -3.57123 0
M  V30 4026 H 377.856 -2.43537 -3.68974 0
M  V30 4027 N 376.915 0.57481 -1.46744 0
M  V30 4028 C 378.143 1.35856 -1.56047 0
M  V30 4029 C 378.558 1.87691 -0.204365 0
M  V30 4030 O 377.915 1.64049 0.79963 0
M  V30 4031 C 377.966 2.54066 -2.57163 0
M  V30 4032 O 377.687 2.04377 -3.87507 0
M  V30 4033 C 379.188 3.46514 -2.76483 0
M  V30 4034 H 376.408 0.414754 -0.527466 0
M  V30 4035 H 378.952 0.698035 -1.92218 0
M  V30 4036 H 377.107 3.16092 -2.23974 0
M  V30 4037 H 377.521 2.81419 -4.4261 0
M  V30 4038 H 378.995 4.25919 -3.51137 0
M  V30 4039 H 379.472 3.98951 -1.83671 0
M  V30 4040 H 380.078 2.90318 -3.10799 0
M  V30 4041 N 378.394 1.34581 0.820102 0
M  V30 4042 C 379.624 1.29991 1.6058 0
M  V30 4043 C 380.032 -0.127588 1.88769 0
M  V30 4044 O 379.375 -1.08595 1.48165 0
M  V30 4045 C 379.437 2.02548 2.9701 0
M  V30 4046 C 379.101 3.51794 2.91701 0
M  V30 4047 C 380.098 4.46647 2.66087 0
M  V30 4048 C 377.783 3.94249 3.11245 0
M  V30 4049 C 379.777 5.81929 2.60071 0
M  V30 4050 C 377.464 5.2963 3.04853 0
M  V30 4051 C 378.462 6.23282 2.793 0
M  V30 4052 O 378.15 7.56181 2.72847 0
M  V30 4053 H 377.882 0.448539 0.505756 0
M  V30 4054 H 380.436 1.77811 1.02822 0
M  V30 4055 H 378.666 1.49345 3.56697 0
M  V30 4056 H 380.355 1.91211 3.58041 0
M  V30 4057 H 381.121 4.15168 2.5072 0
M  V30 4058 H 377 3.21749 3.30149 0
M  V30 4059 H 380.544 6.54999 2.40046 0
M  V30 4060 H 376.441 5.60727 3.19774 0
M  V30 4061 H 377.209 7.6595 2.88553 0
M  V30 4062 N 379.872 -1.04064 1.18357 0
M  V30 4063 C 380.835 -2.10243 0.912707 0
M  V30 4064 C 381.835 -1.60477 -0.101928 0
M  V30 4065 O 383.025 -1.73703 0.131517 0
M  V30 4066 C 380.157 -3.38893 0.369387 0
M  V30 4067 H 381.35 -2.35706 1.85426 0
M  V30 4068 H 378.903 -1.20489 0.995594 0
M  V30 4069 H 379.638 -3.19094 -0.578776 0
M  V30 4070 H 379.423 -3.76331 1.1008 0
M  V30 4071 H 380.913 -4.17128 0.198575 0
M  V30 4072 N 381.35 -0.985608 -1.22978 0
M  V30 4073 C 382.597 -0.657386 -1.91532 0
M  V30 4074 C 382.925 0.809707 -1.76845 0
M  V30 4075 O 382.18 1.60021 -1.12658 0
M  V30 4076 C 382.479 -1.00014 -3.43121 0
M  V30 4077 C 382.145 -2.4583 -3.77993 0
M  V30 4078 C 380.807 -2.85679 -3.87222 0
M  V30 4079 C 383.159 -3.40378 -3.94705 0
M  V30 4080 C 380.487 -4.19081 -4.10595 0
M  V30 4081 C 382.839 -4.73429 -4.1958 0
M  V30 4082 C 381.503 -5.1303 -4.27032 0
M  V30 4083 H 380.773 -0.240555 -0.700867 0
M  V30 4084 H 383.42 -1.24044 -1.45895 0
M  V30 4085 H 381.725 -0.335072 -3.90365 0
M  V30 4086 H 383.422 -0.724322 -3.94404 0
M  V30 4087 H 380.012 -2.13939 -3.71387 0
M  V30 4088 H 384.196 -3.10766 -3.8696 0
M  V30 4089 H 379.452 -4.49362 -4.14589 0
M  V30 4090 H 383.626 -5.46644 -4.31455 0
M  V30 4091 H 381.253 -6.16418 -4.44896 0
M  V30 4092 N 382.828 1.3818 -0.7579 0
M  V30 4093 C 384.074 2.00316 -0.316453 0
M  V30 4094 C 384.407 1.60026 1.10025 0
M  V30 4095 O 383.682 0.839835 1.75434 0
M  V30 4096 C 383.965 3.57349 -0.444245 0
M  V30 4097 C 383.818 4.07591 -1.90236 0
M  V30 4098 C 385.137 4.3981 0.1598 0
M  V30 4099 H 382.256 0.727741 -0.116459 0
M  V30 4100 H 384.898 1.6406 -0.958352 0
M  V30 4101 H 383.048 3.88365 0.102233 0
M  V30 4102 H 384.72 3.87199 -2.50748 0
M  V30 4103 H 382.963 3.60297 -2.41595 0
M  V30 4104 H 383.634 5.16677 -1.94291 0
M  V30 4105 H 386.11 4.14971 -0.306314 0
M  V30 4106 H 384.986 5.48885 0.0401675 0
M  V30 4107 H 385.247 4.24102 1.24859 0
M  V30 4108 N 384.306 0.507319 1.49211 0
M  V30 4109 C 385.555 -0.0368315 2.01666 0
M  V30 4110 C 385.868 -1.37459 1.39156 0
M  V30 4111 O 387.074 -2.00579 1.82976 0
M  V30 4112 C 385.53 -0.116089 3.59713 0
M  V30 4113 C 385.138 1.2154 4.31198 0
M  V30 4114 C 386.882 -0.610268 4.2009 0
M  V30 4115 C 384.789 1.09796 5.81119 0
M  V30 4116 H 383.719 -0.0175376 0.753796 0
M  V30 4117 H 386.37 0.647691 1.71689 0
M  V30 4118 H 384.752 -0.8652 3.86433 0
M  V30 4119 H 385.926 1.9783 4.16173 0
M  V30 4120 H 384.241 1.64352 3.82593 0
M  V30 4121 H 386.838 -0.715742 5.29888 0
M  V30 4122 H 387.181 -1.61064 3.8388 0
M  V30 4123 H 387.714 0.0824916 3.97714 0
M  V30 4124 H 384.453 2.0728 6.21864 0
M  V30 4125 H 383.973 0.376058 5.9862 0
M  V30 4126 H 385.652 0.779281 6.4229 0
M  V30 4127 N 385.784 -1.5574 0.241426 0
M  V30 4128 C 387.2 -1.59196 -0.113548 0
M  V30 4129 C 387.4 -1.25852 -1.57364 0
M  V30 4130 O 386.456 -1.00322 -2.31715 0
M  V30 4131 C 387.769 -2.99814 0.230695 0
M  V30 4132 C 389.317 -3.12513 0.174547 0
M  V30 4133 C 389.792 -4.55342 0.492744 0
M  V30 4134 N 391.283 -4.61076 0.443043 0
M  V30 4135 C 392.018 -5.6956 0.662484 0
M  V30 4136 N 391.514 -6.86328 0.944761 0
M  V30 4137 N 393.307 -5.58957 0.593564 0
M  V30 4138 H 385.458 -1.75685 1.19368 0
M  V30 4139 H 387.721 -0.81756 0.479896 0
M  V30 4140 H 387.427 -3.28932 1.24485 0
M  V30 4141 H 387.301 -3.74568 -0.444833 0
M  V30 4142 H 389.688 -2.83179 -0.830277 0
M  V30 4143 H 389.769 -2.40045 0.883845 0
M  V30 4144 H 389.413 -4.85396 1.4951 0
M  V30 4145 H 389.343 -5.26062 -0.23797 0
M  V30 4146 H 391.834 -3.77179 0.233374 0
M  V30 4147 H 392.147 -7.64935 1.09977 0
M  V30 4148 H 390.492 -6.88025 0.982175 0
M  V30 4149 H 393.683 -4.66611 0.373123 0
M  V30 4150 H 393.856 -6.43433 0.767981 0
M  V30 4151 N 387.262 0.0317525 -1.57568 0
M  V30 4152 C 388.678 0.38735 -1.54828 0
M  V30 4153 C 388.878 1.7677 -0.967187 0
M  V30 4154 O 387.934 2.45581 -0.587063 0
M  V30 4155 C 389.247 0.291667 -2.99282 0
M  V30 4156 C 390.795 0.368946 -3.10818 0
M  V30 4157 C 391.27 0.302741 -4.56998 0
M  V30 4158 N 392.761 0.361617 -4.61786 0
M  V30 4159 C 393.496 0.333238 -5.72431 0
M  V30 4160 N 392.992 0.257308 -6.92322 0
M  V30 4161 N 394.785 0.382769 -5.60795 0
M  V30 4162 H 386.936 -0.871609 -1.93692 0
M  V30 4163 H 389.199 -0.331161 -0.888277 0
M  V30 4164 H 388.905 -0.656794 -3.45513 0
M  V30 4165 H 388.779 1.08638 -3.61217 0
M  V30 4166 H 391.166 1.30784 -2.64536 0
M  V30 4167 H 391.247 -0.455066 -2.5172 0
M  V30 4168 H 390.891 -0.632473 -5.03947 0
M  V30 4169 H 390.821 1.14482 -5.14005 0
M  V30 4170 H 393.312 0.422923 -3.75526 0
M  V30 4171 H 393.625 0.24068 -7.72425 0
M  V30 4172 H 391.97 0.223396 -6.94641 0
M  V30 4173 H 395.161 0.44006 -4.66027 0
M  V30 4174 H 395.334 0.357184 -6.47015 0
M  V30 4175 N 388.74 1.54641 0.303973 0
M  V30 4176 C 389.67 1.88386 1.3796 0
M  V30 4177 C 390.651 0.742485 1.5304 0
M  V30 4178 O 391.836 0.997959 1.66597 0
M  V30 4179 C 388.966 2.12854 2.74427 0
M  V30 4180 C 387.92 3.28702 2.74115 0
M  V30 4181 C 387.246 3.38582 4.13844 0
M  V30 4182 C 388.546 4.65881 2.3612 0
M  V30 4183 H 390.24 2.78474 1.09966 0
M  V30 4184 H 387.786 1.33988 0.527556 0
M  V30 4185 H 389.739 2.35047 3.49758 0
M  V30 4186 H 388.463 1.19535 3.03939 0
M  V30 4187 H 387.122 3.06428 2.0124 0
M  V30 4188 H 386.77 2.42784 4.40528 0
M  V30 4189 H 386.47 4.16453 4.14537 0
M  V30 4190 H 387.994 3.63031 4.90959 0
M  V30 4191 H 389.408 4.87823 3.01167 0
M  V30 4192 H 387.805 5.46444 2.48031 0
M  V30 4193 H 388.875 4.66799 1.3125 0
M  V30 4194 N 390.218 -0.567019 1.47046 0
M  V30 4195 C 391.629 -1.14916 1.47143 0
M  V30 4196 C 391.98 -1.94954 0.220767 0
M  V30 4197 O 391.105 -2.05602 -0.67505 0
M  V30 4198 C 391.7 -2.09069 2.666 0
M  V30 4199 C 390.259 -2.62575 2.69687 0
M  V30 4200 C 389.406 -1.38755 2.40088 0
M  V30 4201 H 392.357 -0.354126 1.54699 0
M  V30 4202 H 392.378 -2.92789 2.43011 0
M  V30 4203 H 391.89 -1.50789 3.57609 0
M  V30 4204 H 389.991 -3.24681 1.82792 0
M  V30 4205 H 390.104 -3.04239 3.70102 0
M  V30 4206 H 388.468 -1.69098 1.90468 0
M  V30 4207 H 389.251 -0.822822 3.33293 0
M  V30 4208 N 391.696 -1.35014 -0.812953 0
M  V30 4209 C 392.626 -1.30069 -1.93919 0
M  V30 4210 C 393.607 -0.176275 -1.69184 0
M  V30 4211 O 394.792 -0.370227 -1.90638 0
M  V30 4212 C 391.922 -1.06547 -3.30552 0
M  V30 4213 C 390.876 -2.15561 -3.69753 0
M  V30 4214 C 390.202 -1.77214 -5.04479 0
M  V30 4215 C 391.502 -3.57476 -3.808 0
M  V30 4216 H 393.196 -2.24303 -1.98314 0
M  V30 4217 H 390.742 -1.07977 -0.952736 0
M  V30 4218 H 392.695 -1.01729 -4.08937 0
M  V30 4219 H 391.419 -0.0875719 -3.26483 0
M  V30 4220 H 390.078 -2.19466 -2.9365 0
M  V30 4221 H 389.726 -0.780589 -4.96906 0
M  V30 4222 H 389.426 -2.50184 -5.31678 0
M  V30 4223 H 390.95 -1.7391 -5.8531 0
M  V30 4224 H 392.364 -3.55929 -4.4943 0
M  V30 4225 H 390.761 -4.29152 -4.19462 0
M  V30 4226 H 391.831 -3.94091 -2.82525 0
M  V30 4227 N 393.175 1.03435 -1.18907 0
M  V30 4228 C 394.422 1.76743 -0.988334 0
M  V30 4229 C 394.75 1.88447 0.481441 0
M  V30 4230 O 394.005 1.39383 1.37371 0
M  V30 4231 C 394.304 3.19792 -1.59586 0
M  V30 4232 C 393.97 3.28108 -3.09283 0
M  V30 4233 C 392.632 3.30084 -3.5014 0
M  V30 4234 C 394.984 3.27696 -4.05296 0
M  V30 4235 C 392.312 3.29299 -4.85571 0
M  V30 4236 C 394.664 3.28451 -5.4065 0
M  V30 4237 C 393.328 3.28723 -5.80946 0
M  V30 4238 H 392.598 0.64675 -0.361657 0
M  V30 4239 H 395.245 1.21442 -1.48068 0
M  V30 4240 H 393.55 3.78136 -1.02568 0
M  V30 4241 H 395.247 3.75171 -1.41589 0
M  V30 4242 H 391.837 3.27294 -2.76725 0
M  V30 4243 H 396.021 3.25354 -3.74778 0
M  V30 4244 H 391.277 3.2783 -5.16079 0
M  V30 4245 H 395.451 3.27082 -6.14809 0
M  V30 4246 H 393.078 3.27868 -6.85862 0
M  V30 4247 N 394.653 0.992116 1.22453 0
M  V30 4248 C 395.883 0.684949 1.94915 0
M  V30 4249 C 396.291 -0.754292 1.73514 0
M  V30 4250 O 395.634 -1.52056 1.03076 0
M  V30 4251 C 395.696 0.910054 3.47791 0
M  V30 4252 C 395.36 2.33363 3.92926 0
M  V30 4253 C 396.357 3.31308 4.00663 0
M  V30 4254 C 394.042 2.66785 4.25595 0
M  V30 4255 C 396.036 4.6075 4.40441 0
M  V30 4256 C 393.723 3.96446 4.65053 0
M  V30 4257 C 394.721 4.9324 4.72444 0
M  V30 4258 O 394.409 6.20584 5.1101 0
M  V30 4259 H 394.141 0.25258 0.62704 0
M  V30 4260 H 396.695 1.32939 1.56577 0
M  V30 4261 H 394.925 0.208443 3.86138 0
M  V30 4262 H 396.614 0.598257 4.01467 0
M  V30 4263 H 397.38 3.0682 3.75615 0
M  V30 4264 H 393.259 1.92148 4.19047 0
M  V30 4265 H 396.803 5.363 4.46126 0
M  V30 4266 H 392.7 4.20724 4.89552 0
M  V30 4267 H 393.468 6.24509 5.29085 0
M  V30 4268 N 396.131 -1.37776 0.765217 0
M  V30 4269 C 397.359 -2.04124 0.337767 0
M  V30 4270 C 397.774 -1.57715 -1.03785 0
M  V30 4271 O 397.131 -0.755447 -1.6613 0
M  V30 4272 C 397.182 -3.59658 0.364442 0
M  V30 4273 O 396.903 -4.04367 1.68579 0
M  V30 4274 C 398.404 -4.43236 -0.0754221 0
M  V30 4275 H 395.624 -0.655696 0.142491 0
M  V30 4276 H 398.168 -1.76238 1.03732 0
M  V30 4277 H 396.323 -3.86339 -0.286471 0
M  V30 4278 H 396.737 -4.98857 1.61993 0
M  V30 4279 H 398.211 -5.52 -0.00560067 0
M  V30 4280 H 398.688 -4.2455 -1.12491 0
M  V30 4281 H 399.294 -4.21767 0.547055 0
M  V30 4282 N 397.609 -0.515225 -1.4894 0
M  V30 4283 C 398.858 0.0261361 -2.01683 0
M  V30 4284 C 399.171 1.36719 -1.39883 0
M  V30 4285 O 400.377 1.99606 -1.84037 0
M  V30 4286 C 398.833 0.0970111 -3.59769 0
M  V30 4287 C 398.441 -1.23825 -4.30548 0
M  V30 4288 C 400.185 0.587981 -4.20408 0
M  V30 4289 C 398.092 -1.12877 -5.80528 0
M  V30 4290 H 397.022 0.0135398 -0.753878 0
M  V30 4291 H 399.673 -0.656787 -1.71343 0
M  V30 4292 H 398.055 0.844694 -3.86886 0
M  V30 4293 H 399.229 -2.00034 -4.15118 0
M  V30 4294 H 397.544 -1.66379 -3.81716 0
M  V30 4295 H 400.141 0.68763 -5.3026 0
M  V30 4296 H 400.484 1.59026 -3.84729 0
M  V30 4297 H 401.017 -0.103582 -3.97665 0
M  V30 4298 H 397.756 -2.10575 -6.20756 0
M  V30 4299 H 397.276 -0.407799 -5.98412 0
M  V30 4300 H 398.955 -0.813332 -6.41868 0
M  V30 4301 N 399.087 1.5561 -0.249682 0
M  V30 4302 C 400.035 2.22894 0.664906 0
M  V30 4303 C 401.029 1.21743 1.17792 0
M  V30 4304 O 402.235 1.39748 1.13449 0
M  V30 4305 H 398.61 0.715022 0.232912 0
M  V30 4306 H 400.581 2.98307 0.0742998 0
M  V30 4307 C 399.33 2.94424 1.84959 0
M  V30 4308 H 398.653 3.72031 1.46399 0
M  V30 4309 H 400.093 3.44862 2.4667 0
M  V30 4310 C 398.552 1.98454 2.72245 0
M  V30 4311 O 399.082 1.51939 3.71857 0
M  V30 4312 N 397.288 1.65496 2.38871 0
M  V30 4313 H 396.835 2.03517 1.57919 0
M  V30 4314 H 396.793 1.0155 2.97548 0
M  V30 4315 N 400.565 -0.0233959 1.57583 0
M  V30 4316 C 401.495 -1.02162 2.09965 0
M  V30 4317 C 402.476 -1.3735 1.00344 0
M  V30 4318 O 403.661 -1.46135 1.27899 0
M  V30 4319 C 400.791 -2.32081 2.58371 0
M  V30 4320 C 399.745 -2.1112 3.72307 0
M  V30 4321 C 399.071 -3.46848 4.06941 0
M  V30 4322 C 400.371 -1.49276 5.00514 0
M  V30 4323 H 402.065 -0.585557 2.93618 0
M  V30 4324 H 399.611 -0.280218 1.41247 0
M  V30 4325 H 401.564 -3.02249 2.93639 0
M  V30 4326 H 400.288 -2.77758 1.71808 0
M  V30 4327 H 398.947 -1.43384 3.37397 0
M  V30 4328 H 398.595 -3.90184 3.17436 0
M  V30 4329 H 398.295 -3.33646 4.83688 0
M  V30 4330 H 399.819 -4.18369 4.44747 0
M  V30 4331 H 401.233 -2.09368 5.33702 0
M  V30 4332 H 399.63 -1.46632 5.8191 0
M  V30 4333 H 400.7 -0.459217 4.82721 0
M  V30 4334 N 402.043 -1.548 -0.295768 0
M  V30 4335 C 403.292 -1.73538 -1.02798 0
M  V30 4336 C 403.605 -0.531159 -1.8825 0
M  V30 4337 O 404.811 -0.600458 -2.64777 0
M  V30 4338 C 403.267 -3.07051 -1.87744 0
M  V30 4339 C 402.875 -4.34968 -1.07269 0
M  V30 4340 C 404.619 -3.35146 -2.60533 0
M  V30 4341 C 402.526 -5.5953 -1.91521 0
M  V30 4342 H 401.456 -0.646794 -0.387522 0
M  V30 4343 H 404.107 -1.81278 -0.284718 0
M  V30 4344 H 402.489 -2.93289 -2.66078 0
M  V30 4345 H 403.663 -4.5958 -0.335117 0
M  V30 4346 H 401.978 -4.13847 -0.460384 0
M  V30 4347 H 404.575 -4.2541 -3.23929 0
M  V30 4348 H 404.918 -2.54255 -3.29636 0
M  V30 4349 H 405.451 -3.49902 -1.89244 0
M  V30 4350 H 402.19 -6.43103 -1.26878 0
M  V30 4351 H 401.71 -5.39096 -2.62937 0
M  V30 4352 H 403.389 -5.96982 -2.49442 0
M  V30 4353 N 403.521 0.559213 -1.47345 0
M  V30 4354 C 404.77 1.31281 -1.53128 0
M  V30 4355 C 405.083 1.94602 -0.197344 0
M  V30 4356 O 406.289 2.71173 -0.133154 0
M  V30 4357 C 404.745 2.38051 -2.69925 0
M  V30 4358 C 404.353 1.8093 -4.0984 0
M  V30 4359 C 406.097 3.14604 -2.84999 0
M  V30 4360 C 404.004 2.85468 -5.1794 0
M  V30 4361 H 402.934 0.493614 -0.569966 0
M  V30 4362 H 405.585 0.594155 -1.73615 0
M  V30 4363 H 403.967 3.12822 -2.42814 0
M  V30 4364 H 405.141 1.12544 -4.46845 0
M  V30 4365 H 403.456 1.16967 -3.99634 0
M  V30 4366 H 406.053 3.92666 -3.62929 0
M  V30 4367 H 406.396 3.68665 -1.93369 0
M  V30 4368 H 406.929 2.46945 -3.1187 0
M  V30 4369 H 403.668 2.36264 -6.1144 0
M  V30 4370 H 403.188 3.52269 -4.85455 0
M  V30 4371 H 404.867 3.48996 -5.44803 0
M  V30 4372 N 404.999 1.35443 0.805782 0
M  V30 4373 C 406.41 1.25768 1.37983 0
M  V30 4374 C 406.761 -0.10958 1.95894 0
M  V30 4375 O 405.886 -1.01056 1.91355 0
M  V30 4376 C 406.481 2.27727 2.5085 0
M  V30 4377 C 405.04 2.2179 3.04115 0
M  V30 4378 C 404.187 2.13393 1.77084 0
M  V30 4379 H 407.138 1.4656 0.608752 0
M  V30 4380 H 407.159 1.90422 3.29424 0
M  V30 4381 H 406.671 3.27227 2.08671 0
M  V30 4382 H 404.772 1.25703 3.50756 0
M  V30 4383 H 404.885 3.13788 3.62042 0
M  V30 4384 H 403.249 1.59384 1.98668 0
M  V30 4385 H 404.032 3.14755 1.37056 0
M  V30 4386 N 406.477 -1.02803 1.19454 0
M  V30 4387 C 407.717 -1.77769 1.00883 0
M  V30 4388 C 408.081 -1.86596 -0.45233 0
M  V30 4389 O 409.282 -2.57895 -0.757877 0
M  V30 4390 C 407.553 -3.16486 1.66046 0
M  V30 4391 S 409.112 -4.07632 1.62424 0
M  V30 4392 H 405.93 -0.611949 0.361993 0
M  V30 4393 H 408.532 -1.23175 1.51816 0
M  V30 4394 H 407.236 -3.0768 2.7159 0
M  V30 4395 H 406.767 -3.76156 1.15196 0
M  V30 4396 H 408.782 -4.91937 0.64903 0
M  V30 4397 N 407.956 -0.998596 -1.21925 0
M  V30 4398 C 408.886 -0.573688 -2.26343 0
M  V30 4399 C 409.867 0.402296 -1.65274 0
M  V30 4400 O 411.052 0.291683 -1.91997 0
M  V30 4401 C 408.182 0.106839 -3.47136 0
M  V30 4402 C 407.136 -0.788269 -4.20678 0
M  V30 4403 C 406.462 0.0254927 -5.34694 0
M  V30 4404 C 407.762 -2.08784 -4.78755 0
M  V30 4405 H 409.456 -1.44651 -2.62138 0
M  V30 4406 H 407.002 -0.696975 -1.26009 0
M  V30 4407 H 408.955 0.415531 -4.19346 0
M  V30 4408 H 407.679 1.01424 -3.10452 0
M  V30 4409 H 406.338 -1.08069 -3.50309 0
M  V30 4410 H 405.986 0.933989 -4.94253 0
M  V30 4411 H 405.686 -0.570437 -5.84825 0
M  V30 4412 H 407.21 0.328147 -6.09718 0
M  V30 4413 H 408.624 -1.84272 -5.42878 0
M  V30 4414 H 407.021 -2.63307 -5.39249 0
M  V30 4415 H 408.091 -2.76284 -3.98491 0
M  V30 4416 N 409.434 1.37368 -0.772513 0
M  V30 4417 C 410.364 2.32856 -0.173304 0
M  V30 4418 C 411.345 1.55818 0.682262 0
M  V30 4419 O 412.53 1.84052 0.619566 0
M  V30 4420 C 409.66 3.40048 0.706007 0
M  V30 4421 C 408.614 4.27973 -0.0483144 0
M  V30 4422 C 407.94 5.26184 0.950491 0
M  V30 4423 C 409.24 5.07665 -1.22776 0
M  V30 4424 H 410.934 2.83217 -0.971002 0
M  V30 4425 H 408.48 1.3617 -0.468377 0
M  V30 4426 H 410.433 4.05827 1.13501 0
M  V30 4427 H 409.157 2.88214 1.53623 0
M  V30 4428 H 407.816 3.63726 -0.458107 0
M  V30 4429 H 407.464 4.7063 1.77529 0
M  V30 4430 H 407.164 5.85872 0.450314 0
M  V30 4431 H 408.688 5.94838 1.37842 0
M  V30 4432 H 410.102 5.66578 -0.875366 0
M  V30 4433 H 408.499 5.76681 -1.66007 0
M  V30 4434 H 409.569 4.40294 -2.03149 0
M  V30 4435 N 410.912 0.523116 1.48665 0
M  V30 4436 C 412.161 -0.01544 2.01694 0
M  V30 4437 C 412.474 -1.35975 1.40606 0
M  V30 4438 O 413.68 -1.98627 1.85093 0
M  V30 4439 C 412.136 -0.0779303 3.59816 0
M  V30 4440 C 411.744 1.26107 4.29885 0
M  V30 4441 C 413.488 -0.565678 4.20714 0
M  V30 4442 C 411.395 1.15954 5.79921 0
M  V30 4443 H 410.325 -0.00954163 0.75394 0
M  V30 4444 H 412.976 0.665865 1.70993 0
M  V30 4445 H 411.358 -0.824165 3.87329 0
M  V30 4446 H 412.532 2.02233 4.14051 0
M  V30 4447 H 410.847 1.68401 3.80828 0
M  V30 4448 H 413.444 -0.6595 5.30617 0
M  V30 4449 H 413.787 -1.56984 3.85567 0
M  V30 4450 H 414.32 0.12467 3.97605 0
M  V30 4451 H 411.059 2.13864 6.19631 0
M  V30 4452 H 410.579 0.439529 5.98187 0
M  V30 4453 H 412.258 0.847361 6.41427 0
M  V30 4454 N 412.39 -1.55475 0.257931 0
M  V30 4455 C 413.615 -2.04064 -0.370488 0
M  V30 4456 C 414.04 -1.13565 -1.49948 0
M  V30 4457 O 413.398 -0.130781 -1.80828 0
M  V30 4458 C 413.446 -3.50554 -0.845237 0
M  V30 4459 O 412.55 -3.63173 -1.95394 0
M  V30 4460 H 411.891 -0.659257 -0.0792243 0
M  V30 4461 H 414.421 -2.00903 0.387212 0
M  V30 4462 H 414.431 -3.91588 -1.14555 0
M  V30 4463 H 413.106 -4.15896 -0.0191259 0
M  V30 4464 H 411.683 -3.34039 -1.65748 0
M  V30 4465 N 413.868 0.0150385 -1.57593 0
M  V30 4466 C 415.108 0.70768 -1.91758 0
M  V30 4467 C 415.472 1.71764 -0.857974 0
M  V30 4468 O 416.673 2.45956 -1.0844 0
M  V30 4469 C 414.944 1.34736 -3.3103 0
M  V30 4470 S 416.503 2.06721 -3.87056 0
M  V30 4471 H 413.321 0.234119 -0.671349 0
M  V30 4472 H 415.923 -0.0380373 -1.95463 0
M  V30 4473 H 414.627 0.59926 -4.06001 0
M  V30 4474 H 414.158 2.13133 -3.30663 0
M  V30 4475 H 416.173 3.34047 -3.66915 0
M  V30 4476 N 415.346 1.54954 0.287554 0
M  V30 4477 C 416.276 1.89839 1.35954 0
M  V30 4478 C 417.257 0.758675 1.52244 0
M  V30 4479 O 418.442 1.01557 1.65529 0
M  V30 4480 C 415.572 2.15753 2.72154 0
M  V30 4481 C 414.526 3.3159 2.70614 0
M  V30 4482 C 413.852 3.42952 4.10229 0
M  V30 4483 C 415.152 4.68359 2.31165 0
M  V30 4484 H 416.846 2.79625 1.07007 0
M  V30 4485 H 414.392 1.3454 0.513316 0
M  V30 4486 H 416.345 2.38743 3.47246 0
M  V30 4487 H 415.069 1.22752 3.02654 0
M  V30 4488 H 413.728 3.08545 1.97979 0
M  V30 4489 H 413.376 2.47443 4.37928 0
M  V30 4490 H 413.076 4.20826 4.10097 0
M  V30 4491 H 414.6 3.68218 4.87081 0
M  V30 4492 H 416.014 4.9099 2.95976 0
M  V30 4493 H 414.411 5.49044 2.42221 0
M  V30 4494 H 415.481 4.68165 1.26291 0
M  V30 4495 N 416.824 -0.551391 1.4764 0
M  V30 4496 C 418.052 -1.33357 1.58189 0
M  V30 4497 C 418.467 -1.87342 0.234199 0
M  V30 4498 O 417.824 -1.65301 -0.77343 0
M  V30 4499 C 417.875 -2.49942 2.61173 0
M  V30 4500 O 417.596 -1.98187 3.90709 0
M  V30 4501 C 419.097 -3.42072 2.8196 0
M  V30 4502 H 416.317 -0.40631 0.533998 0
M  V30 4503 H 418.861 -0.667367 1.93304 0
M  V30 4504 H 417.016 -3.12489 2.28975 0
M  V30 4505 H 417.43 -2.74342 4.47031 0
M  V30 4506 H 418.904 -4.20278 3.57869 0
M  V30 4507 H 419.381 -3.95978 1.89995 0
M  V30 4508 H 419.987 -2.85336 3.15378 0
M  V30 4509 N 418.302 -1.35869 -0.798587 0
M  V30 4510 C 419.548 -1.2978 -1.55836 0
M  V30 4511 C 419.881 0.125322 -1.93795 0
M  V30 4512 O 419.156 1.07658 -1.61987 0
M  V30 4513 C 419.439 -2.21188 -2.84162 0
M  V30 4514 C 419.292 -3.72155 -2.52628 0
M  V30 4515 C 420.611 -2.11545 -3.85923 0
M  V30 4516 H 417.73 -0.472769 -0.565383 0
M  V30 4517 H 420.372 -1.66341 -0.918192 0
M  V30 4518 H 418.522 -1.90139 -3.38791 0
M  V30 4519 H 420.194 -4.13682 -2.04121 0
M  V30 4520 H 418.437 -3.92042 -1.85704 0
M  V30 4521 H 419.108 -4.31511 -3.44242 0
M  V30 4522 H 421.584 -2.38855 -3.40716 0
M  V30 4523 H 420.46 -2.77688 -4.73477 0
M  V30 4524 H 420.721 -1.09987 -4.282 0
M  V30 4525 N 419.78 1.02168 -1.19998 0
M  V30 4526 C 420.71 2.12488 -0.96804 0
M  V30 4527 C 421.691 1.69799 0.101185 0
M  V30 4528 O 422.876 1.94121 -0.0552993 0
M  V30 4529 C 420.006 3.43479 -0.513776 0
M  V30 4530 C 418.96 3.99884 -1.52566 0
M  V30 4531 C 418.286 5.26582 -0.928214 0
M  V30 4532 C 419.586 4.33861 -2.90795 0
M  V30 4533 H 421.28 2.32149 -1.89069 0
M  V30 4534 H 418.826 1.11564 -0.910468 0
M  V30 4535 H 420.779 4.20036 -0.338774 0
M  V30 4536 H 419.503 3.23561 0.444493 0
M  V30 4537 H 418.162 3.25429 -1.68794 0
M  V30 4538 H 417.81 5.02986 0.0378289 0
M  V30 4539 H 417.51 5.65284 -1.60397 0
M  V30 4540 H 419.034 6.05799 -0.764167 0
M  V30 4541 H 420.448 5.01327 -2.78109 0
M  V30 4542 H 418.845 4.83664 -3.55231 0
M  V30 4543 H 419.915 3.42848 -3.42904 0
M  V30 4544 N 421.258 1.00505 1.21394 0
M  V30 4545 C 422.504 0.688793 1.90745 0
M  V30 4546 C 422.837 -0.778486 1.77914 0
M  V30 4547 O 422.112 -1.56433 1.15581 0
M  V30 4548 C 422.395 1.11063 3.42545 0
M  V30 4549 C 422.248 2.63737 3.64367 0
M  V30 4550 C 423.567 0.673059 4.34923 0
M  V30 4551 H 420.686 0.251702 0.692687 0
M  V30 4552 H 423.328 1.25074 1.43026 0
M  V30 4553 H 421.478 0.632508 3.83317 0
M  V30 4554 H 423.15 3.19313 3.32922 0
M  V30 4555 H 421.393 3.05248 3.08231 0
M  V30 4556 H 422.064 2.88305 4.70727 0
M  V30 4557 H 424.54 1.08392 4.01734 0
M  V30 4558 H 423.416 0.996383 5.39781 0
M  V30 4559 H 423.677 -0.425808 4.40045 0
M  V30 4560 N 422.737 -1.36956 0.779787 0
M  V30 4561 C 423.984 -1.99491 0.347766 0
M  V30 4562 C 424.312 -1.61898 -1.07793 0
M  V30 4563 O 423.567 -0.86071 -1.75756 0
M  V30 4564 C 423.866 -3.54585 0.447686 0
M  V30 4565 C 423.532 -4.1197 1.83279 0
M  V30 4566 C 422.194 -4.27356 2.2118 0
M  V30 4567 C 424.546 -4.43354 2.74019 0
M  V30 4568 C 421.874 -4.71432 3.4924 0
M  V30 4569 C 424.226 -4.88858 4.01497 0
M  V30 4570 C 422.89 -5.0245 4.39432 0
M  V30 4571 H 422.16 -0.729991 0.127257 0
M  V30 4572 H 424.807 -1.63599 0.995376 0
M  V30 4573 H 423.112 -3.90773 -0.283447 0
M  V30 4574 H 424.809 -4.00888 0.0945948 0
M  V30 4575 H 421.399 -4.00428 1.52825 0
M  V30 4576 H 425.583 -4.31045 2.45995 0
M  V30 4577 H 420.839 -4.80141 3.78516 0
M  V30 4578 H 425.013 -5.12108 4.71931 0
M  V30 4579 H 422.64 -5.36362 5.38721 0
M  V30 4580 N 424.215 -0.530993 -1.48385 0
M  V30 4581 C 425.445 -0.00133928 -2.066 0
M  V30 4582 C 425.853 1.28599 -1.38777 0
M  V30 4583 O 425.196 1.77599 -0.469495 0
M  V30 4584 C 425.258 0.292137 -3.58311 0
M  V30 4585 C 424.922 -0.901864 -4.48013 0
M  V30 4586 C 425.919 -1.80053 -4.87726 0
M  V30 4587 C 423.604 -1.10915 -4.89901 0
M  V30 4588 C 425.598 -2.89038 -5.68098 0
M  V30 4589 C 423.285 -2.20213 -5.70043 0
M  V30 4590 C 424.283 -3.09107 -6.0905 0
M  V30 4591 O 423.971 -4.16514 -6.87583 0
M  V30 4592 H 423.703 -0.0308475 -0.675296 0
M  V30 4593 H 426.257 -0.736335 -1.91748 0
M  V30 4594 H 424.487 1.08112 -3.7128 0
M  V30 4595 H 426.176 0.763994 -3.98645 0
M  V30 4596 H 426.942 -1.65234 -4.55986 0
M  V30 4597 H 422.821 -0.426498 -4.59023 0
M  V30 4598 H 426.365 -3.58451 -5.98464 0
M  V30 4599 H 422.262 -2.35016 -6.01197 0
M  V30 4600 H 423.03 -4.14237 -7.05939 0
M  V30 4601 N 425.693 1.55336 -0.266172 0
M  V30 4602 C 426.623 2.25146 0.618981 0
M  V30 4603 C 427.604 1.23845 1.16604 0
M  V30 4604 O 428.789 1.52544 1.20183 0
M  V30 4605 C 425.919 2.96572 1.80728 0
M  V30 4606 C 424.873 4.04726 1.39215 0
M  V30 4607 C 424.199 4.63678 2.66283 0
M  V30 4608 C 425.499 5.19407 0.548942 0
M  V30 4609 H 427.193 2.99377 0.0368116 0
M  V30 4610 H 424.739 1.43991 0.0162651 0
M  V30 4611 H 426.692 3.44116 2.43232 0
M  V30 4612 H 425.416 2.19861 2.41514 0
M  V30 4613 H 424.075 3.57979 0.790351 0
M  V30 4614 H 423.723 3.83646 3.25308 0
M  V30 4615 H 423.423 5.367 2.39222 0
M  V30 4616 H 424.947 5.13967 3.29651 0
M  V30 4617 H 426.361 5.63059 1.07876 0
M  V30 4618 H 424.758 5.98936 0.373593 0
M  V30 4619 H 425.828 4.8295 -0.434394 0
M  V30 4620 N 427.171 -0.0066808 1.57599 0
M  V30 4621 C 428.582 -0.550379 1.78403 0
M  V30 4622 C 428.933 -1.74339 0.900014 0
M  V30 4623 O 428.058 -2.16166 0.100713 0
M  V30 4624 C 428.653 -1.00523 3.23544 0
M  V30 4625 C 427.212 -1.49428 3.45468 0
M  V30 4626 C 426.359 -0.442444 2.73748 0
M  V30 4627 H 429.31 0.219508 1.57175 0
M  V30 4628 H 429.331 -1.87157 3.31289 0
M  V30 4629 H 428.843 -0.136735 3.87859 0
M  V30 4630 H 426.944 -2.3839 2.86358 0
M  V30 4631 H 427.057 -1.52635 4.54136 0
M  V30 4632 H 425.421 -0.902578 2.38171 0
M  V30 4633 H 426.204 0.416973 3.40758 0
M  V30 4634 N 428.649 -1.55105 -0.279332 0
M  V30 4635 C 429.874 -1.7976 -1.03446 0
M  V30 4636 C 430.299 -0.565952 -1.79384 0
M  V30 4637 O 429.657 0.484259 -1.74713 0
M  V30 4638 C 429.705 -3.0179 -1.97371 0
M  V30 4639 O 428.809 -2.76432 -3.06038 0
M  V30 4640 H 428.15 -0.594334 -0.29608 0
M  V30 4641 H 430.68 -2.02235 -0.310165 0
M  V30 4642 H 430.69 -3.30351 -2.39441 0
M  V30 4643 H 429.365 -3.91085 -1.4151 0
M  V30 4644 H 427.942 -2.58949 -2.68328 0
M  V30 4645 N 430.127 0.543554 -1.4793 0
M  V30 4646 C 431.404 1.30458 -1.4574 0
M  V30 4647 C 431.784 2.1048 -0.161692 0
M  V30 4648 O 431.132 2.11831 0.856734 0
M  V30 4649 C 431.342 2.19754 -2.71126 0
M  V30 4650 C 432.69 2.80334 -3.18901 0
M  V30 4651 O 433.714 2.30049 -2.71948 0
M  V30 4652 O 432.573 3.71766 -4.00565 0
M  V30 4653 H 429.667 0.588117 -0.581418 0
M  V30 4654 H 432.213 0.561328 -1.60147 0
M  V30 4655 H 430.985 1.60316 -3.56952 0
M  V30 4656 H 430.608 3.01351 -2.59371 0
M  V30 4657 N 431.605 1.3629 0.791371 0
M  V30 4658 C 432.845 1.31792 1.56238 0
M  V30 4659 C 433.209 -0.102237 1.91728 0
M  V30 4660 O 434.41 -0.271759 2.67423 0
M  V30 4661 C 432.681 2.21303 2.80642 0
M  V30 4662 S 434.24 2.34468 3.70904 0
M  V30 4663 H 431.058 0.468141 0.535131 0
M  V30 4664 H 433.66 1.71841 0.932246 0
M  V30 4665 H 432.364 3.23439 2.52617 0
M  V30 4666 H 431.895 1.82266 3.4863 0
M  V30 4667 H 433.91 1.54074 4.71673 0
M  V30 4668 N 433.083 -1.0153 1.20538 0
M  V30 4669 C 434.331 -1.74803 1.01432 0
M  V30 4670 C 434.652 -1.8963 -0.454456 0
M  V30 4671 O 433.922 -1.43975 -1.32846 0
M  V30 4672 H 432.502 -0.647598 0.372324 0
M  V30 4673 H 435.164 -1.22402 1.5167 0
M  V30 4674 H 434.26 -2.75114 1.47373 0
M  V30 4675 N 434.561 -1.01147 -1.20859 0
M  V30 4676 C 435.471 -0.58686 -2.27141 0
M  V30 4677 C 436.487 0.373198 -1.69951 0
M  V30 4678 O 437.663 0.235423 -2.00019 0
M  V30 4679 C 434.728 0.0733602 -3.46622 0
M  V30 4680 C 433.789 -0.931995 -4.19061 0
M  V30 4681 C 433.022 -0.303186 -5.32838 0
M  V30 4682 O 433.245 0.898395 -5.63281 0
M  V30 4683 O 432.179 -1.01735 -5.9324 0
M  V30 4684 H 436.005 -1.47155 -2.65667 0
M  V30 4685 H 433.59 -0.780689 -1.2738 0
M  V30 4686 H 435.472 0.442333 -4.19072 0
M  V30 4687 H 434.147 0.932329 -3.09983 0
M  V30 4688 H 433.054 -1.35224 -3.48805 0
M  V30 4689 H 434.387 -1.76076 -4.59628 0
M  V30 4690 N 436.039 1.36541 -0.78704 0
M  V30 4691 C 436.986 2.30082 -0.181901 0
M  V30 4692 C 437.956 1.5186 0.672896 0
M  V30 4693 O 439.141 1.80374 0.622072 0
M  V30 4694 C 436.281 3.3835 0.679197 0
M  V30 4695 C 435.394 4.31565 -0.193882 0
M  V30 4696 C 434.529 5.26915 0.673364 0
M  V30 4697 C 433.568 6.11769 -0.201315 0
M  V30 4698 N 432.705 6.99315 0.624777 0
M  V30 4699 H 437.545 2.81248 -0.985064 0
M  V30 4700 H 435.082 1.38437 -0.497342 0
M  V30 4701 H 437.04 3.99767 1.19341 0
M  V30 4702 H 435.67 2.8851 1.44781 0
M  V30 4703 H 434.722 3.71323 -0.826044 0
M  V30 4704 H 436.034 4.91191 -0.867937 0
M  V30 4705 H 435.188 5.9361 1.25348 0
M  V30 4706 H 433.927 4.67737 1.38105 0
M  V30 4707 H 432.932 5.44039 -0.793849 0
M  V30 4708 H 434.157 6.73022 -0.906568 0
M  V30 4709 H 432.103 6.42648 1.3168 0
M  V30 4710 H 432.02 7.56 0.00835237 0
M  V30 4711 H 433.288 7.70382 1.18879 0
M  V30 4712 N 437.518 0.538854 1.48102 0
M  V30 4713 C 438.767 0.0059532 2.01699 0
M  V30 4714 C 439.08 -1.34476 1.42041 0
M  V30 4715 O 440.286 -1.96653 1.87189 0
M  V30 4716 C 438.742 -0.0397627 3.59878 0
M  V30 4717 C 438.35 1.30659 4.28523 0
M  V30 4718 C 440.094 -0.521024 4.2129 0
M  V30 4719 C 438.001 1.22098 5.78659 0
M  V30 4720 H 436.931 -0.00154456 0.753998 0
M  V30 4721 H 439.582 0.683963 1.70277 0
M  V30 4722 H 437.964 -0.783037 3.88181 0
M  V30 4723 H 439.138 2.06613 4.11883 0
M  V30 4724 H 437.453 1.7243 3.79021 0
M  V30 4725 H 440.05 -0.603184 5.31287 0
M  V30 4726 H 440.393 -1.52885 3.8721 0
M  V30 4727 H 440.926 0.166834 3.9745 0
M  V30 4728 H 437.665 2.20424 6.17328 0
M  V30 4729 H 437.185 0.50295 5.97688 0
M  V30 4730 H 438.864 0.915345 6.40492 0
M  V30 4731 N 438.996 -1.55193 0.274407 0
M  V30 4732 C 440.224 -2.03987 -0.345943 0
M  V30 4733 C 440.639 -1.15279 -1.4952 0
M  V30 4734 O 439.996 -0.172759 -1.8168 0
M  V30 4735 C 440.047 -3.51898 -0.827631 0
M  V30 4736 O 439.768 -4.37231 0.275855 0
M  V30 4737 C 441.269 -4.16577 -1.51587 0
M  V30 4738 H 438.489 -0.666335 -0.0789892 0
M  V30 4739 H 441.033 -2.00423 0.406294 0
M  V30 4740 H 439.188 -3.55909 -1.52996 0
M  V30 4741 H 439.602 -5.24415 -0.0943638 0
M  V30 4742 H 441.076 -5.21678 -1.80433 0
M  V30 4743 H 441.553 -3.64707 -2.44716 0
M  V30 4744 H 442.159 -4.16568 -0.857409 0
M  V30 4745 N 440.474 -0.00167713 -1.576 0
M  V30 4746 C 441.404 0.988091 -2.11563 0
M  V30 4747 C 442.385 1.35736 -1.02517 0
M  V30 4748 O 443.57 1.44082 -1.30208 0
M  V30 4749 C 440.7 2.27941 -2.62031 0
M  V30 4750 C 439.654 2.0517 -3.75619 0
M  V30 4751 C 438.98 3.4033 -4.12407 0
M  V30 4752 C 440.28 1.41294 -5.02825 0
M  V30 4753 H 441.974 0.538771 -2.94513 0
M  V30 4754 H 439.52 0.257712 -1.41675 0
M  V30 4755 H 441.473 2.97539 -2.9841 0
M  V30 4756 H 440.197 2.74989 -1.76205 0
M  V30 4757 H 438.856 1.37998 -3.39635 0
M  V30 4758 H 438.504 3.85085 -3.23603 0
M  V30 4759 H 438.204 3.25909 -4.88935 0
M  V30 4760 H 439.728 4.1124 -4.51347 0
M  V30 4761 H 441.142 2.00851 -5.36965 0
M  V30 4762 H 439.539 1.37356 -5.84169 0
M  V30 4763 H 440.609 0.382362 -4.8339 0
M  V30 4764 N 441.952 1.55251 0.271103 0
M  V30 4765 C 443.192 1.77698 1.01008 0
M  V30 4766 C 443.556 0.567246 1.83429 0
M  V30 4767 O 444.757 0.670013 2.60316 0
M  V30 4768 C 443.028 3.04715 1.86772 0
M  V30 4769 S 444.587 3.48289 2.66909 0
M  V30 4770 H 441.405 0.624343 0.340172 0
M  V30 4771 H 444.007 1.9348 0.280315 0
M  V30 4772 H 442.711 3.90853 1.25149 0
M  V30 4773 H 442.242 2.91604 2.64066 0
M  V30 4774 H 444.257 3.07712 3.89266 0
M  V30 4775 N 443.43 -0.535701 1.48216 0
M  V30 4776 C 444.679 -1.28828 1.55197 0
M  V30 4777 C 444.992 -1.94263 0.228278 0
M  V30 4778 O 446.198 -2.70927 0.176278 0
M  V30 4779 C 444.654 -2.33727 2.73678 0
M  V30 4780 C 444.262 -1.74386 4.12666 0
M  V30 4781 C 446.006 -3.1003 2.89968 0
M  V30 4782 C 443.913 -2.77192 5.22416 0
M  V30 4783 H 442.843 -0.484484 0.577747 0
M  V30 4784 H 445.494 -0.56646 1.74538 0
M  V30 4785 H 443.876 -3.08919 2.4776 0
M  V30 4786 H 445.05 -1.05421 4.48579 0
M  V30 4787 H 443.365 -1.10595 4.01445 0
M  V30 4788 H 445.962 -3.86842 3.6913 0
M  V30 4789 H 446.305 -3.65542 1.9921 0
M  V30 4790 H 446.838 -2.41952 3.15759 0
M  V30 4791 H 443.577 -2.26507 6.15122 0
M  V30 4792 H 443.097 -3.44502 4.90998 0
M  V30 4793 H 444.776 -3.40285 5.50286 0
M  V30 4794 N 444.908 -1.36708 -0.784132 0
M  V30 4795 C 446.133 -1.34565 -1.5782 0
M  V30 4796 C 446.558 0.0695257 -1.87971 0
M  V30 4797 O 445.916 1.04302 -1.48293 0
M  V30 4798 C 445.964 -2.17952 -2.87279 0
M  V30 4799 O 445.068 -1.57563 -3.81114 0
M  V30 4800 H 444.409 -0.460337 -0.478524 0
M  V30 4801 H 446.939 -1.80064 -0.971495 0
M  V30 4802 H 446.949 -2.30721 -3.365 0
M  V30 4803 H 445.624 -3.20823 -2.64661 0
M  V30 4804 H 444.201 -1.53764 -3.39722 0
M  V30 4805 N 446.386 1.0089 -1.21074 0
M  V30 4806 C 447.632 1.74866 -1.02712 0
M  V30 4807 C 447.965 1.89178 0.438787 0
M  V30 4808 O 447.24 1.42325 1.32567 0
M  V30 4809 C 447.523 3.16347 -1.72036 0
M  V30 4810 C 447.376 3.09782 -3.26121 0
M  V30 4811 C 448.695 4.15187 -1.45973 0
M  V30 4812 H 445.814 0.634736 -0.374539 0
M  V30 4813 H 448.456 1.17646 -1.49196 0
M  V30 4814 H 446.606 3.65201 -1.32517 0
M  V30 4815 H 448.278 2.68673 -3.74983 0
M  V30 4816 H 446.521 2.46982 -3.56626 0
M  V30 4817 H 447.192 4.09829 -3.6979 0
M  V30 4818 H 449.668 3.75022 -1.80272 0
M  V30 4819 H 448.544 5.12331 -1.96999 0
M  V30 4820 H 448.805 4.40386 -0.388924 0
M  V30 4821 N 447.864 1.01787 1.20321 0
M  V30 4822 C 448.794 0.609625 2.25401 0
M  V30 4823 C 449.775 -0.375951 1.65893 0
M  V30 4824 O 450.96 -0.261101 1.92437 0
M  V30 4825 C 448.09 -0.0515995 3.47262 0
M  V30 4826 C 447.044 0.855095 4.19371 0
M  V30 4827 C 446.37 0.0595757 5.34667 0
M  V30 4828 C 447.67 2.16374 4.75373 0
M  V30 4829 H 449.364 1.48803 2.59804 0
M  V30 4830 H 446.91 0.716934 1.24884 0
M  V30 4831 H 448.863 -0.348764 4.19954 0
M  V30 4832 H 447.587 -0.964726 3.12027 0
M  V30 4833 H 446.246 1.13628 3.48546 0
M  V30 4834 H 445.894 -0.85524 4.95676 0
M  V30 4835 H 445.594 0.663406 5.83843 0
M  V30 4836 H 447.118 -0.231105 6.10162 0
M  V30 4837 H 448.532 1.92885 5.39878 0
M  V30 4838 H 446.929 2.71853 5.34991 0
M  V30 4839 H 447.999 2.82589 3.94045 0
M  V30 4840 N 449.342 -1.36122 0.79427 0
M  V30 4841 C 450.272 -2.32551 0.210328 0
M  V30 4842 C 451.253 -1.56884 -0.657386 0
M  V30 4843 O 452.438 -1.85014 -0.590207 0
M  V30 4844 C 449.568 -3.41128 -0.651819 0
M  V30 4845 C 448.522 -4.27842 0.116395 0
M  V30 4846 C 447.848 -5.2763 -0.86666 0
M  V30 4847 C 449.148 -5.05647 1.30837 0
M  V30 4848 H 450.842 -2.81636 1.01594 0
M  V30 4849 H 448.388 -1.35407 0.489981 0
M  V30 4850 H 450.341 -4.07581 -1.07031 0
M  V30 4851 H 449.065 -2.90622 -1.49019 0
M  V30 4852 H 447.724 -3.62952 0.515915 0
M  V30 4853 H 447.372 -4.73395 -1.70019 0
M  V30 4854 H 447.072 -5.86514 -0.35705 0
M  V30 4855 H 448.596 -5.96955 -1.28361 0
M  V30 4856 H 450.01 -5.65113 0.965393 0
M  V30 4857 H 448.407 -5.73967 1.75161 0
M  V30 4858 H 449.477 -4.37006 2.10128 0
M  V30 4859 N 450.82 -0.546701 -1.47814 0
M  V30 4860 C 452.045 -0.021268 -2.07389 0
M  V30 4861 C 452.47 1.25822 -1.39822 0
M  V30 4862 O 451.828 1.75111 -0.46968 0
M  V30 4863 C 451.876 0.168502 -3.60206 0
M  V30 4864 O 450.98 1.23347 -3.93522 0
M  V30 4865 H 450.321 -0.0466108 -0.662362 0
M  V30 4866 H 452.851 -0.759387 -1.89985 0
M  V30 4867 H 452.861 0.385982 -4.0617 0
M  V30 4868 H 451.536 -0.766075 -4.08784 0
M  V30 4869 H 450.113 0.997319 -3.59316 0
M  V30 4870 N 452.299 1.55045 -0.282633 0
M  V30 4871 C 453.229 2.2579 0.595066 0
M  V30 4872 C 454.21 1.25074 1.15284 0
M  V30 4873 O 455.395 1.5381 1.18559 0
M  V30 4874 C 452.525 2.98472 1.77572 0
M  V30 4875 C 451.479 4.0618 1.34914 0
M  V30 4876 C 450.805 4.66477 2.6135 0
M  V30 4877 C 452.105 5.1996 0.493821 0
M  V30 4878 H 453.799 2.994 0.00505653 0
M  V30 4879 H 451.345 1.44 0.000992001 0
M  V30 4880 H 453.298 3.46677 2.39568 0
M  V30 4881 H 452.022 2.2241 2.39168 0
M  V30 4882 H 450.681 3.58797 0.752338 0
M  V30 4883 H 450.329 3.87074 3.2122 0
M  V30 4884 H 450.029 5.39207 2.33516 0
M  V30 4885 H 451.553 5.17435 3.24181 0
M  V30 4886 H 452.967 5.64172 1.01898 0
M  V30 4887 H 451.364 5.99299 0.310047 0
M  V30 4888 H 452.434 4.82462 -0.485593 0
M  V30 4889 N 453.777 0.010035 1.57597 0
M  V30 4890 C 455.005 -0.683413 1.95287 0
M  V30 4891 C 455.42 -1.66747 0.885481 0
M  V30 4892 O 454.777 -1.82003 -0.134629 0
M  V30 4893 C 454.828 -1.40652 3.33015 0
M  V30 4894 O 454.549 -0.461916 4.35658 0
M  V30 4895 C 456.05 -2.19356 3.85225 0
M  V30 4896 H 453.27 -0.189708 0.643624 0
M  V30 4897 H 455.814 0.0641359 2.04399 0
M  V30 4898 H 453.969 -2.10562 3.2518 0
M  V30 4899 H 454.383 -0.973215 5.15392 0
M  V30 4900 H 455.857 -2.65433 4.83993 0
M  V30 4901 H 456.334 -3.02457 3.18459 0
M  V30 4902 H 456.94 -1.54442 3.96267 0
M  V30 4903 N 455.255 -1.55392 -0.262866 0
M  V30 4904 C 456.501 -1.76737 -0.99458 0
M  V30 4905 C 456.834 -0.572453 -1.85571 0
M  V30 4906 O 456.109 0.429732 -1.89693 0
M  V30 4907 C 456.392 -3.07824 -1.8686 0
M  V30 4908 C 456.245 -4.3769 -1.03672 0
M  V30 4909 C 457.564 -3.35021 -2.85393 0
M  V30 4910 H 454.683 -0.643005 -0.360157 0
M  V30 4911 H 457.325 -1.88126 -0.266216 0
M  V30 4912 H 455.475 -2.98245 -2.48962 0
M  V30 4913 H 457.147 -4.59238 -0.43563 0
M  V30 4914 H 455.39 -4.32461 -0.340513 0
M  V30 4915 H 456.061 -5.25759 -1.6817 0
M  V30 4916 H 458.537 -3.44458 -2.33426 0
M  V30 4917 H 457.413 -4.27989 -3.43681 0
M  V30 4918 H 457.674 -2.55153 -3.61039 0
M  V30 4919 N 456.733 0.527833 -1.48498 0
M  V30 4920 C 457.98 1.28354 -1.56625 0
M  V30 4921 C 458.308 1.93 -0.241096 0
M  V30 4922 O 457.563 1.79967 0.768798 0
M  V30 4923 C 457.862 2.39275 -2.65485 0
M  V30 4924 C 457.528 1.92268 -4.07853 0
M  V30 4925 C 456.19 1.79166 -4.46602 0
M  V30 4926 C 458.542 1.56771 -4.97064 0
M  V30 4927 C 455.87 1.28905 -5.72364 0
M  V30 4928 C 458.222 1.07972 -6.23318 0
M  V30 4929 C 456.886 0.934887 -6.60921 0
M  V30 4930 H 456.156 0.469682 -0.573131 0
M  V30 4931 H 458.803 0.588781 -1.82224 0
M  V30 4932 H 457.108 3.1443 -2.33754 0
M  V30 4933 H 458.805 2.974 -2.68988 0
M  V30 4934 H 455.395 2.03417 -3.77252 0
M  V30 4935 H 459.579 1.65753 -4.67803 0
M  V30 4936 H 454.835 1.16381 -6.00221 0
M  V30 4937 H 459.009 0.795775 -6.91838 0
M  V30 4938 H 456.636 0.543231 -7.58257 0
M  V30 4939 N 458.211 1.37122 0.776871 0
M  V30 4940 C 459.141 1.35164 1.90402 0
M  V30 4941 C 460.122 0.221069 1.68657 0
M  V30 4942 O 461.307 0.420642 1.8959 0
M  V30 4943 C 458.437 1.15274 3.27611 0
M  V30 4944 C 457.391 2.25289 3.63908 0
M  V30 4945 C 456.717 1.90527 4.99603 0
M  V30 4946 C 458.017 3.67446 3.71188 0
M  V30 4947 H 459.711 2.29482 1.92297 0
M  V30 4948 H 457.257 1.10465 0.923773 0
M  V30 4949 H 459.21 1.12536 4.06096 0
M  V30 4950 H 457.934 0.174102 3.26136 0
M  V30 4951 H 456.593 2.27174 2.87728 0
M  V30 4952 H 456.241 0.91206 4.94662 0
M  V30 4953 H 455.941 2.64193 5.24858 0
M  V30 4954 H 457.465 1.89367 5.80493 0
M  V30 4955 H 458.879 3.67719 4.39836 0
M  V30 4956 H 457.276 4.40123 4.07936 0
M  V30 4957 H 458.346 4.01443 2.71977 0
M  V30 4958 N 459.689 -1.00246 1.21608 0
M  V30 4959 C 460.619 -2.10921 1.00172 0
M  V30 4960 C 461.6 -1.69938 -0.0741587 0
M  V30 4961 O 462.785 -1.94009 0.0861753 0
M  V30 4962 C 459.915 -3.42618 0.568355 0
M  V30 4963 C 458.869 -3.97407 1.58909 0
M  V30 4964 C 458.195 -5.25038 1.01187 0
M  V30 4965 C 459.495 -4.2918 2.97661 0
M  V30 4966 H 461.189 -2.29112 1.92739 0
M  V30 4967 H 458.735 -1.10101 0.928102 0
M  V30 4968 H 460.688 -4.19444 0.405555 0
M  V30 4969 H 459.412 -3.24227 -0.392961 0
M  V30 4970 H 458.071 -3.22703 1.73949 0
M  V30 4971 H 457.719 -5.02982 0.0421965 0
M  V30 4972 H 457.419 -5.62661 1.6937 0
M  V30 4973 H 458.943 -6.04507 0.860448 0
M  V30 4974 H 460.357 -4.96839 2.86049 0
M  V30 4975 H 458.754 -4.77952 3.6288 0
M  V30 4976 H 459.824 -3.3735 3.48315 0
M  V30 4977 N 461.167 -1.02423 -1.1978 0
M  V30 4978 C 462.097 -0.62157 -2.25075 0
M  V30 4979 C 463.078 0.367148 -1.6609 0
M  V30 4980 O 464.263 0.250892 -1.92573 0
M  V30 4981 C 461.393 0.0331826 -3.47284 0
M  V30 4982 C 460.347 -0.877323 -4.18912 0
M  V30 4983 C 459.673 -0.0879296 -5.34628 0
M  V30 4984 C 460.973 -2.18892 -4.74219 0
M  V30 4985 H 462.667 -1.50179 -2.59011 0
M  V30 4986 H 460.213 -0.723547 -1.24502 0
M  V30 4987 H 462.166 0.326488 -4.20133 0
M  V30 4988 H 460.89 0.948164 -3.12534 0
M  V30 4989 H 459.549 -1.15475 -3.47938 0
M  V30 4990 H 459.197 0.828941 -4.96123 0
M  V30 4991 H 458.897 -0.694359 -5.83483 0
M  V30 4992 H 460.421 0.198743 -6.10276 0
M  V30 4993 H 461.835 -1.95746 -5.38847 0
M  V30 4994 H 460.232 -2.74686 -5.33542 0
M  V30 4995 H 461.302 -2.84674 -3.92541 0
M  V30 4996 N 462.645 1.35699 -0.801477 0
M  V30 4997 C 463.894 1.98165 -0.375979 0
M  V30 4998 C 464.207 1.64306 1.06127 0
M  V30 4999 O 465.413 2.20097 1.58964 0
M  V30 5000 C 463.869 3.54497 -0.621305 0
M  V30 5001 C 463.477 3.9727 -2.07076 0
M  V30 5002 C 465.221 4.23697 -0.26091 0
M  V30 5003 C 463.128 5.46427 -2.26211 0
M  V30 5004 H 462.058 0.741478 -0.136844 0
M  V30 5005 H 464.709 1.54834 -0.984814 0
M  V30 5006 H 463.091 3.95958 0.0574112 0
M  V30 5007 H 464.265 3.66974 -2.78687 0
M  V30 5008 H 462.58 3.40943 -2.39054 0
M  V30 5009 H 465.177 5.33334 -0.381994 0
M  V30 5010 H 465.52 4.0869 0.792344 0
M  V30 5011 H 466.053 3.87639 -0.893339 0
M  V30 5012 H 462.792 5.66396 -3.29963 0
M  V30 5013 H 462.312 5.78309 -1.59119 0
M  V30 5014 H 463.991 6.12819 -2.07513 0
M  V30 5015 N 464.123 0.554532 1.47522 0
M  V30 5016 C 465.351 0.034257 2.06872 0
M  V30 5017 C 465.766 -1.25826 1.40759 0
M  V30 5018 O 465.123 -1.75425 0.503217 0
M  V30 5019 C 465.174 -0.167827 3.6111 0
M  V30 5020 O 464.895 1.07351 4.24744 0
M  V30 5021 C 466.396 -0.72569 4.3732 0
M  V30 5022 H 463.616 0.0446275 0.669514 0
M  V30 5023 H 466.16 0.767181 1.89564 0
M  V30 5024 H 464.315 -0.850872 3.7794 0
M  V30 5025 H 464.729 0.869563 5.17242 0
M  V30 5026 H 466.203 -0.816394 5.45929 0
M  V30 5027 H 466.68 -1.73635 4.0342 0
M  V30 5028 H 467.286 -0.0784292 4.25228 0
M  V30 5029 N 465.601 -1.54893 0.290851 0
M  V30 5030 C 466.511 -2.26812 -0.59945 0
M  V30 5031 C 467.527 -1.29963 -1.15696 0
M  V30 5032 O 468.703 -1.62928 -1.18391 0
M  V30 5033 C 465.768 -2.98716 -1.75982 0
M  V30 5034 C 464.829 -4.1108 -1.2374 0
M  V30 5035 C 464.062 -4.79546 -2.34246 0
M  V30 5036 O 464.285 -4.47309 -3.53936 0
M  V30 5037 O 463.219 -5.67165 -2.01512 0
M  V30 5038 H 467.045 -3.03696 -0.0163561 0
M  V30 5039 H 464.63 -1.49289 0.0576755 0
M  V30 5040 H 466.512 -3.43851 -2.43607 0
M  V30 5041 H 465.187 -2.24737 -2.3297 0
M  V30 5042 H 464.094 -3.70367 -0.527163 0
M  V30 5043 H 465.427 -4.87007 -0.71307 0
M  V30 5044 N 467.08 -0.0183926 -1.57589 0
M  V30 5045 C 468.329 0.66185 -1.90532 0
M  V30 5046 C 468.642 1.73904 -0.895366 0
M  V30 5047 O 469.848 2.47518 -1.11566 0
M  V30 5048 C 468.304 1.22844 -3.38286 0
M  V30 5049 C 467.912 0.185103 -4.47617 0
M  V30 5050 C 469.656 1.88581 -3.80312 0
M  V30 5051 C 467.563 0.762723 -5.86461 0
M  V30 5052 H 466.493 0.250972 -0.711006 0
M  V30 5053 H 469.144 -0.0819435 -1.83317 0
M  V30 5054 H 467.526 2.0235 -3.40398 0
M  V30 5055 H 468.7 -0.58671 -4.5705 0
M  V30 5056 H 467.015 -0.372889 -4.14727 0
M  V30 5057 H 469.612 2.32735 -4.81392 0
M  V30 5058 H 469.955 2.72408 -3.14801 0
M  V30 5059 H 470.488 1.15782 -3.80578 0
M  V30 5060 H 467.227 -0.0371713 -6.55489 0
M  V30 5061 H 466.747 1.50327 -5.80656 0
M  V30 5062 H 468.426 1.25576 -6.34697 0
M  V30 5063 N 468.558 1.5553 0.254621 0
M  V30 5064 C 469.807 1.76202 0.981612 0
M  V30 5065 C 470.12 0.580883 1.86776 0
M  V30 5066 O 471.326 0.670448 2.63092 0
M  V30 5067 C 469.782 3.11921 1.79537 0
M  V30 5068 C 469.39 4.37659 0.956991 0
M  V30 5069 C 471.134 3.41936 2.51555 0
M  V30 5070 C 469.041 5.64411 1.76619 0
M  V30 5071 H 467.971 0.656841 0.370237 0
M  V30 5072 H 470.622 1.81969 0.236556 0
M  V30 5073 H 469.004 3.00241 2.58208 0
M  V30 5074 H 470.178 4.60307 0.21315 0
M  V30 5075 H 468.493 4.14922 0.350497 0
M  V30 5076 H 471.09 4.33849 3.12536 0
M  V30 5077 H 471.433 2.62905 3.22779 0
M  V30 5078 H 471.966 3.54797 1.799 0
M  V30 5079 H 468.705 6.46241 1.09783 0
M  V30 5080 H 468.225 5.45877 2.48551 0
M  V30 5081 H 469.904 6.03386 2.33527 0
M  V30 5082 N 470.036 -0.519951 1.48776 0
M  V30 5083 C 471.447 -1.10177 1.50725 0
M  V30 5084 C 471.798 -1.94153 0.282678 0
M  V30 5085 O 470.923 -2.07645 -0.609298 0
M  V30 5086 C 471.518 -2.00482 2.73116 0
M  V30 5087 C 470.077 -2.53862 2.77905 0
M  V30 5088 C 469.224 -1.31047 2.44381 0
M  V30 5089 H 472.175 -0.30473 1.55747 0
M  V30 5090 H 472.196 -2.8491 2.52203 0
M  V30 5091 H 471.708 -1.39335 3.62225 0
M  V30 5092 H 469.809 -3.18702 1.93029 0
M  V30 5093 H 469.922 -2.9231 3.79594 0
M  V30 5094 H 468.286 -1.62953 1.95751 0
M  V30 5095 H 469.069 -0.71637 3.35743 0
M  V30 5096 N 471.514 -1.37532 -0.769588 0
M  V30 5097 C 472.739 -1.36231 -1.56384 0
M  V30 5098 C 473.164 0.0495849 -1.88035 0
M  V30 5099 O 472.522 1.02723 -1.49391 0
M  V30 5100 C 472.57 -2.20986 -2.84952 0
M  V30 5101 O 471.674 -1.61597 -3.79421 0
M  V30 5102 H 471.015 -0.465387 -0.473615 0
M  V30 5103 H 473.545 -1.81085 -0.952342 0
M  V30 5104 H 473.555 -2.34277 -3.34034 0
M  V30 5105 H 472.23 -3.23612 -2.61243 0
M  V30 5106 H 470.807 -1.57359 -3.38072 0
M  V30 5107 N 472.992 0.995999 -1.22138 0
M  V30 5108 C 474.22 1.77066 -1.07029 0
M  V30 5109 C 474.635 1.8495 0.379357 0
M  V30 5110 O 473.992 1.3174 1.26297 0
M  V30 5111 C 474.043 3.20533 -1.67155 0
M  V30 5112 O 473.764 3.13082 -3.06449 0
M  V30 5113 C 475.265 4.14461 -1.5728 0
M  V30 5114 H 472.485 0.556179 -0.375374 0
M  V30 5115 H 475.029 1.25238 -1.61666 0
M  V30 5116 H 473.184 3.6944 -1.16589 0
M  V30 5117 H 473.598 4.03283 -3.35355 0
M  V30 5118 H 475.072 5.1289 -2.04078 0
M  V30 5119 H 475.549 4.36005 -0.528795 0
M  V30 5120 H 476.155 3.71449 -2.07136 0
M  V30 5121 N 474.47 1.03057 1.19235 0
M  V30 5122 C 475.695 0.74757 1.93458 0
M  V30 5123 C 476.12 -0.687648 1.7508 0
M  V30 5124 O 475.478 -1.47499 1.05422 0
M  V30 5125 C 475.526 1.10604 3.43219 0
M  V30 5126 O 474.63 0.225671 4.11782 0
M  V30 5127 H 473.971 0.276047 0.603899 0
M  V30 5128 H 476.501 1.3777 1.51263 0
M  V30 5129 H 476.511 1.06366 3.93891 0
M  V30 5130 H 475.186 2.15165 3.55917 0
M  V30 5131 H 473.763 0.326795 3.71465 0
M  V30 5132 N 475.948 -1.35272 0.808662 0
M  V30 5133 C 476.878 -2.32315 0.234981 0
M  V30 5134 C 477.859 -1.57572 -0.64071 0
M  V30 5135 O 479.044 -1.8563 -0.570551 0
M  V30 5136 C 476.174 -3.41801 -0.615601 0
M  V30 5137 C 475.128 -4.27694 0.161767 0
M  V30 5138 C 474.454 -5.28519 -0.810649 0
M  V30 5139 C 475.754 -5.04231 1.36193 0
M  V30 5140 H 477.448 -2.80543 1.04575 0
M  V30 5141 H 474.994 -1.3488 0.504315 0
M  V30 5142 H 476.947 -4.08693 -1.02702 0
M  V30 5143 H 475.671 -2.92186 -1.45928 0
M  V30 5144 H 474.33 -3.62384 0.554382 0
M  V30 5145 H 473.978 -4.75171 -1.64988 0
M  V30 5146 H 473.678 -5.8686 -0.294822 0
M  V30 5147 H 475.202 -5.98283 -1.22023 0
M  V30 5148 H 476.616 -5.64058 1.02528 0
M  V30 5149 H 475.013 -5.72077 1.81239 0
M  V30 5150 H 476.083 -4.34753 2.14751 0
M  V30 5151 N 477.426 -0.562348 -1.47226 0
M  V30 5152 C 478.672 -0.0402761 -2.0276 0
M  V30 5153 C 479.005 1.30823 -1.43523 0
M  V30 5154 O 478.28 1.85249 -0.592705 0
M  V30 5155 C 478.563 0.047311 -3.60069 0
M  V30 5156 C 478.416 -1.32865 -4.29729 0
M  V30 5157 C 479.735 0.758182 -4.3352 0
M  V30 5158 H 476.854 -0.0161105 -0.736824 0
M  V30 5159 H 479.496 -0.725628 -1.75598 0
M  V30 5160 H 477.646 0.630986 -3.83342 0
M  V30 5161 H 479.318 -1.95593 -4.17781 0
M  V30 5162 H 477.561 -1.90195 -3.89882 0
M  V30 5163 H 478.232 -1.22004 -5.38349 0
M  V30 5164 H 480.708 0.262546 -4.15271 0
M  V30 5165 H 479.584 0.78844 -5.43208 0
M  V30 5166 H 479.845 1.81537 -4.03109 0
M  V30 5167 N 478.904 1.54736 -0.299062 0
M  V30 5168 C 480.153 1.99279 0.311549 0
M  V30 5169 C 480.466 1.19107 1.55154 0
M  V30 5170 O 481.672 1.53908 2.23662 0
M  V30 5171 C 480.128 3.54768 0.605632 0
M  V30 5172 C 479.736 4.43746 -0.615914 0
M  V30 5173 C 481.48 4.07841 1.17754 0
M  V30 5174 C 479.387 5.90663 -0.29509 0
M  V30 5175 H 478.317 0.744359 0.120187 0
M  V30 5176 H 480.968 1.78919 -0.407464 0
M  V30 5177 H 479.35 3.71021 1.38419 0
M  V30 5178 H 480.524 4.39267 -1.39218 0
M  V30 5179 H 478.839 4.01434 -1.10633 0
M  V30 5180 H 481.436 5.15174 1.43179 0
M  V30 5181 H 481.779 3.58324 2.11918 0
M  V30 5182 H 482.312 3.95123 0.460739 0
M  V30 5183 H 479.051 6.44325 -1.20524 0
M  V30 5184 H 478.571 5.98155 0.44394 0
M  V30 5185 H 480.25 6.46916 0.104048 0
M  V30 5186 N 480.382 0.0267497 1.57577 0
M  V30 5187 C 481.793 -0.512413 1.79531 0
M  V30 5188 C 482.144 -1.72391 0.936791 0
M  V30 5189 O 481.269 -2.15903 0.146543 0
M  V30 5190 C 481.864 -0.936378 3.25603 0
M  V30 5191 C 480.423 -1.42067 3.4856 0
M  V30 5192 C 479.57 -0.384278 2.74624 0
M  V30 5193 H 482.521 0.252797 1.56674 0
M  V30 5194 H 482.542 -1.80088 3.35184 0
M  V30 5195 H 482.054 -0.0544332 3.88062 0
M  V30 5196 H 480.155 -2.32262 2.9135 0
M  V30 5197 H 480.268 -1.42968 4.57271 0
M  V30 5198 H 478.632 -0.851855 2.40032 0
M  V30 5199 H 479.415 0.489159 3.39797 0
M  V30 5200 N 481.861 -1.55662 -0.24637 0
M  V30 5201 C 482.791 -1.93377 -1.30873 0
M  V30 5202 C 483.772 -0.798773 -1.50179 0
M  V30 5203 O 484.957 -1.0591 -1.62778 0
M  V30 5204 C 482.087 -2.22893 -2.66338 0
M  V30 5205 C 481.041 -3.38649 -2.61727 0
M  V30 5206 C 480.367 -3.53708 -4.00992 0
M  V30 5207 C 481.667 -4.74323 -2.18666 0
M  V30 5208 H 483.361 -2.82363 -0.995552 0
M  V30 5209 H 480.907 -1.35854 -0.477464 0
M  V30 5210 H 482.86 -2.47866 -3.40794 0
M  V30 5211 H 481.584 -1.30733 -2.99293 0
M  V30 5212 H 480.243 -3.13685 -1.89729 0
M  V30 5213 H 479.891 -2.58967 -4.31214 0
M  V30 5214 H 479.591 -4.31551 -3.98795 0
M  V30 5215 H 481.115 -3.81003 -4.77147 0
M  V30 5216 H 482.529 -4.98665 -2.82854 0
M  V30 5217 H 480.926 -5.55273 -2.27579 0
M  V30 5218 H 481.996 -4.71349 -1.13834 0
M  V30 5219 N 483.339 0.512053 -1.4905 0
M  V30 5220 C 484.588 1.26343 -1.57227 0
M  V30 5221 C 484.901 1.93876 -0.259155 0
M  V30 5222 O 486.107 2.70612 -0.219358 0
M  V30 5223 C 484.563 2.29343 -2.77362 0
M  V30 5224 C 484.171 1.67799 -4.15388 0
M  V30 5225 C 485.915 3.05378 -2.94864 0
M  V30 5226 C 483.822 2.68845 -5.2676 0
M  V30 5227 H 482.752 0.475231 -0.585382 0
M  V30 5228 H 485.403 0.53862 -1.75417 0
M  V30 5229 H 483.785 3.04938 -2.52643 0
M  V30 5230 H 484.959 0.982715 -4.50199 0
M  V30 5231 H 483.274 1.04194 -4.03153 0
M  V30 5232 H 485.871 3.80921 -3.75238 0
M  V30 5233 H 486.214 3.62327 -2.05 0
M  V30 5234 H 486.747 2.36898 -3.19569 0
M  V30 5235 H 483.486 2.16692 -6.18647 0
M  V30 5236 H 483.006 3.36647 -4.96416 0
M  V30 5237 H 484.685 3.31487 -5.5563 0
M  V30 5238 N 484.817 1.37938 0.762283 0
M  V30 5239 C 486.065 1.33404 1.51815 0
M  V30 5240 C 486.386 -0.0780975 1.94844 0
M  V30 5241 O 485.656 -1.02405 1.67003 0
M  V30 5242 H 484.236 0.490839 0.563104 0
M  V30 5243 H 486.898 1.72527 0.906669 0
M  V30 5244 H 485.994 1.97926 2.41313 0
M  V30 5245 N 486.295 -0.989507 1.22664 0
M  V30 5246 C 487.205 -2.11449 1.01619 0
M  V30 5247 C 488.221 -1.73962 -0.036545 0
M  V30 5248 O 489.397 -2.00788 0.156924 0
M  V30 5249 C 486.462 -3.41465 0.600204 0
M  V30 5250 C 485.523 -3.93033 1.72695 0
M  V30 5251 C 484.756 -5.16844 1.33071 0
M  V30 5252 O 484.979 -5.7001 0.210975 0
M  V30 5253 O 483.913 -5.6225 2.14845 0
M  V30 5254 H 487.739 -2.32088 1.9588 0
M  V30 5255 H 485.324 -1.09823 1.01289 0
M  V30 5256 H 487.206 -4.19695 0.37873 0
M  V30 5257 H 485.881 -3.22178 -0.313511 0
M  V30 5258 H 484.788 -3.15961 2.00298 0
M  V30 5259 H 486.121 -4.16758 2.61865 0
M  V30 5260 N 487.773 -1.03688 -1.18687 0
M  V30 5261 C 489.003 -0.756819 -1.92239 0
M  V30 5262 C 489.411 0.689374 -1.76194 0
M  V30 5263 O 488.754 1.48126 -1.08648 0
M  V30 5264 C 488.816 -1.03851 -3.44173 0
M  V30 5265 C 488.48 -2.47785 -3.83994 0
M  V30 5266 C 489.477 -3.4595 -3.88091 0
M  V30 5267 C 487.162 -2.82397 -4.154 0
M  V30 5268 C 489.156 -4.76779 -4.23038 0
M  V30 5269 C 486.843 -4.13433 -4.50018 0
M  V30 5270 C 487.841 -5.10434 -4.53813 0
M  V30 5271 O 487.529 -6.39122 -4.87625 0
M  V30 5272 H 487.261 -0.275678 -0.617234 0
M  V30 5273 H 489.815 -1.38658 -1.51536 0
M  V30 5274 H 488.045 -0.351612 -3.85098 0
M  V30 5275 H 489.734 -0.746846 -3.9897 0
M  V30 5276 H 490.5 -3.20549 -3.63969 0
M  V30 5277 H 486.379 -2.07568 -4.11627 0
M  V30 5278 H 489.923 -5.52488 -4.25914 0
M  V30 5279 H 485.82 -4.38604 -4.736 0
M  V30 5280 H 486.588 -6.43715 -5.05542 0
M  V30 5281 N 489.251 1.34841 -0.815825 0
M  V30 5282 C 490.181 2.32187 -0.247298 0
M  V30 5283 C 491.162 1.5791 0.632344 0
M  V30 5284 O 492.347 1.8593 0.560698 0
M  V30 5285 C 489.477 3.42122 0.597466 0
M  V30 5286 C 488.431 4.27602 -0.184446 0
M  V30 5287 C 487.757 5.28942 0.782609 0
M  V30 5288 C 489.057 5.03502 -1.38865 0
M  V30 5289 H 490.751 2.79985 -1.06061 0
M  V30 5290 H 488.297 1.34611 -0.511461 0
M  V30 5291 H 490.25 4.09232 1.00533 0
M  V30 5292 H 488.974 2.92956 1.44376 0
M  V30 5293 H 487.633 3.62085 -0.573592 0
M  V30 5294 H 487.281 4.7604 1.62466 0
M  V30 5295 H 486.981 5.87008 0.263695 0
M  V30 5296 H 488.505 5.98922 1.18848 0
M  V30 5297 H 489.919 5.63506 -1.05518 0
M  V30 5298 H 488.316 5.71108 -1.8427 0
M  V30 5299 H 489.386 4.33608 -2.17054 0
M  V30 5300 N 490.729 0.570148 1.46925 0
M  V30 5301 C 491.659 -0.158274 2.32963 0
M  V30 5302 C 492.64 -0.896093 1.44583 0
M  V30 5303 O 493.825 -0.874022 1.7342 0
M  V30 5304 C 490.955 -1.18055 3.26619 0
M  V30 5305 C 489.909 -0.558379 4.24342 0
M  V30 5306 C 489.235 -1.68623 5.07415 0
M  V30 5307 C 490.535 0.496295 5.19937 0
M  V30 5308 H 492.229 0.560046 2.94115 0
M  V30 5309 H 489.775 0.270775 1.41431 0
M  V30 5310 H 491.728 -1.69841 3.85658 0
M  V30 5311 H 490.452 -1.92899 2.63548 0
M  V30 5312 H 489.111 -0.0617157 3.66548 0
M  V30 5313 H 488.759 -2.42402 4.40738 0
M  V30 5314 H 488.459 -1.27564 5.73586 0
M  V30 5315 H 489.983 -2.20709 5.69315 0
M  V30 5316 H 491.397 0.0640052 5.73264 0
M  V30 5317 H 489.794 0.82649 5.94381 0
M  V30 5318 H 490.864 1.38735 4.6463 0
M  V30 5319 N 492.207 -1.54576 0.307264 0
M  V30 5320 C 493.454 -2.00263 -0.300167 0
M  V30 5321 C 493.782 -1.19561 -1.53413 0
M  V30 5322 O 493.037 -0.261487 -1.93945 0
M  V30 5323 C 493.336 -3.50572 -0.695253 0
M  V30 5324 C 493.002 -4.48771 0.437679 0
M  V30 5325 C 491.664 -4.7534 0.748681 0
M  V30 5326 C 494.016 -5.0721 1.19949 0
M  V30 5327 C 491.344 -5.5761 1.8245 0
M  V30 5328 C 493.696 -5.90651 2.26527 0
M  V30 5329 C 492.36 -6.15528 2.58227 0
M  V30 5330 H 491.63 -0.732814 -0.109839 0
M  V30 5331 H 494.277 -1.86664 0.427661 0
M  V30 5332 H 492.582 -3.61814 -1.50326 0
M  V30 5333 H 494.279 -3.83352 -1.17653 0
M  V30 5334 H 490.869 -4.282 0.185187 0
M  V30 5335 H 495.053 -4.86679 0.972474 0
M  V30 5336 H 490.309 -5.75121 2.07476 0
M  V30 5337 H 494.483 -6.34957 2.86011 0
M  V30 5338 H 492.11 -6.79066 3.4172 0
M  V30 5339 N 493.685 -0.035106 -1.57561 0
M  V30 5340 C 494.913 0.652258 -1.9635 0
M  V30 5341 C 495.328 1.65317 -0.911897 0
M  V30 5342 O 494.685 1.82194 0.105657 0
M  V30 5343 C 494.736 1.35337 -3.35211 0
M  V30 5344 O 494.457 0.392548 -4.36338 0
M  V30 5345 C 495.958 2.13199 -3.88666 0
M  V30 5346 H 493.178 0.179444 -0.646561 0
M  V30 5347 H 495.722 -0.0966459 -2.04271 0
M  V30 5348 H 493.877 2.05362 -3.28489 0
M  V30 5349 H 494.291 0.891097 -5.16875 0
M  V30 5350 H 495.765 2.577 -4.88154 0
M  V30 5351 H 496.242 2.97353 -3.23231 0
M  V30 5352 H 496.848 1.48118 -3.98674 0
M  V30 5353 N 495.163 1.55791 0.238111 0
M  V30 5354 C 496.096 1.86036 1.32158 0
M  V30 5355 C 497.074 0.716216 1.45976 0
M  V30 5356 O 498.258 0.962882 1.62052 0
M  V30 5357 C 495.385 2.05281 2.69402 0
M  V30 5358 C 494.431 3.27939 2.72687 0
M  V30 5359 S 495.264 4.84342 2.28413 0
M  V30 5360 C 496.42 5.06604 3.67565 0
M  V30 5361 H 496.653 2.77644 1.06306 0
M  V30 5362 H 494.186 1.48012 0.439537 0
M  V30 5363 H 496.144 2.17053 3.48423 0
M  V30 5364 H 494.805 1.14499 2.92487 0
M  V30 5365 H 493.998 3.38398 3.73501 0
M  V30 5366 H 493.6 3.14938 2.01717 0
M  V30 5367 H 495.892 4.94486 4.6313 0
M  V30 5368 H 496.835 6.08554 3.62033 0
M  V30 5369 H 497.243 4.34409 3.60485 0
M  V30 5370 N 496.642 -0.504142 1.49319 0
M  V30 5371 C 497.891 -1.25507 1.57895 0
M  V30 5372 C 498.204 -1.93735 0.269433 0
M  V30 5373 O 499.41 -2.70492 0.233706 0
M  V30 5374 C 497.866 -2.27869 2.78574 0
M  V30 5375 C 497.474 -1.65594 4.16272 0
M  V30 5376 C 499.218 -3.0381 2.96479 0
M  V30 5377 C 497.125 -2.66048 5.28178 0
M  V30 5378 H 496.055 -0.47212 0.587894 0
M  V30 5379 H 498.706 -0.52931 1.757 0
M  V30 5380 H 497.088 -3.03594 2.54257 0
M  V30 5381 H 498.262 -0.958826 4.50714 0
M  V30 5382 H 496.577 -1.02055 4.037 0
M  V30 5383 H 499.174 -3.78925 3.77253 0
M  V30 5384 H 499.517 -3.61235 2.06918 0
M  V30 5385 H 500.05 -2.352 3.20821 0
M  V30 5386 H 496.789 -2.13408 6.19788 0
M  V30 5387 H 496.309 -3.34009 4.98195 0
M  V30 5388 H 497.988 -3.28536 5.57381 0
M  V30 5389 N 498.12 -1.38341 -0.754957 0
M  V30 5390 C 499.367 -1.34473 -1.51404 0
M  V30 5391 C 499.695 0.0656458 -1.94389 0
M  V30 5392 O 498.95 1.04244 -1.65625 0
M  V30 5393 C 499.249 -2.2452 -2.78075 0
M  V30 5394 C 498.915 -3.72512 -2.54059 0
M  V30 5395 C 497.577 -4.1284 -2.47218 0
M  V30 5396 C 499.929 -4.66197 -2.33044 0
M  V30 5397 C 497.257 -5.44945 -2.17376 0
M  V30 5398 C 499.609 -5.98558 -2.04723 0
M  V30 5399 C 498.273 -6.37972 -1.96337 0
M  V30 5400 H 497.543 -0.492072 -0.554027 0
M  V30 5401 H 500.19 -1.70687 -0.868223 0
M  V30 5402 H 498.495 -1.81357 -3.473 0
M  V30 5403 H 500.192 -2.18832 -3.36026 0
M  V30 5404 H 496.782 -3.40538 -2.60253 0
M  V30 5405 H 500.966 -4.35888 -2.37309 0
M  V30 5406 H 496.222 -5.74426 -2.09391 0
M  V30 5407 H 500.396 -6.70693 -1.87465 0
M  V30 5408 H 498.023 -7.40258 -1.72978 0
M  V30 5409 N 499.598 0.982988 -1.23187 0
M  V30 5410 C 500.844 1.72648 -1.06398 0
M  V30 5411 C 501.177 1.90066 0.398561 0
M  V30 5412 O 500.452 1.45105 1.29518 0
M  V30 5413 C 500.735 3.12627 -1.78707 0
M  V30 5414 C 500.588 3.02795 -3.32618 0
M  V30 5415 C 501.907 4.11997 -1.54747 0
M  V30 5416 H 499.026 0.626649 -0.387918 0
M  V30 5417 H 501.668 1.14455 -1.51658 0
M  V30 5418 H 499.818 3.62308 -1.40234 0
M  V30 5419 H 501.49 2.60659 -3.80598 0
M  V30 5420 H 499.733 2.39362 -3.61785 0
M  V30 5421 H 500.404 4.01893 -3.78399 0
M  V30 5422 H 502.88 3.71114 -1.88186 0
M  V30 5423 H 501.756 5.08037 -2.07821 0
M  V30 5424 H 502.017 4.39462 -0.482249 0
M  V30 5425 N 501.076 1.04316 1.18135 0
M  V30 5426 C 502.304 0.768117 1.92113 0
M  V30 5427 C 502.719 -0.675057 1.76319 0
M  V30 5428 O 502.076 -1.46038 1.09449 0
M  V30 5429 C 502.127 1.12808 3.43448 0
M  V30 5430 O 501.848 2.5146 3.58747 0
M  V30 5431 C 503.349 0.8779 4.3452 0
M  V30 5432 H 500.569 0.279937 0.609817 0
M  V30 5433 H 503.113 1.39149 1.49859 0
M  V30 5434 H 501.268 0.549623 3.83481 0
M  V30 5435 H 501.682 2.65313 4.52448 0
M  V30 5436 H 503.156 1.17959 5.39249 0
M  V30 5437 H 503.633 -0.187239 4.38801 0
M  V30 5438 H 504.239 1.43977 4.00188 0
M  V30 5439 N 502.554 -1.34406 0.822964 0
M  V30 5440 C 503.484 -2.32052 0.259608 0
M  V30 5441 C 504.465 -1.58243 -0.623961 0
M  V30 5442 O 505.65 -1.86224 -0.55083 0
M  V30 5443 C 502.78 -3.42434 -0.579314 0
M  V30 5444 C 501.734 -4.27499 0.20712 0
M  V30 5445 C 501.06 -5.29349 -0.754547 0
M  V30 5446 C 502.36 -5.02758 1.41533 0
M  V30 5447 H 504.054 -2.79418 1.07545 0
M  V30 5448 H 501.6 -1.34338 0.518593 0
M  V30 5449 H 503.553 -4.0976 -0.983612 0
M  V30 5450 H 502.277 -2.93717 -1.4282 0
M  V30 5451 H 500.936 -3.61776 0.592787 0
M  V30 5452 H 500.584 -4.76895 -1.59939 0
M  V30 5453 H 500.284 -5.8714 -0.232561 0
M  V30 5454 H 501.808 -5.99544 -1.1567 0
M  V30 5455 H 503.222 -5.62938 1.08504 0
M  V30 5456 H 501.619 -5.70123 1.87296 0
M  V30 5457 H 502.689 -4.32451 2.1935 0
M  V30 5458 N 504.032 -0.577932 -1.46621 0
M  V30 5459 C 505.257 -0.0652536 -2.07297 0
M  V30 5460 C 505.682 1.22828 -1.4246 0
M  V30 5461 O 505.04 1.74075 -0.506718 0
M  V30 5462 C 505.088 0.0920589 -3.60482 0
M  V30 5463 O 504.192 1.14972 -3.96049 0
M  V30 5464 H 503.533 -0.06065 -0.661224 0
M  V30 5465 H 506.063 -0.799515 -1.88332 0
M  V30 5466 H 506.073 0.299741 -4.06897 0
M  V30 5467 H 504.748 -0.852612 -4.07067 0
M  V30 5468 H 503.325 0.920879 -3.61351 0
M  V30 5469 N 505.51 1.54411 -0.315457 0
M  V30 5470 C 506.759 1.99599 0.290395 0
M  V30 5471 C 507.072 1.20746 1.53882 0
M  V30 5472 O 508.278 1.56272 2.22017 0
M  V30 5473 C 506.734 3.5539 0.56797 0
M  V30 5474 C 506.342 4.43068 -0.662945 0
M  V30 5475 C 508.086 4.09067 1.13422 0
M  V30 5476 C 505.993 5.90317 -0.357722 0
M  V30 5477 H 504.923 0.745592 0.112286 0
M  V30 5478 H 507.574 1.78477 -0.426418 0
M  V30 5479 H 505.956 3.72468 1.34476 0
M  V30 5480 H 507.13 4.37765 -1.43869 0
M  V30 5481 H 505.445 4.00238 -1.14884 0
M  V30 5482 H 508.042 5.16663 1.37707 0
M  V30 5483 H 508.385 3.60552 2.08106 0
M  V30 5484 H 508.918 3.95589 0.418805 0
M  V30 5485 H 505.657 6.4301 -1.27351 0
M  V30 5486 H 505.177 5.98592 0.380472 0
M  V30 5487 H 506.856 6.4699 0.0354284 0
M  V30 5488 N 506.988 0.0434614 1.5754 0
M  V30 5489 C 508.234 -0.632971 1.92669 0
M  V30 5490 C 508.567 -1.70947 0.921446 0
M  V30 5491 O 507.842 -1.94426 -0.0537202 0
M  V30 5492 C 508.125 -1.23619 3.38216 0
M  V30 5493 C 507.978 -0.168274 4.49485 0
M  V30 5494 C 509.297 -2.15008 3.84005 0
M  V30 5495 H 506.416 -0.228629 0.700641 0
M  V30 5496 H 509.058 0.103651 1.89717 0
M  V30 5497 H 507.208 -1.864 3.40863 0
M  V30 5498 H 508.88 0.463196 4.58969 0
M  V30 5499 H 507.123 0.504581 4.30855 0
M  V30 5500 H 507.794 -0.630218 5.48391 0
M  V30 5501 H 510.27 -1.62198 3.83185 0
M  V30 5502 H 509.146 -2.54161 4.86511 0
M  V30 5503 H 509.407 -3.04707 3.20322 0
M  V30 5504 N 508.466 -1.55915 -0.229846 0
M  V30 5505 C 509.715 -1.77742 -0.953455 0
M  V30 5506 C 510.028 -0.610524 -1.85828 0
M  V30 5507 O 511.234 -0.712219 -2.61992 0
M  V30 5508 C 509.69 -3.14738 -1.74551 0
M  V30 5509 C 509.298 -4.39126 -0.887242 0
M  V30 5510 C 511.042 -3.45895 -2.46084 0
M  V30 5511 C 508.949 -5.67149 -1.67617 0
M  V30 5512 H 507.879 -0.662648 -0.359741 0
M  V30 5513 H 510.53 -1.82322 -0.207576 0
M  V30 5514 H 508.912 -3.04311 -2.53399 0
M  V30 5515 H 510.086 -4.60588 -0.139892 0
M  V30 5516 H 508.401 -4.15427 -0.284443 0
M  V30 5517 H 510.998 -4.38767 -3.05594 0
M  V30 5518 H 511.341 -2.68007 -3.18556 0
M  V30 5519 H 511.874 -3.57614 -1.74233 0
M  V30 5520 H 508.613 -6.47906 -0.994881 0
M  V30 5521 H 508.133 -5.49763 -2.39836 0
M  V30 5522 H 509.812 -6.07025 -2.23898 0
M  V30 5523 N 509.944 0.496216 -1.49584 0
M  V30 5524 C 511.172 1.27394 -1.63029 0
M  V30 5525 C 511.587 1.86344 -0.303569 0
M  V30 5526 O 510.944 1.68057 0.711547 0
M  V30 5527 C 510.995 2.40077 -2.70269 0
M  V30 5528 O 510.716 1.83549 -3.97796 0
M  V30 5529 C 512.217 3.31372 -2.94462 0
M  V30 5530 H 509.437 0.386211 -0.54871 0
M  V30 5531 H 511.981 0.595163 -1.95648 0
M  V30 5532 H 510.136 3.03775 -2.40415 0
M  V30 5533 H 510.55 2.57561 -4.56905 0
M  V30 5534 H 512.024 4.06707 -3.73221 0
M  V30 5535 H 512.501 3.88654 -2.0456 0
M  V30 5536 H 513.107 2.73435 -3.25751 0
M  V30 5537 N 511.423 1.38739 0.74761 0
M  V30 5538 C 512.669 1.35475 1.50912 0
M  V30 5539 C 513.002 -0.0533093 1.94127 0
M  V30 5540 O 512.277 -1.01572 1.65871 0
M  V30 5541 C 512.56 2.31582 2.75757 0
M  V30 5542 C 512.413 3.81274 2.38642 0
M  V30 5543 C 513.732 2.25722 3.77806 0
M  V30 5544 H 510.851 0.493427 0.547447 0
M  V30 5545 H 513.493 1.69634 0.855823 0
M  V30 5546 H 511.643 2.02582 3.31501 0
M  V30 5547 H 513.315 4.20972 1.88626 0
M  V30 5548 H 511.558 3.98664 1.71025 0
M  V30 5549 H 512.229 4.4399 3.27989 0
M  V30 5550 H 514.705 2.51336 3.31616 0
M  V30 5551 H 513.581 2.95069 4.62845 0
M  V30 5552 H 513.842 1.25803 4.23823 0
M  V30 5553 N 512.901 -0.976442 1.23707 0
M  V30 5554 C 514.148 -1.71827 1.07153 0
M  V30 5555 C 514.476 -1.9053 -0.390982 0
M  V30 5556 O 513.731 -1.45779 -1.30564 0
M  V30 5557 C 514.03 -3.11814 1.74662 0
M  V30 5558 C 513.696 -3.12978 3.24585 0
M  V30 5559 C 512.358 -3.13003 3.6549 0
M  V30 5560 C 514.71 -3.07986 4.20469 0
M  V30 5561 C 512.038 -3.05757 5.00729 0
M  V30 5562 C 514.39 -3.02282 5.55705 0
M  V30 5563 C 513.054 -3.00631 5.95968 0
M  V30 5564 H 512.324 -0.628758 0.392102 0
M  V30 5565 H 514.971 -1.14239 1.53693 0
M  V30 5566 H 513.276 -3.72812 1.20492 0
M  V30 5567 H 514.973 -3.67989 1.59328 0
M  V30 5568 H 511.563 -3.13718 2.92026 0
M  V30 5569 H 515.747 -3.07103 3.89874 0
M  V30 5570 H 511.003 -3.02834 5.31132 0
M  V30 5571 H 515.177 -2.97376 6.29714 0
M  V30 5572 H 512.804 -2.94771 7.00724 0
M  V30 5573 N 514.379 -1.04941 -1.1758 0
M  V30 5574 C 515.625 -0.759112 -1.88057 0
M  V30 5575 C 515.958 0.711918 -1.8068 0
M  V30 5576 O 515.233 1.52035 -1.21308 0
M  V30 5577 C 515.516 -1.237 -3.38187 0
M  V30 5578 C 515.369 -2.77078 -3.54327 0
M  V30 5579 C 516.688 -0.834014 -4.32125 0
M  V30 5580 H 513.807 -0.277237 -0.682868 0
M  V30 5581 H 516.449 -1.30296 -1.38286 0
M  V30 5582 H 514.599 -0.774337 -3.80705 0
M  V30 5583 H 516.271 -3.31449 -3.20842 0
M  V30 5584 H 514.514 -3.16477 -2.96689 0
M  V30 5585 H 515.185 -3.05577 -4.59703 0
M  V30 5586 H 517.661 -1.23228 -3.97434 0
M  V30 5587 H 516.537 -1.19603 -5.35711 0
M  V30 5588 H 516.798 0.262195 -4.41322 0
M  V30 5589 N 515.857 1.33968 -0.830081 0
M  V30 5590 C 516.787 2.31911 -0.271911 0
M  V30 5591 C 517.768 1.58571 0.61556 0
M  V30 5592 O 518.953 1.86514 0.540946 0
M  V30 5593 C 516.083 3.42737 0.561146 0
M  V30 5594 C 515.037 4.27383 -0.229789 0
M  V30 5595 C 514.363 5.29742 0.726463 0
M  V30 5596 C 515.663 5.02 -1.44197 0
M  V30 5597 H 517.357 2.78844 -1.09025 0
M  V30 5598 H 514.903 1.34061 -0.52571 0
M  V30 5599 H 516.856 4.10276 0.961867 0
M  V30 5600 H 515.58 2.94471 1.41261 0
M  V30 5601 H 514.239 3.61456 -0.611964 0
M  V30 5602 H 513.887 4.77736 1.57408 0
M  V30 5603 H 513.587 5.87255 0.20142 0
M  V30 5604 H 515.111 6.00149 1.12489 0
M  V30 5605 H 516.525 5.62355 -1.11488 0
M  V30 5606 H 514.922 5.69122 -1.90317 0
M  V30 5607 H 515.992 4.31281 -2.2164 0
M  V30 5608 N 517.335 0.585699 1.46312 0
M  V30 5609 C 518.283 -0.158577 2.32059 0
M  V30 5610 C 519.277 -0.881427 1.44662 0
M  V30 5611 O 520.483 -0.799476 1.61271 0
M  V30 5612 H 516.858 -0.0700066 0.748734 0
M  V30 5613 H 518.829 0.583383 2.92642 0
M  V30 5614 C 517.578 -1.15701 3.27885 0
M  V30 5615 H 516.901 -0.610215 3.95116 0
M  V30 5616 H 518.341 -1.64812 3.90657 0
M  V30 5617 C 516.8 -2.21951 2.53455 0
M  V30 5618 O 517.33 -3.29352 2.29978 0
M  V30 5619 N 515.536 -1.9664 2.13965 0
M  V30 5620 H 515.083 -1.09309 2.33258 0
M  V30 5621 H 515.041 -2.6794 1.64485 0
M  V30 5622 N 518.813 -1.54241 0.323641 0
M  V30 5623 C 520.059 -2.00867 -0.279323 0
M  V30 5624 C 520.392 -1.21146 -1.5178 0
M  V30 5625 O 519.667 -0.29378 -1.92269 0
M  V30 5626 C 519.95 -3.54837 -0.613387 0
M  V30 5627 C 519.803 -4.45284 0.635803 0
M  V30 5628 C 521.122 -4.16186 -1.43099 0
M  V30 5629 H 518.241 -0.730177 -0.100049 0
M  V30 5630 H 520.883 -1.84829 0.440235 0
M  V30 5631 H 519.033 -3.68634 -1.22641 0
M  V30 5632 H 520.705 -4.43357 1.27406 0
M  V30 5633 H 518.948 -4.14956 1.26466 0
M  V30 5634 H 519.619 -5.5084 0.357597 0
M  V30 5635 H 522.095 -4.05964 -0.912814 0
M  V30 5636 H 520.971 -5.24031 -1.6335 0
M  V30 5637 H 521.232 -3.69516 -2.42715 0
M  V30 5638 N 520.291 -0.0518155 -1.57515 0
M  V30 5639 C 521.241 0.932017 -2.0808 0
M  V30 5640 C 522.225 1.27141 -0.986098 0
M  V30 5641 O 523.417 1.25373 -1.24943 0
M  V30 5642 C 520.546 2.20665 -2.62986 0
M  V30 5643 C 519.632 1.89462 -3.79427 0
M  V30 5644 N 520.023 1.28621 -4.89173 0
M  V30 5645 C 518.321 2.19327 -3.88345 0
M  V30 5646 C 519.022 1.15062 -5.70207 0
M  V30 5647 N 517.998 1.65372 -5.17835 0
M  V30 5648 H 521.8 0.456964 -2.90326 0
M  V30 5649 H 519.314 0.152619 -1.61681 0
M  V30 5650 H 521.311 2.92044 -2.97516 0
M  V30 5651 H 519.971 2.68776 -1.8218 0
M  V30 5652 H 520.982 0.958341 -5.08956 0
M  V30 5653 H 517.659 2.69955 -3.18482 0
M  V30 5654 H 519.049 0.678243 -6.68468 0
M  V30 5655 N 521.769 1.56035 0.221574 0
M  V30 5656 C 522.719 1.8881 1.27807 0
M  V30 5657 C 523.703 0.751177 1.42289 0
M  V30 5658 O 524.895 1.01359 1.45104 0
M  V30 5659 C 522.024 2.20828 2.6285 0
M  V30 5660 C 521.11 3.40912 2.52269 0
M  V30 5661 N 521.501 4.59531 2.1134 0
M  V30 5662 C 519.799 3.44526 2.83228 0
M  V30 5663 C 520.5 5.41689 2.1201 0
M  V30 5664 N 519.476 4.814 2.52497 0
M  V30 5665 H 523.278 2.78036 0.952529 0
M  V30 5666 H 520.792 1.566 0.430134 0
M  V30 5667 H 522.789 2.42483 3.39127 0
M  V30 5668 H 521.449 1.32914 2.9625 0
M  V30 5669 H 522.46 4.8469 1.82472 0
M  V30 5670 H 519.137 2.66956 3.21 0
M  V30 5671 H 520.527 6.46643 1.82491 0
M  V30 5672 N 523.247 -0.488276 1.49845 0
M  V30 5673 C 524.663 -0.820566 1.3689 0
M  V30 5674 C 524.863 -1.97248 0.411752 0
M  V30 5675 O 523.919 -2.52042 -0.151931 0
M  V30 5676 C 525.232 -1.1488 2.77891 0
M  V30 5677 C 526.78 -1.25626 2.86683 0
M  V30 5678 C 527.255 -1.61772 4.28479 0
M  V30 5679 N 528.746 -1.68797 4.31349 0
M  V30 5680 C 529.481 -1.98235 5.38043 0
M  V30 5681 N 528.977 -2.2581 6.54967 0
M  V30 5682 N 530.77 -1.99593 5.2547 0
M  V30 5683 H 522.921 0.271123 2.10662 0
M  V30 5684 H 525.184 0.058735 0.946179 0
M  V30 5685 H 524.89 -0.375614 3.49688 0
M  V30 5686 H 524.764 -2.08919 3.14058 0
M  V30 5687 H 527.151 -2.02014 2.15114 0
M  V30 5688 H 527.232 -0.296072 2.54081 0
M  V30 5689 H 526.876 -0.859295 5.00578 0
M  V30 5690 H 526.806 -2.58912 4.58554 0
M  V30 5691 H 529.297 -1.49595 3.4703 0
M  V30 5692 H 529.61 -2.47497 7.32096 0
M  V30 5693 H 527.955 -2.23239 6.58171 0
M  V30 5694 H 531.146 -1.77535 4.33127 0
M  V30 5695 H 531.319 -2.222 6.08713 0
M  V30 5696 N 524.725 -1.39134 -0.740242 0
M  V30 5697 C 525.95 -1.39518 -1.53459 0
M  V30 5698 C 526.375 0.00968883 -1.88098 0
M  V30 5699 O 525.733 0.995312 -1.51536 0
M  V30 5700 C 525.781 -2.26981 -2.802 0
M  V30 5701 O 524.885 -1.69609 -3.75908 0
M  V30 5702 H 524.226 -0.475328 -0.463637 0
M  V30 5703 H 526.756 -1.83064 -0.913717 0
M  V30 5704 H 526.766 -2.41309 -3.28989 0
M  V30 5705 H 525.441 -3.29081 -2.5432 0
M  V30 5706 H 524.018 -1.64495 -3.34658 0
M  V30 5707 N 526.204 0.969867 -1.24223 0
M  V30 5708 C 527.615 1.52717 -1.07399 0
M  V30 5709 C 527.966 1.92956 0.355298 0
M  V30 5710 O 527.091 1.77112 1.2434 0
M  V30 5711 C 527.686 2.77521 -1.94339 0
M  V30 5712 C 526.245 3.29615 -1.81744 0
M  V30 5713 C 525.392 2.02537 -1.89405 0
M  V30 5714 H 528.343 0.788399 -1.37732 0
M  V30 5715 H 528.364 3.50773 -1.47439 0
M  V30 5716 H 527.876 2.48203 -2.98357 0
M  V30 5717 H 525.977 3.63789 -0.805505 0
M  V30 5718 H 526.09 3.98661 -2.65718 0
M  V30 5719 H 524.454 2.17151 -1.33108 0
M  V30 5720 H 525.237 1.75587 -2.94999 0
M  V30 5721 N 527.682 1.05563 1.17022 0
M  V30 5722 C 528.907 0.788437 1.91829 0
M  V30 5723 C 529.332 -0.650356 1.76499 0
M  V30 5724 O 528.69 -1.45229 1.08527 0
M  V30 5725 C 528.738 1.1786 3.40795 0
M  V30 5726 O 527.842 0.312965 4.11211 0
M  V30 5727 H 527.183 0.288794 0.597908 0
M  V30 5728 H 529.713 1.40948 1.48307 0
M  V30 5729 H 529.723 1.14697 3.91546 0
M  V30 5730 H 528.398 2.22666 3.51273 0
M  V30 5731 H 526.975 0.405515 3.70689 0
M  V30 5732 N 529.16 -1.33526 0.837174 0
M  V30 5733 C 530.388 -2.02047 0.445494 0
M  V30 5734 C 530.803 -1.62995 -0.952788 0
M  V30 5735 O 530.16 -0.842447 -1.61892 0
M  V30 5736 C 530.211 -3.57221 0.554577 0
M  V30 5737 O 529.932 -3.94863 1.89776 0
M  V30 5738 C 531.433 -4.43012 0.159634 0
M  V30 5739 H 528.653 -0.647221 0.177048 0
M  V30 5740 H 531.197 -1.70492 1.12928 0
M  V30 5741 H 529.352 -3.87315 -0.0812781 0
M  V30 5742 H 529.766 -4.89569 1.88208 0
M  V30 5743 H 531.24 -5.51253 0.28701 0
M  V30 5744 H 531.717 -4.29916 -0.898289 0
M  V30 5745 H 532.323 -4.18274 0.769855 0
M  V30 5746 N 530.638 -0.59345 -1.46 0
M  V30 5747 C 531.588 0.154751 -2.27474 0
M  V30 5748 C 532.572 0.851849 -1.365 0
M  V30 5749 O 533.764 0.744171 -1.60596 0
M  V30 5750 C 530.893 1.16079 -3.2308 0
M  V30 5751 C 529.979 0.465256 -4.2154 0
M  V30 5752 N 530.37 -0.485197 -5.03467 0
M  V30 5753 C 528.668 0.714634 -4.40237 0
M  V30 5754 C 529.369 -0.892709 -5.74809 0
M  V30 5755 N 528.345 -0.239511 -5.43072 0
M  V30 5756 H 532.147 -0.57546 -2.88211 0
M  V30 5757 H 529.661 -0.416046 -1.5698 0
M  V30 5758 H 531.658 1.71108 -3.80168 0
M  V30 5759 H 530.318 1.89171 -2.63903 0
M  V30 5760 H 531.329 -0.861258 -5.10689 0
M  V30 5761 H 528.006 1.43131 -3.92199 0
M  V30 5762 H 529.396 -1.67581 -6.50666 0
M  V30 5763 N 532.116 1.54067 -0.331816 0
M  V30 5764 C 533.344 2.05131 0.269996 0
M  V30 5765 C 533.759 1.20749 1.45138 0
M  V30 5766 O 533.116 0.240069 1.80914 0
M  V30 5767 C 533.167 3.54728 0.696456 0
M  V30 5768 O 532.888 4.35906 -0.43794 0
M  V30 5769 C 534.389 4.21916 1.36021 0
M  V30 5770 H 531.609 0.668807 0.0542042 0
M  V30 5771 H 534.153 1.98777 -0.4804 0
M  V30 5772 H 532.308 3.61342 1.39681 0
M  V30 5773 H 532.722 5.24404 -0.100334 0
M  V30 5774 H 534.196 5.28015 1.60947 0
M  V30 5775 H 534.673 3.73538 2.31011 0
M  V30 5776 H 535.279 4.19463 0.702212 0
M  V30 5777 N 533.594 0.0601682 1.57485 0
M  V30 5778 C 534.527 -0.94676 2.07634 0
M  V30 5779 C 535.505 -1.29837 0.978826 0
M  V30 5780 O 536.689 -1.40969 1.2514 0
M  V30 5781 C 533.816 -2.25822 2.52433 0
M  V30 5782 C 532.862 -2.05901 3.73507 0
M  V30 5783 S 533.695 -1.32907 5.18745 0
M  V30 5784 C 534.851 -2.65356 5.66866 0
M  V30 5785 H 535.084 -0.520003 2.92717 0
M  V30 5786 H 532.617 -0.152319 1.53647 0
M  V30 5787 H 534.575 -3.01201 2.78905 0
M  V30 5788 H 533.236 -2.65624 1.67639 0
M  V30 5789 H 532.429 -3.02929 4.02803 0
M  V30 5790 H 532.031 -1.38659 3.47347 0
M  V30 5791 H 534.323 -3.61492 5.73001 0
M  V30 5792 H 535.266 -2.40685 6.6594 0
M  V30 5793 H 535.674 -2.72028 4.94632 0
M  V30 5794 N 535.072 -1.5615 -0.213296 0
M  V30 5795 C 536.483 -1.69645 -0.779582 0
M  V30 5796 C 536.834 -0.663615 -1.84636 0
M  V30 5797 O 535.959 0.183633 -2.15619 0
M  V30 5798 C 536.554 -3.07567 -1.42084 0
M  V30 5799 C 535.113 -3.22889 -1.93442 0
M  V30 5800 C 534.26 -2.65581 -0.797612 0
M  V30 5801 H 537.211 -1.58696 0.0114951 0
M  V30 5802 H 537.232 -3.03884 -2.28986 0
M  V30 5803 H 536.744 -3.82716 -0.644187 0
M  V30 5804 H 534.845 -2.52623 -2.73884 0
M  V30 5805 H 534.958 -4.30197 -2.10872 0
M  V30 5806 H 533.322 -2.24278 -1.20712 0
M  V30 5807 H 534.105 -3.43284 -0.033494 0
M  V30 5808 N 536.55 0.480323 -1.50102 0
M  V30 5809 C 537.5 1.57685 -1.6468 0
M  V30 5810 C 538.484 1.52878 -0.5017 0
M  V30 5811 O 539.676 1.60058 -0.755668 0
M  V30 5812 C 536.805 2.96185 -1.73578 0
M  V30 5813 C 535.891 3.0591 -2.93734 0
M  V30 5814 N 536.282 2.85471 -4.1754 0
M  V30 5815 C 534.58 3.37036 -2.92101 0
M  V30 5816 C 535.281 2.99921 -4.9842 0
M  V30 5817 N 534.257 3.29715 -4.32191 0
M  V30 5818 H 538.059 1.40568 -2.58104 0
M  V30 5819 H 535.573 0.686874 -1.47159 0
M  V30 5820 H 537.57 3.75015 -1.82124 0
M  V30 5821 H 536.23 3.14356 -0.813057 0
M  V30 5822 H 537.241 2.61235 -4.47188 0
M  V30 5823 H 533.918 3.61253 -2.09291 0
M  V30 5824 H 535.308 2.88436 -6.06839 0
M  V30 5825 N 538.028 1.39524 0.732853 0
M  V30 5826 C 539.274 1.38072 1.49358 0
M  V30 5827 C 539.629 -0.0227943 1.92386 0
M  V30 5828 O 538.922 -0.98976 1.64056 0
M  V30 5829 C 539.116 2.28916 2.74468 0
M  V30 5830 C 538.945 3.7796 2.43673 0
M  V30 5831 C 537.715 4.46874 2.35863 0
M  V30 5832 C 539.913 4.69886 2.09074 0
M  V30 5833 N 537.895 5.81242 1.97561 0
M  V30 5834 C 539.266 5.9292 1.81234 0
M  V30 5835 C 541.321 4.57887 1.95561 0
M  V30 5836 C 540.024 7.05297 1.41242 0
M  V30 5837 C 542.05 5.70187 1.56972 0
M  V30 5838 C 541.412 6.92297 1.30018 0
M  V30 5839 H 537.511 0.56051 0.5453 0
M  V30 5840 H 540.095 1.75093 0.85151 0
M  V30 5841 H 538.266 1.9405 3.36451 0
M  V30 5842 H 539.998 2.18441 3.40684 0
M  V30 5843 H 536.753 4.00341 2.5303 0
M  V30 5844 H 537.177 6.52356 1.80997 0
M  V30 5845 H 541.819 3.64014 2.15067 0
M  V30 5846 H 539.537 7.99069 1.20476 0
M  V30 5847 H 543.123 5.62892 1.47119 0
M  V30 5848 H 542.003 7.7772 1.00605 0
M  V30 5849 N 539.506 -0.963266 1.24736 0
M  V30 5850 C 540.752 -1.70933 1.09131 0
M  V30 5851 C 541.085 -1.90676 -0.368273 0
M  V30 5852 O 540.36 -1.47147 -1.27193 0
M  V30 5853 C 540.643 -3.09744 1.83658 0
M  V30 5854 C 540.496 -2.97465 3.37394 0
M  V30 5855 C 541.815 -4.09483 1.61282 0
M  V30 5856 H 538.934 -0.620398 0.397838 0
M  V30 5857 H 541.576 -1.12028 1.53459 0
M  V30 5858 H 539.726 -3.60031 1.4598 0
M  V30 5859 H 541.398 -2.54571 3.84696 0
M  V30 5860 H 539.641 -2.33576 3.65547 0
M  V30 5861 H 540.312 -3.95822 3.84745 0
M  V30 5862 H 542.788 -3.68073 1.94066 0
M  V30 5863 H 541.664 -5.04666 2.15878 0
M  V30 5864 H 541.925 -4.38639 0.552102 0
M  V30 5865 N 540.985 -1.06182 -1.16461 0
M  V30 5866 C 542.401 -0.785065 -1.38956 0
M  V30 5867 C 542.601 0.616103 -1.9185 0
M  V30 5868 O 541.657 1.37686 -2.11657 0
M  V30 5869 C 542.97 -1.84902 -2.37132 0
M  V30 5870 C 544.518 -1.8724 -2.50819 0
M  V30 5871 C 544.993 -2.92686 -3.52277 0
M  V30 5872 N 546.484 -2.91712 -3.59803 0
M  V30 5873 C 547.219 -3.69949 -4.38093 0
M  V30 5874 N 546.715 -4.58 -5.19815 0
M  V30 5875 N 548.508 -3.58346 -4.33064 0
M  V30 5876 H 540.659 -1.96569 -0.804634 0
M  V30 5877 H 542.922 -0.851747 -0.416211 0
M  V30 5878 H 542.628 -2.85518 -2.0536 0
M  V30 5879 H 542.502 -1.69908 -3.36766 0
M  V30 5880 H 544.889 -0.872827 -2.81897 0
M  V30 5881 H 544.97 -2.06311 -1.51226 0
M  V30 5882 H 544.614 -3.92835 -3.21937 0
M  V30 5883 H 544.544 -2.70864 -4.51598 0
M  V30 5884 H 547.035 -2.27876 -3.01464 0
M  V30 5885 H 547.348 -5.14357 -5.76764 0
M  V30 5886 H 545.693 -4.62056 -5.19162 0
M  V30 5887 H 548.884 -2.88943 -3.68279 0
M  V30 5888 H 549.057 -4.19563 -4.93833 0
M  V30 5889 N 542.463 1.3308 -0.844243 0
M  V30 5890 C 543.711 1.97215 -0.441676 0
M  V30 5891 C 544.032 1.67185 1.0037 0
M  V30 5892 O 543.302 0.973588 1.69994 0
M  V30 5893 H 541.882 0.72959 -0.160335 0
M  V30 5894 H 544.544 1.62348 -1.07838 0
M  V30 5895 H 543.64 3.06698 -0.57815 0
M  V30 5896 N 543.941 0.601185 1.45683 0
M  V30 5897 C 544.904 -0.111398 2.28929 0
M  V30 5898 C 545.904 -0.801246 1.39416 0
M  V30 5899 O 547.094 -0.650383 1.61603 0
M  V30 5900 C 544.226 -1.16773 3.20276 0
M  V30 5901 H 545.419 0.620412 2.93413 0
M  V30 5902 H 542.972 0.359946 1.52099 0
M  V30 5903 H 543.707 -1.93051 2.60579 0
M  V30 5904 H 543.492 -0.677358 3.86205 0
M  V30 5905 H 544.982 -1.66698 3.82886 0
M  V30 5906 N 545.419 -1.53889 0.339982 0
M  V30 5907 C 546.349 -2.27843 -0.510856 0
M  V30 5908 C 547.33 -1.29267 -1.10563 0
M  V30 5909 O 548.515 -1.58104 -1.12768 0
M  V30 5910 C 545.645 -3.04857 -1.66372 0
M  V30 5911 C 544.599 -4.10907 -1.19746 0
M  V30 5912 C 543.925 -4.75855 -2.43857 0
M  V30 5913 C 545.225 -5.21435 -0.300501 0
M  V30 5914 H 546.919 -2.99212 0.106067 0
M  V30 5915 H 544.465 -1.43904 0.0524533 0
M  V30 5916 H 546.418 -3.5533 -2.26537 0
M  V30 5917 H 545.142 -2.31133 -2.30749 0
M  V30 5918 H 543.801 -3.61342 -0.618654 0
M  V30 5919 H 543.449 -3.9873 -3.06633 0
M  V30 5920 H 543.149 -5.47502 -2.13343 0
M  V30 5921 H 544.673 -5.2911 -3.04754 0
M  V30 5922 H 546.087 -5.67565 -0.80889 0
M  V30 5923 H 544.484 -6.00036 -0.0874076 0
M  V30 5924 H 545.554 -4.80328 0.664321 0
M  V30 5925 N 546.897 -0.0685191 -1.57451 0
M  V30 5926 C 547.827 0.89747 -2.15564 0
M  V30 5927 C 548.808 1.31266 -1.08181 0
M  V30 5928 O 549.993 1.38429 -1.36202 0
M  V30 5929 C 547.123 2.16623 -2.71463 0
M  V30 5930 C 546.077 1.89054 -3.83982 0
M  V30 5931 C 545.403 3.22532 -4.26471 0
M  V30 5932 C 546.703 1.1984 -5.08366 0
M  V30 5933 H 548.397 0.413373 -2.96533 0
M  V30 5934 H 545.943 0.197391 -1.42641 0
M  V30 5935 H 547.896 2.84614 -3.10761 0
M  V30 5936 H 546.62 2.67269 -1.8771 0
M  V30 5937 H 545.279 1.23469 -3.45183 0
M  V30 5938 H 544.927 3.71013 -3.39644 0
M  V30 5939 H 544.627 3.04879 -5.02317 0
M  V30 5940 H 546.151 3.91727 -4.68383 0
M  V30 5941 H 547.565 1.77896 -5.45001 0
M  V30 5942 H 545.962 1.12456 -5.89469 0
M  V30 5943 H 547.032 0.176996 -4.84577 0
M  V30 5944 N 548.375 1.56261 0.205012 0
M  V30 5945 C 549.623 1.79684 0.925096 0
M  V30 5946 C 549.944 0.63989 1.84202 0
M  V30 5947 O 549.214 -0.342345 1.92885 0
M  V30 5948 H 547.794 0.662774 0.344587 0
M  V30 5949 H 550.456 1.93734 0.212899 0
M  V30 5950 H 549.552 2.72467 1.52211 0
M  V30 5951 N 549.853 -0.472356 1.50355 0
M  V30 5952 C 551.093 -1.23439 1.62918 0
M  V30 5953 C 551.457 -1.89284 0.321801 0
M  V30 5954 O 552.658 -2.66854 0.322852 0
M  V30 5955 C 550.929 -2.25119 2.7759 0
M  V30 5956 S 552.488 -3.10278 3.10279 0
M  V30 5957 H 549.306 -0.41911 0.574341 0
M  V30 5958 H 551.908 -0.531621 1.88133 0
M  V30 5959 H 550.612 -1.75324 3.71066 0
M  V30 5960 H 550.143 -3.00026 2.54457 0
M  V30 5961 H 552.158 -4.26257 2.54007 0
M  V30 5962 N 551.331 -1.39911 -0.725443 0
M  V30 5963 C 552.577 -1.37858 -1.48738 0
M  V30 5964 C 552.91 0.0224187 -1.94187 0
M  V30 5965 O 552.185 0.989204 -1.67466 0
M  V30 5966 C 552.468 -2.3594 -2.72038 0
M  V30 5967 C 552.321 -3.85023 -2.32546 0
M  V30 5968 C 553.64 -2.31704 -3.74167 0
M  V30 5969 H 550.759 -0.502074 -0.539528 0
M  V30 5970 H 553.401 -1.70974 -0.828728 0
M  V30 5971 H 551.551 -2.0783 -3.28236 0
M  V30 5972 H 553.223 -4.2392 -1.81905 0
M  V30 5973 H 551.466 -4.01334 -1.64661 0
M  V30 5974 H 552.137 -4.49152 -3.20884 0
M  V30 5975 H 554.613 -2.5658 -3.27576 0
M  V30 5976 H 553.489 -3.02395 -4.58092 0
M  V30 5977 H 553.75 -1.3253 -4.21768 0
M  V30 5978 N 552.809 0.956637 -1.25245 0
M  V30 5979 C 554.22 1.51569 -1.09012 0
M  V30 5980 C 554.571 1.93322 0.334813 0
M  V30 5981 O 553.696 1.78421 1.22454 0
M  V30 5982 C 554.291 2.75444 -1.97271 0
M  V30 5983 C 552.85 3.27669 -1.8523 0
M  V30 5984 C 551.997 2.00517 -1.91542 0
M  V30 5985 H 554.948 0.773746 -1.3856 0
M  V30 5986 H 554.969 3.4919 -1.51151 0
M  V30 5987 H 554.481 2.45024 -3.00973 0
M  V30 5988 H 552.582 3.62914 -0.844045 0
M  V30 5989 H 552.695 3.9582 -2.69932 0
M  V30 5990 H 551.059 2.15727 -1.35404 0
M  V30 5991 H 551.842 1.72448 -2.96844 0
M  V30 5992 N 554.287 1.06798 1.15896 0
M  V30 5993 C 555.703 0.792423 1.38538 0
M  V30 5994 C 555.903 -0.60592 1.92174 0
M  V30 5995 O 554.959 -1.36561 2.12385 0
M  V30 5996 C 556.272 1.86157 2.36149 0
M  V30 5997 C 557.82 1.88567 2.49823 0
M  V30 5998 C 558.295 2.9455 3.5072 0
M  V30 5999 N 559.786 2.93616 3.58251 0
M  V30 6000 C 560.521 3.72267 4.36125 0
M  V30 6001 N 560.017 4.60751 5.17379 0
M  V30 6002 N 561.81 3.60637 4.31158 0
M  V30 6003 H 553.961 1.96993 0.794198 0
M  V30 6004 H 556.224 0.853942 0.411688 0
M  V30 6005 H 555.93 2.86603 2.03843 0
M  V30 6006 H 555.804 1.71692 3.3586 0
M  V30 6007 H 558.191 0.887765 2.8143 0
M  V30 6008 H 558.272 2.0711 1.5013 0
M  V30 6009 H 557.916 3.94537 3.19849 0
M  V30 6010 H 557.846 2.73255 4.50155 0
M  V30 6011 H 560.337 2.29472 3.00252 0
M  V30 6012 H 560.65 5.17408 5.74028 0
M  V30 6013 H 558.995 4.64803 5.16704 0
M  V30 6014 H 562.186 2.90892 3.66742 0
M  V30 6015 H 562.359 4.22176 4.91601 0
M  V30 6016 N 555.766 -1.3263 0.851289 0
M  V30 6017 C 557.012 -1.98061 0.462963 0
M  V30 6018 C 557.367 -1.66162 -0.969948 0
M  V30 6019 O 556.66 -0.937723 -1.67085 0
M  V30 6020 C 556.854 -3.51713 0.635015 0
M  V30 6021 C 556.683 -3.98544 2.0831 0
M  V30 6022 C 555.453 -4.25787 2.72091 0
M  V30 6023 C 557.651 -4.13858 3.0533 0
M  V30 6024 N 555.633 -4.58842 4.07845 0
M  V30 6025 C 557.004 -4.50412 4.26063 0
M  V30 6026 C 559.059 -3.96182 3.0157 0
M  V30 6027 C 557.762 -4.71136 5.43529 0
M  V30 6028 C 559.788 -4.18088 4.18278 0
M  V30 6029 C 559.15 -4.54956 5.37768 0
M  V30 6030 H 555.249 -0.750976 0.218082 0
M  V30 6031 H 557.833 -1.60514 1.10197 0
M  V30 6032 H 556.004 -3.88391 0.0257298 0
M  V30 6033 H 557.736 -4.04118 0.216915 0
M  V30 6034 H 554.491 -4.17734 2.23149 0
M  V30 6035 H 554.915 -4.7956 4.77862 0
M  V30 6036 H 559.557 -3.66783 2.1031 0
M  V30 6037 H 557.275 -4.9939 6.35323 0
M  V30 6038 H 560.861 -4.05918 4.168 0
M  V30 6039 H 559.741 -4.71567 6.26573 0
M  V30 6040 N 557.244 -0.608902 -1.45362 0
M  V30 6041 C 558.174 0.0964526 -2.33301 0
M  V30 6042 C 559.155 0.857444 -1.46908 0
M  V30 6043 O 560.34 0.827735 -1.75676 0
M  V30 6044 C 557.47 1.09354 -3.29635 0
M  V30 6045 C 556.424 0.445676 -4.25673 0
M  V30 6046 C 555.75 1.5511 -5.11708 0
M  V30 6047 C 557.05 -0.633972 -5.18438 0
M  V30 6048 H 558.744 -0.637829 -2.92527 0
M  V30 6049 H 556.29 -0.308178 -1.40664 0
M  V30 6050 H 558.243 1.59556 -3.90025 0
M  V30 6051 H 556.967 1.85843 -2.6857 0
M  V30 6052 H 555.626 -0.0354897 -3.66583 0
M  V30 6053 H 555.274 2.30631 -4.4701 0
M  V30 6054 H 554.974 1.12311 -5.76767 0
M  V30 6055 H 556.498 2.05537 -5.74967 0
M  V30 6056 H 557.912 -0.215974 -5.72893 0
M  V30 6057 H 556.309 -0.983789 -5.91981 0
M  V30 6058 H 557.379 -1.51005 -4.60788 0
M  V30 6059 N 558.722 1.53707 -0.348139 0
M  V30 6060 C 559.652 2.28111 0.498766 0
M  V30 6061 C 560.633 1.29851 1.09876 0
M  V30 6062 O 561.818 1.587 1.11928 0
M  V30 6063 C 558.948 3.05735 1.64753 0
M  V30 6064 C 557.902 4.11537 1.17565 0
M  V30 6065 C 557.228 4.77142 2.4133 0
M  V30 6066 C 558.528 5.21587 0.272844 0
M  V30 6067 H 560.222 2.99152 -0.121934 0
M  V30 6068 H 557.768 1.43875 -0.0600842 0
M  V30 6069 H 559.721 3.56526 2.24649 0
M  V30 6070 H 558.445 2.32354 2.2952 0
M  V30 6071 H 557.104 3.61665 0.599483 0
M  V30 6072 H 556.752 4.0035 3.04514 0
M  V30 6073 H 556.452 5.48626 2.10436 0
M  V30 6074 H 557.976 5.30719 3.01943 0
M  V30 6075 H 559.39 5.67986 0.778779 0
M  V30 6076 H 557.787 6.00074 0.0555849 0
M  V30 6077 H 558.857 4.79969 -0.689785 0
M  V30 6078 N 560.2 0.0768682 1.57412 0
M  V30 6079 C 561.133 -0.924685 2.08626 0
M  V30 6080 C 562.111 -1.28792 0.992542 0
M  V30 6081 O 563.295 -1.39634 1.26628 0
M  V30 6082 C 560.422 -2.23131 2.54814 0
M  V30 6083 C 559.468 -2.01928 3.75669 0
M  V30 6084 S 560.301 -1.27397 5.20125 0
M  V30 6085 C 561.457 -2.59329 5.69648 0
M  V30 6086 H 561.69 -0.488928 2.93252 0
M  V30 6087 H 559.223 -0.136014 1.538 0
M  V30 6088 H 561.181 -2.98226 2.82084 0
M  V30 6089 H 559.842 -2.63831 1.70447 0
M  V30 6090 H 559.035 -2.98639 4.05993 0
M  V30 6091 H 558.637 -1.34967 3.48798 0
M  V30 6092 H 560.929 -3.55394 5.76803 0
M  V30 6093 H 561.872 -2.33608 6.68456 0
M  V30 6094 H 562.28 -2.66767 4.9749 0
M  V30 6095 N 561.678 -1.56367 -0.196722 0
M  V30 6096 C 562.626 -1.95304 -1.2633 0
M  V30 6097 C 563.62 -0.838252 -1.47206 0
M  V30 6098 O 564.826 -1.02325 -1.48087 0
M  V30 6099 H 561.201 -0.621013 -0.424083 0
M  V30 6100 H 563.172 -2.84254 -0.907879 0
M  V30 6101 C 561.921 -2.3074 -2.60104 0
M  V30 6102 H 561.244 -3.16047 -2.44856 0
M  V30 6103 H 562.684 -2.61849 -3.33484 0
M  V30 6104 C 561.143 -1.14143 -3.16975 0
M  V30 6105 O 561.673 -0.415602 -3.99544 0
M  V30 6106 N 559.879 -0.91867 -2.75697 0
M  V30 6107 H 559.426 -1.51065 -2.08656 0
M  V30 6108 H 559.384 -0.140321 -3.14087 0
M  V30 6109 N 563.156 0.464375 -1.50603 0
M  V30 6110 C 564.572 0.798684 -1.38178 0
M  V30 6111 C 564.772 1.96568 -0.44308 0
M  V30 6112 O 563.828 2.52252 0.111814 0
M  V30 6113 C 565.141 1.10444 -2.79683 0
M  V30 6114 C 566.689 1.2105 -2.88645 0
M  V30 6115 C 567.164 1.54934 -4.30998 0
M  V30 6116 N 568.655 1.61913 -4.3398 0
M  V30 6117 C 569.39 1.8965 -5.41129 0
M  V30 6118 N 568.886 2.15361 -6.58477 0
M  V30 6119 N 570.679 1.91207 -5.28579 0
M  V30 6120 H 562.83 -0.304603 -2.10204 0
M  V30 6121 H 565.093 -0.0737804 -0.945125 0
M  V30 6122 H 564.799 0.319934 -3.50242 0
M  V30 6123 H 564.673 2.03896 -3.17342 0
M  V30 6124 H 567.06 1.98567 -2.18301 0
M  V30 6125 H 567.141 0.255613 -2.5452 0
M  V30 6126 H 566.785 0.779549 -5.01882 0
M  V30 6127 H 566.715 2.51584 -4.62615 0
M  V30 6128 H 569.206 1.44055 -3.49366 0
M  V30 6129 H 569.519 2.35818 -7.35941 0
M  V30 6130 H 567.864 2.1274 -6.6164 0
M  V30 6131 H 571.055 1.70622 -4.35897 0
M  V30 6132 H 571.228 2.12488 -6.12171 0
M  V30 6133 N 564.634 1.40294 0.718013 0
M  V30 6134 C 566.045 1.34289 1.29705 0
M  V30 6135 C 566.396 0.0152228 1.96194 0
M  V30 6136 O 565.521 -0.88682 1.97394 0
M  V30 6137 C 566.116 2.43219 2.3586 0
M  V30 6138 C 564.675 2.40682 2.89394 0
M  V30 6139 C 563.822 2.24223 1.63154 0
M  V30 6140 H 566.773 1.50135 0.514312 0
M  V30 6141 H 566.794 2.10986 3.16647 0
M  V30 6142 H 566.306 3.39836 1.87439 0
M  V30 6143 H 564.407 1.47756 3.42051 0
M  V30 6144 H 564.52 3.36177 3.41353 0
M  V30 6145 H 562.884 1.71696 1.88129 0
M  V30 6146 H 563.667 3.22834 1.16761 0
M  V30 6147 N 566.112 -0.949982 1.2575 0
M  V30 6148 C 567.523 -1.50989 1.09815 0
M  V30 6149 C 567.874 -1.93497 -0.324556 0
M  V30 6150 O 566.999 -1.79068 -1.21506 0
M  V30 6151 C 567.594 -2.74394 1.98729 0
M  V30 6152 C 566.153 -3.26682 1.86965 0
M  V30 6153 C 565.3 -1.99498 1.92603 0
M  V30 6154 H 568.251 -0.766387 1.38968 0
M  V30 6155 H 568.272 -3.48383 1.53001 0
M  V30 6156 H 567.784 -2.43425 3.02268 0
M  V30 6157 H 565.885 -3.62461 0.863279 0
M  V30 6158 H 565.998 -3.94383 2.72027 0
M  V30 6159 H 564.362 -2.15005 1.36546 0
M  V30 6160 H 565.145 -1.70871 2.97755 0
M  V30 6161 N 567.59 -1.07411 -1.15328 0
M  V30 6162 C 569.001 -0.820261 -1.67716 0
M  V30 6163 C 569.352 0.654539 -1.8496 0
M  V30 6164 O 568.477 1.50664 -1.55337 0
M  V30 6165 C 569.072 -1.48242 -3.04647 0
M  V30 6166 C 567.631 -1.27606 -3.5411 0
M  V30 6167 C 566.778 -1.5517 -2.29821 0
M  V30 6168 H 569.729 -1.23608 -0.995332 0
M  V30 6169 H 569.75 -0.903984 -3.69606 0
M  V30 6170 H 569.262 -2.55578 -2.92064 0
M  V30 6171 H 567.363 -0.222948 -3.71932 0
M  V30 6172 H 567.476 -1.99667 -4.35511 0
M  V30 6173 H 565.84 -0.972747 -2.35393 0
M  V30 6174 H 566.623 -2.63689 -2.19824 0
M  V30 6175 N 569.068 1.32177 -0.85831 0
M  V30 6176 C 570.479 1.79381 -0.517621 0
M  V30 6177 C 570.83 1.70841 0.964769 0
M  V30 6178 O 569.955 1.26917 1.75274 0
M  V30 6179 C 570.55 3.25706 -0.932801 0
M  V30 6180 C 569.109 3.70851 -0.643953 0
M  V30 6181 C 568.256 2.53208 -1.13054 0
M  V30 6182 H 571.207 1.19424 -1.04516 0
M  V30 6183 H 571.228 3.79673 -0.250674 0
M  V30 6184 H 570.74 3.31889 -2.01174 0
M  V30 6185 H 568.841 3.70178 0.424112 0
M  V30 6186 H 568.954 4.63495 -1.21281 0
M  V30 6187 H 567.318 2.48676 -0.550679 0
M  V30 6188 H 568.101 2.62143 -2.21666 0
M  V30 6189 N 570.547 0.616602 1.45037 0
M  V30 6190 C 571.793 0.115501 2.02471 0
M  V30 6191 C 572.126 -1.25406 1.4828 0
M  V30 6192 O 571.401 -1.82922 0.661051 0
M  V30 6193 C 571.684 0.0863588 3.59996 0
M  V30 6194 C 571.537 1.48723 4.24501 0
M  V30 6195 C 572.856 -0.596762 4.36035 0
M  V30 6196 H 569.975 0.0434461 0.735718 0
M  V30 6197 H 572.617 0.7903 1.72784 0
M  V30 6198 H 570.767 -0.488277 3.85419 0
M  V30 6199 H 572.439 2.10964 4.10234 0
M  V30 6200 H 570.682 2.04534 3.82555 0
M  V30 6201 H 571.353 1.419 5.3345 0
M  V30 6202 H 573.829 -0.10824 4.15959 0
M  V30 6203 H 572.705 -0.586289 5.4576 0
M  V30 6204 H 572.966 -1.66451 4.09569 0
M  V30 6205 N 572.025 -1.5352 0.356285 0
M  V30 6206 C 572.935 -2.29151 -0.502712 0
M  V30 6207 C 573.951 -1.34753 -1.1008 0
M  V30 6208 O 575.127 -1.67803 -1.11374 0
M  V30 6209 C 572.192 -3.05911 -1.63154 0
M  V30 6210 C 571.253 -4.15958 -1.06194 0
M  V30 6211 C 570.486 -4.8905 -2.13696 0
M  V30 6212 O 570.709 -4.61919 -3.34645 0
M  V30 6213 O 569.643 -5.75202 -1.77275 0
M  V30 6214 H 573.469 -3.03492 0.112466 0
M  V30 6215 H 571.054 -1.4891 0.120942 0
M  V30 6216 H 572.936 -3.53874 -2.28804 0
M  V30 6217 H 571.611 -2.34415 -2.23229 0
M  V30 6218 H 570.518 -3.7227 -0.369603 0
M  V30 6219 H 571.851 -4.89593 -0.505872 0
M  V30 6220 N 573.503 -0.0852151 -1.57369 0
M  V30 6221 C 574.433 0.874556 -2.16503 0
M  V30 6222 C 575.414 1.30111 -1.09568 0
M  V30 6223 O 576.599 1.36977 -1.37662 0
M  V30 6224 C 573.729 2.13731 -2.73745 0
M  V30 6225 C 572.683 1.84971 -3.85966 0
M  V30 6226 C 572.009 3.17991 -4.29867 0
M  V30 6227 C 573.309 1.14442 -5.09608 0
M  V30 6228 H 575.003 0.381899 -2.96954 0
M  V30 6229 H 572.549 0.18225 -1.42842 0
M  V30 6230 H 574.502 2.81302 -3.13763 0
M  V30 6231 H 573.226 2.65263 -1.90534 0
M  V30 6232 H 571.885 1.19801 -3.46473 0
M  V30 6233 H 571.533 3.6739 -3.4356 0
M  V30 6234 H 571.233 2.99534 -5.05523 0
M  V30 6235 H 572.757 3.86737 -4.72511 0
M  V30 6236 H 574.171 1.72105 -5.46857 0
M  V30 6237 H 572.568 1.06197 -5.90629 0
M  V30 6238 H 573.638 0.12559 -4.84737 0
M  V30 6239 N 574.981 1.5647 0.188427 0
M  V30 6240 C 576.221 1.82803 0.914469 0
M  V30 6241 C 576.585 0.663681 1.80165 0
M  V30 6242 O 577.786 0.807059 2.56398 0
M  V30 6243 C 576.057 3.14187 1.70357 0
M  V30 6244 S 577.616 3.61947 2.48072 0
M  V30 6245 H 574.434 0.641497 0.306599 0
M  V30 6246 H 577.036 1.94694 0.177361 0
M  V30 6247 H 575.74 3.96937 1.04255 0
M  V30 6248 H 575.271 3.05192 2.48237 0
M  V30 6249 H 577.286 3.27913 3.72407 0
M  V30 6250 N 576.459 -0.456382 1.50847 0
M  V30 6251 C 577.409 -1.55045 1.67168 0
M  V30 6252 C 578.393 -1.52061 0.525958 0
M  V30 6253 O 579.585 -1.58836 0.781036 0
M  V30 6254 C 576.714 -2.93386 1.78268 0
M  V30 6255 C 575.8 -3.01198 2.98564 0
M  V30 6256 N 576.191 -2.78792 4.22029 0
M  V30 6257 C 574.489 -3.32346 2.97426 0
M  V30 6258 C 575.19 -2.91953 5.03128 0
M  V30 6259 N 574.166 -3.22797 4.37382 0
M  V30 6260 H 577.968 -1.36444 2.60308 0
M  V30 6261 H 575.482 -0.663375 1.48233 0
M  V30 6262 H 577.479 -3.72071 1.88067 0
M  V30 6263 H 576.139 -3.13022 0.862965 0
M  V30 6264 H 577.15 -2.54087 4.51287 0
M  V30 6265 H 573.827 -3.57877 2.15012 0
M  V30 6266 H 575.217 -2.78745 6.11351 0
M  V30 6267 N 577.937 -1.40673 -0.710563 0
M  V30 6268 C 579.348 -1.34975 -1.28991 0
M  V30 6269 C 579.699 -0.0256272 -1.96183 0
M  V30 6270 O 578.824 0.876339 -1.97862 0
M  V30 6271 C 579.419 -2.44467 -2.34567 0
M  V30 6272 C 577.978 -2.42213 -2.88114 0
M  V30 6273 C 577.125 -2.25085 -1.61963 0
M  V30 6274 H 580.076 -1.50406 -0.506343 0
M  V30 6275 H 580.097 -2.12663 -3.15523 0
M  V30 6276 H 579.609 -3.40825 -1.85634 0
M  V30 6277 H 577.71 -1.49568 -3.41263 0
M  V30 6278 H 577.823 -3.37983 -3.39565 0
M  V30 6279 H 576.187 -1.72691 -1.87216 0
M  V30 6280 H 576.97 -3.23449 -1.15047 0
M  V30 6281 N 579.415 0.9433 -1.26252 0
M  V30 6282 C 580.345 2.05902 -1.10122 0
M  V30 6283 C 581.326 1.70099 -0.00700552 0
M  V30 6284 O 582.511 1.93377 -0.178641 0
M  V30 6285 C 579.641 3.39516 -0.731175 0
M  V30 6286 C 578.595 3.89372 -1.77688 0
M  V30 6287 C 577.921 5.19613 -1.26122 0
M  V30 6288 C 579.221 4.14489 -3.17799 0
M  V30 6289 H 580.915 2.19655 -2.03451 0
M  V30 6290 H 578.461 1.05548 -0.979576 0
M  V30 6291 H 580.414 4.17031 -0.605215 0
M  V30 6292 H 579.138 3.25733 0.23782 0
M  V30 6293 H 577.797 3.14036 -1.89148 0
M  V30 6294 H 577.445 5.02208 -0.282128 0
M  V30 6295 H 577.145 5.53939 -1.96023 0
M  V30 6296 H 578.669 5.99713 -1.14789 0
M  V30 6297 H 580.083 4.82625 -3.09428 0
M  V30 6298 H 578.48 4.60094 -3.85271 0
M  V30 6299 H 579.55 3.20347 -3.64014 0
M  V30 6300 N 580.893 1.08022 1.14757 0
M  V30 6301 C 582.309 0.807072 1.3769 0
M  V30 6302 C 582.509 -0.585504 1.92806 0
M  V30 6303 O 581.565 -1.34301 2.13821 0
M  V30 6304 C 582.878 1.88651 2.34161 0
M  V30 6305 C 584.426 1.91206 2.47809 0
M  V30 6306 C 584.901 2.98253 3.47576 0
M  V30 6307 N 586.392 2.974 3.55117 0
M  V30 6308 C 587.127 3.76872 4.32152 0
M  V30 6309 N 586.623 4.66212 5.12463 0
M  V30 6310 N 588.416 3.6519 4.27309 0
M  V30 6311 H 580.567 1.97824 0.77326 0
M  V30 6312 H 582.83 0.85826 0.402608 0
M  V30 6313 H 582.536 2.88749 2.00791 0
M  V30 6314 H 582.41 1.75244 3.3402 0
M  V30 6315 H 584.797 0.917564 2.80472 0
M  V30 6316 H 584.878 2.08691 1.47925 0
M  V30 6317 H 584.522 3.97907 3.15646 0
M  V30 6318 H 584.452 2.78014 4.47231 0
M  V30 6319 H 586.943 2.32643 2.97801 0
M  V30 6320 H 587.256 5.23468 5.68508 0
M  V30 6321 H 585.601 4.70257 5.11745 0
M  V30 6322 H 588.792 2.94765 3.63636 0
M  V30 6323 H 588.965 4.27366 4.87095 0
M  V30 6324 N 582.371 -1.3172 0.865308 0
M  V30 6325 C 583.301 -2.31109 0.333302 0
M  V30 6326 C 584.282 -1.60148 -0.573301 0
M  V30 6327 O 585.467 -1.87882 -0.491305 0
M  V30 6328 C 582.597 -3.44104 -0.470078 0
M  V30 6329 C 581.551 -4.26623 0.343021 0
M  V30 6330 C 580.877 -5.31482 -0.585756 0
M  V30 6331 C 582.177 -4.98001 1.57456 0
M  V30 6332 H 583.871 -2.75855 1.1638 0
M  V30 6333 H 581.417 -1.3262 0.561069 0
M  V30 6334 H 583.37 -4.12682 -0.852752 0
M  V30 6335 H 582.094 -2.98112 -1.33404 0
M  V30 6336 H 580.753 -3.59707 0.707583 0
M  V30 6337 H 580.401 -4.81741 -1.44686 0
M  V30 6338 H 580.101 -5.87582 -0.0456494 0
M  V30 6339 H 581.625 -6.0292 -0.965375 0
M  V30 6340 H 583.039 -5.59201 1.26359 0
M  V30 6341 H 581.436 -5.63876 2.05339 0
M  V30 6342 H 582.506 -4.25253 2.32997 0
M  V30 6343 N 583.85 -0.624285 -1.44708 0
M  V30 6344 C 584.797 0.0847135 -2.30644 0
M  V30 6345 C 585.767 0.843575 -1.43084 0
M  V30 6346 O 586.952 0.825982 -1.71995 0
M  V30 6347 C 584.091 1.06495 -3.28257 0
M  V30 6348 C 583.205 0.305224 -4.3092 0
M  V30 6349 C 582.34 1.27667 -5.1563 0
M  V30 6350 C 581.379 0.505706 -6.10007 0
M  V30 6351 N 580.516 1.42727 -6.8744 0
M  V30 6352 H 585.356 -0.654068 -2.90733 0
M  V30 6353 H 582.893 -0.334334 -1.4325 0
M  V30 6354 H 584.851 1.64658 -3.83332 0
M  V30 6355 H 583.481 1.77094 -2.69884 0
M  V30 6356 H 582.533 -0.392207 -3.78373 0
M  V30 6357 H 583.845 -0.295553 -4.97924 0
M  V30 6358 H 582.999 1.92984 -5.75189 0
M  V30 6359 H 581.738 1.91137 -4.48685 0
M  V30 6360 H 580.743 -0.160999 -5.49564 0
M  V30 6361 H 581.968 -0.124183 -6.78986 0
M  V30 6362 H 579.913 2.04931 -6.23169 0
M  V30 6363 H 579.831 0.880345 -7.50857 0
M  V30 6364 H 581.099 2.0695 -7.51526 0
M  V30 6365 N 585.328 1.53329 -0.364422 0
M  V30 6366 C 586.258 2.28627 0.474543 0
M  V30 6367 C 587.239 1.31009 1.08492 0
M  V30 6368 O 588.424 1.59878 1.10239 0
M  V30 6369 C 585.554 3.07465 1.61501 0
M  V30 6370 C 584.508 4.1276 1.13194 0
M  V30 6371 C 583.834 4.79674 2.36255 0
M  V30 6372 C 585.134 5.21847 0.217507 0
M  V30 6373 H 586.828 2.99005 -0.153656 0
M  V30 6374 H 584.374 1.43803 -0.0753406 0
M  V30 6375 H 586.327 3.58889 2.20855 0
M  V30 6376 H 585.051 2.34775 2.27042 0
M  V30 6377 H 583.71 3.62281 0.56109 0
M  V30 6378 H 583.358 4.03557 3.00251 0
M  V30 6379 H 583.058 5.50827 2.04606 0
M  V30 6380 H 584.582 5.33892 2.96297 0
M  V30 6381 H 585.996 5.6878 0.718493 0
M  V30 6382 H 584.393 6.00099 -0.00806408 0
M  V30 6383 H 585.463 4.7921 -0.740653 0
M  V30 6384 N 586.806 0.0935595 1.57322 0
M  V30 6385 C 588.031 -0.582324 1.99057 0
M  V30 6386 C 588.456 -1.61025 0.972242 0
M  V30 6387 O 587.814 -1.81202 -0.0594622 0
M  V30 6388 C 587.862 -1.20799 3.39765 0
M  V30 6389 O 586.966 -2.32382 3.40694 0
M  V30 6390 H 586.307 -0.147884 0.647323 0
M  V30 6391 H 588.837 0.174516 2.03854 0
M  V30 6392 H 588.847 -1.54966 3.77425 0
M  V30 6393 H 587.522 -0.454914 4.13405 0
M  V30 6394 H 586.099 -1.99845 3.14827 0
M  V30 6395 N 588.284 -1.56567 -0.180126 0
M  V30 6396 C 589.695 -1.7126 -0.743422 0
M  V30 6397 C 590.046 -0.70263 -1.83187 0
M  V30 6398 O 589.171 0.137856 -2.1596 0
M  V30 6399 C 589.766 -3.10512 -1.35528 0
M  V30 6400 C 588.325 -3.26919 -1.8655 0
M  V30 6401 C 587.472 -2.67213 -0.741099 0
M  V30 6402 H 590.423 -1.58636 0.0451543 0
M  V30 6403 H 590.444 -3.08673 -2.22489 0
M  V30 6404 H 589.956 -3.83997 -0.562862 0
M  V30 6405 H 588.057 -2.58376 -2.68464 0
M  V30 6406 H 588.17 -4.34574 -2.01699 0
M  V30 6407 H 586.534 -2.26788 -1.15927 0
M  V30 6408 H 587.317 -3.43277 0.0393291 0
M  V30 6409 N 589.762 0.448376 -1.51087 0
M  V30 6410 C 590.987 1.22605 -1.6728 0
M  V30 6411 C 591.412 1.84524 -0.365045 0
M  V30 6412 O 590.77 1.6832 0.673642 0
M  V30 6413 C 590.818 2.29393 -2.78229 0
M  V30 6414 O 589.922 3.34608 -2.41063 0
M  V30 6415 H 589.263 0.359705 -0.558129 0
M  V30 6416 H 591.793 0.530903 -1.97592 0
M  V30 6417 H 591.803 2.74352 -3.01986 0
M  V30 6418 H 590.478 1.83701 -3.73131 0
M  V30 6419 H 589.055 2.95202 -2.27838 0
M  V30 6420 N 591.24 1.41047 0.703093 0
M  V30 6421 C 592.47 1.43133 1.48985 0
M  V30 6422 C 592.878 0.0328537 1.89171 0
M  V30 6423 O 592.221 -0.956469 1.56835 0
M  V30 6424 C 592.283 2.26991 2.78775 0
M  V30 6425 C 591.947 3.7525 2.60837 0
M  V30 6426 C 592.944 4.67591 2.27276 0
M  V30 6427 C 590.629 4.19208 2.76712 0
M  V30 6428 C 592.623 6.01877 2.09817 0
M  V30 6429 C 590.31 5.53561 2.5887 0
M  V30 6430 C 591.308 6.4471 2.25472 0
M  V30 6431 O 590.996 7.76584 2.07778 0
M  V30 6432 H 590.728 0.489788 0.465922 0
M  V30 6433 H 593.282 1.85886 0.873822 0
M  V30 6434 H 591.512 1.79038 3.42757 0
M  V30 6435 H 593.201 2.20867 3.40547 0
M  V30 6436 H 593.967 4.34923 2.14633 0
M  V30 6437 H 589.846 3.48572 3.01693 0
M  V30 6438 H 593.39 6.72986 1.83671 0
M  V30 6439 H 589.287 5.85811 2.71102 0
M  V30 6440 H 590.055 7.87649 2.22601 0
M  V30 6441 N 592.718 -0.936591 1.26751 0
M  V30 6442 C 593.668 -2.0219 1.05371 0
M  V30 6443 C 594.652 -1.60893 -0.0154112 0
M  V30 6444 O 595.844 -1.75843 0.202085 0
M  V30 6445 C 592.973 -3.36222 0.693541 0
M  V30 6446 C 592.059 -3.8399 1.80035 0
M  V30 6447 N 592.45 -4.0436 3.03852 0
M  V30 6448 C 590.748 -4.12945 1.685 0
M  V30 6449 C 591.449 -4.44 3.75818 0
M  V30 6450 N 590.425 -4.50966 3.03531 0
M  V30 6451 H 594.227 -2.15958 1.99347 0
M  V30 6452 H 591.741 -1.12277 1.17335 0
M  V30 6453 H 593.738 -4.13625 0.521513 0
M  V30 6454 H 592.398 -3.23821 -0.238693 0
M  V30 6455 H 593.409 -3.9092 3.39709 0
M  V30 6456 H 590.086 -4.09308 0.822986 0
M  V30 6457 H 591.476 -4.67914 4.82189 0
M  V30 6458 N 594.196 -1.08629 -1.14182 0
M  V30 6459 C 595.442 -0.828415 -1.85766 0
M  V30 6460 C 595.797 0.638947 -1.81481 0
M  V30 6461 O 595.09 1.46386 -1.23619 0
M  V30 6462 C 595.284 -1.28734 -3.3341 0
M  V30 6463 C 595.113 -2.79778 -3.52071 0
M  V30 6464 C 593.883 -3.47554 -3.66789 0
M  V30 6465 C 596.081 -3.77945 -3.48801 0
M  V30 6466 N 594.063 -4.87107 -3.73631 0
M  V30 6467 C 595.434 -5.03406 -3.61914 0
M  V30 6468 C 597.489 -3.70917 -3.32152 0
M  V30 6469 C 596.192 -6.22673 -3.60098 0
M  V30 6470 C 598.218 -4.89662 -3.31641 0
M  V30 6471 C 597.58 -6.13962 -3.45296 0
M  V30 6472 H 593.679 -0.355884 -0.696327 0
M  V30 6473 H 596.263 -1.38508 -1.36834 0
M  V30 6474 H 594.434 -0.75822 -3.80927 0
M  V30 6475 H 596.166 -0.975649 -3.92764 0
M  V30 6476 H 592.921 -2.97972 -3.68116 0
M  V30 6477 H 593.345 -5.59775 -3.80763 0
M  V30 6478 H 597.987 -2.75749 -3.20504 0
M  V30 6479 H 595.705 -7.1815 -3.70522 0
M  V30 6480 H 599.291 -4.85914 -3.19968 0
M  V30 6481 H 598.171 -7.04307 -3.44851 0
M  V30 6482 N 595.674 1.31259 -0.872281 0
M  V30 6483 C 596.604 2.30929 -0.345554 0
M  V30 6484 C 597.585 1.60449 0.5648 0
M  V30 6485 O 598.77 1.8814 0.481335 0
M  V30 6486 C 595.9 3.44348 0.451823 0
M  V30 6487 C 594.854 4.26435 -0.365641 0
M  V30 6488 C 594.18 5.31785 0.557562 0
M  V30 6489 C 595.48 4.97159 -1.60095 0
M  V30 6490 H 597.174 2.75234 -1.17841 0
M  V30 6491 H 594.72 1.3232 -0.568094 0
M  V30 6492 H 596.673 4.13128 0.830854 0
M  V30 6493 H 595.397 2.98816 1.31821 0
M  V30 6494 H 594.056 3.59326 -0.726649 0
M  V30 6495 H 593.704 4.82502 1.4213 0
M  V30 6496 H 593.404 5.87598 0.0144878 0
M  V30 6497 H 594.928 6.03424 0.933387 0
M  V30 6498 H 596.342 5.58523 -1.29323 0
M  V30 6499 H 594.739 5.62779 -2.08327 0
M  V30 6500 H 595.809 4.24012 -2.35249 0
M  V30 6501 N 597.152 0.631951 1.44375 0
M  V30 6502 C 598.062 -0.073674 2.34484 0
M  V30 6503 C 599.078 -0.834825 1.52665 0
M  V30 6504 O 600.254 -0.786902 1.85391 0
M  V30 6505 C 597.319 -1.04247 3.30656 0
M  V30 6506 C 596.38 -0.280602 4.28382 0
M  V30 6507 C 595.613 -1.20325 5.19959 0
M  V30 6508 O 595.836 -2.44199 5.15484 0
M  V30 6509 O 594.77 -0.687128 5.97965 0
M  V30 6510 H 598.596 0.667477 2.96274 0
M  V30 6511 H 596.181 0.392144 1.44162 0
M  V30 6512 H 598.063 -1.59981 3.89851 0
M  V30 6513 H 596.738 -1.76422 2.71398 0
M  V30 6514 H 595.645 0.319804 3.72731 0
M  V30 6515 H 596.978 0.401144 4.90563 0
M  V30 6516 N 598.631 -1.53133 0.372548 0
M  V30 6517 C 599.856 -2.0625 -0.218098 0
M  V30 6518 C 600.281 -1.24375 -1.41111 0
M  V30 6519 O 599.639 -0.264554 -1.79359 0
M  V30 6520 C 599.687 -3.55858 -0.582876 0
M  V30 6521 O 598.791 -3.76667 -1.67917 0
M  V30 6522 H 598.132 -0.663317 -0.030104 0
M  V30 6523 H 600.662 -1.97477 0.535169 0
M  V30 6524 H 600.672 -3.99007 -0.851925 0
M  V30 6525 H 599.347 -4.14892 0.289428 0
M  V30 6526 H 597.924 -3.45413 -1.40513 0
M  V30 6527 N 600.109 -0.101901 -1.5727 0
M  V30 6528 C 601.057 0.872034 -2.15635 0
M  V30 6529 C 602.051 1.28742 -1.10099 0
M  V30 6530 O 603.257 1.26116 -1.28432 0
M  V30 6531 H 599.632 0.299269 -0.689886 0
M  V30 6532 H 601.603 0.355137 -2.96279 0
M  V30 6533 C 600.352 2.11886 -2.7568 0
M  V30 6534 H 599.675 1.80813 -3.56576 0
M  V30 6535 H 601.115 2.78077 -3.20077 0
M  V30 6536 C 599.574 2.89739 -1.7191 0
M  V30 6537 O 600.104 3.84522 -1.16213 0
M  V30 6538 N 598.31 2.53407 -1.42245 0
M  V30 6539 H 597.857 1.76398 -1.87727 0
M  V30 6540 H 597.815 3.05795 -0.730529 0
M  V30 6541 N 601.587 1.56661 0.17182 0
M  V30 6542 C 602.833 1.82235 0.889845 0
M  V30 6543 C 603.166 0.679673 1.81918 0
M  V30 6544 O 602.441 -0.318404 1.91876 0
M  V30 6545 C 602.724 3.18195 1.68595 0
M  V30 6546 C 602.577 4.42989 0.779773 0
M  V30 6547 C 603.896 3.5109 2.65375 0
M  V30 6548 H 601.015 0.66291 0.322056 0
M  V30 6549 H 603.657 1.89358 0.15608 0
M  V30 6550 H 601.807 3.12253 2.3115 0
M  V30 6551 H 603.479 4.60997 0.16714 0
M  V30 6552 H 601.722 4.33711 0.0877964 0
M  V30 6553 H 602.393 5.3467 1.3723 0
M  V30 6554 H 604.869 3.57482 2.12946 0
M  V30 6555 H 603.745 4.47298 3.18144 0
M  V30 6556 H 604.006 2.75768 3.45549 0
M  V30 6557 N 603.065 -0.440357 1.51323 0
M  V30 6558 C 604.342 -1.20109 1.5438 0
M  V30 6559 C 604.722 -2.08866 0.306303 0
M  V30 6560 O 604.07 -2.1723 -0.708773 0
M  V30 6561 C 604.28 -2.00555 2.8562 0
M  V30 6562 C 605.628 -2.577 3.37455 0
M  V30 6563 O 606.652 -2.10769 2.8715 0
M  V30 6564 O 605.511 -3.43289 4.25224 0
M  V30 6565 H 602.605 -0.546668 0.620551 0
M  V30 6566 H 605.151 -0.449672 1.63634 0
M  V30 6567 H 603.923 -1.35346 3.67147 0
M  V30 6568 H 603.546 -2.82768 2.79514 0
M  V30 6569 N 604.543 -1.41418 -0.695603 0
M  V30 6570 C 605.506 -1.42988 -1.79129 0
M  V30 6571 C 606.506 -0.320514 -1.57573 0
M  V30 6572 O 607.696 -0.58039 -1.64247 0
M  V30 6573 C 604.828 -1.24122 -3.175 0
M  V30 6574 H 606.021 -2.40526 -1.7913 0
M  V30 6575 H 603.574 -1.2756 -0.903225 0
M  V30 6576 H 604.309 -0.274253 -3.23138 0
M  V30 6577 H 604.094 -2.045 -3.34547 0
M  V30 6578 H 605.584 -1.28056 -3.97481 0
M  V30 6579 N 606.021 0.929856 -1.27246 0
M  V30 6580 C 606.931 2.0636 -1.11592 0
M  V30 6581 C 607.947 1.73938 -0.046496 0
M  V30 6582 O 609.123 1.9981 -0.252544 0
M  V30 6583 C 606.188 3.38213 -0.762437 0
M  V30 6584 C 605.249 3.84346 -1.9125 0
M  V30 6585 C 604.482 5.09906 -1.57579 0
M  V30 6586 O 604.705 5.68354 -0.482694 0
M  V30 6587 O 603.639 5.51359 -2.41426 0
M  V30 6588 H 607.465 2.22478 -2.0673 0
M  V30 6589 H 605.05 1.04865 -1.06413 0
M  V30 6590 H 606.932 4.1741 -0.57854 0
M  V30 6591 H 605.607 3.23307 0.159439 0
M  V30 6592 H 604.514 3.06045 -2.15144 0
M  V30 6593 H 605.847 4.0379 -2.81451 0
M  V30 6594 N 607.499 1.09233 1.13605 0
M  V30 6595 C 608.409 0.741939 2.22559 0
M  V30 6596 C 609.425 -0.255236 1.72118 0
M  V30 6597 O 610.601 -0.0970747 2.01166 0
M  V30 6598 C 607.666 0.165595 3.46304 0
M  V30 6599 C 606.727 1.21846 4.11645 0
M  V30 6600 C 605.96 0.669526 5.29484 0
M  V30 6601 O 606.183 -0.508228 5.68131 0
M  V30 6602 O 605.117 1.42361 5.84822 0
M  V30 6603 H 608.943 1.65107 2.54899 0
M  V30 6604 H 606.528 0.866584 1.21699 0
M  V30 6605 H 608.41 -0.152592 4.21124 0
M  V30 6606 H 607.085 -0.716573 3.15669 0
M  V30 6607 H 605.992 1.58931 3.38662 0
M  V30 6608 H 607.325 2.07321 4.46407 0
M  V30 6609 N 608.977 -1.30795 0.87923 0
M  V30 6610 C 610.393 -1.48981 0.57243 0
M  V30 6611 C 610.593 -1.80719 -0.891236 0
M  V30 6612 O 609.649 -1.89136 -1.67283 0
M  V30 6613 C 610.962 -2.61721 1.48063 0
M  V30 6614 C 612.51 -2.75603 1.48365 0
M  V30 6615 C 612.985 -3.91449 2.37763 0
M  V30 6616 N 614.476 -3.98751 2.35695 0
M  V30 6617 C 615.211 -4.87684 3.01583 0
M  V30 6618 N 614.707 -5.81454 3.76674 0
M  V30 6619 N 616.5 -4.81005 2.90844 0
M  V30 6620 H 608.651 -1.08465 1.82617 0
M  V30 6621 H 610.914 -0.536813 0.781368 0
M  V30 6622 H 610.62 -2.45073 2.52254 0
M  V30 6623 H 610.494 -3.58071 1.18596 0
M  V30 6624 H 612.881 -2.9166 0.44927 0
M  V30 6625 H 612.962 -1.79891 1.81859 0
M  V30 6626 H 612.606 -3.76149 3.41283 0
M  V30 6627 H 612.536 -4.86487 2.01589 0
M  V30 6628 H 615.027 -3.31668 1.81121 0
M  V30 6629 H 615.34 -6.46063 4.24054 0
M  V30 6630 H 613.685 -5.81403 3.80782 0
M  V30 6631 H 616.876 -4.06728 2.31711 0
M  V30 6632 H 617.049 -5.50107 3.42471 0
M  V30 6633 N 610.455 -0.639598 -1.44038 0
M  V30 6634 C 611.365 0.0612377 -2.3452 0
M  V30 6635 C 612.381 0.826717 -1.53106 0
M  V30 6636 O 613.557 0.777059 -1.85806 0
M  V30 6637 C 610.622 1.02492 -3.31204 0
M  V30 6638 C 609.683 0.25788 -4.28525 0
M  V30 6639 C 608.916 1.17566 -5.2059 0
M  V30 6640 O 609.139 2.41461 -5.16771 0
M  V30 6641 O 608.073 0.655407 -5.98321 0
M  V30 6642 H 611.899 -0.68318 -2.95916 0
M  V30 6643 H 609.484 -0.399784 -1.43952 0
M  V30 6644 H 611.366 1.57911 -3.90694 0
M  V30 6645 H 610.041 1.7498 -2.7233 0
M  V30 6646 H 608.948 -0.339566 -3.72556 0
M  V30 6647 H 610.281 -0.427154 -4.90343 0
M  V30 6648 N 611.933 1.52934 -0.380664 0
M  V30 6649 C 613.179 2.01765 0.20458 0
M  V30 6650 C 613.512 1.26696 1.47179 0
M  V30 6651 O 612.787 0.364936 1.91046 0
M  V30 6652 C 613.07 3.56869 0.481269 0
M  V30 6653 C 612.923 4.42617 -0.800629 0
M  V30 6654 C 614.242 4.2121 1.27554 0
M  V30 6655 H 611.361 0.733388 0.0728803 0
M  V30 6656 H 614.003 1.83068 -0.50853 0
M  V30 6657 H 612.153 3.72932 1.08875 0
M  V30 6658 H 613.825 4.38323 -1.43773 0
M  V30 6659 H 612.068 4.09977 -1.4178 0
M  V30 6660 H 612.739 5.49134 -0.561791 0
M  V30 6661 H 615.215 4.09072 0.761514 0
M  V30 6662 H 614.091 5.29732 1.43788 0
M  V30 6663 H 614.352 3.78269 2.28833 0
M  V30 6664 N 613.412 0.11024 1.57214 0
M  V30 6665 C 614.658 -0.550684 1.9518 0
M  V30 6666 C 614.991 -1.66885 0.993122 0
M  V30 6667 O 614.266 -1.94479 0.0287907 0
M  V30 6668 C 614.549 -1.09163 3.43155 0
M  V30 6669 C 614.402 0.0225198 4.49794 0
M  V30 6670 C 615.721 -1.98527 3.92778 0
M  V30 6671 H 612.84 -0.198706 0.709708 0
M  V30 6672 H 615.482 0.184024 1.89107 0
M  V30 6673 H 613.632 -1.71775 3.48462 0
M  V30 6674 H 615.304 0.657443 4.56591 0
M  V30 6675 H 613.547 0.686868 4.28328 0
M  V30 6676 H 614.218 -0.39706 5.5057 0
M  V30 6677 H 616.694 -1.458 3.8972 0
M  V30 6678 H 615.57 -2.33298 4.96853 0
M  V30 6679 H 615.831 -2.90846 3.32958 0
M  V30 6680 N 614.89 -1.56749 -0.16351 0
M  V30 6681 C 616.136 -1.82704 -0.880168 0
M  V30 6682 C 616.469 -0.689311 -1.81555 0
M  V30 6683 O 615.744 0.308224 -1.92042 0
M  V30 6684 C 616.027 -3.19084 -1.66905 0
M  V30 6685 C 615.88 -4.43397 -0.756269 0
M  V30 6686 C 617.199 -3.52493 -2.63509 0
M  V30 6687 H 614.318 -0.664608 -0.318535 0
M  V30 6688 H 616.96 -1.89438 -0.146036 0
M  V30 6689 H 615.11 -3.13475 -2.2949 0
M  V30 6690 H 616.782 -4.61079 -0.14269 0
M  V30 6691 H 615.025 -4.33752 -0.0647944 0
M  V30 6692 H 615.696 -5.3539 -1.34393 0
M  V30 6693 H 618.172 -3.58606 -2.11047 0
M  V30 6694 H 617.048 -4.48979 -3.15767 0
M  V30 6695 H 617.309 -2.77597 -3.44082 0
M  V30 6696 N 616.368 0.432326 -1.51554 0
M  V30 6697 C 617.278 1.55023 -1.76082 0
M  V30 6698 C 618.294 1.61593 -0.645265 0
M  V30 6699 O 619.47 1.78742 -0.928086 0
M  V30 6700 C 616.535 2.90964 -1.88523 0
M  V30 6701 C 615.596 2.9447 -3.12388 0
M  V30 6702 C 614.829 4.23926 -3.24225 0
M  V30 6703 O 615.052 5.16576 -2.4188 0
M  V30 6704 O 613.986 4.33818 -4.17235 0
M  V30 6705 H 617.812 1.37238 -2.70923 0
M  V30 6706 H 615.397 0.615845 -1.36117 0
M  V30 6707 H 617.279 3.71633 -1.98662 0
M  V30 6708 H 615.954 3.08865 -0.9687 0
M  V30 6709 H 614.861 2.12737 -3.07723 0
M  V30 6710 H 616.194 2.81514 -4.03746 0
M  V30 6711 N 617.846 1.41785 0.688094 0
M  V30 6712 C 618.756 1.46596 1.83158 0
M  V30 6713 C 619.772 0.355862 1.70322 0
M  V30 6714 O 620.948 0.604737 1.92106 0
M  V30 6715 C 618.013 1.35322 3.192 0
M  V30 6716 C 617.074 2.56711 3.4409 0
M  V30 6717 C 616.307 2.45965 4.73642 0
M  V30 6718 O 616.53 1.48827 5.50642 0
M  V30 6719 O 615.464 3.35859 4.99482 0
M  V30 6720 H 619.29 2.43083 1.82056 0
M  V30 6721 H 616.875 1.23404 0.842126 0
M  V30 6722 H 618.757 1.31347 4.00407 0
M  V30 6723 H 617.432 0.419536 3.2097 0
M  V30 6724 H 616.339 2.66262 2.62784 0
M  V30 6725 H 617.672 3.48933 3.47141 0
M  V30 6726 N 619.324 -0.923095 1.27737 0
M  V30 6727 C 620.234 -2.05765 1.12685 0
M  V30 6728 C 621.25 -1.73911 0.0557197 0
M  V30 6729 O 622.426 -1.99674 0.263137 0
M  V30 6730 C 619.491 -3.37804 0.780363 0
M  V30 6731 C 618.552 -3.83326 1.93286 0
M  V30 6732 C 617.785 -5.09064 1.60281 0
M  V30 6733 O 618.008 -5.6809 0.512828 0
M  V30 6734 O 616.942 -5.50071 2.44347 0
M  V30 6735 H 620.768 -2.21378 2.07907 0
M  V30 6736 H 618.353 -1.04299 1.06968 0
M  V30 6737 H 620.235 -4.17097 0.600668 0
M  V30 6738 H 618.91 -3.23387 -0.142291 0
M  V30 6739 H 617.817 -3.049 2.16764 0
M  V30 6740 H 619.15 -4.02292 2.83588 0
M  V30 6741 N 620.802 -1.09834 -1.13024 0
M  V30 6742 C 622.079 -0.749225 -1.80682 0
M  V30 6743 C 622.459 0.765171 -1.96744 0
M  V30 6744 O 621.807 1.68912 -1.53886 0
M  V30 6745 C 622.017 -1.49311 -3.15448 0
M  V30 6746 C 623.365 -1.66162 -3.90737 0
M  V30 6747 O 624.389 -1.45597 -3.25085 0
M  V30 6748 O 623.248 -2.00211 -5.08505 0
M  V30 6749 H 620.342 -0.269614 -0.781817 0
M  V30 6750 H 622.888 -1.20078 -1.19914 0
M  V30 6751 H 621.66 -2.52407 -2.99009 0
M  V30 6752 H 621.283 -1.034 -3.8392 0
M  V30 6753 N 622.28 1.30327 -0.886154 0
M  V30 6754 C 623.696 1.48676 -0.580323 0
M  V30 6755 C 623.896 1.81189 0.881639 0
M  V30 6756 O 622.952 1.90021 1.66278 0
M  V30 6757 C 624.265 2.60932 -1.49449 0
M  V30 6758 C 625.813 2.74812 -1.49824 0
M  V30 6759 C 626.288 3.90183 -2.39836 0
M  V30 6760 N 627.779 3.97495 -2.37806 0
M  V30 6761 C 628.514 4.86078 -3.04165 0
M  V30 6762 N 628.01 5.79448 -3.79753 0
M  V30 6763 N 629.803 4.79456 -2.93391 0
M  V30 6764 H 621.954 1.07495 -1.8319 0
M  V30 6765 H 624.217 0.532661 -0.784204 0
M  V30 6766 H 623.923 2.43731 -2.5355 0
M  V30 6767 H 623.797 3.57437 -1.20494 0
M  V30 6768 H 626.184 2.91418 -0.464731 0
M  V30 6769 H 626.265 1.78924 -1.82811 0
M  V30 6770 H 625.909 3.74334 -3.43273 0
M  V30 6771 H 625.839 4.85411 -2.04166 0
M  V30 6772 H 628.33 3.30703 -1.82877 0
M  V30 6773 H 628.643 6.43805 -4.27475 0
M  V30 6774 H 626.988 5.79376 -3.8386 0
M  V30 6775 H 630.179 4.05494 -2.33864 0
M  V30 6776 H 630.352 5.48283 -3.45383 0
M  V30 6777 N 623.758 0.647228 1.43697 0
M  V30 6778 C 625.004 0.167001 2.02713 0
M  V30 6779 C 625.359 -1.20351 1.50111 0
M  V30 6780 O 624.652 -1.79047 0.682113 0
M  V30 6781 C 624.846 0.111481 3.57226 0
M  V30 6782 C 624.675 1.47507 4.2482 0
M  V30 6783 C 623.445 2.06594 4.61137 0
M  V30 6784 C 625.643 2.41224 4.54219 0
M  V30 6785 N 623.625 3.3602 5.13774 0
M  V30 6786 C 624.996 3.55278 5.08112 0
M  V30 6787 C 627.051 2.40102 4.36183 0
M  V30 6788 C 625.754 4.68426 5.45866 0
M  V30 6789 C 627.78 3.52326 4.74995 0
M  V30 6790 C 627.142 4.65104 5.29015 0
M  V30 6791 H 623.241 0.105402 0.774864 0
M  V30 6792 H 625.825 0.854229 1.7496 0
M  V30 6793 H 623.996 -0.545073 3.84556 0
M  V30 6794 H 625.728 -0.379063 4.02921 0
M  V30 6795 H 622.483 1.59366 4.45981 0
M  V30 6796 H 622.907 4.02233 5.44552 0
M  V30 6797 H 627.549 1.54151 3.93697 0
M  V30 6798 H 625.267 5.55074 5.87298 0
M  V30 6799 H 628.853 3.52652 4.6274 0
M  V30 6800 H 627.733 5.50506 5.58492 0
M  V30 6801 N 625.236 -1.5273 0.388769 0
M  V30 6802 C 626.199 -2.25043 -0.434544 0
M  V30 6803 C 627.199 -1.26661 -0.990644 0
M  V30 6804 O 628.389 -1.50762 -0.872731 0
M  V30 6805 C 625.521 -3.00507 -1.60961 0
M  V30 6806 H 626.714 -2.99242 0.198549 0
M  V30 6807 H 624.267 -1.55664 0.140875 0
M  V30 6808 H 625.002 -2.30607 -2.28015 0
M  V30 6809 H 624.787 -3.72716 -1.21757 0
M  V30 6810 H 626.277 -3.55413 -2.19251 0
M  V30 6811 N 626.714 -0.118576 -1.57153 0
M  V30 6812 C 627.954 0.542618 -1.97066 0
M  V30 6813 C 628.318 1.63874 -1.00046 0
M  V30 6814 O 629.519 2.3588 -1.28895 0
M  V30 6815 C 627.79 1.06196 -3.41258 0
M  V30 6816 S 629.349 1.73174 -4.03183 0
M  V30 6817 H 626.167 0.17638 -0.688775 0
M  V30 6818 H 628.769 -0.203556 -1.94437 0
M  V30 6819 H 627.473 0.253016 -4.09619 0
M  V30 6820 H 627.004 1.84342 -3.47536 0
M  V30 6821 H 629.019 3.01749 -3.93906 0
M  V30 6822 N 628.193 1.56834 0.155195 0
M  V30 6823 C 629.156 1.96748 1.17571 0
M  V30 6824 C 630.156 0.853006 1.3631 0
M  V30 6825 O 631.346 1.11978 1.33441 0
M  V30 6826 C 628.478 2.27631 2.53765 0
M  V30 6827 H 629.671 2.88085 0.833498 0
M  V30 6828 H 627.224 1.51141 0.398242 0
M  V30 6829 H 627.959 1.39059 2.92973 0
M  V30 6830 H 627.744 3.0888 2.41527 0
M  V30 6831 H 629.234 2.59377 3.27282 0
M  V30 6832 N 629.671 -0.424282 1.51781 0
M  V30 6833 C 630.919 -1.17028 1.64769 0
M  V30 6834 C 631.24 -1.91409 0.372523 0
M  V30 6835 O 630.51 -1.86091 -0.612108 0
M  V30 6836 H 629.09 -0.434992 0.607282 0
M  V30 6837 H 631.752 -0.485169 1.88765 0
M  V30 6838 H 630.848 -1.8927 2.4816 0
M  V30 6839 N 631.149 -1.42148 -0.680565 0
M  V30 6840 C 632.099 -1.41634 -1.78672 0
M  V30 6841 C 633.083 -0.288494 -1.58293 0
M  V30 6842 O 634.275 -0.530295 -1.68869 0
M  V30 6843 C 631.404 -1.31558 -3.17092 0
M  V30 6844 C 630.49 -2.49265 -3.43115 0
M  V30 6845 N 630.881 -3.74702 -3.39753 0
M  V30 6846 C 629.179 -2.43401 -3.73727 0
M  V30 6847 C 629.88 -4.52854 -3.651 0
M  V30 6848 N 628.856 -3.83181 -3.85582 0
M  V30 6849 H 632.658 -2.3652 -1.74458 0
M  V30 6850 H 630.172 -1.36415 -0.881171 0
M  V30 6851 H 632.169 -1.29272 -3.96351 0
M  V30 6852 H 630.829 -0.376696 -3.22508 0
M  V30 6853 H 631.84 -4.07378 -3.19787 0
M  V30 6854 H 628.517 -1.58062 -3.86423 0
M  V30 6855 H 629.907 -5.61827 -3.6851 0
M  V30 6856 N 632.627 0.916307 -1.28225 0
M  V30 6857 C 633.873 1.66765 -1.154 0
M  V30 6858 C 634.206 1.91912 0.297251 0
M  V30 6859 O 633.481 1.51766 1.21644 0
M  V30 6860 C 633.764 3.02715 -1.95028 0
M  V30 6861 C 633.617 2.84738 -3.48201 0
M  V30 6862 C 634.936 4.03215 -1.76369 0
M  V30 6863 H 632.055 0.605205 -0.42059 0
M  V30 6864 H 634.697 1.06255 -1.57512 0
M  V30 6865 H 632.847 3.54365 -1.59242 0
M  V30 6866 H 634.519 2.40118 -3.9388 0
M  V30 6867 H 632.762 2.19848 -3.73964 0
M  V30 6868 H 633.433 3.8127 -3.99171 0
M  V30 6869 H 635.909 3.60617 -2.07593 0
M  V30 6870 H 634.785 4.96306 -2.34459 0
M  V30 6871 H 635.046 4.36288 -0.71452 0
M  V30 6872 N 634.105 1.10431 1.1244 0
M  V30 6873 C 635.068 0.756542 2.16354 0
M  V30 6874 C 636.068 -0.21899 1.59302 0
M  V30 6875 O 637.258 0.00415969 1.742 0
M  V30 6876 C 634.39 0.120612 3.40687 0
M  V30 6877 H 635.583 1.67696 2.48632 0
M  V30 6878 H 633.136 0.904832 1.27446 0
M  V30 6879 H 633.871 -0.810536 3.14008 0
M  V30 6880 H 633.656 0.822693 3.83372 0
M  V30 6881 H 635.146 -0.106945 4.17463 0
M  V30 6882 N 635.583 -1.29855 0.893053 0
M  V30 6883 C 636.994 -1.77946 0.564998 0
M  V30 6884 C 637.345 -1.73339 -0.919134 0
M  V30 6885 O 636.47 -1.3152 -1.71847 0
M  V30 6886 C 637.065 -3.23118 1.01883 0
M  V30 6887 C 635.624 -3.69013 0.742051 0
M  V30 6888 C 634.771 -2.50121 1.19727 0
M  V30 6889 H 637.722 -1.16611 1.07646 0
M  V30 6890 H 637.743 -3.78875 0.351249 0
M  V30 6891 H 637.255 -3.26439 2.09903 0
M  V30 6892 H 635.356 -3.71173 -0.325816 0
M  V30 6893 H 635.469 -4.60117 1.33527 0
M  V30 6894 H 633.833 -2.47128 0.616418 0
M  V30 6895 H 634.616 -2.56174 2.28538 0
M  V30 6896 N 637.061 -0.65484 -1.43351 0
M  V30 6897 C 638.286 -0.175046 -2.0666 0
M  V30 6898 C 638.711 1.15104 -1.4877 0
M  V30 6899 O 638.069 1.71144 -0.598279 0
M  V30 6900 C 638.117 -0.0991544 -3.60464 0
M  V30 6901 O 637.221 0.938169 -4.01587 0
M  V30 6902 H 636.562 -0.0956148 -0.65708 0
M  V30 6903 H 639.092 -0.898222 -1.83829 0
M  V30 6904 H 639.102 0.083632 -4.07914 0
M  V30 6905 H 637.777 -1.06719 -4.01975 0
M  V30 6906 H 636.354 0.72804 -3.65724 0
M  V30 6907 N 638.539 1.52521 -0.396863 0
M  V30 6908 C 639.785 2.01971 0.183169 0
M  V30 6909 C 640.118 1.2825 1.45827 0
M  V30 6910 O 639.393 0.385179 1.90648 0
M  V30 6911 C 639.676 3.5736 0.443391 0
M  V30 6912 C 639.529 4.41743 -0.84753 0
M  V30 6913 C 640.848 4.22539 1.2308 0
M  V30 6914 H 637.967 0.734119 0.0650976 0
M  V30 6915 H 640.609 1.82519 -0.527918 0
M  V30 6916 H 638.759 3.74066 1.04914 0
M  V30 6917 H 640.431 4.36773 -1.48414 0
M  V30 6918 H 638.674 4.0845 -1.4612 0
M  V30 6919 H 639.345 5.48507 -0.620003 0
M  V30 6920 H 641.821 4.09857 0.718084 0
M  V30 6921 H 640.697 5.31227 1.38162 0
M  V30 6922 H 640.958 3.80675 2.24808 0
M  V30 6923 N 640.017 0.126909 1.57088 0
M  V30 6924 C 641.265 -0.528123 1.95078 0
M  V30 6925 C 641.586 -1.66708 1.0116 0
M  V30 6926 O 640.856 -1.95777 0.0693527 0
M  V30 6927 H 639.436 -0.198087 0.720257 0
M  V30 6928 H 642.098 0.197703 1.93895 0
M  V30 6929 H 641.194 -0.917507 2.98309 0
M  V30 6930 N 641.495 -1.56914 -0.146875 0
M  V30 6931 C 642.723 -1.87515 -0.874394 0
M  V30 6932 C 643.138 -0.715116 -1.74733 0
M  V30 6933 O 642.495 0.315113 -1.79759 0
M  V30 6934 C 642.546 -3.17362 -1.731 0
M  V30 6935 O 642.267 -4.28897 -0.893245 0
M  V30 6936 C 643.768 -3.61479 -2.56609 0
M  V30 6937 H 640.988 -0.621546 -0.252827 0
M  V30 6938 H 643.532 -2.04023 -0.139627 0
M  V30 6939 H 641.687 -3.02608 -2.41883 0
M  V30 6940 H 642.101 -5.03146 -1.48137 0
M  V30 6941 H 643.575 -4.5517 -3.12289 0
M  V30 6942 H 644.052 -2.86773 -3.32653 0
M  V30 6943 H 644.658 -3.78927 -1.93117 0
M  V30 6944 N 642.974 0.416227 -1.52004 0
M  V30 6945 C 643.904 1.51365 -1.77795 0
M  V30 6946 C 644.885 1.58059 -0.628601 0
M  V30 6947 O 646.07 1.73447 -0.873478 0
M  V30 6948 C 643.2 2.89256 -1.92219 0
M  V30 6949 C 642.154 2.97415 -3.0778 0
M  V30 6950 C 641.48 4.37492 -3.07417 0
M  V30 6951 C 642.78 2.69551 -4.47369 0
M  V30 6952 H 644.474 1.30033 -2.69688 0
M  V30 6953 H 642.02 0.624112 -1.29772 0
M  V30 6954 H 643.973 3.66008 -2.08845 0
M  V30 6955 H 642.697 3.11866 -0.969917 0
M  V30 6956 H 641.356 2.23107 -2.90893 0
M  V30 6957 H 641.004 4.571 -2.09925 0
M  V30 6958 H 640.704 4.43877 -3.85029 0
M  V30 6959 H 642.228 5.16188 -3.26162 0
M  V30 6960 H 643.642 3.36028 -4.64497 0
M  V30 6961 H 642.039 2.87321 -5.26846 0
M  V30 6962 H 643.109 1.65029 -4.55953 0
M  V30 6963 N 644.452 1.42507 0.673017 0
M  V30 6964 C 645.692 1.44559 1.44507 0
M  V30 6965 C 646.056 0.0606206 1.91904 0
M  V30 6966 O 647.257 -0.044139 2.68764 0
M  V30 6967 C 645.528 2.44291 2.60877 0
M  V30 6968 S 647.087 2.65059 3.49699 0
M  V30 6969 H 643.905 0.51181 0.49353 0
M  V30 6970 H 646.507 1.79124 0.783256 0
M  V30 6971 H 645.211 3.43685 2.24297 0
M  V30 6972 H 644.742 2.11157 3.31928 0
M  V30 6973 H 646.757 1.93494 4.56919 0
M  V30 6974 N 645.93 -0.909495 1.28709 0
M  V30 6975 C 647.155 -1.69801 1.1909 0
M  V30 6976 C 647.58 -1.86479 -0.246388 0
M  V30 6977 O 646.938 -1.37802 -1.17815 0
M  V30 6978 C 646.986 -3.06543 1.89904 0
M  V30 6979 O 646.09 -3.94268 1.2094 0
M  V30 6980 H 645.431 -0.519783 0.413185 0
M  V30 6981 H 647.961 -1.13689 1.70106 0
M  V30 6982 H 647.971 -3.56748 1.97977 0
M  V30 6983 H 646.646 -2.93722 2.94449 0
M  V30 6984 H 645.223 -3.52702 1.2106 0
M  V30 6985 N 647.408 -1.11026 -1.11852 0
M  V30 6986 C 648.358 -0.733836 -2.15868 0
M  V30 6987 C 649.342 0.26001 -1.58785 0
M  V30 6988 O 650.534 0.0677901 -1.7687 0
M  V30 6989 C 647.663 -0.173948 -3.42859 0
M  V30 6990 C 646.749 -1.1952 -4.0691 0
M  V30 6991 N 647.14 -2.38797 -4.45881 0
M  V30 6992 C 645.438 -1.03714 -4.33773 0
M  V30 6993 C 646.139 -3.03894 -4.96007 0
M  V30 6994 N 645.115 -2.31389 -4.91894 0
M  V30 6995 H 648.917 -1.64171 -2.43773 0
M  V30 6996 H 646.431 -0.988877 -1.28822 0
M  V30 6997 H 648.428 0.113836 -4.16745 0
M  V30 6998 H 647.088 0.728568 -3.16421 0
M  V30 6999 H 648.099 -2.76281 -4.38051 0
M  V30 7000 H 644.776 -0.190694 -4.17064 0
M  V30 7001 H 646.166 -4.05389 -5.35826 0
M  V30 7002 N 648.886 1.2938 -0.899927 0
M  V30 7003 C 650.134 1.95164 -0.524924 0
M  V30 7004 C 650.455 1.71292 0.931888 0
M  V30 7005 O 649.725 1.04481 1.65712 0
M  V30 7006 H 648.305 0.722133 -0.191135 0
M  V30 7007 H 650.967 1.57628 -1.14627 0
M  V30 7008 H 650.063 3.0397 -0.707711 0
M  V30 7009 N 650.364 0.662433 1.43002 0
M  V30 7010 C 651.314 -0.0460442 2.27954 0
M  V30 7011 C 652.298 -0.785753 1.40409 0
M  V30 7012 O 653.49 -0.666701 1.63964 0
M  V30 7013 C 650.619 -1.00532 3.2825 0
M  V30 7014 C 649.705 -0.263604 4.2328 0
M  V30 7015 N 650.096 0.724855 5.00579 0
M  V30 7016 C 648.394 -0.503778 4.43146 0
M  V30 7017 C 649.095 1.16594 5.69895 0
M  V30 7018 N 648.071 0.498345 5.41311 0
M  V30 7019 H 651.873 0.712314 2.85137 0
M  V30 7020 H 649.387 0.490469 1.54817 0
M  V30 7021 H 651.384 -1.52775 3.87899 0
M  V30 7022 H 650.044 -1.76364 2.72628 0
M  V30 7023 H 651.055 1.10393 5.05998 0
M  V30 7024 H 647.732 -1.24255 3.98581 0
M  V30 7025 H 649.122 1.98434 6.4193 0
M  V30 7026 N 651.842 -1.52309 0.404946 0
M  V30 7027 C 652.772 -2.29805 -0.41376 0
M  V30 7028 C 653.753 -1.3384 -1.0498 0
M  V30 7029 O 654.938 -1.62745 -1.05961 0
M  V30 7030 C 652.068 -3.11639 -1.53292 0
M  V30 7031 C 651.022 -4.15616 -1.02211 0
M  V30 7032 C 650.348 -4.8577 -2.23455 0
M  V30 7033 C 651.648 -5.2224 -0.0790725 0
M  V30 7034 H 653.342 -2.98493 0.232878 0
M  V30 7035 H 650.888 -1.43552 0.113441 0
M  V30 7036 H 652.841 -3.64618 -2.11262 0
M  V30 7037 H 651.565 -2.40712 -2.20738 0
M  V30 7038 H 650.224 -3.63641 -0.46484 0
M  V30 7039 H 649.872 -4.11376 -2.89445 0
M  V30 7040 H 649.572 -5.56058 -1.89929 0
M  V30 7041 H 651.096 -5.4156 -2.82038 0
M  V30 7042 H 652.51 -5.70485 -0.567438 0
M  V30 7043 H 650.907 -5.99867 0.167167 0
M  V30 7044 H 651.977 -4.77078 0.867447 0
M  V30 7045 N 653.32 -0.135238 -1.57019 0
M  V30 7046 C 654.27 0.820408 -2.12728 0
M  V30 7047 C 655.254 1.21735 -1.05211 0
M  V30 7048 O 656.446 1.18574 -1.31413 0
M  V30 7049 C 653.575 2.06414 -2.74314 0
M  V30 7050 C 652.661 1.69083 -3.88937 0
M  V30 7051 N 653.052 1.0251 -4.95303 0
M  V30 7052 C 651.35 1.98434 -3.99425 0
M  V30 7053 C 652.051 0.846749 -5.75504 0
M  V30 7054 N 651.027 1.3769 -5.25873 0
M  V30 7055 H 654.829 0.302426 -2.9234 0
M  V30 7056 H 652.343 0.0667009 -1.62263 0
M  V30 7057 H 654.34 2.75863 -3.12579 0
M  V30 7058 H 653 2.58741 -1.96171 0
M  V30 7059 H 654.011 0.687207 -5.1332 0
M  V30 7060 H 650.688 2.52693 -3.32344 0
M  V30 7061 H 652.078 0.322949 -6.71123 0
M  V30 7062 N 654.798 1.5699 0.138552 0
M  V30 7063 C 656.023 1.88344 0.86841 0
M  V30 7064 C 656.448 0.725159 1.7356 0
M  V30 7065 O 655.806 -0.324992 1.78363 0
M  V30 7066 C 655.854 3.18334 1.69398 0
M  V30 7067 O 654.958 3.02863 2.79907 0
M  V30 7068 H 654.299 0.618577 0.241367 0
M  V30 7069 H 656.829 2.04207 0.126826 0
M  V30 7070 H 656.839 3.50567 2.08726 0
M  V30 7071 H 655.514 4.02238 1.05725 0
M  V30 7072 H 654.091 2.82056 2.43924 0
M  V30 7073 N 656.276 -0.40816 1.52223 0
M  V30 7074 C 657.524 -1.15274 1.66001 0
M  V30 7075 C 657.845 -1.91003 0.392803 0
M  V30 7076 O 657.115 -1.8673 -0.592336 0
M  V30 7077 H 655.695 -0.428526 0.611861 0
M  V30 7078 H 658.357 -0.46512 1.89269 0
M  V30 7079 H 657.453 -1.86628 2.50153 0
M  V30 7080 N 657.755 -1.42862 -0.66545 0
M  V30 7081 C 658.718 -1.46756 -1.76055 0
M  V30 7082 C 659.718 -0.353866 -1.56858 0
M  V30 7083 O 660.908 -0.615099 -1.62979 0
M  V30 7084 C 658.04 -1.30829 -3.14796 0
M  V30 7085 H 659.233 -2.44271 -1.73987 0
M  V30 7086 H 656.786 -1.29447 -0.875965 0
M  V30 7087 H 657.521 -0.342733 -3.22484 0
M  V30 7088 H 657.306 -2.11551 -3.30134 0
M  V30 7089 H 658.796 -1.36458 -3.94676 0
M  V30 7090 N 659.233 0.902656 -1.29189 0
M  V30 7091 C 660.458 1.69167 -1.19989 0
M  V30 7092 C 660.883 1.86607 0.236495 0
M  V30 7093 O 660.241 1.38425 1.17082 0
M  V30 7094 C 660.289 3.05532 -1.91527 0
M  V30 7095 O 659.393 3.93621 -1.2303 0
M  V30 7096 H 658.734 0.517584 -0.415936 0
M  V30 7097 H 661.264 1.12785 -1.70706 0
M  V30 7098 H 661.274 3.55693 -1.99866 0
M  V30 7099 H 659.949 2.92156 -2.96003 0
M  V30 7100 H 658.526 3.52055 -1.22928 0
M  V30 7101 N 660.711 1.11618 1.11262 0
M  V30 7102 C 661.959 0.864469 1.82678 0
M  V30 7103 C 662.28 -0.611564 1.85162 0
M  V30 7104 O 661.55 -1.44429 1.32352 0
M  V30 7105 H 660.13 0.316821 0.676486 0
M  V30 7106 H 662.792 1.40894 1.34666 0
M  V30 7107 H 661.888 1.23832 2.86482 0
M  V30 7108 N 662.189 -1.289 0.906776 0
M  V30 7109 C 663.6 -1.77336 0.58384 0
M  V30 7110 C 663.951 -1.74304 -0.900697 0
M  V30 7111 O 663.076 -1.33335 -1.70443 0
M  V30 7112 C 663.671 -3.22019 1.05304 0
M  V30 7113 C 662.23 -3.68205 0.781148 0
M  V30 7114 C 661.377 -2.48837 1.22373 0
M  V30 7115 H 664.328 -1.15462 1.08877 0
M  V30 7116 H 664.349 -3.78481 0.391414 0
M  V30 7117 H 663.861 -3.24194 2.13353 0
M  V30 7118 H 661.962 -3.71497 -0.28643 0
M  V30 7119 H 662.075 -4.58675 1.384 0
M  V30 7120 H 660.439 -2.46461 0.642594 0
M  V30 7121 H 661.222 -2.53736 2.31242 0
M  V30 7122 N 663.667 -0.670007 -1.42649 0
M  V30 7123 C 664.614 0.0112928 -2.30797 0
M  V30 7124 C 665.584 0.797627 -1.45695 0
M  V30 7125 O 666.769 0.770845 -1.74535 0
M  V30 7126 C 663.909 0.95998 -3.31479 0
M  V30 7127 C 663.022 0.167975 -4.31673 0
M  V30 7128 C 662.157 1.11198 -5.19431 0
M  V30 7129 C 661.196 0.311381 -6.11307 0
M  V30 7130 N 660.333 1.20784 -6.91633 0
M  V30 7131 H 665.173 -0.746231 -2.88505 0
M  V30 7132 H 662.71 -0.379739 -1.42114 0
M  V30 7133 H 664.668 1.52379 -3.88377 0
M  V30 7134 H 663.298 1.68419 -2.75382 0
M  V30 7135 H 662.35 -0.512385 -3.76933 0
M  V30 7136 H 663.662 -0.453814 -4.96731 0
M  V30 7137 H 662.816 1.74587 -5.81037 0
M  V30 7138 H 661.555 1.76766 -4.54538 0
M  V30 7139 H 660.56 -0.335758 -5.48774 0
M  V30 7140 H 661.785 -0.340135 -6.78248 0
M  V30 7141 H 659.731 1.85001 -6.29373 0
M  V30 7142 H 659.648 0.64102 -7.53277 0
M  V30 7143 H 660.916 1.82936 -7.5773 0
M  V30 7144 N 665.145 1.52092 -0.413018 0
M  V30 7145 C 666.108 2.25706 0.398687 0
M  V30 7146 C 667.108 1.28221 0.970368 0
M  V30 7147 O 668.298 1.52131 0.848635 0
M  V30 7148 C 665.43 3.03029 1.5616 0
M  V30 7149 H 666.623 2.98888 -0.246131 0
M  V30 7150 H 664.176 1.5542 -0.165622 0
M  V30 7151 H 664.911 2.34205 2.24317 0
M  V30 7152 H 664.696 3.74606 1.15812 0
M  V30 7153 H 666.186 3.58857 2.13569 0
M  V30 7154 N 666.623 0.143563 1.56945 0
M  V30 7155 C 667.533 -0.810562 2.20152 0
M  V30 7156 C 668.549 -1.27431 1.1848 0
M  V30 7157 O 669.725 -1.33221 1.51044 0
M  V30 7158 C 666.79 -2.03353 2.80799 0
M  V30 7159 C 665.851 -1.61936 3.97587 0
M  V30 7160 C 665.084 -2.78403 4.55332 0
M  V30 7161 O 665.307 -3.94521 4.11958 0
M  V30 7162 O 664.241 -2.54073 5.45647 0
M  V30 7163 H 668.067 -0.30253 3.02189 0
M  V30 7164 H 665.652 -0.0832925 1.49168 0
M  V30 7165 H 667.534 -2.74932 3.19359 0
M  V30 7166 H 666.209 -2.53116 2.01777 0
M  V30 7167 H 665.116 -0.873904 3.6375 0
M  V30 7168 H 666.449 -1.16892 4.78118 0
M  V30 7169 N 668.101 -1.57061 -0.130224 0
M  V30 7170 C 669.064 -1.98593 -1.14426 0
M  V30 7171 C 670.064 -0.874584 -1.34936 0
M  V30 7172 O 671.254 -1.14086 -1.31643 0
M  V30 7173 C 668.386 -2.31639 -2.50112 0
M  V30 7174 H 669.579 -2.89374 -0.787561 0
M  V30 7175 H 667.132 -1.51756 -0.374146 0
M  V30 7176 H 667.867 -1.43703 -2.90723 0
M  V30 7177 H 667.652 -3.12684 -2.36583 0
M  V30 7178 H 669.142 -2.64551 -3.23114 0
M  V30 7179 N 669.579 0.400081 -1.52437 0
M  V30 7180 C 670.509 1.4947 -1.7939 0
M  V30 7181 C 671.49 1.57383 -0.645329 0
M  V30 7182 O 672.675 1.72511 -0.891826 0
M  V30 7183 C 669.805 2.87201 -1.95276 0
M  V30 7184 C 668.759 2.94134 -3.10917 0
M  V30 7185 C 668.085 4.34207 -3.1204 0
M  V30 7186 C 669.385 2.64791 -4.50203 0
M  V30 7187 H 671.079 1.27165 -2.71052 0
M  V30 7188 H 668.625 0.610312 -1.30427 0
M  V30 7189 H 670.578 3.63772 -2.12715 0
M  V30 7190 H 669.302 3.10819 -1.00294 0
M  V30 7191 H 667.961 2.20009 -2.93243 0
M  V30 7192 H 667.609 4.54848 -2.14761 0
M  V30 7193 H 667.309 4.39768 -3.89715 0
M  V30 7194 H 668.833 5.127 -3.31619 0
M  V30 7195 H 670.247 3.31083 -4.68035 0
M  V30 7196 H 668.644 2.81717 -5.29864 0
M  V30 7197 H 669.714 1.60184 -4.57678 0
M  V30 7198 N 671.057 1.43213 0.657864 0
M  V30 7199 C 671.987 1.50815 1.78262 0
M  V30 7200 C 672.968 0.363211 1.66177 0
M  V30 7201 O 674.153 0.579806 1.85343 0
M  V30 7202 C 671.283 1.42625 3.16663 0
M  V30 7203 C 670.237 2.5532 3.43505 0
M  V30 7204 C 669.563 2.32184 4.81658 0
M  V30 7205 C 670.863 3.97583 3.38711 0
M  V30 7206 H 672.557 2.44954 1.72157 0
M  V30 7207 H 670.103 1.17896 0.82683 0
M  V30 7208 H 672.056 1.46548 3.95097 0
M  V30 7209 H 670.78 0.449877 3.23487 0
M  V30 7210 H 669.439 2.50742 2.6744 0
M  V30 7211 H 669.087 1.32801 4.85153 0
M  V30 7212 H 668.787 3.07724 5.00579 0
M  V30 7213 H 670.311 2.37883 5.62356 0
M  V30 7214 H 671.725 4.03673 4.07089 0
M  V30 7215 H 670.122 4.73112 3.69168 0
M  V30 7216 H 671.192 4.23049 2.36976 0
M  V30 7217 N 672.536 -0.895792 1.29666 0
M  V30 7218 C 673.468 -2.00563 1.10937 0
M  V30 7219 C 674.481 -1.62705 0.055734 0
M  V30 7220 O 675.67 -1.7595 0.300656 0
M  V30 7221 C 672.77 -3.32262 0.667448 0
M  V30 7222 C 671.943 -3.98625 1.80047 0
M  V30 7223 C 671.002 -5.08617 1.3489 0
M  V30 7224 O 670.028 -5.30837 2.05429 0
M  V30 7225 N 671.23 -5.80076 0.221937 0
M  V30 7226 H 673.995 -2.17184 2.06522 0
M  V30 7227 H 671.556 -1.06822 1.21658 0
M  V30 7228 H 673.548 -4.03196 0.348586 0
M  V30 7229 H 672.118 -3.11985 -0.196055 0
M  V30 7230 H 671.338 -3.21005 2.28801 0
M  V30 7231 H 672.626 -4.39704 2.56003 0
M  V30 7232 H 672.024 -5.64514 -0.366084 0
M  V30 7233 H 670.581 -6.51789 -0.0375346 0
M  V30 7234 N 674.014 -1.12206 -1.10668 0
M  V30 7235 C 674.924 -0.800686 -2.20513 0
M  V30 7236 C 675.94 0.209512 -1.72734 0
M  V30 7237 O 677.116 0.043705 -2.01353 0
M  V30 7238 C 674.181 -0.257353 -3.45744 0
M  V30 7239 C 673.242 -1.32718 -4.0827 0
M  V30 7240 C 672.475 -0.809674 -5.27522 0
M  V30 7241 O 672.698 0.35742 -5.69279 0
M  V30 7242 O 671.632 -1.57816 -5.80842 0
M  V30 7243 H 675.458 -1.71807 -2.50432 0
M  V30 7244 H 673.043 -0.898546 -1.19359 0
M  V30 7245 H 674.925 0.0408849 -4.2138 0
M  V30 7246 H 673.6 0.632627 -3.17458 0
M  V30 7247 H 672.507 -1.67855 -3.34329 0
M  V30 7248 H 673.84 -2.19083 -4.40753 0
M  V30 7249 N 675.492 1.28418 -0.913599 0
M  V30 7250 C 676.74 1.94596 -0.545594 0
M  V30 7251 C 677.061 1.7227 0.913668 0
M  V30 7252 O 676.331 1.06233 1.64595 0
M  V30 7253 H 674.911 0.720065 -0.198783 0
M  V30 7254 H 677.573 1.56404 -1.16292 0
M  V30 7255 H 676.669 3.03202 -0.739911 0
M  V30 7256 N 676.97 0.677563 1.42291 0
M  V30 7257 C 677.88 0.000962654 2.346 0
M  V30 7258 C 678.896 -0.785833 1.55244 0
M  V30 7259 O 680.072 -0.727523 1.87801 0
M  V30 7260 C 677.137 -0.936746 3.33805 0
M  V30 7261 C 676.198 -0.144173 4.29058 0
M  V30 7262 C 675.431 -1.03722 5.23524 0
M  V30 7263 O 675.654 -2.27675 5.22992 0
M  V30 7264 O 674.588 -0.496542 5.99848 0
M  V30 7265 H 678.414 0.761397 2.94001 0
M  V30 7266 H 675.999 0.43781 1.42841 0
M  V30 7267 H 677.881 -1.47497 3.94744 0
M  V30 7268 H 676.556 -1.67698 2.76874 0
M  V30 7269 H 675.463 0.438224 3.71524 0
M  V30 7270 H 676.796 0.55701 4.89038 0
M  V30 7271 N 678.448 -1.51871 0.421078 0
M  V30 7272 C 679.378 -2.30231 -0.389363 0
M  V30 7273 C 680.359 -1.34946 -1.03555 0
M  V30 7274 O 681.544 -1.63859 -1.04229 0
M  V30 7275 C 678.674 -3.13247 -1.49979 0
M  V30 7276 C 677.628 -4.16677 -0.977966 0
M  V30 7277 C 676.954 -4.88112 -2.1829 0
M  V30 7278 C 678.254 -5.22295 -0.0236775 0
M  V30 7279 H 679.948 -2.98229 0.264524 0
M  V30 7280 H 677.494 -1.43424 0.12866 0
M  V30 7281 H 679.447 -3.66838 -2.07383 0
M  V30 7282 H 678.171 -2.4304 -2.18173 0
M  V30 7283 H 676.83 -3.64114 -0.426245 0
M  V30 7284 H 676.478 -4.14423 -2.85066 0
M  V30 7285 H 676.178 -5.58041 -1.84021 0
M  V30 7286 H 677.702 -5.44521 -2.76278 0
M  V30 7287 H 679.116 -5.71055 -0.506899 0
M  V30 7288 H 677.513 -5.99656 0.230782 0
M  V30 7289 H 678.583 -4.76131 0.917999 0
M  V30 7290 N 679.926 -0.151884 -1.56866 0
M  V30 7291 C 680.856 0.781943 -2.20018 0
M  V30 7292 C 681.837 1.25347 -1.14987 0
M  V30 7293 O 683.022 1.31015 -1.43348 0
M  V30 7294 C 680.152 2.01928 -2.82564 0
M  V30 7295 C 679.106 1.68434 -3.93464 0
M  V30 7296 C 678.432 2.99472 -4.42968 0
M  V30 7297 C 679.732 0.927244 -5.14003 0
M  V30 7298 H 681.426 0.255607 -2.98307 0
M  V30 7299 H 678.972 0.121502 -1.43486 0
M  V30 7300 H 680.925 2.67741 -3.25411 0
M  V30 7301 H 679.649 2.56943 -2.01614 0
M  V30 7302 H 678.308 1.04998 -3.51242 0
M  V30 7303 H 677.956 3.52488 -3.58834 0
M  V30 7304 H 677.656 2.77823 -5.17772 0
M  V30 7305 H 679.18 3.66348 -4.88489 0
M  V30 7306 H 680.594 1.48756 -5.53665 0
M  V30 7307 H 678.991 0.810513 -5.94601 0
M  V30 7308 H 680.061 -0.0801163 -4.84834 0
M  V30 7309 N 681.404 1.57128 0.121893 0
M  V30 7310 C 682.334 2.03165 1.15092 0
M  V30 7311 C 683.315 0.915587 1.43356 0
M  V30 7312 O 684.5 1.1851 1.53847 0
M  V30 7313 C 681.63 2.43352 2.47784 0
M  V30 7314 C 680.584 3.58376 2.33989 0
M  V30 7315 C 679.91 3.84454 3.71617 0
M  V30 7316 C 681.21 4.90199 1.80283 0
M  V30 7317 H 682.904 2.89382 0.768023 0
M  V30 7318 H 680.45 1.39218 0.367998 0
M  V30 7319 H 682.403 2.74163 3.20019 0
M  V30 7320 H 681.127 1.54103 2.87958 0
M  V30 7321 H 679.786 3.2777 1.64202 0
M  V30 7322 H 679.434 2.92414 4.09271 0
M  V30 7323 H 679.134 4.61877 3.6324 0
M  V30 7324 H 680.658 4.17714 4.45362 0
M  V30 7325 H 682.072 5.19565 2.42333 0
M  V30 7326 H 680.469 5.71601 1.82735 0
M  V30 7327 H 681.539 4.78904 0.760184 0
M  V30 7328 N 682.882 -0.391992 1.52647 0
M  V30 7329 C 684.107 -1.16312 1.71716 0
M  V30 7330 C 684.532 -1.83042 0.433279 0
M  V30 7331 O 683.89 -1.70705 -0.610707 0
M  V30 7332 C 683.938 -2.18908 2.86551 0
M  V30 7333 O 683.042 -3.2543 2.53316 0
M  V30 7334 H 682.383 -0.338743 0.571095 0
M  V30 7335 H 684.913 -0.457202 1.99426 0
M  V30 7336 H 684.923 -2.62954 3.1196 0
M  V30 7337 H 683.598 -1.69726 3.79692 0
M  V30 7338 H 682.175 -2.86543 2.38637 0
M  V30 7339 N 684.36 -1.4356 -0.65026 0
M  V30 7340 C 685.771 -1.40324 -1.2315 0
M  V30 7341 C 686.122 -0.108812 -1.95898 0
M  V30 7342 O 685.247 0.79163 -2.01401 0
M  V30 7343 C 685.842 -2.54195 -2.23987 0
M  V30 7344 C 684.401 -2.54215 -2.77582 0
M  V30 7345 C 683.548 -2.31752 -1.5227 0
M  V30 7346 H 686.499 -1.52418 -0.442095 0
M  V30 7347 H 686.52 -2.25854 -3.0622 0
M  V30 7348 H 686.032 -3.48392 -1.71011 0
M  V30 7349 H 684.133 -1.63907 -3.34612 0
M  V30 7350 H 684.246 -3.52081 -3.24925 0
M  V30 7351 H 682.61 -1.80476 -1.79723 0
M  V30 7352 H 683.393 -3.28037 -1.01225 0
M  V30 7353 N 685.838 0.888903 -1.30139 0
M  V30 7354 C 686.788 1.9814 -1.12803 0
M  V30 7355 C 687.772 1.60839 -0.0443137 0
M  V30 7356 O 688.964 1.74971 -0.267208 0
M  V30 7357 C 686.093 3.33416 -0.817849 0
M  V30 7358 C 685.179 3.77043 -1.94163 0
M  V30 7359 N 685.57 3.92805 -3.18651 0
M  V30 7360 C 683.868 4.06407 -1.8371 0
M  V30 7361 C 684.569 4.29746 -3.92038 0
M  V30 7362 N 683.545 4.3939 -3.20059 0
M  V30 7363 H 687.347 2.08411 -2.07225 0
M  V30 7364 H 684.861 1.07845 -1.21421 0
M  V30 7365 H 686.858 4.11405 -0.674668 0
M  V30 7366 H 685.518 3.24484 0.118344 0
M  V30 7367 H 686.529 3.78042 -3.53984 0
M  V30 7368 H 683.206 4.05972 -0.974331 0
M  V30 7369 H 684.596 4.49695 -4.99223 0
M  V30 7370 N 687.317 1.12792 1.10072 0
M  V30 7371 C 688.25 0.742921 2.15768 0
M  V30 7372 C 689.228 -0.267714 1.60381 0
M  V30 7373 O 690.412 -0.160782 1.87813 0
M  V30 7374 C 687.539 0.100244 3.38552 0
M  V30 7375 C 686.585 1.07831 4.12644 0
M  V30 7376 S 687.418 2.60765 4.6772 0
M  V30 7377 C 688.574 1.97838 5.9381 0
M  V30 7378 H 688.807 1.63822 2.48092 0
M  V30 7379 H 686.34 0.947385 1.21918 0
M  V30 7380 H 688.298 -0.264175 4.09649 0
M  V30 7381 H 686.959 -0.772223 3.04459 0
M  V30 7382 H 686.152 0.576325 5.00694 0
M  V30 7383 H 685.754 1.38586 3.47376 0
M  V30 7384 H 688.046 1.32341 6.64449 0
M  V30 7385 H 688.989 2.83943 6.48677 0
M  V30 7386 H 689.397 1.43267 5.46017 0
M  V30 7387 N 688.795 -1.27931 0.920396 0
M  V30 7388 C 689.727 -2.26175 0.371169 0
M  V30 7389 C 690.74 -1.55122 -0.494065 0
M  V30 7390 O 691.929 -1.75825 -0.30787 0
M  V30 7391 C 689.029 -3.35376 -0.487481 0
M  V30 7392 C 688.202 -4.35943 0.356772 0
M  V30 7393 C 687.261 -5.24374 -0.438042 0
M  V30 7394 O 686.287 -5.68998 0.151715 0
M  V30 7395 N 687.489 -5.53823 -1.73956 0
M  V30 7396 H 690.254 -2.73938 1.21564 0
M  V30 7397 H 687.815 -1.41482 0.787047 0
M  V30 7398 H 689.807 -3.91476 -1.02609 0
M  V30 7399 H 688.377 -2.87269 -1.23269 0
M  V30 7400 H 687.597 -3.7921 1.07672 0
M  V30 7401 H 688.885 -5.0015 0.934206 0
M  V30 7402 H 688.283 -5.19413 -2.24114 0
M  V30 7403 H 686.84 -6.12653 -2.22486 0
M  V30 7404 N 690.273 -0.685099 -1.4193 0
M  V30 7405 C 691.22 -0.0131869 -2.30796 0
M  V30 7406 C 692.19 0.782129 -1.46533 0
M  V30 7407 O 693.375 0.75229 -1.75343 0
M  V30 7408 C 690.515 0.924768 -3.32479 0
M  V30 7409 C 689.628 0.122181 -4.31827 0
M  V30 7410 C 688.763 1.05682 -5.20581 0
M  V30 7411 C 687.802 0.246526 -6.11603 0
M  V30 7412 N 686.939 1.13442 -6.92875 0
M  V30 7413 H 691.779 -0.776789 -2.87698 0
M  V30 7414 H 689.316 -0.394791 -1.41703 0
M  V30 7415 H 691.274 1.48251 -3.89971 0
M  V30 7416 H 689.904 1.65488 -2.77152 0
M  V30 7417 H 688.956 -0.552335 -3.76369 0
M  V30 7418 H 690.268 -0.506473 -4.96222 0
M  V30 7419 H 689.422 1.68415 -5.82856 0
M  V30 7420 H 688.161 1.71935 -4.56388 0
M  V30 7421 H 687.166 -0.393944 -5.48387 0
M  V30 7422 H 688.391 -0.412053 -6.77849 0
M  V30 7423 H 686.337 1.78316 -6.313 0
M  V30 7424 H 686.254 0.561089 -7.53915 0
M  V30 7425 H 687.522 1.74889 -7.59628 0
M  V30 7426 N 691.751 1.51645 -0.429126 0
M  V30 7427 C 692.714 2.26116 0.374726 0
M  V30 7428 C 693.714 1.29242 0.956714 0
M  V30 7429 O 694.904 1.53022 0.832452 0
M  V30 7430 C 692.036 3.04669 1.52937 0
M  V30 7431 H 693.229 2.9861 -0.277818 0
M  V30 7432 H 690.782 1.55236 -0.182097 0
M  V30 7433 H 691.517 2.36571 2.21821 0
M  V30 7434 H 691.302 3.75814 1.11833 0
M  V30 7435 H 692.792 3.61102 2.09751 0
M  V30 7436 N 693.229 0.160201 1.56784 0
M  V30 7437 C 694.159 -0.770264 2.2043 0
M  V30 7438 C 695.14 -1.24736 1.15651 0
M  V30 7439 O 696.325 -1.30253 1.44041 0
M  V30 7440 C 693.455 -2.00427 2.83631 0
M  V30 7441 C 692.409 -1.66345 3.94352 0
M  V30 7442 C 691.735 -2.97119 4.4455 0
M  V30 7443 C 693.035 -0.899972 5.14488 0
M  V30 7444 H 694.729 -0.239783 2.98438 0
M  V30 7445 H 692.275 -0.113891 1.43549 0
M  V30 7446 H 694.228 -2.66012 3.26827 0
M  V30 7447 H 692.952 -2.5587 2.02973 0
M  V30 7448 H 691.611 -1.03133 3.51794 0
M  V30 7449 H 691.259 -3.5058 3.60698 0
M  V30 7450 H 690.959 -2.75073 5.19238 0
M  V30 7451 H 692.483 -3.63753 4.90425 0
M  V30 7452 H 693.897 -1.45818 5.54446 0
M  V30 7453 H 692.294 -0.778968 5.95023 0
M  V30 7454 H 693.364 0.105827 4.84785 0
M  V30 7455 N 694.707 -1.5719 -0.113559 0
M  V30 7456 C 695.617 -2.04041 -1.15777 0
M  V30 7457 C 696.633 -0.961812 -1.45001 0
M  V30 7458 O 697.809 -1.2737 -1.56009 0
M  V30 7459 C 694.874 -2.43994 -2.46308 0
M  V30 7460 C 693.935 -3.65962 -2.24433 0
M  V30 7461 C 693.168 -4.04 -3.4874 0
M  V30 7462 O 693.391 -3.42321 -4.56259 0
M  V30 7463 O 692.325 -4.97069 -3.3942 0
M  V30 7464 H 696.151 -2.93248 -0.789899 0
M  V30 7465 H 693.736 -1.45828 -0.324748 0
M  V30 7466 H 695.618 -2.70401 -3.23204 0
M  V30 7467 H 694.293 -1.57932 -2.82558 0
M  V30 7468 H 693.2 -3.44697 -1.45377 0
M  V30 7469 H 694.533 -4.52746 -1.93084 0
M  V30 7470 N 696.185 0.383891 -1.52853 0
M  V30 7471 C 697.433 1.12619 -1.67814 0
M  V30 7472 C 697.754 1.90354 -0.423141 0
M  V30 7473 O 697.024 1.87649 0.562554 0
M  V30 7474 H 695.604 0.418738 -0.618601 0
M  V30 7475 H 698.266 0.43495 -1.89985 0
M  V30 7476 H 697.362 1.82624 -2.5309 0
M  V30 7477 N 697.663 1.43903 0.642637 0
M  V30 7478 C 698.909 1.46296 1.40447 0
M  V30 7479 C 699.242 0.0908361 1.93987 0
M  V30 7480 O 698.517 -0.889884 1.72949 0
M  V30 7481 C 698.8 2.51399 2.57819 0
M  V30 7482 C 698.653 3.97926 2.09702 0
M  V30 7483 C 699.972 2.53125 3.60022 0
M  V30 7484 H 697.091 0.532676 0.509338 0
M  V30 7485 H 699.733 1.75515 0.727635 0
M  V30 7486 H 697.883 2.26614 3.1556 0
M  V30 7487 H 699.555 4.33804 1.5688 0
M  V30 7488 H 697.798 4.10252 1.40982 0
M  V30 7489 H 698.469 4.67096 2.94152 0
M  V30 7490 H 700.945 2.75242 3.12059 0
M  V30 7491 H 699.821 3.28589 4.39682 0
M  V30 7492 H 700.082 1.56895 4.13324 0
M  V30 7493 N 699.141 -0.881989 1.30609 0
M  V30 7494 C 700.091 -1.97539 1.13852 0
M  V30 7495 C 701.075 -1.60813 0.0528428 0
M  V30 7496 O 702.267 -1.74827 0.276484 0
M  V30 7497 C 699.396 -3.32977 0.835519 0
M  V30 7498 C 698.482 -3.76008 1.96159 0
M  V30 7499 N 698.873 -3.91109 3.20729 0
M  V30 7500 C 697.171 -4.05427 1.85863 0
M  V30 7501 C 697.872 -4.27661 3.94311 0
M  V30 7502 N 696.848 -4.37686 3.22385 0
M  V30 7503 H 700.65 -2.07309 2.08327 0
M  V30 7504 H 698.164 -1.072 1.21992 0
M  V30 7505 H 700.161 -4.11041 0.696477 0
M  V30 7506 H 698.821 -3.24542 -0.101135 0
M  V30 7507 H 699.832 -3.7616 3.55984 0
M  V30 7508 H 696.509 -4.05449 0.995847 0
M  V30 7509 H 697.899 -4.47042 5.01601 0
M  V30 7510 N 700.619 -1.13374 -1.09472 0
M  V30 7511 C 701.849 -0.917019 -1.85133 0
M  V30 7512 C 702.257 0.537568 -1.81402 0
M  V30 7513 O 701.6 1.38385 -1.20811 0
M  V30 7514 C 701.662 -1.32646 -3.34134 0
M  V30 7515 C 701.326 -2.79437 -3.61613 0
M  V30 7516 C 702.323 -3.77596 -3.57375 0
M  V30 7517 C 700.008 -3.16586 -3.89973 0
M  V30 7518 C 702.002 -5.10916 -3.81108 0
M  V30 7519 C 699.689 -4.50085 -4.13361 0
M  V30 7520 C 700.687 -5.47059 -4.0892 0
M  V30 7521 O 700.375 -6.78149 -4.31705 0
M  V30 7522 H 700.107 -0.326997 -0.591649 0
M  V30 7523 H 702.661 -1.51002 -1.39239 0
M  V30 7524 H 700.891 -0.676719 -3.80733 0
M  V30 7525 H 702.58 -1.08229 -3.91205 0
M  V30 7526 H 703.346 -3.50242 -3.35493 0
M  V30 7527 H 699.225 -2.41707 -3.92554 0
M  V30 7528 H 702.769 -5.86597 -3.77558 0
M  V30 7529 H 698.666 -4.77163 -4.34724 0
M  V30 7530 H 699.434 -6.84244 -4.49168 0
M  V30 7531 N 702.098 1.27442 -0.927168 0
M  V30 7532 C 703.347 1.93679 -0.563146 0
M  V30 7533 C 703.66 1.73673 0.899837 0
M  V30 7534 O 704.866 2.34247 1.37262 0
M  V30 7535 C 703.322 3.46961 -0.95636 0
M  V30 7536 C 702.93 3.75724 -2.43999 0
M  V30 7537 C 704.674 4.19282 -0.663565 0
M  V30 7538 C 702.581 5.22378 -2.77263 0
M  V30 7539 H 701.511 0.725059 -0.206894 0
M  V30 7540 H 704.162 1.44743 -1.12791 0
M  V30 7541 H 702.544 3.94703 -0.320254 0
M  V30 7542 H 703.718 3.38741 -3.12396 0
M  V30 7543 H 702.033 3.16605 -2.70463 0
M  V30 7544 H 704.63 5.27265 -0.888596 0
M  V30 7545 H 704.973 4.14382 0.399198 0
M  V30 7546 H 705.506 3.7736 -1.25875 0
M  V30 7547 H 702.245 5.32367 -3.82446 0
M  V30 7548 H 701.765 5.6051 -2.13516 0
M  V30 7549 H 703.444 5.9025 -2.64979 0
M  V30 7550 N 703.576 0.692616 1.41565 0
M  V30 7551 C 704.539 0.0344174 2.29174 0
M  V30 7552 C 705.539 -0.710961 1.44229 0
M  V30 7553 O 706.729 -0.546293 1.65412 0
M  V30 7554 C 703.861 -0.961682 3.27054 0
M  V30 7555 H 705.054 0.805755 2.88873 0
M  V30 7556 H 702.607 0.455947 1.49502 0
M  V30 7557 H 703.342 -1.76089 2.72329 0
M  V30 7558 H 703.127 -0.430375 3.89731 0
M  V30 7559 H 704.617 -1.4201 3.92712 0
M  V30 7560 N 705.054 -1.51416 0.437162 0
M  V30 7561 C 706.331 -1.94682 -0.189292 0
M  V30 7562 C 706.711 -1.37581 -1.60108 0
M  V30 7563 O 706.059 -0.562815 -2.2146 0
M  V30 7564 C 706.269 -3.48599 -0.167201 0
M  V30 7565 C 707.617 -4.2296 -0.372856 0
M  V30 7566 O 708.641 -3.55354 -0.245323 0
M  V30 7567 O 707.5 -5.42895 -0.626693 0
M  V30 7568 H 704.594 -0.816708 -0.130063 0
M  V30 7569 H 707.14 -1.62316 0.495128 0
M  V30 7570 H 705.912 -3.82616 0.81981 0
M  V30 7571 H 705.535 -3.87406 -0.894537 0
M  V30 7572 N 706.532 -0.168513 -1.56696 0
M  V30 7573 C 707.482 0.7751 -2.14421 0
M  V30 7574 C 708.466 1.19476 -1.07769 0
M  V30 7575 O 709.658 1.15759 -1.33898 0
M  V30 7576 C 706.787 2.00549 -2.7863 0
M  V30 7577 C 705.873 1.60795 -3.92436 0
M  V30 7578 N 706.264 0.919812 -4.97366 0
M  V30 7579 C 704.562 1.89917 -4.03544 0
M  V30 7580 C 705.263 0.724485 -5.77171 0
M  V30 7581 N 704.239 1.26505 -5.28675 0
M  V30 7582 H 708.041 0.240349 -2.92916 0
M  V30 7583 H 705.555 0.0322675 -1.62368 0
M  V30 7584 H 707.552 2.6917 -3.1836 0
M  V30 7585 H 706.212 2.54522 -2.01615 0
M  V30 7586 H 707.223 0.578169 -5.14663 0
M  V30 7587 H 703.9 2.45587 -3.37629 0
M  V30 7588 H 705.29 0.180521 -6.71657 0
M  V30 7589 N 708.01 1.57248 0.105221 0
M  V30 7590 C 708.94 2.04374 1.12931 0
M  V30 7591 C 709.921 0.93074 1.42377 0
M  V30 7592 O 711.106 1.20136 1.52581 0
M  V30 7593 C 708.236 2.45967 2.45189 0
M  V30 7594 C 707.19 3.60838 2.30174 0
M  V30 7595 C 706.516 3.88374 3.67518 0
M  V30 7596 C 707.816 4.92084 1.75073 0
M  V30 7597 H 709.51 2.9018 0.737287 0
M  V30 7598 H 707.056 1.39601 0.353211 0
M  V30 7599 H 709.009 2.77542 3.17094 0
M  V30 7600 H 707.733 1.57148 2.86308 0
M  V30 7601 H 706.392 3.29493 1.60716 0
M  V30 7602 H 706.04 2.96739 4.06147 0
M  V30 7603 H 705.74 4.65703 3.58321 0
M  V30 7604 H 707.264 4.22415 4.40906 0
M  V30 7605 H 708.678 5.22106 2.36809 0
M  V30 7606 H 707.075 5.73507 1.76662 0
M  V30 7607 H 708.145 4.79684 0.709347 0
M  V30 7608 N 709.488 -0.375779 1.53054 0
M  V30 7609 C 710.904 -0.716764 1.426 0
M  V30 7610 C 711.104 -1.93651 0.556931 0
M  V30 7611 O 710.16 -2.52475 0.0354461 0
M  V30 7612 C 711.473 -0.939499 2.85646 0
M  V30 7613 C 713.021 -1.04015 2.95212 0
M  V30 7614 C 713.496 -1.29543 4.39298 0
M  V30 7615 N 714.987 -1.36335 4.42682 0
M  V30 7616 C 715.722 -1.57778 5.51266 0
M  V30 7617 N 715.218 -1.76604 6.69913 0
M  V30 7618 N 717.011 -1.60065 5.38828 0
M  V30 7619 H 709.162 0.42664 2.08071 0
M  V30 7620 H 711.425 0.128758 0.939215 0
M  V30 7621 H 711.131 -0.115189 3.51511 0
M  V30 7622 H 711.005 -1.85048 3.2869 0
M  V30 7623 H 713.392 -1.85501 2.29507 0
M  V30 7624 H 713.473 -0.106785 2.55577 0
M  V30 7625 H 713.117 -0.485611 5.05573 0
M  V30 7626 H 713.047 -2.24184 4.76497 0
M  V30 7627 H 715.538 -1.23441 3.5717 0
M  V30 7628 H 715.851 -1.9251 7.48438 0
M  V30 7629 H 714.196 -1.73802 6.72917 0
M  V30 7630 H 717.387 -1.44917 4.45103 0
M  V30 7631 H 717.56 -1.76435 6.23518 0
M  V30 7632 N 710.966 -1.44241 -0.634997 0
M  V30 7633 C 712.191 -1.50516 -1.42687 0
M  V30 7634 C 712.616 -0.129864 -1.87651 0
M  V30 7635 O 711.974 0.880164 -1.58502 0
M  V30 7636 C 712.022 -2.4714 -2.62591 0
M  V30 7637 O 711.126 -1.97025 -3.62291 0
M  V30 7638 H 710.467 -0.50841 -0.427101 0
M  V30 7639 H 712.997 -1.89337 -0.775408 0
M  V30 7640 H 713.007 -2.65048 -3.10183 0
M  V30 7641 H 711.682 -3.47039 -2.29209 0
M  V30 7642 H 710.259 -1.88866 -3.21534 0
M  V30 7643 N 712.444 0.87505 -1.31075 0
M  V30 7644 C 713.354 2.01441 -1.20244 0
M  V30 7645 C 714.37 1.73584 -0.120227 0
M  V30 7646 O 715.546 1.98559 -0.337063 0
M  V30 7647 C 712.611 3.34675 -0.905199 0
M  V30 7648 C 711.672 3.75889 -2.0738 0
M  V30 7649 C 710.905 5.02764 -1.79064 0
M  V30 7650 O 711.128 5.65795 -0.723318 0
M  V30 7651 O 710.062 5.40623 -2.64594 0
M  V30 7652 H 713.888 2.13509 -2.1598 0
M  V30 7653 H 711.473 1.00257 -1.10765 0
M  V30 7654 H 713.355 4.1458 -0.755057 0
M  V30 7655 H 712.03 3.23692 0.0221695 0
M  V30 7656 H 710.937 2.96645 -2.27931 0
M  V30 7657 H 712.27 3.91489 -2.98324 0
M  V30 7658 N 713.922 1.13953 1.08869 0
M  V30 7659 C 715.199 0.815768 1.77777 0
M  V30 7660 C 715.579 -0.691624 1.99449 0
M  V30 7661 O 714.927 -1.63085 1.60049 0
M  V30 7662 C 715.137 1.60916 3.09689 0
M  V30 7663 C 716.485 1.80549 3.84301 0
M  V30 7664 O 717.509 1.57562 3.19457 0
M  V30 7665 O 716.368 2.18946 5.00724 0
M  V30 7666 H 713.462 0.298445 0.771271 0
M  V30 7667 H 716.008 1.24446 1.15374 0
M  V30 7668 H 714.78 2.6333 2.89435 0
M  V30 7669 H 714.403 1.17578 3.79817 0
M  V30 7670 N 715.4 -1.26948 0.933913 0
M  V30 7671 C 716.363 -2.24889 0.442457 0
M  V30 7672 C 717.363 -1.54594 -0.442426 0
M  V30 7673 O 718.553 -1.72502 -0.242629 0
M  V30 7674 C 715.685 -3.3896 -0.363173 0
M  V30 7675 H 716.878 -2.69879 1.30787 0
M  V30 7676 H 714.431 -1.38978 0.715187 0
M  V30 7677 H 715.166 -2.99361 -1.24714 0
M  V30 7678 H 714.951 -3.9116 0.271366 0
M  V30 7679 H 716.441 -4.11739 -0.697186 0
M  V30 7680 N 716.879 -0.700114 -1.41195 0
M  V30 7681 C 718.156 -0.160836 -1.94938 0
M  V30 7682 C 718.536 1.33014 -1.63922 0
M  V30 7683 O 717.884 2.07878 -0.948636 0
M  V30 7684 C 718.094 -0.456991 -3.45995 0
M  V30 7685 C 719.442 -0.387207 -4.22831 0
M  V30 7686 O 720.466 -0.392164 -3.54035 0
M  V30 7687 O 719.325 -0.351267 -5.4537 0
M  V30 7688 H 716.419 -0.0176304 -0.826812 0
M  V30 7689 H 718.965 -0.776586 -1.50888 0
M  V30 7690 H 717.737 -1.48884 -3.61869 0
M  V30 7691 H 717.36 0.189503 -3.97148 0
M  V30 7692 N 718.357 1.51182 -0.445186 0
M  V30 7693 C 719.582 2.07056 0.119445 0
M  V30 7694 C 720.007 1.30966 1.35016 0
M  V30 7695 O 719.365 0.349827 1.77893 0
M  V30 7696 C 719.413 3.58234 0.412428 0
M  V30 7697 O 718.517 3.84249 1.49754 0
M  V30 7698 H 717.858 0.663998 -0.00157797 0
M  V30 7699 H 720.388 1.94699 -0.628779 0
M  V30 7700 H 720.398 4.02617 0.660583 0
M  V30 7701 H 719.073 4.13038 -0.487049 0
M  V30 7702 H 717.65 3.51724 1.23873 0
M  V30 7703 N 719.835 0.176821 1.56605 0
M  V30 7704 C 721.06 -0.47599 2.01864 0
M  V30 7705 C 721.485 -1.55645 1.05623 0
M  V30 7706 O 720.843 -1.81263 0.0366729 0
M  V30 7707 C 720.891 -1.02619 3.4569 0
M  V30 7708 O 719.995 -2.13996 3.52533 0
M  V30 7709 H 719.336 -0.113363 0.654251 0
M  V30 7710 H 721.866 0.28233 2.02643 0
M  V30 7711 H 721.876 -1.34742 3.85109 0
M  V30 7712 H 720.551 -0.235138 4.15235 0
M  V30 7713 H 719.128 -1.82876 3.24978 0
M  V30 7714 N 721.313 -1.57302 -0.09688 0
M  V30 7715 C 722.559 -1.86273 -0.801885 0
M  V30 7716 C 722.892 -0.765694 -1.78468 0
M  V30 7717 O 722.167 0.226495 -1.93177 0
M  V30 7718 C 722.45 -3.25876 -1.53221 0
M  V30 7719 C 722.303 -4.46205 -0.567529 0
M  V30 7720 C 723.622 -3.63352 -2.48321 0
M  V30 7721 H 720.741 -0.67752 -0.29006 0
M  V30 7722 H 723.383 -1.89887 -0.0655577 0
M  V30 7723 H 721.533 -3.22926 -2.15988 0
M  V30 7724 H 723.205 -4.6127 0.0529982 0
M  V30 7725 H 721.448 -4.33636 0.119233 0
M  V30 7726 H 722.119 -5.40608 -1.11564 0
M  V30 7727 H 724.595 -3.67234 -1.95648 0
M  V30 7728 H 723.471 -4.61968 -2.9644 0
M  V30 7729 H 723.732 -2.91941 -3.31998 0
M  V30 7730 N 722.791 0.367657 -1.53252 0
M  V30 7731 C 723.738 1.45028 -1.79543 0
M  V30 7732 C 724.708 1.53288 -0.63969 0
M  V30 7733 O 725.893 1.69209 -0.881653 0
M  V30 7734 C 723.033 2.82 -1.98923 0
M  V30 7735 C 722.146 2.82722 -3.26638 0
M  V30 7736 C 721.281 4.11257 -3.36216 0
M  V30 7737 C 720.32 4.06113 -4.57972 0
M  V30 7738 N 719.457 5.26293 -4.64715 0
M  V30 7739 H 724.297 1.21908 -2.71923 0
M  V30 7740 H 721.834 0.591011 -1.34705 0
M  V30 7741 H 723.792 3.61568 -2.08146 0
M  V30 7742 H 722.422 3.03523 -1.09881 0
M  V30 7743 H 721.474 1.95399 -3.26379 0
M  V30 7744 H 722.786 2.74794 -4.16281 0
M  V30 7745 H 721.94 4.99239 -3.44739 0
M  V30 7746 H 720.679 4.21935 -2.44586 0
M  V30 7747 H 719.684 3.16517 -4.49552 0
M  V30 7748 H 720.909 3.97039 -5.50942 0
M  V30 7749 H 718.855 5.37561 -3.75985 0
M  V30 7750 H 718.772 5.20526 -5.4826 0
M  V30 7751 H 720.04 6.16113 -4.77519 0
M  V30 7752 N 724.269 1.44576 0.627338 0
M  V30 7753 C 725.179 1.54232 1.76776 0
M  V30 7754 C 726.195 0.427782 1.6866 0
M  V30 7755 O 727.371 0.685671 1.89369 0
M  V30 7756 C 724.436 1.48738 3.13174 0
M  V30 7757 C 723.497 2.71074 3.32893 0
M  V30 7758 C 722.73 2.65832 4.62784 0
M  V30 7759 O 722.953 1.72048 5.43834 0
M  V30 7760 O 721.887 3.56742 4.84787 0
M  V30 7761 H 725.713 2.50586 1.71582 0
M  V30 7762 H 723.298 1.26865 0.789028 0
M  V30 7763 H 725.18 1.48211 3.94476 0
M  V30 7764 H 723.855 0.555292 3.18902 0
M  V30 7765 H 722.762 2.77168 2.51254 0
M  V30 7766 H 724.095 3.63342 3.32029 0
M  V30 7767 N 725.747 -0.868086 1.31537 0
M  V30 7768 C 727.024 -1.60384 1.11965 0
M  V30 7769 C 727.404 -2.08584 -0.324949 0
M  V30 7770 O 726.752 -1.86561 -1.31937 0
M  V30 7771 C 726.962 -2.76038 2.13551 0
M  V30 7772 C 728.31 -3.45954 2.46173 0
M  V30 7773 O 729.334 -2.86247 2.11993 0
M  V30 7774 O 728.193 -4.53666 3.04711 0
M  V30 7775 H 725.287 -0.705705 0.431172 0
M  V30 7776 H 727.833 -0.913385 1.43022 0
M  V30 7777 H 726.605 -2.37849 3.10714 0
M  V30 7778 H 726.228 -3.52769 1.83411 0
M  V30 7779 N 727.225 -1.14528 -1.08264 0
M  V30 7780 C 728.471 -0.925721 -1.81113 0
M  V30 7781 C 728.826 0.54185 -1.84612 0
M  V30 7782 O 728.119 1.39628 -1.31205 0
M  V30 7783 C 728.313 -1.46226 -3.26117 0
M  V30 7784 C 728.142 -2.98047 -3.36746 0
M  V30 7785 C 726.912 -3.66508 -3.4785 0
M  V30 7786 C 729.11 -3.95903 -3.28277 0
M  V30 7787 N 727.092 -5.06227 -3.47285 0
M  V30 7788 C 728.463 -5.21883 -3.34721 0
M  V30 7789 C 730.518 -3.88002 -3.12024 0
M  V30 7790 C 729.221 -6.40886 -3.26585 0
M  V30 7791 C 731.247 -5.06553 -3.05219 0
M  V30 7792 C 730.609 -6.31403 -3.12266 0
M  V30 7793 H 726.708 -0.392294 -0.676483 0
M  V30 7794 H 729.292 -1.45567 -1.293 0
M  V30 7795 H 727.463 -0.959076 -3.76373 0
M  V30 7796 H 729.195 -1.18247 -3.8704 0
M  V30 7797 H 725.95 -3.17067 -3.51804 0
M  V30 7798 H 726.374 -5.79172 -3.50555 0
M  V30 7799 H 731.016 -2.9235 -3.05436 0
M  V30 7800 H 728.734 -7.36781 -3.31934 0
M  V30 7801 H 732.32 -5.02191 -2.93761 0
M  V30 7802 H 731.2 -7.21596 -3.07032 0
M  V30 7803 N 728.703 1.26451 -0.940633 0
M  V30 7804 C 729.65 2.264 -0.448497 0
M  V30 7805 C 730.62 1.5866 0.491546 0
M  V30 7806 O 731.805 1.86389 0.407874 0
M  V30 7807 C 728.945 3.43956 0.280715 0
M  V30 7808 C 728.058 4.26374 -0.694937 0
M  V30 7809 C 727.193 5.31171 0.0554186 0
M  V30 7810 C 726.232 6.05266 -0.912091 0
M  V30 7811 N 725.369 7.01833 -0.193524 0
M  V30 7812 H 730.209 2.67869 -1.30576 0
M  V30 7813 H 727.746 1.31707 -0.655112 0
M  V30 7814 H 729.704 4.10941 0.71994 0
M  V30 7815 H 728.334 3.03403 1.10212 0
M  V30 7816 H 727.386 3.59183 -1.25267 0
M  V30 7817 H 728.698 4.77748 -1.43382 0
M  V30 7818 H 727.852 6.04166 0.553951 0
M  V30 7819 H 726.591 4.80634 0.827183 0
M  V30 7820 H 725.596 5.31099 -1.42175 0
M  V30 7821 H 726.821 6.57893 -1.68385 0
M  V30 7822 H 724.767 6.53607 0.559758 0
M  V30 7823 H 724.684 7.50957 -0.871744 0
M  V30 7824 H 725.952 7.78983 0.283932 0
M  V30 7825 N 730.181 0.707592 1.40822 0
M  V30 7826 C 731.411 0.252706 2.05049 0
M  V30 7827 C 731.819 -1.10758 1.53393 0
M  V30 7828 O 731.162 -1.70567 0.682097 0
M  V30 7829 C 731.224 0.146001 3.59203 0
M  V30 7830 C 730.888 1.44027 4.33711 0
M  V30 7831 C 731.885 2.38058 4.62195 0
M  V30 7832 C 729.57 1.69698 4.72766 0
M  V30 7833 C 731.564 3.56013 5.28709 0
M  V30 7834 C 729.251 2.87936 5.39014 0
M  V30 7835 C 730.249 3.80915 5.66915 0
M  V30 7836 O 729.937 4.9708 6.31796 0
M  V30 7837 H 729.669 0.112784 0.666525 0
M  V30 7838 H 732.223 0.96417 1.81364 0
M  V30 7839 H 730.453 -0.621338 3.81676 0
M  V30 7840 H 732.142 -0.273275 4.04979 0
M  V30 7841 H 732.908 2.19487 4.32493 0
M  V30 7842 H 728.787 0.981835 4.50423 0
M  V30 7843 H 732.331 4.28604 5.50404 0
M  V30 7844 H 728.228 3.06419 5.68135 0
M  V30 7845 H 728.996 4.97053 6.50293 0
M  V30 7846 N 731.66 -1.50943 0.453197 0
M  V30 7847 C 732.906 -2.02512 -0.108082 0
M  V30 7848 C 733.239 -1.33574 -1.40967 0
M  V30 7849 O 732.514 -0.455671 -1.89087 0
M  V30 7850 C 732.797 -3.58759 -0.310453 0
M  V30 7851 C 732.65 -4.38293 1.0109 0
M  V30 7852 C 733.969 -4.26816 -1.07313 0
M  V30 7853 H 731.088 -0.73603 -0.0378064 0
M  V30 7854 H 733.73 -1.80433 0.595295 0
M  V30 7855 H 731.88 -3.77702 -0.909582 0
M  V30 7856 H 733.552 -4.30964 1.64523 0
M  V30 7857 H 731.795 -4.02745 1.61179 0
M  V30 7858 H 732.466 -5.45828 0.82315 0
M  V30 7859 H 734.942 -4.1224 -0.565473 0
M  V30 7860 H 733.818 -5.35989 -1.1835 0
M  V30 7861 H 734.079 -3.88757 -2.10525 0
M  V30 7862 N 733.138 -0.185124 -1.56509 0
M  V30 7863 C 734.101 0.72591 -2.17401 0
M  V30 7864 C 735.101 1.14819 -1.12575 0
M  V30 7865 O 736.291 1.0629 -1.38015 0
M  V30 7866 C 733.423 1.98979 -2.76803 0
M  V30 7867 H 734.616 0.195588 -2.99262 0
M  V30 7868 H 732.169 0.0644772 -1.56167 0
M  V30 7869 H 732.904 2.56287 -1.98714 0
M  V30 7870 H 732.689 1.69583 -3.53531 0
M  V30 7871 H 734.179 2.63966 -3.23592 0
M  V30 7872 N 734.616 1.57351 0.0885366 0
M  V30 7873 C 735.549 1.97786 1.13825 0
M  V30 7874 C 736.527 0.852091 1.38485 0
M  V30 7875 O 737.711 1.11296 1.52137 0
M  V30 7876 C 734.838 2.30024 2.48609 0
M  V30 7877 C 733.884 3.52437 2.40189 0
M  V30 7878 S 734.717 5.03908 1.81209 0
M  V30 7879 C 735.873 5.39331 3.17605 0
M  V30 7880 H 736.106 2.86513 0.793587 0
M  V30 7881 H 733.639 1.51527 0.29646 0
M  V30 7882 H 735.597 2.49274 3.26148 0
M  V30 7883 H 734.258 1.41856 2.80242 0
M  V30 7884 H 733.451 3.72457 3.39546 0
M  V30 7885 H 733.053 3.32731 1.70781 0
M  V30 7886 H 735.345 5.36378 4.13891 0
M  V30 7887 H 736.288 6.4029 3.02381 0
M  V30 7888 H 736.696 4.6679 3.17438 0
M  V30 7889 N 736.094 -0.359525 1.53444 0
M  V30 7890 C 737.34 -1.10315 1.70172 0
M  V30 7891 C 737.673 -1.88788 0.455287 0
M  V30 7892 O 736.948 -1.86635 -0.547514 0
M  V30 7893 C 737.231 -2.05744 2.95536 0
M  V30 7894 C 737.084 -1.3084 4.3035 0
M  V30 7895 C 738.403 -3.05784 3.16518 0
M  V30 7896 H 735.522 -0.399662 0.619225 0
M  V30 7897 H 738.164 -0.383338 1.86093 0
M  V30 7898 H 736.314 -2.67125 2.82093 0
M  V30 7899 H 737.986 -0.721959 4.55615 0
M  V30 7900 H 736.229 -0.610283 4.29486 0
M  V30 7901 H 736.9 -2.00718 5.14214 0
M  V30 7902 H 739.376 -2.5451 3.29187 0
M  V30 7903 H 738.252 -3.69772 4.05659 0
M  V30 7904 H 738.513 -3.76289 2.32076 0
M  V30 7905 N 737.572 -1.44907 -0.619662 0
M  V30 7906 C 738.821 -1.47569 -1.37501 0
M  V30 7907 C 739.134 -0.116707 -1.95252 0
M  V30 7908 O 740.34 -0.020909 -2.71492 0
M  V30 7909 C 738.796 -2.59851 -2.49009 0
M  V30 7910 C 738.404 -4.02008 -1.97722 0
M  V30 7911 C 740.148 -2.71746 -3.2612 0
M  V30 7912 C 738.055 -5.05693 -3.0664 0
M  V30 7913 H 736.985 -0.549068 -0.51676 0
M  V30 7914 H 739.636 -1.71009 -0.665437 0
M  V30 7915 H 738.018 -2.29671 -3.22594 0
M  V30 7916 H 739.192 -4.41809 -1.30925 0
M  V30 7917 H 737.507 -3.94456 -1.33392 0
M  V30 7918 H 740.104 -3.46382 -4.07337 0
M  V30 7919 H 740.447 -1.77959 -3.76346 0
M  V30 7920 H 740.98 -3.01392 -2.5963 0
M  V30 7921 H 737.719 -6.01148 -2.61345 0
M  V30 7922 H 737.239 -4.70473 -3.72042 0
M  V30 7923 H 738.918 -5.29906 -3.71226 0
M  V30 7924 N 739.05 0.861098 -1.31996 0
M  V30 7925 C 740.327 1.59788 -1.12814 0
M  V30 7926 C 740.707 2.08753 0.313882 0
M  V30 7927 O 740.055 1.87258 1.30946 0
M  V30 7928 C 740.265 2.74901 -2.15012 0
M  V30 7929 C 741.613 3.44643 -2.48004 0
M  V30 7930 O 742.637 2.85119 -2.13508 0
M  V30 7931 O 741.496 4.52044 -3.07113 0
M  V30 7932 H 738.59 0.703408 -0.434909 0
M  V30 7933 H 741.136 0.905788 -1.43505 0
M  V30 7934 H 739.908 2.36198 -3.11971 0
M  V30 7935 H 739.531 3.51792 -1.85279 0
M  V30 7936 N 740.528 1.15101 1.07655 0
M  V30 7937 C 741.944 0.893004 1.32279 0
M  V30 7938 C 742.144 -0.461701 1.96139 0
M  V30 7939 O 741.2 -1.20431 2.21929 0
M  V30 7940 C 742.513 2.03161 2.21689 0
M  V30 7941 C 744.061 2.06579 2.35147 0
M  V30 7942 C 744.536 3.19754 3.27905 0
M  V30 7943 N 746.027 3.19382 3.35484 0
M  V30 7944 C 746.762 4.03592 4.07309 0
M  V30 7945 N 746.258 4.97859 4.81776 0
M  V30 7946 N 748.051 3.91626 4.03219 0
M  V30 7947 H 740.202 2.02341 0.645886 0
M  V30 7948 H 742.465 0.882127 0.347211 0
M  V30 7949 H 742.171 3.00934 1.82021 0
M  V30 7950 H 742.045 1.96132 3.22199 0
M  V30 7951 H 744.432 1.09408 2.74069 0
M  V30 7952 H 744.513 2.17676 1.34353 0
M  V30 7953 H 744.157 4.17175 2.89702 0
M  V30 7954 H 744.087 3.05893 4.28645 0
M  V30 7955 H 746.578 2.51112 2.82403 0
M  V30 7956 H 746.891 5.58563 5.34067 0
M  V30 7957 H 745.236 5.0185 4.80803 0
M  V30 7958 H 748.427 3.17295 3.44154 0
M  V30 7959 H 748.6 4.57479 4.5893 0
M  V30 7960 N 742.006 -1.2595 0.947325 0
M  V30 7961 C 743.255 -1.92759 0.593887 0
M  V30 7962 C 743.568 -1.75083 -0.872093 0
M  V30 7963 O 744.774 -2.36401 -1.33518 0
M  V30 7964 C 743.23 -3.45395 1.01144 0
M  V30 7965 C 742.838 -3.71795 2.49946 0
M  V30 7966 C 744.582 -4.18173 0.730185 0
M  V30 7967 C 742.489 -5.17901 2.85539 0
M  V30 7968 H 741.419 -0.721676 0.218403 0
M  V30 7969 H 744.07 -1.4293 1.15079 0
M  V30 7970 H 742.452 -3.94143 0.383007 0
M  V30 7971 H 743.626 -3.33728 3.17746 0
M  V30 7972 H 741.941 -3.12263 2.75465 0
M  V30 7973 H 744.538 -5.25784 0.972367 0
M  V30 7974 H 744.881 -4.14964 -0.333223 0
M  V30 7975 H 745.414 -3.75309 1.31862 0
M  V30 7976 H 742.153 -5.26216 3.90867 0
M  V30 7977 H 741.673 -5.57042 2.22406 0
M  V30 7978 H 743.352 -5.8596 2.74336 0
M  V30 7979 N 743.484 -0.715051 -1.40445 0
M  V30 7980 C 744.731 -0.254328 -2.00897 0
M  V30 7981 C 745.059 1.15228 -1.56693 0
M  V30 7982 O 744.314 1.7958 -0.777786 0
M  V30 7983 C 744.613 -0.281791 -3.56287 0
M  V30 7984 C 744.279 -1.63862 -4.20071 0
M  V30 7985 C 742.941 -2.01003 -4.37208 0
M  V30 7986 C 745.293 -2.53039 -4.55654 0
M  V30 7987 C 742.621 -3.26869 -4.8721 0
M  V30 7988 C 744.973 -3.78256 -5.07055 0
M  V30 7989 C 743.637 -4.15515 -5.22401 0
M  V30 7990 H 742.907 -0.0930652 -0.735133 0
M  V30 7991 H 745.554 -0.917977 -1.68064 0
M  V30 7992 H 743.859 0.465428 -3.89026 0
M  V30 7993 H 745.556 0.0925158 -4.00893 0
M  V30 7994 H 742.146 -1.33979 -4.07121 0
M  V30 7995 H 746.33 -2.2562 -4.42051 0
M  V30 7996 H 741.586 -3.55706 -4.97276 0
M  V30 7997 H 745.76 -4.47528 -5.33565 0
M  V30 7998 H 743.387 -5.13114 -5.60909 0
M  V30 7999 N 744.962 1.50701 -0.461195 0
M  V30 8000 C 745.892 2.31182 0.328184 0
M  V30 8001 C 746.873 1.37644 0.999408 0
M  V30 8002 O 748.058 1.66565 0.99848 0
M  V30 8003 C 745.188 3.17113 1.41621 0
M  V30 8004 C 744.142 4.19124 0.867148 0
M  V30 8005 C 743.468 4.93728 2.05272 0
M  V30 8006 C 744.768 5.22174 -0.114808 0
M  V30 8007 H 746.462 2.97423 -0.343501 0
M  V30 8008 H 744.008 1.43033 -0.166641 0
M  V30 8009 H 745.961 3.72208 1.97584 0
M  V30 8010 H 744.685 2.48739 2.11652 0
M  V30 8011 H 743.344 3.65116 0.329557 0
M  V30 8012 H 742.992 4.21835 2.73978 0
M  V30 8013 H 742.692 5.62724 1.69161 0
M  V30 8014 H 744.216 5.51654 2.61744 0
M  V30 8015 H 745.63 5.72198 0.355316 0
M  V30 8016 H 744.027 5.98833 -0.389689 0
M  V30 8017 H 745.097 4.7353 -1.04391 0
M  V30 8018 N 746.441 0.193421 1.56409 0
M  V30 8019 C 747.687 -0.43983 1.98588 0
M  V30 8020 C 748.042 -1.59353 1.07816 0
M  V30 8021 O 747.335 -1.9121 0.122226 0
M  V30 8022 C 747.529 -0.949718 3.44551 0
M  V30 8023 C 747.358 0.153045 4.49439 0
M  V30 8024 C 746.128 0.610119 5.01603 0
M  V30 8025 C 748.326 0.961397 5.05234 0
M  V30 8026 N 746.308 1.69088 5.90155 0
M  V30 8027 C 747.679 1.8916 5.90439 0
M  V30 8028 C 749.734 1.004 4.87672 0
M  V30 8029 C 748.437 2.86086 6.5996 0
M  V30 8030 C 750.463 1.96131 5.57931 0
M  V30 8031 C 749.825 2.87895 6.42881 0
M  V30 8032 H 745.924 -0.128415 0.771384 0
M  V30 8033 H 748.508 0.29873 1.92395 0
M  V30 8034 H 746.679 -1.65772 3.51246 0
M  V30 8035 H 748.411 -1.55344 3.73698 0
M  V30 8036 H 745.166 0.203771 4.73161 0
M  V30 8037 H 745.59 2.23241 6.39134 0
M  V30 8038 H 750.232 0.308536 4.21673 0
M  V30 8039 H 747.95 3.56609 7.25159 0
M  V30 8040 H 751.536 2.00066 5.46319 0
M  V30 8041 H 750.416 3.60763 6.9629 0
M  V30 8042 N 747.919 -1.57396 -0.0801906 0
M  V30 8043 C 748.849 -2.06145 -1.09665 0
M  V30 8044 C 749.83 -0.953273 -1.40878 0
M  V30 8045 O 751.015 -1.22548 -1.50651 0
M  V30 8046 C 748.145 -2.49836 -2.41245 0
M  V30 8047 C 747.099 -3.64454 -2.24405 0
M  V30 8048 C 746.425 -3.94172 -3.61293 0
M  V30 8049 C 747.725 -4.94807 -1.67223 0
M  V30 8050 H 749.419 -2.91316 -0.691028 0
M  V30 8051 H 746.965 -1.40145 -0.330957 0
M  V30 8052 H 748.918 -2.82552 -3.12638 0
M  V30 8053 H 747.642 -1.61683 -2.83771 0
M  V30 8054 H 746.301 -3.32008 -1.55454 0
M  V30 8055 H 745.949 -3.03163 -4.01374 0
M  V30 8056 H 745.649 -4.71345 -3.50867 0
M  V30 8057 H 747.173 -4.29376 -4.3413 0
M  V30 8058 H 748.587 -5.25807 -2.28472 0
M  V30 8059 H 746.984 -5.76245 -1.67515 0
M  V30 8060 H 748.054 -4.80751 -0.632944 0
M  V30 8061 N 749.397 0.351382 -1.53633 0
M  V30 8062 C 750.644 1.0925 -1.70502 0
M  V30 8063 C 750.972 1.88881 -0.464123 0
M  V30 8064 O 750.227 1.87693 0.554077 0
M  V30 8065 C 750.526 2.06744 -2.91533 0
M  V30 8066 C 750.192 1.43484 -4.27461 0
M  V30 8067 C 748.854 1.2596 -4.64422 0
M  V30 8068 C 751.206 0.978436 -5.11934 0
M  V30 8069 C 748.534 0.614017 -5.83478 0
M  V30 8070 C 750.886 0.346795 -6.31649 0
M  V30 8071 C 749.55 0.15917 -6.6731 0
M  V30 8072 H 748.82 0.399773 -0.623909 0
M  V30 8073 H 751.467 0.372656 -1.87839 0
M  V30 8074 H 749.772 2.85082 -2.68767 0
M  V30 8075 H 751.469 2.64066 -3.01778 0
M  V30 8076 H 748.059 1.5812 -3.98367 0
M  V30 8077 H 752.243 1.1017 -4.83918 0
M  V30 8078 H 747.499 0.457194 -6.09688 0
M  V30 8079 H 751.673 -0.0149864 -6.96398 0
M  V30 8080 H 749.3 -0.343129 -7.59425 0
M  V30 8081 N 750.875 1.45233 0.611969 0
M  V30 8082 C 752.124 1.48296 1.36716 0
M  V30 8083 C 752.437 0.12706 1.95187 0
M  V30 8084 O 753.643 0.0353066 2.71477 0
M  V30 8085 C 752.099 2.61168 2.47627 0
M  V30 8086 C 751.707 4.03051 1.95587 0
M  V30 8087 C 753.451 2.73472 3.24674 0
M  V30 8088 C 751.358 5.07312 3.03954 0
M  V30 8089 H 750.288 0.5518 0.513841 0
M  V30 8090 H 752.939 1.7136 0.656359 0
M  V30 8091 H 751.321 2.31379 3.21372 0
M  V30 8092 H 752.495 4.42497 1.2858 0
M  V30 8093 H 750.81 3.95158 1.31298 0
M  V30 8094 H 753.407 3.48537 4.05494 0
M  V30 8095 H 753.75 1.79953 3.75397 0
M  V30 8096 H 754.283 3.02765 2.58028 0
M  V30 8097 H 751.022 6.02525 2.58154 0
M  V30 8098 H 750.542 4.7244 3.69541 0
M  V30 8099 H 752.221 5.31867 3.6841 0
M  V30 8100 N 752.353 -0.854086 1.3245 0
M  V30 8101 C 753.602 -1.60318 1.22397 0
M  V30 8102 C 753.915 -1.9444 -0.212664 0
M  V30 8103 O 755.121 -2.67991 -0.435066 0
M  V30 8104 C 753.577 -2.8909 2.1437 0
M  V30 8105 C 753.185 -2.62391 3.63119 0
M  V30 8106 C 754.929 -3.67104 2.13155 0
M  V30 8107 C 752.836 -3.87167 4.47052 0
M  V30 8108 H 751.766 -0.601586 0.454544 0
M  V30 8109 H 754.417 -0.943023 1.57415 0
M  V30 8110 H 752.799 -3.56567 1.72268 0
M  V30 8111 H 753.973 -2.03222 4.13567 0
M  V30 8112 H 752.288 -1.97706 3.66471 0
M  V30 8113 H 754.885 -4.59696 2.731 0
M  V30 8114 H 755.228 -4.00876 1.12268 0
M  V30 8115 H 755.761 -3.06533 2.5354 0
M  V30 8116 H 752.5 -3.58536 5.48755 0
M  V30 8117 H 752.02 -4.45729 4.01355 0
M  V30 8118 H 753.699 -4.549 4.60081 0
M  V30 8119 N 753.831 -1.1567 -1.07043 0
M  V30 8120 C 755.077 -0.9349 -1.79965 0
M  V30 8121 C 755.41 0.536464 -1.86643 0
M  V30 8122 O 754.685 1.39781 -1.35247 0
M  V30 8123 C 754.968 -1.55371 -3.24857 0
M  V30 8124 C 754.821 -3.09589 -3.26305 0
M  V30 8125 C 756.14 -1.24209 -4.22209 0
M  V30 8126 H 753.259 -0.341061 -0.653335 0
M  V30 8127 H 755.901 -1.42883 -1.25237 0
M  V30 8128 H 754.051 -1.13368 -3.71591 0
M  V30 8129 H 755.723 -3.60521 -2.87789 0
M  V30 8130 H 753.966 -3.43315 -2.65174 0
M  V30 8131 H 754.637 -3.48002 -4.28484 0
M  V30 8132 H 757.113 -1.60548 -3.8388 0
M  V30 8133 H 755.989 -1.70119 -5.21872 0
M  V30 8134 H 756.25 -0.15964 -4.41812 0
M  V30 8135 N 755.309 1.25446 -0.953992 0
M  V30 8136 C 756.549 1.94894 -0.616087 0
M  V30 8137 C 756.913 1.73067 0.831374 0
M  V30 8138 O 758.114 2.3643 1.27884 0
M  V30 8139 C 756.385 3.44147 -0.964225 0
M  V30 8140 S 757.944 4.32536 -0.738798 0
M  V30 8141 H 754.762 0.673967 -0.226472 0
M  V30 8142 H 757.364 1.52117 -1.22803 0
M  V30 8143 H 756.068 3.57537 -2.01484 0
M  V30 8144 H 755.599 3.91906 -0.342507 0
M  V30 8145 H 757.614 4.94659 0.390732 0
M  V30 8146 N 756.787 0.722489 1.40064 0
M  V30 8147 C 758.034 0.264979 2.00759 0
M  V30 8148 C 758.362 -1.14395 1.57302 0
M  V30 8149 O 757.617 -1.79165 0.787298 0
M  V30 8150 C 757.916 0.300682 3.56133 0
M  V30 8151 C 757.582 1.66087 4.19197 0
M  V30 8152 C 756.244 2.03319 4.36136 0
M  V30 8153 C 758.596 2.55452 4.54306 0
M  V30 8154 C 755.924 3.29448 4.8547 0
M  V30 8155 C 758.276 3.8094 5.05042 0
M  V30 8156 C 756.94 4.1828 5.2019 0
M  V30 8157 H 756.21 0.0969625 0.734629 0
M  V30 8158 H 758.857 0.926877 1.67575 0
M  V30 8159 H 757.162 -0.44479 3.89267 0
M  V30 8160 H 758.859 -0.0712542 4.00937 0
M  V30 8161 H 755.449 1.36137 4.06405 0
M  V30 8162 H 759.633 2.27961 4.40849 0
M  V30 8163 H 754.889 3.58338 4.95382 0
M  V30 8164 H 759.063 4.50351 5.31184 0
M  V30 8165 H 756.69 5.16081 5.58179 0
M  V30 8166 N 758.265 -1.50454 0.469181 0
M  V30 8167 C 759.195 -2.31353 -0.31592 0
M  V30 8168 C 760.176 -1.38172 -0.992094 0
M  V30 8169 O 761.361 -1.67093 -0.989633 0
M  V30 8170 C 758.491 -3.1786 -1.39937 0
M  V30 8171 C 757.445 -4.19578 -0.844909 0
M  V30 8172 C 756.771 -4.9481 -2.0265 0
M  V30 8173 C 758.071 -5.22106 0.142499 0
M  V30 8174 H 759.765 -2.97237 0.359269 0
M  V30 8175 H 757.311 -1.42942 0.174224 0
M  V30 8176 H 759.264 -3.7325 -1.95607 0
M  V30 8177 H 757.988 -2.49858 -2.1033 0
M  V30 8178 H 756.647 -3.65285 -0.310189 0
M  V30 8179 H 756.295 -4.23282 -2.71737 0
M  V30 8180 H 755.995 -5.63613 -1.66174 0
M  V30 8181 H 757.519 -5.53035 -2.58815 0
M  V30 8182 H 758.933 -5.72378 -0.324966 0
M  V30 8183 H 757.33 -5.98618 0.421441 0
M  V30 8184 H 758.4 -4.7297 1.06901 0
M  V30 8185 N 759.743 -0.201713 -1.56304 0
M  V30 8186 C 760.991 0.434447 -1.97375 0
M  V30 8187 C 761.312 1.61692 -1.08998 0
M  V30 8188 O 760.582 1.95223 -0.162682 0
M  V30 8189 H 759.162 0.163497 -0.728888 0
M  V30 8190 H 761.824 -0.289988 -1.92731 0
M  V30 8191 H 760.92 0.774136 -3.02347 0
M  V30 8192 N 761.222 1.57436 0.0718424 0
M  V30 8193 C 762.45 1.91474 0.783932 0
M  V30 8194 C 762.865 0.797669 1.71122 0
M  V30 8195 O 762.222 -0.228989 1.81058 0
M  V30 8196 C 762.273 3.25259 1.57761 0
M  V30 8197 O 761.994 4.3267 0.687596 0
M  V30 8198 C 763.495 3.7331 2.3907 0
M  V30 8199 H 760.715 0.632901 0.222885 0
M  V30 8200 H 763.259 2.04457 0.0421262 0
M  V30 8201 H 761.414 3.13804 2.27169 0
M  V30 8202 H 761.828 5.09641 1.23962 0
M  V30 8203 H 763.302 4.69551 2.90216 0
M  V30 8204 H 763.779 3.02318 3.18591 0
M  V30 8205 H 764.385 3.8771 1.74818 0
M  V30 8206 N 762.7 -0.34323 1.53817 0
M  V30 8207 C 763.949 -1.08086 1.70295 0
M  V30 8208 C 764.262 -1.89794 0.47302 0
M  V30 8209 O 765.468 -2.66498 0.518754 0
M  V30 8210 C 763.924 -1.97097 3.01133 0
M  V30 8211 C 763.532 -1.20594 4.31464 0
M  V30 8212 C 765.276 -2.70715 3.26976 0
M  V30 8213 C 763.183 -2.08636 5.53376 0
M  V30 8214 H 762.113 -0.407228 0.634572 0
M  V30 8215 H 764.764 -0.340328 1.80316 0
M  V30 8216 H 763.146 -2.74971 2.84969 0
M  V30 8217 H 764.32 -0.476282 4.58332 0
M  V30 8218 H 762.635 -0.587426 4.12236 0
M  V30 8219 H 765.232 -3.36857 4.15248 0
M  V30 8220 H 765.575 -3.37299 2.43998 0
M  V30 8221 H 766.108 -1.99914 3.43917 0
M  V30 8222 H 762.847 -1.46594 6.38898 0
M  V30 8223 H 762.367 -2.7939 5.30755 0
M  V30 8224 H 764.046 -2.67682 5.89029 0
M  V30 8225 N 764.178 -1.45556 -0.604258 0
M  V30 8226 C 765.426 -1.4945 -1.36048 0
M  V30 8227 C 765.747 -0.138933 -1.94504 0
M  V30 8228 O 765.017 0.832097 -1.7735 0
M  V30 8229 H 763.597 -0.550381 -0.505064 0
M  V30 8230 H 766.259 -1.81535 -0.709308 0
M  V30 8231 H 765.355 -2.23519 -2.17821 0
M  V30 8232 N 765.656 0.84705 -1.32902 0
M  V30 8233 C 766.586 1.97166 -1.25091 0
M  V30 8234 C 767.567 1.69578 -0.133161 0
M  V30 8235 O 768.752 1.91519 -0.321591 0
M  V30 8236 C 765.882 3.33157 -0.981006 0
M  V30 8237 C 764.836 3.75119 -2.06082 0
M  V30 8238 C 764.162 5.08826 -1.64318 0
M  V30 8239 C 765.462 3.89774 -3.47669 0
M  V30 8240 H 767.156 2.03958 -2.19184 0
M  V30 8241 H 764.702 0.979907 -1.05517 0
M  V30 8242 H 766.655 4.11393 -0.912891 0
M  V30 8243 H 765.379 3.266 -0.00445559 0
M  V30 8244 H 764.038 2.9914 -2.11921 0
M  V30 8245 H 763.686 4.98732 -0.653876 0
M  V30 8246 H 763.386 5.37873 -2.36572 0
M  V30 8247 H 764.91 5.89546 -1.58958 0
M  V30 8248 H 766.324 4.58343 -3.44376 0
M  V30 8249 H 764.721 4.30248 -4.18338 0
M  V30 8250 H 765.791 2.92463 -3.86773 0
M  V30 8251 N 767.134 1.16236 1.06428 0
M  V30 8252 C 768.381 0.943034 1.79201 0
M  V30 8253 C 768.709 -0.529243 1.87161 0
M  V30 8254 O 767.964 -1.40874 1.35842 0
M  V30 8255 C 768.263 1.51396 3.2375 0
M  V30 8256 C 767.929 3.00833 3.35873 0
M  V30 8257 C 766.591 3.41626 3.38888 0
M  V30 8258 C 768.943 3.96825 3.37904 0
M  V30 8259 C 766.271 4.77033 3.4155 0
M  V30 8260 C 768.623 5.32116 3.42104 0
M  V30 8261 C 767.287 5.72392 3.43401 0
M  V30 8262 H 766.557 0.34508 0.655744 0
M  V30 8263 H 769.204 1.44929 1.25171 0
M  V30 8264 H 767.509 0.929114 3.80624 0
M  V30 8265 H 769.206 1.31996 3.78653 0
M  V30 8266 H 765.796 2.68306 3.3423 0
M  V30 8267 H 769.98 3.66376 3.34787 0
M  V30 8268 H 765.236 5.07569 3.40858 0
M  V30 8269 H 769.41 6.06286 3.42623 0
M  V30 8270 H 767.037 6.77296 3.45216 0
M  V30 8271 N 768.612 -1.24939 0.960631 0
M  V30 8272 C 769.542 -2.28 0.503815 0
M  V30 8273 C 770.523 -1.63959 -0.452928 0
M  V30 8274 O 771.708 -1.91009 -0.350585 0
M  V30 8275 C 768.838 -3.46643 -0.213535 0
M  V30 8276 C 767.792 -4.22903 0.658535 0
M  V30 8277 C 767.118 -5.34363 -0.189902 0
M  V30 8278 C 768.418 -4.84949 1.93963 0
M  V30 8279 H 770.112 -2.66462 1.36521 0
M  V30 8280 H 767.658 -1.28093 0.657897 0
M  V30 8281 H 769.611 -4.1787 -0.544286 0
M  V30 8282 H 768.335 -3.07187 -1.10923 0
M  V30 8283 H 766.994 -3.53467 0.972455 0
M  V30 8284 H 766.642 -4.91147 -1.08553 0
M  V30 8285 H 766.342 -5.86302 0.390331 0
M  V30 8286 H 767.866 -6.0842 -0.515484 0
M  V30 8287 H 769.28 -5.48288 1.67491 0
M  V30 8288 H 767.677 -5.47091 2.46601 0
M  V30 8289 H 768.747 -4.06799 2.639 0
M  V30 8290 N 770.09 -0.729906 -1.39679 0
M  V30 8291 C 771.501 -0.346241 -1.83461 0
M  V30 8292 C 771.852 1.1215 -1.60987 0
M  V30 8293 O 770.977 1.86456 -1.09832 0
M  V30 8294 C 771.572 -0.621656 -3.33048 0
M  V30 8295 C 770.131 -0.291543 -3.75269 0
M  V30 8296 C 769.278 -0.886844 -2.62736 0
M  V30 8297 H 772.229 -0.927949 -1.28743 0
M  V30 8298 H 772.25 0.108301 -3.80346 0
M  V30 8299 H 771.762 -1.68996 -3.49373 0
M  V30 8300 H 769.863 0.771133 -3.64533 0
M  V30 8301 H 769.976 -0.770544 -4.72863 0
M  V30 8302 H 768.34 -0.313839 -2.52759 0
M  V30 8303 H 769.123 -1.95971 -2.81869 0
M  V30 8304 N 771.568 1.50203 -0.477153 0
M  V30 8305 C 772.979 1.86685 -0.0235041 0
M  V30 8306 C 773.33 1.39148 1.38319 0
M  V30 8307 O 772.455 0.759051 2.02651 0
M  V30 8308 C 773.05 3.38781 -0.0358767 0
M  V30 8309 C 771.609 3.74652 0.362327 0
M  V30 8310 C 770.756 2.7412 -0.41875 0
M  V30 8311 H 773.707 1.4286 -0.691133 0
M  V30 8312 H 773.728 3.72732 0.764924 0
M  V30 8313 H 773.24 3.73349 -1.05981 0
M  V30 8314 H 771.341 3.45686 1.39039 0
M  V30 8315 H 771.454 4.79063 0.059457 0
M  V30 8316 H 769.818 2.54376 0.128341 0
M  V30 8317 H 770.601 3.11532 -1.44231 0
M  V30 8318 N 773.046 0.209999 1.56195 0
M  V30 8319 C 774.293 -0.424813 1.97994 0
M  V30 8320 C 774.621 -1.60589 1.09733 0
M  V30 8321 O 773.876 -1.95201 0.139693 0
M  V30 8322 C 774.175 -0.91312 3.45539 0
M  V30 8323 C 773.841 0.156187 4.50629 0
M  V30 8324 C 772.503 0.449966 4.79092 0
M  V30 8325 C 774.855 0.879959 5.13718 0
M  V30 8326 C 772.183 1.47223 5.67928 0
M  V30 8327 C 774.535 1.89148 6.0366 0
M  V30 8328 C 773.199 2.1923 6.30472 0
M  V30 8329 H 772.469 -0.15545 0.724511 0
M  V30 8330 H 775.116 0.310095 1.88973 0
M  V30 8331 H 773.421 -1.72658 3.51705 0
M  V30 8332 H 775.118 -1.41395 3.75245 0
M  V30 8333 H 771.708 -0.0829466 4.2852 0
M  V30 8334 H 775.892 0.66623 4.91808 0
M  V30 8335 H 771.148 1.71105 5.86969 0
M  V30 8336 H 775.322 2.45745 6.516 0
M  V30 8337 H 772.949 2.98587 6.99107 0
M  V30 8338 N 774.524 -1.57472 -0.0634922 0
M  V30 8339 C 775.454 -2.07297 -1.07473 0
M  V30 8340 C 776.435 -0.968162 -1.39859 0
M  V30 8341 O 777.62 -1.24139 -1.49343 0
M  V30 8342 C 774.75 -2.52381 -2.38581 0
M  V30 8343 C 773.704 -3.66813 -2.20526 0
M  V30 8344 C 773.03 -3.97982 -3.57092 0
M  V30 8345 C 774.33 -4.96553 -1.61965 0
M  V30 8346 H 776.024 -2.92033 -0.660092 0
M  V30 8347 H 773.57 -1.40488 -0.316074 0
M  V30 8348 H 775.523 -2.85852 -3.09624 0
M  V30 8349 H 774.247 -1.64684 -2.8204 0
M  V30 8350 H 772.906 -3.33639 -1.51924 0
M  V30 8351 H 772.554 -3.07403 -3.98136 0
M  V30 8352 H 772.254 -4.7504 -3.45848 0
M  V30 8353 H 773.778 -4.33956 -4.29552 0
M  V30 8354 H 775.192 -5.28201 -2.22883 0
M  V30 8355 H 773.589 -5.7799 -1.61394 0
M  V30 8356 H 774.659 -4.81396 -0.581918 0
M  V30 8357 N 776.003 0.335068 -1.53997 0
M  V30 8358 C 776.966 1.39481 -1.81872 0
M  V30 8359 C 777.966 1.4524 -0.690078 0
M  V30 8360 O 779.156 1.45467 -0.958377 0
M  V30 8361 C 776.288 2.78329 -1.9684 0
M  V30 8362 H 777.481 1.16024 -2.76547 0
M  V30 8363 H 775.034 0.569926 -1.45539 0
M  V30 8364 H 775.769 3.07058 -1.04337 0
M  V30 8365 H 775.554 2.75544 -2.78958 0
M  V30 8366 H 777.044 3.55016 -2.19894 0
M  V30 8367 N 777.481 1.45874 0.596531 0
M  V30 8368 C 778.729 1.5017 1.35253 0
M  V30 8369 C 779.05 0.149246 1.94428 0
M  V30 8370 O 778.32 -0.82268 1.77789 0
M  V30 8371 H 776.9 0.553052 0.502138 0
M  V30 8372 H 779.562 1.81908 0.699671 0
M  V30 8373 H 778.658 2.24671 2.16632 0
M  V30 8374 N 778.959 -0.83999 1.33349 0
M  V30 8375 C 779.892 -1.95415 1.17848 0
M  V30 8376 C 780.87 -1.6243 0.0742296 0
M  V30 8377 O 782.054 -1.87014 0.23626 0
M  V30 8378 C 779.181 -3.28938 0.807295 0
M  V30 8379 C 778.227 -3.80895 1.91888 0
M  V30 8380 S 779.06 -4.02709 3.52967 0
M  V30 8381 C 780.216 -5.39185 3.17853 0
M  V30 8382 H 780.449 -2.08265 2.12162 0
M  V30 8383 H 777.982 -0.993643 1.18178 0
M  V30 8384 H 779.94 -4.06093 0.599914 0
M  V30 8385 H 778.601 -3.13881 -0.117234 0
M  V30 8386 H 777.794 -4.77508 1.6125 0
M  V30 8387 H 777.396 -3.10633 2.08286 0
M  V30 8388 H 779.688 -6.21978 2.68608 0
M  V30 8389 H 780.631 -5.74795 4.13542 0
M  V30 8390 H 781.039 -5.03885 2.5448 0
M  V30 8391 N 780.437 -1.16799 -1.0581 0
M  V30 8392 C 781.686 -0.94698 -1.78088 0
M  V30 8393 C 781.999 0.526016 -1.88394 0
M  V30 8394 O 783.205 0.865061 -2.5735 0
M  V30 8395 C 781.661 -1.64508 -3.20102 0
M  V30 8396 C 781.269 -3.15618 -3.17946 0
M  V30 8397 C 783.013 -1.50622 -3.96879 0
M  V30 8398 C 780.92 -3.78144 -4.5471 0
M  V30 8399 H 779.85 -0.35067 -0.667493 0
M  V30 8400 H 782.501 -1.39985 -1.18645 0
M  V30 8401 H 780.883 -1.11993 -3.79834 0
M  V30 8402 H 782.057 -3.75016 -2.67768 0
M  V30 8403 H 780.372 -3.29444 -2.54667 0
M  V30 8404 H 782.969 -1.94713 -4.97987 0
M  V30 8405 H 783.312 -0.455864 -4.13797 0
M  V30 8406 H 783.845 -2.00319 -3.43682 0
M  V30 8407 H 780.584 -4.83149 -4.42998 0
M  V30 8408 H 780.104 -3.23532 -5.05062 0
M  V30 8409 H 781.783 -3.79986 -5.2366 0
M  V30 8410 O 781.954 1.1855 -1.09673 0
M  V30 8411 H 782.645 1.76666 -0.794287 0
M  V30 END ATOM
M  V30 BEGIN BOND
M  V30 END BOND
M  V30 END CTAB
M  END
$$$$
