drugbank_target|P10912 Growth hormone receptor (DB00052; DB00082; DB09098; DB15093)
 OpenBabel12092119233D

  0  0  0     0  0            999 V3000
M  V30 BEGIN CTAB
M  V30 COUNTS 9887 10013 0 0 0
M  V30 BEGIN ATOM
M  V30 1 H -0.908 1.98254 -0.117106 0
M  V30 2 N 0 1.576 0 0
M  V30 3 C 0.933 2.03868 1.02534 0
M  V30 4 C 1.911 0.928543 1.3348 0
M  V30 5 O 3.095 1.19667 1.45644 0
M  V30 6 C 0.222 2.43627 2.35294 0
M  V30 7 C -0.732 3.65373 2.2001 0
M  V30 8 S 0.101 5.13292 1.52614 0
M  V30 9 C 1.257 5.56322 2.86805 0
M  V30 10 H 1.49 2.90518 0.631377 0
M  V30 11 H -0.977 1.52953 0.210867 0
M  V30 12 H 0.981 2.67203 3.11629 0
M  V30 13 H -0.358 1.57376 2.7183 0
M  V30 14 H -1.165 3.90944 3.18086 0
M  V30 15 H -1.563 3.418 1.51819 0
M  V30 16 H 0.729 5.58782 3.83104 0
M  V30 17 H 1.672 6.56266 2.65933 0
M  V30 18 H 2.08 4.83886 2.90714 0
M  V30 19 N 1.4781 -0.272755 1.55222 0
M  V30 20 C 2.7551 -1.02562 1.66555 0
M  V30 21 C 3.1351 -2.04282 0.532189 0
M  V30 22 O 2.4831 -2.23662 -0.467717 0
M  V30 23 C 2.6931 -1.6822 3.05782 0
M  V30 24 C 4.0411 -2.19373 3.63539 0
M  V30 25 O 5.0651 -1.78206 3.08417 0
M  V30 26 O 3.9241 -2.94883 4.60115 0
M  V30 27 H 1.0181 -0.475755 0.676451 0
M  V30 28 H 3.5641 -0.268593 1.67561 0
M  V30 29 H 2.3361 -0.945112 3.79715 0
M  V30 30 H 1.9591 -2.50609 3.08676 0
M  V30 31 N 2.9562 -1.48159 -0.537278 0
M  V30 32 C 3.8862 -1.65029 -1.6519 0
M  V30 33 C 4.8672 -0.499281 -1.62607 0
M  V30 34 O 6.0522 -0.730972 -1.79918 0
M  V30 35 C 3.1822 -1.68303 -3.03795 0
M  V30 36 C 2.1362 -2.8283 -3.21234 0
M  V30 37 C 1.4622 -2.71189 -4.60826 0
M  V30 38 C 2.7622 -4.24211 -3.04701 0
M  V30 39 H 4.4562 -2.58341 -1.51328 0
M  V30 40 H 2.0022 -1.24325 -0.726585 0
M  V30 41 H 3.9552 -1.78693 -3.81637 0
M  V30 42 H 2.6792 -0.715635 -3.18663 0
M  V30 43 H 1.3382 -2.71983 -2.45807 0
M  V30 44 H 0.9862 -1.72435 -4.7252 0
M  V30 45 H 0.6862 -3.48035 -4.7344 0
M  V30 46 H 2.2102 -2.83537 -5.40777 0
M  V30 47 H 3.6242 -4.3593 -3.72341 0
M  V30 48 H 2.0212 -5.01998 -3.28813 0
M  V30 49 H 3.0912 -4.41184 -2.01209 0
M  V30 50 N 4.4343 0.785586 -1.36625 0
M  V30 51 C 5.6803 1.5452 -1.32269 0
M  V30 52 C 6.0353 1.92159 0.0962266 0
M  V30 53 O 5.3283 1.60158 1.05167 0
M  V30 54 C 5.5223 2.83007 -2.1827 0
M  V30 55 C 5.3513 2.57925 -3.68382 0
M  V30 56 C 4.1213 2.52752 -4.37544 0
M  V30 57 C 6.3193 2.26861 -4.61561 0
M  V30 58 N 4.3013 2.19608 -5.73276 0
M  V30 59 C 5.6723 2.03738 -5.85569 0
M  V30 60 C 7.7273 2.129 -4.50087 0
M  V30 61 C 6.4303 1.68065 -6.9939 0
M  V30 62 C 8.4563 1.78626 -5.63779 0
M  V30 63 C 7.8183 1.56353 -6.86828 0
M  V30 64 H 3.9173 0.566301 -0.539283 0
M  V30 65 H 6.5013 0.917736 -1.71714 0
M  V30 66 H 4.6723 3.43614 -1.81063 0
M  V30 67 H 6.4043 3.48775 -2.05275 0
M  V30 68 H 3.1593 2.6813 -3.90389 0
M  V30 69 H 3.5833 2.05771 -6.44971 0
M  V30 70 H 8.2253 2.28808 -3.55537 0
M  V30 71 H 5.9433 1.50895 -7.93887 0
M  V30 72 H 9.5293 1.68502 -5.56865 0
M  V30 73 H 8.4093 1.30223 -7.73312 0
M  V30 74 N 5.9124 1.20967 1.01018 0
M  V30 75 C 6.8444 0.922059 2.09835 0
M  V30 76 C 7.8574 -0.0927106 1.62536 0
M  V30 77 O 9.0464 0.139127 1.77957 0
M  V30 78 C 6.1464 0.362004 3.36961 0
M  V30 79 C 5.3194 1.42986 4.13369 0
M  V30 80 C 4.3784 0.879976 5.1879 0
M  V30 81 O 3.4044 1.56219 5.47343 0
M  V30 82 N 4.6064 -0.307396 5.79686 0
M  V30 83 H 7.3714 1.8588 2.35093 0
M  V30 84 H 4.9324 1.11422 1.1746 0
M  V30 85 H 6.9244 -0.0201474 4.04695 0
M  V30 86 H 5.4944 -0.479437 3.08902 0
M  V30 87 H 4.7144 1.98608 3.40512 0
M  V30 88 H 6.0024 2.14885 4.61196 0
M  V30 89 H 5.4004 -0.878796 5.58832 0
M  V30 90 H 3.9574 -0.631115 6.48737 0
M  V30 91 N 7.3905 -1.2043 1.01659 0
M  V30 92 C 8.3205 -2.25466 0.607226 0
M  V30 93 C 9.3015 -1.65853 -0.377716 0
M  V30 94 O 10.4865 -1.92409 -0.263149 0
M  V30 95 C 7.6165 -3.47256 -0.0552949 0
M  V30 96 C 6.5705 -4.19462 0.850632 0
M  V30 97 C 5.8965 -5.34673 0.0538859 0
M  V30 98 C 7.1965 -4.75603 2.15868 0
M  V30 99 H 8.8905 -2.59962 1.48526 0
M  V30 100 H 6.4365 -1.2496 0.715605 0
M  V30 101 H 8.3895 -4.19917 -0.353233 0
M  V30 102 H 7.1135 -3.11924 -0.968045 0
M  V30 103 H 5.7725 -3.48667 1.13257 0
M  V30 104 H 5.4205 -4.95585 -0.860514 0
M  V30 105 H 5.1205 -5.83913 0.657192 0
M  V30 106 H 6.6445 -6.10138 -0.237598 0
M  V30 107 H 8.0585 -5.40083 1.92311 0
M  V30 108 H 6.4555 -5.3528 2.71284 0
M  V30 109 H 7.5255 -3.94346 2.82169 0
M  V30 110 N 8.8686 -0.792821 -1.36206 0
M  V30 111 C 9.7986 -0.207853 -2.32573 0
M  V30 112 C 10.7796 0.659055 -1.56813 0
M  V30 113 O 11.9646 0.592176 -1.84951 0
M  V30 114 C 9.0946 0.655449 -3.41059 0
M  V30 115 C 8.0486 -0.111842 -4.27854 0
M  V30 116 C 7.3746 0.872274 -5.27537 0
M  V30 117 C 8.6746 -1.30299 -5.05786 0
M  V30 118 H 10.3686 -1.01294 -2.81744 0
M  V30 119 H 7.9146 -0.48854 -1.3546 0
M  V30 120 H 9.8676 1.07464 -4.07467 0
M  V30 121 H 8.5916 1.49328 -2.90463 0
M  V30 122 H 7.2506 -0.512053 -3.63006 0
M  V30 123 H 6.8986 1.70523 -4.73214 0
M  V30 124 H 6.5986 0.363291 -5.86476 0
M  V30 125 H 8.1226 1.28996 -5.96818 0
M  V30 126 H 9.5366 -0.959379 -5.65216 0
M  V30 127 H 7.9336 -1.7455 -5.74154 0
M  V30 128 H 9.0036 -2.09663 -4.37229 0
M  V30 129 N 10.3467 1.47872 -0.545128 0
M  V30 130 C 11.2767 2.32661 0.197793 0
M  V30 131 C 12.2577 1.43041 0.920504 0
M  V30 132 O 13.4427 1.71912 0.90333 0
M  V30 133 C 10.5727 3.24569 1.23582 0
M  V30 134 C 9.5267 4.23333 0.630323 0
M  V30 135 C 8.8527 5.0448 1.77211 0
M  V30 136 C 10.1527 5.20704 -0.407974 0
M  V30 137 H 11.8467 2.95024 -0.510045 0
M  V30 138 H 9.3927 1.4187 -0.246731 0
M  V30 139 H 11.3457 3.8272 1.76362 0
M  V30 140 H 10.0697 2.60236 1.97344 0
M  V30 141 H 8.7287 3.6639 0.123922 0
M  V30 142 H 8.3767 4.36561 2.49847 0
M  V30 143 H 8.0767 5.71339 1.37281 0
M  V30 144 H 9.6007 5.65487 2.3034 0
M  V30 145 H 11.0147 5.7329 0.033305 0
M  V30 146 H 9.4117 5.95699 -0.725486 0
M  V30 147 H 10.4817 4.66917 -1.30828 0
M  V30 148 N 11.8248 0.280983 1.55075 0
M  V30 149 C 13.0528 -0.337293 2.04132 0
M  V30 150 C 13.4678 -1.4903 1.15912 0
M  V30 151 O 12.8248 -1.81606 0.180459 0
M  V30 152 C 12.8758 -0.812706 3.52246 0
M  V30 153 O 12.5968 0.294387 4.3711 0
M  V30 154 C 14.0978 -1.4982 4.17216 0
M  V30 155 H 11.3178 -0.0761638 0.666663 0
M  V30 156 H 13.8618 0.414787 2.00249 0
M  V30 157 H 12.0168 -1.51486 3.56554 0
M  V30 158 H 12.4308 -0.0721325 5.2445 0
M  V30 159 H 13.9048 -1.7822 5.22438 0
M  V30 160 H 14.3818 -2.43168 3.65741 0
M  V30 161 H 14.9878 -0.839742 4.16927 0
M  V30 162 N 13.3029 -1.57598 0.00835791 0
M  V30 163 C 14.2329 -2.1198 -0.979113 0
M  V30 164 C 15.2139 -1.03091 -1.35301 0
M  V30 165 O 16.3989 -1.30818 -1.43528 0
M  V30 166 C 13.5289 -2.62995 -2.26828 0
M  V30 167 C 12.4829 -3.76485 -2.03576 0
M  V30 168 C 11.8089 -4.13846 -3.38579 0
M  V30 169 C 13.1089 -5.0342 -1.39161 0
M  V30 170 H 14.8029 -2.94738 -0.526281 0
M  V30 171 H 12.3489 -1.41783 -0.251704 0
M  V30 172 H 14.3019 -2.99669 -2.96271 0
M  V30 173 H 13.0259 -1.7737 -2.7424 0
M  V30 174 H 11.6849 -3.40217 -1.36557 0
M  V30 175 H 11.3329 -3.25232 -3.83709 0
M  V30 176 H 11.0329 -4.90312 -3.23834 0
M  V30 177 H 12.5569 -4.53086 -4.09323 0
M  V30 178 H 13.9709 -5.37812 -1.98573 0
M  V30 179 H 12.3679 -5.84746 -1.34878 0
M  V30 180 H 13.4379 -4.83548 -0.361868 0
M  V30 181 N 14.781 0.264519 -1.55364 0
M  V30 182 C 15.744 1.31046 -1.88042 0
M  V30 183 C 16.744 1.41943 -0.755569 0
M  V30 184 O 17.934 1.40947 -1.02369 0
M  V30 185 C 15.066 2.69067 -2.09323 0
M  V30 186 H 16.259 1.03297 -2.81549 0
M  V30 187 H 13.812 0.502989 -1.47986 0
M  V30 188 H 14.547 3.01982 -1.18226 0
M  V30 189 H 14.332 2.62542 -2.91229 0
M  V30 190 H 15.822 3.44623 -2.35848 0
M  V30 191 N 16.2591 1.48442 0.529413 0
M  V30 192 C 17.1891 1.65902 1.64313 0
M  V30 193 C 18.1701 0.507897 1.6234 0
M  V30 194 O 19.3551 0.740503 1.79528 0
M  V30 195 C 16.4851 1.69911 3.02898 0
M  V30 196 C 15.4391 2.8453 3.19729 0
M  V30 197 C 14.7651 2.73629 4.59381 0
M  V30 198 C 16.0651 4.25821 3.02447 0
M  V30 199 H 17.7591 2.5914 1.49955 0
M  V30 200 H 15.3051 1.24709 0.719982 0
M  V30 201 H 17.2581 1.80715 3.80684 0
M  V30 202 H 15.9821 0.732524 3.18279 0
M  V30 203 H 14.6411 2.73283 2.44361 0
M  V30 204 H 14.2891 1.74938 4.71599 0
M  V30 205 H 13.9891 3.50541 4.71588 0
M  V30 206 H 15.5131 2.86401 5.39265 0
M  V30 207 H 16.9271 4.37898 3.70024 0
M  V30 208 H 15.3241 5.03735 3.26146 0
M  V30 209 H 16.3941 4.42244 1.98867 0
M  V30 210 N 17.7372 -0.778329 1.37039 0
M  V30 211 C 18.7002 -1.87301 1.32102 0
M  V30 212 C 19.7002 -1.59198 0.226405 0
M  V30 213 O 20.8902 -1.67403 0.481861 0
M  V30 214 C 18.0222 -3.24309 1.05055 0
M  V30 215 H 19.2152 -1.93093 2.29467 0
M  V30 216 H 16.7682 -0.977358 1.21973 0
M  V30 217 H 17.5032 -3.24196 0.0819373 0
M  V30 218 H 17.2882 -3.46098 1.84279 0
M  V30 219 H 18.7782 -4.04382 1.04234 0
M  V30 220 N 19.2153 -1.21501 -1.00376 0
M  V30 221 C 20.4633 -1.03095 -1.73827 0
M  V30 222 C 20.7843 0.436341 -1.90055 0
M  V30 223 O 20.0543 1.31466 -1.45236 0
M  V30 224 H 18.6343 -0.378487 -0.644016 0
M  V30 225 H 21.2963 -1.52831 -1.20949 0
M  V30 226 H 20.3923 -1.49991 -2.73695 0
M  V30 227 N 20.6934 1.19889 -1.02296 0
M  V30 228 C 21.9184 1.9393 -0.735237 0
M  V30 229 C 22.3434 1.74639 0.698782 0
M  V30 230 O 21.7014 1.04481 1.48167 0
M  V30 231 C 21.7494 3.43916 -1.08417 0
M  V30 232 O 20.8534 4.11917 -0.199446 0
M  V30 233 H 20.1944 0.605645 -0.272196 0
M  V30 234 H 22.7244 1.52137 -1.36804 0
M  V30 235 H 22.7344 3.9456 -1.03856 0
M  V30 236 H 21.4094 3.5728 -2.12894 0
M  V30 237 H 19.9864 3.71666 -0.303136 0
M  V30 238 N 22.1715 0.800033 1.35784 0
M  V30 239 C 23.3965 0.388511 2.03729 0
M  V30 240 C 23.8215 -0.990481 1.5991 0
M  V30 241 O 23.1795 -1.64013 0.772612 0
M  V30 242 C 23.2275 0.4726 3.5749 0
M  V30 243 O 22.3315 -0.51646 4.09153 0
M  V30 244 H 21.6725 0.163271 0.643614 0
M  V30 245 H 24.2025 1.0841 1.73518 0
M  V30 246 H 24.2125 0.34003 4.06581 0
M  V30 247 H 22.8875 1.47848 3.88734 0
M  V30 248 H 21.4645 -0.344673 3.71304 0
M  V30 249 N 23.6496 -1.47581 0.552962 0
M  V30 250 C 24.9266 -1.95563 -0.0381515 0
M  V30 251 C 25.3066 -1.49552 -1.48988 0
M  V30 252 O 24.6546 -0.732414 -2.16444 0
M  V30 253 C 24.8646 -3.48848 0.102919 0
M  V30 254 C 26.2126 -4.24577 -0.0446082 0
M  V30 255 O 27.2366 -3.56187 0.0302548 0
M  V30 256 O 26.0956 -5.46116 -0.204923 0
M  V30 257 H 23.1896 -0.824321 -0.0665067 0
M  V30 258 H 25.7356 -1.58001 0.619186 0
M  V30 259 H 24.5076 -3.75129 1.11328 0
M  V30 260 H 24.1306 -3.93165 -0.592224 0
M  V30 261 N 25.1277 -0.289203 -1.54924 0
M  V30 262 C 26.0907 0.579144 -2.21762 0
M  V30 263 C 27.0907 1.07047 -1.1999 0
M  V30 264 O 28.2807 0.968384 -1.44803 0
M  V30 265 C 25.4127 1.80055 -2.8947 0
M  V30 266 H 26.6057 -0.00464908 -2.999 0
M  V30 267 H 24.1587 -0.0399306 -1.56249 0
M  V30 268 H 24.8937 2.42449 -2.15381 0
M  V30 269 H 24.6787 1.45602 -3.64064 0
M  V30 270 H 26.1687 2.41773 -3.40493 0
M  V30 271 N 26.6058 1.57591 -0.0167156 0
M  V30 272 C 27.8528 1.91283 0.664597 0
M  V30 273 C 28.1808 0.891949 1.72842 0
M  V30 274 O 27.4358 -0.100931 1.9544 0
M  V30 275 C 27.7348 3.3172 1.33029 0
M  V30 276 C 27.4008 4.4914 0.398047 0
M  V30 277 C 26.0628 4.80992 0.141421 0
M  V30 278 C 28.4148 5.20634 -0.242825 0
M  V30 279 C 25.7428 5.81703 -0.764092 0
M  V30 280 C 28.0948 6.22311 -1.13632 0
M  V30 281 C 26.7588 6.52611 -1.40196 0
M  V30 282 H 26.0288 0.699956 0.243193 0
M  V30 283 H 28.6758 1.9135 -0.0758267 0
M  V30 284 H 26.9808 3.27856 2.14517 0
M  V30 285 H 28.6778 3.55055 1.86379 0
M  V30 286 H 25.2678 4.24262 0.608238 0
M  V30 287 H 29.4518 4.96267 -0.0576019 0
M  V30 288 H 24.7078 6.03532 -0.977732 0
M  V30 289 H 28.8818 6.76834 -1.63917 0
M  V30 290 H 26.5088 7.30467 -2.10529 0
M  V30 291 N 28.0839 -0.256276 1.55502 0
M  V30 292 C 29.3089 -1.00766 1.81276 0
M  V30 293 C 29.7339 -1.78524 0.59252 0
M  V30 294 O 29.0919 -1.75413 -0.45827 0
M  V30 295 C 29.1399 -1.92869 3.04687 0
M  V30 296 O 28.2439 -3.019 2.80945 0
M  V30 297 H 27.5849 -0.287224 0.598664 0
M  V30 298 H 30.1149 -0.280109 2.02674 0
M  V30 299 H 30.1249 -2.34511 3.33869 0
M  V30 300 H 28.7999 -1.35689 3.93143 0
M  V30 301 H 27.3769 -2.64454 2.62904 0
M  V30 302 N 29.562 -1.4872 -0.521534 0
M  V30 303 C 30.81 -1.56857 -1.27437 0
M  V30 304 C 31.131 -0.247982 -1.93417 0
M  V30 305 O 30.401 0.731151 -1.81744 0
M  V30 306 H 28.981 -0.577885 -0.473347 0
M  V30 307 H 31.643 -1.85233 -0.606205 0
M  V30 308 H 30.739 -2.35402 -2.0492 0
M  V30 309 N 31.0401 0.771051 -1.3745 0
M  V30 310 C 32.2651 1.56529 -1.36065 0
M  V30 311 C 32.6901 1.88029 0.0515859 0
M  V30 312 O 32.0481 1.49282 1.02882 0
M  V30 313 C 32.0961 2.85187 -2.20683 0
M  V30 314 O 31.2001 3.79593 -1.61193 0
M  V30 315 H 30.5411 0.47411 -0.464883 0
M  V30 316 H 33.0711 0.954269 -1.80983 0
M  V30 317 H 33.0811 3.34283 -2.33921 0
M  V30 318 H 31.7561 2.61588 -3.23334 0
M  V30 319 H 30.3331 3.38239 -1.56999 0
M  V30 320 N 32.5182 1.22032 0.997298 0
M  V30 321 C 33.4282 1.00271 2.12092 0
M  V30 322 C 34.4442 -0.047621 1.73935 0
M  V30 323 O 35.6202 0.144136 2.00884 0
M  V30 324 C 32.6852 0.578449 3.4184 0
M  V30 325 C 31.7462 1.70189 3.94125 0
M  V30 326 C 30.9792 1.29778 5.17681 0
M  V30 327 O 31.2022 0.174676 5.70132 0
M  V30 328 O 30.1362 2.11261 5.63607 0
M  V30 329 H 33.9622 1.94398 2.3333 0
M  V30 330 H 31.5472 1.00587 1.10465 0
M  V30 331 H 33.4292 0.351998 4.19927 0
M  V30 332 H 32.1042 -0.334019 3.21972 0
M  V30 333 H 31.0112 1.98282 3.1723 0
M  V30 334 H 32.3442 2.59206 4.18417 0
M  V30 335 N 33.9963 -1.19345 1.0293 0
M  V30 336 C 34.9593 -2.20793 0.615069 0
M  V30 337 C 35.9593 -1.57553 -0.321533 0
M  V30 338 O 37.1493 -1.73862 -0.108483 0
M  V30 339 C 34.2813 -3.40754 -0.0999222 0
M  V30 340 H 35.4743 -2.58955 1.51269 0
M  V30 341 H 33.0273 -1.3303 0.820534 0
M  V30 342 H 33.7623 -3.0811 -1.01187 0
M  V30 343 H 33.5473 -3.87889 0.57309 0
M  V30 344 H 35.0373 -4.15898 -0.376645 0
M  V30 345 N 35.4744 -0.807222 -1.35358 0
M  V30 346 C 36.7024 -0.400377 -2.02989 0
M  V30 347 C 37.1174 0.988859 -1.60832 0
M  V30 348 O 36.4744 1.63729 -0.806175 0
M  V30 349 C 36.5254 -0.474867 -3.58368 0
M  V30 350 O 36.2464 -1.80933 -3.98992 0
M  V30 351 C 37.7474 -0.0609112 -4.43258 0
M  V30 352 H 34.9674 -0.162587 -0.651004 0
M  V30 353 H 37.5114 -1.09102 -1.72965 0
M  V30 354 H 35.6664 0.167534 -3.87038 0
M  V30 355 H 36.0804 -1.77256 -4.9364 0
M  V30 356 H 37.5544 -0.164145 -5.51756 0
M  V30 357 H 38.0314 0.993831 -4.27808 0
M  V30 358 H 38.6374 -0.676492 -4.19885 0
M  V30 359 N 36.9525 1.47285 -0.560781 0
M  V30 360 C 37.9155 2.28535 0.174488 0
M  V30 361 C 38.9155 1.37153 0.839388 0
M  V30 362 O 40.1055 1.59748 0.694702 0
M  V30 363 C 37.2375 3.16934 1.25561 0
M  V30 364 H 38.4305 2.95012 -0.539262 0
M  V30 365 H 35.9835 1.53034 -0.317865 0
M  V30 366 H 36.7185 2.55157 2.00164 0
M  V30 367 H 36.5035 3.8419 0.783604 0
M  V30 368 H 37.9935 3.78143 1.77193 0
M  V30 369 N 38.4306 0.297415 1.54768 0
M  V30 370 C 39.3936 -0.567375 2.22066 0
M  V30 371 C 40.3936 -1.06409 1.20556 0
M  V30 372 O 41.5836 -0.960691 1.45315 0
M  V30 373 C 38.7156 -1.78517 2.90421 0
M  V30 374 H 39.9086 0.0205534 2.99893 0
M  V30 375 H 37.4616 0.0482163 1.56226 0
M  V30 376 H 38.1966 -2.41303 2.16664 0
M  V30 377 H 37.9816 -1.43669 3.64831 0
M  V30 378 H 39.4716 -2.39964 3.41771 0
M  V30 379 N 39.9087 -1.5758 0.0250728 0
M  V30 380 C 41.1577 -1.90811 -0.653767 0
M  V30 381 C 41.4707 -0.90273 -1.73523 0
M  V30 382 O 42.6767 -1.12614 -2.47043 0
M  V30 383 C 41.1327 -3.38804 -1.21409 0
M  V30 384 C 40.7407 -4.47692 -0.166126 0
M  V30 385 C 42.4847 -3.81108 -1.86967 0
M  V30 386 C 40.3917 -5.86779 -0.737856 0
M  V30 387 H 39.3217 -0.712063 -0.247956 0
M  V30 388 H 41.9727 -1.83281 0.0897137 0
M  V30 389 H 40.3547 -3.41252 -2.00905 0
M  V30 390 H 41.5287 -4.56797 0.606079 0
M  V30 391 H 39.8437 -4.14565 0.390466 0
M  V30 392 H 42.4407 -4.82375 -2.30692 0
M  V30 393 H 42.7837 -3.15953 -2.71071 0
M  V30 394 H 43.3167 -3.81065 -1.14167 0
M  V30 395 H 40.0557 -6.55468 0.0649577 0
M  V30 396 H 39.5757 -5.81288 -1.47864 0
M  V30 397 H 41.2547 -6.35223 -1.22884 0
M  V30 398 N 41.3868 0.248026 -1.55636 0
M  V30 399 C 42.3168 1.31079 -1.93237 0
M  V30 400 C 43.2978 1.50264 -0.797174 0
M  V30 401 O 44.4828 1.62891 -1.05737 0
M  V30 402 C 41.6128 2.66575 -2.22609 0
M  V30 403 C 40.5668 2.62087 -3.3837 0
M  V30 404 C 39.8928 4.01369 -3.53281 0
M  V30 405 C 41.1928 2.19171 -4.7409 0
M  V30 406 H 42.8868 0.998556 -2.82257 0
M  V30 407 H 40.4328 0.47891 -1.35803 0
M  V30 408 H 42.3858 3.41057 -2.47503 0
M  V30 409 H 41.1098 2.99432 -1.30414 0
M  V30 410 H 39.7688 1.90063 -3.13483 0
M  V30 411 H 39.4168 4.31489 -2.58508 0
M  V30 412 H 39.1168 3.99254 -4.31127 0
M  V30 413 H 40.6408 4.77552 -3.80495 0
M  V30 414 H 42.0548 2.83384 -4.98363 0
M  V30 415 H 40.4518 2.2817 -5.5503 0
M  V30 416 H 41.5218 1.14336 -4.71227 0
M  V30 417 N 42.8649 1.48995 0.513639 0
M  V30 418 C 44.0899 1.61792 1.29762 0
M  V30 419 C 44.5149 0.284475 1.85936 0
M  V30 420 O 43.8729 -0.746185 1.65232 0
M  V30 421 C 43.9209 2.67993 2.41272 0
M  V30 422 O 43.0249 2.26287 3.44772 0
M  V30 423 H 42.3659 0.541963 0.38363 0
M  V30 424 H 44.8959 1.95097 0.616307 0
M  V30 425 H 44.9059 2.89772 2.87221 0
M  V30 426 H 43.5809 3.64791 1.9975 0
M  V30 427 H 42.1579 2.14788 3.04829 0
M  V30 428 N 44.343 -0.763751 1.37857 0
M  V30 429 C 45.759 -1.06542 1.18832 0
M  V30 430 C 45.959 -2.01478 0.0299722 0
M  V30 431 O 45.015 -2.4458 -0.627447 0
M  V30 432 C 46.328 -1.65525 2.51042 0
M  V30 433 C 47.876 -1.77745 2.57635 0
M  V30 434 C 48.351 -2.4014 3.89996 0
M  V30 435 N 49.842 -2.47582 3.91481 0
M  V30 436 C 50.577 -2.96732 4.9065 0
M  V30 437 N 50.073 -3.45993 6.00217 0
M  V30 438 N 51.866 -2.95679 4.78048 0
M  V30 439 H 44.017 -0.133556 2.1198 0
M  V30 440 H 46.28 -0.121879 0.940133 0
M  V30 441 H 45.986 -1.03236 3.36207 0
M  V30 442 H 45.86 -2.64719 2.68707 0
M  V30 443 H 48.247 -2.39164 1.72872 0
M  V30 444 H 48.328 -0.772836 2.43846 0
M  V30 445 H 47.972 -1.79358 4.75177 0
M  V30 446 H 47.902 -3.41223 4.01092 0
M  V30 447 H 50.393 -2.1273 3.12337 0
M  V30 448 H 50.706 -3.81922 6.7183 0
M  V30 449 H 49.051 -3.44077 6.03851 0
M  V30 450 H 52.242 -2.56499 3.91568 0
M  V30 451 H 52.415 -3.33672 5.55488 0
M  V30 452 N 45.8211 -1.22559 -0.990812 0
M  V30 453 C 46.7841 -0.998863 -2.0629 0
M  V30 454 C 47.7841 0.0354834 -1.60761 0
M  V30 455 O 48.9741 -0.203231 -1.7301 0
M  V30 456 C 46.1061 -0.509203 -3.37076 0
M  V30 457 H 47.2991 -1.95014 -2.27837 0
M  V30 458 H 44.8521 -1.04456 -1.16269 0
M  V30 459 H 45.5871 0.446335 -3.21214 0
M  V30 460 H 45.3721 -1.25547 -3.71457 0
M  V30 461 H 46.8621 -0.370888 -4.1595 0
M  V30 462 N 47.2992 1.18797 -1.03562 0
M  V30 463 C 48.7102 1.70322 -0.764676 0
M  V30 464 C 49.0612 1.82708 0.714996 0
M  V30 465 O 48.1862 1.50299 1.55689 0
M  V30 466 C 48.7812 3.09356 -1.38145 0
M  V30 467 C 47.3402 3.58114 -1.15895 0
M  V30 468 C 46.4872 2.34798 -1.4753 0
M  V30 469 H 49.4382 1.03543 -1.20268 0
M  V30 470 H 49.4592 3.72378 -0.781977 0
M  V30 471 H 48.9712 3.00309 -2.45837 0
M  V30 472 H 47.0722 3.72464 -0.100544 0
M  V30 473 H 47.1852 4.4184 -1.8524 0
M  V30 474 H 45.5492 2.38464 -0.894829 0
M  V30 475 H 46.3322 2.28375 -2.56319 0
M  V30 476 N 48.7773 0.814389 1.34928 0
M  V30 477 C 50.0233 0.408167 1.99263 0
M  V30 478 C 50.3783 -1.0154 1.63424 0
M  V30 479 O 49.6713 -1.69607 0.891289 0
M  V30 480 C 49.8653 0.537781 3.53331 0
M  V30 481 C 49.6943 1.9724 4.04137 0
M  V30 482 C 48.4643 2.60245 4.33129 0
M  V30 483 C 50.6623 2.93801 4.2212 0
M  V30 484 N 48.6443 3.95036 4.69914 0
M  V30 485 C 50.0153 4.1348 4.6199 0
M  V30 486 C 52.0703 2.9053 4.04348 0
M  V30 487 C 50.7733 5.3033 4.85945 0
M  V30 488 C 52.7993 4.06589 4.29464 0
M  V30 489 C 52.1613 5.25017 4.69613 0
M  V30 490 H 48.2603 0.197289 0.756704 0
M  V30 491 H 50.8443 1.05728 1.63492 0
M  V30 492 H 49.0153 -0.0813868 3.88315 0
M  V30 493 H 50.7473 0.105389 4.04563 0
M  V30 494 H 47.5023 2.11545 4.23728 0
M  V30 495 H 47.9263 4.64455 4.92555 0
M  V30 496 H 52.5683 2.00115 3.72443 0
M  V30 497 H 50.2863 6.21309 5.16721 0
M  V30 498 H 53.8723 4.05447 4.17257 0
M  V30 499 H 52.7523 6.1333 4.88667 0
M  V30 500 N 50.2554 -1.46986 0.568584 0
M  V30 501 C 51.4804 -2.07335 0.0520528 0
M  V30 502 C 51.9054 -1.41675 -1.23733 0
M  V30 503 O 51.2634 -0.495623 -1.74394 0
M  V30 504 C 51.3114 -3.60417 -0.11501 0
M  V30 505 O 50.4154 -3.95309 -1.17492 0
M  V30 506 H 49.7564 -0.661597 0.0564385 0
M  V30 507 H 52.2864 -1.88837 0.787507 0
M  V30 508 H 52.2964 -4.06698 -0.325644 0
M  V30 509 H 50.9714 -4.07601 0.826675 0
M  V30 510 H 49.5484 -3.60757 -0.943869 0
M  V30 511 N 51.7335 -0.305618 -1.54608 0
M  V30 512 C 52.6635 0.561482 -2.26649 0
M  V30 513 C 53.6445 1.13415 -1.26772 0
M  V30 514 O 54.8295 1.16262 -1.55553 0
M  V30 515 C 51.9595 1.73122 -3.01075 0
M  V30 516 C 50.9135 1.2887 -4.08138 0
M  V30 517 C 50.2395 2.54396 -4.70305 0
M  V30 518 C 51.5395 0.416578 -5.20636 0
M  V30 519 H 53.2335 -0.0393902 -2.99374 0
M  V30 520 H 50.7795 -0.020385 -1.43986 0
M  V30 521 H 52.7325 2.34396 -3.50195 0
M  V30 522 H 51.4565 2.3584 -2.25936 0
M  V30 523 H 50.1155 0.698991 -3.59875 0
M  V30 524 H 49.7635 3.15439 -3.918 0
M  V30 525 H 49.4635 2.25486 -5.42614 0
M  V30 526 H 50.9875 3.16464 -5.2219 0
M  V30 527 H 52.4015 0.935116 -5.65622 0
M  V30 528 H 50.7985 0.221046 -5.99693 0
M  V30 529 H 51.8685 -0.557162 -4.81688 0
M  V30 530 N 53.2116 1.57565 -0.0334293 0
M  V30 531 C 54.1436 2.0739 0.975811 0
M  V30 532 C 55.1566 0.998166 1.2861 0
M  V30 533 O 56.3456 1.27426 1.25 0
M  V30 534 C 53.4456 2.4871 2.30209 0
M  V30 535 C 52.6186 3.79413 2.17634 0
M  V30 536 C 51.6776 4.07237 3.33233 0
M  V30 537 O 50.7036 4.77425 3.09927 0
M  V30 538 N 51.9056 3.5775 4.5716 0
M  V30 539 H 54.6706 2.94598 0.55066 0
M  V30 540 H 52.2316 1.61173 0.15323 0
M  V30 541 H 54.2236 2.64413 3.06378 0
M  V30 542 H 52.7936 1.66845 2.64351 0
M  V30 543 H 52.0136 3.73465 1.26165 0
M  V30 544 H 53.3016 4.65038 2.0644 0
M  V30 545 H 52.6996 3.00976 4.78989 0
M  V30 546 H 51.2566 3.78724 5.30482 0
M  V30 547 N 54.6897 -0.239769 1.55765 0
M  V30 548 C 55.9147 -0.988373 1.82335 0
M  V30 549 C 56.3397 -1.77886 0.611421 0
M  V30 550 O 55.6977 -1.75889 -0.439639 0
M  V30 551 C 55.7457 -1.89627 3.06715 0
M  V30 552 O 54.8497 -2.98904 2.84131 0
M  V30 553 H 54.1907 -0.280858 0.601677 0
M  V30 554 H 56.7207 -0.258597 2.02959 0
M  V30 555 H 56.7307 -2.30957 3.36338 0
M  V30 556 H 55.4057 -1.31511 3.9456 0
M  V30 557 H 53.9827 -2.61651 2.65694 0
M  V30 558 N 56.1678 -1.49265 -0.50573 0
M  V30 559 C 57.4138 -1.58748 -1.26202 0
M  V30 560 C 57.7468 -0.271227 -1.92297 0
M  V30 561 O 57.0218 0.724831 -1.80489 0
M  V30 562 C 57.3048 -2.74332 -2.33268 0
M  V30 563 C 57.1578 -4.15737 -1.71705 0
M  V30 564 C 58.4768 -2.85576 -3.34865 0
M  V30 565 H 55.5958 -0.577826 -0.457478 0
M  V30 566 H 58.2378 -1.81532 -0.560897 0
M  V30 567 H 56.3878 -2.55036 -2.93068 0
M  V30 568 H 58.0598 -4.46537 -1.15769 0
M  V30 569 H 56.3028 -4.21605 -1.02135 0
M  V30 570 H 56.9738 -4.92477 -2.49341 0
M  V30 571 H 59.4498 -3.03127 -2.8505 0
M  V30 572 H 58.3258 -3.68135 -4.07146 0
M  V30 573 H 58.5868 -1.94732 -3.96903 0
M  V30 574 N 57.6459 0.756429 -1.3826 0
M  V30 575 C 58.5939 1.89149 -1.35372 0
M  V30 576 C 59.5879 1.67691 -0.24004 0
M  V30 577 O 60.7939 1.75294 -0.408919 0
M  V30 578 H 57.1689 0.622271 -0.422236 0
M  V30 579 H 59.1399 1.88701 -2.31159 0
M  V30 580 C 57.8889 3.26599 -1.19284 0
M  V30 581 H 57.2119 3.43695 -2.0424 0
M  V30 582 H 58.6519 4.06274 -1.21316 0
M  V30 583 C 57.1109 3.3675 0.100454 0
M  V30 584 O 57.6409 3.86951 1.07851 0
M  V30 585 N 55.8469 2.90179 0.15633 0
M  V30 586 H 55.3939 2.49517 -0.640253 0
M  V30 587 H 55.3519 2.97352 1.02123 0
M  V30 588 N 59.124 1.23083 0.984299 0
M  V30 589 C 60.535 1.05609 1.5396 0
M  V30 590 C 60.886 -0.377793 1.92528 0
M  V30 591 O 60.011 -1.26398 1.75649 0
M  V30 592 C 60.606 1.91087 2.7977 0
M  V30 593 C 59.165 1.77885 3.31713 0
M  V30 594 C 58.312 1.87028 2.04733 0
M  V30 595 H 61.263 1.36802 0.804419 0
M  V30 596 H 61.284 1.43336 3.5247 0
M  V30 597 H 60.796 2.9544 2.51668 0
M  V30 598 H 58.897 0.762995 3.64704 0
M  V30 599 H 59.01 2.61047 4.01735 0
M  V30 600 H 57.374 1.30565 2.18689 0
M  V30 601 H 58.157 2.92929 1.79017 0
M  V30 602 N 60.6021 -1.18246 1.0419 0
M  V30 603 C 61.8501 -1.87886 0.744543 0
M  V30 604 C 62.1711 -1.8082 -0.730006 0
M  V30 605 O 61.4411 -1.22736 -1.52685 0
M  V30 606 H 60.0211 -0.695556 0.272417 0
M  V30 607 H 62.6831 -1.43494 1.31892 0
M  V30 608 H 61.7791 -2.9389 1.05049 0
M  V30 609 N 62.0802 -0.821533 -1.34494 0
M  V30 610 C 63.0102 -0.257138 -2.3208 0
M  V30 611 C 63.9912 0.625645 -1.58176 0
M  V30 612 O 65.1762 0.552811 -1.86166 0
M  V30 613 C 62.3062 0.582958 -3.42372 0
M  V30 614 C 61.2602 -0.202571 -4.2752 0
M  V30 615 C 60.5862 0.760179 -5.29269 0
M  V30 616 C 61.8862 -1.40998 -5.02908 0
M  V30 617 H 63.5802 -1.07247 -2.79532 0
M  V30 618 H 61.1262 -0.517163 -1.34393 0
M  V30 619 H 63.0792 0.987972 -4.09655 0
M  V30 620 H 61.8032 1.43133 -2.93565 0
M  V30 621 H 60.4622 -0.588936 -3.61838 0
M  V30 622 H 60.1102 1.60447 -4.76724 0
M  V30 623 H 59.8102 0.238809 -5.87115 0
M  V30 624 H 61.3342 1.16308 -5.9942 0
M  V30 625 H 62.7482 -1.07905 -5.63054 0
M  V30 626 H 61.1452 -1.86689 -5.70322 0
M  V30 627 H 62.2152 -2.1889 -4.32684 0
M  V30 628 N 63.5583 1.46682 -0.576371 0
M  V30 629 C 64.5053 2.30241 0.160499 0
M  V30 630 C 65.4753 1.40233 0.890162 0
M  V30 631 O 66.6603 1.69186 0.882084 0
M  V30 632 C 63.8003 3.24578 1.1723 0
M  V30 633 C 62.9133 4.29684 0.446736 0
M  V30 634 C 62.0483 5.11154 1.44551 0
M  V30 635 C 61.0873 6.08015 0.70599 0
M  V30 636 N 60.2243 6.82376 1.65251 0
M  V30 637 H 65.0643 2.92727 -0.558127 0
M  V30 638 H 62.6013 1.44272 -0.287056 0
M  V30 639 H 64.5593 3.77711 1.77172 0
M  V30 640 H 63.1893 2.63916 1.85872 0
M  V30 641 H 62.2413 3.79458 -0.267594 0
M  V30 642 H 63.5533 4.98626 -0.131686 0
M  V30 643 H 62.7073 5.68533 2.11791 0
M  V30 644 H 61.4463 4.42158 2.05786 0
M  V30 645 H 60.4513 5.49796 0.0197725 0
M  V30 646 H 61.6763 6.79028 0.09912 0
M  V30 647 H 59.6223 6.16094 2.25308 0
M  V30 648 H 59.5393 7.47556 1.12673 0
M  V30 649 H 60.8073 7.44316 2.31546 0
M  V30 650 N 65.0364 0.313813 1.54444 0
M  V30 651 C 66.2644 -0.293918 2.04802 0
M  V30 652 C 66.6794 -1.46537 1.19047 0
M  V30 653 O 66.0364 -1.81182 0.218939 0
M  V30 654 C 66.0874 -0.737806 3.53891 0
M  V30 655 O 65.8084 0.387038 4.36387 0
M  V30 656 C 67.3094 -1.40936 4.203 0
M  V30 657 H 64.5294 -0.0620057 0.668129 0
M  V30 658 H 67.0734 0.457169 1.99324 0
M  V30 659 H 65.2284 -1.43889 3.59687 0
M  V30 660 H 65.6424 0.0391274 5.24485 0
M  V30 661 H 67.1164 -1.67099 5.26101 0
M  V30 662 H 67.5934 -2.35355 3.70816 0
M  V30 663 H 68.1994 -0.751117 4.18615 0
M  V30 664 N 66.5145 -1.57545 0.0417849 0
M  V30 665 C 67.4625 -2.12148 -0.953723 0
M  V30 666 C 68.4565 -1.05104 -1.32852 0
M  V30 667 O 69.6625 -1.23524 -1.30927 0
M  V30 668 H 66.0375 -0.677957 -0.325389 0
M  V30 669 H 68.0085 -2.94707 -0.467991 0
M  V30 670 C 66.7575 -2.6739 -2.22257 0
M  V30 671 H 66.0805 -3.49413 -1.94295 0
M  V30 672 H 67.5205 -3.09227 -2.90094 0
M  V30 673 C 65.9795 -1.60723 -2.96091 0
M  V30 674 O 66.5095 -1.01449 -3.88679 0
M  V30 675 N 64.7155 -1.32466 -2.58652 0
M  V30 676 H 64.2625 -1.80856 -1.83437 0
M  V30 677 H 64.2205 -0.61325 -3.08361 0
M  V30 678 N 67.9926 0.231505 -1.5589 0
M  V30 679 C 69.2176 0.978689 -1.82856 0
M  V30 680 C 69.6426 1.77559 -0.620846 0
M  V30 681 O 69.0006 1.76119 0.430305 0
M  V30 682 C 69.0486 1.87997 -3.07716 0
M  V30 683 O 68.1526 2.97393 -2.85712 0
M  V30 684 H 67.4936 0.277663 -0.603158 0
M  V30 685 H 70.0236 0.24783 -2.03093 0
M  V30 686 H 70.0336 2.2917 -3.37558 0
M  V30 687 H 68.7086 1.29417 -3.95252 0
M  V30 688 H 67.2856 2.60238 -2.67078 0
M  V30 689 N 69.4707 1.49531 0.497807 0
M  V30 690 C 70.6957 1.63159 1.28039 0
M  V30 691 C 71.1207 0.30418 1.85624 0
M  V30 692 O 70.4787 -0.728618 1.66015 0
M  V30 693 C 70.5267 2.70537 2.38416 0
M  V30 694 O 69.6307 2.29931 3.42353 0
M  V30 695 H 68.9717 0.546001 0.377861 0
M  V30 696 H 71.5017 1.9574 0.59558 0
M  V30 697 H 71.5117 2.92802 2.84132 0
M  V30 698 H 70.1867 3.6689 1.95869 0
M  V30 699 H 68.7637 2.18009 3.02533 0
M  V30 700 N 70.9488 -0.749086 1.3866 0
M  V30 701 C 71.8958 -1.86291 1.36251 0
M  V30 702 C 72.8658 -1.64578 0.224347 0
M  V30 703 O 74.0508 -1.86181 0.417279 0
M  V30 704 C 71.1908 -3.23644 1.19786 0
M  V30 705 C 70.3038 -3.57158 2.43027 0
M  V30 706 C 69.4388 -4.83838 2.19258 0
M  V30 707 C 68.4778 -5.10152 3.38247 0
M  V30 708 N 67.6148 -6.28029 3.13884 0
M  V30 709 H 72.4548 -1.87685 2.3147 0
M  V30 710 H 69.9918 -0.917287 1.14997 0
M  V30 711 H 71.9498 -4.0291 1.08254 0
M  V30 712 H 70.5798 -3.21566 0.282031 0
M  V30 713 H 69.6318 -2.72701 2.65214 0
M  V30 714 H 70.9438 -3.7253 3.31697 0
M  V30 715 H 70.0978 -5.71057 2.04888 0
M  V30 716 H 68.8368 -4.70614 1.2796 0
M  V30 717 H 67.8418 -4.21401 3.53131 0
M  V30 718 H 69.0668 -5.25271 4.30427 0
M  V30 719 H 67.0128 -6.1612 2.25238 0
M  V30 720 H 66.9298 -6.43922 3.96106 0
M  V30 721 H 68.1978 -7.18124 3.03179 0
M  V30 722 N 72.4269 -1.23603 -0.977757 0
M  V30 723 C 73.3369 -1.03632 -2.1047 0
M  V30 724 C 74.3529 0.0199435 -1.73989 0
M  V30 725 O 75.5289 -0.176076 -2.00629 0
M  V30 726 C 72.5939 -0.63276 -3.40877 0
M  V30 727 C 71.6549 -1.76437 -3.91367 0
M  V30 728 C 70.8879 -1.37997 -5.15551 0
M  V30 729 O 71.1109 -0.265357 -5.69782 0
M  V30 730 O 70.0449 -2.20201 -5.60174 0
M  V30 731 H 73.8709 -1.98086 -2.30208 0
M  V30 732 H 71.4559 -1.02332 -1.08851 0
M  V30 733 H 73.3379 -0.418761 -4.19314 0
M  V30 734 H 72.0129 0.282754 -3.22463 0
M  V30 735 H 70.9199 -2.03304 -3.14036 0
M  V30 736 H 72.2529 -2.6583 -4.14241 0
M  V30 737 N 73.905 1.17692 -1.04816 0
M  V30 738 C 75.316 1.69501 -0.782698 0
M  V30 739 C 75.667 1.83456 0.695577 0
M  V30 740 O 74.792 1.51942 1.54086 0
M  V30 741 C 75.387 3.07874 -1.41419 0
M  V30 742 C 73.946 3.56864 -1.19686 0
M  V30 743 C 73.093 2.3322 -1.50012 0
M  V30 744 H 76.044 1.02262 -1.2136 0
M  V30 745 H 76.065 3.71528 -0.821428 0
M  V30 746 H 75.577 2.97685 -2.49009 0
M  V30 747 H 73.678 3.72337 -0.140043 0
M  V30 748 H 73.791 4.39851 -1.89916 0
M  V30 749 H 72.155 2.37501 -0.920071 0
M  V30 750 H 72.938 2.25644 -2.58727 0
M  V30 751 N 75.3831 0.828654 1.34056 0
M  V30 752 C 76.3301 0.252567 2.29414 0
M  V30 753 C 77.3001 -0.62588 1.53857 0
M  V30 754 O 78.4851 -0.566312 1.82202 0
M  V30 755 C 75.6251 -0.574831 3.40279 0
M  V30 756 C 74.7381 0.326499 4.30764 0
M  V30 757 C 73.8731 -0.511016 5.28736 0
M  V30 758 C 72.9121 0.389342 6.1086 0
M  V30 759 N 72.0491 -0.409439 7.00905 0
M  V30 760 H 76.8891 1.07108 2.78086 0
M  V30 761 H 74.4261 0.539677 1.36843 0
M  V30 762 H 76.3841 -1.06992 4.03248 0
M  V30 763 H 75.0141 -1.35841 2.92826 0
M  V30 764 H 74.0661 0.939837 3.68607 0
M  V30 765 H 75.3781 1.01857 4.88289 0
M  V30 766 H 74.5321 -1.07035 5.97184 0
M  V30 767 H 73.2711 -1.23657 4.71763 0
M  V30 768 H 72.2761 0.960769 5.4134 0
M  V30 769 H 73.5011 1.1131 6.69916 0
M  V30 770 H 71.4471 -1.11856 6.46393 0
M  V30 771 H 71.3641 0.224126 7.55668 0
M  V30 772 H 72.6321 -0.951336 7.73673 0
M  V30 773 N 76.8612 -1.46375 0.584142 0
M  V30 774 C 78.1082 -2.02378 0.0702675 0
M  V30 775 C 78.4362 -1.45545 -1.29023 0
M  V30 776 O 77.6912 -0.610967 -1.85918 0
M  V30 777 C 77.9902 -3.57373 -0.0439342 0
M  V30 778 C 77.6562 -4.33252 1.24915 0
M  V30 779 C 76.3182 -4.53701 1.60341 0
M  V30 780 C 78.6702 -4.7681 2.1048 0
M  V30 781 C 75.9982 -5.1496 2.81128 0
M  V30 782 C 78.3502 -5.39404 3.30494 0
M  V30 783 C 77.0142 -5.5808 3.66201 0
M  V30 784 H 76.2842 -0.740554 0.0257127 0
M  V30 785 H 78.9312 -1.75727 0.761065 0
M  V30 786 H 77.2362 -3.83169 -0.817869 0
M  V30 787 H 78.9332 -3.98384 -0.457318 0
M  V30 788 H 75.5232 -4.17633 0.963364 0
M  V30 789 H 79.7072 -4.60766 1.84414 0
M  V30 790 H 74.9632 -5.27611 3.08928 0
M  V30 791 H 79.1372 -5.72114 3.97063 0
M  V30 792 H 76.7642 -6.05318 4.59885 0
M  V30 793 N 78.3393 -0.321999 -1.54275 0
M  V30 794 C 79.5673 0.283052 -2.04955 0
M  V30 795 C 79.9823 1.45904 -1.19823 0
M  V30 796 O 79.3393 1.81063 -0.228545 0
M  V30 797 C 79.3903 0.719028 -3.54277 0
M  V30 798 O 79.1113 -0.410175 -4.36176 0
M  V30 799 C 80.6123 1.38705 -4.21041 0
M  V30 800 H 77.8323 0.0584616 -0.668448 0
M  V30 801 H 80.3763 -0.467734 -1.99079 0
M  V30 802 H 78.5313 1.41979 -3.60445 0
M  V30 803 H 78.9453 -0.0669416 -5.24457 0
M  V30 804 H 80.4193 1.64306 -5.2698 0
M  V30 805 H 80.8963 2.33385 -3.72059 0
M  V30 806 H 81.5023 0.728906 -4.19007 0
M  V30 807 N 79.8174 1.5752 -0.0501392 0
M  V30 808 C 80.7644 2.1147 0.924603 0
M  V30 809 C 81.7344 1.02182 1.30951 0
M  V30 810 O 82.9194 1.29723 1.39916 0
M  V30 811 C 80.0594 2.66337 2.19451 0
M  V30 812 C 79.1724 3.89708 1.86418 0
M  V30 813 C 78.3074 4.32893 3.07859 0
M  V30 814 C 77.3464 5.48967 2.70742 0
M  V30 815 N 76.4834 5.87211 3.84874 0
M  V30 816 H 81.3234 2.94465 0.457639 0
M  V30 817 H 78.8604 1.45531 0.214266 0
M  V30 818 H 80.8184 2.96247 2.93758 0
M  V30 819 H 79.4484 1.86141 2.63726 0
M  V30 820 H 78.5004 3.66396 1.02264 0
M  V30 821 H 79.8124 4.74074 1.55096 0
M  V30 822 H 78.9664 4.6435 3.90466 0
M  V30 823 H 77.7054 3.47336 3.42358 0
M  V30 824 H 76.7104 5.17183 1.86551 0
M  V30 825 H 77.9354 6.3624 2.37436 0
M  V30 826 H 75.8814 5.04607 4.19175 0
M  V30 827 H 75.7984 6.66266 3.57247 0
M  V30 828 H 77.0664 6.23282 4.68123 0
M  V30 829 N 81.2955 -0.223234 1.56011 0
M  V30 830 C 82.5355 -0.954962 1.8072 0
M  V30 831 C 82.8995 -1.81598 0.623384 0
M  V30 832 O 84.1005 -2.58132 0.749745 0
M  V30 833 C 82.3715 -1.77313 3.10314 0
M  V30 834 S 83.9305 -2.56073 3.56332 0
M  V30 835 H 80.7485 -0.320812 0.634508 0
M  V30 836 H 83.3505 -0.220686 1.9425 0
M  V30 837 H 82.0545 -1.13071 3.94516 0
M  V30 838 H 81.5855 -2.54974 2.99586 0
M  V30 839 H 83.6005 -3.79619 3.19536 0
M  V30 840 N 82.7736 -1.49793 -0.48987 0
M  V30 841 C 84.1896 -1.36803 -0.822022 0
M  V30 842 C 84.3896 -0.409652 -1.97292 0
M  V30 843 O 83.4456 0.154614 -2.52026 0
M  V30 844 C 84.7586 -2.77768 -1.15175 0
M  V30 845 C 86.3066 -2.86549 -1.25931 0
M  V30 846 C 86.7816 -4.28306 -1.62228 0
M  V30 847 N 88.2726 -4.31169 -1.69256 0
M  V30 848 C 89.0076 -5.37832 -1.98807 0
M  V30 849 N 88.5036 -6.54726 -2.26507 0
M  V30 850 N 90.2966 -5.25258 -2.00152 0
M  V30 851 H 82.4476 -2.10691 0.268881 0
M  V30 852 H 84.7106 -0.946241 0.057728 0
M  V30 853 H 84.4166 -3.49648 -0.379335 0
M  V30 854 H 84.2906 -3.13836 -2.09253 0
M  V30 855 H 86.6776 -2.14899 -2.02243 0
M  V30 856 H 86.7586 -2.54049 -0.298776 0
M  V30 857 H 86.4026 -5.00486 -0.864622 0
M  V30 858 H 86.3326 -4.58279 -2.594 0
M  V30 859 H 88.8236 -3.4687 -1.49965 0
M  V30 860 H 89.1366 -7.31833 -2.48276 0
M  V30 861 H 87.4816 -6.57933 -2.23939 0
M  V30 862 H 90.6726 -4.32938 -1.77996 0
M  V30 863 H 90.8456 -6.08476 -2.22848 0
M  V30 864 N 84.2517 0.741722 -1.39055 0
M  V30 865 C 85.4767 1.53607 -1.39354 0
M  V30 866 C 85.9017 1.88096 0.0116905 0
M  V30 867 O 85.2597 1.5143 0.996924 0
M  V30 868 C 85.3077 2.80441 -2.26682 0
M  V30 869 O 84.4117 3.76088 -1.69208 0
M  V30 870 H 83.7527 0.464142 -0.474835 0
M  V30 871 H 86.2827 0.915665 -1.82967 0
M  V30 872 H 86.2927 3.29246 -2.40959 0
M  V30 873 H 84.9677 2.5467 -3.2881 0
M  V30 874 H 83.5447 3.34833 -1.64138 0
M  V30 875 N 85.7298 1.2412 0.971189 0
M  V30 876 C 87.1408 1.07236 1.52831 0
M  V30 877 C 87.4918 -0.357352 1.92918 0
M  V30 878 O 86.6168 -1.24528 1.76979 0
M  V30 879 C 87.2118 1.94043 2.77728 0
M  V30 880 C 85.7708 1.81394 3.29808 0
M  V30 881 C 84.9178 1.89189 2.02738 0
M  V30 882 H 87.8688 1.37648 0.789864 0
M  V30 883 H 87.8898 1.47066 3.5093 0
M  V30 884 H 87.4018 2.98093 2.4852 0
M  V30 885 H 85.5028 0.801634 3.63874 0
M  V30 886 H 85.6158 2.65294 3.98944 0
M  V30 887 H 83.9798 1.32877 2.17292 0
M  V30 888 H 84.7628 2.94812 1.759 0
M  V30 889 N 87.2079 -1.17134 1.05439 0
M  V30 890 C 88.1179 -2.24878 0.668365 0
M  V30 891 C 89.1339 -1.71186 -0.311687 0
M  V30 892 O 90.3099 -2.00738 -0.163161 0
M  V30 893 C 87.3749 -3.46662 0.051648 0
M  V30 894 C 86.4359 -4.15429 1.08246 0
M  V30 895 C 85.6689 -5.31399 0.495082 0
M  V30 896 O 85.8919 -5.66153 -0.694743 0
M  V30 897 O 84.8259 -5.89187 1.23056 0
M  V30 898 H 88.6519 -2.60189 1.56637 0
M  V30 899 H 86.2369 -1.24482 0.826104 0
M  V30 900 H 88.1189 -4.20394 -0.290966 0
M  V30 901 H 86.7939 -3.13142 -0.819971 0
M  V30 902 H 85.7009 -3.43704 1.47711 0
M  V30 903 H 87.0339 -4.52982 1.92532 0
M  V30 904 N 88.686 -0.835752 -1.33615 0
M  V30 905 C 90.102 -0.523139 -1.50783 0
M  V30 906 C 90.302 0.950171 -1.77691 0
M  V30 907 O 89.358 1.73411 -1.83534 0
M  V30 908 C 90.671 -1.39378 -2.66448 0
M  V30 909 C 92.219 -1.39223 -2.80332 0
M  V30 910 C 92.694 -2.24765 -3.99055 0
M  V30 911 N 94.185 -2.22458 -4.06284 0
M  V30 912 C 94.92 -2.85386 -4.97336 0
M  V30 913 N 94.416 -3.57354 -5.93523 0
M  V30 914 N 96.209 -2.74872 -4.90308 0
M  V30 915 H 88.36 -1.78952 -1.14411 0
M  V30 916 H 90.623 -0.763297 -0.562212 0
M  V30 917 H 90.329 -2.44061 -2.53234 0
M  V30 918 H 90.203 -1.0676 -3.61776 0
M  V30 919 H 92.59 -0.353136 -2.92979 0
M  V30 920 H 92.671 -1.75846 -1.85773 0
M  V30 921 H 92.315 -3.28732 -3.87167 0
M  V30 922 H 92.245 -1.85485 -4.92852 0
M  V30 923 H 94.736 -1.70119 -3.37443 0
M  V30 924 H 95.049 -4.02584 -6.59656 0
M  V30 925 H 93.394 -3.61461 -5.93608 0
M  V30 926 H 96.585 -2.18213 -4.14126 0
M  V30 927 H 96.758 -3.24199 -5.61069 0
M  V30 928 N 90.1641 1.46063 -0.591896 0
M  V30 929 C 91.0741 2.34192 0.13831 0
M  V30 930 C 92.0901 1.50305 0.876608 0
M  V30 931 O 93.2661 1.8315 0.837728 0
M  V30 932 C 90.3311 3.27656 1.13326 0
M  V30 933 C 89.3921 4.27445 0.39863 0
M  V30 934 C 88.6251 5.16443 1.34618 0
M  V30 935 O 88.8481 5.08553 2.58321 0
M  V30 936 O 87.7821 5.95843 0.851768 0
M  V30 937 H 91.6081 2.98002 -0.58552 0
M  V30 938 H 89.1931 1.45188 -0.352239 0
M  V30 939 H 91.0751 3.85291 1.70671 0
M  V30 940 H 89.7501 2.6643 1.83839 0
M  V30 941 H 88.6571 3.73471 -0.216895 0
M  V30 942 H 89.9901 4.91482 -0.265709 0
M  V30 943 N 91.6422 0.330177 1.54103 0
M  V30 944 C 92.8702 -0.272179 2.05102 0
M  V30 945 C 93.2852 -1.45267 1.20595 0
M  V30 946 O 92.6422 -1.8094 0.238144 0
M  V30 947 C 92.6932 -0.70023 3.54653 0
M  V30 948 O 92.4142 0.433301 4.35952 0
M  V30 949 C 93.9152 -1.3647 4.21771 0
M  V30 950 H 91.1352 -0.0549159 0.668749 0
M  V30 951 H 93.6792 0.478285 1.98828 0
M  V30 952 H 91.8342 -1.40066 3.61193 0
M  V30 953 H 92.2482 0.0947539 5.24414 0
M  V30 954 H 93.7222 -1.61509 5.27843 0
M  V30 955 H 94.1992 -2.31409 3.73292 0
M  V30 956 H 94.8052 -0.706675 4.19388 0
M  V30 957 N 93.1203 -1.57491 0.0584922 0
M  V30 958 C 94.3673 -1.92978 -0.613648 0
M  V30 959 C 94.6953 -0.937461 -1.70417 0
M  V30 960 O 93.9503 0.049078 -1.95638 0
M  V30 961 C 94.2493 -3.3513 -1.24188 0
M  V30 962 C 93.9153 -4.50037 -0.278826 0
M  V30 963 C 92.5773 -4.81198 -0.0138447 0
M  V30 964 C 94.9293 -5.19807 0.380777 0
M  V30 965 C 92.2573 -5.79473 0.918052 0
M  V30 966 C 94.6093 -6.19079 1.30091 0
M  V30 967 C 93.2733 -6.48665 1.57449 0
M  V30 968 H 92.5433 -0.706157 -0.22455 0
M  V30 969 H 95.1903 -1.91082 0.126533 0
M  V30 970 H 93.4953 -3.33429 -2.05749 0
M  V30 971 H 95.1923 -3.59871 -1.769 0
M  V30 972 H 91.7823 -4.25726 -0.495539 0
M  V30 973 H 95.9663 -4.95939 0.189158 0
M  V30 974 H 91.2223 -6.00727 1.1374 0
M  V30 975 H 95.3963 -6.7225 1.81804 0
M  V30 976 H 93.0233 -7.24628 2.29822 0
M  V30 977 N 94.5984 0.214957 -1.56127 0
M  V30 978 C 95.8234 0.95924 -1.83884 0
M  V30 979 C 96.2484 1.7689 -0.639644 0
M  V30 980 O 95.6064 1.76566 0.411601 0
M  V30 981 C 95.6544 1.84723 -3.09693 0
M  V30 982 O 94.7584 2.94346 -2.8885 0
M  V30 983 H 94.0994 0.27125 -0.606069 0
M  V30 984 H 96.6294 0.226276 -2.03345 0
M  V30 985 H 96.6394 2.25576 -3.39969 0
M  V30 986 H 95.3144 1.25218 -3.96602 0
M  V30 987 H 93.8914 2.57391 -2.69823 0
M  V30 988 N 96.0765 1.50051 0.48192 0
M  V30 989 C 97.3165 1.62128 1.24474 0
M  V30 990 C 97.6805 0.309742 1.89485 0
M  V30 991 O 98.8815 0.305854 2.67054 0
M  V30 992 C 97.1525 2.76151 2.26882 0
M  V30 993 S 98.7115 3.08297 3.12247 0
M  V30 994 H 95.5295 0.571661 0.422759 0
M  V30 995 H 98.1315 1.87791 0.54359 0
M  V30 996 H 96.8355 3.69942 1.77683 0
M  V30 997 H 96.3665 2.52541 3.0164 0
M  V30 998 H 98.3815 2.51287 4.27866 0
M  V30 999 N 97.5546 -0.734337 1.39446 0
M  V30 1000 C 98.5046 -1.83949 1.34709 0
M  V30 1001 C 99.4886 -1.59279 0.227851 0
M  V30 1002 O 100.681 -1.70771 0.465438 0
M  V30 1003 C 97.8096 -3.21884 1.19356 0
M  V30 1004 C 96.8956 -3.52381 2.35984 0
M  V30 1005 N 97.2866 -3.53811 3.61457 0
M  V30 1006 C 95.5846 -3.82747 2.28956 0
M  V30 1007 C 96.2856 -3.82122 4.38586 0
M  V30 1008 N 95.2616 -3.9993 3.68181 0
M  V30 1009 H 99.0636 -1.83361 2.29687 0
M  V30 1010 H 96.5776 -0.932609 1.32952 0
M  V30 1011 H 98.5746 -4.00998 1.14046 0
M  V30 1012 H 97.2346 -3.23711 0.253295 0
M  V30 1013 H 98.2456 -3.35107 3.94872 0
M  V30 1014 H 94.9226 -3.92175 1.43194 0
M  V30 1015 H 96.3126 -3.89691 5.47349 0
M  V30 1016 N 99.0327 -1.24633 -0.964593 0
M  V30 1017 C 100.279 -1.09957 -1.71117 0
M  V30 1018 C 100.634 0.357422 -1.89051 0
M  V30 1019 O 99.9267 1.26029 -1.44317 0
M  V30 1020 C 100.121 -1.7763 -3.10133 0
M  V30 1021 C 99.9497 -3.29759 -3.05759 0
M  V30 1022 C 98.7197 -3.98981 -3.10068 0
M  V30 1023 C 100.918 -4.26305 -2.87695 0
M  V30 1024 N 98.8997 -5.37966 -2.95747 0
M  V30 1025 C 100.271 -5.52308 -2.81702 0
M  V30 1026 C 102.326 -4.16842 -2.72299 0
M  V30 1027 C 101.029 -6.69931 -2.61887 0
M  V30 1028 C 103.055 -5.34147 -2.53853 0
M  V30 1029 C 102.417 -6.59084 -2.48572 0
M  V30 1030 H 98.5157 -0.457003 -0.634564 0
M  V30 1031 H 101.1 -1.57592 -1.14337 0
M  V30 1032 H 99.2707 -1.32504 -3.65099 0
M  V30 1033 H 101.003 -1.55786 -3.73514 0
M  V30 1034 H 97.7577 -3.50169 -3.18871 0
M  V30 1035 H 98.1817 -6.10877 -2.91818 0
M  V30 1036 H 102.824 -3.21007 -2.75163 0
M  V30 1037 H 100.542 -7.65886 -2.57767 0
M  V30 1038 H 104.128 -5.28678 -2.4288 0
M  V30 1039 H 103.008 -7.48324 -2.34481 0
M  V30 1040 N 100.511 1.16574 -1.06058 0
M  V30 1041 C 101.739 1.90952 -0.796552 0
M  V30 1042 C 102.154 1.77302 0.648808 0
M  V30 1043 O 101.511 1.11605 1.44397 0
M  V30 1044 C 101.562 3.41736 -1.17894 0
M  V30 1045 O 101.283 3.54975 -2.56758 0
M  V30 1046 C 102.784 4.33169 -0.942308 0
M  V30 1047 H 100.004 0.605594 -0.288959 0
M  V30 1048 H 102.548 1.47777 -1.41358 0
M  V30 1049 H 100.703 3.82623 -0.606491 0
M  V30 1050 H 101.117 4.4846 -2.72 0
M  V30 1051 H 102.591 5.37439 -1.25952 0
M  V30 1052 H 103.068 4.3903 0.122078 0
M  V30 1053 H 103.674 3.98007 -1.49902 0
M  V30 1054 N 101.989 0.842826 1.3317 0
M  V30 1055 C 103.266 0.362216 1.92217 0
M  V30 1056 C 103.646 -1.15289 1.76838 0
M  V30 1057 O 102.994 -1.96914 1.15919 0
M  V30 1058 C 103.204 0.813495 3.39387 0
M  V30 1059 C 104.552 0.823804 4.16532 0
M  V30 1060 O 105.576 0.757358 3.48055 0
M  V30 1061 O 104.435 0.915193 5.38782 0
M  V30 1062 H 101.529 0.103317 0.820521 0
M  V30 1063 H 104.075 0.928942 1.42017 0
M  V30 1064 H 102.847 1.85624 3.4447 0
M  V30 1065 H 102.47 0.223561 3.96971 0
M  V30 1066 N 103.467 -1.45747 0.599634 0
M  V30 1067 C 104.377 -2.34262 -0.125888 0
M  V30 1068 C 105.393 -1.50768 -0.868625 0
M  V30 1069 O 106.569 -1.83592 -0.828003 0
M  V30 1070 C 103.634 -3.28252 -1.11587 0
M  V30 1071 C 102.695 -4.27651 -0.375956 0
M  V30 1072 C 101.928 -5.1715 -1.31877 0
M  V30 1073 O 102.151 -5.09916 -2.55621 0
M  V30 1074 O 101.085 -5.96286 -0.820157 0
M  V30 1075 H 104.911 -2.97688 0.601315 0
M  V30 1076 H 102.496 -1.44999 0.359934 0
M  V30 1077 H 104.378 -3.86191 -1.68626 0
M  V30 1078 H 103.053 -2.67401 -1.82424 0
M  V30 1079 H 101.96 -3.7335 0.236698 0
M  V30 1080 H 103.293 -4.91334 0.29177 0
M  V30 1081 N 104.945 -0.338344 -1.53925 0
M  V30 1082 C 106.191 0.260143 -2.01125 0
M  V30 1083 C 106.524 1.50617 -1.22589 0
M  V30 1084 O 105.799 1.91979 -0.312113 0
M  V30 1085 C 106.082 0.579499 -3.55407 0
M  V30 1086 C 105.935 -0.678264 -4.44657 0
M  V30 1087 C 107.254 1.39122 -4.17532 0
M  V30 1088 H 104.373 0.0930772 -0.731099 0
M  V30 1089 H 107.015 -0.457852 -1.84401 0
M  V30 1090 H 105.165 1.19118 -3.69788 0
M  V30 1091 H 106.837 -1.31631 -4.42121 0
M  V30 1092 H 105.08 -1.3042 -4.13731 0
M  V30 1093 H 105.751 -0.410143 -5.50474 0
M  V30 1094 H 108.227 0.874035 -4.06817 0
M  V30 1095 H 107.103 1.58342 -5.25565 0
M  V30 1096 H 107.364 2.39178 -3.71815 0
M  V30 1097 N 106.423 1.57458 -0.0668435 0
M  V30 1098 C 107.373 2.0896 0.912119 0
M  V30 1099 C 108.357 0.998186 1.26195 0
M  V30 1100 O 109.549 1.26133 1.24175 0
M  V30 1101 C 106.678 2.6508 2.18145 0
M  V30 1102 C 105.764 3.81218 1.85832 0
M  V30 1103 N 106.155 4.90378 1.23948 0
M  V30 1104 C 104.453 3.9042 2.15612 0
M  V30 1105 C 105.154 5.71279 1.09616 0
M  V30 1106 N 104.13 5.19389 1.60423 0
M  V30 1107 H 107.932 2.90749 0.42924 0
M  V30 1108 H 105.446 1.6182 0.137184 0
M  V30 1109 H 107.443 3.0029 2.89192 0
M  V30 1110 H 106.103 1.84736 2.67025 0
M  V30 1111 H 107.114 5.09847 0.909731 0
M  V30 1112 H 103.791 3.21043 2.66903 0
M  V30 1113 H 105.181 6.69085 0.614425 0
M  V30 1114 N 107.901 -0.206675 1.56239 0
M  V30 1115 C 108.851 -1.26 1.90021 0
M  V30 1116 C 109.835 -1.41566 0.764721 0
M  V30 1117 O 111.027 -1.44131 1.02739 0
M  V30 1118 C 108.156 -2.6073 2.23326 0
M  V30 1119 C 107.242 -2.49005 3.43304 0
M  V30 1120 N 107.633 -2.06946 4.61527 0
M  V30 1121 C 105.931 -2.79927 3.47213 0
M  V30 1122 C 106.632 -2.06832 5.43687 0
M  V30 1123 N 105.608 -2.47892 4.83788 0
M  V30 1124 H 109.41 -0.925955 2.78932 0
M  V30 1125 H 106.924 -0.415172 1.57003 0
M  V30 1126 H 108.921 -3.36798 2.45708 0
M  V30 1127 H 107.581 -2.94968 1.35735 0
M  V30 1128 H 108.592 -1.77839 4.86409 0
M  V30 1129 H 105.269 -3.18438 2.70006 0
M  V30 1130 H 106.659 -1.76312 6.48354 0
M  V30 1131 N 109.379 -1.50304 -0.473955 0
M  V30 1132 C 110.627 -1.60832 -1.22382 0
M  V30 1133 C 110.948 -0.30939 -1.9253 0
M  V30 1134 O 110.218 0.67296 -1.83978 0
M  V30 1135 H 108.798 -0.592652 -0.454723 0
M  V30 1136 H 111.46 -1.87068 -0.546968 0
M  V30 1137 H 110.556 -2.41803 -1.97327 0
M  V30 1138 N 110.857 0.726932 -1.39834 0
M  V30 1139 C 112.085 1.51613 -1.40787 0
M  V30 1140 C 112.5 1.88799 -0.00451505 0
M  V30 1141 O 111.857 1.54662 0.968809 0
M  V30 1142 C 111.908 2.79863 -2.28821 0
M  V30 1143 O 111.629 2.44253 -3.63692 0
M  V30 1144 C 113.13 3.73837 -2.38245 0
M  V30 1145 H 110.35 0.468264 -0.480593 0
M  V30 1146 H 112.894 0.897607 -1.83748 0
M  V30 1147 H 111.049 3.38027 -1.89252 0
M  V30 1148 H 111.463 3.26695 -4.1033 0
M  V30 1149 H 112.937 4.60699 -3.04073 0
M  V30 1150 H 113.414 4.16153 -1.40403 0
M  V30 1151 H 114.02 3.21589 -2.78317 0
M  V30 1152 N 112.336 1.25143 0.95797 0
M  V30 1153 C 113.283 1.05235 2.05412 0
M  V30 1154 C 114.253 -0.0374561 1.66058 0
M  V30 1155 O 115.438 0.119073 1.90428 0
M  V30 1156 C 112.578 0.673589 3.38462 0
M  V30 1157 C 111.691 1.8379 3.90954 0
M  V30 1158 C 110.826 1.40381 5.12315 0
M  V30 1159 C 109.865 2.53746 5.57027 0
M  V30 1160 N 109.002 2.11136 6.69601 0
M  V30 1161 H 113.842 1.99048 2.21774 0
M  V30 1162 H 111.379 0.991277 1.08683 0
M  V30 1163 H 113.337 0.434964 4.14926 0
M  V30 1164 H 111.967 -0.227554 3.21997 0
M  V30 1165 H 111.019 2.18992 3.11041 0
M  V30 1166 H 112.331 2.68937 4.20089 0
M  V30 1167 H 111.485 1.12464 5.96185 0
M  V30 1168 H 110.224 0.523015 4.84887 0
M  V30 1169 H 109.229 2.82412 4.71724 0
M  V30 1170 H 110.454 3.42398 5.86464 0
M  V30 1171 H 108.4 1.25468 6.4389 0
M  V30 1172 H 108.317 2.89832 6.98236 0
M  V30 1173 H 109.585 1.86385 7.56889 0
M  V30 1174 N 113.814 -1.1601 1.06675 0
M  V30 1175 C 114.762 -2.22586 0.675157 0
M  V30 1176 C 115.756 -1.66525 -0.310766 0
M  V30 1177 O 116.962 -1.79145 -0.175215 0
M  V30 1178 H 113.337 -0.724855 0.200223 0
M  V30 1179 H 115.308 -2.52899 1.58381 0
M  V30 1180 C 114.057 -3.47604 0.0817162 0
M  V30 1181 H 113.38 -3.91058 0.831484 0
M  V30 1182 H 114.82 -4.23718 -0.154708 0
M  V30 1183 C 113.279 -3.15718 -1.17576 0
M  V30 1184 O 113.809 -3.31878 -2.26318 0
M  V30 1185 N 112.015 -2.69816 -1.07923 0
M  V30 1186 H 111.562 -2.56866 -0.194293 0
M  V30 1187 H 111.52 -2.48855 -1.92141 0
M  V30 1188 N 115.292 -0.849877 -1.32721 0
M  V30 1189 C 116.222 -0.306308 -2.31482 0
M  V30 1190 C 117.203 0.591952 -1.59468 0
M  V30 1191 O 118.388 0.513199 -1.87296 0
M  V30 1192 C 115.518 0.510204 -3.43532 0
M  V30 1193 C 114.472 -0.293209 -4.26994 0
M  V30 1194 C 113.798 0.647743 -5.30762 0
M  V30 1195 C 115.098 -1.51634 -4.99804 0
M  V30 1196 H 116.792 -1.13153 -2.77195 0
M  V30 1197 H 114.338 -0.545553 -1.33266 0
M  V30 1198 H 116.291 0.900856 -4.11658 0
M  V30 1199 H 115.015 1.36874 -2.96535 0
M  V30 1200 H 113.674 -0.665555 -3.60508 0
M  V30 1201 H 113.322 1.50299 -4.8002 0
M  V30 1202 H 113.022 0.11422 -5.87489 0
M  V30 1203 H 114.546 1.03567 -6.01753 0
M  V30 1204 H 115.96 -1.19824 -5.60638 0
M  V30 1205 H 114.357 -1.98745 -5.66234 0
M  V30 1206 H 115.427 -2.28018 -4.27943 0
M  V30 1207 N 116.77 1.45427 -0.607355 0
M  V30 1208 C 118.018 2.01841 -0.102253 0
M  V30 1209 C 118.339 1.47832 1.27164 0
M  V30 1210 O 117.609 0.672497 1.83995 0
M  V30 1211 H 116.189 0.746188 -0.0348101 0
M  V30 1212 H 118.851 1.78229 -0.7887 0
M  V30 1213 H 117.947 3.12057 -0.0518585 0
M  V30 1214 N 118.248 0.346503 1.53744 0
M  V30 1215 C 119.659 -0.136779 1.86198 0
M  V30 1216 C 120.01 -1.49749 1.26766 0
M  V30 1217 O 119.135 -2.08417 0.582355 0
M  V30 1218 C 119.73 -0.254966 3.37839 0
M  V30 1219 C 118.289 -0.682482 3.70161 0
M  V30 1220 C 117.436 0.181981 2.76702 0
M  V30 1221 H 120.387 0.565994 1.48264 0
M  V30 1222 H 120.408 -1.08195 3.64793 0
M  V30 1223 H 119.92 0.735526 3.81066 0
M  V30 1224 H 118.021 -1.68189 3.3248 0
M  V30 1225 H 118.134 -0.470326 4.76786 0
M  V30 1226 H 116.498 -0.34615 2.52337 0
M  V30 1227 H 117.281 1.16966 3.2276 0
M  V30 1228 N 119.726 -1.57421 0.075193 0
M  V30 1229 C 120.975 -1.92794 -0.592731 0
M  V30 1230 C 121.288 -0.957478 -1.70563 0
M  V30 1231 O 122.494 -1.20417 -2.43335 0
M  V30 1232 C 120.95 -3.42495 -1.10569 0
M  V30 1233 C 120.558 -4.47994 -0.0236121 0
M  V30 1234 C 122.302 -3.86864 -1.74748 0
M  V30 1235 C 120.209 -5.88829 -0.550803 0
M  V30 1236 H 119.139 -0.719591 -0.225177 0
M  V30 1237 H 121.79 -1.82902 0.147978 0
M  V30 1238 H 120.172 -3.47471 -1.89947 0
M  V30 1239 H 121.346 -4.54637 0.751099 0
M  V30 1240 H 119.661 -4.13113 0.522159 0
M  V30 1241 H 122.258 -4.8947 -2.15229 0
M  V30 1242 H 122.601 -3.24417 -2.60882 0
M  V30 1243 H 123.134 -3.84504 -1.01986 0
M  V30 1244 H 119.873 -6.54929 0.273457 0
M  V30 1245 H 119.393 -5.85698 -1.29296 0
M  V30 1246 H 121.072 -6.38811 -1.02613 0
M  V30 1247 N 121.204 0.198386 -1.56346 0
M  V30 1248 C 122.136 1.26987 -1.90806 0
M  V30 1249 C 123.149 1.41877 -0.798419 0
M  V30 1250 O 124.338 1.42362 -1.07682 0
M  V30 1251 C 121.438 2.64246 -2.12196 0
M  V30 1252 C 120.611 2.71007 -3.43328 0
M  V30 1253 C 119.67 3.89439 -3.5387 0
M  V30 1254 O 118.696 3.76695 -4.26719 0
M  V30 1255 N 119.898 5.04752 -2.86715 0
M  V30 1256 H 122.663 0.977433 -2.83313 0
M  V30 1257 H 120.224 0.388322 -1.57174 0
M  V30 1258 H 122.216 3.41896 -2.1654 0
M  V30 1259 H 120.786 2.85992 -1.26204 0
M  V30 1260 H 120.006 1.79657 -3.50881 0
M  V30 1261 H 121.294 2.72512 -4.29668 0
M  V30 1262 H 120.692 5.18004 -2.2735 0
M  V30 1263 H 119.249 5.8036 -2.96691 0
M  V30 1264 N 122.682 1.50554 0.465978 0
M  V30 1265 C 123.612 1.72722 1.57128 0
M  V30 1266 C 124.593 0.576294 1.6004 0
M  V30 1267 O 125.778 0.81598 1.76225 0
M  V30 1268 C 122.908 1.82605 2.95419 0
M  V30 1269 C 121.862 2.97835 3.07373 0
M  V30 1270 C 121.188 2.92867 4.47363 0
M  V30 1271 C 122.488 4.38265 2.84114 0
M  V30 1272 H 124.182 2.65267 1.38829 0
M  V30 1273 H 121.728 1.2765 0.666441 0
M  V30 1274 H 123.681 1.96698 3.72677 0
M  V30 1275 H 122.405 0.866858 3.14886 0
M  V30 1276 H 121.064 2.83401 2.3255 0
M  V30 1277 H 120.712 1.94783 4.63755 0
M  V30 1278 H 120.412 3.70227 4.56296 0
M  V30 1279 H 121.936 3.09015 5.26633 0
M  V30 1280 H 123.35 4.53198 3.51118 0
M  V30 1281 H 121.747 5.17115 3.04487 0
M  V30 1282 H 122.817 4.50281 1.7993 0
M  V30 1283 N 124.16 -0.719506 1.40217 0
M  V30 1284 C 125.407 -1.47933 1.38283 0
M  V30 1285 C 125.735 -1.94493 -0.0161536 0
M  V30 1286 O 124.99 -1.68224 -0.999956 0
M  V30 1287 C 125.289 -2.72271 2.31524 0
M  V30 1288 C 124.955 -2.44496 3.78857 0
M  V30 1289 C 123.617 -2.36631 4.18998 0
M  V30 1290 C 125.969 -2.21104 4.71977 0
M  V30 1291 C 123.297 -2.03437 5.503 0
M  V30 1292 C 125.649 -1.89423 6.03574 0
M  V30 1293 C 124.313 -1.80038 6.42762 0
M  V30 1294 H 123.583 -0.541325 0.506012 0
M  V30 1295 H 126.23 -0.824502 1.72842 0
M  V30 1296 H 124.535 -3.42572 1.90137 0
M  V30 1297 H 126.232 -3.30348 2.27313 0
M  V30 1298 H 122.822 -2.51503 3.47051 0
M  V30 1299 H 127.006 -2.26139 4.41786 0
M  V30 1300 H 122.262 -1.94705 5.79569 0
M  V30 1301 H 126.436 -1.70336 6.75247 0
M  V30 1302 H 124.063 -1.54083 7.44421 0
M  V30 1303 N 125.638 -1.25649 -0.95132 0
M  V30 1304 C 126.868 -1.13179 -1.72841 0
M  V30 1305 C 127.276 0.316827 -1.86528 0
M  V30 1306 O 126.619 1.22948 -1.3649 0
M  V30 1307 C 126.681 -1.71644 -3.15878 0
M  V30 1308 C 126.345 -3.20667 -3.25609 0
M  V30 1309 C 127.342 -4.17616 -3.09666 0
M  V30 1310 C 125.027 -3.6094 -3.49324 0
M  V30 1311 C 127.021 -5.52817 -3.17289 0
M  V30 1312 C 124.708 -4.96278 -3.56584 0
M  V30 1313 C 125.706 -5.92025 -3.40581 0
M  V30 1314 O 125.394 -7.24899 -3.47528 0
M  V30 1315 H 125.126 -0.395389 -0.54831 0
M  V30 1316 H 127.68 -1.66566 -1.20187 0
M  V30 1317 H 125.91 -1.12707 -3.69911 0
M  V30 1318 H 127.599 -1.54225 -3.75459 0
M  V30 1319 H 128.365 -3.87842 -2.91211 0
M  V30 1320 H 124.244 -2.86907 -3.6084 0
M  V30 1321 H 127.788 -6.2753 -3.04716 0
M  V30 1322 H 123.685 -5.25716 -3.74556 0
M  V30 1323 H 124.453 -7.33039 -3.64138 0
M  V30 1324 N 127.117 1.15442 -1.07289 0
M  V30 1325 C 128.345 1.90096 -0.81676 0
M  V30 1326 C 128.76 1.7798 0.629966 0
M  V30 1327 O 128.117 1.1313 1.43206 0
M  V30 1328 C 128.168 3.40466 -1.21512 0
M  V30 1329 O 127.889 3.52232 -2.60508 0
M  V30 1330 C 129.39 4.32145 -0.988198 0
M  V30 1331 H 126.61 0.602495 -0.295366 0
M  V30 1332 H 129.154 1.4627 -1.42918 0
M  V30 1333 H 127.309 3.81958 -0.647039 0
M  V30 1334 H 127.723 4.45549 -2.76742 0
M  V30 1335 H 129.197 5.36072 -1.31645 0
M  V30 1336 H 129.674 4.39135 0.0755063 0
M  V30 1337 H 130.28 3.96395 -1.54115 0
M  V30 1338 N 128.595 0.856903 1.32268 0
M  V30 1339 C 130.011 0.547061 1.49931 0
M  V30 1340 C 130.211 -0.921781 1.7918 0
M  V30 1341 O 129.267 -1.70469 1.8627 0
M  V30 1342 C 130.58 1.43599 2.64196 0
M  V30 1343 C 132.128 1.43665 2.78081 0
M  V30 1344 C 132.603 2.31085 3.95428 0
M  V30 1345 N 134.094 2.28893 4.02694 0
M  V30 1346 C 134.829 2.93262 4.92732 0
M  V30 1347 N 134.325 3.66751 5.87763 0
M  V30 1348 N 136.118 2.82638 4.85873 0
M  V30 1349 H 128.269 1.8075 1.11549 0
M  V30 1350 H 130.532 0.772144 0.549997 0
M  V30 1351 H 130.238 2.48058 2.49319 0
M  V30 1352 H 130.112 1.12502 3.60032 0
M  V30 1353 H 132.499 0.399701 2.92381 0
M  V30 1354 H 132.58 1.7878 1.82952 0
M  V30 1355 H 132.224 3.34849 3.81888 0
M  V30 1356 H 132.154 1.93302 4.89839 0
M  V30 1357 H 134.645 1.75466 3.34694 0
M  V30 1358 H 134.958 4.13027 6.53168 0
M  V30 1359 H 133.303 3.70859 5.87783 0
M  V30 1360 H 136.494 2.24774 4.10602 0
M  V30 1361 H 136.667 3.33084 5.55841 0
M  V30 1362 N 130.073 -1.45103 0.615059 0
M  V30 1363 C 131.489 -1.57137 0.279322 0
M  V30 1364 C 131.689 -1.60523 -1.21797 0
M  V30 1365 O 130.745 -1.53956 -2.00134 0
M  V30 1366 C 132.058 -2.85062 0.957083 0
M  V30 1367 C 133.606 -2.98749 0.933706 0
M  V30 1368 C 134.081 -4.29455 1.59162 0
M  V30 1369 N 135.572 -4.36231 1.55746 0
M  V30 1370 C 136.307 -5.36051 2.0356 0
M  V30 1371 N 135.803 -6.42367 2.59494 0
M  V30 1372 N 137.596 -5.27456 1.94284 0
M  V30 1373 H 129.747 -1.41148 1.58717 0
M  V30 1374 H 132.01 -0.675331 0.665306 0
M  V30 1375 H 131.716 -2.88488 2.01166 0
M  V30 1376 H 131.59 -3.7407 0.48494 0
M  V30 1377 H 133.977 -2.94886 -0.112347 0
M  V30 1378 H 134.058 -2.11132 1.44419 0
M  V30 1379 H 133.702 -4.34077 2.63704 0
M  V30 1380 H 133.632 -5.15901 1.0561 0
M  V30 1381 H 136.123 -3.60011 1.14893 0
M  V30 1382 H 136.436 -7.14793 2.93752 0
M  V30 1383 H 134.781 -6.43097 2.63537 0
M  V30 1384 H 137.972 -4.43308 1.5032 0
M  V30 1385 H 138.145 -6.05099 2.3186 0
M  V30 1386 N 131.551 -0.354651 -1.53558 0
M  V30 1387 C 132.499 0.512195 -2.26891 0
M  V30 1388 C 133.493 1.09263 -1.29452 0
M  V30 1389 O 134.699 1.03709 -1.47121 0
M  V30 1390 H 131.074 0.183878 -0.729173 0
M  V30 1391 H 133.045 -0.128202 -2.98124 0
M  V30 1392 C 131.794 1.64563 -3.06291 0
M  V30 1393 H 131.117 1.20829 -3.81104 0
M  V30 1394 H 132.557 2.22711 -3.60799 0
M  V30 1395 C 131.016 2.58158 -2.16462 0
M  V30 1396 O 131.546 3.60695 -1.76811 0
M  V30 1397 N 129.752 2.27096 -1.81317 0
M  V30 1398 H 129.299 1.43751 -2.1376 0
M  V30 1399 H 129.257 2.89975 -1.21498 0
M  V30 1400 N 133.029 1.57378 -0.0835403 0
M  V30 1401 C 134.257 1.98263 0.59157 0
M  V30 1402 C 134.672 0.962302 1.62435 0
M  V30 1403 O 134.029 -0.049581 1.82433 0
M  V30 1404 C 134.08 3.39214 1.24965 0
M  V30 1405 O 133.801 4.37339 0.258186 0
M  V30 1406 C 135.302 3.95038 2.01147 0
M  V30 1407 H 132.522 0.651773 0.159477 0
M  V30 1408 H 135.066 2.03878 -0.159415 0
M  V30 1409 H 133.221 3.34649 1.95164 0
M  V30 1410 H 133.635 5.19371 0.731734 0
M  V30 1411 H 135.109 4.95848 2.42567 0
M  V30 1412 H 135.586 3.32222 2.87272 0
M  V30 1413 H 136.192 4.0304 1.35789 0
M  V30 1414 N 134.507 -0.190092 1.56449 0
M  V30 1415 C 135.439 -1.25973 1.91477 0
M  V30 1416 C 136.452 -1.41452 0.805931 0
M  V30 1417 O 137.641 -1.41789 1.08435 0
M  V30 1418 C 134.741 -2.63117 2.13594 0
M  V30 1419 C 133.914 -2.69182 3.4476 0
M  V30 1420 C 132.973 -3.87557 3.5593 0
M  V30 1421 O 131.999 -3.74427 4.28711 0
M  V30 1422 N 133.201 -5.03224 2.89388 0
M  V30 1423 H 135.966 -0.962394 2.83828 0
M  V30 1424 H 133.527 -0.379981 1.57378 0
M  V30 1425 H 135.519 -3.40742 2.1835 0
M  V30 1426 H 134.089 -2.85319 1.27719 0
M  V30 1427 H 133.309 -1.77793 3.51828 0
M  V30 1428 H 134.597 -2.70229 4.31107 0
M  V30 1429 H 133.995 -5.16791 2.30094 0
M  V30 1430 H 132.552 -5.78778 2.99764 0
M  V30 1431 N 135.985 -1.50799 -0.457987 0
M  V30 1432 C 136.895 -1.73426 -1.57989 0
M  V30 1433 C 137.911 -0.617745 -1.62665 0
M  V30 1434 O 139.087 -0.897614 -1.80291 0
M  V30 1435 C 136.152 -1.83557 -2.94122 0
M  V30 1436 C 135.213 -3.07345 -2.99729 0
M  V30 1437 C 134.446 -3.16983 -4.29368 0
M  V30 1438 O 134.669 -2.33077 -5.20607 0
M  V30 1439 O 133.603 -4.09812 -4.40837 0
M  V30 1440 H 137.429 -2.68555 -1.41817 0
M  V30 1441 H 135.014 -1.35052 -0.638859 0
M  V30 1442 H 136.896 -1.92326 -3.74952 0
M  V30 1443 H 135.571 -0.916137 -3.10465 0
M  V30 1444 H 134.478 -3.04068 -2.1793 0
M  V30 1445 H 135.811 -3.9891 -2.88326 0
M  V30 1446 N 137.463 0.71206 -1.40597 0
M  V30 1447 C 138.709 1.47292 -1.40274 0
M  V30 1448 C 139.064 1.92399 -0.00576812 0
M  V30 1449 O 138.357 1.65507 0.965297 0
M  V30 1450 C 138.551 2.71039 -2.32965 0
M  V30 1451 C 138.38 2.38035 -3.81536 0
M  V30 1452 C 137.15 2.29203 -4.50327 0
M  V30 1453 C 139.348 2.02076 -4.72938 0
M  V30 1454 N 137.33 1.88911 -5.84111 0
M  V30 1455 C 138.701 1.72412 -5.95545 0
M  V30 1456 C 140.756 1.88742 -4.60739 0
M  V30 1457 C 139.459 1.30756 -7.07316 0
M  V30 1458 C 141.485 1.4849 -5.72455 0
M  V30 1459 C 140.847 1.19726 -6.94151 0
M  V30 1460 H 136.946 0.536919 -0.568544 0
M  V30 1461 H 139.53 0.825424 -1.76337 0
M  V30 1462 H 137.701 3.33533 -1.99023 0
M  V30 1463 H 139.433 3.37404 -2.23474 0
M  V30 1464 H 136.188 2.47059 -4.04053 0
M  V30 1465 H 136.612 1.71293 -6.54972 0
M  V30 1466 H 141.254 2.0964 -3.67166 0
M  V30 1467 H 138.972 1.08601 -8.00769 0
M  V30 1468 H 142.558 1.38747 -5.65014 0
M  V30 1469 H 141.438 0.890482 -7.79128 0
M  V30 1470 N 138.941 1.26152 0.944643 0
M  V30 1471 C 140.169 1.14259 1.72489 0
M  V30 1472 C 140.584 -0.302555 1.8636 0
M  V30 1473 O 139.941 -1.20741 1.36849 0
M  V30 1474 C 139.992 1.80266 3.13347 0
M  V30 1475 O 139.713 3.19133 3.00143 0
M  V30 1476 C 141.214 1.74283 4.07603 0
M  V30 1477 H 138.434 0.398051 0.540181 0
M  V30 1478 H 140.978 1.66706 1.18446 0
M  V30 1479 H 139.133 1.31766 3.64303 0
M  V30 1480 H 139.547 3.51744 3.89071 0
M  V30 1481 H 141.021 2.25111 5.04013 0
M  V30 1482 H 141.498 0.708631 4.33446 0
M  V30 1483 H 142.104 2.22319 3.62567 0
M  V30 1484 N 140.419 -1.14872 1.07899 0
M  V30 1485 C 141.351 -2.19425 0.662231 0
M  V30 1486 C 142.364 -1.60231 -0.288079 0
M  V30 1487 O 143.553 -1.78336 -0.076534 0
M  V30 1488 C 140.653 -3.38867 -0.0470695 0
M  V30 1489 C 139.826 -4.27597 0.920831 0
M  V30 1490 C 138.885 -5.25616 0.247805 0
M  V30 1491 O 137.911 -5.62189 0.890599 0
M  V30 1492 N 139.113 -5.71746 -1.00435 0
M  V30 1493 H 141.878 -2.55797 1.56166 0
M  V30 1494 H 139.439 -1.30042 0.964404 0
M  V30 1495 H 141.431 -4.01497 -0.50813 0
M  V30 1496 H 140.001 -3.00864 -0.848523 0
M  V30 1497 H 139.221 -3.61982 1.56087 0
M  V30 1498 H 140.509 -4.83748 1.57688 0
M  V30 1499 H 139.907 -5.44153 -1.54642 0
M  V30 1500 H 138.464 -6.36389 -1.40899 0
M  V30 1501 N 141.898 -0.863906 -1.31812 0
M  V30 1502 C 142.808 -0.318461 -2.32428 0
M  V30 1503 C 143.824 0.568496 -1.64451 0
M  V30 1504 O 145 0.46666 -1.95919 0
M  V30 1505 C 142.065 0.476355 -3.43412 0
M  V30 1506 C 141.126 -0.43784 -4.27061 0
M  V30 1507 C 140.359 0.319138 -5.32745 0
M  V30 1508 O 140.582 1.54799 -5.48993 0
M  V30 1509 O 139.516 -0.319861 -6.01049 0
M  V30 1510 H 143.342 -1.15229 -2.80991 0
M  V30 1511 H 140.927 -0.627103 -1.35602 0
M  V30 1512 H 142.809 0.927156 -4.11074 0
M  V30 1513 H 141.484 1.28683 -2.97022 0
M  V30 1514 H 140.391 -0.937013 -3.62175 0
M  V30 1515 H 141.724 -1.21375 -4.77 0
M  V30 1516 N 143.376 1.44774 -0.622745 0
M  V30 1517 C 144.622 2.02968 -0.13257 0
M  V30 1518 C 144.977 1.48047 1.22881 0
M  V30 1519 O 144.27 0.651625 1.80179 0
M  V30 1520 C 144.464 3.57364 -0.0508323 0
M  V30 1521 C 144.293 4.27262 -1.40275 0
M  V30 1522 C 143.063 4.64577 -1.98737 0
M  V30 1523 C 145.261 4.58248 -2.3348 0
M  V30 1524 N 143.243 5.19404 -3.27251 0
M  V30 1525 C 144.614 5.14069 -3.46603 0
M  V30 1526 C 146.669 4.40195 -2.32664 0
M  V30 1527 C 145.372 5.53738 -4.59093 0
M  V30 1528 C 147.398 4.80907 -3.44213 0
M  V30 1529 C 146.76 5.36834 -4.56058 0
M  V30 1530 H 142.859 0.776541 -0.0922354 0
M  V30 1531 H 145.443 1.76385 -0.82441 0
M  V30 1532 H 143.614 3.83576 0.610265 0
M  V30 1533 H 145.346 4.02219 0.447397 0
M  V30 1534 H 142.101 4.48622 -1.51774 0
M  V30 1535 H 142.525 5.51301 -3.92933 0
M  V30 1536 H 147.167 3.96257 -1.47446 0
M  V30 1537 H 144.885 5.96635 -5.45025 0
M  V30 1538 H 148.471 4.68659 -3.44747 0
M  V30 1539 H 147.351 5.67755 -5.40947 0
M  V30 1540 N 144.854 0.36279 1.53368 0
M  V30 1541 C 145.801 -0.485008 2.25646 0
M  V30 1542 C 146.771 -1.07982 1.2621 0
M  V30 1543 O 147.956 -1.11284 1.54986 0
M  V30 1544 C 145.096 -1.62023 3.04701 0
M  V30 1545 C 144.209 -1.05086 4.19024 0
M  V30 1546 C 143.344 -2.15496 4.85525 0
M  V30 1547 C 142.383 -1.5601 5.91884 0
M  V30 1548 N 141.52 -2.60241 6.52088 0
M  V30 1549 H 146.36 0.137864 2.97681 0
M  V30 1550 H 143.897 0.0798061 1.46883 0
M  V30 1551 H 145.855 -2.28887 3.48807 0
M  V30 1552 H 144.485 -2.2138 2.34927 0
M  V30 1553 H 143.537 -0.27259 3.79422 0
M  V30 1554 H 144.849 -0.575926 4.95464 0
M  V30 1555 H 144.003 -2.90186 5.32801 0
M  V30 1556 H 142.742 -2.66341 4.08551 0
M  V30 1557 H 141.747 -0.798338 5.43973 0
M  V30 1558 H 142.972 -1.05994 6.70777 0
M  V30 1559 H 140.918 -3.10304 5.77968 0
M  V30 1560 H 140.835 -2.17426 7.24059 0
M  V30 1561 H 142.103 -3.34641 7.04014 0
M  V30 1562 N 146.332 -1.57332 0.0918853 0
M  V30 1563 C 147.242 -2.17368 -0.882505 0
M  V30 1564 C 148.258 -1.14226 -1.31257 0
M  V30 1565 O 149.434 -1.46582 -1.38115 0
M  V30 1566 C 146.499 -2.73962 -2.12476 0
M  V30 1567 C 145.56 -3.92048 -1.7492 0
M  V30 1568 C 144.793 -4.45933 -2.93223 0
M  V30 1569 O 145.016 -3.98764 -4.07852 0
M  V30 1570 O 143.95 -5.36999 -2.71875 0
M  V30 1571 H 147.776 -3.01031 -0.40172 0
M  V30 1572 H 145.361 -1.48813 -0.132291 0
M  V30 1573 H 147.243 -3.10147 -2.85283 0
M  V30 1574 H 145.918 -1.93347 -2.59613 0
M  V30 1575 H 144.825 -3.6068 -0.993025 0
M  V30 1576 H 146.158 -4.74017 -1.32548 0
M  V30 1577 N 147.81 0.181792 -1.56548 0
M  V30 1578 C 149.05 0.906711 -1.83189 0
M  V30 1579 C 149.414 1.79882 -0.671312 0
M  V30 1580 O 150.615 2.56054 -0.81792 0
M  V30 1581 C 148.886 1.69023 -3.14906 0
M  V30 1582 S 150.445 2.46535 -3.62996 0
M  V30 1583 H 147.263 0.303877 -0.642791 0
M  V30 1584 H 149.865 0.169107 -1.94767 0
M  V30 1585 H 148.569 1.02571 -3.97376 0
M  V30 1586 H 148.1 2.46941 -3.06241 0
M  V30 1587 H 150.115 3.71014 -3.29489 0
M  V30 1588 N 149.288 1.51039 0.449983 0
M  V30 1589 C 150.699 1.557 1.03026 0
M  V30 1590 C 151.05 0.372939 1.92623 0
M  V30 1591 O 150.175 -0.511771 2.10261 0
M  V30 1592 C 150.77 2.82171 1.87523 0
M  V30 1593 C 149.329 2.89444 2.40622 0
M  V30 1594 C 148.476 2.50228 1.19504 0
M  V30 1595 H 151.427 1.56999 0.231745 0
M  V30 1596 H 151.448 2.65219 2.72835 0
M  V30 1597 H 150.96 3.68331 1.22286 0
M  V30 1598 H 149.061 2.07685 3.0935 0
M  V30 1599 H 149.174 3.92816 2.74285 0
M  V30 1600 H 147.538 2.03139 1.53644 0
M  V30 1601 H 148.321 3.38719 0.558972 0
M  V30 1602 N 150.766 -0.704594 1.40972 0
M  V30 1603 C 152.043 -1.45847 1.30338 0
M  V30 1604 C 152.423 -2.10973 -0.0732344 0
M  V30 1605 O 151.771 -2.00997 -1.08685 0
M  V30 1606 C 151.981 -2.48525 2.45023 0
M  V30 1607 C 153.329 -3.1404 2.8577 0
M  V30 1608 O 154.353 -2.58848 2.44696 0
M  V30 1609 O 153.212 -4.13981 3.56766 0
M  V30 1610 H 150.306 -0.649092 0.512454 0
M  V30 1611 H 152.852 -0.735836 1.52917 0
M  V30 1612 H 151.624 -1.98994 3.36923 0
M  V30 1613 H 151.247 -3.2831 2.24272 0
M  V30 1614 N 152.244 -1.26651 -0.937939 0
M  V30 1615 C 153.474 -1.15006 -1.71631 0
M  V30 1616 C 153.882 0.297026 -1.86854 0
M  V30 1617 O 153.225 1.21493 -1.37786 0
M  V30 1618 C 153.287 -1.74984 -3.14039 0
M  V30 1619 C 152.951 -3.24103 -3.2219 0
M  V30 1620 C 153.948 -4.20877 -3.05219 0
M  V30 1621 C 151.633 -3.64625 -3.45476 0
M  V30 1622 C 153.627 -5.56151 -3.11408 0
M  V30 1623 C 151.314 -5.00032 -3.513 0
M  V30 1624 C 152.312 -5.95604 -3.34282 0
M  V30 1625 O 152 -7.28545 -3.3982 0
M  V30 1626 H 151.732 -0.401183 -0.544085 0
M  V30 1627 H 154.286 -1.67832 -1.18413 0
M  V30 1628 H 152.516 -1.16624 -3.68695 0
M  V30 1629 H 154.205 -1.58199 -3.73802 0
M  V30 1630 H 154.971 -3.90908 -2.87081 0
M  V30 1631 H 150.85 -2.90718 -3.57777 0
M  V30 1632 H 154.394 -6.30727 -2.98043 0
M  V30 1633 H 150.291 -5.29659 -3.68959 0
M  V30 1634 H 151.059 -7.3686 -3.56343 0
M  V30 1635 N 153.722 1.14298 -1.08507 0
M  V30 1636 C 154.968 1.85633 -0.816581 0
M  V30 1637 C 155.301 1.82784 0.656021 0
M  V30 1638 O 154.576 1.25926 1.48233 0
M  V30 1639 C 154.859 3.34223 -1.34041 0
M  V30 1640 C 154.712 3.45639 -2.87843 0
M  V30 1641 C 156.031 4.29356 -0.9665 0
M  V30 1642 H 153.15 0.67402 -0.298104 0
M  V30 1643 H 155.792 1.34214 -1.34487 0
M  V30 1644 H 153.942 3.78144 -0.89104 0
M  V30 1645 H 155.614 3.10498 -3.41158 0
M  V30 1646 H 153.857 2.86817 -3.25451 0
M  V30 1647 H 154.528 4.50089 -3.19569 0
M  V30 1648 H 157.004 3.93457 -1.35391 0
M  V30 1649 H 155.88 5.3178 -1.3602 0
M  V30 1650 H 156.141 4.41919 0.126362 0
M  V30 1651 N 155.201 0.870884 1.31352 0
M  V30 1652 C 156.426 0.495957 2.01383 0
M  V30 1653 C 156.851 -0.904324 1.64935 0
M  V30 1654 O 156.209 -1.59687 0.858466 0
M  V30 1655 C 156.257 0.661433 3.54482 0
M  V30 1656 O 155.361 -0.298851 4.11316 0
M  V30 1657 H 154.702 0.197158 0.634054 0
M  V30 1658 H 157.232 1.17455 1.67527 0
M  V30 1659 H 157.242 0.555072 4.04207 0
M  V30 1660 H 155.917 1.68246 3.8035 0
M  V30 1661 H 154.494 -0.147368 3.72609 0
M  V30 1662 N 156.679 -1.44442 0.630414 0
M  V30 1663 C 157.642 -2.29107 -0.0652523 0
M  V30 1664 C 158.642 -1.41002 -0.772995 0
M  V30 1665 O 159.832 -1.62881 -0.617692 0
M  V30 1666 C 156.964 -3.22564 -1.10296 0
M  V30 1667 H 158.157 -2.92103 0.679401 0
M  V30 1668 H 155.71 -1.51343 0.390517 0
M  V30 1669 H 156.445 -2.64416 -1.87762 0
M  V30 1670 H 156.23 -3.87491 -0.59941 0
M  V30 1671 H 157.72 -3.86167 -1.5895 0
M  V30 1672 N 158.157 -0.370918 -1.53173 0
M  V30 1673 C 159.405 0.216673 -2.00935 0
M  V30 1674 C 159.726 1.48845 -1.25977 0
M  V30 1675 O 158.996 1.92286 -0.374551 0
M  V30 1676 H 157.576 0.0830565 -0.742368 0
M  V30 1677 H 160.238 -0.49838 -1.8842 0
M  V30 1678 H 159.334 0.439893 -3.08984 0
M  V30 1679 N 159.635 1.57281 -0.100228 0
M  V30 1680 C 160.545 2.17833 0.870965 0
M  V30 1681 C 161.561 1.14921 1.30649 0
M  V30 1682 O 162.737 1.47313 1.37335 0
M  V30 1683 C 159.802 2.75085 2.1102 0
M  V30 1684 C 158.863 3.9297 1.72838 0
M  V30 1685 C 158.096 4.47482 2.90854 0
M  V30 1686 O 158.319 4.00922 4.05731 0
M  V30 1687 O 157.253 5.38433 2.69023 0
M  V30 1688 H 161.079 3.0124 0.38575 0
M  V30 1689 H 158.664 1.48881 0.124397 0
M  V30 1690 H 160.546 3.11656 2.83634 0
M  V30 1691 H 159.221 1.94721 2.58584 0
M  V30 1692 H 158.128 3.61201 0.973883 0
M  V30 1693 H 159.461 4.74713 1.30033 0
M  V30 1694 N 161.113 -0.173488 1.56642 0
M  V30 1695 C 162.061 -1.23417 1.97157 0
M  V30 1696 C 163.055 -1.45946 0.860013 0
M  V30 1697 O 164.261 -1.46551 1.04512 0
M  V30 1698 H 160.636 -0.414818 0.62724 0
M  V30 1699 H 162.607 -0.865582 2.8557 0
M  V30 1700 C 161.356 -2.5665 2.34576 0
M  V30 1701 H 160.679 -2.40137 3.19647 0
M  V30 1702 H 162.119 -3.2956 2.6677 0
M  V30 1703 C 160.578 -3.15245 1.18836 0
M  V30 1704 O 161.108 -3.98883 0.474869 0
M  V30 1705 N 159.314 -2.74303 0.959497 0
M  V30 1706 H 158.861 -2.0639 1.54146 0
M  V30 1707 H 158.819 -3.13844 0.186932 0
M  V30 1708 N 162.591 -1.51276 -0.441967 0
M  V30 1709 C 163.816 -1.67799 -1.21895 0
M  V30 1710 C 164.241 -0.372864 -1.84367 0
M  V30 1711 O 163.599 0.666501 -1.68604 0
M  V30 1712 C 163.647 -2.79199 -2.28211 0
M  V30 1713 O 162.751 -2.42479 -3.33583 0
M  V30 1714 H 162.092 -0.559649 -0.357336 0
M  V30 1715 H 164.622 -1.97815 -0.522522 0
M  V30 1716 H 164.632 -3.03146 -2.73069 0
M  V30 1717 H 163.307 -3.73906 -1.82118 0
M  V30 1718 H 161.884 -2.29087 -2.94234 0
M  V30 1719 N 164.069 0.697108 -1.41344 0
M  V30 1720 C 165.309 1.46939 -1.42085 0
M  V30 1721 C 165.673 1.9198 -0.0280397 0
M  V30 1722 O 166.874 2.6865 0.0897504 0
M  V30 1723 C 165.145 2.64985 -2.39828 0
M  V30 1724 S 166.704 3.54147 -2.59085 0
M  V30 1725 H 163.522 0.502146 -0.503359 0
M  V30 1726 H 166.124 0.813546 -1.77769 0
M  V30 1727 H 164.828 2.30098 -3.39828 0
M  V30 1728 H 164.359 3.35464 -2.05493 0
M  V30 1729 H 166.374 4.60137 -1.85711 0
M  V30 1730 N 165.547 1.27147 0.931209 0
M  V30 1731 C 166.777 1.15914 1.71019 0
M  V30 1732 C 167.185 -0.287112 1.87009 0
M  V30 1733 O 166.528 -1.20761 1.38429 0
M  V30 1734 C 166.59 1.76647 3.13107 0
M  V30 1735 C 166.254 3.25807 3.20467 0
M  V30 1736 C 167.251 4.22489 3.02983 0
M  V30 1737 C 164.936 3.66452 3.43538 0
M  V30 1738 C 166.93 5.57794 3.08454 0
M  V30 1739 C 164.617 5.01888 3.48643 0
M  V30 1740 C 165.615 5.97369 3.31119 0
M  V30 1741 O 165.303 7.30337 3.35952 0
M  V30 1742 H 165.035 0.404062 0.54195 0
M  V30 1743 H 167.589 1.68457 1.17521 0
M  V30 1744 H 165.819 1.18578 3.68071 0
M  V30 1745 H 167.508 1.60179 3.72958 0
M  V30 1746 H 168.274 3.92425 2.85004 0
M  V30 1747 H 164.153 2.92611 3.5623 0
M  V30 1748 H 167.697 6.32298 2.94694 0
M  V30 1749 H 163.594 5.31609 3.66145 0
M  V30 1750 H 164.362 7.38739 3.5243 0
M  V30 1751 N 167.025 -1.13721 1.09112 0
M  V30 1752 C 168.272 -1.84924 0.825192 0
M  V30 1753 C 168.6 -1.83347 -0.649151 0
M  V30 1754 O 167.855 -1.26449 -1.49362 0
M  V30 1755 C 168.154 -3.32861 1.30146 0
M  V30 1756 C 167.82 -3.54621 2.78486 0
M  V30 1757 C 166.482 -3.60268 3.18999 0
M  V30 1758 C 168.834 -3.62855 3.74146 0
M  V30 1759 C 166.162 -3.71679 4.53951 0
M  V30 1760 C 168.514 -3.75793 5.08883 0
M  V30 1761 C 167.178 -3.79692 5.4899 0
M  V30 1762 H 166.448 -0.676684 0.301959 0
M  V30 1763 H 169.095 -1.3428 1.36533 0
M  V30 1764 H 167.4 -3.85835 0.681064 0
M  V30 1765 H 169.097 -3.86395 1.07236 0
M  V30 1766 H 165.687 -3.50879 2.46134 0
M  V30 1767 H 169.871 -3.57775 3.43963 0
M  V30 1768 H 165.127 -3.72963 4.84467 0
M  V30 1769 H 169.301 -3.81107 5.82864 0
M  V30 1770 H 166.928 -3.88287 6.53558 0
M  V30 1771 N 168.503 -0.877838 -1.30888 0
M  V30 1772 C 169.451 -0.328662 -2.30266 0
M  V30 1773 C 170.445 0.560496 -1.59859 0
M  V30 1774 O 171.651 0.445722 -1.74394 0
M  V30 1775 H 168.026 -0.0876142 -0.746879 0
M  V30 1776 H 169.997 -1.18061 -2.74051 0
M  V30 1777 C 168.746 0.448071 -3.44801 0
M  V30 1778 H 168.069 -0.226859 -3.99156 0
M  V30 1779 H 169.509 0.797541 -4.16432 0
M  V30 1780 C 167.968 1.64239 -2.94155 0
M  V30 1781 O 168.498 2.74175 -2.93583 0
M  V30 1782 N 166.704 1.47716 -2.50256 0
M  V30 1783 H 166.251 0.582821 -2.5092 0
M  V30 1784 H 166.209 2.27765 -2.16727 0
M  V30 1785 N 169.982 1.44106 -0.638065 0
M  V30 1786 C 171.207 2.0685 -0.150916 0
M  V30 1787 C 171.632 1.47417 1.16833 0
M  V30 1788 O 170.99 0.578264 1.71831 0
M  V30 1789 C 171.038 3.60555 -0.05708 0
M  V30 1790 O 170.142 4.00465 0.984972 0
M  V30 1791 H 169.483 0.658151 -0.0879399 0
M  V30 1792 H 172.013 1.84865 -0.876707 0
M  V30 1793 H 172.023 4.07789 0.131232 0
M  V30 1794 H 170.698 4.03193 -1.02021 0
M  V30 1795 H 169.275 3.64849 0.770672 0
M  V30 1796 N 171.46 0.379036 1.52974 0
M  V30 1797 C 172.685 -0.209353 2.06341 0
M  V30 1798 C 173.11 -1.40583 1.24972 0
M  V30 1799 O 172.468 -1.79246 0.272155 0
M  V30 1800 C 172.516 -0.567786 3.56102 0
M  V30 1801 O 171.62 -1.66318 3.77375 0
M  V30 1802 H 170.961 -0.0272919 0.663439 0
M  V30 1803 H 173.491 0.543536 1.97248 0
M  V30 1804 H 173.501 -0.835003 3.99364 0
M  V30 1805 H 172.176 0.307013 4.14765 0
M  V30 1806 H 170.753 -1.39048 3.46006 0
M  V30 1807 N 172.938 -1.57226 0.108567 0
M  V30 1808 C 174.185 -1.94833 -0.551943 0
M  V30 1809 C 174.513 -0.991204 -1.67348 0
M  V30 1810 O 173.768 -0.0131878 -1.95696 0
M  V30 1811 C 174.067 -3.38911 -1.13463 0
M  V30 1812 C 173.733 -4.50696 -0.135509 0
M  V30 1813 C 172.395 -4.80998 0.139252 0
M  V30 1814 C 174.747 -5.18333 0.545957 0
M  V30 1815 C 172.075 -5.76259 1.10194 0
M  V30 1816 C 174.427 -6.14627 1.49721 0
M  V30 1817 C 173.091 -6.43327 1.78006 0
M  V30 1818 H 172.361 -0.712944 -0.20197 0
M  V30 1819 H 175.008 -1.90582 0.18726 0
M  V30 1820 H 173.313 -3.39805 -1.95037 0
M  V30 1821 H 175.01 -3.65317 -1.65362 0
M  V30 1822 H 171.6 -4.27087 -0.359846 0
M  V30 1823 H 175.784 -4.95087 0.346842 0
M  V30 1824 H 171.04 -5.96804 1.32795 0
M  V30 1825 H 175.214 -6.66126 2.03099 0
M  V30 1826 H 172.841 -7.1695 2.52759 0
M  V30 1827 N 174.416 0.165178 -1.56732 0
M  V30 1828 C 175.644 0.896218 -1.86482 0
M  V30 1829 C 176.059 1.75555 -0.694675 0
M  V30 1830 O 175.416 1.79379 0.33607 0
M  V30 1831 C 175.467 1.76792 -3.1532 0
M  V30 1832 O 175.188 0.943239 -4.27825 0
M  V30 1833 C 176.689 2.6081 -3.58459 0
M  V30 1834 H 173.909 0.260064 -0.618553 0
M  V30 1835 H 176.453 0.163428 -2.03846 0
M  V30 1836 H 174.608 2.45398 -2.99764 0
M  V30 1837 H 175.022 1.53998 -5.01383 0
M  V30 1838 H 176.496 3.17579 -4.51495 0
M  V30 1839 H 176.973 3.35977 -2.82872 0
M  V30 1840 H 177.579 1.97526 -3.76648 0
M  V30 1841 N 175.894 1.51508 0.433938 0
M  V30 1842 C 177.119 1.68443 1.21003 0
M  V30 1843 C 177.544 0.382636 1.84167 0
M  V30 1844 O 176.902 -0.65755 1.68956 0
M  V30 1845 C 176.95 2.80405 2.26727 0
M  V30 1846 O 176.054 2.44245 3.32292 0
M  V30 1847 H 175.395 0.561536 0.354363 0
M  V30 1848 H 177.925 1.9809 0.512024 0
M  V30 1849 H 177.935 3.0459 2.71457 0
M  V30 1850 H 176.61 3.74867 1.80132 0
M  V30 1851 H 175.187 2.30644 2.93015 0
M  V30 1852 N 177.372 -0.689602 1.41712 0
M  V30 1853 C 178.621 -1.44534 1.40686 0
M  V30 1854 C 178.934 -1.95588 0.0213352 0
M  V30 1855 O 180.14 -2.71271 -0.111534 0
M  V30 1856 C 178.596 -2.61387 2.47396 0
M  V30 1857 C 178.204 -2.17094 3.91885 0
M  V30 1858 C 179.948 -3.38986 2.55517 0
M  V30 1859 C 177.855 -3.3094 4.90135 0
M  V30 1860 H 176.785 -0.542925 0.52321 0
M  V30 1861 H 179.436 -0.748054 1.6756 0
M  V30 1862 H 177.818 -3.33412 2.13664 0
M  V30 1863 H 178.992 -1.52318 4.34897 0
M  V30 1864 H 177.307 -1.52473 3.8748 0
M  V30 1865 H 179.904 -4.23747 3.26102 0
M  V30 1866 H 180.247 -3.84578 1.59391 0
M  V30 1867 H 180.78 -2.74021 2.8837 0
M  V30 1868 H 177.519 -2.90355 5.87685 0
M  V30 1869 H 177.039 -3.94546 4.51767 0
M  V30 1870 H 178.718 -3.9663 5.11169 0
M  V30 1871 N 178.85 -1.27639 -0.924453 0
M  V30 1872 C 180.096 -1.15345 -1.67532 0
M  V30 1873 C 180.451 0.297096 -1.90092 0
M  V30 1874 O 179.744 1.21374 -1.48253 0
M  V30 1875 C 179.938 -1.87407 -3.04325 0
M  V30 1876 C 179.767 -3.3932 -2.95114 0
M  V30 1877 C 178.537 -4.08644 -2.97218 0
M  V30 1878 C 180.735 -4.35242 -2.73987 0
M  V30 1879 N 178.717 -5.47102 -2.78482 0
M  V30 1880 C 180.088 -5.6099 -2.63988 0
M  V30 1881 C 182.143 -4.25294 -2.589 0
M  V30 1882 C 180.846 -6.77924 -2.40442 0
M  V30 1883 C 182.872 -5.41952 -2.36731 0
M  V30 1884 C 182.234 -6.66658 -2.27478 0
M  V30 1885 H 178.333 -0.47696 -0.619704 0
M  V30 1886 H 180.917 -1.6115 -1.09265 0
M  V30 1887 H 179.088 -1.44053 -3.60699 0
M  V30 1888 H 180.82 -1.6759 -3.68369 0
M  V30 1889 H 177.575 -3.60136 -3.07569 0
M  V30 1890 H 177.999 -6.19852 -2.72236 0
M  V30 1891 H 182.641 -3.29598 -2.64811 0
M  V30 1892 H 180.359 -7.73699 -2.3327 0
M  V30 1893 H 183.945 -5.36137 -2.25938 0
M  V30 1894 H 182.825 -7.55405 -2.10555 0
M  V30 1895 N 180.328 1.1314 -1.09713 0
M  V30 1896 C 181.577 1.83838 -0.829851 0
M  V30 1897 C 181.89 1.84599 0.646728 0
M  V30 1898 O 183.096 2.51218 1.02965 0
M  V30 1899 C 181.552 3.30069 -1.43466 0
M  V30 1900 C 181.16 3.37688 -2.94399 0
M  V30 1901 C 182.904 4.05788 -1.24645 0
M  V30 1902 C 180.811 4.78209 -3.47952 0
M  V30 1903 H 179.741 0.68877 -0.306777 0
M  V30 1904 H 182.392 1.27448 -1.3202 0
M  V30 1905 H 180.774 3.8628 -0.871996 0
M  V30 1906 H 181.948 2.91456 -3.56918 0
M  V30 1907 H 180.263 2.75436 -3.12289 0
M  V30 1908 H 182.86 5.09535 -1.62107 0
M  V30 1909 H 183.203 4.15878 -0.187357 0
M  V30 1910 H 183.736 3.55915 -1.77678 0
M  V30 1911 H 180.475 4.73311 -4.53495 0
M  V30 1912 H 179.995 5.24924 -2.90198 0
M  V30 1913 H 181.674 5.47133 -3.45332 0
M  V30 1914 N 181.806 0.884767 1.30421 0
M  V30 1915 C 183.217 0.553656 1.78302 0
M  V30 1916 C 183.568 -0.930153 1.7275 0
M  V30 1917 O 182.693 -1.72681 1.30423 0
M  V30 1918 C 183.288 0.998234 3.2376 0
M  V30 1919 C 181.847 0.71854 3.69478 0
M  V30 1920 C 180.994 1.18132 2.50879 0
M  V30 1921 H 183.945 1.06901 1.17294 0
M  V30 1922 H 183.966 0.327118 3.79091 0
M  V30 1923 H 183.478 2.0782 3.27769 0
M  V30 1924 H 181.579 -0.349444 3.70958 0
M  V30 1925 H 181.692 1.30595 4.60958 0
M  V30 1926 H 180.056 0.600669 2.47516 0
M  V30 1927 H 180.839 2.26902 2.57624 0
M  V30 1928 N 183.284 -1.43765 0.645699 0
M  V30 1929 C 184.514 -2.05953 0.163318 0
M  V30 1930 C 184.922 -1.48432 -1.17322 0
M  V30 1931 O 184.265 -0.607295 -1.73371 0
M  V30 1932 C 184.327 -3.59499 -0.0103065 0
M  V30 1933 C 183.991 -4.39563 1.25035 0
M  V30 1934 C 184.988 -4.72108 2.17739 0
M  V30 1935 C 182.673 -4.79697 1.48983 0
M  V30 1936 C 184.667 -5.43688 3.3269 0
M  V30 1937 C 182.354 -5.51023 2.64229 0
M  V30 1938 C 183.352 -5.8294 3.55908 0
M  V30 1939 O 183.04 -6.5281 4.69142 0
M  V30 1940 H 182.772 -0.670798 0.0836986 0
M  V30 1941 H 185.326 -1.85384 0.884407 0
M  V30 1942 H 183.556 -3.78613 -0.78669 0
M  V30 1943 H 185.245 -4.03408 -0.449087 0
M  V30 1944 H 186.011 -4.41627 2.00476 0
M  V30 1945 H 181.89 -4.54266 0.785078 0
M  V30 1946 H 185.434 -5.68517 4.04269 0
M  V30 1947 H 181.331 -5.8092 2.81429 0
M  V30 1948 H 182.099 -6.71288 4.6831 0
M  V30 1949 N 184.763 -0.387143 -1.52771 0
M  V30 1950 C 186.003 0.195537 -2.03463 0
M  V30 1951 C 186.367 1.44222 -1.26744 0
M  V30 1952 O 187.568 2.10192 -1.67549 0
M  V30 1953 C 185.839 0.459097 -3.54439 0
M  V30 1954 S 187.398 1.01237 -4.26962 0
M  V30 1955 H 184.216 0.0552675 -0.708849 0
M  V30 1956 H 186.818 -0.534992 -1.88037 0
M  V30 1957 H 185.522 -0.455382 -4.07866 0
M  V30 1958 H 185.053 1.21811 -3.74066 0
M  V30 1959 H 187.068 2.29492 -4.39941 0
M  V30 1960 N 186.241 1.57166 -0.116904 0
M  V30 1961 C 187.49 1.94298 0.541407 0
M  V30 1962 C 187.803 1.00236 1.67964 0
M  V30 1963 O 189.009 1.26826 2.40057 0
M  V30 1964 C 187.465 3.45306 1.01449 0
M  V30 1965 C 187.073 4.47899 -0.0951738 0
M  V30 1966 C 188.817 3.91361 1.6443 0
M  V30 1967 C 186.724 5.90083 0.394491 0
M  V30 1968 H 185.654 0.725308 0.206019 0
M  V30 1969 H 188.305 1.82446 -0.196419 0
M  V30 1970 H 186.687 3.52385 1.80667 0
M  V30 1971 H 187.861 4.52486 -0.871374 0
M  V30 1972 H 186.176 4.11583 -0.631505 0
M  V30 1973 H 188.773 4.95004 2.02176 0
M  V30 1974 H 189.116 3.3122 2.52189 0
M  V30 1975 H 189.649 3.87073 0.917559 0
M  V30 1976 H 186.388 6.53974 -0.447004 0
M  V30 1977 H 185.908 5.88921 1.13722 0
M  V30 1978 H 187.587 6.41307 0.856399 0
M  V30 1979 N 187.719 -0.156864 1.56817 0
M  V30 1980 C 188.666 -1.19394 1.97519 0
M  V30 1981 C 189.636 -1.4322 0.841265 0
M  V30 1982 O 190.821 -1.55719 1.10255 0
M  V30 1983 C 187.961 -2.52483 2.35258 0
M  V30 1984 C 187.074 -2.35914 3.61896 0
M  V30 1985 C 186.209 -3.61969 3.88782 0
M  V30 1986 C 185.248 -3.40395 5.08722 0
M  V30 1987 N 184.385 -4.58556 5.31668 0
M  V30 1988 H 189.225 -0.839845 2.85921 0
M  V30 1989 H 186.762 -0.403264 1.41464 0
M  V30 1990 H 188.72 -3.30071 2.55165 0
M  V30 1991 H 187.35 -2.85859 1.49949 0
M  V30 1992 H 186.402 -1.49429 3.49821 0
M  V30 1993 H 187.714 -2.15926 4.49641 0
M  V30 1994 H 186.868 -4.47989 4.09135 0
M  V30 1995 H 185.607 -3.84951 2.9944 0
M  V30 1996 H 184.612 -2.52763 4.88253 0
M  V30 1997 H 185.837 -3.18822 5.99608 0
M  V30 1998 H 183.783 -4.81729 4.45279 0
M  V30 1999 H 183.7 -4.41535 6.13664 0
M  V30 2000 H 184.968 -5.45817 5.5651 0
M  V30 2001 N 189.197 -1.51736 -0.425897 0
M  V30 2002 C 190.127 -1.76827 -1.52494 0
M  V30 2003 C 191.108 -0.618524 -1.58456 0
M  V30 2004 O 192.293 -0.862416 -1.74 0
M  V30 2005 C 189.423 -1.90374 -2.90474 0
M  V30 2006 C 188.377 -3.0588 -2.99369 0
M  V30 2007 C 187.703 -3.04625 -4.3944 0
M  V30 2008 C 189.003 -4.45644 -2.72394 0
M  V30 2009 H 190.697 -2.68855 -1.31748 0
M  V30 2010 H 188.243 -1.29372 -0.632362 0
M  V30 2011 H 190.196 -2.0651 -3.6733 0
M  V30 2012 H 188.92 -0.95004 -3.12477 0
M  V30 2013 H 187.579 -2.89467 -2.24954 0
M  V30 2014 H 187.227 -2.0701 -4.58428 0
M  V30 2015 H 186.927 -3.82195 -4.46319 0
M  V30 2016 H 188.451 -3.22869 -5.18255 0
M  V30 2017 H 189.865 -4.62348 -3.38979 0
M  V30 2018 H 188.262 -5.25006 -2.9067 0
M  V30 2019 H 189.332 -4.54893 -1.67929 0
M  V30 2020 N 190.675 0.682077 -1.42076 0
M  V30 2021 C 191.903 1.47057 -1.4554 0
M  V30 2022 C 192.318 1.8869 -0.0645779 0
M  V30 2023 O 191.675 1.57666 0.919115 0
M  V30 2024 C 191.726 2.72442 -2.37609 0
M  V30 2025 O 191.447 2.32559 -3.71279 0
M  V30 2026 C 192.948 3.66069 -2.50017 0
M  V30 2027 H 190.168 0.452737 -0.495248 0
M  V30 2028 H 192.712 0.838695 -1.8651 0
M  V30 2029 H 190.867 3.31835 -1.9991 0
M  V30 2030 H 191.281 3.13475 -4.20516 0
M  V30 2031 H 192.755 4.50792 -3.18576 0
M  V30 2032 H 193.232 4.11476 -1.53572 0
M  V30 2033 H 193.838 3.12572 -2.88407 0
M  V30 2034 N 192.153 1.28127 0.917671 0
M  V30 2035 C 193.378 1.18007 1.70555 0
M  V30 2036 C 193.803 -0.258257 1.86319 0
M  V30 2037 O 193.161 -1.1869 1.37049 0
M  V30 2038 C 193.209 1.87948 3.07746 0
M  V30 2039 O 192.313 1.18427 3.9503 0
M  V30 2040 H 191.654 0.409867 0.522403 0
M  V30 2041 H 194.184 1.69379 1.1477 0
M  V30 2042 H 194.194 1.95701 3.58001 0
M  V30 2043 H 192.869 2.92573 2.95591 0
M  V30 2044 H 191.446 1.18811 3.53466 0
M  V30 2045 N 193.631 -1.12557 1.10312 0
M  V30 2046 C 194.579 -2.20325 0.745629 0
M  V30 2047 C 195.573 -1.67429 -0.25763 0
M  V30 2048 O 196.779 -1.79612 -0.118132 0
M  V30 2049 H 193.154 -0.718118 0.223182 0
M  V30 2050 H 195.125 -2.47733 1.66346 0
M  V30 2051 C 193.874 -3.47168 0.192262 0
M  V30 2052 H 193.197 -3.88215 0.955475 0
M  V30 2053 H 194.637 -4.23995 -0.0198274 0
M  V30 2054 C 193.096 -3.19298 -1.07472 0
M  V30 2055 O 193.626 -3.3891 -2.15645 0
M  V30 2056 N 191.832 -2.73113 -0.992847 0
M  V30 2057 H 191.379 -2.57354 -0.112474 0
M  V30 2058 H 191.337 -2.54842 -1.84127 0
M  V30 2059 N 195.109 -0.891671 -1.2995 0
M  V30 2060 C 196.357 -0.512486 -1.95494 0
M  V30 2061 C 196.678 0.942776 -1.70695 0
M  V30 2062 O 195.948 1.66374 -1.03424 0
M  V30 2063 H 194.528 -0.186533 -0.723336 0
M  V30 2064 H 197.19 -1.13621 -1.58355 0
M  V30 2065 H 196.286 -0.688342 -3.04415 0
M  V30 2066 N 196.587 1.43421 -0.653314 0
M  V30 2067 C 197.835 2.01414 -0.166415 0
M  V30 2068 C 198.156 1.51803 1.22397 0
M  V30 2069 O 197.426 0.730693 1.81763 0
M  V30 2070 H 196.006 0.744703 -0.0585319 0
M  V30 2071 H 198.668 1.75629 -0.845003 0
M  V30 2072 H 197.764 3.11734 -0.151111 0
M  V30 2073 N 198.065 0.39524 1.52563 0
M  V30 2074 C 199.293 -0.184943 2.06072 0
M  V30 2075 C 199.708 -1.40021 1.26647 0
M  V30 2076 O 199.065 -1.79767 0.314672 0
M  V30 2077 C 199.116 -0.549179 3.57304 0
M  V30 2078 O 198.837 0.617813 4.33722 0
M  V30 2079 C 200.338 -1.18459 4.2718 0
M  V30 2080 H 197.558 -0.0265025 0.670476 0
M  V30 2081 H 200.102 0.562184 1.96621 0
M  V30 2082 H 198.257 -1.2462 3.66809 0
M  V30 2083 H 198.671 0.317091 5.23541 0
M  V30 2084 H 200.145 -1.38976 5.34219 0
M  V30 2085 H 200.622 -2.15368 3.82771 0
M  V30 2086 H 201.228 -0.528163 4.22008 0
M  V30 2087 N 199.544 -1.57102 0.125237 0
M  V30 2088 C 200.79 -1.95697 -0.532035 0
M  V30 2089 C 201.123 -1.009 -1.6593 0
M  V30 2090 O 200.398 -0.047347 -1.94442 0
M  V30 2091 C 200.681 -3.44181 -1.05884 0
M  V30 2092 C 200.534 -4.49752 0.0654392 0
M  V30 2093 C 201.853 -3.94655 -1.9477 0
M  V30 2094 H 198.972 -0.711571 -0.191925 0
M  V30 2095 H 201.614 -1.88923 0.20206 0
M  V30 2096 H 199.764 -3.50085 -1.68442 0
M  V30 2097 H 201.436 -4.55943 0.700982 0
M  V30 2098 H 199.679 -4.27653 0.727709 0
M  V30 2099 H 200.35 -5.50924 -0.344505 0
M  V30 2100 H 202.826 -3.91094 -1.42074 0
M  V30 2101 H 201.702 -4.99057 -2.28546 0
M  V30 2102 H 201.963 -3.35718 -2.87656 0
M  V30 2103 N 201.022 0.148545 -1.56898 0
M  V30 2104 C 202.299 0.890019 -1.74178 0
M  V30 2105 C 202.679 1.99407 -0.692839 0
M  V30 2106 O 202.027 2.26671 0.288505 0
M  V30 2107 C 202.237 1.43389 -3.18183 0
M  V30 2108 C 203.585 1.89791 -3.79822 0
M  V30 2109 O 204.609 1.53134 -3.21603 0
M  V30 2110 O 203.468 2.57387 -4.82093 0
M  V30 2111 H 200.562 0.420496 -0.712118 0
M  V30 2112 H 203.108 0.134591 -1.69165 0
M  V30 2113 H 201.88 0.640383 -3.86024 0
M  V30 2114 H 201.503 2.25287 -3.27615 0
M  V30 2115 N 202.5 1.5196 0.417844 0
M  V30 2116 C 203.41 1.77554 1.53336 0
M  V30 2117 C 204.426 0.660655 1.6097 0
M  V30 2118 O 205.602 0.945099 1.77848 0
M  V30 2119 C 202.667 1.91291 2.89152 0
M  V30 2120 C 201.728 3.15183 2.91475 0
M  V30 2121 C 200.961 3.28256 4.20813 0
M  V30 2122 O 201.184 2.46798 5.14244 0
M  V30 2123 O 200.118 4.21356 4.29817 0
M  V30 2124 H 203.944 2.7222 1.34647 0
M  V30 2125 H 201.529 1.36698 0.602828 0
M  V30 2126 H 203.411 2.02199 3.69721 0
M  V30 2127 H 202.086 0.998129 3.07927 0
M  V30 2128 H 200.993 3.09739 2.09791 0
M  V30 2129 H 202.326 4.06414 2.77648 0
M  V30 2130 N 203.978 -0.674533 1.42435 0
M  V30 2131 C 204.925 -1.78807 1.45934 0
M  V30 2132 C 205.895 -1.63157 0.311271 0
M  V30 2133 O 207.08 -1.83707 0.515383 0
M  V30 2134 C 204.22 -3.16839 1.36773 0
M  V30 2135 C 203.333 -3.43774 2.61617 0
M  V30 2136 C 202.468 -4.71536 2.44597 0
M  V30 2137 C 201.507 -4.91505 3.64814 0
M  V30 2138 N 200.644 -6.10508 3.46734 0
M  V30 2139 H 205.484 -1.75151 2.41093 0
M  V30 2140 H 203.021 -0.85504 1.19697 0
M  V30 2141 H 204.979 -3.96606 1.29459 0
M  V30 2142 H 203.609 -3.19619 0.452089 0
M  V30 2143 H 202.661 -2.58259 2.79297 0
M  V30 2144 H 203.973 -3.54423 3.50978 0
M  V30 2145 H 203.127 -5.59393 2.3487 0
M  V30 2146 H 201.866 -4.6317 1.52726 0
M  V30 2147 H 200.871 -4.0209 3.74972 0
M  V30 2148 H 202.096 -5.01716 4.57665 0
M  V30 2149 H 200.042 -6.03315 2.5758 0
M  V30 2150 H 199.959 -6.2202 4.29682 0
M  V30 2151 H 201.227 -7.01044 3.40819 0
M  V30 2152 N 205.456 -1.28612 -0.910864 0
M  V30 2153 C 206.696 -1.1719 -1.67469 0
M  V30 2154 C 207.06 0.274441 -1.90028 0
M  V30 2155 O 208.261 0.511425 -2.6389 0
M  V30 2156 C 206.532 -1.95137 -2.99427 0
M  V30 2157 S 208.091 -2.00122 -3.90508 0
M  V30 2158 H 204.909 -0.41806 -0.575106 0
M  V30 2159 H 207.511 -1.6275 -1.08317 0
M  V30 2160 H 206.215 -2.99381 -2.80712 0
M  V30 2161 H 205.746 -1.50137 -3.63624 0
M  V30 2162 H 207.761 -1.10981 -4.8363 0
M  V30 2163 N 206.934 1.1197 -1.10907 0
M  V30 2164 C 208.181 1.83588 -0.854507 0
M  V30 2165 C 208.509 1.84357 0.6199 0
M  V30 2166 O 207.764 1.28809 1.47332 0
M  V30 2167 C 208.063 3.30749 -1.35425 0
M  V30 2168 C 207.729 3.50146 -2.84093 0
M  V30 2169 C 206.391 3.55148 -3.2469 0
M  V30 2170 C 208.743 3.56857 -3.79872 0
M  V30 2171 C 206.071 3.6441 -4.59806 0
M  V30 2172 C 208.423 3.6765 -5.14797 0
M  V30 2173 C 207.087 3.7091 -5.54961 0
M  V30 2174 H 206.357 0.671795 -0.312686 0
M  V30 2175 H 209.004 1.32091 -1.38652 0
M  V30 2176 H 207.309 3.84703 -0.742361 0
M  V30 2177 H 209.006 3.8464 -1.1337 0
M  V30 2178 H 205.596 3.46919 -2.51685 0
M  V30 2179 H 209.78 3.52258 -3.49611 0
M  V30 2180 H 205.036 3.65208 -4.9034 0
M  V30 2181 H 209.21 3.71786 -5.88853 0
M  V30 2182 H 206.837 3.7784 -6.59652 0
M  V30 2183 N 208.412 0.89855 1.29475 0
M  V30 2184 C 209.637 0.538561 2.00285 0
M  V30 2185 C 210.062 -0.869135 1.66816 0
M  V30 2186 O 209.42 -1.57831 0.892145 0
M  V30 2187 C 209.468 0.736475 3.52999 0
M  V30 2188 O 208.572 -0.211537 4.11857 0
M  V30 2189 H 207.913 0.210563 0.62973 0
M  V30 2190 H 210.443 1.20982 1.64998 0
M  V30 2191 H 210.453 0.640685 4.02938 0
M  V30 2192 H 209.128 1.76276 3.76696 0
M  V30 2193 H 207.705 -0.0682991 3.72837 0
M  V30 2194 N 209.89 -1.43072 0.660911 0
M  V30 2195 C 211.136 -2.0202 0.177708 0
M  V30 2196 C 211.469 -1.52066 -1.20787 0
M  V30 2197 O 210.744 -0.716987 -1.80802 0
M  V30 2198 C 211.027 -3.59561 0.197019 0
M  V30 2199 C 210.88 -4.19727 1.61706 0
M  V30 2200 C 212.199 -4.37664 -0.462396 0
M  V30 2201 H 209.318 -0.734034 0.0660494 0
M  V30 2202 H 211.96 -1.70272 0.843058 0
M  V30 2203 H 210.11 -3.86739 -0.369527 0
M  V30 2204 H 211.782 -4.03553 2.23479 0
M  V30 2205 H 210.025 -3.76084 2.16201 0
M  V30 2206 H 210.696 -5.28834 1.58237 0
M  V30 2207 H 213.172 -4.16095 0.0197215 0
M  V30 2208 H 212.048 -5.47305 -0.418188 0
M  V30 2209 H 212.309 -4.14493 -1.53778 0
M  V30 2210 N 211.368 -0.403325 -1.52352 0
M  V30 2211 C 212.645 0.232611 -1.94212 0
M  V30 2212 C 213.025 1.63133 -1.33981 0
M  V30 2213 O 212.373 2.22659 -0.513344 0
M  V30 2214 C 212.583 0.244811 -3.4814 0
M  V30 2215 C 213.931 0.46698 -4.22024 0
M  V30 2216 O 214.955 0.324419 -3.5472 0
M  V30 2217 O 213.814 0.74747 -5.41364 0
M  V30 2218 H 210.908 0.148223 -0.813609 0
M  V30 2219 H 213.454 -0.458848 -1.63379 0
M  V30 2220 H 212.226 -0.734378 -3.84347 0
M  V30 2221 H 211.849 0.980611 -3.85318 0
M  V30 2222 N 212.846 1.57033 -0.133567 0
M  V30 2223 C 213.756 2.19632 0.824564 0
M  V30 2224 C 214.772 1.17666 1.28182 0
M  V30 2225 O 215.948 1.50193 1.3418 0
M  V30 2226 C 213.013 2.79499 2.05137 0
M  V30 2227 C 212.074 3.96548 1.64464 0
M  V30 2228 C 211.307 4.5355 2.81297 0
M  V30 2229 O 211.53 4.09438 3.97136 0
M  V30 2230 O 210.464 5.44018 2.57542 0
M  V30 2231 H 214.29 3.01991 0.321766 0
M  V30 2232 H 211.875 1.49112 0.0927889 0
M  V30 2233 H 213.757 3.17602 2.7696 0
M  V30 2234 H 212.432 2.00162 2.54395 0
M  V30 2235 H 211.339 3.63186 0.897048 0
M  V30 2236 H 212.672 4.77364 1.19934 0
M  V30 2237 N 214.325 -0.140222 1.56975 0
M  V30 2238 C 215.574 -0.850152 1.82908 0
M  V30 2239 C 215.887 -1.82028 0.715892 0
M  V30 2240 O 217.093 -2.57485 0.861016 0
M  V30 2241 C 215.549 -1.5625 3.24213 0
M  V30 2242 C 215.157 -0.63443 4.43485 0
M  V30 2243 C 216.901 -2.25881 3.59413 0
M  V30 2244 C 214.808 -1.34879 5.75814 0
M  V30 2245 H 213.738 -0.321221 0.682153 0
M  V30 2246 H 216.389 -0.102874 1.83211 0
M  V30 2247 H 214.771 -2.35565 3.18316 0
M  V30 2248 H 215.945 0.12398 4.60633 0
M  V30 2249 H 214.26 -0.0461836 4.16374 0
M  V30 2250 H 216.857 -2.79978 4.5554 0
M  V30 2251 H 217.2 -3.02693 2.85802 0
M  V30 2252 H 217.733 -1.53477 3.67001 0
M  V30 2253 H 214.472 -0.622385 6.52539 0
M  V30 2254 H 213.992 -2.07974 5.6259 0
M  V30 2255 H 215.671 -1.88784 6.18845 0
M  V30 2256 N 215.803 -1.52179 -0.40978 0
M  V30 2257 C 217.049 -1.66453 -1.15851 0
M  V30 2258 C 217.382 -0.392972 -1.90182 0
M  V30 2259 O 216.657 0.608579 -1.84734 0
M  V30 2260 C 216.94 -2.88612 -2.15349 0
M  V30 2261 C 216.793 -4.25815 -1.44918 0
M  V30 2262 C 218.112 -3.06294 -3.16026 0
M  V30 2263 H 215.231 -0.60575 -0.419805 0
M  V30 2264 H 217.873 -1.84732 -0.444314 0
M  V30 2265 H 216.023 -2.73158 -2.76255 0
M  V30 2266 H 217.695 -4.52995 -0.871365 0
M  V30 2267 H 215.938 -4.27247 -0.751159 0
M  V30 2268 H 216.609 -5.07337 -2.17516 0
M  V30 2269 H 219.085 -3.20641 -2.65195 0
M  V30 2270 H 217.961 -3.93283 -3.8291 0
M  V30 2271 H 218.222 -2.19579 -3.83715 0
M  V30 2272 N 217.281 0.66697 -1.42791 0
M  V30 2273 C 218.213 1.7925 -1.42836 0
M  V30 2274 C 219.226 1.59496 -0.326333 0
M  V30 2275 O 220.415 1.6847 -0.589916 0
M  V30 2276 C 217.515 3.16476 -1.21229 0
M  V30 2277 C 216.688 3.63011 -2.44013 0
M  V30 2278 C 215.747 4.78993 -2.17834 0
M  V30 2279 O 214.773 4.89137 -2.91091 0
M  V30 2280 N 215.975 5.68248 -1.18635 0
M  V30 2281 H 218.74 1.79695 -2.39854 0
M  V30 2282 H 216.301 0.850338 -1.37771 0
M  V30 2283 H 218.293 3.91734 -1.01621 0
M  V30 2284 H 216.863 3.10884 -0.32706 0
M  V30 2285 H 216.083 2.78346 -2.79137 0
M  V30 2286 H 217.371 3.90845 -3.25757 0
M  V30 2287 H 216.769 5.62712 -0.580615 0
M  V30 2288 H 215.326 6.43285 -1.05013 0
M  V30 2289 N 218.759 1.29093 0.90403 0
M  V30 2290 C 220.17 1.15186 1.46932 0
M  V30 2291 C 220.521 -0.254587 1.94541 0
M  V30 2292 O 219.646 -1.14972 1.83332 0
M  V30 2293 C 220.241 2.08492 2.67051 0
M  V30 2294 C 218.8 1.98621 3.19729 0
M  V30 2295 C 217.947 1.9967 1.92425 0
M  V30 2296 H 220.898 1.41641 0.715789 0
M  V30 2297 H 220.919 1.65461 3.42641 0
M  V30 2298 H 220.431 3.10847 2.3237 0
M  V30 2299 H 218.532 0.993389 3.59114 0
M  V30 2300 H 218.645 2.86068 3.8432 0
M  V30 2301 H 217.009 1.44208 2.09943 0
M  V30 2302 H 217.792 3.03721 1.60026 0
M  V30 2303 N 220.237 -1.11381 1.11499 0
M  V30 2304 C 221.514 -1.7955 0.775965 0
M  V30 2305 C 221.894 -1.97859 -0.73588 0
M  V30 2306 O 221.242 -1.56376 -1.66609 0
M  V30 2307 C 221.452 -3.13196 1.53977 0
M  V30 2308 C 222.8 -3.88227 1.71944 0
M  V30 2309 O 223.824 -3.22887 1.50407 0
M  V30 2310 O 222.683 -5.05477 2.07738 0
M  V30 2311 H 219.777 -0.777728 0.28119 0
M  V30 2312 H 222.323 -1.18118 1.21845 0
M  V30 2313 H 221.095 -2.95229 2.56818 0
M  V30 2314 H 220.718 -3.82342 1.09088 0
M  V30 2315 N 221.715 -0.905404 -1.28997 0
M  V30 2316 C 223.126 -0.581953 -1.77398 0
M  V30 2317 C 223.477 0.902552 -1.74208 0
M  V30 2318 O 222.602 1.70584 -1.33154 0
M  V30 2319 C 223.197 -1.04961 -3.22131 0
M  V30 2320 C 221.756 -0.777229 -3.68288 0
M  V30 2321 C 220.903 -1.22109 -2.48967 0
M  V30 2322 H 223.854 -1.08754 -1.15578 0
M  V30 2323 H 223.875 -0.387387 -3.78523 0
M  V30 2324 H 223.387 -2.13008 -3.24421 0
M  V30 2325 H 221.488 0.290383 -3.71467 0
M  V30 2326 H 221.601 -1.37911 -4.58822 0
M  V30 2327 H 219.965 -0.639971 -2.46529 0
M  V30 2328 H 220.748 -2.30972 -2.53982 0
M  V30 2329 N 223.193 1.4272 -0.668489 0
M  V30 2330 C 224.604 1.84793 -0.266151 0
M  V30 2331 C 224.955 1.55959 1.19043 0
M  V30 2332 O 224.08 1.01622 1.91055 0
M  V30 2333 C 224.675 3.35436 -0.476271 0
M  V30 2334 C 223.234 3.76182 -0.128113 0
M  V30 2335 C 222.381 2.66344 -0.771777 0
M  V30 2336 H 225.332 1.32656 -0.871098 0
M  V30 2337 H 225.353 3.79515 0.273561 0
M  V30 2338 H 224.865 3.5639 -1.53647 0
M  V30 2339 H 222.966 3.60836 0.928891 0
M  V30 2340 H 223.079 4.75766 -0.564231 0
M  V30 2341 H 221.443 2.53885 -0.203652 0
M  V30 2342 H 222.226 2.90123 -1.83531 0
M  V30 2343 N 224.671 0.411399 1.52136 0
M  V30 2344 C 225.92 -0.165009 2.01024 0
M  V30 2345 C 226.233 -1.4603 1.30133 0
M  V30 2346 O 227.439 -2.1181 1.69849 0
M  V30 2347 C 225.895 -0.344618 3.58246 0
M  V30 2348 C 225.503 0.938716 4.38055 0
M  V30 2349 C 227.247 -0.876195 4.15359 0
M  V30 2350 C 225.154 0.726172 5.86925 0
M  V30 2351 H 224.084 -0.0654407 0.751155 0
M  V30 2352 H 226.735 0.537192 1.75461 0
M  V30 2353 H 225.117 -1.10921 3.80148 0
M  V30 2354 H 226.291 1.70963 4.27912 0
M  V30 2355 H 224.606 1.39688 3.92271 0
M  V30 2356 H 227.203 -1.05128 5.24263 0
M  V30 2357 H 227.546 -1.85152 3.7286 0
M  V30 2358 H 228.079 -0.170607 3.97434 0
M  V30 2359 H 224.818 1.67312 6.33788 0
M  V30 2360 H 224.338 -0.00540283 5.998 0
M  V30 2361 H 226.017 0.369231 6.45946 0
M  V30 2362 N 226.149 -1.5696 0.141893 0
M  V30 2363 C 227.112 -2.15316 -0.785587 0
M  V30 2364 C 228.112 -1.09366 -1.1788 0
M  V30 2365 O 229.302 -1.35031 -1.10056 0
M  V30 2366 C 226.434 -2.71211 -2.06537 0
M  V30 2367 H 227.627 -2.98608 -0.278041 0
M  V30 2368 H 225.18 -1.5593 -0.107519 0
M  V30 2369 H 225.915 -1.91571 -2.6167 0
M  V30 2370 H 225.7 -3.4872 -1.79268 0
M  V30 2371 H 227.19 -3.16189 -2.72789 0
M  V30 2372 N 227.627 0.131896 -1.57047 0
M  V30 2373 C 228.557 1.16384 -2.02428 0
M  V30 2374 C 229.538 1.43936 -0.90644 0
M  V30 2375 O 230.723 1.54599 -1.17528 0
M  V30 2376 C 227.853 2.49328 -2.4177 0
M  V30 2377 C 226.807 2.36266 -3.56879 0
M  V30 2378 C 226.133 3.74057 -3.8208 0
M  V30 2379 C 227.433 1.834 -4.89042 0
M  V30 2380 H 229.127 0.786433 -2.88887 0
M  V30 2381 H 226.673 0.376855 -1.38981 0
M  V30 2382 H 228.626 3.21759 -2.7212 0
M  V30 2383 H 227.35 2.88934 -1.52266 0
M  V30 2384 H 226.009 1.66286 -3.26718 0
M  V30 2385 H 225.657 4.11125 -2.89803 0
M  V30 2386 H 225.357 3.66174 -4.59554 0
M  V30 2387 H 226.881 4.48012 -4.1487 0
M  V30 2388 H 228.295 2.45636 -5.18011 0
M  V30 2389 H 226.692 1.8637 -5.70426 0
M  V30 2390 H 227.762 0.790662 -4.7841 0
M  V30 2391 N 229.106 1.52395 0.401703 0
M  V30 2392 C 230.054 1.7689 1.51039 0
M  V30 2393 C 231.048 0.636298 1.56996 0
M  V30 2394 O 232.254 0.818507 1.60314 0
M  V30 2395 H 228.629 0.559502 0.502456 0
M  V30 2396 H 230.6 2.69757 1.27568 0
M  V30 2397 C 229.349 1.94331 2.88324 0
M  V30 2398 H 228.672 2.80905 2.84486 0
M  V30 2399 H 230.112 2.15466 3.65172 0
M  V30 2400 C 228.571 0.712396 3.29282 0
M  V30 2401 O 229.101 -0.116218 4.01532 0
M  V30 2402 N 227.307 0.546154 2.85422 0
M  V30 2403 H 226.854 1.22156 2.26794 0
M  V30 2404 H 226.812 -0.276113 3.13185 0
M  V30 2405 N 230.584 -0.659388 1.43143 0
M  V30 2406 C 231.83 -1.41984 1.45644 0
M  V30 2407 C 232.185 -1.92245 0.0771718 0
M  V30 2408 O 231.478 -1.68976 -0.903205 0
M  V30 2409 C 231.672 -2.62206 2.42864 0
M  V30 2410 C 231.501 -2.23711 3.90107 0
M  V30 2411 C 230.271 -2.12332 4.58523 0
M  V30 2412 C 232.469 -1.84384 4.80112 0
M  V30 2413 N 230.451 -1.67102 5.9072 0
M  V30 2414 C 231.822 -1.5019 6.01534 0
M  V30 2415 C 233.877 -1.71512 4.67427 0
M  V30 2416 C 232.58 -1.04414 7.11681 0
M  V30 2417 C 234.606 -1.27142 5.77572 0
M  V30 2418 C 233.968 -0.938808 6.98116 0
M  V30 2419 H 230.067 -0.515448 0.588079 0
M  V30 2420 H 232.651 -0.759409 1.79279 0
M  V30 2421 H 230.822 -3.25917 2.11265 0
M  V30 2422 H 232.554 -3.28877 2.35843 0
M  V30 2423 H 229.309 -2.31893 4.12944 0
M  V30 2424 H 229.733 -1.46866 6.60878 0
M  V30 2425 H 234.375 -1.95868 3.74694 0
M  V30 2426 H 232.093 -0.788061 8.04248 0
M  V30 2427 H 235.679 -1.17681 5.69774 0
M  V30 2428 H 234.559 -0.6007 7.81896 0
M  V30 2429 N 232.062 -1.29571 -0.897171 0
M  V30 2430 C 233.29 -1.20583 -1.68129 0
M  V30 2431 C 233.705 0.233181 -1.87354 0
M  V30 2432 O 233.062 1.15579 -1.41236 0
M  V30 2433 C 233.113 -1.91772 -3.06441 0
M  V30 2434 O 232.834 -3.30053 -2.88091 0
M  V30 2435 C 234.335 -1.89291 -4.00854 0
M  V30 2436 H 231.555 -0.417826 -0.525036 0
M  V30 2437 H 234.099 -1.70987 -1.12177 0
M  V30 2438 H 232.254 -1.45196 -3.59161 0
M  V30 2439 H 232.668 -3.65942 -3.75748 0
M  V30 2440 H 234.142 -2.43662 -4.95311 0
M  V30 2441 H 234.619 -0.869014 -4.30517 0
M  V30 2442 H 235.225 -2.35622 -3.54066 0
M  V30 2443 N 233.54 1.10788 -1.12088 0
M  V30 2444 C 234.47 2.19083 -0.807755 0
M  V30 2445 C 235.451 1.6858 0.226859 0
M  V30 2446 O 236.636 1.93997 0.0888475 0
M  V30 2447 C 233.766 3.46344 -0.257576 0
M  V30 2448 C 232.72 4.101 -1.22483 0
M  V30 2449 C 232.046 5.32016 -0.535052 0
M  V30 2450 C 233.346 4.54236 -2.57811 0
M  V30 2451 H 235.04 2.45534 -1.71328 0
M  V30 2452 H 232.586 1.1801 -0.825205 0
M  V30 2453 H 234.539 4.21392 -0.0262679 0
M  V30 2454 H 233.263 3.19373 0.683278 0
M  V30 2455 H 231.922 3.37054 -1.44189 0
M  V30 2456 H 231.57 5.01319 0.410827 0
M  V30 2457 H 231.27 5.75625 -1.18024 0
M  V30 2458 H 232.794 6.09799 -0.312695 0
M  V30 2459 H 234.208 5.20575 -2.40155 0
M  V30 2460 H 232.605 5.08682 -3.18375 0
M  V30 2461 H 233.675 3.6734 -3.16528 0
M  V30 2462 N 235.018 0.912232 1.28515 0
M  V30 2463 C 235.948 0.416403 2.29757 0
M  V30 2464 C 236.929 -0.515194 1.6211 0
M  V30 2465 O 238.114 -0.423253 1.89532 0
M  V30 2466 C 235.244 -0.34572 3.45575 0
M  V30 2467 C 234.198 0.496599 4.25109 0
M  V30 2468 C 233.524 -0.393771 5.33248 0
M  V30 2469 C 234.824 1.75307 4.92001 0
M  V30 2470 H 236.518 1.26249 2.7148 0
M  V30 2471 H 234.064 0.608515 1.30511 0
M  V30 2472 H 236.017 -0.703422 4.15488 0
M  V30 2473 H 234.741 -1.2257 3.02728 0
M  V30 2474 H 233.4 0.8368 3.56922 0
M  V30 2475 H 233.048 -1.27225 4.86644 0
M  V30 2476 H 232.748 0.166209 5.87365 0
M  V30 2477 H 234.272 -0.747389 6.06009 0
M  V30 2478 H 235.686 1.46437 5.54283 0
M  V30 2479 H 234.083 2.25534 5.56106 0
M  V30 2480 H 235.153 2.48176 4.16577 0
M  V30 2481 N 236.496 -1.42363 0.676048 0
M  V30 2482 C 237.444 -2.32596 -0.0131507 0
M  V30 2483 C 238.438 -1.49891 -0.789238 0
M  V30 2484 O 239.644 -1.65955 -0.697061 0
M  V30 2485 H 236.019 -0.751647 -0.0230481 0
M  V30 2486 H 237.99 -2.88421 0.765243 0
M  V30 2487 C 236.739 -3.34479 -0.949702 0
M  V30 2488 H 236.062 -3.98158 -0.361938 0
M  V30 2489 H 237.502 -4.00199 -1.4006 0
M  V30 2490 C 235.961 -2.66838 -2.05667 0
M  V30 2491 O 236.491 -2.50124 -3.14326 0
M  V30 2492 N 234.697 -2.25843 -1.82875 0
M  V30 2493 H 234.244 -2.39637 -0.945085 0
M  V30 2494 H 234.202 -1.80918 -2.5713 0
M  V30 2495 N 237.974 -0.419461 -1.51915 0
M  V30 2496 C 239.22 0.153166 -2.02221 0
M  V30 2497 C 239.553 1.43907 -1.30401 0
M  V30 2498 O 238.828 1.90055 -0.413438 0
M  V30 2499 C 239.111 0.390291 -3.57979 0
M  V30 2500 C 238.964 -0.913014 -4.40436 0
M  V30 2501 C 240.283 1.16794 -4.2432 0
M  V30 2502 H 237.402 0.0541924 -0.735005 0
M  V30 2503 H 240.044 -0.554955 -1.81715 0
M  V30 2504 H 238.194 0.993491 -3.75582 0
M  V30 2505 H 239.866 -1.54882 -4.34522 0
M  V30 2506 H 238.109 -1.52168 -4.06236 0
M  V30 2507 H 238.78 -0.701361 -5.47526 0
M  V30 2508 H 241.256 0.657161 -4.10878 0
M  V30 2509 H 240.132 1.3026 -5.3322 0
M  V30 2510 H 240.393 2.19132 -3.83971 0
M  V30 2511 N 239.452 1.56882 -0.150215 0
M  V30 2512 C 240.677 2.01027 0.510184 0
M  V30 2513 C 241.102 1.02966 1.57415 0
M  V30 2514 O 240.46 0.00590158 1.81299 0
M  V30 2515 C 240.508 3.43899 1.08472 0
M  V30 2516 O 239.612 3.4885 2.19948 0
M  V30 2517 H 238.953 0.652233 0.124451 0
M  V30 2518 H 241.483 2.03093 -0.247894 0
M  V30 2519 H 241.493 3.82766 1.41259 0
M  V30 2520 H 240.168 4.14776 0.305582 0
M  V30 2521 H 238.745 3.21827 1.88366 0
M  V30 2522 N 240.93 -0.123565 1.57115 0
M  V30 2523 C 241.86 -1.15309 2.03042 0
M  V30 2524 C 242.841 -1.43454 0.914061 0
M  V30 2525 O 244.026 -1.53973 1.18347 0
M  V30 2526 C 241.156 -2.48043 2.43089 0
M  V30 2527 C 240.11 -2.3437 3.58127 0
M  V30 2528 C 239.436 -3.72026 3.84059 0
M  V30 2529 C 240.736 -1.80804 4.90007 0
M  V30 2530 H 242.43 -0.771102 2.893 0
M  V30 2531 H 239.976 -0.369479 1.39179 0
M  V30 2532 H 241.929 -3.20311 2.73823 0
M  V30 2533 H 240.653 -2.88122 1.53796 0
M  V30 2534 H 239.312 -1.64551 3.27595 0
M  V30 2535 H 238.96 -4.09582 2.91979 0
M  V30 2536 H 238.66 -3.63732 4.6149 0
M  V30 2537 H 240.184 -4.45806 4.1724 0
M  V30 2538 H 241.598 -2.42886 5.19307 0
M  V30 2539 H 239.995 -1.83343 5.71407 0
M  V30 2540 H 241.065 -0.76528 4.78823 0
M  V30 2541 N 242.408 -1.52605 -0.393616 0
M  V30 2542 C 243.636 -1.71294 -1.16043 0
M  V30 2543 C 244.051 -0.429259 -1.83855 0
M  V30 2544 O 243.408 0.595921 -1.72496 0
M  V30 2545 C 243.459 -2.8593 -2.21193 0
M  V30 2546 O 243.18 -4.09329 -1.56146 0
M  V30 2547 C 244.681 -3.16259 -3.10636 0
M  V30 2548 H 241.901 -0.573641 -0.348104 0
M  V30 2549 H 244.445 -1.99234 -0.461092 0
M  V30 2550 H 242.6 -2.60465 -2.86769 0
M  V30 2551 H 243.014 -4.73323 -2.25978 0
M  V30 2552 H 244.488 -3.99946 -3.80456 0
M  V30 2553 H 244.965 -2.3045 -3.73884 0
M  V30 2554 H 245.571 -3.43547 -2.50711 0
M  V30 2555 N 243.887 0.651787 -1.4349 0
M  V30 2556 C 245.135 1.40888 -1.44897 0
M  V30 2557 C 245.456 1.94856 -0.0749086 0
M  V30 2558 O 244.726 1.74518 0.889956 0
M  V30 2559 H 243.306 0.522887 -0.533478 0
M  V30 2560 H 245.968 0.768609 -1.79104 0
M  V30 2561 H 245.064 2.25052 -2.16236 0
M  V30 2562 N 245.365 1.30045 0.890287 0
M  V30 2563 C 246.614 1.17929 1.63633 0
M  V30 2564 C 246.927 -0.266204 1.9378 0
M  V30 2565 O 248.133 -0.508804 2.6669 0
M  V30 2566 C 246.589 2.06317 2.94892 0
M  V30 2567 C 246.197 3.55745 2.72305 0
M  V30 2568 C 247.941 2.0295 3.72843 0
M  V30 2569 C 245.848 4.36205 3.99348 0
M  V30 2570 H 244.778 0.437782 0.613892 0
M  V30 2571 H 247.429 1.54754 0.986075 0
M  V30 2572 H 245.811 1.6237 3.61182 0
M  V30 2573 H 246.985 4.07805 2.1455 0
M  V30 2574 H 245.3 3.6088 2.07737 0
M  V30 2575 H 247.897 2.60319 4.67053 0
M  V30 2576 H 248.24 1.0117 4.0382 0
M  V30 2577 H 248.773 2.4499 3.13408 0
M  V30 2578 H 245.512 5.38659 3.73533 0
M  V30 2579 H 245.032 3.8891 4.56628 0
M  V30 2580 H 246.711 4.47362 4.67415 0
M  V30 2581 N 246.843 -1.10192 1.12674 0
M  V30 2582 C 247.793 -2.14754 0.765801 0
M  V30 2583 C 248.777 -1.59154 -0.236409 0
M  V30 2584 O 249.969 -1.76951 -0.0415261 0
M  V30 2585 C 247.098 -3.42563 0.224827 0
M  V30 2586 C 246.184 -4.05091 1.25548 0
M  V30 2587 N 246.575 -4.42287 2.4539 0
M  V30 2588 C 244.873 -4.32186 1.10142 0
M  V30 2589 C 245.574 -4.91441 3.11224 0
M  V30 2590 N 244.55 -4.88405 2.38666 0
M  V30 2591 H 248.352 -2.41309 1.67772 0
M  V30 2592 H 245.866 -1.27339 1.00789 0
M  V30 2593 H 247.863 -4.16868 -0.0519578 0
M  V30 2594 H 246.523 -3.17467 -0.681515 0
M  V30 2595 H 247.534 -4.33902 2.82754 0
M  V30 2596 H 244.211 -4.16735 0.252587 0
M  V30 2597 H 245.601 -5.29749 4.13298 0
M  V30 2598 N 248.321 -0.919034 -1.28029 0
M  V30 2599 C 249.284 -0.416182 -2.2539 0
M  V30 2600 C 250.284 0.460438 -1.54067 0
M  V30 2601 O 251.474 0.262744 -1.72207 0
M  V30 2602 C 248.606 0.402707 -3.38513 0
M  V30 2603 H 249.799 -1.27629 -2.71387 0
M  V30 2604 H 247.352 -0.698919 -1.39803 0
M  V30 2605 H 248.087 1.282 -2.97885 0
M  V30 2606 H 247.872 -0.225698 -3.9145 0
M  V30 2607 H 249.362 0.745191 -4.10897 0
M  V30 2608 N 249.799 1.42003 -0.683588 0
M  V30 2609 C 251.076 1.95112 -0.138075 0
M  V30 2610 C 251.456 1.62359 1.34918 0
M  V30 2611 O 250.804 0.924311 2.08971 0
M  V30 2612 C 251.014 3.46505 -0.416581 0
M  V30 2613 C 252.362 4.23254 -0.337834 0
M  V30 2614 O 253.386 3.54468 -0.35082 0
M  V30 2615 O 252.245 5.45743 -0.287596 0
M  V30 2616 H 249.339 0.826961 -0.00797996 0
M  V30 2617 H 251.885 1.51784 -0.758924 0
M  V30 2618 H 250.657 3.63582 -1.4465 0
M  V30 2619 H 250.28 3.969 0.235839 0
M  V30 2620 N 251.277 0.427512 1.51691 0
M  V30 2621 C 252.526 -0.143679 2.01188 0
M  V30 2622 C 252.839 -1.44642 1.31674 0
M  V30 2623 O 254.045 -2.09997 1.72086 0
M  V30 2624 C 252.501 -0.306602 3.58592 0
M  V30 2625 C 252.109 0.985125 4.37035 0
M  V30 2626 C 253.853 -0.832091 4.16265 0
M  V30 2627 C 251.76 0.788382 5.86122 0
M  V30 2628 H 250.69 -0.0574701 0.751807 0
M  V30 2629 H 253.341 0.555772 1.74881 0
M  V30 2630 H 251.723 -1.06882 3.81303 0
M  V30 2631 H 252.897 1.75492 4.26074 0
M  V30 2632 H 251.212 1.4384 3.90767 0
M  V30 2633 H 253.809 -0.995617 5.25349 0
M  V30 2634 H 254.152 -1.81186 3.74803 0
M  V30 2635 H 254.685 -0.128444 3.97593 0
M  V30 2636 H 251.424 1.74025 6.31978 0
M  V30 2637 H 250.944 0.0582143 5.99772 0
M  V30 2638 H 252.623 0.437722 6.45518 0
M  V30 2639 N 252.755 -1.56801 0.158532 0
M  V30 2640 C 253.687 -2.14488 -0.807923 0
M  V30 2641 C 254.7 -1.09721 -1.20271 0
M  V30 2642 O 255.889 -1.36956 -1.14478 0
M  V30 2643 C 252.989 -2.66217 -2.09718 0
M  V30 2644 C 252.162 -3.95507 -1.86796 0
M  V30 2645 C 251.221 -4.3243 -2.99818 0
M  V30 2646 O 250.247 -5.00543 -2.71008 0
M  V30 2647 N 251.449 -3.92947 -4.27285 0
M  V30 2648 H 254.214 -2.98042 -0.314816 0
M  V30 2649 H 251.775 -1.61881 -0.0246692 0
M  V30 2650 H 253.767 -2.87924 -2.84398 0
M  V30 2651 H 252.337 -1.87324 -2.50257 0
M  V30 2652 H 251.557 -3.82309 -0.96089 0
M  V30 2653 H 252.845 -4.79972 -1.68833 0
M  V30 2654 H 252.243 -3.38087 -4.53557 0
M  V30 2655 H 250.8 -4.19681 -4.9871 0
M  V30 2656 N 254.233 0.115231 -1.57178 0
M  V30 2657 C 255.479 0.82357 -1.85325 0
M  V30 2658 C 255.812 1.79349 -0.744814 0
M  V30 2659 O 255.087 1.92899 0.249024 0
M  V30 2660 C 255.37 1.57014 -3.24066 0
M  V30 2661 C 255.223 0.619565 -4.45513 0
M  V30 2662 C 256.542 2.52545 -3.60429 0
M  V30 2663 H 253.661 0.297948 -0.674089 0
M  V30 2664 H 256.303 0.0877138 -1.89797 0
M  V30 2665 H 254.453 2.19742 -3.20383 0
M  V30 2666 H 256.125 0.000837639 -4.613 0
M  V30 2667 H 254.368 -0.0686174 -4.33746 0
M  V30 2668 H 255.039 1.17866 -5.3927 0
M  V30 2669 H 257.515 1.9992 -3.64926 0
M  V30 2670 H 256.391 3.01811 -4.58477 0
M  V30 2671 H 256.652 3.35383 -2.88047 0
M  V30 2672 N 255.711 1.52812 0.385517 0
M  V30 2673 C 257.127 1.4214 0.725829 0
M  V30 2674 C 257.327 0.544589 1.94001 0
M  V30 2675 O 256.383 0.0193693 2.52493 0
M  V30 2676 C 257.696 2.85042 0.957668 0
M  V30 2677 C 259.244 2.94543 1.05892 0
M  V30 2678 C 259.719 4.38464 1.32337 0
M  V30 2679 N 261.21 4.41804 1.39151 0
M  V30 2680 C 261.945 5.5025 1.61285 0
M  V30 2681 N 261.441 6.68775 1.80866 0
M  V30 2682 N 263.234 5.37798 1.63492 0
M  V30 2683 H 255.385 2.08338 -0.413383 0
M  V30 2684 H 257.648 0.940016 -0.122775 0
M  V30 2685 H 257.354 3.51431 0.137568 0
M  V30 2686 H 257.228 3.27505 1.87137 0
M  V30 2687 H 259.615 2.28321 1.86959 0
M  V30 2688 H 259.696 2.55504 0.123057 0
M  V30 2689 H 259.34 5.05254 0.517793 0
M  V30 2690 H 259.27 4.75059 2.27214 0
M  V30 2691 H 261.761 3.56377 1.25713 0
M  V30 2692 H 262.074 7.47197 1.97271 0
M  V30 2693 H 260.419 6.71797 1.78083 0
M  V30 2694 H 263.61 4.44171 1.47749 0
M  V30 2695 H 263.783 6.22382 1.80402 0
M  V30 2696 N 257.189 -0.644168 1.43834 0
M  V30 2697 C 258.435 -1.40431 1.47141 0
M  V30 2698 C 258.79 -1.92153 0.0975577 0
M  V30 2699 O 258.083 -1.69924 -0.885232 0
M  V30 2700 C 258.277 -2.59615 2.45631 0
M  V30 2701 C 258.106 -2.1956 3.92458 0
M  V30 2702 C 256.876 -2.07456 4.60749 0
M  V30 2703 C 259.074 -1.79281 4.8204 0
M  V30 2704 N 257.056 -1.60827 5.92459 0
M  V30 2705 C 258.427 -1.43801 6.03093 0
M  V30 2706 C 260.482 -1.66545 4.6922 0
M  V30 2707 C 259.185 -0.968599 7.12749 0
M  V30 2708 C 261.211 -1.21008 5.78888 0
M  V30 2709 C 260.573 -0.864711 6.99072 0
M  V30 2710 H 256.672 -0.509182 0.593513 0
M  V30 2711 H 259.256 -0.740351 1.80075 0
M  V30 2712 H 257.427 -3.23658 2.1471 0
M  V30 2713 H 259.159 -3.26357 2.39318 0
M  V30 2714 H 255.914 -2.275 4.1538 0
M  V30 2715 H 256.338 -1.39848 6.62398 0
M  V30 2716 H 260.98 -1.91883 3.7675 0
M  V30 2717 H 258.698 -0.702715 8.05039 0
M  V30 2718 H 262.284 -1.11631 5.7099 0
M  V30 2719 H 261.164 -0.517736 7.82489 0
M  V30 2720 N 258.668 -1.30515 -0.883378 0
M  V30 2721 C 259.578 -1.18959 -2.02203 0
M  V30 2722 C 260.594 -0.109172 -1.73657 0
M  V30 2723 O 261.77 -0.324413 -1.9877 0
M  V30 2724 C 258.835 -0.883871 -3.35244 0
M  V30 2725 C 257.896 -2.04982 -3.77201 0
M  V30 2726 C 257.129 -1.75859 -5.03894 0
M  V30 2727 O 257.352 -0.687276 -5.66244 0
M  V30 2728 O 256.286 -2.61146 -5.42297 0
M  V30 2729 H 260.112 -2.14616 -2.1488 0
M  V30 2730 H 257.697 -1.10124 -1.0096 0
M  V30 2731 H 259.579 -0.728644 -4.15053 0
M  V30 2732 H 258.254 0.0427798 -3.23672 0
M  V30 2733 H 257.161 -2.26038 -2.9809 0
M  V30 2734 H 258.494 -2.95825 -3.93381 0
M  V30 2735 N 260.146 1.09593 -1.13257 0
M  V30 2736 C 261.109 2.14359 -0.811358 0
M  V30 2737 C 262.109 1.59808 0.178377 0
M  V30 2738 O 263.299 1.74132 -0.0484911 0
M  V30 2739 C 260.431 3.40269 -0.207276 0
M  V30 2740 H 261.624 2.44284 -1.73969 0
M  V30 2741 H 259.177 1.25102 -0.936973 0
M  V30 2742 H 259.912 3.15969 0.73036 0
M  V30 2743 H 259.697 3.81154 -0.919992 0
M  V30 2744 H 261.187 4.176 0.000667944 0
M  V30 2745 N 261.624 0.925811 1.2754 0
M  V30 2746 C 263.035 0.610102 1.7645 0
M  V30 2747 C 263.386 -0.874723 1.75622 0
M  V30 2748 O 262.511 -1.68444 1.35851 0
M  V30 2749 C 263.106 1.10073 3.20421 0
M  V30 2750 C 261.665 0.835723 3.67005 0
M  V30 2751 C 260.812 1.26054 2.46993 0
M  V30 2752 H 263.763 1.10579 1.13833 0
M  V30 2753 H 263.784 0.447557 3.77859 0
M  V30 2754 H 263.296 2.18143 3.20991 0
M  V30 2755 H 261.397 -0.231249 3.71882 0
M  V30 2756 H 261.51 1.45193 4.56569 0
M  V30 2757 H 259.874 0.679111 2.45479 0
M  V30 2758 H 260.657 2.34984 2.50275 0
M  V30 2759 N 263.102 -1.41638 0.69111 0
M  V30 2760 C 264.518 -1.55435 0.362224 0
M  V30 2761 C 264.718 -1.66754 -1.13117 0
M  V30 2762 O 263.774 -1.64348 -1.91692 0
M  V30 2763 C 265.087 -2.79588 1.10684 0
M  V30 2764 C 266.635 -2.9338 1.09075 0
M  V30 2765 C 267.11 -4.20414 1.81703 0
M  V30 2766 N 268.601 -4.27362 1.7865 0
M  V30 2767 C 269.336 -5.24507 2.31689 0
M  V30 2768 N 268.832 -6.27708 2.93179 0
M  V30 2769 N 270.625 -5.16416 2.2197 0
M  V30 2770 H 262.776 -1.32536 1.65976 0
M  V30 2771 H 265.039 -0.639115 0.700168 0
M  V30 2772 H 264.745 -2.77419 2.16175 0
M  V30 2773 H 264.619 -3.70973 0.682545 0
M  V30 2774 H 267.006 -2.95067 0.0441238 0
M  V30 2775 H 267.087 -2.0318 1.55407 0
M  V30 2776 H 266.731 -4.19488 2.86343 0
M  V30 2777 H 266.661 -5.09578 1.32808 0
M  V30 2778 H 269.152 -3.53415 1.33815 0
M  V30 2779 H 269.465 -6.98217 3.31229 0
M  V30 2780 H 267.81 -6.28223 2.97255 0
M  V30 2781 H 271.001 -4.34716 1.73607 0
M  V30 2782 H 271.174 -5.91958 2.63609 0
M  V30 2783 N 264.58 -0.43555 -1.51462 0
M  V30 2784 C 265.528 0.391205 -2.29287 0
M  V30 2785 C 266.522 1.02247 -1.35062 0
M  V30 2786 O 267.728 0.957646 -1.52411 0
M  V30 2787 H 264.103 0.144968 -0.737895 0
M  V30 2788 H 266.074 -0.286051 -2.97026 0
M  V30 2789 C 264.823 1.48096 -3.14583 0
M  V30 2790 H 264.146 1.00457 -3.86973 0
M  V30 2791 H 265.586 2.03273 -3.72097 0
M  V30 2792 C 264.045 2.46321 -2.29843 0
M  V30 2793 O 264.575 3.50815 -1.95682 0
M  V30 2794 N 262.781 2.17166 -1.931 0
M  V30 2795 H 262.328 1.32218 -2.21079 0
M  V30 2796 H 262.286 2.83127 -1.36698 0
M  V30 2797 N 266.058 1.56714 -0.166846 0
M  V30 2798 C 267.021 2.16539 0.751232 0
M  V30 2799 C 268.021 1.11228 1.16125 0
M  V30 2800 O 269.211 1.36765 1.07894 0
M  V30 2801 C 266.343 2.74462 2.02196 0
M  V30 2802 H 267.536 2.99013 0.230499 0
M  V30 2803 H 265.089 1.56081 0.0826982 0
M  V30 2804 H 265.824 1.95709 2.58589 0
M  V30 2805 H 265.609 3.51527 1.73698 0
M  V30 2806 H 267.099 3.20489 2.67725 0
M  V30 2807 N 267.536 -0.106894 1.57237 0
M  V30 2808 C 268.813 -0.843526 1.76477 0
M  V30 2809 C 269.193 -1.97499 0.745464 0
M  V30 2810 O 268.541 -2.27357 -0.228306 0
M  V30 2811 C 268.751 -1.34903 3.21873 0
M  V30 2812 C 270.099 -1.79654 3.8472 0
M  V30 2813 O 271.123 -1.44554 3.2555 0
M  V30 2814 O 269.982 -2.44515 4.88748 0
M  V30 2815 H 267.076 -0.401468 0.723016 0
M  V30 2816 H 269.622 -0.0896927 1.69463 0
M  V30 2817 H 268.394 -0.53781 3.87586 0
M  V30 2818 H 268.017 -2.16522 3.33473 0
M  V30 2819 N 269.014 -1.53014 -0.377408 0
M  V30 2820 C 270.263 -1.67845 -1.11853 0
M  V30 2821 C 270.576 -0.430625 -1.90801 0
M  V30 2822 O 271.782 -0.459261 -2.67587 0
M  V30 2823 C 270.238 -2.96668 -2.03756 0
M  V30 2824 C 269.846 -4.28671 -1.30175 0
M  V30 2825 C 271.59 -3.20865 -2.77932 0
M  V30 2826 C 269.497 -5.48591 -2.20911 0
M  V30 2827 H 268.427 -0.625343 -0.421263 0
M  V30 2828 H 271.078 -1.79514 -0.380409 0
M  V30 2829 H 269.46 -2.78773 -2.8125 0
M  V30 2830 H 270.634 -4.57157 -0.578259 0
M  V30 2831 H 268.949 -4.10825 -0.679108 0
M  V30 2832 H 271.546 -4.07642 -3.46024 0
M  V30 2833 H 271.889 -2.36424 -3.4265 0
M  V30 2834 H 272.422 -3.39379 -2.07525 0
M  V30 2835 H 269.161 -6.35474 -1.6079 0
M  V30 2836 H 268.681 -5.244 -2.91144 0
M  V30 2837 H 270.36 -5.8292 -2.80736 0
M  V30 2838 N 270.492 0.636531 -1.44174 0
M  V30 2839 C 271.424 1.7618 -1.46606 0
M  V30 2840 C 272.437 1.58768 -0.360091 0
M  V30 2841 O 273.626 1.67181 -0.625518 0
M  V30 2842 C 270.726 3.13833 -1.27915 0
M  V30 2843 C 269.899 3.57753 -2.51658 0
M  V30 2844 C 268.958 4.74265 -2.27945 0
M  V30 2845 O 267.984 4.82852 -3.01401 0
M  V30 2846 N 269.186 5.65604 -1.30662 0
M  V30 2847 H 271.951 1.74567 -2.43612 0
M  V30 2848 H 269.512 0.820924 -1.39544 0
M  V30 2849 H 271.504 3.8949 -1.09907 0
M  V30 2850 H 270.074 3.10121 -0.39293 0
M  V30 2851 H 269.294 2.72362 -2.84978 0
M  V30 2852 H 270.582 3.83847 -3.33974 0
M  V30 2853 H 269.98 5.61354 -0.699844 0
M  V30 2854 H 268.537 6.40913 -1.18634 0
M  V30 2855 N 271.97 1.30982 0.876444 0
M  V30 2856 C 272.917 1.18085 1.98304 0
M  V30 2857 C 273.887 0.0682263 1.6596 0
M  V30 2858 O 275.072 0.239937 1.89285 0
M  V30 2859 C 272.212 0.887475 3.33493 0
M  V30 2860 C 271.325 2.08281 3.78475 0
M  V30 2861 C 270.46 1.72678 5.0235 0
M  V30 2862 C 269.499 2.88657 5.39762 0
M  V30 2863 N 268.636 2.53292 6.54819 0
M  V30 2864 H 273.476 2.1275 2.08666 0
M  V30 2865 H 271.013 1.05839 1.02159 0
M  V30 2866 H 272.971 0.697961 4.1132 0
M  V30 2867 H 271.601 -0.022315 3.22792 0
M  V30 2868 H 270.653 2.3833 2.96484 0
M  V30 2869 H 271.965 2.95108 4.02135 0
M  V30 2870 H 271.119 1.50151 5.87826 0
M  V30 2871 H 269.858 0.830327 4.8058 0
M  V30 2872 H 268.863 3.1184 4.52809 0
M  V30 2873 H 270.088 3.79002 5.63502 0
M  V30 2874 H 268.034 1.66163 6.34607 0
M  V30 2875 H 267.951 3.3365 6.7839 0
M  V30 2876 H 269.219 2.34143 7.43503 0
M  V30 2877 N 273.449 -1.08991 1.13837 0
M  V30 2878 C 274.697 -1.80899 0.901098 0
M  V30 2879 C 275.018 -1.86356 -0.574134 0
M  V30 2880 O 274.288 -1.35235 -1.41733 0
M  V30 2881 H 272.868 -0.669966 0.330386 0
M  V30 2882 H 275.53 -1.318 1.43578 0
M  V30 2883 H 274.626 -2.83929 1.29578 0
M  V30 2884 N 274.927 -0.932562 -1.27047 0
M  V30 2885 C 276.173 -0.585913 -1.94778 0
M  V30 2886 C 276.528 0.864142 -1.71902 0
M  V30 2887 O 275.821 1.60894 -1.04037 0
M  V30 2888 C 276.015 -0.853713 -3.47054 0
M  V30 2889 C 275.844 -2.32825 -3.84737 0
M  V30 2890 C 274.614 -2.98184 -4.07939 0
M  V30 2891 C 276.812 -3.30612 -3.93954 0
M  V30 2892 N 274.794 -4.3574 -4.3244 0
M  V30 2893 C 276.165 -4.53395 -4.22887 0
M  V30 2894 C 278.22 -3.25755 -3.76548 0
M  V30 2895 C 276.923 -5.71927 -4.36224 0
M  V30 2896 C 278.949 -4.43604 -3.91113 0
M  V30 2897 C 278.311 -5.65166 -4.20437 0
M  V30 2898 H 274.41 -0.264617 -0.735868 0
M  V30 2899 H 276.994 -1.20019 -1.53309 0
M  V30 2900 H 275.165 -0.268557 -3.8747 0
M  V30 2901 H 276.897 -0.469202 -4.01971 0
M  V30 2902 H 273.652 -2.48835 -4.02961 0
M  V30 2903 H 274.076 -5.06915 -4.48738 0
M  V30 2904 H 278.718 -2.32835 -3.52913 0
M  V30 2905 H 276.436 -6.65308 -4.58683 0
M  V30 2906 H 280.022 -4.41368 -3.79059 0
M  V30 2907 H 278.902 -6.54836 -4.31462 0
M  V30 2908 N 276.405 1.4127 -0.698611 0
M  V30 2909 C 277.338 2.28195 0.0153898 0
M  V30 2910 C 278.316 1.42402 0.784883 0
M  V30 2911 O 279.5 1.71828 0.775067 0
M  V30 2912 C 276.627 3.22685 1.02918 0
M  V30 2913 C 275.673 4.25041 0.352501 0
M  V30 2914 S 276.506 5.27757 -0.907322 0
M  V30 2915 C 277.662 6.25812 0.104796 0
M  V30 2916 H 277.895 2.88403 -0.721858 0
M  V30 2917 H 275.428 1.46452 -0.488996 0
M  V30 2918 H 277.386 3.77655 1.60893 0
M  V30 2919 H 276.047 2.61566 1.73902 0
M  V30 2920 H 275.24 4.91437 1.11828 0
M  V30 2921 H 274.842 3.73682 -0.154254 0
M  V30 2922 H 277.134 6.70705 0.957103 0
M  V30 2923 H 278.077 7.06149 -0.525323 0
M  V30 2924 H 278.485 5.62615 0.460931 0
M  V30 2925 N 277.883 0.443576 1.51229 0
M  V30 2926 C 279.129 -0.120975 2.02439 0
M  V30 2927 C 279.462 -1.41815 1.32674 0
M  V30 2928 O 278.737 -1.89373 0.443622 0
M  V30 2929 C 279.02 -0.333291 3.58554 0
M  V30 2930 C 278.873 0.982968 4.38928 0
M  V30 2931 C 280.192 -1.10028 4.26124 0
M  V30 2932 H 277.311 -0.0424923 0.735774 0
M  V30 2933 H 279.953 0.583794 1.80809 0
M  V30 2934 H 278.103 -0.933614 3.77115 0
M  V30 2935 H 279.775 1.61775 4.32003 0
M  V30 2936 H 278.018 1.58611 4.03763 0
M  V30 2937 H 278.689 0.788379 5.46341 0
M  V30 2938 H 281.165 -0.591711 4.11871 0
M  V30 2939 H 280.041 -1.21761 5.35225 0
M  V30 2940 H 280.302 -2.12996 3.87408 0
M  V30 2941 N 279.361 -1.56624 0.175154 0
M  V30 2942 C 280.291 -2.21155 -0.749195 0
M  V30 2943 C 281.272 -1.16836 -1.23626 0
M  V30 2944 O 282.457 -1.45277 -1.28873 0
M  V30 2945 C 279.587 -2.8553 -1.97711 0
M  V30 2946 C 278.541 -3.95921 -1.62575 0
M  V30 2947 C 277.867 -4.47365 -2.92864 0
M  V30 2948 C 279.167 -5.15323 -0.850838 0
M  V30 2949 H 280.861 -2.98653 -0.211295 0
M  V30 2950 H 278.407 -1.43651 -0.100188 0
M  V30 2951 H 280.36 -3.2935 -2.62881 0
M  V30 2952 H 279.084 -2.05406 -2.53921 0
M  V30 2953 H 277.743 -3.52762 -0.997719 0
M  V30 2954 H 277.391 -3.64027 -3.47122 0
M  V30 2955 H 277.091 -5.21839 -2.70106 0
M  V30 2956 H 278.615 -4.93873 -3.59056 0
M  V30 2957 H 280.029 -5.55812 -1.40521 0
M  V30 2958 H 278.426 -5.95739 -0.722154 0
M  V30 2959 H 279.496 -4.84661 0.152082 0
M  V30 2960 N 280.839 0.0985539 -1.57292 0
M  V30 2961 C 281.749 1.13824 -2.05137 0
M  V30 2962 C 282.765 1.44076 -0.975604 0
M  V30 2963 O 283.941 1.54786 -1.28853 0
M  V30 2964 C 281.006 2.43969 -2.46333 0
M  V30 2965 C 280.067 2.2093 -3.68087 0
M  V30 2966 C 279.3 3.44869 -4.0731 0
M  V30 2967 O 279.523 4.52972 -3.46659 0
M  V30 2968 O 278.457 3.34661 -5.00285 0
M  V30 2969 H 282.283 0.761881 -2.93988 0
M  V30 2970 H 279.868 0.310818 -1.46131 0
M  V30 2971 H 281.75 3.20609 -2.73473 0
M  V30 2972 H 280.425 2.81038 -1.60621 0
M  V30 2973 H 279.332 1.42081 -3.46069 0
M  V30 2974 H 280.665 1.88755 -4.54568 0
M  V30 2975 N 282.317 1.53212 0.369288 0
M  V30 2976 C 283.547 1.72868 1.13139 0
M  V30 2977 C 283.955 0.455754 1.83629 0
M  V30 2978 O 283.298 -0.580861 1.74275 0
M  V30 2979 C 283.36 2.83667 2.20847 0
M  V30 2980 C 283.024 4.24142 1.70155 0
M  V30 2981 C 284.021 5.06619 1.16763 0
M  V30 2982 C 281.706 4.70539 1.7578 0
M  V30 2983 C 283.7 6.33581 0.696678 0
M  V30 2984 C 281.387 5.97481 1.28297 0
M  V30 2985 C 282.385 6.78833 0.753307 0
M  V30 2986 O 282.073 8.03393 0.285475 0
M  V30 2987 H 281.805 0.581707 0.344373 0
M  V30 2988 H 284.359 2.00736 0.435243 0
M  V30 2989 H 282.589 2.51265 2.93944 0
M  V30 2990 H 284.278 2.91536 2.82421 0
M  V30 2991 H 285.044 4.71948 1.11758 0
M  V30 2992 H 280.923 4.07293 2.15949 0
M  V30 2993 H 284.467 6.97027 0.282581 0
M  V30 2994 H 280.364 6.31651 1.32994 0
M  V30 2995 H 281.132 8.17497 0.405145 0
M  V30 2996 N 283.795 -0.628877 1.44509 0
M  V30 2997 C 284.705 -1.7694 1.54044 0
M  V30 2998 C 285.721 -1.68705 0.425987 0
M  V30 2999 O 286.897 -1.89442 0.683656 0
M  V30 3000 C 283.962 -3.13332 1.48405 0
M  V30 3001 C 283.023 -3.33181 2.70719 0
M  V30 3002 C 282.256 -4.63067 2.6534 0
M  V30 3003 O 282.479 -5.44017 1.71469 0
M  V30 3004 O 281.413 -4.85167 3.56226 0
M  V30 3005 H 285.239 -1.71848 2.50403 0
M  V30 3006 H 282.824 -0.790378 1.26781 0
M  V30 3007 H 284.706 -3.94634 1.47791 0
M  V30 3008 H 283.381 -3.1896 0.551898 0
M  V30 3009 H 282.288 -2.51549 2.769 0
M  V30 3010 H 283.621 -3.32416 3.62988 0
M  V30 3011 N 285.273 -1.31445 -0.869486 0
M  V30 3012 C 286.203 -1.21727 -1.99261 0
M  V30 3013 C 287.184 -0.104359 -1.6978 0
M  V30 3014 O 288.369 -0.289038 -1.92037 0
M  V30 3015 C 285.499 -0.924317 -3.34774 0
M  V30 3016 C 284.453 -1.99685 -3.78563 0
M  V30 3017 C 283.779 -1.55658 -5.11541 0
M  V30 3018 C 285.079 -3.41003 -3.95619 0
M  V30 3019 H 286.773 -2.1569 -2.07649 0
M  V30 3020 H 284.319 -1.03839 -0.997675 0
M  V30 3021 H 286.272 -0.842934 -4.12883 0
M  V30 3022 H 284.996 0.0509793 -3.2656 0
M  V30 3023 H 283.655 -2.06813 -3.02694 0
M  V30 3024 H 283.303 -0.569132 -4.9977 0
M  V30 3025 H 283.003 -2.27409 -5.41811 0
M  V30 3026 H 284.527 -1.48928 -5.92159 0
M  V30 3027 H 285.941 -3.36547 -4.64122 0
M  V30 3028 H 284.338 -4.10975 -4.37286 0
M  V30 3029 H 285.408 -3.81754 -2.98985 0
M  V30 3030 N 286.751 1.08385 -1.14413 0
M  V30 3031 C 287.683 2.1519 -0.789036 0
M  V30 3032 C 288.696 1.61638 0.19417 0
M  V30 3033 O 289.885 1.78479 -0.0275711 0
M  V30 3034 C 286.985 3.38565 -0.15058 0
M  V30 3035 C 286.158 4.21501 -1.16857 0
M  V30 3036 C 285.217 5.23277 -0.553832 0
M  V30 3037 O 284.243 5.56041 -1.21686 0
M  V30 3038 N 285.445 5.76629 0.669296 0
M  V30 3039 H 288.21 2.46257 -1.70814 0
M  V30 3040 H 285.771 1.24198 -1.03858 0
M  V30 3041 H 287.763 4.03777 0.273181 0
M  V30 3042 H 286.333 3.05299 0.671667 0
M  V30 3043 H 285.553 3.52265 -1.76926 0
M  V30 3044 H 286.841 4.73731 -1.85624 0
M  V30 3045 H 286.239 5.52243 1.22654 0
M  V30 3046 H 284.796 6.43521 1.03556 0
M  V30 3047 N 288.23 0.939286 1.26551 0
M  V30 3048 C 289.46 0.601663 1.97645 0
M  V30 3049 C 289.868 -0.827206 1.70159 0
M  V30 3050 O 289.211 -1.56291 0.965338 0
M  V30 3051 C 289.273 0.761725 3.51337 0
M  V30 3052 C 288.937 2.16487 4.0247 0
M  V30 3053 C 289.934 3.14016 4.14355 0
M  V30 3054 C 287.619 2.48494 4.36527 0
M  V30 3055 C 289.613 4.41654 4.59587 0
M  V30 3056 C 287.3 3.76364 4.81449 0
M  V30 3057 C 288.298 4.72758 4.92939 0
M  V30 3058 O 287.986 5.98352 5.36871 0
M  V30 3059 H 287.718 0.225758 0.637189 0
M  V30 3060 H 290.272 1.26178 1.62075 0
M  V30 3061 H 288.502 0.0444808 3.86674 0
M  V30 3062 H 290.191 0.427442 4.03643 0
M  V30 3063 H 290.957 2.90613 3.8829 0
M  V30 3064 H 286.836 1.74202 4.26819 0
M  V30 3065 H 290.38 5.16896 4.68471 0
M  V30 3066 H 286.277 3.99582 5.06956 0
M  V30 3067 H 287.045 6.01507 5.55096 0
M  V30 3068 N 289.708 -1.40897 0.706093 0
M  V30 3069 C 290.655 -2.30751 0.0474474 0
M  V30 3070 C 291.625 -1.47678 -0.76029 0
M  V30 3071 O 292.81 -1.76441 -0.726177 0
M  V30 3072 C 289.95 -3.33815 -0.875309 0
M  V30 3073 C 289.063 -4.31961 -0.0580623 0
M  V30 3074 C 288.198 -5.22093 -0.979425 0
M  V30 3075 C 287.237 -6.11902 -0.155706 0
M  V30 3076 N 286.374 -6.94482 -1.03144 0
M  V30 3077 H 291.214 -2.86513 0.819413 0
M  V30 3078 H 288.751 -1.41102 0.415783 0
M  V30 3079 H 290.709 -3.92129 -1.42446 0
M  V30 3080 H 289.339 -2.79579 -1.61356 0
M  V30 3081 H 288.391 -3.75507 0.608147 0
M  V30 3082 H 289.703 -4.95415 0.580082 0
M  V30 3083 H 288.857 -5.85292 -1.59744 0
M  V30 3084 H 287.596 -4.5889 -1.65141 0
M  V30 3085 H 286.601 -5.47742 0.475309 0
M  V30 3086 H 287.826 -6.77162 0.512635 0
M  V30 3087 H 285.772 -6.33877 -1.68924 0
M  V30 3088 H 285.689 -7.54665 -0.449108 0
M  V30 3089 H 286.957 -7.6214 -1.63593 0
M  V30 3090 N 291.186 -0.45159 -1.50991 0
M  V30 3091 C 292.096 0.358431 -2.31846 0
M  V30 3092 C 293.112 1.01438 -1.41373 0
M  V30 3093 O 294.288 1.00663 -1.74439 0
M  V30 3094 C 291.353 1.43704 -3.15515 0
M  V30 3095 C 290.414 0.799742 -4.21785 0
M  V30 3096 C 289.647 1.82696 -5.01456 0
M  V30 3097 O 289.87 3.05105 -4.81941 0
M  V30 3098 O 288.804 1.40958 -5.85162 0
M  V30 3099 H 292.63 -0.302032 -3.02194 0
M  V30 3100 H 290.215 -0.213825 -1.47862 0
M  V30 3101 H 292.097 2.06227 -3.67489 0
M  V30 3102 H 290.772 2.08133 -2.47916 0
M  V30 3103 H 289.679 0.136084 -3.73852 0
M  V30 3104 H 291.012 0.198718 -4.91799 0
M  V30 3105 N 292.664 1.56529 -0.183458 0
M  V30 3106 C 293.91 1.97537 0.459036 0
M  V30 3107 C 294.243 1.06989 1.62071 0
M  V30 3108 O 293.518 0.11948 1.94133 0
M  V30 3109 C 293.801 3.47874 0.930368 0
M  V30 3110 C 293.654 4.492 -0.232317 0
M  V30 3111 C 294.973 4.01612 1.79989 0
M  V30 3112 H 292.092 0.718204 0.165383 0
M  V30 3113 H 294.734 1.88042 -0.272038 0
M  V30 3114 H 292.884 3.56095 1.55333 0
M  V30 3115 H 294.556 4.53027 -0.86972 0
M  V30 3116 H 292.799 4.24657 -0.885928 0
M  V30 3117 H 293.47 5.51823 0.139796 0
M  V30 3118 H 295.946 3.96097 1.27461 0
M  V30 3119 H 294.822 5.07195 2.09867 0
M  V30 3120 H 295.083 3.46163 2.74998 0
M  V30 3121 N 294.142 -0.090211 1.57342 0
M  V30 3122 C 295.09 -1.12792 2.03422 0
M  V30 3123 C 296.084 -1.41182 0.936166 0
M  V30 3124 O 297.29 -1.40805 1.12133 0
M  V30 3125 H 293.665 -0.380986 0.648347 0
M  V30 3126 H 295.636 -0.71299 2.89757 0
M  V30 3127 C 294.385 -2.43855 2.47851 0
M  V30 3128 H 293.708 -2.22855 3.31927 0
M  V30 3129 H 295.148 -3.14955 2.83865 0
M  V30 3130 C 293.607 -3.08503 1.3538 0
M  V30 3131 O 294.137 -3.95805 0.685641 0
M  V30 3132 N 292.343 -2.68831 1.10355 0
M  V30 3133 H 291.89 -1.97929 1.64869 0
M  V30 3134 H 291.848 -3.12412 0.353031 0
M  V30 3135 N 295.62 -1.53406 -0.361157 0
M  V30 3136 C 296.53 -1.83122 -1.4664 0
M  V30 3137 C 297.546 -0.719943 -1.58407 0
M  V30 3138 O 298.722 -1.01046 -1.74218 0
M  V30 3139 C 295.787 -2.01891 -2.81853 0
M  V30 3140 C 294.848 -3.25784 -2.79577 0
M  V30 3141 C 294.081 -3.43648 -4.0834 0
M  V30 3142 O 294.304 -2.65714 -5.0473 0
M  V30 3143 O 293.238 -4.37018 -4.13883 0
M  V30 3144 H 297.064 -2.7703 -1.24451 0
M  V30 3145 H 294.649 -1.38841 -0.551678 0
M  V30 3146 H 296.531 -2.15782 -3.61962 0
M  V30 3147 H 295.206 -1.11173 -3.0401 0
M  V30 3148 H 294.113 -3.17312 -1.98151 0
M  V30 3149 H 295.446 -4.16439 -2.62373 0
M  V30 3150 N 297.098 0.621204 -1.44841 0
M  V30 3151 C 298.326 1.40752 -1.51646 0
M  V30 3152 C 298.741 1.88246 -0.144549 0
M  V30 3153 O 298.098 1.61422 0.851416 0
M  V30 3154 C 298.149 2.62119 -2.4895 0
M  V30 3155 O 297.87 2.16602 -3.80808 0
M  V30 3156 C 299.371 3.55135 -2.65319 0
M  V30 3157 H 296.591 0.431325 -0.514004 0
M  V30 3158 H 299.135 0.758835 -1.899 0
M  V30 3159 H 297.29 3.23058 -2.13805 0
M  V30 3160 H 297.704 2.95358 -4.33433 0
M  V30 3161 H 299.178 4.36874 -3.37409 0
M  V30 3162 H 299.655 4.04592 -1.70886 0
M  V30 3163 H 300.261 3.00058 -3.01405 0
M  V30 3164 N 298.576 1.31904 0.862503 0
M  V30 3165 C 299.523 1.20182 1.9704 0
M  V30 3166 C 300.493 0.0858247 1.65878 0
M  V30 3167 O 301.678 0.26 1.8902 0
M  V30 3168 C 298.818 0.922797 3.32533 0
M  V30 3169 C 297.931 2.12284 3.76244 0
M  V30 3170 C 297.066 1.77996 5.00491 0
M  V30 3171 C 296.105 2.94366 5.36671 0
M  V30 3172 N 295.242 2.60223 6.52095 0
M  V30 3173 H 300.082 2.14951 2.06398 0
M  V30 3174 H 297.619 1.06917 1.01031 0
M  V30 3175 H 299.577 0.741548 4.10557 0
M  V30 3176 H 298.207 0.0119227 3.22798 0
M  V30 3177 H 297.259 2.41461 2.9394 0
M  V30 3178 H 298.571 2.99357 3.98982 0
M  V30 3179 H 297.725 1.56377 5.862 0
M  V30 3180 H 296.464 0.881252 4.79672 0
M  V30 3181 H 295.469 3.16625 4.49476 0
M  V30 3182 H 296.694 3.84957 5.59451 0
M  V30 3183 H 294.64 1.72884 6.32809 0
M  V30 3184 H 294.557 3.40827 6.74814 0
M  V30 3185 H 295.825 2.42016 7.40978 0
M  V30 3186 N 300.054 -1.07777 1.14986 0
M  V30 3187 C 301.3 -1.80719 0.93339 0
M  V30 3188 C 301.655 -1.8484 -0.534019 0
M  V30 3189 O 300.948 -1.31795 -1.3907 0
M  V30 3190 C 301.142 -3.25495 1.47608 0
M  V30 3191 C 300.971 -3.3548 2.99472 0
M  V30 3192 C 299.741 -3.46293 3.6798 0
M  V30 3193 C 301.939 -3.26596 3.97291 0
M  V30 3194 N 299.921 -3.45136 5.07695 0
M  V30 3195 C 301.292 -3.32506 5.23297 0
M  V30 3196 C 303.347 -3.10376 3.89321 0
M  V30 3197 C 302.05 -3.23866 6.42264 0
M  V30 3198 C 304.076 -3.03069 5.07842 0
M  V30 3199 C 303.438 -3.09587 6.32721 0
M  V30 3200 H 299.537 -0.674814 0.395158 0
M  V30 3201 H 302.121 -1.28681 1.46114 0
M  V30 3202 H 300.292 -3.75963 0.975022 0
M  V30 3203 H 302.024 -3.86535 1.19887 0
M  V30 3204 H 298.779 -3.50456 3.18555 0
M  V30 3205 H 299.203 -3.48097 5.80653 0
M  V30 3206 H 303.845 -3.04194 2.93642 0
M  V30 3207 H 301.563 -3.28807 7.38181 0
M  V30 3208 H 305.149 -2.91629 5.03432 0
M  V30 3209 H 304.029 -3.0397 7.22891 0
M  V30 3210 N 301.532 -0.945985 -1.26051 0
M  V30 3211 C 302.479 -0.45809 -2.26208 0
M  V30 3212 C 303.449 0.484816 -1.58867 0
M  V30 3213 O 304.634 0.399969 -1.86561 0
M  V30 3214 C 301.774 0.266131 -3.44072 0
M  V30 3215 C 300.887 -0.713005 -4.26075 0
M  V30 3216 C 300.022 0.0329013 -5.3119 0
M  V30 3217 C 299.061 -0.93774 -6.04874 0
M  V30 3218 N 298.198 -0.223274 -7.01745 0
M  V30 3219 H 303.038 -1.3171 -2.67313 0
M  V30 3220 H 300.575 -0.66069 -1.31428 0
M  V30 3221 H 302.533 0.702514 -4.11243 0
M  V30 3222 H 301.163 1.08925 -3.03867 0
M  V30 3223 H 300.215 -1.26789 -3.58648 0
M  V30 3224 H 301.527 -1.45406 -4.77136 0
M  V30 3225 H 300.681 0.528335 -6.04395 0
M  V30 3226 H 299.42 0.806801 -4.8098 0
M  V30 3227 H 298.425 -1.44425 -5.30492 0
M  V30 3228 H 299.65 -1.71172 -6.57173 0
M  V30 3229 H 297.596 0.532046 -6.53839 0
M  V30 3230 H 297.513 -0.90357 -7.50581 0
M  V30 3231 H 298.781 0.250907 -7.79096 0
M  V30 3232 N 303.011 1.40521 -0.713556 0
M  V30 3233 C 303.944 2.28198 -0.00881422 0
M  V30 3234 C 304.922 1.43227 0.769735 0
M  V30 3235 O 306.106 1.72641 0.756799 0
M  V30 3236 C 303.233 3.23758 0.994899 0
M  V30 3237 C 302.279 4.25391 0.3074 0
M  V30 3238 S 303.112 5.26765 -0.963247 0
M  V30 3239 C 304.268 6.25888 0.0384143 0
M  V30 3240 H 304.501 2.87622 -0.752407 0
M  V30 3241 H 302.034 1.45925 -0.504502 0
M  V30 3242 H 303.992 3.79341 1.56879 0
M  V30 3243 H 302.653 2.63396 1.71118 0
M  V30 3244 H 301.846 4.92596 1.0661 0
M  V30 3245 H 301.448 3.73497 -0.193879 0
M  V30 3246 H 303.74 6.71683 0.885912 0
M  V30 3247 H 304.683 7.05552 -0.60019 0
M  V30 3248 H 305.091 5.63072 0.401233 0
M  V30 3249 N 304.489 0.459591 1.5075 0
M  V30 3250 C 305.422 -0.386257 2.24907 0
M  V30 3251 C 306.4 -1.006 1.27744 0
M  V30 3252 O 307.584 -1.04416 1.56938 0
M  V30 3253 C 304.711 -1.54021 3.01654 0
M  V30 3254 C 303.757 -1.03898 4.13651 0
M  V30 3255 S 304.59 0.0370501 5.35487 0
M  V30 3256 C 305.746 -1.12105 6.15779 0
M  V30 3257 H 305.979 0.243272 2.96303 0
M  V30 3258 H 303.512 0.244339 1.52454 0
M  V30 3259 H 305.47 -2.20163 3.46466 0
M  V30 3260 H 304.131 -2.14121 2.29806 0
M  V30 3261 H 303.324 -1.90254 4.66711 0
M  V30 3262 H 302.926 -0.45545 3.71216 0
M  V30 3263 H 305.218 -2.03501 6.46215 0
M  V30 3264 H 306.161 -0.62995 7.05292 0
M  V30 3265 H 306.569 -1.36967 5.47631 0
M  V30 3266 N 305.967 -1.56429 0.191757 0
M  V30 3267 C 307.244 -1.89224 -0.495332 0
M  V30 3268 C 307.624 -1.10478 -1.79883 0
M  V30 3269 O 306.972 -0.204852 -2.2758 0
M  V30 3270 C 307.182 -3.41548 -0.717367 0
M  V30 3271 C 308.53 -4.11711 -1.03823 0
M  V30 3272 O 309.554 -3.4698 -0.805204 0
M  V30 3273 O 308.413 -5.2611 -1.47887 0
M  V30 3274 H 305.507 -0.785788 -0.25781 0
M  V30 3275 H 308.053 -1.68111 0.231721 0
M  V30 3276 H 306.825 -3.90772 0.203287 0
M  V30 3277 H 306.448 -3.68342 -1.497 0
M  V30 3278 N 307.445 0.0818655 -1.57387 0
M  V30 3279 C 308.856 0.634871 -1.75574 0
M  V30 3280 C 309.207 1.78435 -0.815809 0
M  V30 3281 O 308.332 2.164 0.0025366 0
M  V30 3282 C 308.927 1.15845 -3.18379 0
M  V30 3283 C 307.486 1.65741 -3.37945 0
M  V30 3284 C 306.633 0.572549 -2.71325 0
M  V30 3285 H 309.584 -0.144268 -1.58043 0
M  V30 3286 H 309.605 2.02751 -3.21982 0
M  V30 3287 H 309.117 0.321631 -3.86765 0
M  V30 3288 H 307.218 2.51781 -2.74658 0
M  V30 3289 H 307.331 1.74129 -4.46336 0
M  V30 3290 H 305.695 1.01518 -2.33594 0
M  V30 3291 H 306.478 -0.253918 -3.4236 0
M  V30 3292 N 308.923 1.53595 0.353017 0
M  V30 3293 C 310.172 1.69603 1.09168 0
M  V30 3294 C 310.485 0.460925 1.90092 0
M  V30 3295 O 311.691 0.501774 2.66823 0
M  V30 3296 C 310.147 2.99872 1.9901 0
M  V30 3297 C 309.755 4.30687 1.23339 0
M  V30 3298 C 311.499 3.25246 2.72792 0
M  V30 3299 C 309.406 5.52036 2.12156 0
M  V30 3300 H 308.336 0.631966 0.411261 0
M  V30 3301 H 310.987 1.80096 0.351802 0
M  V30 3302 H 309.369 2.83212 2.7678 0
M  V30 3303 H 310.543 4.58019 0.505456 0
M  V30 3304 H 308.858 4.11853 0.613663 0
M  V30 3305 H 311.455 4.13095 3.39495 0
M  V30 3306 H 311.798 2.41846 3.38846 0
M  V30 3307 H 312.331 3.42638 2.021 0
M  V30 3308 H 309.07 6.37951 1.50659 0
M  V30 3309 H 308.59 5.28966 2.82764 0
M  V30 3310 H 310.269 5.87313 2.71427 0
M  V30 3311 N 310.401 -0.613514 1.45168 0
M  V30 3312 C 311.331 -1.7354 1.56225 0
M  V30 3313 C 312.312 -1.64981 0.41414 0
M  V30 3314 O 313.497 -1.83472 0.636526 0
M  V30 3315 C 310.627 -3.12128 1.52295 0
M  V30 3316 C 309.581 -3.35491 2.65762 0
M  V30 3317 C 308.907 -4.74291 2.46885 0
M  V30 3318 C 310.207 -3.26325 4.0781 0
M  V30 3319 H 311.901 -1.64543 2.50132 0
M  V30 3320 H 309.447 -0.790185 1.20383 0
M  V30 3321 H 311.4 -3.90404 1.58628 0
M  V30 3322 H 310.124 -3.2195 0.549139 0
M  V30 3323 H 308.783 -2.59603 2.58847 0
M  V30 3324 H 308.431 -4.80839 1.47657 0
M  V30 3325 H 308.131 -4.9088 3.22972 0
M  V30 3326 H 309.655 -5.54775 2.55063 0
M  V30 3327 H 311.069 -3.94483 4.16 0
M  V30 3328 H 309.466 -3.54445 4.8424 0
M  V30 3329 H 310.536 -2.23855 4.30136 0
M  V30 3330 N 311.879 -1.3236 -0.855495 0
M  V30 3331 C 313.107 -1.2587 -1.64208 0
M  V30 3332 C 313.522 0.173457 -1.88002 0
M  V30 3333 O 312.879 1.11027 -1.44842 0
M  V30 3334 C 312.93 -2.01424 -3.00184 0
M  V30 3335 O 312.651 -3.39051 -2.77445 0
M  V30 3336 C 314.152 -2.01948 -3.94629 0
M  V30 3337 H 311.372 -0.434318 -0.511477 0
M  V30 3338 H 313.916 -1.74469 -1.0668 0
M  V30 3339 H 312.071 -1.56549 -3.5436 0
M  V30 3340 H 312.485 -3.77711 -3.63916 0
M  V30 3341 H 313.959 -2.59297 -4.87308 0
M  V30 3342 H 314.436 -1.00554 -4.27534 0
M  V30 3343 H 315.042 -2.46767 -3.4639 0
M  V30 3344 N 313.357 1.07166 -1.15556 0
M  V30 3345 C 314.585 1.83514 -0.955519 0
M  V30 3346 C 315 1.82163 0.49621 0
M  V30 3347 O 314.357 1.23441 1.34419 0
M  V30 3348 C 314.408 3.30515 -1.46432 0
M  V30 3349 O 314.129 3.31937 -2.85918 0
M  V30 3350 C 315.63 4.23625 -1.30603 0
M  V30 3351 H 312.85 0.578926 -0.339244 0
M  V30 3352 H 315.394 1.35265 -1.53374 0
M  V30 3353 H 313.549 3.76106 -0.928584 0
M  V30 3354 H 313.963 4.23794 -3.09029 0
M  V30 3355 H 315.437 5.24831 -1.71047 0
M  V30 3356 H 315.914 4.38485 -0.250441 0
M  V30 3357 H 316.52 3.83871 -1.83094 0
M  V30 3358 N 314.835 0.952656 1.25548 0
M  V30 3359 C 316.06 0.623025 1.97821 0
M  V30 3360 C 316.485 -0.7976 1.70352 0
M  V30 3361 O 315.843 -1.53905 0.958283 0
M  V30 3362 C 315.891 0.885532 3.49558 0
M  V30 3363 O 314.995 -0.0366641 4.12384 0
M  V30 3364 H 314.336 0.237082 0.620232 0
M  V30 3365 H 316.866 1.27871 1.59719 0
M  V30 3366 H 316.876 0.811009 3.99858 0
M  V30 3367 H 315.551 1.92094 3.6888 0
M  V30 3368 H 314.128 0.0898954 3.72792 0
M  V30 3369 N 316.313 -1.40141 0.720998 0
M  V30 3370 C 317.559 -2.01084 0.263231 0
M  V30 3371 C 317.892 -1.57052 -1.14229 0
M  V30 3372 O 317.167 -0.793027 -1.77599 0
M  V30 3373 C 317.45 -3.58401 0.349344 0
M  V30 3374 C 317.303 -4.12491 1.79363 0
M  V30 3375 C 318.622 -4.39231 -0.276351 0
M  V30 3376 H 315.741 -0.730572 0.0971228 0
M  V30 3377 H 318.383 -1.66543 0.914518 0
M  V30 3378 H 316.533 -3.87958 -0.205165 0
M  V30 3379 H 318.205 -3.93711 2.40394 0
M  V30 3380 H 316.448 -3.66576 2.31958 0
M  V30 3381 H 317.119 -5.21646 1.80524 0
M  V30 3382 H 319.595 -4.15637 0.196184 0
M  V30 3383 H 318.471 -5.48586 -0.185681 0
M  V30 3384 H 318.732 -4.20643 -1.36059 0
M  V30 3385 N 317.792 -0.46758 -1.50504 0
M  V30 3386 C 319.203 -0.0116166 -1.86696 0
M  V30 3387 C 319.554 1.39202 -1.38265 0
M  V30 3388 O 318.679 2.0313 -0.746132 0
M  V30 3389 C 319.274 -0.0143044 -3.38797 0
M  V30 3390 C 317.833 0.386175 -3.74414 0
M  V30 3391 C 316.98 -0.401287 -2.74381 0
M  V30 3392 H 319.931 -0.682022 -1.43297 0
M  V30 3393 H 319.952 0.788641 -3.72237 0
M  V30 3394 H 319.464 -1.03602 -3.74016 0
M  V30 3395 H 317.565 1.41237 -3.44794 0
M  V30 3396 H 317.678 0.0899596 -4.79016 0
M  V30 3397 H 316.042 0.144536 -2.5429 0
M  V30 3398 H 316.825 -1.42244 -3.12444 0
M  V30 3399 N 319.27 1.56325 -0.20005 0
M  V30 3400 C 320.516 1.98012 0.438059 0
M  V30 3401 C 320.849 1.08702 1.60927 0
M  V30 3402 O 320.124 0.140064 1.93995 0
M  V30 3403 C 320.407 3.48841 0.893419 0
M  V30 3404 C 320.26 4.48928 -0.279947 0
M  V30 3405 C 321.579 4.03498 1.75719 0
M  V30 3406 H 318.698 0.719918 0.157757 0
M  V30 3407 H 321.34 1.87743 -0.291968 0
M  V30 3408 H 319.49 3.57723 1.51547 0
M  V30 3409 H 321.162 4.52079 -0.91772 0
M  V30 3410 H 319.405 4.23694 -0.930919 0
M  V30 3411 H 320.076 5.5194 0.0812601 0
M  V30 3412 H 322.552 3.97427 1.23253 0
M  V30 3413 H 321.428 5.09393 2.04476 0
M  V30 3414 H 321.689 3.4906 2.71311 0
M  V30 3415 N 320.748 -0.0735177 1.57428 0
M  V30 3416 C 321.978 -0.78483 1.91112 0
M  V30 3417 C 322.386 -1.71729 0.7941 0
M  V30 3418 O 321.729 -1.82105 -0.241542 0
M  V30 3419 C 321.791 -1.63346 3.20247 0
M  V30 3420 C 321.455 -0.870557 4.48632 0
M  V30 3421 C 322.452 -0.19058 5.19551 0
M  V30 3422 C 320.137 -0.838242 4.95256 0
M  V30 3423 C 322.131 0.511503 6.35344 0
M  V30 3424 C 319.818 -0.132386 6.10957 0
M  V30 3425 C 320.816 0.541288 6.80852 0
M  V30 3426 O 320.504 1.23578 7.94345 0
M  V30 3427 H 320.236 -0.228408 0.636244 0
M  V30 3428 H 322.79 -0.0486039 2.05342 0
M  V30 3429 H 321.02 -2.41245 3.02222 0
M  V30 3430 H 322.709 -2.22329 3.39595 0
M  V30 3431 H 323.475 -0.206864 4.84559 0
M  V30 3432 H 319.354 -1.35206 4.40727 0
M  V30 3433 H 322.898 1.03789 6.89836 0
M  V30 3434 H 318.795 -0.114023 6.45399 0
M  V30 3435 H 319.563 1.14487 8.10454 0
M  V30 3436 N 322.226 -1.5378 -0.344866 0
M  V30 3437 C 323.451 -1.75211 -1.10977 0
M  V30 3438 C 323.876 -0.48936 -1.81623 0
M  V30 3439 O 323.234 0.557925 -1.72502 0
M  V30 3440 C 323.282 -2.93147 -2.09993 0
M  V30 3441 O 322.386 -2.63203 -3.17487 0
M  V30 3442 H 321.727 -0.581241 -0.321021 0
M  V30 3443 H 324.257 -2.00738 -0.395661 0
M  V30 3444 H 324.267 -3.19898 -2.53237 0
M  V30 3445 H 322.942 -3.84731 -1.5797 0
M  V30 3446 H 321.519 -2.47336 -2.79069 0
M  V30 3447 N 323.704 0.605807 -1.45491 0
M  V30 3448 C 324.634 1.72709 -1.57143 0
M  V30 3449 C 325.615 1.6476 -0.422884 0
M  V30 3450 O 326.8 1.83132 -0.646247 0
M  V30 3451 C 323.93 3.11316 -1.53948 0
M  V30 3452 C 322.884 3.34077 -2.67537 0
M  V30 3453 C 322.21 4.72975 -2.49397 0
M  V30 3454 C 323.51 3.24158 -4.09535 0
M  V30 3455 H 325.204 1.63214 -2.51001 0
M  V30 3456 H 322.75 0.78379 -1.208 0
M  V30 3457 H 324.703 3.89557 -1.60696 0
M  V30 3458 H 323.427 3.21655 -0.566205 0
M  V30 3459 H 322.086 2.58227 -2.6022 0
M  V30 3460 H 321.734 4.8005 -1.50205 0
M  V30 3461 H 321.434 4.8916 -3.25571 0
M  V30 3462 H 322.958 5.53414 -2.58002 0
M  V30 3463 H 324.372 3.92271 -4.18086 0
M  V30 3464 H 322.769 3.51872 -4.86113 0
M  V30 3465 H 323.839 2.2157 -4.31317 0
M  V30 3466 N 325.182 1.32811 0.848464 0
M  V30 3467 C 326.129 1.22265 1.95755 0
M  V30 3468 C 327.099 0.103413 1.65778 0
M  V30 3469 O 328.284 0.280033 1.88734 0
M  V30 3470 C 325.424 0.958014 3.31536 0
M  V30 3471 C 324.537 2.16262 3.73971 0
M  V30 3472 C 323.672 1.83295 4.98575 0
M  V30 3473 C 322.711 3.00041 5.33518 0
M  V30 3474 N 321.848 2.67125 6.49299 0
M  V30 3475 H 326.688 2.17128 2.04107 0
M  V30 3476 H 324.225 1.07982 0.998913 0
M  V30 3477 H 326.183 0.785052 4.09747 0
M  V30 3478 H 324.813 0.046159 3.22767 0
M  V30 3479 H 323.865 2.44565 2.91362 0
M  V30 3480 H 325.177 3.03572 3.95785 0
M  V30 3481 H 324.331 1.62586 5.84509 0
M  V30 3482 H 323.07 0.932078 4.7871 0
M  V30 3483 H 322.075 3.21374 4.46093 0
M  V30 3484 H 323.3 3.90869 5.55336 0
M  V30 3485 H 321.246 1.79586 6.3094 0
M  V30 3486 H 321.163 3.47965 6.71161 0
M  V30 3487 H 322.431 2.49861 7.3837 0
M  V30 3488 N 326.66 -1.06551 1.16123 0
M  V30 3489 C 327.906 -1.79567 0.94252 0
M  V30 3490 C 328.239 -1.86869 -0.528547 0
M  V30 3491 O 327.514 -1.35838 -1.39206 0
M  V30 3492 C 327.797 -3.24195 1.56747 0
M  V30 3493 C 327.65 -3.24989 3.10969 0
M  V30 3494 C 328.969 -4.21678 1.25998 0
M  V30 3495 H 326.088 -0.651883 0.343828 0
M  V30 3496 H 328.73 -1.2463 1.43413 0
M  V30 3497 H 326.88 -3.71107 1.14942 0
M  V30 3498 H 328.552 -2.86258 3.61737 0
M  V30 3499 H 326.795 -2.63716 3.44436 0
M  V30 3500 H 327.466 -4.27005 3.49815 0
M  V30 3501 H 329.942 -3.83196 1.62174 0
M  V30 3502 H 328.818 -5.21146 1.7233 0
M  V30 3503 H 329.079 -4.4174 0.178367 0
M  V30 3504 N 328.138 -0.959301 -1.25041 0
M  V30 3505 C 329.415 -0.533805 -1.88175 0
M  V30 3506 C 329.795 0.988994 -1.865 0
M  V30 3507 O 329.143 1.85677 -1.33177 0
M  V30 3508 C 329.353 -1.11575 -3.30684 0
M  V30 3509 C 330.701 -1.19548 -4.07423 0
M  V30 3510 O 331.725 -1.06765 -3.39823 0
M  V30 3511 O 330.584 -1.39656 -5.28354 0
M  V30 3512 H 327.678 -0.176772 -0.807887 0
M  V30 3513 H 330.224 -1.05303 -1.33076 0
M  V30 3514 H 328.996 -2.15884 -3.26358 0
M  V30 3515 H 328.619 -0.580059 -3.93346 0
M  V30 3516 N 329.616 1.39756 -0.72842 0
M  V30 3517 C 330.563 2.30647 -0.0841519 0
M  V30 3518 C 331.533 1.48869 0.7367 0
M  V30 3519 O 332.718 1.77574 0.698015 0
M  V30 3520 C 329.858 3.35165 0.822091 0
M  V30 3521 C 328.971 4.31999 -0.0106663 0
M  V30 3522 C 328.106 5.23585 0.896241 0
M  V30 3523 C 327.145 6.12072 0.0583381 0
M  V30 3524 N 326.282 6.96035 0.920818 0
M  V30 3525 H 331.122 2.85173 -0.864891 0
M  V30 3526 H 328.659 1.40422 -0.438179 0
M  V30 3527 H 330.617 3.94345 1.36189 0
M  V30 3528 H 329.247 2.8211 1.56888 0
M  V30 3529 H 328.299 3.74492 -0.66781 0
M  V30 3530 H 329.611 4.9443 -0.658825 0
M  V30 3531 H 328.765 5.87759 1.50412 0
M  V30 3532 H 327.504 4.61459 1.57819 0
M  V30 3533 H 326.509 5.46916 -0.562389 0
M  V30 3534 H 327.734 6.76261 -0.6203 0
M  V30 3535 H 325.68 6.36485 1.58818 0
M  V30 3536 H 325.597 7.55284 0.32899 0
M  V30 3537 H 326.865 7.64646 1.51447 0
M  V30 3538 N 331.094 0.475555 1.50254 0
M  V30 3539 C 332.004 -0.321501 2.32387 0
M  V30 3540 C 333.02 -0.991755 1.42969 0
M  V30 3541 O 334.196 -0.978747 1.76018 0
M  V30 3542 C 331.261 -1.38667 3.17762 0
M  V30 3543 C 330.322 -0.732538 4.23004 0
M  V30 3544 C 329.555 -1.74695 5.04299 0
M  V30 3545 O 329.778 -2.97399 4.86734 0
M  V30 3546 O 328.712 -1.31631 5.8733 0
M  V30 3547 H 332.538 0.350071 3.01676 0
M  V30 3548 H 330.123 0.237321 1.47503 0
M  V30 3549 H 332.005 -2.00354 3.70724 0
M  V30 3550 H 330.68 -2.04163 2.51196 0
M  V30 3551 H 329.587 -0.0765902 3.74022 0
M  V30 3552 H 330.92 -0.120452 4.92053 0
M  V30 3553 N 332.573 -1.56217 0.208337 0
M  V30 3554 C 333.803 -2.02043 -0.431523 0
M  V30 3555 C 334.211 -1.08755 -1.54819 0
M  V30 3556 O 333.554 -0.0870009 -1.83494 0
M  V30 3557 C 333.616 -3.44239 -1.03633 0
M  V30 3558 C 333.28 -4.56965 -0.0567502 0
M  V30 3559 C 334.277 -5.14624 0.738773 0
M  V30 3560 C 331.962 -5.02266 0.0581736 0
M  V30 3561 C 333.956 -6.16045 1.63605 0
M  V30 3562 C 331.643 -6.03528 0.959001 0
M  V30 3563 C 332.641 -6.60293 1.7465 0
M  V30 3564 O 332.329 -7.59586 2.6322 0
M  V30 3565 H 332.061 -0.666772 -0.111313 0
M  V30 3566 H 334.615 -2.02919 0.318277 0
M  V30 3567 H 332.845 -3.40391 -1.83497 0
M  V30 3568 H 334.534 -3.73793 -1.58221 0
M  V30 3569 H 335.3 -4.80483 0.660364 0
M  V30 3570 H 331.179 -4.57771 -0.544633 0
M  V30 3571 H 334.723 -6.60279 2.25116 0
M  V30 3572 H 330.62 -6.37092 1.03848 0
M  V30 3573 H 331.388 -7.77057 2.57148 0
M  V30 3574 N 334.051 0.0651679 -1.57465 0
M  V30 3575 C 334.961 1.09448 -2.07505 0
M  V30 3576 C 335.977 1.41974 -1.00595 0
M  V30 3577 O 337.153 1.52018 -1.32107 0
M  V30 3578 C 334.218 2.38689 -2.51453 0
M  V30 3579 C 333.279 2.13073 -3.72691 0
M  V30 3580 C 332.512 3.36152 -4.14533 0
M  V30 3581 O 332.735 4.45517 -3.56189 0
M  V30 3582 O 331.669 3.23974 -5.07272 0
M  V30 3583 H 335.495 0.69935 -2.95538 0
M  V30 3584 H 333.08 0.279752 -1.46757 0
M  V30 3585 H 334.962 3.14736 -2.80212 0
M  V30 3586 H 333.637 2.77568 -1.66546 0
M  V30 3587 H 332.544 1.34709 -3.49005 0
M  V30 3588 H 333.877 1.79071 -4.5847 0
M  V30 3589 N 335.529 1.53961 0.336706 0
M  V30 3590 C 336.775 1.7179 1.07777 0
M  V30 3591 C 337.108 0.483263 1.88091 0
M  V30 3592 O 336.383 -0.519747 1.87427 0
M  V30 3593 C 336.666 2.98558 2.01334 0
M  V30 3594 C 336.519 4.32245 1.24437 0
M  V30 3595 C 337.838 3.21023 3.01052 0
M  V30 3596 H 334.957 0.625089 0.390426 0
M  V30 3597 H 337.599 1.86641 0.35567 0
M  V30 3598 H 335.749 2.86028 2.62908 0
M  V30 3599 H 337.421 4.56637 0.654243 0
M  V30 3600 H 335.664 4.30344 0.546458 0
M  V30 3601 H 336.335 5.17137 1.93063 0
M  V30 3602 H 338.811 3.32929 2.49595 0
M  V30 3603 H 337.687 4.11104 3.6371 0
M  V30 3604 H 337.948 2.37637 3.72802 0
M  V30 3605 N 337.007 -0.598083 1.45811 0
M  V30 3606 C 338.423 -0.919847 1.30426 0
M  V30 3607 C 338.623 -1.99759 0.264303 0
M  V30 3608 O 337.679 -2.50221 -0.338472 0
M  V30 3609 C 338.992 -1.35176 2.68603 0
M  V30 3610 C 340.54 -1.46546 2.76574 0
M  V30 3611 C 341.015 -1.9311 4.15298 0
M  V30 3612 N 342.506 -2.00328 4.1764 0
M  V30 3613 C 343.241 -2.37599 5.21856 0
M  V30 3614 N 342.737 -2.73771 6.36413 0
M  V30 3615 N 344.53 -2.38021 5.09218 0
M  V30 3616 H 336.681 0.114111 2.12093 0
M  V30 3617 H 338.944 -0.0116121 0.947929 0
M  V30 3618 H 338.65 -0.633969 3.45939 0
M  V30 3619 H 338.524 -2.3164 2.97696 0
M  V30 3620 H 340.911 -2.17415 1.99537 0
M  V30 3621 H 340.992 -0.483727 2.51185 0
M  V30 3622 H 340.636 -1.22824 4.92825 0
M  V30 3623 H 340.566 -2.92213 4.38086 0
M  V30 3624 H 343.057 -1.74925 3.34977 0
M  V30 3625 H 343.37 -3.0112 7.11721 0
M  V30 3626 H 341.715 -2.71445 6.39799 0
M  V30 3627 H 344.906 -2.09174 4.18765 0
M  V30 3628 H 345.079 -2.66741 5.90554 0
M  V30 3629 N 338.485 -1.33259 -0.841409 0
M  V30 3630 C 339.731 -1.24757 -1.59886 0
M  V30 3631 C 340.064 0.186913 -1.93298 0
M  V30 3632 O 339.339 1.12757 -1.5848 0
M  V30 3633 C 339.622 -2.12036 -2.91055 0
M  V30 3634 C 339.475 -3.63929 -2.6434 0
M  V30 3635 C 340.794 -1.9916 -3.92458 0
M  V30 3636 H 337.913 -0.454542 -0.580138 0
M  V30 3637 H 340.555 -1.63335 -0.970647 0
M  V30 3638 H 338.705 -1.79265 -3.44669 0
M  V30 3639 H 340.377 -4.06978 -2.17178 0
M  V30 3640 H 338.62 -3.85935 -1.98082 0
M  V30 3641 H 339.291 -4.20341 -3.57796 0
M  V30 3642 H 341.767 -2.27895 -3.48143 0
M  V30 3643 H 340.643 -2.62484 -4.82072 0
M  V30 3644 H 340.904 -0.963082 -4.31482 0
M  V30 3645 N 339.963 1.05934 -1.16686 0
M  V30 3646 C 341.379 1.30938 -0.912542 0
M  V30 3647 C 341.579 1.96803 0.432533 0
M  V30 3648 O 340.635 2.23693 1.17123 0
M  V30 3649 C 341.948 2.18649 -2.06429 0
M  V30 3650 C 343.496 2.32055 -2.10047 0
M  V30 3651 C 343.971 3.23122 -3.24586 0
M  V30 3652 N 345.462 3.30706 -3.24327 0
M  V30 3653 C 346.197 4.01273 -4.09594 0
M  V30 3654 N 345.693 4.74332 -5.04956 0
M  V30 3655 N 347.486 3.97361 -3.97569 0
M  V30 3656 H 339.637 0.615777 -2.03278 0
M  V30 3657 H 341.9 0.334077 -0.887185 0
M  V30 3658 H 341.606 1.77534 -3.03603 0
M  V30 3659 H 341.48 3.19252 -2.00894 0
M  V30 3660 H 343.867 2.72415 -1.13464 0
M  V30 3661 H 343.948 1.31107 -2.19647 0
M  V30 3662 H 343.592 2.83477 -4.2143 0
M  V30 3663 H 343.522 4.24057 -3.12223 0
M  V30 3664 H 346.013 2.78644 -2.55276 0
M  V30 3665 H 346.326 5.25716 -5.6643 0
M  V30 3666 H 344.671 4.733 -5.08933 0
M  V30 3667 H 347.862 3.39405 -3.22369 0
M  V30 3668 H 348.035 4.52089 -4.64241 0
M  V30 3669 N 341.441 0.965919 1.2453 0
M  V30 3670 C 342.666 0.643971 1.97149 0
M  V30 3671 C 343.091 -0.779487 1.71189 0
M  V30 3672 O 342.449 -1.5288 0.974553 0
M  V30 3673 C 342.497 0.922557 3.48599 0
M  V30 3674 O 341.601 0.00707672 4.12399 0
M  V30 3675 H 340.942 0.243647 0.617683 0
M  V30 3676 H 343.472 1.29558 1.58353 0
M  V30 3677 H 343.482 0.853373 3.98976 0
M  V30 3678 H 342.157 1.95996 3.66822 0
M  V30 3679 H 340.734 0.12943 3.72675 0
M  V30 3680 N 342.919 -1.39368 0.735821 0
M  V30 3681 C 343.866 -2.30599 0.0963825 0
M  V30 3682 C 344.836 -1.49257 -0.728794 0
M  V30 3683 O 346.021 -1.77941 -0.688588 0
M  V30 3684 C 343.161 -3.35596 -0.804305 0
M  V30 3685 C 342.274 -4.31987 0.0335761 0
M  V30 3686 C 341.409 -5.24053 -0.868461 0
M  V30 3687 C 340.448 -6.12095 -0.0258776 0
M  V30 3688 N 339.585 -6.96514 -0.883893 0
M  V30 3689 H 344.425 -2.8471 0.880002 0
M  V30 3690 H 341.962 -1.40188 0.445619 0
M  V30 3691 H 343.92 -3.95062 -1.34096 0
M  V30 3692 H 342.55 -2.82938 -1.55389 0
M  V30 3693 H 341.602 -3.74133 0.68766 0
M  V30 3694 H 342.914 -4.94074 0.685036 0
M  V30 3695 H 342.068 -5.88549 -1.47293 0
M  V30 3696 H 340.807 -4.62289 -1.5537 0
M  V30 3697 H 339.812 -5.4661 0.591386 0
M  V30 3698 H 341.037 -6.75923 0.656156 0
M  V30 3699 H 338.983 -6.37318 -1.55441 0
M  V30 3700 H 338.9 -7.55448 -0.288931 0
M  V30 3701 H 340.168 -7.65439 -1.4739 0
M  V30 3702 N 344.397 -0.483516 -1.5 0
M  V30 3703 C 345.329 0.340634 -2.26655 0
M  V30 3704 C 346.342 0.946152 -1.32483 0
M  V30 3705 O 347.531 0.832453 -1.579 0
M  V30 3706 C 344.631 1.4929 -3.04246 0
M  V30 3707 C 343.804 0.997903 -4.25865 0
M  V30 3708 C 342.863 2.02569 -4.85646 0
M  V30 3709 O 341.889 1.60128 -5.46212 0
M  V30 3710 N 343.091 3.3548 -4.73744 0
M  V30 3711 H 345.856 -0.316577 -2.98023 0
M  V30 3712 H 343.417 -0.315024 -1.58806 0
M  V30 3713 H 345.409 2.17766 -3.41116 0
M  V30 3714 H 343.979 2.05458 -2.35597 0
M  V30 3715 H 343.199 0.138617 -3.93956 0
M  V30 3716 H 344.487 0.645305 -5.04691 0
M  V30 3717 H 343.885 3.72661 -4.25605 0
M  V30 3718 H 342.442 3.99718 -5.14848 0
M  V30 3719 N 345.875 1.56104 -0.216619 0
M  V30 3720 C 347.291 1.58995 0.13886 0
M  V30 3721 C 347.491 1.23333 1.59346 0
M  V30 3722 O 346.547 0.966234 2.33281 0
M  V30 3723 C 347.86 3.00143 -0.182968 0
M  V30 3724 C 349.408 3.12751 -0.124807 0
M  V30 3725 C 349.883 4.56068 -0.420241 0
M  V30 3726 N 351.374 4.61723 -0.369634 0
M  V30 3727 C 352.109 5.70542 -0.571789 0
M  V30 3728 N 351.605 6.87744 -0.835453 0
M  V30 3729 N 353.398 5.59831 -0.504563 0
M  V30 3730 H 345.549 1.77562 -1.16557 0
M  V30 3731 H 347.812 0.825091 -0.466828 0
M  V30 3732 H 347.518 3.30871 -1.19237 0
M  V30 3733 H 347.392 3.73813 0.504367 0
M  V30 3734 H 349.779 2.81822 0.875223 0
M  V30 3735 H 349.86 2.41421 -0.845544 0
M  V30 3736 H 349.504 4.87713 -1.41769 0
M  V30 3737 H 349.434 5.25617 0.321631 0
M  V30 3738 H 351.925 3.77502 -0.173338 0
M  V30 3739 H 352.238 7.66587 -0.977938 0
M  V30 3740 H 350.583 6.895 -0.872592 0
M  V30 3741 H 353.774 4.67145 -0.298842 0
M  V30 3742 H 353.947 6.44573 -0.665519 0
M  V30 3743 N 347.353 -0.0568162 1.57498 0
M  V30 3744 C 348.301 -1.08452 2.05769 0
M  V30 3745 C 349.295 -1.39164 0.965903 0
M  V30 3746 O 350.501 -1.38395 1.15095 0
M  V30 3747 H 346.876 -0.367148 0.656282 0
M  V30 3748 H 348.847 -0.651368 2.91204 0
M  V30 3749 C 347.596 -2.38543 2.52968 0
M  V30 3750 H 346.919 -2.15765 3.36579 0
M  V30 3751 H 348.359 -3.08863 2.90481 0
M  V30 3752 C 346.818 -3.05562 1.41893 0
M  V30 3753 O 347.348 -3.94262 0.769442 0
M  V30 3754 N 345.554 -2.6643 1.16032 0
M  V30 3755 H 345.101 -1.94387 1.6903 0
M  V30 3756 H 345.059 -3.11593 0.419219 0
M  V30 3757 N 348.832 -1.54138 -0.328536 0
M  V30 3758 C 350.057 -1.76378 -1.09112 0
M  V30 3759 C 350.482 -0.508596 -1.81094 0
M  V30 3760 O 349.84 0.539598 -1.73084 0
M  V30 3761 C 349.888 -2.95358 -2.06872 0
M  V30 3762 O 348.992 -2.66556 -3.14677 0
M  V30 3763 H 348.333 -0.584614 -0.314838 0
M  V30 3764 H 350.863 -2.01146 -0.374348 0
M  V30 3765 H 350.873 -3.22566 -2.4983 0
M  V30 3766 H 349.548 -3.86385 -1.5388 0
M  V30 3767 H 348.125 -2.50282 -2.7643 0
M  V30 3768 N 350.31 0.590341 -1.46126 0
M  V30 3769 C 351.558 1.34616 -1.50742 0
M  V30 3770 C 351.879 1.94363 -0.157486 0
M  V30 3771 O 351.149 1.78136 0.815136 0
M  V30 3772 H 349.729 0.499789 -0.555175 0
M  V30 3773 H 352.391 0.691953 -1.82203 0
M  V30 3774 H 351.487 2.15678 -2.25587 0
M  V30 3775 N 351.788 1.33704 0.83433 0
M  V30 3776 C 352.736 1.24323 1.96587 0
M  V30 3777 C 353.73 0.143659 1.6879 0
M  V30 3778 O 354.936 0.30791 1.77347 0
M  V30 3779 H 351.311 0.385925 0.645419 0
M  V30 3780 H 353.282 2.19978 2.01624 0
M  V30 3781 C 352.031 1.00394 3.32891 0
M  V30 3782 H 351.354 1.84231 3.54822 0
M  V30 3783 H 352.794 0.97862 4.12552 0
M  V30 3784 C 351.253 -0.293047 3.35623 0
M  V30 3785 O 351.783 -1.29823 3.80143 0
M  V30 3786 N 349.989 -0.322174 2.88809 0
M  V30 3787 H 349.536 0.496379 2.52772 0
M  V30 3788 H 349.494 -1.18977 2.91019 0
M  V30 3789 N 353.266 -1.05314 1.17247 0
M  V30 3790 C 354.496 -1.81707 0.983166 0
M  V30 3791 C 354.904 -1.83222 -0.471822 0
M  V30 3792 O 354.247 -1.25721 -1.3394 0
M  V30 3793 C 354.309 -3.29134 1.44606 0
M  V30 3794 C 353.973 -3.51304 2.92292 0
M  V30 3795 C 354.97 -3.4353 3.90235 0
M  V30 3796 C 352.655 -3.78306 3.30439 0
M  V30 3797 C 354.649 -3.62442 5.24323 0
M  V30 3798 C 352.336 -3.96866 4.64694 0
M  V30 3799 C 353.334 -3.88933 5.61445 0
M  V30 3800 O 353.022 -4.06976 6.93272 0
M  V30 3801 H 352.754 -0.579476 0.348114 0
M  V30 3802 H 355.308 -1.33705 1.55924 0
M  V30 3803 H 353.538 -3.78046 0.813537 0
M  V30 3804 H 355.227 -3.87049 1.22262 0
M  V30 3805 H 355.993 -3.22648 3.62109 0
M  V30 3806 H 351.872 -3.83585 2.55702 0
M  V30 3807 H 355.416 -3.56165 5.99827 0
M  V30 3808 H 351.313 -4.1724 4.92525 0
M  V30 3809 H 352.081 -4.24209 6.99992 0
M  V30 3810 N 354.744 -0.972509 -1.24016 0
M  V30 3811 C 355.992 -0.635776 -1.91839 0
M  V30 3812 C 356.313 0.832312 -1.76345 0
M  V30 3813 O 355.583 1.5946 -1.13795 0
M  V30 3814 H 354.163 -0.232157 -0.710009 0
M  V30 3815 H 356.825 -1.23462 -1.50809 0
M  V30 3816 H 355.921 -0.880545 -2.99421 0
M  V30 3817 N 356.222 1.38976 -0.743202 0
M  V30 3818 C 357.132 2.3434 -0.110399 0
M  V30 3819 C 358.148 1.58741 0.712559 0
M  V30 3820 O 359.324 1.9099 0.639125 0
M  V30 3821 C 356.389 3.37812 0.780012 0
M  V30 3822 C 355.45 4.29263 -0.0561319 0
M  V30 3823 C 354.683 5.27793 0.791875 0
M  V30 3824 O 354.906 5.33043 2.03031 0
M  V30 3825 O 353.84 6.01512 0.216183 0
M  V30 3826 H 357.666 2.90129 -0.897714 0
M  V30 3827 H 355.251 1.40643 -0.503966 0
M  V30 3828 H 357.133 4.01194 1.28923 0
M  V30 3829 H 355.808 2.84395 1.546 0
M  V30 3830 H 354.715 3.69076 -0.611056 0
M  V30 3831 H 356.048 4.85907 -0.784531 0
M  V30 3832 N 357.7 0.491464 1.49741 0
M  V30 3833 C 358.947 -0.0564256 2.02421 0
M  V30 3834 C 359.275 -1.37872 1.37192 0
M  V30 3835 O 358.53 -1.89375 0.493508 0
M  V30 3836 C 358.829 -0.267329 3.56399 0
M  V30 3837 C 358.495 0.975775 4.40215 0
M  V30 3838 C 357.157 1.31655 4.62839 0
M  V30 3839 C 359.509 1.80251 4.89039 0
M  V30 3840 C 356.837 2.48375 5.31532 0
M  V30 3841 C 359.189 2.96116 5.59015 0
M  V30 3842 C 357.853 3.30585 5.79888 0
M  V30 3843 H 357.123 -0.0206476 0.740712 0
M  V30 3844 H 359.77 0.649686 1.80143 0
M  V30 3845 H 358.075 -1.05588 3.77304 0
M  V30 3846 H 359.772 -0.705549 3.94744 0
M  V30 3847 H 356.362 0.700315 4.2284 0
M  V30 3848 H 360.546 1.55239 4.71396 0
M  V30 3849 H 355.802 2.7533 5.45897 0
M  V30 3850 H 359.976 3.60509 5.95824 0
M  V30 3851 H 357.603 4.21132 6.32892 0
M  V30 3852 N 359.178 -1.55987 0.224894 0
M  V30 3853 C 360.403 -2.03232 -0.41369 0
M  V30 3854 C 360.828 -1.10359 -1.52323 0
M  V30 3855 O 360.186 -0.092395 -1.81064 0
M  V30 3856 C 360.234 -3.48682 -0.919405 0
M  V30 3857 O 359.338 -3.58947 -2.03054 0
M  V30 3858 H 358.679 -0.657428 -0.0931903 0
M  V30 3859 H 361.209 -2.01679 0.34451 0
M  V30 3860 H 361.219 -3.8907 -1.22835 0
M  V30 3861 H 359.894 -4.15761 -0.107339 0
M  V30 3862 H 358.471 -3.30448 -1.72796 0
M  V30 3863 N 360.656 0.0484629 -1.57525 0
M  V30 3864 C 361.566 1.07241 -2.08654 0
M  V30 3865 C 362.582 1.409 -1.02095 0
M  V30 3866 O 363.758 1.50609 -1.33712 0
M  V30 3867 C 360.823 2.36008 -2.5397 0
M  V30 3868 C 359.884 2.09108 -3.7493 0
M  V30 3869 C 359.117 3.31736 -4.18075 0
M  V30 3870 O 359.34 4.41714 -3.60895 0
M  V30 3871 O 358.274 3.18576 -5.10679 0
M  V30 3872 H 362.1 0.667965 -2.96263 0
M  V30 3873 H 359.685 0.26417 -1.47046 0
M  V30 3874 H 361.567 3.11747 -2.83535 0
M  V30 3875 H 360.242 2.75786 -1.69481 0
M  V30 3876 H 359.149 1.31 -3.50414 0
M  V30 3877 H 360.482 1.74198 -4.60343 0
M  V30 3878 N 362.134 1.5431 0.320358 0
M  V30 3879 C 363.38 1.72924 1.05949 0
M  V30 3880 C 363.713 0.503185 1.87568 0
M  V30 3881 O 362.988 -0.499839 1.87968 0
M  V30 3882 C 363.271 3.00676 1.98156 0
M  V30 3883 C 363.124 4.3354 1.19845 0
M  V30 3884 C 364.443 3.24198 2.9763 0
M  V30 3885 H 361.562 0.629195 0.383774 0
M  V30 3886 H 364.204 1.87008 0.335854 0
M  V30 3887 H 362.354 2.888 2.59859 0
M  V30 3888 H 364.026 4.57305 0.605773 0
M  V30 3889 H 362.269 4.309 0.500784 0
M  V30 3890 H 362.94 5.19156 1.87567 0
M  V30 3891 H 365.416 3.35557 2.4605 0
M  V30 3892 H 364.292 4.14938 3.59329 0
M  V30 3893 H 364.553 2.41577 3.7026 0
M  V30 3894 N 363.613 -0.582584 1.46437 0
M  V30 3895 C 364.543 -1.70187 1.59871 0
M  V30 3896 C 365.524 -1.64066 0.449042 0
M  V30 3897 O 366.709 -1.82081 0.6753 0
M  V30 3898 C 363.839 -3.08827 1.58881 0
M  V30 3899 C 362.793 -3.29779 2.72819 0
M  V30 3900 C 362.119 -4.68947 2.5689 0
M  V30 3901 C 363.419 -3.17601 4.1464 0
M  V30 3902 H 365.113 -1.592 2.53566 0
M  V30 3903 H 362.659 -0.764472 1.22032 0
M  V30 3904 H 364.612 -3.86951 1.66873 0
M  V30 3905 H 363.336 -3.20713 0.617306 0
M  V30 3906 H 361.995 -2.54054 2.64296 0
M  V30 3907 H 361.643 -4.77599 1.57823 0
M  V30 3908 H 361.343 -4.83919 3.33312 0
M  V30 3909 H 362.867 -5.4924 2.66773 0
M  V30 3910 H 364.281 -3.8557 4.24274 0
M  V30 3911 H 362.678 -3.44094 4.9165 0
M  V30 3912 H 363.748 -2.14681 4.34788 0
M  V30 3913 N 365.091 -1.34144 -0.827227 0
M  V30 3914 C 366.321 -1.29138 -1.61267 0
M  V30 3915 C 366.729 0.137597 -1.88699 0
M  V30 3916 O 366.072 1.09379 -1.47587 0
M  V30 3917 C 366.134 -2.0097 -2.9808 0
M  V30 3918 C 365.798 -3.50242 -2.93563 0
M  V30 3919 C 366.795 -4.4523 -2.68452 0
M  V30 3920 C 364.48 -3.92592 -3.13331 0
M  V30 3921 C 366.474 -5.80542 -2.63154 0
M  V30 3922 C 364.161 -5.28005 -3.07658 0
M  V30 3923 C 365.159 -6.21792 -2.82602 0
M  V30 3924 O 364.847 -7.54723 -2.76853 0
M  V30 3925 H 364.579 -0.445851 -0.508127 0
M  V30 3926 H 367.133 -1.77263 -1.03763 0
M  V30 3927 H 365.363 -1.47451 -3.57484 0
M  V30 3928 H 367.052 -1.89309 -3.5905 0
M  V30 3929 H 367.818 -4.13832 -2.52919 0
M  V30 3930 H 363.697 -3.19994 -3.31851 0
M  V30 3931 H 367.241 -6.53717 -2.43516 0
M  V30 3932 H 363.138 -5.59023 -3.22743 0
M  V30 3933 H 363.906 -7.64409 -2.92611 0
M  V30 3934 N 366.569 1.04691 -1.17803 0
M  V30 3935 C 367.815 1.78045 -0.970969 0
M  V30 3936 C 368.148 1.87686 0.498751 0
M  V30 3937 O 367.423 1.38035 1.37027 0
M  V30 3938 C 367.706 3.2166 -1.61884 0
M  V30 3939 C 367.559 3.20001 -3.161 0
M  V30 3940 C 368.878 4.1962 -1.3269 0
M  V30 3941 H 365.997 0.64633 -0.354155 0
M  V30 3942 H 368.639 1.22333 -1.45378 0
M  V30 3943 H 366.789 3.69232 -1.20831 0
M  V30 3944 H 368.461 2.80467 -3.66246 0
M  V30 3945 H 366.704 2.58203 -3.48588 0
M  V30 3946 H 367.375 4.21386 -3.56564 0
M  V30 3947 H 369.851 3.80567 -1.68249 0
M  V30 3948 H 368.727 5.18339 -1.80599 0
M  V30 3949 H 368.988 4.414 -0.248622 0
M  V30 3950 N 368.047 0.979072 1.23499 0
M  V30 3951 C 369.275 0.665202 1.95915 0
M  V30 3952 C 369.69 -0.767571 1.72493 0
M  V30 3953 O 369.047 -1.51635 1.01554 0
M  V30 3954 C 369.098 0.944438 3.48945 0
M  V30 3955 O 368.819 2.3209 3.71572 0
M  V30 3956 C 370.32 0.646336 4.38563 0
M  V30 3957 H 367.54 0.247218 0.623798 0
M  V30 3958 H 370.084 1.31009 1.57025 0
M  V30 3959 H 368.239 0.345575 3.85856 0
M  V30 3960 H 368.653 2.40957 4.65876 0
M  V30 3961 H 370.127 0.892091 5.44744 0
M  V30 3962 H 370.604 -0.419575 4.37191 0
M  V30 3963 H 371.21 1.22562 4.07258 0
M  V30 3964 N 369.525 -1.3858 0.750561 0
M  V30 3965 C 370.455 -2.33102 0.136237 0
M  V30 3966 C 371.436 -1.54713 -0.706965 0
M  V30 3967 O 372.621 -1.83043 -0.648769 0
M  V30 3968 C 369.751 -3.38882 -0.760017 0
M  V30 3969 C 368.705 -4.27995 -0.0197785 0
M  V30 3970 C 368.031 -5.24605 -1.03408 0
M  V30 3971 C 369.331 -5.09554 1.14684 0
M  V30 3972 H 371.025 -2.84726 0.925822 0
M  V30 3973 H 368.571 -1.36898 0.446654 0
M  V30 3974 H 370.524 -4.0397 -1.19943 0
M  V30 3975 H 369.248 -2.85734 -1.58189 0
M  V30 3976 H 367.907 -3.64409 0.400184 0
M  V30 3977 H 367.555 -4.67746 -1.84994 0
M  V30 3978 H 367.255 -5.85081 -0.543464 0
M  V30 3979 H 368.779 -5.9257 -1.47288 0
M  V30 3980 H 370.193 -5.67899 0.785118 0
M  V30 3981 H 368.59 -5.7925 1.56812 0
M  V30 3982 H 369.66 -4.4347 1.96118 0
M  V30 3983 N 371.003 -0.499398 -1.49478 0
M  V30 3984 C 372.414 -0.051215 -1.8663 0
M  V30 3985 C 372.765 1.36238 -1.41186 0
M  V30 3986 O 371.89 2.01502 -0.789051 0
M  V30 3987 C 372.485 -0.0861651 -3.3869 0
M  V30 3988 C 371.044 0.30667 -3.75149 0
M  V30 3989 C 370.191 -0.459397 -2.73468 0
M  V30 3990 H 373.142 -0.712264 -1.41818 0
M  V30 3991 H 373.163 0.709507 -3.73826 0
M  V30 3992 H 372.675 -1.11512 -3.71735 0
M  V30 3993 H 370.776 1.33892 -3.47712 0
M  V30 3994 H 370.889 -0.0116669 -4.79099 0
M  V30 3995 H 369.253 0.0905645 -2.54539 0
M  V30 3996 H 370.036 -1.4884 -3.09357 0
M  V30 3997 N 372.481 1.55866 -0.233164 0
M  V30 3998 C 373.413 2.18099 0.704668 0
M  V30 3999 C 374.426 1.15334 1.14899 0
M  V30 4000 O 375.615 1.42262 1.07814 0
M  V30 4001 C 372.715 2.7592 1.96777 0
M  V30 4002 C 371.888 4.03969 1.67713 0
M  V30 4003 C 370.947 4.46242 2.78845 0
M  V30 4004 O 369.973 5.12903 2.46818 0
M  V30 4005 N 371.175 4.12886 4.08051 0
M  V30 4006 H 373.94 2.99205 0.172258 0
M  V30 4007 H 371.501 1.61815 -0.0525945 0
M  V30 4008 H 373.493 3.01165 2.70337 0
M  V30 4009 H 372.063 1.99051 2.41034 0
M  V30 4010 H 371.283 3.86459 0.777391 0
M  V30 4011 H 372.571 4.8748 1.4574 0
M  V30 4012 H 371.969 3.59342 4.3691 0
M  V30 4013 H 370.526 4.42997 4.78118 0
M  V30 4014 N 373.959 -0.0401083 1.57549 0
M  V30 4015 C 374.892 -1.07689 2.01192 0
M  V30 4016 C 375.87 -1.358 0.894273 0
M  V30 4017 O 377.054 -1.48642 1.15921 0
M  V30 4018 C 374.181 -2.41418 2.3756 0
M  V30 4019 C 373.227 -2.29237 3.59656 0
M  V30 4020 S 374.06 -1.65628 5.09242 0
M  V30 4021 C 375.216 -3.0087 5.48843 0
M  V30 4022 H 375.449 -0.705108 2.88817 0
M  V30 4023 H 372.982 -0.249724 1.52367 0
M  V30 4024 H 374.94 -3.18329 2.59186 0
M  V30 4025 H 373.601 -2.75747 1.50407 0
M  V30 4026 H 372.794 -3.27932 3.82722 0
M  V30 4027 H 372.396 -1.60469 3.37825 0
M  V30 4028 H 374.688 -3.97201 5.48851 0
M  V30 4029 H 375.631 -2.82549 6.49286 0
M  V30 4030 H 376.039 -3.02934 4.76331 0
M  V30 4031 N 375.437 -1.54477 -0.31217 0
M  V30 4032 C 376.662 -1.77526 -1.07235 0
M  V30 4033 C 377.087 -0.527775 -1.80544 0
M  V30 4034 O 376.445 0.52121 -1.73646 0
M  V30 4035 C 376.493 -2.97535 -2.03728 0
M  V30 4036 O 375.597 -2.69878 -3.11833 0
M  V30 4037 H 374.938 -0.58792 -0.30862 0
M  V30 4038 H 377.468 -2.01532 -0.352993 0
M  V30 4039 H 377.478 -3.25198 -2.46395 0
M  V30 4040 H 376.153 -3.87996 -1.49774 0
M  V30 4041 H 374.73 -2.53199 -2.7376 0
M  V30 4042 N 376.915 0.57481 -1.46744 0
M  V30 4043 C 377.847 1.69804 -1.53946 0
M  V30 4044 C 378.86 1.57098 -0.427106 0
M  V30 4045 O 380.049 1.64378 -0.695863 0
M  V30 4046 C 377.149 3.08125 -1.4111 0
M  V30 4047 C 376.322 3.46757 -2.66605 0
M  V30 4048 C 375.381 4.6417 -2.47855 0
M  V30 4049 O 374.407 4.69634 -3.21609 0
M  V30 4050 N 375.609 5.59553 -1.54534 0
M  V30 4051 H 378.374 1.64077 -2.50796 0
M  V30 4052 H 375.935 0.761 -1.429 0
M  V30 4053 H 377.927 3.84478 -1.26328 0
M  V30 4054 H 376.497 3.08175 -0.524109 0
M  V30 4055 H 375.717 2.6003 -2.96274 0
M  V30 4056 H 377.005 3.69337 -3.49954 0
M  V30 4057 H 376.403 5.57881 -0.937304 0
M  V30 4058 H 374.96 6.35304 -1.45711 0
M  V30 4059 N 378.394 1.34581 0.820102 0
M  V30 4060 C 379.641 1.27096 1.57648 0
M  V30 4061 C 379.969 -0.158317 1.93855 0
M  V30 4062 O 379.224 -1.12028 1.60463 0
M  V30 4063 C 379.523 2.10997 2.8847 0
M  V30 4064 C 379.189 3.59966 2.71543 0
M  V30 4065 C 377.851 4.00575 2.66634 0
M  V30 4066 C 380.203 4.54548 2.55021 0
M  V30 4067 C 377.531 5.33953 2.43128 0
M  V30 4068 C 379.883 5.88109 2.33047 0
M  V30 4069 C 378.547 6.27878 2.26552 0
M  V30 4070 H 377.817 0.465078 0.576874 0
M  V30 4071 H 380.464 1.6635 0.948671 0
M  V30 4072 H 378.769 1.6458 3.55557 0
M  V30 4073 H 380.466 2.0255 3.46084 0
M  V30 4074 H 377.056 3.27733 2.76205 0
M  V30 4075 H 381.24 4.24069 2.57835 0
M  V30 4076 H 376.496 5.63781 2.3656 0
M  V30 4077 H 380.67 6.60985 2.19251 0
M  V30 4078 H 378.297 7.31162 2.081 0
M  V30 4079 N 379.872 -1.04064 1.18357 0
M  V30 4080 C 381.1 -1.80916 1.00384 0
M  V30 4081 C 381.515 -1.83414 -0.447738 0
M  V30 4082 O 380.872 -1.26962 -1.31099 0
M  V30 4083 C 380.923 -3.26516 1.55144 0
M  V30 4084 O 380.644 -3.2424 2.94618 0
M  V30 4085 C 382.145 -4.20013 1.41789 0
M  V30 4086 H 379.365 -0.569728 0.354474 0
M  V30 4087 H 381.909 -1.31151 1.56906 0
M  V30 4088 H 380.064 -3.73512 1.02798 0
M  V30 4089 H 380.478 -4.15452 3.20156 0
M  V30 4090 H 381.952 -5.20111 1.84901 0
M  V30 4091 H 382.429 -4.37667 0.36661 0
M  V30 4092 H 383.035 -3.78881 1.93207 0
M  V30 4093 N 381.35 -0.985608 -1.22978 0
M  V30 4094 C 382.59 -0.665487 -1.93263 0
M  V30 4095 C 382.954 0.78706 -1.75127 0
M  V30 4096 O 384.155 1.21826 -2.39608 0
M  V30 4097 C 382.426 -1.0515 -3.41582 0
M  V30 4098 S 383.985 -0.848637 -4.30516 0
M  V30 4099 H 380.803 -0.24355 -0.667985 0
M  V30 4100 H 383.405 -1.26635 -1.48942 0
M  V30 4101 H 382.109 -2.10517 -3.52293 0
M  V30 4102 H 381.64 -0.442134 -3.90908 0
M  V30 4103 H 383.655 0.264717 -4.95493 0
M  V30 4104 N 382.828 1.3818 -0.7579 0
M  V30 4105 C 383.738 2.3421 -0.135247 0
M  V30 4106 C 384.754 1.59487 0.695683 0
M  V30 4107 O 385.93 1.91657 0.618832 0
M  V30 4108 C 382.995 3.3862 0.744139 0
M  V30 4109 C 382.056 4.2918 -0.101658 0
M  V30 4110 C 381.289 5.28603 0.735851 0
M  V30 4111 O 381.512 5.35166 1.97366 0
M  V30 4112 O 380.446 6.01707 0.152372 0
M  V30 4113 H 384.272 2.8916 -0.928436 0
M  V30 4114 H 381.857 1.40101 -0.518855 0
M  V30 4115 H 383.739 4.02539 1.2466 0
M  V30 4116 H 382.414 2.86019 1.51575 0
M  V30 4117 H 381.321 3.68407 -0.650167 0
M  V30 4118 H 382.654 4.85048 -0.836024 0
M  V30 4119 N 384.306 0.507319 1.49211 0
M  V30 4120 C 385.216 -0.272136 2.33016 0
M  V30 4121 C 386.232 -0.961206 1.45041 0
M  V30 4122 O 387.408 -0.941191 1.78055 0
M  V30 4123 C 384.473 -1.31895 3.20631 0
M  V30 4124 C 383.534 -0.642648 4.24463 0
M  V30 4125 C 382.767 -1.63959 5.07891 0
M  V30 4126 O 382.99 -2.87007 4.92933 0
M  V30 4127 O 381.924 -1.19143 5.8999 0
M  V30 4128 H 385.75 0.413982 3.00865 0
M  V30 4129 H 383.335 0.268556 1.46966 0
M  V30 4130 H 385.217 -1.92446 3.7489 0
M  V30 4131 H 383.892 -1.98788 2.5547 0
M  V30 4132 H 382.799 0.00276252 3.741 0
M  V30 4133 H 384.132 -0.0160534 4.92197 0
M  V30 4134 N 385.784 -1.5574 0.241426 0
M  V30 4135 C 387.061 -1.90704 -0.434881 0
M  V30 4136 C 387.441 -1.16145 -1.76277 0
M  V30 4137 O 386.789 -0.277152 -2.26813 0
M  V30 4138 C 386.999 -3.43657 -0.608343 0
M  V30 4139 C 388.347 -4.14806 -0.906725 0
M  V30 4140 O 389.371 -3.49366 -0.694408 0
M  V30 4141 O 388.23 -5.30548 -1.31075 0
M  V30 4142 H 385.324 -0.793592 -0.23268 0
M  V30 4143 H 387.87 -1.67288 0.285086 0
M  V30 4144 H 386.642 -3.89927 0.327505 0
M  V30 4145 H 386.265 -3.72918 -1.37906 0
M  V30 4146 N 387.262 0.0317525 -1.57568 0
M  V30 4147 C 388.509 0.723104 -1.89149 0
M  V30 4148 C 388.837 1.75504 -0.838377 0
M  V30 4149 O 388.092 1.95037 0.160982 0
M  V30 4150 C 388.391 1.43167 -3.27472 0
M  V30 4151 C 388.057 0.535972 -4.47703 0
M  V30 4152 C 386.719 0.289262 -4.8033 0
M  V30 4153 C 389.071 -0.0826125 -5.21135 0
M  V30 4154 C 386.399 -0.584853 -5.83778 0
M  V30 4155 C 388.751 -0.944414 -6.25511 0
M  V30 4156 C 387.415 -1.20061 -6.56614 0
M  V30 4157 H 386.685 0.264602 -0.692146 0
M  V30 4158 H 389.332 -0.0169496 -1.91492 0
M  V30 4159 H 387.637 2.24497 -3.21105 0
M  V30 4160 H 389.334 1.97209 -3.49155 0
M  V30 4161 H 385.924 0.738414 -4.22191 0
M  V30 4162 H 390.108 0.0950302 -4.96209 0
M  V30 4163 H 385.364 -0.79168 -6.06253 0
M  V30 4164 H 389.538 -1.43026 -6.81554 0
M  V30 4165 H 387.165 -1.87967 -7.36595 0
M  V30 4166 N 388.74 1.54641 0.303973 0
M  V30 4167 C 389.97 1.77511 1.05705 0
M  V30 4168 C 390.378 0.533228 1.81531 0
M  V30 4169 O 389.721 -0.506423 1.76582 0
M  V30 4170 C 389.783 2.92779 2.08617 0
M  V30 4171 C 389.447 4.30977 1.52013 0
M  V30 4172 C 390.444 5.11115 0.9517 0
M  V30 4173 C 388.129 4.77571 1.55665 0
M  V30 4174 C 390.123 6.35966 0.427327 0
M  V30 4175 C 387.81 6.02384 1.02841 0
M  V30 4176 C 388.808 6.81417 0.464713 0
M  V30 4177 O 388.496 8.03881 -0.0555283 0
M  V30 4178 H 388.228 0.59579 0.319391 0
M  V30 4179 H 390.782 2.02401 0.349712 0
M  V30 4180 H 389.012 2.63506 2.83022 0
M  V30 4181 H 390.701 3.03252 2.69802 0
M  V30 4182 H 391.467 4.76264 0.916407 0
M  V30 4183 H 387.346 4.16085 1.9848 0
M  V30 4184 H 390.89 6.97599 -0.0133062 0
M  V30 4185 H 386.787 6.36723 1.06084 0
M  V30 4186 H 387.555 8.18479 0.0580522 0
M  V30 4187 N 390.218 -0.567019 1.47046 0
M  V30 4188 C 391.465 -1.32462 1.53167 0
M  V30 4189 C 391.793 -1.93571 0.189841 0
M  V30 4190 O 391.048 -1.77865 -0.816243 0
M  V30 4191 C 391.347 -2.4623 2.59047 0
M  V30 4192 C 391.013 -2.03014 4.02612 0
M  V30 4193 C 389.675 -1.90944 4.41694 0
M  V30 4194 C 392.027 -1.69895 4.92732 0
M  V30 4195 C 389.355 -1.44035 5.68745 0
M  V30 4196 C 391.707 -1.2446 6.20236 0
M  V30 4197 C 390.371 -1.10979 6.5821 0
M  V30 4198 H 389.641 -0.484713 0.560477 0
M  V30 4199 H 392.288 -0.636888 1.80599 0
M  V30 4200 H 390.593 -3.20517 2.25335 0
M  V30 4201 H 392.29 -3.04427 2.61008 0
M  V30 4202 H 388.88 -2.13348 3.71726 0
M  V30 4203 H 393.064 -1.78098 4.63244 0
M  V30 4204 H 388.32 -1.32254 5.96925 0
M  V30 4205 H 392.494 -0.978924 6.89485 0
M  V30 4206 H 390.121 -0.744078 7.5655 0
M  V30 4207 N 391.696 -1.35014 -0.812953 0
M  V30 4208 C 393.107 -1.25035 -1.38648 0
M  V30 4209 C 393.458 0.119967 -1.95833 0
M  V30 4210 O 392.583 1.02069 -1.90816 0
M  V30 4211 C 393.178 -2.26394 -2.52054 0
M  V30 4212 C 391.737 -2.20175 -3.05287 0
M  V30 4213 C 390.884 -2.12451 -1.78213 0
M  V30 4214 H 393.835 -1.46235 -0.616516 0
M  V30 4215 H 393.856 -1.88672 -3.30429 0
M  V30 4216 H 393.368 -3.26116 -2.10404 0
M  V30 4217 H 391.469 -1.23841 -3.51417 0
M  V30 4218 H 391.582 -3.11863 -3.63701 0
M  V30 4219 H 389.946 -1.58328 -1.9951 0
M  V30 4220 H 390.729 -3.14024 -1.38723 0
M  V30 4221 N 393.175 1.03435 -1.18907 0
M  V30 4222 C 394.421 1.7713 -0.99982 0
M  V30 4223 C 394.776 1.86695 0.465049 0
M  V30 4224 O 394.069 1.36866 1.34083 0
M  V30 4225 C 394.263 3.19792 -1.59586 0
M  V30 4226 C 394.092 3.24134 -3.11717 0
M  V30 4227 C 392.862 3.32398 -3.80578 0
M  V30 4228 C 395.06 3.11625 -4.09138 0
M  V30 4229 N 393.042 3.26055 -5.20155 0
M  V30 4230 C 394.413 3.12855 -5.35277 0
M  V30 4231 C 396.468 2.95713 -4.00572 0
M  V30 4232 C 395.171 2.99805 -6.53842 0
M  V30 4233 C 397.197 2.84011 -5.1874 0
M  V30 4234 C 396.559 2.8589 -6.43775 0
M  V30 4235 H 392.658 0.659683 -0.419931 0
M  V30 4236 H 395.242 1.2317 -1.50789 0
M  V30 4237 H 393.413 3.72085 -1.11389 0
M  V30 4238 H 395.145 3.81819 -1.3415 0
M  V30 4239 H 391.9 3.38392 -3.31342 0
M  V30 4240 H 392.324 3.26307 -5.93172 0
M  V30 4241 H 396.966 2.93086 -3.0473 0
M  V30 4242 H 394.684 3.01184 -7.49876 0
M  V30 4243 H 398.27 2.72744 -5.13909 0
M  V30 4244 H 397.15 2.76931 -7.33675 0
M  V30 4245 N 394.653 0.992116 1.22453 0
M  V30 4246 C 395.583 0.561677 2.26644 0
M  V30 4247 C 396.564 -0.411055 1.65059 0
M  V30 4248 O 397.749 -0.301861 1.9184 0
M  V30 4249 C 394.879 -0.125247 3.47074 0
M  V30 4250 C 393.833 0.765948 4.21091 0
M  V30 4251 C 393.159 -0.0538484 5.34673 0
M  V30 4252 C 394.459 2.06242 4.79856 0
M  V30 4253 H 396.153 1.43259 2.62902 0
M  V30 4254 H 393.699 0.690283 1.26377 0
M  V30 4255 H 395.652 -0.437764 4.1912 0
M  V30 4256 H 394.376 -1.03069 3.0991 0
M  V30 4257 H 393.035 1.0621 3.50878 0
M  V30 4258 H 392.683 -0.960188 4.9375 0
M  V30 4259 H 392.383 0.539415 5.85119 0
M  V30 4260 H 393.907 -0.360477 6.09535 0
M  V30 4261 H 395.321 1.8139 5.43848 0
M  V30 4262 H 393.718 2.60444 5.40638 0
M  V30 4263 H 394.788 2.74167 3.99951 0
M  V30 4264 N 396.131 -1.37776 0.765217 0
M  V30 4265 C 397.061 -2.32945 0.160953 0
M  V30 4266 C 398.042 -1.55454 -0.690516 0
M  V30 4267 O 399.227 -1.83721 -0.629318 0
M  V30 4268 C 396.357 -3.39669 -0.724031 0
M  V30 4269 C 395.311 -4.27992 0.0256173 0
M  V30 4270 C 394.637 -5.25673 -0.978383 0
M  V30 4271 C 395.937 -5.08309 1.20082 0
M  V30 4272 H 397.631 -2.83728 0.955969 0
M  V30 4273 H 395.177 -1.36416 0.461149 0
M  V30 4274 H 397.13 -4.05219 -1.15652 0
M  V30 4275 H 395.854 -2.87396 -1.5515 0
M  V30 4276 H 394.513 -3.63964 0.438812 0
M  V30 4277 H 394.161 -4.69682 -1.80022 0
M  V30 4278 H 393.861 -5.85625 -0.481378 0
M  V30 4279 H 395.385 -5.94098 -1.40995 0
M  V30 4280 H 396.799 -5.67034 0.845307 0
M  V30 4281 H 395.196 -5.77554 1.62947 0
M  V30 4282 H 396.266 -4.41365 2.00811 0
M  V30 4283 N 397.609 -0.515225 -1.4894 0
M  V30 4284 C 398.858 0.0261361 -2.01683 0
M  V30 4285 C 399.171 1.36719 -1.39883 0
M  V30 4286 O 400.377 1.99606 -1.84037 0
M  V30 4287 C 398.833 0.0970111 -3.59769 0
M  V30 4288 C 398.441 -1.23825 -4.30548 0
M  V30 4289 C 400.185 0.587981 -4.20408 0
M  V30 4290 C 398.092 -1.12877 -5.80528 0
M  V30 4291 H 397.022 0.0135398 -0.753878 0
M  V30 4292 H 399.673 -0.656787 -1.71343 0
M  V30 4293 H 398.055 0.844694 -3.86886 0
M  V30 4294 H 399.229 -2.00034 -4.15118 0
M  V30 4295 H 397.544 -1.66379 -3.81716 0
M  V30 4296 H 400.141 0.68763 -5.3026 0
M  V30 4297 H 400.484 1.59026 -3.84729 0
M  V30 4298 H 401.017 -0.103582 -3.97665 0
M  V30 4299 H 397.756 -2.10575 -6.20756 0
M  V30 4300 H 397.276 -0.407799 -5.98412 0
M  V30 4301 H 398.955 -0.813332 -6.41868 0
M  V30 4302 N 399.087 1.5561 -0.249682 0
M  V30 4303 C 400.336 1.98187 0.37479 0
M  V30 4304 C 400.649 1.14111 1.58865 0
M  V30 4305 O 401.855 1.46714 2.28445 0
M  V30 4306 C 400.311 3.52661 0.718192 0
M  V30 4307 C 399.919 4.45481 -0.474428 0
M  V30 4308 C 401.663 4.03888 1.3067 0
M  V30 4309 C 399.57 5.91303 -0.107026 0
M  V30 4310 H 398.5 0.740159 0.143808 0
M  V30 4311 H 401.151 1.80125 -0.350336 0
M  V30 4312 H 399.533 3.66429 1.50152 0
M  V30 4313 H 400.707 4.43473 -1.25172 0
M  V30 4314 H 399.022 4.04751 -0.978052 0
M  V30 4315 H 401.619 5.10358 1.59496 0
M  V30 4316 H 401.962 3.51401 2.23211 0
M  V30 4317 H 402.495 3.93457 0.586211 0
M  V30 4318 H 399.234 6.47833 -0.999642 0
M  V30 4319 H 398.754 5.9644 0.634013 0
M  V30 4320 H 400.433 6.46258 0.309807 0
M  V30 4321 N 400.565 -0.0233959 1.57583 0
M  V30 4322 C 401.814 -0.712133 1.8871 0
M  V30 4323 C 402.127 -1.76217 0.848944 0
M  V30 4324 O 403.333 -2.50389 1.04964 0
M  V30 4325 C 401.789 -1.3177 3.3491 0
M  V30 4326 C 401.397 -0.303715 4.46969 0
M  V30 4327 C 403.141 -1.98598 3.75179 0
M  V30 4328 C 401.048 -0.917945 5.84233 0
M  V30 4329 H 399.978 -0.269735 0.704101 0
M  V30 4330 H 402.629 0.0333114 1.8347 0
M  V30 4331 H 401.011 -2.11304 3.34913 0
M  V30 4332 H 402.185 0.465325 4.58445 0
M  V30 4333 H 400.5 0.2628 4.1557 0
M  V30 4334 H 403.097 -2.45416 4.75053 0
M  V30 4335 H 403.44 -2.80659 3.07468 0
M  V30 4336 H 403.973 -1.25831 3.77374 0
M  V30 4337 H 400.712 -0.136633 6.55358 0
M  V30 4338 H 400.232 -1.65669 5.76467 0
M  V30 4339 H 401.911 -1.4236 6.31144 0
M  V30 4340 N 402.043 -1.548 -0.295768 0
M  V30 4341 C 403.29 -1.74329 -1.03032 0
M  V30 4342 C 403.618 -0.531915 -1.87085 0
M  V30 4343 O 402.873 0.486052 -1.89568 0
M  V30 4344 C 403.172 -2.98797 -1.961 0
M  V30 4345 C 402.838 -4.32356 -1.2798 0
M  V30 4346 C 401.5 -4.68661 -1.09135 0
M  V30 4347 C 403.852 -5.15128 -0.793243 0
M  V30 4348 C 401.18 -5.85312 -0.403269 0
M  V30 4349 C 403.532 -6.32488 -0.118854 0
M  V30 4350 C 402.196 -6.6745 0.0815043 0
M  V30 4351 H 401.466 -0.637916 -0.37702 0
M  V30 4352 H 404.113 -1.8906 -0.304696 0
M  V30 4353 H 402.418 -2.78869 -2.75207 0
M  V30 4354 H 404.115 -3.11102 -2.53015 0
M  V30 4355 H 400.705 -4.03808 -1.43655 0
M  V30 4356 H 404.889 -4.87575 -0.92653 0
M  V30 4357 H 400.145 -6.1094 -0.237098 0
M  V30 4358 H 404.319 -6.95892 0.266035 0
M  V30 4359 H 401.946 -7.57695 0.616685 0
M  V30 4360 N 403.521 0.559213 -1.47345 0
M  V30 4361 C 404.769 1.31388 -1.53563 0
M  V30 4362 C 405.09 1.93985 -0.198678 0
M  V30 4363 O 404.36 1.79825 0.777167 0
M  V30 4364 H 402.94 0.487901 -0.565652 0
M  V30 4365 H 405.602 0.65315 -1.8363 0
M  V30 4366 H 404.698 2.10844 -2.30111 0
M  V30 4367 N 404.999 1.35443 0.805782 0
M  V30 4368 C 406.248 1.28097 1.55801 0
M  V30 4369 C 406.561 -0.142428 1.95081 0
M  V30 4370 O 407.767 -0.33817 2.69386 0
M  V30 4371 C 406.223 2.24653 2.81174 0
M  V30 4372 C 405.831 3.72342 2.49129 0
M  V30 4373 C 407.575 2.2625 3.59181 0
M  V30 4374 C 405.482 4.60719 3.70799 0
M  V30 4375 H 404.412 0.475937 0.584808 0
M  V30 4376 H 407.063 1.60712 0.885661 0
M  V30 4377 H 405.445 1.85011 3.50124 0
M  V30 4378 H 406.619 4.20624 1.88181 0
M  V30 4379 H 404.934 3.73361 1.84366 0
M  V30 4380 H 407.531 2.89495 4.49552 0
M  V30 4381 H 407.874 1.26647 3.96568 0
M  V30 4382 H 408.407 2.64426 2.97193 0
M  V30 4383 H 405.146 5.61324 3.3852 0
M  V30 4384 H 404.666 4.17163 4.3097 0
M  V30 4385 H 406.345 4.76182 4.38018 0
M  V30 4386 N 406.477 -1.02803 1.19454 0
M  V30 4387 C 407.724 -1.76217 0.997693 0
M  V30 4388 C 408.052 -1.887 -0.47144 0
M  V30 4389 O 407.307 -1.4011 -1.3663 0
M  V30 4390 C 407.606 -3.18941 1.6128 0
M  V30 4391 C 407.272 -3.26463 3.11019 0
M  V30 4392 C 405.934 -3.28223 3.51885 0
M  V30 4393 C 408.286 -3.25542 4.07028 0
M  V30 4394 C 405.614 -3.26719 4.8731 0
M  V30 4395 C 407.966 -3.25579 5.42385 0
M  V30 4396 C 406.63 -3.25637 5.82681 0
M  V30 4397 H 405.9 -0.644823 0.365082 0
M  V30 4398 H 408.547 -1.20655 1.4871 0
M  V30 4399 H 406.852 -3.77587 1.04572 0
M  V30 4400 H 408.549 -3.74415 1.43577 0
M  V30 4401 H 405.139 -3.25822 2.78457 0
M  V30 4402 H 409.323 -3.23362 3.76498 0
M  V30 4403 H 404.579 -3.25089 5.1781 0
M  V30 4404 H 408.753 -3.23817 6.16535 0
M  V30 4405 H 406.38 -3.24226 6.87591 0
M  V30 4406 N 407.956 -0.998596 -1.21925 0
M  V30 4407 C 409.204 -0.676325 -1.90448 0
M  V30 4408 C 409.525 0.794719 -1.78071 0
M  V30 4409 O 408.795 1.5701 -1.17152 0
M  V30 4410 H 407.375 -0.247165 -0.704925 0
M  V30 4411 H 410.037 -1.26633 -1.48156 0
M  V30 4412 H 409.133 -0.943858 -2.97486 0
M  V30 4413 N 409.434 1.37368 -0.772513 0
M  V30 4414 C 410.364 2.32856 -0.173304 0
M  V30 4415 C 411.345 1.55818 0.682262 0
M  V30 4416 O 412.53 1.84052 0.619566 0
M  V30 4417 C 409.66 3.40048 0.706007 0
M  V30 4418 C 408.614 4.27973 -0.0483144 0
M  V30 4419 C 407.94 5.26184 0.950491 0
M  V30 4420 C 409.24 5.07665 -1.22776 0
M  V30 4421 H 410.934 2.83217 -0.971002 0
M  V30 4422 H 408.48 1.3617 -0.468377 0
M  V30 4423 H 410.433 4.05827 1.13501 0
M  V30 4424 H 409.157 2.88214 1.53623 0
M  V30 4425 H 407.816 3.63726 -0.458107 0
M  V30 4426 H 407.464 4.7063 1.77529 0
M  V30 4427 H 407.164 5.85872 0.450314 0
M  V30 4428 H 408.688 5.94838 1.37842 0
M  V30 4429 H 410.102 5.66578 -0.875366 0
M  V30 4430 H 408.499 5.76681 -1.66007 0
M  V30 4431 H 409.569 4.40294 -2.03149 0
M  V30 4432 N 410.912 0.523116 1.48665 0
M  V30 4433 C 412.14 -0.0096312 2.06898 0
M  V30 4434 C 412.555 -1.28784 1.38059 0
M  V30 4435 O 411.912 -1.76453 0.465893 0
M  V30 4436 C 411.963 -0.244386 3.60673 0
M  V30 4437 O 411.684 0.983172 4.26925 0
M  V30 4438 C 413.185 -0.818289 4.35682 0
M  V30 4439 H 410.405 0.0304161 0.67031 0
M  V30 4440 H 412.949 0.726799 1.91149 0
M  V30 4441 H 411.104 -0.930847 3.76051 0
M  V30 4442 H 411.518 0.759653 5.1897 0
M  V30 4443 H 412.992 -0.93201 5.44075 0
M  V30 4444 H 413.469 -1.82153 3.99646 0
M  V30 4445 H 414.075 -0.168609 4.24966 0
M  V30 4446 N 412.39 -1.55475 0.257931 0
M  V30 4447 C 413.636 -1.99502 -0.364266 0
M  V30 4448 C 413.969 -1.146 -1.56782 0
M  V30 4449 O 413.244 -0.211968 -1.93342 0
M  V30 4450 C 413.527 -3.51917 -0.763333 0
M  V30 4451 C 413.38 -4.4758 0.446371 0
M  V30 4452 C 414.699 -4.09742 -1.60623 0
M  V30 4453 H 411.818 -0.725277 -0.130929 0
M  V30 4454 H 414.46 -1.8653 0.361446 0
M  V30 4455 H 412.61 -3.63101 -1.38166 0
M  V30 4456 H 414.282 -4.48362 1.08487 0
M  V30 4457 H 412.525 -4.19947 1.08753 0
M  V30 4458 H 413.196 -5.51862 0.123645 0
M  V30 4459 H 415.672 -4.01727 -1.08418 0
M  V30 4460 H 414.548 -5.16631 -1.85429 0
M  V30 4461 H 414.809 -3.58889 -2.58169 0
M  V30 4462 N 413.868 0.0150385 -1.57593 0
M  V30 4463 C 414.801 1.04475 -2.0288 0
M  V30 4464 C 415.779 1.3436 -0.915764 0
M  V30 4465 O 416.963 1.46779 -1.18271 0
M  V30 4466 C 414.09 2.37608 -2.41371 0
M  V30 4467 C 413.136 2.23487 -3.63257 0
M  V30 4468 S 413.969 1.57505 -5.11813 0
M  V30 4469 C 415.125 2.921 -5.5356 0
M  V30 4470 H 415.358 0.65907 -2.89903 0
M  V30 4471 H 412.891 0.225452 -1.52745 0
M  V30 4472 H 414.849 3.14165 -2.64217 0
M  V30 4473 H 413.51 2.7332 -1.54775 0
M  V30 4474 H 412.703 3.21802 -3.87891 0
M  V30 4475 H 412.305 1.55074 -3.40335 0
M  V30 4476 H 414.597 3.88419 -5.55101 0
M  V30 4477 H 415.54 2.72184 -6.53698 0
M  V30 4478 H 415.948 2.95318 -4.8109 0
M  V30 4479 N 415.346 1.54954 0.287554 0
M  V30 4480 C 416.276 1.89839 1.35954 0
M  V30 4481 C 417.257 0.758675 1.52244 0
M  V30 4482 O 418.442 1.01557 1.65529 0
M  V30 4483 C 415.572 2.15753 2.72154 0
M  V30 4484 C 414.526 3.3159 2.70614 0
M  V30 4485 C 413.852 3.42952 4.10229 0
M  V30 4486 C 415.152 4.68359 2.31165 0
M  V30 4487 H 416.846 2.79625 1.07007 0
M  V30 4488 H 414.392 1.3454 0.513316 0
M  V30 4489 H 416.345 2.38743 3.47246 0
M  V30 4490 H 415.069 1.22752 3.02654 0
M  V30 4491 H 413.728 3.08545 1.97979 0
M  V30 4492 H 413.376 2.47443 4.37928 0
M  V30 4493 H 413.076 4.20826 4.10097 0
M  V30 4494 H 414.6 3.68218 4.87081 0
M  V30 4495 H 416.014 4.9099 2.95976 0
M  V30 4496 H 414.411 5.49044 2.42221 0
M  V30 4497 H 415.481 4.68165 1.26291 0
M  V30 4498 N 416.824 -0.551391 1.4764 0
M  V30 4499 C 418.071 -1.3083 1.54563 0
M  V30 4500 C 418.399 -1.93359 0.210361 0
M  V30 4501 O 417.654 -1.78721 -0.797332 0
M  V30 4502 C 417.953 -2.43469 2.61644 0
M  V30 4503 C 417.619 -1.98732 4.04742 0
M  V30 4504 C 416.281 -1.86248 4.43695 0
M  V30 4505 C 418.633 -1.64659 4.94507 0
M  V30 4506 C 415.961 -1.37995 5.70241 0
M  V30 4507 C 418.313 -1.17875 6.21521 0
M  V30 4508 C 416.977 -1.03992 6.5935 0
M  V30 4509 H 416.247 -0.478741 0.565587 0
M  V30 4510 H 418.894 -0.617697 1.81264 0
M  V30 4511 H 417.199 -3.18109 2.28722 0
M  V30 4512 H 418.896 -3.01642 2.64222 0
M  V30 4513 H 415.486 -2.09393 3.73968 0
M  V30 4514 H 419.67 -1.73174 4.65107 0
M  V30 4515 H 414.926 -1.25915 5.98294 0
M  V30 4516 H 419.1 -0.905739 6.90485 0
M  V30 4517 H 416.727 -0.663794 7.57296 0
M  V30 4518 N 418.302 -1.35869 -0.798587 0
M  V30 4519 C 419.548 -1.2978 -1.55836 0
M  V30 4520 C 419.881 0.125322 -1.93795 0
M  V30 4521 O 419.156 1.07658 -1.61987 0
M  V30 4522 C 419.439 -2.21188 -2.84162 0
M  V30 4523 C 419.292 -3.72155 -2.52628 0
M  V30 4524 C 420.611 -2.11545 -3.85923 0
M  V30 4525 H 417.73 -0.472769 -0.565383 0
M  V30 4526 H 420.372 -1.66341 -0.918192 0
M  V30 4527 H 418.522 -1.90139 -3.38791 0
M  V30 4528 H 420.194 -4.13682 -2.04121 0
M  V30 4529 H 418.437 -3.92042 -1.85704 0
M  V30 4530 H 419.108 -4.31511 -3.44242 0
M  V30 4531 H 421.584 -2.38855 -3.40716 0
M  V30 4532 H 420.46 -2.77688 -4.73477 0
M  V30 4533 H 420.721 -1.09987 -4.282 0
M  V30 4534 N 419.78 1.02168 -1.19998 0
M  V30 4535 C 421.027 1.75685 -1.00702 0
M  V30 4536 C 421.355 1.88947 0.461426 0
M  V30 4537 O 420.61 1.40832 1.35885 0
M  V30 4538 C 420.909 3.18081 -1.62969 0
M  V30 4539 C 420.575 3.24809 -3.12746 0
M  V30 4540 C 419.237 3.26352 -3.53621 0
M  V30 4541 C 421.589 3.23379 -4.08749 0
M  V30 4542 C 418.917 3.2413 -4.89036 0
M  V30 4543 C 421.269 3.22698 -5.44104 0
M  V30 4544 C 419.933 3.22542 -5.84399 0
M  V30 4545 H 419.203 0.642877 -0.368496 0
M  V30 4546 H 421.85 1.19865 -1.49348 0
M  V30 4547 H 420.155 3.77027 -1.06573 0
M  V30 4548 H 421.852 3.73648 -1.45561 0
M  V30 4549 H 418.442 3.2434 -2.80181 0
M  V30 4550 H 422.626 3.21361 -3.78207 0
M  V30 4551 H 417.882 3.22338 -5.19527 0
M  V30 4552 H 422.056 3.20543 -6.18244 0
M  V30 4553 H 419.683 3.20575 -6.89301 0
M  V30 4554 N 421.258 1.00505 1.21394 0
M  V30 4555 C 422.188 0.585684 2.26035 0
M  V30 4556 C 423.169 -0.393525 1.65485 0
M  V30 4557 O 424.354 -0.281497 1.92149 0
M  V30 4558 C 421.484 -0.0884283 3.47187 0
M  V30 4559 C 420.438 0.810567 4.20254 0
M  V30 4560 C 419.764 0.00286382 5.347 0
M  V30 4561 C 421.064 2.1132 4.77641 0
M  V30 4562 H 422.758 1.46039 2.61368 0
M  V30 4563 H 420.304 0.703648 1.25638 0
M  V30 4564 H 422.257 -0.393286 4.19561 0
M  V30 4565 H 420.981 -0.997766 3.10986 0
M  V30 4566 H 419.64 1.09925 3.49731 0
M  V30 4567 H 419.288 -0.907765 4.94741 0
M  V30 4568 H 418.988 0.601444 5.84514 0
M  V30 4569 H 420.512 -0.295808 6.09883 0
M  V30 4570 H 421.926 1.87148 5.41893 0
M  V30 4571 H 420.323 2.66164 5.37845 0
M  V30 4572 H 421.393 2.78393 3.9702 0
M  V30 4573 N 422.737 -1.36956 0.779787 0
M  V30 4574 C 423.984 -1.99491 0.347766 0
M  V30 4575 C 424.312 -1.61898 -1.07793 0
M  V30 4576 O 423.567 -0.86071 -1.75756 0
M  V30 4577 C 423.866 -3.54585 0.447686 0
M  V30 4578 C 423.532 -4.1197 1.83279 0
M  V30 4579 C 422.194 -4.27356 2.2118 0
M  V30 4580 C 424.546 -4.43354 2.74019 0
M  V30 4581 C 421.874 -4.71432 3.4924 0
M  V30 4582 C 424.226 -4.88858 4.01497 0
M  V30 4583 C 422.89 -5.0245 4.39432 0
M  V30 4584 H 422.16 -0.729991 0.127257 0
M  V30 4585 H 424.807 -1.63599 0.995376 0
M  V30 4586 H 423.112 -3.90773 -0.283447 0
M  V30 4587 H 424.809 -4.00888 0.0945948 0
M  V30 4588 H 421.399 -4.00428 1.52825 0
M  V30 4589 H 425.583 -4.31045 2.45995 0
M  V30 4590 H 420.839 -4.80141 3.78516 0
M  V30 4591 H 425.013 -5.12108 4.71931 0
M  V30 4592 H 422.64 -5.36362 5.38721 0
M  V30 4593 N 424.215 -0.530993 -1.48385 0
M  V30 4594 C 425.44 0.000729535 -2.074 0
M  V30 4595 C 425.865 1.27298 -1.3848 0
M  V30 4596 O 425.223 1.75599 -0.451081 0
M  V30 4597 C 425.271 0.206697 -3.60007 0
M  V30 4598 O 424.375 1.27514 -3.92191 0
M  V30 4599 H 423.716 -0.039583 -0.662819 0
M  V30 4600 H 426.246 -0.739194 -1.9078 0
M  V30 4601 H 426.256 0.42904 -4.05738 0
M  V30 4602 H 424.931 -0.722675 -4.09573 0
M  V30 4603 H 423.508 1.03537 -3.58238 0
M  V30 4604 N 425.693 1.55336 -0.266172 0
M  V30 4605 C 426.64 2.22172 0.625165 0
M  V30 4606 C 427.61 1.19211 1.15663 0
M  V30 4607 O 428.795 1.47723 1.20758 0
M  V30 4608 C 425.935 2.93972 1.8076 0
M  V30 4609 C 425.048 4.11632 1.31084 0
M  V30 4610 C 424.183 4.71099 2.45436 0
M  V30 4611 C 423.222 5.8097 1.92718 0
M  V30 4612 N 422.359 6.34538 3.00509 0
M  V30 4613 H 427.199 2.9796 0.0485582 0
M  V30 4614 H 424.736 1.47095 0.0122024 0
M  V30 4615 H 426.694 3.33811 2.50251 0
M  V30 4616 H 425.324 2.20623 2.35638 0
M  V30 4617 H 424.376 3.76975 0.509326 0
M  V30 4618 H 425.688 4.90893 0.884633 0
M  V30 4619 H 424.842 5.13612 3.22936 0
M  V30 4620 H 423.581 3.91096 2.91368 0
M  V30 4621 H 422.586 5.37916 1.13695 0
M  V30 4622 H 423.811 6.62836 1.47733 0
M  V30 4623 H 421.757 5.57433 3.45839 0
M  V30 4624 H 421.674 7.09046 2.62279 0
M  V30 4625 H 422.942 6.81709 3.78011 0
M  V30 4626 N 427.171 -0.0066808 1.57599 0
M  V30 4627 C 428.103 -1.02827 2.04839 0
M  V30 4628 C 429.116 -1.31108 0.965113 0
M  V30 4629 O 430.305 -1.28202 1.24203 0
M  V30 4630 C 427.405 -2.36464 2.42771 0
M  V30 4631 C 426.578 -2.27219 3.73751 0
M  V30 4632 C 425.637 -3.43489 3.98625 0
M  V30 4633 O 424.663 -3.21976 4.69382 0
M  V30 4634 N 425.865 -4.66116 3.46 0
M  V30 4635 H 428.63 -0.625455 2.93101 0
M  V30 4636 H 426.191 -0.194198 1.60731 0
M  V30 4637 H 428.183 -3.13008 2.56531 0
M  V30 4638 H 426.753 -2.68512 1.60063 0
M  V30 4639 H 425.973 -1.35629 3.70133 0
M  V30 4640 H 427.261 -2.18208 4.59633 0
M  V30 4641 H 426.659 -4.86493 2.88688 0
M  V30 4642 H 425.216 -5.39949 3.65101 0
M  V30 4643 N 428.649 -1.55105 -0.279332 0
M  V30 4644 C 429.581 -1.83952 -1.36727 0
M  V30 4645 C 430.594 -0.723642 -1.45833 0
M  V30 4646 O 431.783 -1.00141 -1.47763 0
M  V30 4647 C 428.883 -1.98183 -2.74912 0
M  V30 4648 C 428.056 -3.28787 -2.88475 0
M  V30 4649 C 427.115 -3.33162 -4.07295 0
M  V30 4650 O 426.141 -4.06576 -3.98353 0
M  V30 4651 N 427.343 -2.60109 -5.18964 0
M  V30 4652 H 430.108 -2.77853 -1.12328 0
M  V30 4653 H 427.669 -1.54945 -0.469442 0
M  V30 4654 H 429.661 -1.98488 -3.52682 0
M  V30 4655 H 428.231 -1.11177 -2.92162 0
M  V30 4656 H 427.451 -3.41075 -1.97641 0
M  V30 4657 H 428.739 -4.14933 -2.94463 0
M  V30 4658 H 428.137 -2.00136 -5.29115 0
M  V30 4659 H 426.694 -2.66143 -5.94988 0
M  V30 4660 N 430.127 0.543554 -1.4793 0
M  V30 4661 C 431.543 0.870806 -1.3375 0
M  V30 4662 C 431.743 1.9864 -0.338261 0
M  V30 4663 O 430.799 2.51305 0.245371 0
M  V30 4664 C 432.112 1.25114 -2.73435 0
M  V30 4665 C 433.66 1.3618 -2.81823 0
M  V30 4666 C 434.135 1.77563 -4.22179 0
M  V30 4667 N 435.626 1.8469 -4.24787 0
M  V30 4668 C 436.361 2.18067 -5.30315 0
M  V30 4669 N 435.857 2.49963 -6.46135 0
M  V30 4670 N 437.65 2.18958 -5.17701 0
M  V30 4671 H 429.801 -0.19275 -2.11524 0
M  V30 4672 H 432.064 -0.0235777 -0.947707 0
M  V30 4673 H 431.77 0.50514 -3.48053 0
M  V30 4674 H 431.644 2.20431 -3.06088 0
M  V30 4675 H 434.031 2.09859 -2.07468 0
M  V30 4676 H 434.112 0.390169 -2.52807 0
M  V30 4677 H 433.756 1.04449 -4.97044 0
M  V30 4678 H 433.686 2.75753 -4.48629 0
M  V30 4679 H 436.177 1.62372 -3.41239 0
M  V30 4680 H 436.49 2.74497 -7.22406 0
M  V30 4681 H 434.835 2.47513 -6.49432 0
M  V30 4682 H 438.026 1.93488 -4.2624 0
M  V30 4683 H 438.199 2.44639 -6.00047 0
M  V30 4684 N 431.605 1.3629 0.791371 0
M  V30 4685 C 432.854 1.29742 1.54434 0
M  V30 4686 C 433.167 -0.121729 1.95221 0
M  V30 4687 O 434.373 -0.309579 2.69729 0
M  V30 4688 C 432.829 2.27623 2.78776 0
M  V30 4689 C 432.437 3.74963 2.45166 0
M  V30 4690 C 434.181 2.30047 3.56761 0
M  V30 4691 C 432.088 4.64626 3.65891 0
M  V30 4692 H 431.018 0.482113 0.579727 0
M  V30 4693 H 433.669 1.61642 0.868565 0
M  V30 4694 H 432.051 1.88714 3.48142 0
M  V30 4695 H 433.225 4.22596 1.83709 0
M  V30 4696 H 431.54 3.75295 1.80396 0
M  V30 4697 H 434.137 2.94247 4.46456 0
M  V30 4698 H 434.48 1.30846 3.95203 0
M  V30 4699 H 435.013 2.67563 2.94372 0
M  V30 4700 H 431.752 5.64883 3.32547 0
M  V30 4701 H 431.272 4.2171 4.26521 0
M  V30 4702 H 432.951 4.80801 4.32943 0
M  V30 4703 N 433.083 -1.0153 1.20538 0
M  V30 4704 C 434.03 -2.10098 0.955383 0
M  V30 4705 C 435 -1.65702 -0.114878 0
M  V30 4706 O 436.185 -1.90776 0.0301118 0
M  V30 4707 C 433.325 -3.41236 0.514969 0
M  V30 4708 C 432.438 -3.99102 1.65353 0
M  V30 4709 C 431.573 -5.18306 1.16329 0
M  V30 4710 C 430.612 -5.68258 2.27485 0
M  V30 4711 N 429.749 -6.78722 1.7967 0
M  V30 4712 H 434.589 -2.30818 1.88486 0
M  V30 4713 H 432.126 -1.13189 0.939499 0
M  V30 4714 H 434.084 -4.16504 0.240935 0
M  V30 4715 H 432.714 -3.20585 -0.377512 0
M  V30 4716 H 431.766 -3.20918 2.04245 0
M  V30 4717 H 433.078 -4.32177 2.49047 0
M  V30 4718 H 432.232 -6.00782 0.845302 0
M  V30 4719 H 430.971 -4.86799 0.296254 0
M  V30 4720 H 429.976 -4.84385 2.60099 0
M  V30 4721 H 431.201 -6.01798 3.14667 0
M  V30 4722 H 429.147 -6.49042 0.95295 0
M  V30 4723 H 429.064 -7.10996 2.56944 0
M  V30 4724 H 430.332 -7.64759 1.50875 0
M  V30 4725 N 434.561 -1.01147 -1.20859 0
M  V30 4726 C 435.494 -0.522108 -2.22147 0
M  V30 4727 C 436.472 0.427686 -1.56874 0
M  V30 4728 O 437.656 0.34889 -1.85243 0
M  V30 4729 C 434.783 0.240819 -3.37843 0
M  V30 4730 C 433.829 -0.657752 -4.21398 0
M  V30 4731 S 434.662 -2.12393 -4.91578 0
M  V30 4732 C 435.818 -1.37102 -6.10699 0
M  V30 4733 H 436.051 -1.38035 -2.63313 0
M  V30 4734 H 433.584 -0.819941 -1.30829 0
M  V30 4735 H 435.542 0.674908 -4.04914 0
M  V30 4736 H 434.203 1.07457 -2.95147 0
M  V30 4737 H 433.396 -0.0697456 -5.03952 0
M  V30 4738 H 432.998 -1.0294 -3.59555 0
M  V30 4739 H 435.29 -0.648315 -6.74391 0
M  V30 4740 H 436.233 -2.17252 -6.73949 0
M  V30 4741 H 436.641 -0.876154 -5.57659 0
M  V30 4742 N 436.039 1.36541 -0.78704 0
M  V30 4743 C 436.969 2.32659 -0.197992 0
M  V30 4744 C 437.95 1.56533 0.665697 0
M  V30 4745 O 439.135 1.84698 0.60001 0
M  V30 4746 C 436.265 3.40778 0.669901 0
M  V30 4747 C 435.219 4.27897 -0.0937039 0
M  V30 4748 C 434.545 5.27163 0.894629 0
M  V30 4749 C 435.845 5.06334 -1.28154 0
M  V30 4750 H 437.539 2.82171 -1.00099 0
M  V30 4751 H 435.085 1.35665 -0.482793 0
M  V30 4752 H 437.038 4.07008 1.09191 0
M  V30 4753 H 435.762 2.89827 1.50558 0
M  V30 4754 H 434.421 3.6322 -0.49666 0
M  V30 4755 H 434.069 4.72486 1.72527 0
M  V30 4756 H 433.769 5.86317 0.388149 0
M  V30 4757 H 435.293 5.96266 1.31525 0
M  V30 4758 H 436.707 5.65617 -0.93541 0
M  V30 4759 H 435.104 5.74888 -1.72115 0
M  V30 4760 H 436.174 4.38114 -2.07807 0
M  V30 4761 N 437.518 0.538854 1.48102 0
M  V30 4762 C 438.767 0.0059532 2.01699 0
M  V30 4763 C 439.08 -1.34476 1.42041 0
M  V30 4764 O 440.286 -1.96653 1.87189 0
M  V30 4765 C 438.742 -0.0397627 3.59878 0
M  V30 4766 C 438.35 1.30659 4.28523 0
M  V30 4767 C 440.094 -0.521024 4.2129 0
M  V30 4768 C 438.001 1.22098 5.78659 0
M  V30 4769 H 436.931 -0.00154456 0.753998 0
M  V30 4770 H 439.582 0.683963 1.70277 0
M  V30 4771 H 437.964 -0.783037 3.88181 0
M  V30 4772 H 439.138 2.06613 4.11883 0
M  V30 4773 H 437.453 1.7243 3.79021 0
M  V30 4774 H 440.05 -0.603184 5.31287 0
M  V30 4775 H 440.393 -1.52885 3.8721 0
M  V30 4776 H 440.926 0.166834 3.9745 0
M  V30 4777 H 437.665 2.20424 6.17328 0
M  V30 4778 H 437.185 0.50295 5.97688 0
M  V30 4779 H 438.864 0.915345 6.40492 0
M  V30 4780 N 438.996 -1.55193 0.274407 0
M  V30 4781 C 439.926 -2.25471 -0.607032 0
M  V30 4782 C 440.907 -1.24461 -1.15946 0
M  V30 4783 O 442.092 -1.53179 -1.19373 0
M  V30 4784 C 439.222 -2.97526 -1.79153 0
M  V30 4785 C 438.176 -4.05459 -1.37067 0
M  V30 4786 C 437.502 -4.65084 -2.6382 0
M  V30 4787 C 438.802 -5.19691 -0.521389 0
M  V30 4788 H 440.496 -2.99393 -0.0209343 0
M  V30 4789 H 438.042 -1.43997 -0.00862866 0
M  V30 4790 H 439.995 -3.45402 -2.41404 0
M  V30 4791 H 438.719 -2.21138 -2.40344 0
M  V30 4792 H 437.378 -3.58393 -0.771355 0
M  V30 4793 H 437.026 -3.85365 -3.23268 0
M  V30 4794 H 436.726 -5.37961 -2.36372 0
M  V30 4795 H 438.25 -5.15708 -3.26921 0
M  V30 4796 H 439.664 -5.63623 -1.04889 0
M  V30 4797 H 438.061 -5.99126 -0.341825 0
M  V30 4798 H 439.131 -4.82713 0.46 0
M  V30 4799 N 440.474 -0.00167713 -1.576 0
M  V30 4800 C 441.885 0.54091 -1.78693 0
M  V30 4801 C 442.236 1.7386 -0.909247 0
M  V30 4802 O 441.361 2.16109 -0.112176 0
M  V30 4803 C 441.956 0.98806 -3.24072 0
M  V30 4804 C 440.515 1.47594 -3.46256 0
M  V30 4805 C 439.662 0.42792 -2.73978 0
M  V30 4806 H 442.613 -0.22784 -1.57056 0
M  V30 4807 H 442.634 1.85398 -3.32277 0
M  V30 4808 H 442.146 0.116164 -3.87926 0
M  V30 4809 H 440.247 2.36868 -2.87618 0
M  V30 4810 H 440.36 1.50225 -4.54939 0
M  V30 4811 H 438.724 0.889934 -2.38647 0
M  V30 4812 H 439.507 -0.435038 -3.40532 0
M  V30 4813 N 441.952 1.55251 0.271103 0
M  V30 4814 C 443.363 1.66635 0.842007 0
M  V30 4815 C 443.714 0.594631 1.86972 0
M  V30 4816 O 442.839 -0.263532 2.14789 0
M  V30 4817 C 443.434 3.02082 1.53401 0
M  V30 4818 C 441.993 3.15487 2.05293 0
M  V30 4819 C 441.14 2.62438 0.895631 0
M  V30 4820 H 444.091 1.58629 0.0474117 0
M  V30 4821 H 444.112 2.95176 2.40107 0
M  V30 4822 H 443.624 3.80062 0.785786 0
M  V30 4823 H 441.725 2.42284 2.83071 0
M  V30 4824 H 441.838 4.22075 2.26693 0
M  V30 4825 H 440.202 2.19644 1.28953 0
M  V30 4826 H 440.985 3.42923 0.160878 0
M  V30 4827 N 443.43 -0.535701 1.48216 0
M  V30 4828 C 444.676 -1.29375 1.56173 0
M  V30 4829 C 445.009 -1.92804 0.232429 0
M  V30 4830 O 444.284 -1.78992 -0.761048 0
M  V30 4831 C 444.567 -2.38747 2.69577 0
M  V30 4832 C 444.42 -1.80046 4.12193 0
M  V30 4833 C 445.739 -3.40551 2.78771 0
M  V30 4834 H 442.858 -0.469027 0.568491 0
M  V30 4835 H 445.5 -0.597358 1.80365 0
M  V30 4836 H 443.65 -2.98147 2.4908 0
M  V30 4837 H 445.322 -1.24742 4.44114 0
M  V30 4838 H 443.565 -1.10609 4.19462 0
M  V30 4839 H 444.236 -2.59212 4.87353 0
M  V30 4840 H 446.712 -2.91099 2.97322 0
M  V30 4841 H 445.588 -4.1448 3.59857 0
M  V30 4842 H 445.849 -4.00746 1.86696 0
M  V30 4843 N 444.908 -1.36708 -0.784132 0
M  V30 4844 C 446.319 -1.27947 -1.35965 0
M  V30 4845 C 446.67 0.0784013 -1.96043 0
M  V30 4846 O 445.795 0.979989 -1.92938 0
M  V30 4847 C 446.39 -2.31689 -2.47195 0
M  V30 4848 C 444.949 -2.26601 -3.00548 0
M  V30 4849 C 444.096 -2.16184 -1.73666 0
M  V30 4850 H 447.047 -1.4751 -0.585358 0
M  V30 4851 H 447.068 -1.95638 -3.26352 0
M  V30 4852 H 446.58 -3.30506 -2.03439 0
M  V30 4853 H 444.681 -1.31268 -3.48711 0
M  V30 4854 H 444.794 -3.19508 -3.57004 0
M  V30 4855 H 443.158 -1.62524 -1.96107 0
M  V30 4856 H 443.941 -3.16896 -1.32031 0
M  V30 4857 N 446.386 1.0089 -1.21074 0
M  V30 4858 C 447.632 1.74866 -1.02712 0
M  V30 4859 C 447.965 1.89178 0.438787 0
M  V30 4860 O 447.24 1.42325 1.32567 0
M  V30 4861 C 447.523 3.16347 -1.72036 0
M  V30 4862 C 447.376 3.09782 -3.26121 0
M  V30 4863 C 448.695 4.15187 -1.45973 0
M  V30 4864 H 445.814 0.634736 -0.374539 0
M  V30 4865 H 448.456 1.17646 -1.49196 0
M  V30 4866 H 446.606 3.65201 -1.32517 0
M  V30 4867 H 448.278 2.68673 -3.74983 0
M  V30 4868 H 446.521 2.46982 -3.56626 0
M  V30 4869 H 447.192 4.09829 -3.6979 0
M  V30 4870 H 449.668 3.75022 -1.80272 0
M  V30 4871 H 448.544 5.12331 -1.96999 0
M  V30 4872 H 448.805 4.40386 -0.388924 0
M  V30 4873 N 447.864 1.01787 1.20321 0
M  V30 4874 C 449.275 0.739307 1.71438 0
M  V30 4875 C 449.626 -0.742041 1.81627 0
M  V30 4876 O 448.751 -1.57903 1.47971 0
M  V30 4877 C 449.346 1.33538 3.11373 0
M  V30 4878 C 447.905 1.10566 3.59795 0
M  V30 4879 C 447.052 1.44028 2.36962 0
M  V30 4880 H 450.003 1.18718 1.05317 0
M  V30 4881 H 450.024 0.726611 3.73498 0
M  V30 4882 H 449.536 2.41352 3.03926 0
M  V30 4883 H 447.637 0.0452405 3.72573 0
M  V30 4884 H 447.75 1.78661 4.44542 0
M  V30 4885 H 446.114 0.85933 2.39766 0
M  V30 4886 H 446.897 2.52901 2.32155 0
M  V30 4887 N 449.342 -1.36122 0.79427 0
M  V30 4888 C 450.289 -2.29982 0.194101 0
M  V30 4889 C 451.259 -1.52214 -0.664833 0
M  V30 4890 O 452.444 -1.80702 -0.612498 0
M  V30 4891 C 449.584 -3.38706 -0.661244 0
M  V30 4892 C 448.697 -4.31456 0.216766 0
M  V30 4893 C 447.832 -5.27265 -0.645411 0
M  V30 4894 C 446.871 -6.11653 0.233756 0
M  V30 4895 N 446.008 -6.99636 -0.587682 0
M  V30 4896 H 450.848 -2.80722 0.999965 0
M  V30 4897 H 448.385 -1.38172 0.504677 0
M  V30 4898 H 450.343 -4.00394 -1.17219 0
M  V30 4899 H 448.973 -2.89274 -1.43249 0
M  V30 4900 H 448.025 -3.7088 0.845724 0
M  V30 4901 H 449.337 -4.90724 0.893973 0
M  V30 4902 H 448.491 -5.94266 -1.22198 0
M  V30 4903 H 447.23 -4.68463 -1.35623 0
M  V30 4904 H 446.235 -5.4361 0.82269 0
M  V30 4905 H 447.46 -6.72531 0.942247 0
M  V30 4906 H 445.406 -6.43337 -1.2827 0
M  V30 4907 H 445.323 -7.55993 0.0317402 0
M  V30 4908 H 446.591 -7.71001 -1.14792 0
M  V30 4909 N 450.82 -0.546701 -1.47814 0
M  V30 4910 C 452.069 -0.0166497 -2.01693 0
M  V30 4911 C 452.382 1.33721 -1.42752 0
M  V30 4912 O 453.588 1.95658 -1.8823 0
M  V30 4913 C 452.044 0.0206769 -3.59894 0
M  V30 4914 C 451.652 -1.3293 -4.27824 0
M  V30 4915 C 453.396 0.498674 -4.21561 0
M  V30 4916 C 451.303 -1.25165 -5.78003 0
M  V30 4917 H 450.233 -0.0024541 -0.753996 0
M  V30 4918 H 452.884 -0.692984 -1.69912 0
M  V30 4919 H 451.266 0.76244 -3.88591 0
M  V30 4920 H 452.44 -2.08795 -4.10781 0
M  V30 4921 H 450.755 -1.74438 -3.78101 0
M  V30 4922 H 453.352 0.575 -5.31599 0
M  V30 4923 H 453.695 1.5083 -3.88016 0
M  V30 4924 H 454.228 -0.18791 -3.97356 0
M  V30 4925 H 450.967 -2.23695 -6.1615 0
M  V30 4926 H 450.487 -0.53464 -5.97412 0
M  V30 4927 H 452.166 -0.949299 -6.39998 0
M  V30 4928 N 452.299 1.55045 -0.282633 0
M  V30 4929 C 453.246 2.22822 0.601566 0
M  V30 4930 C 454.216 1.20431 1.14392 0
M  V30 4931 O 455.401 1.48996 1.19184 0
M  V30 4932 C 452.541 2.95873 1.77632 0
M  V30 4933 C 451.654 4.12999 1.26711 0
M  V30 4934 C 450.789 4.73676 2.40426 0
M  V30 4935 C 449.828 5.82981 1.86545 0
M  V30 4936 N 448.965 6.3769 2.93762 0
M  V30 4937 H 453.805 2.97995 0.0169528 0
M  V30 4938 H 451.342 1.471 -0.00339964 0
M  V30 4939 H 453.3 3.36447 2.46697 0
M  V30 4940 H 451.93 2.2311 2.33285 0
M  V30 4941 H 450.982 3.77494 0.469314 0
M  V30 4942 H 452.294 4.91803 0.832518 0
M  V30 4943 H 451.448 5.17008 3.17471 0
M  V30 4944 H 450.187 3.94164 2.87203 0
M  V30 4945 H 449.192 5.39092 1.07983 0
M  V30 4946 H 450.417 6.64366 1.40694 0
M  V30 4947 H 448.363 5.61069 3.39908 0
M  V30 4948 H 448.28 7.11788 2.54744 0
M  V30 4949 H 449.548 6.8568 3.7076 0
M  V30 4950 N 453.777 0.010035 1.57597 0
M  V30 4951 C 455.025 -0.671371 1.90623 0
M  V30 4952 C 455.346 -1.73753 0.885151 0
M  V30 4953 O 454.616 -1.95752 -0.0760611 0
M  V30 4954 H 453.196 -0.250968 0.703579 0
M  V30 4955 H 455.858 0.0533325 1.94827 0
M  V30 4956 H 454.954 -1.13626 2.90681 0
M  V30 4957 N 455.255 -1.55392 -0.262866 0
M  V30 4958 C 456.504 -1.75679 -0.990943 0
M  V30 4959 C 456.817 -0.57097 -1.87081 0
M  V30 4960 O 458.023 -0.656486 -2.63444 0
M  V30 4961 C 456.479 -3.10964 -1.81188 0
M  V30 4962 C 456.087 -4.37146 -0.980188 0
M  V30 4963 C 457.831 -3.40597 -2.53365 0
M  V30 4964 C 455.738 -5.63466 -1.7961 0
M  V30 4965 H 454.668 -0.654868 -0.373716 0
M  V30 4966 H 457.319 -1.81841 -0.246203 0
M  V30 4967 H 455.701 -2.98867 -2.59797 0
M  V30 4968 H 456.875 -4.60187 -0.237558 0
M  V30 4969 H 455.19 -4.14731 -0.372497 0
M  V30 4970 H 457.787 -4.32186 -3.14833 0
M  V30 4971 H 458.13 -2.6119 -3.24169 0
M  V30 4972 H 458.663 -3.53838 -1.81779 0
M  V30 4973 H 455.402 -6.4565 -1.13209 0
M  V30 4974 H 454.922 -5.44552 -2.51443 0
M  V30 4975 H 456.601 -6.02139 -2.36723 0
M  V30 4976 N 456.733 0.527833 -1.48498 0
M  V30 4977 C 458.01 1.28905 -1.47115 0
M  V30 4978 C 458.39 2.10297 -0.184007 0
M  V30 4979 O 457.738 2.12728 0.834218 0
M  V30 4980 C 457.948 2.16866 -2.73441 0
M  V30 4981 C 459.296 2.76936 -3.21857 0
M  V30 4982 O 460.32 2.27152 -2.74373 0
M  V30 4983 O 459.179 3.67496 -4.04486 0
M  V30 4984 H 456.273 0.581918 -0.587623 0
M  V30 4985 H 458.819 0.544311 -1.60734 0
M  V30 4986 H 457.591 1.56521 -3.58632 0
M  V30 4987 H 457.214 2.98583 -2.62553 0
M  V30 4988 N 458.211 1.37122 0.776871 0
M  V30 4989 C 459.622 1.28667 1.35284 0
M  V30 4990 C 459.973 -0.0680035 1.96082 0
M  V30 4991 O 459.098 -0.969743 1.93455 0
M  V30 4992 C 459.693 2.32997 2.45963 0
M  V30 4993 C 458.252 2.28191 2.99342 0
M  V30 4994 C 457.399 2.17101 1.72517 0
M  V30 4995 H 460.35 1.47819 0.577527 0
M  V30 4996 H 460.371 1.97366 3.2531 0
M  V30 4997 H 459.883 3.3158 2.01684 0
M  V30 4998 H 457.984 1.33115 3.4801 0
M  V30 4999 H 458.097 3.21397 3.55304 0
M  V30 5000 H 456.461 1.63562 1.95242 0
M  V30 5001 H 457.244 3.17591 1.30348 0
M  V30 5002 N 459.689 -1.00246 1.21608 0
M  V30 5003 C 460.966 -1.71336 0.943568 0
M  V30 5004 C 461.346 -2.03972 -0.543943 0
M  V30 5005 O 460.694 -1.71545 -1.50946 0
M  V30 5006 C 460.904 -2.97094 1.83128 0
M  V30 5007 C 462.252 -3.70071 2.08165 0
M  V30 5008 O 463.276 -3.07081 1.80498 0
M  V30 5009 O 462.135 -4.83376 2.54971 0
M  V30 5010 H 459.229 -0.747386 0.354039 0
M  V30 5011 H 461.775 -1.05967 1.32549 0
M  V30 5012 H 460.547 -2.69407 2.83788 0
M  V30 5013 H 460.17 -3.70204 1.45034 0
M  V30 5014 N 461.167 -1.02423 -1.1978 0
M  V30 5015 C 462.097 -0.62157 -2.25075 0
M  V30 5016 C 463.078 0.367148 -1.6609 0
M  V30 5017 O 464.263 0.250892 -1.92573 0
M  V30 5018 C 461.393 0.0331826 -3.47284 0
M  V30 5019 C 460.347 -0.877323 -4.18912 0
M  V30 5020 C 459.673 -0.0879296 -5.34628 0
M  V30 5021 C 460.973 -2.18892 -4.74219 0
M  V30 5022 H 462.667 -1.50179 -2.59011 0
M  V30 5023 H 460.213 -0.723547 -1.24502 0
M  V30 5024 H 462.166 0.326488 -4.20133 0
M  V30 5025 H 460.89 0.948164 -3.12534 0
M  V30 5026 H 459.549 -1.15475 -3.47938 0
M  V30 5027 H 459.197 0.828941 -4.96123 0
M  V30 5028 H 458.897 -0.694359 -5.83483 0
M  V30 5029 H 460.421 0.198743 -6.10276 0
M  V30 5030 H 461.835 -1.95746 -5.38847 0
M  V30 5031 H 460.232 -2.74686 -5.33542 0
M  V30 5032 H 461.302 -2.84674 -3.92541 0
M  V30 5033 N 462.645 1.35699 -0.801477 0
M  V30 5034 C 463.575 2.32436 -0.222658 0
M  V30 5035 C 464.556 1.5723 0.649057 0
M  V30 5036 O 465.741 1.85324 0.580387 0
M  V30 5037 C 462.871 3.41469 0.633719 0
M  V30 5038 C 461.825 4.27774 -0.139083 0
M  V30 5039 C 461.151 5.28082 0.838666 0
M  V30 5040 C 462.451 5.04946 -1.33517 0
M  V30 5041 H 464.145 2.81094 -1.03086 0
M  V30 5042 H 461.691 1.35146 -0.497155 0
M  V30 5043 H 463.644 4.08143 1.04868 0
M  V30 5044 H 462.368 2.91408 1.47475 0
M  V30 5045 H 461.027 3.62673 -0.535156 0
M  V30 5046 H 460.675 4.7429 1.67506 0
M  V30 5047 H 460.375 5.86695 0.32594 0
M  V30 5048 H 461.899 5.97628 1.25194 0
M  V30 5049 H 463.313 5.64593 -0.995349 0
M  V30 5050 H 461.71 5.7303 -1.78202 0
M  V30 5051 H 462.78 4.35886 -2.12442 0
M  V30 5052 N 464.123 0.554532 1.47522 0
M  V30 5053 C 465.07 -0.19466 2.29978 0
M  V30 5054 C 466.04 -0.910882 1.38896 0
M  V30 5055 O 467.225 -0.907102 1.67858 0
M  V30 5056 C 464.365 -1.22035 3.22802 0
M  V30 5057 C 463.478 -0.510474 4.28973 0
M  V30 5058 C 462.613 -1.52123 5.08952 0
M  V30 5059 C 461.652 -0.796173 6.069 0
M  V30 5060 N 460.789 -1.75363 6.79847 0
M  V30 5061 H 465.629 0.51461 2.93523 0
M  V30 5062 H 463.166 0.265607 1.44682 0
M  V30 5063 H 465.124 -1.8276 3.7504 0
M  V30 5064 H 463.754 -1.89769 2.61127 0
M  V30 5065 H 462.806 0.211234 3.79813 0
M  V30 5066 H 464.118 0.0576503 4.98767 0
M  V30 5067 H 463.272 -2.20207 5.65326 0
M  V30 5068 H 462.011 -2.12327 4.39054 0
M  V30 5069 H 461.016 -0.101388 5.49707 0
M  V30 5070 H 462.241 -0.199911 6.78806 0
M  V30 5071 H 460.187 -2.3443 6.12682 0
M  V30 5072 H 460.104 -1.23759 7.45801 0
M  V30 5073 H 461.372 -2.4257 7.40797 0
M  V30 5074 N 465.601 -1.54893 0.290851 0
M  V30 5075 C 466.511 -2.26812 -0.59945 0
M  V30 5076 C 467.527 -1.29963 -1.15696 0
M  V30 5077 O 468.703 -1.62928 -1.18391 0
M  V30 5078 C 465.768 -2.98716 -1.75982 0
M  V30 5079 C 464.829 -4.1108 -1.2374 0
M  V30 5080 C 464.062 -4.79546 -2.34246 0
M  V30 5081 O 464.285 -4.47309 -3.53936 0
M  V30 5082 O 463.219 -5.67165 -2.01512 0
M  V30 5083 H 467.045 -3.03696 -0.0163561 0
M  V30 5084 H 464.63 -1.49289 0.0576755 0
M  V30 5085 H 466.512 -3.43851 -2.43607 0
M  V30 5086 H 465.187 -2.24737 -2.3297 0
M  V30 5087 H 464.094 -3.70367 -0.527163 0
M  V30 5088 H 465.427 -4.87007 -0.71307 0
M  V30 5089 N 467.08 -0.0183926 -1.57589 0
M  V30 5090 C 468.328 0.661253 -1.90976 0
M  V30 5091 C 468.649 1.73281 -0.894353 0
M  V30 5092 O 467.919 1.9579 0.0656788 0
M  V30 5093 H 466.499 0.247233 -0.704901 0
M  V30 5094 H 469.161 -0.0636639 -1.94796 0
M  V30 5095 H 468.257 1.12083 -2.9128 0
M  V30 5096 N 468.558 1.5553 0.254621 0
M  V30 5097 C 469.505 1.89666 1.31512 0
M  V30 5098 C 470.475 0.750057 1.482 0
M  V30 5099 O 471.66 1.00301 1.62309 0
M  V30 5100 C 468.8 2.19009 2.667 0
M  V30 5101 C 467.913 3.46435 2.58083 0
M  V30 5102 C 467.048 3.65386 3.85573 0
M  V30 5103 C 466.087 4.8644 3.71541 0
M  V30 5104 N 465.224 5.01952 4.90906 0
M  V30 5105 H 470.064 2.80109 1.017 0
M  V30 5106 H 467.601 1.38666 0.490938 0
M  V30 5107 H 469.559 2.34025 3.45381 0
M  V30 5108 H 468.189 1.31779 2.94676 0
M  V30 5109 H 467.241 3.39792 1.71013 0
M  V30 5110 H 468.553 4.35258 2.43622 0
M  V30 5111 H 467.707 3.80319 4.72697 0
M  V30 5112 H 466.446 2.74781 4.02922 0
M  V30 5113 H 465.451 4.71491 2.82801 0
M  V30 5114 H 466.676 5.78497 3.55694 0
M  V30 5115 H 464.622 4.14283 5.08631 0
M  V30 5116 H 464.539 5.84851 4.79046 0
M  V30 5117 H 465.807 5.21289 5.7955 0
M  V30 5118 N 470.036 -0.519951 1.48776 0
M  V30 5119 C 470.966 -1.63253 1.66945 0
M  V30 5120 C 471.947 -1.62014 0.518224 0
M  V30 5121 O 473.132 -1.79053 0.751919 0
M  V30 5122 C 470.262 -3.0181 1.71836 0
M  V30 5123 C 469.216 -3.17911 2.8656 0
M  V30 5124 C 468.542 -4.5763 2.76548 0
M  V30 5125 C 469.842 -2.99729 4.27738 0
M  V30 5126 H 471.536 -1.48302 2.6009 0
M  V30 5127 H 469.082 -0.712026 1.25165 0
M  V30 5128 H 471.035 -3.79525 1.83135 0
M  V30 5129 H 469.759 -3.17806 0.752775 0
M  V30 5130 H 468.418 -2.42616 2.74833 0
M  V30 5131 H 468.066 -4.70476 1.77937 0
M  V30 5132 H 467.766 -4.69346 3.53536 0
M  V30 5133 H 469.29 -5.37431 2.89828 0
M  V30 5134 H 470.704 -3.67228 4.40246 0
M  V30 5135 H 469.101 -3.22932 5.05801 0
M  V30 5136 H 470.171 -1.96047 4.43502 0
M  V30 5137 N 471.514 -1.37532 -0.769588 0
M  V30 5138 C 472.424 -1.35668 -1.91393 0
M  V30 5139 C 473.44 -0.255954 -1.72107 0
M  V30 5140 O 474.616 -0.491704 -1.95305 0
M  V30 5141 C 471.681 -1.16481 -3.26547 0
M  V30 5142 C 470.742 -2.36212 -3.58472 0
M  V30 5143 C 469.975 -2.17932 -4.87177 0
M  V30 5144 O 470.198 -1.1647 -5.58382 0
M  V30 5145 O 469.132 -3.06167 -5.18214 0
M  V30 5146 H 472.958 -2.32055 -1.95918 0
M  V30 5147 H 470.543 -1.18284 -0.912641 0
M  V30 5148 H 472.425 -1.07778 -4.07384 0
M  V30 5149 H 471.1 -0.231687 -3.2287 0
M  V30 5150 H 470.007 -2.50488 -2.77861 0
M  V30 5151 H 471.34 -3.281 -3.66894 0
M  V30 5152 N 472.992 0.995999 -1.22138 0
M  V30 5153 C 473.902 2.11985 -1.00496 0
M  V30 5154 C 474.918 1.7394 0.0457701 0
M  V30 5155 O 476.094 2.00868 -0.146273 0
M  V30 5156 C 473.159 3.41779 -0.582086 0
M  V30 5157 C 472.22 3.93943 -1.70608 0
M  V30 5158 C 471.453 5.17542 -1.30328 0
M  V30 5159 O 471.676 5.70114 -0.180743 0
M  V30 5160 O 470.61 5.63382 -2.11861 0
M  V30 5161 H 474.436 2.33123 -1.94647 0
M  V30 5162 H 472.021 1.10358 -1.00705 0
M  V30 5163 H 473.903 4.1989 -0.356467 0
M  V30 5164 H 472.578 3.22007 0.330592 0
M  V30 5165 H 471.485 3.17019 -1.98619 0
M  V30 5166 H 472.818 4.18141 -2.59651 0
M  V30 5167 N 474.47 1.03057 1.19235 0
M  V30 5168 C 475.716 0.729098 1.89241 0
M  V30 5169 C 476.049 -0.740573 1.79525 0
M  V30 5170 O 475.324 -1.53946 1.18874 0
M  V30 5171 C 475.607 1.18304 3.40112 0
M  V30 5172 C 475.46 2.71406 3.5869 0
M  V30 5173 C 476.779 0.765161 4.33397 0
M  V30 5174 H 473.898 0.266338 0.687192 0
M  V30 5175 H 476.54 1.28079 1.40341 0
M  V30 5176 H 474.69 0.713672 3.81889 0
M  V30 5177 H 476.362 3.26303 3.26074 0
M  V30 5178 H 474.605 3.11717 3.01687 0
M  V30 5179 H 475.276 2.98225 4.64506 0
M  V30 5180 H 477.752 1.16889 3.99345 0
M  V30 5181 H 476.628 1.11065 5.37546 0
M  V30 5182 H 476.889 -0.332372 4.40849 0
M  V30 5183 N 475.948 -1.35272 0.808662 0
M  V30 5184 C 476.896 -2.31663 0.208606 0
M  V30 5185 C 477.89 -1.56731 -0.642778 0
M  V30 5186 O 479.096 -1.71843 -0.53571 0
M  V30 5187 H 475.471 -0.750421 0.0486993 0
M  V30 5188 H 477.442 -2.79814 1.03666 0
M  V30 5189 C 476.191 -3.42008 -0.626573 0
M  V30 5190 H 475.514 -3.99795 0.0192103 0
M  V30 5191 H 476.954 -4.11727 -1.01278 0
M  V30 5192 C 475.413 -2.85226 -1.79298 0
M  V30 5193 O 475.943 -2.78945 -2.89055 0
M  V30 5194 N 474.149 -2.42245 -1.60516 0
M  V30 5195 H 473.696 -2.47554 -0.712375 0
M  V30 5196 H 473.654 -2.04603 -2.38715 0
M  V30 5197 N 477.426 -0.562348 -1.47226 0
M  V30 5198 C 478.654 -0.0452275 -2.06851 0
M  V30 5199 C 479.069 1.25078 -1.41424 0
M  V30 5200 O 478.426 1.75156 -0.512513 0
M  V30 5201 C 478.477 0.148674 -3.61194 0
M  V30 5202 O 478.198 -1.09602 -4.24169 0
M  V30 5203 C 479.699 0.702488 -4.37699 0
M  V30 5204 H 476.919 -0.0481775 -0.669268 0
M  V30 5205 H 479.463 -0.777223 -1.89155 0
M  V30 5206 H 477.618 0.830817 -3.78386 0
M  V30 5207 H 478.032 -0.896982 -5.16773 0
M  V30 5208 H 479.506 0.78743 -5.46355 0
M  V30 5209 H 479.983 1.71493 -4.04335 0
M  V30 5210 H 480.589 0.0558772 -4.25263 0
M  V30 5211 N 478.904 1.54736 -0.299062 0
M  V30 5212 C 480.153 1.99279 0.311549 0
M  V30 5213 C 480.466 1.19107 1.55154 0
M  V30 5214 O 481.672 1.53908 2.23662 0
M  V30 5215 C 480.128 3.54768 0.605632 0
M  V30 5216 C 479.736 4.43746 -0.615914 0
M  V30 5217 C 481.48 4.07841 1.17754 0
M  V30 5218 C 479.387 5.90663 -0.29509 0
M  V30 5219 H 478.317 0.744359 0.120187 0
M  V30 5220 H 480.968 1.78919 -0.407464 0
M  V30 5221 H 479.35 3.71021 1.38419 0
M  V30 5222 H 480.524 4.39267 -1.39218 0
M  V30 5223 H 478.839 4.01434 -1.10633 0
M  V30 5224 H 481.436 5.15174 1.43179 0
M  V30 5225 H 481.779 3.58324 2.11918 0
M  V30 5226 H 482.312 3.95123 0.460739 0
M  V30 5227 H 479.051 6.44325 -1.20524 0
M  V30 5228 H 478.571 5.98155 0.44394 0
M  V30 5229 H 480.25 6.46916 0.104048 0
M  V30 5230 N 480.382 0.0267497 1.57577 0
M  V30 5231 C 481.312 -0.954308 2.13108 0
M  V30 5232 C 482.293 -1.34088 1.04663 0
M  V30 5233 O 483.478 -1.41992 1.32484 0
M  V30 5234 C 480.608 -2.23744 2.65624 0
M  V30 5235 C 479.562 -1.99168 3.78835 0
M  V30 5236 C 478.888 -3.33726 4.17769 0
M  V30 5237 C 480.188 -1.33277 5.0501 0
M  V30 5238 H 481.882 -0.491848 2.95332 0
M  V30 5239 H 479.428 -0.23514 1.42067 0
M  V30 5240 H 481.381 -2.92754 3.03106 0
M  V30 5241 H 480.105 -2.72151 1.80558 0
M  V30 5242 H 478.764 -1.32577 3.41788 0
M  V30 5243 H 478.412 -3.79888 3.29688 0
M  V30 5244 H 478.112 -3.18089 4.94058 0
M  V30 5245 H 479.636 -4.04008 4.57832 0
M  V30 5246 H 481.05 -1.92283 5.40093 0
M  V30 5247 H 479.447 -1.28045 5.8628 0
M  V30 5248 H 480.517 -0.305411 4.83937 0
M  V30 5249 N 481.861 -1.55662 -0.24637 0
M  V30 5250 C 482.824 -1.89558 -1.28842 0
M  V30 5251 C 483.824 -0.772082 -1.41052 0
M  V30 5252 O 485.014 -1.04007 -1.39743 0
M  V30 5253 C 482.146 -2.12449 -2.66605 0
M  V30 5254 H 483.339 -2.82735 -1.00004 0
M  V30 5255 H 480.892 -1.48562 -0.485684 0
M  V30 5256 H 481.627 -1.21742 -3.00582 0
M  V30 5257 H 481.412 -2.94273 -2.59125 0
M  V30 5258 H 482.902 -2.39854 -3.41847 0
M  V30 5259 N 483.339 0.512053 -1.4905 0
M  V30 5260 C 484.588 1.26343 -1.57227 0
M  V30 5261 C 484.901 1.93876 -0.259155 0
M  V30 5262 O 486.107 2.70612 -0.219358 0
M  V30 5263 C 484.563 2.29343 -2.77362 0
M  V30 5264 C 484.171 1.67799 -4.15388 0
M  V30 5265 C 485.915 3.05378 -2.94864 0
M  V30 5266 C 483.822 2.68845 -5.2676 0
M  V30 5267 H 482.752 0.475231 -0.585382 0
M  V30 5268 H 485.403 0.53862 -1.75417 0
M  V30 5269 H 483.785 3.04938 -2.52643 0
M  V30 5270 H 484.959 0.982715 -4.50199 0
M  V30 5271 H 483.274 1.04194 -4.03153 0
M  V30 5272 H 485.871 3.80921 -3.75238 0
M  V30 5273 H 486.214 3.62327 -2.05 0
M  V30 5274 H 486.747 2.36898 -3.19569 0
M  V30 5275 H 483.486 2.16692 -6.18647 0
M  V30 5276 H 483.006 3.36647 -4.96416 0
M  V30 5277 H 484.685 3.31487 -5.5563 0
M  V30 5278 N 484.817 1.37938 0.762283 0
M  V30 5279 C 485.767 1.30976 1.86626 0
M  V30 5280 C 486.751 0.195714 1.59705 0
M  V30 5281 O 487.943 0.430937 1.71674 0
M  V30 5282 C 485.072 1.12847 3.24223 0
M  V30 5283 C 484.158 2.28836 3.57064 0
M  V30 5284 N 484.549 3.54256 3.61022 0
M  V30 5285 C 482.847 2.21198 3.87282 0
M  V30 5286 C 483.548 4.30798 3.90881 0
M  V30 5287 N 482.524 3.60049 4.07266 0
M  V30 5288 H 486.326 2.25946 1.87951 0
M  V30 5289 H 483.84 1.31046 0.959206 0
M  V30 5290 H 485.837 1.05943 4.03214 0
M  V30 5291 H 484.497 0.188024 3.24155 0
M  V30 5292 H 485.508 3.8804 3.42995 0
M  V30 5293 H 482.185 1.35264 3.94981 0
M  V30 5294 H 483.575 5.39386 4.00639 0
M  V30 5295 N 486.295 -0.989507 1.22664 0
M  V30 5296 C 487.572 -1.70326 0.961688 0
M  V30 5297 C 487.952 -2.04537 -0.522279 0
M  V30 5298 O 487.3 -1.73136 -1.49118 0
M  V30 5299 C 487.51 -2.95135 1.86269 0
M  V30 5300 C 488.858 -3.67842 2.12078 0
M  V30 5301 O 489.882 -3.0515 1.83745 0
M  V30 5302 O 488.741 -4.80644 2.60083 0
M  V30 5303 H 485.835 -0.743589 0.361946 0
M  V30 5304 H 488.381 -1.04555 1.33665 0
M  V30 5305 H 487.153 -2.66382 2.8663 0
M  V30 5306 H 486.776 -3.68645 1.48952 0
M  V30 5307 N 487.773 -1.03688 -1.18687 0
M  V30 5308 C 488.998 -0.757819 -1.93059 0
M  V30 5309 C 489.423 0.678353 -1.75442 0
M  V30 5310 O 488.781 1.46938 -1.06203 0
M  V30 5311 C 488.829 -1.12423 -3.42627 0
M  V30 5312 O 487.933 -0.247505 -4.11657 0
M  V30 5313 H 487.274 -0.279245 -0.602427 0
M  V30 5314 H 489.804 -1.3857 -1.5053 0
M  V30 5315 H 489.814 -1.08454 -3.93322 0
M  V30 5316 H 488.489 -2.17049 -3.54771 0
M  V30 5317 H 487.066 -0.34649 -3.71287 0
M  V30 5318 N 489.251 1.34841 -0.815825 0
M  V30 5319 C 490.481 2.02436 -0.412695 0
M  V30 5320 C 490.889 1.61604 0.983906 0
M  V30 5321 O 490.232 0.813729 1.64694 0
M  V30 5322 C 490.294 3.56953 -0.427182 0
M  V30 5323 C 489.958 4.21083 -1.77589 0
M  V30 5324 C 490.955 4.42107 -2.73564 0
M  V30 5325 C 488.64 4.58006 -2.06243 0
M  V30 5326 C 490.634 4.99169 -3.9637 0
M  V30 5327 C 488.321 5.1478 -3.2931 0
M  V30 5328 C 489.319 5.35304 -4.24191 0
M  V30 5329 O 489.007 5.90878 -5.45086 0
M  V30 5330 H 488.739 0.655631 -0.164695 0
M  V30 5331 H 491.293 1.73246 -1.1034 0
M  V30 5332 H 489.523 3.85372 0.320175 0
M  V30 5333 H 491.212 4.05875 -0.0450875 0
M  V30 5334 H 491.978 4.13953 -2.52721 0
M  V30 5335 H 487.857 4.41339 -1.33196 0
M  V30 5336 H 491.401 5.15105 -4.70439 0
M  V30 5337 H 487.298 5.42362 -3.5002 0
M  V30 5338 H 488.066 6.0932 -5.46508 0
M  V30 5339 N 490.729 0.570148 1.46925 0
M  V30 5340 C 491.676 -0.170257 2.30171 0
M  V30 5341 C 492.646 -0.896099 1.39855 0
M  V30 5342 O 493.831 -0.889248 1.68811 0
M  V30 5343 C 490.971 -1.18605 3.24079 0
M  V30 5344 C 490.084 -0.464947 4.29491 0
M  V30 5345 C 489.219 -1.46716 5.10537 0
M  V30 5346 C 488.258 -0.731758 6.0771 0
M  V30 5347 N 487.395 -1.68142 6.81669 0
M  V30 5348 H 492.235 0.545713 2.92961 0
M  V30 5349 H 489.772 0.280938 1.44392 0
M  V30 5350 H 491.73 -1.78771 3.76957 0
M  V30 5351 H 490.36 -1.86989 2.63125 0
M  V30 5352 H 489.412 0.251506 3.79568 0
M  V30 5353 H 490.724 0.110548 4.98677 0
M  V30 5354 H 489.878 -2.14199 5.6763 0
M  V30 5355 H 488.617 -2.07658 4.41282 0
M  V30 5356 H 487.622 -0.0430787 5.49783 0
M  V30 5357 H 488.847 -0.127904 6.7898 0
M  V30 5358 H 486.793 -2.27918 6.15134 0
M  V30 5359 H 486.71 -1.15841 7.47072 0
M  V30 5360 H 487.978 -2.347 7.43328 0
M  V30 5361 N 492.207 -1.54576 0.307264 0
M  V30 5362 C 493.618 -1.8579 -0.184121 0
M  V30 5363 C 493.969 -1.22914 -1.52927 0
M  V30 5364 O 493.094 -0.529126 -2.09831 0
M  V30 5365 C 493.689 -3.37081 -0.340862 0
M  V30 5366 C 492.248 -3.68304 -0.776465 0
M  V30 5367 C 491.395 -2.77076 0.111503 0
M  V30 5368 H 494.346 -1.49656 0.528078 0
M  V30 5369 H 494.367 -3.61922 -1.17443 0
M  V30 5370 H 493.879 -3.82815 0.638309 0
M  V30 5371 H 491.98 -3.28092 -1.76596 0
M  V30 5372 H 492.093 -4.75434 -0.591512 0
M  V30 5373 H 490.457 -2.51374 -0.410256 0
M  V30 5374 H 491.24 -3.25632 1.08714 0
M  V30 5375 N 493.685 -0.035106 -1.57561 0
M  V30 5376 C 494.595 0.960295 -2.14046 0
M  V30 5377 C 495.611 1.3529 -1.0942 0
M  V30 5378 O 496.787 1.43309 -1.41508 0
M  V30 5379 C 493.852 2.22214 -2.66124 0
M  V30 5380 C 492.913 1.8894 -3.85487 0
M  V30 5381 C 492.146 3.09109 -4.35072 0
M  V30 5382 O 492.369 4.21963 -3.83802 0
M  V30 5383 O 491.303 2.91058 -5.26848 0
M  V30 5384 H 495.129 0.509983 -2.99387 0
M  V30 5385 H 492.714 0.185853 -1.48239 0
M  V30 5386 H 494.596 2.96279 -2.99661 0
M  V30 5387 H 493.271 2.66414 -1.83862 0
M  V30 5388 H 492.178 1.12241 -3.56865 0
M  V30 5389 H 493.511 1.49551 -4.6893 0
M  V30 5390 N 495.163 1.55791 0.238111 0
M  V30 5391 C 496.41 1.78033 0.964907 0
M  V30 5392 C 496.738 0.600984 1.84982 0
M  V30 5393 O 495.993 -0.41536 1.91241 0
M  V30 5394 C 496.292 3.05869 1.84875 0
M  V30 5395 C 495.958 4.36808 1.11846 0
M  V30 5396 C 494.62 4.72388 0.916662 0
M  V30 5397 C 496.972 5.17717 0.60151 0
M  V30 5398 C 494.3 5.86406 0.185756 0
M  V30 5399 C 496.652 6.32494 -0.115972 0
M  V30 5400 C 495.316 6.66688 -0.329168 0
M  V30 5401 H 494.586 0.651469 0.353085 0
M  V30 5402 H 497.233 1.90061 0.234318 0
M  V30 5403 H 495.538 2.88891 2.64668 0
M  V30 5404 H 497.235 3.20278 2.41294 0
M  V30 5405 H 493.825 4.08862 1.28569 0
M  V30 5406 H 498.009 4.90678 0.744932 0
M  V30 5407 H 493.265 6.11399 0.0101886 0
M  V30 5408 H 497.439 6.94425 -0.524127 0
M  V30 5409 H 495.066 7.54884 -0.897474 0
M  V30 5410 N 496.642 -0.504142 1.49319 0
M  V30 5411 C 497.592 -1.60284 1.62151 0
M  V30 5412 C 498.576 -1.53657 0.477315 0
M  V30 5413 O 499.768 -1.6124 0.730108 0
M  V30 5414 C 496.897 -2.98909 1.68844 0
M  V30 5415 C 495.983 -3.10544 2.8883 0
M  V30 5416 N 496.374 -2.92078 4.12946 0
M  V30 5417 C 494.672 -3.4164 2.86702 0
M  V30 5418 C 495.373 -3.07812 4.93585 0
M  V30 5419 N 494.349 -3.36549 4.26891 0
M  V30 5420 H 498.151 -1.44656 2.55835 0
M  V30 5421 H 495.665 -0.710198 1.46048 0
M  V30 5422 H 497.662 -3.77865 1.76134 0
M  V30 5423 H 496.322 -3.15609 0.762943 0
M  V30 5424 H 497.333 -2.68316 4.42975 0
M  V30 5425 H 494.01 -3.64537 2.03517 0
M  V30 5426 H 495.4 -2.98054 6.02174 0
M  V30 5427 N 498.12 -1.38341 -0.754957 0
M  V30 5428 C 499.345 -1.37882 -1.5493 0
M  V30 5429 C 499.77 0.0296385 -1.88077 0
M  V30 5430 O 499.128 1.01133 -1.50472 0
M  V30 5431 C 499.176 -2.23996 -2.82592 0
M  V30 5432 O 498.28 -1.65612 -3.77686 0
M  V30 5433 H 497.621 -0.470384 -0.468652 0
M  V30 5434 H 500.151 -1.82084 -0.933082 0
M  V30 5435 H 500.161 -2.37806 -3.3153 0
M  V30 5436 H 498.836 -3.26365 -2.57796 0
M  V30 5437 H 497.413 -1.60936 -3.36384 0
M  V30 5438 N 499.598 0.982988 -1.23187 0
M  V30 5439 C 500.875 1.69814 -0.970707 0
M  V30 5440 C 501.255 2.04811 0.511424 0
M  V30 5441 O 500.603 1.73924 1.48198 0
M  V30 5442 C 500.813 2.94143 -1.87831 0
M  V30 5443 C 502.161 3.66712 -2.14026 0
M  V30 5444 O 503.185 3.04171 -1.8536 0
M  V30 5445 O 502.044 4.79258 -2.62629 0
M  V30 5446 H 499.138 0.741659 -0.365884 0
M  V30 5447 H 501.684 1.03844 -1.34218 0
M  V30 5448 H 500.456 2.64858 -2.88038 0
M  V30 5449 H 500.079 3.6785 -1.50905 0
M  V30 5450 N 501.076 1.04316 1.18135 0
M  V30 5451 C 502.353 0.662166 1.84051 0
M  V30 5452 C 502.733 -0.858169 1.9287 0
M  V30 5453 O 502.081 -1.76062 1.45652 0
M  V30 5454 C 502.291 1.3409 3.22212 0
M  V30 5455 C 503.639 1.4733 3.9822 0
M  V30 5456 O 504.663 1.29921 3.31661 0
M  V30 5457 O 503.522 1.75722 5.17479 0
M  V30 5458 H 500.616 0.232005 0.79379 0
M  V30 5459 H 503.162 1.1422 1.25506 0
M  V30 5460 H 501.934 2.37853 3.10711 0
M  V30 5461 H 501.557 0.849649 3.88416 0
M  V30 5462 N 502.554 -1.34406 0.822964 0
M  V30 5463 C 503.779 -2.0304 0.423034 0
M  V30 5464 C 504.204 -1.61568 -0.963196 0
M  V30 5465 O 503.562 -0.800339 -1.62678 0
M  V30 5466 C 503.61 -3.56636 0.53321 0
M  V30 5467 O 502.714 -4.09971 -0.446939 0
M  V30 5468 H 502.055 -0.64075 0.174171 0
M  V30 5469 H 504.585 -1.71653 1.11339 0
M  V30 5470 H 504.595 -4.05945 0.408991 0
M  V30 5471 H 503.27 -3.86168 1.54425 0
M  V30 5472 H 501.847 -3.71835 -0.281601 0
M  V30 5473 N 504.032 -0.577932 -1.46621 0
M  V30 5474 C 505.278 -0.0700937 -2.03279 0
M  V30 5475 C 505.633 1.27376 -1.44198 0
M  V30 5476 O 504.926 1.82097 -0.595911 0
M  V30 5477 C 505.12 0.0590832 -3.57351 0
M  V30 5478 C 504.949 -1.2707 -4.31374 0
M  V30 5479 C 503.719 -1.84357 -4.70469 0
M  V30 5480 C 505.917 -2.19278 -4.65211 0
M  V30 5481 N 503.899 -3.11124 -5.29221 0
M  V30 5482 C 505.27 -3.30631 -5.24484 0
M  V30 5483 C 507.325 -2.19018 -4.47142 0
M  V30 5484 C 506.028 -4.41849 -5.67593 0
M  V30 5485 C 508.054 -3.29262 -4.91264 0
M  V30 5486 C 507.416 -4.39335 -5.50604 0
M  V30 5487 H 503.515 -0.0683127 -0.779011 0
M  V30 5488 H 506.099 -0.76978 -1.78836 0
M  V30 5489 H 504.27 0.727929 -3.81518 0
M  V30 5490 H 506.002 0.57087 -4.00653 0
M  V30 5491 H 502.757 -1.37906 -4.53077 0
M  V30 5492 H 503.181 -3.75794 -5.63123 0
M  V30 5493 H 507.823 -1.35191 -4.00604 0
M  V30 5494 H 505.541 -5.26421 -6.13112 0
M  V30 5495 H 509.127 -3.30172 -4.79038 0
M  V30 5496 H 508.007 -5.23233 -5.84121 0
M  V30 5497 N 505.51 1.54411 -0.315457 0
M  V30 5498 C 506.756 2.00716 0.289972 0
M  V30 5499 C 507.089 1.2034 1.5242 0
M  V30 5500 O 506.364 0.283579 1.92422 0
M  V30 5501 C 506.647 3.54507 0.632196 0
M  V30 5502 C 506.5 4.45615 -0.61218 0
M  V30 5503 C 507.819 4.15421 1.45305 0
M  V30 5504 H 504.938 0.729637 0.10392 0
M  V30 5505 H 507.58 1.8506 -0.430427 0
M  V30 5506 H 505.73 3.67979 1.24595 0
M  V30 5507 H 507.402 4.44026 -1.25053 0
M  V30 5508 H 505.645 4.15621 -1.24264 0
M  V30 5509 H 506.316 5.51022 -0.328379 0
M  V30 5510 H 508.792 4.05474 0.934331 0
M  V30 5511 H 507.668 5.23157 1.66127 0
M  V30 5512 H 507.929 3.68223 2.44671 0
M  V30 5513 N 506.988 0.0434614 1.5754 0
M  V30 5514 C 507.898 -0.94893 2.14552 0
M  V30 5515 C 508.914 -1.34707 1.10136 0
M  V30 5516 O 510.09 -1.42557 1.42266 0
M  V30 5517 C 507.155 -2.208 2.67298 0
M  V30 5518 C 506.216 -1.86893 3.86484 0
M  V30 5519 C 505.449 -3.06797 4.36705 0
M  V30 5520 O 505.672 -4.19921 3.86034 0
M  V30 5521 O 504.606 -2.8826 5.28384 0
M  V30 5522 H 508.432 -0.494099 2.99654 0
M  V30 5523 H 506.017 -0.177989 1.48336 0
M  V30 5524 H 507.899 -2.94686 3.01228 0
M  V30 5525 H 506.574 -2.65436 1.85272 0
M  V30 5526 H 505.481 -1.10347 3.57455 0
M  V30 5527 H 506.814 -1.47062 4.69716 0
M  V30 5528 N 508.466 -1.55915 -0.229846 0
M  V30 5529 C 509.713 -1.78542 -0.955452 0
M  V30 5530 C 510.041 -0.610785 -1.84661 0
M  V30 5531 O 509.296 0.405213 -1.91459 0
M  V30 5532 C 509.595 -3.06845 -1.8325 0
M  V30 5533 C 509.261 -4.37395 -1.09528 0
M  V30 5534 C 507.923 -4.72868 -0.891598 0
M  V30 5535 C 510.275 -5.18029 -0.574046 0
M  V30 5536 C 507.603 -5.86496 -0.154655 0
M  V30 5537 C 509.955 -6.32423 0.149513 0
M  V30 5538 C 508.619 -6.66504 0.364519 0
M  V30 5539 H 507.889 -0.653333 -0.349625 0
M  V30 5540 H 510.536 -1.90183 -0.224235 0
M  V30 5541 H 508.841 -2.90291 -2.63132 0
M  V30 5542 H 510.538 -3.21553 -2.39592 0
M  V30 5543 H 507.128 -4.09538 -1.26399 0
M  V30 5544 H 511.312 -4.91066 -0.718899 0
M  V30 5545 H 506.568 -6.11396 0.0222356 0
M  V30 5546 H 510.742 -6.94137 0.560947 0
M  V30 5547 H 508.369 -7.54397 0.937495 0
M  V30 5548 N 509.944 0.496216 -1.49584 0
M  V30 5549 C 511.193 1.24668 -1.58558 0
M  V30 5550 C 511.506 1.9359 -0.279703 0
M  V30 5551 O 512.712 2.70365 -0.248048 0
M  V30 5552 C 511.168 2.26388 -2.79779 0
M  V30 5553 C 510.776 1.63384 -4.17145 0
M  V30 5554 C 512.52 3.02233 -2.98086 0
M  V30 5555 C 510.427 2.63243 -5.29582 0
M  V30 5556 H 509.357 0.468995 -0.590389 0
M  V30 5557 H 512.008 0.519985 -1.75978 0
M  V30 5558 H 510.39 3.02241 -2.55863 0
M  V30 5559 H 511.564 0.93491 -4.51216 0
M  V30 5560 H 509.879 0.999121 -4.04236 0
M  V30 5561 H 512.476 3.76919 -3.79257 0
M  V30 5562 H 512.819 3.60132 -2.08831 0
M  V30 5563 H 513.352 2.33495 -3.22063 0
M  V30 5564 H 510.091 2.10119 -6.20911 0
M  V30 5565 H 509.611 3.31363 -4.99959 0
M  V30 5566 H 511.29 3.25575 -5.59115 0
M  V30 5567 N 511.423 1.38739 0.74761 0
M  V30 5568 C 512.333 1.38696 1.89211 0
M  V30 5569 C 513.349 0.283303 1.71678 0
M  V30 5570 O 514.525 0.522713 1.94498 0
M  V30 5571 C 511.59 1.21662 3.24653 0
M  V30 5572 C 510.651 2.41886 3.54669 0
M  V30 5573 C 509.884 2.25655 4.83648 0
M  V30 5574 O 510.107 1.25339 5.56459 0
M  V30 5575 O 509.041 3.14372 5.13277 0
M  V30 5576 H 512.867 2.35143 1.92202 0
M  V30 5577 H 510.452 1.19721 0.893708 0
M  V30 5578 H 512.334 1.14246 4.05618 0
M  V30 5579 H 511.009 0.283024 3.2246 0
M  V30 5580 H 509.916 2.54877 2.73841 0
M  V30 5581 H 511.249 3.33895 3.61628 0
M  V30 5582 N 512.901 -0.976442 1.23707 0
M  V30 5583 C 513.831 -2.08749 1.04624 0
M  V30 5584 C 514.812 -1.70057 -0.0380956 0
M  V30 5585 O 515.997 -1.93782 0.127308 0
M  V30 5586 C 513.127 -3.41335 0.640902 0
M  V30 5587 C 512.081 -3.93947 1.67302 0
M  V30 5588 C 511.407 -5.22774 1.12301 0
M  V30 5589 C 512.707 -4.22769 3.06697 0
M  V30 5590 H 514.401 -2.24972 1.97555 0
M  V30 5591 H 511.947 -1.08108 0.951247 0
M  V30 5592 H 513.9 -4.18489 0.494434 0
M  V30 5593 H 512.624 -3.24988 -0.324099 0
M  V30 5594 H 511.283 -3.18941 1.80755 0
M  V30 5595 H 510.931 -5.0278 0.148877 0
M  V30 5596 H 510.631 -5.58942 1.81267 0
M  V30 5597 H 512.155 -6.02546 0.988479 0
M  V30 5598 H 513.569 -4.90659 2.96524 0
M  V30 5599 H 511.966 -4.70147 3.72937 0
M  V30 5600 H 513.036 -3.29885 3.55392 0
M  V30 5601 N 514.379 -1.04941 -1.1758 0
M  V30 5602 C 515.656 -0.671918 -1.83697 0
M  V30 5603 C 516.036 0.847929 -1.93322 0
M  V30 5604 O 515.384 1.75287 -1.46583 0
M  V30 5605 C 515.594 -1.35797 -3.21497 0
M  V30 5606 C 516.942 -1.4944 -3.97433 0
M  V30 5607 O 517.966 -1.31678 -3.30967 0
M  V30 5608 O 516.825 -1.78463 -5.1654 0
M  V30 5609 H 513.919 -0.236212 -0.792548 0
M  V30 5610 H 516.465 -1.14884 -1.24899 0
M  V30 5611 H 515.237 -2.39498 -3.09446 0
M  V30 5612 H 514.86 -0.870236 -3.8796 0
M  V30 5613 N 515.857 1.33968 -0.830081 0
M  V30 5614 C 517.106 1.97323 -0.417928 0
M  V30 5615 C 517.419 1.6652 1.02618 0
M  V30 5616 O 518.625 2.2342 1.54259 0
M  V30 5617 C 517.081 3.53099 -0.696359 0
M  V30 5618 C 516.689 3.92788 -2.15457 0
M  V30 5619 C 518.433 4.23049 -0.350724 0
M  V30 5620 C 516.34 5.41506 -2.37751 0
M  V30 5621 H 515.27 0.738409 -0.152541 0
M  V30 5622 H 517.921 1.52711 -1.01744 0
M  V30 5623 H 516.303 3.95991 -0.0265904 0
M  V30 5624 H 517.477 3.6098 -2.86408 0
M  V30 5625 H 515.792 3.35795 -2.46232 0
M  V30 5626 H 518.389 5.32403 -0.495036 0
M  V30 5627 H 518.732 4.10279 0.705476 0
M  V30 5628 H 519.265 3.85657 -0.975362 0
M  V30 5629 H 516.004 5.5927 -3.41903 0
M  V30 5630 H 515.524 5.74804 -1.7135 0
M  V30 5631 H 517.203 6.0828 -2.20465 0
M  V30 5632 N 517.335 0.585699 1.46312 0
M  V30 5633 C 518.612 0.00542031 1.95599 0
M  V30 5634 C 518.992 -1.45619 1.52834 0
M  V30 5635 O 518.34 -2.14759 0.780446 0
M  V30 5636 C 518.55 0.180601 3.48532 0
M  V30 5637 C 519.898 0.049979 4.24571 0
M  V30 5638 O 520.922 0.109589 3.56031 0
M  V30 5639 O 519.781 -0.0832226 5.46437 0
M  V30 5640 H 516.875 -0.0481281 0.825598 0
M  V30 5641 H 519.421 0.654227 1.56582 0
M  V30 5642 H 518.193 1.19657 3.72556 0
M  V30 5643 H 517.816 -0.504498 3.94386 0
M  V30 5644 N 518.813 -1.54241 0.323641 0
M  V30 5645 C 519.723 -2.28033 -0.551205 0
M  V30 5646 C 520.739 -1.32388 -1.12913 0
M  V30 5647 O 521.915 -1.65403 -1.14908 0
M  V30 5648 C 518.98 -3.02382 -1.69606 0
M  V30 5649 C 518.041 -4.13612 -1.14993 0
M  V30 5650 C 517.274 -4.84407 -2.24022 0
M  V30 5651 O 517.497 -4.54716 -3.44368 0
M  V30 5652 O 516.431 -5.71312 -1.89436 0
M  V30 5653 H 520.257 -3.03662 0.048066 0
M  V30 5654 H 517.842 -1.49133 0.0893289 0
M  V30 5655 H 519.724 -3.48941 -2.36259 0
M  V30 5656 H 518.399 -2.29628 -2.28151 0
M  V30 5657 H 517.306 -3.71402 -0.448484 0
M  V30 5658 H 518.639 -4.8841 -0.609608 0
M  V30 5659 N 520.291 -0.0518155 -1.57515 0
M  V30 5660 C 521.702 0.483787 -1.80323 0
M  V30 5661 C 522.053 1.70879 -0.964099 0
M  V30 5662 O 521.178 2.15643 -0.180872 0
M  V30 5663 C 521.773 0.884459 -3.27052 0
M  V30 5664 C 520.332 1.36504 -3.50776 0
M  V30 5665 C 519.479 0.340539 -2.75201 0
M  V30 5666 H 522.43 -0.277691 -1.56252 0
M  V30 5667 H 522.451 1.74733 -3.38007 0
M  V30 5668 H 521.963 -0.00731093 -3.88099 0
M  V30 5669 H 520.064 2.27598 -2.95009 0
M  V30 5670 H 520.177 1.35675 -4.59488 0
M  V30 5671 H 518.541 0.81356 -2.41357 0
M  V30 5672 H 519.324 -0.543156 -3.38976 0
M  V30 5673 N 521.769 1.56035 0.221574 0
M  V30 5674 C 523.046 1.69837 0.970301 0
M  V30 5675 C 523.426 0.599065 2.02421 0
M  V30 5676 O 522.774 -0.393929 2.25079 0
M  V30 5677 C 522.984 3.11148 1.58076 0
M  V30 5678 C 524.332 3.70555 2.07302 0
M  V30 5679 O 525.356 3.14109 1.6797 0
M  V30 5680 O 524.215 4.69562 2.79596 0
M  V30 5681 H 521.309 0.691727 0.453257 0
M  V30 5682 H 523.855 1.68353 0.213358 0
M  V30 5683 H 522.627 3.82617 0.819759 0
M  V30 5684 H 522.25 3.16749 2.40324 0
M  V30 5685 N 523.247 -0.488276 1.49845 0
M  V30 5686 C 524.157 -1.61451 1.70207 0
M  V30 5687 C 525.173 -1.63877 0.584846 0
M  V30 5688 O 526.349 -1.82063 0.861107 0
M  V30 5689 C 523.414 -2.9776 1.77594 0
M  V30 5690 C 522.475 -3.05861 3.01243 0
M  V30 5691 C 521.708 -4.35668 3.08268 0
M  V30 5692 O 521.931 -5.25197 2.22541 0
M  V30 5693 O 520.865 -4.49005 4.00847 0
M  V30 5694 H 524.691 -1.47199 2.65643 0
M  V30 5695 H 522.276 -0.665939 1.33737 0
M  V30 5696 H 524.158 -3.7875 1.84732 0
M  V30 5697 H 522.833 -3.12248 0.8534 0
M  V30 5698 H 521.74 -2.24012 2.99616 0
M  V30 5699 H 523.073 -2.96304 3.9302 0
M  V30 5700 N 524.725 -1.39134 -0.740242 0
M  V30 5701 C 525.672 -1.37434 -1.8542 0
M  V30 5702 C 526.642 -0.234822 -1.64432 0
M  V30 5703 O 527.827 -0.429125 -1.85912 0
M  V30 5704 C 524.967 -1.21844 -3.22875 0
M  V30 5705 C 524.08 -2.45296 -3.55603 0
M  V30 5706 C 523.215 -2.22334 -4.82432 0
M  V30 5707 C 522.254 -3.41488 -5.07988 0
M  V30 5708 N 521.391 -3.17877 -6.26018 0
M  V30 5709 H 526.231 -2.3266 -1.86207 0
M  V30 5710 H 523.768 -1.15578 -0.909946 0
M  V30 5711 H 525.726 -1.10818 -4.02213 0
M  V30 5712 H 524.356 -0.3025 -3.21379 0
M  V30 5713 H 523.408 -2.66945 -2.71006 0
M  V30 5714 H 524.72 -3.34063 -3.7041 0
M  V30 5715 H 523.874 -2.0852 -5.69741 0
M  V30 5716 H 522.613 -1.30954 -4.6979 0
M  V30 5717 H 521.618 -3.55807 -4.19144 0
M  V30 5718 H 522.843 -4.33763 -5.22519 0
M  V30 5719 H 520.789 -2.29156 -6.14673 0
M  V30 5720 H 520.706 -4.00198 -6.41387 0
M  V30 5721 H 521.974 -3.07746 -7.16179 0
M  V30 5722 N 526.204 0.969867 -1.24223 0
M  V30 5723 C 527.432 1.74756 -1.10761 0
M  V30 5724 C 527.847 1.85713 0.340041 0
M  V30 5725 O 527.204 1.34389 1.23474 0
M  V30 5726 C 527.255 3.16915 -1.73917 0
M  V30 5727 O 526.976 3.06511 -3.13021 0
M  V30 5728 C 528.477 4.11032 -1.66036 0
M  V30 5729 H 525.697 0.548092 -0.387087 0
M  V30 5730 H 528.241 1.2178 -1.64286 0
M  V30 5731 H 526.396 3.66884 -1.244 0
M  V30 5732 H 526.81 3.96079 -3.43834 0
M  V30 5733 H 528.284 5.08446 -2.14911 0
M  V30 5734 H 528.761 4.34785 -0.621159 0
M  V30 5735 H 529.367 3.66972 -2.14969 0
M  V30 5736 N 527.682 1.05563 1.17022 0
M  V30 5737 C 528.592 0.670758 2.24807 0
M  V30 5738 C 529.608 -0.309865 1.71219 0
M  V30 5739 O 530.784 -0.161025 2.00755 0
M  V30 5740 C 527.849 0.055337 3.46656 0
M  V30 5741 C 526.91 1.08688 4.15314 0
M  V30 5742 C 526.143 0.500736 5.31346 0
M  V30 5743 O 526.366 -0.688718 5.66227 0
M  V30 5744 O 525.3 1.23683 5.89055 0
M  V30 5745 H 529.126 1.56914 2.60023 0
M  V30 5746 H 526.711 0.827428 1.24395 0
M  V30 5747 H 528.593 -0.286492 4.20425 0
M  V30 5748 H 527.268 -0.816638 3.13229 0
M  V30 5749 H 526.175 1.48077 3.43546 0
M  V30 5750 H 527.508 1.93014 4.52777 0
M  V30 5751 N 529.16 -1.33526 0.837174 0
M  V30 5752 C 530.07 -2.33023 0.271568 0
M  V30 5753 C 531.086 -1.63272 -0.601514 0
M  V30 5754 O 532.262 -1.94939 -0.506038 0
M  V30 5755 C 529.327 -3.42382 -0.545448 0
M  V30 5756 C 528.388 -4.27857 0.351709 0
M  V30 5757 C 527.621 -5.31994 -0.426409 0
M  V30 5758 O 527.844 -5.45763 -1.65828 0
M  V30 5759 O 526.778 -6.01572 0.1987 0
M  V30 5760 H 530.604 -2.83256 1.09545 0
M  V30 5761 H 528.189 -1.36837 0.599655 0
M  V30 5762 H 530.071 -4.09122 -1.00979 0
M  V30 5763 H 528.746 -2.94369 -1.34641 0
M  V30 5764 H 527.653 -3.6399 0.863853 0
M  V30 5765 H 528.986 -4.79349 1.1174 0
M  V30 5766 N 530.638 -0.59345 -1.46 0
M  V30 5767 C 531.863 -0.0872365 -2.07216 0
M  V30 5768 C 532.288 1.2131 -1.43755 0
M  V30 5769 O 531.646 1.73528 -0.525152 0
M  V30 5770 C 531.694 0.0538197 -3.6056 0
M  V30 5771 O 530.798 1.10765 -3.97247 0
M  V30 5772 H 530.139 -0.0676598 -0.660544 0
M  V30 5773 H 532.669 -0.819445 -1.87473 0
M  V30 5774 H 532.679 0.256567 -4.07193 0
M  V30 5775 H 531.354 -0.895739 -4.0614 0
M  V30 5776 H 529.931 0.882501 -3.62307 0
M  V30 5777 N 532.116 1.54067 -0.331816 0
M  V30 5778 C 533.393 1.92915 0.322955 0
M  V30 5779 C 533.773 1.26225 1.69205 0
M  V30 5780 O 533.121 0.408919 2.24811 0
M  V30 5781 C 533.331 3.46619 0.406946 0
M  V30 5782 C 534.679 4.19386 0.663339 0
M  V30 5783 O 535.703 3.5282 0.489536 0
M  V30 5784 O 534.562 5.37288 0.999193 0
M  V30 5785 H 531.656 0.805808 0.186016 0
M  V30 5786 H 534.202 1.65342 -0.382135 0
M  V30 5787 H 532.974 3.87354 -0.554287 0
M  V30 5788 H 532.597 3.80324 1.15929 0
M  V30 5789 N 533.594 0.0601682 1.57485 0
M  V30 5790 C 534.822 -0.620937 1.97363 0
M  V30 5791 C 535.237 -1.63846 0.938082 0
M  V30 5792 O 534.594 -1.82339 -0.0766578 0
M  V30 5793 C 534.645 -1.29987 3.37321 0
M  V30 5794 O 534.366 -0.323081 4.36907 0
M  V30 5795 C 535.867 -2.06989 3.92008 0
M  V30 5796 H 533.087 -0.169135 0.649334 0
M  V30 5797 H 535.631 0.129132 2.04092 0
M  V30 5798 H 533.786 -2.0011 3.31715 0
M  V30 5799 H 534.2 -0.808754 5.18227 0
M  V30 5800 H 535.674 -2.49901 4.92192 0
M  V30 5801 H 536.151 -2.92173 3.2792 0
M  V30 5802 H 536.757 -1.41757 4.0098 0
M  V30 5803 N 535.072 -1.5615 -0.213296 0
M  V30 5804 C 536.349 -1.70349 -0.961281 0
M  V30 5805 C 536.729 -0.609791 -2.02101 0
M  V30 5806 O 536.077 0.381987 -2.25285 0
M  V30 5807 C 536.287 -3.11982 -1.56424 0
M  V30 5808 C 537.635 -3.71649 -2.05334 0
M  V30 5809 O 538.659 -3.14995 -1.66302 0
M  V30 5810 O 537.518 -4.71038 -2.77102 0
M  V30 5811 H 534.612 -0.694121 -0.449582 0
M  V30 5812 H 537.158 -1.68464 -0.204426 0
M  V30 5813 H 535.93 -3.83046 -0.799457 0
M  V30 5814 H 535.553 -3.18019 -2.38641 0
M  V30 5815 N 536.55 0.480323 -1.50102 0
M  V30 5816 C 537.966 0.813295 -1.37323 0
M  V30 5817 C 538.166 1.97027 -0.422206 0
M  V30 5818 O 537.222 2.5212 0.138563 0
M  V30 5819 C 538.535 1.13404 -2.78496 0
M  V30 5820 C 540.083 1.24104 -2.87345 0
M  V30 5821 C 540.558 1.59497 -4.29331 0
M  V30 5822 N 542.049 1.66507 -4.32238 0
M  V30 5823 C 542.784 1.95378 -5.39087 0
M  V30 5824 N 542.28 2.22333 -6.56155 0
M  V30 5825 N 544.073 1.96803 -5.26522 0
M  V30 5826 H 536.224 -0.282291 -2.10516 0
M  V30 5827 H 538.487 -0.063752 -0.945854 0
M  V30 5828 H 538.193 0.357064 -3.49883 0
M  V30 5829 H 538.067 2.07251 -3.15162 0
M  V30 5830 H 540.454 2.00871 -2.16183 0
M  V30 5831 H 540.535 0.282593 -2.54234 0
M  V30 5832 H 540.179 0.832736 -5.01027 0
M  V30 5833 H 540.109 2.56477 -4.59921 0
M  V30 5834 H 542.6 1.47753 -3.47818 0
M  V30 5835 H 542.913 2.43611 -7.33399 0
M  V30 5836 H 541.258 2.19745 -6.59346 0
M  V30 5837 H 544.449 1.75235 -4.34062 0
M  V30 5838 H 544.622 2.18969 -6.09883 0
M  V30 5839 N 538.028 1.39524 0.732853 0
M  V30 5840 C 538.958 1.41153 1.86005 0
M  V30 5841 C 539.939 0.274614 1.67869 0
M  V30 5842 O 541.124 0.480745 1.88155 0
M  V30 5843 C 538.254 1.25638 3.23778 0
M  V30 5844 C 537.208 2.36752 3.56556 0
M  V30 5845 C 536.534 2.06326 4.93289 0
M  V30 5846 C 537.834 3.79069 3.5931 0
M  V30 5847 H 539.528 2.35484 1.84899 0
M  V30 5848 H 537.074 1.13348 0.888162 0
M  V30 5849 H 539.027 1.25398 4.0231 0
M  V30 5850 H 537.751 0.277772 3.25417 0
M  V30 5851 H 536.41 2.36213 2.80355 0
M  V30 5852 H 536.058 1.06897 4.9151 0
M  V30 5853 H 535.758 2.80757 5.16187 0
M  V30 5854 H 537.282 2.07739 5.74175 0
M  V30 5855 H 538.696 3.81526 4.27914 0
M  V30 5856 H 537.093 4.52878 3.93728 0
M  V30 5857 H 538.163 4.09893 2.59068 0
M  V30 5858 N 539.506 -0.963266 1.24736 0
M  V30 5859 C 540.436 -2.07628 1.06832 0
M  V30 5860 C 541.417 -1.70088 -0.0200566 0
M  V30 5861 O 542.602 -1.93636 0.147854 0
M  V30 5862 C 539.732 -3.40636 0.677069 0
M  V30 5863 C 538.686 -3.9215 1.71471 0
M  V30 5864 C 538.012 -5.21553 1.1784 0
M  V30 5865 C 539.312 -4.19493 3.11164 0
M  V30 5866 H 541.006 -2.22864 1.9993 0
M  V30 5867 H 538.552 -1.07093 0.96266 0
M  V30 5868 H 540.505 -4.17941 0.538792 0
M  V30 5869 H 539.229 -3.25313 -0.289612 0
M  V30 5870 H 537.888 -3.17005 1.84128 0
M  V30 5871 H 537.536 -5.02593 0.202195 0
M  V30 5872 H 537.236 -5.56988 1.87185 0
M  V30 5873 H 538.76 -6.01463 1.05233 0
M  V30 5874 H 540.174 -4.87487 3.01711 0
M  V30 5875 H 538.571 -4.66165 3.77902 0
M  V30 5876 H 539.641 -3.26097 3.58871 0
M  V30 5877 N 540.985 -1.06182 -1.16461 0
M  V30 5878 C 542.21 -0.798599 -1.91408 0
M  V30 5879 C 542.635 0.640987 -1.76842 0
M  V30 5880 O 541.993 1.44652 -1.09296 0
M  V30 5881 C 542.041 -1.19665 -3.40165 0
M  V30 5882 O 541.145 -0.334768 -4.11039 0
M  V30 5883 H 540.486 -0.291961 -0.596368 0
M  V30 5884 H 543.016 -1.41732 -1.47557 0
M  V30 5885 H 543.026 -1.16772 -3.90933 0
M  V30 5886 H 541.701 -2.24526 -3.50087 0
M  V30 5887 H 540.278 -0.425168 -3.70468 0
M  V30 5888 N 542.463 1.3308 -0.844243 0
M  V30 5889 C 543.688 2.02341 -0.455282 0
M  V30 5890 C 544.113 1.6308 0.93737 0
M  V30 5891 O 543.471 0.826118 1.61385 0
M  V30 5892 C 543.519 3.55743 -0.58988 0
M  V30 5893 O 542.623 4.1063 0.38166 0
M  V30 5894 H 541.964 0.637898 -0.184343 0
M  V30 5895 H 544.494 1.6986 -1.14056 0
M  V30 5896 H 544.504 4.05243 -0.473522 0
M  V30 5897 H 543.179 3.83662 -1.60549 0
M  V30 5898 H 541.756 3.72236 0.22241 0
M  V30 5899 N 543.941 0.601185 1.45683 0
M  V30 5900 C 545.218 0.0261659 1.95582 0
M  V30 5901 C 545.598 -1.4399 1.5437 0
M  V30 5902 O 544.946 -2.13919 0.80318 0
M  V30 5903 C 545.156 0.217557 3.48321 0
M  V30 5904 C 546.504 0.0950076 4.24494 0
M  V30 5905 O 547.528 0.147345 3.55895 0
M  V30 5906 O 546.387 -0.025261 5.46494 0
M  V30 5907 H 543.481 -0.0393688 0.826062 0
M  V30 5908 H 546.027 0.670798 1.55879 0
M  V30 5909 H 544.799 1.23601 3.71266 0
M  V30 5910 H 544.422 -0.46264 3.94899 0
M  V30 5911 N 545.419 -1.53889 0.339982 0
M  V30 5912 C 546.369 -2.2165 -0.534354 0
M  V30 5913 C 547.353 -1.20266 -1.06887 0
M  V30 5914 O 548.545 -1.45827 -1.00316 0
M  V30 5915 C 545.674 -2.99014 -1.68659 0
M  V30 5916 C 544.76 -4.07751 -1.16618 0
M  V30 5917 N 545.151 -5.04469 -0.366717 0
M  V30 5918 C 543.449 -4.21998 -1.4434 0
M  V30 5919 C 544.15 -5.81638 -0.0847275 0
M  V30 5920 N 543.126 -5.39388 -0.675391 0
M  V30 5921 H 546.928 -2.93781 0.0835562 0
M  V30 5922 H 544.442 -1.61736 0.146665 0
M  V30 5923 H 546.439 -3.46056 -2.32489 0
M  V30 5924 H 545.099 -2.28408 -2.30781 0
M  V30 5925 H 546.11 -5.17899 -0.00811038 0
M  V30 5926 H 542.787 -3.62612 -2.06928 0
M  V30 5927 H 544.177 -6.69563 0.559943 0
M  V30 5928 N 546.897 -0.0685191 -1.57451 0
M  V30 5929 C 547.807 0.914677 -2.16034 0
M  V30 5930 C 548.823 1.32938 -1.12265 0
M  V30 5931 O 549.999 1.40275 -1.44516 0
M  V30 5932 C 547.064 2.16519 -2.70777 0
M  V30 5933 C 546.125 1.80721 -3.89408 0
M  V30 5934 C 545.358 2.9981 -4.41531 0
M  V30 5935 O 545.581 4.13727 -3.92666 0
M  V30 5936 O 544.515 2.79817 -5.32903 0
M  V30 5937 H 548.341 0.446364 -3.00402 0
M  V30 5938 H 545.926 0.154367 -1.486 0
M  V30 5939 H 547.808 2.89856 -3.05878 0
M  V30 5940 H 546.483 2.62454 -1.89471 0
M  V30 5941 H 545.39 1.04646 -3.59166 0
M  V30 5942 H 546.723 1.39571 -4.71997 0
M  V30 5943 N 548.375 1.56261 0.205012 0
M  V30 5944 C 549.322 1.93754 1.25411 0
M  V30 5945 C 550.292 0.796826 1.45739 0
M  V30 5946 O 551.477 1.05414 1.59036 0
M  V30 5947 C 548.617 2.27383 2.59598 0
M  V30 5948 C 547.73 3.5447 2.46931 0
M  V30 5949 C 546.865 3.77468 3.73753 0
M  V30 5950 C 545.904 4.98014 3.55877 0
M  V30 5951 N 545.041 5.17316 4.74688 0
M  V30 5952 H 549.881 2.83203 0.92737 0
M  V30 5953 H 547.418 1.40158 0.446574 0
M  V30 5954 H 549.376 2.44895 3.37761 0
M  V30 5955 H 548.006 1.41088 2.90335 0
M  V30 5956 H 547.058 3.45061 1.60116 0
M  V30 5957 H 548.37 4.42789 2.29651 0
M  V30 5958 H 547.524 3.95165 4.60358 0
M  V30 5959 H 546.263 2.87461 3.93976 0
M  V30 5960 H 545.268 4.80249 2.67657 0
M  V30 5961 H 546.493 5.8952 3.37109 0
M  V30 5962 H 544.439 4.30255 4.95194 0
M  V30 5963 H 544.356 5.99796 4.60197 0
M  V30 5964 H 545.624 5.39463 5.62672 0
M  V30 5965 N 549.853 -0.472356 1.50355 0
M  V30 5966 C 551.078 -1.25251 1.65309 0
M  V30 5967 C 551.503 -1.85081 0.335643 0
M  V30 5968 O 550.861 -1.67227 -0.700335 0
M  V30 5969 C 550.909 -2.3379 2.74544 0
M  V30 5970 O 550.013 -3.38401 2.35709 0
M  V30 5971 H 549.354 -0.368539 0.552336 0
M  V30 5972 H 551.884 -0.562271 1.96722 0
M  V30 5973 H 551.894 -2.79121 2.97583 0
M  V30 5974 H 550.569 -1.89614 3.70161 0
M  V30 5975 H 549.146 -2.9879 2.23112 0
M  V30 5976 N 551.331 -1.39911 -0.725443 0
M  V30 5977 C 552.281 -1.35878 -1.83088 0
M  V30 5978 C 553.265 -0.237989 -1.5913 0
M  V30 5979 O 554.457 -0.476302 -1.70471 0
M  V30 5980 C 551.586 -1.21403 -3.21117 0
M  V30 5981 C 550.672 -2.38223 -3.50871 0
M  V30 5982 N 551.063 -3.63703 -3.51502 0
M  V30 5983 C 549.361 -2.31388 -3.81281 0
M  V30 5984 C 550.062 -4.4101 -3.79322 0
M  V30 5985 N 549.038 -3.7072 -3.97577 0
M  V30 5986 H 552.84 -2.3085 -1.81895 0
M  V30 5987 H 550.354 -1.33543 -0.924125 0
M  V30 5988 H 552.351 -1.16597 -4.00263 0
M  V30 5989 H 551.011 -0.273902 -3.23543 0
M  V30 5990 H 552.022 -3.96998 -3.32586 0
M  V30 5991 H 548.699 -1.45689 -3.91256 0
M  V30 5992 H 550.089 -5.49819 -3.86198 0
M  V30 5993 N 552.809 0.956637 -1.25245 0
M  V30 5994 C 554.034 1.74104 -1.12706 0
M  V30 5995 C 554.459 1.85436 0.315429 0
M  V30 5996 O 553.817 1.33334 1.22848 0
M  V30 5997 C 553.865 3.1338 -1.78396 0
M  V30 5998 O 552.969 3.98485 -1.06224 0
M  V30 5999 H 552.31 0.53476 -0.393609 0
M  V30 6000 H 554.84 1.19924 -1.65769 0
M  V30 6001 H 554.85 3.6385 -1.846 0
M  V30 6002 H 553.525 3.04448 -2.83345 0
M  V30 6003 H 552.102 3.56952 -1.07886 0
M  V30 6004 N 554.287 1.06798 1.15896 0
M  V30 6005 C 555.235 0.677525 2.22514 0
M  V30 6006 C 556.229 -0.308994 1.66558 0
M  V30 6007 O 557.435 -0.173308 1.79164 0
M  V30 6008 H 553.81 0.200994 0.724642 0
M  V30 6009 H 555.781 1.5865 2.52731 0
M  V30 6010 C 554.53 0.0854153 3.47595 0
M  V30 6011 H 553.853 0.835645 3.90969 0
M  V30 6012 H 555.293 -0.150199 4.23734 0
M  V30 6013 C 553.752 -1.1724 3.15843 0
M  V30 6014 O 554.282 -2.25965 3.32119 0
M  V30 6015 N 552.488 -1.07636 2.69931 0
M  V30 6016 H 552.035 -0.191559 2.56887 0
M  V30 6017 H 551.993 -1.91876 2.4906 0
M  V30 6018 N 555.766 -1.3263 0.851289 0
M  V30 6019 C 556.696 -2.31449 0.308771 0
M  V30 6020 C 557.677 -1.59531 -0.590255 0
M  V30 6021 O 558.862 -1.87351 -0.511205 0
M  V30 6022 C 555.992 -3.43586 -0.506548 0
M  V30 6023 C 554.946 -4.26963 0.297753 0
M  V30 6024 C 554.272 -5.30831 -0.642094 0
M  V30 6025 C 555.572 -4.99643 1.52166 0
M  V30 6026 H 557.266 -2.77074 1.13447 0
M  V30 6027 H 554.812 -1.33207 0.546971 0
M  V30 6028 H 556.765 -4.11754 -0.896474 0
M  V30 6029 H 555.489 -2.96681 -1.36558 0
M  V30 6030 H 554.148 -3.60437 0.669391 0
M  V30 6031 H 553.796 -4.8018 -1.49788 0
M  V30 6032 H 553.496 -5.87501 -0.107968 0
M  V30 6033 H 555.02 -6.01862 -1.02927 0
M  V30 6034 H 556.434 -5.6051 1.20421 0
M  V30 6035 H 554.831 -5.66022 1.99347 0
M  V30 6036 H 555.901 -4.27701 2.28474 0
M  V30 6037 N 557.244 -0.608902 -1.45362 0
M  V30 6038 C 558.492 -0.104401 -2.0183 0
M  V30 6039 C 558.813 1.27007 -1.47967 0
M  V30 6040 O 558.083 1.83924 -0.674455 0
M  V30 6041 H 556.663 -0.0356042 -0.746151 0
M  V30 6042 H 559.325 -0.790596 -1.78145 0
M  V30 6043 H 558.421 -0.0551793 -3.12051 0
M  V30 6044 N 558.722 1.53707 -0.348139 0
M  V30 6045 C 559.968 2.01286 0.247332 0
M  V30 6046 C 560.301 1.23546 1.49834 0
M  V30 6047 O 559.576 0.324331 1.91777 0
M  V30 6048 C 559.859 3.55768 0.556858 0
M  V30 6049 C 559.712 4.44216 -0.706564 0
M  V30 6050 C 561.031 4.1841 1.3646 0
M  V30 6051 H 558.15 0.731677 0.0884201 0
M  V30 6052 H 560.792 1.84106 -0.469584 0
M  V30 6053 H 558.942 3.70539 1.16761 0
M  V30 6054 H 560.614 4.41274 -1.34444 0
M  V30 6055 H 558.857 4.12892 -1.33052 0
M  V30 6056 H 559.528 5.50202 -0.445186 0
M  V30 6057 H 562.004 4.07365 0.848113 0
M  V30 6058 H 560.88 5.26563 1.54992 0
M  V30 6059 H 561.141 3.7333 2.36805 0
M  V30 6060 N 560.2 0.0768682 1.57412 0
M  V30 6061 C 561.147 -0.888577 2.13009 0
M  V30 6062 C 562.117 -1.29198 1.0439 0
M  V30 6063 O 563.302 -1.37694 1.3208 0
M  V30 6064 C 560.442 -2.14899 2.70023 0
M  V30 6065 C 559.555 -1.79777 3.92816 0
M  V30 6066 C 558.69 -3.00467 4.38056 0
M  V30 6067 C 557.729 -2.61385 5.53484 0
M  V30 6068 N 556.866 -3.74851 5.93659 0
M  V30 6069 H 561.706 -0.407593 2.95199 0
M  V30 6070 H 559.243 -0.189534 1.45874 0
M  V30 6071 H 561.201 -2.88688 3.0119 0
M  V30 6072 H 559.831 -2.60529 1.9059 0
M  V30 6073 H 558.883 -0.960301 3.68079 0
M  V30 6074 H 560.195 -1.47027 4.76639 0
M  V30 6075 H 559.349 -3.82529 4.7091 0
M  V30 6076 H 558.088 -3.36413 3.53097 0
M  V30 6077 H 557.093 -1.77746 5.20275 0
M  V30 6078 H 558.318 -2.26603 6.40178 0
M  V30 6079 H 556.264 -4.1055 5.11649 0
M  V30 6080 H 556.181 -3.45887 6.72234 0
M  V30 6081 H 557.449 -4.57477 6.31138 0
M  V30 6082 N 561.678 -1.56367 -0.196722 0
M  V30 6083 C 562.955 -1.71359 -0.943159 0
M  V30 6084 C 563.335 -0.631192 -2.01443 0
M  V30 6085 O 562.683 0.358071 -2.25677 0
M  V30 6086 C 562.893 -3.13623 -1.53106 0
M  V30 6087 C 564.241 -3.73806 -2.01381 0
M  V30 6088 O 565.265 -3.16742 -1.62951 0
M  V30 6089 O 564.124 -4.73951 -2.7209 0
M  V30 6090 H 561.218 -0.698851 -0.442195 0
M  V30 6091 H 563.764 -1.68672 -0.186547 0
M  V30 6092 H 562.536 -3.83873 -0.758785 0
M  V30 6093 H 562.159 -3.20532 -2.35255 0
M  V30 6094 N 563.156 0.464375 -1.50603 0
M  V30 6095 C 564.404 1.21356 -1.61608 0
M  V30 6096 C 564.725 1.92329 -0.321643 0
M  V30 6097 O 563.995 1.84403 0.661232 0
M  V30 6098 H 562.575 0.45094 -0.595535 0
M  V30 6099 H 565.237 0.535046 -1.87412 0
M  V30 6100 H 564.333 1.95783 -2.43054 0
M  V30 6101 N 564.634 1.40294 0.718013 0
M  V30 6102 C 565.911 1.2894 1.47084 0
M  V30 6103 C 566.291 -0.0933625 2.10893 0
M  V30 6104 O 565.639 -1.10598 1.99951 0
M  V30 6105 C 565.849 2.4264 2.50852 0
M  V30 6106 C 567.197 2.8276 3.16752 0
M  V30 6107 O 568.221 2.42215 2.61171 0
M  V30 6108 O 567.08 3.528 4.17366 0
M  V30 6109 H 564.174 0.506236 0.653952 0
M  V30 6110 H 566.72 1.52208 0.750394 0
M  V30 6111 H 565.492 3.35009 2.022 0
M  V30 6112 H 565.115 2.21129 3.30435 0
M  V30 6113 N 566.112 -0.949982 1.2575 0
M  V30 6114 C 567.337 -1.73503 1.13628 0
M  V30 6115 C 567.762 -1.85601 -0.30559 0
M  V30 6116 O 567.12 -1.33984 -1.22139 0
M  V30 6117 C 567.168 -3.1243 1.80055 0
M  V30 6118 O 566.272 -3.97916 1.08336 0
M  V30 6119 H 565.613 -0.532665 0.396439 0
M  V30 6120 H 568.143 -1.19043 1.66403 0
M  V30 6121 H 568.153 -3.62866 1.86527 0
M  V30 6122 H 566.828 -3.02941 2.84956 0
M  V30 6123 H 565.405 -3.56375 1.09777 0
M  V30 6124 N 567.59 -1.07411 -1.15328 0
M  V30 6125 C 568.838 -0.796073 -1.85761 0
M  V30 6126 C 569.159 0.679864 -1.82764 0
M  V30 6127 O 568.429 1.49242 -1.269 0
M  V30 6128 H 567.009 -0.291495 -0.687779 0
M  V30 6129 H 569.671 -1.35799 -1.39802 0
M  V30 6130 H 568.767 -1.13114 -2.90881 0
M  V30 6131 N 569.068 1.32177 -0.85831 0
M  V30 6132 C 570.484 1.49873 -0.548656 0
M  V30 6133 C 570.684 1.79278 0.919874 0
M  V30 6134 O 569.74 1.86451 1.70271 0
M  V30 6135 C 571.053 2.64043 -1.4388 0
M  V30 6136 C 572.601 2.77928 -1.43961 0
M  V30 6137 C 573.076 3.95182 -2.31506 0
M  V30 6138 N 574.567 4.0245 -2.29321 0
M  V30 6139 C 575.302 4.9242 -2.93786 0
M  V30 6140 N 574.798 5.87373 -3.67376 0
M  V30 6141 N 576.591 4.85572 -2.83155 0
M  V30 6142 H 568.742 1.11357 -1.80868 0
M  V30 6143 H 571.005 0.549175 -0.772729 0
M  V30 6144 H 570.711 2.49055 -2.48324 0
M  V30 6145 H 570.585 3.59912 -1.12885 0
M  V30 6146 H 572.972 2.92338 -0.402813 0
M  V30 6147 H 573.053 1.82762 -1.78974 0
M  V30 6148 H 572.697 3.81531 -3.35256 0
M  V30 6149 H 572.627 4.89633 -1.93823 0
M  V30 6150 H 575.118 3.34507 -1.75822 0
M  V30 6151 H 575.431 6.52728 -4.13722 0
M  V30 6152 H 573.776 5.87388 -3.71484 0
M  V30 6153 H 576.967 4.10363 -2.25211 0
M  V30 6154 H 577.14 5.55486 -3.33676 0
M  V30 6155 N 570.547 0.616602 1.45037 0
M  V30 6156 C 571.775 0.121968 2.0654 0
M  V30 6157 C 572.19 -1.19743 1.45969 0
M  V30 6158 O 571.547 -1.73133 0.577168 0
M  V30 6159 C 571.598 -0.0145171 3.61497 0
M  V30 6160 O 571.319 1.25269 4.19809 0
M  V30 6161 C 572.82 -0.539555 4.40004 0
M  V30 6162 H 570.04 0.0729837 0.667019 0
M  V30 6163 H 572.584 0.846891 1.8614 0
M  V30 6164 H 570.739 -0.689809 3.81209 0
M  V30 6165 H 571.153 1.08816 5.13088 0
M  V30 6166 H 572.627 -0.584112 5.48901 0
M  V30 6167 H 573.104 -1.56368 4.10421 0
M  V30 6168 H 573.71 0.101995 4.25178 0
M  V30 6169 N 572.025 -1.5352 0.356285 0
M  V30 6170 C 573.25 -2.06007 -0.239961 0
M  V30 6171 C 573.675 -1.22872 -1.42422 0
M  V30 6172 O 573.033 -0.245516 -1.7963 0
M  V30 6173 C 573.081 -3.5522 -0.620587 0
M  V30 6174 O 572.185 -3.74864 -1.71902 0
M  V30 6175 H 571.526 -0.662961 -0.0371377 0
M  V30 6176 H 574.056 -1.98033 0.514194 0
M  V30 6177 H 574.066 -3.98081 -0.894197 0
M  V30 6178 H 572.741 -4.15175 0.245407 0
M  V30 6179 H 571.318 -3.43904 -1.44169 0
M  V30 6180 N 573.503 -0.0852151 -1.57369 0
M  V30 6181 C 574.743 0.584297 -1.95871 0
M  V30 6182 C 575.107 1.6596 -0.965473 0
M  V30 6183 O 576.308 2.38561 -1.23862 0
M  V30 6184 C 574.579 1.13411 -3.38929 0
M  V30 6185 S 576.138 1.81687 -3.99419 0
M  V30 6186 H 572.956 0.19095 -0.684879 0
M  V30 6187 H 575.558 -0.162267 -1.94825 0
M  V30 6188 H 574.262 0.339845 -4.0899 0
M  V30 6189 H 573.793 1.91672 -3.43548 0
M  V30 6190 H 575.808 3.10037 -3.87417 0
M  V30 6191 N 574.981 1.5647 0.188427 0
M  V30 6192 C 576.221 1.82803 0.914469 0
M  V30 6193 C 576.585 0.663681 1.80165 0
M  V30 6194 O 577.786 0.807059 2.56398 0
M  V30 6195 C 576.057 3.14187 1.70357 0
M  V30 6196 S 577.616 3.61947 2.48072 0
M  V30 6197 H 574.434 0.641497 0.306599 0
M  V30 6198 H 577.036 1.94694 0.177361 0
M  V30 6199 H 575.74 3.96937 1.04255 0
M  V30 6200 H 575.271 3.05192 2.48237 0
M  V30 6201 H 577.286 3.27913 3.72407 0
M  V30 6202 N 576.459 -0.456382 1.50847 0
M  V30 6203 C 577.369 -1.57805 1.73594 0
M  V30 6204 C 578.385 -1.62599 0.619476 0
M  V30 6205 O 579.561 -1.80195 0.899532 0
M  V30 6206 C 576.626 -2.93926 1.8387 0
M  V30 6207 C 575.687 -2.99402 3.07663 0
M  V30 6208 C 574.92 -4.29031 3.1744 0
M  V30 6209 O 575.143 -5.20358 2.33631 0
M  V30 6210 O 574.077 -4.40401 4.10281 0
M  V30 6211 H 577.903 -1.41531 2.68705 0
M  V30 6212 H 575.488 -0.637422 1.3512 0
M  V30 6213 H 577.37 -3.74747 1.92725 0
M  V30 6214 H 576.045 -3.10368 0.91944 0
M  V30 6215 H 574.952 -2.17606 3.043 0
M  V30 6216 H 576.285 -2.87901 3.99216 0
M  V30 6217 N 577.937 -1.40673 -0.710563 0
M  V30 6218 C 579.348 -1.34975 -1.28991 0
M  V30 6219 C 579.699 -0.0256272 -1.96183 0
M  V30 6220 O 578.824 0.876339 -1.97862 0
M  V30 6221 C 579.419 -2.44467 -2.34567 0
M  V30 6222 C 577.978 -2.42213 -2.88114 0
M  V30 6223 C 577.125 -2.25085 -1.61963 0
M  V30 6224 H 580.076 -1.50406 -0.506343 0
M  V30 6225 H 580.097 -2.12663 -3.15523 0
M  V30 6226 H 579.609 -3.40825 -1.85634 0
M  V30 6227 H 577.71 -1.49568 -3.41263 0
M  V30 6228 H 577.823 -3.37983 -3.39565 0
M  V30 6229 H 576.187 -1.72691 -1.87216 0
M  V30 6230 H 576.97 -3.23449 -1.15047 0
M  V30 6231 N 579.415 0.9433 -1.26252 0
M  V30 6232 C 580.692 1.66639 -1.02424 0
M  V30 6233 C 581.072 2.06335 0.446006 0
M  V30 6234 O 580.42 1.78551 1.42589 0
M  V30 6235 C 580.63 2.88019 -1.97094 0
M  V30 6236 C 581.978 3.59718 -2.25584 0
M  V30 6237 O 583.002 2.9812 -1.94943 0
M  V30 6238 O 581.861 4.7066 -2.77743 0
M  V30 6239 H 578.955 0.729643 -0.389294 0
M  V30 6240 H 581.501 0.995218 -1.37454 0
M  V30 6241 H 580.273 2.5556 -2.96319 0
M  V30 6242 H 579.896 3.62863 -1.62532 0
M  V30 6243 N 580.893 1.08022 1.14757 0
M  V30 6244 C 582.142 0.802468 1.8505 0
M  V30 6245 C 582.455 -0.674061 1.83619 0
M  V30 6246 O 583.661 -1.06683 2.49662 0
M  V30 6247 C 582.117 1.38551 3.32162 0
M  V30 6248 C 581.725 2.89354 3.42021 0
M  V30 6249 C 583.469 1.18608 4.07594 0
M  V30 6250 C 581.376 3.40815 4.83321 0
M  V30 6251 H 580.306 0.296518 0.693248 0
M  V30 6252 H 582.957 1.30114 1.29393 0
M  V30 6253 H 581.339 0.814556 3.87532 0
M  V30 6254 H 582.513 3.52552 2.96722 0
M  V30 6255 H 580.828 3.08165 2.80041 0
M  V30 6256 H 583.425 1.54525 5.11885 0
M  V30 6257 H 583.768 0.125599 4.1611 0
M  V30 6258 H 584.301 1.72375 3.58513 0
M  V30 6259 H 581.04 4.46418 4.79991 0
M  V30 6260 H 580.56 2.82374 5.29174 0
M  V30 6261 H 582.239 3.37171 5.522 0
M  V30 6262 N 582.371 -1.3172 0.865308 0
M  V30 6263 C 583.301 -2.31109 0.333302 0
M  V30 6264 C 584.282 -1.60148 -0.573301 0
M  V30 6265 O 585.467 -1.87882 -0.491305 0
M  V30 6266 C 582.597 -3.44104 -0.470078 0
M  V30 6267 C 581.551 -4.26623 0.343021 0
M  V30 6268 C 580.877 -5.31482 -0.585756 0
M  V30 6269 C 582.177 -4.98001 1.57456 0
M  V30 6270 H 583.871 -2.75855 1.1638 0
M  V30 6271 H 581.417 -1.3262 0.561069 0
M  V30 6272 H 583.37 -4.12682 -0.852752 0
M  V30 6273 H 582.094 -2.98112 -1.33404 0
M  V30 6274 H 580.753 -3.59707 0.707583 0
M  V30 6275 H 580.401 -4.81741 -1.44686 0
M  V30 6276 H 580.101 -5.87582 -0.0456494 0
M  V30 6277 H 581.625 -6.0292 -0.965375 0
M  V30 6278 H 583.039 -5.59201 1.26359 0
M  V30 6279 H 581.436 -5.63876 2.05339 0
M  V30 6280 H 582.506 -4.25253 2.32997 0
M  V30 6281 N 583.85 -0.624285 -1.44708 0
M  V30 6282 C 584.76 0.0861083 -2.34442 0
M  V30 6283 C 585.776 0.84291 -1.5222 0
M  V30 6284 O 586.952 0.796723 -1.84971 0
M  V30 6285 C 584.017 1.05999 -3.30099 0
M  V30 6286 C 583.077 0.303316 -4.28227 0
M  V30 6287 C 582.311 1.23081 -5.19314 0
M  V30 6288 O 582.534 2.46929 -5.14181 0
M  V30 6289 O 581.468 0.71883 -5.97592 0
M  V30 6290 H 585.293 -0.651756 -2.96624 0
M  V30 6291 H 582.879 -0.384493 -1.44368 0
M  V30 6292 H 584.76 1.62046 -3.88997 0
M  V30 6293 H 583.436 1.77859 -2.70459 0
M  V30 6294 H 582.343 -0.300033 -3.72895 0
M  V30 6295 H 583.676 -0.375123 -4.90768 0
M  V30 6296 N 585.328 1.53329 -0.364422 0
M  V30 6297 C 586.556 2.05657 0.226424 0
M  V30 6298 C 586.971 1.23801 1.42544 0
M  V30 6299 O 586.328 0.27839 1.80364 0
M  V30 6300 C 586.379 3.56125 0.621056 0
M  V30 6301 O 586.1 4.34879 -0.530304 0
M  V30 6302 C 587.601 4.24706 1.27041 0
M  V30 6303 H 584.821 0.669806 0.0400056 0
M  V30 6304 H 587.365 1.97714 -0.522456 0
M  V30 6305 H 585.52 3.64223 1.31985 0
M  V30 6306 H 585.934 5.24073 -0.211546 0
M  V30 6307 H 587.408 5.3131 1.49711 0
M  V30 6308 H 587.885 3.78354 2.23036 0
M  V30 6309 H 588.491 4.20858 0.613079 0
M  V30 6310 N 586.806 0.0935595 1.57322 0
M  V30 6311 C 588.083 -0.612692 1.85756 0
M  V30 6312 C 588.463 -1.86439 0.99013 0
M  V30 6313 O 587.811 -2.28416 0.0621362 0
M  V30 6314 C 588.021 -0.929547 3.36393 0
M  V30 6315 C 589.369 -1.29366 4.04413 0
M  V30 6316 O 590.393 -1.02061 3.41265 0
M  V30 6317 O 589.252 -1.80498 5.15832 0
M  V30 6318 H 586.346 -0.306444 0.768128 0
M  V30 6319 H 588.892 0.126141 1.69231 0
M  V30 6320 H 587.664 -0.0414766 3.91278 0
M  V30 6321 H 587.287 -1.72441 3.5826 0
M  V30 6322 N 588.284 -1.56567 -0.180126 0
M  V30 6323 C 589.531 -1.81492 -0.898167 0
M  V30 6324 C 589.859 -0.669225 -1.82624 0
M  V30 6325 O 589.114 0.344096 -1.92651 0
M  V30 6326 C 589.413 -3.1252 -1.73395 0
M  V30 6327 C 589.079 -4.40658 -0.955567 0
M  V30 6328 C 587.741 -4.75465 -0.740707 0
M  V30 6329 C 590.093 -5.19593 -0.408948 0
M  V30 6330 C 587.421 -5.86691 0.0320128 0
M  V30 6331 C 589.773 -6.31627 0.350638 0
M  V30 6332 C 588.437 -6.65007 0.576378 0
M  V30 6333 H 587.707 -0.664125 -0.328662 0
M  V30 6334 H 590.354 -1.908 -0.163616 0
M  V30 6335 H 588.659 -2.98515 -2.53763 0
M  V30 6336 H 590.356 -3.29013 -2.29241 0
M  V30 6337 H 586.946 -4.13352 -1.13306 0
M  V30 6338 H 591.13 -4.93104 -0.562307 0
M  V30 6339 H 586.386 -6.11016 0.216735 0
M  V30 6340 H 590.56 -6.92001 0.781497 0
M  V30 6341 H 588.187 -7.51033 1.17703 0
M  V30 6342 N 589.762 0.448376 -1.51087 0
M  V30 6343 C 590.71 1.56407 -1.72161 0
M  V30 6344 C 591.704 1.58878 -0.587721 0
M  V30 6345 O 592.91 1.62755 -0.768822 0
M  V30 6346 H 589.285 0.519423 -0.543786 0
M  V30 6347 H 591.256 1.35803 -2.65707 0
M  V30 6348 C 590.005 2.94163 -1.85373 0
M  V30 6349 H 589.328 2.9299 -2.72024 0
M  V30 6350 H 590.768 3.71625 -2.04135 0
M  V30 6351 C 589.227 3.31317 -0.610803 0
M  V30 6352 O 589.757 4.00985 0.239636 0
M  V30 6353 N 587.963 2.86966 -0.458127 0
M  V30 6354 H 587.51 2.30443 -1.15124 0
M  V30 6355 H 587.468 3.12188 0.372289 0
M  V30 6356 N 591.24 1.41047 0.703093 0
M  V30 6357 C 592.203 1.42036 1.79884 0
M  V30 6358 C 593.203 0.312153 1.57741 0
M  V30 6359 O 594.393 0.571672 1.64553 0
M  V30 6360 C 591.525 1.22437 3.18154 0
M  V30 6361 H 592.718 2.39572 1.80403 0
M  V30 6362 H 590.271 1.27079 0.909977 0
M  V30 6363 H 591.006 0.257112 3.23279 0
M  V30 6364 H 590.791 2.02723 3.35627 0
M  V30 6365 H 592.281 1.25946 3.98155 0
M  V30 6366 N 592.718 -0.936591 1.26751 0
M  V30 6367 C 593.666 -2.0573 1.08527 0
M  V30 6368 C 594.66 -1.69397 0.0108784 0
M  V30 6369 O 595.866 -1.79215 0.167915 0
M  V30 6370 H 592.241 -0.673691 0.334133 0
M  V30 6371 H 594.212 -2.1825 2.03493 0
M  V30 6372 C 592.961 -3.39738 0.739845 0
M  V30 6373 H 592.284 -3.68174 1.55845 0
M  V30 6374 H 593.724 -4.18955 0.652149 0
M  V30 6375 C 592.183 -3.32292 -0.555288 0
M  V30 6376 O 592.713 -3.68794 -1.59229 0
M  V30 6377 N 590.919 -2.85394 -0.54762 0
M  V30 6378 H 590.466 -2.55886 0.296667 0
M  V30 6379 H 590.424 -2.80795 -1.41427 0
M  V30 6380 N 594.196 -1.08629 -1.14182 0
M  V30 6381 C 595.473 -0.73002 -1.81466 0
M  V30 6382 C 595.853 0.785996 -1.95922 0
M  V30 6383 O 595.201 1.70535 -1.52086 0
M  V30 6384 C 595.411 -1.45957 -3.17014 0
M  V30 6385 C 596.759 -1.62008 -3.92477 0
M  V30 6386 O 597.783 -1.42141 -3.26611 0
M  V30 6387 O 596.642 -1.94806 -5.106 0
M  V30 6388 H 593.736 -0.261307 -0.784632 0
M  V30 6389 H 596.282 -1.188 -1.2118 0
M  V30 6390 H 595.054 -2.49221 -3.01669 0
M  V30 6391 H 594.677 -0.993222 -3.84995 0
M  V30 6392 N 595.674 1.31259 -0.872281 0
M  V30 6393 C 596.923 1.95893 -0.480493 0
M  V30 6394 C 597.236 1.697 0.972688 0
M  V30 6395 O 598.442 2.28214 1.47073 0
M  V30 6396 C 596.898 3.50705 -0.808342 0
M  V30 6397 C 596.506 3.85735 -2.27844 0
M  V30 6398 C 598.25 4.21719 -0.485136 0
M  V30 6399 C 596.157 5.33668 -2.54858 0
M  V30 6400 H 595.087 0.733182 -0.175955 0
M  V30 6401 H 597.738 1.49396 -1.0655 0
M  V30 6402 H 596.12 3.95706 -0.152558 0
M  V30 6403 H 597.294 3.51686 -2.97748 0
M  V30 6404 H 595.609 3.27792 -2.56791 0
M  V30 6405 H 598.206 5.30559 -0.664166 0
M  V30 6406 H 598.549 4.12316 0.574592 0
M  V30 6407 H 599.082 3.82359 -1.09756 0
M  V30 6408 H 595.821 5.48109 -3.59523 0
M  V30 6409 H 595.341 5.69061 -1.8955 0
M  V30 6410 H 597.02 6.00958 -2.39706 0
M  V30 6411 N 597.152 0.631951 1.44375 0
M  V30 6412 C 598.102 -0.0943862 2.27805 0
M  V30 6413 C 599.086 -0.815359 1.38711 0
M  V30 6414 O 600.278 -0.701331 1.62513 0
M  V30 6415 C 597.407 -1.07472 3.26044 0
M  V30 6416 C 596.493 -0.353329 4.22626 0
M  V30 6417 N 596.884 0.618512 5.02004 0
M  V30 6418 C 595.182 -0.597662 4.41977 0
M  V30 6419 C 595.883 1.0448 5.7224 0
M  V30 6420 N 594.859 0.383413 5.42246 0
M  V30 6421 H 598.661 0.651672 2.86584 0
M  V30 6422 H 596.175 0.45752 1.55822 0
M  V30 6423 H 598.172 -1.60969 3.84571 0
M  V30 6424 H 596.832 -1.82107 2.68825 0
M  V30 6425 H 597.843 0.996356 5.08226 0
M  V30 6426 H 594.52 -1.32682 3.95856 0
M  V30 6427 H 595.91 1.84773 6.45994 0
M  V30 6428 N 598.631 -1.53133 0.372548 0
M  V30 6429 C 599.541 -2.29671 -0.478379 0
M  V30 6430 C 600.557 -1.35913 -1.08644 0
M  V30 6431 O 601.733 -1.68975 -1.09588 0
M  V30 6432 C 598.798 -3.07625 -1.599 0
M  V30 6433 C 597.859 -4.17061 -1.01776 0
M  V30 6434 C 597.092 -4.91289 -2.08497 0
M  V30 6435 O 597.315 -4.65442 -3.29727 0
M  V30 6436 O 596.249 -5.7705 -1.71164 0
M  V30 6437 H 600.075 -3.03355 0.144649 0
M  V30 6438 H 597.66 -1.48773 0.136729 0
M  V30 6439 H 599.542 -3.56281 -2.25038 0
M  V30 6440 H 598.217 -2.3677 -2.2073 0
M  V30 6441 H 597.124 -3.72641 -0.330098 0
M  V30 6442 H 598.457 -4.90102 -0.453915 0
M  V30 6443 N 600.109 -0.101901 -1.5727 0
M  V30 6444 C 601.357 0.559091 -1.94213 0
M  V30 6445 C 601.678 1.68297 -0.984948 0
M  V30 6446 O 600.948 1.95863 -0.0381975 0
M  V30 6447 H 599.528 0.20952 -0.717015 0
M  V30 6448 H 602.19 -0.166831 -1.94185 0
M  V30 6449 H 601.286 0.96485 -2.96811 0
M  V30 6450 N 601.587 1.56661 0.17182 0
M  V30 6451 C 602.815 1.861 0.904115 0
M  V30 6452 C 603.23 0.687227 1.75848 0
M  V30 6453 O 602.587 -0.343671 1.79235 0
M  V30 6454 C 602.638 3.14568 1.78127 0
M  V30 6455 O 602.359 4.27422 0.961366 0
M  V30 6456 C 603.86 3.5735 2.62327 0
M  V30 6457 H 601.08 0.617445 0.262684 0
M  V30 6458 H 603.624 2.03775 0.172068 0
M  V30 6459 H 601.779 2.98721 2.46666 0
M  V30 6460 H 602.193 5.00725 1.56123 0
M  V30 6461 H 603.667 4.50144 3.1949 0
M  V30 6462 H 604.144 2.81445 3.37173 0
M  V30 6463 H 604.75 3.75807 1.99121 0
M  V30 6464 N 603.065 -0.440357 1.51323 0
M  V30 6465 C 604.29 -1.21716 1.67928 0
M  V30 6466 C 604.715 -1.84328 0.374826 0
M  V30 6467 O 604.073 -1.68675 -0.664706 0
M  V30 6468 C 604.121 -2.27914 2.79442 0
M  V30 6469 O 603.225 -3.33325 2.42834 0
M  V30 6470 H 602.566 -0.35674 0.560029 0
M  V30 6471 H 605.096 -0.520417 1.97871 0
M  V30 6472 H 605.106 -2.72746 3.03436 0
M  V30 6473 H 603.781 -1.8172 3.741 0
M  V30 6474 H 602.358 -2.9399 2.294 0
M  V30 6475 N 604.543 -1.41418 -0.695603 0
M  V30 6476 C 605.453 -1.45622 -1.83933 0
M  V30 6477 C 606.469 -0.346825 -1.70508 0
M  V30 6478 O 607.645 -0.59454 -1.92424 0
M  V30 6479 C 604.71 -1.33627 -3.19914 0
M  V30 6480 C 603.771 -2.54882 -3.45447 0
M  V30 6481 C 603.004 -2.43449 -4.7494 0
M  V30 6482 O 603.227 -1.45905 -5.51424 0
M  V30 6483 O 602.161 -3.33206 -5.01256 0
M  V30 6484 H 605.987 -2.42114 -1.83342 0
M  V30 6485 H 603.572 -1.22956 -0.848658 0
M  V30 6486 H 605.454 -1.29221 -4.01098 0
M  V30 6487 H 604.129 -0.402508 -3.21188 0
M  V30 6488 H 603.036 -2.64865 -2.64192 0
M  V30 6489 H 604.369 -3.47087 -3.48987 0
M  V30 6490 N 606.021 0.929856 -1.27246 0
M  V30 6491 C 607.267 1.6798 -1.13625 0
M  V30 6492 C 607.6 1.91586 0.317589 0
M  V30 6493 O 606.875 1.50467 1.23247 0
M  V30 6494 C 607.158 3.04766 -1.91806 0
M  V30 6495 C 607.011 2.88415 -3.45162 0
M  V30 6496 C 608.33 4.05063 -1.72082 0
M  V30 6497 H 605.449 0.609632 -0.414147 0
M  V30 6498 H 608.091 1.0792 -1.56376 0
M  V30 6499 H 606.241 3.56034 -1.55474 0
M  V30 6500 H 607.913 2.44282 -3.91311 0
M  V30 6501 H 606.156 2.23802 -3.71611 0
M  V30 6502 H 606.827 3.85482 -3.95105 0
M  V30 6503 H 609.303 3.62798 -2.03757 0
M  V30 6504 H 608.179 4.98765 -2.29182 0
M  V30 6505 H 608.44 4.37021 -0.668206 0
M  V30 6506 N 607.499 1.09233 1.13605 0
M  V30 6507 C 608.462 0.733553 2.17144 0
M  V30 6508 C 609.462 -0.235873 1.59061 0
M  V30 6509 O 610.652 -0.0143167 1.74194 0
M  V30 6510 C 607.784 0.084471 3.40795 0
M  V30 6511 H 608.977 1.65049 2.50397 0
M  V30 6512 H 606.53 0.891264 1.28399 0
M  V30 6513 H 607.265 -0.843795 3.1313 0
M  V30 6514 H 607.05 0.781985 3.84223 0
M  V30 6515 H 608.54 -0.151216 4.17326 0
M  V30 6516 N 608.977 -1.30795 0.87923 0
M  V30 6517 C 609.909 -2.27241 0.299025 0
M  V30 6518 C 610.922 -1.53472 -0.543166 0
M  V30 6519 O 612.111 -1.74756 -0.363651 0
M  V30 6520 C 609.211 -3.33655 -0.593931 0
M  V30 6521 C 608.384 -4.36857 0.2179 0
M  V30 6522 C 607.443 -5.22715 -0.604646 0
M  V30 6523 O 606.469 -5.69192 -0.0293838 0
M  V30 6524 N 607.671 -5.48008 -1.91488 0
M  V30 6525 H 610.436 -2.77667 1.12788 0
M  V30 6526 H 607.997 -1.43914 0.741637 0
M  V30 6527 H 609.989 -3.88013 -1.15012 0
M  V30 6528 H 608.559 -2.83202 -1.32346 0
M  V30 6529 H 607.779 -3.82444 0.955536 0
M  V30 6530 H 609.067 -5.02869 0.774614 0
M  V30 6531 H 608.465 -5.1202 -2.40525 0
M  V30 6532 H 607.022 -6.05264 -2.41864 0
M  V30 6533 N 610.455 -0.639598 -1.44038 0
M  V30 6534 C 611.866 -0.228866 -1.85292 0
M  V30 6535 C 612.217 1.22161 -1.53529 0
M  V30 6536 O 611.342 1.93064 -0.977518 0
M  V30 6537 C 611.937 -0.408592 -3.36327 0
M  V30 6538 C 610.496 -0.0522953 -3.76364 0
M  V30 6539 C 609.643 -0.717959 -2.67844 0
M  V30 6540 H 612.594 -0.844194 -1.34384 0
M  V30 6541 H 612.615 0.349968 -3.78887 0
M  V30 6542 H 612.127 -1.46435 -3.59414 0
M  V30 6543 H 610.228 1.0014 -3.58891 0
M  V30 6544 H 610.341 -0.468261 -4.76806 0
M  V30 6545 H 608.705 -0.152459 -2.54243 0
M  V30 6546 H 609.488 -1.77648 -2.93762 0
M  V30 6547 N 611.933 1.52934 -0.380664 0
M  V30 6548 C 612.865 2.23822 0.493581 0
M  V30 6549 C 613.878 1.25761 1.03383 0
M  V30 6550 O 615.067 1.5189 0.937633 0
M  V30 6551 C 612.167 2.9342 1.69582 0
M  V30 6552 C 611.34 4.18115 1.28445 0
M  V30 6553 C 610.399 4.70788 2.35042 0
M  V30 6554 O 609.425 5.34093 1.96807 0
M  V30 6555 N 610.627 4.49899 3.66839 0
M  V30 6556 H 613.392 2.99484 -0.11371 0
M  V30 6557 H 610.953 1.60577 -0.206587 0
M  V30 6558 H 612.945 3.2556 2.40401 0
M  V30 6559 H 611.515 2.21119 2.20965 0
M  V30 6560 H 610.735 3.92109 0.405503 0
M  V30 6561 H 612.023 4.99152 0.986132 0
M  V30 6562 H 611.421 3.99349 4.0067 0
M  V30 6563 H 609.978 4.86551 4.33718 0
M  V30 6564 N 613.412 0.11024 1.57214 0
M  V30 6565 C 614.828 -0.24638 1.57687 0
M  V30 6566 C 615.028 -1.67344 1.12241 0
M  V30 6567 O 614.084 -2.39298 0.805783 0
M  V30 6568 C 615.397 -0.0210288 3.00693 0
M  V30 6569 C 616.945 -0.0876077 3.12877 0
M  V30 6570 C 617.42 0.10994 4.57868 0
M  V30 6571 N 618.911 0.0556135 4.63167 0
M  V30 6572 C 619.646 0.183495 5.73106 0
M  V30 6573 N 619.142 0.367058 6.91827 0
M  V30 6574 N 620.935 0.123689 5.61964 0
M  V30 6575 H 613.086 1.04246 1.85058 0
M  V30 6576 H 615.349 0.40979 0.854854 0
M  V30 6577 H 615.055 0.965203 3.38196 0
M  V30 6578 H 614.929 -0.756748 3.69531 0
M  V30 6579 H 617.316 -1.06436 2.75237 0
M  V30 6580 H 617.397 0.67985 2.466 0
M  V30 6581 H 617.041 1.08362 4.96206 0
M  V30 6582 H 616.971 -0.677397 5.22225 0
M  V30 6583 H 619.462 -0.0831062 3.77809 0
M  V30 6584 H 619.775 0.455739 7.71455 0
M  V30 6585 H 618.12 0.40292 6.93831 0
M  V30 6586 H 621.311 -0.0186928 4.68096 0
M  V30 6587 H 621.484 0.226797 6.47603 0
M  V30 6588 N 614.89 -1.56749 -0.16351 0
M  V30 6589 C 615.82 -2.00042 -1.20438 0
M  V30 6590 C 616.801 -0.877256 -1.45733 0
M  V30 6591 O 617.986 -1.1439 -1.56935 0
M  V30 6592 C 615.116 -2.36697 -2.54149 0
M  V30 6593 C 614.07 -3.52046 -2.43408 0
M  V30 6594 C 613.396 -3.74466 -3.81679 0
M  V30 6595 C 614.696 -4.85247 -1.93216 0
M  V30 6596 H 616.39 -2.87244 -0.844477 0
M  V30 6597 H 613.936 -1.38194 -0.40478 0
M  V30 6598 H 615.889 -2.65582 -3.27176 0
M  V30 6599 H 614.613 -1.46414 -2.91943 0
M  V30 6600 H 613.272 -3.23301 -1.72834 0
M  V30 6601 H 612.92 -2.81461 -4.1688 0
M  V30 6602 H 612.62 -4.52084 -3.75359 0
M  V30 6603 H 614.144 -4.0576 -4.5628 0
M  V30 6604 H 615.558 -5.12957 -2.56023 0
M  V30 6605 H 613.955 -5.66556 -1.97825 0
M  V30 6606 H 615.025 -4.7672 -0.88689 0
M  V30 6607 N 616.368 0.432326 -1.51554 0
M  V30 6608 C 617.315 1.52512 -1.7323 0
M  V30 6609 C 618.285 1.55863 -0.5741 0
M  V30 6610 O 619.47 1.72796 -0.809093 0
M  V30 6611 C 616.61 2.90183 -1.86783 0
M  V30 6612 C 615.723 2.96322 -3.14352 0
M  V30 6613 C 614.858 4.25147 -3.18471 0
M  V30 6614 C 613.897 4.25172 -4.40335 0
M  V30 6615 N 613.034 5.45529 -4.41975 0
M  V30 6616 H 617.874 1.33332 -2.66508 0
M  V30 6617 H 615.411 0.647613 -1.32077 0
M  V30 6618 H 617.369 3.70071 -1.92623 0
M  V30 6619 H 615.999 3.0791 -0.969087 0
M  V30 6620 H 615.051 2.09066 -3.17798 0
M  V30 6621 H 616.363 2.92203 -4.04251 0
M  V30 6622 H 615.517 5.13411 -3.23255 0
M  V30 6623 H 614.256 4.31929 -2.2647 0
M  V30 6624 H 613.261 3.353 -4.35723 0
M  V30 6625 H 614.486 4.20049 -5.33606 0
M  V30 6626 H 612.432 5.53024 -3.52847 0
M  V30 6627 H 612.349 5.43311 -5.25689 0
M  V30 6628 H 613.617 6.35812 -4.50958 0
M  V30 6629 N 617.846 1.41785 0.688094 0
M  V30 6630 C 619.094 1.41264 1.4453 0
M  V30 6631 C 619.415 0.0252946 1.94984 0
M  V30 6632 O 618.685 -0.934081 1.72197 0
M  V30 6633 H 617.265 0.519998 0.536294 0
M  V30 6634 H 619.927 1.7709 0.813941 0
M  V30 6635 H 619.023 2.10439 2.30482 0
M  V30 6636 N 619.324 -0.923095 1.27737 0
M  V30 6637 C 620.234 -2.05765 1.12685 0
M  V30 6638 C 621.25 -1.73911 0.0557197 0
M  V30 6639 O 622.426 -1.99674 0.263137 0
M  V30 6640 C 619.491 -3.37804 0.780363 0
M  V30 6641 C 618.552 -3.83326 1.93286 0
M  V30 6642 C 617.785 -5.09064 1.60281 0
M  V30 6643 O 618.008 -5.6809 0.512828 0
M  V30 6644 O 616.942 -5.50071 2.44347 0
M  V30 6645 H 620.768 -2.21378 2.07907 0
M  V30 6646 H 618.353 -1.04299 1.06968 0
M  V30 6647 H 620.235 -4.17097 0.600668 0
M  V30 6648 H 618.91 -3.23387 -0.142291 0
M  V30 6649 H 617.817 -3.049 2.16764 0
M  V30 6650 H 619.15 -4.02292 2.83588 0
M  V30 6651 N 620.802 -1.09834 -1.13024 0
M  V30 6652 C 621.765 -0.745058 -2.16752 0
M  V30 6653 C 622.765 0.227435 -1.59183 0
M  V30 6654 O 623.955 0.0050786 -1.74199 0
M  V30 6655 C 621.087 -0.102543 -3.40746 0
M  V30 6656 H 622.28 -1.66375 -2.49518 0
M  V30 6657 H 619.833 -0.898061 -1.27924 0
M  V30 6658 H 620.568 0.827177 -3.13573 0
M  V30 6659 H 620.353 -0.80235 -3.83803 0
M  V30 6660 H 621.843 0.129082 -4.174 0
M  V30 6661 N 622.28 1.30327 -0.886154 0
M  V30 6662 C 623.557 1.90922 -0.425217 0
M  V30 6663 C 623.937 1.80533 1.09413 0
M  V30 6664 O 623.285 1.2233 1.92996 0
M  V30 6665 C 623.495 3.36529 -0.924638 0
M  V30 6666 C 624.843 4.13598 -0.960305 0
M  V30 6667 O 625.867 3.45377 -0.871382 0
M  V30 6668 O 624.726 5.35482 -1.09184 0
M  V30 6669 H 621.82 0.81668 -0.130238 0
M  V30 6670 H 624.366 1.38886 -0.975132 0
M  V30 6671 H 623.138 3.38181 -1.96849 0
M  V30 6672 H 622.761 3.96021 -0.353955 0
M  V30 6673 N 623.758 0.647228 1.43697 0
M  V30 6674 C 624.688 -0.0345631 2.33474 0
M  V30 6675 C 625.669 -0.818193 1.4913 0
M  V30 6676 O 626.854 -0.780867 1.77809 0
M  V30 6677 C 623.984 -1.00576 3.32418 0
M  V30 6678 C 622.938 -0.33266 4.26705 0
M  V30 6679 C 622.264 -1.41489 5.1564 0
M  V30 6680 C 623.564 0.771204 5.16575 0
M  V30 6681 H 625.258 0.715163 2.90733 0
M  V30 6682 H 622.804 0.345364 1.39797 0
M  V30 6683 H 624.757 -1.49159 3.94119 0
M  V30 6684 H 623.481 -1.78657 2.73403 0
M  V30 6685 H 622.14 0.13267 3.6636 0
M  V30 6686 H 621.788 -2.18698 4.52968 0
M  V30 6687 H 621.488 -0.969799 5.79542 0
M  V30 6688 H 623.012 -1.9022 5.80214 0
M  V30 6689 H 624.426 0.36779 5.72119 0
M  V30 6690 H 622.823 1.1404 5.89165 0
M  V30 6691 H 623.893 1.63169 4.56622 0
M  V30 6692 N 625.236 -1.5273 0.388769 0
M  V30 6693 C 626.166 -2.29353 -0.438111 0
M  V30 6694 C 627.147 -1.32719 -1.06394 0
M  V30 6695 O 628.332 -1.61612 -1.07681 0
M  V30 6696 C 625.462 -3.09995 -1.56589 0
M  V30 6697 C 624.416 -4.14509 -1.06613 0
M  V30 6698 C 623.742 -4.83372 -2.28594 0
M  V30 6699 C 625.042 -5.22127 -0.134459 0
M  V30 6700 H 626.736 -2.98723 0.201206 0
M  V30 6701 H 624.282 -1.43665 0.0982089 0
M  V30 6702 H 626.235 -3.62357 -2.15118 0
M  V30 6703 H 624.959 -2.38357 -2.23279 0
M  V30 6704 H 623.618 -3.63128 -0.503383 0
M  V30 6705 H 623.266 -4.08283 -2.93792 0
M  V30 6706 H 622.966 -5.54012 -1.95817 0
M  V30 6707 H 624.49 -5.38538 -2.87766 0
M  V30 6708 H 625.904 -5.69851 -0.627914 0
M  V30 6709 H 624.301 -6.00011 0.103534 0
M  V30 6710 H 625.371 -4.77971 0.816798 0
M  V30 6711 N 626.714 -0.118576 -1.57153 0
M  V30 6712 C 627.954 0.542618 -1.97066 0
M  V30 6713 C 628.318 1.63874 -1.00046 0
M  V30 6714 O 629.519 2.3588 -1.28895 0
M  V30 6715 C 627.79 1.06196 -3.41258 0
M  V30 6716 S 629.349 1.73174 -4.03183 0
M  V30 6717 H 626.167 0.17638 -0.688775 0
M  V30 6718 H 628.769 -0.203556 -1.94437 0
M  V30 6719 H 627.473 0.253016 -4.09619 0
M  V30 6720 H 627.004 1.84342 -3.47536 0
M  V30 6721 H 629.019 3.01749 -3.93906 0
M  V30 6722 N 628.193 1.56834 0.155195 0
M  V30 6723 C 629.123 2.00678 1.19376 0
M  V30 6724 C 630.104 0.884973 1.45266 0
M  V30 6725 O 631.289 1.1522 1.56326 0
M  V30 6726 C 628.419 2.38042 2.5289 0
M  V30 6727 C 627.373 3.53332 2.41538 0
M  V30 6728 C 626.699 3.76485 3.79688 0
M  V30 6729 C 627.999 4.86265 1.9064 0
M  V30 6730 H 629.693 2.87688 0.829232 0
M  V30 6731 H 627.239 1.38407 0.397445 0
M  V30 6732 H 629.192 2.67314 3.25763 0
M  V30 6733 H 627.916 1.4796 2.91162 0
M  V30 6734 H 626.575 3.24213 1.71117 0
M  V30 6735 H 626.223 2.83667 4.15382 0
M  V30 6736 H 625.923 4.54068 3.72956 0
M  V30 6737 H 627.447 4.08174 4.54122 0
M  V30 6738 H 628.861 5.14308 2.53299 0
M  V30 6739 H 627.258 5.67597 1.94818 0
M  V30 6740 H 628.328 4.77184 0.861596 0
M  V30 6741 N 629.671 -0.424282 1.51781 0
M  V30 6742 C 630.948 -1.18464 1.55646 0
M  V30 6743 C 631.328 -2.08529 0.328438 0
M  V30 6744 O 630.676 -2.17969 -0.685693 0
M  V30 6745 C 630.886 -1.97514 2.87731 0
M  V30 6746 C 632.234 -2.54106 3.40169 0
M  V30 6747 O 633.258 -2.07711 2.89369 0
M  V30 6748 O 632.117 -3.38759 4.28841 0
M  V30 6749 H 629.211 -0.540055 0.626314 0
M  V30 6750 H 631.757 -0.432291 1.64102 0
M  V30 6751 H 630.529 -1.31444 3.68562 0
M  V30 6752 H 630.152 -2.79787 2.82498 0
M  V30 6753 N 631.149 -1.42148 -0.680565 0
M  V30 6754 C 632.081 -1.41119 -1.80605 0
M  V30 6755 C 633.094 -0.311099 -1.598 0
M  V30 6756 O 634.283 -0.573813 -1.69026 0
M  V30 6757 C 631.383 -1.18204 -3.17618 0
M  V30 6758 C 630.556 -2.40537 -3.65322 0
M  V30 6759 C 629.615 -2.13254 -4.8105 0
M  V30 6760 O 628.641 -2.8641 -4.91892 0
M  V30 6761 N 629.843 -1.13208 -5.69354 0
M  V30 6762 H 632.608 -2.38128 -1.81975 0
M  V30 6763 H 630.169 -1.36953 -0.863446 0
M  V30 6764 H 632.161 -0.97878 -3.92686 0
M  V30 6765 H 630.731 -0.29738 -3.11182 0
M  V30 6766 H 629.951 -2.76468 -2.80996 0
M  V30 6767 H 631.239 -3.22012 -3.93936 0
M  V30 6768 H 630.637 -0.526893 -5.63241 0
M  V30 6769 H 629.194 -0.988699 -6.44258 0
M  V30 6770 N 632.627 0.916307 -1.28225 0
M  V30 6771 C 633.574 2.01841 -1.11932 0
M  V30 6772 C 634.544 1.66091 -0.0171604 0
M  V30 6773 O 635.729 1.89934 -0.181617 0
M  V30 6774 C 632.869 3.36065 -0.784504 0
M  V30 6775 C 631.982 3.847 -1.96544 0
M  V30 6776 C 631.117 5.07423 -1.57149 0
M  V30 6777 C 630.156 5.48384 -2.71922 0
M  V30 6778 N 629.293 6.62298 -2.33037 0
M  V30 6779 H 634.133 2.1511 -2.06232 0
M  V30 6780 H 631.67 1.05366 -1.02647 0
M  V30 6781 H 633.628 4.13272 -0.571148 0
M  V30 6782 H 632.258 3.22571 0.121565 0
M  V30 6783 H 631.31 3.03673 -2.291 0
M  V30 6784 H 632.622 4.1102 -2.82603 0
M  V30 6785 H 631.776 5.92165 -1.32004 0
M  V30 6786 H 630.515 4.82906 -0.682153 0
M  V30 6787 H 629.52 4.62184 -2.97768 0
M  V30 6788 H 630.745 5.7489 -3.61494 0
M  V30 6789 H 628.691 6.39416 -1.4657 0
M  V30 6790 H 628.608 6.8833 -3.12631 0
M  V30 6791 H 629.876 7.50352 -2.11169 0
M  V30 6792 N 634.105 1.10431 1.1244 0
M  V30 6793 C 635.053 0.747974 2.20246 0
M  V30 6794 C 636.047 -0.255848 1.67457 0
M  V30 6795 O 637.253 -0.116221 1.79624 0
M  V30 6796 H 633.628 0.223946 0.71788 0
M  V30 6797 H 635.599 1.6661 2.47556 0
M  V30 6798 C 634.348 0.195957 3.47147 0
M  V30 6799 H 633.671 0.959606 3.88113 0
M  V30 6800 H 635.111 -0.0153154 4.23997 0
M  V30 6801 C 633.57 -1.07132 3.19413 0
M  V30 6802 O 634.1 -2.15284 3.3914 0
M  V30 6803 N 632.306 -0.98994 2.73219 0
M  V30 6804 H 631.853 -0.109736 2.57366 0
M  V30 6805 H 631.811 -1.83856 2.55038 0
M  V30 6806 N 635.583 -1.29855 0.893053 0
M  V30 6807 C 636.515 -2.26911 0.32311 0
M  V30 6808 C 637.528 -1.54039 -0.526858 0
M  V30 6809 O 638.717 -1.75132 -0.345095 0
M  V30 6810 C 635.817 -3.34266 -0.558509 0
M  V30 6811 C 634.99 -4.36601 0.264222 0
M  V30 6812 C 634.049 -5.23326 -0.549171 0
M  V30 6813 O 633.075 -5.69192 0.0309883 0
M  V30 6814 N 634.277 -5.50008 -1.85664 0
M  V30 6815 H 637.042 -2.76455 1.15726 0
M  V30 6816 H 634.603 -1.4312 0.756859 0
M  V30 6817 H 636.595 -3.89211 -1.1089 0
M  V30 6818 H 635.165 -2.8459 -1.29334 0
M  V30 6819 H 634.385 -3.81409 0.996046 0
M  V30 6820 H 635.673 -5.02019 0.827906 0
M  V30 6821 H 635.071 -5.14542 -2.35081 0
M  V30 6822 H 633.628 -6.07796 -2.35431 0
M  V30 6823 N 637.061 -0.65484 -1.43351 0
M  V30 6824 C 638.009 0.0476784 -2.32551 0
M  V30 6825 C 639.003 0.811403 -1.48703 0
M  V30 6826 O 640.209 0.721621 -1.64902 0
M  V30 6827 H 636.584 0.0342038 -0.751222 0
M  V30 6828 H 638.555 -0.722342 -2.89525 0
M  V30 6829 C 637.304 0.999251 -3.33032 0
M  V30 6830 H 636.627 0.421005 -3.97577 0
M  V30 6831 H 638.067 1.45986 -3.98076 0
M  V30 6832 C 636.526 2.09606 -2.63756 0
M  V30 6833 O 637.056 3.18004 -2.4543 0
M  V30 6834 N 635.262 1.86207 -2.23103 0
M  V30 6835 H 634.809 0.980555 -2.38208 0
M  V30 6836 H 634.767 2.59787 -1.77081 0
M  V30 6837 N 638.539 1.52521 -0.396863 0
M  V30 6838 C 639.487 2.28217 0.44943 0
M  V30 6839 C 640.481 1.32416 1.05652 0
M  V30 6840 O 641.687 1.49925 0.996124 0
M  V30 6841 H 638.062 0.733966 0.1637 0
M  V30 6842 H 640.033 2.97658 -0.210367 0
M  V30 6843 C 638.782 3.10713 1.56054 0
M  V30 6844 H 638.105 3.84291 1.10273 0
M  V30 6845 H 639.545 3.66803 2.12677 0
M  V30 6846 C 638.004 2.23499 2.52091 0
M  V30 6847 O 638.534 1.8669 3.55682 0
M  V30 6848 N 636.74 1.8751 2.2201 0
M  V30 6849 H 636.287 2.17643 1.37802 0
M  V30 6850 H 636.245 1.29448 2.86514 0
M  V30 6851 N 640.017 0.126909 1.57088 0
M  V30 6852 C 641.242 -0.53997 2.00248 0
M  V30 6853 C 641.667 -1.58927 1.00618 0
M  V30 6854 O 641.025 -1.81288 -0.0210131 0
M  V30 6855 C 641.073 -1.13565 3.4225 0
M  V30 6856 O 640.177 -2.25103 3.45547 0
M  V30 6857 H 639.518 -0.13412 0.650314 0
M  V30 6858 H 642.048 0.217718 2.03438 0
M  V30 6859 H 642.058 -1.46925 3.80627 0
M  V30 6860 H 640.733 -0.367122 4.14277 0
M  V30 6861 H 639.31 -1.93123 3.18995 0
M  V30 6862 N 641.495 -1.56914 -0.146875 0
M  V30 6863 C 642.906 -1.72799 -0.706928 0
M  V30 6864 C 643.257 -0.741329 -1.81656 0
M  V30 6865 O 642.382 0.0920162 -2.16204 0
M  V30 6866 C 642.977 -3.13317 -1.28911 0
M  V30 6867 C 641.536 -3.30803 -1.79573 0
M  V30 6868 C 640.683 -2.68725 -0.684252 0
M  V30 6869 H 643.634 -1.58504 0.0787931 0
M  V30 6870 H 643.655 -3.13323 -2.15891 0
M  V30 6871 H 643.167 -3.85104 -0.481284 0
M  V30 6872 H 641.268 -2.64012 -2.62923 0
M  V30 6873 H 641.381 -4.38754 -1.92436 0
M  V30 6874 H 639.745 -2.29196 -1.11091 0
M  V30 6875 H 640.528 -3.43117 0.112134 0
M  V30 6876 N 642.974 0.416227 -1.52004 0
M  V30 6877 C 644.204 1.18401 -1.69307 0
M  V30 6878 C 644.612 1.84943 -0.399072 0
M  V30 6879 O 643.955 1.72406 0.634177 0
M  V30 6880 C 644.017 2.29465 -2.76742 0
M  V30 6881 C 643.681 1.83117 -4.18709 0
M  V30 6882 C 644.678 1.32286 -5.02789 0
M  V30 6883 C 642.363 1.90167 -4.64911 0
M  V30 6884 C 644.357 0.891178 -6.31139 0
M  V30 6885 C 642.044 1.4661 -5.93253 0
M  V30 6886 C 643.042 0.961696 -6.76196 0
M  V30 6887 O 642.73 0.532388 -8.02135 0
M  V30 6888 H 642.462 0.362098 -0.570843 0
M  V30 6889 H 645.016 0.496764 -1.99302 0
M  V30 6890 H 643.246 3.01531 -2.42107 0
M  V30 6891 H 644.935 2.91252 -2.82713 0
M  V30 6892 H 645.701 1.26218 -4.68288 0
M  V30 6893 H 641.58 2.28371 -4.00459 0
M  V30 6894 H 645.124 0.496788 -6.95829 0
M  V30 6895 H 641.021 1.52355 -6.27263 0
M  V30 6896 H 641.789 0.656339 -8.15864 0
M  V30 6897 N 644.452 1.42507 0.673017 0
M  V30 6898 C 645.402 1.4258 1.77919 0
M  V30 6899 C 646.386 0.296885 1.58137 0
M  V30 6900 O 647.578 0.539243 1.68586 0
M  V30 6901 C 644.707 1.33238 3.1639 0
M  V30 6902 C 643.793 2.51081 3.41788 0
M  V30 6903 N 644.184 3.76498 3.37761 0
M  V30 6904 C 642.482 2.4538 3.72431 0
M  V30 6905 C 643.183 4.54784 3.62693 0
M  V30 6906 N 642.159 3.8522 3.83544 0
M  V30 6907 H 645.961 2.37442 1.73201 0
M  V30 6908 H 643.475 1.36881 0.873924 0
M  V30 6909 H 645.472 1.31372 3.9566 0
M  V30 6910 H 644.132 0.393794 3.22303 0
M  V30 6911 H 645.143 4.09068 3.17622 0
M  V30 6912 H 641.82 1.60109 3.85579 0
M  V30 6913 H 643.21 5.63774 3.65525 0
M  V30 6914 N 645.93 -0.909495 1.28709 0
M  V30 6915 C 647.207 -1.63865 1.06806 0
M  V30 6916 C 647.587 -2.07445 -0.391143 0
M  V30 6917 O 646.935 -1.82269 -1.37805 0
M  V30 6918 C 647.145 -2.82692 2.04661 0
M  V30 6919 C 648.493 -3.5361 2.35042 0
M  V30 6920 O 649.517 -2.92847 2.02779 0
M  V30 6921 O 648.376 -4.63131 2.90124 0
M  V30 6922 H 645.47 -0.719065 0.408502 0
M  V30 6923 H 648.016 -0.958424 1.40044 0
M  V30 6924 H 646.788 -2.47614 3.0299 0
M  V30 6925 H 646.411 -3.58426 1.72095 0
M  V30 6926 N 647.408 -1.11026 -1.11852 0
M  V30 6927 C 648.371 -0.768006 -2.1595 0
M  V30 6928 C 649.371 0.210538 -1.59416 0
M  V30 6929 O 650.561 -0.0133978 -1.74195 0
M  V30 6930 C 647.693 -0.138678 -3.40618 0
M  V30 6931 H 648.886 -1.69012 -2.4774 0
M  V30 6932 H 646.439 -0.911578 -1.26964 0
M  V30 6933 H 647.174 0.793872 -3.14433 0
M  V30 6934 H 646.959 -0.843012 -3.8293 0
M  V30 6935 H 648.449 0.0848039 -4.17514 0
M  V30 6936 N 648.886 1.2938 -0.899927 0
M  V30 6937 C 650.126 1.97332 -0.532871 0
M  V30 6938 C 650.49 1.69385 0.904029 0
M  V30 6939 O 651.691 2.30793 1.37797 0
M  V30 6940 C 649.962 3.47927 -0.817393 0
M  V30 6941 S 651.521 4.3528 -0.55468 0
M  V30 6942 H 648.339 0.682966 -0.197683 0
M  V30 6943 H 650.941 1.57189 -1.16241 0
M  V30 6944 H 649.645 3.65761 -1.86138 0
M  V30 6945 H 649.176 3.93006 -0.175978 0
M  V30 6946 H 651.191 4.92557 0.600182 0
M  V30 6947 N 650.364 0.662433 1.43002 0
M  V30 6948 C 651.775 0.258315 1.84904 0
M  V30 6949 C 652.126 -1.19703 1.55453 0
M  V30 6950 O 651.251 -1.91484 1.00811 0
M  V30 6951 C 651.846 0.462047 3.35635 0
M  V30 6952 C 650.405 0.112165 3.76233 0
M  V30 6953 C 649.552 0.760479 2.66668 0
M  V30 6954 H 652.503 0.865467 1.33024 0
M  V30 6955 H 652.524 -0.289646 3.79396 0
M  V30 6956 H 652.036 1.52135 3.57039 0
M  V30 6957 H 650.137 -0.944179 3.60439 0
M  V30 6958 H 650.25 0.544058 4.76001 0
M  V30 6959 H 648.614 0.192887 2.53969 0
M  V30 6960 H 649.397 1.82299 2.90898 0
M  V30 6961 N 651.842 -1.52309 0.404946 0
M  V30 6962 C 652.805 -2.25491 -0.410651 0
M  V30 6963 C 653.805 -1.27704 -0.977154 0
M  V30 6964 O 654.995 -1.51679 -0.856691 0
M  V30 6965 C 652.127 -3.02197 -1.57765 0
M  V30 6966 H 653.32 -2.99015 0.230277 0
M  V30 6967 H 650.873 -1.55506 0.157377 0
M  V30 6968 H 651.608 -2.33013 -2.25556 0
M  V30 6969 H 651.393 -3.73987 -1.17797 0
M  V30 6970 H 652.883 -3.57719 -2.15469 0
M  V30 6971 N 653.32 -0.135238 -1.57019 0
M  V30 6972 C 654.548 0.526066 -2.001 0
M  V30 6973 C 654.963 1.59184 -1.01519 0
M  V30 6974 O 654.32 1.82497 -0.0104258 0
M  V30 6975 C 654.371 1.13744 -3.43139 0
M  V30 6976 O 654.092 0.114259 -4.37951 0
M  V30 6977 C 655.593 1.8805 -4.01438 0
M  V30 6978 H 652.813 0.137962 -0.656664 0
M  V30 6979 H 655.357 -0.226359 -2.03243 0
M  V30 6980 H 653.512 1.84056 -3.40885 0
M  V30 6981 H 653.926 0.56058 -5.21496 0
M  V30 6982 H 655.4 2.26133 -5.03555 0
M  V30 6983 H 655.877 2.76194 -3.41487 0
M  V30 6984 H 656.483 1.22464 -4.07287 0
M  V30 6985 N 654.798 1.5699 0.138552 0
M  V30 6986 C 655.73 1.95515 1.1961 0
M  V30 6987 C 656.743 0.852002 1.38726 0
M  V30 6988 O 657.932 1.13038 1.38147 0
M  V30 6989 C 655.032 2.2213 2.55952 0
M  V30 6990 C 654.205 3.53424 2.57702 0
M  V30 6991 C 653.264 3.6848 3.75645 0
M  V30 6992 O 652.29 4.4079 3.60129 0
M  V30 6993 N 653.492 3.05777 4.93438 0
M  V30 6994 H 656.257 2.86838 0.868557 0
M  V30 6995 H 653.818 1.58542 0.328033 0
M  V30 6996 H 655.81 2.29435 3.33379 0
M  V30 6997 H 654.38 1.3703 2.80965 0
M  V30 6998 H 653.6 3.57484 1.6613 0
M  V30 6999 H 654.888 4.39759 2.55909 0
M  V30 7000 H 654.286 2.46961 5.08947 0
M  V30 7001 H 652.843 3.18631 5.6861 0
M  V30 7002 N 656.276 -0.40816 1.52223 0
M  V30 7003 C 657.208 -1.51642 1.71864 0
M  V30 7004 C 658.221 -1.51378 0.599056 0
M  V30 7005 O 659.41 -1.55626 0.874239 0
M  V30 7006 C 656.51 -2.90534 1.74481 0
M  V30 7007 C 655.683 -3.14979 3.03491 0
M  V30 7008 C 654.742 -4.33749 2.97907 0
M  V30 7009 O 653.768 -4.30982 3.71811 0
M  V30 7010 N 654.97 -5.38912 2.15764 0
M  V30 7011 H 657.735 -1.35188 2.67478 0
M  V30 7012 H 655.296 -0.597468 1.50472 0
M  V30 7013 H 657.288 -3.68056 1.68275 0
M  V30 7014 H 655.858 -3.00441 0.863363 0
M  V30 7015 H 655.078 -2.25492 3.23337 0
M  V30 7016 H 656.366 -3.28156 3.88833 0
M  V30 7017 H 655.764 -5.44008 1.55152 0
M  V30 7018 H 654.321 -6.15174 2.15415 0
M  V30 7019 N 657.755 -1.42862 -0.66545 0
M  V30 7020 C 659.166 -1.3901 -1.24632 0
M  V30 7021 C 659.517 -0.0880285 -1.96002 0
M  V30 7022 O 658.642 0.812947 -2.0055 0
M  V30 7023 C 659.237 -2.51806 -2.2667 0
M  V30 7024 C 657.796 -2.51257 -2.80262 0
M  V30 7025 C 656.943 -2.30124 -1.5472 0
M  V30 7026 H 659.894 -1.5194 -0.458237 0
M  V30 7027 H 659.915 -2.22593 -3.08598 0
M  V30 7028 H 659.427 -3.46558 -1.74697 0
M  V30 7029 H 657.528 -1.60349 -3.36332 0
M  V30 7030 H 657.641 -3.48614 -3.28641 0
M  V30 7031 H 656.005 -1.7856 -1.81627 0
M  V30 7032 H 656.788 -3.26945 -1.04699 0
M  V30 7033 N 659.233 0.902656 -1.29189 0
M  V30 7034 C 660.458 1.69167 -1.19989 0
M  V30 7035 C 660.883 1.86607 0.236495 0
M  V30 7036 O 660.241 1.38425 1.17082 0
M  V30 7037 C 660.289 3.05532 -1.91527 0
M  V30 7038 O 659.393 3.93621 -1.2303 0
M  V30 7039 H 658.734 0.517584 -0.415936 0
M  V30 7040 H 661.264 1.12785 -1.70706 0
M  V30 7041 H 661.274 3.55693 -1.99866 0
M  V30 7042 H 659.949 2.92156 -2.96003 0
M  V30 7043 H 658.526 3.52055 -1.22928 0
M  V30 7044 N 660.711 1.11618 1.11262 0
M  V30 7045 C 661.957 0.867463 1.83311 0
M  V30 7046 C 662.29 -0.605366 1.84524 0
M  V30 7047 O 661.565 -1.44704 1.29965 0
M  V30 7048 C 661.848 1.43207 3.30399 0
M  V30 7049 C 661.701 2.97265 3.3757 0
M  V30 7050 C 663.02 1.08454 4.26528 0
M  V30 7051 H 660.139 0.316578 0.665543 0
M  V30 7052 H 662.781 1.38137 1.30454 0
M  V30 7053 H 660.931 0.994982 3.75543 0
M  V30 7054 H 662.603 3.49591 3.00971 0
M  V30 7055 H 660.846 3.33237 2.77733 0
M  V30 7056 H 661.517 3.31859 4.41105 0
M  V30 7057 H 663.993 1.4619 3.89574 0
M  V30 7058 H 662.869 1.50633 5.27826 0
M  V30 7059 H 663.13 -0.00444568 4.421 0
M  V30 7060 N 662.189 -1.289 0.906776 0
M  V30 7061 C 663.438 -1.9455 0.532262 0
M  V30 7062 C 663.751 -1.72219 -0.927353 0
M  V30 7063 O 664.957 -2.32033 -1.40971 0
M  V30 7064 C 663.413 -3.48438 0.901041 0
M  V30 7065 C 663.021 -3.79558 2.37991 0
M  V30 7066 C 664.765 -4.20284 0.596777 0
M  V30 7067 C 662.672 -5.26723 2.68918 0
M  V30 7068 H 661.602 -0.728259 0.195333 0
M  V30 7069 H 664.253 -1.46519 1.10474 0
M  V30 7070 H 662.635 -3.95162 0.257419 0
M  V30 7071 H 663.809 -3.43668 3.06967 0
M  V30 7072 H 662.124 -3.20868 2.65391 0
M  V30 7073 H 664.721 -5.28612 0.8046 0
M  V30 7074 H 665.064 -4.13694 -0.465072 0
M  V30 7075 H 665.597 -3.79315 1.19855 0
M  V30 7076 H 662.336 -5.38384 3.73928 0
M  V30 7077 H 661.856 -5.63836 2.04571 0
M  V30 7078 H 663.535 -5.94391 2.55555 0
M  V30 7079 N 663.667 -0.670007 -1.42649 0
M  V30 7080 C 664.599 0.0501746 -2.29145 0
M  V30 7081 C 665.612 0.770331 -1.43422 0
M  V30 7082 O 666.801 0.625288 -1.6719 0
M  V30 7083 C 663.901 1.09463 -3.20735 0
M  V30 7084 C 663.074 0.44926 -4.35087 0
M  V30 7085 C 662.133 1.39285 -5.07431 0
M  V30 7086 O 661.159 0.894997 -5.6212 0
M  V30 7087 N 662.361 2.72631 -5.12496 0
M  V30 7088 H 665.126 -0.692312 -2.91594 0
M  V30 7089 H 662.687 -0.514056 -1.53522 0
M  V30 7090 H 664.679 1.72705 -3.65999 0
M  V30 7091 H 663.249 1.73891 -2.59771 0
M  V30 7092 H 662.469 -0.362573 -3.92529 0
M  V30 7093 H 663.757 -0.000544776 -5.088 0
M  V30 7094 H 663.155 3.15623 -4.69467 0
M  V30 7095 H 661.712 3.31132 -5.61422 0
M  V30 7096 N 665.145 1.52092 -0.413018 0
M  V30 7097 C 666.108 2.25706 0.398687 0
M  V30 7098 C 667.108 1.28221 0.970368 0
M  V30 7099 O 668.298 1.52131 0.848635 0
M  V30 7100 C 665.43 3.03029 1.5616 0
M  V30 7101 H 666.623 2.98888 -0.246131 0
M  V30 7102 H 664.176 1.5542 -0.165622 0
M  V30 7103 H 664.911 2.34205 2.24317 0
M  V30 7104 H 664.696 3.74606 1.15812 0
M  V30 7105 H 666.186 3.58857 2.13569 0
M  V30 7106 N 666.623 0.143563 1.56945 0
M  V30 7107 C 667.533 -0.810562 2.20152 0
M  V30 7108 C 668.549 -1.27431 1.1848 0
M  V30 7109 O 669.725 -1.33221 1.51044 0
M  V30 7110 C 666.79 -2.03353 2.80799 0
M  V30 7111 C 665.851 -1.61936 3.97587 0
M  V30 7112 C 665.084 -2.78403 4.55332 0
M  V30 7113 O 665.307 -3.94521 4.11958 0
M  V30 7114 O 664.241 -2.54073 5.45647 0
M  V30 7115 H 668.067 -0.30253 3.02189 0
M  V30 7116 H 665.652 -0.0832925 1.49168 0
M  V30 7117 H 667.534 -2.74932 3.19359 0
M  V30 7118 H 666.209 -2.53116 2.01777 0
M  V30 7119 H 665.116 -0.873904 3.6375 0
M  V30 7120 H 666.449 -1.16892 4.78118 0
M  V30 7121 N 668.101 -1.57061 -0.130224 0
M  V30 7122 C 669.048 -1.99517 -1.16024 0
M  V30 7123 C 670.018 -0.865452 -1.41771 0
M  V30 7124 O 671.203 -1.12882 -1.53826 0
M  V30 7125 C 668.343 -2.3951 -2.48453 0
M  V30 7126 C 667.456 -3.65848 -2.29737 0
M  V30 7127 C 666.591 -3.9487 -3.55318 0
M  V30 7128 C 665.63 -5.14426 -3.31711 0
M  V30 7129 N 664.767 -5.39375 -4.49466 0
M  V30 7130 H 669.607 -2.87305 -0.791194 0
M  V30 7131 H 667.144 -1.42129 -0.379195 0
M  V30 7132 H 669.102 -2.60731 -3.25692 0
M  V30 7133 H 667.732 -1.54779 -2.83272 0
M  V30 7134 H 666.784 -3.52307 -1.4347 0
M  V30 7135 H 668.096 -4.53241 -2.08263 0
M  V30 7136 H 667.25 -4.16679 -4.4098 0
M  V30 7137 H 665.989 -3.05931 -3.79813 0
M  V30 7138 H 664.994 -4.92473 -2.44439 0
M  V30 7139 H 666.219 -6.04933 -3.08598 0
M  V30 7140 H 664.165 -4.53391 -4.74102 0
M  V30 7141 H 664.082 -6.21069 -4.31055 0
M  V30 7142 H 665.35 -5.65694 -5.36293 0
M  V30 7143 N 669.579 0.400081 -1.52437 0
M  V30 7144 C 670.527 1.50851 -1.7705 0
M  V30 7145 C 671.521 1.56928 -0.637969 0
M  V30 7146 O 672.727 1.60226 -0.820212 0
M  V30 7147 H 669.102 0.50186 -0.560036 0
M  V30 7148 H 671.073 1.27281 -2.69893 0
M  V30 7149 C 669.822 2.88117 -1.94638 0
M  V30 7150 H 669.145 2.84187 -2.81208 0
M  V30 7151 H 670.585 3.64942 -2.15855 0
M  V30 7152 C 669.044 3.29206 -0.715899 0
M  V30 7153 O 669.574 4.01544 0.111944 0
M  V30 7154 N 667.78 2.85363 -0.549191 0
M  V30 7155 H 667.327 2.26664 -1.22397 0
M  V30 7156 H 667.285 3.13214 0.27278 0
M  V30 7157 N 671.057 1.43213 0.657864 0
M  V30 7158 C 672.004 1.48011 1.77092 0
M  V30 7159 C 672.974 0.330291 1.62783 0
M  V30 7160 O 674.159 0.536787 1.83094 0
M  V30 7161 C 671.299 1.40461 3.15222 0
M  V30 7162 C 670.412 2.65612 3.40697 0
M  V30 7163 C 669.547 2.50083 4.68649 0
M  V30 7164 C 668.586 3.70525 4.87214 0
M  V30 7165 N 667.723 3.53835 6.0642 0
M  V30 7166 H 672.563 2.43121 1.72326 0
M  V30 7167 H 670.1 1.20687 0.841013 0
M  V30 7168 H 672.058 1.34079 3.95068 0
M  V30 7169 H 670.688 0.489359 3.19069 0
M  V30 7170 H 669.74 2.82292 2.54982 0
M  V30 7171 H 671.052 3.5509 3.50303 0
M  V30 7172 H 670.206 2.41383 5.56614 0
M  V30 7173 H 668.945 1.58121 4.61356 0
M  V30 7174 H 667.95 3.79639 3.97686 0
M  V30 7175 H 669.175 4.63489 4.96341 0
M  V30 7176 H 667.121 2.64604 6.00267 0
M  V30 7177 H 667.038 4.36912 6.16963 0
M  V30 7178 H 668.306 3.48978 6.97019 0
M  V30 7179 N 672.536 -0.895792 1.29666 0
M  V30 7180 C 673.947 -1.46195 1.1612 0
M  V30 7181 C 674.298 -1.94699 -0.242195 0
M  V30 7182 O 673.423 -1.8406 -1.13802 0
M  V30 7183 C 674.018 -2.65718 2.10189 0
M  V30 7184 C 672.577 -3.18458 2.00653 0
M  V30 7185 C 671.724 -1.91149 2.00891 0
M  V30 7186 H 674.675 -0.706756 1.42094 0
M  V30 7187 H 674.696 -3.4158 1.6764 0
M  V30 7188 H 674.208 -2.30386 3.12321 0
M  V30 7189 H 672.309 -3.58474 1.01623 0
M  V30 7190 H 672.422 -3.82491 2.88509 0
M  V30 7191 H 670.786 -2.09021 1.45542 0
M  V30 7192 H 671.569 -1.58089 3.04734 0
M  V30 7193 N 674.014 -1.12206 -1.10668 0
M  V30 7194 C 674.946 -0.74552 -2.16736 0
M  V30 7195 C 675.959 0.226696 -1.61214 0
M  V30 7196 O 677.148 0.0083936 -1.78498 0
M  V30 7197 C 674.248 -0.0823368 -3.388 0
M  V30 7198 C 673.421 -1.08341 -4.2377 0
M  V30 7199 C 672.48 -0.448292 -5.24287 0
M  V30 7200 O 671.506 -1.10458 -5.58379 0
M  V30 7201 N 672.708 0.785336 -5.75163 0
M  V30 7202 H 675.473 -1.65818 -2.49649 0
M  V30 7203 H 673.034 -1.01335 -1.26265 0
M  V30 7204 H 675.026 0.354476 -4.03145 0
M  V30 7205 H 673.596 0.733041 -3.03884 0
M  V30 7206 H 672.816 -1.69792 -3.55759 0
M  V30 7207 H 674.104 -1.76042 -4.77375 0
M  V30 7208 H 673.502 1.33755 -5.4966 0
M  V30 7209 H 672.059 1.16501 -6.41304 0
M  V30 7210 N 675.492 1.28418 -0.913599 0
M  V30 7211 C 676.903 1.77024 -0.593237 0
M  V30 7212 C 677.254 1.74779 0.891441 0
M  V30 7213 O 676.379 1.34237 1.69733 0
M  V30 7214 C 676.974 3.21456 -1.07011 0
M  V30 7215 C 675.533 3.67786 -0.800664 0
M  V30 7216 C 674.68 2.48185 -1.23691 0
M  V30 7217 H 677.631 1.14883 -1.09487 0
M  V30 7218 H 677.652 3.78269 -0.411481 0
M  V30 7219 H 677.164 3.23058 -2.1507 0
M  V30 7220 H 675.265 3.71644 0.266725 0
M  V30 7221 H 675.378 4.57934 -1.4083 0
M  V30 7222 H 673.742 2.46116 -0.655655 0
M  V30 7223 H 674.525 2.52506 -2.32585 0
M  V30 7224 N 676.97 0.677563 1.42291 0
M  V30 7225 C 677.9 0.014968 2.33495 0
M  V30 7226 C 678.881 -0.786376 1.50831 0
M  V30 7227 O 680.066 -0.742975 1.79426 0
M  V30 7228 C 677.196 -0.935023 3.34477 0
M  V30 7229 C 676.15 -0.242074 4.27315 0
M  V30 7230 C 675.476 -1.30519 5.18526 0
M  V30 7231 C 676.776 0.880604 5.14823 0
M  V30 7232 H 678.47 0.776671 2.89151 0
M  V30 7233 H 676.016 0.37494 1.39033 0
M  V30 7234 H 677.969 -1.40766 3.97194 0
M  V30 7235 H 676.693 -1.72818 2.77131 0
M  V30 7236 H 675.352 0.210351 3.65996 0
M  V30 7237 H 675 -2.09041 4.57505 0
M  V30 7238 H 674.7 -0.846652 5.81468 0
M  V30 7239 H 676.224 -1.7787 5.84119 0
M  V30 7240 H 677.638 0.489062 5.7121 0
M  V30 7241 H 676.035 1.26511 5.86613 0
M  V30 7242 H 677.105 1.72818 4.53059 0
M  V30 7243 N 678.448 -1.51871 0.421078 0
M  V30 7244 C 679.859 -1.86644 -0.0457991 0
M  V30 7245 C 680.21 -1.33919 -1.43388 0
M  V30 7246 O 679.335 -0.683316 -2.05328 0
M  V30 7247 C 679.93 -3.38681 -0.0898844 0
M  V30 7248 C 678.489 -3.73049 -0.501127 0
M  V30 7249 C 677.636 -2.75485 0.316723 0
M  V30 7250 H 680.587 -1.45327 0.637635 0
M  V30 7251 H 680.608 -3.69636 -0.902734 0
M  V30 7252 H 680.12 -3.77025 0.920513 0
M  V30 7253 H 678.221 -3.40288 -1.51773 0
M  V30 7254 H 678.334 -4.78512 -0.237217 0
M  V30 7255 H 676.698 -2.53725 -0.222663 0
M  V30 7256 H 677.481 -3.16671 1.32569 0
M  V30 7257 N 679.926 -0.151884 -1.56866 0
M  V30 7258 C 681.154 0.504813 -2.00647 0
M  V30 7259 C 681.569 1.58098 -1.03201 0
M  V30 7260 O 680.926 1.82476 -0.0297814 0
M  V30 7261 C 680.977 1.10099 -3.44326 0
M  V30 7262 O 680.698 0.0678021 -4.38048 0
M  V30 7263 C 682.199 1.83782 -4.03409 0
M  V30 7264 H 679.419 0.130989 -0.65809 0
M  V30 7265 H 681.963 -0.247903 -2.02992 0
M  V30 7266 H 680.118 1.8043 -3.42817 0
M  V30 7267 H 680.532 0.505237 -5.22061 0
M  V30 7268 H 682.006 2.2078 -5.05925 0
M  V30 7269 H 682.483 2.72557 -3.44397 0
M  V30 7270 H 683.089 1.18138 -4.08563 0
M  V30 7271 N 681.404 1.57128 0.121893 0
M  V30 7272 C 682.314 2.03425 1.16857 0
M  V30 7273 C 683.33 0.954108 1.45509 0
M  V30 7274 O 684.506 1.26541 1.56682 0
M  V30 7275 C 681.571 2.42685 2.47599 0
M  V30 7276 C 680.632 3.64767 2.2637 0
M  V30 7277 C 679.865 4.02145 3.50878 0
M  V30 7278 O 680.088 3.39897 4.58068 0
M  V30 7279 O 679.022 4.95262 3.42051 0
M  V30 7280 H 682.848 2.92825 0.80544 0
M  V30 7281 H 680.433 1.45654 0.332477 0
M  V30 7282 H 682.315 2.68684 3.24634 0
M  V30 7283 H 680.99 1.56432 2.83392 0
M  V30 7284 H 679.897 3.43922 1.47203 0
M  V30 7285 H 681.23 4.51716 1.95482 0
M  V30 7286 N 682.882 -0.391992 1.52647 0
M  V30 7287 C 684.13 -1.13507 1.67214 0
M  V30 7288 C 684.451 -1.90575 0.41304 0
M  V30 7289 O 683.721 -1.87348 -0.572498 0
M  V30 7290 H 682.301 -0.422013 0.616372 0
M  V30 7291 H 684.963 -0.44502 1.89751 0
M  V30 7292 H 684.059 -1.83964 2.52118 0
M  V30 7293 N 684.36 -1.4356 -0.65026 0
M  V30 7294 C 685.323 -1.48615 -1.74489 0
M  V30 7295 C 686.323 -0.370483 -1.56474 0
M  V30 7296 O 687.513 -0.632351 -1.62317 0
M  V30 7297 C 684.645 -1.34161 -3.13391 0
M  V30 7298 H 685.838 -2.46103 -1.71387 0
M  V30 7299 H 683.391 -1.30369 -0.862186 0
M  V30 7300 H 684.126 -0.376918 -3.22102 0
M  V30 7301 H 683.911 -2.1504 -3.27872 0
M  V30 7302 H 685.401 -1.40637 -3.93206 0
M  V30 7303 N 685.838 0.888903 -1.30139 0
M  V30 7304 C 686.748 2.02705 -1.18101 0
M  V30 7305 C 687.764 1.73702 -0.101809 0
M  V30 7306 O 688.94 1.98906 -0.315984 0
M  V30 7307 C 686.005 3.35616 -0.869651 0
M  V30 7308 C 685.066 3.78067 -2.03381 0
M  V30 7309 C 684.299 5.04635 -1.73721 0
M  V30 7310 O 684.522 5.66531 -0.663267 0
M  V30 7311 O 683.456 5.43399 -2.58845 0
M  V30 7312 H 687.282 2.15788 -2.13704 0
M  V30 7313 H 684.867 1.01426 -1.09695 0
M  V30 7314 H 686.749 4.15358 -0.711043 0
M  V30 7315 H 685.424 3.23651 0.0565002 0
M  V30 7316 H 684.331 2.99046 -2.24772 0
M  V30 7317 H 685.664 3.94631 -2.94155 0
M  V30 7318 N 687.317 1.12792 1.10072 0
M  V30 7319 C 688.542 0.908838 1.86427 0
M  V30 7320 C 688.967 -0.536793 1.80278 0
M  V30 7321 O 688.325 -1.38033 1.17543 0
M  V30 7322 C 688.373 1.39295 3.3261 0
M  V30 7323 O 687.477 0.573846 4.08388 0
M  V30 7324 H 686.818 0.326234 0.578331 0
M  V30 7325 H 689.348 1.50094 1.39043 0
M  V30 7326 H 689.358 1.39366 3.83459 0
M  V30 7327 H 688.033 2.44555 3.36401 0
M  V30 7328 H 686.61 0.640438 3.67359 0
M  V30 7329 N 688.795 -1.27931 0.920396 0
M  V30 7330 C 690.023 -1.98805 0.573087 0
M  V30 7331 C 690.438 -1.68724 -0.847201 0
M  V30 7332 O 689.795 -0.943699 -1.56207 0
M  V30 7333 C 689.846 -3.52971 0.780633 0
M  V30 7334 O 689.567 -3.81994 2.14504 0
M  V30 7335 C 691.068 -4.411 0.44105 0
M  V30 7336 H 688.288 -0.634651 0.21785 0
M  V30 7337 H 690.832 -1.62965 1.23542 0
M  V30 7338 H 688.987 -3.87048 0.165204 0
M  V30 7339 H 689.401 -4.76609 2.18962 0
M  V30 7340 H 690.875 -5.48312 0.637006 0
M  V30 7341 H 691.352 -4.34758 -0.62306 0
M  V30 7342 H 691.958 -4.12532 1.0343 0
M  V30 7343 N 690.273 -0.685099 -1.4193 0
M  V30 7344 C 691.223 0.00977295 -2.27998 0
M  V30 7345 C 692.207 0.763315 -1.41641 0
M  V30 7346 O 693.399 0.640532 -1.65004 0
M  V30 7347 C 690.528 0.952972 -3.29808 0
M  V30 7348 C 689.614 0.196231 -4.23646 0
M  V30 7349 N 690.005 -0.804401 -4.99363 0
M  V30 7350 C 688.303 0.433213 -4.43891 0
M  V30 7351 C 689.004 -1.25646 -5.67968 0
M  V30 7352 N 687.98 -0.5844 -5.4045 0
M  V30 7353 H 691.782 -0.757586 -2.83968 0
M  V30 7354 H 689.296 -0.515037 -1.54017 0
M  V30 7355 H 691.293 1.46585 -3.9028 0
M  V30 7356 H 689.953 1.72004 -2.75399 0
M  V30 7357 H 690.964 -1.18429 -5.04177 0
M  V30 7358 H 687.641 1.17899 -4.00507 0
M  V30 7359 H 689.031 -2.08622 -6.38691 0
M  V30 7360 N 691.751 1.51645 -0.429126 0
M  V30 7361 C 692.683 2.25279 0.422124 0
M  V30 7362 C 693.696 1.28986 0.993299 0
M  V30 7363 O 694.885 1.54797 0.888836 0
M  V30 7364 C 691.985 2.98666 1.60162 0
M  V30 7365 C 691.158 4.2199 1.15078 0
M  V30 7366 C 690.217 4.78028 2.19946 0
M  V30 7367 O 689.243 5.40084 1.79716 0
M  V30 7368 N 690.445 4.61342 3.5234 0
M  V30 7369 H 693.21 2.98971 -0.208931 0
M  V30 7370 H 690.771 1.59838 -0.257568 0
M  V30 7371 H 692.763 3.33044 2.29922 0
M  V30 7372 H 691.333 2.28036 2.13818 0
M  V30 7373 H 690.553 3.932 0.280552 0
M  V30 7374 H 691.841 5.02037 0.826831 0
M  V30 7375 H 691.239 4.11894 3.87763 0
M  V30 7376 H 689.796 5.00104 4.18019 0
M  V30 7377 N 693.229 0.160201 1.56784 0
M  V30 7378 C 694.192 -0.760405 2.16219 0
M  V30 7379 C 695.192 -1.16595 1.10735 0
M  V30 7380 O 696.382 -1.08472 1.36306 0
M  V30 7381 C 693.514 -2.03358 2.73603 0
M  V30 7382 H 694.707 -0.243173 2.98912 0
M  V30 7383 H 692.26 -0.0893139 1.56045 0
M  V30 7384 H 692.995 -2.59416 1.94612 0
M  V30 7385 H 692.78 -1.75186 3.50788 0
M  V30 7386 H 694.27 -2.69081 3.19351 0
M  V30 7387 N 694.707 -1.5719 -0.113559 0
M  V30 7388 C 695.67 -1.99796 -1.12314 0
M  V30 7389 C 696.67 -0.888847 -1.34001 0
M  V30 7390 O 697.86 -1.15476 -1.30426 0
M  V30 7391 C 694.992 -2.34279 -2.47641 0
M  V30 7392 H 696.185 -2.90193 -0.756825 0
M  V30 7393 H 693.738 -1.52144 -0.358029 0
M  V30 7394 H 694.473 -1.46778 -2.89183 0
M  V30 7395 H 694.258 -3.15175 -2.33253 0
M  V30 7396 H 695.748 -2.67963 -3.2029 0
M  V30 7397 N 696.185 0.383891 -1.52853 0
M  V30 7398 C 697.135 1.46892 -1.74375 0
M  V30 7399 C 698.119 1.49378 -0.597909 0
M  V30 7400 O 699.311 1.54929 -0.855929 0
M  V30 7401 C 696.44 2.84547 -1.92063 0
M  V30 7402 C 695.526 2.8661 -3.12594 0
M  V30 7403 N 695.917 2.58339 -4.3485 0
M  V30 7404 C 694.215 3.17777 -3.12944 0
M  V30 7405 C 694.916 2.67616 -5.16485 0
M  V30 7406 N 693.892 3.01561 -4.52285 0
M  V30 7407 H 697.694 1.23869 -2.66522 0
M  V30 7408 H 695.208 0.591895 -1.51229 0
M  V30 7409 H 697.205 3.62674 -2.05604 0
M  V30 7410 H 695.865 3.08549 -1.01133 0
M  V30 7411 H 696.876 2.32266 -4.62896 0
M  V30 7412 H 693.553 3.47211 -2.31842 0
M  V30 7413 H 694.943 2.4926 -6.23955 0
M  V30 7414 N 697.663 1.43903 0.642637 0
M  V30 7415 C 698.912 1.45362 1.39831 0
M  V30 7416 C 699.225 0.0856289 1.95412 0
M  V30 7417 O 700.431 -0.0222856 2.71491 0
M  V30 7418 C 698.887 2.55857 2.53111 0
M  V30 7419 C 698.495 3.98811 2.04092 0
M  V30 7420 C 700.239 2.66524 3.30402 0
M  V30 7421 C 698.146 5.00751 3.14647 0
M  V30 7422 H 697.076 0.540777 0.52543 0
M  V30 7423 H 699.727 1.69929 0.692559 0
M  V30 7424 H 698.109 2.2451 3.26207 0
M  V30 7425 H 699.283 4.3967 1.37938 0
M  V30 7426 H 697.598 3.92284 1.39651 0
M  V30 7427 H 700.195 3.39858 4.12796 0
M  V30 7428 H 700.538 1.71949 3.79129 0
M  V30 7429 H 701.071 2.97224 2.64392 0
M  V30 7430 H 697.81 5.96914 2.70876 0
M  V30 7431 H 697.33 4.64495 3.79479 0
M  V30 7432 H 699.009 5.23933 3.79609 0
M  V30 7433 N 699.141 -0.881989 1.30609 0
M  V30 7434 C 700.073 -1.99375 1.13058 0
M  V30 7435 C 701.086 -1.62636 0.0729879 0
M  V30 7436 O 702.275 -1.75621 0.319301 0
M  V30 7437 C 699.375 -3.31536 0.702651 0
M  V30 7438 C 698.548 -3.96693 1.84265 0
M  V30 7439 C 697.607 -5.07158 1.40277 0
M  V30 7440 O 696.633 -5.28628 2.11048 0
M  V30 7441 N 697.835 -5.79808 0.283449 0
M  V30 7442 H 700.6 -2.14981 2.08814 0
M  V30 7443 H 698.161 -1.05526 1.22784 0
M  V30 7444 H 700.153 -4.02804 0.391331 0
M  V30 7445 H 698.723 -3.12175 -0.162954 0
M  V30 7446 H 697.943 -3.1856 2.32192 0
M  V30 7447 H 699.231 -4.36964 2.60653 0
M  V30 7448 H 698.629 -5.64871 -0.306189 0
M  V30 7449 H 697.186 -6.51792 0.0315985 0
M  V30 7450 N 700.619 -1.13374 -1.09472 0
M  V30 7451 C 701.549 -0.833268 -2.18126 0
M  V30 7452 C 702.53 0.207169 -1.68834 0
M  V30 7453 O 703.715 0.0662012 -1.94087 0
M  V30 7454 C 700.845 -0.297979 -3.46019 0
M  V30 7455 C 699.799 -1.27261 -4.08642 0
M  V30 7456 C 699.125 -0.597104 -5.31356 0
M  V30 7457 C 700.425 -2.63095 -4.51197 0
M  V30 7458 H 702.119 -1.74182 -2.43518 0
M  V30 7459 H 699.665 -0.838921 -1.17039 0
M  V30 7460 H 701.618 -0.0754444 -4.21332 0
M  V30 7461 H 700.342 0.645959 -3.20148 0
M  V30 7462 H 699.001 -1.48113 -3.35348 0
M  V30 7463 H 698.649 0.352293 -5.01765 0
M  V30 7464 H 698.349 -1.24734 -5.74208 0
M  V30 7465 H 699.873 -0.38384 -6.09392 0
M  V30 7466 H 701.287 -2.46214 -5.17737 0
M  V30 7467 H 699.684 -3.2429 -5.04932 0
M  V30 7468 H 700.754 -3.20793 -3.6362 0
M  V30 7469 N 702.098 1.27442 -0.927168 0
M  V30 7470 C 703.323 1.99036 -0.583042 0
M  V30 7471 C 703.748 1.68711 0.83176 0
M  V30 7472 O 703.106 0.927081 1.55804 0
M  V30 7473 C 703.154 3.51271 -0.814925 0
M  V30 7474 O 702.258 4.12226 0.119742 0
M  V30 7475 H 701.599 0.624883 -0.224538 0
M  V30 7476 H 704.129 1.62263 -1.24628 0
M  V30 7477 H 704.139 4.01411 -0.730282 0
M  V30 7478 H 702.814 3.72676 -1.84623 0
M  V30 7479 H 701.391 3.72897 -0.0147688 0
M  V30 7480 N 703.576 0.692616 1.41565 0
M  V30 7481 C 704.524 0.0139952 2.32596 0
M  V30 7482 C 705.518 -0.771691 1.50802 0
M  V30 7483 O 706.724 -0.677646 1.66757 0
M  V30 7484 H 703.099 -0.0142745 0.751865 0
M  V30 7485 H 705.07 0.798851 2.87508 0
M  V30 7486 C 703.819 -0.910602 3.35564 0
M  V30 7487 H 703.142 -0.315446 3.98554 0
M  V30 7488 H 704.582 -1.3538 4.01806 0
M  V30 7489 C 703.041 -2.02539 2.6922 0
M  V30 7490 O 703.571 -3.11386 2.53775 0
M  V30 7491 N 701.777 -1.80227 2.27962 0
M  V30 7492 H 701.324 -0.917054 2.40724 0
M  V30 7493 H 701.282 -2.55001 1.83907 0
M  V30 7494 N 705.054 -1.51416 0.437162 0
M  V30 7495 C 706.465 -1.86682 -0.0260005 0
M  V30 7496 C 706.816 -1.35432 -1.4196 0
M  V30 7497 O 705.941 -0.705055 -2.04592 0
M  V30 7498 C 706.536 -3.38757 -0.0539577 0
M  V30 7499 C 705.095 -3.7356 -0.461532 0
M  V30 7500 C 704.242 -2.75134 0.345924 0
M  V30 7501 H 707.193 -1.44642 0.653013 0
M  V30 7502 H 707.214 -3.70573 -0.863478 0
M  V30 7503 H 706.726 -3.76028 0.96045 0
M  V30 7504 H 704.827 -3.41878 -1.48155 0
M  V30 7505 H 704.94 -4.78737 -0.186451 0
M  V30 7506 H 703.304 -2.53947 -0.195739 0
M  V30 7507 H 704.087 -3.15247 1.35921 0
M  V30 7508 N 706.532 -0.168513 -1.56696 0
M  V30 7509 C 707.757 0.486688 -2.01609 0
M  V30 7510 C 708.182 1.56203 -1.04796 0
M  V30 7511 O 707.54 1.8128 -0.0270596 0
M  V30 7512 C 707.588 1.04451 -3.45141 0
M  V30 7513 O 706.692 2.15862 -3.51393 0
M  V30 7514 H 706.033 0.116831 -0.653641 0
M  V30 7515 H 708.563 -0.271579 -2.0279 0
M  V30 7516 H 708.573 1.36782 -3.84389 0
M  V30 7517 H 707.248 0.257155 -4.15104 0
M  V30 7518 H 705.825 1.84597 -3.24004 0
M  V30 7519 N 708.01 1.57248 0.105221 0
M  V30 7520 C 709.235 1.90143 0.828264 0
M  V30 7521 C 709.66 0.761811 1.71983 0
M  V30 7522 O 709.018 -0.287086 1.79013 0
M  V30 7523 C 709.066 3.21856 1.62608 0
M  V30 7524 O 708.17 3.08732 2.7342 0
M  V30 7525 H 707.511 0.623558 0.228192 0
M  V30 7526 H 710.041 2.0443 0.0834826 0
M  V30 7527 H 710.051 3.54916 2.01243 0
M  V30 7528 H 708.726 4.0439 0.971687 0
M  V30 7529 H 707.303 2.87167 2.37886 0
M  V30 7530 N 709.488 -0.375779 1.53054 0
M  V30 7531 C 710.418 -1.46598 1.81745 0
M  V30 7532 C 711.399 -1.56337 0.670286 0
M  V30 7533 O 712.584 -1.71071 0.919158 0
M  V30 7534 C 709.714 -2.84058 1.99821 0
M  V30 7535 C 708.668 -2.8915 3.15557 0
M  V30 7536 C 707.994 -4.29187 3.18908 0
M  V30 7537 C 709.294 -2.57595 4.54359 0
M  V30 7538 H 710.988 -1.22837 2.73041 0
M  V30 7539 H 708.534 -0.589485 1.31381 0
M  V30 7540 H 710.487 -3.60342 2.18475 0
M  V30 7541 H 709.211 -3.09184 1.05226 0
M  V30 7542 H 707.87 -2.15316 2.96706 0
M  V30 7543 H 707.518 -4.51374 2.2197 0
M  V30 7544 H 707.218 -4.33512 3.96662 0
M  V30 7545 H 708.742 -5.07359 3.39734 0
M  V30 7546 H 710.156 -3.23595 4.73243 0
M  V30 7547 H 708.553 -2.73252 5.34279 0
M  V30 7548 H 709.623 -1.52882 4.60169 0
M  V30 7549 N 710.966 -1.44241 -0.634997 0
M  V30 7550 C 712.191 -1.50516 -1.42687 0
M  V30 7551 C 712.616 -0.129864 -1.87651 0
M  V30 7552 O 711.974 0.880164 -1.58502 0
M  V30 7553 C 712.022 -2.4714 -2.62591 0
M  V30 7554 O 711.126 -1.97025 -3.62291 0
M  V30 7555 H 710.467 -0.50841 -0.427101 0
M  V30 7556 H 712.997 -1.89337 -0.775408 0
M  V30 7557 H 713.007 -2.65048 -3.10183 0
M  V30 7558 H 711.682 -3.47039 -2.29209 0
M  V30 7559 H 710.259 -1.88866 -3.21534 0
M  V30 7560 N 712.444 0.87505 -1.31075 0
M  V30 7561 C 713.392 2.00317 -1.18219 0
M  V30 7562 C 714.386 1.69152 -0.0916872 0
M  V30 7563 O 715.592 1.7821 -0.253229 0
M  V30 7564 H 711.967 0.656981 -0.365895 0
M  V30 7565 H 713.938 2.08293 -2.13674 0
M  V30 7566 C 712.687 3.35821 -0.901095 0
M  V30 7567 H 712.01 3.6032 -1.73233 0
M  V30 7568 H 713.45 4.15366 -0.851295 0
M  V30 7569 C 711.909 3.34563 0.396114 0
M  V30 7570 O 712.439 3.75971 1.41452 0
M  V30 7571 N 710.645 2.87681 0.410832 0
M  V30 7572 H 710.192 2.54179 -0.418415 0
M  V30 7573 H 710.15 2.87223 1.27869 0
M  V30 7574 N 713.922 1.13953 1.08869 0
M  V30 7575 C 715.171 0.899431 1.80536 0
M  V30 7576 C 715.484 -0.575781 1.86933 0
M  V30 7577 O 716.69 -0.932988 2.54966 0
M  V30 7578 C 715.146 1.55963 3.24351 0
M  V30 7579 C 714.754 3.07077 3.26202 0
M  V30 7580 C 716.498 1.40046 4.00733 0
M  V30 7581 C 714.405 3.65955 4.64576 0
M  V30 7582 H 713.335 0.332849 0.676556 0
M  V30 7583 H 715.986 1.3679 1.22314 0
M  V30 7584 H 714.368 1.01883 3.82669 0
M  V30 7585 H 715.542 3.67785 2.77617 0
M  V30 7586 H 713.857 3.22576 2.63312 0
M  V30 7587 H 716.454 1.81441 5.02974 0
M  V30 7588 H 716.797 0.345993 4.1486 0
M  V30 7589 H 717.33 1.91137 3.48872 0
M  V30 7590 H 714.069 4.71234 4.55652 0
M  V30 7591 H 713.589 3.10027 5.13462 0
M  V30 7592 H 715.268 3.65968 5.33551 0
M  V30 7593 N 715.4 -1.26948 0.933913 0
M  V30 7594 C 716.677 -1.89212 0.495784 0
M  V30 7595 C 717.057 -1.84469 -1.02637 0
M  V30 7596 O 716.405 -1.29409 -1.88323 0
M  V30 7597 C 716.615 -3.32865 1.0489 0
M  V30 7598 C 717.963 -4.09749 1.11315 0
M  V30 7599 O 718.987 -3.41905 0.998966 0
M  V30 7600 O 717.846 -5.31061 1.28983 0
M  V30 7601 H 714.94 -0.811284 0.160459 0
M  V30 7602 H 717.486 -1.35171 1.02601 0
M  V30 7603 H 716.258 -3.30642 2.09265 0
M  V30 7604 H 715.881 -3.94435 0.500692 0
M  V30 7605 N 716.879 -0.700114 -1.41195 0
M  V30 7606 C 718.126 -0.233006 -2.01155 0
M  V30 7607 C 718.454 1.16883 -1.55462 0
M  V30 7608 O 717.709 1.80395 -0.758695 0
M  V30 7609 C 718.008 -0.243986 -3.56566 0
M  V30 7610 C 717.674 -1.59397 -4.21786 0
M  V30 7611 C 716.336 -1.96355 -4.39316 0
M  V30 7612 C 718.688 -2.48192 -4.58312 0
M  V30 7613 C 716.016 -3.21683 -4.9065 0
M  V30 7614 C 718.368 -3.72857 -5.11039 0
M  V30 7615 C 717.032 -4.09951 -5.26779 0
M  V30 7616 H 716.302 -0.085263 -0.736078 0
M  V30 7617 H 718.949 -0.9001 -1.69028 0
M  V30 7618 H 717.254 0.506663 -3.8851 0
M  V30 7619 H 718.951 0.135031 -4.00773 0
M  V30 7620 H 715.541 -1.29654 -4.08519 0
M  V30 7621 H 719.725 -2.20918 -4.4442 0
M  V30 7622 H 714.981 -3.50412 -5.01021 0
M  V30 7623 H 719.155 -4.41844 -5.38282 0
M  V30 7624 H 716.782 -5.07136 -5.66319 0
M  V30 7625 N 718.357 1.51182 -0.445186 0
M  V30 7626 C 719.587 2.06269 0.116922 0
M  V30 7627 C 719.995 1.31188 1.36332 0
M  V30 7628 O 719.338 0.367067 1.79995 0
M  V30 7629 C 719.4 3.56051 0.496757 0
M  V30 7630 C 719.064 4.52441 -0.64394 0
M  V30 7631 C 720.061 4.97233 -1.5184 0
M  V30 7632 C 717.746 4.95447 -0.826905 0
M  V30 7633 C 719.74 5.83712 -2.56046 0
M  V30 7634 C 717.427 5.81714 -1.87222 0
M  V30 7635 C 718.425 6.25745 -2.73738 0
M  V30 7636 O 718.113 7.10298 -3.76474 0
M  V30 7637 H 717.845 0.675954 0.00785733 0
M  V30 7638 H 720.399 1.95648 -0.625371 0
M  V30 7639 H 718.629 3.64483 1.29187 0
M  V30 7640 H 720.318 3.93618 0.990928 0
M  V30 7641 H 721.084 4.64696 -1.38862 0
M  V30 7642 H 716.963 4.60712 -0.163052 0
M  V30 7643 H 720.507 6.18 -3.23607 0
M  V30 7644 H 716.404 6.13664 -2.00218 0
M  V30 7645 H 717.172 7.28493 -3.73149 0
M  V30 7646 N 719.835 0.176821 1.56605 0
M  V30 7647 C 720.798 -0.737429 2.17013 0
M  V30 7648 C 721.798 -1.15414 1.11965 0
M  V30 7649 O 722.988 -1.0702 1.37449 0
M  V30 7650 C 720.12 -2.00445 2.75744 0
M  V30 7651 H 721.313 -0.211455 2.99154 0
M  V30 7652 H 718.866 -0.0727582 1.56131 0
M  V30 7653 H 719.601 -2.57338 1.97352 0
M  V30 7654 H 719.386 -1.71456 3.52626 0
M  V30 7655 H 720.876 -2.65679 3.22187 0
M  V30 7656 N 721.313 -1.57302 -0.09688 0
M  V30 7657 C 722.245 -1.98618 -1.14384 0
M  V30 7658 C 723.258 -0.888483 -1.36418 0
M  V30 7659 O 724.447 -1.16661 -1.35101 0
M  V30 7660 C 721.547 -2.28838 -2.49973 0
M  V30 7661 C 720.72 -3.60132 -2.48241 0
M  V30 7662 C 719.779 -3.7831 -3.65743 0
M  V30 7663 O 718.805 -4.50183 -3.48316 0
M  V30 7664 N 720.007 -3.18752 -4.85157 0
M  V30 7665 H 722.772 -2.8904 -0.792202 0
M  V30 7666 H 720.333 -1.59356 -0.285883 0
M  V30 7667 H 722.325 -2.38193 -3.27179 0
M  V30 7668 H 720.895 -1.44431 -2.77233 0
M  V30 7669 H 720.115 -3.61763 -1.56593 0
M  V30 7670 H 721.403 -4.46389 -2.4416 0
M  V30 7671 H 720.801 -2.60368 -5.0222 0
M  V30 7672 H 719.358 -3.33595 -5.59962 0
M  V30 7673 N 722.791 0.367657 -1.53252 0
M  V30 7674 C 724.037 1.11216 -1.69584 0
M  V30 7675 C 724.37 1.89026 -0.445269 0
M  V30 7676 O 723.645 1.86342 0.557404 0
M  V30 7677 C 723.928 2.07308 -2.94441 0
M  V30 7678 C 723.781 1.3312 -4.2965 0
M  V30 7679 C 725.1 3.07459 -3.14892 0
M  V30 7680 H 722.219 0.40294 -0.617096 0
M  V30 7681 H 724.861 0.393201 -1.85887 0
M  V30 7682 H 723.011 2.68617 -2.80673 0
M  V30 7683 H 724.683 0.746111 -4.55226 0
M  V30 7684 H 722.926 0.633051 -4.29156 0
M  V30 7685 H 723.597 2.03443 -5.13142 0
M  V30 7686 H 726.073 2.56252 -3.27832 0
M  V30 7687 H 724.949 3.71919 -4.03693 0
M  V30 7688 H 725.21 3.77514 -2.30077 0
M  V30 7689 N 724.269 1.44576 0.627338 0
M  V30 7690 C 725.494 1.51271 1.41887 0
M  V30 7691 C 725.919 0.139814 1.8758 0
M  V30 7692 O 725.277 -0.871746 1.58966 0
M  V30 7693 C 725.325 2.48529 2.61277 0
M  V30 7694 O 724.429 1.98944 3.61241 0
M  V30 7695 H 723.77 0.510668 0.424399 0
M  V30 7696 H 726.3 1.89746 0.765356 0
M  V30 7697 H 726.31 2.66689 3.08773 0
M  V30 7698 H 724.985 3.48249 2.27366 0
M  V30 7699 H 723.562 1.90568 3.20528 0
M  V30 7700 N 725.747 -0.868086 1.31537 0
M  V30 7701 C 727.024 -1.60384 1.11965 0
M  V30 7702 C 727.404 -2.08584 -0.324949 0
M  V30 7703 O 726.752 -1.86561 -1.31937 0
M  V30 7704 C 726.962 -2.76038 2.13551 0
M  V30 7705 C 728.31 -3.45954 2.46173 0
M  V30 7706 O 729.334 -2.86247 2.11993 0
M  V30 7707 O 728.193 -4.53666 3.04711 0
M  V30 7708 H 725.287 -0.705705 0.431172 0
M  V30 7709 H 727.833 -0.913385 1.43022 0
M  V30 7710 H 726.605 -2.37849 3.10714 0
M  V30 7711 H 726.228 -3.52769 1.83411 0
M  V30 7712 N 727.225 -1.14528 -1.08264 0
M  V30 7713 C 728.474 -0.908992 -1.80056 0
M  V30 7714 C 728.787 0.565859 -1.87236 0
M  V30 7715 O 729.993 0.919454 -2.55457 0
M  V30 7716 C 728.449 -1.57681 -3.23519 0
M  V30 7717 C 728.057 -3.08803 -3.24569 0
M  V30 7718 C 729.801 -1.4217 -3.99985 0
M  V30 7719 C 727.708 -3.68414 -4.62629 0
M  V30 7720 H 726.638 -0.336432 -0.674781 0
M  V30 7721 H 729.289 -1.37437 -1.21587 0
M  V30 7722 H 727.671 -1.03911 -3.82124 0
M  V30 7723 H 728.845 -3.69252 -2.75663 0
M  V30 7724 H 727.16 -3.23968 -2.61598 0
M  V30 7725 H 729.757 -1.84106 -5.02005 0
M  V30 7726 H 730.1 -0.367989 -4.1467 0
M  V30 7727 H 730.633 -1.92984 -3.47853 0
M  V30 7728 H 727.372 -4.73644 -4.53147 0
M  V30 7729 H 726.892 -3.12746 -5.11811 0
M  V30 7730 H 728.571 -3.68793 -5.31602 0
M  V30 7731 N 728.703 1.26451 -0.940633 0
M  V30 7732 C 729.931 1.97868 -0.604642 0
M  V30 7733 C 730.346 1.70051 0.820251 0
M  V30 7734 O 729.703 0.96843 1.54686 0
M  V30 7735 C 729.754 3.51684 -0.836689 0
M  V30 7736 O 729.475 3.78533 -2.20554 0
M  V30 7737 C 730.976 4.40343 -0.511169 0
M  V30 7738 H 728.196 0.631105 -0.227919 0
M  V30 7739 H 730.74 1.60979 -1.26119 0
M  V30 7740 H 728.895 3.86736 -0.226759 0
M  V30 7741 H 729.309 4.73065 -2.26517 0
M  V30 7742 H 730.783 5.47229 -0.724157 0
M  V30 7743 H 731.26 4.35694 0.553815 0
M  V30 7744 H 731.866 4.10834 -1.0998 0
M  V30 7745 N 730.181 0.707592 1.40822 0
M  V30 7746 C 731.592 0.317011 1.83989 0
M  V30 7747 C 731.943 -1.14697 1.59182 0
M  V30 7748 O 731.068 -1.8818 1.06852 0
M  V30 7749 C 731.663 0.568593 3.33995 0
M  V30 7750 C 730.222 0.231804 3.75686 0
M  V30 7751 C 729.369 0.844933 2.64114 0
M  V30 7752 H 732.32 0.907349 1.30203 0
M  V30 7753 H 732.341 -0.168798 3.80125 0
M  V30 7754 H 731.853 1.63417 3.52018 0
M  V30 7755 H 729.954 -0.82903 3.6326 0
M  V30 7756 H 730.067 0.695219 4.74029 0
M  V30 7757 H 728.431 0.273588 2.53226 0
M  V30 7758 H 729.214 1.91462 2.84951 0
M  V30 7759 N 731.66 -1.50943 0.453197 0
M  V30 7760 C 732.623 -2.26684 -0.338705 0
M  V30 7761 C 733.623 -1.30748 -0.936032 0
M  V30 7762 O 734.813 -1.54327 -0.808002 0
M  V30 7763 C 731.945 -3.07063 -1.48071 0
M  V30 7764 H 733.138 -2.98131 0.325289 0
M  V30 7765 H 730.691 -1.54926 0.206771 0
M  V30 7766 H 731.426 -2.4007 -2.18029 0
M  V30 7767 H 731.211 -3.77545 -1.0584 0
M  V30 7768 H 732.701 -3.64393 -2.0398 0
M  V30 7769 N 733.138 -0.185124 -1.56509 0
M  V30 7770 C 734.386 0.455357 -1.96903 0
M  V30 7771 C 734.707 1.62839 -1.07277 0
M  V30 7772 O 733.977 1.95385 -0.141966 0
M  V30 7773 H 732.557 0.171218 -0.727113 0
M  V30 7774 H 735.219 -0.26953 -1.93027 0
M  V30 7775 H 734.315 0.80616 -3.01509 0
M  V30 7776 N 734.616 1.57351 0.0885366 0
M  V30 7777 C 735.841 1.91011 0.80805 0
M  V30 7778 C 736.266 0.780009 1.71165 0
M  V30 7779 O 735.624 -0.268083 1.79307 0
M  V30 7780 C 735.672 3.23562 1.59185 0
M  V30 7781 O 734.776 3.11615 2.7013 0
M  V30 7782 H 734.117 0.625943 0.221565 0
M  V30 7783 H 736.647 2.04507 0.0617954 0
M  V30 7784 H 736.657 3.5703 1.97468 0
M  V30 7785 H 735.332 4.05398 0.928741 0
M  V30 7786 H 733.909 2.89673 2.34827 0
M  V30 7787 N 736.094 -0.359525 1.53444 0
M  V30 7788 C 737.34 -1.10315 1.70172 0
M  V30 7789 C 737.673 -1.88788 0.455287 0
M  V30 7790 O 736.948 -1.86635 -0.547514 0
M  V30 7791 C 737.231 -2.05744 2.95536 0
M  V30 7792 C 737.084 -1.3084 4.3035 0
M  V30 7793 C 738.403 -3.05784 3.16518 0
M  V30 7794 H 735.522 -0.399662 0.619225 0
M  V30 7795 H 738.164 -0.383338 1.86093 0
M  V30 7796 H 736.314 -2.67125 2.82093 0
M  V30 7797 H 737.986 -0.721959 4.55615 0
M  V30 7798 H 736.229 -0.610283 4.29486 0
M  V30 7799 H 736.9 -2.00718 5.14214 0
M  V30 7800 H 739.376 -2.5451 3.29187 0
M  V30 7801 H 738.252 -3.69772 4.05659 0
M  V30 7802 H 738.513 -3.76289 2.32076 0
M  V30 7803 N 737.572 -1.44907 -0.619662 0
M  V30 7804 C 738.818 -1.48512 -1.38102 0
M  V30 7805 C 739.151 -0.121686 -1.93818 0
M  V30 7806 O 738.426 0.862256 -1.74343 0
M  V30 7807 C 738.709 -2.55469 -2.53787 0
M  V30 7808 C 738.562 -4.01212 -2.03345 0
M  V30 7809 C 739.881 -2.58821 -3.55949 0
M  V30 7810 H 737 -0.540712 -0.500799 0
M  V30 7811 H 739.642 -1.7665 -0.69962 0
M  V30 7812 H 737.792 -2.31606 -3.11915 0
M  V30 7813 H 739.464 -4.36245 -1.49959 0
M  V30 7814 H 737.707 -4.12443 -1.34438 0
M  V30 7815 H 738.378 -4.71717 -2.86683 0
M  V30 7816 H 740.854 -2.80172 -3.07641 0
M  V30 7817 H 739.73 -3.35542 -4.34399 0
M  V30 7818 H 739.991 -1.63451 -4.10775 0
M  V30 7819 N 739.05 0.861098 -1.31996 0
M  V30 7820 C 739.98 1.98482 -1.22993 0
M  V30 7821 C 740.961 1.6971 -0.115168 0
M  V30 7822 O 742.146 1.91849 -0.30126 0
M  V30 7823 C 739.276 3.34179 -0.945615 0
M  V30 7824 C 738.23 3.77284 -2.02091 0
M  V30 7825 C 737.556 5.1054 -1.58912 0
M  V30 7826 C 738.856 3.93439 -3.43515 0
M  V30 7827 H 740.55 2.06271 -2.17008 0
M  V30 7828 H 738.096 0.991043 -1.04472 0
M  V30 7829 H 740.049 4.12338 -0.869206 0
M  V30 7830 H 738.773 3.26586 0.0301849 0
M  V30 7831 H 737.432 3.01371 -2.08737 0
M  V30 7832 H 737.08 4.99397 -0.600942 0
M  V30 7833 H 736.78 5.40352 -2.30854 0
M  V30 7834 H 738.304 5.91199 -1.52696 0
M  V30 7835 H 739.718 4.6197 -3.39495 0
M  V30 7836 H 738.115 4.34661 -4.13751 0
M  V30 7837 H 739.185 2.96548 -3.8365 0
M  V30 7838 N 740.528 1.15101 1.07655 0
M  V30 7839 C 741.753 0.948177 1.84457 0
M  V30 7840 C 742.178 -0.498432 1.81376 0
M  V30 7841 O 741.536 -1.35509 1.20445 0
M  V30 7842 C 741.584 1.46318 3.29581 0
M  V30 7843 O 740.688 0.660342 4.07079 0
M  V30 7844 H 740.029 0.338428 0.571281 0
M  V30 7845 H 742.559 1.5301 1.35828 0
M  V30 7846 H 742.569 1.47468 3.80417 0
M  V30 7847 H 741.244 2.51635 3.31138 0
M  V30 7848 H 739.821 0.718216 3.65918 0
M  V30 7849 N 742.006 -1.2595 0.947325 0
M  V30 7850 C 743.417 -1.75389 0.639963 0
M  V30 7851 C 743.768 -1.77081 -0.844788 0
M  V30 7852 O 742.893 -1.3869 -1.66114 0
M  V30 7853 C 743.488 -3.18506 1.15496 0
M  V30 7854 C 742.047 -3.65534 0.897894 0
M  V30 7855 C 741.194 -2.44818 1.30228 0
M  V30 7856 H 744.145 -1.1194 1.12495 0
M  V30 7857 H 744.166 -3.77045 0.511627 0
M  V30 7858 H 743.678 -3.17243 2.23559 0
M  V30 7859 H 741.779 -3.72221 -0.168096 0
M  V30 7860 H 741.892 -4.54039 1.52922 0
M  V30 7861 H 740.256 -2.44291 0.720678 0
M  V30 7862 H 741.039 -2.46251 2.39198 0
M  V30 7863 N 743.484 -0.715051 -1.40445 0
M  V30 7864 C 744.732 -0.253826 -2.005 0
M  V30 7865 C 745.053 1.15681 -1.5698 0
M  V30 7866 O 744.323 1.78414 -0.809027 0
M  V30 7867 H 742.903 -0.0908537 -0.741454 0
M  V30 7868 H 745.565 -0.920561 -1.7179 0
M  V30 7869 H 744.661 -0.286499 -3.10782 0
M  V30 7870 N 744.962 1.50701 -0.461195 0
M  V30 7871 C 745.894 2.26124 0.374244 0
M  V30 7872 C 746.907 1.31064 0.965715 0
M  V30 7873 O 748.096 1.56647 0.855801 0
M  V30 7874 C 745.196 3.01996 1.5379 0
M  V30 7875 C 744.369 4.24336 1.06101 0
M  V30 7876 C 743.428 4.82585 2.09756 0
M  V30 7877 O 742.454 5.43775 1.68219 0
M  V30 7878 N 743.656 4.68712 3.42475 0
M  V30 7879 H 746.421 2.9846 -0.2723 0
M  V30 7880 H 743.982 1.59256 -0.291415 0
M  V30 7881 H 745.974 3.37846 2.22806 0
M  V30 7882 H 744.544 2.32521 2.08933 0
M  V30 7883 H 743.764 3.93707 0.197085 0
M  V30 7884 H 745.052 5.03678 0.720156 0
M  V30 7885 H 744.45 4.20026 3.78938 0
M  V30 7886 H 743.007 5.08858 4.07317 0
M  V30 7887 N 746.441 0.193421 1.56409 0
M  V30 7888 C 747.388 -0.728124 2.19014 0
M  V30 7889 C 748.358 -1.21098 1.13686 0
M  V30 7890 O 749.543 -1.27517 1.4193 0
M  V30 7891 C 746.683 -1.94277 2.8522 0
M  V30 7892 C 745.796 -1.50143 4.05069 0
M  V30 7893 C 744.931 -2.67145 4.59137 0
M  V30 7894 C 743.97 -2.19609 5.71348 0
M  V30 7895 N 743.107 -3.29782 6.19829 0
M  V30 7896 H 747.947 -0.187499 2.9741 0
M  V30 7897 H 745.484 -0.0808064 1.46878 0
M  V30 7898 H 747.442 -2.65551 3.21774 0
M  V30 7899 H 746.072 -2.45673 2.09391 0
M  V30 7900 H 745.124 -0.684624 3.74189 0
M  V30 7901 H 746.436 -1.11266 4.86232 0
M  V30 7902 H 745.59 -3.46544 4.97988 0
M  V30 7903 H 744.329 -3.09295 3.77078 0
M  V30 7904 H 743.334 -1.38664 5.32027 0
M  V30 7905 H 744.559 -1.78492 6.55223 0
M  V30 7906 H 742.505 -3.71466 5.40693 0
M  V30 7907 H 742.422 -2.95069 6.96039 0
M  V30 7908 H 743.69 -4.094 6.63334 0
M  V30 7909 N 747.919 -1.57396 -0.0801906 0
M  V30 7910 C 748.867 -2.04136 -1.11495 0
M  V30 7911 C 749.861 -0.945137 -1.40583 0
M  V30 7912 O 751.067 -1.13028 -1.40088 0
M  V30 7913 H 747.442 -0.65076 -0.37685 0
M  V30 7914 H 749.413 -2.90205 -0.694526 0
M  V30 7915 C 748.162 -2.49399 -2.42272 0
M  V30 7916 H 747.485 -3.33339 -2.20737 0
M  V30 7917 H 748.925 -2.85864 -3.13142 0
M  V30 7918 C 747.384 -1.37341 -3.07635 0
M  V30 7919 O 747.914 -0.710829 -3.95361 0
M  V30 7920 N 746.12 -1.12064 -2.68123 0
M  V30 7921 H 745.667 -1.66126 -1.96875 0
M  V30 7922 H 745.625 -0.372916 -3.12181 0
M  V30 7923 N 749.397 0.351382 -1.53633 0
M  V30 7924 C 750.344 1.43115 -1.81071 0
M  V30 7925 C 751.314 1.52601 -0.655913 0
M  V30 7926 O 752.499 1.68264 -0.89955 0
M  V30 7927 C 749.639 2.79874 -2.01903 0
M  V30 7928 C 748.752 2.79242 -3.29618 0
M  V30 7929 C 747.887 4.07667 -3.40559 0
M  V30 7930 C 746.926 4.01233 -4.62254 0
M  V30 7931 N 746.063 5.21334 -4.70271 0
M  V30 7932 H 750.903 1.19017 -2.73201 0
M  V30 7933 H 748.44 0.576691 -1.35324 0
M  V30 7934 H 750.398 3.5934 -2.11969 0
M  V30 7935 H 749.028 3.0234 -1.13094 0
M  V30 7936 H 748.08 1.91927 -3.28433 0
M  V30 7937 H 749.392 2.70363 -4.19172 0
M  V30 7938 H 748.546 4.95555 -3.50015 0
M  V30 7939 H 747.285 4.19317 -2.49047 0
M  V30 7940 H 746.29 3.11732 -4.52884 0
M  V30 7941 H 747.515 3.91173 -5.55122 0
M  V30 7942 H 745.461 5.33543 -3.81665 0
M  V30 7943 H 745.378 5.14681 -5.5375 0
M  V30 7944 H 746.646 6.11014 -4.84027 0
M  V30 7945 N 750.875 1.45233 0.611969 0
M  V30 7946 C 751.838 1.53189 1.70487 0
M  V30 7947 C 752.838 0.411839 1.55437 0
M  V30 7948 O 754.028 0.675164 1.60584 0
M  V30 7949 C 751.16 1.42422 3.09723 0
M  V30 7950 H 752.353 2.5056 1.64802 0
M  V30 7951 H 749.906 1.32609 0.827318 0
M  V30 7952 H 750.641 0.462185 3.2099 0
M  V30 7953 H 750.426 2.23658 3.22055 0
M  V30 7954 H 751.916 1.51012 3.89339 0
M  V30 7955 N 752.353 -0.854086 1.3245 0
M  V30 7956 C 753.601 -1.60513 1.228 0
M  V30 7957 C 753.922 -1.93865 -0.210073 0
M  V30 7958 O 753.192 -1.59673 -1.13496 0
M  V30 7959 H 751.772 -0.595099 0.451516 0
M  V30 7960 H 754.434 -1.0216 1.6598 0
M  V30 7961 H 753.53 -2.54182 1.81102 0
M  V30 7962 N 753.831 -1.1567 -1.07043 0
M  V30 7963 C 754.764 -0.799867 -2.13723 0
M  V30 7964 C 755.742 0.225098 -1.61034 0
M  V30 7965 O 756.926 0.11093 -1.88173 0
M  V30 7966 C 754.053 -0.18997 -3.38167 0
M  V30 7967 C 753.099 -1.18733 -4.0964 0
M  V30 7968 S 753.932 -2.73074 -4.60642 0
M  V30 7969 C 755.088 -2.13512 -5.88356 0
M  V30 7970 H 755.321 -1.70342 -2.43661 0
M  V30 7971 H 752.854 -0.979377 -1.19363 0
M  V30 7972 H 754.812 0.155471 -4.10205 0
M  V30 7973 H 753.473 0.691229 -3.064 0
M  V30 7974 H 752.666 -0.708873 -4.9899 0
M  V30 7975 H 752.268 -1.47747 -3.43579 0
M  V30 7976 H 754.56 -1.49911 -6.60706 0
M  V30 7977 H 755.503 -3.01042 -6.40921 0
M  V30 7978 H 755.911 -1.57693 -5.42027 0
M  V30 7979 N 755.309 1.25446 -0.953992 0
M  V30 7980 C 756.534 1.97755 -0.625129 0
M  V30 7981 C 756.959 1.70437 0.795787 0
M  V30 7982 O 756.317 0.95992 1.53803 0
M  V30 7983 C 756.365 3.49463 -0.889251 0
M  V30 7984 O 755.469 4.12387 0.0322757 0
M  V30 7985 H 754.81 0.61998 -0.237742 0
M  V30 7986 H 757.34 1.59582 -1.28041 0
M  V30 7987 H 757.35 3.99772 -0.815263 0
M  V30 7988 H 756.025 3.68676 -1.92487 0
M  V30 7989 H 754.602 3.72782 -0.0938625 0
M  V30 7990 N 756.787 0.722489 1.40064 0
M  V30 7991 C 757.719 0.0349057 2.29173 0
M  V30 7992 C 758.732 -0.716571 1.46182 0
M  V30 7993 O 759.921 -0.562806 1.69395 0
M  V30 7994 C 757.021 -0.974839 3.24577 0
M  V30 7995 C 756.194 -0.287471 4.36454 0
M  V30 7996 C 755.253 -1.20356 5.12251 0
M  V30 7997 O 754.279 -0.685753 5.65054 0
M  V30 7998 N 755.481 -2.53422 5.22262 0
M  V30 7999 H 758.246 0.800058 2.88824 0
M  V30 8000 H 755.807 0.57068 1.51509 0
M  V30 8001 H 757.799 -1.59002 3.72157 0
M  V30 8002 H 756.369 -1.6413 2.66046 0
M  V30 8003 H 755.589 0.508008 3.90913 0
M  V30 8004 H 756.877 0.189382 5.08447 0
M  V30 8005 H 756.275 -2.97981 4.80857 0
M  V30 8006 H 754.832 -3.10067 5.73325 0
M  V30 8007 N 758.265 -1.50454 0.469181 0
M  V30 8008 C 759.505 -2.04222 -0.0852381 0
M  V30 8009 C 759.869 -1.34357 -1.37158 0
M  V30 8010 O 761.07 -1.78669 -2.00825 0
M  V30 8011 C 759.341 -3.56403 -0.266778 0
M  V30 8012 S 760.9 -4.31811 -0.780028 0
M  V30 8013 H 757.718 -0.7108 -0.0168589 0
M  V30 8014 H 760.32 -1.8487 0.635883 0
M  V30 8015 H 759.024 -4.04807 0.67525 0
M  V30 8016 H 758.555 -3.80106 -1.01407 0
M  V30 8017 H 760.57 -4.51706 -2.05368 0
M  V30 8018 N 759.743 -0.201713 -1.56304 0
M  V30 8019 C 761.02 0.483273 -1.89536 0
M  V30 8020 C 761.4 1.79176 -1.11621 0
M  V30 8021 O 760.748 2.27445 -0.219339 0
M  V30 8022 C 760.958 0.695604 -3.41998 0
M  V30 8023 C 762.306 1.012 -4.12364 0
M  V30 8024 O 763.33 0.783094 -3.47485 0
M  V30 8025 O 762.189 1.44534 -5.27041 0
M  V30 8026 H 759.283 0.252801 -0.787414 0
M  V30 8027 H 761.829 -0.24242 -1.6796 0
M  V30 8028 H 760.601 -0.228165 -3.90634 0
M  V30 8029 H 760.224 1.47351 -3.69288 0
M  V30 8030 N 761.222 1.57436 0.0718424 0
M  V30 8031 C 762.155 1.98982 1.11721 0
M  V30 8032 C 763.133 0.866731 1.37574 0
M  V30 8033 O 764.317 1.12903 1.50948 0
M  V30 8034 C 761.444 2.32648 2.46155 0
M  V30 8035 C 760.49 3.54964 2.36437 0
M  V30 8036 S 761.323 5.05802 1.75854 0
M  V30 8037 C 762.479 5.42669 3.11867 0
M  V30 8038 H 762.712 2.87338 0.763154 0
M  V30 8039 H 760.245 1.51833 0.280372 0
M  V30 8040 H 762.203 2.52719 3.23486 0
M  V30 8041 H 760.864 1.44821 2.78722 0
M  V30 8042 H 760.057 3.76038 3.35577 0
M  V30 8043 H 759.659 3.34524 1.67242 0
M  V30 8044 H 761.951 5.40737 4.08178 0
M  V30 8045 H 762.894 6.43461 2.95573 0
M  V30 8046 H 763.302 4.70131 3.1247 0
M  V30 8047 N 762.7 -0.34323 1.53817 0
M  V30 8048 C 763.65 -1.42217 1.78208 0
M  V30 8049 C 764.634 -1.4774 0.637304 0
M  V30 8050 O 765.826 -1.52605 0.896705 0
M  V30 8051 C 762.955 -2.79354 1.9954 0
M  V30 8052 C 762.041 -2.78222 3.20084 0
M  V30 8053 N 762.432 -2.46719 4.41547 0
M  V30 8054 C 760.73 -3.09368 3.21259 0
M  V30 8055 C 761.431 -2.53828 5.23399 0
M  V30 8056 N 760.407 -2.89464 4.60121 0
M  V30 8057 H 764.209 -1.16759 2.69712 0
M  V30 8058 H 761.723 -0.551592 1.52746 0
M  V30 8059 H 763.72 -3.57095 2.15148 0
M  V30 8060 H 762.38 -3.05759 1.09278 0
M  V30 8061 H 763.391 -2.19912 4.68891 0
M  V30 8062 H 760.068 -3.40942 2.40966 0
M  V30 8063 H 761.458 -2.32629 6.30344 0
M  V30 8064 N 764.178 -1.45556 -0.604258 0
M  V30 8065 C 765.589 -1.44171 -1.18624 0
M  V30 8066 C 765.94 -0.171081 -1.95453 0
M  V30 8067 O 765.065 0.727156 -2.03817 0
M  V30 8068 C 765.66 -2.61193 -2.15786 0
M  V30 8069 C 764.219 -2.62918 -2.69353 0
M  V30 8070 C 763.366 -2.36479 -1.4482 0
M  V30 8071 H 766.317 -1.53747 -0.393381 0
M  V30 8072 H 766.338 -2.35481 -2.98879 0
M  V30 8073 H 765.85 -3.53656 -1.59841 0
M  V30 8074 H 763.951 -1.7447 -3.29228 0
M  V30 8075 H 764.064 -3.6224 -3.13559 0
M  V30 8076 H 762.428 -1.86103 -1.73891 0
M  V30 8077 H 763.211 -3.31091 -0.907376 0
M  V30 8078 N 765.656 0.84705 -1.32902 0
M  V30 8079 C 766.566 1.98845 -1.2449 0
M  V30 8080 C 767.582 1.7329 -0.15702 0
M  V30 8081 O 768.758 1.978 -0.379104 0
M  V30 8082 C 765.823 3.32679 -0.975985 0
M  V30 8083 C 764.884 3.71405 -2.15306 0
M  V30 8084 C 764.117 4.98853 -1.89688 0
M  V30 8085 O 764.34 5.64134 -0.843168 0
M  V30 8086 O 763.274 5.34889 -2.76002 0
M  V30 8087 H 767.1 2.0888 -2.2046 0
M  V30 8088 H 764.685 0.978852 -1.12867 0
M  V30 8089 H 766.567 4.12885 -0.842826 0
M  V30 8090 H 765.242 3.23667 -0.0464954 0
M  V30 8091 H 764.149 2.91743 -2.34172 0
M  V30 8092 H 765.482 3.85073 -3.06561 0
M  V30 8093 N 767.134 1.16236 1.06428 0
M  V30 8094 C 768.067 0.81119 2.13295 0
M  V30 8095 C 769.045 -0.216555 1.61151 0
M  V30 8096 O 770.229 -0.100949 1.88229 0
M  V30 8097 C 767.356 0.207901 3.38061 0
M  V30 8098 C 766.402 1.20904 4.09004 0
M  V30 8099 S 767.235 2.75513 4.59187 0
M  V30 8100 C 768.391 2.1663 5.87216 0
M  V30 8101 H 768.624 1.71632 2.42755 0
M  V30 8102 H 766.157 0.985693 1.18842 0
M  V30 8103 H 768.115 -0.133715 4.10282 0
M  V30 8104 H 766.776 -0.67497 3.06762 0
M  V30 8105 H 765.969 0.735326 4.98607 0
M  V30 8106 H 765.571 1.49567 3.42791 0
M  V30 8107 H 767.863 1.53413 6.59902 0
M  V30 8108 H 768.806 3.04437 6.39315 0
M  V30 8109 H 769.214 1.60565 5.41183 0
M  V30 8110 N 768.612 -1.24939 0.960631 0
M  V30 8111 C 769.858 -1.93104 0.61958 0
M  V30 8112 C 770.191 -1.74991 -0.84212 0
M  V30 8113 O 769.466 -1.09867 -1.60498 0
M  V30 8114 C 769.749 -3.46326 0.986422 0
M  V30 8115 C 769.602 -3.73638 2.50429 0
M  V30 8116 C 770.921 -4.37067 0.515827 0
M  V30 8117 H 768.04 -0.701311 0.226566 0
M  V30 8118 H 770.682 -1.47442 1.19836 0
M  V30 8119 H 768.832 -3.85348 0.493907 0
M  V30 8120 H 770.504 -3.44217 3.07103 0
M  V30 8121 H 768.747 -3.19035 2.93937 0
M  V30 8122 H 769.418 -4.80815 2.71147 0
M  V30 8123 H 771.894 -4.05381 0.938389 0
M  V30 8124 H 770.77 -5.43022 0.80114 0
M  V30 8125 H 771.031 -4.38224 -0.584171 0
M  V30 8126 N 770.09 -0.729906 -1.39679 0
M  V30 8127 C 771.315 -0.284345 -2.05442 0
M  V30 8128 C 771.74 1.07056 -1.54663 0
M  V30 8129 O 771.098 1.67732 -0.688157 0
M  V30 8130 C 771.146 -0.290089 -3.59431 0
M  V30 8131 O 770.25 0.723978 -4.05995 0
M  V30 8132 H 769.591 -0.130311 -0.651088 0
M  V30 8133 H 772.121 -0.994403 -1.78809 0
M  V30 8134 H 772.131 -0.132712 -4.07784 0
M  V30 8135 H 770.806 -1.27877 -3.95753 0
M  V30 8136 H 769.383 0.533154 -3.69069 0
M  V30 8137 N 771.568 1.50203 -0.477153 0
M  V30 8138 C 772.498 2.31517 0.303646 0
M  V30 8139 C 773.479 1.38696 0.984753 0
M  V30 8140 O 774.664 1.67615 0.980758 0
M  V30 8141 C 771.794 3.18598 1.38249 0
M  V30 8142 C 770.748 4.2002 0.822645 0
M  V30 8143 C 770.074 4.95878 2.00024 0
M  V30 8144 C 771.374 5.22023 -0.170185 0
M  V30 8145 H 773.068 2.97042 -0.375027 0
M  V30 8146 H 770.614 1.42848 -0.181802 0
M  V30 8147 H 772.567 3.74282 1.93625 0
M  V30 8148 H 771.291 2.5097 2.09002 0
M  V30 8149 H 769.95 3.65445 0.290813 0
M  V30 8150 H 769.598 4.24717 2.69489 0
M  V30 8151 H 769.298 5.64487 1.63183 0
M  V30 8152 H 770.822 5.54399 2.55878 0
M  V30 8153 H 772.236 5.72543 0.294606 0
M  V30 8154 H 770.633 5.98386 -0.453181 0
M  V30 8155 H 771.703 4.72396 -1.09408 0
M  V30 8156 N 773.046 0.209999 1.56195 0
M  V30 8157 C 774.286 -0.4268 1.99894 0
M  V30 8158 C 774.65 -1.57763 1.0943 0
M  V30 8159 O 775.851 -2.27964 1.42428 0
M  V30 8160 C 774.122 -0.861188 3.46869 0
M  V30 8161 S 775.681 -1.49372 4.12593 0
M  V30 8162 H 772.499 -0.135922 0.697887 0
M  V30 8163 H 775.101 0.316573 1.9292 0
M  V30 8164 H 773.805 -0.0137653 4.10398 0
M  V30 8165 H 773.336 -1.63766 3.57693 0
M  V30 8166 H 775.351 -2.7827 4.10829 0
M  V30 8167 N 774.524 -1.57472 -0.0634922 0
M  V30 8168 C 775.456 -2.00999 -1.10145 0
M  V30 8169 C 776.469 -0.917219 -1.34503 0
M  V30 8170 O 777.658 -1.19501 -1.32596 0
M  V30 8171 C 774.758 -2.34089 -2.45063 0
M  V30 8172 C 773.931 -3.65317 -2.40546 0
M  V30 8173 C 772.99 -3.85982 -3.57637 0
M  V30 8174 O 772.016 -4.5747 -3.38689 0
M  V30 8175 N 773.218 -3.28971 -4.78287 0
M  V30 8176 H 775.983 -2.90656 -0.730714 0
M  V30 8177 H 773.544 -1.59926 -0.252017 0
M  V30 8178 H 775.536 -2.4508 -3.22053 0
M  V30 8179 H 774.106 -1.50279 -2.74107 0
M  V30 8180 H 773.326 -3.65003 -1.48885 0
M  V30 8181 H 774.614 -4.51468 -2.34636 0
M  V30 8182 H 774.012 -2.70962 -4.96584 0
M  V30 8183 H 772.569 -3.45398 -5.5276 0
M  V30 8184 N 776.003 0.335068 -1.53997 0
M  V30 8185 C 776.913 1.43511 -1.85585 0
M  V30 8186 C 777.929 1.57162 -0.746726 0
M  V30 8187 O 779.105 1.72477 -1.03988 0
M  V30 8188 C 776.17 2.78386 -2.06646 0
M  V30 8189 C 775.231 2.74007 -3.30483 0
M  V30 8190 C 774.464 4.02449 -3.50529 0
M  V30 8191 O 774.687 5.00147 -2.74242 0
M  V30 8192 O 773.621 4.06405 -4.4398 0
M  V30 8193 H 777.447 1.19731 -2.79102 0
M  V30 8194 H 775.032 0.528033 -1.39758 0
M  V30 8195 H 776.914 3.58247 -2.21894 0
M  V30 8196 H 775.589 3.0208 -1.16317 0
M  V30 8197 H 774.496 1.92736 -3.2063 0
M  V30 8198 H 775.829 2.55267 -4.20832 0
M  V30 8199 N 777.481 1.45874 0.596531 0
M  V30 8200 C 778.429 1.55739 1.72766 0
M  V30 8201 C 779.423 0.426666 1.63939 0
M  V30 8202 O 780.629 0.60301 1.69599 0
M  V30 8203 H 777.004 0.489386 0.570968 0
M  V30 8204 H 778.975 2.50871 1.61575 0
M  V30 8205 C 777.724 1.55174 3.11153 0
M  V30 8206 H 777.047 2.41511 3.1861 0
M  V30 8207 H 778.487 1.66133 3.90097 0
M  V30 8208 C 776.946 0.278001 3.35751 0
M  V30 8209 O 777.476 -0.637557 3.96608 0
M  V30 8210 N 775.682 0.170227 2.90101 0
M  V30 8211 H 775.229 0.916159 2.40758 0
M  V30 8212 H 775.187 -0.68117 3.06932 0
M  V30 8213 N 778.959 -0.83999 1.33349 0
M  V30 8214 C 780.206 -1.59517 1.24742 0
M  V30 8215 C 780.534 -1.93598 -0.187077 0
M  V30 8216 O 779.789 -1.58782 -1.14398 0
M  V30 8217 C 780.088 -2.91571 2.06691 0
M  V30 8218 C 779.754 -2.76856 3.55895 0
M  V30 8219 C 778.416 -2.72551 3.96572 0
M  V30 8220 C 780.768 -2.61741 4.50712 0
M  V30 8221 C 778.096 -2.51028 5.30285 0
M  V30 8222 C 780.448 -2.41752 5.84584 0
M  V30 8223 C 779.112 -2.35848 6.24445 0
M  V30 8224 H 778.382 -0.583714 0.456463 0
M  V30 8225 H 781.029 -0.973261 1.64924 0
M  V30 8226 H 779.334 -3.57961 1.59284 0
M  V30 8227 H 781.031 -3.49053 1.9739 0
M  V30 8228 H 777.621 -2.81039 3.23597 0
M  V30 8229 H 781.805 -2.64102 4.20195 0
M  V30 8230 H 777.061 -2.44903 5.60208 0
M  V30 8231 H 781.235 -2.2904 6.57658 0
M  V30 8232 H 778.862 -2.18931 7.27993 0
M  V30 8233 N 780.437 -1.16799 -1.0581 0
M  V30 8234 C 781.367 -0.902241 -2.15364 0
M  V30 8235 C 782.348 0.153351 -1.69407 0
M  V30 8236 O 783.533 0.00442032 -1.94199 0
M  V30 8237 C 780.663 -0.407911 -3.44896 0
M  V30 8238 C 779.617 -1.40197 -4.04387 0
M  V30 8239 C 778.943 -0.765848 -5.29187 0
M  V30 8240 C 780.243 -2.77316 -4.42598 0
M  V30 8241 H 781.937 -1.81841 -2.37853 0
M  V30 8242 H 779.483 -0.875731 -1.14311 0
M  V30 8243 H 781.436 -0.20945 -4.20879 0
M  V30 8244 H 780.16 0.54378 -3.22041 0
M  V30 8245 H 778.819 -1.58707 -3.30466 0
M  V30 8246 H 778.467 0.192482 -5.02632 0
M  V30 8247 H 778.167 -1.42939 -5.69949 0
M  V30 8248 H 779.691 -0.577519 -6.07863 0
M  V30 8249 H 781.105 -2.62561 -5.09642 0
M  V30 8250 H 779.502 -3.4019 -4.94359 0
M  V30 8251 H 780.572 -3.32199 -3.53231 0
M  V30 8252 N 781.915 1.24427 -0.967243 0
M  V30 8253 C 782.848 2.23885 -0.441683 0
M  V30 8254 C 783.826 1.55231 0.483963 0
M  V30 8255 O 785.01 1.83865 0.415445 0
M  V30 8256 C 782.137 3.36755 0.362458 0
M  V30 8257 C 781.183 4.23495 -0.505407 0
M  V30 8258 S 782.016 4.98916 -1.94534 0
M  V30 8259 C 783.172 6.15245 -1.14997 0
M  V30 8260 H 783.405 2.68118 -1.28453 0
M  V30 8261 H 780.938 1.337 -0.772243 0
M  V30 8262 H 782.896 4.02218 0.820445 0
M  V30 8263 H 781.557 2.91081 1.18027 0
M  V30 8264 H 780.75 5.03876 0.111979 0
M  V30 8265 H 780.352 3.63032 -0.899104 0
M  V30 8266 H 782.644 6.7629 -0.404769 0
M  V30 8267 H 783.587 6.81343 -1.92814 0
M  V30 8268 H 783.995 5.60455 -0.674543 0
M  V30 8269 N 783.393 0.737304 1.3929 0
M  V30 8270 C 784.67 0.212464 1.94443 0
M  V30 8271 C 785.05 -1.28621 1.67391 0
M  V30 8272 O 784.398 -2.0529 1.00342 0
M  V30 8273 C 784.608 0.548565 3.44662 0
M  V30 8274 C 785.956 0.499177 4.21656 0
M  V30 8275 O 786.98 0.485892 3.5287 0
M  V30 8276 O 785.839 0.495739 5.44247 0
M  V30 8277 H 782.933 0.0395457 0.826054 0
M  V30 8278 H 785.479 0.816319 1.48776 0
M  V30 8279 H 784.251 1.58426 3.57795 0
M  V30 8280 H 783.874 -0.0841399 3.97511 0
M  V30 8281 N 784.871 -1.49948 0.485112 0
M  V30 8282 C 785.819 -2.30449 -0.315609 0
M  V30 8283 C 786.813 -1.38351 -0.977516 0
M  V30 8284 O 788.019 -1.55477 -0.907019 0
M  V30 8285 H 784.394 -0.742262 -0.120629 0
M  V30 8286 H 786.365 -2.95925 0.383552 0
M  V30 8287 C 785.114 -3.19283 -1.37673 0
M  V30 8288 H 784.437 -3.90067 -0.876801 0
M  V30 8289 H 785.877 -3.78579 -1.90929 0
M  V30 8290 C 784.336 -2.37817 -2.38631 0
M  V30 8291 O 784.866 -2.0711 -3.44192 0
M  V30 8292 N 783.072 -2.00135 -2.107 0
M  V30 8293 H 782.619 -2.25307 -1.24878 0
M  V30 8294 H 782.577 -1.45933 -2.7848 0
M  V30 8295 N 786.349 -0.21828 -1.56081 0
M  V30 8296 C 787.312 0.679633 -2.18892 0
M  V30 8297 C 788.312 1.12405 -1.14986 0
M  V30 8298 O 789.502 1.03339 -1.40238 0
M  V30 8299 C 786.634 1.93063 -2.80962 0
M  V30 8300 H 787.827 0.132066 -2.99609 0
M  V30 8301 H 785.38 0.0313374 -1.56269 0
M  V30 8302 H 786.115 2.52015 -2.04106 0
M  V30 8303 H 785.9 1.62046 -3.57048 0
M  V30 8304 H 787.39 2.57043 -3.29118 0
M  V30 8305 N 787.827 1.57504 0.0551401 0
M  V30 8306 C 789.057 1.92015 0.762472 0
M  V30 8307 C 789.465 0.814088 1.7079 0
M  V30 8308 O 788.808 -0.220273 1.82375 0
M  V30 8309 C 788.87 3.22132 1.59598 0
M  V30 8310 C 788.534 4.49617 0.818141 0
M  V30 8311 C 789.531 5.19738 0.129933 0
M  V30 8312 C 787.216 4.96201 0.780387 0
M  V30 8313 C 789.21 6.34704 -0.585616 0
M  V30 8314 C 786.897 6.11069 0.0610756 0
M  V30 8315 C 787.895 6.80174 -0.62071 0
M  V30 8316 O 787.583 7.92849 -1.3284 0
M  V30 8317 H 787.315 0.638866 0.220967 0
M  V30 8318 H 789.869 2.05385 0.0246362 0
M  V30 8319 H 788.099 3.05016 2.37701 0
M  V30 8320 H 789.788 3.42166 2.18351 0
M  V30 8321 H 790.554 4.84767 0.150299 0
M  V30 8322 H 786.433 4.42275 1.30054 0
M  V30 8323 H 789.977 6.88578 -1.11833 0
M  V30 8324 H 785.874 6.45488 0.0386945 0
M  V30 8325 H 786.642 8.09062 -1.23938 0
M  V30 8326 N 789.305 -0.326896 1.54172 0
M  V30 8327 C 790.552 -1.06523 1.72218 0
M  V30 8328 C 790.88 -1.88119 0.494114 0
M  V30 8329 O 790.135 -1.8855 -0.524147 0
M  V30 8330 C 790.434 -2.0208 2.94785 0
M  V30 8331 C 790.1 -1.36665 4.2969 0
M  V30 8332 C 788.762 -1.18556 4.66367 0
M  V30 8333 C 791.114 -0.896868 5.13425 0
M  V30 8334 C 788.442 -0.521113 5.84381 0
M  V30 8335 C 790.794 -0.246261 6.3212 0
M  V30 8336 C 789.458 -0.052987 6.67479 0
M  V30 8337 H 788.728 -0.389796 0.63019 0
M  V30 8338 H 791.375 -0.342725 1.88408 0
M  V30 8339 H 789.68 -2.8077 2.73268 0
M  V30 8340 H 791.377 -2.59231 3.05941 0
M  V30 8341 H 787.967 -1.51762 4.00832 0
M  V30 8342 H 792.151 -1.02458 4.85609 0
M  V30 8343 H 787.407 -0.36014 6.10338 0
M  V30 8344 H 791.581 0.125775 6.96286 0
M  V30 8345 H 789.208 0.463903 7.58783 0
M  V30 8346 N 790.784 -1.46188 -0.588786 0
M  V30 8347 C 792.024 -1.52738 -1.35833 0
M  V30 8348 C 792.388 -0.172403 -1.91224 0
M  V30 8349 O 793.589 -0.112633 -2.68564 0
M  V30 8350 C 791.86 -2.59085 -2.4619 0
M  V30 8351 S 793.419 -2.84997 -3.3365 0
M  V30 8352 H 790.237 -0.539713 -0.462851 0
M  V30 8353 H 792.839 -1.83386 -0.677489 0
M  V30 8354 H 791.543 -3.56177 -2.03878 0
M  V30 8355 H 791.074 -2.3015 -3.19053 0
M  V30 8356 H 793.089 -2.19804 -4.4486 0
M  V30 8357 N 792.262 0.832906 -1.33792 0
M  V30 8358 C 793.172 1.97514 -1.26592 0
M  V30 8359 C 794.188 1.73114 -0.175391 0
M  V30 8360 O 795.364 1.97387 -0.400062 0
M  V30 8361 C 792.429 3.31625 -1.01121 0
M  V30 8362 C 791.49 3.69101 -2.19233 0
M  V30 8363 C 790.723 4.96813 -1.94968 0
M  V30 8364 O 790.946 5.63208 -0.902955 0
M  V30 8365 O 789.88 5.31932 -2.8166 0
M  V30 8366 H 793.706 2.0653 -2.22664 0
M  V30 8367 H 791.291 0.966826 -1.13898 0
M  V30 8368 H 793.173 4.11968 -0.886571 0
M  V30 8369 H 791.848 3.23599 -0.080822 0
M  V30 8370 H 790.755 2.89243 -2.37253 0
M  V30 8371 H 792.088 3.818 -3.10628 0
M  V30 8372 N 793.74 1.17359 1.05189 0
M  V30 8373 C 794.703 0.892604 2.11105 0
M  V30 8374 C 795.703 -0.117236 1.60372 0
M  V30 8375 O 796.893 0.114936 1.7382 0
M  V30 8376 C 794.025 0.337032 3.3923 0
M  V30 8377 H 795.218 1.83169 2.37464 0
M  V30 8378 H 792.771 0.984051 1.21434 0
M  V30 8379 H 793.506 -0.609198 3.18527 0
M  V30 8380 H 793.291 1.06484 3.77364 0
M  V30 8381 H 794.781 0.158763 4.17298 0
M  V30 8382 N 795.218 -1.23913 0.973828 0
M  V30 8383 C 796.495 -1.87539 0.555729 0
M  V30 8384 C 796.875 -1.87641 -0.967162 0
M  V30 8385 O 796.223 -1.35335 -1.84111 0
M  V30 8386 C 796.433 -3.29359 1.15427 0
M  V30 8387 C 797.781 -4.06 1.24294 0
M  V30 8388 O 798.805 -3.38554 1.10723 0
M  V30 8389 O 797.664 -5.26689 1.45813 0
M  V30 8390 H 794.758 -0.805769 0.186188 0
M  V30 8391 H 797.304 -1.31838 1.06849 0
M  V30 8392 H 796.076 -3.23817 2.19678 0
M  V30 8393 H 795.699 -3.92642 0.625925 0
M  V30 8394 N 796.696 -0.74468 -1.38897 0
M  V30 8395 C 797.659 -0.11945 -2.28889 0
M  V30 8396 C 798.659 0.656942 -1.46768 0
M  V30 8397 O 799.849 0.484525 -1.67326 0
M  V30 8398 C 796.981 0.839635 -3.30398 0
M  V30 8399 H 798.174 -0.912414 -2.85683 0
M  V30 8400 H 795.727 -0.511119 -1.47707 0
M  V30 8401 H 796.462 1.6586 -2.78677 0
M  V30 8402 H 796.247 0.285432 -3.9106 0
M  V30 8403 H 797.737 1.27337 -3.97712 0
M  V30 8404 N 798.174 1.49689 -0.493057 0
M  V30 8405 C 799.121 2.28976 0.28959 0
M  V30 8406 C 800.091 1.35011 0.967536 0
M  V30 8407 O 801.276 1.63964 0.975736 0
M  V30 8408 C 798.416 3.1748 1.35279 0
M  V30 8409 C 797.529 4.26496 0.687418 0
M  V30 8410 C 796.664 5.02226 1.73038 0
M  V30 8411 C 795.703 6.03089 1.04645 0
M  V30 8412 N 794.84 6.72014 2.03325 0
M  V30 8413 H 799.68 2.954 -0.392798 0
M  V30 8414 H 797.217 1.45657 -0.205554 0
M  V30 8415 H 799.175 3.67162 1.98111 0
M  V30 8416 H 797.805 2.53057 2.00405 0
M  V30 8417 H 796.857 3.80362 -0.0540001 0
M  V30 8418 H 798.169 4.98578 0.14864 0
M  V30 8419 H 797.323 5.55737 2.43395 0
M  V30 8420 H 796.062 4.29899 2.303 0
M  V30 8421 H 795.067 5.48817 0.328606 0
M  V30 8422 H 796.292 6.77398 0.480428 0
M  V30 8423 H 794.238 6.02464 2.59564 0
M  V30 8424 H 794.155 7.40046 1.54492 0
M  V30 8425 H 795.423 7.30133 2.72995 0
M  V30 8426 N 799.652 0.226554 1.55963 0
M  V30 8427 C 800.599 -0.681504 2.20509 0
M  V30 8428 C 801.569 -1.1866 1.16229 0
M  V30 8429 O 802.754 -1.24478 1.44602 0
M  V30 8430 C 799.894 -1.88183 2.89277 0
M  V30 8431 C 799.007 -1.41517 4.08163 0
M  V30 8432 C 798.142 -2.57346 4.647 0
M  V30 8433 C 797.181 -2.07441 5.75877 0
M  V30 8434 N 796.318 -3.16561 6.26685 0
M  V30 8435 H 801.158 -0.124372 2.9774 0
M  V30 8436 H 798.695 -0.0496333 1.47016 0
M  V30 8437 H 800.653 -2.58666 3.27335 0
M  V30 8438 H 799.283 -2.41177 2.14555 0
M  V30 8439 H 798.335 -0.605099 3.75557 0
M  V30 8440 H 799.647 -1.00928 4.88482 0
M  V30 8441 H 798.801 -3.35903 5.05227 0
M  V30 8442 H 797.54 -3.01227 3.83554 0
M  V30 8443 H 796.545 -1.27347 5.34848 0
M  V30 8444 H 797.77 -1.64554 6.58862 0
M  V30 8445 H 795.716 -3.59914 5.48451 0
M  V30 8446 H 795.633 -2.80239 7.02141 0
M  V30 8447 H 796.901 -3.95238 6.71868 0
M  V30 8448 N 801.13 -1.57531 -0.0467866 0
M  V30 8449 C 802.37 -1.90294 -0.746171 0
M  V30 8450 C 802.734 -0.823194 -1.73458 0
M  V30 8451 O 803.935 -1.03463 -2.48091 0
M  V30 8452 C 802.206 -3.28249 -1.41378 0
M  V30 8453 S 803.765 -3.82812 -2.14477 0
M  V30 8454 H 800.583 -0.666496 -0.247598 0
M  V30 8455 H 803.185 -1.955 -0.00135143 0
M  V30 8456 H 801.889 -4.04712 -0.680937 0
M  V30 8457 H 801.42 -3.26302 -2.19751 0
M  V30 8458 H 803.435 -3.60111 -3.41372 0
M  V30 8459 N 802.608 0.318715 -1.54344 0
M  V30 8460 C 803.857 1.05363 -1.71993 0
M  V30 8461 C 804.17 1.89018 -0.503155 0
M  V30 8462 O 805.376 2.65639 -0.561085 0
M  V30 8463 C 803.832 1.92281 -3.0423 0
M  V30 8464 C 803.44 1.13715 -4.33328 0
M  V30 8465 C 805.184 2.65479 -3.31242 0
M  V30 8466 C 803.091 1.99806 -5.56625 0
M  V30 8467 H 802.021 0.397081 -0.64097 0
M  V30 8468 H 804.672 0.311598 -1.80835 0
M  V30 8469 H 803.054 2.70402 -2.89307 0
M  V30 8470 H 804.228 0.403305 -4.59032 0
M  V30 8471 H 802.543 0.521769 -4.13118 0
M  V30 8472 H 805.14 3.30209 -4.20555 0
M  V30 8473 H 805.483 3.33374 -2.49334 0
M  V30 8474 H 806.016 1.94417 -3.47054 0
M  V30 8475 H 802.755 1.36411 -6.41149 0
M  V30 8476 H 802.275 2.70911 -5.35133 0
M  V30 8477 H 803.954 2.58277 -5.93213 0
M  V30 8478 N 804.086 1.46499 0.581025 0
M  V30 8479 C 805.497 1.4604 1.16315 0
M  V30 8480 C 805.848 0.202154 1.95156 0
M  V30 8481 O 804.973 -0.694638 2.04948 0
M  V30 8482 C 805.568 2.64593 2.11604 0
M  V30 8483 C 804.127 2.6717 2.65136 0
M  V30 8484 C 803.274 2.38753 1.4104 0
M  V30 8485 H 806.225 1.54354 0.368871 0
M  V30 8486 H 806.246 2.40207 2.95095 0
M  V30 8487 H 805.758 3.56154 1.54194 0
M  V30 8488 H 803.859 1.79685 3.26411 0
M  V30 8489 H 803.972 3.67182 3.07757 0
M  V30 8490 H 802.336 1.88845 1.70908 0
M  V30 8491 H 803.119 3.32493 0.854588 0
M  V30 8492 N 805.565 -0.825799 1.34232 0
M  V30 8493 C 806.811 -1.58419 1.26614 0
M  V30 8494 C 807.144 -1.93503 -0.164341 0
M  V30 8495 O 806.419 -1.59785 -1.109 0
M  V30 8496 C 806.702 -2.8856 2.15418 0
M  V30 8497 C 806.555 -2.60075 3.66989 0
M  V30 8498 C 807.874 -3.90107 2.03726 0
M  V30 8499 H 804.993 -0.574794 0.461282 0
M  V30 8500 H 807.635 -0.951519 1.64457 0
M  V30 8501 H 805.785 -3.42553 1.83275 0
M  V30 8502 H 807.457 -2.12414 4.09485 0
M  V30 8503 H 805.7 -1.93565 3.88221 0
M  V30 8504 H 806.371 -3.52866 4.24488 0
M  V30 8505 H 808.847 -3.45459 2.31942 0
M  V30 8506 H 807.723 -4.78976 2.68092 0
M  V30 8507 H 807.984 -4.30329 1.01337 0
M  V30 8508 N 807.043 -1.17915 -1.04565 0
M  V30 8509 C 808.006 -0.903787 -2.10628 0
M  V30 8510 C 809.006 0.10873 -1.60432 0
M  V30 8511 O 810.196 -0.124152 -1.73757 0
M  V30 8512 C 807.328 -0.355017 -3.39046 0
M  V30 8513 H 808.521 -1.84425 -2.3649 0
M  V30 8514 H 806.074 -0.990477 -1.2091 0
M  V30 8515 H 806.809 0.592297 -3.18845 0
M  V30 8516 H 806.594 -1.08484 -3.76794 0
M  V30 8517 H 808.084 -0.180891 -4.17208 0
M  V30 8518 N 808.521 1.23394 -0.980386 0
M  V30 8519 C 809.932 1.73631 -0.686239 0
M  V30 8520 C 810.283 1.79259 0.797541 0
M  V30 8521 O 809.408 1.43046 1.62379 0
M  V30 8522 C 810.003 3.15332 -1.239 0
M  V30 8523 C 808.562 3.63024 -0.994494 0
M  V30 8524 C 807.709 2.41279 -1.36673 0
M  V30 8525 H 810.66 1.08918 -1.15423 0
M  V30 8526 H 810.681 3.75556 -0.611414 0
M  V30 8527 H 810.193 3.11204 -2.31892 0
M  V30 8528 H 808.294 3.72535 0.0693492 0
M  V30 8529 H 808.407 4.49825 -1.64906 0
M  V30 8530 H 806.771 2.42295 -0.785195 0
M  V30 8531 H 807.554 2.39822 -2.45642 0
M  V30 8532 N 809.999 0.752036 1.385 0
M  V30 8533 C 810.949 0.0990189 2.27785 0
M  V30 8534 C 811.933 -0.694867 1.45122 0
M  V30 8535 O 813.125 -0.561077 1.67872 0
M  V30 8536 C 810.254 -0.794531 3.33979 0
M  V30 8537 C 809.34 0.00611984 4.241 0
M  V30 8538 N 809.731 1.04174 4.94956 0
M  V30 8539 C 808.029 -0.220934 4.45452 0
M  V30 8540 C 808.73 1.52601 5.61327 0
M  V30 8541 N 807.706 0.84159 5.37046 0
M  V30 8542 H 811.508 0.892208 2.8003 0
M  V30 8543 H 809.022 0.587934 1.51384 0
M  V30 8544 H 811.019 -1.27797 3.96829 0
M  V30 8545 H 809.679 -1.58669 2.83292 0
M  V30 8546 H 810.69 1.42349 4.97953 0
M  V30 8547 H 807.367 -0.986556 4.05676 0
M  V30 8548 H 808.757 2.38857 6.2801 0
M  V30 8549 N 811.477 -1.49425 0.500989 0
M  V30 8550 C 812.726 -2.01649 -0.04538 0
M  V30 8551 C 813.039 -1.38572 -1.38047 0
M  V30 8552 O 814.245 -1.82124 -2.01353 0
M  V30 8553 C 812.701 -3.5966 -0.131337 0
M  V30 8554 C 812.309 -4.3171 1.19711 0
M  V30 8555 C 814.053 -4.19828 -0.628071 0
M  V30 8556 C 811.96 -5.81579 1.07332 0
M  V30 8557 H 810.89 -0.753715 -0.0207329 0
M  V30 8558 H 813.541 -1.71962 0.640407 0
M  V30 8559 H 811.923 -3.86063 -0.881574 0
M  V30 8560 H 813.097 -4.17008 1.96064 0
M  V30 8561 H 811.412 -3.83286 1.62729 0
M  V30 8562 H 814.009 -5.2958 -0.738198 0
M  V30 8563 H 814.352 -3.83194 -1.6269 0
M  V30 8564 H 814.885 -3.97746 0.0656314 0
M  V30 8565 H 811.624 -6.22738 2.04642 0
M  V30 8566 H 811.144 -5.98774 0.350679 0
M  V30 8567 H 812.823 -6.42614 0.752047 0
M  V30 8568 N 812.955 -0.234822 -1.55841 0
M  V30 8569 C 813.902 0.6698 -2.20867 0
M  V30 8570 C 814.872 1.18042 -1.16856 0
M  V30 8571 O 816.057 1.23709 -1.45261 0
M  V30 8572 C 813.197 1.86646 -2.90271 0
M  V30 8573 C 812.31 1.39351 -4.08908 0
M  V30 8574 C 811.445 2.54878 -4.66059 0
M  V30 8575 C 810.484 2.04384 -5.76969 0
M  V30 8576 N 809.621 3.13233 -6.28355 0
M  V30 8577 H 814.461 0.10858 -2.97802 0
M  V30 8578 H 811.998 0.041836 -1.4704 0
M  V30 8579 H 813.956 2.56926 -3.28702 0
M  V30 8580 H 812.586 2.40035 -2.15831 0
M  V30 8581 H 811.638 0.585173 -3.75872 0
M  V30 8582 H 812.95 0.983356 -4.89011 0
M  V30 8583 H 812.104 3.33219 -5.07001 0
M  V30 8584 H 810.843 2.99188 -3.85146 0
M  V30 8585 H 809.848 1.24509 -5.35516 0
M  V30 8586 H 811.073 1.61057 -6.59725 0
M  V30 8587 H 809.019 3.57 -5.50352 0
M  V30 8588 H 808.936 2.76511 -7.03618 0
M  V30 8589 H 810.204 3.91669 -6.73955 0
M  V30 8590 N 814.433 1.57553 0.0384317 0
M  V30 8591 C 815.679 1.89121 0.732199 0
M  V30 8592 C 816.012 0.831404 1.75503 0
M  V30 8593 O 815.287 -0.154642 1.93884 0
M  V30 8594 C 815.57 3.31338 1.41021 0
M  V30 8595 C 815.423 4.48004 0.401532 0
M  V30 8596 C 816.742 3.72318 2.34665 0
M  V30 8597 H 813.861 0.687819 0.264715 0
M  V30 8598 H 816.503 1.89999 -0.00496279 0
M  V30 8599 H 814.653 3.3072 2.03854 0
M  V30 8600 H 816.325 4.60755 -0.224159 0
M  V30 8601 H 814.568 4.32895 -0.280092 0
M  V30 8602 H 815.239 5.44377 0.91423 0
M  V30 8603 H 817.715 3.74243 1.81883 0
M  V30 8604 H 816.591 4.72652 2.7909 0
M  V30 8605 H 816.852 3.04062 3.20934 0
M  V30 8606 N 815.911 -0.310526 1.54511 0
M  V30 8607 C 816.821 -1.4054 1.87844 0
M  V30 8608 C 817.837 -1.55954 0.771635 0
M  V30 8609 O 819.013 -1.70801 1.06719 0
M  V30 8610 C 816.078 -2.75063 2.11048 0
M  V30 8611 C 815.139 -2.68715 3.348 0
M  V30 8612 C 814.372 -3.96821 3.56887 0
M  V30 8613 O 814.595 -4.95721 2.82165 0
M  V30 8614 O 813.529 -3.99291 4.50389 0
M  V30 8615 H 817.355 -1.15275 2.80972 0
M  V30 8616 H 814.94 -0.505732 1.4058 0
M  V30 8617 H 816.822 -3.54671 2.27566 0
M  V30 8618 H 815.497 -3.00191 1.21108 0
M  V30 8619 H 814.404 -1.87611 3.23655 0
M  V30 8620 H 815.737 -2.4854 4.2484 0
M  V30 8621 N 817.389 -1.46805 -0.573248 0
M  V30 8622 C 818.614 -1.56433 -1.36175 0
M  V30 8623 C 819.039 -0.209336 -1.86932 0
M  V30 8624 O 818.397 0.812146 -1.62092 0
M  V30 8625 C 818.445 -2.58055 -2.51873 0
M  V30 8626 O 817.549 -2.12214 -3.53609 0
M  V30 8627 H 816.89 -0.526068 -0.405153 0
M  V30 8628 H 819.42 -1.92456 -0.694405 0
M  V30 8629 H 819.43 -2.77966 -2.98662 0
M  V30 8630 H 818.105 -3.56448 -2.14284 0
M  V30 8631 H 816.682 -2.02333 -3.13234 0
M  V30 8632 N 818.867 0.818669 -1.34668 0
M  V30 8633 C 819.817 1.91882 -1.23147 0
M  V30 8634 C 820.801 1.60378 -0.129509 0
M  V30 8635 O 821.993 1.73309 -0.359581 0
M  V30 8636 C 819.122 3.28612 -0.993436 0
M  V30 8637 C 818.208 3.66221 -2.13876 0
M  V30 8638 N 818.599 3.75361 -3.39024 0
M  V30 8639 C 816.897 3.96098 -2.04994 0
M  V30 8640 C 817.598 4.0836 -4.14266 0
M  V30 8641 N 816.574 4.21806 -3.429 0
M  V30 8642 H 820.376 1.97133 -2.17981 0
M  V30 8643 H 817.89 1.01257 -1.26967 0
M  V30 8644 H 819.887 4.0725 -0.891797 0
M  V30 8645 H 818.547 3.24655 -0.053824 0
M  V30 8646 H 819.558 3.58747 -3.73525 0
M  V30 8647 H 816.235 4.00236 -1.18816 0
M  V30 8648 H 817.625 4.226 -5.22359 0
M  V30 8649 N 820.346 1.18468 1.03938 0
M  V30 8650 C 821.595 0.975193 1.76558 0
M  V30 8651 C 821.908 -0.495978 1.89207 0
M  V30 8652 O 823.114 -0.824009 2.58694 0
M  V30 8653 C 821.57 1.69579 3.17444 0
M  V30 8654 C 821.178 3.20636 3.12884 0
M  V30 8655 C 822.922 1.56917 3.94433 0
M  V30 8656 C 820.829 3.8533 4.48636 0
M  V30 8657 H 819.759 0.361244 0.66183 0
M  V30 8658 H 822.41 1.41854 1.16403 0
M  V30 8659 H 820.792 1.18022 3.78004 0
M  V30 8660 H 821.966 3.79228 2.61768 0
M  V30 8661 H 820.281 3.33454 2.49394 0
M  V30 8662 H 822.878 2.02611 4.94826 0
M  V30 8663 H 823.221 0.521638 4.13019 0
M  V30 8664 H 823.754 2.05762 3.40451 0
M  V30 8665 H 820.493 4.90136 4.35255 0
M  V30 8666 H 820.013 3.31526 4.99851 0
M  V30 8667 H 821.692 3.88269 5.17549 0
M  V30 8668 N 821.824 -1.22873 0.986916 0
M  V30 8669 C 822.756 -2.23889 0.490537 0
M  V30 8670 C 823.769 -1.57523 -0.411144 0
M  V30 8671 O 824.958 -1.7721 -0.214236 0
M  V30 8672 C 822.058 -3.37488 -0.30902 0
M  V30 8673 C 821.231 -4.33438 0.587354 0
M  V30 8674 C 820.29 -5.25958 -0.159467 0
M  V30 8675 O 819.316 -5.67394 0.453115 0
M  V30 8676 N 820.518 -5.62265 -1.44355 0
M  V30 8677 H 823.283 -2.67109 1.35914 0
M  V30 8678 H 820.844 -1.37111 0.860937 0
M  V30 8679 H 822.836 -3.96365 -0.817139 0
M  V30 8680 H 821.406 -2.934 -1.07868 0
M  V30 8681 H 820.626 -3.72969 1.27622 0
M  V30 8682 H 821.914 -4.94495 1.19801 0
M  V30 8683 H 821.312 -5.30562 -1.96266 0
M  V30 8684 H 819.869 -6.23585 -1.89698 0
M  V30 8685 N 823.302 -0.75937 -1.38099 0
M  V30 8686 C 824.713 -0.385078 -1.82686 0
M  V30 8687 C 825.064 1.0871 -1.6333 0
M  V30 8688 O 824.189 1.84084 -1.13762 0
M  V30 8689 C 824.784 -0.692161 -3.31654 0
M  V30 8690 C 823.343 -0.371077 -3.74566 0
M  V30 8691 C 822.49 -0.942375 -2.60796 0
M  V30 8692 H 825.441 -0.955048 -1.26746 0
M  V30 8693 H 825.462 0.0276001 -3.8049 0
M  V30 8694 H 824.974 -1.76369 -3.4571 0
M  V30 8695 H 823.075 0.693637 -3.66087 0
M  V30 8696 H 823.188 -0.870672 -4.71122 0
M  V30 8697 H 821.552 -0.367383 -2.52036 0
M  V30 8698 H 822.335 -2.01905 -2.77649 0
M  V30 8699 N 824.78 1.49157 -0.508906 0
M  V30 8700 C 826.005 2.07376 0.0315182 0
M  V30 8701 C 826.43 1.36575 1.2934 0
M  V30 8702 O 825.788 0.424963 1.76249 0
M  V30 8703 C 825.836 3.59661 0.260118 0
M  V30 8704 O 824.94 3.90255 1.33322 0
M  V30 8705 H 824.281 0.663334 -0.029739 0
M  V30 8706 H 826.811 1.91857 -0.710791 0
M  V30 8707 H 826.821 4.05056 0.489225 0
M  V30 8708 H 825.496 4.10601 -0.661794 0
M  V30 8709 H 824.073 3.56661 1.08844 0
M  V30 8710 N 826.258 0.243083 1.55714 0
M  V30 8711 C 827.188 -0.652336 2.24203 0
M  V30 8712 C 828.169 -1.1843 1.221 0
M  V30 8713 O 829.354 -1.22435 1.50743 0
M  V30 8714 C 826.484 -1.85111 2.93856 0
M  V30 8715 C 825.438 -1.45208 4.02615 0
M  V30 8716 C 824.764 -2.73137 4.59674 0
M  V30 8717 C 826.064 -0.625988 5.18535 0
M  V30 8718 H 827.758 -0.0812504 2.9929 0
M  V30 8719 H 825.304 -0.0376388 1.43951 0
M  V30 8720 H 827.257 -2.48314 3.40468 0
M  V30 8721 H 825.981 -2.44751 2.16251 0
M  V30 8722 H 824.64 -0.843406 3.56766 0
M  V30 8723 H 824.288 -3.30967 3.78774 0
M  V30 8724 H 823.988 -2.47163 5.33089 0
M  V30 8725 H 825.512 -3.37245 5.09017 0
M  V30 8726 H 826.926 -1.16223 5.61396 0
M  V30 8727 H 825.323 -0.462465 5.98315 0
M  V30 8728 H 826.393 0.362652 4.83542 0
M  V30 8729 N 827.736 -1.57571 -0.0300757 0
M  V30 8730 C 828.684 -2.0758 -1.04944 0
M  V30 8731 C 829.678 -0.989384 -1.37505 0
M  V30 8732 O 830.884 -1.17427 -1.36422 0
M  V30 8733 H 827.259 -0.662419 -0.355956 0
M  V30 8734 H 829.23 -2.92268 -0.601848 0
M  V30 8735 C 827.979 -2.5698 -2.34215 0
M  V30 8736 H 827.302 -3.40193 -2.10021 0
M  V30 8737 H 828.742 -2.95682 -3.03888 0
M  V30 8738 C 827.201 -1.47059 -3.03109 0
M  V30 8739 O 827.731 -0.83625 -3.92899 0
M  V30 8740 N 825.937 -1.20538 -2.64422 0
M  V30 8741 H 825.484 -1.72305 -1.9149 0
M  V30 8742 H 825.442 -0.472045 -3.10836 0
M  V30 8743 N 829.214 0.302327 -1.54673 0
M  V30 8744 C 830.146 1.39443 -1.81902 0
M  V30 8745 C 831.159 1.46891 -0.701914 0
M  V30 8746 O 832.348 1.49233 -0.979369 0
M  V30 8747 C 829.448 2.77824 -1.9408 0
M  V30 8748 C 828.621 2.93324 -3.24468 0
M  V30 8749 C 827.68 4.12196 -3.27079 0
M  V30 8750 O 826.706 4.04344 -4.00617 0
M  V30 8751 N 827.908 5.22768 -2.52376 0
M  V30 8752 H 830.673 1.1644 -2.76155 0
M  V30 8753 H 828.234 0.492392 -1.54231 0
M  V30 8754 H 830.226 3.5559 -1.9323 0
M  V30 8755 H 828.796 2.9378 -1.06828 0
M  V30 8756 H 828.016 2.02682 -3.38103 0
M  V30 8757 H 829.304 3.0059 -4.10516 0
M  V30 8758 H 828.702 5.32027 -1.92259 0
M  V30 8759 H 827.259 5.98874 -2.57281 0
M  V30 8760 N 830.692 1.47107 0.565454 0
M  V30 8761 C 831.602 1.61591 1.70075 0
M  V30 8762 C 832.618 0.498931 1.66693 0
M  V30 8763 O 833.794 0.765372 1.8629 0
M  V30 8764 C 830.859 1.61887 3.06583 0
M  V30 8765 C 829.92 2.84949 3.21096 0
M  V30 8766 C 829.153 2.85221 4.51093 0
M  V30 8767 O 829.376 1.94959 5.36048 0
M  V30 8768 O 828.31 3.76982 4.69221 0
M  V30 8769 H 832.136 2.57638 1.60799 0
M  V30 8770 H 829.721 1.30097 0.73451 0
M  V30 8771 H 831.603 1.64809 3.87835 0
M  V30 8772 H 830.278 0.69005 3.16259 0
M  V30 8773 H 829.185 2.87575 2.39273 0
M  V30 8774 H 830.518 3.77098 3.1632 0
M  V30 8775 N 832.17 -0.811516 1.35101 0
M  V30 8776 C 833.447 -1.55491 1.18667 0
M  V30 8777 C 833.827 -2.09775 -0.236189 0
M  V30 8778 O 833.175 -1.91989 -1.23905 0
M  V30 8779 C 833.385 -2.66732 2.25067 0
M  V30 8780 C 834.733 -3.35201 2.60625 0
M  V30 8781 O 835.757 -2.76998 2.23943 0
M  V30 8782 O 834.616 -4.40334 3.23679 0
M  V30 8783 H 831.71 -0.686783 0.460716 0
M  V30 8784 H 834.256 -0.851903 1.46768 0
M  V30 8785 H 833.028 -2.24457 3.20523 0
M  V30 8786 H 832.651 -3.44673 1.98208 0
M  V30 8787 N 833.648 -1.19017 -1.03309 0
M  V30 8788 C 834.897 -0.984542 -1.76039 0
M  V30 8789 C 835.21 0.485937 -1.89468 0
M  V30 8790 O 836.416 0.810278 -2.59127 0
M  V30 8791 C 834.872 -1.71261 -3.1654 0
M  V30 8792 C 834.48 -3.22291 -3.11179 0
M  V30 8793 C 836.224 -1.59007 -3.93595 0
M  V30 8794 C 834.131 -3.87704 -4.46587 0
M  V30 8795 H 833.061 -0.364749 -0.659905 0
M  V30 8796 H 835.712 -1.4247 -1.15649 0
M  V30 8797 H 834.094 -1.20025 -3.77373 0
M  V30 8798 H 835.268 -3.80611 -2.59753 0
M  V30 8799 H 833.583 -3.34772 -2.47622 0
M  V30 8800 H 836.18 -2.05232 -4.93745 0
M  V30 8801 H 836.523 -0.543534 -4.12736 0
M  V30 8802 H 837.056 -2.07564 -3.39355 0
M  V30 8803 H 833.795 -4.92437 -4.3265 0
M  V30 8804 H 833.315 -3.34172 -4.98085 0
M  V30 8805 H 834.994 -3.91008 -5.15482 0
M  V30 8806 N 835.127 1.22348 -0.993418 0
M  V30 8807 C 836.357 1.94842 -0.687023 0
M  V30 8808 C 836.765 1.73594 0.752445 0
M  V30 8809 O 836.108 1.03238 1.51946 0
M  V30 8810 C 836.17 3.47694 -0.913754 0
M  V30 8811 C 835.834 3.92678 -2.33781 0
M  V30 8812 C 836.831 4.0031 -3.31734 0
M  V30 8813 C 834.516 4.25311 -2.67237 0
M  V30 8814 C 836.51 4.39951 -4.61218 0
M  V30 8815 C 834.197 4.64631 -3.9694 0
M  V30 8816 C 835.195 4.71919 -4.93742 0
M  V30 8817 O 834.883 5.10349 -6.21127 0
M  V30 8818 H 834.615 0.626771 -0.253247 0
M  V30 8819 H 837.169 1.56436 -1.33105 0
M  V30 8820 H 835.399 3.86115 -0.212552 0
M  V30 8821 H 837.088 4.01403 -0.602528 0
M  V30 8822 H 837.854 3.75288 -3.07219 0
M  V30 8823 H 833.733 4.18842 -1.92594 0
M  V30 8824 H 837.277 4.45555 -5.36774 0
M  V30 8825 H 833.174 4.89104 -4.21245 0
M  V30 8826 H 833.942 5.2842 -6.25072 0
M  V30 8827 N 836.605 0.766683 1.37694 0
M  V30 8828 C 837.854 0.325425 1.99057 0
M  V30 8829 C 838.167 -1.10275 1.61551 0
M  V30 8830 O 839.373 -1.64513 2.1598 0
M  V30 8831 C 837.829 0.530886 3.55963 0
M  V30 8832 C 837.437 1.96899 4.02411 0
M  V30 8833 C 839.181 0.152997 4.24224 0
M  V30 8834 C 837.088 2.12232 5.52007 0
M  V30 8835 H 836.018 0.117929 0.744721 0
M  V30 8836 H 838.669 0.945091 1.5729 0
M  V30 8837 H 837.051 -0.158162 3.95684 0
M  V30 8838 H 838.225 2.69258 3.73948 0
M  V30 8839 H 836.54 2.303 3.46916 0
M  V30 8840 H 839.137 0.24614 5.34133 0
M  V30 8841 H 839.48 -0.896096 4.06541 0
M  V30 8842 H 840.013 0.794398 3.89787 0
M  V30 8843 H 836.752 3.15442 5.7461 0
M  V30 8844 H 836.272 1.4435 5.82171 0
M  V30 8845 H 837.951 1.9185 6.17902 0
M  V30 8846 N 838.083 -1.48885 0.516809 0
M  V30 8847 C 839.311 -2.06892 -0.0184017 0
M  V30 8848 C 839.726 -1.37511 -1.29368 0
M  V30 8849 O 839.083 -0.458409 -1.76649 0
M  V30 8850 C 839.134 -3.60566 -0.259673 0
M  V30 8851 O 838.855 -4.27338 0.965065 0
M  V30 8852 C 840.356 -4.35331 -0.836751 0
M  V30 8853 H 837.576 -0.670433 0.0275743 0
M  V30 8854 H 840.12 -1.91455 0.718689 0
M  V30 8855 H 838.275 -3.75653 -0.94678 0
M  V30 8856 H 838.689 -5.19287 0.737647 0
M  V30 8857 H 840.163 -5.43675 -0.955065 0
M  V30 8858 H 840.64 -3.9887 -1.83845 0
M  V30 8859 H 841.246 -4.2489 -0.186622 0
M  V30 8860 N 839.561 -0.251338 -1.55583 0
M  V30 8861 C 840.789 0.376187 -2.03451 0
M  V30 8862 C 841.204 1.51215 -1.13047 0
M  V30 8863 O 840.561 1.81917 -0.145769 0
M  V30 8864 C 840.612 0.879779 -3.50631 0
M  V30 8865 O 840.333 -0.210917 -4.37592 0
M  V30 8866 C 841.834 1.57754 -4.14281 0
M  V30 8867 H 839.054 0.0888722 -0.665089 0
M  V30 8868 H 841.598 -0.376497 -2.01004 0
M  V30 8869 H 839.753 1.58263 -3.53598 0
M  V30 8870 H 840.167 0.172203 -5.24217 0
M  V30 8871 H 841.641 1.88158 -5.18942 0
M  V30 8872 H 842.118 2.50103 -3.61034 0
M  V30 8873 H 842.724 0.919154 -4.15249 0
M  V30 8874 N 841.039 1.57585 0.0217189 0
M  V30 8875 C 841.949 2.10444 1.03684 0
M  V30 8876 C 842.965 1.04472 1.39146 0
M  V30 8877 O 844.141 1.36249 1.48317 0
M  V30 8878 C 841.206 2.5794 2.31664 0
M  V30 8879 C 840.267 3.78425 2.02714 0
M  V30 8880 C 839.5 4.23646 3.24592 0
M  V30 8881 O 839.723 3.6834 4.35525 0
M  V30 8882 O 838.657 5.16013 3.09862 0
M  V30 8883 H 842.483 2.97354 0.617584 0
M  V30 8884 H 840.068 1.47473 0.239174 0
M  V30 8885 H 841.95 2.88785 3.06889 0
M  V30 8886 H 840.625 1.74138 2.7287 0
M  V30 8887 H 839.532 3.52587 1.25033 0
M  V30 8888 H 840.865 4.63234 1.66359 0
M  V30 8889 N 842.517 -0.29412 1.54831 0
M  V30 8890 C 843.742 -1.05156 1.78765 0
M  V30 8891 C 844.167 -1.79916 0.548809 0
M  V30 8892 O 843.525 -1.74243 -0.500909 0
M  V30 8893 C 843.573 -2.00242 2.99893 0
M  V30 8894 O 842.677 -3.08662 2.73499 0
M  V30 8895 H 842.018 -0.301737 0.591482 0
M  V30 8896 H 844.548 -0.329449 2.0193 0
M  V30 8897 H 844.558 -2.42583 3.28051 0
M  V30 8898 H 843.233 -1.45235 3.89717 0
M  V30 8899 H 841.81 -2.70786 2.56377 0
M  V30 8900 N 843.995 -1.47404 -0.557645 0
M  V30 8901 C 844.925 -1.62736 -1.67449 0
M  V30 8902 C 845.906 -0.476824 -1.6328 0
M  V30 8903 O 847.091 -0.706108 -1.80908 0
M  V30 8904 C 844.221 -1.641 -3.06086 0
M  V30 8905 C 843.175 -2.78377 -3.25101 0
M  V30 8906 C 842.501 -2.64812 -4.6452 0
M  V30 8907 C 843.801 -4.19971 -3.10518 0
M  V30 8908 H 845.495 -2.56232 -1.54873 0
M  V30 8909 H 843.041 -1.23312 -0.743649 0
M  V30 8910 H 844.994 -1.73417 -3.84063 0
M  V30 8911 H 843.718 -0.671652 -3.19619 0
M  V30 8912 H 842.377 -2.6857 -2.49531 0
M  V30 8913 H 842.025 -1.65906 -4.74852 0
M  V30 8914 H 841.725 -3.41477 -4.78191 0
M  V30 8915 H 843.249 -2.76057 -5.44633 0
M  V30 8916 H 844.663 -4.30757 -3.78313 0
M  V30 8917 H 843.06 -4.97419 -3.35699 0
M  V30 8918 H 844.13 -4.38369 -2.0727 0
M  V30 8919 N 845.473 0.80434 -1.35529 0
M  V30 8920 C 846.701 1.59283 -1.32048 0
M  V30 8921 C 847.116 1.88527 0.101556 0
M  V30 8922 O 846.473 1.48975 1.05417 0
M  V30 8923 C 846.524 2.92276 -2.12737 0
M  V30 8924 O 846.245 2.64299 -3.49396 0
M  V30 8925 C 847.746 3.86631 -2.16867 0
M  V30 8926 H 844.966 0.494523 -0.453528 0
M  V30 8927 H 847.51 0.999415 -1.78415 0
M  V30 8928 H 845.665 3.48125 -1.69964 0
M  V30 8929 H 846.079 3.4923 -3.91329 0
M  V30 8930 H 847.553 4.77053 -2.77712 0
M  V30 8931 H 848.03 4.23384 -1.16803 0
M  V30 8932 H 848.636 3.36717 -2.59811 0
M  V30 8933 N 846.951 1.19563 1.02676 0
M  V30 8934 C 848.179 1.02488 1.79732 0
M  V30 8935 C 848.594 -0.426302 1.83924 0
M  V30 8936 O 847.951 -1.29609 1.28483 0
M  V30 8937 C 848.002 1.58944 3.24683 0
M  V30 8938 O 847.723 2.98382 3.2078 0
M  V30 8939 C 849.224 1.46681 4.1833 0
M  V30 8940 H 846.444 0.361098 0.565552 0
M  V30 8941 H 848.988 1.58426 1.29311 0
M  V30 8942 H 847.143 1.0715 3.72287 0
M  V30 8943 H 847.557 3.24983 4.11687 0
M  V30 8944 H 849.031 1.90959 5.17918 0
M  V30 8945 H 849.508 0.417663 4.3721 0
M  V30 8946 H 850.114 1.97616 3.76601 0
M  V30 8947 N 848.429 -1.21819 0.999893 0
M  V30 8948 C 849.392 -2.22227 0.561044 0
M  V30 8949 C 850.392 -1.56722 -0.359858 0
M  V30 8950 O 851.582 -1.73546 -0.150848 0
M  V30 8951 C 848.714 -3.40409 -0.182987 0
M  V30 8952 H 849.907 -2.62567 1.44909 0
M  V30 8953 H 847.46 -1.34991 0.78785 0
M  V30 8954 H 848.195 -3.05551 -1.08671 0
M  V30 8955 H 847.98 -3.89171 0.47833 0
M  V30 8956 H 849.47 -4.14856 -0.477952 0
M  V30 8957 N 849.908 -0.773975 -1.37286 0
M  V30 8958 C 850.871 -0.167974 -2.28584 0
M  V30 8959 C 851.871 0.625662 -1.48129 0
M  V30 8960 O 853.061 0.448924 -1.68316 0
M  V30 8961 C 850.193 0.769364 -3.32105 0
M  V30 8962 H 851.386 -0.972806 -2.83684 0
M  V30 8963 H 848.939 -0.542335 -1.46589 0
M  V30 8964 H 849.674 1.59912 -2.82132 0
M  V30 8965 H 849.459 0.202419 -3.91577 0
M  V30 8966 H 850.949 1.18872 -4.00324 0
M  V30 8967 N 851.386 1.48609 -0.524698 0
M  V30 8968 C 852.634 2.02097 0.0112991 0
M  V30 8969 C 852.955 1.40455 1.35268 0
M  V30 8970 O 852.225 0.56807 1.87483 0
M  V30 8971 H 850.805 0.746966 0.00716426 0
M  V30 8972 H 853.467 1.82378 -0.687329 0
M  V30 8973 H 852.563 3.11855 0.123531 0
M  V30 8974 N 852.864 0.259585 1.55447 0
M  V30 8975 C 854.28 -0.094961 1.59317 0
M  V30 8976 C 854.48 -1.55884 1.2768 0
M  V30 8977 O 853.536 -2.30528 1.0302 0
M  V30 8978 C 854.849 0.265669 2.99524 0
M  V30 8979 C 856.397 0.211007 3.12288 0
M  V30 8980 C 856.872 0.545851 4.54736 0
M  V30 8981 N 858.363 0.496823 4.60528 0
M  V30 8982 C 859.098 0.728909 5.68748 0
M  V30 8983 N 858.594 1.02479 6.85179 0
M  V30 8984 N 860.387 0.658756 5.58226 0
M  V30 8985 H 852.538 1.2141 1.7428 0
M  V30 8986 H 854.801 0.489404 0.811904 0
M  V30 8987 H 854.507 1.28316 3.27457 0
M  V30 8988 H 854.381 -0.401089 3.75061 0
M  V30 8989 H 856.768 -0.797172 2.84129 0
M  V30 8990 H 856.849 0.911799 2.38998 0
M  V30 8991 H 856.493 1.55164 4.83618 0
M  V30 8992 H 856.423 -0.17656 5.26304 0
M  V30 8993 H 858.914 0.277376 3.76881 0
M  V30 8994 H 859.227 1.18897 7.63599 0
M  V30 8995 H 857.572 1.0624 6.86832 0
M  V30 8996 H 860.763 0.427553 4.66143 0
M  V30 8997 H 860.936 0.84302 6.42493 0
M  V30 8998 N 854.342 -1.57594 -0.0133615 0
M  V30 8999 C 855.753 -1.78168 -0.557937 0
M  V30 9000 C 856.104 -0.892616 -1.74719 0
M  V30 9001 O 855.229 -0.0915491 -2.16206 0
M  V30 9002 C 855.824 -3.23115 -1.01894 0
M  V30 9003 C 854.383 -3.44831 -1.50892 0
M  V30 9004 C 853.53 -2.73558 -0.454044 0
M  V30 9005 H 856.481 -1.57266 0.212843 0
M  V30 9006 H 856.502 -3.30493 -1.8856 0
M  V30 9007 H 856.014 -3.87798 -0.153175 0
M  V30 9008 H 854.115 -2.85345 -2.39602 0
M  V30 9009 H 854.228 -4.53485 -1.54559 0
M  V30 9010 H 852.592 -2.37787 -0.912666 0
M  V30 9011 H 853.375 -3.40932 0.402524 0
M  V30 9012 N 855.82 0.285905 -1.54985 0
M  V30 9013 C 857.068 1.01718 -1.74636 0
M  V30 9014 C 857.389 1.87277 -0.543342 0
M  V30 9015 O 856.659 1.90847 0.442078 0
M  V30 9016 H 855.239 0.378549 -0.643979 0
M  V30 9017 H 857.901 0.313247 -1.92366 0
M  V30 9018 H 856.997 1.66159 -2.64192 0
M  V30 9019 N 857.298 1.47698 0.54982 0
M  V30 9020 C 858.526 1.5833 1.33188 0
M  V30 9021 C 858.941 0.236193 1.87317 0
M  V30 9022 O 858.298 -0.77167 1.65383 0
M  V30 9023 C 858.349 2.61438 2.49664 0
M  V30 9024 O 858.07 3.9092 1.97771 0
M  V30 9025 C 859.571 2.82324 3.41772 0
M  V30 9026 H 856.791 0.53443 0.405741 0
M  V30 9027 H 859.335 1.93375 0.665309 0
M  V30 9028 H 857.49 2.29307 3.12245 0
M  V30 9029 H 857.904 4.47323 2.73866 0
M  V30 9030 H 859.378 3.58316 4.19897 0
M  V30 9031 H 859.855 1.90416 3.95776 0
M  V30 9032 H 860.461 3.15682 2.85 0
M  V30 9033 N 858.776 -0.797141 1.35954 0
M  V30 9034 C 860.024 -1.55161 1.29497 0
M  V30 9035 C 860.345 -1.94582 -0.127659 0
M  V30 9036 O 859.615 -1.64343 -1.06622 0
M  V30 9037 H 858.195 -0.575413 0.47635 0
M  V30 9038 H 860.857 -0.950282 1.70164 0
M  V30 9039 H 859.953 -2.46272 1.9172 0
M  V30 9040 N 860.254 -1.20106 -1.0204 0
M  V30 9041 C 861.164 -0.962051 -2.13967 0
M  V30 9042 C 862.18 0.0808053 -1.73812 0
M  V30 9043 O 863.356 -0.105774 -2.01122 0
M  V30 9044 C 860.421 -0.513108 -3.42882 0
M  V30 9045 C 859.482 -1.62636 -3.97301 0
M  V30 9046 C 858.715 -1.19875 -5.20063 0
M  V30 9047 O 858.938 -0.0658423 -5.70362 0
M  V30 9048 O 857.872 -2.00467 -5.67536 0
M  V30 9049 H 861.698 -1.8991 -2.36998 0
M  V30 9050 H 859.283 -0.984608 -1.12365 0
M  V30 9051 H 861.165 -0.271797 -4.20523 0
M  V30 9052 H 859.84 0.395402 -3.21276 0
M  V30 9053 H 858.747 -1.92192 -3.20957 0
M  V30 9054 H 860.08 -2.51174 -4.23288 0
M  V30 9055 N 861.732 1.21287 -1.00634 0
M  V30 9056 C 862.682 2.21541 -0.53886 0
M  V30 9057 C 863.666 1.55842 0.400256 0
M  V30 9058 O 864.858 1.75566 0.224889 0
M  V30 9059 C 861.987 3.43047 0.131796 0
M  V30 9060 C 861.073 4.1593 -0.828419 0
M  V30 9061 N 861.464 4.65359 -1.98178 0
M  V30 9062 C 859.762 4.41281 -0.647083 0
M  V30 9063 C 860.463 5.21079 -2.58557 0
M  V30 9064 N 859.439 5.10531 -1.86705 0
M  V30 9065 H 863.241 2.57413 -1.41831 0
M  V30 9066 H 860.755 1.37109 -0.870338 0
M  V30 9067 H 862.752 4.14079 0.484178 0
M  V30 9068 H 861.412 3.08683 1.00721 0
M  V30 9069 H 862.423 4.60896 -2.3621 0
M  V30 9070 H 859.1 4.17107 0.181139 0
M  V30 9071 H 860.49 5.6977 -3.56107 0
M  V30 9072 N 863.21 0.781244 1.36873 0
M  V30 9073 C 864.456 0.350407 1.9975 0
M  V30 9074 C 864.789 -1.07293 1.6187 0
M  V30 9075 O 864.064 -1.73983 0.869491 0
M  V30 9076 C 864.347 0.504834 3.56544 0
M  V30 9077 C 864.2 1.97127 4.04303 0
M  V30 9078 C 865.519 -0.0851272 4.40018 0
M  V30 9079 H 862.638 0.128794 0.725659 0
M  V30 9080 H 865.28 0.98606 1.6241 0
M  V30 9081 H 863.43 -0.0363006 3.88483 0
M  V30 9082 H 865.102 2.57284 3.82887 0
M  V30 9083 H 863.345 2.47676 3.56145 0
M  V30 9084 H 864.016 2.03033 5.13305 0
M  V30 9085 H 866.492 0.376704 4.14391 0
M  V30 9086 H 865.368 0.0530015 5.48874 0
M  V30 9087 H 865.629 -1.17642 4.2616 0
M  V30 9088 N 864.689 -1.48329 0.532571 0
M  V30 9089 C 866.1 -1.86469 0.0927749 0
M  V30 9090 C 866.451 -1.44186 -1.3306 0
M  V30 9091 O 865.576 -0.833741 -1.99694 0
M  V30 9092 C 866.171 -3.38414 0.161588 0
M  V30 9093 C 864.73 -3.75739 -0.223028 0
M  V30 9094 C 863.877 -2.72377 0.520199 0
M  V30 9095 H 866.828 -1.40197 0.743678 0
M  V30 9096 H 866.849 -3.75314 -0.626059 0
M  V30 9097 H 866.361 -3.69159 1.19765 0
M  V30 9098 H 864.462 -3.50608 -1.26113 0
M  V30 9099 H 864.575 -4.78954 0.118385 0
M  V30 9100 H 862.939 -2.54678 -0.0338425 0
M  V30 9101 H 863.722 -3.05965 1.55694 0
M  V30 9102 N 866.167 -0.267825 -1.55308 0
M  V30 9103 C 867.415 0.350343 -1.9904 0
M  V30 9104 C 867.736 1.56924 -1.15758 0
M  V30 9105 O 867.006 1.94358 -0.245336 0
M  V30 9106 H 865.586 0.132435 -0.735167 0
M  V30 9107 H 868.248 -0.371471 -1.91327 0
M  V30 9108 H 867.344 0.645203 -3.05358 0
M  V30 9109 N 867.645 1.57599 0.00500368 0
M  V30 9110 C 868.87 1.95026 0.705663 0
M  V30 9111 C 869.295 0.869643 1.6679 0
M  V30 9112 O 868.653 -0.172659 1.80476 0
M  V30 9113 C 868.701 3.31545 1.4181 0
M  V30 9114 O 867.805 3.25495 2.53232 0
M  V30 9115 H 867.146 0.636808 0.188074 0
M  V30 9116 H 869.676 2.04547 -0.046696 0
M  V30 9117 H 869.686 3.66996 1.78265 0
M  V30 9118 H 868.361 4.09751 0.712543 0
M  V30 9119 H 866.938 3.01714 2.19142 0
M  V30 9120 N 869.123 -0.277682 1.55134 0
M  V30 9121 C 870.033 -1.36524 1.90783 0
M  V30 9122 C 871.049 -1.54283 0.804542 0
M  V30 9123 O 872.225 -1.68499 1.10318 0
M  V30 9124 C 869.29 -2.70524 2.16835 0
M  V30 9125 C 868.351 -2.61552 3.40424 0
M  V30 9126 C 867.584 -3.89162 3.65224 0
M  V30 9127 O 867.807 -4.89624 2.92616 0
M  V30 9128 O 866.741 -3.89647 4.58758 0
M  V30 9129 H 870.567 -1.0929 2.83354 0
M  V30 9130 H 868.152 -0.475799 1.41621 0
M  V30 9131 H 870.034 -3.49765 2.35038 0
M  V30 9132 H 868.709 -2.97555 1.27448 0
M  V30 9133 H 867.616 -1.80704 3.27562 0
M  V30 9134 H 868.949 -2.39472 4.30016 0
M  V30 9135 N 870.601 -1.47988 -0.541979 0
M  V30 9136 C 871.534 -1.56172 -1.66389 0
M  V30 9137 C 872.512 -0.412879 -1.57271 0
M  V30 9138 O 873.696 -0.622816 -1.77914 0
M  V30 9139 C 870.823 -1.47851 -3.04726 0
M  V30 9140 C 869.869 -2.67428 -3.32242 0
M  V30 9141 S 870.702 -4.29502 -3.19825 0
M  V30 9142 C 871.858 -4.2376 -4.60628 0
M  V30 9143 H 872.091 -2.51086 -1.59195 0
M  V30 9144 H 869.624 -1.36373 -0.724005 0
M  V30 9145 H 871.582 -1.43738 -3.84512 0
M  V30 9146 H 870.243 -0.542958 -3.09372 0
M  V30 9147 H 869.436 -2.57711 -4.33129 0
M  V30 9148 H 869.038 -2.68743 -2.60103 0
M  V30 9149 H 871.33 -3.92953 -5.51901 0
M  V30 9150 H 872.273 -5.24786 -4.75401 0
M  V30 9151 H 872.681 -3.54398 -4.39389 0
M  V30 9152 N 872.079 0.78992 -1.36375 0
M  V30 9153 C 873.49 1.36506 -1.2737 0
M  V30 9154 C 873.841 1.96008 0.086711 0
M  V30 9155 O 872.966 1.92521 0.988159 0
M  V30 9156 C 873.561 2.48175 -2.30639 0
M  V30 9157 C 872.12 3.01506 -2.25325 0
M  V30 9158 C 871.267 1.74581 -2.15445 0
M  V30 9159 H 874.218 0.591606 -1.47261 0
M  V30 9160 H 874.239 3.27179 -1.94253 0
M  V30 9161 H 873.751 2.04838 -3.2964 0
M  V30 9162 H 871.852 3.49265 -1.29788 0
M  V30 9163 H 871.965 3.58355 -3.17992 0
M  V30 9164 H 870.329 1.96794 -1.61692 0
M  V30 9165 H 871.112 1.33373 -3.16333 0
M  V30 9166 N 873.557 1.20646 1.01402 0
M  V30 9167 C 874.803 1.0197 1.753 0
M  V30 9168 C 875.136 -0.446803 1.8899 0
M  V30 9169 O 874.411 -1.33169 1.41762 0
M  V30 9170 C 874.694 1.70693 3.17074 0
M  V30 9171 C 874.547 3.24805 3.11162 0
M  V30 9172 C 875.866 1.44212 4.15802 0
M  V30 9173 H 872.985 0.371844 0.636318 0
M  V30 9174 H 875.627 1.48696 1.18277 0
M  V30 9175 H 873.777 1.30968 3.65759 0
M  V30 9176 H 875.449 3.73841 2.70261 0
M  V30 9177 H 873.692 3.55576 2.48492 0
M  V30 9178 H 874.363 3.68049 4.11393 0
M  V30 9179 H 876.839 1.7868 3.75783 0
M  V30 9180 H 875.715 1.94825 5.13161 0
M  V30 9181 H 875.976 0.370252 4.40547 0
M  V30 9182 N 875.035 -1.20752 1.01276 0
M  V30 9183 C 876.446 -1.7175 0.732033 0
M  V30 9184 C 876.797 -1.8131 -0.749733 0
M  V30 9185 O 875.922 -1.47301 -1.58529 0
M  V30 9186 C 876.517 -3.11936 1.32217 0
M  V30 9187 C 875.076 -3.6026 1.09039 0
M  V30 9188 C 874.223 -2.37571 1.43022 0
M  V30 9189 H 877.174 -1.0582 1.1827 0
M  V30 9190 H 877.195 -3.73802 0.710771 0
M  V30 9191 H 876.707 -3.04946 2.40061 0
M  V30 9192 H 874.808 -3.72588 0.0294464 0
M  V30 9193 H 874.921 -4.45295 1.76775 0
M  V30 9194 H 873.285 -2.40128 0.849159 0
M  V30 9195 H 874.068 -2.33225 2.51915 0
M  V30 9196 N 876.513 -0.788492 -1.36457 0
M  V30 9197 C 877.79 -0.284484 -1.9352 0
M  V30 9198 C 878.17 1.2232 -1.7205 0
M  V30 9199 O 877.518 2.01424 -1.07892 0
M  V30 9200 C 877.728 -0.676106 -3.42388 0
M  V30 9201 C 879.076 -0.655327 -4.19512 0
M  V30 9202 O 880.1 -0.616523 -3.50824 0
M  V30 9203 O 878.959 -0.697391 -5.42032 0
M  V30 9204 H 876.053 -0.0701769 -0.824017 0
M  V30 9205 H 878.599 -0.870974 -1.45644 0
M  V30 9206 H 877.371 -1.71596 -3.51668 0
M  V30 9207 H 876.994 -0.0634517 -3.97549 0
M  V30 9208 N 877.991 1.48044 -0.54043 0
M  V30 9209 C 879.221 2.06595 -0.0144943 0
M  V30 9210 C 879.629 1.39593 1.27713 0
M  V30 9211 O 878.972 0.480794 1.77297 0
M  V30 9212 C 879.034 3.5849 0.269316 0
M  V30 9213 C 878.698 4.47429 -0.930372 0
M  V30 9214 C 879.695 4.8657 -1.83155 0
M  V30 9215 C 877.38 4.89185 -1.14032 0
M  V30 9216 C 879.374 5.66246 -2.92649 0
M  V30 9217 C 877.061 5.6863 -2.23838 0
M  V30 9218 C 878.059 6.07069 -3.12979 0
M  V30 9219 O 877.747 6.84917 -4.20884 0
M  V30 9220 H 877.479 0.675086 -0.0351467 0
M  V30 9221 H 880.033 1.91275 -0.74853 0
M  V30 9222 H 878.263 3.71961 1.05745 0
M  V30 9223 H 879.952 3.99124 0.738595 0
M  V30 9224 H 880.718 4.54924 -1.68134 0
M  V30 9225 H 876.597 4.58742 -0.455717 0
M  V30 9226 H 880.141 5.96169 -3.62254 0
M  V30 9227 H 876.038 5.99688 -2.38839 0
M  V30 9228 H 876.806 7.03287 -4.18723 0
M  V30 9229 N 879.47 0.276058 1.55163 0
M  V30 9230 C 880.698 -0.343772 2.04024 0
M  V30 9231 C 881.113 -1.49397 1.15438 0
M  V30 9232 O 880.47 -1.81662 0.174692 0
M  V30 9233 C 880.521 -0.823885 3.51986 0
M  V30 9234 O 880.242 0.280507 4.37201 0
M  V30 9235 C 881.743 -1.51143 4.16738 0
M  V30 9236 H 878.963 -0.07828 0.666418 0
M  V30 9237 H 881.507 0.408427 2.0038 0
M  V30 9238 H 879.662 -1.52617 3.56071 0
M  V30 9239 H 880.076 -0.0887831 5.24425 0
M  V30 9240 H 881.55 -1.79878 5.2187 0
M  V30 9241 H 882.027 -2.44327 3.64967 0
M  V30 9242 H 882.633 -0.852975 4.16659 0
M  V30 9243 N 880.948 -1.576 0.00335426 0
M  V30 9244 C 882.173 -1.95398 -0.695311 0
M  V30 9245 C 882.598 -0.878476 -1.66326 0
M  V30 9246 O 881.956 0.163086 -1.80565 0
M  V30 9247 C 882.004 -3.32293 -1.40049 0
M  V30 9248 O 881.108 -3.26834 -2.51502 0
M  V30 9249 H 880.449 -0.637796 -0.184694 0
M  V30 9250 H 882.979 -2.04519 0.057543 0
M  V30 9251 H 882.989 -3.67936 -1.76316 0
M  V30 9252 H 881.664 -4.10123 -0.690803 0
M  V30 9253 H 880.241 -3.02872 -2.17539 0
M  V30 9254 N 882.426 0.269451 -1.5528 0
M  V30 9255 C 883.675 0.998381 -1.75258 0
M  V30 9256 C 883.988 1.87321 -0.563034 0
M  V30 9257 O 885.194 2.63719 -0.645313 0
M  V30 9258 C 883.65 1.82505 -3.10193 0
M  V30 9259 C 883.258 0.99871 -4.36726 0
M  V30 9260 C 885.002 2.54807 -3.3952 0
M  V30 9261 C 882.909 1.81997 -5.627 0
M  V30 9262 H 881.839 0.376488 -0.653278 0
M  V30 9263 H 884.49 0.253909 -1.81735 0
M  V30 9264 H 882.872 2.61061 -2.97763 0
M  V30 9265 H 884.046 0.257064 -4.60082 0
M  V30 9266 H 882.361 0.390074 -4.14569 0
M  V30 9267 H 884.958 3.16662 -4.30847 0
M  V30 9268 H 885.301 3.25273 -2.59813 0
M  V30 9269 H 885.834 1.83278 -3.53064 0
M  V30 9270 H 882.573 1.15945 -6.45164 0
M  V30 9271 H 882.093 2.53749 -5.43481 0
M  V30 9272 H 883.772 2.39274 -6.0113 0
M  V30 9273 N 883.904 1.48273 0.534124 0
M  V30 9274 C 884.854 1.58889 1.63519 0
M  V30 9275 C 885.838 0.44626 1.54588 0
M  V30 9276 O 887.03 0.697474 1.62679 0
M  V30 9277 C 884.159 1.62787 3.0225 0
M  V30 9278 C 883.245 2.82515 3.16301 0
M  V30 9279 N 883.636 4.06977 3.00338 0
M  V30 9280 C 881.934 2.7976 3.47347 0
M  V30 9281 C 882.635 4.87283 3.17694 0
M  V30 9282 N 881.611 4.20024 3.45081 0
M  V30 9283 H 885.413 2.52869 1.49781 0
M  V30 9284 H 882.927 1.44587 0.739479 0
M  V30 9285 H 884.924 1.68486 3.81337 0
M  V30 9286 H 883.584 0.699201 3.17082 0
M  V30 9287 H 884.595 4.37479 2.77186 0
M  V30 9288 H 881.272 1.96132 3.68563 0
M  V30 9289 H 882.662 5.96047 3.10126 0
M  V30 9290 N 885.382 -0.782676 1.36792 0
M  V30 9291 C 886.631 -1.53605 1.30723 0
M  V30 9292 C 886.944 -1.95294 -0.109296 0
M  V30 9293 O 888.15 -2.69921 -0.292398 0
M  V30 9294 C 886.606 -2.77321 2.29393 0
M  V30 9295 C 886.214 -2.42774 3.76517 0
M  V30 9296 C 887.958 -3.55289 2.32314 0
M  V30 9297 C 885.865 -3.62926 4.66947 0
M  V30 9298 H 884.795 -0.576646 0.485794 0
M  V30 9299 H 887.446 -0.858255 1.62192 0
M  V30 9300 H 885.828 -3.46934 1.90927 0
M  V30 9301 H 887.002 -1.81014 4.23758 0
M  V30 9302 H 885.317 -1.78002 3.76436 0
M  V30 9303 H 887.914 -4.44573 2.97083 0
M  V30 9304 H 888.257 -3.94361 1.3336 0
M  V30 9305 H 888.79 -2.92662 2.69432 0
M  V30 9306 H 885.529 -3.28944 5.66989 0
M  V30 9307 H 885.049 -4.23828 4.24418 0
M  V30 9308 H 886.728 -4.29873 4.83548 0
M  V30 9309 N 886.86 -1.21182 -1.00761 0
M  V30 9310 C 888.106 -1.02898 -1.74756 0
M  V30 9311 C 888.439 0.436774 -1.89225 0
M  V30 9312 O 887.714 1.32415 -1.42466 0
M  V30 9313 C 887.997 -1.72372 -3.16164 0
M  V30 9314 C 887.85 -3.2645 -3.09435 0
M  V30 9315 C 889.169 -1.46415 -4.15031 0
M  V30 9316 H 886.288 -0.375214 -0.634337 0
M  V30 9317 H 888.93 -1.49321 -1.17487 0
M  V30 9318 H 887.08 -1.32906 -3.65059 0
M  V30 9319 H 888.752 -3.75269 -2.68274 0
M  V30 9320 H 886.995 -3.56889 -2.46603 0
M  V30 9321 H 887.666 -3.70226 -4.09435 0
M  V30 9322 H 890.142 -1.80671 -3.7483 0
M  V30 9323 H 889.018 -1.97544 -5.12121 0
M  V30 9324 H 889.279 -0.39361 -4.40344 0
M  V30 9325 N 888.338 1.20213 -1.01915 0
M  V30 9326 C 889.27 2.2251 -0.549725 0
M  V30 9327 C 890.283 1.58558 0.369235 0
M  V30 9328 O 891.472 1.77715 0.167176 0
M  V30 9329 C 888.572 3.38189 0.219432 0
M  V30 9330 C 887.745 4.31729 -0.702066 0
M  V30 9331 C 886.804 5.26196 0.0199624 0
M  V30 9332 O 885.83 5.65993 -0.60339 0
M  V30 9333 N 887.032 5.65895 1.29397 0
M  V30 9334 H 889.797 2.63412 -1.42948 0
M  V30 9335 H 887.358 1.3478 -0.896987 0
M  V30 9336 H 889.35 3.98392 0.711763 0
M  V30 9337 H 887.92 2.96156 1.00051 0
M  V30 9338 H 887.14 3.69455 -1.37466 0
M  V30 9339 H 888.428 4.91145 -1.3287 0
M  V30 9340 H 887.826 5.35579 1.8213 0
M  V30 9341 H 886.383 6.28395 1.73098 0
M  V30 9342 N 889.816 0.795718 1.36037 0
M  V30 9343 C 891.041 0.38204 2.03851 0
M  V30 9344 C 891.466 -0.995553 1.59594 0
M  V30 9345 O 890.824 -1.64258 0.767401 0
M  V30 9346 C 890.872 0.461248 3.57638 0
M  V30 9347 O 889.976 -0.529448 4.08987 0
M  V30 9348 H 889.317 0.161227 0.644129 0
M  V30 9349 H 891.847 1.07858 1.73861 0
M  V30 9350 H 891.857 0.32712 4.06687 0
M  V30 9351 H 890.532 1.46613 3.89201 0
M  V30 9352 H 889.109 -0.35646 3.71192 0
M  V30 9353 N 891.294 -1.47756 0.548274 0
M  V30 9354 C 892.705 -1.8636 0.112547 0
M  V30 9355 C 893.056 -1.45589 -1.31523 0
M  V30 9356 O 892.181 -0.854874 -1.98799 0
M  V30 9357 C 892.776 -3.38224 0.197473 0
M  V30 9358 C 891.335 -3.75954 -0.183163 0
M  V30 9359 C 890.482 -2.7181 0.549059 0
M  V30 9360 H 893.433 -1.394 0.758506 0
M  V30 9361 H 893.454 -3.75957 -0.586217 0
M  V30 9362 H 892.966 -3.67868 1.23673 0
M  V30 9363 H 891.067 -3.51926 -1.22387 0
M  V30 9364 H 891.18 -4.78801 0.169178 0
M  V30 9365 H 889.544 -2.54699 -0.00682862 0
M  V30 9366 H 890.327 -3.04296 1.5893 0
M  V30 9367 N 892.772 -0.284283 -1.55015 0
M  V30 9368 C 893.704 0.63258 -2.20298 0
M  V30 9369 C 894.717 1.11045 -1.1905 0
M  V30 9370 O 895.906 1.03078 -1.4573 0
M  V30 9371 C 893.006 1.87599 -2.82241 0
M  V30 9372 C 892.179 1.5434 -4.09265 0
M  V30 9373 C 891.238 2.64023 -4.55169 0
M  V30 9374 O 890.264 2.29821 -5.20741 0
M  V30 9375 N 891.466 3.94255 -4.26079 0
M  V30 9376 H 894.231 0.0737928 -2.99609 0
M  V30 9377 H 891.792 -0.105767 -1.61554 0
M  V30 9378 H 893.784 2.60289 -3.0989 0
M  V30 9379 H 892.354 2.3436 -2.06868 0
M  V30 9380 H 891.574 0.649912 -3.88806 0
M  V30 9381 H 892.862 1.29634 -4.92009 0
M  V30 9382 H 892.26 4.24859 -3.73512 0
M  V30 9383 H 890.817 4.63295 -4.58477 0
M  V30 9384 N 894.251 1.57596 -0.0117121 0
M  V30 9385 C 895.499 1.90694 0.669342 0
M  V30 9386 C 895.82 0.886999 1.73659 0
M  V30 9387 O 895.09 -0.0739779 1.9576 0
M  V30 9388 H 893.67 0.703846 0.250219 0
M  V30 9389 H 896.332 1.94821 -0.0554057 0
M  V30 9390 H 895.428 2.90802 1.13316 0
M  V30 9391 N 895.729 -0.261212 1.5542 0
M  V30 9392 C 896.659 -1.32712 1.92119 0
M  V30 9393 C 897.64 -1.50934 0.784406 0
M  V30 9394 O 898.825 -1.63781 1.04352 0
M  V30 9395 C 895.955 -2.68453 2.20341 0
M  V30 9396 C 894.909 -2.64947 3.36136 0
M  V30 9397 C 894.235 -4.04349 3.49865 0
M  V30 9398 C 895.535 -2.23182 4.72215 0
M  V30 9399 H 897.229 -1.02245 2.81401 0
M  V30 9400 H 894.775 -0.490406 1.35392 0
M  V30 9401 H 896.728 -3.43144 2.44603 0
M  V30 9402 H 895.452 -3.00527 1.27871 0
M  V30 9403 H 894.111 -1.92714 3.11861 0
M  V30 9404 H 893.759 -4.33665 2.5484 0
M  V30 9405 H 893.459 -4.02895 4.27726 0
M  V30 9406 H 894.983 -4.80761 3.76432 0
M  V30 9407 H 896.397 -2.87599 4.95943 0
M  V30 9408 H 894.794 -2.32867 5.53076 0
M  V30 9409 H 895.864 -1.18327 4.70241 0
M  V30 9410 N 897.207 -1.48554 -0.526253 0
M  V30 9411 C 898.456 -1.56014 -1.27837 0
M  V30 9412 C 898.769 -0.240643 -1.94114 0
M  V30 9413 O 899.975 -0.193525 -2.70809 0
M  V30 9414 C 898.431 -2.75161 -2.31979 0
M  V30 9415 C 898.039 -4.13768 -1.71755 0
M  V30 9416 C 899.783 -2.91936 -3.08178 0
M  V30 9417 C 897.69 -5.24171 -2.7386 0
M  V30 9418 H 896.62 -0.58082 -0.480795 0
M  V30 9419 H 899.271 -1.74895 -0.555335 0
M  V30 9420 H 897.653 -2.49722 -3.07335 0
M  V30 9421 H 898.827 -4.49241 -1.02563 0
M  V30 9422 H 897.142 -4.02141 -1.08036 0
M  V30 9423 H 899.739 -3.71586 -3.84484 0
M  V30 9424 H 900.082 -2.01533 -3.64267 0
M  V30 9425 H 900.615 -3.17294 -2.39937 0
M  V30 9426 H 897.354 -6.16552 -2.22586 0
M  V30 9427 H 896.874 -4.93181 -3.41368 0
M  V30 9428 H 898.553 -5.52442 -3.36774 0
M  V30 9429 N 898.685 0.775411 -1.37205 0
M  V30 9430 C 899.615 1.90258 -1.35367 0
M  V30 9431 C 900.596 1.68634 -0.222864 0
M  V30 9432 O 901.781 1.89545 -0.422659 0
M  V30 9433 C 898.911 3.27488 -1.15623 0
M  V30 9434 C 897.865 3.63668 -2.25676 0
M  V30 9435 C 897.191 4.994 -1.91059 0
M  V30 9436 C 898.491 3.70797 -3.67841 0
M  V30 9437 H 900.185 1.92053 -2.29687 0
M  V30 9438 H 897.731 0.922597 -1.10563 0
M  V30 9439 H 899.684 4.05976 -1.12968 0
M  V30 9440 H 898.408 3.26117 -0.177573 0
M  V30 9441 H 897.067 2.87486 -2.2748 0
M  V30 9442 H 896.715 4.94565 -0.917324 0
M  V30 9443 H 896.415 5.24576 -2.64751 0
M  V30 9444 H 897.939 5.80291 -1.89985 0
M  V30 9445 H 899.353 4.39444 -3.68187 0
M  V30 9446 H 897.75 4.07468 -4.40556 0
M  V30 9447 H 898.82 2.71549 -4.01732 0
M  V30 9448 N 900.163 1.21714 1.00117 0
M  V30 9449 C 901.111 0.976937 2.11089 0
M  V30 9450 C 902.105 -0.0771295 1.69224 0
M  V30 9451 O 903.311 0.0745945 1.79845 0
M  V30 9452 H 899.686 0.298687 0.690138 0
M  V30 9453 H 901.657 1.91881 2.28526 0
M  V30 9454 C 900.406 0.562369 3.43122 0
M  V30 9455 H 899.729 1.36509 3.75773 0
M  V30 9456 H 901.169 0.433642 4.21777 0
M  V30 9457 C 899.628 -0.727148 3.28959 0
M  V30 9458 O 900.158 -1.78171 3.60025 0
M  V30 9459 N 898.364 -0.695129 2.82164 0
M  V30 9460 H 897.911 0.163346 2.57082 0
M  V30 9461 H 897.869 -1.55822 2.73069 0
M  V30 9462 N 901.641 -1.19671 1.02551 0
M  V30 9463 C 902.604 -2.20987 0.608055 0
M  V30 9464 C 903.604 -1.5745 -0.326534 0
M  V30 9465 O 904.794 -1.73827 -0.114003 0
M  V30 9466 C 901.926 -3.4072 -0.11074 0
M  V30 9467 H 903.119 -2.59434 1.50446 0
M  V30 9468 H 900.672 -1.3329 0.816307 0
M  V30 9469 H 901.407 -3.07787 -1.02165 0
M  V30 9470 H 901.192 -3.88069 0.560772 0
M  V30 9471 H 902.682 -4.15776 -0.389848 0
M  V30 9472 N 903.119 -0.802921 -1.35613 0
M  V30 9473 C 904.347 -0.39393 -2.03115 0
M  V30 9474 C 904.762 0.993961 -1.60517 0
M  V30 9475 O 904.119 1.63984 -0.800973 0
M  V30 9476 C 904.17 -0.463486 -3.58516 0
M  V30 9477 O 903.891 -1.79666 -3.99565 0
M  V30 9478 C 905.392 -0.0468377 -4.43275 0
M  V30 9479 H 902.612 -0.160519 -0.651517 0
M  V30 9480 H 905.156 -1.08552 -1.73311 0
M  V30 9481 H 903.311 0.179821 -3.86982 0
M  V30 9482 H 903.725 -1.75688 -4.942 0
M  V30 9483 H 905.199 -0.146626 -5.51805 0
M  V30 9484 H 905.676 1.00741 -4.2749 0
M  V30 9485 H 906.282 -0.663158 -4.20098 0
M  V30 9486 N 904.597 1.47463 -0.556102 0
M  V30 9487 C 905.56 2.28478 0.181743 0
M  V30 9488 C 906.56 1.36886 0.843738 0
M  V30 9489 O 907.75 1.59527 0.69977 0
M  V30 9490 C 904.882 3.16534 1.26566 0
M  V30 9491 H 906.075 2.95182 -0.529892 0
M  V30 9492 H 903.628 1.53134 -0.313005 0
M  V30 9493 H 904.363 2.5452 2.00973 0
M  V30 9494 H 904.148 3.83939 0.795798 0
M  V30 9495 H 905.638 3.77579 1.78393 0
M  V30 9496 N 906.075 0.2925 1.54862 0
M  V30 9497 C 907.005 -0.580677 2.26165 0
M  V30 9498 C 907.986 -1.14485 1.25806 0
M  V30 9499 O 909.171 -1.17577 1.54562 0
M  V30 9500 C 906.301 -1.75668 2.99596 0
M  V30 9501 C 905.255 -1.32325 4.07031 0
M  V30 9502 C 904.581 -2.58374 4.68131 0
M  V30 9503 C 905.881 -0.460703 5.20264 0
M  V30 9504 H 907.575 0.0140075 2.99397 0
M  V30 9505 H 905.121 0.00817706 1.43998 0
M  V30 9506 H 907.074 -2.37356 3.48195 0
M  V30 9507 H 905.798 -2.37747 2.23928 0
M  V30 9508 H 904.457 -0.729477 3.59269 0
M  V30 9509 H 904.105 -3.18749 3.89112 0
M  V30 9510 H 903.805 -2.30078 5.40683 0
M  V30 9511 H 905.329 -3.2088 5.19489 0
M  V30 9512 H 906.743 -0.983037 5.64809 0
M  V30 9513 H 905.14 -0.271881 5.99484 0
M  V30 9514 H 906.21 0.516304 4.82143 0
M  V30 9515 N 907.553 -1.57587 0.0200696 0
M  V30 9516 C 908.964 -1.79312 -0.520019 0
M  V30 9517 C 909.315 -0.929475 -1.72787 0
M  V30 9518 O 908.44 -0.137389 -2.15963 0
M  V30 9519 C 909.035 -3.25203 -0.950172 0
M  V30 9520 C 907.594 -3.47954 -1.43543 0
M  V30 9521 C 906.741 -2.74459 -0.395917 0
M  V30 9522 H 909.692 -1.56779 0.246153 0
M  V30 9523 H 909.713 -3.34418 -1.81508 0
M  V30 9524 H 909.225 -3.88035 -0.070883 0
M  V30 9525 H 907.326 -2.90363 -2.33495 0
M  V30 9526 H 907.439 -4.56661 -1.44905 0
M  V30 9527 H 905.803 -2.39669 -0.862022 0
M  V30 9528 H 906.586 -3.40001 0.47475 0
M  V30 9529 N 909.032 0.252966 -1.55557 0
M  V30 9530 C 909.962 1.31691 -1.9282 0
M  V30 9531 C 910.943 1.50516 -0.7924 0
M  V30 9532 O 912.128 1.63225 -1.05219 0
M  V30 9533 C 909.258 2.67281 -2.21762 0
M  V30 9534 C 908.212 2.6316 -3.37536 0
M  V30 9535 C 907.538 4.02488 -3.52005 0
M  V30 9536 C 908.838 2.20675 -4.73392 0
M  V30 9537 H 910.532 1.00751 -2.81939 0
M  V30 9538 H 908.078 0.483219 -1.3565 0
M  V30 9539 H 910.031 3.41842 -2.46419 0
M  V30 9540 H 908.755 2.99845 -1.29463 0
M  V30 9541 H 907.414 1.91057 -3.12878 0
M  V30 9542 H 907.062 4.32307 -2.57137 0
M  V30 9543 H 906.762 4.00621 -4.29857 0
M  V30 9544 H 908.286 4.78758 -3.78977 0
M  V30 9545 H 909.7 2.84965 -4.97461 0
M  V30 9546 H 908.097 2.29931 -5.54303 0
M  V30 9547 H 909.167 1.15831 -4.70862 0
M  V30 9548 N 910.51 1.48831 0.518367 0
M  V30 9549 C 911.921 1.50842 1.10016 0
M  V30 9550 C 912.272 0.284744 1.94123 0
M  V30 9551 O 911.397 -0.607088 2.0771 0
M  V30 9552 C 911.992 2.73329 2.00191 0
M  V30 9553 C 910.551 2.78175 2.53566 0
M  V30 9554 C 909.698 2.4452 1.30786 0
M  V30 9555 H 912.649 1.55779 0.303073 0
M  V30 9556 H 912.67 2.52506 2.84642 0
M  V30 9557 H 912.182 3.62374 1.3895 0
M  V30 9558 H 910.283 1.93368 3.18496 0
M  V30 9559 H 910.396 3.79905 2.91906 0
M  V30 9560 H 908.76 1.95924 1.62744 0
M  V30 9561 H 909.543 3.35819 0.712797 0
M  V30 9562 N 911.988 -0.768124 1.37614 0
M  V30 9563 C 913.265 -1.51637 1.23554 0
M  V30 9564 C 913.645 -2.1042 -0.169331 0
M  V30 9565 O 912.993 -1.95834 -1.17735 0
M  V30 9566 C 913.203 -2.59436 2.33439 0
M  V30 9567 C 914.551 -3.2674 2.71157 0
M  V30 9568 O 915.575 -2.69733 2.32642 0
M  V30 9569 O 914.434 -4.29814 3.37524 0
M  V30 9570 H 911.528 -0.671778 0.482332 0
M  V30 9571 H 914.074 -0.804779 1.49403 0
M  V30 9572 H 912.846 -2.14146 3.27502 0
M  V30 9573 H 912.469 -3.38192 2.09073 0
M  V30 9574 N 913.466 -1.22244 -0.994698 0
M  V30 9575 C 914.413 -0.990906 -2.08446 0
M  V30 9576 C 915.383 0.086737 -1.65873 0
M  V30 9577 O 916.568 -0.0624882 -1.90698 0
M  V30 9578 C 913.708 -0.572813 -3.40313 0
M  V30 9579 C 912.821 -1.72103 -3.96238 0
M  V30 9580 C 911.956 -1.2511 -5.16257 0
M  V30 9581 C 910.995 -2.37098 -5.64315 0
M  V30 9582 N 910.132 -1.91164 -6.75574 0
M  V30 9583 H 914.972 -1.92377 -2.27585 0
M  V30 9584 H 912.509 -0.958576 -1.11578 0
M  V30 9585 H 914.467 -0.311594 -4.16035 0
M  V30 9586 H 913.097 0.323044 -3.21179 0
M  V30 9587 H 912.149 -2.09662 -3.17405 0
M  V30 9588 H 913.461 -2.56347 -4.27888 0
M  V30 9589 H 912.615 -0.947152 -5.99261 0
M  V30 9590 H 911.354 -0.378836 -4.86226 0
M  V30 9591 H 910.359 -2.68283 -4.799 0
M  V30 9592 H 911.584 -3.24837 -5.96371 0
M  V30 9593 H 909.53 -1.06298 -6.47331 0
M  V30 9594 H 909.447 -2.68975 -7.06533 0
M  V30 9595 H 910.715 -1.63833 -7.62088 0
M  V30 9596 N 914.944 1.19125 -1.03184 0
M  V30 9597 C 915.854 2.26112 -0.625329 0
M  V30 9598 C 916.87 1.7056 0.344298 0
M  V30 9599 O 918.046 2.0039 0.20144 0
M  V30 9600 C 915.111 3.46697 0.0145169 0
M  V30 9601 C 914.172 4.17419 -1.00299 0
M  V30 9602 C 913.405 5.32247 -0.393581 0
M  V30 9603 O 913.628 5.64724 0.802659 0
M  V30 9604 O 912.562 5.91428 -1.1179 0
M  V30 9605 H 916.388 2.63131 -1.51643 0
M  V30 9606 H 913.973 1.26036 -0.802197 0
M  V30 9607 H 915.855 4.19762 0.371139 0
M  V30 9608 H 914.53 3.11521 0.879581 0
M  V30 9609 H 913.437 3.4646 -1.41125 0
M  V30 9610 H 914.77 4.56573 -1.83852 0
M  V30 9611 N 916.422 0.810101 1.35185 0
M  V30 9612 C 917.669 0.392117 1.98667 0
M  V30 9613 C 917.997 -1.0416 1.64259 0
M  V30 9614 O 917.252 -1.73795 0.899647 0
M  V30 9615 C 917.551 0.526561 3.535 0
M  V30 9616 C 917.217 1.92411 4.07785 0
M  V30 9617 C 915.879 2.30644 4.22323 0
M  V30 9618 C 918.231 2.83827 4.37141 0
M  V30 9619 C 915.559 3.59655 4.63536 0
M  V30 9620 C 917.911 4.12287 4.79794 0
M  V30 9621 C 916.575 4.50515 4.92536 0
M  V30 9622 H 915.845 0.143486 0.726975 0
M  V30 9623 H 918.492 1.03157 1.61341 0
M  V30 9624 H 916.797 -0.19633 3.91308 0
M  V30 9625 H 918.494 0.183871 4.00578 0
M  V30 9626 H 915.084 1.61707 3.96924 0
M  V30 9627 H 919.268 2.55536 4.25459 0
M  V30 9628 H 914.524 3.89117 4.71591 0
M  V30 9629 H 918.698 4.83221 5.01468 0
M  V30 9630 H 916.325 5.50535 5.24229 0
M  V30 9631 N 917.9 -1.47166 0.563914 0
M  V30 9632 C 918.83 -2.32894 -0.168148 0
M  V30 9633 C 919.811 -1.44202 -0.902214 0
M  V30 9634 O 920.996 -1.73048 -0.881365 0
M  V30 9635 C 918.126 -3.26116 -1.19439 0
M  V30 9636 C 917.08 -4.24101 -0.576363 0
M  V30 9637 C 916.406 -5.06696 -1.70772 0
M  V30 9638 C 917.706 -5.20142 0.47425 0
M  V30 9639 H 919.4 -2.9435 0.547573 0
M  V30 9640 H 916.946 -1.41545 0.264778 0
M  V30 9641 H 918.899 -3.84935 -1.71474 0
M  V30 9642 H 917.623 -2.62728 -1.94014 0
M  V30 9643 H 916.282 -3.66519 -0.0772534 0
M  V30 9644 H 915.93 -4.39707 -2.44268 0
M  V30 9645 H 915.63 -5.7304 -1.29994 0
M  V30 9646 H 917.154 -5.68375 -2.2312 0
M  V30 9647 H 918.568 -5.73286 0.0397035 0
M  V30 9648 H 916.965 -5.94726 0.801287 0
M  V30 9649 H 918.035 -4.65214 1.36764 0
M  V30 9650 N 919.378 -0.300708 -1.54705 0
M  V30 9651 C 920.603 0.314073 -2.05008 0
M  V30 9652 C 921.028 1.46759 -1.17657 0
M  V30 9653 O 920.386 1.80398 -0.180598 0
M  V30 9654 C 920.434 0.748243 -3.52752 0
M  V30 9655 O 919.538 1.85305 -3.68424 0
M  V30 9656 H 918.879 0.0610139 -0.661191 0
M  V30 9657 H 921.409 -0.442467 -1.99758 0
M  V30 9658 H 921.419 1.03713 -3.94598 0
M  V30 9659 H 920.094 -0.095573 -4.1579 0
M  V30 9660 H 918.671 1.56473 -3.38483 0
M  V30 9661 N 920.856 1.57574 -0.0284266 0
M  V30 9662 C 922.081 1.96479 0.664137 0
M  V30 9663 C 922.506 0.904826 1.64908 0
M  V30 9664 O 921.864 -0.134339 1.80802 0
M  V30 9665 C 921.912 3.34479 1.34745 0
M  V30 9666 O 921.016 3.30794 2.46271 0
M  V30 9667 H 920.357 0.640654 0.174524 0
M  V30 9668 H 922.887 2.04402 -0.0900729 0
M  V30 9669 H 922.897 3.70694 1.7044 0
M  V30 9670 H 921.572 4.1117 0.625468 0
M  V30 9671 H 920.149 3.06294 2.12693 0
M  V30 9672 N 922.334 -0.244713 1.55689 0
M  V30 9673 C 923.574 -0.979776 1.79387 0
M  V30 9674 C 923.938 -1.8244 0.598298 0
M  V30 9675 O 925.139 -2.59141 0.7141 0
M  V30 9676 C 923.41 -1.81573 3.07841 0
M  V30 9677 S 924.969 -2.60959 3.52769 0
M  V30 9678 H 921.787 -0.329526 0.630027 0
M  V30 9679 H 924.389 -0.247435 1.93928 0
M  V30 9680 H 923.093 -1.18497 3.92921 0
M  V30 9681 H 922.624 -2.59078 2.96044 0
M  V30 9682 H 924.639 -3.83987 3.14275 0
M  V30 9683 N 923.813 -1.49104 -0.510467 0
M  V30 9684 C 925.061 -1.578 -1.26268 0
M  V30 9685 C 925.382 -0.262349 -1.93227 0
M  V30 9686 O 924.652 0.717624 -1.82283 0
M  V30 9687 H 923.232 -0.581387 -0.46904 0
M  V30 9688 H 925.894 -1.85678 -0.592423 0
M  V30 9689 H 924.99 -2.36919 -2.03165 0
M  V30 9690 N 925.291 0.760815 -1.38019 0
M  V30 9691 C 926.521 1.54776 -1.3685 0
M  V30 9692 C 926.929 1.89146 0.0453971 0
M  V30 9693 O 926.272 1.52746 1.0205 0
M  V30 9694 C 926.334 2.87923 -2.15269 0
M  V30 9695 C 925.998 2.76131 -3.64144 0
M  V30 9696 C 926.995 2.46417 -4.57794 0
M  V30 9697 C 924.68 2.9381 -4.07408 0
M  V30 9698 C 926.674 2.34525 -5.92686 0
M  V30 9699 C 924.361 2.81539 -5.42383 0
M  V30 9700 C 925.359 2.51938 -6.34836 0
M  V30 9701 O 925.047 2.39713 -7.67329 0
M  V30 9702 H 924.779 0.485776 -0.470104 0
M  V30 9703 H 927.333 0.949939 -1.82113 0
M  V30 9704 H 925.563 3.49867 -1.64712 0
M  V30 9705 H 927.252 3.49389 -2.06596 0
M  V30 9706 H 928.018 2.32433 -4.25676 0
M  V30 9707 H 923.897 3.15849 -3.35799 0
M  V30 9708 H 927.441 2.11342 -6.64816 0
M  V30 9709 H 923.338 2.95093 -5.741 0
M  V30 9710 H 924.106 2.5498 -7.77771 0
M  V30 9711 N 926.769 1.22769 0.988202 0
M  V30 9712 C 928.015 1.05665 1.73097 0
M  V30 9713 C 928.348 -0.406615 1.89895 0
M  V30 9714 O 927.623 -1.30132 1.44554 0
M  V30 9715 C 927.906 1.77381 3.13382 0
M  V30 9716 C 927.759 3.31332 3.04203 0
M  V30 9717 C 929.078 1.52999 4.12649 0
M  V30 9718 H 926.197 0.385258 0.628288 0
M  V30 9719 H 928.839 1.51171 1.15097 0
M  V30 9720 H 926.989 1.38696 3.62899 0
M  V30 9721 H 928.661 3.79489 2.6227 0
M  V30 9722 H 926.904 3.60767 2.40894 0
M  V30 9723 H 927.575 3.76692 4.03493 0
M  V30 9724 H 930.051 1.86611 3.71908 0
M  V30 9725 H 928.927 2.05666 5.08913 0
M  V30 9726 H 929.188 0.463615 4.39662 0
M  V30 9727 N 928.247 -1.18576 1.03814 0
M  V30 9728 C 929.472 -1.92978 0.759873 0
M  V30 9729 C 929.897 -1.75514 -0.676486 0
M  V30 9730 O 929.255 -1.06359 -1.46824 0
M  V30 9731 C 929.303 -3.42507 1.12788 0
M  V30 9732 O 928.407 -4.1163 0.251886 0
M  V30 9733 H 927.748 -0.602129 0.279886 0
M  V30 9734 H 930.278 -1.50383 1.3873 0
M  V30 9735 H 930.288 -3.93206 1.08872 0
M  V30 9736 H 928.963 -3.5454 2.17427 0
M  V30 9737 H 927.54 -3.7125 0.350441 0
M  V30 9738 N 929.725 -0.817259 -1.34754 0
M  V30 9739 C 930.953 -0.415451 -2.02686 0
M  V30 9740 C 931.368 0.97688 -1.61563 0
M  V30 9741 O 930.725 1.63125 -0.818321 0
M  V30 9742 C 930.776 -0.501486 -3.58005 0
M  V30 9743 O 930.497 -1.83893 -3.97637 0
M  V30 9744 C 931.998 -0.0938504 -4.43201 0
M  V30 9745 H 929.218 -0.16742 -0.649778 0
M  V30 9746 H 931.762 -1.10384 -1.7215 0
M  V30 9747 H 929.917 0.138766 -3.87151 0
M  V30 9748 H 930.331 -1.8092 -4.92309 0
M  V30 9749 H 931.805 -0.205145 -5.51619 0
M  V30 9750 H 932.282 0.962011 -4.28535 0
M  V30 9751 H 932.888 -0.707677 -4.19371 0
M  V30 9752 N 931.203 1.46865 -0.571711 0
M  V30 9753 C 932.48 1.95596 0.0132445 0
M  V30 9754 C 932.86 1.51438 1.47071 0
M  V30 9755 O 932.208 0.759917 2.15494 0
M  V30 9756 C 932.418 3.48689 -0.147335 0
M  V30 9757 C 933.766 4.24599 -0.00946329 0
M  V30 9758 O 934.79 3.5612 -0.0756112 0
M  V30 9759 O 933.649 5.46332 0.135361 0
M  V30 9760 H 930.743 0.825102 0.0560039 0
M  V30 9761 H 933.289 1.57199 -0.639256 0
M  V30 9762 H 932.061 3.73681 -1.16096 0
M  V30 9763 H 931.684 3.93887 0.542109 0
M  V30 9764 N 932.681 0.308908 1.54543 0
M  V30 9765 C 933.613 -0.597453 2.21276 0
M  V30 9766 C 934.626 -1.09137 1.20801 0
M  V30 9767 O 935.815 -1.00747 1.47351 0
M  V30 9768 C 932.915 -1.83085 2.85189 0
M  V30 9769 C 932.088 -1.4781 4.11669 0
M  V30 9770 C 931.147 -2.56748 4.59311 0
M  V30 9771 O 930.173 -2.21507 5.24331 0
M  V30 9772 N 931.375 -3.87427 4.32297 0
M  V30 9773 H 934.14 -0.0261183 2.99689 0
M  V30 9774 H 931.701 0.131456 1.61365 0
M  V30 9775 H 933.693 -2.55326 3.13992 0
M  V30 9776 H 932.263 -2.31039 2.1057 0
M  V30 9777 H 931.483 -0.587974 3.8979 0
M  V30 9778 H 932.771 -1.2179 4.94009 0
M  V30 9779 H 932.169 -4.18863 3.80224 0
M  V30 9780 H 930.726 -4.55942 4.6579 0
M  V30 9781 N 934.159 -1.57557 0.0367827 0
M  V30 9782 C 935.089 -2.13712 -0.940719 0
M  V30 9783 C 936.07 -1.05515 -1.33419 0
M  V30 9784 O 937.255 -1.33385 -1.41146 0
M  V30 9785 C 934.385 -2.67043 -2.22048 0
M  V30 9786 C 933.339 -3.80096 -1.96752 0
M  V30 9787 C 932.665 -4.19886 -3.31059 0
M  V30 9788 C 933.965 -5.05848 -1.30058 0
M  V30 9789 H 935.659 -2.9564 -0.473033 0
M  V30 9790 H 933.205 -1.42214 -0.226089 0
M  V30 9791 H 935.158 -3.04964 -2.90818 0
M  V30 9792 H 933.882 -1.82287 -2.70996 0
M  V30 9793 H 932.541 -3.42625 -1.30398 0
M  V30 9794 H 932.189 -3.32101 -3.77781 0
M  V30 9795 H 931.889 -4.96073 -3.14937 0
M  V30 9796 H 933.413 -4.60395 -4.01084 0
M  V30 9797 H 934.827 -5.41306 -1.8884 0
M  V30 9798 H 933.224 -5.87084 -1.24309 0
M  V30 9799 H 934.294 -4.84122 -0.274591 0
M  V30 9800 N 935.637 0.236453 -1.55816 0
M  V30 9801 C 936.585 1.31259 -1.92025 0
M  V30 9802 C 937.579 1.49292 -0.800518 0
M  V30 9803 O 938.785 1.50643 -0.985229 0
M  V30 9804 H 935.16 0.439751 -0.610019 0
M  V30 9805 H 937.131 0.979926 -2.81851 0
M  V30 9806 C 935.88 2.65892 -2.24046 0
M  V30 9807 H 935.203 2.5282 -3.09713 0
M  V30 9808 H 936.643 3.40039 -2.53277 0
M  V30 9809 C 935.102 3.19777 -1.0604 0
M  V30 9810 O 935.632 4.00473 -0.313786 0
M  V30 9811 N 933.838 2.77946 -0.848209 0
M  V30 9812 H 933.385 2.12433 -1.45706 0
M  V30 9813 H 933.343 3.14342 -0.0603424 0
M  V30 9814 N 937.115 1.49373 0.502552 0
M  V30 9815 C 938.062 1.65927 1.60427 0
M  V30 9816 C 939.032 0.500768 1.58371 0
M  V30 9817 O 940.217 0.727606 1.76382 0
M  V30 9818 C 937.357 1.73043 2.9858 0
M  V30 9819 C 936.47 3.00187 3.10663 0
M  V30 9820 C 935.605 2.98292 4.3954 0
M  V30 9821 C 934.644 4.20022 4.4525 0
M  V30 9822 N 933.781 4.16046 5.65553 0
M  V30 9823 H 938.621 2.59998 1.45619 0
M  V30 9824 H 936.158 1.28912 0.708519 0
M  V30 9825 H 938.116 1.7515 3.78653 0
M  V30 9826 H 936.746 0.824397 3.12095 0
M  V30 9827 H 935.798 3.07699 2.23663 0
M  V30 9828 H 937.11 3.9018 3.10742 0
M  V30 9829 H 936.264 2.98953 5.27932 0
M  V30 9830 H 935.003 2.06075 4.42023 0
M  V30 9831 H 934.008 4.19607 3.5526 0
M  V30 9832 H 935.233 5.13431 4.44484 0
M  V30 9833 H 933.179 3.26665 5.68881 0
M  V30 9834 H 933.096 4.99773 5.67242 0
M  V30 9835 H 934.364 4.20807 6.56156 0
M  V30 9836 N 938.594 -0.753485 1.38421 0
M  V30 9837 C 939.843 -1.50797 1.33952 0
M  V30 9838 C 940.156 -1.95482 -0.0678464 0
M  V30 9839 O 941.362 -2.7048 -0.235078 0
M  V30 9840 C 939.818 -2.72393 2.35224 0
M  V30 9841 C 939.426 -2.34733 3.81582 0
M  V30 9842 C 941.17 -3.50281 2.39798 0
M  V30 9843 C 939.077 -3.52939 4.7454 0
M  V30 9844 H 938.007 -0.566211 0.497916 0
M  V30 9845 H 940.658 -0.823659 1.63976 0
M  V30 9846 H 939.04 -3.42806 1.98243 0
M  V30 9847 H 940.214 -1.71985 4.27502 0
M  V30 9848 H 938.529 -1.69978 3.80127 0
M  V30 9849 H 941.126 -4.38172 3.06447 0
M  V30 9850 H 941.469 -3.91444 1.41695 0
M  V30 9851 H 942.002 -2.86881 2.75579 0
M  V30 9852 H 938.741 -3.16843 5.73839 0
M  V30 9853 H 938.261 -4.1473 4.33312 0
M  V30 9854 H 939.94 -4.19519 4.92557 0
M  V30 9855 N 940.072 -1.23292 -0.981677 0
M  V30 9856 C 941.005 -0.956198 -2.07201 0
M  V30 9857 C 941.983 0.105027 -1.6226 0
M  V30 9858 O 943.167 -0.0289582 -1.88478 0
M  V30 9859 C 940.294 -0.44029 -3.35826 0
M  V30 9860 C 939.34 -1.48792 -3.99704 0
M  V30 9861 S 940.173 -3.06491 -4.39117 0
M  V30 9862 C 941.329 -2.56567 -5.70898 0
M  V30 9863 H 941.562 -1.87947 -2.30355 0
M  V30 9864 H 939.095 -1.06522 -1.1177 0
M  V30 9865 H 941.053 -0.149237 -4.10229 0
M  V30 9866 H 939.714 0.462045 -3.10683 0
M  V30 9867 H 938.907 -1.07706 -4.92357 0
M  V30 9868 H 938.509 -1.72826 -3.31673 0
M  V30 9869 H 940.801 -1.98508 -6.47766 0
M  V30 9870 H 941.744 -3.47755 -6.16824 0
M  V30 9871 H 942.152 -1.97465 -5.28836 0
M  V30 9872 N 941.55 1.18024 -1.04442 0
M  V30 9873 C 942.961 1.69749 -0.777312 0
M  V30 9874 C 943.312 1.83234 0.701399 0
M  V30 9875 O 942.437 1.51452 1.54568 0
M  V30 9876 C 943.032 3.08321 -1.40441 0
M  V30 9877 C 941.591 3.57243 -1.18553 0
M  V30 9878 C 940.738 2.33695 -1.49271 0
M  V30 9879 H 943.689 1.02647 -1.21035 0
M  V30 9880 H 943.71 3.71787 -0.809628 0
M  V30 9881 H 943.222 2.98474 -2.48062 0
M  V30 9882 H 941.323 3.72379 -0.128221 0
M  V30 9883 H 941.436 4.40451 -1.88519 0
M  V30 9884 H 939.8 2.37792 -0.912526 0
M  V30 9885 H 940.583 2.26464 -2.5801 0
M  V30 9886 O 943.067 0.959562 1.29903 0
M  V30 9887 H 943.758 0.594984 1.84336 0
M  V30 END ATOM
M  V30 BEGIN BOND
M  V30 END BOND
M  V30 END CTAB
M  END
$$$$
