drugbank_target|O15392 Baculoviral IAP repeat-containing protein 5 (DB00206; DB04115; DB05141)
 OpenBabel12092120313D

  0  0  0     0  0            999 V3000
M  V30 BEGIN CTAB
M  V30 COUNTS 2273 2303 0 0 0
M  V30 BEGIN ATOM
M  V30 1 H -0.908 1.98254 -0.117106 0
M  V30 2 N 0 1.576 0 0
M  V30 3 C 0.933 2.03868 1.02534 0
M  V30 4 C 1.911 0.928543 1.3348 0
M  V30 5 O 3.095 1.19667 1.45644 0
M  V30 6 C 0.222 2.43627 2.35294 0
M  V30 7 C -0.732 3.65373 2.2001 0
M  V30 8 S 0.101 5.13292 1.52614 0
M  V30 9 C 1.257 5.56322 2.86805 0
M  V30 10 H 1.49 2.90518 0.631377 0
M  V30 11 H -0.977 1.52953 0.210867 0
M  V30 12 H 0.981 2.67203 3.11629 0
M  V30 13 H -0.358 1.57376 2.7183 0
M  V30 14 H -1.165 3.90944 3.18086 0
M  V30 15 H -1.563 3.418 1.51819 0
M  V30 16 H 0.729 5.58782 3.83104 0
M  V30 17 H 1.672 6.56266 2.65933 0
M  V30 18 H 2.08 4.83886 2.90714 0
M  V30 19 N 1.4781 -0.272755 1.55222 0
M  V30 20 C 2.7261 -1.00234 1.75492 0
M  V30 21 C 3.0471 -1.8681 0.5592 0
M  V30 22 O 2.3171 -1.91215 -0.425882 0
M  V30 23 H 0.8971 -0.373076 0.647166 0
M  V30 24 H 3.5591 -0.296926 1.92625 0
M  V30 25 H 2.6551 -1.63913 2.65592 0
M  V30 26 N 2.9562 -1.48159 -0.537278 0
M  V30 27 C 3.9192 -1.61665 -1.62472 0
M  V30 28 C 4.9192 -0.490395 -1.5314 0
M  V30 29 O 6.1092 -0.755998 -1.5694 0
M  V30 30 C 3.2412 -1.57997 -3.02076 0
M  V30 31 H 4.4342 -2.58621 -1.51839 0
M  V30 32 H 1.9872 -1.36647 -0.758771 0
M  V30 33 H 2.7222 -0.624913 -3.18222 0
M  V30 34 H 2.5072 -2.39755 -3.10258 0
M  V30 35 H 3.9972 -1.70627 -3.81151 0
M  V30 36 N 4.4343 0.785586 -1.36625 0
M  V30 37 C 5.8453 1.36101 -1.27803 0
M  V30 38 C 6.1963 1.96035 0.0804875 0
M  V30 39 O 5.3213 1.92834 0.982042 0
M  V30 40 C 5.9163 2.47442 -2.31426 0
M  V30 41 C 4.4753 3.00789 -2.26281 0
M  V30 42 C 3.6223 1.73896 -2.15999 0
M  V30 43 H 6.5733 0.586928 -1.47448 0
M  V30 44 H 6.5943 3.2656 -1.95291 0
M  V30 45 H 6.1063 2.03791 -3.30289 0
M  V30 46 H 4.2073 3.48851 -1.30896 0
M  V30 47 H 4.3203 3.57343 -3.19128 0
M  V30 48 H 2.6843 1.9628 -1.62316 0
M  V30 49 H 3.4673 1.32368 -3.16755 0
M  V30 50 N 5.9124 1.20967 1.01018 0
M  V30 51 C 7.1404 1.04956 1.78303 0
M  V30 52 C 7.5554 -0.400915 1.84494 0
M  V30 53 O 6.9124 -1.27826 1.30257 0
M  V30 54 C 6.9634 1.63403 3.22462 0
M  V30 55 O 6.6844 3.02775 3.16637 0
M  V30 56 C 8.1854 1.52432 4.16268 0
M  V30 57 H 5.4054 0.368858 0.560522 0
M  V30 58 H 7.9494 1.60193 1.27116 0
M  V30 59 H 6.1044 1.1227 3.70775 0
M  V30 60 H 6.5184 3.30626 4.07169 0
M  V30 61 H 7.9924 1.98078 5.15237 0
M  V30 62 H 8.4694 0.477875 4.36592 0
M  V30 63 H 9.0754 2.02787 3.73841 0
M  V30 64 N 7.3905 -1.2043 1.01659 0
M  V30 65 C 8.3205 -2.25466 0.607226 0
M  V30 66 C 9.3015 -1.65853 -0.377716 0
M  V30 67 O 10.4865 -1.92409 -0.263149 0
M  V30 68 C 7.6165 -3.47256 -0.0552949 0
M  V30 69 C 6.5705 -4.19462 0.850632 0
M  V30 70 C 5.8965 -5.34673 0.0538859 0
M  V30 71 C 7.1965 -4.75603 2.15868 0
M  V30 72 H 8.8905 -2.59962 1.48526 0
M  V30 73 H 6.4365 -1.2496 0.715605 0
M  V30 74 H 8.3895 -4.19917 -0.353233 0
M  V30 75 H 7.1135 -3.11924 -0.968045 0
M  V30 76 H 5.7725 -3.48667 1.13257 0
M  V30 77 H 5.4205 -4.95585 -0.860514 0
M  V30 78 H 5.1205 -5.83913 0.657192 0
M  V30 79 H 6.6445 -6.10138 -0.237598 0
M  V30 80 H 8.0585 -5.40083 1.92311 0
M  V30 81 H 6.4555 -5.3528 2.71284 0
M  V30 82 H 7.5255 -3.94346 2.82169 0
M  V30 83 N 8.8686 -0.792821 -1.36206 0
M  V30 84 C 10.2796 -0.429513 -1.81692 0
M  V30 85 C 10.6306 1.04695 -1.65932 0
M  V30 86 O 9.7556 1.81256 -1.18218 0
M  V30 87 C 10.3506 -0.772831 -3.29868 0
M  V30 88 C 8.9096 -0.462307 -3.7355 0
M  V30 89 C 8.0566 -1.00569 -2.5842 0
M  V30 90 H 11.0076 -0.985672 -1.24379 0
M  V30 91 H 11.0286 -0.0651928 -3.80444 0
M  V30 92 H 10.5406 -1.84747 -3.41307 0
M  V30 93 H 8.6416 0.604158 -3.67669 0
M  V30 94 H 8.7546 -0.985299 -4.68859 0
M  V30 95 H 7.1186 -0.428734 -2.51066 0
M  V30 96 H 7.9016 -2.08616 -2.72643 0
M  V30 97 N 10.3467 1.47872 -0.545128 0
M  V30 98 C 11.7577 1.86384 -0.108581 0
M  V30 99 C 12.1087 1.45309 1.31832 0
M  V30 100 O 11.2337 0.850641 1.9898 0
M  V30 101 C 11.8287 3.38265 -0.190274 0
M  V30 102 C 10.3877 3.75914 0.191164 0
M  V30 103 C 9.5347 2.71926 -0.543273 0
M  V30 104 H 12.4857 1.39561 -0.755537 0
M  V30 105 H 12.5067 3.75831 0.594217 0
M  V30 106 H 12.0187 3.6813 -1.2289 0
M  V30 107 H 10.1197 3.51665 1.23136 0
M  V30 108 H 10.2327 4.78836 -0.158987 0
M  V30 109 H 8.5967 2.54697 0.0122495 0
M  V30 110 H 9.3797 3.04634 -1.58282 0
M  V30 111 N 11.8248 0.280983 1.55075 0
M  V30 112 C 12.7878 -0.590896 2.21452 0
M  V30 113 C 13.7878 -1.07682 1.19421 0
M  V30 114 O 14.9778 -0.97605 1.44288 0
M  V30 115 C 12.1098 -1.81587 2.88511 0
M  V30 116 H 13.3028 -0.0112554 2.99898 0
M  V30 117 H 10.8558 0.0316438 1.56268 0
M  V30 118 H 11.5908 -2.43587 2.14093 0
M  V30 119 H 11.3758 -1.4753 3.63287 0
M  V30 120 H 12.8658 -2.43575 3.39206 0
M  V30 121 N 13.3029 -1.57598 0.00835791 0
M  V30 122 C 14.5489 -1.92046 -0.670055 0
M  V30 123 C 14.9039 -0.88351 -1.70915 0
M  V30 124 O 14.1969 0.103223 -1.91322 0
M  V30 125 C 14.3909 -3.3101 -1.34787 0
M  V30 126 C 14.2199 -4.48126 -0.375945 0
M  V30 127 C 12.9899 -5.05297 0.0166914 0
M  V30 128 C 15.1879 -5.1303 0.361272 0
M  V30 129 N 13.1699 -6.05931 0.985952 0
M  V30 130 C 14.5409 -6.08571 1.18495 0
M  V30 131 C 16.5959 -4.9609 0.42421 0
M  V30 132 C 15.2989 -6.88996 2.06584 0
M  V30 133 C 17.3249 -5.77107 1.29236 0
M  V30 134 C 16.6869 -6.72248 2.10386 0
M  V30 135 H 12.7859 -0.75096 -0.218136 0
M  V30 136 H 15.3699 -1.94572 0.0706669 0
M  V30 137 H 13.5409 -3.29342 -2.05884 0
M  V30 138 H 15.2729 -3.52864 -1.98164 0
M  V30 139 H 12.0279 -4.72279 -0.353435 0
M  V30 140 H 12.4519 -6.60932 1.4662 0
M  V30 141 H 17.0939 -4.22378 -0.188915 0
M  V30 142 H 14.8119 -7.62028 2.6896 0
M  V30 143 H 18.3979 -5.66038 1.34508 0
M  V30 144 H 17.2779 -7.33846 2.76476 0
M  V30 145 N 14.781 0.264519 -1.55364 0
M  V30 146 C 15.713 1.34965 -1.85248 0
M  V30 147 C 16.726 1.45136 -0.737525 0
M  V30 148 O 17.915 1.46801 -1.01547 0
M  V30 149 C 15.015 2.73008 -2.00797 0
M  V30 150 C 14.188 2.85324 -3.31525 0
M  V30 151 C 13.247 4.04097 -3.37034 0
M  V30 152 O 12.273 3.94455 -4.10358 0
M  V30 153 N 13.475 5.16458 -2.65049 0
M  V30 154 H 16.24 1.09672 -2.78913 0
M  V30 155 H 13.801 0.454635 -1.55386 0
M  V30 156 H 15.793 3.50772 -2.01844 0
M  V30 157 H 14.363 2.91087 -1.1396 0
M  V30 158 H 13.583 1.94377 -3.42945 0
M  V30 159 H 14.871 2.9049 -4.17724 0
M  V30 160 H 14.269 5.27181 -2.05175 0
M  V30 161 H 12.826 5.92422 -2.71809 0
M  V30 162 N 16.2591 1.48442 0.529413 0
M  V30 163 C 17.6701 1.5002 1.11134 0
M  V30 164 C 18.0211 0.27031 1.94329 0
M  V30 165 O 17.1461 -0.622507 2.07253 0
M  V30 166 C 17.7411 2.71834 2.02217 0
M  V30 167 C 16.3001 2.76283 2.55627 0
M  V30 168 C 15.4471 2.43542 1.326 0
M  V30 169 H 18.3981 1.5555 0.314641 0
M  V30 170 H 18.4191 2.50384 2.8651 0
M  V30 171 H 17.9311 3.61331 1.41639 0
M  V30 172 H 16.0321 1.90995 3.19924 0
M  V30 173 H 16.1451 3.77725 2.94721 0
M  V30 174 H 14.5091 1.94709 1.64196 0
M  V30 175 H 15.2921 3.3528 0.737734 0
M  V30 176 N 17.7372 -0.778329 1.37039 0
M  V30 177 C 18.9842 -1.53665 1.31884 0
M  V30 178 C 19.3122 -1.9425 -0.0986303 0
M  V30 179 O 18.5672 -1.63832 -1.07041 0
M  V30 180 C 18.8662 -2.81845 2.19768 0
M  V30 181 C 18.5322 -2.60345 3.68146 0
M  V30 182 C 17.1942 -2.5419 4.08584 0
M  V30 183 C 19.5462 -2.40923 4.62175 0
M  V30 184 C 16.8742 -2.26594 5.41177 0
M  V30 185 C 19.2262 -2.14852 5.94997 0
M  V30 186 C 17.8902 -2.07137 6.34547 0
M  V30 187 H 17.1602 -0.562299 0.482598 0
M  V30 188 H 19.8072 -0.897069 1.69189 0
M  V30 189 H 18.1122 -3.50328 1.75436 0
M  V30 190 H 19.8092 -3.39692 2.13097 0
M  V30 191 H 16.3992 -2.65996 3.36072 0
M  V30 192 H 20.5832 -2.44673 4.31797 0
M  V30 193 H 15.8392 -2.19111 5.70789 0
M  V30 194 H 20.0132 -1.98822 6.67415 0
M  V30 195 H 17.6402 -1.85518 7.37216 0
M  V30 196 N 19.2153 -1.21501 -1.00376 0
M  V30 197 C 20.1453 -0.999478 -2.11028 0
M  V30 198 C 21.1263 0.0759671 -1.6993 0
M  V30 199 O 22.3113 -0.0841106 -1.94018 0
M  V30 200 C 19.4413 -0.564709 -3.42678 0
M  V30 201 C 18.3953 -1.58486 -3.97576 0
M  V30 202 C 17.7213 -1.00628 -5.25146 0
M  V30 203 C 19.0213 -2.97204 -4.29496 0
M  V30 204 H 20.7153 -1.92495 -2.29317 0
M  V30 205 H 18.2613 -0.92693 -1.102 0
M  V30 206 H 20.2143 -0.401091 -4.19487 0
M  V30 207 H 18.9383 0.396411 -3.24185 0
M  V30 208 H 17.5973 -1.73606 -3.22888 0
M  V30 209 H 17.2453 -0.0368439 -5.02987 0
M  V30 210 H 16.9453 -1.68771 -5.62841 0
M  V30 211 H 18.4693 -0.854015 -6.04598 0
M  V30 212 H 19.8833 -2.8552 -4.97143 0
M  V30 213 H 18.2803 -3.62372 -4.78338 0
M  V30 214 H 19.3503 -3.47956 -3.3772 0
M  V30 215 N 20.6934 1.19889 -1.02296 0
M  V30 216 C 21.6404 2.22901 -0.598651 0
M  V30 217 C 22.6104 1.61588 0.384521 0
M  V30 218 O 23.7954 1.88697 0.282522 0
M  V30 219 C 20.9354 3.45063 0.0504476 0
M  V30 220 C 20.0484 4.20783 -0.978053 0
M  V30 221 C 19.1834 5.30356 -0.299338 0
M  V30 222 C 18.2224 5.97826 -1.31416 0
M  V30 223 N 17.3594 6.98975 -0.661667 0
M  V30 224 H 22.1994 2.58554 -1.48169 0
M  V30 225 H 19.7364 1.27039 -0.741584 0
M  V30 226 H 21.6944 4.14831 0.443971 0
M  V30 227 H 20.3244 3.10084 0.897097 0
M  V30 228 H 19.3764 3.50018 -1.48969 0
M  V30 229 H 20.6884 4.67109 -1.74958 0
M  V30 230 H 19.8424 6.06516 0.149347 0
M  V30 231 H 18.5814 4.85084 0.504445 0
M  V30 232 H 17.5864 5.20422 -1.77317 0
M  V30 233 H 18.8114 6.45183 -2.11933 0
M  V30 234 H 16.7574 6.55886 0.122132 0
M  V30 235 H 16.6744 7.43461 -1.37117 0
M  V30 236 H 17.9424 7.7914 -0.236785 0
M  V30 237 N 22.1715 0.800033 1.35784 0
M  V30 238 C 23.4485 0.30088 1.93272 0
M  V30 239 C 23.8285 -1.20857 1.73081 0
M  V30 240 O 23.1765 -2.00502 1.09596 0
M  V30 241 C 23.3865 0.70511 3.41803 0
M  V30 242 C 24.7345 0.690871 4.18942 0
M  V30 243 O 25.7585 0.646244 3.50289 0
M  V30 244 O 24.6175 0.74332 5.41421 0
M  V30 245 H 21.7115 0.0771605 0.823393 0
M  V30 246 H 24.2575 0.88329 1.449 0
M  V30 247 H 23.0295 1.74571 3.50201 0
M  V30 248 H 22.6525 0.0971541 3.97481 0
M  V30 249 N 23.6496 -1.47581 0.552962 0
M  V30 250 C 24.5996 -2.26961 -0.217423 0
M  V30 251 C 25.5836 -1.34099 -0.889168 0
M  V30 252 O 26.7756 -1.58483 -0.788176 0
M  V30 253 C 23.9046 -3.19756 -1.24944 0
M  V30 254 C 22.9906 -4.20097 -0.581327 0
M  V30 255 N 23.3816 -5.04614 0.346171 0
M  V30 256 C 21.6796 -4.38099 -0.835767 0
M  V30 257 C 22.3806 -5.77052 0.733854 0
M  V30 258 N 21.3566 -5.43526 0.0896567 0
M  V30 259 H 25.1586 -2.89688 0.495761 0
M  V30 260 H 22.6726 -1.58068 0.372597 0
M  V30 261 H 24.6696 -3.75305 -1.81527 0
M  V30 262 H 23.3296 -2.58585 -1.96376 0
M  V30 263 H 24.3406 -5.12869 0.720098 0
M  V30 264 H 21.0176 -3.88102 -1.53892 0
M  V30 265 H 22.4076 -6.5504 1.49574 0
M  V30 266 N 25.1277 -0.289203 -1.54924 0
M  V30 267 C 26.5437 0.0645403 -1.59469 0
M  V30 268 C 26.7437 1.53419 -1.30632 0
M  V30 269 O 25.7997 2.2852 -1.074 0
M  V30 270 C 27.1127 -0.32278 -2.98963 0
M  V30 271 C 28.6607 -0.270564 -3.11828 0
M  V30 272 C 29.1357 -0.632532 -4.53611 0
M  V30 273 N 30.6267 -0.584617 -4.59496 0
M  V30 274 C 31.3617 -0.837314 -5.67254 0
M  V30 275 N 30.8577 -1.15536 -6.83098 0
M  V30 276 N 32.6507 -0.765166 -5.56868 0
M  V30 277 H 24.8017 -1.24714 -1.71931 0
M  V30 278 H 27.0647 -0.504809 -0.802416 0
M  V30 279 H 26.7707 -1.34541 -3.24948 0
M  V30 280 H 26.6447 0.32944 -3.75759 0
M  V30 281 H 29.0317 0.742805 -2.85598 0
M  V30 282 H 29.1127 -0.957242 -2.37214 0
M  V30 283 H 28.7567 -1.64365 -4.80569 0
M  V30 284 H 28.6867 0.07609 -5.26545 0
M  V30 285 H 31.1777 -0.349248 -3.76283 0
M  V30 286 H 31.4907 -1.33447 -7.61191 0
M  V30 287 H 29.8357 -1.19328 -6.84679 0
M  V30 288 H 33.0267 -0.516432 -4.65243 0
M  V30 289 H 33.1997 -0.965477 -6.40767 0
M  V30 290 N 26.6058 1.57591 -0.0167156 0
M  V30 291 C 27.8548 1.90461 0.663877 0
M  V30 292 C 28.1678 0.893515 1.73999 0
M  V30 293 O 29.3738 1.11302 2.47637 0
M  V30 294 C 27.8298 3.38155 1.23204 0
M  V30 295 C 27.4378 4.47597 0.189866 0
M  V30 296 C 29.1818 3.80111 1.88986 0
M  V30 297 C 27.0888 5.86379 0.768964 0
M  V30 298 H 26.0188 0.710738 0.251729 0
M  V30 299 H 28.6698 1.83326 -0.0799926 0
M  V30 300 H 27.0518 3.40182 2.02712 0
M  V30 301 H 28.2258 4.57112 -0.581846 0
M  V30 302 H 26.5408 4.14766 -0.368475 0
M  V30 303 H 29.1378 4.81145 2.33247 0
M  V30 304 H 29.4808 3.14511 2.72743 0
M  V30 305 H 30.0138 3.80454 1.16187 0
M  V30 306 H 26.7528 6.55493 -0.0301957 0
M  V30 307 H 26.2728 5.80496 1.50945 0
M  V30 308 H 27.9518 6.34563 1.26251 0
M  V30 309 N 28.0839 -0.256276 1.55502 0
M  V30 310 C 29.3089 -1.00766 1.81276 0
M  V30 311 C 29.7339 -1.78524 0.59252 0
M  V30 312 O 29.0919 -1.75413 -0.45827 0
M  V30 313 C 29.1399 -1.92869 3.04687 0
M  V30 314 O 28.2439 -3.019 2.80945 0
M  V30 315 H 27.5849 -0.287224 0.598664 0
M  V30 316 H 30.1149 -0.280109 2.02674 0
M  V30 317 H 30.1249 -2.34511 3.33869 0
M  V30 318 H 28.7999 -1.35689 3.93143 0
M  V30 319 H 27.3769 -2.64454 2.62904 0
M  V30 320 N 29.562 -1.4872 -0.521534 0
M  V30 321 C 30.79 -1.60843 -1.30142 0
M  V30 322 C 31.205 -0.271897 -1.86832 0
M  V30 323 O 30.562 0.739969 -1.66825 0
M  V30 324 C 30.613 -2.66155 -2.4463 0
M  V30 325 O 30.334 -3.94623 -1.90275 0
M  V30 326 C 31.835 -2.88795 -3.36322 0
M  V30 327 H 29.055 -0.542075 -0.395468 0
M  V30 328 H 31.599 -1.94609 -0.628285 0
M  V30 329 H 29.754 -2.35224 -3.07812 0
M  V30 330 H 30.168 -4.52468 -2.65279 0
M  V30 331 H 31.642 -3.66264 -4.12983 0
M  V30 332 H 32.119 -1.97934 -3.9207 0
M  V30 333 H 32.725 -3.21063 -2.78924 0
M  V30 334 N 31.0401 0.771051 -1.3745 0
M  V30 335 C 32.2871 1.52963 -1.32697 0
M  V30 336 C 32.6151 1.94299 0.0883274 0
M  V30 337 O 31.8701 1.64397 1.0617 0
M  V30 338 C 32.1691 2.80676 -2.2126 0
M  V30 339 C 31.8351 2.58389 -3.69521 0
M  V30 340 C 30.4971 2.52019 -4.09927 0
M  V30 341 C 32.8491 2.38469 -4.63446 0
M  V30 342 C 30.1771 2.23721 -5.42371 0
M  V30 343 C 32.5291 2.11694 -5.96128 0
M  V30 344 C 31.1931 2.03769 -6.35637 0
M  V30 345 H 30.4631 0.559732 -0.485573 0
M  V30 346 H 33.1101 0.888083 -1.69662 0
M  V30 347 H 31.4151 3.49392 -1.77291 0
M  V30 348 H 33.1121 3.38557 -2.14895 0
M  V30 349 H 29.7021 2.6421 -3.37478 0
M  V30 350 H 33.8861 2.4238 -4.33089 0
M  V30 351 H 29.1421 2.16081 -5.71943 0
M  V30 352 H 33.3161 1.9528 -6.6846 0
M  V30 353 H 30.9431 1.81606 -7.38189 0
M  V30 354 N 32.5182 1.22032 0.997298 0
M  V30 355 C 33.4652 0.986467 2.08656 0
M  V30 356 C 34.4352 -0.0902671 1.65855 0
M  V30 357 O 35.6202 0.0584294 1.90711 0
M  V30 358 C 32.7602 0.565569 3.40434 0
M  V30 359 C 31.8732 1.71259 3.96604 0
M  V30 360 C 31.0082 1.24011 5.16522 0
M  V30 361 C 30.0472 2.35896 5.64818 0
M  V30 362 N 29.1842 1.89726 6.7598 0
M  V30 363 H 34.0242 1.91892 2.27994 0
M  V30 364 H 31.5612 0.956199 1.11782 0
M  V30 365 H 33.5192 0.302738 4.161 0
M  V30 366 H 32.1492 -0.329879 3.2111 0
M  V30 367 H 31.2012 2.08986 3.17851 0
M  V30 368 H 32.5132 2.55436 4.28432 0
M  V30 369 H 31.6672 0.934395 5.99461 0
M  V30 370 H 30.4062 0.368487 4.86306 0
M  V30 371 H 29.4112 2.67261 4.8047 0
M  V30 372 H 30.6362 3.23567 5.97061 0
M  V30 373 H 28.5822 1.0492 6.47555 0
M  V30 374 H 28.4992 2.67471 7.07103 0
M  V30 375 H 29.7672 1.62211 7.62435 0
M  V30 376 N 33.9963 -1.19345 1.0293 0
M  V30 377 C 34.9443 -2.24621 0.604001 0
M  V30 378 C 35.9383 -1.65452 -0.363587 0
M  V30 379 O 37.1443 -1.78497 -0.23212 0
M  V30 380 H 33.5193 -0.730858 0.177061 0
M  V30 381 H 35.4903 -2.5781 1.50255 0
M  V30 382 C 34.2393 -3.47688 -0.0289127 0
M  V30 383 H 33.5623 -3.93505 0.706651 0
M  V30 384 H 35.0023 -4.23011 -0.289432 0
M  V30 385 C 33.4613 -3.11817 -1.2756 0
M  V30 386 O 33.9913 -3.2451 -2.36762 0
M  V30 387 N 32.1973 -2.66246 -1.16453 0
M  V30 388 H 31.7443 -2.56118 -0.275914 0
M  V30 389 H 31.7023 -2.42617 -1.99961 0
M  V30 390 N 35.4744 -0.807222 -1.35358 0
M  V30 391 C 36.7204 -0.397594 -1.99476 0
M  V30 392 C 37.0754 1.02405 -1.62883 0
M  V30 393 O 36.3684 1.70077 -0.882282 0
M  V30 394 C 36.5624 -0.519036 -3.53611 0
M  V30 395 C 36.3914 -1.95094 -4.05177 0
M  V30 396 C 35.1614 -2.57945 -4.34503 0
M  V30 397 C 37.3594 -2.91558 -4.23673 0
M  V30 398 N 35.3414 -3.92539 -4.72003 0
M  V30 399 C 36.7124 -4.11024 -4.64176 0
M  V30 400 C 38.7674 -2.88381 -4.05883 0
M  V30 401 C 37.4704 -5.27745 -4.88751 0
M  V30 402 C 39.4964 -4.04306 -4.31614 0
M  V30 403 C 38.8584 -5.22519 -4.72391 0
M  V30 404 H 34.9574 -0.193274 -0.75774 0
M  V30 405 H 37.5414 -1.0486 -1.6405 0
M  V30 406 H 35.7124 0.101979 -3.88266 0
M  V30 407 H 37.4444 -0.0839321 -4.04613 0
M  V30 408 H 34.1994 -2.09295 -4.24844 0
M  V30 409 H 34.6234 -4.61836 -4.95011 0
M  V30 410 H 39.2654 -1.98137 -3.73499 0
M  V30 411 H 36.9834 -6.1856 -5.20008 0
M  V30 412 H 40.5694 -4.03229 -4.19402 0
M  V30 413 H 39.4494 -6.1073 -4.91913 0
M  V30 414 N 36.9525 1.47285 -0.560781 0
M  V30 415 C 38.3635 1.86258 -0.128343 0
M  V30 416 C 38.7145 1.46699 1.30284 0
M  V30 417 O 37.8395 0.871698 1.98067 0
M  V30 418 C 38.4345 3.38044 -0.22614 0
M  V30 419 C 36.9935 3.76096 0.151283 0
M  V30 420 C 36.1405 2.71335 -0.572084 0
M  V30 421 H 39.0915 1.38752 -0.770297 0
M  V30 422 H 39.1125 3.76441 0.554322 0
M  V30 423 H 38.6245 3.66806 -1.26788 0
M  V30 424 H 36.7255 3.52951 1.19399 0
M  V30 425 H 36.8385 4.78641 -0.209765 0
M  V30 426 H 35.2025 2.54696 -0.0147653 0
M  V30 427 H 35.9855 3.02938 -1.61504 0
M  V30 428 N 38.4306 0.297415 1.54768 0
M  V30 429 C 39.6776 -0.312913 2.00068 0
M  V30 430 C 40.0056 -1.54171 1.18582 0
M  V30 431 O 39.2606 -1.94108 0.249133 0
M  V30 432 C 39.5596 -0.717561 3.50123 0
M  V30 433 C 39.2256 0.409095 4.4904 0
M  V30 434 C 37.8876 0.718399 4.75807 0
M  V30 435 C 40.2396 1.16717 5.07963 0
M  V30 436 C 37.5676 1.78896 5.5876 0
M  V30 437 C 39.9196 2.22762 5.92081 0
M  V30 438 C 38.5836 2.54303 6.1716 0
M  V30 439 H 37.8536 -0.114503 0.7321 0
M  V30 440 H 40.5006 0.415767 1.86932 0
M  V30 441 H 38.8056 -1.52627 3.60849 0
M  V30 442 H 40.5026 -1.20091 3.82595 0
M  V30 443 H 37.0926 0.157918 4.28309 0
M  V30 444 H 41.2766 0.941466 4.87289 0
M  V30 445 H 36.5326 2.0381 5.7643 0
M  V30 446 H 40.7066 2.81962 6.36765 0
M  V30 447 H 38.3336 3.3739 6.81229 0
M  V30 448 N 39.9087 -1.5758 0.0250728 0
M  V30 449 C 40.8387 -2.13007 -0.956575 0
M  V30 450 C 41.8197 -1.0452 -1.342 0
M  V30 451 O 43.0047 -1.32332 -1.42133 0
M  V30 452 C 40.1347 -2.65386 -2.24026 0
M  V30 453 C 39.0887 -3.78623 -1.99571 0
M  V30 454 C 38.4147 -4.17414 -3.3417 0
M  V30 455 C 39.7147 -5.04867 -1.33814 0
M  V30 456 H 41.4087 -2.9528 -0.494991 0
M  V30 457 H 38.9547 -1.42042 -0.236651 0
M  V30 458 H 40.9077 -3.02794 -2.93076 0
M  V30 459 H 39.6317 -1.80268 -2.72343 0
M  V30 460 H 38.2907 -3.41646 -1.32941 0
M  V30 461 H 37.9387 -3.29284 -3.80238 0
M  V30 462 H 37.6387 -4.93719 -3.18615 0
M  V30 463 H 39.1627 -4.57402 -4.04495 0
M  V30 464 H 40.5767 -5.39888 -1.92857 0
M  V30 465 H 38.9737 -5.86144 -1.28669 0
M  V30 466 H 40.0437 -4.83904 -0.310561 0
M  V30 467 N 41.3868 0.248026 -1.55636 0
M  V30 468 C 42.2968 1.32859 -1.93354 0
M  V30 469 C 43.3128 1.52719 -0.833838 0
M  V30 470 O 44.4888 1.66363 -1.13513 0
M  V30 471 C 41.5538 2.66337 -2.21958 0
M  V30 472 C 40.6148 2.55008 -3.45354 0
M  V30 473 C 39.8478 3.82121 -3.72584 0
M  V30 474 O 40.0708 4.83951 -3.01907 0
M  V30 475 O 39.0048 3.80822 -4.6611 0
M  V30 476 H 42.8308 1.03862 -2.85388 0
M  V30 477 H 40.4158 0.448686 -1.42503 0
M  V30 478 H 42.2978 3.45216 -2.4167 0
M  V30 479 H 40.9728 2.95068 -1.33103 0
M  V30 480 H 39.8798 1.7442 -3.30951 0
M  V30 481 H 41.2128 2.31222 -4.34508 0
M  V30 482 N 42.8649 1.48995 0.513639 0
M  V30 483 C 44.1129 1.57531 1.26604 0
M  V30 484 C 44.4339 0.258236 1.93283 0
M  V30 485 O 43.7039 -0.721502 1.8213 0
M  V30 486 H 42.2839 0.580387 0.470276 0
M  V30 487 H 44.9459 1.85552 0.596373 0
M  V30 488 H 44.0419 2.36486 2.03669 0
M  V30 489 N 44.343 -0.763751 1.37857 0
M  V30 490 C 45.583 -1.53551 1.34913 0
M  V30 491 C 45.947 -1.91895 -0.0635882 0
M  V30 492 O 47.148 -2.67916 -0.217825 0
M  V30 493 C 45.419 -2.76126 2.26912 0
M  V30 494 S 46.978 -3.66105 2.41893 0
M  V30 495 H 43.796 -0.52559 0.478828 0
M  V30 496 H 46.398 -0.897435 1.73685 0
M  V30 497 H 45.102 -2.4605 3.28463 0
M  V30 498 H 44.633 -3.44887 1.89253 0
M  V30 499 H 46.648 -4.68473 1.63545 0
M  V30 500 N 45.8211 -1.22559 -0.990812 0
M  V30 501 C 46.7841 -0.998863 -2.0629 0
M  V30 502 C 47.7841 0.0354834 -1.60761 0
M  V30 503 O 48.9741 -0.203231 -1.7301 0
M  V30 504 C 46.1061 -0.509203 -3.37076 0
M  V30 505 H 47.2991 -1.95014 -2.27837 0
M  V30 506 H 44.8521 -1.04456 -1.16269 0
M  V30 507 H 45.5871 0.446335 -3.21214 0
M  V30 508 H 45.3721 -1.25547 -3.71457 0
M  V30 509 H 46.8621 -0.370888 -4.1595 0
M  V30 510 N 47.2992 1.18797 -1.03562 0
M  V30 511 C 48.5392 1.90346 -0.744832 0
M  V30 512 C 48.9032 1.78231 0.713972 0
M  V30 513 O 50.1042 2.44441 1.11813 0
M  V30 514 C 48.3752 3.36942 -1.19184 0
M  V30 515 S 49.9342 4.26638 -1.02593 0
M  V30 516 H 46.7522 0.657343 -0.270963 0
M  V30 517 H 49.3542 1.43579 -1.32685 0
M  V30 518 H 48.0582 3.43287 -2.24905 0
M  V30 519 H 47.5892 3.88745 -0.603397 0
M  V30 520 H 49.6042 4.96164 0.0596033 0
M  V30 521 N 48.7773 0.814389 1.34928 0
M  V30 522 C 50.0053 0.411136 2.02774 0
M  V30 523 C 50.4203 -0.980316 1.61354 0
M  V30 524 O 49.7773 -1.63299 0.814847 0
M  V30 525 C 49.8283 0.493865 3.58111 0
M  V30 526 O 49.5493 1.83047 3.98027 0
M  V30 527 C 51.0503 0.0844174 4.4322 0
M  V30 528 H 48.2703 0.166037 0.650133 0
M  V30 529 H 50.8143 1.10018 1.72384 0
M  V30 530 H 48.9693 -0.147006 3.87121 0
M  V30 531 H 49.3833 1.79872 4.92693 0
M  V30 532 H 50.8573 0.193404 5.51661 0
M  V30 533 H 51.3343 -0.97113 4.28329 0
M  V30 534 H 51.9403 0.69875 4.19521 0
M  V30 535 N 50.2554 -1.46986 0.568584 0
M  V30 536 C 51.6664 -1.86188 0.138219 0
M  V30 537 C 52.0174 -1.47388 -1.29504 0
M  V30 538 O 51.1424 -0.88219 -1.97602 0
M  V30 539 C 51.7374 -3.3792 0.244065 0
M  V30 540 C 50.2964 -3.76171 -0.131335 0
M  V30 541 C 49.4434 -2.71027 0.586465 0
M  V30 542 H 52.3944 -1.38342 0.777645 0
M  V30 543 H 52.4154 -3.76729 -0.534351 0
M  V30 544 H 51.9274 -3.66128 1.28731 0
M  V30 545 H 50.0284 -3.5358 -1.17526 0
M  V30 546 H 50.1414 -4.78523 0.235146 0
M  V30 547 H 48.5054 -2.54684 0.0282722 0
M  V30 548 H 49.2884 -3.02077 1.63109 0
M  V30 549 N 51.7335 -0.305618 -1.54608 0
M  V30 550 C 52.6435 0.57778 -2.27374 0
M  V30 551 C 53.6595 1.14451 -1.31061 0
M  V30 552 O 54.8355 1.16831 -1.6405 0
M  V30 553 C 51.9005 1.73123 -3.00382 0
M  V30 554 C 50.9615 1.19812 -4.12242 0
M  V30 555 C 50.1945 2.2966 -4.81759 0
M  V30 556 O 50.4175 3.49651 -4.50666 0
M  V30 557 O 49.3515 1.96091 -5.69062 0
M  V30 558 H 53.1775 -0.012624 -3.03697 0
M  V30 559 H 50.7625 -0.0719184 -1.49227 0
M  V30 560 H 52.6445 2.40315 -3.4616 0
M  V30 561 H 51.3195 2.30815 -2.26949 0
M  V30 562 H 50.2265 0.491798 -3.70853 0
M  V30 563 H 51.5595 0.666566 -4.87666 0
M  V30 564 N 53.2116 1.57565 -0.0334293 0
M  V30 565 C 54.6276 1.56297 0.322997 0
M  V30 566 C 54.8276 1.03945 1.7262 0
M  V30 567 O 53.8836 0.688109 2.42943 0
M  V30 568 C 55.1966 3.00232 0.167664 0
M  V30 569 C 56.7446 3.12078 0.240107 0
M  V30 570 C 57.2196 4.57859 0.113513 0
M  V30 571 N 58.7106 4.62887 0.170359 0
M  V30 572 C 59.4456 5.73319 0.0962517 0
M  V30 573 N 58.9416 6.92794 -0.0291881 0
M  V30 574 N 60.7346 5.61898 0.150551 0
M  V30 575 H 52.8856 1.89923 -0.950956 0
M  V30 576 H 55.1486 0.873824 -0.367608 0
M  V30 577 H 54.8546 3.42501 -0.799102 0
M  V30 578 H 54.7286 3.654 0.936083 0
M  V30 579 H 57.1156 2.69718 1.19733 0
M  V30 580 H 57.1966 2.49623 -0.558763 0
M  V30 581 H 56.8406 5.009 -0.840314 0
M  V30 582 H 56.7706 5.18299 0.931302 0
M  V30 583 H 59.2616 3.76954 0.26728 0
M  V30 584 H 59.5746 7.7276 -0.0789252 0
M  V30 585 H 57.9196 6.94971 -0.0640299 0
M  V30 586 H 61.1106 4.67448 0.246981 0
M  V30 587 H 61.2836 6.47938 0.0893365 0
M  V30 588 N 54.6897 -0.239769 1.55765 0
M  V30 589 C 55.6227 -1.32356 1.85895 0
M  V30 590 C 56.6007 -1.46053 0.714662 0
M  V30 591 O 57.7847 -1.62154 0.961157 0
M  V30 592 C 54.9117 -2.6962 2.04994 0
M  V30 593 C 53.9577 -2.73036 3.27648 0
M  V30 594 S 54.7907 -2.28929 4.84099 0
M  V30 595 C 55.9467 -3.68103 5.06212 0
M  V30 596 H 56.1797 -1.06601 2.77531 0
M  V30 597 H 53.7127 -0.441112 1.47965 0
M  V30 598 H 55.6707 -3.48653 2.16682 0
M  V30 599 H 54.3317 -2.92609 1.14188 0
M  V30 600 H 53.5247 -3.7386 3.38 0
M  V30 601 H 53.1267 -2.02052 3.14723 0
M  V30 602 H 55.4187 -4.63656 4.93993 0
M  V30 603 H 56.3617 -3.6268 6.08168 0
M  V30 604 H 56.7697 -3.60947 4.34025 0
M  V30 605 N 56.1678 -1.49265 -0.50573 0
M  V30 606 C 57.1308 -1.65075 -1.59006 0
M  V30 607 C 58.1308 -0.522768 -1.52065 0
M  V30 608 O 59.3208 -0.789117 -1.55302 0
M  V30 609 C 56.4528 -1.64369 -2.98656 0
M  V30 610 H 57.6458 -2.61784 -1.46319 0
M  V30 611 H 55.1988 -1.38226 -0.729616 0
M  V30 612 H 55.9338 -0.692272 -3.16825 0
M  V30 613 H 55.7188 -2.46282 -3.05103 0
M  V30 614 H 57.2088 -1.78674 -3.77446 0
M  V30 615 N 57.6459 0.756429 -1.3826 0
M  V30 616 C 58.5559 1.9009 -1.37488 0
M  V30 617 C 59.5719 1.71855 -0.272366 0
M  V30 618 O 60.7479 1.94827 -0.510318 0
M  V30 619 C 57.8129 3.25421 -1.19592 0
M  V30 620 C 56.8739 3.56202 -2.39622 0
M  V30 621 C 56.1069 4.85075 -2.2257 0
M  V30 622 O 56.3299 5.57246 -1.21793 0
M  V30 623 O 55.2639 5.15269 -3.11098 0
M  V30 624 H 59.0899 1.93695 -2.33914 0
M  V30 625 H 56.6749 0.901313 -1.1915 0
M  V30 626 H 58.5569 4.06337 -1.11661 0
M  V30 627 H 57.2319 3.22634 -0.262486 0
M  V30 628 H 56.1389 2.75458 -2.53128 0
M  V30 629 H 57.4719 3.63747 -3.31586 0
M  V30 630 N 59.124 1.23083 0.984299 0
M  V30 631 C 60.087 1.00979 2.05757 0
M  V30 632 C 61.087 -0.0269573 1.60777 0
M  V30 633 O 62.277 0.212403 1.729 0
M  V30 634 C 59.409 0.527072 3.36801 0
M  V30 635 H 60.602 1.9622 2.26799 0
M  V30 636 H 58.155 1.05072 1.15714 0
M  V30 637 H 58.89 -0.429294 3.21446 0
M  V30 638 H 58.675 1.27515 3.70786 0
M  V30 639 H 60.165 0.392942 4.15747 0
M  V30 640 N 60.6021 -1.18246 1.0419 0
M  V30 641 C 61.8501 -1.87886 0.744543 0
M  V30 642 C 62.1711 -1.8082 -0.730006 0
M  V30 643 O 61.4411 -1.22736 -1.52685 0
M  V30 644 H 60.0211 -0.695556 0.272417 0
M  V30 645 H 62.6831 -1.43494 1.31892 0
M  V30 646 H 61.7791 -2.9389 1.05049 0
M  V30 647 N 62.0802 -0.821533 -1.34494 0
M  V30 648 C 63.3272 -0.408946 -1.98328 0
M  V30 649 C 63.6552 1.02764 -1.65136 0
M  V30 650 O 62.9102 1.73026 -0.914349 0
M  V30 651 C 63.2092 -0.556512 -3.53041 0
M  V30 652 C 62.8752 -1.95861 -4.0614 0
M  V30 653 C 61.5372 -2.34217 -4.20352 0
M  V30 654 C 63.8892 -2.87523 -4.34718 0
M  V30 655 C 61.2172 -3.63572 -4.6047 0
M  V30 656 C 63.5692 -4.1634 -4.76281 0
M  V30 657 C 62.2332 -4.54675 -4.88699 0
M  V30 658 H 61.5032 -0.149644 -0.725732 0
M  V30 659 H 64.1502 -1.04521 -1.6046 0
M  V30 660 H 62.4552 0.163148 -3.9146 0
M  V30 661 H 64.1522 -0.217826 -4.00408 0
M  V30 662 H 60.7422 -1.65066 -3.95539 0
M  V30 663 H 64.9262 -2.59133 -4.23277 0
M  V30 664 H 60.1822 -3.93101 -4.68275 0
M  V30 665 H 64.3562 -4.87455 -4.97354 0
M  V30 666 H 61.9832 -5.54959 -5.19542 0
M  V30 667 N 63.5583 1.46682 -0.576371 0
M  V30 668 C 64.8073 2.01619 -0.0572825 0
M  V30 669 C 65.1203 1.45417 1.30818 0
M  V30 670 O 66.3263 1.92133 1.91825 0
M  V30 671 C 64.7823 3.59863 -0.0518371 0
M  V30 672 C 64.3903 4.25059 -1.41523 0
M  V30 673 C 66.1343 4.2248 0.413639 0
M  V30 674 C 64.0413 5.75364 -1.36785 0
M  V30 675 H 62.9713 0.753794 -0.0176448 0
M  V30 676 H 65.6223 1.68481 -0.727076 0
M  V30 677 H 64.0043 3.90048 0.683994 0
M  V30 678 H 65.1783 4.06491 -2.17029 0
M  V30 679 H 63.4933 3.7451 -1.8202 0
M  V30 680 H 66.0903 5.3265 0.467779 0
M  V30 681 H 66.4333 3.90976 1.42982 0
M  V30 682 H 66.9663 3.96897 -0.267929 0
M  V30 683 H 63.7053 6.11518 -2.36063 0
M  V30 684 H 63.2253 5.96214 -0.654895 0
M  V30 685 H 64.9043 6.37955 -1.07805 0
M  V30 686 N 65.0364 0.313813 1.54444 0
M  V30 687 C 65.9864 -0.571898 2.20711 0
M  V30 688 C 66.9704 -1.08913 1.18435 0
M  V30 689 O 68.1624 -1.02777 1.44104 0
M  V30 690 C 65.2914 -1.7371 2.96108 0
M  V30 691 C 64.3774 -1.23522 4.05713 0
M  V30 692 N 64.7684 -0.452288 5.03774 0
M  V30 693 C 63.0664 -1.51482 4.19487 0
M  V30 694 C 63.7674 -0.183438 5.81411 0
M  V30 695 N 62.7434 -0.766845 5.38164 0
M  V30 696 H 66.5454 0.0336802 2.93881 0
M  V30 697 H 64.0594 0.119192 1.61962 0
M  V30 698 H 66.0564 -2.38329 3.4206 0
M  V30 699 H 64.7164 -2.34625 2.24458 0
M  V30 700 H 65.7274 -0.0960131 5.17811 0
M  V30 701 H 62.4044 -2.13053 3.59047 0
M  V30 702 H 63.7944 0.446216 6.70417 0
M  V30 703 N 66.5145 -1.57545 0.0417849 0
M  V30 704 C 67.7545 -1.94185 -0.63809 0
M  V30 705 C 68.1185 -0.919339 -1.68559 0
M  V30 706 O 69.3195 -1.17236 -2.41886 0
M  V30 707 C 67.5905 -3.35672 -1.22714 0
M  V30 708 S 69.1495 -3.94256 -1.92633 0
M  V30 709 H 65.9675 -0.679353 -0.209764 0
M  V30 710 H 68.5695 -1.95199 0.108479 0
M  V30 711 H 67.2735 -4.07898 -0.452503 0
M  V30 712 H 66.8045 -3.38132 -2.01073 0
M  V30 713 H 68.8195 -3.7872 -3.20602 0
M  V30 714 N 67.9926 0.231505 -1.5589 0
M  V30 715 C 69.4036 0.799327 -1.68724 0
M  V30 716 C 69.7546 1.85398 -0.642022 0
M  V30 717 O 68.8796 2.1539 0.208784 0
M  V30 718 C 69.4746 1.45664 -3.05888 0
M  V30 719 C 68.0336 1.97197 -3.20609 0
M  V30 720 C 67.1806 0.828552 -2.64632 0
M  V30 721 H 70.1316 0.00702616 -1.58698 0
M  V30 722 H 70.1526 2.32517 -3.01191 0
M  V30 723 H 69.6646 0.688808 -3.81939 0
M  V30 724 H 67.7656 2.76813 -2.4941 0
M  V30 725 H 67.8786 2.15878 -4.27707 0
M  V30 726 H 66.2426 1.23321 -2.22854 0
M  V30 727 H 67.0256 0.0735544 -3.43221 0
M  V30 728 N 69.4707 1.49531 0.497807 0
M  V30 729 C 70.6987 1.62893 1.27567 0
M  V30 730 C 71.1137 0.301585 1.86376 0
M  V30 731 O 70.4707 -0.713335 1.67982 0
M  V30 732 C 70.5217 2.70013 2.40364 0
M  V30 733 O 70.2427 3.976 1.83972 0
M  V30 734 C 71.7437 2.94109 3.31685 0
M  V30 735 H 68.9637 0.548298 0.386794 0
M  V30 736 H 71.5077 1.95584 0.597245 0
M  V30 737 H 69.6627 2.40092 3.04031 0
M  V30 738 H 70.0767 4.56631 2.58047 0
M  V30 739 H 71.5507 3.72788 4.07104 0
M  V30 740 H 72.0277 2.04147 3.88871 0
M  V30 741 H 72.6337 3.2546 2.73781 0
M  V30 742 N 70.9488 -0.749086 1.3866 0
M  V30 743 C 71.8588 -1.89358 1.38494 0
M  V30 744 C 72.8748 -1.71708 0.281476 0
M  V30 745 O 74.0508 -1.94554 0.520643 0
M  V30 746 C 71.1158 -3.24782 1.21316 0
M  V30 747 C 70.1768 -3.54926 2.41508 0
M  V30 748 C 69.4098 -4.83888 2.2514 0
M  V30 749 O 69.6328 -5.56592 1.24746 0
M  V30 750 O 68.5668 -5.13612 3.13826 0
M  V30 751 H 72.3928 -1.92452 2.34938 0
M  V30 752 H 69.9778 -0.894981 1.19626 0
M  V30 753 H 71.8598 -4.05739 1.13814 0
M  V30 754 H 70.5348 -3.2249 0.279592 0
M  V30 755 H 69.4418 -2.74112 2.54585 0
M  V30 756 H 70.7748 -3.61983 3.3351 0
M  V30 757 N 72.4269 -1.23603 -0.977757 0
M  V30 758 C 73.3749 -1.01704 -2.09187 0
M  V30 759 C 74.3689 0.0448214 -1.69341 0
M  V30 760 O 75.5749 -0.108902 -1.7967 0
M  V30 761 H 71.9499 -0.311803 -0.684312 0
M  V30 762 H 73.9209 -1.96207 -2.24823 0
M  V30 763 C 72.6699 -0.627746 -3.41986 0
M  V30 764 H 71.9929 -1.43656 -3.73099 0
M  V30 765 H 73.4329 -0.514053 -4.20872 0
M  V30 766 C 71.8919 0.664238 -3.30287 0
M  V30 767 O 72.4219 1.71268 -3.6336 0
M  V30 768 N 70.6279 0.641156 -2.83439 0
M  V30 769 H 70.1749 -0.212376 -2.56723 0
M  V30 770 H 70.1329 1.50583 -2.75993 0
M  V30 771 N 73.905 1.17692 -1.04816 0
M  V30 772 C 74.815 2.25229 -0.65643 0
M  V30 773 C 75.831 1.71018 0.320761 0
M  V30 774 O 77.007 2.00649 0.173805 0
M  V30 775 C 74.072 3.46684 -0.0332629 0
M  V30 776 C 73.133 4.15997 -1.06042 0
M  V30 777 C 72.366 5.31654 -0.466893 0
M  V30 778 O 72.589 5.65777 0.724758 0
M  V30 779 O 71.523 5.89831 -1.1993 0
M  V30 780 H 75.349 2.61016 -1.55255 0
M  V30 781 H 72.934 1.24919 -0.81949 0
M  V30 782 H 74.816 4.20234 0.313256 0
M  V30 783 H 73.491 3.12703 0.836566 0
M  V30 784 H 72.398 3.44482 -1.45886 0
M  V30 785 H 73.731 4.53996 -1.90127 0
M  V30 786 N 75.3831 0.828654 1.34056 0
M  V30 787 C 76.7941 0.477534 1.8049 0
M  V30 788 C 77.1451 -1.00258 1.6865 0
M  V30 789 O 76.2701 -1.78057 1.22982 0
M  V30 790 C 76.8651 0.860018 3.27703 0
M  V30 791 C 75.4241 0.561185 3.72193 0
M  V30 792 C 74.5711 1.07385 2.55663 0
M  V30 793 H 77.5221 1.0183 1.21722 0
M  V30 794 H 77.5431 0.166038 3.80138 0
M  V30 795 H 77.0551 1.93731 3.36288 0
M  V30 796 H 75.1561 -0.506465 3.69142 0
M  V30 797 H 75.2691 1.10926 4.66082 0
M  V30 798 H 73.6331 0.495149 2.49841 0
M  V30 799 H 74.4161 2.15771 2.67016 0
M  V30 800 N 76.8612 -1.46375 0.584142 0
M  V30 801 C 78.1382 -1.956 0.0033388 0
M  V30 802 C 78.5182 -1.52679 -1.45782 0
M  V30 803 O 77.8662 -0.77816 -2.14842 0
M  V30 804 C 78.0762 -3.48551 0.176891 0
M  V30 805 C 79.4242 -4.24576 0.0454609 0
M  V30 806 O 80.4482 -3.56043 0.105801 0
M  V30 807 O 79.3072 -5.46427 -0.0890376 0
M  V30 808 H 76.4012 -0.825547 -0.0490066 0
M  V30 809 H 78.9472 -1.56652 0.65256 0
M  V30 810 H 77.7192 -3.72683 1.1926 0
M  V30 811 H 77.3422 -3.94332 -0.508695 0
M  V30 812 N 78.3393 -0.321999 -1.54275 0
M  V30 813 C 79.2693 0.537411 -2.27231 0
M  V30 814 C 80.2503 1.12064 -1.27968 0
M  V30 815 O 81.4353 1.14606 -1.56777 0
M  V30 816 C 78.5653 1.69919 -3.02894 0
M  V30 817 C 77.5193 1.24534 -4.09482 0
M  V30 818 C 76.8453 2.49394 -4.72977 0
M  V30 819 C 78.1453 0.361335 -5.21049 0
M  V30 820 H 79.8393 -0.0711406 -2.99315 0
M  V30 821 H 77.3853 -0.0356555 -1.43956 0
M  V30 822 H 79.3383 2.30668 -3.52662 0
M  V30 823 H 78.0623 2.33431 -2.28424 0
M  V30 824 H 76.7213 0.660782 -3.60596 0
M  V30 825 H 76.3693 3.11265 -3.95124 0
M  V30 826 H 76.0693 2.19718 -5.44975 0
M  V30 827 H 77.5933 3.10908 -5.25517 0
M  V30 828 H 79.0073 0.875072 -5.66582 0
M  V30 829 H 77.4043 0.157428 -5.99893 0
M  V30 830 H 78.4743 -0.60822 -4.8107 0
M  V30 831 N 79.8174 1.5752 -0.0501392 0
M  V30 832 C 80.7804 2.1037 0.909786 0
M  V30 833 C 81.7804 1.02308 1.24056 0
M  V30 834 O 82.9704 1.28385 1.17741 0
M  V30 835 C 80.1024 2.58708 2.21998 0
M  V30 836 H 81.2954 2.96479 0.451665 0
M  V30 837 H 78.8484 1.55038 0.198248 0
M  V30 838 H 79.5834 1.75989 2.72394 0
M  V30 839 H 79.3684 3.37675 1.99295 0
M  V30 840 H 80.8584 2.99747 2.9076 0
M  V30 841 N 81.2955 -0.223234 1.56011 0
M  V30 842 C 82.2275 -1.30006 1.88762 0
M  V30 843 C 83.2405 -1.43129 0.775746 0
M  V30 844 O 84.4295 -1.44057 1.05403 0
M  V30 845 C 81.5295 -2.67589 2.07965 0
M  V30 846 C 80.7025 -2.76434 3.38973 0
M  V30 847 C 79.7615 -3.95019 3.47629 0
M  V30 848 O 78.7875 -3.83436 4.20672 0
M  V30 849 N 79.9895 -5.09249 2.78649 0
M  V30 850 H 82.7545 -1.02238 2.81722 0
M  V30 851 H 80.3155 -0.413278 1.56536 0
M  V30 852 H 82.3075 -3.45297 2.11073 0
M  V30 853 H 80.8775 -2.87964 1.21638 0
M  V30 854 H 80.0975 -1.85216 3.47978 0
M  V30 855 H 81.3855 -2.79313 4.25278 0
M  V30 856 H 80.7835 -5.21556 2.19081 0
M  V30 857 H 79.3405 -5.85007 2.8742 0
M  V30 858 N 82.7736 -1.49793 -0.48987 0
M  V30 859 C 84.0136 -1.61466 -1.25332 0
M  V30 860 C 84.3776 -0.299688 -1.89647 0
M  V30 861 O 85.5786 -0.291687 -2.67213 0
M  V30 862 C 83.8496 -2.74944 -2.28343 0
M  V30 863 S 85.4086 -3.06637 -3.13878 0
M  V30 864 H 82.2266 -0.569411 -0.425784 0
M  V30 865 H 84.8286 -1.875 -0.553541 0
M  V30 866 H 83.5326 -3.68994 -1.79643 0
M  V30 867 H 83.0636 -2.50938 -3.02975 0
M  V30 868 H 85.0786 -2.49015 -4.29192 0
M  V30 869 N 84.2517 0.741722 -1.39055 0
M  V30 870 C 85.4987 1.50114 -1.35912 0
M  V30 871 C 85.8267 1.94443 0.0470937 0
M  V30 872 O 85.0817 1.66612 1.02659 0
M  V30 873 C 85.3807 2.7592 -2.27163 0
M  V30 874 C 85.0467 2.50493 -3.74919 0
M  V30 875 C 83.7087 2.43267 -4.1518 0
M  V30 876 C 86.0607 2.28585 -4.684 0
M  V30 877 C 83.3887 2.12166 -5.46994 0
M  V30 878 C 85.7407 1.99002 -6.00484 0
M  V30 879 C 84.4047 1.90241 -6.39816 0
M  V30 880 H 83.6747 0.549306 -0.497336 0
M  V30 881 H 86.3217 0.851896 -1.71508 0
M  V30 882 H 84.6267 3.45553 -1.84663 0
M  V30 883 H 86.3237 3.33923 -2.22028 0
M  V30 884 H 82.9137 2.56992 -3.43006 0
M  V30 885 H 87.0977 2.33139 -4.38132 0
M  V30 886 H 82.3537 2.03901 -5.76398 0
M  V30 887 H 86.5277 1.81057 -6.72452 0
M  V30 888 H 84.1547 1.65907 -7.41875 0
M  V30 889 N 85.7298 1.2412 0.971189 0
M  V30 890 C 86.9768 1.07881 1.71371 0
M  V30 891 C 87.3048 -0.382901 1.90694 0
M  V30 892 O 86.5598 -1.29945 1.46331 0
M  V30 893 C 86.8588 1.75983 3.11071 0
M  V30 894 C 86.5248 3.25909 3.11599 0
M  V30 895 C 85.1868 3.66813 3.11451 0
M  V30 896 C 87.5388 4.21771 3.062 0
M  V30 897 C 84.8668 5.02021 3.03631 0
M  V30 898 C 87.2188 5.56982 2.99923 0
M  V30 899 C 85.8828 5.97237 2.98102 0
M  V30 900 H 85.1528 0.394764 0.62709 0
M  V30 901 H 87.7998 1.54176 1.13587 0
M  V30 902 H 86.1048 1.22072 3.72298 0
M  V30 903 H 87.8018 1.60887 3.6731 0
M  V30 904 H 84.3918 2.93353 3.12477 0
M  V30 905 H 88.5758 3.91172 3.05447 0
M  V30 906 H 83.8318 5.32411 3.0058 0
M  V30 907 H 88.0058 6.30969 2.94704 0
M  V30 908 H 85.6328 7.01967 2.91798 0
M  V30 909 N 87.2079 -1.17134 1.05439 0
M  V30 910 C 88.4479 -1.89137 0.77502 0
M  V30 911 C 88.8119 -1.79345 -0.685526 0
M  V30 912 O 90.0129 -2.46188 -1.0791 0
M  V30 913 C 88.2839 -3.35003 1.2453 0
M  V30 914 S 89.8429 -4.24952 1.09367 0
M  V30 915 H 86.6609 -0.652949 0.281387 0
M  V30 916 H 89.2629 -1.4145 1.34953 0
M  V30 917 H 87.9669 -3.39666 2.30338 0
M  V30 918 H 87.4979 -3.87736 0.665166 0
M  V30 919 H 89.5129 -4.96196 0.0193397 0
M  V30 920 N 88.686 -0.835752 -1.33615 0
M  V30 921 C 89.933 -0.429959 -1.97883 0
M  V30 922 C 90.261 1.01006 -1.66217 0
M  V30 923 O 89.516 1.72047 -0.93265 0
M  V30 924 C 89.815 -0.593925 -3.52431 0
M  V30 925 C 89.481 -2.00158 -4.04039 0
M  V30 926 C 88.143 -2.38662 -4.17844 0
M  V30 927 C 90.495 -2.92117 -4.31644 0
M  V30 928 C 87.823 -3.68435 -4.56588 0
M  V30 929 C 90.175 -4.21368 -4.71838 0
M  V30 930 C 88.839 -4.59833 -4.83849 0
M  V30 931 H 88.109 -0.157333 -0.724104 0
M  V30 932 H 90.756 -1.06217 -1.59343 0
M  V30 933 H 89.061 0.121619 -3.91611 0
M  V30 934 H 90.758 -0.260282 -4.00154 0
M  V30 935 H 87.348 -1.69252 -3.93766 0
M  V30 936 H 91.532 -2.63608 -4.20505 0
M  V30 937 H 86.788 -3.98046 -4.64079 0
M  V30 938 H 90.962 -4.92703 -4.92155 0
M  V30 939 H 88.589 -5.60438 -5.13627 0
M  V30 940 N 90.1641 1.46063 -0.591896 0
M  V30 941 C 91.1111 2.30399 0.136069 0
M  V30 942 C 92.0811 1.41169 0.875238 0
M  V30 943 O 93.2661 1.70112 0.86409 0
M  V30 944 C 90.4061 3.25804 1.13781 0
M  V30 945 C 89.5191 4.30134 0.401137 0
M  V30 946 C 88.6541 5.12659 1.39121 0
M  V30 947 C 87.6931 6.0873 0.641462 0
M  V30 948 N 86.8301 6.8409 1.58004 0
M  V30 949 H 91.6701 2.92118 -0.589144 0
M  V30 950 H 89.2071 1.43959 -0.302342 0
M  V30 951 H 91.1651 3.79569 1.73156 0
M  V30 952 H 89.7951 2.65872 1.83062 0
M  V30 953 H 88.8471 3.79152 -0.307826 0
M  V30 954 H 90.1591 4.98458 -0.184565 0
M  V30 955 H 89.3131 5.70747 2.05749 0
M  V30 956 H 88.0521 4.44316 2.01084 0
M  V30 957 H 87.0571 5.49786 -0.0385419 0
M  V30 958 H 88.2821 6.79095 0.0270945 0
M  V30 959 H 86.2281 6.18449 2.18761 0
M  V30 960 H 86.1451 7.48709 1.04738 0
M  V30 961 H 87.4131 7.4673 2.23639 0
M  V30 962 N 91.6422 0.330177 1.54103 0
M  V30 963 C 92.5522 -0.541534 2.28264 0
M  V30 964 C 93.5682 -1.12351 1.32866 0
M  V30 965 O 94.7442 -1.14206 1.65888 0
M  V30 966 C 91.8092 -1.68322 3.03098 0
M  V30 967 C 90.8702 -1.13238 4.14096 0
M  V30 968 C 90.1032 -2.21966 4.85352 0
M  V30 969 O 90.3262 -3.42437 4.56172 0
M  V30 970 O 89.2602 -1.87013 5.7211 0
M  V30 971 H 93.0862 0.060938 3.03639 0
M  V30 972 H 90.6712 0.09565 1.49093 0
M  V30 973 H 92.5532 -2.34777 3.49939 0
M  V30 974 H 91.2282 -2.27176 2.30593 0
M  V30 975 H 90.1352 -0.432736 3.71589 0
M  V30 976 H 91.4682 -0.588898 4.88664 0
M  V30 977 N 93.1203 -1.57491 0.0584922 0
M  V30 978 C 94.0503 -2.14988 -0.911178 0
M  V30 979 C 95.0313 -1.07343 -1.31952 0
M  V30 980 O 96.2163 -1.35318 -1.39294 0
M  V30 981 C 93.3463 -2.70078 -2.18347 0
M  V30 982 C 92.3003 -3.82771 -1.91495 0
M  V30 983 C 91.6263 -4.24408 -3.25241 0
M  V30 984 C 92.9263 -5.07592 -1.23075 0
M  V30 985 H 94.6203 -2.96263 -0.432246 0
M  V30 986 H 92.1663 -1.42512 -0.206469 0
M  V30 987 H 94.1193 -3.08943 -2.86587 0
M  V30 988 H 92.8433 -1.86005 -2.68458 0
M  V30 989 H 91.5023 -3.44389 -1.25664 0
M  V30 990 H 91.1503 -3.37275 -3.73168 0
M  V30 991 H 90.8503 -5.00366 -3.08071 0
M  V30 992 H 92.3743 -4.65879 -3.94701 0
M  V30 993 H 93.7883 -5.43857 -1.81362 0
M  V30 994 H 92.1853 -5.88741 -1.16207 0
M  V30 995 H 93.2553 -4.84454 -0.207847 0
M  V30 996 N 94.5984 0.214957 -1.56127 0
M  V30 997 C 95.5084 1.28727 -1.96129 0
M  V30 998 C 96.5244 1.50916 -0.866044 0
M  V30 999 O 97.7004 1.63918 -1.17016 0
M  V30 1000 C 94.7654 2.61569 -2.27558 0
M  V30 1001 C 93.8264 2.47625 -3.50685 0
M  V30 1002 C 93.0594 3.74132 -3.80606 0
M  V30 1003 O 93.2824 4.77438 -3.12104 0
M  V30 1004 O 92.2164 3.70849 -4.74083 0
M  V30 1005 H 96.0424 0.977855 -2.87527 0
M  V30 1006 H 93.6274 0.418358 -1.43423 0
M  V30 1007 H 95.5094 3.40012 -2.48938 0
M  V30 1008 H 94.1844 2.92178 -1.39332 0
M  V30 1009 H 93.0914 1.67361 -3.34576 0
M  V30 1010 H 94.4244 2.21954 -4.39315 0
M  V30 1011 N 96.0765 1.50051 0.48192 0
M  V30 1012 C 97.3245 1.60181 1.23234 0
M  V30 1013 C 97.6455 0.299176 1.92691 0
M  V30 1014 O 96.9155 -0.682708 1.83619 0
M  V30 1015 H 95.4955 0.590232 0.457859 0
M  V30 1016 H 98.1575 1.86775 0.556881 0
M  V30 1017 H 97.2535 2.40753 1.98607 0
M  V30 1018 N 97.5546 -0.734337 1.39446 0
M  V30 1019 C 98.8006 -1.49505 1.37913 0
M  V30 1020 C 99.1556 -1.92384 -0.0248416 0
M  V30 1021 O 98.4486 -1.6395 -0.991506 0
M  V30 1022 C 98.6426 -2.74711 2.28623 0
M  V30 1023 C 98.4716 -2.44075 3.777 0
M  V30 1024 C 97.2416 -2.36338 4.46623 0
M  V30 1025 C 99.4396 -2.09574 4.69663 0
M  V30 1026 N 97.4216 -1.9818 5.81032 0
M  V30 1027 C 98.7926 -1.81865 5.92727 0
M  V30 1028 C 100.848 -1.96048 4.57678 0
M  V30 1029 C 99.5506 -1.41992 7.05146 0
M  V30 1030 C 101.577 -1.57579 5.7002 0
M  V30 1031 C 100.939 -1.30754 6.92158 0
M  V30 1032 H 97.0376 -0.545896 0.55993 0
M  V30 1033 H 99.6216 -0.853373 1.75002 0
M  V30 1034 H 97.7926 -3.36657 1.93692 0
M  V30 1035 H 99.5246 -3.40916 2.18078 0
M  V30 1036 H 96.2796 -2.53456 4.00071 0
M  V30 1037 H 96.7036 -1.81691 6.52163 0
M  V30 1038 H 101.346 -2.15455 3.63784 0
M  V30 1039 H 99.0636 -1.21327 7.9894 0
M  V30 1040 H 102.65 -1.47718 5.62735 0
M  V30 1041 H 101.53 -1.01432 7.77612 0
M  V30 1042 N 99.0327 -1.24633 -0.964593 0
M  V30 1043 C 99.9427 -1.05859 -2.09359 0
M  V30 1044 C 100.959 0.00148855 -1.74 0
M  V30 1045 O 102.135 -0.197346 -2.00431 0
M  V30 1046 C 99.1997 -0.668879 -3.40187 0
M  V30 1047 C 98.2607 -1.80578 -3.89474 0
M  V30 1048 C 97.4937 -1.43457 -5.14058 0
M  V30 1049 O 97.7167 -0.325775 -5.69469 0
M  V30 1050 O 96.6507 -2.2613 -5.57807 0
M  V30 1051 H 100.477 -2.00516 -2.28094 0
M  V30 1052 H 98.0617 -1.03481 -1.0776 0
M  V30 1053 H 99.9437 -0.463211 -4.18846 0
M  V30 1054 H 98.6187 0.248536 -3.22744 0
M  V30 1055 H 97.5257 -2.06623 -3.11862 0
M  V30 1056 H 98.8587 -2.70208 -4.11398 0
M  V30 1057 N 100.511 1.16574 -1.06058 0
M  V30 1058 C 101.922 1.68662 -0.800632 0
M  V30 1059 C 102.273 1.84184 0.67608 0
M  V30 1060 O 101.398 1.53568 1.52466 0
M  V30 1061 C 101.993 3.06356 -1.44676 0
M  V30 1062 C 100.552 3.55575 -1.23465 0
M  V30 1063 C 99.6988 2.31616 -1.52477 0
M  V30 1064 H 102.65 1.00969 -1.22438 0
M  V30 1065 H 102.671 3.70636 -0.860788 0
M  V30 1066 H 102.183 2.95027 -2.52152 0
M  V30 1067 H 100.284 3.72167 -0.179527 0
M  V30 1068 H 100.397 4.37812 -1.94571 0
M  V30 1069 H 98.7608 2.36512 -0.945209 0
M  V30 1070 H 99.5438 2.22887 -2.61106 0
M  V30 1071 N 101.989 0.842826 1.3317 0
M  V30 1072 C 103.266 0.362216 1.92217 0
M  V30 1073 C 103.646 -1.15289 1.76838 0
M  V30 1074 O 102.994 -1.96914 1.15919 0
M  V30 1075 C 103.204 0.813495 3.39387 0
M  V30 1076 C 104.552 0.823804 4.16532 0
M  V30 1077 O 105.576 0.757358 3.48055 0
M  V30 1078 O 104.435 0.915193 5.38782 0
M  V30 1079 H 101.529 0.103317 0.820521 0
M  V30 1080 H 104.075 0.928942 1.42017 0
M  V30 1081 H 102.847 1.85624 3.4447 0
M  V30 1082 H 102.47 0.223561 3.96971 0
M  V30 1083 N 103.467 -1.45747 0.599634 0
M  V30 1084 C 104.744 -1.95585 0.0240846 0
M  V30 1085 C 105.124 -1.54217 -1.44154 0
M  V30 1086 O 104.472 -0.800903 -2.14004 0
M  V30 1087 C 104.682 -3.48344 0.21385 0
M  V30 1088 C 106.03 -4.24504 0.0904902 0
M  V30 1089 O 107.054 -3.55911 0.143558 0
M  V30 1090 O 105.913 -5.46491 -0.0310766 0
M  V30 1091 H 103.007 -0.82602 -0.0402478 0
M  V30 1092 H 105.553 -1.55951 0.669139 0
M  V30 1093 H 104.325 -3.71397 1.23206 0
M  V30 1094 H 103.948 -3.9485 -0.466842 0
M  V30 1095 N 104.945 -0.338344 -1.53925 0
M  V30 1096 C 106.222 0.314774 -1.93051 0
M  V30 1097 C 106.602 1.68669 -1.26941 0
M  V30 1098 O 105.95 2.24636 -0.418445 0
M  V30 1099 C 106.16 0.392249 -3.46789 0
M  V30 1100 C 107.508 0.645554 -4.19664 0
M  V30 1101 O 108.532 0.474575 -3.53024 0
M  V30 1102 O 107.391 0.976408 -5.37707 0
M  V30 1103 H 104.485 0.182598 -0.80659 0
M  V30 1104 H 107.031 -0.389141 -1.65178 0
M  V30 1105 H 105.803 -0.570702 -3.87116 0
M  V30 1106 H 105.426 1.14316 -3.80812 0
M  V30 1107 N 106.423 1.57458 -0.0668435 0
M  V30 1108 C 107.834 1.80776 0.466558 0
M  V30 1109 C 108.185 0.980361 1.69951 0
M  V30 1110 O 107.31 0.201441 2.1546 0
M  V30 1111 C 107.905 3.27881 0.85321 0
M  V30 1112 C 106.464 3.52062 1.3315 0
M  V30 1113 C 105.611 2.75513 0.314264 0
M  V30 1114 H 108.562 1.5598 -0.292588 0
M  V30 1115 H 108.583 3.39659 1.715 0
M  V30 1116 H 108.095 3.88075 -0.0443439 0
M  V30 1117 H 106.196 2.97167 2.24772 0
M  V30 1118 H 106.309 4.60762 1.31285 0
M  V30 1119 H 104.673 2.42123 0.790492 0
M  V30 1120 H 105.456 3.38442 -0.575477 0
M  V30 1121 N 107.901 -0.206675 1.56239 0
M  V30 1122 C 109.15 -0.926964 1.79138 0
M  V30 1123 C 109.463 -1.84901 0.638043 0
M  V30 1124 O 110.669 -2.60906 0.751033 0
M  V30 1125 C 109.125 -1.6986 3.17294 0
M  V30 1126 C 108.733 -0.821956 4.40395 0
M  V30 1127 C 110.477 -2.40922 3.4951 0
M  V30 1128 C 108.384 -1.59179 5.69575 0
M  V30 1129 H 107.314 -0.349864 0.667915 0
M  V30 1130 H 109.965 -0.180487 1.8261 0
M  V30 1131 H 108.347 -2.48853 3.08039 0
M  V30 1132 H 109.521 -0.0715019 4.60745 0
M  V30 1133 H 107.836 -0.222741 4.15804 0
M  V30 1134 H 110.433 -2.99047 4.43255 0
M  V30 1135 H 110.776 -3.14542 2.72707 0
M  V30 1136 H 111.309 -1.68905 3.60161 0
M  V30 1137 H 108.048 -0.898589 6.49312 0
M  V30 1138 H 107.568 -2.31648 5.53262 0
M  V30 1139 H 109.247 -2.14862 6.10281 0
M  V30 1140 N 109.379 -1.50304 -0.473955 0
M  V30 1141 C 110.289 -1.7174 -1.5982 0
M  V30 1142 C 111.305 -0.600457 -1.63311 0
M  V30 1143 O 112.481 -0.878441 -1.81233 0
M  V30 1144 C 109.546 -1.80427 -2.96052 0
M  V30 1145 C 108.607 -3.04148 -3.02972 0
M  V30 1146 C 107.84 -3.12411 -4.32706 0
M  V30 1147 O 108.063 -2.27542 -5.23049 0
M  V30 1148 O 106.997 -4.05113 -4.45159 0
M  V30 1149 H 110.823 -2.67035 -1.44657 0
M  V30 1150 H 108.408 -1.34366 -0.653148 0
M  V30 1151 H 110.29 -1.88338 -3.7697 0
M  V30 1152 H 108.965 -0.883156 -3.11419 0
M  V30 1153 H 107.872 -3.0174 -2.21142 0
M  V30 1154 H 109.205 -3.95829 -2.92541 0
M  V30 1155 N 110.857 0.726932 -1.39834 0
M  V30 1156 C 111.767 1.87131 -1.41489 0
M  V30 1157 C 112.783 1.71239 -0.308757 0
M  V30 1158 O 113.959 1.93701 -0.551529 0
M  V30 1159 C 111.024 3.22811 -1.26468 0
M  V30 1160 C 110.085 3.51039 -2.47124 0
M  V30 1161 C 109.318 4.80245 -2.3281 0
M  V30 1162 O 109.541 5.54537 -1.33585 0
M  V30 1163 O 108.475 5.08554 -3.21957 0
M  V30 1164 H 112.301 1.8869 -2.3797 0
M  V30 1165 H 109.886 0.875837 -1.21035 0
M  V30 1166 H 111.768 4.03877 -1.20255 0
M  V30 1167 H 110.443 3.22005 -0.330862 0
M  V30 1168 H 109.35 2.70027 -2.58914 0
M  V30 1169 H 110.683 3.56632 -3.39227 0
M  V30 1170 N 112.336 1.25143 0.95797 0
M  V30 1171 C 113.286 1.01924 2.0395 0
M  V30 1172 C 114.27 -0.0427175 1.60843 0
M  V30 1173 O 115.462 0.17221 1.7616 0
M  V30 1174 C 112.591 0.636373 3.3735 0
M  V30 1175 C 111.677 1.73492 3.8699 0
M  V30 1176 N 112.068 2.96945 4.0946 0
M  V30 1177 C 110.366 1.61467 4.15746 0
M  V30 1178 C 111.067 3.68228 4.50315 0
M  V30 1179 N 110.043 2.95833 4.56053 0
M  V30 1180 H 113.845 1.95653 2.19311 0
M  V30 1181 H 111.359 1.15413 1.14253 0
M  V30 1182 H 113.356 0.451233 4.14451 0
M  V30 1183 H 112.016 -0.293621 3.2337 0
M  V30 1184 H 113.027 3.33025 3.96629 0
M  V30 1185 H 109.704 0.753394 4.10646 0
M  V30 1186 H 111.094 4.74178 4.76031 0
M  V30 1187 N 113.814 -1.1601 1.06675 0
M  V30 1188 C 114.761 -2.20525 0.680967 0
M  V30 1189 C 115.731 -1.62904 -0.324283 0
M  V30 1190 O 116.916 -1.89615 -0.212294 0
M  V30 1191 C 114.056 -3.45013 0.0776551 0
M  V30 1192 C 113.169 -4.16863 1.13355 0
M  V30 1193 C 112.304 -5.2888 0.49597 0
M  V30 1194 C 111.343 -5.92537 1.53513 0
M  V30 1195 N 110.48 -6.96038 0.920631 0
M  V30 1196 H 115.32 -2.52876 1.57663 0
M  V30 1197 H 112.857 -1.24199 0.788223 0
M  V30 1198 H 114.815 -4.16193 -0.289704 0
M  V30 1199 H 113.445 -3.132 -0.781393 0
M  V30 1200 H 112.497 -3.44248 1.61857 0
M  V30 1201 H 113.809 -4.60294 1.92174 0
M  V30 1202 H 112.963 -6.06653 0.0758604 0
M  V30 1203 H 111.702 -4.86622 -0.324062 0
M  V30 1204 H 110.707 -5.13482 1.9651 0
M  V30 1205 H 111.932 -6.36873 2.35733 0
M  V30 1206 H 109.878 -6.55888 0.12138 0
M  V30 1207 H 109.795 -7.3786 1.64616 0
M  V30 1208 H 111.063 -7.77725 0.525795 0
M  V30 1209 N 115.292 -0.849877 -1.32721 0
M  V30 1210 C 116.239 -0.289033 -2.28983 0
M  V30 1211 C 117.209 0.601324 -1.54833 0
M  V30 1212 O 118.394 0.537253 -1.8308 0
M  V30 1213 C 115.534 0.520623 -3.4115 0
M  V30 1214 C 114.647 -0.394989 -4.3019 0
M  V30 1215 C 113.782 0.426834 -5.29482 0
M  V30 1216 C 112.821 -0.486476 -6.10164 0
M  V30 1217 N 111.958 0.297879 -7.01468 0
M  V30 1218 H 116.798 -1.11519 -2.76347 0
M  V30 1219 H 114.335 -0.56138 -1.35967 0
M  V30 1220 H 116.293 1.00563 -4.04899 0
M  V30 1221 H 114.923 1.31165 -2.9495 0
M  V30 1222 H 113.975 -0.99836 -3.67065 0
M  V30 1223 H 115.287 -1.09612 -4.86607 0
M  V30 1224 H 114.441 0.975205 -5.98811 0
M  V30 1225 H 113.18 1.16136 -4.73671 0
M  V30 1226 H 112.185 -1.04677 -5.39743 0
M  V30 1227 H 113.41 -1.21953 -6.6806 0
M  V30 1228 H 111.356 1.01558 -6.48091 0
M  V30 1229 H 111.273 -0.344318 -7.55216 0
M  V30 1230 H 112.541 0.828131 -7.75089 0
M  V30 1231 N 116.77 1.45427 -0.607355 0
M  V30 1232 C 117.72 2.27612 0.133038 0
M  V30 1233 C 118.704 1.37307 0.838785 0
M  V30 1234 O 119.896 1.61299 0.728813 0
M  V30 1235 C 117.025 3.24173 1.12991 0
M  V30 1236 C 116.111 4.21965 0.425011 0
M  V30 1237 N 116.502 5.02982 -0.533217 0
M  V30 1238 C 114.8 4.40899 0.672593 0
M  V30 1239 C 115.501 5.73931 -0.947518 0
M  V30 1240 N 114.477 5.42819 -0.291321 0
M  V30 1241 H 118.279 2.87649 -0.602935 0
M  V30 1242 H 115.793 1.56576 -0.431006 0
M  V30 1243 H 117.79 3.81783 1.67473 0
M  V30 1244 H 116.45 2.65696 1.86644 0
M  V30 1245 H 117.461 5.09843 -0.90995 0
M  V30 1246 H 114.138 3.93547 1.39382 0
M  V30 1247 H 115.528 6.49037 -1.73782 0
M  V30 1248 N 118.248 0.346503 1.53744 0
M  V30 1249 C 119.473 -0.253074 2.0585 0
M  V30 1250 C 119.898 -1.43202 1.21962 0
M  V30 1251 O 119.256 -1.79783 0.234073 0
M  V30 1252 C 119.304 -0.643193 3.54817 0
M  V30 1253 O 118.408 -1.74286 3.73762 0
M  V30 1254 H 117.749 -0.0413583 0.662711 0
M  V30 1255 H 120.279 0.501574 1.98357 0
M  V30 1256 H 120.289 -0.919526 3.97503 0
M  V30 1257 H 118.964 0.218966 4.15323 0
M  V30 1258 H 117.541 -1.46356 3.42979 0
M  V30 1259 N 119.726 -1.57421 0.075193 0
M  V30 1260 C 120.951 -1.98364 -0.605515 0
M  V30 1261 C 121.376 -0.953383 -1.62149 0
M  V30 1262 O 120.734 0.0806053 -1.81121 0
M  V30 1263 C 120.782 -3.38332 -1.24756 0
M  V30 1264 O 119.886 -3.37959 -2.36342 0
M  V30 1265 H 119.227 -0.645553 -0.155428 0
M  V30 1266 H 121.757 -2.04044 0.150714 0
M  V30 1267 H 121.767 -3.75591 -1.5936 0
M  V30 1268 H 120.442 -4.12846 -0.503129 0
M  V30 1269 H 119.019 -3.12474 -2.03506 0
M  V30 1270 N 121.204 0.198386 -1.56346 0
M  V30 1271 C 122.452 0.91747 -1.80075 0
M  V30 1272 C 122.773 1.83929 -0.647692 0
M  V30 1273 O 122.043 1.93029 0.334166 0
M  V30 1274 H 120.623 0.341774 -0.664228 0
M  V30 1275 H 123.285 0.204684 -1.93822 0
M  V30 1276 H 122.381 1.51055 -2.7311 0
M  V30 1277 N 122.682 1.50554 0.465978 0
M  V30 1278 C 123.922 1.63439 1.22747 0
M  V30 1279 C 124.286 0.329822 1.89146 0
M  V30 1280 O 125.487 0.334161 2.66715 0
M  V30 1281 C 123.758 2.78542 2.2394 0
M  V30 1282 S 125.317 3.11591 3.0896 0
M  V30 1283 H 122.135 0.576113 0.416672 0
M  V30 1284 H 124.737 1.88357 0.523641 0
M  V30 1285 H 123.441 3.71805 1.7375 0
M  V30 1286 H 122.972 2.55726 2.98944 0
M  V30 1287 H 124.987 2.55811 4.25176 0
M  V30 1288 N 124.16 -0.719506 1.40217 0
M  V30 1289 C 125.123 -1.8153 1.39927 0
M  V30 1290 C 126.123 -1.58095 0.293723 0
M  V30 1291 O 127.313 -1.65209 0.552429 0
M  V30 1292 C 124.445 -3.19561 1.18716 0
M  V30 1293 H 125.638 -1.83186 2.37451 0
M  V30 1294 H 123.191 -0.924746 1.26008 0
M  V30 1295 H 123.926 -3.23557 0.219366 0
M  V30 1296 H 123.711 -3.3797 1.98793 0
M  V30 1297 H 125.201 -3.99598 1.21291 0
M  V30 1298 N 125.638 -1.25649 -0.95132 0
M  V30 1299 C 126.885 -1.10594 -1.69633 0
M  V30 1300 C 127.213 0.352515 -1.91279 0
M  V30 1301 O 126.468 1.27601 -1.4838 0
M  V30 1302 C 126.767 -1.80909 -3.08231 0
M  V30 1303 C 126.433 -3.30825 -3.06375 0
M  V30 1304 C 125.095 -3.71722 -3.05576 0
M  V30 1305 C 127.447 -4.26589 -2.99452 0
M  V30 1306 C 124.775 -5.06788 -2.95606 0
M  V30 1307 C 127.127 -5.61683 -2.91024 0
M  V30 1308 C 125.791 -6.01904 -2.88562 0
M  V30 1309 H 125.061 -0.404691 -0.620731 0
M  V30 1310 H 127.708 -1.55964 -1.11119 0
M  V30 1311 H 126.013 -1.27979 -3.70309 0
M  V30 1312 H 127.71 -1.6671 -3.64704 0
M  V30 1313 H 124.3 -2.98287 -3.07771 0
M  V30 1314 H 128.484 -3.95982 -2.99185 0
M  V30 1315 H 123.74 -5.37126 -2.92071 0
M  V30 1316 H 127.914 -6.35578 -2.84629 0
M  V30 1317 H 125.541 -7.06521 -2.80593 0
M  V30 1318 N 127.117 1.15442 -1.07289 0
M  V30 1319 C 128.047 2.22312 -0.714107 0
M  V30 1320 C 129.028 1.67467 0.298155 0
M  V30 1321 O 130.213 1.93445 0.171048 0
M  V30 1322 C 127.343 3.47124 -0.110448 0
M  V30 1323 C 126.297 4.14926 -1.04979 0
M  V30 1324 C 125.623 5.33807 -0.308924 0
M  V30 1325 C 126.923 4.64762 -2.38314 0
M  V30 1326 H 128.617 2.5258 -1.6076 0
M  V30 1327 H 126.163 1.21404 -0.77441 0
M  V30 1328 H 128.116 4.21124 0.152482 0
M  V30 1329 H 126.84 3.16187 0.81812 0
M  V30 1330 H 125.499 3.42866 -1.29764 0
M  V30 1331 H 125.147 4.99126 0.623084 0
M  V30 1332 H 124.847 5.80113 -0.935036 0
M  V30 1333 H 126.371 6.10576 -0.0537771 0
M  V30 1334 H 127.785 5.30292 -2.1786 0
M  V30 1335 H 126.182 5.21728 -2.96514 0
M  V30 1336 H 127.252 3.80434 -3.00663 0
M  V30 1337 N 128.595 0.856903 1.32268 0
M  V30 1338 C 129.82 0.474569 2.01897 0
M  V30 1339 C 130.245 -0.921766 1.63967 0
M  V30 1340 O 129.603 -1.60589 0.84148 0
M  V30 1341 C 129.651 0.623799 3.55164 0
M  V30 1342 O 128.755 -0.342459 4.10976 0
M  V30 1343 H 128.096 0.190422 0.63611 0
M  V30 1344 H 130.626 1.15672 1.68764 0
M  V30 1345 H 130.636 0.512169 4.04773 0
M  V30 1346 H 129.311 1.64202 3.82113 0
M  V30 1347 H 127.888 -0.18688 3.72431 0
M  V30 1348 N 130.073 -1.45103 0.615059 0
M  V30 1349 C 131.319 -2.02483 0.113347 0
M  V30 1350 C 131.652 -1.48146 -1.25564 0
M  V30 1351 O 130.927 -0.659104 -1.82992 0
M  V30 1352 C 131.21 -3.60005 0.0825278 0
M  V30 1353 C 131.063 -4.2466 1.48271 0
M  V30 1354 C 132.382 -4.35972 -0.601401 0
M  V30 1355 H 129.501 -0.735764 0.0426632 0
M  V30 1356 H 132.143 -1.72868 0.788461 0
M  V30 1357 H 130.293 -3.85367 -0.492378 0
M  V30 1358 H 131.965 -4.10458 2.10527 0
M  V30 1359 H 130.208 -3.82772 2.04127 0
M  V30 1360 H 130.879 -5.336 1.41332 0
M  V30 1361 H 133.355 -4.15947 -0.112666 0
M  V30 1362 H 132.231 -5.45697 -0.592097 0
M  V30 1363 H 132.492 -4.09391 -1.66887 0
M  V30 1364 N 131.551 -0.354651 -1.53558 0
M  V30 1365 C 132.498 0.496968 -2.25386 0
M  V30 1366 C 133.468 1.0865 -1.25636 0
M  V30 1367 O 134.653 1.12104 -1.54394 0
M  V30 1368 C 131.793 1.63637 -3.03837 0
M  V30 1369 C 130.906 1.07307 -4.18461 0
M  V30 1370 C 130.041 2.18068 -4.84376 0
M  V30 1371 C 129.08 1.59147 -5.91049 0
M  V30 1372 N 128.217 2.63695 -6.50699 0
M  V30 1373 H 133.057 -0.122075 -2.9775 0
M  V30 1374 H 130.594 -0.0720154 -1.46924 0
M  V30 1375 H 132.552 2.30734 -3.47589 0
M  V30 1376 H 131.182 2.22623 -2.33749 0
M  V30 1377 H 130.234 0.292708 -3.79272 0
M  V30 1378 H 131.546 0.602193 -4.95152 0
M  V30 1379 H 130.7 2.93007 -5.31255 0
M  V30 1380 H 129.439 2.68504 -4.07133 0
M  V30 1381 H 128.444 0.827175 -5.43542 0
M  V30 1382 H 129.669 1.09549 -6.70206 0
M  V30 1383 H 127.615 3.13365 -5.76315 0
M  V30 1384 H 127.532 2.21263 -7.22896 0
M  V30 1385 H 128.8 3.3837 -7.02229 0
M  V30 1386 N 133.029 1.57378 -0.0835403 0
M  V30 1387 C 133.976 2.13384 0.879539 0
M  V30 1388 C 134.946 1.04936 1.28754 0
M  V30 1389 O 136.131 1.32662 1.37133 0
M  V30 1390 C 133.271 2.70932 2.13752 0
M  V30 1391 C 132.384 3.93575 1.7811 0
M  V30 1392 C 131.519 4.39326 2.98607 0
M  V30 1393 C 130.558 5.54587 2.59037 0
M  V30 1394 N 129.695 5.95243 3.72331 0
M  V30 1395 H 134.535 2.9537 0.395076 0
M  V30 1396 H 132.072 1.45953 0.183349 0
M  V30 1397 H 134.03 3.02411 2.87408 0
M  V30 1398 H 132.66 1.91693 2.59718 0
M  V30 1399 H 131.712 3.68483 0.94469 0
M  V30 1400 H 133.024 4.77258 1.45005 0
M  V30 1401 H 132.178 4.72528 3.80529 0
M  V30 1402 H 130.917 3.5452 3.34913 0
M  V30 1403 H 129.922 5.21024 1.75539 0
M  V30 1404 H 131.147 6.41133 2.23887 0
M  V30 1405 H 129.093 5.13385 4.08378 0
M  V30 1406 H 129.01 6.73694 3.43034 0
M  V30 1407 H 130.278 6.33072 4.54797 0
M  V30 1408 N 134.507 -0.190092 1.56449 0
M  V30 1409 C 135.439 -1.25973 1.91477 0
M  V30 1410 C 136.452 -1.41452 0.805931 0
M  V30 1411 O 137.641 -1.41789 1.08435 0
M  V30 1412 C 134.741 -2.63117 2.13594 0
M  V30 1413 C 133.914 -2.69182 3.4476 0
M  V30 1414 C 132.973 -3.87557 3.5593 0
M  V30 1415 O 131.999 -3.74427 4.28711 0
M  V30 1416 N 133.201 -5.03224 2.89388 0
M  V30 1417 H 135.966 -0.962394 2.83828 0
M  V30 1418 H 133.527 -0.379981 1.57378 0
M  V30 1419 H 135.519 -3.40742 2.1835 0
M  V30 1420 H 134.089 -2.85319 1.27719 0
M  V30 1421 H 133.309 -1.77793 3.51828 0
M  V30 1422 H 134.597 -2.70229 4.31107 0
M  V30 1423 H 133.995 -5.16791 2.30094 0
M  V30 1424 H 132.552 -5.78778 2.99764 0
M  V30 1425 N 135.985 -1.50799 -0.457987 0
M  V30 1426 C 137.232 -1.62442 -1.20908 0
M  V30 1427 C 137.56 -0.330865 -1.91665 0
M  V30 1428 O 136.815 0.68401 -1.83357 0
M  V30 1429 C 137.114 -2.76358 -2.2663 0
M  V30 1430 C 136.78 -4.16378 -1.73033 0
M  V30 1431 C 135.442 -4.54473 -1.58138 0
M  V30 1432 C 137.794 -5.03836 -1.33413 0
M  V30 1433 C 135.122 -5.77754 -1.02065 0
M  V30 1434 C 137.474 -6.27676 -0.78778 0
M  V30 1435 C 136.138 -6.64562 -0.625561 0
M  V30 1436 H 135.408 -0.594417 -0.442435 0
M  V30 1437 H 138.055 -1.84772 -0.503136 0
M  V30 1438 H 136.36 -2.48167 -3.03184 0
M  V30 1439 H 138.057 -2.82568 -2.84528 0
M  V30 1440 H 134.647 -3.86331 -1.85598 0
M  V30 1441 H 138.831 -4.75026 -1.4375 0
M  V30 1442 H 134.087 -6.04997 -0.882547 0
M  V30 1443 H 138.261 -6.94797 -0.472177 0
M  V30 1444 H 135.888 -7.59965 -0.188926 0
M  V30 1445 N 137.463 0.71206 -1.40597 0
M  V30 1446 C 138.373 1.8562 -1.43466 0
M  V30 1447 C 139.389 1.70902 -0.326902 0
M  V30 1448 O 140.565 1.93105 -0.572043 0
M  V30 1449 C 137.63 3.21451 -1.29884 0
M  V30 1450 C 136.691 3.48398 -2.50833 0
M  V30 1451 C 135.924 4.77749 -2.3789 0
M  V30 1452 O 136.147 5.53089 -1.39459 0
M  V30 1453 O 135.081 5.05111 -3.27333 0
M  V30 1454 H 138.907 1.86155 -2.39958 0
M  V30 1455 H 136.492 0.86295 -1.21957 0
M  V30 1456 H 138.374 4.02579 -1.24531 0
M  V30 1457 H 137.049 3.21636 -0.364997 0
M  V30 1458 H 135.956 2.67265 -2.61763 0
M  V30 1459 H 137.289 3.53014 -3.4299 0
M  V30 1460 N 138.941 1.26152 0.944643 0
M  V30 1461 C 139.851 1.09176 2.07648 0
M  V30 1462 C 140.867 0.0261935 1.7398 0
M  V30 1463 O 142.043 0.229208 2.00091 0
M  V30 1464 C 139.108 0.722915 3.39079 0
M  V30 1465 C 138.169 1.86752 3.86552 0
M  V30 1466 C 137.402 1.51617 5.11711 0
M  V30 1467 O 137.625 0.416331 5.68879 0
M  V30 1468 O 136.559 2.34975 5.54139 0
M  V30 1469 H 140.385 2.0412 2.24875 0
M  V30 1470 H 137.97 1.05182 1.061 0
M  V30 1471 H 139.852 0.529787 4.18056 0
M  V30 1472 H 138.527 -0.197159 3.23099 0
M  V30 1473 H 137.434 2.11558 3.08535 0
M  V30 1474 H 138.767 2.76719 4.07047 0
M  V30 1475 N 140.419 -1.14872 1.07899 0
M  V30 1476 C 141.349 -2.2193 0.725887 0
M  V30 1477 C 142.33 -1.67622 -0.28927 0
M  V30 1478 O 143.515 -1.93533 -0.160787 0
M  V30 1479 C 140.645 -3.47061 0.128856 0
M  V30 1480 C 139.599 -4.14363 1.07178 0
M  V30 1481 C 138.925 -5.33636 0.337229 0
M  V30 1482 C 140.225 -4.63492 2.40775 0
M  V30 1483 H 141.919 -2.51724 1.62097 0
M  V30 1484 H 139.465 -1.20991 0.780838 0
M  V30 1485 H 141.418 -4.21199 -0.130147 0
M  V30 1486 H 140.142 -3.16617 -0.80134 0
M  V30 1487 H 138.801 -3.42173 1.3158 0
M  V30 1488 H 138.449 -4.99449 -0.596606 0
M  V30 1489 H 138.149 -5.79609 0.965788 0
M  V30 1490 H 139.673 -6.10539 0.0861567 0
M  V30 1491 H 141.087 -5.2913 2.20669 0
M  V30 1492 H 139.484 -5.20148 2.99276 0
M  V30 1493 H 140.554 -3.78834 3.02676 0
M  V30 1494 N 141.898 -0.863906 -1.31812 0
M  V30 1495 C 143.126 -0.486111 -2.01108 0
M  V30 1496 C 143.541 0.919755 -1.64882 0
M  V30 1497 O 142.898 1.60162 -0.874893 0
M  V30 1498 C 142.949 -0.626435 -3.56031 0
M  V30 1499 O 142.67 -1.97693 -3.90959 0
M  V30 1500 C 144.171 -0.248857 -4.42601 0
M  V30 1501 H 141.391 -0.190052 -0.643523 0
M  V30 1502 H 143.935 -1.1634 -1.68182 0
M  V30 1503 H 142.09 0.00322717 -3.874 0
M  V30 1504 H 142.504 -1.98034 -4.85678 0
M  V30 1505 H 143.978 -0.398016 -5.50563 0
M  V30 1506 H 144.455 0.811489 -4.31638 0
M  V30 1507 H 145.061 -0.853971 -4.16638 0
M  V30 1508 N 143.376 1.44774 -0.622745 0
M  V30 1509 C 144.306 2.33382 0.0741861 0
M  V30 1510 C 145.287 1.47719 0.843387 0
M  V30 1511 O 146.472 1.76458 0.810934 0
M  V30 1512 C 143.602 3.30663 1.06204 0
M  V30 1513 C 142.556 4.26079 0.405037 0
M  V30 1514 C 141.882 5.13165 1.5022 0
M  V30 1515 C 143.182 5.1781 -0.683414 0
M  V30 1516 H 144.876 2.91905 -0.665713 0
M  V30 1517 H 142.422 1.40363 -0.321587 0
M  V30 1518 H 144.375 3.9153 1.55827 0
M  V30 1519 H 143.099 2.70331 1.83272 0
M  V30 1520 H 141.758 3.66532 -0.0704683 0
M  V30 1521 H 141.406 4.49191 2.26355 0
M  V30 1522 H 141.106 5.77812 1.06803 0
M  V30 1523 H 142.63 5.76902 2.00041 0
M  V30 1524 H 144.044 5.72661 -0.270631 0
M  V30 1525 H 142.441 5.91015 -1.04023 0
M  V30 1526 H 143.511 4.59326 -1.55395 0
M  V30 1527 N 144.854 0.36279 1.53368 0
M  V30 1528 C 146.102 -0.227326 2.00817 0
M  V30 1529 C 146.423 -1.49511 1.25186 0
M  V30 1530 O 145.693 -1.92482 0.364348 0
M  V30 1531 H 144.273 -0.0869923 0.741917 0
M  V30 1532 H 146.935 0.488381 1.88682 0
M  V30 1533 H 146.031 -0.456273 3.08747 0
M  V30 1534 N 146.332 -1.57332 0.0918853 0
M  V30 1535 C 147.242 -2.17368 -0.882505 0
M  V30 1536 C 148.258 -1.14226 -1.31257 0
M  V30 1537 O 149.434 -1.46582 -1.38115 0
M  V30 1538 C 146.499 -2.73962 -2.12476 0
M  V30 1539 C 145.56 -3.92048 -1.7492 0
M  V30 1540 C 144.793 -4.45933 -2.93223 0
M  V30 1541 O 145.016 -3.98764 -4.07852 0
M  V30 1542 O 143.95 -5.36999 -2.71875 0
M  V30 1543 H 147.776 -3.01031 -0.40172 0
M  V30 1544 H 145.361 -1.48813 -0.132291 0
M  V30 1545 H 147.243 -3.10147 -2.85283 0
M  V30 1546 H 145.918 -1.93347 -2.59613 0
M  V30 1547 H 144.825 -3.6068 -0.993025 0
M  V30 1548 H 146.158 -4.74017 -1.32548 0
M  V30 1549 N 147.81 0.181792 -1.56548 0
M  V30 1550 C 149.057 0.900097 -1.81396 0
M  V30 1551 C 149.385 1.82695 -0.667281 0
M  V30 1552 O 148.64 1.92614 0.346146 0
M  V30 1553 C 148.939 1.73728 -3.12335 0
M  V30 1554 C 148.605 0.960255 -4.40556 0
M  V30 1555 C 147.267 0.745766 -4.75386 0
M  V30 1556 C 149.619 0.414477 -5.19549 0
M  V30 1557 C 146.947 -0.0257694 -5.86694 0
M  V30 1558 C 149.299 -0.343916 -6.31664 0
M  V30 1559 C 147.963 -0.569301 -6.65068 0
M  V30 1560 H 147.233 0.329369 -0.663775 0
M  V30 1561 H 149.88 0.165647 -1.90782 0
M  V30 1562 H 148.185 2.54081 -2.98245 0
M  V30 1563 H 149.882 2.29591 -3.28769 0
M  V30 1564 H 146.472 1.13746 -4.13231 0
M  V30 1565 H 150.656 0.567554 -4.93044 0
M  V30 1566 H 145.912 -0.210233 -6.11038 0
M  V30 1567 H 150.086 -0.774133 -6.92084 0
M  V30 1568 H 147.713 -1.16903 -7.51158 0
M  V30 1569 N 149.288 1.51039 0.449983 0
M  V30 1570 C 150.218 1.74379 1.55288 0
M  V30 1571 C 151.199 0.593236 1.5942 0
M  V30 1572 O 152.384 0.834625 1.7535 0
M  V30 1573 C 149.514 1.85728 2.93466 0
M  V30 1574 C 148.468 3.01078 3.04197 0
M  V30 1575 C 147.794 2.97595 4.44231 0
M  V30 1576 C 149.094 4.41254 2.7945 0
M  V30 1577 H 150.788 2.66725 1.36008 0
M  V30 1578 H 148.334 1.2835 0.652864 0
M  V30 1579 H 150.287 2.0064 3.70569 0
M  V30 1580 H 149.011 0.900207 3.13949 0
M  V30 1581 H 147.67 2.85851 2.29531 0
M  V30 1582 H 147.318 1.99691 4.61663 0
M  V30 1583 H 147.018 3.75046 4.52343 0
M  V30 1584 H 148.542 3.14583 5.23326 0
M  V30 1585 H 149.956 4.56897 3.46292 0
M  V30 1586 H 148.353 5.20315 2.98985 0
M  V30 1587 H 149.423 4.52164 1.75144 0
M  V30 1588 N 150.766 -0.704594 1.40972 0
M  V30 1589 C 151.713 -1.81862 1.42109 0
M  V30 1590 C 152.683 -1.63781 0.276593 0
M  V30 1591 O 153.868 -1.84759 0.4763 0
M  V30 1592 C 151.008 -3.19669 1.30022 0
M  V30 1593 C 150.121 -3.49246 2.54267 0
M  V30 1594 C 149.256 -4.76618 2.3454 0
M  V30 1595 C 148.295 -4.99133 3.54306 0
M  V30 1596 N 147.432 -6.17726 3.33706 0
M  V30 1597 H 152.272 -1.80226 2.37324 0
M  V30 1598 H 149.809 -0.880238 1.17857 0
M  V30 1599 H 151.767 -3.99263 1.21018 0
M  V30 1600 H 150.397 -3.20506 0.384192 0
M  V30 1601 H 149.449 -2.64125 2.73756 0
M  V30 1602 H 150.761 -3.61788 3.43381 0
M  V30 1603 H 149.915 -5.64249 2.22952 0
M  V30 1604 H 148.654 -4.66305 1.42867 0
M  V30 1605 H 147.659 -4.09953 3.66359 0
M  V30 1606 H 148.884 -5.11311 4.4692 0
M  V30 1607 H 146.83 -6.08642 2.44725 0
M  V30 1608 H 146.747 -6.30995 4.16391 0
M  V30 1609 H 148.015 -7.08115 3.25873 0
M  V30 1610 N 152.244 -1.26651 -0.937939 0
M  V30 1611 C 153.174 -1.10993 -2.05433 0
M  V30 1612 C 154.155 -0.0142161 -1.70094 0
M  V30 1613 O 155.34 -0.186837 -1.93299 0
M  V30 1614 C 152.47 -0.745561 -3.39203 0
M  V30 1615 C 151.424 -1.79337 -3.88616 0
M  V30 1616 C 150.75 -1.28324 -5.19073 0
M  V30 1617 C 152.05 -3.19553 -4.13138 0
M  V30 1618 H 153.744 -2.0438 -2.1879 0
M  V30 1619 H 151.29 -0.984041 -1.05131 0
M  V30 1620 H 153.243 -0.622888 -4.16771 0
M  V30 1621 H 151.967 0.22401 -3.25831 0
M  V30 1622 H 150.626 -1.90477 -3.13231 0
M  V30 1623 H 150.274 -0.303414 -5.02084 0
M  V30 1624 H 149.974 -1.98369 -5.53103 0
M  V30 1625 H 151.498 -1.1733 -5.99221 0
M  V30 1626 H 152.912 -3.11471 -4.81309 0
M  V30 1627 H 151.309 -3.87218 -4.58457 0
M  V30 1628 H 152.379 -3.65368 -3.18801 0
M  V30 1629 N 153.722 1.14298 -1.08507 0
M  V30 1630 C 154.999 1.81544 -0.728088 0
M  V30 1631 C 155.379 1.95838 0.78808 0
M  V30 1632 O 154.727 1.51904 1.70697 0
M  V30 1633 C 154.937 3.17169 -1.45619 0
M  V30 1634 C 156.285 3.9265 -1.61591 0
M  V30 1635 O 157.309 3.26762 -1.41793 0
M  V30 1636 O 156.168 5.10807 -1.94263 0
M  V30 1637 H 153.262 0.78491 -0.260471 0
M  V30 1638 H 155.808 1.21307 -1.18671 0
M  V30 1639 H 154.58 3.01934 -2.489 0
M  V30 1640 H 154.203 3.851 -0.989124 0
M  V30 1641 N 155.201 0.870884 1.31352 0
M  V30 1642 C 156.617 0.562932 1.49343 0
M  V30 1643 C 156.817 -0.902725 1.80148 0
M  V30 1644 O 155.873 -1.68484 1.88067 0
M  V30 1645 C 157.186 1.46393 2.62659 0
M  V30 1646 C 158.734 1.46607 2.76542 0
M  V30 1647 C 159.209 2.35266 3.92955 0
M  V30 1648 N 160.7 2.33151 4.00243 0
M  V30 1649 C 161.435 2.98471 4.89594 0
M  V30 1650 N 160.931 3.72964 5.8384 0
M  V30 1651 N 162.724 2.87775 4.82848 0
M  V30 1652 H 154.875 1.81923 1.09626 0
M  V30 1653 H 157.138 0.777934 0.541777 0
M  V30 1654 H 156.844 2.50689 2.46674 0
M  V30 1655 H 156.718 1.16314 3.58819 0
M  V30 1656 H 159.105 0.43069 2.9194 0
M  V30 1657 H 159.186 1.8071 1.81046 0
M  V30 1658 H 158.83 3.38881 3.78315 0
M  V30 1659 H 158.76 1.98487 4.87761 0
M  V30 1660 H 161.251 1.79006 3.32814 0
M  V30 1661 H 161.564 4.19932 6.4875 0
M  V30 1662 H 159.909 3.77073 5.83816 0
M  V30 1663 H 163.1 2.29116 4.08195 0
M  V30 1664 H 163.273 3.38961 5.52277 0
M  V30 1665 N 156.679 -1.44442 0.630414 0
M  V30 1666 C 157.589 -2.34476 -0.0761693 0
M  V30 1667 C 158.605 -1.52576 -0.836449 0
M  V30 1668 O 159.781 -1.85307 -0.788874 0
M  V30 1669 C 156.846 -3.30545 -1.04599 0
M  V30 1670 C 155.907 -4.28352 -0.28516 0
M  V30 1671 C 155.14 -5.19831 -1.20878 0
M  V30 1672 O 155.363 -5.15223 -2.44747 0
M  V30 1673 O 154.297 -5.97892 -0.693491 0
M  V30 1674 H 158.123 -2.96345 0.664324 0
M  V30 1675 H 155.708 -1.44203 0.39061 0
M  V30 1676 H 157.59 -3.89681 -1.60396 0
M  V30 1677 H 156.265 -2.7121 -1.76711 0
M  V30 1678 H 155.172 -3.72764 0.315837 0
M  V30 1679 H 156.505 -4.90605 0.395924 0
M  V30 1680 N 158.157 -0.370918 -1.53173 0
M  V30 1681 C 159.573 -0.0200818 -1.59587 0
M  V30 1682 C 159.773 1.46279 -1.38581 0
M  V30 1683 O 158.829 2.22506 -1.19363 0
M  V30 1684 C 160.142 -0.4808 -2.96831 0
M  V30 1685 C 161.69 -0.435477 -3.09956 0
M  V30 1686 C 162.165 -0.872092 -4.4962 0
M  V30 1687 N 163.656 -0.827364 -4.55751 0
M  V30 1688 C 164.391 -1.13683 -5.62018 0
M  V30 1689 N 163.887 -1.51584 -6.76014 0
M  V30 1690 N 165.68 -1.05927 -5.52029 0
M  V30 1691 H 157.831 -1.33652 -1.65079 0
M  V30 1692 H 160.094 -0.546634 -0.774529 0
M  V30 1693 H 159.8 -1.51577 -3.1736 0
M  V30 1694 H 159.674 0.129796 -3.76977 0
M  V30 1695 H 162.061 0.590371 -2.89134 0
M  V30 1696 H 162.142 -1.08164 -2.31806 0
M  V30 1697 H 161.786 -1.89608 -4.71181 0
M  V30 1698 H 161.716 -0.203127 -5.26208 0
M  V30 1699 H 164.207 -0.548216 -3.73902 0
M  V30 1700 H 164.52 -1.73609 -7.53047 0
M  V30 1701 H 162.865 -1.55454 -6.77391 0
M  V30 1702 H 166.056 -0.762321 -4.61851 0
M  V30 1703 H 166.229 -1.30378 -6.34749 0
M  V30 1704 N 159.635 1.57281 -0.100228 0
M  V30 1705 C 160.598 2.13158 0.842398 0
M  V30 1706 C 161.598 1.06202 1.20738 0
M  V30 1707 O 162.788 1.32066 1.13597 0
M  V30 1708 C 159.92 2.65639 2.13655 0
M  V30 1709 H 161.113 2.97766 0.357114 0
M  V30 1710 H 158.666 1.5559 0.148823 0
M  V30 1711 H 159.401 1.84566 2.66657 0
M  V30 1712 H 159.186 3.43844 1.88451 0
M  V30 1713 H 160.676 3.08846 2.81077 0
M  V30 1714 N 161.113 -0.173488 1.56642 0
M  V30 1715 C 162.06 -1.21482 1.96242 0
M  V30 1716 C 163.03 -1.44104 0.826027 0
M  V30 1717 O 164.215 -1.5688 1.08597 0
M  V30 1718 C 161.355 -2.54964 2.32567 0
M  V30 1719 C 160.468 -2.39739 3.59373 0
M  V30 1720 C 159.603 -3.66072 3.84921 0
M  V30 1721 C 158.642 -3.45771 5.05083 0
M  V30 1722 N 157.779 -4.64169 5.26775 0
M  V30 1723 H 162.619 -0.870123 2.85014 0
M  V30 1724 H 160.156 -0.418245 1.41029 0
M  V30 1725 H 162.114 -3.32758 2.5165 0
M  V30 1726 H 160.744 -2.87433 1.46908 0
M  V30 1727 H 159.796 -1.53131 3.48217 0
M  V30 1728 H 161.108 -2.20683 4.47326 0
M  V30 1729 H 160.262 -4.52303 4.0436 0
M  V30 1730 H 159.001 -3.88105 2.9534 0
M  V30 1731 H 158.006 -2.57927 4.85545 0
M  V30 1732 H 159.231 -3.25163 5.96193 0
M  V30 1733 H 157.177 -4.86425 4.40144 0
M  V30 1734 H 157.094 -4.48019 6.08946 0
M  V30 1735 H 158.362 -5.51689 5.5069 0
M  V30 1736 N 162.591 -1.51276 -0.441967 0
M  V30 1737 C 163.539 -1.72823 -1.55676 0
M  V30 1738 C 164.533 -0.59445 -1.58627 0
M  V30 1739 O 165.739 -0.775715 -1.62427 0
M  V30 1740 H 162.114 -0.545983 -0.517113 0
M  V30 1741 H 164.085 -2.6628 -1.34675 0
M  V30 1742 C 162.834 -1.86619 -2.93375 0
M  V30 1743 H 162.157 -2.73264 -2.91834 0
M  V30 1744 H 163.597 -2.05709 -3.70756 0
M  V30 1745 C 162.056 -0.624842 -3.31055 0
M  V30 1746 O 162.586 0.222636 -4.01083 0
M  V30 1747 N 160.792 -0.470288 -2.86769 0
M  V30 1748 H 160.339 -1.161 -2.29953 0
M  V30 1749 H 160.297 0.359051 -3.12343 0
M  V30 1750 N 164.069 0.697108 -1.41344 0
M  V30 1751 C 165.016 1.81106 -1.43071 0
M  V30 1752 C 165.986 1.63632 -0.285275 0
M  V30 1753 O 167.171 1.84504 -0.486091 0
M  V30 1754 C 164.311 3.18975 -1.31715 0
M  V30 1755 C 163.424 3.47892 -2.56115 0
M  V30 1756 C 162.559 4.75367 -2.37064 0
M  V30 1757 C 161.598 4.97247 -3.56948 0
M  V30 1758 N 160.735 6.15947 -3.36977 0
M  V30 1759 H 165.575 1.78965 -2.38276 0
M  V30 1760 H 163.112 0.873975 -1.18322 0
M  V30 1761 H 165.07 3.98615 -1.23133 0
M  V30 1762 H 163.7 3.20297 -0.401183 0
M  V30 1763 H 162.752 2.62669 -2.75153 0
M  V30 1764 H 164.064 3.59962 -3.45295 0
M  V30 1765 H 163.218 5.63059 -2.25941 0
M  V30 1766 H 161.957 4.65541 -1.45338 0
M  V30 1767 H 160.962 4.08004 -3.68527 0
M  V30 1768 H 162.187 5.08934 -4.49626 0
M  V30 1769 H 160.133 6.07336 -2.47949 0
M  V30 1770 H 160.05 6.28777 -4.19732 0
M  V30 1771 H 161.318 7.06377 -3.29623 0
M  V30 1772 N 165.547 1.27147 0.931209 0
M  V30 1773 C 166.796 1.12664 1.67302 0
M  V30 1774 C 167.109 -0.327718 1.92835 0
M  V30 1775 O 168.315 -0.593392 2.64936 0
M  V30 1776 C 166.771 1.9683 3.01307 0
M  V30 1777 C 166.379 3.46901 2.83485 0
M  V30 1778 C 168.123 1.90985 3.79111 0
M  V30 1779 C 166.03 4.23279 4.13024 0
M  V30 1780 H 164.96 0.41803 0.627509 0
M  V30 1781 H 167.611 1.51539 1.03481 0
M  V30 1782 H 165.993 1.50797 3.66164 0
M  V30 1783 H 167.167 4.00773 2.27415 0
M  V30 1784 H 165.482 3.54088 2.19113 0
M  V30 1785 H 168.079 2.45328 4.75098 0
M  V30 1786 H 168.422 0.882718 4.06834 0
M  V30 1787 H 168.955 2.34895 3.21044 0
M  V30 1788 H 165.694 5.26503 3.90481 0
M  V30 1789 H 165.214 3.74186 4.6877 0
M  V30 1790 H 166.893 4.32265 4.81411 0
M  V30 1791 N 167.025 -1.13721 1.09112 0
M  V30 1792 C 167.988 -2.17222 0.731241 0
M  V30 1793 C 168.988 -1.59035 -0.237566 0
M  V30 1794 O 170.178 -1.74192 -0.0161704 0
M  V30 1795 C 167.31 -3.40804 0.0808443 0
M  V30 1796 H 168.503 -2.50573 1.64783 0
M  V30 1797 H 166.056 -1.28493 0.889897 0
M  V30 1798 H 166.791 -3.1304 -0.847127 0
M  V30 1799 H 166.576 -3.84306 0.777896 0
M  V30 1800 H 168.066 -4.1731 -0.155657 0
M  V30 1801 N 168.503 -0.877838 -1.30888 0
M  V30 1802 C 169.45 -0.337538 -2.28318 0
M  V30 1803 C 170.42 0.568346 -1.56074 0
M  V30 1804 O 171.605 0.498298 -1.84178 0
M  V30 1805 C 168.745 0.448142 -3.42178 0
M  V30 1806 C 167.858 -0.48615 -4.29256 0
M  V30 1807 C 166.993 0.314427 -5.30269 0
M  V30 1808 C 166.032 -0.615791 -6.08995 0
M  V30 1809 N 165.169 0.14902 -7.01942 0
M  V30 1810 H 170.009 -1.17356 -2.73919 0
M  V30 1811 H 167.546 -0.590094 -1.34745 0
M  V30 1812 H 169.504 0.919517 -4.06941 0
M  V30 1813 H 168.134 1.24879 -2.97666 0
M  V30 1814 H 167.186 -1.076 -3.64865 0
M  V30 1815 H 168.498 -1.19909 -4.84173 0
M  V30 1816 H 167.652 0.847969 -6.00745 0
M  V30 1817 H 166.391 1.06062 -4.76027 0
M  V30 1818 H 165.396 -1.16102 -5.37401 0
M  V30 1819 H 166.621 -1.36097 -6.65323 0
M  V30 1820 H 164.567 0.877884 -6.50099 0
M  V30 1821 H 164.484 -0.504433 -7.54315 0
M  V30 1822 H 165.752 0.663537 -7.76671 0
M  V30 1823 N 169.982 1.44106 -0.638065 0
M  V30 1824 C 170.892 2.34513 0.0637334 0
M  V30 1825 C 171.908 1.53018 0.828346 0
M  V30 1826 O 173.084 1.85723 0.779036 0
M  V30 1827 C 170.149 3.31095 1.02844 0
M  V30 1828 C 169.21 4.28497 0.26244 0
M  V30 1829 C 168.443 5.20465 1.1812 0
M  V30 1830 O 168.666 5.16514 2.42011 0
M  V30 1831 O 167.6 5.98251 0.661774 0
M  V30 1832 H 171.426 2.95989 -0.68003 0
M  V30 1833 H 169.011 1.43994 -0.398252 0
M  V30 1834 H 170.893 3.90526 1.58327 0
M  V30 1835 H 169.568 2.72144 1.7527 0
M  V30 1836 H 168.475 3.72592 -0.335602 0
M  V30 1837 H 169.808 4.90388 -0.421936 0
M  V30 1838 N 171.46 0.379036 1.52974 0
M  V30 1839 C 172.688 -0.20679 2.05864 0
M  V30 1840 C 173.103 -1.41356 1.25155 0
M  V30 1841 O 172.46 -1.8009 0.295588 0
M  V30 1842 C 172.511 -0.587045 3.56702 0
M  V30 1843 O 172.232 0.571776 4.34353 0
M  V30 1844 C 173.733 -1.22983 4.25899 0
M  V30 1845 H 170.953 -0.0336123 0.670158 0
M  V30 1846 H 173.497 0.541298 1.97206 0
M  V30 1847 H 171.652 -1.28504 3.65466 0
M  V30 1848 H 172.066 0.261544 5.23847 0
M  V30 1849 H 173.54 -1.44635 5.32715 0
M  V30 1850 H 174.017 -2.19416 3.80465 0
M  V30 1851 H 174.623 -0.572892 4.21424 0
M  V30 1852 N 172.938 -1.57226 0.108567 0
M  V30 1853 C 173.886 -2.16002 -0.862885 0
M  V30 1854 C 174.88 -1.10644 -1.28274 0
M  V30 1855 O 176.086 -1.28966 -1.2557 0
M  V30 1856 H 172.461 -0.691148 -0.296342 0
M  V30 1857 H 174.432 -2.96427 -0.342575 0
M  V30 1858 C 173.181 -2.76576 -2.10716 0
M  V30 1859 H 172.504 -3.5734 -1.793 0
M  V30 1860 H 173.944 -3.21253 -2.76717 0
M  V30 1861 C 172.403 -1.73137 -2.89007 0
M  V30 1862 O 172.933 -1.17842 -3.84026 0
M  V30 1863 N 171.139 -1.43317 -2.52801 0
M  V30 1864 H 170.686 -1.88473 -1.75601 0
M  V30 1865 H 170.644 -0.743485 -3.05483 0
M  V30 1866 N 174.416 0.165178 -1.56732 0
M  V30 1867 C 175.364 1.22369 -1.97809 0
M  V30 1868 C 176.358 1.45488 -0.867741 0
M  V30 1869 O 177.564 1.45995 -1.05288 0
M  V30 1870 H 173.939 0.411486 -0.629431 0
M  V30 1871 H 175.91 0.850425 -2.86025 0
M  V30 1872 C 174.659 2.55403 -2.35934 0
M  V30 1873 H 173.982 2.38438 -3.20916 0
M  V30 1874 H 175.422 3.2814 -2.68514 0
M  V30 1875 C 173.881 3.14611 -1.20506 0
M  V30 1876 O 174.411 3.98626 -0.496016 0
M  V30 1877 N 172.617 2.7379 -0.97403 0
M  V30 1878 H 172.164 2.0557 -1.55238 0
M  V30 1879 H 172.122 3.1374 -0.203573 0
M  V30 1880 N 175.894 1.51508 0.433938 0
M  V30 1881 C 176.841 1.73068 1.52696 0
M  V30 1882 C 177.811 0.572441 1.55924 0
M  V30 1883 O 178.996 0.807253 1.72882 0
M  V30 1884 C 176.136 1.86474 2.90381 0
M  V30 1885 C 175.249 3.14037 2.96656 0
M  V30 1886 C 174.384 3.18019 4.25485 0
M  V30 1887 C 173.423 4.39882 4.2564 0
M  V30 1888 N 172.56 4.41394 5.45999 0
M  V30 1889 H 177.4 2.66366 1.33615 0
M  V30 1890 H 174.937 1.32008 0.649018 0
M  V30 1891 H 176.895 1.92229 3.70275 0
M  V30 1892 H 175.525 0.965809 3.08013 0
M  V30 1893 H 174.577 3.17575 2.09404 0
M  V30 1894 H 175.889 4.0394 2.92633 0
M  V30 1895 H 175.043 3.22708 5.13755 0
M  V30 1896 H 173.782 2.2601 4.3217 0
M  V30 1897 H 172.787 4.35366 3.35763 0
M  V30 1898 H 174.012 5.33159 4.20617 0
M  V30 1899 H 171.958 3.52258 5.53399 0
M  V30 1900 H 171.875 5.25111 5.4387 0
M  V30 1901 H 173.143 4.50281 6.36292 0
M  V30 1902 N 177.372 -0.689602 1.41712 0
M  V30 1903 C 178.319 -1.80345 1.44029 0
M  V30 1904 C 179.289 -1.63478 0.293948 0
M  V30 1905 O 180.474 -1.84244 0.495869 0
M  V30 1906 C 177.614 -3.18272 1.33405 0
M  V30 1907 C 176.727 -3.46529 2.57956 0
M  V30 1908 C 175.862 -4.74103 2.39582 0
M  V30 1909 C 174.901 -4.95347 3.5958 0
M  V30 1910 N 174.038 -6.14151 3.40239 0
M  V30 1911 H 178.878 -1.77698 2.39222 0
M  V30 1912 H 176.415 -0.867688 1.18784 0
M  V30 1913 H 178.373 -3.97956 1.25246 0
M  V30 1914 H 177.003 -3.2008 0.418164 0
M  V30 1915 H 176.055 -2.61207 2.76542 0
M  V30 1916 H 177.367 -3.58126 3.47199 0
M  V30 1917 H 176.521 -5.61853 2.28924 0
M  V30 1918 H 175.26 -4.64763 1.47805 0
M  V30 1919 H 174.265 -4.06044 3.70686 0
M  V30 1920 H 175.49 -5.06542 4.52318 0
M  V30 1921 H 173.436 -6.06013 2.51167 0
M  V30 1922 H 173.353 -6.26543 4.23061 0
M  V30 1923 H 174.621 -7.04619 3.33365 0
M  V30 1924 N 178.85 -1.27639 -0.924453 0
M  V30 1925 C 179.797 -1.10644 -2.0255 0
M  V30 1926 C 180.767 -0.00658438 -1.66099 0
M  V30 1927 O 181.952 -0.16952 -1.90045 0
M  V30 1928 C 179.092 -0.76309 -3.36557 0
M  V30 1929 C 178.205 -1.94091 -3.85944 0
M  V30 1930 C 177.34 -1.53914 -5.08413 0
M  V30 1931 C 176.379 -2.68425 -5.50104 0
M  V30 1932 N 175.516 -2.28815 -6.63768 0
M  V30 1933 H 180.356 -2.04858 -2.16419 0
M  V30 1934 H 177.893 -1.01974 -1.06017 0
M  V30 1935 H 179.851 -0.544822 -4.13627 0
M  V30 1936 H 178.481 0.142102 -3.22487 0
M  V30 1937 H 177.533 -2.27162 -3.05125 0
M  V30 1938 H 178.845 -2.7998 -4.12811 0
M  V30 1939 H 177.999 -1.28231 -5.92994 0
M  V30 1940 H 176.738 -0.651391 -4.8333 0
M  V30 1941 H 175.743 -2.94819 -4.64071 0
M  V30 1942 H 176.968 -3.57826 -5.7718 0
M  V30 1943 H 174.914 -1.42495 -6.40337 0
M  V30 1944 H 174.831 -3.08242 -6.90306 0
M  V30 1945 H 176.099 -2.06387 -7.51681 0
M  V30 1946 N 180.328 1.1314 -1.09713 0
M  V30 1947 C 181.238 2.22242 -0.751367 0
M  V30 1948 C 182.254 1.72224 0.247938 0
M  V30 1949 O 183.43 2.01205 0.0885463 0
M  V30 1950 C 180.495 3.46231 -0.180274 0
M  V30 1951 C 179.556 4.11125 -1.2359 0
M  V30 1952 C 178.789 5.29195 -0.691966 0
M  V30 1953 O 179.012 5.68342 0.48414 0
M  V30 1954 O 177.946 5.84214 -1.44838 0
M  V30 1955 H 181.772 2.54197 -1.66186 0
M  V30 1956 H 179.357 1.21331 -0.871735 0
M  V30 1957 H 181.239 4.21185 0.134739 0
M  V30 1958 H 179.914 3.1597 0.703185 0
M  V30 1959 H 178.821 3.37985 -1.60366 0
M  V30 1960 H 180.154 4.45524 -2.09211 0
M  V30 1961 N 181.806 0.884767 1.30421 0
M  V30 1962 C 183.053 0.503105 1.96151 0
M  V30 1963 C 183.381 -0.947676 1.69851 0
M  V30 1964 O 182.636 -1.68467 0.995861 0
M  V30 1965 C 182.935 0.724318 3.49983 0
M  V30 1966 C 182.601 2.15015 3.96332 0
M  V30 1967 C 181.263 2.54005 4.08699 0
M  V30 1968 C 183.615 3.07936 4.20505 0
M  V30 1969 C 180.943 3.85128 4.42599 0
M  V30 1970 C 183.295 4.3859 4.55874 0
M  V30 1971 C 181.959 4.77474 4.66449 0
M  V30 1972 H 181.229 0.184099 0.717766 0
M  V30 1973 H 183.876 1.12058 1.55291 0
M  V30 1974 H 182.181 0.0238086 3.91793 0
M  V30 1975 H 183.878 0.408617 3.98913 0
M  V30 1976 H 180.468 1.8375 3.87213 0
M  V30 1977 H 184.652 2.79033 4.10431 0
M  V30 1978 H 179.908 4.14996 4.48986 0
M  V30 1979 H 184.082 5.10629 4.7353 0
M  V30 1980 H 181.709 5.79115 4.92473 0
M  V30 1981 N 183.284 -1.43765 0.645699 0
M  V30 1982 C 184.194 -2.34544 -0.0512957 0
M  V30 1983 C 185.21 -1.53455 -0.82022 0
M  V30 1984 O 186.386 -1.86133 -0.769176 0
M  V30 1985 C 183.451 -3.31636 -1.01087 0
M  V30 1986 C 182.512 -4.2863 -0.239712 0
M  V30 1987 C 181.745 -5.21084 -1.15358 0
M  V30 1988 O 181.968 -5.1779 -2.39269 0
M  V30 1989 O 180.902 -5.98593 -0.630038 0
M  V30 1990 H 184.728 -2.95624 0.695718 0
M  V30 1991 H 182.313 -1.43781 0.405882 0
M  V30 1992 H 184.195 -3.9136 -1.56254 0
M  V30 1993 H 182.87 -2.73069 -1.73824 0
M  V30 1994 H 181.777 -3.72408 0.355356 0
M  V30 1995 H 183.11 -4.90157 0.447936 0
M  V30 1996 N 184.763 -0.387143 -1.52771 0
M  V30 1997 C 185.673 0.456442 -2.30117 0
M  V30 1998 C 186.689 1.07342 -1.36944 0
M  V30 1999 O 187.865 1.07971 -1.70013 0
M  V30 2000 C 184.93 1.56957 -3.09136 0
M  V30 2001 C 183.991 0.977916 -4.18014 0
M  V30 2002 C 183.224 2.038 -4.93256 0
M  V30 2003 O 183.447 3.25271 -4.68567 0
M  V30 2004 O 182.381 1.6565 -5.78657 0
M  V30 2005 H 186.207 -0.17359 -3.03203 0
M  V30 2006 H 183.792 -0.150919 -1.48636 0
M  V30 2007 H 185.674 2.21628 -3.58412 0
M  V30 2008 H 184.349 2.18461 -2.38865 0
M  V30 2009 H 183.256 0.294525 -3.72939 0
M  V30 2010 H 184.589 0.407128 -4.90513 0
M  V30 2011 N 186.241 1.57166 -0.116904 0
M  V30 2012 C 187.469 1.99473 0.549383 0
M  V30 2013 C 187.884 0.996541 1.60357 0
M  V30 2014 O 187.241 -0.0108731 1.82497 0
M  V30 2015 C 187.292 3.41788 1.17741 0
M  V30 2016 O 187.013 4.37788 0.165362 0
M  V30 2017 C 188.514 3.99216 1.92722 0
M  V30 2018 H 185.734 0.655009 0.145616 0
M  V30 2019 H 188.278 2.03494 -0.202625 0
M  V30 2020 H 186.433 3.38713 1.88021 0
M  V30 2021 H 186.847 5.20806 0.621403 0
M  V30 2022 H 188.321 5.00882 2.31995 0
M  V30 2023 H 188.798 3.3824 2.80161 0
M  V30 2024 H 189.404 4.0583 1.27209 0
M  V30 2025 N 187.719 -0.156864 1.56817 0
M  V30 2026 C 188.682 -1.17781 1.96622 0
M  V30 2027 C 189.682 -1.36401 0.851555 0
M  V30 2028 O 190.872 -1.33561 1.11836 0
M  V30 2029 C 188.004 -2.54008 2.27361 0
M  V30 2030 H 189.197 -0.836564 2.87996 0
M  V30 2031 H 186.75 -0.39985 1.51099 0
M  V30 2032 H 187.485 -2.9312 1.38748 0
M  V30 2033 H 187.27 -2.41856 3.08623 0
M  V30 2034 H 188.76 -3.27558 2.59029 0
M  V30 2035 N 189.197 -1.51736 -0.425897 0
M  V30 2036 C 190.144 -1.73875 -1.51776 0
M  V30 2037 C 191.114 -0.580702 -1.55618 0
M  V30 2038 O 192.299 -0.81641 -1.72451 0
M  V30 2039 C 189.439 -1.88012 -2.89388 0
M  V30 2040 C 188.552 -3.15606 -2.94986 0
M  V30 2041 C 187.687 -3.20271 -4.23793 0
M  V30 2042 C 186.726 -4.42134 -4.23302 0
M  V30 2043 N 185.863 -4.44284 -5.43651 0
M  V30 2044 H 190.703 -2.67071 -1.32201 0
M  V30 2045 H 188.24 -1.32351 -0.642008 0
M  V30 2046 H 190.198 -1.9419 -3.69251 0
M  V30 2047 H 188.828 -0.98213 -3.07496 0
M  V30 2048 H 187.88 -3.18681 -2.07717 0
M  V30 2049 H 189.192 -4.05486 -2.90486 0
M  V30 2050 H 188.346 -3.25428 -5.12036 0
M  V30 2051 H 187.085 -2.28299 -4.30965 0
M  V30 2052 H 186.09 -4.3714 -3.3345 0
M  V30 2053 H 187.315 -5.35382 -4.17783 0
M  V30 2054 H 185.261 -3.55188 -5.51523 0
M  V30 2055 H 185.178 -5.27988 -5.41078 0
M  V30 2056 H 186.446 -4.53649 -6.33895 0
M  V30 2057 N 190.675 0.682077 -1.42076 0
M  V30 2058 C 191.622 1.79578 -1.44984 0
M  V30 2059 C 192.592 1.6332 -0.302614 0
M  V30 2060 O 193.777 1.83978 -0.505633 0
M  V30 2061 C 190.917 3.1756 -1.35091 0
M  V30 2062 C 190.03 3.45156 -2.59791 0
M  V30 2063 C 189.165 4.72826 -2.42093 0
M  V30 2064 C 188.204 4.93433 -3.62202 0
M  V30 2065 N 187.341 6.12338 -3.43491 0
M  V30 2066 H 192.181 1.76427 -2.40161 0
M  V30 2067 H 189.718 0.861376 -1.19242 0
M  V30 2068 H 191.676 3.97287 -1.27354 0
M  V30 2069 H 190.306 3.19854 -0.435133 0
M  V30 2070 H 189.358 2.59736 -2.77923 0
M  V30 2071 H 190.67 3.5628 -3.49094 0
M  V30 2072 H 189.824 5.60631 -2.319 0
M  V30 2073 H 188.563 4.63973 -1.50268 0
M  V30 2074 H 187.568 4.04073 -3.72834 0
M  V30 2075 H 188.793 5.04136 -4.54998 0
M  V30 2076 H 186.739 6.04672 -2.54377 0
M  V30 2077 H 186.656 6.2429 -4.26377 0
M  V30 2078 H 187.924 7.02841 -3.37097 0
M  V30 2079 N 192.153 1.28127 0.917671 0
M  V30 2080 C 193.399 1.15223 1.66888 0
M  V30 2081 C 193.732 -0.299293 1.9188 0
M  V30 2082 O 193.007 -1.21805 1.51637 0
M  V30 2083 C 193.29 1.94706 3.02922 0
M  V30 2084 C 193.143 3.47898 2.85109 0
M  V30 2085 C 194.462 1.75939 4.03402 0
M  V30 2086 H 191.581 0.419946 0.605652 0
M  V30 2087 H 194.223 1.57398 1.06423 0
M  V30 2088 H 192.373 1.58864 3.54534 0
M  V30 2089 H 194.045 3.93624 2.40537 0
M  V30 2090 H 192.288 3.7373 2.20246 0
M  V30 2091 H 192.959 3.98765 3.81694 0
M  V30 2092 H 195.435 2.07209 3.60837 0
M  V30 2093 H 194.311 2.33931 4.96556 0
M  V30 2094 H 194.572 0.709877 4.36364 0
M  V30 2095 N 193.631 -1.12557 1.10312 0
M  V30 2096 C 195.047 -1.36036 0.834649 0
M  V30 2097 C 195.247 -1.93946 -0.546539 0
M  V30 2098 O 194.303 -2.16484 -1.29966 0
M  V30 2099 C 195.616 -2.30312 1.9333 0
M  V30 2100 C 197.164 -2.43906 1.9616 0
M  V30 2101 C 197.639 -3.41496 3.05195 0
M  V30 2102 N 199.13 -3.49053 3.04494 0
M  V30 2103 C 199.865 -4.24471 3.85502 0
M  V30 2104 N 199.361 -5.02966 4.76442 0
M  V30 2105 N 201.154 -4.19864 3.73725 0
M  V30 2106 H 193.305 -0.733246 1.99342 0
M  V30 2107 H 195.568 -0.385234 0.866198 0
M  V30 2108 H 195.274 -1.94933 2.92735 0
M  V30 2109 H 195.148 -3.30421 1.81939 0
M  V30 2110 H 197.535 -2.78567 0.973886 0
M  V30 2111 H 197.616 -1.4369 2.11629 0
M  V30 2112 H 197.26 -3.07565 4.04186 0
M  V30 2113 H 197.19 -4.41539 2.86968 0
M  V30 2114 H 199.681 -2.93053 2.38596 0
M  V30 2115 H 199.994 -5.57846 5.34815 0
M  V30 2116 H 198.339 -5.02167 4.80472 0
M  V30 2117 H 201.53 -3.57623 3.02032 0
M  V30 2118 H 201.703 -4.78386 4.37093 0
M  V30 2119 N 195.109 -0.891671 -1.2995 0
M  V30 2120 C 196.525 -0.58662 -1.48428 0
M  V30 2121 C 196.725 0.873951 -1.81561 0
M  V30 2122 O 195.781 1.65471 -1.90724 0
M  V30 2123 C 197.094 -1.50553 -2.60296 0
M  V30 2124 C 198.642 -1.50988 -2.74175 0
M  V30 2125 C 199.117 -2.41488 -3.89163 0
M  V30 2126 N 200.608 -2.39489 -3.96483 0
M  V30 2127 C 201.343 -3.06223 -4.84784 0
M  V30 2128 N 200.839 -3.82206 -5.77833 0
M  V30 2129 N 202.632 -2.95421 -4.78208 0
M  V30 2130 H 194.783 -1.83644 -1.06718 0
M  V30 2131 H 197.046 -0.786455 -0.529332 0
M  V30 2132 H 196.752 -2.54581 -2.42654 0
M  V30 2133 H 196.626 -1.22008 -3.56923 0
M  V30 2134 H 199.013 -0.47708 -2.91218 0
M  V30 2135 H 199.094 -1.83567 -1.78148 0
M  V30 2136 H 198.738 -3.44857 -3.72876 0
M  V30 2137 H 198.668 -2.06222 -4.84541 0
M  V30 2138 H 201.159 -1.84278 -3.29924 0
M  V30 2139 H 201.472 -4.302 -6.41988 0
M  V30 2140 H 199.817 -3.86313 -5.77743 0
M  V30 2141 H 203.008 -2.35581 -4.04499 0
M  V30 2142 H 203.181 -3.47704 -5.46814 0
M  V30 2143 N 196.587 1.43421 -0.653314 0
M  V30 2144 C 197.55 2.29182 0.0287951 0
M  V30 2145 C 198.55 1.42213 0.750465 0
M  V30 2146 O 199.74 1.63843 0.591701 0
M  V30 2147 C 196.872 3.24278 1.05151 0
M  V30 2148 H 198.065 2.90985 -0.725786 0
M  V30 2149 H 195.618 1.50702 -0.414545 0
M  V30 2150 H 196.353 2.6737 1.83532 0
M  V30 2151 H 196.138 3.88396 0.537687 0
M  V30 2152 H 197.628 3.88647 1.52786 0
M  V30 2153 N 198.065 0.39524 1.52563 0
M  V30 2154 C 199.314 -0.186321 2.00838 0
M  V30 2155 C 199.627 -1.47402 1.28577 0
M  V30 2156 O 200.833 -2.13599 1.67593 0
M  V30 2157 C 199.289 -0.382595 3.57861 0
M  V30 2158 C 198.897 0.892202 4.39026 0
M  V30 2159 C 200.641 -0.9202 4.14406 0
M  V30 2160 C 198.548 0.66388 5.87662 0
M  V30 2161 H 197.478 -0.0734041 0.750418 0
M  V30 2162 H 200.129 0.518552 1.76021 0
M  V30 2163 H 198.511 -1.14946 3.7895 0
M  V30 2164 H 199.685 1.66414 4.29701 0
M  V30 2165 H 198 1.35519 3.9373 0
M  V30 2166 H 200.597 -1.10683 5.23119 0
M  V30 2167 H 200.94 -1.89096 3.70875 0
M  V30 2168 H 201.473 -0.212751 3.97231 0
M  V30 2169 H 198.212 1.6058 6.35527 0
M  V30 2170 H 197.732 -0.0690193 5.9976 0
M  V30 2171 H 199.411 0.300699 6.46301 0
M  V30 2172 N 199.544 -1.57102 0.125237 0
M  V30 2173 C 200.454 -2.19191 -0.8362 0
M  V30 2174 C 201.47 -1.16985 -1.28805 0
M  V30 2175 O 202.646 -1.49479 -1.34974 0
M  V30 2176 C 199.711 -2.78407 -2.06617 0
M  V30 2177 C 198.772 -3.9567 -1.66565 0
M  V30 2178 C 198.005 -4.52052 -2.83698 0
M  V30 2179 O 198.228 -4.07326 -3.99302 0
M  V30 2180 O 197.162 -5.42645 -2.60423 0
M  V30 2181 H 200.988 -3.01816 -0.337776 0
M  V30 2182 H 198.573 -1.4906 -0.100695 0
M  V30 2183 H 200.455 -3.16129 -2.7864 0
M  V30 2184 H 199.13 -1.9881 -2.55453 0
M  V30 2185 H 198.037 -3.62705 -0.916296 0
M  V30 2186 H 199.37 -4.76722 -1.22464 0
M  V30 2187 N 201.022 0.148545 -1.56898 0
M  V30 2188 C 201.954 1.20852 -1.9475 0
M  V30 2189 C 202.967 1.39265 -0.843152 0
M  V30 2190 O 204.156 1.38864 -1.12156 0
M  V30 2191 C 201.256 2.57362 -2.20495 0
M  V30 2192 C 200.429 2.59947 -3.51776 0
M  V30 2193 C 199.488 3.77984 -3.6608 0
M  V30 2194 O 198.514 3.62929 -4.38487 0
M  V30 2195 N 199.716 4.95375 -3.02629 0
M  V30 2196 H 202.481 0.886804 -2.86279 0
M  V30 2197 H 200.042 0.338121 -1.5833 0
M  V30 2198 H 202.034 3.34833 -2.27307 0
M  V30 2199 H 200.604 2.81832 -1.35238 0
M  V30 2200 H 199.824 1.68403 -3.56419 0
M  V30 2201 H 201.112 2.58704 -4.38121 0
M  V30 2202 H 200.51 5.10509 -2.43715 0
M  V30 2203 H 199.067 5.70627 -3.15004 0
M  V30 2204 N 202.5 1.5196 0.417844 0
M  V30 2205 C 203.43 1.77634 1.51554 0
M  V30 2206 C 204.411 0.626918 1.58126 0
M  V30 2207 O 205.596 0.871632 1.7354 0
M  V30 2208 C 202.726 1.91911 2.8946 0
M  V30 2209 C 201.68 3.07463 2.97743 0
M  V30 2210 C 201.006 3.06951 4.37819 0
M  V30 2211 C 202.306 4.47082 2.70027 0
M  V30 2212 H 204 2.6955 1.3032 0
M  V30 2213 H 201.546 1.29706 0.625492 0
M  V30 2214 H 203.499 2.08455 3.6623 0
M  V30 2215 H 202.223 0.966598 3.11969 0
M  V30 2216 H 200.882 2.90656 2.23416 0
M  V30 2217 H 200.53 2.09438 4.57323 0
M  V30 2218 H 200.23 3.84556 4.44286 0
M  V30 2219 H 201.754 3.25613 5.16535 0
M  V30 2220 H 203.168 4.6414 3.36522 0
M  V30 2221 H 201.565 5.2654 2.87881 0
M  V30 2222 H 202.635 4.55777 1.65514 0
M  V30 2223 N 203.978 -0.674533 1.42435 0
M  V30 2224 C 204.941 -1.76986 1.45632 0
M  V30 2225 C 205.941 -1.5708 0.343871 0
M  V30 2226 O 207.131 -1.63367 0.604709 0
M  V30 2227 C 204.263 -3.15623 1.28822 0
M  V30 2228 H 205.456 -1.75539 2.43158 0
M  V30 2229 H 203.009 -0.884189 1.28887 0
M  V30 2230 H 203.744 -3.22696 0.322193 0
M  V30 2231 H 203.529 -3.31475 2.09444 0
M  V30 2232 H 205.019 -3.95537 1.33942 0
M  V30 2233 N 205.456 -1.28612 -0.910864 0
M  V30 2234 C 206.419 -1.12803 -1.9952 0
M  V30 2235 C 207.419 -0.0668264 -1.60661 0
M  V30 2236 O 208.609 -0.312847 -1.71368 0
M  V30 2237 C 205.741 -0.72254 -3.33155 0
M  V30 2238 H 206.934 -2.09109 -2.14973 0
M  V30 2239 H 204.487 -1.11639 -1.09391 0
M  V30 2240 H 205.222 0.241152 -3.23402 0
M  V30 2241 H 205.007 -1.48916 -3.62721 0
M  V30 2242 H 206.497 -0.634666 -4.12749 0
M  V30 2243 N 206.934 1.1197 -1.10907 0
M  V30 2244 C 207.867 2.16998 -0.706192 0
M  V30 2245 C 208.845 1.59903 0.294897 0
M  V30 2246 O 210.029 1.87513 0.192636 0
M  V30 2247 C 207.156 3.38673 -0.0427664 0
M  V30 2248 C 206.202 4.14414 -1.00811 0
M  V30 2249 S 207.035 4.72079 -2.52789 0
M  V30 2250 C 208.191 5.97083 -1.87731 0
M  V30 2251 H 208.424 2.50837 -1.59587 0
M  V30 2252 H 205.957 1.23508 -0.926555 0
M  V30 2253 H 207.915 4.09142 0.333668 0
M  V30 2254 H 206.576 3.03105 0.823788 0
M  V30 2255 H 205.769 5.016 -0.491259 0
M  V30 2256 H 205.371 3.49678 -1.3267 0
M  V30 2257 H 207.663 6.66599 -1.21044 0
M  V30 2258 H 208.606 6.53403 -2.72892 0
M  V30 2259 H 209.014 5.4837 -1.33979 0
M  V30 2260 N 208.412 0.89855 1.29475 0
M  V30 2261 C 209.689 0.443416 1.90508 0
M  V30 2262 C 210.069 -1.07685 1.81569 0
M  V30 2263 O 209.417 -1.9182 1.24166 0
M  V30 2264 C 209.627 0.956708 3.35631 0
M  V30 2265 C 210.975 0.999728 4.12663 0
M  V30 2266 O 211.999 0.904299 3.4453 0
M  V30 2267 O 210.858 1.14289 5.34416 0
M  V30 2268 H 207.952 0.138025 0.815401 0
M  V30 2269 H 210.498 0.98834 1.37949 0
M  V30 2270 H 209.27 2.00067 3.36287 0
M  V30 2271 H 208.893 0.391728 3.95666 0
M  V30 2272 O 209.929 -1.40275 0.80033 0
M  V30 2273 H 210.62 -1.90048 0.374337 0
M  V30 END ATOM
M  V30 BEGIN BOND
M  V30 END BOND
M  V30 END CTAB
M  END
$$$$
