drugbank_target|P04179 Superoxide dismutase [Mn], mitochondrial (DB03297; DB04436)
 OpenBabel12092120533D

  0  0  0     0  0            999 V3000
M  V30 BEGIN CTAB
M  V30 COUNTS 3460 3508 0 0 0
M  V30 BEGIN ATOM
M  V30 1 H -0.908 1.98254 -0.117106 0
M  V30 2 N 0 1.576 0 0
M  V30 3 C 0.933 2.03868 1.02534 0
M  V30 4 C 1.911 0.928543 1.3348 0
M  V30 5 O 3.095 1.19667 1.45644 0
M  V30 6 C 0.222 2.43627 2.35294 0
M  V30 7 C -0.732 3.65373 2.2001 0
M  V30 8 S 0.101 5.13292 1.52614 0
M  V30 9 C 1.257 5.56322 2.86805 0
M  V30 10 H 1.49 2.90518 0.631377 0
M  V30 11 H -0.977 1.52953 0.210867 0
M  V30 12 H 0.981 2.67203 3.11629 0
M  V30 13 H -0.358 1.57376 2.7183 0
M  V30 14 H -1.165 3.90944 3.18086 0
M  V30 15 H -1.563 3.418 1.51819 0
M  V30 16 H 0.729 5.58782 3.83104 0
M  V30 17 H 1.672 6.56266 2.65933 0
M  V30 18 H 2.08 4.83886 2.90714 0
M  V30 19 N 1.4781 -0.272755 1.55222 0
M  V30 20 C 2.4081 -1.34136 1.91127 0
M  V30 21 C 3.3891 -1.51513 0.773168 0
M  V30 22 O 4.5741 -1.64552 1.03132 0
M  V30 23 C 1.7041 -2.70083 2.1834 0
M  V30 24 C 0.6581 -2.67437 3.34158 0
M  V30 25 C -0.0159 -4.06938 3.46851 0
M  V30 26 C 1.2841 -2.26686 4.70543 0
M  V30 27 H 2.9781 -1.04333 2.80633 0
M  V30 28 H 0.5241 -0.500454 1.35024 0
M  V30 29 H 2.4771 -3.44952 2.42046 0
M  V30 30 H 1.2011 -3.01469 1.25634 0
M  V30 31 H -0.1399 -1.95026 3.1042 0
M  V30 32 H -0.4919 -4.35547 2.51611 0
M  V30 33 H -0.7919 -4.06062 4.2472 0
M  V30 34 H 0.7321 -4.83545 3.72849 0
M  V30 35 H 2.1461 -2.91277 4.93792 0
M  V30 36 H 0.5431 -2.36971 5.5133 0
M  V30 37 H 1.6131 -1.21818 4.69349 0
M  V30 38 N 2.9562 -1.48159 -0.537278 0
M  V30 39 C 4.1812 -1.59707 -1.32319 0
M  V30 40 C 4.6062 -0.254859 -1.86365 0
M  V30 41 O 3.9642 0.772378 -1.64024 0
M  V30 42 C 4.0122 -2.6412 -2.45505 0
M  V30 43 O 3.1162 -2.20774 -3.48328 0
M  V30 44 H 2.4572 -0.535791 -0.392204 0
M  V30 45 H 4.9872 -1.94092 -0.647268 0
M  V30 46 H 4.9972 -2.85166 -2.91795 0
M  V30 47 H 3.6722 -3.61567 -2.05528 0
M  V30 48 H 2.2492 -2.09911 -3.08207 0
M  V30 49 N 4.4343 0.785586 -1.36625 0
M  V30 50 C 5.8503 1.08419 -1.17122 0
M  V30 51 C 6.0503 2.015 0.00208491 0
M  V30 52 O 5.1063 2.43551 0.666278 0
M  V30 53 C 6.4193 1.69498 -2.48377 0
M  V30 54 C 7.9673 1.81821 -2.54775 0
M  V30 55 C 8.4423 2.46315 -3.86126 0
M  V30 56 N 9.9333 2.53779 -3.87492 0
M  V30 57 C 10.6683 3.045 -4.85868 0
M  V30 58 N 10.1643 3.55499 -5.94637 0
M  V30 59 N 11.9573 3.03247 -4.73284 0
M  V30 60 H 4.1083 0.167264 -2.1174 0
M  V30 61 H 6.3713 0.13682 -0.938075 0
M  V30 62 H 6.0773 1.08571 -3.34522 0
M  V30 63 H 5.9513 2.6896 -2.64462 0
M  V30 64 H 8.3383 2.41884 -1.69045 0
M  V30 65 H 8.4193 0.811532 -2.42586 0
M  V30 66 H 8.0633 1.86895 -4.72263 0
M  V30 67 H 7.9933 3.47561 -3.95612 0
M  V30 68 H 10.4843 2.17672 -3.08913 0
M  V30 69 H 10.7973 3.92562 -6.65669 0
M  V30 70 H 9.1423 3.5364 -5.98301 0
M  V30 71 H 12.3333 2.62696 -3.87438 0
M  V30 72 H 12.5063 3.42467 -5.50109 0
M  V30 73 N 5.9124 1.20967 1.01018 0
M  V30 74 C 6.8754 0.965918 2.07853 0
M  V30 75 C 7.8754 -0.0610545 1.60684 0
M  V30 76 O 9.0654 0.175681 1.73312 0
M  V30 77 C 6.1974 0.455513 3.37843 0
M  V30 78 H 7.3904 1.91365 2.3091 0
M  V30 79 H 4.9434 1.02594 1.17916 0
M  V30 80 H 5.6784 -0.497381 3.20463 0
M  V30 81 H 5.4634 1.19622 3.73407 0
M  V30 82 H 6.9534 0.304667 4.16487 0
M  V30 83 N 7.3905 -1.2043 1.01659 0
M  V30 84 C 8.6365 -1.90079 0.706963 0
M  V30 85 C 8.9695 -1.78648 -0.761474 0
M  V30 86 O 8.2445 -1.17069 -1.55323 0
M  V30 87 C 8.5275 -3.41469 1.14327 0
M  V30 88 C 8.3805 -3.61833 2.67201 0
M  V30 89 C 9.6995 -4.34261 0.714529 0
M  V30 90 H 6.8185 -0.690254 0.2583 0
M  V30 91 H 9.4605 -1.41826 1.26433 0
M  V30 92 H 7.6105 -3.82696 0.669056 0
M  V30 93 H 9.2825 -3.2986 3.22475 0
M  V30 94 H 7.5255 -3.05304 3.08175 0
M  V30 95 H 8.1965 -4.67955 2.92783 0
M  V30 96 H 10.6725 -4.00682 1.12221 0
M  V30 97 H 9.5485 -5.38806 1.04784 0
M  V30 98 H 9.8095 -4.40431 -0.383799 0
M  V30 99 N 8.8686 -0.792821 -1.36206 0
M  V30 100 C 10.1086 -0.372238 -2.00982 0
M  V30 101 C 10.4726 1.03749 -1.61555 0
M  V30 102 O 11.6736 1.55934 -2.18948 0
M  V30 103 C 9.9446 -0.534566 -3.5338 0
M  V30 104 S 11.5036 -0.202365 -4.38333 0
M  V30 105 H 8.3216 -0.142044 -0.696667 0
M  V30 106 H 10.9236 -1.03206 -1.66039 0
M  V30 107 H 9.6276 -1.5608 -3.79562 0
M  V30 108 H 9.1586 0.141065 -3.93147 0
M  V30 109 H 11.1736 0.994869 -4.86124 0
M  V30 110 N 10.3467 1.47872 -0.545128 0
M  V30 111 C 11.5947 2.02093 -0.016553 0
M  V30 112 C 11.9157 1.42305 1.3332 0
M  V30 113 O 11.1857 0.593853 1.86682 0
M  V30 114 H 9.7657 0.746993 -0.00313038 0
M  V30 115 H 12.4277 1.81414 -0.712397 0
M  V30 116 H 11.5237 3.11996 0.0805422 0
M  V30 117 N 11.8248 0.280983 1.55075 0
M  V30 118 C 13.0528 -0.337293 2.04132 0
M  V30 119 C 13.4678 -1.4903 1.15912 0
M  V30 120 O 12.8248 -1.81606 0.180459 0
M  V30 121 C 12.8758 -0.812706 3.52246 0
M  V30 122 O 12.5968 0.294387 4.3711 0
M  V30 123 C 14.0978 -1.4982 4.17216 0
M  V30 124 H 11.3178 -0.0761638 0.666663 0
M  V30 125 H 13.8618 0.414787 2.00249 0
M  V30 126 H 12.0168 -1.51486 3.56554 0
M  V30 127 H 12.4308 -0.0721325 5.2445 0
M  V30 128 H 13.9048 -1.7822 5.22438 0
M  V30 129 H 14.3818 -2.43168 3.65741 0
M  V30 130 H 14.9878 -0.839742 4.16927 0
M  V30 131 N 13.3029 -1.57598 0.00835791 0
M  V30 132 C 14.5279 -1.95617 -0.689103 0
M  V30 133 C 14.9529 -0.883753 -1.66046 0
M  V30 134 O 14.3109 0.157352 -1.80616 0
M  V30 135 C 14.3589 -3.32736 -1.38994 0
M  V30 136 O 13.4629 -3.27631 -2.50463 0
M  V30 137 H 12.8039 -0.638379 -0.182668 0
M  V30 138 H 15.3339 -2.045 0.064036 0
M  V30 139 H 15.3439 -3.68494 -1.75147 0
M  V30 140 H 14.0189 -4.1034 -0.677778 0
M  V30 141 H 12.5959 -3.03561 -2.16576 0
M  V30 142 N 14.781 0.264519 -1.55364 0
M  V30 143 C 16.197 0.61215 -1.47394 0
M  V30 144 C 16.397 1.89134 -0.695018 0
M  V30 145 O 15.453 2.51563 -0.217275 0
M  V30 146 C 16.766 0.731235 -2.91674 0
M  V30 147 C 18.314 0.82473 -3.01939 0
M  V30 148 C 18.789 0.975522 -4.4749 0
M  V30 149 N 20.28 1.04083 -4.51354 0
M  V30 150 C 21.015 1.17646 -5.61201 0
M  V30 151 N 20.511 1.27874 -6.80896 0
M  V30 152 N 22.304 1.20823 -5.48961 0
M  V30 153 H 14.455 -0.575456 -2.04456 0
M  V30 154 H 16.718 -0.196099 -0.927496 0
M  V30 155 H 16.424 -0.138392 -3.51428 0
M  V30 156 H 16.298 1.60883 -3.41169 0
M  V30 157 H 18.685 1.68482 -2.42276 0
M  V30 158 H 18.766 -0.0776479 -2.55682 0
M  V30 159 H 18.41 0.120058 -5.07758 0
M  V30 160 H 18.34 1.89268 -4.91412 0
M  V30 161 H 20.831 0.973846 -3.65136 0
M  V30 162 H 21.144 1.38081 -7.60364 0
M  V30 163 H 19.489 1.24863 -6.83692 0
M  V30 164 H 22.68 1.12469 -4.54388 0
M  V30 165 H 22.853 1.31049 -6.3461 0
M  V30 166 N 16.2591 1.48442 0.529413 0
M  V30 167 C 17.1911 1.59095 1.64989 0
M  V30 168 C 18.2041 0.475212 1.5571 0
M  V30 169 O 19.3931 0.746081 1.6216 0
M  V30 170 C 16.4931 1.50518 3.0364 0
M  V30 171 C 15.6661 2.77142 3.38395 0
M  V30 172 C 14.7251 2.62012 4.56329 0
M  V30 173 O 13.7511 3.35898 4.59522 0
M  V30 174 N 14.9531 1.71667 5.54536 0
M  V30 175 H 17.7181 2.55723 1.56287 0
M  V30 176 H 15.2791 1.45173 0.716697 0
M  V30 177 H 17.2711 1.38091 3.80412 0
M  V30 178 H 15.8411 0.618627 3.06418 0
M  V30 179 H 15.0611 3.0413 2.50796 0
M  V30 180 H 16.3491 3.61146 3.58401 0
M  V30 181 H 15.7471 1.10841 5.54735 0
M  V30 182 H 14.3041 1.65178 6.30523 0
M  V30 183 N 17.7372 -0.778329 1.37039 0
M  V30 184 C 18.6672 -1.90546 1.34962 0
M  V30 185 C 19.6482 -1.68681 0.219274 0
M  V30 186 O 20.8332 -1.89634 0.418624 0
M  V30 187 C 17.9632 -3.27734 1.14925 0
M  V30 188 C 16.9172 -3.64147 2.24902 0
M  V30 189 C 16.2432 -4.99806 1.89996 0
M  V30 190 C 17.5432 -3.71579 3.67051 0
M  V30 191 H 19.2372 -1.92541 2.29277 0
M  V30 192 H 16.7832 -0.924948 1.10366 0
M  V30 193 H 18.7362 -4.06215 1.12104 0
M  V30 194 H 17.4602 -3.26154 0.170631 0
M  V30 195 H 16.1192 -2.8797 2.26868 0
M  V30 196 H 15.7672 -4.94759 0.906796 0
M  V30 197 H 15.4672 -5.25139 2.63634 0
M  V30 198 H 16.9912 -5.80694 1.88749 0
M  V30 199 H 18.4052 -4.40227 3.67251 0
M  V30 200 H 16.8022 -4.08405 4.39688 0
M  V30 201 H 17.8722 -2.72404 4.01154 0
M  V30 202 N 19.2153 -1.21501 -1.00376 0
M  V30 203 C 20.1783 -0.976927 -2.07337 0
M  V30 204 C 21.1783 0.0525322 -1.60714 0
M  V30 205 O 22.3683 -0.184869 -1.73216 0
M  V30 206 C 19.5003 -0.473423 -3.37597 0
M  V30 207 H 20.6933 -1.92587 -2.29892 0
M  V30 208 H 18.2463 -1.03217 -1.17371 0
M  V30 209 H 18.9813 0.480379 -3.20722 0
M  V30 210 H 18.7663 -1.216 -3.72768 0
M  V30 211 H 20.2563 -0.32675 -4.1632 0
M  V30 212 N 20.6934 1.19889 -1.02296 0
M  V30 213 C 22.1044 1.71124 -0.746568 0
M  V30 214 C 22.4554 1.81939 0.734335 0
M  V30 215 O 21.5804 1.48639 1.57275 0
M  V30 216 C 22.1754 3.10804 -1.34857 0
M  V30 217 C 20.7344 3.59323 -1.1209 0
M  V30 218 C 19.8814 2.3635 -1.45031 0
M  V30 219 H 22.8324 1.04813 -1.19163 0
M  V30 220 H 22.8534 3.73186 -0.742437 0
M  V30 221 H 22.3654 3.029 -2.42638 0
M  V30 222 H 20.4664 3.7255 -0.0610337 0
M  V30 223 H 20.5794 4.4378 -1.80544 0
M  V30 224 H 18.9434 2.39399 -0.869487 0
M  V30 225 H 19.7264 2.31081 -2.53883 0
M  V30 226 N 22.1715 0.800033 1.35784 0
M  V30 227 C 23.1345 0.211565 2.28221 0
M  V30 228 C 24.1345 -0.59728 1.49296 0
M  V30 229 O 25.3245 -0.416721 1.69142 0
M  V30 230 C 22.4565 -0.705846 3.33513 0
M  V30 231 H 23.6495 1.02677 2.81776 0
M  V30 232 H 21.2025 0.570211 1.45528 0
M  V30 233 H 21.9375 -1.54498 2.85133 0
M  V30 234 H 21.7225 -0.127655 3.91892 0
M  V30 235 H 23.2125 -1.11211 4.02519 0
M  V30 236 N 23.6496 -1.47581 0.552962 0
M  V30 237 C 24.5796 -2.32762 -0.185451 0
M  V30 238 C 25.5606 -1.43527 -0.912905 0
M  V30 239 O 26.7456 -1.72388 -0.894201 0
M  V30 240 C 23.8756 -3.25219 -1.21859 0
M  V30 241 C 22.8296 -4.23661 -0.607864 0
M  V30 242 C 22.1556 -5.05413 -1.74533 0
M  V30 243 C 23.4556 -5.20481 0.435582 0
M  V30 244 H 25.1496 -2.94749 0.525684 0
M  V30 245 H 22.6956 -1.41738 0.254251 0
M  V30 246 H 24.6486 -3.8365 -1.7433 0
M  V30 247 H 23.3726 -2.61279 -1.95961 0
M  V30 248 H 22.0316 -3.66451 -0.104489 0
M  V30 249 H 21.6796 -4.3788 -2.47529 0
M  V30 250 H 21.3796 -5.72059 -1.34249 0
M  V30 251 H 22.9036 -5.66701 -2.27338 0
M  V30 252 H 24.3176 -5.733 -0.00290157 0
M  V30 253 H 22.7146 -5.95305 0.757067 0
M  V30 254 H 23.7846 -4.66217 1.33303 0
M  V30 255 N 25.1277 -0.289203 -1.54924 0
M  V30 256 C 26.3757 0.322879 -1.99504 0
M  V30 257 C 26.6967 1.55313 -1.1791 0
M  V30 258 O 25.9667 1.94001 -0.272097 0
M  V30 259 H 24.5467 0.122291 -0.736922 0
M  V30 260 H 27.2087 -0.397802 -1.90797 0
M  V30 261 H 26.3047 0.603061 -3.06218 0
M  V30 262 N 26.6058 1.57591 -0.0167156 0
M  V30 263 C 27.8358 1.95292 0.674149 0
M  V30 264 C 28.2438 0.891097 1.66901 0
M  V30 265 O 27.5868 -0.136908 1.83189 0
M  V30 266 C 27.6488 3.29072 1.44747 0
M  V30 267 C 27.3128 4.52879 0.612331 0
M  V30 268 C 28.3098 5.1979 -0.107126 0
M  V30 269 C 25.9948 4.99242 0.553381 0
M  V30 270 C 27.9888 6.31375 -0.874339 0
M  V30 271 C 25.6758 6.10713 -0.217546 0
M  V30 272 C 26.6738 6.76637 -0.930123 0
M  V30 273 O 26.3618 7.85969 -1.68844 0
M  V30 274 H 26.0938 0.648275 0.191615 0
M  V30 275 H 28.6478 2.05284 -0.0690148 0
M  V30 276 H 26.8778 3.15535 2.2355 0
M  V30 277 H 28.5668 3.51764 2.02526 0
M  V30 278 H 29.3328 4.84948 -0.0708392 0
M  V30 279 H 25.2118 4.47744 1.09757 0
M  V30 280 H 28.7558 6.82764 -1.43106 0
M  V30 281 H 24.6528 6.44994 -0.255593 0
M  V30 282 H 25.4208 8.02571 -1.6069 0
M  V30 283 N 28.0839 -0.256276 1.55502 0
M  V30 284 C 29.0139 -1.32102 1.92539 0
M  V30 285 C 29.9949 -1.50684 0.789194 0
M  V30 286 O 31.1799 -1.63449 1.04872 0
M  V30 287 C 28.3099 -2.67752 2.21192 0
M  V30 288 C 27.2639 -2.63878 3.36975 0
M  V30 289 C 26.5899 -4.03236 3.51147 0
M  V30 290 C 27.8899 -2.21682 4.72921 0
M  V30 291 H 29.5839 -1.01351 2.81724 0
M  V30 292 H 27.1299 -0.486105 1.35547 0
M  V30 293 H 29.0829 -3.42365 2.45691 0
M  V30 294 H 27.8069 -3.0012 1.28824 0
M  V30 295 H 26.4659 -1.91722 3.12471 0
M  V30 296 H 26.1139 -4.32854 2.56216 0
M  V30 297 H 25.8139 -4.01535 4.29003 0
M  V30 298 H 27.3379 -4.79563 3.77957 0
M  V30 299 H 28.7519 -2.86023 4.96854 0
M  V30 300 H 27.1489 -2.3111 5.53812 0
M  V30 301 H 28.2189 -1.16833 4.70615 0
M  V30 302 N 29.562 -1.4872 -0.521534 0
M  V30 303 C 30.81 -1.56857 -1.27437 0
M  V30 304 C 31.131 -0.247982 -1.93417 0
M  V30 305 O 30.401 0.731151 -1.81744 0
M  V30 306 H 28.981 -0.577885 -0.473347 0
M  V30 307 H 31.643 -1.85233 -0.606205 0
M  V30 308 H 30.739 -2.35402 -2.0492 0
M  V30 309 N 31.0401 0.771051 -1.3745 0
M  V30 310 C 32.2651 1.56529 -1.36065 0
M  V30 311 C 32.6901 1.88029 0.0515859 0
M  V30 312 O 32.0481 1.49282 1.02882 0
M  V30 313 C 32.0961 2.85187 -2.20683 0
M  V30 314 O 31.2001 3.79593 -1.61193 0
M  V30 315 H 30.5411 0.47411 -0.464883 0
M  V30 316 H 33.0711 0.954269 -1.80983 0
M  V30 317 H 33.0811 3.34283 -2.33921 0
M  V30 318 H 31.7561 2.61588 -3.23334 0
M  V30 319 H 30.3331 3.38239 -1.56999 0
M  V30 320 N 32.5182 1.22032 0.997298 0
M  V30 321 C 33.9342 0.979326 1.26021 0
M  V30 322 C 34.1342 -0.32972 1.98784 0
M  V30 323 O 33.1902 -1.05345 2.29475 0
M  V30 324 C 34.5032 2.17509 2.07631 0
M  V30 325 C 36.0512 2.21817 2.2083 0
M  V30 326 C 36.5262 3.40933 3.05825 0
M  V30 327 N 38.0172 3.41067 3.13412 0
M  V30 328 C 38.7522 4.29885 3.79455 0
M  V30 329 N 38.2482 5.28914 4.47462 0
M  V30 330 N 40.0412 4.17673 3.76173 0
M  V30 331 H 32.1922 2.06202 0.509352 0
M  V30 332 H 34.4552 0.90334 0.287541 0
M  V30 333 H 34.1612 3.12415 1.61524 0
M  V30 334 H 34.0352 2.17206 3.08385 0
M  V30 335 H 36.4222 1.27462 2.66153 0
M  V30 336 H 36.5032 2.2616 1.1952 0
M  V30 337 H 36.1472 4.35586 2.61203 0
M  V30 338 H 36.0772 3.33829 4.07266 0
M  V30 339 H 38.5682 2.69406 2.65007 0
M  V30 340 H 38.8812 5.92973 4.95583 0
M  V30 341 H 37.2262 5.32831 4.46224 0
M  V30 342 H 40.4172 3.39564 3.22202 0
M  V30 343 H 40.5902 4.87098 4.27363 0
M  V30 344 N 33.9963 -1.19345 1.0293 0
M  V30 345 C 34.9283 -2.22036 0.56857 0
M  V30 346 C 35.9413 -1.58865 -0.355779 0
M  V30 347 O 37.1303 -1.77851 -0.152103 0
M  V30 348 C 34.2303 -3.38363 -0.190752 0
M  V30 349 C 33.4033 -4.31118 0.738643 0
M  V30 350 C 32.4623 -5.26194 0.0246497 0
M  V30 351 O 31.4883 -5.65461 0.651354 0
M  V30 352 N 32.6903 -5.66971 -1.24594 0
M  V30 353 H 35.4553 -2.6219 1.45177 0
M  V30 354 H 33.0163 -1.34015 0.908381 0
M  V30 355 H 35.0083 -3.98981 -0.677961 0
M  V30 356 H 33.5783 -2.96994 -0.975366 0
M  V30 357 H 32.7983 -3.68276 1.40593 0
M  V30 358 H 34.0863 -4.90001 1.37029 0
M  V30 359 H 33.4843 -5.37104 -1.77583 0
M  V30 360 H 32.0413 -6.2984 -1.67764 0
M  V30 361 N 35.4744 -0.807222 -1.35358 0
M  V30 362 C 36.4214 -0.216037 -2.29787 0
M  V30 363 C 37.3914 0.650278 -1.52842 0
M  V30 364 O 38.5764 0.595227 -1.81278 0
M  V30 365 C 35.7164 0.628893 -3.39321 0
M  V30 366 C 34.8294 -0.257927 -4.31229 0
M  V30 367 C 33.9644 0.595069 -5.27856 0
M  V30 368 C 33.0034 -0.292111 -6.11403 0
M  V30 369 N 32.1404 0.520895 -7.00165 0
M  V30 370 H 36.9804 -1.02671 -2.79755 0
M  V30 371 H 34.5174 -0.517839 -1.37684 0
M  V30 372 H 36.4754 1.13393 -4.01494 0
M  V30 373 H 35.1054 1.40482 -2.90628 0
M  V30 374 H 34.1574 -0.881076 -3.70056 0
M  V30 375 H 35.4694 -0.940759 -4.89848 0
M  V30 376 H 34.6234 1.16522 -5.95405 0
M  V30 377 H 33.3624 1.31146 -4.69736 0
M  V30 378 H 32.3674 -0.874525 -5.428 0
M  V30 379 H 33.5924 -1.00638 -6.71602 0
M  V30 380 H 31.5384 1.22125 -6.44532 0
M  V30 381 H 31.4554 -0.103877 -7.55929 0
M  V30 382 H 32.7234 1.0743 -7.72062 0
M  V30 383 N 36.9525 1.47285 -0.560781 0
M  V30 384 C 37.9025 2.27073 0.205384 0
M  V30 385 C 38.8865 1.34569 0.882044 0
M  V30 386 O 40.0785 1.58899 0.77976 0
M  V30 387 C 37.2075 3.20414 1.23247 0
M  V30 388 C 36.2935 4.20399 0.559041 0
M  V30 389 N 36.6845 5.04423 -0.372927 0
M  V30 390 C 34.9825 4.38536 0.812522 0
M  V30 391 C 35.6835 5.76655 -0.764446 0
M  V30 392 N 34.6595 5.43471 -0.11848 0
M  V30 393 H 38.4615 2.89422 -0.511117 0
M  V30 394 H 35.9755 1.57868 -0.380975 0
M  V30 395 H 37.9725 3.76262 1.79534 0
M  V30 396 H 36.6325 2.59623 1.95002 0
M  V30 397 H 37.6435 5.1248 -0.747287 0
M  V30 398 H 34.3205 3.88913 1.51832 0
M  V30 399 H 35.7105 6.54238 -1.53045 0
M  V30 400 N 38.4306 0.297415 1.54768 0
M  V30 401 C 39.6556 -0.318435 2.04941 0
M  V30 402 C 40.0806 -1.4701 1.17345 0
M  V30 403 O 39.4386 -1.80436 0.176758 0
M  V30 404 C 39.4866 -0.755749 3.52592 0
M  V30 405 O 38.5906 -1.86088 3.68028 0
M  V30 406 H 37.9316 -0.062421 0.661059 0
M  V30 407 H 40.4616 0.438215 1.99852 0
M  V30 408 H 40.4716 -1.04552 3.94376 0
M  V30 409 H 39.1466 0.0867233 4.1581 0
M  V30 410 H 37.7236 -1.57193 3.38149 0
M  V30 411 N 39.9087 -1.5758 0.0250728 0
M  V30 412 C 40.8387 -2.13007 -0.956575 0
M  V30 413 C 41.8197 -1.0452 -1.342 0
M  V30 414 O 43.0047 -1.32332 -1.42133 0
M  V30 415 C 40.1347 -2.65386 -2.24026 0
M  V30 416 C 39.0887 -3.78623 -1.99571 0
M  V30 417 C 38.4147 -4.17414 -3.3417 0
M  V30 418 C 39.7147 -5.04867 -1.33814 0
M  V30 419 H 41.4087 -2.9528 -0.494991 0
M  V30 420 H 38.9547 -1.42042 -0.236651 0
M  V30 421 H 40.9077 -3.02794 -2.93076 0
M  V30 422 H 39.6317 -1.80268 -2.72343 0
M  V30 423 H 38.2907 -3.41646 -1.32941 0
M  V30 424 H 37.9387 -3.29284 -3.80238 0
M  V30 425 H 37.6387 -4.93719 -3.18615 0
M  V30 426 H 39.1627 -4.57402 -4.04495 0
M  V30 427 H 40.5767 -5.39888 -1.92857 0
M  V30 428 H 38.9737 -5.86144 -1.28669 0
M  V30 429 H 40.0437 -4.83904 -0.310561 0
M  V30 430 N 41.3868 0.248026 -1.55636 0
M  V30 431 C 42.7978 0.817177 -1.67866 0
M  V30 432 C 43.1488 1.86069 -0.622322 0
M  V30 433 O 42.2738 2.15157 0.231618 0
M  V30 434 C 42.8688 1.489 -3.04326 0
M  V30 435 C 41.4278 2.00587 -3.185 0
M  V30 436 C 40.5748 0.856573 -2.63739 0
M  V30 437 H 43.5258 0.0238579 -1.58682 0
M  V30 438 H 43.5468 2.35698 -2.98708 0
M  V30 439 H 43.0588 0.729279 -3.81186 0
M  V30 440 H 41.1598 2.79443 -2.4646 0
M  V30 441 H 41.2728 2.20402 -4.25393 0
M  V30 442 H 39.6368 1.25678 -2.21534 0
M  V30 443 H 40.4198 0.109953 -3.43124 0
M  V30 444 N 42.8649 1.48995 0.513639 0
M  V30 445 C 44.1419 1.48338 1.27495 0
M  V30 446 C 44.5219 0.204065 2.10111 0
M  V30 447 O 43.8699 -0.813881 2.13514 0
M  V30 448 C 44.0799 2.75498 2.14247 0
M  V30 449 C 45.4279 3.24484 2.73852 0
M  V30 450 O 46.4519 2.76528 2.24523 0
M  V30 451 O 45.3109 4.07974 3.6362 0
M  V30 452 H 42.4049 0.593149 0.576284 0
M  V30 453 H 44.9509 1.61246 0.528948 0
M  V30 454 H 43.7229 3.60109 1.53092 0
M  V30 455 H 43.3459 2.6539 2.96064 0
M  V30 456 N 44.343 -0.763751 1.37857 0
M  V30 457 C 45.273 -1.89103 1.36975 0
M  V30 458 C 46.254 -1.68439 0.237152 0
M  V30 459 O 47.439 -1.8918 0.438713 0
M  V30 460 C 44.569 -3.26496 1.18395 0
M  V30 461 C 43.523 -3.61741 2.28751 0
M  V30 462 C 42.849 -4.97762 1.95286 0
M  V30 463 C 44.149 -3.67665 3.70972 0
M  V30 464 H 45.843 -1.90099 2.31307 0
M  V30 465 H 43.389 -0.91319 1.11341 0
M  V30 466 H 45.342 -4.05003 1.16406 0
M  V30 467 H 44.066 -3.25955 0.205215 0
M  V30 468 H 42.725 -2.85547 2.29909 0
M  V30 469 H 42.373 -4.93769 0.959221 0
M  V30 470 H 42.073 -5.22313 2.69189 0
M  V30 471 H 43.597 -5.7866 1.94898 0
M  V30 472 H 45.011 -4.36307 3.719 0
M  V30 473 H 43.408 -4.03718 4.43995 0
M  V30 474 H 44.478 -2.68134 4.0402 0
M  V30 475 N 45.8211 -1.22559 -0.990812 0
M  V30 476 C 47.2321 -1.04791 -1.54518 0
M  V30 477 C 47.5831 0.387998 -1.92325 0
M  V30 478 O 46.7081 1.27328 -1.74976 0
M  V30 479 C 47.3031 -1.896 -2.80779 0
M  V30 480 C 45.8621 -1.76124 -3.32652 0
M  V30 481 C 45.0091 -1.8594 -2.05722 0
M  V30 482 H 47.9601 -1.36374 -0.811662 0
M  V30 483 H 47.9811 -1.41464 -3.53225 0
M  V30 484 H 47.4931 -2.94101 -2.53231 0
M  V30 485 H 45.5941 -0.743643 -3.65104 0
M  V30 486 H 45.7071 -2.58913 -4.03114 0
M  V30 487 H 44.0711 -1.29403 -2.19379 0
M  V30 488 H 44.8541 -2.91976 -1.80568 0
M  V30 489 N 47.2992 1.18797 -1.03562 0
M  V30 490 C 48.5292 1.92319 -0.754773 0
M  V30 491 C 48.9372 1.7612 0.691248 0
M  V30 492 O 48.2802 1.08491 1.48241 0
M  V30 493 C 48.3422 3.44284 -1.03484 0
M  V30 494 C 48.0062 3.84258 -2.47376 0
M  V30 495 C 49.0032 3.88459 -3.45537 0
M  V30 496 C 46.6882 4.15701 -2.81954 0
M  V30 497 C 48.6822 4.23545 -4.76328 0
M  V30 498 C 46.3692 4.50458 -4.12954 0
M  V30 499 C 47.3672 4.54356 -5.09951 0
M  V30 500 O 47.0552 4.88305 -6.38603 0
M  V30 501 H 46.7872 0.617527 -0.275021 0
M  V30 502 H 49.3412 1.51683 -1.38497 0
M  V30 503 H 47.5712 3.85135 -0.347513 0
M  V30 504 H 49.2602 3.99049 -0.7426 0
M  V30 505 H 50.0262 3.6431 -3.20162 0
M  V30 506 H 45.9052 4.11847 -2.0713 0
M  V30 507 H 49.4492 4.26502 -5.52035 0
M  V30 508 H 45.3462 4.74067 -4.38099 0
M  V30 509 H 46.1142 5.06227 -6.43177 0
M  V30 510 N 48.7773 0.814389 1.34928 0
M  V30 511 C 50.0543 0.321363 1.92942 0
M  V30 512 C 50.4343 -1.19014 1.74353 0
M  V30 513 O 49.7823 -1.99328 1.11716 0
M  V30 514 C 49.9923 0.741323 3.41036 0
M  V30 515 C 51.3403 0.735266 4.18185 0
M  V30 516 O 52.3643 0.68336 3.49584 0
M  V30 517 O 51.2233 0.800703 5.40602 0
M  V30 518 H 48.3173 0.0858893 0.822528 0
M  V30 519 H 50.8633 0.898609 1.43955 0
M  V30 520 H 49.6353 1.78276 3.4833 0
M  V30 521 H 49.2583 0.139307 3.97356 0
M  V30 522 N 50.2554 -1.46986 0.568584 0
M  V30 523 C 51.4854 -2.0653 0.0539173 0
M  V30 524 C 51.8934 -1.42004 -1.25026 0
M  V30 525 O 51.2364 -0.514541 -1.76347 0
M  V30 526 C 51.2984 -3.58938 -0.200854 0
M  V30 527 C 50.9624 -4.45572 1.01559 0
M  V30 528 C 51.9594 -4.82986 1.92407 0
M  V30 529 C 49.6444 -4.8692 1.23346 0
M  V30 530 C 51.6384 -5.60559 3.03402 0
M  V30 531 C 49.3254 -5.64255 2.34649 0
M  V30 532 C 50.3234 -6.00986 3.24507 0
M  V30 533 O 50.0114 -6.76761 4.33878 0
M  V30 534 H 49.7434 -0.674292 0.0480234 0
M  V30 535 H 52.2974 -1.89812 0.784896 0
M  V30 536 H 50.5274 -3.73911 -0.986279 0
M  V30 537 H 52.2164 -4.0046 -0.662294 0
M  V30 538 H 52.9824 -4.51633 1.76785 0
M  V30 539 H 48.8614 -4.57789 0.543178 0
M  V30 540 H 52.4054 -5.89147 3.73565 0
M  V30 541 H 48.3024 -5.95021 2.5024 0
M  V30 542 H 49.0704 -6.95168 4.32068 0
M  V30 543 N 51.7335 -0.305618 -1.54608 0
M  V30 544 C 52.9815 0.301701 -1.99835 0
M  V30 545 C 53.3025 1.54054 -1.19551 0
M  V30 546 O 52.5725 1.93702 -0.292658 0
M  V30 547 H 51.1525 0.114468 -0.738178 0
M  V30 548 H 53.8145 -0.418016 -1.90364 0
M  V30 549 H 52.9105 0.570548 -3.06841 0
M  V30 550 N 53.2116 1.57565 -0.0334293 0
M  V30 551 C 54.1746 2.09393 0.932048 0
M  V30 552 C 55.1746 1.00986 1.25134 0
M  V30 553 O 56.3646 1.27129 1.19096 0
M  V30 554 C 53.4966 2.56338 2.2473 0
M  V30 555 H 54.6896 2.95984 0.483085 0
M  V30 556 H 52.2426 1.54819 0.21468 0
M  V30 557 H 52.9776 1.7309 2.74245 0
M  V30 558 H 52.7626 3.35542 2.02865 0
M  V30 559 H 54.2526 2.96646 2.93923 0
M  V30 560 N 54.6897 -0.239769 1.55765 0
M  V30 561 C 55.6197 -1.30052 1.9393 0
M  V30 562 C 56.6007 -1.49839 0.805132 0
M  V30 563 O 57.7857 -1.62328 1.06599 0
M  V30 564 C 54.9157 -2.65391 2.2402 0
M  V30 565 C 53.8697 -2.60289 3.39755 0
M  V30 566 C 53.1957 -3.99489 3.55405 0
M  V30 567 C 54.4957 -2.16654 4.75246 0
M  V30 568 H 56.1897 -0.983573 2.82783 0
M  V30 569 H 53.7357 -0.471701 1.36055 0
M  V30 570 H 55.6887 -3.3974 2.49308 0
M  V30 571 H 54.4127 -2.98736 1.32 0
M  V30 572 H 53.0717 -1.88398 3.14487 0
M  V30 573 H 52.7197 -4.30112 2.60793 0
M  V30 574 H 52.4197 -3.96962 4.33238 0
M  V30 575 H 53.9437 -4.75528 3.83022 0
M  V30 576 H 55.3577 -2.80737 4.99859 0
M  V30 577 H 53.7547 -2.25223 5.56232 0
M  V30 578 H 54.8247 -1.11835 4.71827 0
M  V30 579 N 56.1678 -1.49265 -0.50573 0
M  V30 580 C 57.0778 -1.68312 -1.63427 0
M  V30 581 C 58.0938 -0.565682 -1.64548 0
M  V30 582 O 59.2698 -0.839801 -1.83055 0
M  V30 583 C 56.3348 -1.74107 -2.99813 0
M  V30 584 C 55.3958 -2.97653 -3.09356 0
M  V30 585 C 54.6288 -3.03163 -4.39236 0
M  V30 586 O 54.8518 -2.16396 -5.27758 0
M  V30 587 O 53.7858 -3.9558 -4.53652 0
M  V30 588 H 57.6118 -2.63907 -1.50289 0
M  V30 589 H 55.1968 -1.32951 -0.681502 0
M  V30 590 H 57.0788 -1.803 -3.80881 0
M  V30 591 H 55.7538 -0.816901 -3.13223 0
M  V30 592 H 54.6608 -2.96981 -2.27493 0
M  V30 593 H 55.9938 -3.89535 -3.00871 0
M  V30 594 N 57.6459 0.756429 -1.3826 0
M  V30 595 C 59.0569 1.33359 -1.30661 0
M  V30 596 C 59.4079 1.96161 0.0388875 0
M  V30 597 O 58.5329 1.94874 0.940918 0
M  V30 598 C 59.1279 2.42477 -2.36622 0
M  V30 599 C 57.6869 2.95922 -2.3261 0
M  V30 600 C 56.8339 1.69275 -2.19639 0
M  V30 601 H 59.7849 0.55552 -1.4866 0
M  V30 602 H 59.8059 3.22345 -2.02174 0
M  V30 603 H 59.3179 1.96739 -3.34538 0
M  V30 604 H 57.4189 3.45996 -1.38267 0
M  V30 605 H 57.5319 3.50494 -3.26636 0
M  V30 606 H 55.8959 1.92793 -1.66442 0
M  V30 607 H 56.6789 1.25619 -3.19491 0
M  V30 608 N 59.124 1.23083 0.984299 0
M  V30 609 C 60.074 0.975749 2.06066 0
M  V30 610 C 61.058 -0.0768251 1.60716 0
M  V30 611 O 62.25 0.134805 1.76486 0
M  V30 612 C 59.379 0.564673 3.38624 0
M  V30 613 C 58.465 1.65244 3.90583 0
M  V30 614 N 58.856 2.88193 4.15666 0
M  V30 615 C 57.154 1.52612 4.19077 0
M  V30 616 C 57.855 3.58593 4.58024 0
M  V30 617 N 56.831 2.86093 4.62225 0
M  V30 618 H 60.633 1.90957 2.23411 0
M  V30 619 H 58.147 1.12963 1.16675 0
M  V30 620 H 60.144 0.36322 4.15315 0
M  V30 621 H 58.804 -0.362147 3.22674 0
M  V30 622 H 59.815 3.24537 4.03604 0
M  V30 623 H 56.492 0.666121 4.12152 0
M  V30 624 H 57.882 4.63974 4.85982 0
M  V30 625 N 60.6021 -1.18246 1.0419 0
M  V30 626 C 61.8511 -1.87588 0.741194 0
M  V30 627 C 62.1641 -1.81303 -0.734066 0
M  V30 628 O 63.3701 -2.46019 -1.14834 0
M  V30 629 C 61.8261 -3.36538 1.27555 0
M  V30 630 C 61.4341 -3.51349 2.77953 0
M  V30 631 C 63.1781 -4.11273 1.05143 0
M  V30 632 C 61.0851 -4.94265 3.2474 0
M  V30 633 H 60.0151 -0.702622 0.273565 0
M  V30 634 H 62.6661 -1.33601 1.25789 0
M  V30 635 H 61.0481 -3.9 0.686703 0
M  V30 636 H 62.2221 -3.08153 3.42605 0
M  V30 637 H 60.5371 -2.90022 2.98791 0
M  V30 638 H 63.1341 -5.16689 1.37611 0
M  V30 639 H 63.4771 -4.16298 -0.0112774 0
M  V30 640 H 64.0101 -3.63987 1.60495 0
M  V30 641 H 60.7491 -4.94408 4.30396 0
M  V30 642 H 60.2691 -5.38172 2.64823 0
M  V30 643 H 61.9481 -5.62987 3.18834 0
M  V30 644 N 62.0802 -0.821533 -1.34494 0
M  V30 645 C 63.0282 -0.230702 -2.31453 0
M  V30 646 C 64.0222 0.627793 -1.57338 0
M  V30 647 O 65.2282 0.519288 -1.72347 0
M  V30 648 H 61.6032 -0.0558577 -0.749923 0
M  V30 649 H 63.5742 -1.06332 -2.78812 0
M  V30 650 C 62.3232 0.59391 -3.4259 0
M  V30 651 H 61.6462 -0.0573588 -3.99759 0
M  V30 652 H 63.0862 0.973446 -4.12674 0
M  V30 653 C 61.5452 1.76568 -2.86924 0
M  V30 654 O 62.0752 2.8638 -2.81691 0
M  V30 655 N 60.2812 1.58198 -2.43766 0
M  V30 656 H 59.8282 0.68872 -2.48222 0
M  V30 657 H 59.7862 2.36752 -2.06871 0
M  V30 658 N 63.5583 1.46682 -0.576371 0
M  V30 659 C 64.5213 2.28707 0.150239 0
M  V30 660 C 65.5213 1.38035 0.824794 0
M  V30 661 O 66.7113 1.60476 0.677719 0
M  V30 662 C 63.8433 3.18248 1.22192 0
M  V30 663 H 65.0363 2.94423 -0.570521 0
M  V30 664 H 62.5893 1.52688 -0.334078 0
M  V30 665 H 63.3243 2.57265 1.97447 0
M  V30 666 H 63.1093 3.85 0.742812 0
M  V30 667 H 64.5993 3.80001 1.73172 0
M  V30 668 N 65.0364 0.313813 1.54444 0
M  V30 669 C 65.9684 -0.590425 2.21465 0
M  V30 670 C 66.9814 -1.08753 1.21147 0
M  V30 671 O 68.1704 -1.00278 1.4767 0
M  V30 672 C 65.2704 -1.82179 2.85769 0
M  V30 673 C 64.4434 -1.46502 4.12136 0
M  V30 674 C 63.5024 -2.55288 4.60124 0
M  V30 675 O 62.5284 -2.19842 5.25032 0
M  V30 676 N 63.7304 -3.86053 4.33525 0
M  V30 677 H 66.4954 -0.0166033 2.99695 0
M  V30 678 H 64.0564 0.136578 1.61323 0
M  V30 679 H 66.0484 -2.54328 3.14801 0
M  V30 680 H 64.6184 -2.30369 2.11303 0
M  V30 681 H 63.8384 -0.575595 3.89975 0
M  V30 682 H 65.1264 -1.20221 4.94393 0
M  V30 683 H 64.5244 -4.17654 3.81552 0
M  V30 684 H 63.0814 -4.54461 4.67235 0
M  V30 685 N 66.5145 -1.57545 0.0417849 0
M  V30 686 C 67.7635 -1.91494 -0.633492 0
M  V30 687 C 68.0765 -0.921084 -1.72556 0
M  V30 688 O 69.2825 -1.15228 -2.45835 0
M  V30 689 C 67.7385 -3.40072 -1.17808 0
M  V30 690 C 67.3465 -4.47843 -0.118633 0
M  V30 691 C 69.0905 -3.8307 -1.82915 0
M  V30 692 C 66.9975 -5.87529 -0.675578 0
M  V30 693 H 65.9275 -0.714653 -0.24039 0
M  V30 694 H 68.5785 -1.83175 0.109148 0
M  V30 695 H 66.9605 -3.43364 -1.97274 0
M  V30 696 H 68.1345 -4.56128 0.654494 0
M  V30 697 H 66.4495 -4.14128 0.434414 0
M  V30 698 H 69.0465 -4.84794 -2.25563 0
M  V30 699 H 69.3895 -3.1881 -2.67705 0
M  V30 700 H 69.9225 -3.82255 -1.10119 0
M  V30 701 H 66.6615 -6.55362 0.134475 0
M  V30 702 H 66.1815 -5.82824 -1.4169 0
M  V30 703 H 67.8605 -6.36491 -1.1614 0
M  V30 704 N 67.9926 0.231505 -1.5589 0
M  V30 705 C 68.9256 1.31369 -1.86595 0
M  V30 706 C 69.9036 1.45671 -0.722397 0
M  V30 707 O 71.0876 1.61642 -0.969743 0
M  V30 708 C 68.2146 2.68529 -2.06421 0
M  V30 709 C 67.2606 2.71295 -3.29092 0
M  V30 710 S 68.0936 2.26358 -4.85306 0
M  V30 711 C 69.2496 3.65414 -5.08157 0
M  V30 712 H 69.4826 1.05128 -2.78092 0
M  V30 713 H 67.0156 0.433259 -1.48197 0
M  V30 714 H 68.9736 3.47499 -2.18528 0
M  V30 715 H 67.6346 2.91999 -1.15738 0
M  V30 716 H 66.8276 3.72063 -3.39978 0
M  V30 717 H 66.4296 2.0038 -3.15791 0
M  V30 718 H 68.7216 4.6103 -4.96445 0
M  V30 719 H 69.6646 3.5945 -6.10083 0
M  V30 720 H 70.0726 3.5864 -4.35933 0
M  V30 721 N 69.4707 1.49531 0.497807 0
M  V30 722 C 70.4027 1.62559 1.61578 0
M  V30 723 C 71.4157 0.508134 1.54667 0
M  V30 724 O 72.6047 0.780309 1.60541 0
M  V30 725 C 69.7047 1.56925 3.00379 0
M  V30 726 C 68.8777 2.84257 3.3244 0
M  V30 727 C 67.9367 2.71632 4.50669 0
M  V30 728 O 66.9627 3.4557 4.52294 0
M  V30 729 N 68.1647 1.83391 5.5077 0
M  V30 730 H 70.9297 2.58981 1.50828 0
M  V30 731 H 68.4907 1.4666 0.685743 0
M  V30 732 H 70.4827 1.46129 3.77397 0
M  V30 733 H 69.0527 0.683483 3.05037 0
M  V30 734 H 68.2727 3.09381 2.44289 0
M  V30 735 H 69.5607 3.68666 3.5066 0
M  V30 736 H 68.9587 1.22583 5.52259 0
M  V30 737 H 67.5157 1.78515 6.26878 0
M  V30 738 N 70.9488 -0.749086 1.3866 0
M  V30 739 C 71.8788 -1.8764 1.38973 0
M  V30 740 C 72.8598 -1.68178 0.255004 0
M  V30 741 O 74.0448 -1.88704 0.458754 0
M  V30 742 C 71.1748 -3.25222 1.21851 0
M  V30 743 C 70.1288 -3.59295 2.32575 0
M  V30 744 C 69.4548 -4.95663 2.00555 0
M  V30 745 C 70.7548 -3.63709 3.7485 0
M  V30 746 H 72.4488 -1.87635 2.3331 0
M  V30 747 H 69.9948 -0.901329 1.12303 0
M  V30 748 H 71.9478 -4.03746 1.20695 0
M  V30 749 H 70.6718 -3.25719 0.239775 0
M  V30 750 H 69.3308 -2.83093 2.32925 0
M  V30 751 H 68.9788 -4.92724 1.01154 0
M  V30 752 H 68.6788 -5.19429 2.74714 0
M  V30 753 H 70.2028 -5.7656 2.01024 0
M  V30 754 H 71.6168 -4.32338 3.76506 0
M  V30 755 H 70.0138 -3.98986 4.48252 0
M  V30 756 H 71.0838 -2.63834 4.06841 0
M  V30 757 N 72.4269 -1.23603 -0.977757 0
M  V30 758 C 73.3769 -0.986664 -2.05545 0
M  V30 759 C 74.3609 0.0683009 -1.60755 0
M  V30 760 O 75.5529 -0.144162 -1.76412 0
M  V30 761 C 72.6819 -0.582623 -3.3832 0
M  V30 762 C 71.7679 -1.67313 -3.89701 0
M  V30 763 N 72.1589 -2.90394 -4.14132 0
M  V30 764 C 70.4569 -1.54832 -4.18262 0
M  V30 765 C 71.1579 -3.61017 -4.56116 0
M  V30 766 N 70.1339 -2.8854 -4.60701 0
M  V30 767 H 73.9359 -1.92139 -2.22396 0
M  V30 768 H 71.4499 -1.1358 -1.16074 0
M  V30 769 H 73.4469 -0.38524 -4.15116 0
M  V30 770 H 72.1069 0.34503 -3.22862 0
M  V30 771 H 73.1179 -3.26673 -4.01877 0
M  V30 772 H 69.7949 -0.687969 -4.11793 0
M  V30 773 H 71.1849 -4.66544 -4.83514 0
M  V30 774 N 73.905 1.17692 -1.04816 0
M  V30 775 C 74.855 2.1952 -0.616042 0
M  V30 776 C 75.839 1.57147 0.345485 0
M  V30 777 O 77.031 1.76245 0.163325 0
M  V30 778 C 74.16 3.43298 0.0116917 0
M  V30 779 C 73.246 4.12777 -0.973435 0
M  V30 780 N 73.637 4.5814 -2.14339 0
M  V30 781 C 71.935 4.38747 -0.80108 0
M  V30 782 C 72.636 5.11713 -2.7663 0
M  V30 783 N 71.612 5.03686 -2.04453 0
M  V30 784 H 75.414 2.52293 -1.5075 0
M  V30 785 H 72.928 1.3398 -0.917776 0
M  V30 786 H 74.925 4.15519 0.339006 0
M  V30 787 H 73.585 3.12018 0.898593 0
M  V30 788 H 74.596 4.52349 -2.52191 0
M  V30 789 H 71.273 4.17485 0.0350934 0
M  V30 790 H 72.663 5.56962 -3.75823 0
M  V30 791 N 75.3831 0.828654 1.34056 0
M  V30 792 C 76.6081 0.431637 2.02859 0
M  V30 793 C 77.0331 -0.956339 1.61975 0
M  V30 794 O 76.3911 -1.62338 0.807228 0
M  V30 795 C 76.4391 0.548323 3.56407 0
M  V30 796 O 75.5431 -0.429556 4.10157 0
M  V30 797 H 74.8841 0.176886 0.640006 0
M  V30 798 H 77.4141 1.12066 1.71179 0
M  V30 799 H 77.4241 0.426196 4.05768 0
M  V30 800 H 76.0991 1.5606 3.8551 0
M  V30 801 H 74.6761 -0.265836 3.71951 0
M  V30 802 N 76.8612 -1.46375 0.584142 0
M  V30 803 C 77.8082 -2.30323 -0.148286 0
M  V30 804 C 78.7782 -1.40703 -0.882713 0
M  V30 805 O 79.9632 -1.69651 -0.873099 0
M  V30 806 C 77.1032 -3.25196 -1.15507 0
M  V30 807 C 76.2162 -4.29915 -0.423943 0
M  V30 808 C 75.3512 -5.11914 -1.41838 0
M  V30 809 C 74.3902 -6.08381 -0.673736 0
M  V30 810 N 73.5272 -6.83242 -1.6163 0
M  V30 811 H 78.3672 -2.92427 0.573644 0
M  V30 812 H 75.9042 -1.44118 0.294703 0
M  V30 813 H 77.8622 -3.78646 -1.75166 0
M  V30 814 H 76.4922 -2.64898 -1.8447 0
M  V30 815 H 75.5442 -3.7931 0.287714 0
M  V30 816 H 76.8562 -4.98549 0.158128 0
M  V30 817 H 76.0102 -5.69648 -2.08773 0
M  V30 818 H 74.7492 -4.43243 -2.03438 0
M  V30 819 H 73.7542 -5.49799 0.00938483 0
M  V30 820 H 74.9792 -6.79071 -0.0631082 0
M  V30 821 H 72.9252 -6.1728 -2.22038 0
M  V30 822 H 72.8422 -7.48144 -1.08707 0
M  V30 823 H 74.1102 -7.45534 -2.27596 0
M  V30 824 N 78.3393 -0.321999 -1.54275 0
M  V30 825 C 79.2893 0.560185 -2.21011 0
M  V30 826 C 80.2733 1.08283 -1.19011 0
M  V30 827 O 81.4653 1.02011 -1.44647 0
M  V30 828 C 78.5943 1.72137 -2.97025 0
M  V30 829 C 77.6803 1.21369 -4.06363 0
M  V30 830 N 78.0713 0.425566 -5.04007 0
M  V30 831 C 76.3693 1.49255 -4.20284 0
M  V30 832 C 77.0703 0.152601 -5.815 0
M  V30 833 N 76.0463 0.738294 -5.38563 0
M  V30 834 H 79.8483 -0.049265 -2.93859 0
M  V30 835 H 77.3623 -0.127779 -1.61897 0
M  V30 836 H 79.3593 2.36512 -3.43319 0
M  V30 837 H 78.0193 2.33431 -2.25699 0
M  V30 838 H 79.0303 0.068551 -5.17855 0
M  V30 839 H 75.7073 2.11145 -3.60172 0
M  V30 840 H 77.0973 -0.481764 -6.70171 0
M  V30 841 N 79.8174 1.5752 -0.0501392 0
M  V30 842 C 80.7674 2.07981 0.934231 0
M  V30 843 C 81.7514 0.984745 1.27246 0
M  V30 844 O 82.9434 1.24809 1.25506 0
M  V30 845 C 80.0724 2.62751 2.20945 0
M  V30 846 C 79.1584 3.79225 1.89865 0
M  V30 847 N 79.5494 4.89036 1.29142 0
M  V30 848 C 77.8474 3.88111 2.19741 0
M  V30 849 C 78.5484 5.70084 1.15669 0
M  V30 850 N 77.5244 5.17659 1.65923 0
M  V30 851 H 81.3264 2.90277 0.460053 0
M  V30 852 H 78.8404 1.61665 0.15434 0
M  V30 853 H 80.8374 2.97205 2.9236 0
M  V30 854 H 79.4974 1.81894 2.6897 0
M  V30 855 H 80.5084 5.08854 0.963756 0
M  V30 856 H 77.1854 3.18194 2.70293 0
M  V30 857 H 78.5754 6.68395 0.685356 0
M  V30 858 N 81.2955 -0.223234 1.56011 0
M  V30 859 C 82.2585 -1.26014 1.9145 0
M  V30 860 C 83.2585 -1.3989 0.792937 0
M  V30 861 O 84.4485 -1.38184 1.0607 0
M  V30 862 C 81.5805 -2.63422 2.16383 0
M  V30 863 H 82.7735 -0.95796 2.84189 0
M  V30 864 H 80.3265 -0.463576 1.49267 0
M  V30 865 H 81.0615 -2.98741 1.2619 0
M  V30 866 H 80.8465 -2.54728 2.98088 0
M  V30 867 H 82.3365 -3.38249 2.44903 0
M  V30 868 N 82.7736 -1.49793 -0.48987 0
M  V30 869 C 83.7366 -1.66752 -1.57246 0
M  V30 870 C 84.7366 -0.538867 -1.51502 0
M  V30 871 O 85.9266 -0.805545 -1.54456 0
M  V30 872 C 83.0586 -1.67528 -2.96896 0
M  V30 873 H 84.2516 -2.63321 -1.43534 0
M  V30 874 H 81.8046 -1.38992 -0.714914 0
M  V30 875 H 82.5396 -0.725837 -3.16073 0
M  V30 876 H 82.3246 -2.49504 -3.02473 0
M  V30 877 H 83.8146 -1.82667 -3.7553 0
M  V30 878 N 84.2517 0.741722 -1.39055 0
M  V30 879 C 85.4817 1.52876 -1.3897 0
M  V30 880 C 85.8897 1.8919 0.0193266 0
M  V30 881 O 85.2327 1.54138 0.999356 0
M  V30 882 C 85.2947 2.84929 -2.19216 0
M  V30 883 C 84.9587 2.71086 -3.67915 0
M  V30 884 C 85.9557 2.40084 -4.61146 0
M  V30 885 C 83.6407 2.88168 -4.11418 0
M  V30 886 C 85.6347 2.26335 -5.95862 0
M  V30 887 C 83.3217 2.74037 -5.46211 0
M  V30 888 C 84.3197 2.43166 -6.38247 0
M  V30 889 O 84.0077 2.29115 -7.70559 0
M  V30 890 H 83.7397 0.479252 -0.476753 0
M  V30 891 H 86.2937 0.924751 -1.83405 0
M  V30 892 H 84.5237 3.47564 -1.69518 0
M  V30 893 H 86.2127 3.46509 -2.11392 0
M  V30 894 H 86.9787 2.26545 -4.28838 0
M  V30 895 H 82.8577 3.11191 -3.40119 0
M  V30 896 H 86.4017 2.0216 -6.67665 0
M  V30 897 H 82.2987 2.87153 -5.78112 0
M  V30 898 H 83.0667 2.44237 -7.81211 0
M  V30 899 N 85.7298 1.2412 0.971189 0
M  V30 900 C 86.9758 1.08041 1.71625 0
M  V30 901 C 87.3088 -0.380407 1.90438 0
M  V30 902 O 86.5838 -1.28127 1.46334 0
M  V30 903 C 86.8668 1.81682 3.10908 0
M  V30 904 C 86.7198 3.35493 2.99608 0
M  V30 905 C 88.0388 1.58671 4.10501 0
M  V30 906 H 85.1578 0.39388 0.622919 0
M  V30 907 H 87.7998 1.52743 1.13003 0
M  V30 908 H 85.9498 1.43684 3.60953 0
M  V30 909 H 87.6218 3.83068 2.57015 0
M  V30 910 H 85.8648 3.64052 2.35899 0
M  V30 911 H 86.5358 3.82217 3.98264 0
M  V30 912 H 89.0118 1.91719 3.69301 0
M  V30 913 H 87.8878 2.1266 5.06031 0
M  V30 914 H 88.1488 0.524161 4.38982 0
M  V30 915 N 87.2079 -1.17134 1.05439 0
M  V30 916 C 88.1559 -2.23289 0.651511 0
M  V30 917 C 89.1499 -1.66186 -0.328411 0
M  V30 918 O 90.3559 -1.78949 -0.194206 0
M  V30 919 H 86.7309 -0.726938 0.192523 0
M  V30 920 H 88.7019 -2.54565 1.55689 0
M  V30 921 C 87.4509 -3.47671 0.0448436 0
M  V30 922 H 86.7739 -3.91918 0.78996 0
M  V30 923 H 88.2139 -4.2353 -0.19964 0
M  V30 924 C 86.6729 -3.14453 -1.20918 0
M  V30 925 O 87.2029 -3.29459 -2.29825 0
M  V30 926 N 85.4089 -2.68657 -1.10779 0
M  V30 927 H 84.9559 -2.56646 -0.221526 0
M  V30 928 H 84.9139 -2.46804 -1.9477 0
M  V30 929 N 88.686 -0.835752 -1.33615 0
M  V30 930 C 89.634 -0.255238 -2.31195 0
M  V30 931 C 90.628 0.61107 -1.57995 0
M  V30 932 O 91.834 0.500979 -1.72888 0
M  V30 933 H 88.209 -0.0638085 -0.749288 0
M  V30 934 H 90.18 -1.09283 -2.77669 0
M  V30 935 C 88.929 0.55754 -3.43201 0
M  V30 936 H 88.252 -0.0997553 -3.99676 0
M  V30 937 H 89.692 0.929622 -4.13683 0
M  V30 938 C 88.151 1.73515 -2.88781 0
M  V30 939 O 88.681 2.83376 -2.84712 0
M  V30 940 N 86.887 1.55603 -2.4543 0
M  V30 941 H 86.434 0.662354 -2.48939 0
M  V30 942 H 86.392 2.34545 -2.09371 0
M  V30 943 N 90.1641 1.46063 -0.591896 0
M  V30 944 C 91.0941 2.33172 0.123673 0
M  V30 945 C 92.0751 1.45897 0.87453 0
M  V30 946 O 93.2601 1.74698 0.848181 0
M  V30 947 C 90.3901 3.28336 1.13194 0
M  V30 948 C 89.3441 4.25124 0.495324 0
M  V30 949 C 88.6701 5.09863 1.61071 0
M  V30 950 C 89.9701 5.19143 -0.573425 0
M  V30 951 H 91.6641 2.93252 -0.603646 0
M  V30 952 H 89.2101 1.41014 -0.291741 0
M  V30 953 H 91.1631 3.88137 1.64097 0
M  V30 954 H 89.8871 2.66383 1.88965 0
M  V30 955 H 88.5461 3.66599 0.00729452 0
M  V30 956 H 88.1941 4.44288 2.35832 0
M  V30 957 H 87.8941 5.75417 1.19035 0
M  V30 958 H 89.4181 5.72529 2.12233 0
M  V30 959 H 90.8321 5.73106 -0.1491 0
M  V30 960 H 89.2291 5.93089 -0.914636 0
M  V30 961 H 90.2991 4.62519 -1.45617 0
M  V30 962 N 91.6422 0.330177 1.54103 0
M  V30 963 C 92.5902 -0.548226 2.26047 0
M  V30 964 C 93.5842 -1.11309 1.27698 0
M  V30 965 O 94.7902 -1.06036 1.45452 0
M  V30 966 H 91.1652 -0.195456 0.726155 0
M  V30 967 H 93.1362 0.0807567 2.98291 0
M  V30 968 C 91.8852 -1.69415 3.03634 0
M  V30 969 H 91.2082 -1.26876 3.79134 0
M  V30 970 H 92.6482 -2.28423 3.5721 0
M  V30 971 C 91.1072 -2.61569 2.12328 0
M  V30 972 O 91.6372 -3.63462 1.7105 0
M  V30 973 N 89.8432 -2.29952 1.77681 0
M  V30 974 H 89.3902 -1.47134 2.11446 0
M  V30 975 H 89.3482 -2.91871 1.16869 0
M  V30 976 N 93.1203 -1.57491 0.0584922 0
M  V30 977 C 94.3663 -1.93264 -0.614558 0
M  V30 978 C 94.6993 -0.937717 -1.7006 0
M  V30 979 O 93.9743 0.0351652 -1.94468 0
M  V30 980 C 94.2573 -3.3938 -1.20386 0
M  V30 981 C 94.1103 -4.49625 -0.125375 0
M  V30 982 C 95.4293 -3.86039 -2.11334 0
M  V30 983 H 92.5483 -0.702791 -0.221933 0
M  V30 984 H 95.1903 -1.8961 0.12175 0
M  V30 985 H 93.3403 -3.42626 -1.83139 0
M  V30 986 H 95.0123 -4.58506 0.506971 0
M  V30 987 H 93.2553 -4.30354 0.545672 0
M  V30 988 H 93.9263 -5.48967 -0.577861 0
M  V30 989 H 96.4023 -3.84716 -1.58534 0
M  V30 990 H 95.2783 -4.88914 -2.49507 0
M  V30 991 H 95.5393 -3.23215 -3.01636 0
M  V30 992 N 94.5984 0.214957 -1.56127 0
M  V30 993 C 95.8264 0.955092 -1.83536 0
M  V30 994 C 96.2414 1.77677 -0.638472 0
M  V30 995 O 95.5984 1.78219 0.392968 0
M  V30 996 C 95.6494 1.86734 -3.09536 0
M  V30 997 O 95.3704 1.07887 -4.24608 0
M  V30 998 C 96.8714 2.72082 -3.4998 0
M  V30 999 H 94.0914 0.279611 -0.609966 0
M  V30 1000 H 96.6354 0.228197 -2.03223 0
M  V30 1001 H 94.7904 2.5481 -2.91806 0
M  V30 1002 H 95.2044 1.69872 -4.9623 0
M  V30 1003 H 96.6784 3.31782 -4.41163 0
M  V30 1004 H 97.1554 3.44806 -2.7204 0
M  V30 1005 H 97.7614 2.09409 -3.70173 0
M  V30 1006 N 96.0765 1.50051 0.48192 0
M  V30 1007 C 96.9865 1.7089 1.60728 0
M  V30 1008 C 98.0025 0.591788 1.63627 0
M  V30 1009 O 99.1785 0.868817 1.81696 0
M  V30 1010 C 96.2435 1.78855 2.97005 0
M  V30 1011 C 95.3045 3.02537 3.04581 0
M  V30 1012 C 94.5375 3.10112 4.34357 0
M  V30 1013 O 94.7605 2.24765 5.24249 0
M  V30 1014 O 93.6945 4.02747 4.47301 0
M  V30 1015 H 97.5205 2.66264 1.46072 0
M  V30 1016 H 95.1055 1.34018 0.660264 0
M  V30 1017 H 96.9875 1.86336 3.77964 0
M  V30 1018 H 95.6625 0.866628 3.11883 0
M  V30 1019 H 94.5695 3.00563 2.22739 0
M  V30 1020 H 95.9025 3.94272 2.94636 0
M  V30 1021 N 97.5546 -0.734337 1.39446 0
M  V30 1022 C 98.4646 -1.87879 1.40495 0
M  V30 1023 C 99.4806 -1.714 0.299672 0
M  V30 1024 O 100.657 -1.93991 0.541249 0
M  V30 1025 C 97.7216 -3.23477 1.24754 0
M  V30 1026 C 96.7826 -3.52344 2.45259 0
M  V30 1027 C 96.0156 -4.81473 2.30259 0
M  V30 1028 O 96.2386 -5.55237 1.30643 0
M  V30 1029 O 95.1726 -5.10254 3.19256 0
M  V30 1030 H 98.9986 -1.89949 2.36966 0
M  V30 1031 H 96.5836 -0.882243 1.20569 0
M  V30 1032 H 98.4656 -4.04509 1.18111 0
M  V30 1033 H 97.1406 -3.22176 0.313781 0
M  V30 1034 H 96.0476 -2.71396 2.57478 0
M  V30 1035 H 97.3806 -3.58426 3.37331 0
M  V30 1036 N 99.0327 -1.24633 -0.964593 0
M  V30 1037 C 99.9797 -1.04144 -2.05968 0
M  V30 1038 C 100.95 0.046262 -1.66036 0
M  V30 1039 O 102.135 -0.108972 -1.90489 0
M  V30 1040 C 99.2747 -0.65563 -3.38815 0
M  V30 1041 C 98.3877 -1.81714 -3.91923 0
M  V30 1042 C 97.5227 -1.37662 -5.13052 0
M  V30 1043 C 96.5617 -2.50788 -5.58365 0
M  V30 1044 N 95.6987 -2.07582 -6.70712 0
M  V30 1045 H 100.539 -1.9787 -2.22827 0
M  V30 1046 H 98.0757 -0.9855 -1.09208 0
M  V30 1047 H 100.034 -0.412954 -4.15151 0
M  V30 1048 H 98.6637 0.244627 -3.21872 0
M  V30 1049 H 97.7157 -2.1734 -3.12198 0
M  V30 1050 H 99.0277 -2.66705 -4.21509 0
M  V30 1051 H 98.1817 -1.093 -5.96773 0
M  V30 1052 H 96.9207 -0.497293 -4.85158 0
M  V30 1053 H 95.9257 -2.79906 -4.73215 0
M  V30 1054 H 97.1507 -3.39283 -5.88272 0
M  V30 1055 H 95.0967 -1.22051 -6.44546 0
M  V30 1056 H 95.0137 -2.86125 -6.99763 0
M  V30 1057 H 96.2817 -1.82369 -7.57867 0
M  V30 1058 N 100.511 1.16574 -1.06058 0
M  V30 1059 C 101.741 1.90675 -0.795397 0
M  V30 1060 C 102.149 1.77547 0.653735 0
M  V30 1061 O 101.492 1.11611 1.45907 0
M  V30 1062 C 101.554 3.42011 -1.10764 0
M  V30 1063 C 101.218 3.78924 -2.55471 0
M  V30 1064 C 102.215 3.81042 -3.53699 0
M  V30 1065 C 99.8998 4.09626 -2.90708 0
M  V30 1066 C 101.894 4.13346 -4.85205 0
M  V30 1067 C 99.5808 4.41597 -4.22416 0
M  V30 1068 C 100.579 4.43436 -5.19474 0
M  V30 1069 O 100.267 4.74649 -6.48817 0
M  V30 1070 H 99.9988 0.611554 -0.288058 0
M  V30 1071 H 102.553 1.48711 -1.41683 0
M  V30 1072 H 100.783 3.84312 -0.429128 0
M  V30 1073 H 102.472 3.97384 -0.827077 0
M  V30 1074 H 103.238 3.57437 -3.27817 0
M  V30 1075 H 99.1168 4.07361 -2.15819 0
M  V30 1076 H 102.661 4.14696 -5.60957 0
M  V30 1077 H 98.5578 4.64667 -4.48056 0
M  V30 1078 H 99.3258 4.9247 -6.5377 0
M  V30 1079 N 101.989 0.842826 1.3317 0
M  V30 1080 C 102.921 0.236245 2.27979 0
M  V30 1081 C 103.934 -0.585282 1.51915 0
M  V30 1082 O 105.123 -0.411705 1.73687 0
M  V30 1083 C 102.223 -0.685717 3.3189 0
M  V30 1084 C 101.396 0.0973448 4.37292 0
M  V30 1085 C 100.455 -0.748565 5.20848 0
M  V30 1086 O 99.4809 -0.186339 5.68895 0
M  V30 1087 N 100.683 -2.06527 5.42519 0
M  V30 1088 H 103.448 1.05088 2.80672 0
M  V30 1089 H 101.009 0.701667 1.45905 0
M  V30 1090 H 103.001 -1.25669 3.84694 0
M  V30 1091 H 101.571 -1.40105 2.79445 0
M  V30 1092 H 100.791 0.849706 3.84933 0
M  V30 1093 H 102.079 0.635643 5.04814 0
M  V30 1094 H 101.477 -2.54554 5.05192 0
M  V30 1095 H 100.034 -2.58464 5.98364 0
M  V30 1096 N 103.467 -1.45747 0.599634 0
M  V30 1097 C 104.377 -2.34262 -0.125888 0
M  V30 1098 C 105.393 -1.50768 -0.868625 0
M  V30 1099 O 106.569 -1.83592 -0.828003 0
M  V30 1100 C 103.634 -3.28252 -1.11587 0
M  V30 1101 C 102.695 -4.27651 -0.375956 0
M  V30 1102 C 101.928 -5.1715 -1.31877 0
M  V30 1103 O 102.151 -5.09916 -2.55621 0
M  V30 1104 O 101.085 -5.96286 -0.820157 0
M  V30 1105 H 104.911 -2.97688 0.601315 0
M  V30 1106 H 102.496 -1.44999 0.359934 0
M  V30 1107 H 104.378 -3.86191 -1.68626 0
M  V30 1108 H 103.053 -2.67401 -1.82424 0
M  V30 1109 H 101.96 -3.7335 0.236698 0
M  V30 1110 H 103.293 -4.91334 0.29177 0
M  V30 1111 N 104.945 -0.338344 -1.53925 0
M  V30 1112 C 105.908 0.508299 -2.23493 0
M  V30 1113 C 106.908 1.03175 -1.23335 0
M  V30 1114 O 108.098 0.921826 -1.47811 0
M  V30 1115 C 105.23 1.70754 -2.95052 0
M  V30 1116 H 106.423 -0.100058 -2.99733 0
M  V30 1117 H 103.976 -0.0896198 -1.56043 0
M  V30 1118 H 104.711 2.35474 -2.22986 0
M  V30 1119 H 104.496 1.33946 -3.68512 0
M  V30 1120 H 105.986 2.30818 -3.48013 0
M  V30 1121 N 106.423 1.57458 -0.0668435 0
M  V30 1122 C 107.353 2.15468 0.899764 0
M  V30 1123 C 108.334 1.08042 1.31381 0
M  V30 1124 O 109.519 1.36054 1.38574 0
M  V30 1125 C 106.649 2.71232 2.16911 0
M  V30 1126 C 105.603 3.83781 1.89463 0
M  V30 1127 C 104.929 4.26127 3.22986 0
M  V30 1128 C 106.229 5.08238 1.20381 0
M  V30 1129 H 107.923 2.96488 0.416529 0
M  V30 1130 H 105.469 1.4262 0.198908 0
M  V30 1131 H 107.422 3.10458 2.84945 0
M  V30 1132 H 106.146 1.87426 2.67468 0
M  V30 1133 H 104.805 3.45051 1.23836 0
M  V30 1134 H 104.453 3.39249 3.71374 0
M  V30 1135 H 104.153 5.01993 3.05413 0
M  V30 1136 H 105.677 4.67966 3.92225 0
M  V30 1137 H 107.091 5.44811 1.78475 0
M  V30 1138 H 105.488 5.89349 1.13083 0
M  V30 1139 H 106.558 4.84558 0.182153 0
M  V30 1140 N 107.901 -0.206675 1.56239 0
M  V30 1141 C 108.864 -1.23976 1.92776 0
M  V30 1142 C 109.864 -1.39041 0.807729 0
M  V30 1143 O 111.054 -1.37051 1.0753 0
M  V30 1144 C 108.186 -2.61112 2.19165 0
M  V30 1145 H 109.379 -0.927764 2.85189 0
M  V30 1146 H 106.932 -0.447718 1.4975 0
M  V30 1147 H 107.667 -2.97386 1.29352 0
M  V30 1148 H 107.452 -2.51552 3.00772 0
M  V30 1149 H 108.942 -3.35633 2.48476 0
M  V30 1150 N 109.379 -1.50304 -0.473955 0
M  V30 1151 C 110.326 -1.68959 -1.57231 0
M  V30 1152 C 111.296 -0.530899 -1.57387 0
M  V30 1153 O 112.481 -0.761133 -1.74961 0
M  V30 1154 C 109.621 -1.7871 -2.95223 0
M  V30 1155 C 108.734 -3.06061 -3.04878 0
M  V30 1156 C 107.869 -3.06626 -4.33767 0
M  V30 1157 C 106.908 -4.28443 -4.37154 0
M  V30 1158 N 106.045 -4.26763 -5.5751 0
M  V30 1159 H 110.885 -2.6273 -1.40631 0
M  V30 1160 H 108.422 -1.30241 -0.683789 0
M  V30 1161 H 110.38 -1.82344 -3.75242 0
M  V30 1162 H 109.01 -0.883806 -3.10465 0
M  V30 1163 H 108.062 -3.11911 -2.17751 0
M  V30 1164 H 109.374 -3.96039 -3.0324 0
M  V30 1165 H 108.528 -3.08973 -5.22131 0
M  V30 1166 H 107.267 -2.14473 -4.3801 0
M  V30 1167 H 106.272 -4.2631 -3.47188 0
M  V30 1168 H 107.497 -5.2182 -4.34605 0
M  V30 1169 H 105.443 -3.37462 -5.62544 0
M  V30 1170 H 105.36 -5.10507 -5.57601 0
M  V30 1171 H 106.628 -4.33253 -6.48006 0
M  V30 1172 N 110.857 0.726932 -1.39834 0
M  V30 1173 C 112.105 1.4837 -1.37225 0
M  V30 1174 C 112.426 1.94979 0.0284857 0
M  V30 1175 O 111.696 1.69555 0.981213 0
M  V30 1176 H 110.276 0.55043 -0.505011 0
M  V30 1177 H 112.938 0.862468 -1.74778 0
M  V30 1178 H 112.034 2.36198 -2.04003 0
M  V30 1179 N 112.336 1.25143 0.95797 0
M  V30 1180 C 113.613 1.00472 1.67823 0
M  V30 1181 C 113.993 -0.470056 2.058 0
M  V30 1182 O 113.341 -1.44663 1.76875 0
M  V30 1183 C 113.551 1.9372 2.90299 0
M  V30 1184 C 114.899 2.21371 3.62326 0
M  V30 1185 O 115.923 1.91451 3.00375 0
M  V30 1186 O 114.782 2.72231 4.7387 0
M  V30 1187 H 111.876 0.380752 0.734137 0
M  V30 1188 H 114.422 1.36283 1.01119 0
M  V30 1189 H 113.194 2.93316 2.59001 0
M  V30 1190 H 112.817 1.58286 3.64735 0
M  V30 1191 N 113.814 -1.1601 1.06675 0
M  V30 1192 C 115.06 -1.86909 0.786945 0
M  V30 1193 C 115.393 -1.81717 -0.685018 0
M  V30 1194 O 114.668 -1.23551 -1.50218 0
M  V30 1195 C 114.951 -3.36313 1.28707 0
M  V30 1196 C 114.804 -3.50175 2.82308 0
M  V30 1197 C 116.123 -4.3084 0.898071 0
M  V30 1198 H 113.242 -0.678677 0.287343 0
M  V30 1199 H 115.884 -1.36336 1.32334 0
M  V30 1200 H 114.034 -3.79513 0.830768 0
M  V30 1201 H 115.706 -3.15886 3.36175 0
M  V30 1202 H 113.949 -2.91959 3.20847 0
M  V30 1203 H 114.62 -4.55116 3.12368 0
M  V30 1204 H 117.096 -3.95561 1.29114 0
M  V30 1205 H 115.972 -5.33876 1.27543 0
M  V30 1206 H 116.233 -4.41662 -0.196651 0
M  V30 1207 N 115.292 -0.849877 -1.32721 0
M  V30 1208 C 116.52 -0.464754 -2.01613 0
M  V30 1209 C 116.935 0.937191 -1.63897 0
M  V30 1210 O 116.292 1.61081 -0.857856 0
M  V30 1211 C 116.343 -0.588638 -3.56675 0
M  V30 1212 O 116.064 -1.93535 -3.93034 0
M  V30 1213 C 117.565 -0.2019 -4.4284 0
M  V30 1214 H 114.785 -0.183215 -0.645502 0
M  V30 1215 H 117.329 -1.1455 -1.69407 0
M  V30 1216 H 115.484 0.0443159 -3.87375 0
M  V30 1217 H 115.898 -1.92871 -4.87751 0
M  V30 1218 H 117.372 -0.339599 -5.50954 0
M  V30 1219 H 117.849 0.857224 -4.30753 0
M  V30 1220 H 118.455 -0.809733 -4.17521 0
M  V30 1221 N 116.77 1.45427 -0.607355 0
M  V30 1222 C 117.733 2.28974 0.101693 0
M  V30 1223 C 118.733 1.39754 0.795329 0
M  V30 1224 O 119.923 1.61878 0.643527 0
M  V30 1225 C 117.055 3.20768 1.15414 0
M  V30 1226 H 118.248 2.93147 -0.632844 0
M  V30 1227 H 115.801 1.51945 -0.366391 0
M  V30 1228 H 116.536 2.61395 1.91945 0
M  V30 1229 H 116.321 3.86489 0.66098 0
M  V30 1230 H 117.811 3.83589 1.65073 0
M  V30 1231 N 118.248 0.346503 1.53744 0
M  V30 1232 C 119.18 -0.543316 2.22667 0
M  V30 1233 C 120.193 -1.06159 1.23427 0
M  V30 1234 O 121.382 -0.971235 1.49764 0
M  V30 1235 C 118.482 -1.76076 2.89569 0
M  V30 1236 C 117.655 -1.37727 4.15151 0
M  V30 1237 C 116.714 -2.45471 4.65436 0
M  V30 1238 O 115.74 -2.08655 5.29577 0
M  V30 1239 N 116.942 -3.7677 4.41616 0
M  V30 1240 H 119.707 0.0469703 2.99663 0
M  V30 1241 H 117.268 0.170766 1.60997 0
M  V30 1242 H 119.26 -2.47593 3.20125 0
M  V30 1243 H 117.83 -2.25835 2.16142 0
M  V30 1244 H 117.05 -0.492746 3.91108 0
M  V30 1245 H 118.338 -1.09708 4.96832 0
M  V30 1246 H 117.736 -4.09467 3.90325 0
M  V30 1247 H 116.293 -4.44448 4.7677 0
M  V30 1248 N 119.726 -1.57421 0.075193 0
M  V30 1249 C 120.975 -1.92794 -0.592731 0
M  V30 1250 C 121.288 -0.957478 -1.70563 0
M  V30 1251 O 122.494 -1.20417 -2.43335 0
M  V30 1252 C 120.95 -3.42495 -1.10569 0
M  V30 1253 C 120.558 -4.47994 -0.0236121 0
M  V30 1254 C 122.302 -3.86864 -1.74748 0
M  V30 1255 C 120.209 -5.88829 -0.550803 0
M  V30 1256 H 119.139 -0.719591 -0.225177 0
M  V30 1257 H 121.79 -1.82902 0.147978 0
M  V30 1258 H 120.172 -3.47471 -1.89947 0
M  V30 1259 H 121.346 -4.54637 0.751099 0
M  V30 1260 H 119.661 -4.13113 0.522159 0
M  V30 1261 H 122.258 -4.8947 -2.15229 0
M  V30 1262 H 122.601 -3.24417 -2.60882 0
M  V30 1263 H 123.134 -3.84504 -1.01986 0
M  V30 1264 H 119.873 -6.54929 0.273457 0
M  V30 1265 H 119.393 -5.85698 -1.29296 0
M  V30 1266 H 121.072 -6.38811 -1.02613 0
M  V30 1267 N 121.204 0.198386 -1.56346 0
M  V30 1268 C 122.167 1.22952 -1.93431 0
M  V30 1269 C 123.167 1.38611 -0.815092 0
M  V30 1270 O 124.357 1.36479 -1.08255 0
M  V30 1271 C 121.489 2.59946 -2.20546 0
M  V30 1272 H 122.682 0.912626 -2.85677 0
M  V30 1273 H 120.235 0.43977 -1.49986 0
M  V30 1274 H 120.97 2.96696 -1.30927 0
M  V30 1275 H 120.755 2.49953 -3.02102 0
M  V30 1276 H 122.245 3.3431 -2.50253 0
M  V30 1277 N 122.682 1.50554 0.465978 0
M  V30 1278 C 123.612 1.72722 1.57128 0
M  V30 1279 C 124.593 0.576294 1.6004 0
M  V30 1280 O 125.778 0.81598 1.76225 0
M  V30 1281 C 122.908 1.82605 2.95419 0
M  V30 1282 C 121.862 2.97835 3.07373 0
M  V30 1283 C 121.188 2.92867 4.47363 0
M  V30 1284 C 122.488 4.38265 2.84114 0
M  V30 1285 H 124.182 2.65267 1.38829 0
M  V30 1286 H 121.728 1.2765 0.666441 0
M  V30 1287 H 123.681 1.96698 3.72677 0
M  V30 1288 H 122.405 0.866858 3.14886 0
M  V30 1289 H 121.064 2.83401 2.3255 0
M  V30 1290 H 120.712 1.94783 4.63755 0
M  V30 1291 H 120.412 3.70227 4.56296 0
M  V30 1292 H 121.936 3.09015 5.26633 0
M  V30 1293 H 123.35 4.53198 3.51118 0
M  V30 1294 H 121.747 5.17115 3.04487 0
M  V30 1295 H 122.817 4.50281 1.7993 0
M  V30 1296 N 124.16 -0.719506 1.40217 0
M  V30 1297 C 125.092 -1.84428 1.36084 0
M  V30 1298 C 126.105 -1.60597 0.266913 0
M  V30 1299 O 127.294 -1.70544 0.526983 0
M  V30 1300 C 124.394 -3.20757 1.094 0
M  V30 1301 C 123.567 -3.71817 2.30372 0
M  V30 1302 C 122.626 -4.86748 1.99907 0
M  V30 1303 O 121.652 -4.99603 2.72737 0
M  V30 1304 N 122.854 -5.7226 0.974635 0
M  V30 1305 H 125.619 -1.88473 2.33019 0
M  V30 1306 H 123.18 -0.900885 1.3452 0
M  V30 1307 H 125.172 -3.95235 0.870116 0
M  V30 1308 H 123.742 -3.11884 0.211452 0
M  V30 1309 H 122.962 -2.88514 2.68614 0
M  V30 1310 H 124.25 -4.02666 3.11026 0
M  V30 1311 H 123.648 -5.6448 0.371368 0
M  V30 1312 H 122.205 -6.46739 0.810656 0
M  V30 1313 N 125.638 -1.25649 -0.95132 0
M  V30 1314 C 127.049 -1.09654 -1.51106 0
M  V30 1315 C 127.4 0.326615 -1.93462 0
M  V30 1316 O 126.525 1.21697 -1.78938 0
M  V30 1317 C 127.12 -1.98437 -2.74605 0
M  V30 1318 C 125.679 -1.86618 -3.2688 0
M  V30 1319 C 124.826 -1.9239 -1.99703 0
M  V30 1320 H 127.777 -1.38887 -0.767865 0
M  V30 1321 H 127.798 -1.5263 -3.48546 0
M  V30 1322 H 127.31 -3.02009 -2.43746 0
M  V30 1323 H 125.411 -0.859421 -3.62553 0
M  V30 1324 H 125.524 -2.71607 -3.94673 0
M  V30 1325 H 123.888 -1.36317 -2.15151 0
M  V30 1326 H 124.671 -2.97573 -1.71188 0
M  V30 1327 N 127.117 1.15442 -1.07289 0
M  V30 1328 C 128.08 2.18358 -0.696591 0
M  V30 1329 C 129.08 1.58637 0.262837 0
M  V30 1330 O 130.27 1.74145 0.0438809 0
M  V30 1331 C 127.402 3.4089 -0.0266151 0
M  V30 1332 H 128.595 2.53162 -1.60776 0
M  V30 1333 H 126.148 1.29893 -0.869342 0
M  V30 1334 H 126.883 3.11653 0.896822 0
M  V30 1335 H 126.668 3.85495 -0.716657 0
M  V30 1336 H 128.158 4.17009 0.222028 0
M  V30 1337 N 128.595 0.856903 1.32268 0
M  V30 1338 C 129.525 0.31858 2.31316 0
M  V30 1339 C 130.506 -0.583487 1.59779 0
M  V30 1340 O 131.691 -0.503259 1.87566 0
M  V30 1341 C 128.821 -0.491979 3.43798 0
M  V30 1342 C 127.775 0.315849 4.26833 0
M  V30 1343 C 127.101 -0.619586 5.31098 0
M  V30 1344 C 128.401 1.54282 4.98993 0
M  V30 1345 H 130.095 1.14621 2.76591 0
M  V30 1346 H 127.641 0.552613 1.32974 0
M  V30 1347 H 129.594 -0.879012 4.1213 0
M  V30 1348 H 128.318 -1.35299 2.97257 0
M  V30 1349 H 126.977 0.684664 3.6015 0
M  V30 1350 H 126.625 -1.47751 4.8081 0
M  V30 1351 H 126.325 -0.0830621 5.87541 0
M  V30 1352 H 127.849 -1.00375 6.02293 0
M  V30 1353 H 129.263 1.22796 5.59995 0
M  V30 1354 H 127.66 2.01745 5.65172 0
M  V30 1355 H 128.73 2.30285 4.26728 0
M  V30 1356 N 130.073 -1.45103 0.615059 0
M  V30 1357 C 131.02 -2.30586 -0.0993978 0
M  V30 1358 C 131.99 -1.42544 -0.852669 0
M  V30 1359 O 133.175 -1.71465 -0.836917 0
M  V30 1360 C 130.315 -3.27572 -1.08583 0
M  V30 1361 C 129.428 -4.30717 -0.332656 0
M  V30 1362 C 128.563 -5.14807 -1.30947 0
M  V30 1363 C 127.602 -6.09673 -0.544538 0
M  V30 1364 N 126.739 -6.86517 -1.47101 0
M  V30 1365 H 131.579 -2.91144 0.635542 0
M  V30 1366 H 129.116 -1.4346 0.325206 0
M  V30 1367 H 131.074 -3.82276 -1.67095 0
M  V30 1368 H 129.704 -2.68751 -1.78809 0
M  V30 1369 H 128.756 -3.78615 0.368107 0
M  V30 1370 H 130.068 -4.98102 0.263842 0
M  V30 1371 H 129.222 -5.73948 -1.96643 0
M  V30 1372 H 127.961 -4.47458 -1.9399 0
M  V30 1373 H 126.966 -5.49656 0.126003 0
M  V30 1374 H 128.191 -6.79052 0.080947 0
M  V30 1375 H 126.137 -6.21851 -2.08895 0
M  V30 1376 H 126.054 -7.50281 -0.928137 0
M  V30 1377 H 127.322 -7.50194 -2.11731 0
M  V30 1378 N 131.551 -0.354651 -1.53558 0
M  V30 1379 C 132.798 0.238443 -2.01091 0
M  V30 1380 C 133.126 1.49663 -1.24222 0
M  V30 1381 O 132.381 1.93049 -0.321003 0
M  V30 1382 C 132.68 0.587121 -3.52545 0
M  V30 1383 C 132.346 -0.575472 -4.47213 0
M  V30 1384 C 131.008 -0.894497 -4.72813 0
M  V30 1385 C 133.36 -1.35489 -5.03281 0
M  V30 1386 C 130.688 -1.99511 -5.51736 0
M  V30 1387 C 133.04 -2.44583 -5.83405 0
M  V30 1388 C 131.704 -2.77033 -6.07296 0
M  V30 1389 H 130.974 0.0872526 -0.735845 0
M  V30 1390 H 133.621 -0.484859 -1.8526 0
M  V30 1391 H 131.926 1.39129 -3.66265 0
M  V30 1392 H 133.623 1.05809 -3.86789 0
M  V30 1393 H 130.213 -0.316774 -4.27428 0
M  V30 1394 H 134.397 -1.12167 -4.83459 0
M  V30 1395 H 129.653 -2.25063 -5.68469 0
M  V30 1396 H 133.827 -3.05401 -6.25862 0
M  V30 1397 H 131.454 -3.6244 -6.68237 0
M  V30 1398 N 133.029 1.57378 -0.0835403 0
M  V30 1399 C 133.977 2.14602 0.89714 0
M  V30 1400 C 134.971 1.08589 1.30018 0
M  V30 1401 O 136.177 1.26952 1.27606 0
M  V30 1402 H 132.552 0.686346 0.3073 0
M  V30 1403 H 134.523 2.95845 0.38969 0
M  V30 1404 C 133.272 2.73188 2.15089 0
M  V30 1405 H 132.595 3.54442 1.84962 0
M  V30 1406 H 134.035 3.1681 2.81793 0
M  V30 1407 C 132.494 1.68517 2.91725 0
M  V30 1408 O 133.024 1.11718 3.85852 0
M  V30 1409 N 131.23 1.39277 2.55049 0
M  V30 1410 H 130.777 1.85655 1.78577 0
M  V30 1411 H 130.735 0.694791 3.06627 0
M  V30 1412 N 134.507 -0.190092 1.56449 0
M  V30 1413 C 135.755 -0.907908 1.80559 0
M  V30 1414 C 136.076 -1.83583 0.657438 0
M  V30 1415 O 135.346 -1.93203 -0.323924 0
M  V30 1416 H 133.926 -0.338247 0.666032 0
M  V30 1417 H 136.588 -0.194403 1.93928 0
M  V30 1418 H 135.684 -1.49604 2.73907 0
M  V30 1419 N 135.985 -1.50799 -0.457987 0
M  V30 1420 C 137.233 -1.62121 -1.2067 0
M  V30 1421 C 137.554 -0.329793 -1.92191 0
M  V30 1422 O 136.824 0.653409 -1.84682 0
M  V30 1423 H 135.404 -0.597441 -0.448411 0
M  V30 1424 H 138.066 -1.87637 -0.527096 0
M  V30 1425 H 137.162 -2.43882 -1.94751 0
M  V30 1426 N 137.463 0.71206 -1.40597 0
M  V30 1427 C 138.711 1.46907 -1.38791 0
M  V30 1428 C 139.032 1.94998 0.00780391 0
M  V30 1429 O 138.302 1.70587 0.963174 0
M  V30 1430 H 136.882 0.545043 -0.51082 0
M  V30 1431 H 139.544 0.843882 -1.75683 0
M  V30 1432 H 138.64 2.34021 -2.06496 0
M  V30 1433 N 138.941 1.26152 0.944643 0
M  V30 1434 C 139.891 1.04081 2.02857 0
M  V30 1435 C 140.875 -0.0256555 1.6088 0
M  V30 1436 O 142.067 0.190884 1.75968 0
M  V30 1437 C 139.196 0.672118 3.36656 0
M  V30 1438 C 138.282 1.77586 3.85128 0
M  V30 1439 N 138.673 3.01272 4.06287 0
M  V30 1440 C 136.971 1.65867 4.1401 0
M  V30 1441 C 137.672 3.72983 4.46384 0
M  V30 1442 N 136.648 3.00653 4.52889 0
M  V30 1443 H 140.45 1.97968 2.17223 0
M  V30 1444 H 137.964 1.16618 1.13022 0
M  V30 1445 H 139.961 0.495166 4.13949 0
M  V30 1446 H 138.621 -0.259307 3.23663 0
M  V30 1447 H 139.632 3.37213 3.93075 0
M  V30 1448 H 136.309 0.796907 4.09824 0
M  V30 1449 H 137.699 4.792 4.70975 0
M  V30 1450 N 140.419 -1.14872 1.07899 0
M  V30 1451 C 141.668 -1.85135 0.800499 0
M  V30 1452 C 141.981 -1.83547 -0.676014 0
M  V30 1453 O 143.187 -2.49548 -1.06948 0
M  V30 1454 C 141.643 -3.3231 1.38197 0
M  V30 1455 C 141.251 -3.42329 2.8899 0
M  V30 1456 C 142.995 -4.0772 1.18174 0
M  V30 1457 C 140.902 -4.83684 3.403 0
M  V30 1458 H 139.832 -0.693563 0.29578 0
M  V30 1459 H 142.483 -1.29532 1.29976 0
M  V30 1460 H 140.865 -3.87618 0.810431 0
M  V30 1461 H 142.039 -2.97097 3.52236 0
M  V30 1462 H 140.354 -2.80369 3.07867 0
M  V30 1463 H 142.951 -5.12049 1.5398 0
M  V30 1464 H 143.294 -4.16124 0.12117 0
M  V30 1465 H 143.827 -3.58696 1.71994 0
M  V30 1466 H 140.566 -4.80465 4.45907 0
M  V30 1467 H 140.086 -5.29474 2.81811 0
M  V30 1468 H 141.765 -5.52558 3.36584 0
M  V30 1469 N 141.898 -0.863906 -1.31812 0
M  V30 1470 C 142.846 -0.30422 -2.30602 0
M  V30 1471 C 143.84 0.577419 -1.59255 0
M  V30 1472 O 145.046 0.464194 -1.73912 0
M  V30 1473 H 141.421 -0.0796877 -0.747766 0
M  V30 1474 H 143.392 -1.15148 -2.75288 0
M  V30 1475 C 142.141 0.484617 -3.44306 0
M  V30 1476 H 141.464 -0.18451 -3.99374 0
M  V30 1477 H 142.904 0.841664 -4.15562 0
M  V30 1478 C 141.363 1.6735 -2.92396 0
M  V30 1479 O 141.893 2.77273 -2.90659 0
M  V30 1480 N 140.099 1.50362 -2.48676 0
M  V30 1481 H 139.646 0.609402 -2.50288 0
M  V30 1482 H 139.604 2.30051 -2.14299 0
M  V30 1483 N 143.376 1.44774 -0.622745 0
M  V30 1484 C 144.326 2.2774 0.108889 0
M  V30 1485 C 145.31 1.38189 0.824175 0
M  V30 1486 O 146.502 1.62063 0.711664 0
M  V30 1487 C 143.631 3.25353 1.09546 0
M  V30 1488 C 142.717 4.22392 0.380232 0
M  V30 1489 N 143.108 5.02388 -0.586535 0
M  V30 1490 C 141.406 4.41588 0.625792 0
M  V30 1491 C 142.107 5.72894 -1.00834 0
M  V30 1492 N 141.083 5.42479 -0.348878 0
M  V30 1493 H 144.885 2.86993 -0.63341 0
M  V30 1494 H 142.399 1.5611 -0.447589 0
M  V30 1495 H 144.396 3.83538 1.63414 0
M  V30 1496 H 143.056 2.6766 1.83815 0
M  V30 1497 H 144.067 5.0885 -0.963975 0
M  V30 1498 H 140.744 3.95003 1.352 0
M  V30 1499 H 142.134 6.47158 -1.80656 0
M  V30 1500 N 144.854 0.36279 1.53368 0
M  V30 1501 C 146.079 -0.231226 2.06107 0
M  V30 1502 C 146.504 -1.419 1.23474 0
M  V30 1503 O 145.862 -1.79524 0.253128 0
M  V30 1504 C 145.91 -0.605523 3.5548 0
M  V30 1505 O 145.014 -1.70312 3.7559 0
M  V30 1506 H 144.355 -0.034327 0.663112 0
M  V30 1507 H 146.885 0.522584 1.97814 0
M  V30 1508 H 146.895 -0.877314 3.98456 0
M  V30 1509 H 145.57 0.263004 4.15068 0
M  V30 1510 H 144.147 -1.4271 3.44512 0
M  V30 1511 N 146.332 -1.57332 0.0918853 0
M  V30 1512 C 147.581 -1.93412 -0.572249 0
M  V30 1513 C 147.894 -0.975515 -1.69538 0
M  V30 1514 O 149.1 -1.22991 -2.42045 0
M  V30 1515 C 147.556 -3.43648 -1.0693 0
M  V30 1516 C 147.164 -4.47994 0.0239049 0
M  V30 1517 C 148.908 -3.88695 -1.70635 0
M  V30 1518 C 146.815 -5.89381 -0.488319 0
M  V30 1519 H 145.745 -0.721939 -0.217532 0
M  V30 1520 H 148.396 -1.82735 0.167369 0
M  V30 1521 H 146.778 -3.49466 -1.8625 0
M  V30 1522 H 147.952 -4.53815 0.799277 0
M  V30 1523 H 146.267 -4.12536 0.565946 0
M  V30 1524 H 148.864 -4.91725 -2.10025 0
M  V30 1525 H 149.207 -3.27166 -2.57426 0
M  V30 1526 H 149.74 -3.85564 -0.979023 0
M  V30 1527 H 146.479 -6.54602 0.342906 0
M  V30 1528 H 145.999 -5.87037 -1.23077 0
M  V30 1529 H 147.678 -6.39863 -0.958317 0
M  V30 1530 N 147.81 0.181792 -1.56548 0
M  V30 1531 C 149.057 0.900097 -1.81396 0
M  V30 1532 C 149.385 1.82695 -0.667281 0
M  V30 1533 O 148.64 1.92614 0.346146 0
M  V30 1534 C 148.939 1.73728 -3.12335 0
M  V30 1535 C 148.605 0.960255 -4.40556 0
M  V30 1536 C 147.267 0.745766 -4.75386 0
M  V30 1537 C 149.619 0.414477 -5.19549 0
M  V30 1538 C 146.947 -0.0257694 -5.86694 0
M  V30 1539 C 149.299 -0.343916 -6.31664 0
M  V30 1540 C 147.963 -0.569301 -6.65068 0
M  V30 1541 H 147.233 0.329369 -0.663775 0
M  V30 1542 H 149.88 0.165647 -1.90782 0
M  V30 1543 H 148.185 2.54081 -2.98245 0
M  V30 1544 H 149.882 2.29591 -3.28769 0
M  V30 1545 H 146.472 1.13746 -4.13231 0
M  V30 1546 H 150.656 0.567554 -4.93044 0
M  V30 1547 H 145.912 -0.210233 -6.11038 0
M  V30 1548 H 150.086 -0.774133 -6.92084 0
M  V30 1549 H 147.713 -1.16903 -7.51158 0
M  V30 1550 N 149.288 1.51039 0.449983 0
M  V30 1551 C 150.534 1.64287 1.19923 0
M  V30 1552 C 150.889 0.348701 1.89214 0
M  V30 1553 O 150.182 -0.654751 1.80065 0
M  V30 1554 C 150.376 2.77556 2.25161 0
M  V30 1555 C 150.205 4.17862 1.66198 0
M  V30 1556 C 148.975 4.83976 1.45243 0
M  V30 1557 C 151.173 5.01388 1.14519 0
M  V30 1558 N 149.155 6.08433 0.817437 0
M  V30 1559 C 150.526 6.16743 0.634705 0
M  V30 1560 C 152.581 4.87008 1.03574 0
M  V30 1561 C 151.284 7.19295 0.0255452 0
M  V30 1562 C 153.31 5.89757 0.440489 0
M  V30 1563 C 152.672 7.04375 -0.0595112 0
M  V30 1564 H 148.771 0.655161 0.426952 0
M  V30 1565 H 151.355 1.88228 0.49781 0
M  V30 1566 H 149.526 2.553 2.92706 0
M  V30 1567 H 151.258 2.80049 2.92155 0
M  V30 1568 H 148.013 4.41627 1.71063 0
M  V30 1569 H 148.437 6.75017 0.517747 0
M  V30 1570 H 153.079 3.9866 1.4082 0
M  V30 1571 H 150.797 8.07302 -0.359071 0
M  V30 1572 H 154.383 5.80698 0.35788 0
M  V30 1573 H 153.263 7.82521 -0.512882 0
M  V30 1574 N 150.766 -0.704594 1.40972 0
M  V30 1575 C 151.994 -1.49354 1.43182 0
M  V30 1576 C 152.409 -1.88768 0.0345508 0
M  V30 1577 O 151.766 -1.56184 -0.944081 0
M  V30 1578 C 151.817 -2.76187 2.33244 0
M  V30 1579 O 151.538 -2.38436 3.67532 0
M  V30 1580 C 153.039 -3.7 2.44162 0
M  V30 1581 H 150.259 -0.460559 0.487982 0
M  V30 1582 H 152.803 -0.868261 1.85153 0
M  V30 1583 H 150.958 -3.34974 1.94606 0
M  V30 1584 H 151.372 -3.20126 4.15475 0
M  V30 1585 H 152.846 -4.55803 3.11364 0
M  V30 1586 H 153.323 -4.13867 1.47006 0
M  V30 1587 H 153.929 -3.17121 2.83398 0
M  V30 1588 N 152.244 -1.26651 -0.937939 0
M  V30 1589 C 153.192 -1.08308 -2.05845 0
M  V30 1590 C 154.186 -0.0090757 -1.69398 0
M  V30 1591 O 155.392 -0.166007 -1.79233 0
M  V30 1592 H 151.767 -0.333416 -0.674046 0
M  V30 1593 H 153.738 -2.03261 -2.18467 0
M  V30 1594 C 152.487 -0.736229 -3.39816 0
M  V30 1595 H 151.81 -1.55453 -3.6834 0
M  V30 1596 H 153.25 -0.64769 -4.19024 0
M  V30 1597 C 151.709 0.558824 -3.32233 0
M  V30 1598 O 152.239 1.59621 -3.68624 0
M  V30 1599 N 150.445 0.550657 -2.85335 0
M  V30 1600 H 149.992 -0.293943 -2.55917 0
M  V30 1601 H 149.95 1.41726 -2.80644 0
M  V30 1602 N 153.722 1.14298 -1.08507 0
M  V30 1603 C 154.652 2.21542 -0.737646 0
M  V30 1604 C 155.633 1.67773 0.280377 0
M  V30 1605 O 156.818 1.93616 0.150521 0
M  V30 1606 C 153.948 3.46988 -0.147259 0
M  V30 1607 C 152.902 4.13789 -1.09374 0
M  V30 1608 C 152.228 5.33449 -0.365524 0
M  V30 1609 C 153.528 4.62208 -2.4323 0
M  V30 1610 H 155.222 2.5086 -1.6343 0
M  V30 1611 H 152.768 1.20576 -0.787243 0
M  V30 1612 H 154.721 4.21262 0.107808 0
M  V30 1613 H 153.445 3.17037 0.784538 0
M  V30 1614 H 152.104 3.4147 -1.33393 0
M  V30 1615 H 151.752 4.99759 0.57011 0
M  V30 1616 H 151.452 5.79088 -0.996512 0
M  V30 1617 H 152.976 6.10485 -0.118534 0
M  V30 1618 H 154.39 5.27952 -2.23472 0
M  V30 1619 H 152.787 5.18553 -3.02031 0
M  V30 1620 H 153.857 3.77224 -3.04681 0
M  V30 1621 N 155.201 0.870884 1.31352 0
M  V30 1622 C 156.426 0.495957 2.01383 0
M  V30 1623 C 156.851 -0.904324 1.64935 0
M  V30 1624 O 156.209 -1.59687 0.858466 0
M  V30 1625 C 156.257 0.661433 3.54482 0
M  V30 1626 O 155.361 -0.298851 4.11316 0
M  V30 1627 H 154.702 0.197158 0.634054 0
M  V30 1628 H 157.232 1.17455 1.67527 0
M  V30 1629 H 157.242 0.555072 4.04207 0
M  V30 1630 H 155.917 1.68246 3.8035 0
M  V30 1631 H 154.494 -0.147368 3.72609 0
M  V30 1632 N 156.679 -1.44442 0.630414 0
M  V30 1633 C 158.09 -1.85434 0.217063 0
M  V30 1634 C 158.441 -1.52748 -1.23136 0
M  V30 1635 O 157.566 -0.965205 -1.93682 0
M  V30 1636 C 158.161 -3.36581 0.387168 0
M  V30 1637 C 156.72 -3.76389 0.0283297 0
M  V30 1638 C 155.867 -2.68296 0.700889 0
M  V30 1639 H 158.818 -1.34919 0.83562 0
M  V30 1640 H 158.839 -3.78657 -0.374086 0
M  V30 1641 H 158.351 -3.60339 1.44144 0
M  V30 1642 H 156.452 -3.58246 -1.02423 0
M  V30 1643 H 156.565 -4.77095 0.437892 0
M  V30 1644 H 154.929 -2.54335 0.136267 0
M  V30 1645 H 155.712 -2.94887 1.75774 0
M  V30 1646 N 158.157 -0.370918 -1.53173 0
M  V30 1647 C 159.105 0.488101 -2.27421 0
M  V30 1648 C 160.099 1.07884 -1.30604 0
M  V30 1649 O 161.305 1.02143 -1.48212 0
M  V30 1650 H 157.68 0.176134 -0.731082 0
M  V30 1651 H 159.651 -0.159815 -2.97972 0
M  V30 1652 C 158.4 1.61306 -3.08019 0
M  V30 1653 H 157.723 1.1678 -3.82364 0
M  V30 1654 H 159.163 2.18872 -3.63141 0
M  V30 1655 C 157.622 2.55848 -2.19188 0
M  V30 1656 O 158.152 3.58799 -1.80626 0
M  V30 1657 N 156.358 2.2516 -1.83715 0
M  V30 1658 H 155.905 1.41476 -2.15273 0
M  V30 1659 H 155.863 2.8867 -1.24567 0
M  V30 1660 N 159.635 1.57281 -0.100228 0
M  V30 1661 C 160.883 1.94153 0.561157 0
M  V30 1662 C 161.204 0.983157 1.68401 0
M  V30 1663 O 160.474 0.0361132 1.95867 0
M  V30 1664 H 159.054 0.716791 0.210283 0
M  V30 1665 H 161.716 1.94202 -0.164765 0
M  V30 1666 H 160.812 2.96709 0.968008 0
M  V30 1667 N 161.113 -0.173488 1.56642 0
M  V30 1668 C 162.361 -0.888706 1.81512 0
M  V30 1669 C 162.682 -1.82875 0.676872 0
M  V30 1670 O 161.952 -1.93536 -0.303414 0
M  V30 1671 H 160.532 -0.331164 0.669582 0
M  V30 1672 H 163.194 -0.173823 1.94123 0
M  V30 1673 H 162.29 -1.46691 2.75478 0
M  V30 1674 N 162.591 -1.51276 -0.441967 0
M  V30 1675 C 163.839 -1.63392 -1.18943 0
M  V30 1676 C 164.16 -0.350159 -1.9183 0
M  V30 1677 O 163.43 0.633784 -1.85364 0
M  V30 1678 H 162.01 -0.602164 -0.442049 0
M  V30 1679 H 164.672 -1.88186 -0.507165 0
M  V30 1680 H 163.768 -2.45934 -1.92154 0
M  V30 1681 N 164.069 0.697108 -1.41344 0
M  V30 1682 C 164.979 1.84088 -1.45427 0
M  V30 1683 C 165.995 1.70545 -0.34501 0
M  V30 1684 O 167.171 1.92488 -0.592492 0
M  V30 1685 C 164.236 3.20056 -1.33286 0
M  V30 1686 C 163.297 3.45718 -2.54514 0
M  V30 1687 C 162.53 4.75199 -2.42944 0
M  V30 1688 O 162.753 5.51579 -1.45318 0
M  V30 1689 O 161.687 5.0161 -3.32672 0
M  V30 1690 H 165.513 1.836 -2.41919 0
M  V30 1691 H 163.098 0.849966 -1.22866 0
M  V30 1692 H 164.98 4.01236 -1.28794 0
M  V30 1693 H 163.655 3.2123 -0.39909 0
M  V30 1694 H 162.562 2.64474 -2.64583 0
M  V30 1695 H 163.895 3.49356 -3.46715 0
M  V30 1696 N 165.547 1.27147 0.931209 0
M  V30 1697 C 166.958 1.12044 1.49342 0
M  V30 1698 C 167.309 -0.295795 1.93957 0
M  V30 1699 O 166.434 -1.18835 1.80852 0
M  V30 1700 C 167.029 2.02781 2.71414 0
M  V30 1701 C 165.588 1.91794 3.2387 0
M  V30 1702 C 164.735 1.95543 1.96617 0
M  V30 1703 H 167.686 1.40091 0.745672 0
M  V30 1704 H 167.707 1.58156 3.46074 0
M  V30 1705 H 167.219 3.05848 2.38911 0
M  V30 1706 H 165.32 0.916992 3.6114 0
M  V30 1707 H 165.433 2.77852 3.90302 0
M  V30 1708 H 163.797 1.39722 2.12955 0
M  V30 1709 H 164.58 3.00259 1.66432 0
M  V30 1710 N 167.025 -1.13721 1.09112 0
M  V30 1711 C 167.972 -2.19031 0.727591 0
M  V30 1712 C 168.942 -1.63555 -0.289656 0
M  V30 1713 O 170.127 -1.90023 -0.172026 0
M  V30 1714 C 167.267 -3.4477 0.15082 0
M  V30 1715 C 166.38 -4.14365 1.22172 0
M  V30 1716 C 165.515 -5.27709 0.608042 0
M  V30 1717 C 164.554 -5.89147 1.66047 0
M  V30 1718 N 163.691 -6.93929 1.06806 0
M  V30 1719 H 168.531 -2.49475 1.62991 0
M  V30 1720 H 166.068 -1.22499 0.81439 0
M  V30 1721 H 168.026 -4.16714 -0.201358 0
M  V30 1722 H 166.656 -3.14787 -0.714783 0
M  V30 1723 H 165.708 -3.40737 1.69122 0
M  V30 1724 H 167.02 -4.56114 2.01895 0
M  V30 1725 H 166.174 -6.06355 0.204523 0
M  V30 1726 H 164.913 -4.872 -0.220769 0
M  V30 1727 H 163.918 -5.09198 2.07357 0
M  V30 1728 H 165.143 -6.31729 2.49189 0
M  V30 1729 H 163.089 -6.55483 0.260476 0
M  V30 1730 H 163.006 -7.34202 1.8023 0
M  V30 1731 H 164.274 -7.76434 0.690644 0
M  V30 1732 N 168.503 -0.877838 -1.30888 0
M  V30 1733 C 169.751 -0.491723 -1.96027 0
M  V30 1734 C 170.072 0.960827 -1.69685 0
M  V30 1735 O 169.342 1.67462 -1.01654 0
M  V30 1736 H 167.922 -0.17885 -0.725273 0
M  V30 1737 H 170.584 -1.11935 -1.59551 0
M  V30 1738 H 169.68 -0.656016 -3.05128 0
M  V30 1739 N 169.982 1.44106 -0.638065 0
M  V30 1740 C 170.892 2.34513 0.0637334 0
M  V30 1741 C 171.908 1.53018 0.828346 0
M  V30 1742 O 173.084 1.85723 0.779036 0
M  V30 1743 C 170.149 3.31095 1.02844 0
M  V30 1744 C 169.21 4.28497 0.26244 0
M  V30 1745 C 168.443 5.20465 1.1812 0
M  V30 1746 O 168.666 5.16514 2.42011 0
M  V30 1747 O 167.6 5.98251 0.661774 0
M  V30 1748 H 171.426 2.95989 -0.68003 0
M  V30 1749 H 169.011 1.43994 -0.398252 0
M  V30 1750 H 170.893 3.90526 1.58327 0
M  V30 1751 H 169.568 2.72144 1.7527 0
M  V30 1752 H 168.475 3.72592 -0.335602 0
M  V30 1753 H 169.808 4.90388 -0.421936 0
M  V30 1754 N 171.46 0.379036 1.52974 0
M  V30 1755 C 172.39 -0.452706 2.29069 0
M  V30 1756 C 173.371 -1.07237 1.32039 0
M  V30 1757 O 174.556 -1.08708 1.60923 0
M  V30 1758 C 171.686 -1.5856 3.08992 0
M  V30 1759 C 170.64 -1.0925 4.13822 0
M  V30 1760 C 169.966 -2.31668 4.81907 0
M  V30 1761 C 171.266 -0.167702 5.22031 0
M  V30 1762 H 172.96 0.182181 2.98845 0
M  V30 1763 H 170.506 0.0890592 1.43724 0
M  V30 1764 H 172.459 -2.1742 3.6098 0
M  V30 1765 H 171.183 -2.24792 2.36931 0
M  V30 1766 H 169.842 -0.526494 3.628 0
M  V30 1767 H 169.49 -2.96386 4.06404 0
M  V30 1768 H 169.19 -1.9934 5.52754 0
M  V30 1769 H 170.714 -2.91189 5.36695 0
M  V30 1770 H 172.128 -0.664186 5.6944 0
M  V30 1771 H 170.525 0.0653265 6.00064 0
M  V30 1772 H 171.595 0.786347 4.78482 0
M  V30 1773 N 172.938 -1.57226 0.108567 0
M  V30 1774 C 173.868 -2.17778 -0.84232 0
M  V30 1775 C 174.849 -1.11487 -1.2847 0
M  V30 1776 O 176.034 -1.39681 -1.34918 0
M  V30 1777 C 173.164 -2.76888 -2.09644 0
M  V30 1778 C 172.118 -3.88669 -1.79221 0
M  V30 1779 C 171.444 -4.34541 -3.11574 0
M  V30 1780 C 172.744 -5.11251 -1.06864 0
M  V30 1781 H 174.438 -2.97489 -0.337774 0
M  V30 1782 H 171.984 -1.43097 -0.161025 0
M  V30 1783 H 173.937 -3.17904 -2.76614 0
M  V30 1784 H 172.661 -1.94451 -2.62405 0
M  V30 1785 H 171.32 -3.48213 -1.14644 0
M  V30 1786 H 170.968 -3.48977 -3.62249 0
M  V30 1787 H 170.668 -5.09914 -2.91996 0
M  V30 1788 H 172.192 -4.782 -3.7968 0
M  V30 1789 H 173.606 -5.49352 -1.63968 0
M  V30 1790 H 172.003 -5.9214 -0.974178 0
M  V30 1791 H 173.073 -4.8487 -0.0536168 0
M  V30 1792 N 174.416 0.165178 -1.56732 0
M  V30 1793 C 175.326 1.22423 -2.00125 0
M  V30 1794 C 176.342 1.48084 -0.913619 0
M  V30 1795 O 177.518 1.60112 -1.22172 0
M  V30 1796 C 174.583 2.54197 -2.35764 0
M  V30 1797 C 173.644 2.36343 -3.58386 0
M  V30 1798 C 172.877 3.61834 -3.92316 0
M  V30 1799 O 173.1 4.67267 -3.27135 0
M  V30 1800 O 172.034 3.55579 -4.85641 0
M  V30 1801 H 175.86 0.885886 -2.90492 0
M  V30 1802 H 173.445 0.372518 -1.44681 0
M  V30 1803 H 175.327 3.3192 -2.59629 0
M  V30 1804 H 174.002 2.87598 -1.48557 0
M  V30 1805 H 172.909 1.56632 -3.39731 0
M  V30 1806 H 174.242 2.07865 -4.46154 0
M  V30 1807 N 175.894 1.51508 0.433938 0
M  V30 1808 C 176.857 1.72473 1.50949 0
M  V30 1809 C 177.857 0.594725 1.49398 0
M  V30 1810 O 179.047 0.862315 1.5136 0
M  V30 1811 C 176.179 1.78431 2.90474 0
M  V30 1812 H 177.372 2.68467 1.33662 0
M  V30 1813 H 174.925 1.41549 0.662836 0
M  V30 1814 H 175.66 0.842645 3.13161 0
M  V30 1815 H 175.445 2.60558 2.93005 0
M  V30 1816 H 176.935 1.96479 3.68491 0
M  V30 1817 N 177.372 -0.689602 1.41712 0
M  V30 1818 C 178.621 -1.44534 1.40686 0
M  V30 1819 C 178.934 -1.95588 0.0213352 0
M  V30 1820 O 180.14 -2.71271 -0.111534 0
M  V30 1821 C 178.596 -2.61387 2.47396 0
M  V30 1822 C 178.204 -2.17094 3.91885 0
M  V30 1823 C 179.948 -3.38986 2.55517 0
M  V30 1824 C 177.855 -3.3094 4.90135 0
M  V30 1825 H 176.785 -0.542925 0.52321 0
M  V30 1826 H 179.436 -0.748054 1.6756 0
M  V30 1827 H 177.818 -3.33412 2.13664 0
M  V30 1828 H 178.992 -1.52318 4.34897 0
M  V30 1829 H 177.307 -1.52473 3.8748 0
M  V30 1830 H 179.904 -4.23747 3.26102 0
M  V30 1831 H 180.247 -3.84578 1.59391 0
M  V30 1832 H 180.78 -2.74021 2.8837 0
M  V30 1833 H 177.519 -2.90355 5.87685 0
M  V30 1834 H 177.039 -3.94546 4.51767 0
M  V30 1835 H 178.718 -3.9663 5.11169 0
M  V30 1836 N 178.85 -1.27639 -0.924453 0
M  V30 1837 C 179.797 -1.10644 -2.0255 0
M  V30 1838 C 180.767 -0.00658438 -1.66099 0
M  V30 1839 O 181.952 -0.16952 -1.90045 0
M  V30 1840 C 179.092 -0.76309 -3.36557 0
M  V30 1841 C 178.205 -1.94091 -3.85944 0
M  V30 1842 C 177.34 -1.53914 -5.08413 0
M  V30 1843 C 176.379 -2.68425 -5.50104 0
M  V30 1844 N 175.516 -2.28815 -6.63768 0
M  V30 1845 H 180.356 -2.04858 -2.16419 0
M  V30 1846 H 177.893 -1.01974 -1.06017 0
M  V30 1847 H 179.851 -0.544822 -4.13627 0
M  V30 1848 H 178.481 0.142102 -3.22487 0
M  V30 1849 H 177.533 -2.27162 -3.05125 0
M  V30 1850 H 178.845 -2.7998 -4.12811 0
M  V30 1851 H 177.999 -1.28231 -5.92994 0
M  V30 1852 H 176.738 -0.651391 -4.8333 0
M  V30 1853 H 175.743 -2.94819 -4.64071 0
M  V30 1854 H 176.968 -3.57826 -5.7718 0
M  V30 1855 H 174.914 -1.42495 -6.40337 0
M  V30 1856 H 174.831 -3.08242 -6.90306 0
M  V30 1857 H 176.099 -2.06387 -7.51681 0
M  V30 1858 N 180.328 1.1314 -1.09713 0
M  V30 1859 C 181.744 1.36477 -0.827423 0
M  V30 1860 C 181.944 1.93654 0.556817 0
M  V30 1861 O 181 2.15791 1.31112 0
M  V30 1862 C 182.313 2.31334 -1.92106 0
M  V30 1863 C 183.861 2.44943 -1.94864 0
M  V30 1864 C 184.336 3.4311 -3.0338 0
M  V30 1865 N 185.827 3.50662 -3.02639 0
M  V30 1866 C 186.562 4.2651 -3.83246 0
M  V30 1867 N 186.058 5.05485 -4.73768 0
M  V30 1868 N 187.851 4.2184 -3.71493 0
M  V30 1869 H 180.002 0.743807 -1.9895 0
M  V30 1870 H 182.265 0.389823 -0.864143 0
M  V30 1871 H 181.971 1.96483 -2.91698 0
M  V30 1872 H 181.845 3.31381 -1.80184 0
M  V30 1873 H 184.232 2.79079 -0.959099 0
M  V30 1874 H 184.313 1.4481 -2.10864 0
M  V30 1875 H 183.957 3.09704 -4.02549 0
M  V30 1876 H 183.887 4.43055 -2.84622 0
M  V30 1877 H 186.378 2.94315 -2.37039 0
M  V30 1878 H 186.691 5.60675 -5.3185 0
M  V30 1879 H 185.036 5.04708 -4.77802 0
M  V30 1880 H 188.227 3.5922 -3.00131 0
M  V30 1881 H 188.4 4.80697 -4.3455 0
M  V30 1882 N 181.806 0.884767 1.30421 0
M  V30 1883 C 183.083 0.423185 1.90967 0
M  V30 1884 C 183.463 -1.09605 1.80416 0
M  V30 1885 O 182.811 -1.93126 1.22125 0
M  V30 1886 C 183.021 0.921056 3.36627 0
M  V30 1887 C 184.369 0.955903 4.137 0
M  V30 1888 O 185.393 0.867706 3.4547 0
M  V30 1889 O 184.252 1.08614 5.35598 0
M  V30 1890 H 181.346 0.129369 0.816819 0
M  V30 1891 H 183.892 0.973653 1.3899 0
M  V30 1892 H 182.664 1.96489 3.3839 0
M  V30 1893 H 182.287 0.349741 3.96059 0
M  V30 1894 N 183.284 -1.43765 0.645699 0
M  V30 1895 C 184.531 -2.01898 0.15604 0
M  V30 1896 C 184.859 -1.50887 -1.22733 0
M  V30 1897 O 184.114 -0.689271 -1.8316 0
M  V30 1898 C 184.413 -3.57238 0.107679 0
M  V30 1899 C 184.079 -4.27564 1.43178 0
M  V30 1900 C 182.741 -4.46492 1.7944 0
M  V30 1901 C 185.093 -4.67454 2.30513 0
M  V30 1902 C 182.421 -5.02573 3.02716 0
M  V30 1903 C 184.773 -5.24901 3.53074 0
M  V30 1904 C 183.437 -5.42046 3.89541 0
M  V30 1905 H 182.707 -0.738797 0.057099 0
M  V30 1906 H 185.354 -1.72341 0.834912 0
M  V30 1907 H 183.659 -3.86293 -0.654618 0
M  V30 1908 H 185.356 -3.99965 -0.287938 0
M  V30 1909 H 181.946 -4.13171 1.13963 0
M  V30 1910 H 186.13 -4.5253 2.0379 0
M  V30 1911 H 181.386 -5.14033 3.31028 0
M  V30 1912 H 185.56 -5.54758 4.20971 0
M  V30 1913 H 183.187 -5.85268 4.85145 0
M  V30 1914 N 184.763 -0.387143 -1.52771 0
M  V30 1915 C 186.011 0.195349 -2.01154 0
M  V30 1916 C 186.332 1.475 -1.27549 0
M  V30 1917 O 185.602 1.91878 -0.394924 0
M  V30 1918 H 184.182 0.075178 -0.743207 0
M  V30 1919 H 186.844 -0.518337 -1.87881 0
M  V30 1920 H 185.94 0.407096 -3.09434 0
M  V30 1921 N 186.241 1.57166 -0.116904 0
M  V30 1922 C 187.466 1.999 0.55271 0
M  V30 1923 C 187.891 0.996039 1.59564 0
M  V30 1924 O 187.249 -0.032556 1.81271 0
M  V30 1925 C 187.297 3.4152 1.15742 0
M  V30 1926 O 186.401 3.44106 2.27299 0
M  V30 1927 H 185.742 0.649447 0.138258 0
M  V30 1928 H 188.272 2.03573 -0.204759 0
M  V30 1929 H 188.282 3.79684 1.49346 0
M  V30 1930 H 186.957 4.14034 0.393493 0
M  V30 1931 H 185.534 3.17759 1.9515 0
M  V30 1932 N 187.719 -0.156864 1.56817 0
M  V30 1933 C 188.966 -0.871125 1.82805 0
M  V30 1934 C 189.294 -1.81611 0.696262 0
M  V30 1935 O 188.549 -1.93141 -0.315459 0
M  V30 1936 C 188.848 -1.68737 3.1506 0
M  V30 1937 C 188.514 -0.890045 4.42028 0
M  V30 1938 C 187.176 -0.670042 4.76512 0
M  V30 1939 C 189.528 -0.331769 5.20143 0
M  V30 1940 C 186.856 0.119104 5.86579 0
M  V30 1941 C 189.208 0.444365 6.31037 0
M  V30 1942 C 187.872 0.675035 6.64078 0
M  V30 1943 H 187.142 -0.318767 0.668931 0
M  V30 1944 H 189.789 -0.135274 1.91022 0
M  V30 1945 H 188.094 -2.49304 3.0225 0
M  V30 1946 H 189.791 -2.24331 3.3238 0
M  V30 1947 H 186.381 -1.07157 4.14988 0
M  V30 1948 H 190.565 -0.489043 4.93885 0
M  V30 1949 H 185.821 0.307417 6.10627 0
M  V30 1950 H 189.995 0.884139 6.90765 0
M  V30 1951 H 187.622 1.28839 7.49203 0
M  V30 1952 N 189.197 -1.51736 -0.425897 0
M  V30 1953 C 190.474 -1.55519 -1.1863 0
M  V30 1954 C 190.854 -0.326219 -2.08564 0
M  V30 1955 O 190.202 0.688012 -2.17896 0
M  V30 1956 C 190.412 -2.87521 -1.9782 0
M  V30 1957 C 191.76 -3.39899 -2.54468 0
M  V30 1958 O 192.784 -2.89148 -2.08019 0
M  V30 1959 O 191.643 -4.2848 -3.39215 0
M  V30 1960 H 188.737 -0.625739 -0.540721 0
M  V30 1961 H 191.283 -1.64055 -0.434038 0
M  V30 1962 H 190.055 -3.68422 -1.31836 0
M  V30 1963 H 189.678 -2.822 -2.80088 0
M  V30 1964 N 190.675 0.682077 -1.42076 0
M  V30 1965 C 191.622 1.79578 -1.44984 0
M  V30 1966 C 192.592 1.6332 -0.302614 0
M  V30 1967 O 193.777 1.83978 -0.505633 0
M  V30 1968 C 190.917 3.1756 -1.35091 0
M  V30 1969 C 190.03 3.45156 -2.59791 0
M  V30 1970 C 189.165 4.72826 -2.42093 0
M  V30 1971 C 188.204 4.93433 -3.62202 0
M  V30 1972 N 187.341 6.12338 -3.43491 0
M  V30 1973 H 192.181 1.76427 -2.40161 0
M  V30 1974 H 189.718 0.861376 -1.19242 0
M  V30 1975 H 191.676 3.97287 -1.27354 0
M  V30 1976 H 190.306 3.19854 -0.435133 0
M  V30 1977 H 189.358 2.59736 -2.77923 0
M  V30 1978 H 190.67 3.5628 -3.49094 0
M  V30 1979 H 189.824 5.60631 -2.319 0
M  V30 1980 H 188.563 4.63973 -1.50268 0
M  V30 1981 H 187.568 4.04073 -3.72834 0
M  V30 1982 H 188.793 5.04136 -4.54998 0
M  V30 1983 H 186.739 6.04672 -2.54377 0
M  V30 1984 H 186.656 6.2429 -4.26377 0
M  V30 1985 H 187.924 7.02841 -3.37097 0
M  V30 1986 N 192.153 1.28127 0.917671 0
M  V30 1987 C 193.4 1.15052 1.66641 0
M  V30 1988 C 193.728 -0.301677 1.92146 0
M  V30 1989 O 192.983 -1.23622 1.51711 0
M  V30 1990 C 193.282 1.89018 3.03327 0
M  V30 1991 C 192.948 3.38832 2.97496 0
M  V30 1992 C 191.61 3.79693 2.95613 0
M  V30 1993 C 193.962 4.34378 2.88036 0
M  V30 1994 C 191.29 5.14447 2.82066 0
M  V30 1995 C 193.642 5.69201 2.7603 0
M  V30 1996 C 192.306 6.09343 2.72502 0
M  V30 1997 H 191.576 0.421006 0.609783 0
M  V30 1998 H 194.223 1.58855 1.06945 0
M  V30 1999 H 192.528 1.37752 3.66785 0
M  V30 2000 H 194.225 1.76321 3.60156 0
M  V30 2001 H 190.815 3.06342 2.99754 0
M  V30 2002 H 194.999 4.03775 2.88581 0
M  V30 2003 H 190.255 5.44681 2.77728 0
M  V30 2004 H 194.429 6.42901 2.67678 0
M  V30 2005 H 192.056 7.13712 2.61762 0
M  V30 2006 N 193.631 -1.12557 1.10312 0
M  V30 2007 C 194.578 -2.18247 0.750781 0
M  V30 2008 C 195.548 -1.63853 -0.272293 0
M  V30 2009 O 196.733 -1.90195 -0.151862 0
M  V30 2010 C 193.873 -3.44591 0.187379 0
M  V30 2011 C 192.986 -4.13046 1.2656 0
M  V30 2012 C 192.121 -5.27034 0.663978 0
M  V30 2013 C 191.16 -5.87353 1.72287 0
M  V30 2014 N 190.297 -6.92757 1.1416 0
M  V30 2015 H 195.137 -2.47732 1.65628 0
M  V30 2016 H 192.674 -1.21629 0.827337 0
M  V30 2017 H 194.632 -4.16904 -0.157148 0
M  V30 2018 H 193.262 -3.15527 -0.681355 0
M  V30 2019 H 192.314 -3.38924 1.72727 0
M  V30 2020 H 193.626 -4.53947 2.06721 0
M  V30 2021 H 192.78 -6.06104 0.268824 0
M  V30 2022 H 191.519 -4.87407 -0.169082 0
M  V30 2023 H 190.524 -5.06971 2.12746 0
M  V30 2024 H 191.749 -6.29051 2.55875 0
M  V30 2025 H 189.695 -6.5517 0.329984 0
M  V30 2026 H 189.612 -7.3225 1.88007 0
M  V30 2027 H 190.88 -7.75658 0.772956 0
M  V30 2028 N 195.109 -0.891671 -1.2995 0
M  V30 2029 C 196.019 -0.367691 -2.31701 0
M  V30 2030 C 197.035 0.533486 -1.6562 0
M  V30 2031 O 198.211 0.424997 -1.96865 0
M  V30 2032 C 195.276 0.403406 -3.44345 0
M  V30 2033 C 194.337 -0.528328 -4.26037 0
M  V30 2034 C 193.57 0.206063 -5.33302 0
M  V30 2035 O 193.793 1.43119 -5.52153 0
M  V30 2036 O 192.727 -0.447281 -6.00236 0
M  V30 2037 H 196.553 -1.21163 -2.78484 0
M  V30 2038 H 194.138 -0.655725 -1.34241 0
M  V30 2039 H 196.02 0.839753 -4.12948 0
M  V30 2040 H 194.695 1.22354 -2.99685 0
M  V30 2041 H 193.602 -1.01362 -3.60106 0
M  V30 2042 H 194.935 -1.31465 -4.74318 0
M  V30 2043 N 196.587 1.43421 -0.653314 0
M  V30 2044 C 197.534 2.30768 0.0382271 0
M  V30 2045 C 198.504 1.44755 0.814576 0
M  V30 2046 O 199.689 1.73624 0.791162 0
M  V30 2047 C 196.829 3.30336 0.998599 0
M  V30 2048 C 195.942 4.31448 0.218342 0
M  V30 2049 C 195.077 5.18098 1.17252 0
M  V30 2050 C 194.116 6.10902 0.382702 0
M  V30 2051 N 193.253 6.90176 1.28848 0
M  V30 2052 H 198.093 2.89357 -0.712511 0
M  V30 2053 H 195.63 1.42548 -0.363128 0
M  V30 2054 H 197.588 3.86572 1.56901 0
M  V30 2055 H 196.218 2.73397 1.71621 0
M  V30 2056 H 195.27 3.77506 -0.46836 0
M  V30 2057 H 196.582 4.97227 -0.395812 0
M  V30 2058 H 195.736 5.7896 1.81356 0
M  V30 2059 H 194.475 4.52444 1.82058 0
M  V30 2060 H 193.48 5.49128 -0.27169 0
M  V30 2061 H 194.705 6.78598 -0.260957 0
M  V30 2062 H 192.651 6.27171 1.92334 0
M  V30 2063 H 192.568 7.52478 0.728887 0
M  V30 2064 H 193.836 7.55543 1.91766 0
M  V30 2065 N 198.065 0.39524 1.52563 0
M  V30 2066 C 198.995 -0.428384 2.29537 0
M  V30 2067 C 199.976 -1.05831 1.33169 0
M  V30 2068 O 201.161 -1.06995 1.62067 0
M  V30 2069 C 198.291 -1.55274 3.10656 0
M  V30 2070 C 197.245 -1.04855 4.14957 0
M  V30 2071 C 196.571 -2.26543 4.84337 0
M  V30 2072 C 197.871 -0.112324 5.22179 0
M  V30 2073 H 199.565 0.213867 2.98635 0
M  V30 2074 H 197.111 0.104298 1.43622 0
M  V30 2075 H 199.064 -2.1358 3.63265 0
M  V30 2076 H 197.788 -2.22266 2.39302 0
M  V30 2077 H 196.447 -0.487985 3.63338 0
M  V30 2078 H 196.095 -2.92059 4.09525 0
M  V30 2079 H 195.795 -1.93466 5.54837 0
M  V30 2080 H 197.319 -2.85481 5.39753 0
M  V30 2081 H 198.733 -0.603752 5.70112 0
M  V30 2082 H 197.13 0.128968 5.99961 0
M  V30 2083 H 198.2 0.837052 4.77621 0
M  V30 2084 N 199.544 -1.57102 0.125237 0
M  V30 2085 C 200.772 -1.99761 -0.538797 0
M  V30 2086 C 201.187 -1.00503 -1.59827 0
M  V30 2087 O 200.544 0.00119474 -1.825 0
M  V30 2088 C 200.595 -3.42408 -1.15927 0
M  V30 2089 O 200.316 -4.37869 -0.142143 0
M  V30 2090 C 201.817 -4.00232 -1.90602 0
M  V30 2091 H 199.037 -0.655772 -0.14214 0
M  V30 2092 H 201.581 -2.03383 0.213413 0
M  V30 2093 H 199.736 -3.39706 -1.86223 0
M  V30 2094 H 200.15 -5.21128 -0.593775 0
M  V30 2095 H 201.624 -5.02105 -2.29335 0
M  V30 2096 H 202.101 -3.39721 -2.78363 0
M  V30 2097 H 202.707 -4.06499 -1.25055 0
M  V30 2098 N 201.022 0.148545 -1.56898 0
M  V30 2099 C 201.985 1.16736 -1.97244 0
M  V30 2100 C 202.985 1.35947 -0.858777 0
M  V30 2101 O 204.175 1.32966 -1.12542 0
M  V30 2102 C 201.307 2.52798 -2.28705 0
M  V30 2103 H 202.5 0.821279 -2.88435 0
M  V30 2104 H 200.053 0.391831 -1.51309 0
M  V30 2105 H 200.788 2.92381 -1.403 0
M  V30 2106 H 200.573 2.40216 -3.09901 0
M  V30 2107 H 202.063 3.26179 -2.60762 0
M  V30 2108 N 202.5 1.5196 0.417844 0
M  V30 2109 C 203.463 1.74065 1.49111 0
M  V30 2110 C 204.463 0.610537 1.48758 0
M  V30 2111 O 205.653 0.87832 1.50437 0
M  V30 2112 C 202.785 1.81502 2.88565 0
M  V30 2113 H 203.978 2.69869 1.30807 0
M  V30 2114 H 201.531 1.42244 0.647785 0
M  V30 2115 H 202.266 0.875813 3.1225 0
M  V30 2116 H 202.051 2.63651 2.90225 0
M  V30 2117 H 203.541 2.00376 3.66387 0
M  V30 2118 N 203.978 -0.674533 1.42435 0
M  V30 2119 C 205.203 -1.46784 1.46524 0
M  V30 2120 C 205.628 -1.87938 0.078066 0
M  V30 2121 O 204.986 -1.56014 -0.92354 0
M  V30 2122 C 205.034 -2.69307 2.39805 0
M  V30 2123 O 204.138 -3.67587 1.86959 0
M  V30 2124 H 203.479 -0.440959 0.496439 0
M  V30 2125 H 206.009 -0.827326 1.87127 0
M  V30 2126 H 206.019 -3.17374 2.56393 0
M  V30 2127 H 204.694 -2.38692 3.40586 0
M  V30 2128 H 203.271 -3.2662 1.79927 0
M  V30 2129 N 205.456 -1.28612 -0.910864 0
M  V30 2130 C 206.702 -1.16106 -1.66274 0
M  V30 2131 C 207.035 0.289113 -1.92036 0
M  V30 2132 O 206.31 1.21 -1.52281 0
M  V30 2133 C 206.593 -1.96309 -3.01885 0
M  V30 2134 C 206.446 -3.49405 -2.8326 0
M  V30 2135 C 207.765 -1.78076 -4.02463 0
M  V30 2136 H 204.884 -0.423152 -0.603417 0
M  V30 2137 H 207.526 -1.57961 -1.05586 0
M  V30 2138 H 205.676 -1.60742 -3.53687 0
M  V30 2139 H 207.348 -3.94894 -2.38446 0
M  V30 2140 H 205.591 -3.74893 -2.18261 0
M  V30 2141 H 206.262 -4.00784 -3.79574 0
M  V30 2142 H 208.738 -2.0912 -3.59733 0
M  V30 2143 H 207.614 -2.36561 -4.95308 0
M  V30 2144 H 207.875 -0.733008 -4.35981 0
M  V30 2145 N 206.934 1.1197 -1.10907 0
M  V30 2146 C 208.182 1.83225 -0.852819 0
M  V30 2147 C 208.503 1.84769 0.623341 0
M  V30 2148 O 207.773 1.3143 1.45269 0
M  V30 2149 H 206.353 0.67849 -0.312507 0
M  V30 2150 H 209.015 1.3556 -1.40033 0
M  V30 2151 H 208.111 2.87265 -1.22005 0
M  V30 2152 N 208.412 0.89855 1.29475 0
M  V30 2153 C 209.658 0.524658 1.95896 0
M  V30 2154 C 209.991 -0.926468 1.70676 0
M  V30 2155 O 209.266 -1.65665 1.01908 0
M  V30 2156 C 209.549 0.81633 3.50725 0
M  V30 2157 C 209.402 2.31907 3.85408 0
M  V30 2158 C 210.721 0.302038 4.39062 0
M  V30 2159 H 207.84 0.19209 0.711527 0
M  V30 2160 H 210.482 1.12502 1.53112 0
M  V30 2161 H 208.632 0.305369 3.87298 0
M  V30 2162 H 210.304 2.89949 3.58786 0
M  V30 2163 H 208.547 2.78027 3.32992 0
M  V30 2164 H 209.218 2.47373 4.93468 0
M  V30 2165 H 211.694 0.739551 4.09475 0
M  V30 2166 H 210.57 0.535331 5.46283 0
M  V30 2167 H 210.831 -0.797216 4.34853 0
M  V30 2168 N 209.89 -1.43072 0.660911 0
M  V30 2169 C 210.822 -2.29108 -0.0647641 0
M  V30 2170 C 211.835 -1.42928 -0.779448 0
M  V30 2171 O 213.024 -1.66788 -0.635921 0
M  V30 2172 C 210.124 -3.20032 -1.11503 0
M  V30 2173 C 209.297 -4.34792 -0.476955 0
M  V30 2174 C 208.356 -5.06534 -1.42513 0
M  V30 2175 O 207.382 -5.61538 -0.930771 0
M  V30 2176 N 208.584 -5.1075 -2.75889 0
M  V30 2177 H 211.349 -2.92029 0.673731 0
M  V30 2178 H 208.91 -1.53846 0.50427 0
M  V30 2179 H 210.902 -3.64892 -1.75032 0
M  V30 2180 H 209.472 -2.58658 -1.75541 0
M  V30 2181 H 208.692 -3.92752 0.337572 0
M  V30 2182 H 209.98 -5.0879 -0.0318525 0
M  V30 2183 H 209.378 -4.67447 -3.18606 0
M  V30 2184 H 207.935 -5.59302 -3.347 0
M  V30 2185 N 211.368 -0.403325 -1.52352 0
M  V30 2186 C 212.616 0.174003 -2.0135 0
M  V30 2187 C 212.937 1.46139 -1.29106 0
M  V30 2188 O 212.207 1.91448 -0.415253 0
M  V30 2189 H 210.787 0.0672911 -0.743963 0
M  V30 2190 H 213.449 -0.538235 -1.87321 0
M  V30 2191 H 212.545 0.374254 -3.09848 0
M  V30 2192 N 212.846 1.57033 -0.133567 0
M  V30 2193 C 214.071 2.00475 0.531477 0
M  V30 2194 C 214.496 1.01291 1.58499 0
M  V30 2195 O 213.854 -0.0133279 1.81295 0
M  V30 2196 C 213.902 3.42729 1.12113 0
M  V30 2197 O 213.006 3.46498 2.23636 0
M  V30 2198 H 212.347 0.650876 0.131362 0
M  V30 2199 H 214.877 2.03344 -0.22634 0
M  V30 2200 H 214.887 3.81246 1.4531 0
M  V30 2201 H 213.562 4.14428 0.349557 0
M  V30 2202 H 212.139 3.19811 1.91769 0
M  V30 2203 N 214.325 -0.140222 1.56975 0
M  V30 2204 C 215.573 -0.850005 1.83356 0
M  V30 2205 C 215.894 -1.81399 0.71551 0
M  V30 2206 O 215.164 -1.94136 -0.262294 0
M  V30 2207 H 213.744 -0.316886 0.676456 0
M  V30 2208 H 216.406 -0.132608 1.94448 0
M  V30 2209 H 215.502 -1.40814 2.78528 0
M  V30 2210 N 215.803 -1.52179 -0.40978 0
M  V30 2211 C 217.049 -1.67408 -1.15525 0
M  V30 2212 C 217.404 -0.398746 -1.88223 0
M  V30 2213 O 216.697 0.60678 -1.81738 0
M  V30 2214 C 216.891 -2.83428 -2.17723 0
M  V30 2215 C 216.72 -4.22121 -1.55061 0
M  V30 2216 C 215.49 -4.87657 -1.3236 0
M  V30 2217 C 217.688 -5.04248 -1.01185 0
M  V30 2218 N 215.67 -6.10387 -0.655834 0
M  V30 2219 C 217.041 -6.18209 -0.470963 0
M  V30 2220 C 219.096 -4.89583 -0.906252 0
M  V30 2221 C 217.799 -7.1911 0.165172 0
M  V30 2222 C 219.825 -5.90718 -0.28397 0
M  V30 2223 C 219.187 -7.03969 0.246243 0
M  V30 2224 H 215.286 -0.666251 -0.409431 0
M  V30 2225 H 217.87 -1.89482 -0.447729 0
M  V30 2226 H 216.041 -2.6297 -2.85834 0
M  V30 2227 H 217.773 -2.87697 -2.84627 0
M  V30 2228 H 214.528 -4.46007 -1.59294 0
M  V30 2229 H 214.952 -6.76153 -0.338596 0
M  V30 2230 H 219.594 -4.02253 -1.302 0
M  V30 2231 H 217.312 -8.06066 0.572986 0
M  V30 2232 H 220.898 -5.81443 -0.203792 0
M  V30 2233 H 219.778 -7.80886 0.720173 0
M  V30 2234 N 217.281 0.66697 -1.42791 0
M  V30 2235 C 218.529 1.42417 -1.43394 0
M  V30 2236 C 218.85 1.94925 -0.0542373 0
M  V30 2237 O 218.12 1.73564 0.908415 0
M  V30 2238 H 216.7 0.528515 -0.527902 0
M  V30 2239 H 219.362 0.787562 -1.78279 0
M  V30 2240 H 218.458 2.27333 -2.13837 0
M  V30 2241 N 218.759 1.29093 0.90403 0
M  V30 2242 C 220.005 1.17996 1.65676 0
M  V30 2243 C 220.36 -0.266816 1.90541 0
M  V30 2244 O 219.653 -1.19 1.50165 0
M  V30 2245 C 219.847 1.92224 3.01305 0
M  V30 2246 C 219.676 3.43972 2.89678 0
M  V30 2247 C 218.446 4.1332 2.90679 0
M  V30 2248 C 220.644 4.39546 2.67028 0
M  V30 2249 N 218.626 5.51463 2.69743 0
M  V30 2250 C 219.997 5.65119 2.5503 0
M  V30 2251 C 222.052 4.29359 2.52101 0
M  V30 2252 C 220.755 6.81663 2.29626 0
M  V30 2253 C 222.781 5.4565 2.28079 0
M  V30 2254 C 222.143 6.70193 2.16843 0
M  V30 2255 H 218.242 0.486759 0.612037 0
M  V30 2256 H 220.826 1.62868 1.06688 0
M  V30 2257 H 218.997 1.49773 3.58361 0
M  V30 2258 H 220.729 1.73429 3.65656 0
M  V30 2259 H 217.484 3.64984 3.01801 0
M  V30 2260 H 217.908 6.24105 2.6234 0
M  V30 2261 H 222.55 3.33769 2.59534 0
M  V30 2262 H 220.268 7.77313 2.20932 0
M  V30 2263 H 223.854 5.39664 2.1738 0
M  V30 2264 H 222.734 7.58659 1.98511 0
M  V30 2265 N 220.237 -1.11381 1.11499 0
M  V30 2266 C 221.167 -2.19509 0.796125 0
M  V30 2267 C 222.148 -1.68458 -0.235796 0
M  V30 2268 O 223.333 -1.93947 -0.0991344 0
M  V30 2269 C 220.463 -3.46475 0.239205 0
M  V30 2270 C 219.417 -4.10744 1.20307 0
M  V30 2271 C 218.743 -5.32293 0.50683 0
M  V30 2272 C 220.043 -4.55597 2.55399 0
M  V30 2273 H 221.737 -2.46439 1.70024 0
M  V30 2274 H 219.283 -1.18446 0.818935 0
M  V30 2275 H 221.236 -4.214 0.00392006 0
M  V30 2276 H 219.96 -3.19006 -0.700206 0
M  V30 2277 H 218.619 -3.37813 1.42399 0
M  V30 2278 H 218.267 -5.01095 -0.437408 0
M  V30 2279 H 217.967 -5.76243 1.1497 0
M  V30 2280 H 219.491 -6.09956 0.280351 0
M  V30 2281 H 220.905 -5.21841 2.37391 0
M  V30 2282 H 219.302 -5.10363 3.15673 0
M  V30 2283 H 220.372 -3.69013 3.14575 0
M  V30 2284 N 221.715 -0.905404 -1.28997 0
M  V30 2285 C 222.963 -0.533192 -1.9494 0
M  V30 2286 C 223.284 0.924618 -1.71685 0
M  V30 2287 O 222.554 1.65268 -1.05183 0
M  V30 2288 H 221.134 -0.194194 -0.721317 0
M  V30 2289 H 223.796 -1.15294 -1.57141 0
M  V30 2290 H 222.892 -0.72059 -3.03667 0
M  V30 2291 N 223.193 1.4272 -0.668489 0
M  V30 2292 C 224.44 2.01624 -0.18814 0
M  V30 2293 C 224.768 1.5282 1.20317 0
M  V30 2294 O 224.023 0.718323 1.8204 0
M  V30 2295 C 224.322 3.57021 -0.164499 0
M  V30 2296 C 223.988 4.25232 -1.49962 0
M  V30 2297 C 222.65 4.4358 -1.8652 0
M  V30 2298 C 225.002 4.63727 -2.37921 0
M  V30 2299 C 222.33 4.97694 -3.10674 0
M  V30 2300 C 224.682 5.19218 -3.6138 0
M  V30 2301 C 223.346 5.3578 -3.98115 0
M  V30 2302 H 222.616 0.737795 -0.0688454 0
M  V30 2303 H 225.263 1.70991 -0.862225 0
M  V30 2304 H 223.568 3.87285 0.593079 0
M  V30 2305 H 225.265 4.00372 0.224271 0
M  V30 2306 H 221.855 4.11306 -1.20522 0
M  V30 2307 H 226.039 4.4923 -2.10964 0
M  V30 2308 H 221.295 5.08702 -3.39164 0
M  V30 2309 H 225.469 5.4799 -4.29743 0
M  V30 2310 H 223.096 5.77475 -4.94395 0
M  V30 2311 N 224.671 0.411399 1.52136 0
M  V30 2312 C 225.619 -0.427633 2.28635 0
M  V30 2313 C 226.613 -1.04383 1.33419 0
M  V30 2314 O 227.819 -0.981772 1.50868 0
M  V30 2315 H 224.194 -0.156689 0.735495 0
M  V30 2316 H 226.165 0.238761 2.97443 0
M  V30 2317 C 224.914 -1.53082 3.12188 0
M  V30 2318 H 224.237 -1.06601 3.85326 0
M  V30 2319 H 225.677 -2.09167 3.68816 0
M  V30 2320 C 224.136 -2.49946 2.25895 0
M  V30 2321 O 224.666 -3.53884 1.90076 0
M  V30 2322 N 222.872 -2.2021 1.8962 0
M  V30 2323 H 222.419 -1.35719 2.18948 0
M  V30 2324 H 222.377 -2.85266 1.32176 0
M  V30 2325 N 226.149 -1.5696 0.141893 0
M  V30 2326 C 227.096 -2.16501 -0.799737 0
M  V30 2327 C 228.066 -1.09643 -1.24771 0
M  V30 2328 O 229.251 -1.3766 -1.32115 0
M  V30 2329 C 226.391 -2.78679 -2.03549 0
M  V30 2330 C 225.504 -3.99914 -1.6338 0
M  V30 2331 C 224.639 -4.50106 -2.82096 0
M  V30 2332 C 223.678 -5.63819 -2.38275 0
M  V30 2333 N 222.815 -6.08651 -3.49983 0
M  V30 2334 H 227.655 -2.96632 -0.285179 0
M  V30 2335 H 225.192 -1.46533 -0.129053 0
M  V30 2336 H 227.15 -3.1287 -2.75986 0
M  V30 2337 H 225.78 -2.012 -2.52425 0
M  V30 2338 H 224.832 -3.71735 -0.807279 0
M  V30 2339 H 226.144 -4.82311 -1.27192 0
M  V30 2340 H 225.298 -4.86325 -3.62729 0
M  V30 2341 H 224.037 -3.66706 -3.21525 0
M  V30 2342 H 223.042 -5.2718 -1.56081 0
M  V30 2343 H 224.267 -6.49 -1.99938 0
M  V30 2344 H 222.213 -5.28188 -3.89042 0
M  V30 2345 H 222.13 -6.85961 -3.17794 0
M  V30 2346 H 223.398 -6.49515 -4.30988 0
M  V30 2347 N 227.627 0.131896 -1.57047 0
M  V30 2348 C 228.537 1.1815 -2.02676 0
M  V30 2349 C 229.553 1.46113 -0.944824 0
M  V30 2350 O 230.729 1.57485 -1.25541 0
M  V30 2351 C 227.794 2.49139 -2.41103 0
M  V30 2352 C 226.855 2.28688 -3.63318 0
M  V30 2353 C 226.088 3.53431 -3.99903 0
M  V30 2354 O 226.311 4.60223 -3.36973 0
M  V30 2355 O 225.245 3.45198 -4.93074 0
M  V30 2356 H 229.071 0.824069 -2.92306 0
M  V30 2357 H 226.656 0.341745 -1.45439 0
M  V30 2358 H 228.538 3.26338 -2.66611 0
M  V30 2359 H 227.213 2.84382 -1.54624 0
M  V30 2360 H 226.12 1.4939 -3.42977 0
M  V30 2361 H 227.453 1.98355 -4.50462 0
M  V30 2362 N 229.106 1.52395 0.401703 0
M  V30 2363 C 230.522 1.41363 0.740864 0
M  V30 2364 C 230.722 0.523982 1.94568 0
M  V30 2365 O 229.778 -0.00741204 2.52499 0
M  V30 2366 C 231.091 2.84011 0.987847 0
M  V30 2367 C 232.639 2.93404 1.09011 0
M  V30 2368 C 233.114 4.37036 1.3698 0
M  V30 2369 N 234.605 4.40304 1.43829 0
M  V30 2370 C 235.34 5.48508 1.67112 0
M  V30 2371 N 234.836 6.66819 1.87949 0
M  V30 2372 N 236.629 5.36034 1.69187 0
M  V30 2373 H 228.78 2.08765 -0.391262 0
M  V30 2374 H 231.043 0.941265 -0.112798 0
M  V30 2375 H 230.749 3.51265 0.174835 0
M  V30 2376 H 230.623 3.25502 1.906 0
M  V30 2377 H 233.01 2.26325 1.8937 0
M  V30 2378 H 233.091 2.55359 0.15015 0
M  V30 2379 H 232.735 5.04676 0.571353 0
M  V30 2380 H 232.665 4.72623 2.3224 0
M  V30 2381 H 235.156 3.55024 1.29486 0
M  V30 2382 H 235.469 7.45063 2.05185 0
M  V30 2383 H 233.814 6.6987 1.85199 0
M  V30 2384 H 237.005 4.42579 1.52451 0
M  V30 2385 H 237.178 6.20434 1.86993 0
M  V30 2386 N 230.584 -0.659388 1.43143 0
M  V30 2387 C 231.832 -1.41654 1.44147 0
M  V30 2388 C 232.153 -1.94893 0.0645739 0
M  V30 2389 O 231.423 -1.74044 -0.899198 0
M  V30 2390 H 230.003 -0.525708 0.530697 0
M  V30 2391 H 232.665 -0.778097 1.78694 0
M  V30 2392 H 231.761 -2.26195 2.1504 0
M  V30 2393 N 232.062 -1.29571 -0.897171 0
M  V30 2394 C 233.012 -1.11539 -1.98855 0
M  V30 2395 C 233.996 -0.0340716 -1.60864 0
M  V30 2396 O 235.188 -0.256062 -1.75138 0
M  V30 2397 C 232.317 -0.796603 -3.3393 0
M  V30 2398 C 231.403 -1.91758 -3.78272 0
M  V30 2399 N 231.794 -3.16143 -3.94826 0
M  V30 2400 C 230.092 -1.81119 -4.07568 0
M  V30 2401 C 230.793 -3.89293 -4.32233 0
M  V30 2402 N 229.769 -3.17255 -4.41419 0
M  V30 2403 H 233.571 -2.05894 -2.09726 0
M  V30 2404 H 231.085 -1.20732 -1.08616 0
M  V30 2405 H 233.082 -0.648459 -4.11826 0
M  V30 2406 H 231.742 0.139003 -3.24402 0
M  V30 2407 H 232.753 -3.5157 -3.80288 0
M  V30 2408 H 229.43 -0.948461 -4.06584 0
M  V30 2409 H 230.82 -4.9635 -4.52865 0
M  V30 2410 N 233.54 1.10788 -1.12088 0
M  V30 2411 C 234.47 2.19083 -0.807755 0
M  V30 2412 C 235.451 1.6858 0.226859 0
M  V30 2413 O 236.636 1.93997 0.0888475 0
M  V30 2414 C 233.766 3.46344 -0.257576 0
M  V30 2415 C 232.72 4.101 -1.22483 0
M  V30 2416 C 232.046 5.32016 -0.535052 0
M  V30 2417 C 233.346 4.54236 -2.57811 0
M  V30 2418 H 235.04 2.45534 -1.71328 0
M  V30 2419 H 232.586 1.1801 -0.825205 0
M  V30 2420 H 234.539 4.21392 -0.0262679 0
M  V30 2421 H 233.263 3.19373 0.683278 0
M  V30 2422 H 231.922 3.37054 -1.44189 0
M  V30 2423 H 231.57 5.01319 0.410827 0
M  V30 2424 H 231.27 5.75625 -1.18024 0
M  V30 2425 H 232.794 6.09799 -0.312695 0
M  V30 2426 H 234.208 5.20575 -2.40155 0
M  V30 2427 H 232.605 5.08682 -3.18375 0
M  V30 2428 H 233.675 3.6734 -3.16528 0
M  V30 2429 N 235.018 0.912232 1.28515 0
M  V30 2430 C 235.95 0.35676 2.26406 0
M  V30 2431 C 236.963 -0.503933 1.54804 0
M  V30 2432 O 238.152 -0.319059 1.75625 0
M  V30 2433 C 235.252 -0.508825 3.35058 0
M  V30 2434 C 234.425 0.329007 4.36161 0
M  V30 2435 C 233.484 -0.471422 5.24084 0
M  V30 2436 O 232.51 0.115482 5.69083 0
M  V30 2437 N 233.712 -1.77479 5.52704 0
M  V30 2438 H 236.477 1.19818 2.74707 0
M  V30 2439 H 234.038 0.778022 1.4198 0
M  V30 2440 H 236.03 -1.051 3.90815 0
M  V30 2441 H 234.6 -1.25095 2.86478 0
M  V30 2442 H 233.82 1.05256 3.79888 0
M  V30 2443 H 235.108 0.90234 5.00735 0
M  V30 2444 H 234.506 -2.27417 5.17975 0
M  V30 2445 H 233.063 -2.26382 6.11224 0
M  V30 2446 N 236.496 -1.42363 0.676048 0
M  V30 2447 C 237.745 -2.00745 0.196037 0
M  V30 2448 C 238.058 -1.54083 -1.20489 0
M  V30 2449 O 239.264 -2.04891 -1.78134 0
M  V30 2450 C 237.72 -3.58651 0.299616 0
M  V30 2451 C 237.328 -4.143 1.70468 0
M  V30 2452 C 239.072 -4.24326 -0.121619 0
M  V30 2453 C 236.979 -5.64574 1.76096 0
M  V30 2454 H 235.909 -0.750787 0.0695301 0
M  V30 2455 H 238.56 -1.63072 0.841412 0
M  V30 2456 H 236.942 -3.93833 -0.413673 0
M  V30 2457 H 238.116 -3.90575 2.44515 0
M  V30 2458 H 236.431 -3.61081 2.07387 0
M  V30 2459 H 239.028 -5.34607 -0.0997362 0
M  V30 2460 H 239.371 -3.99897 -1.15708 0
M  V30 2461 H 239.904 -3.94108 0.540706 0
M  V30 2462 H 236.643 -5.93804 2.77628 0
M  V30 2463 H 236.163 -5.90286 1.06406 0
M  V30 2464 H 237.842 -6.29013 1.51496 0
M  V30 2465 N 237.974 -0.419461 -1.51915 0
M  V30 2466 C 238.937 0.389116 -2.25873 0
M  V30 2467 C 239.937 0.964924 -1.28631 0
M  V30 2468 O 241.127 0.842179 -1.52489 0
M  V30 2469 C 238.259 1.54874 -3.03689 0
M  V30 2470 H 239.452 -0.258799 -2.98781 0
M  V30 2471 H 237.005 -0.172209 -1.55348 0
M  V30 2472 H 237.74 2.23323 -2.35154 0
M  V30 2473 H 237.525 1.14223 -3.75094 0
M  V30 2474 H 239.015 2.12046 -3.59759 0
M  V30 2475 N 239.452 1.56882 -0.150215 0
M  V30 2476 C 240.415 2.1573 0.774157 0
M  V30 2477 C 241.415 1.0999 1.17298 0
M  V30 2478 O 242.605 1.35613 1.09338 0
M  V30 2479 C 239.737 2.72302 2.05096 0
M  V30 2480 H 240.93 2.98752 0.262201 0
M  V30 2481 H 238.483 1.55985 0.099248 0
M  V30 2482 H 239.218 1.92956 2.6065 0
M  V30 2483 H 239.003 3.49665 1.77416 0
M  V30 2484 H 240.493 3.17632 2.71109 0
M  V30 2485 N 240.93 -0.123565 1.57115 0
M  V30 2486 C 242.17 -0.838097 1.86428 0
M  V30 2487 C 242.534 -1.77266 0.737611 0
M  V30 2488 O 243.735 -2.52842 0.912389 0
M  V30 2489 C 242.006 -1.57219 3.20962 0
M  V30 2490 S 243.565 -2.32893 3.71896 0
M  V30 2491 H 240.383 -0.279811 0.653626 0
M  V30 2492 H 242.985 -0.0967034 1.95261 0
M  V30 2493 H 241.689 -0.877522 4.00909 0
M  V30 2494 H 241.22 -2.35405 3.15195 0
M  V30 2495 H 243.235 -3.5853 3.43032 0
M  V30 2496 N 242.408 -1.52605 -0.393616 0
M  V30 2497 C 243.819 -1.59417 -0.971761 0
M  V30 2498 C 244.17 -0.444173 -1.91106 0
M  V30 2499 O 243.295 0.433382 -2.12016 0
M  V30 2500 C 243.89 -2.88936 -1.76921 0
M  V30 2501 C 242.449 -2.98175 -2.29714 0
M  V30 2502 C 241.596 -2.54491 -1.10135 0
M  V30 2503 H 244.547 -1.57751 -0.173317 0
M  V30 2504 H 244.568 -2.75163 -2.62804 0
M  V30 2505 H 244.08 -3.72616 -1.08532 0
M  V30 2506 H 242.181 -2.19024 -3.01429 0
M  V30 2507 H 242.294 -4.02726 -2.59517 0
M  V30 2508 H 240.658 -2.08702 -1.45999 0
M  V30 2509 H 241.441 -3.4056 -0.432874 0
M  V30 2510 N 243.887 0.651787 -1.4349 0
M  V30 2511 C 244.835 1.78586 -1.49029 0
M  V30 2512 C 245.829 1.65448 -0.363767 0
M  V30 2513 O 247.035 1.71777 -0.537821 0
M  V30 2514 H 243.41 0.589236 -0.467231 0
M  V30 2515 H 245.381 1.71035 -2.44519 0
M  V30 2516 C 244.13 3.16851 -1.43181 0
M  V30 2517 H 243.453 3.27598 -2.29171 0
M  V30 2518 H 244.893 3.96156 -1.51118 0
M  V30 2519 C 243.352 3.36568 -0.149616 0
M  V30 2520 O 243.882 3.93885 0.788509 0
M  V30 2521 N 242.088 2.90539 -0.0593484 0
M  V30 2522 H 241.635 2.4408 -0.823575 0
M  V30 2523 H 241.593 3.04108 0.797853 0
M  V30 2524 N 245.365 1.30045 0.890287 0
M  V30 2525 C 246.297 1.11786 2.00091 0
M  V30 2526 C 247.31 0.0626307 1.62679 0
M  V30 2527 O 248.499 0.308112 1.75821 0
M  V30 2528 C 245.599 0.681527 3.31977 0
M  V30 2529 C 244.772 1.81735 3.97858 0
M  V30 2530 C 243.831 1.37045 5.08041 0
M  V30 2531 O 242.857 2.07677 5.29961 0
M  V30 2532 N 244.059 0.246525 5.79976 0
M  V30 2533 H 246.824 2.07441 2.16306 0
M  V30 2534 H 244.385 1.2211 1.06305 0
M  V30 2535 H 246.377 0.365675 4.03045 0
M  V30 2536 H 244.947 -0.182828 3.12065 0
M  V30 2537 H 244.167 2.30159 3.20032 0
M  V30 2538 H 245.455 2.57865 4.38615 0
M  V30 2539 H 244.853 -0.34215 5.64664 0
M  V30 2540 H 243.41 -0.00990438 6.51799 0
M  V30 2541 N 246.843 -1.10192 1.12674 0
M  V30 2542 C 248.12 -1.78717 0.794965 0
M  V30 2543 C 248.5 -1.98628 -0.714853 0
M  V30 2544 O 247.848 -1.58135 -1.64941 0
M  V30 2545 C 248.058 -3.11546 1.5729 0
M  V30 2546 C 249.406 -3.86382 1.76052 0
M  V30 2547 O 250.43 -3.21274 1.53823 0
M  V30 2548 O 249.289 -5.03246 2.13087 0
M  V30 2549 H 246.383 -0.774702 0.289423 0
M  V30 2550 H 248.929 -1.16819 1.23091 0
M  V30 2551 H 247.701 -2.92489 2.59935 0
M  V30 2552 H 247.324 -3.81164 1.13137 0
M  V30 2553 N 248.321 -0.919034 -1.28029 0
M  V30 2554 C 249.732 -0.600735 -1.76771 0
M  V30 2555 C 250.083 0.884024 -1.75156 0
M  V30 2556 O 249.208 1.69163 -1.34956 0
M  V30 2557 C 249.803 -1.08372 -3.21 0
M  V30 2558 C 248.362 -0.816248 -3.67443 0
M  V30 2559 C 247.509 -1.24742 -2.47658 0
M  V30 2560 H 250.46 -1.09974 -1.14418 0
M  V30 2561 H 250.481 -0.427512 -3.78091 0
M  V30 2562 H 249.993 -2.16437 -3.22144 0
M  V30 2563 H 248.094 0.250968 -3.71754 0
M  V30 2564 H 248.207 -1.4277 -4.57333 0
M  V30 2565 H 246.571 -0.666083 -2.45836 0
M  V30 2566 H 247.354 -2.33653 -2.51518 0
M  V30 2567 N 249.799 1.42003 -0.683588 0
M  V30 2568 C 250.729 2.33487 -0.024866 0
M  V30 2569 C 251.71 1.51163 0.779975 0
M  V30 2570 O 252.895 1.79739 0.735362 0
M  V30 2571 C 250.025 3.3487 0.920836 0
M  V30 2572 C 248.979 4.27414 0.223958 0
M  V30 2573 C 248.305 5.19074 1.2832 0
M  V30 2574 C 249.605 5.14445 -0.90242 0
M  V30 2575 H 251.299 2.88819 -0.788921 0
M  V30 2576 H 248.845 1.38873 -0.38083 0
M  V30 2577 H 250.798 3.97787 1.39081 0
M  V30 2578 H 249.522 2.77861 1.71642 0
M  V30 2579 H 248.181 3.65904 -0.225864 0
M  V30 2580 H 247.829 4.58387 2.071 0
M  V30 2581 H 247.529 5.81822 0.821995 0
M  V30 2582 H 249.053 5.84867 1.75392 0
M  V30 2583 H 250.467 5.70998 -0.513272 0
M  V30 2584 H 248.864 5.86072 -1.28997 0
M  V30 2585 H 249.934 4.52322 -1.74737 0
M  V30 2586 N 251.277 0.427512 1.51691 0
M  V30 2587 C 252.209 -0.424521 2.25234 0
M  V30 2588 C 253.222 -0.994671 1.2888 0
M  V30 2589 O 254.411 -0.890483 1.54702 0
M  V30 2590 C 251.511 -1.60479 2.98496 0
M  V30 2591 C 250.684 -1.15527 4.21868 0
M  V30 2592 C 249.743 -2.20454 4.77793 0
M  V30 2593 O 248.769 -1.8029 5.39893 0
M  V30 2594 N 249.971 -3.52831 4.60967 0
M  V30 2595 H 252.736 0.205749 2.98993 0
M  V30 2596 H 250.297 0.255867 1.59865 0
M  V30 2597 H 252.289 -2.30276 3.32799 0
M  V30 2598 H 250.859 -2.14061 2.27809 0
M  V30 2599 H 250.079 -0.284736 3.9317 0
M  V30 2600 H 251.367 -0.832173 5.01949 0
M  V30 2601 H 250.765 -3.88201 4.11481 0
M  V30 2602 H 249.322 -4.18551 4.99658 0
M  V30 2603 N 252.755 -1.56801 0.158532 0
M  V30 2604 C 254.003 -1.96102 -0.488712 0
M  V30 2605 C 254.324 -1.04498 -1.64636 0
M  V30 2606 O 253.594 -0.108783 -1.95598 0
M  V30 2607 H 252.174 -0.724102 -0.183535 0
M  V30 2608 H 254.836 -1.93457 0.236728 0
M  V30 2609 H 253.932 -3.00097 -0.857219 0
M  V30 2610 N 254.233 0.115231 -1.57178 0
M  V30 2611 C 255.461 0.836437 -1.89239 0
M  V30 2612 C 255.876 1.73256 -0.750175 0
M  V30 2613 O 255.233 1.80357 0.278832 0
M  V30 2614 C 255.284 1.66671 -3.20785 0
M  V30 2615 O 255.005 0.806652 -4.3061 0
M  V30 2616 C 256.506 2.49274 -3.66575 0
M  V30 2617 H 253.726 0.240253 -0.626514 0
M  V30 2618 H 256.27 0.0984932 -2.04263 0
M  V30 2619 H 254.425 2.35737 -3.0742 0
M  V30 2620 H 254.839 1.37969 -5.06028 0
M  V30 2621 H 256.313 3.03055 -4.6137 0
M  V30 2622 H 256.79 3.26807 -2.93417 0
M  V30 2623 H 257.396 1.85443 -3.82741 0
M  V30 2624 N 255.711 1.52812 0.385517 0
M  V30 2625 C 256.939 1.71907 1.15133 0
M  V30 2626 C 257.354 0.439004 1.83625 0
M  V30 2627 O 256.711 -0.586765 1.7281 0
M  V30 2628 C 256.762 2.87099 2.19673 0
M  V30 2629 O 256.483 4.10151 1.53973 0
M  V30 2630 C 257.984 3.17902 3.08955 0
M  V30 2631 H 255.204 0.575479 0.345057 0
M  V30 2632 H 257.748 1.99476 0.45052 0
M  V30 2633 H 255.903 2.61982 2.85384 0
M  V30 2634 H 256.317 4.74514 2.23465 0
M  V30 2635 H 257.791 4.01959 3.7833 0
M  V30 2636 H 258.268 2.3243 3.72657 0
M  V30 2637 H 258.874 3.44871 2.48885 0
M  V30 2638 N 257.189 -0.644168 1.43834 0
M  V30 2639 C 258.437 -1.40117 1.45642 0
M  V30 2640 C 258.758 -1.94814 0.0852413 0
M  V30 2641 O 258.028 -1.74988 -0.880688 0
M  V30 2642 H 256.608 -0.52005 0.536243 0
M  V30 2643 H 259.27 -0.7591 1.7951 0
M  V30 2644 H 258.366 -2.23902 2.17427 0
M  V30 2645 N 258.668 -1.30515 -0.883378 0
M  V30 2646 C 259.598 -1.19607 -2.00541 0
M  V30 2647 C 260.579 -0.086346 -1.69881 0
M  V30 2648 O 261.764 -0.268654 -1.92333 0
M  V30 2649 C 258.894 -0.888758 -3.35736 0
M  V30 2650 C 257.848 -1.95659 -3.8066 0
M  V30 2651 C 257.174 -1.50224 -5.13164 0
M  V30 2652 C 258.474 -3.36788 -3.99213 0
M  V30 2653 H 260.168 -2.13476 -2.09925 0
M  V30 2654 H 257.714 -1.02775 -1.00863 0
M  V30 2655 H 259.667 -0.799094 -4.13754 0
M  V30 2656 H 258.391 0.0856125 -3.26488 0
M  V30 2657 H 257.05 -2.03591 -3.04871 0
M  V30 2658 H 256.698 -0.516092 -5.00345 0
M  V30 2659 H 256.398 -2.2165 -5.44192 0
M  V30 2660 H 257.922 -1.42639 -5.93706 0
M  V30 2661 H 259.336 -3.31605 -4.67665 0
M  V30 2662 H 257.733 -4.06314 -4.41621 0
M  V30 2663 H 258.803 -3.78561 -3.03017 0
M  V30 2664 N 260.146 1.09593 -1.13257 0
M  V30 2665 C 261.395 1.81105 -0.887917 0
M  V30 2666 C 261.708 1.86563 0.587672 0
M  V30 2667 O 262.914 2.54367 0.949204 0
M  V30 2668 C 261.37 3.25338 -1.53895 0
M  V30 2669 C 260.978 3.28151 -3.04994 0
M  V30 2670 C 262.722 4.01617 -1.37492 0
M  V30 2671 C 260.629 4.66897 -3.6299 0
M  V30 2672 H 259.559 0.678661 -0.328534 0
M  V30 2673 H 262.21 1.23183 -1.36008 0
M  V30 2674 H 260.592 3.8331 -0.994446 0
M  V30 2675 H 261.766 2.79953 -3.66009 0
M  V30 2676 H 260.081 2.65361 -3.20893 0
M  V30 2677 H 262.678 5.04119 -1.78235 0
M  V30 2678 H 263.021 4.15072 -0.31957 0
M  V30 2679 H 263.554 3.50082 -1.88912 0
M  V30 2680 H 260.293 4.58643 -4.68323 0
M  V30 2681 H 259.813 5.15426 -3.06752 0
M  V30 2682 H 261.492 5.3587 -3.62563 0
M  V30 2683 N 261.624 0.925811 1.2754 0
M  V30 2684 C 263.035 0.610102 1.7645 0
M  V30 2685 C 263.386 -0.874723 1.75622 0
M  V30 2686 O 262.511 -1.68444 1.35851 0
M  V30 2687 C 263.106 1.10073 3.20421 0
M  V30 2688 C 261.665 0.835723 3.67005 0
M  V30 2689 C 260.812 1.26054 2.46993 0
M  V30 2690 H 263.763 1.10579 1.13833 0
M  V30 2691 H 263.784 0.447557 3.77859 0
M  V30 2692 H 263.296 2.18143 3.20991 0
M  V30 2693 H 261.397 -0.231249 3.71882 0
M  V30 2694 H 261.51 1.45193 4.56569 0
M  V30 2695 H 259.874 0.679111 2.45479 0
M  V30 2696 H 260.657 2.34984 2.50275 0
M  V30 2697 N 263.102 -1.41638 0.69111 0
M  V30 2698 C 264.032 -2.3347 0.037248 0
M  V30 2699 C 265.013 -1.51575 -0.771947 0
M  V30 2700 O 266.198 -1.80126 -0.72582 0
M  V30 2701 C 263.328 -3.35354 -0.903064 0
M  V30 2702 C 262.282 -4.27526 -0.201288 0
M  V30 2703 C 261.608 -5.19747 -1.25565 0
M  V30 2704 C 262.908 -5.13959 0.929689 0
M  V30 2705 H 264.602 -2.88397 0.804227 0
M  V30 2706 H 262.148 -1.38669 0.388189 0
M  V30 2707 H 264.101 -3.98519 -1.36969 0
M  V30 2708 H 262.825 -2.78767 -1.70166 0
M  V30 2709 H 261.484 -3.65779 0.245265 0
M  V30 2710 H 261.132 -4.59479 -2.04666 0
M  V30 2711 H 260.832 -5.8225 -0.791128 0
M  V30 2712 H 262.356 -5.85789 -1.72288 0
M  V30 2713 H 263.77 -5.70718 0.543546 0
M  V30 2714 H 262.167 -5.85379 1.32103 0
M  V30 2715 H 263.237 -4.51389 1.77133 0
M  V30 2716 N 264.58 -0.43555 -1.51462 0
M  V30 2717 C 265.51 0.367376 -2.30592 0
M  V30 2718 C 266.491 1.02263 -1.35928 0
M  V30 2719 O 267.676 1.02661 -1.64847 0
M  V30 2720 C 264.806 1.46983 -3.14664 0
M  V30 2721 C 263.76 0.938161 -4.17591 0
M  V30 2722 C 263.086 2.13622 -4.90173 0
M  V30 2723 C 264.386 -0.0261621 -5.22293 0
M  V30 2724 H 266.08 -0.292969 -2.97963 0
M  V30 2725 H 263.626 -0.14234 -1.43295 0
M  V30 2726 H 265.579 2.03873 -3.688 0
M  V30 2727 H 264.303 2.15843 -2.4511 0
M  V30 2728 H 262.962 0.391481 -3.64504 0
M  V30 2729 H 262.61 2.81098 -4.17124 0
M  V30 2730 H 262.31 1.78688 -5.59772 0
M  V30 2731 H 263.834 2.7107 -5.47132 0
M  V30 2732 H 265.248 0.452384 -5.71512 0
M  V30 2733 H 263.645 -0.287992 -5.99409 0
M  V30 2734 H 264.715 -0.963391 -4.75233 0
M  V30 2735 N 266.058 1.56714 -0.166846 0
M  V30 2736 C 267.306 1.96358 0.478305 0
M  V30 2737 C 267.627 1.0537 1.6408 0
M  V30 2738 O 266.897 0.119154 1.95537 0
M  V30 2739 H 265.477 0.725065 0.179692 0
M  V30 2740 H 268.139 1.93329 -0.246985 0
M  V30 2741 H 267.235 3.00547 0.841292 0
M  V30 2742 N 267.536 -0.106894 1.57237 0
M  V30 2743 C 268.785 -0.811163 1.8467 0
M  V30 2744 C 269.098 -1.80469 0.754342 0
M  V30 2745 O 270.304 -2.55601 0.915439 0
M  V30 2746 C 268.76 -1.49337 3.27454 0
M  V30 2747 C 268.368 -0.540217 4.44731 0
M  V30 2748 C 270.112 -2.18206 3.64124 0
M  V30 2749 C 268.019 -1.22634 5.78545 0
M  V30 2750 H 266.949 -0.306679 0.688813 0
M  V30 2751 H 269.6 -0.0639887 1.83388 0
M  V30 2752 H 267.982 -2.2876 3.23241 0
M  V30 2753 H 269.156 0.221659 4.60267 0
M  V30 2754 H 267.471 0.042146 4.16379 0
M  V30 2755 H 270.068 -2.70253 4.61376 0
M  V30 2756 H 270.411 -2.96562 2.92158 0
M  V30 2757 H 270.944 -1.45658 3.70174 0
M  V30 2758 H 267.683 -0.483832 6.53712 0
M  V30 2759 H 267.203 -1.95993 5.66874 0
M  V30 2760 H 268.882 -1.75615 6.2271 0
M  V30 2761 N 269.014 -1.53014 -0.377408 0
M  V30 2762 C 270.291 -1.59215 -1.13622 0
M  V30 2763 C 270.671 -0.392407 -2.07421 0
M  V30 2764 O 270.019 0.618342 -2.19975 0
M  V30 2765 C 270.229 -2.93669 -1.88573 0
M  V30 2766 C 271.577 -3.47822 -2.43526 0
M  V30 2767 O 272.601 -2.9562 -1.98715 0
M  V30 2768 O 271.46 -4.39055 -3.25412 0
M  V30 2769 H 268.554 -0.642625 -0.52054 0
M  V30 2770 H 271.1 -1.65353 -0.381625 0
M  V30 2771 H 269.872 -3.7243 -1.20048 0
M  V30 2772 H 269.495 -2.90968 -2.70968 0
M  V30 2773 N 270.492 0.636531 -1.44174 0
M  V30 2774 C 271.738 1.39826 -1.4689 0
M  V30 2775 C 272.071 1.93947 -0.0990585 0
M  V30 2776 O 271.346 1.73325 0.882544 0
M  V30 2777 C 271.629 2.56751 -2.5249 0
M  V30 2778 C 271.482 2.08014 -3.98811 0
M  V30 2779 C 272.801 3.58946 -2.54649 0
M  V30 2780 H 269.92 0.507075 -0.53483 0
M  V30 2781 H 272.562 0.720188 -1.75822 0
M  V30 2782 H 270.712 3.14597 -2.2795 0
M  V30 2783 H 272.384 1.5504 -4.34466 0
M  V30 2784 H 270.627 1.39242 -4.10846 0
M  V30 2785 H 271.298 2.92169 -4.68339 0
M  V30 2786 H 273.774 3.1089 -2.76563 0
M  V30 2787 H 272.65 4.38286 -3.3045 0
M  V30 2788 H 272.911 4.12655 -1.58646 0
M  V30 2789 N 271.97 1.30982 0.876444 0
M  V30 2790 C 273.216 1.21484 1.63136 0
M  V30 2791 C 273.571 -0.226339 1.91064 0
M  V30 2792 O 272.864 -1.15788 1.52656 0
M  V30 2793 C 273.058 1.98572 2.9716 0
M  V30 2794 C 272.887 3.50039 2.82317 0
M  V30 2795 C 271.657 4.19393 2.81847 0
M  V30 2796 C 273.855 4.45111 2.57644 0
M  V30 2797 N 271.837 5.57061 2.57985 0
M  V30 2798 C 273.208 5.70402 2.42986 0
M  V30 2799 C 275.263 4.3461 2.42937 0
M  V30 2800 C 273.966 6.8638 2.15115 0
M  V30 2801 C 275.992 5.50365 2.16454 0
M  V30 2802 C 275.354 6.74642 2.02578 0
M  V30 2803 H 271.453 0.499632 0.601575 0
M  V30 2804 H 274.037 1.65094 1.03209 0
M  V30 2805 H 272.208 1.5734 3.55104 0
M  V30 2806 H 273.94 1.81146 3.61895 0
M  V30 2807 H 270.695 3.71303 2.93991 0
M  V30 2808 H 271.119 6.29529 2.49043 0
M  V30 2809 H 275.761 3.39199 2.52396 0
M  V30 2810 H 273.479 7.81824 2.04394 0
M  V30 2811 H 277.065 5.44154 2.05884 0
M  V30 2812 H 275.945 7.62699 1.82374 0
M  V30 2813 N 273.449 -1.08991 1.13837 0
M  V30 2814 C 274.359 -2.19301 0.833333 0
M  V30 2815 C 275.375 -1.73026 -0.183847 0
M  V30 2816 O 276.551 -2.01395 -0.0138092 0
M  V30 2817 C 273.616 -3.45323 0.308651 0
M  V30 2818 C 272.677 -4.06255 1.38764 0
M  V30 2819 C 271.91 -5.26262 0.887896 0
M  V30 2820 O 272.133 -5.69747 -0.27287 0
M  V30 2821 O 271.067 -5.78435 1.66421 0
M  V30 2822 H 274.893 -2.47854 1.75506 0
M  V30 2823 H 272.478 -1.18012 0.916166 0
M  V30 2824 H 274.36 -4.21394 0.0216739 0
M  V30 2825 H 273.035 -3.18362 -0.585431 0
M  V30 2826 H 271.942 -3.318 1.72799 0
M  V30 2827 H 273.275 -4.37452 2.25602 0
M  V30 2828 N 274.927 -0.932562 -1.27047 0
M  V30 2829 C 275.877 -0.406392 -2.24349 0
M  V30 2830 C 276.861 0.492066 -1.53191 0
M  V30 2831 O 278.053 0.328717 -1.73921 0
M  V30 2832 C 275.182 0.335214 -3.41659 0
M  V30 2833 C 274.268 -0.58004 -4.20115 0
M  V30 2834 N 274.659 -1.70203 -4.76303 0
M  V30 2835 C 272.957 -0.383974 -4.44344 0
M  V30 2836 C 273.658 -2.27167 -5.35509 0
M  V30 2837 N 272.634 -1.56068 -5.20715 0
M  V30 2838 H 276.436 -1.26299 -2.65378 0
M  V30 2839 H 273.95 -0.787408 -1.42034 0
M  V30 2840 H 275.947 0.729142 -4.10474 0
M  V30 2841 H 274.607 1.18868 -3.0216 0
M  V30 2842 H 275.618 -2.08433 -4.74106 0
M  V30 2843 H 272.295 0.428436 -4.15296 0
M  V30 2844 H 273.685 -3.21654 -5.89905 0
M  V30 2845 N 276.405 1.4127 -0.698611 0
M  V30 2846 C 277.368 2.29158 -0.044132 0
M  V30 2847 C 278.368 1.44529 0.704841 0
M  V30 2848 O 279.558 1.65643 0.539276 0
M  V30 2849 C 276.69 3.27459 0.947809 0
M  V30 2850 H 277.883 2.88529 -0.817994 0
M  V30 2851 H 275.436 1.49307 -0.46228 0
M  V30 2852 H 276.171 2.73073 1.74933 0
M  V30 2853 H 275.956 3.8991 0.41385 0
M  V30 2854 H 277.446 3.93311 1.40344 0
M  V30 2855 N 277.883 0.443576 1.51229 0
M  V30 2856 C 279.113 -0.119117 2.06256 0
M  V30 2857 C 279.521 -1.36471 1.31043 0
M  V30 2858 O 278.864 -1.80034 0.365151 0
M  V30 2859 C 278.926 -0.500546 3.55998 0
M  V30 2860 C 278.59 0.639125 4.52509 0
M  V30 2861 C 279.587 1.51311 4.97394 0
M  V30 2862 C 277.272 0.821632 4.95535 0
M  V30 2863 C 279.266 2.55425 5.83984 0
M  V30 2864 C 276.953 1.86603 5.81913 0
M  V30 2865 C 277.951 2.73072 6.26036 0
M  V30 2866 O 277.639 3.75718 7.10698 0
M  V30 2867 H 277.371 -0.00857665 0.675946 0
M  V30 2868 H 279.925 0.623288 1.95715 0
M  V30 2869 H 278.155 -1.29575 3.64345 0
M  V30 2870 H 279.844 -0.995116 3.93513 0
M  V30 2871 H 280.61 1.38367 4.64844 0
M  V30 2872 H 276.489 0.158149 4.60729 0
M  V30 2873 H 280.033 3.22949 6.18344 0
M  V30 2874 H 275.93 1.99564 6.13876 0
M  V30 2875 H 276.698 3.72374 7.2889 0
M  V30 2876 N 279.361 -1.56624 0.175154 0
M  V30 2877 C 280.591 -2.01082 -0.474283 0
M  V30 2878 C 280.999 -1.05447 -1.57091 0
M  V30 2879 O 280.342 -0.0480595 -1.83637 0
M  V30 2880 C 280.404 -3.41963 -1.10911 0
M  V30 2881 C 280.068 -4.56742 -0.153666 0
M  V30 2882 C 281.065 -5.16076 0.629448 0
M  V30 2883 C 278.75 -5.02277 -0.0483776 0
M  V30 2884 C 280.744 -6.19377 1.50501 0
M  V30 2885 C 278.431 -6.05427 0.830768 0
M  V30 2886 C 279.429 -6.63849 1.60605 0
M  V30 2887 O 279.117 -7.64998 2.47049 0
M  V30 2888 H 278.849 -0.664261 -0.125432 0
M  V30 2889 H 281.403 -2.03549 0.275163 0
M  V30 2890 H 279.633 -3.36422 -1.90676 0
M  V30 2891 H 281.322 -3.70352 -1.66114 0
M  V30 2892 H 282.088 -4.81776 0.558297 0
M  V30 2893 H 277.967 -4.56513 -0.641611 0
M  V30 2894 H 281.511 -6.64906 2.1106 0
M  V30 2895 H 277.408 -6.39151 0.903107 0
M  V30 2896 H 278.176 -7.82336 2.40607 0
M  V30 2897 N 280.839 0.0985539 -1.57292 0
M  V30 2898 C 281.769 1.12064 -2.04851 0
M  V30 2899 C 282.75 1.41981 -0.936767 0
M  V30 2900 O 283.935 1.52071 -1.20781 0
M  V30 2901 C 281.065 2.44144 -2.47004 0
M  V30 2902 C 280.019 2.28643 -3.6181 0
M  V30 2903 C 279.345 3.65869 -3.89929 0
M  V30 2904 C 280.645 1.72986 -4.92822 0
M  V30 2905 H 282.339 0.724979 -2.9049 0
M  V30 2906 H 279.885 0.34729 -1.39749 0
M  V30 2907 H 281.838 3.15914 -2.78884 0
M  V30 2908 H 280.562 2.85639 -1.5836 0
M  V30 2909 H 279.221 1.59318 -3.30172 0
M  V30 2910 H 278.869 4.04885 -2.98458 0
M  V30 2911 H 278.569 3.56344 -4.67218 0
M  V30 2912 H 280.093 4.39112 -4.2428 0
M  V30 2913 H 281.507 2.34593 -5.23105 0
M  V30 2914 H 279.904 1.74229 -5.74251 0
M  V30 2915 H 280.974 0.689007 -4.7998 0
M  V30 2916 N 282.317 1.53212 0.369288 0
M  V30 2917 C 283.249 1.75668 1.47219 0
M  V30 2918 C 284.262 0.637387 1.49804 0
M  V30 2919 O 285.451 0.913561 1.5335 0
M  V30 2920 C 282.551 1.81818 2.85999 0
M  V30 2921 C 281.724 3.11409 3.07153 0
M  V30 2922 C 280.783 3.08849 4.26026 0
M  V30 2923 O 279.809 3.82659 4.2138 0
M  V30 2924 N 281.011 2.29409 5.33246 0
M  V30 2925 H 283.776 2.70832 1.28337 0
M  V30 2926 H 281.337 1.51944 0.55898 0
M  V30 2927 H 283.329 1.77588 3.63655 0
M  V30 2928 H 281.899 0.939544 2.98146 0
M  V30 2929 H 281.119 3.28971 2.1719 0
M  V30 2930 H 282.407 3.97059 3.18154 0
M  V30 2931 H 281.805 1.68946 5.39883 0
M  V30 2932 H 280.362 2.31001 6.09493 0
M  V30 2933 N 283.795 -0.628877 1.44509 0
M  V30 2934 C 285.025 -1.41349 1.50678 0
M  V30 2935 C 285.433 -1.88745 0.131075 0
M  V30 2936 O 284.776 -1.61592 -0.87371 0
M  V30 2937 C 284.838 -2.66608 2.41165 0
M  V30 2938 C 284.502 -2.40993 3.88293 0
M  V30 2939 C 285.499 -2.0268 4.78766 0
M  V30 2940 C 283.184 -2.54563 4.33016 0
M  V30 2941 C 285.178 -1.78269 6.11963 0
M  V30 2942 C 282.865 -2.29766 5.6626 0
M  V30 2943 C 283.863 -1.91678 6.55552 0
M  V30 2944 O 283.551 -1.67158 7.86329 0
M  V30 2945 H 283.283 -0.439851 0.51333 0
M  V30 2946 H 285.837 -0.776084 1.90174 0
M  V30 2947 H 284.067 -3.32994 1.96601 0
M  V30 2948 H 285.756 -3.28615 2.38259 0
M  V30 2949 H 286.522 -1.91751 4.45485 0
M  V30 2950 H 282.401 -2.83179 3.63773 0
M  V30 2951 H 285.945 -1.48465 6.81619 0
M  V30 2952 H 281.842 -2.40306 5.99102 0
M  V30 2953 H 282.61 -1.81386 7.98149 0
M  V30 2954 N 285.273 -1.31445 -0.869486 0
M  V30 2955 C 286.22 -1.19135 -1.97675 0
M  V30 2956 C 287.19 -0.0770266 -1.65921 0
M  V30 2957 O 288.375 -0.249972 -1.89155 0
M  V30 2958 C 285.515 -0.905149 -3.33018 0
M  V30 2959 C 284.628 -2.10285 -3.77365 0
M  V30 2960 C 283.763 -1.75339 -5.01427 0
M  V30 2961 C 282.802 -2.91515 -5.38224 0
M  V30 2962 N 281.939 -2.56762 -6.53466 0
M  V30 2963 H 286.779 -2.13853 -2.07535 0
M  V30 2964 H 284.316 -1.06379 -1.01597 0
M  V30 2965 H 286.274 -0.719765 -4.10944 0
M  V30 2966 H 284.904 0.00519624 -3.228 0
M  V30 2967 H 283.956 -2.39899 -2.95216 0
M  V30 2968 H 285.268 -2.97237 -4.00564 0
M  V30 2969 H 284.422 -1.53266 -5.87022 0
M  V30 2970 H 283.161 -0.855801 -4.80133 0
M  V30 2971 H 282.166 -3.14237 -4.51149 0
M  V30 2972 H 283.391 -3.81985 -5.61484 0
M  V30 2973 H 281.337 -1.69526 -6.33717 0
M  V30 2974 H 281.254 -3.37243 -6.76612 0
M  V30 2975 H 282.522 -2.38083 -7.42251 0
M  V30 2976 N 286.751 1.08385 -1.14413 0
M  V30 2977 C 287.699 2.17406 -0.826888 0
M  V30 2978 C 288.693 1.6827 0.195312 0
M  V30 2979 O 289.899 1.79927 0.0513892 0
M  V30 2980 H 286.274 0.70934 -0.249681 0
M  V30 2981 H 288.245 2.41388 -1.75426 0
M  V30 2982 C 286.994 3.46215 -0.320979 0
M  V30 2983 H 286.317 3.84401 -1.0989 0
M  V30 2984 H 287.757 4.23777 -0.137549 0
M  V30 2985 C 286.216 3.23067 0.955472 0
M  V30 2986 O 286.746 3.4668 2.02918 0
M  V30 2987 N 284.952 2.7661 0.890798 0
M  V30 2988 H 284.499 2.57594 0.0168815 0
M  V30 2989 H 284.457 2.61501 1.74542 0
M  V30 2990 N 288.23 0.939286 1.26551 0
M  V30 2991 C 289.476 0.586715 1.94128 0
M  V30 2992 C 289.809 -0.8717 1.73537 0
M  V30 2993 O 289.084 -1.62339 1.07127 0
M  V30 2994 C 289.367 0.927497 3.4795 0
M  V30 2995 C 289.22 2.44052 3.77834 0
M  V30 2996 C 290.539 0.441569 4.37879 0
M  V30 2997 H 287.658 0.21463 0.705055 0
M  V30 2998 H 290.3 1.17316 1.49455 0
M  V30 2999 H 288.45 0.428431 3.8613 0
M  V30 3000 H 290.122 3.01216 3.4938 0
M  V30 3001 H 288.365 2.8848 3.23978 0
M  V30 3002 H 289.036 2.62947 4.85348 0
M  V30 3003 H 291.512 0.869448 4.06915 0
M  V30 3004 H 290.388 0.708856 5.44304 0
M  V30 3005 H 290.649 -0.658467 4.37169 0
M  V30 3006 N 289.708 -1.40897 0.706093 0
M  V30 3007 C 291.124 -1.55042 0.37869 0
M  V30 3008 C 291.324 -1.67944 -1.11342 0
M  V30 3009 O 290.38 -1.66372 -1.89938 0
M  V30 3010 C 291.693 -2.78398 1.13643 0
M  V30 3011 C 293.241 -2.92206 1.12181 0
M  V30 3012 C 293.716 -4.18463 1.86152 0
M  V30 3013 N 295.207 -4.25443 1.83173 0
M  V30 3014 C 295.942 -5.2202 2.37239 0
M  V30 3015 N 295.438 -6.24563 2.99821 0
M  V30 3016 N 297.231 -5.14033 2.27435 0
M  V30 3017 H 289.382 -1.30769 1.67372 0
M  V30 3018 H 291.645 -0.631653 0.706907 0
M  V30 3019 H 291.351 -2.7511 2.19106 0
M  V30 3020 H 291.225 -3.70228 0.721853 0
M  V30 3021 H 293.612 -2.95004 0.0754171 0
M  V30 3022 H 293.693 -2.01521 1.57554 0
M  V30 3023 H 293.337 -4.16427 2.90776 0
M  V30 3024 H 293.267 -5.08141 1.38206 0
M  V30 3025 H 295.758 -3.51976 1.37556 0
M  V30 3026 H 296.071 -6.94665 3.38616 0
M  V30 3027 H 294.416 -6.25035 3.03902 0
M  V30 3028 H 297.607 -4.3285 1.78208 0
M  V30 3029 H 297.78 -5.89129 2.69873 0
M  V30 3030 N 291.186 -0.45159 -1.50991 0
M  V30 3031 C 292.597 0.00818571 -1.86698 0
M  V30 3032 C 292.948 1.40661 -1.3678 0
M  V30 3033 O 292.073 2.0391 -0.724546 0
M  V30 3034 C 292.668 0.0216303 -3.38793 0
M  V30 3035 C 291.227 0.425865 -3.73983 0
M  V30 3036 C 290.374 -0.372163 -2.74791 0
M  V30 3037 H 293.325 -0.666785 -1.44013 0
M  V30 3038 H 293.346 0.828078 -3.7138 0
M  V30 3039 H 292.858 -0.996288 -3.75094 0
M  V30 3040 H 290.959 1.44886 -3.43277 0
M  V30 3041 H 291.072 0.140761 -4.78893 0
M  V30 3042 H 289.436 0.171498 -2.54122 0
M  V30 3043 H 290.219 -1.38922 -3.13935 0
M  V30 3044 N 292.664 1.56529 -0.183458 0
M  V30 3045 C 293.941 1.88959 0.50536 0
M  V30 3046 C 294.321 1.09523 1.80466 0
M  V30 3047 O 293.669 0.19278 2.27685 0
M  V30 3048 C 293.879 3.41162 0.73547 0
M  V30 3049 C 295.227 4.11155 1.06005 0
M  V30 3050 O 296.251 3.46548 0.823594 0
M  V30 3051 O 295.11 5.25318 1.50675 0
M  V30 3052 H 292.204 0.78441 0.261973 0
M  V30 3053 H 294.75 1.68231 -0.222802 0
M  V30 3054 H 293.522 3.90874 -0.182561 0
M  V30 3055 H 293.145 3.67543 1.51651 0
M  V30 3056 N 294.142 -0.090211 1.57342 0
M  V30 3057 C 295.372 -0.805055 1.90269 0
M  V30 3058 C 295.78 -1.72561 0.775842 0
M  V30 3059 O 295.123 -1.81839 -0.260843 0
M  V30 3060 C 295.185 -1.66734 3.18497 0
M  V30 3061 C 294.849 -0.918092 4.47683 0
M  V30 3062 C 295.846 -0.245674 5.19319 0
M  V30 3063 C 293.531 -0.890724 4.94339 0
M  V30 3064 C 295.525 0.444088 6.35851 0
M  V30 3065 C 293.212 -0.197179 6.10782 0
M  V30 3066 C 294.21 0.469044 6.81388 0
M  V30 3067 O 293.898 1.15146 7.95611 0
M  V30 3068 H 293.63 -0.235143 0.633785 0
M  V30 3069 H 296.184 -0.0703805 2.05279 0
M  V30 3070 H 294.414 -2.44437 2.99646 0
M  V30 3071 H 296.103 -2.25919 3.37217 0
M  V30 3072 H 296.869 -0.258246 4.84312 0
M  V30 3073 H 292.748 -1.39873 4.39268 0
M  V30 3074 H 296.292 0.964667 6.90898 0
M  V30 3075 H 292.189 -0.18247 6.45242 0
M  V30 3076 H 292.957 1.05885 8.11622 0
M  V30 3077 N 295.62 -1.53406 -0.361157 0
M  V30 3078 C 296.55 -1.83136 -1.44857 0
M  V30 3079 C 297.531 -0.685174 -1.5569 0
M  V30 3080 O 298.716 -0.93544 -1.70186 0
M  V30 3081 C 295.846 -2.02522 -2.82138 0
M  V30 3082 C 294.8 -3.18302 -2.86126 0
M  V30 3083 C 294.126 -3.22989 -4.26125 0
M  V30 3084 C 295.426 -4.56796 -2.53248 0
M  V30 3085 H 297.12 -2.74201 -1.20226 0
M  V30 3086 H 294.666 -1.31938 -0.576922 0
M  V30 3087 H 296.619 -2.21904 -3.58241 0
M  V30 3088 H 295.343 -1.08172 -3.08166 0
M  V30 3089 H 294.002 -2.98747 -2.12475 0
M  V30 3090 H 293.65 -2.26267 -4.49235 0
M  V30 3091 H 293.35 -4.00781 -4.29708 0
M  V30 3092 H 294.874 -3.44559 -5.04094 0
M  V30 3093 H 296.288 -4.7631 -3.19064 0
M  V30 3094 H 294.685 -5.36862 -2.68141 0
M  V30 3095 H 295.755 -4.61606 -1.48484 0
M  V30 3096 N 297.098 0.621204 -1.44841 0
M  V30 3097 C 298.045 1.73267 -1.5247 0
M  V30 3098 C 299.015 1.6189 -0.371611 0
M  V30 3099 O 300.2 1.81668 -0.58321 0
M  V30 3100 C 297.34 3.11545 -1.48438 0
M  V30 3101 C 296.453 3.33827 -2.74196 0
M  V30 3102 C 295.588 4.62133 -2.61929 0
M  V30 3103 C 294.627 4.77627 -3.82804 0
M  V30 3104 N 293.764 5.97219 -3.69153 0
M  V30 3105 H 298.604 1.66082 -2.47428 0
M  V30 3106 H 296.141 0.810026 -1.22788 0
M  V30 3107 H 298.099 3.91528 -1.4409 0
M  V30 3108 H 296.729 3.1772 -0.570402 0
M  V30 3109 H 295.781 2.47715 -2.88689 0
M  V30 3110 H 297.093 3.41153 -3.6389 0
M  V30 3111 H 296.247 5.50291 -2.5547 0
M  V30 3112 H 294.986 4.57182 -1.69811 0
M  V30 3113 H 293.991 3.87896 -3.89637 0
M  V30 3114 H 295.216 4.84385 -4.75971 0
M  V30 3115 H 293.162 5.93339 -2.79794 0
M  V30 3116 H 293.079 6.05644 -4.52472 0
M  V30 3117 H 294.347 6.87912 -3.66603 0
M  V30 3118 N 298.576 1.31904 0.862503 0
M  V30 3119 C 299.539 1.20131 1.95195 0
M  V30 3120 C 300.539 0.126409 1.60302 0
M  V30 3121 O 301.729 0.376234 1.70089 0
M  V30 3122 C 298.861 0.845691 3.30244 0
M  V30 3123 H 300.054 2.16943 2.07064 0
M  V30 3124 H 297.607 1.15622 1.05172 0
M  V30 3125 H 298.342 -0.120957 3.24074 0
M  V30 3126 H 298.127 1.62276 3.56944 0
M  V30 3127 H 299.617 0.787418 4.10109 0
M  V30 3128 N 300.054 -1.07777 1.14986 0
M  V30 3129 C 301.303 -1.79669 0.916617 0
M  V30 3130 C 301.616 -1.87474 -0.557917 0
M  V30 3131 O 302.822 -2.55845 -0.908617 0
M  V30 3132 C 301.278 -3.22848 1.59051 0
M  V30 3133 C 300.886 -3.23257 3.10176 0
M  V30 3134 C 302.63 -3.99379 1.43864 0
M  V30 3135 C 300.537 -4.61063 3.70372 0
M  V30 3136 H 299.467 -0.673349 0.33929 0
M  V30 3137 H 302.118 -1.21003 1.37951 0
M  V30 3138 H 300.5 -3.8168 1.0553 0
M  V30 3139 H 301.674 -2.74095 3.70417 0
M  V30 3140 H 299.989 -2.60222 3.25074 0
M  V30 3141 H 302.586 -5.0122 1.86232 0
M  V30 3142 H 302.929 -4.14511 0.385564 0
M  V30 3143 H 303.462 -3.47032 1.94457 0
M  V30 3144 H 300.201 -4.51135 4.7556 0
M  V30 3145 H 299.721 -5.1048 3.14913 0
M  V30 3146 H 301.4 -5.30034 3.71043 0
M  V30 3147 N 301.532 -0.945985 -1.26051 0
M  V30 3148 C 302.778 -0.606539 -1.94146 0
M  V30 3149 C 303.133 0.84586 -1.72809 0
M  V30 3150 O 302.426 1.59781 -1.05738 0
M  V30 3151 C 302.62 -0.890475 -3.46129 0
M  V30 3152 C 302.449 -2.36892 -3.82246 0
M  V30 3153 C 301.219 -3.02494 -4.04753 0
M  V30 3154 C 303.417 -3.34772 -3.90425 0
M  V30 3155 N 301.399 -4.40302 -4.27794 0
M  V30 3156 C 302.77 -4.57855 -4.18054 0
M  V30 3157 C 304.825 -3.2973 -3.73072 0
M  V30 3158 C 303.528 -5.76522 -4.30134 0
M  V30 3159 C 305.554 -4.47727 -3.86386 0
M  V30 3160 C 304.916 -5.69593 -4.14419 0
M  V30 3161 H 301.015 -0.272407 -0.73302 0
M  V30 3162 H 303.599 -1.21638 -1.52027 0
M  V30 3163 H 301.77 -0.309638 -3.87164 0
M  V30 3164 H 303.502 -0.51181 -4.01451 0
M  V30 3165 H 300.257 -2.53095 -4.003 0
M  V30 3166 H 300.681 -5.11646 -4.43337 0
M  V30 3167 H 305.323 -2.36565 -3.50424 0
M  V30 3168 H 303.041 -6.70136 -4.51601 0
M  V30 3169 H 306.627 -4.45363 -3.74356 0
M  V30 3170 H 305.507 -6.59375 -4.24493 0
M  V30 3171 N 303.011 1.40521 -0.713556 0
M  V30 3172 C 303.959 2.32549 -0.0485227 0
M  V30 3173 C 304.953 1.51931 0.74922 0
M  V30 3174 O 306.159 1.67745 0.652816 0
M  V30 3175 H 302.534 0.751994 0.00311138 0
M  V30 3176 H 304.505 2.86291 -0.841443 0
M  V30 3177 C 303.254 3.36879 0.860687 0
M  V30 3178 H 302.577 3.98978 0.256246 0
M  V30 3179 H 304.017 4.03772 1.294 0
M  V30 3180 C 302.476 2.72197 1.9852 0
M  V30 3181 O 303.006 2.5837 3.07584 0
M  V30 3182 N 301.212 2.30612 1.76823 0
M  V30 3183 H 300.759 2.42059 0.881217 0
M  V30 3184 H 300.717 1.87672 2.52243 0
M  V30 3185 N 304.489 0.459591 1.5075 0
M  V30 3186 C 305.735 -0.0994966 2.02556 0
M  V30 3187 C 306.068 -1.40399 1.3417 0
M  V30 3188 O 305.343 -1.88892 0.463683 0
M  V30 3189 C 305.626 -0.295242 3.58888 0
M  V30 3190 C 305.479 1.02947 4.37861 0
M  V30 3191 C 306.798 -1.05502 4.27267 0
M  V30 3192 H 303.917 -0.034686 0.736183 0
M  V30 3193 H 306.559 0.602938 1.8018 0
M  V30 3194 H 304.709 -0.893563 3.78084 0
M  V30 3195 H 306.381 1.66348 4.30263 0
M  V30 3196 H 304.624 1.62885 4.02058 0
M  V30 3197 H 305.295 0.846281 5.45474 0
M  V30 3198 H 307.771 -0.547993 4.12476 0
M  V30 3199 H 306.647 -1.16077 5.36486 0
M  V30 3200 H 306.908 -2.08875 3.89645 0
M  V30 3201 N 305.967 -1.56429 0.191757 0
M  V30 3202 C 307.216 -1.9666 -0.448088 0
M  V30 3203 C 307.529 -1.08136 -1.62991 0
M  V30 3204 O 308.735 -1.38135 -2.33733 0
M  V30 3205 C 307.191 -3.49753 -0.848585 0
M  V30 3206 C 306.799 -4.46935 0.308764 0
M  V30 3207 C 308.543 -3.9876 -1.4557 0
M  V30 3208 C 306.45 -5.91293 -0.112506 0
M  V30 3209 H 305.38 -0.734312 -0.171179 0
M  V30 3210 H 308.031 -1.81301 0.283242 0
M  V30 3211 H 306.413 -3.60604 -1.63649 0
M  V30 3212 H 307.587 -4.47813 1.08627 0
M  V30 3213 H 305.902 -4.08102 0.827158 0
M  V30 3214 H 308.499 -5.04086 -1.78328 0
M  V30 3215 H 308.842 -3.42875 -2.36099 0
M  V30 3216 H 309.375 -3.9101 -0.731836 0
M  V30 3217 H 306.114 -6.51097 0.758514 0
M  V30 3218 H 305.634 -5.93676 -0.854941 0
M  V30 3219 H 307.313 -6.44663 -0.549448 0
M  V30 3220 N 307.445 0.0818655 -1.57387 0
M  V30 3221 C 308.393 1.11712 -2.04018 0
M  V30 3222 C 309.387 1.40683 -0.94364 0
M  V30 3223 O 310.593 1.40209 -1.12878 0
M  V30 3224 H 306.968 0.377542 -0.650358 0
M  V30 3225 H 308.939 0.697614 -2.90131 0
M  V30 3226 C 307.688 2.42537 -2.49141 0
M  V30 3227 H 307.011 2.21092 -3.33104 0
M  V30 3228 H 308.451 3.13446 -2.85531 0
M  V30 3229 C 306.91 3.0778 -1.37014 0
M  V30 3230 O 307.44 3.95436 -0.706621 0
M  V30 3231 N 305.646 2.68242 -1.11779 0
M  V30 3232 H 305.193 1.97052 -1.65917 0
M  V30 3233 H 305.151 3.1222 -0.369594 0
M  V30 3234 N 308.923 1.53595 0.353017 0
M  V30 3235 C 310.169 1.71581 1.09232 0
M  V30 3236 C 310.524 0.468328 1.86613 0
M  V30 3237 O 309.817 -0.538911 1.83865 0
M  V30 3238 C 310.011 2.91313 2.07054 0
M  V30 3239 C 309.84 4.27585 1.39287 0
M  V30 3240 C 308.61 4.92233 1.1417 0
M  V30 3241 C 310.808 5.07656 0.824005 0
M  V30 3242 N 308.79 6.124 0.428841 0
M  V30 3243 C 310.161 6.19531 0.241195 0
M  V30 3244 C 312.216 4.92609 0.723922 0
M  V30 3245 C 310.919 7.18002 -0.431952 0
M  V30 3246 C 312.945 5.91365 0.0645334 0
M  V30 3247 C 312.307 7.02571 -0.507347 0
M  V30 3248 H 308.406 0.680987 0.384422 0
M  V30 3249 H 310.99 1.91013 0.377096 0
M  V30 3250 H 309.161 2.73398 2.75877 0
M  V30 3251 H 310.893 2.98062 2.73753 0
M  V30 3252 H 307.648 4.51612 1.42631 0
M  V30 3253 H 308.072 6.76944 0.0874131 0
M  V30 3254 H 312.714 4.06808 1.15181 0
M  V30 3255 H 310.432 8.03384 -0.871758 0
M  V30 3256 H 314.018 5.81799 -0.0121469 0
M  V30 3257 H 312.898 7.77675 -1.0095 0
M  V30 3258 N 310.401 -0.613514 1.45168 0
M  V30 3259 C 311.311 -1.75296 1.55912 0
M  V30 3260 C 312.327 -1.68244 0.443856 0
M  V30 3261 O 313.503 -1.88706 0.70371 0
M  V30 3262 C 310.568 -3.1174 1.5172 0
M  V30 3263 C 309.629 -3.30291 2.74238 0
M  V30 3264 C 308.862 -4.60226 2.70236 0
M  V30 3265 O 309.085 -5.42168 1.77229 0
M  V30 3266 O 308.019 -4.81361 3.61352 0
M  V30 3267 H 311.845 -1.69183 2.52212 0
M  V30 3268 H 309.43 -0.776886 1.27612 0
M  V30 3269 H 311.312 -3.93044 1.51968 0
M  V30 3270 H 309.987 -3.18357 0.585697 0
M  V30 3271 H 308.894 -2.48598 2.79553 0
M  V30 3272 H 310.227 -3.28547 3.66494 0
M  V30 3273 N 311.879 -1.3236 -0.855495 0
M  V30 3274 C 312.827 -1.2118 -1.9854 0
M  V30 3275 C 313.821 -0.116788 -1.68997 0
M  V30 3276 O 315.027 -0.279657 -1.77814 0
M  V30 3277 H 311.402 -0.375608 -0.651477 0
M  V30 3278 H 313.373 -2.16743 -2.05098 0
M  V30 3279 C 312.122 -0.950849 -3.34446 0
M  V30 3280 H 311.445 -1.78563 -3.57708 0
M  V30 3281 H 312.885 -0.912863 -4.14057 0
M  V30 3282 C 311.344 0.346404 -3.35114 0
M  V30 3283 O 311.874 1.35855 -3.7803 0
M  V30 3284 N 310.08 0.36808 -2.88259 0
M  V30 3285 H 309.627 -0.456102 -2.5353 0
M  V30 3286 H 309.585 1.23591 -2.89089 0
M  V30 3287 N 313.357 1.07166 -1.15556 0
M  V30 3288 C 314.603 1.80065 -0.932984 0
M  V30 3289 C 314.936 1.86586 0.53845 0
M  V30 3290 O 314.211 1.35098 1.39924 0
M  V30 3291 C 314.494 3.25022 -1.55025 0
M  V30 3292 C 314.347 3.26634 -3.09242 0
M  V30 3293 C 315.666 4.22341 -1.2376 0
M  V30 3294 H 312.785 0.653697 -0.340366 0
M  V30 3295 H 315.427 1.25389 -1.4275 0
M  V30 3296 H 313.577 3.71712 -1.12972 0
M  V30 3297 H 315.249 2.88173 -3.60214 0
M  V30 3298 H 313.492 2.65539 -3.43033 0
M  V30 3299 H 314.163 4.28854 -3.47546 0
M  V30 3300 H 316.639 3.8405 -1.60139 0
M  V30 3301 H 315.515 5.22053 -1.69564 0
M  V30 3302 H 315.776 4.41828 -0.154938 0
M  V30 3303 N 314.835 0.952656 1.25548 0
M  V30 3304 C 316.063 0.623496 1.97282 0
M  V30 3305 C 316.478 -0.803987 1.70826 0
M  V30 3306 O 315.835 -1.53755 0.983147 0
M  V30 3307 C 315.886 0.870209 3.5087 0
M  V30 3308 O 315.607 2.24156 3.76412 0
M  V30 3309 C 317.108 0.553164 4.39835 0
M  V30 3310 H 314.328 0.233931 0.628902 0
M  V30 3311 H 316.872 1.27649 1.59768 0
M  V30 3312 H 315.027 0.263652 3.86502 0
M  V30 3313 H 315.441 2.31021 4.70882 0
M  V30 3314 H 316.915 0.776342 5.46513 0
M  V30 3315 H 317.392 -0.512215 4.36203 0
M  V30 3316 H 317.998 1.13896 4.09766 0
M  V30 3317 N 316.313 -1.40141 0.720998 0
M  V30 3318 C 317.223 -2.34486 0.0731031 0
M  V30 3319 C 318.239 -1.57587 -0.737723 0
M  V30 3320 O 319.415 -1.89949 -0.669429 0
M  V30 3321 C 316.48 -3.36528 -0.833656 0
M  V30 3322 C 315.541 -4.29298 -0.0121673 0
M  V30 3323 C 314.774 -5.26466 -0.875742 0
M  V30 3324 O 314.997 -5.29745 -2.11485 0
M  V30 3325 O 313.931 -6.01092 -0.31185 0
M  V30 3326 H 317.757 -2.9152 0.851444 0
M  V30 3327 H 315.342 -1.41427 0.481527 0
M  V30 3328 H 317.224 -3.99093 -1.35289 0
M  V30 3329 H 315.899 -2.81899 -1.59105 0
M  V30 3330 H 314.806 -3.70001 0.552262 0
M  V30 3331 H 316.139 -4.87094 0.707129 0
M  V30 3332 N 317.792 -0.46758 -1.50504 0
M  V30 3333 C 319.208 -0.121533 -1.59137 0
M  V30 3334 C 319.408 1.3717 -1.47603 0
M  V30 3335 O 318.464 2.14464 -1.33272 0
M  V30 3336 C 319.777 -0.6686 -2.93173 0
M  V30 3337 C 321.325 -0.631716 -3.06559 0
M  V30 3338 C 321.8 -1.15627 -4.43164 0
M  V30 3339 N 323.291 -1.11553 -4.49567 0
M  V30 3340 C 324.026 -1.49195 -5.5365 0
M  V30 3341 N 323.522 -1.94269 -6.65005 0
M  V30 3342 N 325.315 -1.4082 -5.44175 0
M  V30 3343 H 317.466 -1.4388 -1.56245 0
M  V30 3344 H 319.729 -0.594784 -0.738198 0
M  V30 3345 H 319.435 -1.71453 -3.07078 0
M  V30 3346 H 319.309 -0.11021 -3.77039 0
M  V30 3347 H 321.696 0.405297 -2.92304 0
M  V30 3348 H 321.777 -1.22687 -2.24458 0
M  V30 3349 H 321.421 -2.1919 -4.58168 0
M  V30 3350 H 321.351 -0.537365 -5.23851 0
M  V30 3351 H 323.842 -0.784895 -3.69659 0
M  V30 3352 H 324.155 -2.21148 -7.40482 0
M  V30 3353 H 322.5 -1.98219 -6.66134 0
M  V30 3354 H 325.691 -1.0545 -4.56068 0
M  V30 3355 H 325.864 -1.70481 -6.25172 0
M  V30 3356 N 319.27 1.56325 -0.20005 0
M  V30 3357 C 320.5 2.01811 0.442232 0
M  V30 3358 C 320.908 1.07932 1.55394 0
M  V30 3359 O 320.251 0.0772685 1.83537 0
M  V30 3360 C 320.313 3.43685 1.05457 0
M  V30 3361 C 319.977 4.56928 0.0809833 0
M  V30 3362 C 320.974 5.15009 -0.711471 0
M  V30 3363 C 318.659 5.0229 -0.0315364 0
M  V30 3364 C 320.653 6.16904 -1.60336 0
M  V30 3365 C 318.34 6.04028 -0.926981 0
M  V30 3366 C 319.338 6.6121 -1.71146 0
M  V30 3367 O 319.026 7.60971 -2.59189 0
M  V30 3368 H 318.758 0.666173 0.114848 0
M  V30 3369 H 321.312 2.03085 -0.307511 0
M  V30 3370 H 319.542 3.39413 1.85299 0
M  V30 3371 H 321.231 3.72948 1.60201 0
M  V30 3372 H 321.997 4.80827 -0.634873 0
M  V30 3373 H 317.876 4.57476 0.568902 0
M  V30 3374 H 321.42 6.61464 -2.21611 0
M  V30 3375 H 317.317 6.37634 -1.00468 0
M  V30 3376 H 318.085 7.7841 -2.53023 0
M  V30 3377 N 320.748 -0.0735177 1.57428 0
M  V30 3378 C 321.681 -1.11932 1.98863 0
M  V30 3379 C 322.659 -1.37666 0.865266 0
M  V30 3380 O 323.843 -1.51068 1.12742 0
M  V30 3381 C 320.97 -2.46403 2.32386 0
M  V30 3382 C 320.016 -2.36815 3.54713 0
M  V30 3383 S 320.849 -1.76392 5.05614 0
M  V30 3384 C 322.005 -3.12444 5.42337 0
M  V30 3385 H 322.238 -0.766212 2.87257 0
M  V30 3386 H 319.771 -0.281987 1.51803 0
M  V30 3387 H 321.729 -3.23755 2.52375 0
M  V30 3388 H 320.39 -2.78876 1.44524 0
M  V30 3389 H 319.583 -3.35977 3.7568 0
M  V30 3390 H 319.185 -1.67598 3.34345 0
M  V30 3391 H 321.477 -4.08753 5.40303 0
M  V30 3392 H 322.42 -2.96258 6.43146 0
M  V30 3393 H 322.828 -3.1297 4.69798 0
M  V30 3394 N 322.226 -1.5378 -0.344866 0
M  V30 3395 C 323.189 -1.80981 -1.40637 0
M  V30 3396 C 324.189 -0.680816 -1.45676 0
M  V30 3397 O 325.379 -0.949095 -1.46075 0
M  V30 3398 C 322.511 -1.95063 -2.79577 0
M  V30 3399 H 323.704 -2.75803 -1.17783 0
M  V30 3400 H 321.257 -1.45173 -0.579181 0
M  V30 3401 H 321.992 -1.02379 -3.07716 0
M  V30 3402 H 321.777 -2.77198 -2.77315 0
M  V30 3403 H 323.267 -2.17629 -3.56409 0
M  V30 3404 N 323.704 0.605807 -1.45491 0
M  V30 3405 C 324.944 1.37606 -1.51142 0
M  V30 3406 C 325.308 1.91413 -0.150075 0
M  V30 3407 O 326.509 2.68677 -0.0812828 0
M  V30 3408 C 324.78 2.49197 -2.56195 0
M  V30 3409 S 326.339 3.36953 -2.81083 0
M  V30 3410 H 323.157 0.469118 -0.534275 0
M  V30 3411 H 325.759 0.698845 -1.82583 0
M  V30 3412 H 324.463 2.0802 -3.53773 0
M  V30 3413 H 323.994 3.21717 -2.26411 0
M  V30 3414 H 326.009 4.47395 -2.14598 0
M  V30 3415 N 325.182 1.32811 0.848464 0
M  V30 3416 C 326.129 1.22265 1.95755 0
M  V30 3417 C 327.099 0.103413 1.65778 0
M  V30 3418 O 328.284 0.280033 1.88734 0
M  V30 3419 C 325.424 0.958014 3.31536 0
M  V30 3420 C 324.537 2.16262 3.73971 0
M  V30 3421 C 323.672 1.83295 4.98575 0
M  V30 3422 C 322.711 3.00041 5.33518 0
M  V30 3423 N 321.848 2.67125 6.49299 0
M  V30 3424 H 326.688 2.17128 2.04107 0
M  V30 3425 H 324.225 1.07982 0.998913 0
M  V30 3426 H 326.183 0.785052 4.09747 0
M  V30 3427 H 324.813 0.046159 3.22767 0
M  V30 3428 H 323.865 2.44565 2.91362 0
M  V30 3429 H 325.177 3.03572 3.95785 0
M  V30 3430 H 324.331 1.62586 5.84509 0
M  V30 3431 H 323.07 0.932078 4.7871 0
M  V30 3432 H 322.075 3.21374 4.46093 0
M  V30 3433 H 323.3 3.90869 5.55336 0
M  V30 3434 H 321.246 1.79586 6.3094 0
M  V30 3435 H 321.163 3.47965 6.71161 0
M  V30 3436 H 322.431 2.49861 7.3837 0
M  V30 3437 N 326.66 -1.06551 1.16123 0
M  V30 3438 C 327.607 -2.13961 0.865414 0
M  V30 3439 C 328.577 -1.65066 -0.185055 0
M  V30 3440 O 329.762 -1.90732 -0.05083 0
M  V30 3441 C 326.902 -3.43113 0.369776 0
M  V30 3442 C 326.015 -4.05756 1.48276 0
M  V30 3443 C 325.15 -5.22773 0.942414 0
M  V30 3444 C 324.189 -5.77395 2.03179 0
M  V30 3445 N 323.326 -6.85731 1.50721 0
M  V30 3446 H 328.166 -2.38605 1.78527 0
M  V30 3447 H 325.703 -1.17072 0.890646 0
M  V30 3448 H 327.661 -4.17151 0.0640643 0
M  V30 3449 H 326.291 -3.18695 -0.513143 0
M  V30 3450 H 325.343 -3.29292 1.9045 0
M  V30 3451 H 326.655 -4.42351 2.30493 0
M  V30 3452 H 325.809 -6.03827 0.589729 0
M  V30 3453 H 324.548 -4.87618 0.0895191 0
M  V30 3454 H 323.553 -4.94981 2.3932 0
M  V30 3455 H 324.778 -6.14603 2.8886 0
M  V30 3456 H 322.724 -6.52499 0.676811 0
M  V30 3457 H 322.641 -7.21254 2.26557 0
M  V30 3458 H 323.909 -7.7047 1.18303 0
M  V30 3459 O 328.177 -1.08916 -1.19246 0
M  V30 3460 H 328.868 -0.783022 -1.77168 0
M  V30 END ATOM
M  V30 BEGIN BOND
M  V30 END BOND
M  V30 END CTAB
M  END
$$$$
