drugbank_target|Q54527 Aclacinomycin 10-hydroxylase RdmB (DB01752; DB01910; DB03219)
 OpenBabel12092120223D

  0  0  0     0  0            999 V3000
M  V30 BEGIN CTAB
M  V30 COUNTS 5581 5631 0 0 0
M  V30 BEGIN ATOM
M  V30 1 H -0.908 1.98254 -0.117106 0
M  V30 2 N 0 1.576 0 0
M  V30 3 C 0.933 2.03868 1.02534 0
M  V30 4 C 1.911 0.928543 1.3348 0
M  V30 5 O 3.095 1.19667 1.45644 0
M  V30 6 C 0.222 2.43627 2.35294 0
M  V30 7 C -0.732 3.65373 2.2001 0
M  V30 8 S 0.101 5.13292 1.52614 0
M  V30 9 C 1.257 5.56322 2.86805 0
M  V30 10 H 1.49 2.90518 0.631377 0
M  V30 11 H -0.977 1.52953 0.210867 0
M  V30 12 H 0.981 2.67203 3.11629 0
M  V30 13 H -0.358 1.57376 2.7183 0
M  V30 14 H -1.165 3.90944 3.18086 0
M  V30 15 H -1.563 3.418 1.51819 0
M  V30 16 H 0.729 5.58782 3.83104 0
M  V30 17 H 1.672 6.56266 2.65933 0
M  V30 18 H 2.08 4.83886 2.90714 0
M  V30 19 N 1.4781 -0.272755 1.55222 0
M  V30 20 C 2.7031 -1.02683 1.80197 0
M  V30 21 C 3.1281 -1.79142 0.573551 0
M  V30 22 O 2.4861 -1.74917 -0.476849 0
M  V30 23 C 2.5341 -1.9609 3.02624 0
M  V30 24 O 1.6381 -3.04863 2.77727 0
M  V30 25 H 0.9791 -0.293557 0.595584 0
M  V30 26 H 3.5091 -0.30159 2.02365 0
M  V30 27 H 3.5191 -2.38039 3.31363 0
M  V30 28 H 2.1941 -1.39851 3.91682 0
M  V30 29 H 0.7711 -2.67228 2.60084 0
M  V30 30 N 2.9562 -1.48159 -0.537278 0
M  V30 31 C 4.1812 -1.59707 -1.32319 0
M  V30 32 C 4.6062 -0.254859 -1.86365 0
M  V30 33 O 3.9642 0.772378 -1.64024 0
M  V30 34 C 4.0122 -2.6412 -2.45505 0
M  V30 35 O 3.1162 -2.20774 -3.48328 0
M  V30 36 H 2.4572 -0.535791 -0.392204 0
M  V30 37 H 4.9872 -1.94092 -0.647268 0
M  V30 38 H 4.9972 -2.85166 -2.91795 0
M  V30 39 H 3.6722 -3.61567 -2.05528 0
M  V30 40 H 2.2492 -2.09911 -3.08207 0
M  V30 41 N 4.4343 0.785586 -1.36625 0
M  V30 42 C 5.6593 1.57963 -1.34397 0
M  V30 43 C 6.0843 1.87964 0.071526 0
M  V30 44 O 5.4423 1.48182 1.0446 0
M  V30 45 C 5.4903 2.87511 -2.17646 0
M  V30 46 O 4.5943 3.81281 -1.57158 0
M  V30 47 H 3.9353 0.479014 -0.459828 0
M  V30 48 H 6.4653 0.973411 -1.79961 0
M  V30 49 H 6.4753 3.36745 -2.30362 0
M  V30 50 H 5.1503 2.65002 -3.20541 0
M  V30 51 H 3.7273 3.39885 -1.53403 0
M  V30 52 N 5.9124 1.20967 1.01018 0
M  V30 53 C 7.1374 1.0503 1.78839 0
M  V30 54 C 7.5624 -0.395752 1.8389 0
M  V30 55 O 6.9204 -1.28529 1.27867 0
M  V30 56 C 6.9684 1.64602 3.2084 0
M  V30 57 O 6.0724 0.887988 4.02726 0
M  V30 58 H 5.4134 0.369987 0.551367 0
M  V30 59 H 7.9434 1.60399 1.27018 0
M  V30 60 H 7.9534 1.68607 3.71532 0
M  V30 61 H 6.6284 2.69841 3.16479 0
M  V30 62 H 5.2054 0.922648 3.61305 0
M  V30 63 N 7.3905 -1.2043 1.01659 0
M  V30 64 C 8.8015 -1.71517 0.737482 0
M  V30 65 C 9.1525 -1.81547 -0.743973 0
M  V30 66 O 8.2775 -1.47803 -1.58061 0
M  V30 67 C 8.8725 -3.11515 1.33206 0
M  V30 68 C 7.4315 -3.59912 1.10183 0
M  V30 69 C 6.5785 -2.37116 1.43776 0
M  V30 70 H 9.5295 -1.05444 1.18606 0
M  V30 71 H 9.5505 -3.73575 0.722636 0
M  V30 72 H 9.0625 -3.04182 2.41028 0
M  V30 73 H 7.1635 -3.72577 0.0412756 0
M  V30 74 H 7.2765 -4.44731 1.78188 0
M  V30 75 H 5.6405 -2.39857 0.856778 0
M  V30 76 H 6.4235 -2.32424 2.52654 0
M  V30 77 N 8.8686 -0.792821 -1.36206 0
M  V30 78 C 10.1166 -0.366062 -1.98757 0
M  V30 79 C 10.4376 1.0668 -1.63231 0
M  V30 80 O 9.7076 1.73587 -0.907978 0
M  V30 81 H 8.2876 -0.132364 -0.735179 0
M  V30 82 H 10.9496 -1.01562 -1.66347 0
M  V30 83 H 10.0456 -0.460638 -3.08682 0
M  V30 84 N 10.3467 1.47872 -0.545128 0
M  V30 85 C 11.2567 2.33633 0.212746 0
M  V30 86 C 12.2727 1.4744 0.923983 0
M  V30 87 O 13.4487 1.80393 0.895572 0
M  V30 88 C 10.5137 3.23884 1.23693 0
M  V30 89 C 9.5747 4.25961 0.534417 0
M  V30 90 C 8.8077 5.11899 1.5098 0
M  V30 91 O 9.0307 5.00077 2.7437 0
M  V30 92 O 7.9647 5.92831 1.0409 0
M  V30 93 H 11.7907 2.99714 -0.490416 0
M  V30 94 H 9.3757 1.46235 -0.305871 0
M  V30 95 H 11.2577 3.79666 1.82843 0
M  V30 96 H 9.9327 2.60446 1.92222 0
M  V30 97 H 8.8397 3.73972 -0.0979679 0
M  V30 98 H 10.1727 4.92079 -0.109213 0
M  V30 99 N 11.8248 0.280983 1.55075 0
M  V30 100 C 13.2358 -0.215629 1.85451 0
M  V30 101 C 13.5868 -1.54991 1.203 0
M  V30 102 O 12.7118 -2.10699 0.493435 0
M  V30 103 C 13.3068 -0.398026 3.36454 0
M  V30 104 C 11.8658 -0.838866 3.66933 0
M  V30 105 C 11.0128 0.064458 2.77225 0
M  V30 106 H 13.9638 0.502601 1.50531 0
M  V30 107 H 13.9848 -1.23569 3.59876 0
M  V30 108 H 13.4968 0.573241 3.83843 0
M  V30 109 H 11.5978 -1.8214 3.25048 0
M  V30 110 H 11.7108 -0.672123 4.74362 0
M  V30 111 H 10.0748 -0.452863 2.50642 0
M  V30 112 H 10.8578 1.03172 3.2743 0
M  V30 113 N 13.3029 -1.57598 0.00835791 0
M  V30 114 C 14.2329 -2.1198 -0.979113 0
M  V30 115 C 15.2139 -1.03091 -1.35301 0
M  V30 116 O 16.3989 -1.30818 -1.43528 0
M  V30 117 C 13.5289 -2.62995 -2.26828 0
M  V30 118 C 12.4829 -3.76485 -2.03576 0
M  V30 119 C 11.8089 -4.13846 -3.38579 0
M  V30 120 C 13.1089 -5.0342 -1.39161 0
M  V30 121 H 14.8029 -2.94738 -0.526281 0
M  V30 122 H 12.3489 -1.41783 -0.251704 0
M  V30 123 H 14.3019 -2.99669 -2.96271 0
M  V30 124 H 13.0259 -1.7737 -2.7424 0
M  V30 125 H 11.6849 -3.40217 -1.36557 0
M  V30 126 H 11.3329 -3.25232 -3.83709 0
M  V30 127 H 11.0329 -4.90312 -3.23834 0
M  V30 128 H 12.5569 -4.53086 -4.09323 0
M  V30 129 H 13.9709 -5.37812 -1.98573 0
M  V30 130 H 12.3679 -5.84746 -1.34878 0
M  V30 131 H 13.4379 -4.83548 -0.361868 0
M  V30 132 N 14.781 0.264519 -1.55364 0
M  V30 133 C 15.691 1.34902 -1.91934 0
M  V30 134 C 16.707 1.53595 -0.817593 0
M  V30 135 O 17.883 1.67558 -1.11742 0
M  V30 136 C 14.948 2.68676 -2.19121 0
M  V30 137 C 14.009 2.58657 -3.4263 0
M  V30 138 C 13.242 3.86051 -3.68511 0
M  V30 139 O 13.465 4.87126 -2.96757 0
M  V30 140 O 12.399 3.85744 -4.62045 0
M  V30 141 H 16.225 1.06883 -2.8427 0
M  V30 142 H 13.81 0.463775 -1.42019 0
M  V30 143 H 15.692 3.47759 -2.37995 0
M  V30 144 H 14.367 2.96463 -1.29966 0
M  V30 145 H 13.274 1.7792 -3.29082 0
M  V30 146 H 14.607 2.35818 -4.32031 0
M  V30 147 N 16.2591 1.48442 0.529413 0
M  V30 148 C 17.6701 1.5002 1.11134 0
M  V30 149 C 18.0211 0.27031 1.94329 0
M  V30 150 O 17.1461 -0.622507 2.07253 0
M  V30 151 C 17.7411 2.71834 2.02217 0
M  V30 152 C 16.3001 2.76283 2.55627 0
M  V30 153 C 15.4471 2.43542 1.326 0
M  V30 154 H 18.3981 1.5555 0.314641 0
M  V30 155 H 18.4191 2.50384 2.8651 0
M  V30 156 H 17.9311 3.61331 1.41639 0
M  V30 157 H 16.0321 1.90995 3.19924 0
M  V30 158 H 16.1451 3.77725 2.94721 0
M  V30 159 H 14.5091 1.94709 1.64196 0
M  V30 160 H 15.2921 3.3528 0.737734 0
M  V30 161 N 17.7372 -0.778329 1.37039 0
M  V30 162 C 18.9652 -1.56734 1.35063 0
M  V30 163 C 19.3802 -1.88686 -0.0655597 0
M  V30 164 O 18.7372 -1.5096 -1.02554 0
M  V30 165 C 18.7882 -2.88163 2.18276 0
M  V30 166 O 18.5092 -2.57583 3.54376 0
M  V30 167 C 20.0102 -3.82422 2.24206 0
M  V30 168 H 17.2302 -0.485778 0.462883 0
M  V30 169 H 19.7742 -0.965185 1.8029 0
M  V30 170 H 17.9292 -3.44818 1.76576 0
M  V30 171 H 18.3432 -3.41699 3.97922 0
M  V30 172 H 19.8172 -4.71667 2.86765 0
M  V30 173 H 20.2942 -4.21078 1.24861 0
M  V30 174 H 20.9002 -3.31697 2.6619 0
M  V30 175 N 19.2153 -1.21501 -1.00376 0
M  V30 176 C 20.4923 -0.941745 -1.71437 0
M  V30 177 C 20.8723 0.546114 -2.03914 0
M  V30 178 O 20.2203 1.51128 -1.71384 0
M  V30 179 C 20.4303 -1.82812 -2.97289 0
M  V30 180 C 21.7783 -2.07771 -3.70292 0
M  V30 181 O 22.8023 -1.80171 -3.07273 0
M  V30 182 O 21.6613 -2.54456 -4.83647 0
M  V30 183 H 18.7553 -0.353243 -0.747762 0
M  V30 184 H 21.3013 -1.32436 -1.06108 0
M  V30 185 H 20.0733 -2.83501 -2.69709 0
M  V30 186 H 19.6963 -1.4464 -3.70358 0
M  V30 187 N 20.6934 1.19889 -1.02296 0
M  V30 188 C 21.6254 2.22334 -0.556787 0
M  V30 189 C 22.6384 1.58674 0.364199 0
M  V30 190 O 23.8274 1.77768 0.161533 0
M  V30 191 C 20.9274 3.38257 0.208694 0
M  V30 192 C 20.1004 4.31504 -0.71577 0
M  V30 193 C 19.1594 5.262 0.00325597 0
M  V30 194 O 18.1854 5.65798 -0.621357 0
M  V30 195 N 19.3874 5.66303 1.27599 0
M  V30 196 H 22.1524 2.62957 -1.43784 0
M  V30 197 H 19.7134 1.34495 -0.901261 0
M  V30 198 H 21.7054 3.98616 0.699111 0
M  V30 199 H 20.2754 2.96472 0.991102 0
M  V30 200 H 19.4954 3.69016 -1.38638 0
M  V30 201 H 20.7834 4.9072 -1.34428 0
M  V30 202 H 20.1814 5.36155 1.80429 0
M  V30 203 H 18.7384 6.28942 1.71102 0
M  V30 204 N 22.1715 0.800033 1.35784 0
M  V30 205 C 23.4485 0.30088 1.93272 0
M  V30 206 C 23.8285 -1.20857 1.73081 0
M  V30 207 O 23.1765 -2.00502 1.09596 0
M  V30 208 C 23.3865 0.70511 3.41803 0
M  V30 209 C 24.7345 0.690871 4.18942 0
M  V30 210 O 25.7585 0.646244 3.50289 0
M  V30 211 O 24.6175 0.74332 5.41421 0
M  V30 212 H 21.7115 0.0771605 0.823393 0
M  V30 213 H 24.2575 0.88329 1.449 0
M  V30 214 H 23.0295 1.74571 3.50201 0
M  V30 215 H 22.6525 0.0971541 3.97481 0
M  V30 216 N 23.6496 -1.47581 0.552962 0
M  V30 217 C 24.5796 -2.32762 -0.185451 0
M  V30 218 C 25.5606 -1.43527 -0.912905 0
M  V30 219 O 26.7456 -1.72388 -0.894201 0
M  V30 220 C 23.8756 -3.25219 -1.21859 0
M  V30 221 C 22.8296 -4.23661 -0.607864 0
M  V30 222 C 22.1556 -5.05413 -1.74533 0
M  V30 223 C 23.4556 -5.20481 0.435582 0
M  V30 224 H 25.1496 -2.94749 0.525684 0
M  V30 225 H 22.6956 -1.41738 0.254251 0
M  V30 226 H 24.6486 -3.8365 -1.7433 0
M  V30 227 H 23.3726 -2.61279 -1.95961 0
M  V30 228 H 22.0316 -3.66451 -0.104489 0
M  V30 229 H 21.6796 -4.3788 -2.47529 0
M  V30 230 H 21.3796 -5.72059 -1.34249 0
M  V30 231 H 22.9036 -5.66701 -2.27338 0
M  V30 232 H 24.3176 -5.733 -0.00290157 0
M  V30 233 H 22.7146 -5.95305 0.757067 0
M  V30 234 H 23.7846 -4.66217 1.33303 0
M  V30 235 N 25.1277 -0.289203 -1.54924 0
M  V30 236 C 26.4047 0.376032 -1.91951 0
M  V30 237 C 26.7847 1.72622 -1.21511 0
M  V30 238 O 26.1327 2.25853 -0.346767 0
M  V30 239 C 26.3427 0.502378 -3.45365 0
M  V30 240 C 27.6907 0.778741 -4.17398 0
M  V30 241 O 28.7147 0.586647 -3.51336 0
M  V30 242 O 27.5737 1.14698 -5.34328 0
M  V30 243 H 24.6677 0.208167 -0.800372 0
M  V30 244 H 27.2137 -0.336394 -1.66332 0
M  V30 245 H 25.9857 -0.447255 -3.88736 0
M  V30 246 H 25.6087 1.26373 -3.76982 0
M  V30 247 N 26.6058 1.57591 -0.0167156 0
M  V30 248 C 27.8518 1.91567 0.665582 0
M  V30 249 C 28.1848 0.892298 1.72487 0
M  V30 250 O 27.4598 -0.0867127 1.94307 0
M  V30 251 C 27.7428 3.36069 1.29342 0
M  V30 252 C 27.5958 4.49135 0.244541 0
M  V30 253 C 28.9148 3.803 2.21495 0
M  V30 254 H 26.0338 0.69666 0.240488 0
M  V30 255 H 28.6758 1.89866 -0.0714356 0
M  V30 256 H 26.8258 3.3765 1.92158 0
M  V30 257 H 28.4978 4.59689 -0.385228 0
M  V30 258 H 26.7408 4.3165 -0.431379 0
M  V30 259 H 27.4118 5.47242 0.723207 0
M  V30 260 H 29.8878 3.80377 1.68678 0
M  V30 261 H 28.7638 4.82127 2.62382 0
M  V30 262 H 29.0248 3.15104 3.101 0
M  V30 263 N 28.0839 -0.256276 1.55502 0
M  V30 264 C 29.0139 -1.32102 1.92539 0
M  V30 265 C 29.9949 -1.50684 0.789194 0
M  V30 266 O 31.1799 -1.63449 1.04872 0
M  V30 267 C 28.3099 -2.67752 2.21192 0
M  V30 268 C 27.2639 -2.63878 3.36975 0
M  V30 269 C 26.5899 -4.03236 3.51147 0
M  V30 270 C 27.8899 -2.21682 4.72921 0
M  V30 271 H 29.5839 -1.01351 2.81724 0
M  V30 272 H 27.1299 -0.486105 1.35547 0
M  V30 273 H 29.0829 -3.42365 2.45691 0
M  V30 274 H 27.8069 -3.0012 1.28824 0
M  V30 275 H 26.4659 -1.91722 3.12471 0
M  V30 276 H 26.1139 -4.32854 2.56216 0
M  V30 277 H 25.8139 -4.01535 4.29003 0
M  V30 278 H 27.3379 -4.79563 3.77957 0
M  V30 279 H 28.7519 -2.86023 4.96854 0
M  V30 280 H 27.1489 -2.3111 5.53812 0
M  V30 281 H 28.2189 -1.16833 4.70615 0
M  V30 282 N 29.562 -1.4872 -0.521534 0
M  V30 283 C 30.492 -1.66771 -1.63431 0
M  V30 284 C 31.473 -0.516499 -1.62069 0
M  V30 285 O 32.658 -0.750013 -1.79132 0
M  V30 286 C 29.788 -1.71515 -3.01993 0
M  V30 287 C 28.742 -2.86222 -3.18216 0
M  V30 288 C 28.068 -2.76061 -4.57924 0
M  V30 289 C 29.368 -4.27419 -3.00184 0
M  V30 290 H 31.062 -2.59932 -1.48579 0
M  V30 291 H 28.608 -1.25089 -0.713358 0
M  V30 292 H 30.561 -1.82731 -3.7972 0
M  V30 293 H 29.285 -0.749393 -3.17886 0
M  V30 294 H 27.944 -2.74575 -2.42908 0
M  V30 295 H 27.592 -1.77437 -4.70665 0
M  V30 296 H 27.292 -3.53037 -4.69722 0
M  V30 297 H 28.816 -2.89256 -5.37739 0
M  V30 298 H 30.23 -4.39855 -3.67697 0
M  V30 299 H 28.627 -5.05458 -3.2347 0
M  V30 300 H 29.697 -4.43293 -1.96518 0
M  V30 301 N 31.0401 0.771051 -1.3745 0
M  V30 302 C 31.9871 1.88435 -1.3327 0
M  V30 303 C 32.9571 1.64914 -0.198136 0
M  V30 304 O 34.1421 1.86821 -0.387606 0
M  V30 305 C 31.2821 3.25509 -1.14622 0
M  V30 306 C 30.3951 3.60979 -2.37314 0
M  V30 307 C 29.5301 4.87265 -2.11533 0
M  V30 308 C 28.5691 5.15469 -3.30088 0
M  V30 309 N 27.7061 6.32944 -3.03853 0
M  V30 310 H 32.5461 1.91344 -2.28455 0
M  V30 311 H 30.0831 0.935466 -1.13523 0
M  V30 312 H 32.0411 4.04582 -1.01831 0
M  V30 313 H 30.6711 3.21974 -0.230837 0
M  V30 314 H 29.7231 2.76885 -2.60842 0
M  V30 315 H 31.0351 3.77759 -3.25729 0
M  V30 316 H 30.1891 5.74244 -1.95777 0
M  V30 317 H 28.9281 4.7259 -1.20457 0
M  V30 318 H 27.9331 4.26966 -3.46382 0
M  V30 319 H 29.1581 5.32052 -4.22016 0
M  V30 320 H 27.1041 6.19625 -2.15407 0
M  V30 321 H 27.0211 6.50143 -3.85812 0
M  V30 322 H 28.2891 7.22857 -2.91716 0
M  V30 323 N 32.5182 1.22032 0.997298 0
M  V30 324 C 33.4662 0.983634 2.10778 0
M  V30 325 C 34.4602 -0.0717564 1.69248 0
M  V30 326 O 35.6662 0.080304 1.79821 0
M  V30 327 H 32.0412 0.300877 0.689186 0
M  V30 328 H 34.0122 1.92606 2.27916 0
M  V30 329 C 32.7612 0.57326 3.42942 0
M  V30 330 H 32.0842 1.37702 3.75338 0
M  V30 331 H 33.5242 0.447031 4.21637 0
M  V30 332 C 31.9832 -0.7167 3.29188 0
M  V30 333 O 32.5132 -1.77027 3.60589 0
M  V30 334 N 30.7192 -0.686167 2.82383 0
M  V30 335 H 30.2662 0.171507 2.57028 0
M  V30 336 H 30.2242 -1.54955 2.73562 0
M  V30 337 N 33.9963 -1.19345 1.0293 0
M  V30 338 C 34.9263 -2.2481 0.631105 0
M  V30 339 C 35.9073 -1.66245 -0.360104 0
M  V30 340 O 37.0923 -1.92677 -0.242726 0
M  V30 341 C 34.2223 -3.47295 -0.0184607 0
M  V30 342 C 33.1763 -4.18536 0.895073 0
M  V30 343 C 32.5023 -5.34586 0.110592 0
M  V30 344 C 33.8023 -4.73287 2.209 0
M  V30 345 H 35.4963 -2.58372 1.51275 0
M  V30 346 H 33.0423 -1.24194 0.728818 0
M  V30 347 H 34.9953 -4.20268 -0.308675 0
M  V30 348 H 33.7193 -3.12933 -0.934907 0
M  V30 349 H 32.3783 -3.47446 1.16949 0
M  V30 350 H 32.0263 -4.96469 -0.807902 0
M  V30 351 H 31.7263 -5.83183 0.719087 0
M  V30 352 H 33.2503 -6.10355 -0.172871 0
M  V30 353 H 34.6643 -5.38013 1.98028 0
M  V30 354 H 33.0613 -5.32373 2.76946 0
M  V30 355 H 34.1313 -3.91331 2.86336 0
M  V30 356 N 35.4744 -0.807222 -1.35358 0
M  V30 357 C 36.7224 -0.387122 -1.98358 0
M  V30 358 C 37.0434 1.04942 -1.64354 0
M  V30 359 O 36.3134 1.72615 -0.926339 0
M  V30 360 H 34.8934 -0.140154 -0.733734 0
M  V30 361 H 37.5554 -1.0332 -1.6526 0
M  V30 362 H 36.6514 -0.493352 -3.08176 0
M  V30 363 N 36.9525 1.47285 -0.560781 0
M  V30 364 C 37.9005 2.31756 0.197942 0
M  V30 365 C 38.8945 1.43146 0.905854 0
M  V30 366 O 40.1005 1.59891 0.826733 0
M  V30 367 H 36.4755 0.747438 0.0827049 0
M  V30 368 H 38.4465 2.9359 -0.533629 0
M  V30 369 C 37.1955 3.25874 1.21249 0
M  V30 370 H 36.5185 3.94023 0.67719 0
M  V30 371 H 37.9585 3.87803 1.71419 0
M  V30 372 C 36.4175 2.49651 2.26221 0
M  V30 373 O 36.9475 2.24355 3.33208 0
M  V30 374 N 35.1535 2.10597 2.00243 0
M  V30 375 H 34.7005 2.31369 1.13252 0
M  V30 376 H 34.6585 1.59913 2.70694 0
M  V30 377 N 38.4306 0.297415 1.54768 0
M  V30 378 C 39.3606 -0.573494 2.26348 0
M  V30 379 C 40.3416 -1.14085 1.26169 0
M  V30 380 O 41.5266 -1.17086 1.54934 0
M  V30 381 C 38.6566 -1.74716 3.00153 0
M  V30 382 C 37.6106 -1.31032 4.07449 0
M  V30 383 C 36.9366 -2.56887 4.68949 0
M  V30 384 C 38.2366 -0.444183 5.20408 0
M  V30 385 H 39.9306 0.0235131 2.99391 0
M  V30 386 H 37.4766 0.0127488 1.43994 0
M  V30 387 H 39.4296 -2.3625 3.48947 0
M  V30 388 H 38.1536 -2.37035 2.24682 0
M  V30 389 H 36.8126 -0.718066 3.59499 0
M  V30 390 H 36.4606 -3.17512 3.90122 0
M  V30 391 H 36.1606 -2.2836 5.41411 0
M  V30 392 H 37.6846 -3.19229 5.20505 0
M  V30 393 H 39.0986 -0.9651 5.65118 0
M  V30 394 H 37.4956 -0.252846 5.99567 0
M  V30 395 H 38.5656 0.531609 4.81977 0
M  V30 396 N 39.9087 -1.5758 0.0250728 0
M  V30 397 C 41.1547 -1.91917 -0.655413 0
M  V30 398 C 41.4877 -0.901433 -1.72011 0
M  V30 399 O 40.7627 0.0764069 -1.9435 0
M  V30 400 C 41.0457 -3.36751 -1.27558 0
M  V30 401 C 40.8987 -4.49258 -0.220719 0
M  V30 402 C 42.2177 -3.81469 -2.19475 0
M  V30 403 H 39.3367 -0.697925 -0.23679 0
M  V30 404 H 41.9787 -1.89825 0.0815036 0
M  V30 405 H 40.1287 -3.38664 -1.90365 0
M  V30 406 H 41.8007 -4.59478 0.409601 0
M  V30 407 H 40.0437 -4.31415 0.454264 0
M  V30 408 H 40.7147 -5.47618 -0.694175 0
M  V30 409 H 43.1907 -3.81266 -1.66659 0
M  V30 410 H 42.0667 -4.83512 -2.59822 0
M  V30 411 H 42.3277 -3.16744 -3.08424 0
M  V30 412 N 41.3868 0.248026 -1.55636 0
M  V30 413 C 42.6148 0.993808 -1.81469 0
M  V30 414 C 43.0298 1.78991 -0.60064 0
M  V30 415 O 42.3868 1.77345 0.430682 0
M  V30 416 C 42.4378 1.93258 -3.05506 0
M  V30 417 O 42.1588 1.16869 -4.22224 0
M  V30 418 C 43.6598 2.79444 -3.4413 0
M  V30 419 H 40.8798 0.292486 -0.603898 0
M  V30 420 H 43.4238 0.271253 -2.02693 0
M  V30 421 H 41.5788 2.60943 -2.86335 0
M  V30 422 H 41.9928 1.80359 -4.92515 0
M  V30 423 H 43.4668 3.41066 -4.34026 0
M  V30 424 H 43.9438 3.50499 -2.64665 0
M  V30 425 H 44.5498 2.17214 -3.65648 0
M  V30 426 N 42.8649 1.48995 0.513639 0
M  V30 427 C 44.2759 1.5119 1.09537 0
M  V30 428 C 44.6269 0.290906 1.94031 0
M  V30 429 O 43.7519 -0.60049 2.07902 0
M  V30 430 C 44.3469 2.73964 1.99322 0
M  V30 431 C 42.9059 2.78978 2.52682 0
M  V30 432 C 42.0529 2.44934 1.30009 0
M  V30 433 H 45.0039 1.55875 0.298125 0
M  V30 434 H 45.0249 2.53409 2.83838 0
M  V30 435 H 44.5369 3.62813 1.37799 0
M  V30 436 H 42.6379 1.94378 3.1788 0
M  V30 437 H 42.7509 3.8083 2.90698 0
M  V30 438 H 41.1149 1.9644 1.62122 0
M  V30 439 H 41.8979 3.36043 0.702131 0
M  V30 440 N 44.343 -0.763751 1.37857 0
M  V30 441 C 45.276 -1.88486 1.28639 0
M  V30 442 C 46.254 -1.61757 0.165363 0
M  V30 443 O 47.438 -1.85391 0.340948 0
M  V30 444 C 44.565 -3.23884 0.990811 0
M  V30 445 C 43.611 -3.69514 2.12983 0
M  V30 446 S 44.444 -3.82244 3.75033 0
M  V30 447 C 45.6 -5.20477 3.47641 0
M  V30 448 H 45.833 -1.96017 2.23527 0
M  V30 449 H 43.366 -0.925684 1.23574 0
M  V30 450 H 45.324 -4.02081 0.827101 0
M  V30 451 H 43.985 -3.14044 0.0592832 0
M  V30 452 H 43.178 -4.67696 1.87821 0
M  V30 453 H 42.78 -2.98441 2.25408 0
M  V30 454 H 45.072 -6.05905 3.03125 0
M  V30 455 H 46.015 -5.50655 4.4518 0
M  V30 456 H 46.423 -4.88793 2.82385 0
M  V30 457 N 45.8211 -1.22559 -0.990812 0
M  V30 458 C 46.7841 -0.998863 -2.0629 0
M  V30 459 C 47.7841 0.0354834 -1.60761 0
M  V30 460 O 48.9741 -0.203231 -1.7301 0
M  V30 461 C 46.1061 -0.509203 -3.37076 0
M  V30 462 H 47.2991 -1.95014 -2.27837 0
M  V30 463 H 44.8521 -1.04456 -1.16269 0
M  V30 464 H 45.5871 0.446335 -3.21214 0
M  V30 465 H 45.3721 -1.25547 -3.71457 0
M  V30 466 H 46.8621 -0.370888 -4.1595 0
M  V30 467 N 47.2992 1.18797 -1.03562 0
M  V30 468 C 48.2292 2.24472 -0.643019 0
M  V30 469 C 49.2102 1.66433 0.351283 0
M  V30 470 O 50.3952 1.92803 0.232505 0
M  V30 471 C 47.5252 3.473 4.24935e-05 0
M  V30 472 C 46.4792 4.18055 -0.917257 0
M  V30 473 C 45.8052 5.34519 -0.138941 0
M  V30 474 C 47.1052 4.72109 -2.23407 0
M  V30 475 H 48.7992 2.57566 -1.52643 0
M  V30 476 H 46.3452 1.23806 -0.735394 0
M  V30 477 H 48.2982 4.20426 0.286383 0
M  V30 478 H 47.0222 3.13424 0.918299 0
M  V30 479 H 45.6812 3.46821 -1.1879 0
M  V30 480 H 45.3292 4.96891 0.781562 0
M  V30 481 H 45.0292 5.82794 -0.750005 0
M  V30 482 H 46.5532 6.10438 0.1405 0
M  V30 483 H 47.9672 5.36955 -2.00879 0
M  V30 484 H 46.3642 5.30897 -2.79765 0
M  V30 485 H 47.4342 3.89807 -2.88407 0
M  V30 486 N 48.7773 0.814389 1.34928 0
M  V30 487 C 50.1933 0.499084 1.51596 0
M  V30 488 C 50.3933 -0.978319 1.76157 0
M  V30 489 O 49.4493 -1.76309 1.80752 0
M  V30 490 C 50.7623 1.35121 2.68631 0
M  V30 491 C 52.3103 1.34746 2.82511 0
M  V30 492 C 52.7853 2.18388 4.0258 0
M  V30 493 N 54.2763 2.15966 4.09772 0
M  V30 494 C 55.0113 2.77437 5.01813 0
M  V30 495 N 54.5073 3.47866 5.99134 0
M  V30 496 N 56.3003 2.67037 4.94619 0
M  V30 497 H 48.4513 1.7711 1.17243 0
M  V30 498 H 50.7143 0.754256 0.574284 0
M  V30 499 H 50.4203 2.40001 2.57085 0
M  V30 500 H 50.2943 1.00991 3.63429 0
M  V30 501 H 52.6813 0.30648 2.93504 0
M  V30 502 H 52.7623 1.72869 1.88547 0
M  V30 503 H 52.4063 3.2253 3.92347 0
M  V30 504 H 52.3363 1.77621 4.9574 0
M  V30 505 H 54.8273 1.64729 3.40107 0
M  V30 506 H 55.1403 3.92038 6.65977 0
M  V30 507 H 53.4853 3.51972 5.99284 0
M  V30 508 H 56.6763 2.11597 4.17546 0
M  V30 509 H 56.8493 3.15232 5.66156 0
M  V30 510 N 50.2554 -1.46986 0.568584 0
M  V30 511 C 51.5014 -2.02741 0.0488709 0
M  V30 512 C 51.8344 -1.44077 -1.30214 0
M  V30 513 O 51.1094 -0.600552 -1.84996 0
M  V30 514 C 51.3924 -3.60086 -0.032047 0
M  V30 515 C 51.2454 -4.29162 1.34686 0
M  V30 516 C 52.5644 -4.33838 -0.739798 0
M  V30 517 H 49.6834 -0.736749 0.0192338 0
M  V30 518 H 52.3254 -1.75289 0.733065 0
M  V30 519 H 50.4754 -3.83606 -0.61473 0
M  V30 520 H 52.1474 -4.16948 1.97362 0
M  V30 521 H 50.3904 -3.89073 1.91846 0
M  V30 522 H 51.0614 -5.37826 1.24285 0
M  V30 523 H 53.5374 -4.15378 -0.244939 0
M  V30 524 H 52.4134 -5.43537 -0.765406 0
M  V30 525 H 52.6744 -4.03875 -1.79827 0
M  V30 526 N 51.7335 -0.305618 -1.54608 0
M  V30 527 C 52.6965 0.555591 -2.22364 0
M  V30 528 C 53.6965 1.05768 -1.21119 0
M  V30 529 O 54.8865 0.952972 -1.45822 0
M  V30 530 C 52.0185 1.76974 -2.91364 0
M  V30 531 H 53.2115 -0.0364572 -2.99878 0
M  V30 532 H 50.7645 -0.0565007 -1.56198 0
M  V30 533 H 51.4995 2.40151 -2.17941 0
M  V30 534 H 51.2845 1.41732 -3.65588 0
M  V30 535 H 52.7745 2.38148 -3.43038 0
M  V30 536 N 53.2116 1.57565 -0.0334293 0
M  V30 537 C 54.1746 2.09393 0.932048 0
M  V30 538 C 55.1746 1.00986 1.25134 0
M  V30 539 O 56.3646 1.27129 1.19096 0
M  V30 540 C 53.4966 2.56338 2.2473 0
M  V30 541 H 54.6896 2.95984 0.483085 0
M  V30 542 H 52.2426 1.54819 0.21468 0
M  V30 543 H 52.9776 1.7309 2.74245 0
M  V30 544 H 52.7626 3.35542 2.02865 0
M  V30 545 H 54.2526 2.96646 2.93923 0
M  V30 546 N 54.6897 -0.239769 1.55765 0
M  V30 547 C 55.9177 -0.98417 1.81994 0
M  V30 548 C 56.3327 -1.7867 0.610124 0
M  V30 549 O 55.6897 -1.77571 -0.421271 0
M  V30 550 C 55.7407 -1.91635 3.06526 0
M  V30 551 O 55.4617 -1.14629 4.22838 0
M  V30 552 C 56.9627 -2.77616 3.45607 0
M  V30 553 H 54.1827 -0.28928 0.605441 0
M  V30 554 H 56.7267 -0.260499 2.02834 0
M  V30 555 H 54.8817 -2.5942 2.87715 0
M  V30 556 H 55.2957 -1.77745 4.93464 0
M  V30 557 H 56.7697 -3.38759 4.35828 0
M  V30 558 H 57.2467 -3.4909 2.6652 0
M  V30 559 H 57.8527 -2.15271 3.66795 0
M  V30 560 N 56.1678 -1.49265 -0.50573 0
M  V30 561 C 57.0978 -1.68495 -1.61653 0
M  V30 562 C 58.0788 -0.53366 -1.61512 0
M  V30 563 O 59.2638 -0.76897 -1.78327 0
M  V30 564 C 56.3938 -1.74709 -3.00157 0
M  V30 565 C 55.3478 -2.89581 -3.15162 0
M  V30 566 C 54.6738 -2.80903 -4.5497 0
M  V30 567 C 55.9738 -4.30578 -2.95634 0
M  V30 568 H 57.6678 -2.61493 -1.45814 0
M  V30 569 H 55.2138 -1.25838 -0.70005 0
M  V30 570 H 57.1668 -1.86748 -3.77761 0
M  V30 571 H 55.8908 -0.783067 -3.17074 0
M  V30 572 H 54.5498 -2.77136 -2.39982 0
M  V30 573 H 54.1978 -1.82419 -4.68756 0
M  V30 574 H 53.8978 -3.57999 -4.65951 0
M  V30 575 H 55.4218 -2.94944 -5.34641 0
M  V30 576 H 56.8358 -4.4373 -3.63011 0
M  V30 577 H 55.2328 -5.0886 -3.18091 0
M  V30 578 H 56.3028 -4.45352 -1.91806 0
M  V30 579 N 57.6459 0.756429 -1.3826 0
M  V30 580 C 59.0619 1.0591 -1.19395 0
M  V30 581 C 59.2619 2.01459 -0.0406567 0
M  V30 582 O 58.3179 2.44909 0.614467 0
M  V30 583 C 59.6309 1.64191 -2.51916 0
M  V30 584 C 61.1789 1.76376 -2.58574 0
M  V30 585 C 61.6539 2.38069 -3.91264 0
M  V30 586 N 63.1449 2.45503 -3.92788 0
M  V30 587 C 63.8799 2.94126 -4.92217 0
M  V30 588 N 63.3759 3.42805 -6.02043 0
M  V30 589 N 65.1689 2.9314 -4.7961 0
M  V30 590 H 57.3199 0.122313 -2.12048 0
M  V30 591 H 59.5829 0.116892 -0.940766 0
M  V30 592 H 59.2889 1.01451 -3.3675 0
M  V30 593 H 59.1629 2.6329 -2.70108 0
M  V30 594 H 61.5499 2.38244 -1.74137 0
M  V30 595 H 61.6309 0.759894 -2.44252 0
M  V30 596 H 61.2749 1.76835 -4.76121 0
M  V30 597 H 61.2049 3.39091 -4.02895 0
M  V30 598 H 63.6959 2.1107 -3.13461 0
M  V30 599 H 64.0089 3.78354 -6.73846 0
M  V30 600 H 62.3539 3.4087 -6.05667 0
M  V30 601 H 65.5449 2.54419 -3.92923 0
M  V30 602 H 65.7179 3.30721 -5.5725 0
M  V30 603 N 59.124 1.23083 0.984299 0
M  V30 604 C 60.054 1.03292 2.09411 0
M  V30 605 C 61.035 -0.048923 1.7003 0
M  V30 606 O 62.22 0.114967 1.93859 0
M  V30 607 C 59.35 0.619155 3.41736 0
M  V30 608 C 58.304 1.64791 3.95004 0
M  V30 609 C 57.63 1.0897 5.23478 0
M  V30 610 C 58.93 3.03999 4.24714 0
M  V30 611 H 60.624 1.96119 2.26225 0
M  V30 612 H 58.17 0.944344 1.08711 0
M  V30 613 H 60.123 0.467777 4.18796 0
M  V30 614 H 58.847 -0.344786 3.24775 0
M  V30 615 H 57.506 1.78721 3.20085 0
M  V30 616 H 57.154 0.11686 5.02864 0
M  V30 617 H 56.854 1.77704 5.60085 0
M  V30 618 H 58.378 0.950093 6.03163 0
M  V30 619 H 59.792 2.93393 4.92538 0
M  V30 620 H 58.189 3.69936 4.72512 0
M  V30 621 H 59.259 3.53285 3.32142 0
M  V30 622 N 60.6021 -1.18246 1.0419 0
M  V30 623 C 61.8481 -1.88536 0.747122 0
M  V30 624 C 62.1811 -1.80223 -0.723409 0
M  V30 625 O 61.4561 -1.20337 -1.52804 0
M  V30 626 C 61.7391 -3.38968 1.21544 0
M  V30 627 C 61.5921 -3.56084 2.74816 0
M  V30 628 C 62.9111 -4.32648 0.806482 0
M  V30 629 H 60.0301 -0.684619 0.272883 0
M  V30 630 H 62.6721 -1.39113 1.29413 0
M  V30 631 H 60.8221 -3.8119 0.750081 0
M  V30 632 H 62.4941 -3.22946 3.29399 0
M  V30 633 H 60.7371 -2.98699 3.14582 0
M  V30 634 H 61.4081 -4.61639 3.02644 0
M  V30 635 H 63.8841 -3.98211 1.20695 0
M  V30 636 H 62.7601 -5.36462 1.1619 0
M  V30 637 H 63.0211 -4.41146 -0.29029 0
M  V30 638 N 62.0802 -0.821533 -1.34494 0
M  V30 639 C 63.3572 -0.33159 -1.92769 0
M  V30 640 C 63.7372 1.18088 -1.74981 0
M  V30 641 O 63.0852 1.98733 -1.12772 0
M  V30 642 C 63.2952 -0.759398 -3.40638 0
M  V30 643 C 64.6432 -0.757433 -4.1779 0
M  V30 644 O 65.6672 -0.70189 -3.49216 0
M  V30 645 O 64.5262 -0.829361 -5.4017 0
M  V30 646 H 61.6202 -0.0902502 -0.822061 0
M  V30 647 H 64.1662 -0.906231 -1.43477 0
M  V30 648 H 62.9382 -1.8012 -3.47379 0
M  V30 649 H 62.5612 -0.160378 -3.97276 0
M  V30 650 N 63.5583 1.46682 -0.576371 0
M  V30 651 C 64.5083 2.27278 0.181288 0
M  V30 652 C 65.4923 1.35497 0.867721 0
M  V30 653 O 66.6843 1.59717 0.762863 0
M  V30 654 C 63.8133 3.21703 1.19841 0
M  V30 655 C 62.8993 4.20969 0.51442 0
M  V30 656 N 63.2903 5.03999 -0.426407 0
M  V30 657 C 61.5883 4.39373 0.765963 0
M  V30 658 C 62.2893 5.75812 -0.825565 0
M  V30 659 N 61.2653 5.43315 -0.176116 0
M  V30 660 H 65.0673 2.88863 -0.541785 0
M  V30 661 H 62.5813 1.57455 -0.397697 0
M  V30 662 H 64.5783 3.78145 1.75533 0
M  V30 663 H 63.2383 2.61677 1.92238 0
M  V30 664 H 64.2493 5.11659 -0.8016 0
M  V30 665 H 60.9263 3.90502 1.47698 0
M  V30 666 H 62.3163 6.52577 -1.59976 0
M  V30 667 N 65.0364 0.313813 1.54444 0
M  V30 668 C 65.9664 -0.549454 2.26943 0
M  V30 669 C 66.9474 -1.12741 1.27372 0
M  V30 670 O 68.1324 -1.15436 1.56167 0
M  V30 671 C 65.2624 -1.71523 3.01989 0
M  V30 672 C 64.2164 -1.26703 4.08816 0
M  V30 673 C 63.5424 -2.51898 4.71647 0
M  V30 674 C 64.8424 -0.388962 5.2085 0
M  V30 675 H 66.5364 0.0552661 2.99349 0
M  V30 676 H 64.0824 0.0280207 1.43973 0
M  V30 677 H 66.0354 -2.32535 3.51433 0
M  V30 678 H 64.7594 -2.34639 2.27183 0
M  V30 679 H 63.4184 -0.679896 3.6024 0
M  V30 680 H 63.0664 -3.13356 3.93468 0
M  V30 681 H 62.7664 -2.22605 5.43802 0
M  V30 682 H 64.2904 -3.1369 5.23861 0
M  V30 683 H 65.7044 -0.905107 5.6611 0
M  V30 684 H 64.1014 -0.18924 5.99802 0
M  V30 685 H 65.1714 0.582699 4.81386 0
M  V30 686 N 66.5145 -1.57545 0.0417849 0
M  V30 687 C 67.4445 -2.14009 -0.933929 0
M  V30 688 C 68.4255 -1.05938 -1.33083 0
M  V30 689 O 69.6105 -1.33833 -1.40721 0
M  V30 690 C 66.7405 -2.67747 -2.21199 0
M  V30 691 C 65.6945 -3.80718 -1.95544 0
M  V30 692 C 65.0205 -4.20935 -3.29724 0
M  V30 693 C 66.3205 -5.06258 -1.28452 0
M  V30 694 H 68.0145 -2.95788 -0.463645 0
M  V30 695 H 65.5605 -1.42285 -0.221573 0
M  V30 696 H 67.5135 -3.05886 -2.89848 0
M  V30 697 H 66.2375 -1.83147 -2.70416 0
M  V30 698 H 64.8965 -3.43037 -1.2931 0
M  V30 699 H 64.5445 -3.33298 -3.76724 0
M  V30 700 H 64.2445 -4.9707 -3.13361 0
M  V30 701 H 65.7685 -4.61666 -3.9962 0
M  V30 702 H 67.1825 -5.41903 -1.8712 0
M  V30 703 H 65.5795 -5.87475 -1.22445 0
M  V30 704 H 66.6495 -4.84207 -0.259219 0
M  V30 705 N 67.9926 0.231505 -1.5589 0
M  V30 706 C 68.9556 1.27028 -1.90779 0
M  V30 707 C 69.9556 1.40308 -0.785507 0
M  V30 708 O 71.1456 1.38744 -1.05336 0
M  V30 709 C 68.2776 2.64566 -2.14983 0
M  V30 710 H 69.4706 0.973017 -2.83677 0
M  V30 711 H 67.0236 0.471486 -1.49019 0
M  V30 712 H 67.7586 2.99406 -1.24604 0
M  V30 713 H 67.5436 2.56305 -2.96732 0
M  V30 714 H 69.0336 3.39543 -2.43105 0
M  V30 715 N 69.4707 1.49531 0.497807 0
M  V30 716 C 70.7187 1.58865 1.24926 0
M  V30 717 C 71.0397 0.278721 1.92998 0
M  V30 718 O 70.3097 -0.702144 1.82885 0
M  V30 719 H 68.8897 0.585343 0.464094 0
M  V30 720 H 71.5517 1.86174 0.57666 0
M  V30 721 H 70.6477 2.38633 2.01149 0
M  V30 722 N 70.9488 -0.749086 1.3866 0
M  V30 723 C 71.9118 -1.84457 1.36045 0
M  V30 724 C 72.9118 -1.58682 0.260122 0
M  V30 725 O 74.1018 -1.66343 0.517261 0
M  V30 726 C 71.2338 -3.22008 1.11911 0
M  V30 727 H 72.4268 -1.88182 2.33512 0
M  V30 728 H 69.9798 -0.951266 1.24019 0
M  V30 729 H 70.7148 -3.2395 0.150686 0
M  V30 730 H 70.4998 -3.42111 1.91579 0
M  V30 731 H 71.9898 -4.0208 1.12788 0
M  V30 732 N 72.4269 -1.23603 -0.977757 0
M  V30 733 C 73.7039 -0.977897 -1.69401 0
M  V30 734 C 74.0839 0.502738 -2.05026 0
M  V30 735 O 73.4319 1.47459 -1.74551 0
M  V30 736 C 73.6419 -1.89077 -2.93345 0
M  V30 737 C 74.9899 -2.15579 -3.65802 0
M  V30 738 O 76.0139 -1.86648 -3.03383 0
M  V30 739 O 74.8729 -2.64658 -4.78141 0
M  V30 740 H 71.9669 -0.369025 -0.740101 0
M  V30 741 H 74.5129 -1.34657 -1.03274 0
M  V30 742 H 73.2849 -2.89158 -2.63634 0
M  V30 743 H 72.9079 -1.52463 -3.67207 0
M  V30 744 N 73.905 1.17692 -1.04816 0
M  V30 745 C 75.133 1.91786 -0.776254 0
M  V30 746 C 75.548 1.76604 0.667577 0
M  V30 747 O 74.905 1.10067 1.45573 0
M  V30 748 C 74.956 3.42967 -1.14263 0
M  V30 749 O 74.677 3.57678 -2.52978 0
M  V30 750 C 76.178 4.34144 -0.896311 0
M  V30 751 H 73.398 0.608624 -0.282519 0
M  V30 752 H 75.942 1.49268 -1.39783 0
M  V30 753 H 74.097 3.83245 -0.565874 0
M  V30 754 H 74.511 4.51319 -2.67229 0
M  V30 755 H 75.985 5.38744 -1.20244 0
M  V30 756 H 76.462 4.38876 0.168636 0
M  V30 757 H 77.068 3.99574 -1.45672 0
M  V30 758 N 75.3831 0.828654 1.34056 0
M  V30 759 C 76.3131 0.269443 2.3194 0
M  V30 760 C 77.2941 -0.617247 1.58506 0
M  V30 761 O 78.4791 -0.542931 1.86456 0
M  V30 762 C 75.6091 -0.564793 3.42677 0
M  V30 763 C 74.5631 0.225241 4.27407 0
M  V30 764 C 73.8891 -0.7321 5.29664 0
M  V30 765 C 75.1891 1.43663 5.02154 0
M  V30 766 H 76.8831 1.08728 2.7896 0
M  V30 767 H 74.4291 0.524283 1.34117 0
M  V30 768 H 76.3821 -0.966233 4.10173 0
M  V30 769 H 75.1061 -1.41574 2.9432 0
M  V30 770 H 73.7651 0.608117 3.61521 0
M  V30 771 H 73.4131 -1.57916 4.77568 0
M  V30 772 H 73.1131 -0.20767 5.87233 0
M  V30 773 H 74.6371 -1.13128 6.00029 0
M  V30 774 H 76.0511 1.1089 5.62473 0
M  V30 775 H 74.4481 1.89711 5.69324 0
M  V30 776 H 75.5181 2.21181 4.31517 0
M  V30 777 N 76.8612 -1.46375 0.584142 0
M  V30 778 C 77.8242 -2.28784 -0.138108 0
M  V30 779 C 78.8242 -1.38471 -0.817462 0
M  V30 780 O 80.0142 -1.60833 -0.669199 0
M  V30 781 C 77.1462 -3.18892 -1.20503 0
M  V30 782 H 78.3392 -2.94117 0.586127 0
M  V30 783 H 75.8922 -1.52509 0.342171 0
M  V30 784 H 76.6272 -2.58309 -1.96079 0
M  V30 785 H 76.4122 -3.85388 -0.722384 0
M  V30 786 H 77.9022 -3.80914 -1.71155 0
M  V30 787 N 78.3393 -0.321999 -1.54275 0
M  V30 788 C 79.5873 0.280489 -2.00144 0
M  V30 789 C 79.9083 1.52777 -1.21178 0
M  V30 790 O 79.1783 1.9338 -0.313187 0
M  V30 791 H 77.7583 0.106632 -0.73935 0
M  V30 792 H 80.4203 -0.438184 -1.8991 0
M  V30 793 H 79.5163 0.537972 -3.07428 0
M  V30 794 N 79.8174 1.5752 -0.0501392 0
M  V30 795 C 80.7474 2.14502 0.922566 0
M  V30 796 C 81.7284 1.06642 1.3252 0
M  V30 797 O 82.9134 1.34577 1.4001 0
M  V30 798 C 80.0434 2.68916 2.19776 0
M  V30 799 C 78.9974 3.8175 1.93523 0
M  V30 800 C 78.3234 4.22677 3.27487 0
M  V30 801 C 79.6234 5.06932 1.25765 0
M  V30 802 H 81.3174 2.9603 0.447952 0
M  V30 803 H 78.8634 1.42401 0.214024 0
M  V30 804 H 80.8164 3.07419 2.88222 0
M  V30 805 H 79.5404 1.84578 2.69441 0
M  V30 806 H 78.1994 3.43718 1.27489 0
M  V30 807 H 77.8474 3.35291 3.74952 0
M  V30 808 H 77.5474 4.98725 3.1072 0
M  V30 809 H 79.0714 4.63779 3.97166 0
M  V30 810 H 80.4854 5.42888 1.84244 0
M  V30 811 H 78.8824 5.88116 1.19328 0
M  V30 812 H 79.9524 4.84337 0.233536 0
M  V30 813 N 81.2955 -0.223234 1.56011 0
M  V30 814 C 82.2585 -1.26014 1.9145 0
M  V30 815 C 83.2585 -1.3989 0.792937 0
M  V30 816 O 84.4485 -1.38184 1.0607 0
M  V30 817 C 81.5805 -2.63422 2.16383 0
M  V30 818 H 82.7735 -0.95796 2.84189 0
M  V30 819 H 80.3265 -0.463576 1.49267 0
M  V30 820 H 81.0615 -2.98741 1.2619 0
M  V30 821 H 80.8465 -2.54728 2.98088 0
M  V30 822 H 82.3365 -3.38249 2.44903 0
M  V30 823 N 82.7736 -1.49793 -0.48987 0
M  V30 824 C 84.0506 -1.50348 -1.25119 0
M  V30 825 C 84.4306 -0.237466 -2.0976 0
M  V30 826 O 83.7786 0.77981 -2.14782 0
M  V30 827 C 83.9886 -2.78872 -2.09837 0
M  V30 828 C 85.3366 -3.288 -2.68655 0
M  V30 829 O 86.3606 -2.80065 -2.20096 0
M  V30 830 O 85.2196 -4.13707 -3.57083 0
M  V30 831 H 82.3136 -0.602242 -0.566775 0
M  V30 832 H 84.8596 -1.62067 -0.503229 0
M  V30 833 H 83.6316 -3.62499 -1.47343 0
M  V30 834 H 83.2546 -2.70066 -2.91805 0
M  V30 835 N 84.2517 0.741722 -1.39055 0
M  V30 836 C 85.6677 1.04638 -1.20512 0
M  V30 837 C 85.8677 2.01405 -0.0620218 0
M  V30 838 O 84.9237 2.45547 0.588457 0
M  V30 839 C 86.2367 1.6151 -2.53643 0
M  V30 840 C 87.7847 1.73623 -2.6043 0
M  V30 841 C 88.2597 2.33906 -3.93767 0
M  V30 842 N 89.7507 2.41323 -3.9537 0
M  V30 843 C 90.4857 2.88888 -4.95309 0
M  V30 844 N 89.9817 3.36401 -6.05645 0
M  V30 845 N 91.7747 2.88037 -4.82692 0
M  V30 846 H 83.9257 0.0998155 -2.12165 0
M  V30 847 H 86.1887 0.106907 -0.941953 0
M  V30 848 H 85.8947 0.978739 -3.37807 0
M  V30 849 H 85.7687 2.60411 -2.72885 0
M  V30 850 H 88.1557 2.36384 -1.76655 0
M  V30 851 H 88.2367 0.733945 -2.45045 0
M  V30 852 H 87.8807 1.71776 -4.7797 0
M  V30 853 H 87.8107 3.34799 -4.06469 0
M  V30 854 H 90.3017 2.07734 -3.15682 0
M  V30 855 H 90.6147 3.71186 -6.77821 0
M  V30 856 H 88.9597 3.34427 -6.09248 0
M  V30 857 H 92.1507 2.50237 -3.95599 0
M  V30 858 H 92.3237 3.24792 -5.60726 0
M  V30 859 N 85.7298 1.2412 0.971189 0
M  V30 860 C 86.9578 1.10575 1.74874 0
M  V30 861 C 87.3728 -0.342017 1.85676 0
M  V30 862 O 86.7298 -1.23617 1.34258 0
M  V30 863 C 86.7808 1.73579 3.171 0
M  V30 864 O 86.5018 3.12695 3.06844 0
M  V30 865 C 88.0028 1.65598 4.11208 0
M  V30 866 H 85.2228 0.386504 0.548503 0
M  V30 867 H 87.7668 1.64156 1.21955 0
M  V30 868 H 85.9218 1.24009 3.67016 0
M  V30 869 H 86.3358 3.43412 3.96445 0
M  V30 870 H 87.8098 2.1437 5.08674 0
M  V30 871 H 88.2868 0.616532 4.34851 0
M  V30 872 H 88.8928 2.14578 3.67201 0
M  V30 873 N 87.2079 -1.17134 1.05439 0
M  V30 874 C 88.4849 -1.83411 0.679699 0
M  V30 875 C 88.8649 -1.9368 -0.839726 0
M  V30 876 O 88.2129 -1.47325 -1.74664 0
M  V30 877 C 88.4229 -3.20918 1.37159 0
M  V30 878 C 89.7709 -3.96796 1.51123 0
M  V30 879 O 90.7949 -3.30406 1.3308 0
M  V30 880 O 89.6539 -5.15778 1.80651 0
M  V30 881 H 86.7479 -0.79154 0.239569 0
M  V30 882 H 89.2939 -1.24411 1.15413 0
M  V30 883 H 88.0659 -3.08428 2.40807 0
M  V30 884 H 87.6889 -3.87587 0.886674 0
M  V30 885 N 88.686 -0.835752 -1.33615 0
M  V30 886 C 89.914 -0.443344 -2.02094 0
M  V30 887 C 90.329 0.954522 -1.62894 0
M  V30 888 O 89.686 1.61982 -0.840723 0
M  V30 889 C 89.737 -0.550775 -3.5728 0
M  V30 890 O 89.458 -1.89356 -3.95065 0
M  V30 891 C 90.959 -0.154919 -4.43029 0
M  V30 892 H 88.179 -0.176359 -0.647409 0
M  V30 893 H 90.723 -1.12746 -1.70612 0
M  V30 894 H 88.878 0.0853997 -3.87306 0
M  V30 895 H 89.292 -1.87687 -4.89769 0
M  V30 896 H 90.766 -0.281144 -5.51284 0
M  V30 897 H 91.243 0.902863 -4.2982 0
M  V30 898 H 91.849 -0.765404 -4.18356 0
M  V30 899 N 90.1641 1.46063 -0.591896 0
M  V30 900 C 91.1141 2.27458 0.157172 0
M  V30 901 C 92.0981 1.3641 0.853301 0
M  V30 902 O 93.2901 1.60517 0.74588 0
M  V30 903 C 90.4191 3.22956 1.16423 0
M  V30 904 C 89.5051 4.2149 0.469742 0
M  V30 905 N 89.8961 5.03519 -0.479839 0
M  V30 906 C 88.1941 4.40161 0.719319 0
M  V30 907 C 88.8951 5.74904 -0.886591 0
M  V30 908 N 87.8711 5.43097 -0.233731 0
M  V30 909 H 91.6731 2.88272 -0.572392 0
M  V30 910 H 89.1871 1.57024 -0.414375 0
M  V30 911 H 91.1841 3.79986 1.71513 0
M  V30 912 H 89.8441 2.63701 1.89451 0
M  V30 913 H 90.8551 5.1078 -0.855823 0
M  V30 914 H 87.5321 3.92046 1.43548 0
M  V30 915 H 88.9221 6.50844 -1.66888 0
M  V30 916 N 91.6422 0.330177 1.54103 0
M  V30 917 C 93.0532 -0.15652 1.86043 0
M  V30 918 C 93.4042 -1.51086 1.2517 0
M  V30 919 O 92.5292 -2.09023 0.560217 0
M  V30 920 C 93.1242 -0.290784 3.3755 0
M  V30 921 C 91.6832 -0.721705 3.69416 0
M  V30 922 C 90.8302 0.152622 2.7688 0
M  V30 923 H 93.7812 0.550237 1.48856 0
M  V30 924 H 93.8022 -1.12058 3.63625 0
M  V30 925 H 93.3142 0.695068 3.81825 0
M  V30 926 H 91.4152 -1.71706 3.30678 0
M  V30 927 H 91.5282 -0.520869 4.7626 0
M  V30 928 H 89.8922 -0.372894 2.51956 0
M  V30 929 H 90.6752 1.13536 3.23982 0
M  V30 930 N 93.1203 -1.57491 0.0584922 0
M  V30 931 C 94.0523 -2.08916 -0.942694 0
M  V30 932 C 95.0653 -1.0185 -1.27006 0
M  V30 933 O 96.2543 -1.29398 -1.22957 0
M  V30 934 C 93.3543 -2.52341 -2.26224 0
M  V30 935 C 92.5273 -3.82827 -2.1157 0
M  V30 936 C 91.5863 -4.12487 -3.26712 0
M  V30 937 O 90.6123 -4.82295 -3.02292 0
M  V30 938 N 91.8143 -3.64978 -4.5141 0
M  V30 939 H 94.5793 -2.95437 -0.503722 0
M  V30 940 H 92.1403 -1.61397 -0.12757 0
M  V30 941 H 94.1323 -2.69254 -3.02133 0
M  V30 942 H 92.7023 -1.7103 -2.61663 0
M  V30 943 H 91.9223 -3.75425 -1.20208 0
M  V30 944 H 93.2103 -4.68263 -1.99015 0
M  V30 945 H 92.6083 -3.08558 -4.7414 0
M  V30 946 H 91.1653 -3.87115 -5.2439 0
M  V30 947 N 94.5984 0.214957 -1.56127 0
M  V30 948 C 95.5614 1.24997 -1.92116 0
M  V30 949 C 96.5614 1.39467 -0.800344 0
M  V30 950 O 97.7514 1.37619 -1.06802 0
M  V30 951 C 94.8834 2.62271 -2.17777 0
M  V30 952 H 96.0764 0.942875 -2.84693 0
M  V30 953 H 93.6294 0.455654 -1.49511 0
M  V30 954 H 94.3644 2.98068 -1.27773 0
M  V30 955 H 94.1494 2.53143 -2.99434 0
M  V30 956 H 95.6394 3.36946 -2.46693 0
M  V30 957 N 96.0765 1.50051 0.48192 0
M  V30 958 C 97.0065 1.71046 1.58951 0
M  V30 959 C 97.9875 0.559288 1.60642 0
M  V30 960 O 99.1725 0.797243 1.77081 0
M  V30 961 C 96.3025 1.79462 2.97339 0
M  V30 962 C 95.2565 2.94558 3.10515 0
M  V30 963 C 94.5825 2.88105 4.50444 0
M  V30 964 C 95.8825 4.35227 2.88747 0
M  V30 965 H 97.5765 2.6378 1.41635 0
M  V30 966 H 95.1225 1.26936 0.679942 0
M  V30 967 H 97.0755 1.92734 3.74742 0
M  V30 968 H 95.7995 0.833412 3.15788 0
M  V30 969 H 94.4585 2.80918 2.35543 0
M  V30 970 H 94.1065 1.89853 4.65795 0
M  V30 971 H 93.8065 3.65366 4.60197 0
M  V30 972 H 95.3305 3.03412 5.29881 0
M  V30 973 H 96.7445 4.49449 3.55905 0
M  V30 974 H 95.1415 5.13856 3.09955 0
M  V30 975 H 96.2115 4.48347 1.84696 0
M  V30 976 N 97.5546 -0.734337 1.39446 0
M  V30 977 C 98.7796 -1.52866 1.40167 0
M  V30 978 C 99.2046 -1.881 -0.00171513 0
M  V30 979 O 98.5626 -1.51957 -0.988879 0
M  V30 980 C 98.6106 -2.79235 2.28167 0
M  V30 981 O 97.7146 -3.75185 1.71201 0
M  V30 982 H 97.0556 -0.461618 0.477289 0
M  V30 983 H 99.5856 -0.905949 1.8345 0
M  V30 984 H 99.5956 -3.27963 2.42702 0
M  V30 985 H 98.2706 -2.52923 3.30156 0
M  V30 986 H 96.8476 -3.33958 1.65912 0
M  V30 987 N 99.0327 -1.24633 -0.964593 0
M  V30 988 C 100.449 -1.01239 -1.2338 0
M  V30 989 C 100.649 0.2769 -1.99588 0
M  V30 990 O 99.7047 0.992241 -2.32187 0
M  V30 991 C 101.018 -2.22937 -2.01791 0
M  V30 992 C 102.566 -2.27594 -2.14872 0
M  V30 993 C 103.041 -3.48921 -2.96678 0
M  V30 994 N 104.532 -3.49257 -3.04259 0
M  V30 995 C 105.267 -4.39795 -3.67924 0
M  V30 996 N 104.763 -5.40591 -4.33281 0
M  V30 997 N 106.556 -4.275 -3.64966 0
M  V30 998 H 98.7067 -2.0748 -0.454502 0
M  V30 999 H 100.97 -0.910647 -0.26349 0
M  V30 1000 H 100.676 -3.16587 -1.53184 0
M  V30 1001 H 100.55 -2.25306 -3.02518 0
M  V30 1002 H 102.937 -1.34473 -2.6268 0
M  V30 1003 H 103.018 -2.2925 -1.13482 0
M  V30 1004 H 102.662 -4.42359 -2.49562 0
M  V30 1005 H 102.592 -3.4451 -3.98272 0
M  V30 1006 H 105.083 -2.76337 -2.57771 0
M  V30 1007 H 105.396 -6.05904 -4.79687 0
M  V30 1008 H 103.741 -5.44475 -4.3194 0
M  V30 1009 H 106.932 -3.47987 -3.13086 0
M  V30 1010 H 107.105 -4.98258 -4.14298 0
M  V30 1011 N 100.511 1.16574 -1.06058 0
M  V30 1012 C 101.441 2.23057 -0.690488 0
M  V30 1013 C 102.422 1.67141 0.315901 0
M  V30 1014 O 103.607 1.93253 0.191556 0
M  V30 1015 C 100.737 3.47222 -0.073625 0
M  V30 1016 C 99.6908 4.16016 -1.00573 0
M  V30 1017 C 99.0168 5.34104 -0.252289 0
M  V30 1018 C 100.317 4.67264 -2.33371 0
M  V30 1019 H 102.011 2.54271 -1.58072 0
M  V30 1020 H 99.5568 1.22218 -0.76149 0
M  V30 1021 H 101.51 4.20939 0.19714 0
M  V30 1022 H 100.234 3.15302 0.85161 0
M  V30 1023 H 98.8928 3.44223 -1.2612 0
M  V30 1024 H 98.5408 4.98437 0.675988 0
M  V30 1025 H 98.2408 5.81072 -0.873455 0
M  V30 1026 H 99.7648 6.10599 0.0109857 0
M  V30 1027 H 101.179 5.32573 -2.12223 0
M  V30 1028 H 99.5758 5.24843 -2.90963 0
M  V30 1029 H 100.646 3.83602 -2.96611 0
M  V30 1030 N 101.989 0.842826 1.3317 0
M  V30 1031 C 103.235 0.441099 1.97945 0
M  V30 1032 C 103.568 -0.998024 1.66593 0
M  V30 1033 O 102.843 -1.69839 0.947898 0
M  V30 1034 C 103.126 0.666841 3.53872 0
M  V30 1035 C 102.979 2.15352 3.94897 0
M  V30 1036 C 104.298 0.115544 4.39948 0
M  V30 1037 H 101.417 0.161739 0.719034 0
M  V30 1038 H 104.059 1.05907 1.57746 0
M  V30 1039 H 102.209 0.140828 3.88245 0
M  V30 1040 H 103.881 2.7447 3.70761 0
M  V30 1041 H 102.124 2.63653 3.44484 0
M  V30 1042 H 102.795 2.26221 5.03516 0
M  V30 1043 H 105.271 0.565213 4.12243 0
M  V30 1044 H 104.147 0.303152 5.48062 0
M  V30 1045 H 104.408 -0.980935 4.3108 0
M  V30 1046 N 103.467 -1.45747 0.599634 0
M  V30 1047 C 104.883 -1.57424 0.26264 0
M  V30 1048 C 105.083 -1.59222 -1.23493 0
M  V30 1049 O 104.139 -1.51825 -2.01756 0
M  V30 1050 C 105.452 -2.86061 0.926795 0
M  V30 1051 C 107 -2.99722 0.901967 0
M  V30 1052 C 107.475 -4.31119 1.54598 0
M  V30 1053 N 108.966 -4.37858 1.5111 0
M  V30 1054 C 109.701 -5.3818 1.97863 0
M  V30 1055 N 109.197 -6.45083 2.52666 0
M  V30 1056 N 110.99 -5.29487 1.88679 0
M  V30 1057 H 103.141 -1.42823 1.57211 0
M  V30 1058 H 105.404 -0.68235 0.658105 0
M  V30 1059 H 105.11 -2.90605 1.98095 0
M  V30 1060 H 104.984 -3.74563 0.445238 0
M  V30 1061 H 107.371 -2.9475 -0.143617 0
M  V30 1062 H 107.452 -2.12652 1.42171 0
M  V30 1063 H 107.096 -4.36849 2.59085 0
M  V30 1064 H 107.026 -5.16992 1.00132 0
M  V30 1065 H 109.517 -3.61209 1.11068 0
M  V30 1066 H 109.83 -7.17869 2.86155 0
M  V30 1067 H 108.175 -6.45856 2.56701 0
M  V30 1068 H 111.366 -4.44877 1.4561 0
M  V30 1069 H 111.539 -6.07524 2.25429 0
M  V30 1070 N 104.945 -0.338344 -1.53925 0
M  V30 1071 C 105.895 0.536712 -2.21593 0
M  V30 1072 C 106.879 1.07015 -1.20153 0
M  V30 1073 O 108.071 1.00471 -1.45721 0
M  V30 1074 C 105.2 1.68977 -2.98834 0
M  V30 1075 C 104.286 1.17052 -4.07627 0
M  V30 1076 N 104.677 0.372085 -5.0443 0
M  V30 1077 C 102.975 1.44789 -4.21844 0
M  V30 1078 C 103.676 0.0909171 -5.81629 0
M  V30 1079 N 102.652 0.681131 -5.39316 0
M  V30 1080 H 106.454 -0.0804298 -2.9379 0
M  V30 1081 H 103.968 -0.144943 -1.61752 0
M  V30 1082 H 105.965 2.32857 -3.45808 0
M  V30 1083 H 104.625 2.31024 -2.28162 0
M  V30 1084 H 105.636 0.0136217 -5.17898 0
M  V30 1085 H 102.313 2.07313 -3.62391 0
M  V30 1086 H 103.703 -0.552817 -6.69622 0
M  V30 1087 N 106.423 1.57458 -0.0668435 0
M  V30 1088 C 107.353 2.15468 0.899764 0
M  V30 1089 C 108.334 1.08042 1.31381 0
M  V30 1090 O 109.519 1.36054 1.38574 0
M  V30 1091 C 106.649 2.71232 2.16911 0
M  V30 1092 C 105.603 3.83781 1.89463 0
M  V30 1093 C 104.929 4.26127 3.22986 0
M  V30 1094 C 106.229 5.08238 1.20381 0
M  V30 1095 H 107.923 2.96488 0.416529 0
M  V30 1096 H 105.469 1.4262 0.198908 0
M  V30 1097 H 107.422 3.10458 2.84945 0
M  V30 1098 H 106.146 1.87426 2.67468 0
M  V30 1099 H 104.805 3.45051 1.23836 0
M  V30 1100 H 104.453 3.39249 3.71374 0
M  V30 1101 H 104.153 5.01993 3.05413 0
M  V30 1102 H 105.677 4.67966 3.92225 0
M  V30 1103 H 107.091 5.44811 1.78475 0
M  V30 1104 H 105.488 5.89349 1.13083 0
M  V30 1105 H 106.558 4.84558 0.182153 0
M  V30 1106 N 107.901 -0.206675 1.56239 0
M  V30 1107 C 109.129 -0.945345 1.8404 0
M  V30 1108 C 109.544 -1.77336 0.647885 0
M  V30 1109 O 108.901 -1.78425 -0.383511 0
M  V30 1110 C 108.952 -1.8509 3.10522 0
M  V30 1111 O 108.673 -1.05634 4.25174 0
M  V30 1112 C 110.174 -2.70222 3.51418 0
M  V30 1113 H 107.394 -0.276372 0.61144 0
M  V30 1114 H 109.938 -0.217417 2.03341 0
M  V30 1115 H 108.093 -2.53259 2.93153 0
M  V30 1116 H 108.507 -1.67238 4.97124 0
M  V30 1117 H 109.981 -3.29438 4.42916 0
M  V30 1118 H 110.458 -3.43358 2.73864 0
M  V30 1119 H 111.064 -2.07443 3.71278 0
M  V30 1120 N 109.379 -1.50304 -0.473955 0
M  V30 1121 C 110.625 -1.61389 -1.22806 0
M  V30 1122 C 110.958 -0.311955 -1.91678 0
M  V30 1123 O 110.233 0.686384 -1.81986 0
M  V30 1124 C 110.516 -2.79219 -2.27396 0
M  V30 1125 C 110.369 -4.19286 -1.62848 0
M  V30 1126 C 111.688 -2.92614 -3.28732 0
M  V30 1127 H 108.807 -0.587399 -0.445119 0
M  V30 1128 H 111.449 -1.82681 -0.522265 0
M  V30 1129 H 109.599 -2.61195 -2.87592 0
M  V30 1130 H 111.271 -4.48892 -1.06271 0
M  V30 1131 H 109.514 -4.23677 -0.931693 0
M  V30 1132 H 110.185 -4.97655 -2.38838 0
M  V30 1133 H 112.661 -3.09105 -2.78556 0
M  V30 1134 H 111.537 -3.76688 -3.99246 0
M  V30 1135 H 111.798 -2.03107 -3.92683 0
M  V30 1136 N 110.857 0.726932 -1.39834 0
M  V30 1137 C 112.103 1.48884 -1.377 0
M  V30 1138 C 112.436 1.94185 0.0244852 0
M  V30 1139 O 111.711 1.67361 0.990986 0
M  V30 1140 C 111.994 2.72288 -2.3565 0
M  V30 1141 C 111.847 2.32956 -3.84775 0
M  V30 1142 C 113.166 3.74414 -2.31306 0
M  V30 1143 H 110.285 0.540062 -0.5015 0
M  V30 1144 H 112.927 0.830547 -1.70886 0
M  V30 1145 H 111.077 3.28457 -2.07481 0
M  V30 1146 H 112.749 1.82356 -4.23726 0
M  V30 1147 H 110.992 1.65088 -4.01159 0
M  V30 1148 H 111.663 3.21362 -4.4881 0
M  V30 1149 H 114.139 3.27849 -2.56231 0
M  V30 1150 H 113.015 4.58414 -3.01907 0
M  V30 1151 H 113.276 4.21909 -1.32081 0
M  V30 1152 N 112.336 1.25143 0.95797 0
M  V30 1153 C 113.584 1.09476 1.69881 0
M  V30 1154 C 113.905 -0.365502 1.91544 0
M  V30 1155 O 113.175 -1.25985 1.50015 0
M  V30 1156 H 111.755 0.402128 0.629525 0
M  V30 1157 H 114.417 1.57214 1.15194 0
M  V30 1158 H 113.513 1.60046 2.6794 0
M  V30 1159 N 113.814 -1.1601 1.06675 0
M  V30 1160 C 115.06 -1.86909 0.786945 0
M  V30 1161 C 115.393 -1.81717 -0.685018 0
M  V30 1162 O 114.668 -1.23551 -1.50218 0
M  V30 1163 C 114.951 -3.36313 1.28707 0
M  V30 1164 C 114.804 -3.50175 2.82308 0
M  V30 1165 C 116.123 -4.3084 0.898071 0
M  V30 1166 H 113.242 -0.678677 0.287343 0
M  V30 1167 H 115.884 -1.36336 1.32334 0
M  V30 1168 H 114.034 -3.79513 0.830768 0
M  V30 1169 H 115.706 -3.15886 3.36175 0
M  V30 1170 H 113.949 -2.91959 3.20847 0
M  V30 1171 H 114.62 -4.55116 3.12368 0
M  V30 1172 H 117.096 -3.95561 1.29114 0
M  V30 1173 H 115.972 -5.33876 1.27543 0
M  V30 1174 H 116.233 -4.41662 -0.196651 0
M  V30 1175 N 115.292 -0.849877 -1.32721 0
M  V30 1176 C 116.222 -0.306308 -2.31482 0
M  V30 1177 C 117.203 0.591952 -1.59468 0
M  V30 1178 O 118.388 0.513199 -1.87296 0
M  V30 1179 C 115.518 0.510204 -3.43532 0
M  V30 1180 C 114.472 -0.293209 -4.26994 0
M  V30 1181 C 113.798 0.647743 -5.30762 0
M  V30 1182 C 115.098 -1.51634 -4.99804 0
M  V30 1183 H 116.792 -1.13153 -2.77195 0
M  V30 1184 H 114.338 -0.545553 -1.33266 0
M  V30 1185 H 116.291 0.900856 -4.11658 0
M  V30 1186 H 115.015 1.36874 -2.96535 0
M  V30 1187 H 113.674 -0.665555 -3.60508 0
M  V30 1188 H 113.322 1.50299 -4.8002 0
M  V30 1189 H 113.022 0.11422 -5.87489 0
M  V30 1190 H 114.546 1.03567 -6.01753 0
M  V30 1191 H 115.96 -1.19824 -5.60638 0
M  V30 1192 H 114.357 -1.98745 -5.66234 0
M  V30 1193 H 115.427 -2.28018 -4.27943 0
M  V30 1194 N 116.77 1.45427 -0.607355 0
M  V30 1195 C 117.68 2.34325 0.113463 0
M  V30 1196 C 118.696 1.51226 0.860617 0
M  V30 1197 O 119.872 1.84029 0.818255 0
M  V30 1198 C 116.937 3.28839 1.09844 0
M  V30 1199 C 115.998 4.27844 0.353271 0
M  V30 1200 C 115.231 5.17842 1.29133 0
M  V30 1201 O 115.454 5.11264 2.52913 0
M  V30 1202 O 114.388 5.96713 0.788523 0
M  V30 1203 H 118.214 2.97364 -0.617094 0
M  V30 1204 H 115.799 1.44807 -0.367619 0
M  V30 1205 H 117.681 3.8708 1.66575 0
M  V30 1206 H 116.356 2.68365 1.81003 0
M  V30 1207 H 115.263 3.7322 -0.256494 0
M  V30 1208 H 116.596 4.91173 -0.317822 0
M  V30 1209 N 118.248 0.346503 1.53744 0
M  V30 1210 C 119.496 -0.248612 2.00565 0
M  V30 1211 C 119.817 -1.5083 1.23593 0
M  V30 1212 O 119.087 -1.92858 0.343912 0
M  V30 1213 H 117.667 -0.0948564 0.740953 0
M  V30 1214 H 120.329 0.468341 1.89189 0
M  V30 1215 H 119.425 -0.488994 3.08245 0
M  V30 1216 N 119.726 -1.57421 0.075193 0
M  V30 1217 C 120.974 -1.93236 -0.591974 0
M  V30 1218 C 121.295 -0.956241 -1.69944 0
M  V30 1219 O 120.565 -0.00494792 -1.95899 0
M  V30 1220 H 119.145 -0.713355 -0.22166 0
M  V30 1221 H 121.807 -1.9444 0.133848 0
M  V30 1222 H 120.903 -2.95131 -1.01509 0
M  V30 1223 N 121.204 0.198386 -1.56346 0
M  V30 1224 C 122.114 1.2664 -1.97483 0
M  V30 1225 C 123.13 1.49989 -0.882002 0
M  V30 1226 O 124.306 1.62668 -1.18748 0
M  V30 1227 C 121.371 2.59141 -2.30319 0
M  V30 1228 C 120.432 2.43892 -3.53292 0
M  V30 1229 C 119.665 3.70074 -3.84553 0
M  V30 1230 O 119.888 4.74101 -3.1715 0
M  V30 1231 O 118.822 3.658 -4.7799 0
M  V30 1232 H 122.648 0.947304 -2.88548 0
M  V30 1233 H 120.233 0.403123 -1.43859 0
M  V30 1234 H 122.115 3.37352 -2.5253 0
M  V30 1235 H 120.79 2.90684 -1.42423 0
M  V30 1236 H 119.697 1.63803 -3.36332 0
M  V30 1237 H 121.03 2.17282 -4.41644 0
M  V30 1238 N 122.682 1.50554 0.465978 0
M  V30 1239 C 123.629 1.6979 1.56333 0
M  V30 1240 C 124.599 0.539239 1.57103 0
M  V30 1241 O 125.784 0.770401 1.74555 0
M  V30 1242 C 122.924 1.80273 2.94271 0
M  V30 1243 C 122.037 3.07674 3.0325 0
M  V30 1244 C 121.172 3.08922 4.32135 0
M  V30 1245 C 120.211 4.30755 4.34875 0
M  V30 1246 N 119.348 4.29714 5.55239 0
M  V30 1247 H 124.188 2.63472 1.39235 0
M  V30 1248 H 121.725 1.30602 0.676873 0
M  V30 1249 H 123.683 1.84332 3.74269 0
M  V30 1250 H 122.313 0.900258 3.09992 0
M  V30 1251 H 121.365 3.13062 2.16094 0
M  V30 1252 H 122.677 3.97642 3.01135 0
M  V30 1253 H 121.831 3.11738 5.20485 0
M  V30 1254 H 120.57 2.16792 4.36866 0
M  V30 1255 H 119.575 4.28146 3.44922 0
M  V30 1256 H 120.8 5.24117 4.31831 0
M  V30 1257 H 118.746 3.4044 5.60746 0
M  V30 1258 H 118.663 5.13456 5.54886 0
M  V30 1259 H 119.931 4.36683 6.457 0
M  V30 1260 N 124.16 -0.719506 1.40217 0
M  V30 1261 C 125.092 -1.84428 1.36084 0
M  V30 1262 C 126.105 -1.60597 0.266913 0
M  V30 1263 O 127.294 -1.70544 0.526983 0
M  V30 1264 C 124.394 -3.20757 1.094 0
M  V30 1265 C 123.567 -3.71817 2.30372 0
M  V30 1266 C 122.626 -4.86748 1.99907 0
M  V30 1267 O 121.652 -4.99603 2.72737 0
M  V30 1268 N 122.854 -5.7226 0.974635 0
M  V30 1269 H 125.619 -1.88473 2.33019 0
M  V30 1270 H 123.18 -0.900885 1.3452 0
M  V30 1271 H 125.172 -3.95235 0.870116 0
M  V30 1272 H 123.742 -3.11884 0.211452 0
M  V30 1273 H 122.962 -2.88514 2.68614 0
M  V30 1274 H 124.25 -4.02666 3.11026 0
M  V30 1275 H 123.648 -5.6448 0.371368 0
M  V30 1276 H 122.205 -6.46739 0.810656 0
M  V30 1277 N 125.638 -1.25649 -0.95132 0
M  V30 1278 C 126.886 -1.10375 -1.69298 0
M  V30 1279 C 127.207 0.355339 -1.91735 0
M  V30 1280 O 126.477 1.25188 -1.50681 0
M  V30 1281 H 125.057 -0.405461 -0.627384 0
M  V30 1282 H 127.719 -1.57823 -1.14358 0
M  V30 1283 H 126.815 -1.61465 -2.67087 0
M  V30 1284 N 127.117 1.15442 -1.07289 0
M  V30 1285 C 128.533 1.38201 -0.798288 0
M  V30 1286 C 128.733 1.92429 0.597769 0
M  V30 1287 O 127.789 2.12962 1.3566 0
M  V30 1288 C 129.102 2.35357 -1.87156 0
M  V30 1289 C 130.65 2.49021 -1.89624 0
M  V30 1290 C 131.125 3.49468 -2.96034 0
M  V30 1291 N 132.616 3.57003 -2.95132 0
M  V30 1292 C 133.351 4.34543 -3.74112 0
M  V30 1293 N 132.847 5.15421 -4.6294 0
M  V30 1294 N 134.64 4.29625 -3.62462 0
M  V30 1295 H 126.791 0.78584 -1.97328 0
M  V30 1296 H 129.054 0.408065 -0.855679 0
M  V30 1297 H 128.76 2.02626 -2.87464 0
M  V30 1298 H 128.634 3.35129 -1.73114 0
M  V30 1299 H 131.021 2.81051 -0.899687 0
M  V30 1300 H 131.102 1.4925 -2.07745 0
M  V30 1301 H 130.746 3.18173 -3.95889 0
M  V30 1302 H 130.676 4.48992 -2.75161 0
M  V30 1303 H 133.167 2.99276 -2.30743 0
M  V30 1304 H 133.48 5.7183 -5.19837 0
M  V30 1305 H 131.825 5.14729 -4.66989 0
M  V30 1306 H 135.016 3.65505 -2.92444 0
M  V30 1307 H 135.189 4.89807 -4.24256 0
M  V30 1308 N 128.595 0.856903 1.32268 0
M  V30 1309 C 130.006 0.515711 1.79436 0
M  V30 1310 C 130.357 -0.966586 1.70738 0
M  V30 1311 O 129.482 -1.75409 1.26731 0
M  V30 1312 C 130.077 0.929335 3.25805 0
M  V30 1313 C 128.636 0.640006 3.70919 0
M  V30 1314 C 127.783 1.12784 2.53328 0
M  V30 1315 H 130.734 1.04389 1.19535 0
M  V30 1316 H 130.755 0.246633 3.797 0
M  V30 1317 H 130.267 2.00821 3.32103 0
M  V30 1318 H 128.368 -0.428051 3.70133 0
M  V30 1319 H 128.481 1.20788 4.63624 0
M  V30 1320 H 126.845 0.548033 2.48734 0
M  V30 1321 H 127.628 2.21387 2.62379 0
M  V30 1322 N 130.073 -1.45103 0.615059 0
M  V30 1323 C 131.003 -2.33339 -0.0865619 0
M  V30 1324 C 131.984 -1.4727 -0.851209 0
M  V30 1325 O 133.169 -1.76026 -0.820281 0
M  V30 1326 C 130.299 -3.30095 -1.07956 0
M  V30 1327 C 129.253 -4.25858 -0.427628 0
M  V30 1328 C 128.579 -5.12361 -1.5294 0
M  V30 1329 C 129.879 -5.18165 0.655944 0
M  V30 1330 H 131.573 -2.92254 0.650224 0
M  V30 1331 H 129.119 -1.40532 0.314138 0
M  V30 1332 H 131.072 -3.90698 -1.57901 0
M  V30 1333 H 129.796 -2.69355 -1.84703 0
M  V30 1334 H 128.455 -3.66564 0.0510292 0
M  V30 1335 H 128.103 -4.47984 -2.28734 0
M  V30 1336 H 127.803 -5.77238 -1.09865 0
M  V30 1337 H 129.327 -5.75833 -2.03098 0
M  V30 1338 H 130.741 -5.72796 0.240257 0
M  V30 1339 H 129.138 -5.91559 1.00888 0
M  V30 1340 H 130.208 -4.60144 1.52957 0
M  V30 1341 N 131.551 -0.354651 -1.53558 0
M  V30 1342 C 132.967 -0.00315426 -1.596 0
M  V30 1343 C 133.167 1.47741 -1.37021 0
M  V30 1344 O 132.223 2.23759 -1.16996 0
M  V30 1345 C 133.536 -0.44929 -2.97325 0
M  V30 1346 C 135.084 -0.402578 -3.104 0
M  V30 1347 C 135.559 -0.824355 -4.5052 0
M  V30 1348 N 137.05 -0.778979 -4.56603 0
M  V30 1349 C 137.785 -1.07715 -5.63192 0
M  V30 1350 N 137.281 -1.44405 -6.77583 0
M  V30 1351 N 139.074 -1.00066 -5.53121 0
M  V30 1352 H 131.225 -1.31893 -1.66487 0
M  V30 1353 H 133.488 -0.538388 -0.780284 0
M  V30 1354 H 133.194 -1.48202 -3.1895 0
M  V30 1355 H 133.068 0.169772 -3.76818 0
M  V30 1356 H 135.455 0.621004 -2.88492 0
M  V30 1357 H 135.536 -1.05699 -2.32941 0
M  V30 1358 H 135.18 -1.846 -4.73165 0
M  V30 1359 H 135.11 -0.147304 -5.26394 0
M  V30 1360 H 137.601 -0.508528 -3.74463 0
M  V30 1361 H 137.914 -1.65612 -7.54846 0
M  V30 1362 H 136.259 -1.4826 -6.79002 0
M  V30 1363 H 139.45 -0.713293 -4.62633 0
M  V30 1364 H 139.623 -1.23638 -6.36096 0
M  V30 1365 N 133.029 1.57378 -0.0835403 0
M  V30 1366 C 134.44 1.81261 0.447358 0
M  V30 1367 C 134.791 0.998331 1.68902 0
M  V30 1368 O 133.916 0.224282 2.15235 0
M  V30 1369 C 134.511 3.28767 0.818386 0
M  V30 1370 C 133.07 3.53455 1.29409 0
M  V30 1371 C 132.217 2.75831 0.285024 0
M  V30 1372 H 135.168 1.5566 -0.309115 0
M  V30 1373 H 135.189 3.41459 1.67887 0
M  V30 1374 H 134.701 3.88006 -0.0855019 0
M  V30 1375 H 132.802 2.99534 2.21608 0
M  V30 1376 H 132.915 4.62128 1.2639 0
M  V30 1377 H 131.279 2.42947 0.764767 0
M  V30 1378 H 132.062 3.37813 -0.611341 0
M  V30 1379 N 134.507 -0.190092 1.56449 0
M  V30 1380 C 135.735 -0.925772 1.85033 0
M  V30 1381 C 136.15 -1.76638 0.666658 0
M  V30 1382 O 135.507 -1.78822 -0.364565 0
M  V30 1383 C 135.558 -1.81786 3.12468 0
M  V30 1384 O 135.279 -1.01118 4.26271 0
M  V30 1385 C 136.78 -2.6648 3.54265 0
M  V30 1386 H 134 -0.269872 0.614337 0
M  V30 1387 H 136.544 -0.195837 2.0356 0
M  V30 1388 H 134.699 -2.50136 2.95822 0
M  V30 1389 H 135.113 -1.61956 4.98869 0
M  V30 1390 H 136.587 -3.24722 4.46385 0
M  V30 1391 H 137.064 -3.40434 2.77491 0
M  V30 1392 H 137.67 -2.03493 3.73458 0
M  V30 1393 N 135.985 -1.50799 -0.457987 0
M  V30 1394 C 137.401 -1.38515 -0.792819 0
M  V30 1395 C 137.601 -0.451409 -1.96379 0
M  V30 1396 O 136.657 0.10112 -2.52297 0
M  V30 1397 C 137.97 -2.80149 -1.09258 0
M  V30 1398 C 139.518 -2.89156 -1.19825 0
M  V30 1399 C 139.993 -4.31651 -1.53106 0
M  V30 1400 N 141.484 -4.34662 -1.60072 0
M  V30 1401 C 142.219 -5.41928 -1.87354 0
M  V30 1402 N 141.715 -6.59384 -2.12568 0
M  V30 1403 N 143.508 -5.29385 -1.88965 0
M  V30 1404 H 135.659 -2.10073 0.313511 0
M  V30 1405 H 137.922 -0.944803 0.0777862 0
M  V30 1406 H 137.628 -3.50374 -0.305084 0
M  V30 1407 H 137.502 -3.18204 -2.02549 0
M  V30 1408 H 139.889 -2.19141 -1.97639 0
M  V30 1409 H 139.97 -2.54626 -0.244821 0
M  V30 1410 H 139.614 -5.02208 -0.758266 0
M  V30 1411 H 139.544 -4.63678 -2.49621 0
M  V30 1412 H 142.035 -3.49973 -1.42573 0
M  V30 1413 H 142.348 -7.36934 -2.32696 0
M  V30 1414 H 140.693 -6.62535 -2.09933 0
M  V30 1415 H 143.884 -4.36616 -1.68772 0
M  V30 1416 H 144.057 -6.13066 -2.09891 0
M  V30 1417 N 137.463 0.71206 -1.40597 0
M  V30 1418 C 138.393 1.83889 -1.43899 0
M  V30 1419 C 139.374 1.67442 -0.299504 0
M  V30 1420 O 140.559 1.87421 -0.508624 0
M  V30 1421 C 137.689 3.21877 -1.30431 0
M  V30 1422 C 136.643 3.53002 -2.42019 0
M  V30 1423 C 135.969 4.90172 -2.13626 0
M  V30 1424 C 137.269 3.53643 -3.84362 0
M  V30 1425 H 138.963 1.81383 -2.38203 0
M  V30 1426 H 136.509 0.871237 -1.14654 0
M  V30 1427 H 138.462 4.00404 -1.31357 0
M  V30 1428 H 137.186 3.24968 -0.326049 0
M  V30 1429 H 135.845 2.76818 -2.40349 0
M  V30 1430 H 135.493 4.89869 -1.14182 0
M  V30 1431 H 135.193 5.11962 -2.88389 0
M  V30 1432 H 136.717 5.71028 -2.1624 0
M  V30 1433 H 138.131 4.22203 -3.87837 0
M  V30 1434 H 136.528 3.86961 -4.58673 0
M  V30 1435 H 137.598 2.52954 -4.13693 0
M  V30 1436 N 138.941 1.26152 0.944643 0
M  V30 1437 C 140.189 1.11271 1.6871 0
M  V30 1438 C 140.51 -0.345166 1.91921 0
M  V30 1439 O 139.78 -1.24387 1.51343 0
M  V30 1440 H 138.36 0.408783 0.625224 0
M  V30 1441 H 141.022 1.58427 1.1352 0
M  V30 1442 H 140.118 1.62879 2.66227 0
M  V30 1443 N 140.419 -1.14872 1.07899 0
M  V30 1444 C 141.352 -2.18794 0.64841 0
M  V30 1445 C 142.33 -1.59065 -0.337189 0
M  V30 1446 O 143.514 -1.86936 -0.242284 0
M  V30 1447 C 140.641 -3.38667 -0.0470417 0
M  V30 1448 C 139.687 -4.16942 0.897884 0
M  V30 1449 S 140.52 -4.78615 2.40183 0
M  V30 1450 C 141.676 -6.0185 1.71834 0
M  V30 1451 H 141.909 -2.5498 1.52881 0
M  V30 1452 H 139.442 -1.25922 0.893484 0
M  V30 1453 H 141.4 -4.08113 -0.442027 0
M  V30 1454 H 140.061 -3.00814 -0.903861 0
M  V30 1455 H 139.254 -5.02726 0.358096 0
M  V30 1456 H 138.856 -3.53073 1.23352 0
M  V30 1457 H 141.148 -6.69574 1.03328 0
M  V30 1458 H 142.091 -6.60408 2.55473 0
M  V30 1459 H 142.499 -5.5173 1.19392 0
M  V30 1460 N 141.898 -0.863906 -1.31812 0
M  V30 1461 C 142.828 -0.330843 -2.31144 0
M  V30 1462 C 143.809 0.575005 -1.60087 0
M  V30 1463 O 144.994 0.493304 -1.8783 0
M  V30 1464 C 142.124 0.47374 -3.44054 0
M  V30 1465 C 141.078 -0.338481 -4.26659 0
M  V30 1466 C 140.404 0.591412 -5.31419 0
M  V30 1467 C 141.704 -1.56926 -4.98168 0
M  V30 1468 H 143.398 -1.16086 -2.75979 0
M  V30 1469 H 140.944 -0.559657 -1.32679 0
M  V30 1470 H 142.897 0.857143 -4.12591 0
M  V30 1471 H 141.621 1.33721 -2.9797 0
M  V30 1472 H 140.28 -0.703754 -3.59782 0
M  V30 1473 H 139.928 1.45199 -4.81587 0
M  V30 1474 H 139.628 0.0519022 -5.87577 0
M  V30 1475 H 141.152 0.97179 -6.02817 0
M  V30 1476 H 142.566 -1.25764 -5.59336 0
M  V30 1477 H 140.963 -2.04739 -5.64094 0
M  V30 1478 H 142.033 -2.32544 -4.25501 0
M  V30 1479 N 143.376 1.44774 -0.622745 0
M  V30 1480 C 144.306 2.33382 0.0741861 0
M  V30 1481 C 145.287 1.47719 0.843387 0
M  V30 1482 O 146.472 1.76458 0.810934 0
M  V30 1483 C 143.602 3.30663 1.06204 0
M  V30 1484 C 142.556 4.26079 0.405037 0
M  V30 1485 C 141.882 5.13165 1.5022 0
M  V30 1486 C 143.182 5.1781 -0.683414 0
M  V30 1487 H 144.876 2.91905 -0.665713 0
M  V30 1488 H 142.422 1.40363 -0.321587 0
M  V30 1489 H 144.375 3.9153 1.55827 0
M  V30 1490 H 143.099 2.70331 1.83272 0
M  V30 1491 H 141.758 3.66532 -0.0704683 0
M  V30 1492 H 141.406 4.49191 2.26355 0
M  V30 1493 H 141.106 5.77812 1.06803 0
M  V30 1494 H 142.63 5.76902 2.00041 0
M  V30 1495 H 144.044 5.72661 -0.270631 0
M  V30 1496 H 142.441 5.91015 -1.04023 0
M  V30 1497 H 143.511 4.59326 -1.55395 0
M  V30 1498 N 144.854 0.36279 1.53368 0
M  V30 1499 C 145.817 -0.472679 2.24273 0
M  V30 1500 C 146.817 -1.012 1.24961 0
M  V30 1501 O 148.007 -0.898194 1.49259 0
M  V30 1502 C 145.139 -1.66039 2.97731 0
M  V30 1503 H 146.332 0.14773 2.99536 0
M  V30 1504 H 143.885 0.114434 1.55881 0
M  V30 1505 H 144.62 -2.31896 2.26704 0
M  V30 1506 H 144.405 -1.28066 3.70596 0
M  V30 1507 H 145.895 -2.25252 3.51641 0
M  V30 1508 N 146.332 -1.57332 0.0918853 0
M  V30 1509 C 147.609 -1.85691 -0.614668 0
M  V30 1510 C 147.989 -0.988146 -1.86545 0
M  V30 1511 O 147.337 -0.0597055 -2.28422 0
M  V30 1512 C 147.547 -3.36294 -0.933126 0
M  V30 1513 C 148.895 -4.04275 -1.29796 0
M  V30 1514 O 149.919 -3.41157 -1.02424 0
M  V30 1515 O 148.778 -5.1564 -1.81047 0
M  V30 1516 H 145.872 -0.767802 -0.307261 0
M  V30 1517 H 148.418 -1.69244 0.12434 0
M  V30 1518 H 147.19 -3.91273 -0.0456404 0
M  V30 1519 H 146.813 -3.58076 -1.72822 0
M  V30 1520 N 147.81 0.181792 -1.56548 0
M  V30 1521 C 149.058 0.89832 -1.81038 0
M  V30 1522 C 149.379 1.83232 -0.667164 0
M  V30 1523 O 148.649 1.93372 0.313673 0
M  V30 1524 H 147.229 0.33471 -0.667816 0
M  V30 1525 H 149.891 0.184116 -1.94028 0
M  V30 1526 H 148.987 1.4815 -2.74696 0
M  V30 1527 N 149.288 1.51039 0.449983 0
M  V30 1528 C 150.238 1.67824 1.54335 0
M  V30 1529 C 151.222 0.5324 1.51836 0
M  V30 1530 O 152.414 0.787762 1.58503 0
M  V30 1531 C 149.543 1.7951 2.92628 0
M  V30 1532 C 148.629 2.99838 2.9993 0
M  V30 1533 N 149.02 4.23207 2.77001 0
M  V30 1534 C 147.318 2.98832 3.31082 0
M  V30 1535 C 148.019 5.04361 2.89818 0
M  V30 1536 N 146.995 4.38746 3.2094 0
M  V30 1537 H 150.797 2.60884 1.35339 0
M  V30 1538 H 148.311 1.48513 0.657085 0
M  V30 1539 H 150.308 1.89642 3.7127 0
M  V30 1540 H 148.968 0.876227 3.12654 0
M  V30 1541 H 149.979 4.5236 2.52172 0
M  V30 1542 H 146.656 2.16527 3.56963 0
M  V30 1543 H 148.046 6.12528 2.76151 0
M  V30 1544 N 150.766 -0.704594 1.40972 0
M  V30 1545 C 152.177 -1.28418 1.3552 0
M  V30 1546 C 152.528 -1.96171 0.0339434 0
M  V30 1547 O 151.653 -1.98231 -0.867944 0
M  V30 1548 C 152.248 -2.33528 2.45459 0
M  V30 1549 C 150.807 -2.87085 2.43433 0
M  V30 1550 C 149.954 -1.61007 2.2577 0
M  V30 1551 H 152.905 -0.499963 1.50619 0
M  V30 1552 H 152.926 -3.14619 2.13998 0
M  V30 1553 H 152.438 -1.84187 3.41609 0
M  V30 1554 H 150.539 -3.40626 1.51013 0
M  V30 1555 H 150.652 -3.3813 3.39419 0
M  V30 1556 H 149.016 -1.86482 1.73483 0
M  V30 1557 H 149.799 -1.13675 3.23933 0
M  V30 1558 N 152.244 -1.26651 -0.937939 0
M  V30 1559 C 153.207 -1.08546 -2.01867 0
M  V30 1560 C 154.207 -0.0327327 -1.60767 0
M  V30 1561 O 155.397 -0.276427 -1.71993 0
M  V30 1562 C 152.529 -0.651711 -3.34613 0
M  V30 1563 H 153.722 -2.04502 -2.1936 0
M  V30 1564 H 151.275 -1.09294 -1.11734 0
M  V30 1565 H 152.01 0.309696 -3.22818 0
M  V30 1566 H 151.795 -1.41189 -3.65798 0
M  V30 1567 H 153.285 -0.546973 -4.14002 0
M  V30 1568 N 153.722 1.14298 -1.08507 0
M  V30 1569 C 154.654 2.1907 -0.673859 0
M  V30 1570 C 155.667 1.60381 0.279577 0
M  V30 1571 O 156.856 1.78374 0.0670754 0
M  V30 1572 C 153.956 3.38888 0.0290979 0
M  V30 1573 C 153.129 4.27103 -0.943494 0
M  V30 1574 C 152.188 5.25477 -0.275676 0
M  V30 1575 O 151.214 5.61709 -0.920401 0
M  V30 1576 N 152.416 5.7227 0.974013 0
M  V30 1577 H 155.181 2.54965 -1.57521 0
M  V30 1578 H 152.742 1.29528 -0.971287 0
M  V30 1579 H 154.734 4.01761 0.48683 0
M  V30 1580 H 153.304 3.01309 0.832555 0
M  V30 1581 H 152.524 3.61149 -1.58004 0
M  V30 1582 H 153.812 4.82905 -1.60251 0
M  V30 1583 H 153.21 5.44965 1.51755 0
M  V30 1584 H 151.767 6.37127 1.37522 0
M  V30 1585 N 155.201 0.870884 1.31352 0
M  V30 1586 C 156.133 0.28455 2.27427 0
M  V30 1587 C 157.146 -0.552927 1.53123 0
M  V30 1588 O 158.335 -0.374771 1.74521 0
M  V30 1589 C 155.435 -0.615164 3.3327 0
M  V30 1590 C 154.608 0.190079 4.36987 0
M  V30 1591 C 153.667 -0.637917 5.22319 0
M  V30 1592 O 152.693 -0.065626 5.69162 0
M  V30 1593 N 153.895 -1.94973 5.46778 0
M  V30 1594 H 156.66 1.11017 2.7838 0
M  V30 1595 H 154.221 0.732458 1.44384 0
M  V30 1596 H 156.213 -1.1748 3.87273 0
M  V30 1597 H 154.783 -1.34146 2.82354 0
M  V30 1598 H 154.003 0.931165 3.83044 0
M  V30 1599 H 155.291 0.742579 5.03352 0
M  V30 1600 H 154.689 -2.4378 5.10478 0
M  V30 1601 H 153.246 -2.45713 6.03712 0
M  V30 1602 N 156.679 -1.44442 0.630414 0
M  V30 1603 C 158.095 -1.56832 0.295973 0
M  V30 1604 C 158.295 -1.61806 -1.20088 0
M  V30 1605 O 157.351 -1.5607 -1.9849 0
M  V30 1606 C 158.664 -2.84031 0.987264 0
M  V30 1607 C 160.212 -2.97742 0.96534 0
M  V30 1608 C 160.687 -4.27743 1.63708 0
M  V30 1609 N 162.178 -4.34555 1.60364 0
M  V30 1610 C 162.913 -5.33862 2.09234 0
M  V30 1611 N 162.409 -6.39578 2.66292 0
M  V30 1612 N 164.202 -5.25366 1.99867 0
M  V30 1613 H 156.353 -1.39457 1.60205 0
M  V30 1614 H 158.616 -0.668237 0.672431 0
M  V30 1615 H 158.322 -2.86338 2.04215 0
M  V30 1616 H 158.196 -3.73534 0.524588 0
M  V30 1617 H 160.583 -2.94989 -0.0810639 0
M  V30 1618 H 160.664 -2.09589 1.4665 0
M  V30 1619 H 160.308 -4.31255 2.68293 0
M  V30 1620 H 160.238 -5.14752 1.11076 0
M  V30 1621 H 162.729 -3.58772 1.18705 0
M  V30 1622 H 163.042 -7.11637 3.01317 0
M  V30 1623 H 161.387 -6.40265 2.70343 0
M  V30 1624 H 164.578 -4.41688 1.55013 0
M  V30 1625 H 164.751 -6.02606 2.38265 0
M  V30 1626 N 158.157 -0.370918 -1.53173 0
M  V30 1627 C 159.12 0.460778 -2.24521 0
M  V30 1628 C 160.12 1.00536 -1.25496 0
M  V30 1629 O 161.31 0.890266 -1.49733 0
M  V30 1630 C 158.442 1.64457 -2.98608 0
M  V30 1631 H 159.635 -0.163613 -2.99453 0
M  V30 1632 H 157.188 -0.122699 -1.55818 0
M  V30 1633 H 157.923 2.30691 -2.2793 0
M  V30 1634 H 157.708 1.26099 -3.7127 0
M  V30 1635 H 159.198 2.23384 -3.5283 0
M  V30 1636 N 159.635 1.57281 -0.100228 0
M  V30 1637 C 160.881 1.95626 0.556946 0
M  V30 1638 C 161.236 0.981655 1.65473 0
M  V30 1639 O 160.529 0.00849847 1.91598 0
M  V30 1640 C 160.723 3.38305 1.15259 0
M  V30 1641 C 160.552 4.49555 0.114035 0
M  V30 1642 C 159.322 5.0434 -0.311266 0
M  V30 1643 C 161.52 5.10051 -0.659768 0
M  V30 1644 N 159.502 5.99152 -1.33755 0
M  V30 1645 C 160.873 6.00628 -1.53774 0
M  V30 1646 C 162.928 4.92772 -0.712723 0
M  V30 1647 C 161.631 6.7578 -2.46403 0
M  V30 1648 C 163.657 5.6859 -1.62663 0
M  V30 1649 C 163.019 6.58838 -2.49222 0
M  V30 1650 H 159.118 0.7624 0.173982 0
M  V30 1651 H 161.702 1.93829 -0.183988 0
M  V30 1652 H 159.873 3.40786 1.86332 0
M  V30 1653 H 161.605 3.63817 1.77254 0
M  V30 1654 H 158.36 4.73537 0.0774812 0
M  V30 1655 H 158.784 6.5126 -1.84905 0
M  V30 1656 H 163.426 4.22761 -0.0576648 0
M  V30 1657 H 161.144 7.4505 -3.12931 0
M  V30 1658 H 164.73 5.57233 -1.67281 0
M  V30 1659 H 163.61 7.16479 -3.18791 0
M  V30 1660 N 161.113 -0.173488 1.56642 0
M  V30 1661 C 162.043 -1.2171 1.99271 0
M  V30 1662 C 163.024 -1.46289 0.867959 0
M  V30 1663 O 164.209 -1.5766 1.13388 0
M  V30 1664 C 161.339 -2.55651 2.35074 0
M  V30 1665 C 160.293 -2.45645 3.50489 0
M  V30 1666 C 159.619 -3.84056 3.72028 0
M  V30 1667 C 160.919 -1.96302 4.84007 0
M  V30 1668 H 162.613 -0.86275 2.867 0
M  V30 1669 H 160.159 -0.413571 1.37933 0
M  V30 1670 H 162.112 -3.2886 2.63494 0
M  V30 1671 H 160.836 -2.92869 1.44552 0
M  V30 1672 H 159.495 -1.7489 3.22194 0
M  V30 1673 H 159.143 -4.18664 2.788 0
M  V30 1674 H 158.843 -3.7823 4.49684 0
M  V30 1675 H 160.367 -4.58854 4.02846 0
M  V30 1676 H 161.781 -2.59284 5.11317 0
M  V30 1677 H 160.178 -2.01429 5.65284 0
M  V30 1678 H 161.248 -0.917226 4.76146 0
M  V30 1679 N 162.591 -1.51276 -0.441967 0
M  V30 1680 C 163.868 -1.54252 -1.20273 0
M  V30 1681 C 164.248 -0.30408 -2.08898 0
M  V30 1682 O 163.596 0.711084 -2.17154 0
M  V30 1683 C 163.806 -2.85406 -2.00859 0
M  V30 1684 C 165.154 -3.37181 -2.58059 0
M  V30 1685 O 166.178 -2.86925 -2.11074 0
M  V30 1686 O 165.037 -4.24858 -3.43741 0
M  V30 1687 H 162.131 -0.619969 -0.547328 0
M  V30 1688 H 164.677 -1.63586 -0.451413 0
M  V30 1689 H 163.449 -3.67003 -1.35736 0
M  V30 1690 H 163.072 -2.79213 -2.83065 0
M  V30 1691 N 164.069 0.697108 -1.41344 0
M  V30 1692 C 164.999 1.82353 -1.45841 0
M  V30 1693 C 165.98 1.67115 -0.317247 0
M  V30 1694 O 167.165 1.86871 -0.528474 0
M  V30 1695 C 164.295 3.20476 -1.33838 0
M  V30 1696 C 163.249 3.50415 -2.4575 0
M  V30 1697 C 162.575 4.87878 -2.18813 0
M  V30 1698 C 163.875 3.49546 -3.88091 0
M  V30 1699 H 165.569 1.78846 -2.40113 0
M  V30 1700 H 163.115 0.859028 -1.15571 0
M  V30 1701 H 165.068 3.98988 -1.35596 0
M  V30 1702 H 163.792 3.24604 -0.360498 0
M  V30 1703 H 162.451 2.74253 -2.43271 0
M  V30 1704 H 162.099 4.8863 -1.19371 0
M  V30 1705 H 161.799 5.08875 -2.93803 0
M  V30 1706 H 163.323 5.68702 -2.22284 0
M  V30 1707 H 164.737 4.18066 -3.92293 0
M  V30 1708 H 163.134 3.82075 -4.62751 0
M  V30 1709 H 164.204 2.48552 -4.16353 0
M  V30 1710 N 165.547 1.27147 0.931209 0
M  V30 1711 C 166.495 1.09398 2.05268 0
M  V30 1712 C 167.489 0.0180591 1.6939 0
M  V30 1713 O 168.695 0.17551 1.79142 0
M  V30 1714 H 165.07 0.336986 0.672268 0
M  V30 1715 H 167.041 2.04416 2.17386 0
M  V30 1716 C 165.79 0.75424 3.39421 0
M  V30 1717 H 165.113 1.57404 3.67511 0
M  V30 1718 H 166.553 0.669903 4.18674 0
M  V30 1719 C 165.012 -0.541197 3.32525 0
M  V30 1720 O 165.542 -1.57664 3.69466 0
M  V30 1721 N 163.748 -0.535517 2.85623 0
M  V30 1722 H 163.295 0.307511 2.55758 0
M  V30 1723 H 163.253 -1.40236 2.81392 0
M  V30 1724 N 167.025 -1.13721 1.09112 0
M  V30 1725 C 168.273 -1.84559 0.823562 0
M  V30 1726 C 168.594 -1.83754 -0.652658 0
M  V30 1727 O 167.864 -1.29102 -1.47342 0
M  V30 1728 H 166.444 -0.683376 0.301673 0
M  V30 1729 H 169.106 -1.37771 1.37859 0
M  V30 1730 H 168.202 -2.8917 1.17419 0
M  V30 1731 N 168.503 -0.877838 -1.30888 0
M  V30 1732 C 169.466 -0.344265 -2.266 0
M  V30 1733 C 170.466 0.50922 -1.52524 0
M  V30 1734 O 171.656 0.317398 -1.71284 0
M  V30 1735 C 168.788 0.510198 -3.37061 0
M  V30 1736 H 169.981 -1.1893 -2.7531 0
M  V30 1737 H 167.534 -0.654088 -1.41956 0
M  V30 1738 H 168.269 1.37612 -2.93655 0
M  V30 1739 H 168.054 -0.101047 -3.9197 0
M  V30 1740 H 169.544 0.875537 -4.08319 0
M  V30 1741 N 169.982 1.44106 -0.638065 0
M  V30 1742 C 171.228 2.02277 -0.145546 0
M  V30 1743 C 171.561 1.50125 1.23191 0
M  V30 1744 O 170.836 0.688133 1.8192 0
M  V30 1745 C 171.119 3.59829 -0.139791 0
M  V30 1746 C 170.972 4.22247 -1.55008 0
M  V30 1747 C 172.291 4.36873 0.531966 0
M  V30 1748 H 169.41 0.734992 -0.0543632 0
M  V30 1749 H 172.052 1.71592 -0.815863 0
M  V30 1750 H 170.202 3.86102 0.431007 0
M  V30 1751 H 171.874 4.07057 -2.1703 0
M  V30 1752 H 170.117 3.79476 -2.10191 0
M  V30 1753 H 170.788 5.31284 -1.49804 0
M  V30 1754 H 173.264 4.16074 0.0464781 0
M  V30 1755 H 172.14 5.4657 0.505206 0
M  V30 1756 H 172.401 4.11995 1.60352 0
M  V30 1757 N 171.46 0.379036 1.52974 0
M  V30 1758 C 172.685 -0.209353 2.06341 0
M  V30 1759 C 173.11 -1.40583 1.24972 0
M  V30 1760 O 172.468 -1.79246 0.272155 0
M  V30 1761 C 172.516 -0.567786 3.56102 0
M  V30 1762 O 171.62 -1.66318 3.77375 0
M  V30 1763 H 170.961 -0.0272919 0.663439 0
M  V30 1764 H 173.491 0.543536 1.97248 0
M  V30 1765 H 173.501 -0.835003 3.99364 0
M  V30 1766 H 172.176 0.307013 4.14765 0
M  V30 1767 H 170.753 -1.39048 3.46006 0
M  V30 1768 N 172.938 -1.57226 0.108567 0
M  V30 1769 C 173.888 -2.11305 -0.856396 0
M  V30 1770 C 174.872 -1.03129 -1.23504 0
M  V30 1771 O 176.064 -1.29381 -1.20787 0
M  V30 1772 C 173.193 -2.70771 -2.11041 0
M  V30 1773 C 172.279 -3.86011 -1.7566 0
M  V30 1774 N 172.67 -4.93492 -1.10902 0
M  V30 1775 C 170.968 -3.95999 -2.05185 0
M  V30 1776 C 171.669 -5.73984 -0.944308 0
M  V30 1777 N 170.645 -5.2346 -1.46596 0
M  V30 1778 H 174.447 -2.91784 -0.352002 0
M  V30 1779 H 171.961 -1.62126 -0.0942324 0
M  V30 1780 H 173.958 -3.07851 -2.81128 0
M  V30 1781 H 172.618 -1.91751 -2.62034 0
M  V30 1782 H 173.629 -5.1208 -0.774235 0
M  V30 1783 H 170.306 -3.28007 -2.58298 0
M  V30 1784 H 171.696 -6.70479 -0.436813 0
M  V30 1785 N 174.416 0.165178 -1.56732 0
M  V30 1786 C 175.379 1.18822 -1.95995 0
M  V30 1787 C 176.379 1.3685 -0.84431 0
M  V30 1788 O 177.569 1.34152 -1.11126 0
M  V30 1789 C 174.701 2.5521 -2.26011 0
M  V30 1790 H 175.894 0.851825 -2.87548 0
M  V30 1791 H 173.447 0.407857 -1.50885 0
M  V30 1792 H 174.182 2.93852 -1.37191 0
M  V30 1793 H 173.967 2.43489 -3.07336 0
M  V30 1794 H 175.457 3.28927 -2.57288 0
M  V30 1795 N 175.894 1.51508 0.433938 0
M  V30 1796 C 177.171 1.54888 1.19453 0
M  V30 1797 C 177.551 0.315154 2.08734 0
M  V30 1798 O 176.899 -0.699558 2.17528 0
M  V30 1799 C 177.109 2.86467 1.99342 0
M  V30 1800 C 178.457 3.38545 2.56267 0
M  V30 1801 O 179.481 2.88041 2.0955 0
M  V30 1802 O 178.34 4.26675 3.41483 0
M  V30 1803 H 175.434 0.622863 0.544032 0
M  V30 1804 H 177.98 1.63823 0.442732 0
M  V30 1805 H 176.752 3.67718 1.33788 0
M  V30 1806 H 176.375 2.8071 2.8158 0
M  V30 1807 N 177.372 -0.689602 1.41712 0
M  V30 1808 C 178.302 -1.81577 1.46806 0
M  V30 1809 C 179.283 -1.66945 0.326105 0
M  V30 1810 O 180.468 -1.86588 0.538377 0
M  V30 1811 C 177.598 -3.19762 1.35535 0
M  V30 1812 C 176.552 -3.49107 2.47605 0
M  V30 1813 C 175.878 -4.86711 2.21397 0
M  V30 1814 C 177.178 -3.47483 3.89939 0
M  V30 1815 H 178.872 -1.7757 2.41058 0
M  V30 1816 H 176.418 -0.852887 1.16025 0
M  V30 1817 H 178.371 -3.98263 1.3771 0
M  V30 1818 H 177.095 -3.24409 0.377708 0
M  V30 1819 H 175.754 -2.72959 2.44722 0
M  V30 1820 H 175.402 -4.8799 1.21961 0
M  V30 1821 H 175.102 -5.0731 2.96497 0
M  V30 1822 H 176.626 -5.67515 2.25297 0
M  V30 1823 H 178.04 -4.1598 3.94505 0
M  V30 1824 H 176.437 -3.79615 4.64771 0
M  V30 1825 H 177.507 -2.46341 4.17665 0
M  V30 1826 N 178.85 -1.27639 -0.924453 0
M  V30 1827 C 179.813 -1.10681 -2.00705 0
M  V30 1828 C 180.813 -0.0497823 -1.60723 0
M  V30 1829 O 182.003 -0.294654 -1.7169 0
M  V30 1830 C 179.135 -0.687164 -3.33902 0
M  V30 1831 H 180.328 -2.06817 -2.17179 0
M  V30 1832 H 177.881 -1.10473 -1.10569 0
M  V30 1833 H 178.616 0.275439 -3.23128 0
M  V30 1834 H 178.401 -1.45061 -3.6428 0
M  V30 1835 H 179.891 -0.590853 -4.13399 0
M  V30 1836 N 180.328 1.1314 -1.09713 0
M  V30 1837 C 181.575 1.84484 -0.834987 0
M  V30 1838 C 181.903 1.83689 0.639418 0
M  V30 1839 O 181.158 1.2724 1.4869 0
M  V30 1840 C 181.457 3.32167 -1.3191 0
M  V30 1841 C 181.123 3.53139 -2.80363 0
M  V30 1842 C 179.785 3.58571 -3.20905 0
M  V30 1843 C 182.137 3.60866 -3.76065 0
M  V30 1844 C 179.465 3.69267 -4.55916 0
M  V30 1845 C 181.817 3.73089 -5.10869 0
M  V30 1846 C 180.481 3.76775 -5.50996 0
M  V30 1847 H 179.751 0.675073 -0.305544 0
M  V30 1848 H 182.398 1.33554 -1.37243 0
M  V30 1849 H 180.703 3.85469 -0.701517 0
M  V30 1850 H 182.4 3.85821 -1.09284 0
M  V30 1851 H 178.99 3.49569 -2.47991 0
M  V30 1852 H 183.174 3.55946 -3.45855 0
M  V30 1853 H 178.43 3.70388 -4.86438 0
M  V30 1854 H 182.604 3.78011 -5.84877 0
M  V30 1855 H 180.231 3.84815 -6.55608 0
M  V30 1856 N 181.806 0.884767 1.30421 0
M  V30 1857 C 183.034 0.518044 2.0031 0
M  V30 1858 C 183.449 -0.893408 1.66324 0
M  V30 1859 O 182.806 -1.5875 0.900262 0
M  V30 1860 C 182.857 0.682997 3.54989 0
M  V30 1861 O 182.578 2.03888 3.87764 0
M  V30 1862 C 184.079 0.31924 4.42149 0
M  V30 1863 H 181.299 0.200265 0.640418 0
M  V30 1864 H 183.843 1.19001 1.6631 0
M  V30 1865 H 181.998 0.0584052 3.87356 0
M  V30 1866 H 182.412 2.05735 4.82466 0
M  V30 1867 H 183.886 0.485555 5.4986 0
M  V30 1868 H 184.363 -0.742717 4.32875 0
M  V30 1869 H 184.969 0.920147 4.15227 0
M  V30 1870 N 183.284 -1.43765 0.645699 0
M  V30 1871 C 184.532 -2.01499 0.155731 0
M  V30 1872 C 184.853 -1.51151 -1.232 0
M  V30 1873 O 184.123 -0.721044 -1.82148 0
M  V30 1874 H 182.703 -0.745003 0.0545817 0
M  V30 1875 H 185.365 -1.76075 0.835677 0
M  V30 1876 H 184.461 -3.1181 0.134577 0
M  V30 1877 N 184.763 -0.387143 -1.52771 0
M  V30 1878 C 185.693 0.440551 -2.29306 0
M  V30 1879 C 186.674 1.06535 -1.32606 0
M  V30 1880 O 187.859 1.07853 -1.61497 0
M  V30 1881 C 184.989 1.56919 -3.09829 0
M  V30 1882 C 183.943 1.07054 -4.14395 0
M  V30 1883 C 183.269 2.29109 -4.83129 0
M  V30 1884 C 184.569 0.140015 -5.22112 0
M  V30 1885 H 186.263 -0.198026 -2.98744 0
M  V30 1886 H 183.809 -0.09668 -1.43675 0
M  V30 1887 H 185.762 2.15503 -3.62128 0
M  V30 1888 H 184.486 2.23532 -2.3812 0
M  V30 1889 H 183.145 0.507247 -3.63074 0
M  V30 1890 H 182.793 2.94227 -4.0797 0
M  V30 1891 H 182.493 1.96406 -5.53804 0
M  V30 1892 H 184.017 2.88339 -5.38231 0
M  V30 1893 H 185.431 0.633978 -5.69784 0
M  V30 1894 H 183.828 -0.0971485 -6.00021 0
M  V30 1895 H 184.898 -0.811711 -4.78058 0
M  V30 1896 N 186.241 1.57166 -0.116904 0
M  V30 1897 C 187.171 2.18222 0.830759 0
M  V30 1898 C 188.152 1.12167 1.27877 0
M  V30 1899 O 189.337 1.40394 1.34176 0
M  V30 1900 C 186.467 2.77996 2.08172 0
M  V30 1901 C 185.421 3.89614 1.77157 0
M  V30 1902 C 184.747 4.36187 3.09265 0
M  V30 1903 C 186.047 5.1181 1.04151 0
M  V30 1904 H 187.741 2.97664 0.321992 0
M  V30 1905 H 185.287 1.4318 0.153434 0
M  V30 1906 H 187.24 3.19366 2.74924 0
M  V30 1907 H 185.964 1.9584 2.6137 0
M  V30 1908 H 184.623 3.48816 1.12796 0
M  V30 1909 H 184.271 3.50893 3.60393 0
M  V30 1910 H 183.971 5.11455 2.89288 0
M  V30 1911 H 185.495 4.80207 3.77139 0
M  V30 1912 H 186.909 5.50214 1.61052 0
M  V30 1913 H 185.306 5.92648 0.942762 0
M  V30 1914 H 186.376 4.84892 0.0279022 0
M  V30 1915 N 187.719 -0.156864 1.56817 0
M  V30 1916 C 188.996 -0.899244 1.73704 0
M  V30 1917 C 189.376 -1.99771 0.682254 0
M  V30 1918 O 188.724 -2.26515 -0.300522 0
M  V30 1919 C 188.934 -1.45075 3.17418 0
M  V30 1920 C 190.282 -1.91802 3.7881 0
M  V30 1921 O 191.306 -1.54838 3.20786 0
M  V30 1922 O 190.165 -2.5994 4.80722 0
M  V30 1923 H 187.259 -0.424267 0.709878 0
M  V30 1924 H 189.805 -0.143561 1.69092 0
M  V30 1925 H 188.577 -0.660846 3.85679 0
M  V30 1926 H 188.2 -2.27021 3.26416 0
M  V30 1927 N 189.197 -1.51736 -0.425897 0
M  V30 1928 C 190.443 -1.65214 -1.1761 0
M  V30 1929 C 190.776 -0.372778 -1.90589 0
M  V30 1930 O 190.051 0.628139 -1.84078 0
M  V30 1931 C 190.334 -2.86312 -2.18398 0
M  V30 1932 C 190.187 -4.24254 -1.49426 0
M  V30 1933 C 191.506 -3.02925 -3.19256 0
M  V30 1934 H 188.625 -0.601263 -0.426206 0
M  V30 1935 H 191.267 -1.8425 -0.463882 0
M  V30 1936 H 189.417 -2.70213 -2.79137 0
M  V30 1937 H 191.089 -4.52046 -0.919362 0
M  V30 1938 H 189.332 -4.26426 -0.796432 0
M  V30 1939 H 190.003 -5.05001 -2.22885 0
M  V30 1940 H 192.479 -3.1781 -2.68581 0
M  V30 1941 H 191.355 -3.89199 -3.8706 0
M  V30 1942 H 191.616 -2.15497 -3.86023 0
M  V30 1943 N 190.675 0.682077 -1.42076 0
M  V30 1944 C 191.921 1.44428 -1.42367 0
M  V30 1945 C 192.254 1.94164 -0.0373056 0
M  V30 1946 O 191.529 1.70429 0.937239 0
M  V30 1947 C 191.812 2.64654 -2.44194 0
M  V30 1948 C 191.665 2.20596 -3.91991 0
M  V30 1949 C 192.984 3.66865 -2.431 0
M  V30 1950 H 190.103 0.523834 -0.518428 0
M  V30 1951 H 192.745 0.77576 -1.73442 0
M  V30 1952 H 190.895 3.2169 -2.17826 0
M  V30 1953 H 192.567 1.68783 -4.29313 0
M  V30 1954 H 190.81 1.52242 -4.06208 0
M  V30 1955 H 191.481 3.06921 -4.58807 0
M  V30 1956 H 193.957 3.19531 -2.66532 0
M  V30 1957 H 192.833 4.48577 -3.16339 0
M  V30 1958 H 193.094 4.17493 -1.45437 0
M  V30 1959 N 192.153 1.28127 0.917671 0
M  V30 1960 C 193.569 1.05749 1.19538 0
M  V30 1961 C 193.769 -0.202633 2.00479 0
M  V30 1962 O 192.825 -0.905382 2.3571 0
M  V30 1963 C 194.138 2.30273 1.93378 0
M  V30 1964 C 195.686 2.35412 2.06277 0
M  V30 1965 C 196.161 3.59692 2.83524 0
M  V30 1966 N 197.652 3.60309 2.91087 0
M  V30 1967 C 198.387 4.53147 3.51348 0
M  V30 1968 N 197.883 5.563 4.12919 0
M  V30 1969 N 199.676 4.40751 3.48849 0
M  V30 1970 H 191.827 2.09024 0.377184 0
M  V30 1971 H 194.09 0.919798 0.22951 0
M  V30 1972 H 193.796 3.22055 1.41328 0
M  V30 1973 H 193.67 2.36378 2.93947 0
M  V30 1974 H 196.057 1.4413 2.57508 0
M  V30 1975 H 196.138 2.33304 1.04895 0
M  V30 1976 H 195.782 4.51316 2.32973 0
M  V30 1977 H 195.712 3.59054 3.85211 0
M  V30 1978 H 198.203 2.85714 2.47338 0
M  V30 1979 H 198.516 6.2329 4.56869 0
M  V30 1980 H 196.861 5.60131 4.11435 0
M  V30 1981 H 200.052 3.59367 2.99955 0
M  V30 1982 H 200.225 5.13291 3.9552 0
M  V30 1983 N 193.631 -1.12557 1.10312 0
M  V30 1984 C 194.859 -1.87864 0.866873 0
M  V30 1985 C 195.274 -1.79588 -0.582557 0
M  V30 1986 O 194.631 -1.16887 -1.40156 0
M  V30 1987 C 194.682 -3.37125 1.30496 0
M  V30 1988 O 194.403 -3.45201 2.69755 0
M  V30 1989 C 195.904 -4.29373 1.10243 0
M  V30 1990 H 193.124 -0.594452 0.311236 0
M  V30 1991 H 195.668 -1.42429 1.46745 0
M  V30 1992 H 193.823 -3.80109 0.748081 0
M  V30 1993 H 194.237 -4.38056 2.88457 0
M  V30 1994 H 195.711 -5.32394 1.45811 0
M  V30 1995 H 196.188 -4.39181 0.0409492 0
M  V30 1996 H 196.794 -3.92169 1.64571 0
M  V30 1997 N 195.109 -0.891671 -1.2995 0
M  V30 1998 C 196.357 -0.512486 -1.95494 0
M  V30 1999 C 196.678 0.942776 -1.70695 0
M  V30 2000 O 195.948 1.66374 -1.03424 0
M  V30 2001 H 194.528 -0.186533 -0.723336 0
M  V30 2002 H 197.19 -1.13621 -1.58355 0
M  V30 2003 H 196.286 -0.688342 -3.04415 0
M  V30 2004 N 196.587 1.43421 -0.653314 0
M  V30 2005 C 198.003 1.56341 -0.320886 0
M  V30 2006 C 198.203 1.63696 1.17499 0
M  V30 2007 O 197.259 1.59208 1.95982 0
M  V30 2008 C 198.572 2.82424 -1.03233 0
M  V30 2009 C 200.12 2.96168 -1.01259 0
M  V30 2010 C 200.595 4.25084 -1.70492 0
M  V30 2011 N 202.086 4.31948 -1.67257 0
M  V30 2012 C 202.821 5.30466 -2.17701 0
M  V30 2013 N 202.317 6.35261 -2.76434 0
M  V30 2014 N 204.11 5.2212 -2.082 0
M  V30 2015 H 196.261 1.3689 -1.62403 0
M  V30 2016 H 198.524 0.657455 -0.682977 0
M  V30 2017 H 198.23 2.83053 -2.08744 0
M  V30 2018 H 198.104 3.72653 -0.583948 0
M  V30 2019 H 200.491 2.9508 0.0341235 0
M  V30 2020 H 200.572 2.07229 -1.49966 0
M  V30 2021 H 200.216 4.26932 -2.7512 0
M  V30 2022 H 200.146 5.1292 -1.19251 0
M  V30 2023 H 202.637 3.56838 -1.24398 0
M  V30 2024 H 202.95 7.06754 -3.12601 0
M  V30 2025 H 201.295 6.35884 -2.80495 0
M  V30 2026 H 204.486 4.39166 -1.62021 0
M  V30 2027 H 204.659 5.98739 -2.47822 0
M  V30 2028 N 198.065 0.39524 1.52563 0
M  V30 2029 C 199.476 -0.0774719 1.86539 0
M  V30 2030 C 199.827 -1.45641 1.31466 0
M  V30 2031 O 198.952 -2.06459 0.648367 0
M  V30 2032 C 199.547 -0.147356 3.38479 0
M  V30 2033 C 198.106 -0.564373 3.72145 0
M  V30 2034 C 197.253 0.269919 2.75983 0
M  V30 2035 H 200.204 0.612876 1.46388 0
M  V30 2036 H 200.225 -0.965343 3.68051 0
M  V30 2037 H 199.737 0.856387 3.78534 0
M  V30 2038 H 197.838 -1.57527 3.37663 0
M  V30 2039 H 197.951 -0.318402 4.78041 0
M  V30 2040 H 196.315 -0.265696 2.5331 0
M  V30 2041 H 197.098 1.27175 3.18875 0
M  V30 2042 N 199.544 -1.57102 0.125237 0
M  V30 2043 C 200.507 -2.14471 -0.80838 0
M  V30 2044 C 201.507 -1.0811 -1.19033 0
M  V30 2045 O 202.697 -1.33856 -1.11482 0
M  V30 2046 C 199.829 -2.69005 -2.09402 0
M  V30 2047 H 201.022 -2.98297 -0.309696 0
M  V30 2048 H 198.575 -1.55807 -0.124051 0
M  V30 2049 H 199.31 -1.88785 -2.63687 0
M  V30 2050 H 199.095 -3.46799 -1.82957 0
M  V30 2051 H 200.585 -3.13278 -2.76128 0
M  V30 2052 N 201.022 0.148545 -1.56898 0
M  V30 2053 C 202.252 0.875118 -1.8715 0
M  V30 2054 C 202.66 1.75322 -0.711262 0
M  V30 2055 O 202.003 1.80745 0.328151 0
M  V30 2056 C 202.065 1.7844 -3.12089 0
M  V30 2057 C 201.729 1.08361 -4.43967 0
M  V30 2058 C 202.726 0.438247 -5.1805 0
M  V30 2059 C 200.411 1.07358 -4.90693 0
M  V30 2060 C 202.405 -0.20779 -6.37061 0
M  V30 2061 C 200.092 0.42373 -6.09629 0
M  V30 2062 C 201.09 -0.215829 -6.82659 0
M  V30 2063 O 200.778 -0.855378 -7.99336 0
M  V30 2064 H 200.51 0.258504 -0.624621 0
M  V30 2065 H 203.064 0.14652 -2.04877 0
M  V30 2066 H 201.294 2.55389 -2.90367 0
M  V30 2067 H 202.983 2.38279 -3.286 0
M  V30 2068 H 203.749 0.437817 -4.8302 0
M  V30 2069 H 199.628 1.5608 -4.33774 0
M  V30 2070 H 203.172 -0.70758 -6.94002 0
M  V30 2071 H 199.069 0.421822 -6.4412 0
M  V30 2072 H 199.837 -0.756892 -8.14993 0
M  V30 2073 N 202.5 1.5196 0.417844 0
M  V30 2074 C 203.463 1.74065 1.49111 0
M  V30 2075 C 204.463 0.610537 1.48758 0
M  V30 2076 O 205.653 0.87832 1.50437 0
M  V30 2077 C 202.785 1.81502 2.88565 0
M  V30 2078 H 203.978 2.69869 1.30807 0
M  V30 2079 H 201.531 1.42244 0.647785 0
M  V30 2080 H 202.266 0.875813 3.1225 0
M  V30 2081 H 202.051 2.63651 2.90225 0
M  V30 2082 H 203.541 2.00376 3.66387 0
M  V30 2083 N 203.978 -0.674533 1.42435 0
M  V30 2084 C 205.226 -1.43175 1.42637 0
M  V30 2085 C 205.547 -1.94951 0.0438992 0
M  V30 2086 O 204.817 -1.7308 -0.917607 0
M  V30 2087 H 203.397 -0.531307 0.525092 0
M  V30 2088 H 206.059 -0.797006 1.77859 0
M  V30 2089 H 205.155 -2.28463 2.12629 0
M  V30 2090 N 205.456 -1.28612 -0.910864 0
M  V30 2091 C 206.872 -1.06381 -1.18976 0
M  V30 2092 C 207.072 0.191998 -2.00583 0
M  V30 2093 O 206.128 0.892869 -2.36187 0
M  V30 2094 C 207.441 -2.31295 -1.92154 0
M  V30 2095 C 208.989 -2.36503 -2.05025 0
M  V30 2096 C 209.464 -3.61191 -2.81612 0
M  V30 2097 N 210.955 -3.61847 -2.89172 0
M  V30 2098 C 211.69 -4.55004 -3.4894 0
M  V30 2099 N 211.186 -5.58482 -4.09963 0
M  V30 2100 N 212.979 -4.42594 -3.46506 0
M  V30 2101 H 205.13 -2.09221 -0.366094 0
M  V30 2102 H 207.393 -0.921003 -0.224629 0
M  V30 2103 H 207.099 -3.228 -1.39618 0
M  V30 2104 H 206.973 -2.37934 -2.9269 0
M  V30 2105 H 209.36 -1.45494 -2.5674 0
M  V30 2106 H 209.441 -2.33857 -1.03657 0
M  V30 2107 H 209.085 -4.52545 -2.30576 0
M  V30 2108 H 209.015 -3.61092 -3.83302 0
M  V30 2109 H 211.506 -2.87022 -2.45819 0
M  V30 2110 H 211.819 -6.25704 -4.53557 0
M  V30 2111 H 210.164 -5.62305 -4.08459 0
M  V30 2112 H 213.355 -3.60953 -2.98045 0
M  V30 2113 H 213.528 -5.15381 -3.92793 0
M  V30 2114 N 206.934 1.1197 -1.10907 0
M  V30 2115 C 208.164 1.8713 -0.875553 0
M  V30 2116 C 208.572 1.8016 0.577843 0
M  V30 2117 O 207.915 1.17699 1.41042 0
M  V30 2118 C 207.977 3.37005 -1.2517 0
M  V30 2119 C 207.641 3.67748 -2.71313 0
M  V30 2120 C 208.638 3.65698 -3.69542 0
M  V30 2121 C 206.323 3.96928 -3.07821 0
M  V30 2122 C 208.317 3.92395 -5.023 0
M  V30 2123 C 206.004 4.23284 -4.40765 0
M  V30 2124 C 207.002 4.21005 -5.37814 0
M  V30 2125 O 206.69 4.46704 -6.68364 0
M  V30 2126 H 206.422 0.598786 -0.313737 0
M  V30 2127 H 208.976 1.42568 -1.47863 0
M  V30 2128 H 207.206 3.82146 -0.591741 0
M  V30 2129 H 208.895 3.93519 -0.994877 0
M  V30 2130 H 209.661 3.43211 -3.42682 0
M  V30 2131 H 205.54 3.97841 -2.32902 0
M  V30 2132 H 209.084 3.90531 -5.78041 0
M  V30 2133 H 204.981 4.45246 -4.67361 0
M  V30 2134 H 205.749 4.64299 -6.74069 0
M  V30 2135 N 208.412 0.89855 1.29475 0
M  V30 2136 C 209.66 0.522847 1.9522 0
M  V30 2137 C 209.981 -0.93371 1.71192 0
M  V30 2138 O 209.251 -1.65823 1.04305 0
M  V30 2139 H 207.831 0.190366 0.722336 0
M  V30 2140 H 210.493 1.14459 1.5775 0
M  V30 2141 H 209.589 0.704476 3.04045 0
M  V30 2142 N 209.89 -1.43072 0.660911 0
M  V30 2143 C 211.306 -1.56169 0.329173 0
M  V30 2144 C 211.506 -1.64317 -1.16629 0
M  V30 2145 O 210.562 -1.60245 -1.95135 0
M  V30 2146 C 211.875 -2.81873 1.04729 0
M  V30 2147 C 213.423 -2.95627 1.02828 0
M  V30 2148 C 213.898 -4.24174 1.72744 0
M  V30 2149 N 215.389 -4.31055 1.69545 0
M  V30 2150 C 216.124 -5.29304 2.20511 0
M  V30 2151 N 215.62 -6.33786 2.79799 0
M  V30 2152 N 217.413 -5.21008 2.10966 0
M  V30 2153 H 209.564 -1.36027 1.63127 0
M  V30 2154 H 211.827 -0.653823 0.686454 0
M  V30 2155 H 211.533 -2.81942 2.10242 0
M  V30 2156 H 211.407 -3.72338 0.603702 0
M  V30 2157 H 213.794 -2.95094 -0.0184742 0
M  V30 2158 H 213.875 -2.06431 1.51063 0
M  V30 2159 H 213.519 -4.25467 2.7738 0
M  V30 2160 H 213.449 -5.1228 1.2197 0
M  V30 2161 H 215.94 -3.56174 1.26288 0
M  V30 2162 H 216.253 -7.05086 3.16344 0
M  V30 2163 H 214.598 -6.34387 2.83863 0
M  V30 2164 H 217.789 -4.38301 1.64347 0
M  V30 2165 H 217.962 -5.97416 2.50993 0
M  V30 2166 N 211.368 -0.403325 -1.52352 0
M  V30 2167 C 212.779 0.0675782 -1.86578 0
M  V30 2168 C 213.13 1.44941 -1.32236 0
M  V30 2169 O 212.255 2.06112 -0.659307 0
M  V30 2170 C 212.85 0.129404 -3.38553 0
M  V30 2171 C 211.409 0.544629 -3.72439 0
M  V30 2172 C 210.556 -0.284551 -2.75836 0
M  V30 2173 H 213.507 -0.620631 -1.46061 0
M  V30 2174 H 213.528 0.94581 -3.68558 0
M  V30 2175 H 213.04 -0.87645 -3.78074 0
M  V30 2176 H 211.141 1.55734 -3.38493 0
M  V30 2177 H 211.254 0.293046 -4.78203 0
M  V30 2178 H 209.618 0.252258 -2.53448 0
M  V30 2179 H 210.401 -1.28865 -3.18196 0
M  V30 2180 N 212.846 1.57033 -0.133567 0
M  V30 2181 C 214.093 1.95686 0.520877 0
M  V30 2182 C 214.421 1.0177 1.6575 0
M  V30 2183 O 213.676 0.0443195 1.9565 0
M  V30 2184 C 213.975 3.40674 1.08057 0
M  V30 2185 C 213.641 4.50855 0.0637899 0
M  V30 2186 C 212.303 4.80716 -0.215757 0
M  V30 2187 C 214.655 5.17398 -0.62835 0
M  V30 2188 C 211.983 5.74433 -1.19348 0
M  V30 2189 C 214.335 6.12167 -1.5948 0
M  V30 2190 C 212.999 6.40414 -1.88218 0
M  V30 2191 H 212.269 0.716067 0.190602 0
M  V30 2192 H 214.916 1.9026 -0.217556 0
M  V30 2193 H 213.221 3.42865 1.89606 0
M  V30 2194 H 214.918 3.67902 1.59529 0
M  V30 2195 H 211.508 4.27605 0.291855 0
M  V30 2196 H 215.692 4.94472 -0.425562 0
M  V30 2197 H 210.948 5.94616 -1.42272 0
M  V30 2198 H 215.122 6.6281 -2.13671 0
M  V30 2199 H 212.749 7.12838 -2.64133 0
M  V30 2200 N 214.325 -0.140222 1.56975 0
M  V30 2201 C 215.571 -0.848084 1.84876 0
M  V30 2202 C 215.926 -1.78481 0.718481 0
M  V30 2203 O 215.219 -1.89497 -0.283093 0
M  V30 2204 C 215.413 -1.65386 3.16832 0
M  V30 2205 C 215.242 -0.79665 4.42587 0
M  V30 2206 C 214.012 -0.459648 5.03205 0
M  V30 2207 C 216.21 -0.12389 5.14151 0
M  V30 2208 N 214.192 0.410446 6.12526 0
M  V30 2209 C 215.563 0.606064 6.17031 0
M  V30 2210 C 217.618 -0.0452654 4.97879 0
M  V30 2211 C 216.321 1.40723 7.054 0
M  V30 2212 C 218.347 0.742658 5.86718 0
M  V30 2213 C 217.709 1.46087 6.89085 0
M  V30 2214 H 213.808 -0.287946 0.727056 0
M  V30 2215 H 216.392 -0.11304 1.94372 0
M  V30 2216 H 214.563 -2.36009 3.08471 0
M  V30 2217 H 216.295 -2.30541 3.32615 0
M  V30 2218 H 213.05 -0.797006 4.66846 0
M  V30 2219 H 213.474 0.836716 6.7181 0
M  V30 2220 H 218.116 -0.586184 4.18717 0
M  V30 2221 H 215.834 1.95938 7.83986 0
M  V30 2222 H 219.42 0.805574 5.76196 0
M  V30 2223 H 218.3 2.06077 7.56639 0
M  V30 2224 N 215.803 -1.52179 -0.40978 0
M  V30 2225 C 216.713 -1.78364 -1.52392 0
M  V30 2226 C 217.729 -0.669183 -1.60617 0
M  V30 2227 O 218.905 -0.954518 -1.77344 0
M  V30 2228 C 215.97 -1.92822 -2.88133 0
M  V30 2229 C 215.031 -3.16725 -2.898 0
M  V30 2230 C 214.264 -3.30483 -4.19067 0
M  V30 2231 O 214.487 -2.49522 -5.12928 0
M  V30 2232 O 213.421 -4.2363 -4.27576 0
M  V30 2233 H 217.247 -2.72931 -1.33201 0
M  V30 2234 H 214.832 -1.37016 -0.59557 0
M  V30 2235 H 216.714 -2.04157 -3.68643 0
M  V30 2236 H 215.389 -1.01444 -3.07393 0
M  V30 2237 H 214.296 -3.10848 -2.08146 0
M  V30 2238 H 215.629 -4.07881 -2.75489 0
M  V30 2239 N 217.281 0.66697 -1.42791 0
M  V30 2240 C 218.558 1.4234 -1.34159 0
M  V30 2241 C 218.938 2.11093 0.0172729 0
M  V30 2242 O 218.286 2.03808 1.03318 0
M  V30 2243 C 218.496 2.41942 -2.51526 0
M  V30 2244 C 219.844 3.06353 -2.93995 0
M  V30 2245 O 220.868 2.52269 -2.51473 0
M  V30 2246 O 219.727 4.04376 -3.67617 0
M  V30 2247 H 216.821 0.635277 -0.529483 0
M  V30 2248 H 219.367 0.695034 -1.54814 0
M  V30 2249 H 218.139 1.89991 -3.42081 0
M  V30 2250 H 217.762 3.22249 -2.32898 0
M  V30 2251 N 218.759 1.29093 0.90403 0
M  V30 2252 C 219.689 1.16401 2.02418 0
M  V30 2253 C 220.67 0.0593085 1.69997 0
M  V30 2254 O 221.855 0.238021 1.92736 0
M  V30 2255 C 218.985 0.835233 3.37107 0
M  V30 2256 C 217.939 1.89578 3.83724 0
M  V30 2257 C 217.265 1.42041 5.15489 0
M  V30 2258 C 218.565 3.30394 4.04521 0
M  V30 2259 H 220.259 2.10109 2.13295 0
M  V30 2260 H 217.805 1.01157 1.02486 0
M  V30 2261 H 219.758 0.733169 4.14973 0
M  V30 2262 H 218.482 -0.137543 3.2631 0
M  V30 2263 H 217.141 1.98715 3.08071 0
M  V30 2264 H 216.789 0.436426 5.01103 0
M  V30 2265 H 216.489 2.12964 5.4765 0
M  V30 2266 H 218.013 1.33176 5.959 0
M  V30 2267 H 219.427 3.24123 4.72882 0
M  V30 2268 H 217.824 3.99237 4.48029 0
M  V30 2269 H 218.894 3.73692 3.09002 0
M  V30 2270 N 220.237 -1.11381 1.11499 0
M  V30 2271 C 221.462 -1.87475 0.887019 0
M  V30 2272 C 221.887 -1.79639 -0.557796 0
M  V30 2273 O 221.245 -1.15924 -1.39396 0
M  V30 2274 C 221.293 -3.34213 1.35403 0
M  V30 2275 O 220.397 -4.0903 0.526146 0
M  V30 2276 H 219.738 -0.582099 0.319463 0
M  V30 2277 H 222.268 -1.40785 1.48461 0
M  V30 2278 H 222.278 -3.8506 1.34881 0
M  V30 2279 H 220.953 -3.39232 2.40612 0
M  V30 2280 H 219.53 -3.68082 0.597522 0
M  V30 2281 N 221.715 -0.905404 -1.28997 0
M  V30 2282 C 222.678 -0.392253 -2.25819 0
M  V30 2283 C 223.678 0.476753 -1.5357 0
M  V30 2284 O 224.868 0.280994 -1.71919 0
M  V30 2285 C 222 0.438588 -3.38067 0
M  V30 2286 H 223.193 -1.24743 -2.72725 0
M  V30 2287 H 220.746 -0.684051 -1.40536 0
M  V30 2288 H 221.481 1.31352 -2.96508 0
M  V30 2289 H 221.266 -0.184167 -3.91667 0
M  V30 2290 H 222.756 0.78873 -4.10084 0
M  V30 2291 N 223.193 1.4272 -0.668489 0
M  V30 2292 C 224.47 1.95248 -0.117373 0
M  V30 2293 C 224.85 1.60919 1.36632 0
M  V30 2294 O 224.198 0.902095 2.09939 0
M  V30 2295 C 224.408 3.46927 -0.379806 0
M  V30 2296 C 225.756 4.23588 -0.292923 0
M  V30 2297 O 226.78 3.5482 -0.313204 0
M  V30 2298 O 225.639 5.46017 -0.229697 0
M  V30 2299 H 222.733 0.827 0.00079152 0
M  V30 2300 H 225.279 1.52581 -0.742783 0
M  V30 2301 H 224.051 3.65096 -1.40786 0
M  V30 2302 H 223.674 3.96627 0.277923 0
M  V30 2303 N 224.671 0.411399 1.52136 0
M  V30 2304 C 225.917 -0.163888 2.02137 0
M  V30 2305 C 226.25 -1.44597 1.29636 0
M  V30 2306 O 225.525 -1.90272 0.403353 0
M  V30 2307 C 225.808 -0.40927 3.57767 0
M  V30 2308 C 225.661 0.889643 4.40914 0
M  V30 2309 C 226.98 -1.19042 4.23694 0
M  V30 2310 H 224.099 -0.0580896 0.734707 0
M  V30 2311 H 226.741 0.54531 1.82007 0
M  V30 2312 H 224.891 -1.0134 3.7505 0
M  V30 2313 H 226.563 1.52575 4.35337 0
M  V30 2314 H 224.806 1.50011 4.07037 0
M  V30 2315 H 225.477 0.672314 5.4789 0
M  V30 2316 H 227.953 -0.678942 4.10524 0
M  V30 2317 H 226.829 -1.33086 5.32522 0
M  V30 2318 H 227.09 -2.21166 3.82803 0
M  V30 2319 N 226.149 -1.5696 0.141893 0
M  V30 2320 C 227.112 -2.15316 -0.785587 0
M  V30 2321 C 228.112 -1.09366 -1.1788 0
M  V30 2322 O 229.302 -1.35031 -1.10056 0
M  V30 2323 C 226.434 -2.71211 -2.06537 0
M  V30 2324 H 227.627 -2.98608 -0.278041 0
M  V30 2325 H 225.18 -1.5593 -0.107519 0
M  V30 2326 H 225.915 -1.91571 -2.6167 0
M  V30 2327 H 225.7 -3.4872 -1.79268 0
M  V30 2328 H 227.19 -3.16189 -2.72789 0
M  V30 2329 N 227.627 0.131896 -1.57047 0
M  V30 2330 C 228.557 1.16384 -2.02428 0
M  V30 2331 C 229.538 1.43936 -0.90644 0
M  V30 2332 O 230.723 1.54599 -1.17528 0
M  V30 2333 C 227.853 2.49328 -2.4177 0
M  V30 2334 C 226.807 2.36266 -3.56879 0
M  V30 2335 C 226.133 3.74057 -3.8208 0
M  V30 2336 C 227.433 1.834 -4.89042 0
M  V30 2337 H 229.127 0.786433 -2.88887 0
M  V30 2338 H 226.673 0.376855 -1.38981 0
M  V30 2339 H 228.626 3.21759 -2.7212 0
M  V30 2340 H 227.35 2.88934 -1.52266 0
M  V30 2341 H 226.009 1.66286 -3.26718 0
M  V30 2342 H 225.657 4.11125 -2.89803 0
M  V30 2343 H 225.357 3.66174 -4.59554 0
M  V30 2344 H 226.881 4.48012 -4.1487 0
M  V30 2345 H 228.295 2.45636 -5.18011 0
M  V30 2346 H 226.692 1.8637 -5.70426 0
M  V30 2347 H 227.762 0.790662 -4.7841 0
M  V30 2348 N 229.106 1.52395 0.401703 0
M  V30 2349 C 230.069 1.75636 1.47257 0
M  V30 2350 C 231.069 0.62628 1.48103 0
M  V30 2351 O 232.259 0.894227 1.49497 0
M  V30 2352 C 229.391 1.84553 2.86624 0
M  V30 2353 H 230.584 2.71241 1.27938 0
M  V30 2354 H 228.137 1.42923 0.632662 0
M  V30 2355 H 228.872 0.908882 3.11303 0
M  V30 2356 H 228.657 2.66715 2.87412 0
M  V30 2357 H 230.147 2.04251 3.64241 0
M  V30 2358 N 230.584 -0.659388 1.43143 0
M  V30 2359 C 231.861 -1.41627 1.34912 0
M  V30 2360 C 232.241 -2.11099 -0.00607785 0
M  V30 2361 O 231.589 -2.04353 -1.02236 0
M  V30 2362 C 231.799 -2.40604 2.52805 0
M  V30 2363 C 233.147 -3.04789 2.95616 0
M  V30 2364 O 234.171 -2.50932 2.52807 0
M  V30 2365 O 233.03 -4.02421 3.69756 0
M  V30 2366 H 230.124 -0.63246 0.532844 0
M  V30 2367 H 232.67 -0.686814 1.5518 0
M  V30 2368 H 231.442 -1.88174 3.43083 0
M  V30 2369 H 231.065 -3.21009 2.34604 0
M  V30 2370 N 232.062 -1.29571 -0.897171 0
M  V30 2371 C 233.287 -1.20705 -1.68656 0
M  V30 2372 C 233.712 0.228582 -1.86706 0
M  V30 2373 O 233.07 1.16494 -1.3892 0
M  V30 2374 C 233.118 -1.9282 -3.04717 0
M  V30 2375 O 232.222 -1.24697 -3.93096 0
M  V30 2376 H 231.563 -0.418126 -0.515816 0
M  V30 2377 H 234.093 -1.71183 -1.12061 0
M  V30 2378 H 234.103 -2.01372 -3.54843 0
M  V30 2379 H 232.778 -2.97239 -2.90899 0
M  V30 2380 H 231.355 -1.2442 -3.51531 0
M  V30 2381 N 233.54 1.10788 -1.12088 0
M  V30 2382 C 234.787 1.82671 -0.873931 0
M  V30 2383 C 235.115 1.85004 0.600311 0
M  V30 2384 O 234.37 1.30365 1.45957 0
M  V30 2385 C 234.669 3.29294 -1.38926 0
M  V30 2386 C 234.335 3.47113 -2.87791 0
M  V30 2387 C 232.997 3.51684 -3.28439 0
M  V30 2388 C 235.349 3.52808 -3.83635 0
M  V30 2389 C 232.677 3.59513 -4.63646 0
M  V30 2390 C 235.029 3.62169 -5.18668 0
M  V30 2391 C 233.693 3.65003 -5.58864 0
M  V30 2392 H 232.963 0.668441 -0.319794 0
M  V30 2393 H 235.61 1.30613 -1.40045 0
M  V30 2394 H 233.915 3.83894 -0.783122 0
M  V30 2395 H 235.612 3.83416 -1.17443 0
M  V30 2396 H 232.202 3.4423 -2.5535 0
M  V30 2397 H 236.386 3.4853 -3.53328 0
M  V30 2398 H 231.642 3.59987 -4.94185 0
M  V30 2399 H 235.816 3.6552 -5.92763 0
M  V30 2400 H 233.443 3.70822 -6.63623 0
M  V30 2401 N 235.018 0.912232 1.28515 0
M  V30 2402 C 236.295 0.463597 1.90027 0
M  V30 2403 C 236.675 -1.05753 1.82701 0
M  V30 2404 O 236.023 -1.90492 1.26194 0
M  V30 2405 C 236.233 0.992253 3.34597 0
M  V30 2406 C 237.581 1.04344 4.11579 0
M  V30 2407 O 238.605 0.94079 3.43551 0
M  V30 2408 O 237.464 1.1995 5.33174 0
M  V30 2409 H 234.558 0.146666 0.813891 0
M  V30 2410 H 237.104 1.00292 1.36893 0
M  V30 2411 H 235.876 2.03623 3.34146 0
M  V30 2412 H 235.499 0.433672 3.95228 0
M  V30 2413 N 236.496 -1.42363 0.676048 0
M  V30 2414 C 237.459 -2.29199 0.00766941 0
M  V30 2415 C 238.459 -1.43389 -0.727745 0
M  V30 2416 O 239.649 -1.64764 -0.56556 0
M  V30 2417 C 236.781 -3.2591 -0.999785 0
M  V30 2418 H 237.974 -2.89794 0.771988 0
M  V30 2419 H 235.527 -1.50024 0.438468 0
M  V30 2420 H 236.262 -2.70256 -1.79255 0
M  V30 2421 H 236.047 -3.89202 -0.475829 0
M  V30 2422 H 237.537 -3.91028 -1.46583 0
M  V30 2423 N 237.974 -0.419461 -1.51915 0
M  V30 2424 C 238.904 0.391813 -2.30189 0
M  V30 2425 C 239.885 1.03699 -1.34836 0
M  V30 2426 O 241.07 1.04403 -1.63748 0
M  V30 2427 C 238.2 1.50312 -3.13087 0
M  V30 2428 C 237.154 0.9824 -4.16573 0
M  V30 2429 C 236.48 2.18809 -4.8788 0
M  V30 2430 C 237.78 0.0292356 -5.22292 0
M  V30 2431 H 239.474 -0.26135 -2.98257 0
M  V30 2432 H 237.02 -0.127134 -1.43438 0
M  V30 2433 H 238.973 2.07773 -3.66617 0
M  V30 2434 H 237.697 2.18431 -2.42807 0
M  V30 2435 H 236.356 0.430119 -3.64068 0
M  V30 2436 H 236.004 2.85507 -4.14119 0
M  V30 2437 H 235.704 1.84615 -5.57845 0
M  V30 2438 H 237.228 2.76858 -5.44226 0
M  V30 2439 H 238.642 0.512976 -5.71 0
M  V30 2440 H 237.039 -0.2244 -5.9968 0
M  V30 2441 H 238.109 -0.912931 -4.76228 0
M  V30 2442 N 239.452 1.56882 -0.150215 0
M  V30 2443 C 240.385 2.12712 0.826358 0
M  V30 2444 C 241.363 1.05154 1.24022 0
M  V30 2445 O 242.547 1.33004 1.33575 0
M  V30 2446 C 239.674 2.64945 2.11002 0
M  V30 2447 C 238.72 3.8468 1.84183 0
M  V30 2448 S 239.553 5.25502 1.02995 0
M  V30 2449 C 240.709 5.81125 2.32474 0
M  V30 2450 H 240.942 2.95214 0.351598 0
M  V30 2451 H 238.475 1.54267 0.0641211 0
M  V30 2452 H 240.433 2.95689 2.84742 0
M  V30 2453 H 239.094 1.82568 2.55593 0
M  V30 2454 H 238.287 4.19482 2.79375 0
M  V30 2455 H 237.889 3.54714 1.1855 0
M  V30 2456 H 240.181 5.92753 3.281 0
M  V30 2457 H 241.124 6.78625 2.02171 0
M  V30 2458 H 241.532 5.09392 2.43269 0
M  V30 2459 N 240.93 -0.123565 1.57115 0
M  V30 2460 C 242.155 -0.850398 1.89164 0
M  V30 2461 C 242.58 -1.7286 0.741688 0
M  V30 2462 O 241.938 -1.78665 -0.307958 0
M  V30 2463 C 241.986 -1.66353 3.19936 0
M  V30 2464 O 241.09 -2.77004 3.0552 0
M  V30 2465 H 240.431 -0.235454 0.620852 0
M  V30 2466 H 242.961 -0.107335 2.04318 0
M  V30 2467 H 242.971 -2.05372 3.52543 0
M  V30 2468 H 241.646 -1.01881 4.03228 0
M  V30 2469 H 240.223 -2.41221 2.84371 0
M  V30 2470 N 242.408 -1.52605 -0.393616 0
M  V30 2471 C 243.648 -1.6911 -1.1481 0
M  V30 2472 C 244.012 -0.41969 -1.87357 0
M  V30 2473 O 245.213 -0.461034 -2.64817 0
M  V30 2474 C 243.484 -2.88909 -2.10395 0
M  V30 2475 S 245.043 -3.25977 -2.93742 0
M  V30 2476 H 241.861 -0.595337 -0.38871 0
M  V30 2477 H 244.463 -1.90641 -0.433178 0
M  V30 2478 H 243.167 -3.79672 -1.55812 0
M  V30 2479 H 242.698 -2.69698 -2.86403 0
M  V30 2480 H 244.713 -2.75806 -4.12487 0
M  V30 2481 N 243.887 0.651787 -1.4349 0
M  V30 2482 C 245.164 1.40909 -1.35661 0
M  V30 2483 C 245.544 2.11099 -0.00511733 0
M  V30 2484 O 244.892 2.04892 1.0115 0
M  V30 2485 C 245.102 2.3926 -2.54078 0
M  V30 2486 C 246.45 3.03217 -2.97228 0
M  V30 2487 O 247.474 2.49588 -2.54135 0
M  V30 2488 O 246.333 4.00455 -3.71885 0
M  V30 2489 H 243.427 0.629625 -0.536191 0
M  V30 2490 H 245.973 0.678575 -1.55542 0
M  V30 2491 H 244.745 1.86352 -3.44076 0
M  V30 2492 H 244.368 3.1976 -2.36303 0
M  V30 2493 N 245.365 1.30045 0.890287 0
M  V30 2494 C 246.275 1.17885 2.02831 0
M  V30 2495 C 247.291 0.0999609 1.73713 0
M  V30 2496 O 248.467 0.313867 1.98939 0
M  V30 2497 C 245.532 0.866079 3.35708 0
M  V30 2498 C 244.593 2.02979 3.78283 0
M  V30 2499 C 243.826 1.73184 5.0482 0
M  V30 2500 O 244.049 0.657237 5.66601 0
M  V30 2501 O 242.983 2.58267 5.43674 0
M  V30 2502 H 246.809 2.13474 2.16015 0
M  V30 2503 H 244.394 1.09587 1.01543 0
M  V30 2504 H 246.276 0.706623 4.15433 0
M  V30 2505 H 244.951 -0.0599443 3.23644 0
M  V30 2506 H 243.858 2.24454 2.99285 0
M  V30 2507 H 245.191 2.93734 3.94944 0
M  V30 2508 N 246.843 -1.10192 1.12674 0
M  V30 2509 C 248.12 -1.78717 0.794965 0
M  V30 2510 C 248.5 -1.98628 -0.714853 0
M  V30 2511 O 247.848 -1.58135 -1.64941 0
M  V30 2512 C 248.058 -3.11546 1.5729 0
M  V30 2513 C 249.406 -3.86382 1.76052 0
M  V30 2514 O 250.43 -3.21274 1.53823 0
M  V30 2515 O 249.289 -5.03246 2.13087 0
M  V30 2516 H 246.383 -0.774702 0.289423 0
M  V30 2517 H 248.929 -1.16819 1.23091 0
M  V30 2518 H 247.701 -2.92489 2.59935 0
M  V30 2519 H 247.324 -3.81164 1.13137 0
M  V30 2520 N 248.321 -0.919034 -1.28029 0
M  V30 2521 C 249.251 -0.428581 -2.29533 0
M  V30 2522 C 250.232 0.50659 -1.62381 0
M  V30 2523 O 251.417 0.413195 -1.89753 0
M  V30 2524 C 248.547 0.327388 -3.45753 0
M  V30 2525 C 247.501 -0.519137 -4.2484 0
M  V30 2526 C 246.827 0.365486 -5.33449 0
M  V30 2527 C 248.127 -1.77914 -4.91064 0
M  V30 2528 H 249.821 -1.27687 -2.70807 0
M  V30 2529 H 247.367 -0.615428 -1.30186 0
M  V30 2530 H 249.32 0.681378 -4.15855 0
M  V30 2531 H 248.044 1.20963 -3.03374 0
M  V30 2532 H 246.703 -0.855717 -3.56473 0
M  V30 2533 H 246.351 1.24642 -4.87312 0
M  V30 2534 H 246.051 -0.197356 -5.87268 0
M  V30 2535 H 247.575 0.715241 -6.06396 0
M  V30 2536 H 248.989 -1.49374 -5.53498 0
M  V30 2537 H 247.386 -2.2848 -5.54903 0
M  V30 2538 H 248.456 -2.50382 -4.15255 0
M  V30 2539 N 249.799 1.42003 -0.683588 0
M  V30 2540 C 250.762 2.29191 -0.0198243 0
M  V30 2541 C 251.762 1.43773 0.72013 0
M  V30 2542 O 252.952 1.65061 0.556815 0
M  V30 2543 C 250.084 3.26435 0.982487 0
M  V30 2544 H 251.277 2.8938 -0.787345 0
M  V30 2545 H 248.83 1.49789 -0.446418 0
M  V30 2546 H 249.565 2.71203 1.77819 0
M  V30 2547 H 249.35 3.89449 0.455182 0
M  V30 2548 H 250.84 3.918 1.44508 0
M  V30 2549 N 251.277 0.427512 1.51691 0
M  V30 2550 C 252.507 -0.140986 2.06118 0
M  V30 2551 C 252.915 -1.37854 1.29588 0
M  V30 2552 O 252.258 -1.80411 0.346036 0
M  V30 2553 C 252.32 -0.538276 3.55447 0
M  V30 2554 C 251.984 0.591095 4.53161 0
M  V30 2555 C 252.981 1.46027 4.98971 0
M  V30 2556 C 250.666 0.769028 4.96378 0
M  V30 2557 C 252.66 2.49216 5.8666 0
M  V30 2558 C 250.347 1.80421 5.83859 0
M  V30 2559 C 251.345 2.66417 6.28897 0
M  V30 2560 O 251.033 3.68159 7.14643 0
M  V30 2561 H 250.765 -0.0157455 0.675817 0
M  V30 2562 H 253.319 0.602495 1.96365 0
M  V30 2563 H 251.549 -1.33432 3.6295 0
M  V30 2564 H 253.238 -1.0368 3.92435 0
M  V30 2565 H 254.004 1.33429 4.66285 0
M  V30 2566 H 249.883 0.109273 4.6087 0
M  V30 2567 H 253.427 3.16372 6.21735 0
M  V30 2568 H 249.324 1.93042 6.15959 0
M  V30 2569 H 250.092 3.64622 7.32798 0
M  V30 2570 N 252.755 -1.56801 0.158532 0
M  V30 2571 C 253.665 -2.20916 -0.789518 0
M  V30 2572 C 254.681 -1.1969 -1.26294 0
M  V30 2573 O 255.857 -1.52308 -1.31773 0
M  V30 2574 C 252.922 -2.82727 -2.00665 0
M  V30 2575 C 251.983 -3.99114 -1.58134 0
M  V30 2576 C 251.216 -4.57968 -2.74045 0
M  V30 2577 O 251.439 -4.15704 -3.90572 0
M  V30 2578 O 250.373 -5.48047 -2.48855 0
M  V30 2579 H 254.199 -3.02464 -0.273681 0
M  V30 2580 H 251.784 -1.4924 -0.0690548 0
M  V30 2581 H 253.666 -3.21968 -2.71872 0
M  V30 2582 H 252.341 -2.04184 -2.51179 0
M  V30 2583 H 251.248 -3.64567 -0.839155 0
M  V30 2584 H 252.581 -4.79212 -1.12325 0
M  V30 2585 N 254.233 0.115231 -1.57178 0
M  V30 2586 C 255.196 1.12526 -1.99676 0
M  V30 2587 C 256.196 1.34095 -0.88742 0
M  V30 2588 O 257.386 1.30548 -1.15337 0
M  V30 2589 C 254.518 2.4789 -2.34015 0
M  V30 2590 H 255.711 0.759912 -2.90113 0
M  V30 2591 H 253.264 0.359648 -1.52106 0
M  V30 2592 H 253.999 2.89339 -1.4647 0
M  V30 2593 H 253.784 2.33588 -3.14927 0
M  V30 2594 H 255.274 3.20575 -2.67622 0
M  V30 2595 N 255.711 1.52812 0.385517 0
M  V30 2596 C 257.122 1.5993 0.963293 0
M  V30 2597 C 257.473 0.454302 1.90868 0
M  V30 2598 O 256.598 -0.422132 2.12243 0
M  V30 2599 C 257.193 2.89871 1.75387 0
M  V30 2600 C 255.752 2.99389 2.28129 0
M  V30 2601 C 254.899 2.55071 1.08783 0
M  V30 2602 H 257.85 1.5784 0.164948 0
M  V30 2603 H 257.871 2.76553 2.61341 0
M  V30 2604 H 257.383 3.73186 1.06554 0
M  V30 2605 H 255.484 2.20619 3.00263 0
M  V30 2606 H 255.597 4.04096 2.57377 0
M  V30 2607 H 253.961 2.09473 1.4489 0
M  V30 2608 H 254.744 3.40785 0.414807 0
M  V30 2609 N 257.189 -0.644168 1.43834 0
M  V30 2610 C 258.152 -1.73857 1.49353 0
M  V30 2611 C 259.152 -1.56315 0.377112 0
M  V30 2612 O 260.342 -1.62048 0.639226 0
M  V30 2613 C 257.474 -3.12819 1.35488 0
M  V30 2614 H 258.667 -1.70342 2.46827 0
M  V30 2615 H 256.22 -0.856652 1.30733 0
M  V30 2616 H 256.955 -3.2194 0.390569 0
M  V30 2617 H 256.74 -3.26958 2.16428 0
M  V30 2618 H 258.23 -3.92606 1.42302 0
M  V30 2619 N 258.668 -1.30515 -0.883378 0
M  V30 2620 C 259.945 -1.10086 -1.6168 0
M  V30 2621 C 260.325 0.349269 -2.08191 0
M  V30 2622 O 259.673 1.34105 -1.85008 0
M  V30 2623 C 259.883 -2.10315 -2.78511 0
M  V30 2624 C 261.231 -2.42119 -3.48803 0
M  V30 2625 O 262.255 -2.08638 -2.88702 0
M  V30 2626 O 261.114 -2.99396 -4.57192 0
M  V30 2627 H 258.208 -0.422907 -0.710689 0
M  V30 2628 H 260.754 -1.41947 -0.930015 0
M  V30 2629 H 259.526 -3.07917 -2.41459 0
M  V30 2630 H 259.149 -1.79282 -3.54886 0
M  V30 2631 N 260.146 1.09593 -1.13257 0
M  V30 2632 C 261.109 2.14359 -0.811358 0
M  V30 2633 C 262.109 1.59808 0.178377 0
M  V30 2634 O 263.299 1.74132 -0.0484911 0
M  V30 2635 C 260.431 3.40269 -0.207276 0
M  V30 2636 H 261.624 2.44284 -1.73969 0
M  V30 2637 H 259.177 1.25102 -0.936973 0
M  V30 2638 H 259.912 3.15969 0.73036 0
M  V30 2639 H 259.697 3.81154 -0.919992 0
M  V30 2640 H 261.187 4.176 0.000667944 0
M  V30 2641 N 261.624 0.925811 1.2754 0
M  V30 2642 C 262.854 0.580666 1.98272 0
M  V30 2643 C 263.262 -0.845207 1.69272 0
M  V30 2644 O 262.605 -1.57306 0.948707 0
M  V30 2645 C 262.667 0.724418 3.52126 0
M  V30 2646 C 262.331 2.12206 4.04744 0
M  V30 2647 C 263.328 3.09604 4.17662 0
M  V30 2648 C 261.013 2.4385 4.39138 0
M  V30 2649 C 263.007 4.36755 4.64246 0
M  V30 2650 C 260.694 3.71237 4.85414 0
M  V30 2651 C 261.692 4.67503 4.97926 0
M  V30 2652 O 261.38 5.92624 5.43187 0
M  V30 2653 H 261.112 0.218987 0.639547 0
M  V30 2654 H 263.666 1.24452 1.63404 0
M  V30 2655 H 261.896 0.0034663 3.867 0
M  V30 2656 H 263.585 0.384607 4.04074 0
M  V30 2657 H 264.351 2.86478 3.91351 0
M  V30 2658 H 260.23 1.69665 4.28643 0
M  V30 2659 H 263.774 5.11898 4.73927 0
M  V30 2660 H 259.671 3.94182 5.11166 0
M  V30 2661 H 260.439 5.95585 5.61445 0
M  V30 2662 N 263.102 -1.41638 0.69111 0
M  V30 2663 C 264.379 -1.95036 0.148421 0
M  V30 2664 C 264.759 -1.63072 -1.34055 0
M  V30 2665 O 264.107 -0.93538 -2.08478 0
M  V30 2666 C 264.317 -3.46279 0.434951 0
M  V30 2667 C 265.665 -4.23069 0.360275 0
M  V30 2668 O 266.689 -3.54277 0.369613 0
M  V30 2669 O 265.548 -5.45583 0.316534 0
M  V30 2670 H 262.642 -0.826908 0.0123654 0
M  V30 2671 H 265.188 -1.5138 0.766963 0
M  V30 2672 H 263.96 -3.6281 1.46576 0
M  V30 2673 H 263.583 -3.97019 -0.214787 0
M  V30 2674 N 264.58 -0.43555 -1.51462 0
M  V30 2675 C 265.826 0.123979 -2.03022 0
M  V30 2676 C 266.181 1.4054 -1.31401 0
M  V30 2677 O 265.474 1.86948 -0.419634 0
M  V30 2678 C 265.668 0.39942 -3.55161 0
M  V30 2679 C 265.497 -0.853754 -4.41521 0
M  V30 2680 C 264.267 -1.38675 -4.85898 0
M  V30 2681 C 266.465 -1.73939 -4.83994 0
M  V30 2682 N 264.447 -2.59265 -5.56466 0
M  V30 2683 C 265.818 -2.79135 -5.5361 0
M  V30 2684 C 267.873 -1.75402 -4.65981 0
M  V30 2685 C 266.576 -3.85737 -6.07124 0
M  V30 2686 C 268.602 -2.80938 -5.20411 0
M  V30 2687 C 267.964 -3.84854 -5.89972 0
M  V30 2688 H 264.063 0.00624887 -0.781975 0
M  V30 2689 H 266.647 -0.59582 -1.85359 0
M  V30 2690 H 264.818 1.08825 -3.72843 0
M  V30 2691 H 266.55 0.95015 -3.93388 0
M  V30 2692 H 263.305 -0.94094 -4.64159 0
M  V30 2693 H 263.729 -3.2041 -5.96378 0
M  V30 2694 H 268.371 -0.963926 -4.11665 0
M  V30 2695 H 266.089 -4.65586 -6.60496 0
M  V30 2696 H 269.675 -2.8301 -5.08327 0
M  V30 2697 H 268.555 -4.65176 -6.31333 0
M  V30 2698 N 266.058 1.56714 -0.166846 0
M  V30 2699 C 267.283 2.01557 0.488833 0
M  V30 2700 C 267.708 1.0463 1.56314 0
M  V30 2701 O 267.066 0.0251304 1.81283 0
M  V30 2702 C 267.114 3.4503 1.04818 0
M  V30 2703 O 266.218 3.51163 2.16236 0
M  V30 2704 H 265.559 0.653516 0.117526 0
M  V30 2705 H 268.089 2.02818 -0.269421 0
M  V30 2706 H 268.099 3.84243 1.37191 0
M  V30 2707 H 266.774 4.15077 0.261572 0
M  V30 2708 H 265.351 3.23807 1.84942 0
M  V30 2709 N 267.536 -0.106894 1.57237 0
M  V30 2710 C 268.499 -1.11466 2.0027 0
M  V30 2711 C 269.499 -1.33623 0.894519 0
M  V30 2712 O 270.689 -1.29935 1.16028 0
M  V30 2713 C 267.821 -2.46646 2.35327 0
M  V30 2714 H 269.014 -0.744516 2.90512 0
M  V30 2715 H 266.567 -0.351576 1.52295 0
M  V30 2716 H 267.302 -2.88558 1.48003 0
M  V30 2717 H 267.087 -2.31915 3.16161 0
M  V30 2718 H 268.577 -3.19151 2.69318 0
M  V30 2719 N 269.014 -1.53014 -0.377408 0
M  V30 2720 C 270.26 -1.68872 -1.12294 0
M  V30 2721 C 270.593 -0.433224 -1.89306 0
M  V30 2722 O 269.868 0.569258 -1.85983 0
M  V30 2723 C 270.151 -2.93115 -2.09179 0
M  V30 2724 C 270.004 -4.28794 -1.35853 0
M  V30 2725 C 271.323 -3.12928 -3.09458 0
M  V30 2726 H 268.442 -0.614518 -0.406862 0
M  V30 2727 H 271.084 -1.85633 -0.40503 0
M  V30 2728 H 269.234 -2.78956 -2.70399 0
M  V30 2729 H 270.906 -4.54742 -0.775082 0
M  V30 2730 H 269.149 -4.28744 -0.660364 0
M  V30 2731 H 269.82 -5.11837 -2.06706 0
M  V30 2732 H 272.296 -3.26194 -2.58334 0
M  V30 2733 H 271.172 -4.01316 -3.74482 0
M  V30 2734 H 271.433 -2.27669 -3.78971 0
M  V30 2735 N 270.492 0.636531 -1.44174 0
M  V30 2736 C 271.908 0.954104 -1.27941 0
M  V30 2737 C 272.108 2.0039 -0.211248 0
M  V30 2738 O 271.164 2.49236 0.404695 0
M  V30 2739 C 272.477 1.4225 -2.64925 0
M  V30 2740 C 274.025 1.53827 -2.72592 0
M  V30 2741 C 274.5 2.04053 -4.10032 0
M  V30 2742 N 275.991 2.11331 -4.12182 0
M  V30 2743 C 276.726 2.51352 -5.15374 0
M  V30 2744 N 276.222 2.90549 -6.2893 0
M  V30 2745 N 278.015 2.51438 -5.02728 0
M  V30 2746 H 270.166 -0.0578386 -2.12321 0
M  V30 2747 H 272.429 0.0367406 -0.947288 0
M  V30 2748 H 272.135 0.725466 -3.44136 0
M  V30 2749 H 272.009 2.39451 -2.9145 0
M  V30 2750 H 274.396 2.22628 -1.93702 0
M  V30 2751 H 274.477 0.550154 -2.49814 0
M  V30 2752 H 274.121 1.35848 -4.89395 0
M  V30 2753 H 274.051 3.03726 -4.30184 0
M  V30 2754 H 276.542 1.83745 -3.30222 0
M  V30 2755 H 276.855 3.19884 -7.03487 0
M  V30 2756 H 275.2 2.88313 -6.32377 0
M  V30 2757 H 278.391 2.20203 -4.13072 0
M  V30 2758 H 278.564 2.82304 -5.83274 0
M  V30 2759 N 271.97 1.30982 0.876444 0
M  V30 2760 C 272.92 1.14688 1.97055 0
M  V30 2761 C 273.904 0.0596593 1.60789 0
M  V30 2762 O 275.096 0.283892 1.74708 0
M  V30 2763 C 272.225 0.849627 3.3262 0
M  V30 2764 C 271.311 1.97752 3.75173 0
M  V30 2765 N 271.702 3.22384 3.89746 0
M  V30 2766 C 270 1.8758 4.04635 0
M  V30 2767 C 270.701 3.96121 4.25985 0
M  V30 2768 N 269.677 3.24237 4.36315 0
M  V30 2769 H 273.479 2.09204 2.06424 0
M  V30 2770 H 270.993 1.22445 1.06682 0
M  V30 2771 H 272.99 0.713895 4.10742 0
M  V30 2772 H 271.65 -0.087376 3.24582 0
M  V30 2773 H 272.661 3.57575 3.74647 0
M  V30 2774 H 269.338 1.01303 4.05024 0
M  V30 2775 H 270.728 5.03491 4.44911 0
M  V30 2776 N 273.449 -1.08991 1.13837 0
M  V30 2777 C 274.695 -1.81526 0.90422 0
M  V30 2778 C 275.028 -1.85706 -0.568066 0
M  V30 2779 O 274.303 -1.32855 -1.42056 0
M  V30 2780 C 274.586 -3.27447 1.49835 0
M  V30 2781 C 274.439 -3.31512 3.04006 0
M  V30 2782 C 275.758 -4.24256 1.17025 0
M  V30 2783 H 272.877 -0.659029 0.329923 0
M  V30 2784 H 275.519 -1.27644 1.40737 0
M  V30 2785 H 273.669 -3.73462 1.07044 0
M  V30 2786 H 275.341 -2.93867 3.55584 0
M  V30 2787 H 273.584 -2.70963 3.38765 0
M  V30 2788 H 274.255 -4.34329 3.40679 0
M  V30 2789 H 276.731 -3.86549 1.54009 0
M  V30 2790 H 275.607 -5.24684 1.61237 0
M  V30 2791 H 275.868 -4.42019 0.0846274 0
M  V30 2792 N 274.927 -0.932562 -1.27047 0
M  V30 2793 C 275.857 -0.452902 -2.29066 0
M  V30 2794 C 276.838 0.489338 -1.62909 0
M  V30 2795 O 278.023 0.393046 -1.90181 0
M  V30 2796 C 275.153 0.290698 -3.46081 0
M  V30 2797 C 274.107 -0.564168 -4.24265 0
M  V30 2798 C 273.433 0.308886 -5.33807 0
M  V30 2799 C 274.733 -1.83112 -4.89149 0
M  V30 2800 H 276.427 -1.30552 -2.69437 0
M  V30 2801 H 273.973 -0.629201 -1.29526 0
M  V30 2802 H 275.926 0.637233 -4.16554 0
M  V30 2803 H 274.65 1.17738 -3.0464 0
M  V30 2804 H 273.309 -0.893477 -3.55545 0
M  V30 2805 H 272.957 1.19467 -4.88607 0
M  V30 2806 H 272.657 -0.259633 -5.87026 0
M  V30 2807 H 274.181 0.650884 -6.07121 0
M  V30 2808 H 275.595 -1.55236 -5.51883 0
M  V30 2809 H 273.992 -2.34353 -5.52448 0
M  V30 2810 H 275.062 -2.54772 -4.12576 0
M  V30 2811 N 276.405 1.4127 -0.698611 0
M  V30 2812 C 277.682 1.94955 -0.158762 0
M  V30 2813 C 278.062 1.63781 1.33188 0
M  V30 2814 O 277.41 0.946423 2.07979 0
M  V30 2815 C 277.62 3.46044 -0.453309 0
M  V30 2816 C 278.968 4.22872 -0.382707 0
M  V30 2817 O 279.992 3.54076 -0.388396 0
M  V30 2818 O 278.851 5.45407 -0.345463 0
M  V30 2819 H 275.945 0.82683 -0.0167505 0
M  V30 2820 H 278.491 1.50971 -0.77498 0
M  V30 2821 H 277.263 3.62028 -1.48498 0
M  V30 2822 H 276.886 3.97128 0.19373 0
M  V30 2823 N 277.883 0.443576 1.51229 0
M  V30 2824 C 279.129 -0.120975 2.02439 0
M  V30 2825 C 279.462 -1.41815 1.32674 0
M  V30 2826 O 278.737 -1.89373 0.443622 0
M  V30 2827 C 279.02 -0.333291 3.58554 0
M  V30 2828 C 278.873 0.982968 4.38928 0
M  V30 2829 C 280.192 -1.10028 4.26124 0
M  V30 2830 H 277.311 -0.0424923 0.735774 0
M  V30 2831 H 279.953 0.583794 1.80809 0
M  V30 2832 H 278.103 -0.933614 3.77115 0
M  V30 2833 H 279.775 1.61775 4.32003 0
M  V30 2834 H 278.018 1.58611 4.03763 0
M  V30 2835 H 278.689 0.788379 5.46341 0
M  V30 2836 H 281.165 -0.591711 4.11871 0
M  V30 2837 H 280.041 -1.21761 5.35225 0
M  V30 2838 H 280.302 -2.12996 3.87408 0
M  V30 2839 N 279.361 -1.56624 0.175154 0
M  V30 2840 C 280.609 -1.96609 -0.467885 0
M  V30 2841 C 280.93 -1.06238 -1.63519 0
M  V30 2842 O 280.2 -0.129523 -1.95471 0
M  V30 2843 H 278.78 -0.726008 -0.175845 0
M  V30 2844 H 281.442 -1.93195 0.257234 0
M  V30 2845 H 280.538 -3.00989 -0.825342 0
M  V30 2846 N 280.839 0.0985539 -1.57292 0
M  V30 2847 C 282.087 0.801092 -1.85545 0
M  V30 2848 C 282.408 1.79438 -0.763353 0
M  V30 2849 O 281.678 1.94763 0.21073 0
M  V30 2850 H 280.258 0.29884 -0.684619 0
M  V30 2851 H 282.92 0.0810064 -1.94732 0
M  V30 2852 H 282.016 1.3338 -2.82163 0
M  V30 2853 N 282.317 1.53212 0.369288 0
M  V30 2854 C 283.565 1.68881 1.11012 0
M  V30 2855 C 283.886 0.441285 1.89941 0
M  V30 2856 O 283.156 -0.544623 1.88177 0
M  V30 2857 H 281.736 0.622569 0.412816 0
M  V30 2858 H 284.398 1.90391 0.416802 0
M  V30 2859 H 283.494 2.54822 1.80201 0
M  V30 2860 N 283.795 -0.628877 1.44509 0
M  V30 2861 C 284.743 -1.76193 1.51852 0
M  V30 2862 C 285.737 -1.64849 0.390042 0
M  V30 2863 O 286.943 -1.709 0.565082 0
M  V30 2864 H 283.318 -0.581728 0.476547 0
M  V30 2865 H 285.289 -1.67123 2.47209 0
M  V30 2866 C 284.038 -3.14533 1.48204 0
M  V30 2867 H 283.361 -3.23911 2.34354 0
M  V30 2868 H 284.801 -3.93701 1.57402 0
M  V30 2869 C 283.26 -3.36287 0.203142 0
M  V30 2870 O 283.79 -3.9509 -0.725745 0
M  V30 2871 N 281.996 -2.90408 0.105563 0
M  V30 2872 H 281.543 -2.42739 0.862301 0
M  V30 2873 H 281.501 -3.05339 -0.749371 0
M  V30 2874 N 285.273 -1.31445 -0.869486 0
M  V30 2875 C 286.521 -1.20918 -1.61936 0
M  V30 2876 C 286.842 0.232683 -1.93607 0
M  V30 2877 O 286.112 1.15352 -1.58338 0
M  V30 2878 H 284.692 -0.44454 -0.600328 0
M  V30 2879 H 287.354 -1.64776 -1.0409 0
M  V30 2880 H 286.45 -1.78124 -2.56278 0
M  V30 2881 N 286.751 1.08385 -1.14413 0
M  V30 2882 C 287.999 1.80419 -0.910679 0
M  V30 2883 C 288.32 1.86658 0.564243 0
M  V30 2884 O 287.59 1.35985 1.41014 0
M  V30 2885 H 286.17 0.668204 -0.333934 0
M  V30 2886 H 288.832 1.31037 -1.44275 0
M  V30 2887 H 287.928 2.83238 -1.31082 0
M  V30 2888 N 288.23 0.939286 1.26551 0
M  V30 2889 C 289.163 0.391702 2.24813 0
M  V30 2890 C 290.141 -0.518421 1.54114 0
M  V30 2891 O 291.325 -0.456299 1.82894 0
M  V30 2892 C 288.452 -0.437382 3.35864 0
M  V30 2893 C 287.498 0.410946 4.24516 0
M  V30 2894 S 288.331 1.83372 5.03125 0
M  V30 2895 C 289.487 1.01264 6.17654 0
M  V30 2896 H 289.72 1.22448 2.70913 0
M  V30 2897 H 287.253 0.742269 1.35387 0
M  V30 2898 H 289.211 -0.909837 4.0029 0
M  V30 2899 H 287.872 -1.24482 2.8838 0
M  V30 2900 H 287.065 -0.224191 5.03501 0
M  V30 2901 H 286.667 0.818014 3.64945 0
M  V30 2902 H 288.959 0.254023 6.77024 0
M  V30 2903 H 289.902 1.77589 6.85469 0
M  V30 2904 H 290.31 0.549532 5.61819 0
M  V30 2905 N 289.708 -1.40897 0.706093 0
M  V30 2906 C 290.638 -2.33418 0.0620085 0
M  V30 2907 C 291.619 -1.52385 -0.755827 0
M  V30 2908 O 292.804 -1.80886 -0.706674 0
M  V30 2909 C 289.934 -3.36293 -0.867445 0
M  V30 2910 C 288.888 -4.27716 -0.155932 0
M  V30 2911 C 288.214 -5.2105 -1.20046 0
M  V30 2912 C 289.514 -5.12944 0.984149 0
M  V30 2913 H 291.208 -2.87527 0.83477 0
M  V30 2914 H 288.754 -1.38249 0.402875 0
M  V30 2915 H 290.707 -3.99949 -1.32735 0
M  V30 2916 H 289.431 -2.80556 -1.67199 0
M  V30 2917 H 288.09 -3.65498 0.284047 0
M  V30 2918 H 287.738 -4.61624 -1.99781 0
M  V30 2919 H 287.438 -5.83056 -0.729328 0
M  V30 2920 H 288.962 -5.87584 -1.66066 0
M  V30 2921 H 290.376 -5.70109 0.604048 0
M  V30 2922 H 288.773 -5.83945 1.38304 0
M  V30 2923 H 289.843 -4.49485 1.81911 0
M  V30 2924 N 291.186 -0.45159 -1.50991 0
M  V30 2925 C 292.149 0.341117 -2.26647 0
M  V30 2926 C 293.149 0.937422 -1.30649 0
M  V30 2927 O 294.339 0.809644 -1.54241 0
M  V30 2928 C 291.471 1.48398 -3.06905 0
M  V30 2929 H 292.664 -0.322117 -2.98165 0
M  V30 2930 H 290.217 -0.205122 -1.54948 0
M  V30 2931 H 290.952 2.18284 -2.39838 0
M  V30 2932 H 290.737 1.06241 -3.77432 0
M  V30 2933 H 292.227 2.04367 -3.64176 0
M  V30 2934 N 292.664 1.56529 -0.183458 0
M  V30 2935 C 293.627 2.17324 0.728223 0
M  V30 2936 C 294.627 1.12453 1.14939 0
M  V30 2937 O 295.817 1.37902 1.06437 0
M  V30 2938 C 292.949 2.76591 1.99274 0
M  V30 2939 H 294.142 2.99241 0.198772 0
M  V30 2940 H 291.695 1.5616 0.0661391 0
M  V30 2941 H 292.43 1.98441 2.56499 0
M  V30 2942 H 292.215 3.5335 1.69959 0
M  V30 2943 H 293.705 3.23311 2.6431 0
M  V30 2944 N 294.142 -0.090211 1.57342 0
M  V30 2945 C 295.391 -0.791531 1.8552 0
M  V30 2946 C 295.704 -1.79659 0.773441 0
M  V30 2947 O 296.91 -2.54616 0.942497 0
M  V30 2948 C 295.366 -1.45856 3.2902 0
M  V30 2949 C 294.974 -0.493017 4.45279 0
M  V30 2950 C 296.718 -2.14332 3.66418 0
M  V30 2951 C 294.625 -1.16491 5.79814 0
M  V30 2952 H 293.555 -0.299356 0.692027 0
M  V30 2953 H 296.206 -0.0445343 1.83446 0
M  V30 2954 H 294.588 -2.25318 3.2565 0
M  V30 2955 H 295.762 0.270464 4.60006 0
M  V30 2956 H 294.077 0.0863061 4.16311 0
M  V30 2957 H 296.674 -2.65344 4.64216 0
M  V30 2958 H 297.017 -2.93447 2.95287 0
M  V30 2959 H 297.55 -1.41724 3.71698 0
M  V30 2960 H 294.289 -0.41447 6.54188 0
M  V30 2961 H 293.809 -1.8997 5.68921 0
M  V30 2962 H 295.488 -1.69001 6.24538 0
M  V30 2963 N 295.62 -1.53406 -0.361157 0
M  V30 2964 C 296.583 -1.79479 -1.42548 0
M  V30 2965 C 297.583 -0.665327 -1.4639 0
M  V30 2966 O 298.773 -0.933549 -1.47073 0
M  V30 2967 C 295.905 -1.92087 -2.8163 0
M  V30 2968 H 297.098 -2.74538 -1.20701 0
M  V30 2969 H 294.651 -1.4455 -0.594546 0
M  V30 2970 H 295.386 -0.991099 -3.08784 0
M  V30 2971 H 295.171 -2.74241 -2.80239 0
M  V30 2972 H 296.661 -2.13836 -3.58697 0
M  V30 2973 N 297.098 0.621204 -1.44841 0
M  V30 2974 C 298.028 1.74366 -1.55303 0
M  V30 2975 C 299.009 1.65199 -0.405385 0
M  V30 2976 O 300.194 1.83807 -0.626787 0
M  V30 2977 C 297.324 3.12931 -1.50637 0
M  V30 2978 C 296.278 3.36896 -2.63979 0
M  V30 2979 C 295.604 4.75594 -2.44366 0
M  V30 2980 C 296.904 3.28483 -4.06074 0
M  V30 2981 H 298.598 1.65867 -2.49256 0
M  V30 2982 H 296.144 0.796558 -1.19962 0
M  V30 2983 H 298.097 3.9124 -1.56555 0
M  V30 2984 H 296.821 3.22237 -0.532057 0
M  V30 2985 H 295.48 2.60972 -2.57467 0
M  V30 2986 H 295.128 4.81616 -1.45105 0
M  V30 2987 H 294.828 4.92586 -3.20364 0
M  V30 2988 H 296.352 5.5612 -2.52117 0
M  V30 2989 H 297.766 3.96684 -4.13902 0
M  V30 2990 H 296.163 3.57008 -4.82354 0
M  V30 2991 H 297.233 2.26133 -4.28943 0
M  V30 2992 N 298.576 1.31904 0.862503 0
M  V30 2993 C 299.992 1.10724 1.14945 0
M  V30 2994 C 300.192 -0.117421 2.01158 0
M  V30 2995 O 299.248 -0.804595 2.39338 0
M  V30 2996 C 300.561 2.38267 1.83437 0
M  V30 2997 C 302.109 2.43949 1.96106 0
M  V30 2998 C 302.584 3.71394 2.68013 0
M  V30 2999 N 304.075 3.72331 2.75543 0
M  V30 3000 C 304.81 4.67641 3.31812 0
M  V30 3001 N 304.306 5.73313 3.88953 0
M  V30 3002 N 306.099 4.5515 3.29841 0
M  V30 3003 H 298.25 2.10436 0.288191 0
M  V30 3004 H 300.513 0.928705 0.190292 0
M  V30 3005 H 300.219 3.27759 1.27542 0
M  V30 3006 H 300.093 2.48633 2.83657 0
M  V30 3007 H 302.48 1.54922 2.51164 0
M  V30 3008 H 302.561 2.37543 0.949059 0
M  V30 3009 H 302.205 4.60791 2.13621 0
M  V30 3010 H 302.135 3.75069 3.69636 0
M  V30 3011 H 304.626 2.95947 2.34997 0
M  V30 3012 H 304.939 6.42107 4.30022 0
M  V30 3013 H 303.284 5.77077 3.87308 0
M  V30 3014 H 306.475 3.71766 2.84443 0
M  V30 3015 H 306.648 5.29604 3.73394 0
M  V30 3016 N 300.054 -1.07777 1.14986 0
M  V30 3017 C 301.017 -2.13041 0.845358 0
M  V30 3018 C 302.017 -1.60071 -0.152931 0
M  V30 3019 O 303.207 -1.74033 0.0761879 0
M  V30 3020 C 300.339 -3.39896 0.261383 0
M  V30 3021 H 301.532 -2.41485 1.77834 0
M  V30 3022 H 299.085 -1.23595 0.956757 0
M  V30 3023 H 299.82 -3.17091 -0.68 0
M  V30 3024 H 299.605 -3.79642 0.980514 0
M  V30 3025 H 301.095 -4.17548 0.0657687 0
M  V30 3026 N 301.532 -0.945985 -1.26051 0
M  V30 3027 C 302.943 -0.638096 -1.75457 0
M  V30 3028 C 303.294 0.846672 -1.76991 0
M  V30 3029 O 302.419 1.66262 -1.38513 0
M  V30 3030 C 303.014 -1.15157 -3.18629 0
M  V30 3031 C 301.573 -0.894004 -3.65629 0
M  V30 3032 C 300.72 -1.29967 -2.44957 0
M  V30 3033 H 303.671 -1.12376 -1.1206 0
M  V30 3034 H 303.692 -0.507615 -3.77099 0
M  V30 3035 H 303.204 -2.23222 -3.1748 0
M  V30 3036 H 301.305 0.172057 -3.72203 0
M  V30 3037 H 301.418 -1.52439 -4.54202 0
M  V30 3038 H 299.782 -0.718078 -2.44368 0
M  V30 3039 H 300.565 -2.38935 -2.46505 0
M  V30 3040 N 303.011 1.40521 -0.713556 0
M  V30 3041 C 303.961 2.27971 -0.036165 0
M  V30 3042 C 304.945 1.43151 0.734623 0
M  V30 3043 O 306.137 1.66261 0.607158 0
M  V30 3044 C 303.266 3.31661 0.886331 0
M  V30 3045 C 302.352 4.23955 0.110836 0
M  V30 3046 N 302.743 4.97641 -0.904847 0
M  V30 3047 C 301.041 4.44674 0.343692 0
M  V30 3048 C 301.742 5.65322 -1.37064 0
M  V30 3049 N 300.718 5.39162 -0.693168 0
M  V30 3050 H 304.52 2.82384 -0.814645 0
M  V30 3051 H 302.034 1.52948 -0.545963 0
M  V30 3052 H 304.031 3.93154 1.38692 0
M  V30 3053 H 302.691 2.78808 1.66421 0
M  V30 3054 H 303.702 5.01689 -1.28563 0
M  V30 3055 H 300.379 4.02801 1.09805 0
M  V30 3056 H 301.769 6.34359 -2.21447 0
M  V30 3057 N 304.489 0.459591 1.5075 0
M  V30 3058 C 305.419 -0.330644 2.31147 0
M  V30 3059 C 306.4 -1.00087 1.37538 0
M  V30 3060 O 307.585 -1.00025 1.66459 0
M  V30 3061 C 304.715 -1.41958 3.16962 0
M  V30 3062 C 303.669 -0.871608 4.19031 0
M  V30 3063 C 302.995 -2.05797 4.9351 0
M  V30 3064 C 304.295 0.109251 5.22186 0
M  V30 3065 H 305.989 0.340336 2.97459 0
M  V30 3066 H 303.535 0.165119 1.4305 0
M  V30 3067 H 305.488 -1.9798 3.71997 0
M  V30 3068 H 304.212 -2.11917 2.48513 0
M  V30 3069 H 302.871 -0.333442 3.6508 0
M  V30 3070 H 302.519 -2.74427 4.21544 0
M  V30 3071 H 302.219 -1.6976 5.62544 0
M  V30 3072 H 303.743 -2.62331 5.51375 0
M  V30 3073 H 305.157 -0.361405 5.7216 0
M  V30 3074 H 303.554 0.383316 5.98875 0
M  V30 3075 H 304.624 1.03887 4.73641 0
M  V30 3076 N 305.967 -1.56429 0.191757 0
M  V30 3077 C 307.383 -1.58754 -0.164137 0
M  V30 3078 C 307.583 -1.20782 -1.61288 0
M  V30 3079 O 306.639 -0.928999 -2.34789 0
M  V30 3080 C 307.952 -3.00396 0.135195 0
M  V30 3081 C 309.5 -3.1291 0.0750351 0
M  V30 3082 C 309.975 -4.56679 0.347632 0
M  V30 3083 N 311.466 -4.62252 0.296131 0
M  V30 3084 C 312.201 -5.71379 0.480948 0
M  V30 3085 N 311.697 -6.88986 0.725933 0
M  V30 3086 N 313.49 -5.60563 0.415435 0
M  V30 3087 H 305.641 -1.79393 1.13718 0
M  V30 3088 H 307.904 -0.832414 0.453643 0
M  V30 3089 H 307.61 -3.32726 1.13958 0
M  V30 3090 H 307.484 -3.72963 -0.563773 0
M  V30 3091 H 309.871 -2.80394 -0.919948 0
M  V30 3092 H 309.952 -2.42736 0.807029 0
M  V30 3093 H 309.596 -4.89907 1.33992 0
M  V30 3094 H 309.526 -5.25039 -0.405212 0
M  V30 3095 H 312.017 -3.7773 0.113259 0
M  V30 3096 H 312.33 -7.68046 0.855857 0
M  V30 3097 H 310.675 -6.90801 0.762788 0
M  V30 3098 H 313.866 -4.67561 0.224486 0
M  V30 3099 H 314.039 -6.45551 0.562889 0
M  V30 3100 N 307.445 0.0818655 -1.57387 0
M  V30 3101 C 308.693 0.781368 -1.86384 0
M  V30 3102 C 309.014 1.78618 -0.782342 0
M  V30 3103 O 308.284 1.94976 0.190061 0
M  V30 3104 H 306.864 0.291562 -0.687751 0
M  V30 3105 H 309.526 0.060348 -1.94807 0
M  V30 3106 H 308.622 1.3038 -2.83562 0
M  V30 3107 N 308.923 1.53595 0.353017 0
M  V30 3108 C 310.151 1.74311 1.1146 0
M  V30 3109 C 310.566 0.477854 1.82653 0
M  V30 3110 O 309.923 -0.549977 1.74016 0
M  V30 3111 C 309.974 2.91694 2.13534 0
M  V30 3112 O 309.695 4.13325 1.45238 0
M  V30 3113 C 311.196 3.24384 3.02142 0
M  V30 3114 H 308.416 0.582669 0.332773 0
M  V30 3115 H 310.96 2.00386 0.408107 0
M  V30 3116 H 309.115 2.67977 2.79763 0
M  V30 3117 H 309.529 4.79148 2.13349 0
M  V30 3118 H 311.003 4.09893 3.69718 0
M  V30 3119 H 311.48 2.40282 3.67643 0
M  V30 3120 H 312.086 3.50073 2.41514 0
M  V30 3121 N 310.401 -0.613514 1.45168 0
M  V30 3122 C 311.331 -1.7354 1.56225 0
M  V30 3123 C 312.312 -1.64981 0.41414 0
M  V30 3124 O 313.497 -1.83472 0.636526 0
M  V30 3125 C 310.627 -3.12128 1.52295 0
M  V30 3126 C 309.581 -3.35491 2.65762 0
M  V30 3127 C 308.907 -4.74291 2.46885 0
M  V30 3128 C 310.207 -3.26325 4.0781 0
M  V30 3129 H 311.901 -1.64543 2.50132 0
M  V30 3130 H 309.447 -0.790185 1.20383 0
M  V30 3131 H 311.4 -3.90404 1.58628 0
M  V30 3132 H 310.124 -3.2195 0.549139 0
M  V30 3133 H 308.783 -2.59603 2.58847 0
M  V30 3134 H 308.431 -4.80839 1.47657 0
M  V30 3135 H 308.131 -4.9088 3.22972 0
M  V30 3136 H 309.655 -5.54775 2.55063 0
M  V30 3137 H 311.069 -3.94483 4.16 0
M  V30 3138 H 309.466 -3.54445 4.8424 0
M  V30 3139 H 310.536 -2.23855 4.30136 0
M  V30 3140 N 311.879 -1.3236 -0.855495 0
M  V30 3141 C 313.125 -1.23054 -1.612 0
M  V30 3142 C 313.458 0.207404 -1.93089 0
M  V30 3143 O 312.733 1.14432 -1.57275 0
M  V30 3144 C 313.016 -2.08937 -2.93287 0
M  V30 3145 C 312.869 -3.61105 -2.68185 0
M  V30 3146 C 314.188 -1.94986 -3.94549 0
M  V30 3147 H 311.307 -0.448364 -0.584926 0
M  V30 3148 H 313.949 -1.62297 -0.987917 0
M  V30 3149 H 312.099 -1.75599 -3.46551 0
M  V30 3150 H 313.771 -4.04652 -2.21483 0
M  V30 3151 H 312.014 -3.83813 -2.02164 0
M  V30 3152 H 312.685 -4.16522 -3.62234 0
M  V30 3153 H 315.161 -2.24189 -3.5054 0
M  V30 3154 H 314.037 -2.57356 -4.84829 0
M  V30 3155 H 314.298 -0.917263 -4.3248 0
M  V30 3156 N 313.357 1.07166 -1.15556 0
M  V30 3157 C 314.267 2.17947 -0.868116 0
M  V30 3158 C 315.283 1.73297 0.156297 0
M  V30 3159 O 316.459 2.01392 -0.0182327 0
M  V30 3160 C 313.524 3.44789 -0.36355 0
M  V30 3161 C 312.585 4.03996 -1.45209 0
M  V30 3162 C 311.818 5.24783 -0.971508 0
M  V30 3163 O 312.041 5.70109 0.182194 0
M  V30 3164 O 310.975 5.75715 -1.75603 0
M  V30 3165 H 314.801 2.4503 -1.79427 0
M  V30 3166 H 312.386 1.16539 -0.934824 0
M  V30 3167 H 314.268 4.21307 -0.0887113 0
M  V30 3168 H 312.943 3.19253 0.534708 0
M  V30 3169 H 311.85 3.29009 -1.78056 0
M  V30 3170 H 313.183 4.33808 -2.32533 0
M  V30 3171 N 314.835 0.952656 1.25548 0
M  V30 3172 C 315.765 0.489287 2.28316 0
M  V30 3173 C 316.746 -0.463359 1.63667 0
M  V30 3174 O 317.931 -0.36274 1.90782 0
M  V30 3175 C 315.061 -0.235603 3.465 0
M  V30 3176 C 314.015 0.631593 4.23314 0
M  V30 3177 C 313.341 -0.223923 5.34231 0
M  V30 3178 C 314.641 1.90871 4.86174 0
M  V30 3179 H 316.335 1.34822 2.67326 0
M  V30 3180 H 313.881 0.649728 1.28509 0
M  V30 3181 H 315.834 -0.570882 4.17515 0
M  V30 3182 H 314.558 -1.12877 3.06474 0
M  V30 3183 H 313.217 0.949929 3.54079 0
M  V30 3184 H 312.865 -1.11678 4.90446 0
M  V30 3185 H 312.565 0.35299 5.86539 0
M  V30 3186 H 314.089 -0.554214 6.0808 0
M  V30 3187 H 315.503 1.63997 5.49343 0
M  V30 3188 H 313.9 2.43112 5.4865 0
M  V30 3189 H 314.97 2.61304 4.08471 0
M  V30 3190 N 316.313 -1.40141 0.720998 0
M  V30 3191 C 317.276 -2.29058 0.0805834 0
M  V30 3192 C 318.276 -1.45632 -0.681758 0
M  V30 3193 O 319.466 -1.6648 -0.512856 0
M  V30 3194 C 316.598 -3.28925 -0.895593 0
M  V30 3195 H 317.791 -2.87191 0.863793 0
M  V30 3196 H 315.344 -1.48553 0.485975 0
M  V30 3197 H 316.079 -2.75822 -1.70566 0
M  V30 3198 H 315.864 -3.90519 -0.351766 0
M  V30 3199 H 317.354 -3.95494 -1.34069 0
M  V30 3200 N 317.792 -0.46758 -1.50504 0
M  V30 3201 C 319.04 0.0884469 -2.01906 0
M  V30 3202 C 319.361 1.40532 -1.35188 0
M  V30 3203 O 318.631 1.89515 -0.496079 0
M  V30 3204 H 317.211 0.0356765 -0.746148 0
M  V30 3205 H 319.873 -0.6172 -1.84869 0
M  V30 3206 H 318.969 0.2425 -3.11156 0
M  V30 3207 N 319.27 1.56325 -0.20005 0
M  V30 3208 C 320.681 1.8408 0.31167 0
M  V30 3209 C 321.032 1.12087 1.61031 0
M  V30 3210 O 320.157 0.38332 2.12978 0
M  V30 3211 C 320.752 3.33932 0.57226 0
M  V30 3212 C 319.311 3.6208 1.02834 0
M  V30 3213 C 318.458 2.77186 0.079634 0
M  V30 3214 H 321.409 1.52939 -0.423729 0
M  V30 3215 H 321.43 3.52971 1.42096 0
M  V30 3216 H 320.942 3.86303 -0.37308 0
M  V30 3217 H 319.043 3.15147 1.98778 0
M  V30 3218 H 319.156 4.7023 0.917624 0
M  V30 3219 H 317.52 2.47951 0.582448 0
M  V30 3220 H 318.303 3.32347 -0.860238 0
M  V30 3221 N 320.748 -0.0735177 1.57428 0
M  V30 3222 C 321.711 -1.07192 2.02589 0
M  V30 3223 C 322.711 -1.31695 0.922661 0
M  V30 3224 O 323.901 -1.27445 1.18758 0
M  V30 3225 C 321.033 -2.41599 2.40506 0
M  V30 3226 H 322.226 -0.682727 2.92025 0
M  V30 3227 H 319.779 -0.319193 1.53006 0
M  V30 3228 H 320.514 -2.85354 1.5409 0
M  V30 3229 H 320.299 -2.25156 3.21009 0
M  V30 3230 H 321.789 -3.13367 2.76027 0
M  V30 3231 N 322.226 -1.5378 -0.344866 0
M  V30 3232 C 323.136 -1.84667 -1.4469 0
M  V30 3233 C 324.152 -0.736704 -1.57635 0
M  V30 3234 O 325.328 -1.02888 -1.73136 0
M  V30 3235 C 322.393 -2.04869 -2.79696 0
M  V30 3236 C 321.454 -3.28731 -2.76106 0
M  V30 3237 C 320.687 -3.4796 -4.04673 0
M  V30 3238 O 320.91 -2.71052 -5.01883 0
M  V30 3239 O 319.844 -4.41383 -4.09224 0
M  V30 3240 H 323.67 -2.78334 -1.21506 0
M  V30 3241 H 321.255 -1.39418 -0.536921 0
M  V30 3242 H 323.137 -2.19609 -3.59652 0
M  V30 3243 H 321.812 -1.14391 -3.02814 0
M  V30 3244 H 320.719 -3.19396 -1.94774 0
M  V30 3245 H 322.052 -4.19198 -2.57941 0
M  V30 3246 N 323.704 0.605807 -1.45491 0
M  V30 3247 C 325.12 0.926751 -1.29936 0
M  V30 3248 C 325.32 1.99896 -0.253706 0
M  V30 3249 O 324.376 2.50038 0.351737 0
M  V30 3250 C 325.689 1.36599 -2.67883 0
M  V30 3251 C 327.237 1.4801 -2.75793 0
M  V30 3252 C 327.712 1.95309 -4.14268 0
M  V30 3253 N 329.203 2.0254 -4.16571 0
M  V30 3254 C 329.938 2.40363 -5.20589 0
M  V30 3255 N 329.434 2.77143 -6.34952 0
M  V30 3256 N 331.227 2.40718 -5.07948 0
M  V30 3257 H 323.378 -0.102862 -2.12151 0
M  V30 3258 H 325.641 0.016639 -0.947854 0
M  V30 3259 H 325.347 0.652306 -3.45598 0
M  V30 3260 H 325.221 2.33215 -2.96463 0
M  V30 3261 H 327.608 2.1847 -1.98381 0
M  V30 3262 H 327.689 0.497041 -2.50925 0
M  V30 3263 H 327.333 1.25436 -4.92167 0
M  V30 3264 H 327.263 2.94532 -4.3653 0
M  V30 3265 H 329.754 1.76699 -3.34045 0
M  V30 3266 H 330.067 3.0489 -7.10114 0
M  V30 3267 H 328.412 2.74834 -6.3835 0
M  V30 3268 H 331.603 2.11392 -4.1765 0
M  V30 3269 H 331.776 2.69869 -5.89131 0
M  V30 3270 N 325.182 1.32811 0.848464 0
M  V30 3271 C 326.145 1.22194 1.9391 0
M  V30 3272 C 327.145 0.143404 1.60159 0
M  V30 3273 O 328.335 0.394253 1.6968 0
M  V30 3274 C 325.467 0.88067 3.29328 0
M  V30 3275 H 326.66 2.19127 2.04752 0
M  V30 3276 H 324.213 1.16731 1.0394 0
M  V30 3277 H 324.948 -0.0865776 3.24184 0
M  V30 3278 H 324.733 1.66052 3.55203 0
M  V30 3279 H 326.223 0.830871 4.09251 0
M  V30 3280 N 326.66 -1.06551 1.16123 0
M  V30 3281 C 328.076 -1.3142 0.905585 0
M  V30 3282 C 328.276 -1.96571 -0.442964 0
M  V30 3283 O 327.332 -2.23068 -1.18308 0
M  V30 3284 C 328.645 -2.19741 2.05267 0
M  V30 3285 C 330.193 -2.33165 2.08813 0
M  V30 3286 C 330.668 -3.24838 3.22868 0
M  V30 3287 N 332.159 -3.32421 3.22568 0
M  V30 3288 C 332.894 -4.0344 4.0746 0
M  V30 3289 N 332.39 -4.77003 5.02434 0
M  V30 3290 N 334.183 -3.99464 3.95456 0
M  V30 3291 H 326.334 -0.626548 2.02949 0
M  V30 3292 H 328.597 -0.338777 0.8854 0
M  V30 3293 H 328.303 -1.79142 3.02657 0
M  V30 3294 H 328.177 -3.20313 1.99198 0
M  V30 3295 H 330.564 -2.73013 1.12018 0
M  V30 3296 H 330.645 -1.3227 2.18948 0
M  V30 3297 H 330.289 -2.85708 4.19921 0
M  V30 3298 H 330.219 -4.25707 3.0997 0
M  V30 3299 H 332.71 -2.79994 2.53795 0
M  V30 3300 H 333.023 -5.28712 5.63634 0
M  V30 3301 H 331.368 -4.75992 5.06415 0
M  V30 3302 H 334.559 -3.4111 3.20564 0
M  V30 3303 H 334.732 -4.54544 4.61837 0
M  V30 3304 N 328.138 -0.959301 -1.25041 0
M  V30 3305 C 329.554 -0.664474 -1.4511 0
M  V30 3306 C 329.754 0.776481 -1.85938 0
M  V30 3307 O 328.81 1.55128 -1.99227 0
M  V30 3308 C 330.123 -1.64139 -2.5195 0
M  V30 3309 C 331.671 -1.65309 -2.65786 0
M  V30 3310 C 332.146 -2.61777 -3.75815 0
M  V30 3311 N 333.637 -2.60169 -3.83231 0
M  V30 3312 C 334.372 -3.31489 -4.6787 0
M  V30 3313 N 333.868 -4.12298 -5.56761 0
M  V30 3314 N 335.661 -3.20354 -4.61876 0
M  V30 3315 H 327.812 -1.89043 -0.968332 0
M  V30 3316 H 330.075 -0.813408 -0.4869 0
M  V30 3317 H 329.781 -2.67086 -2.28819 0
M  V30 3318 H 329.655 -1.40756 -3.49954 0
M  V30 3319 H 332.042 -0.630778 -2.8828 0
M  V30 3320 H 332.123 -1.92753 -1.68167 0
M  V30 3321 H 331.767 -3.64137 -3.54071 0
M  V30 3322 H 331.697 -2.31616 -4.72929 0
M  V30 3323 H 334.188 -2.01507 -3.19692 0
M  V30 3324 H 334.501 -4.63625 -6.18281 0
M  V30 3325 H 332.846 -4.16395 -5.56454 0
M  V30 3326 H 336.037 -2.56692 -3.91442 0
M  V30 3327 H 336.21 -3.76201 -5.27614 0
M  V30 3328 N 329.616 1.39756 -0.72842 0
M  V30 3329 C 331.032 1.5442 -0.403308 0
M  V30 3330 C 331.232 1.69694 1.08656 0
M  V30 3331 O 330.288 1.69373 1.87267 0
M  V30 3332 C 331.601 2.76555 -1.18058 0
M  V30 3333 C 333.149 2.90384 -1.16815 0
M  V30 3334 C 333.624 4.15449 -1.92785 0
M  V30 3335 N 335.115 4.22475 -1.89918 0
M  V30 3336 C 335.85 5.1818 -2.45514 0
M  V30 3337 N 335.346 6.19714 -3.09719 0
M  V30 3338 N 337.139 5.1035 -2.35584 0
M  V30 3339 H 329.29 1.28089 -1.69431 0
M  V30 3340 H 331.553 0.620327 -0.716867 0
M  V30 3341 H 331.259 2.7159 -2.23455 0
M  V30 3342 H 331.133 3.69033 -0.780662 0
M  V30 3343 H 333.52 2.94846 -0.12234 0
M  V30 3344 H 333.601 1.98988 -1.6074 0
M  V30 3345 H 333.245 4.11749 -2.97364 0
M  V30 3346 H 333.175 5.05877 -1.46272 0
M  V30 3347 H 335.666 3.49743 -1.43138 0
M  V30 3348 H 335.979 6.8919 -3.49625 0
M  V30 3349 H 334.324 6.20121 -3.13807 0
M  V30 3350 H 337.515 4.2996 -1.85072 0
M  V30 3351 H 337.688 5.84761 -2.79211 0
M  V30 3352 N 331.094 0.475555 1.50254 0
M  V30 3353 C 332.341 -0.0778919 2.0235 0
M  V30 3354 C 332.669 -1.39319 1.35722 0
M  V30 3355 O 331.924 -1.89888 0.473395 0
M  V30 3356 C 332.223 -0.305114 3.56095 0
M  V30 3357 C 331.889 0.92903 4.41225 0
M  V30 3358 C 330.551 1.26739 4.6421 0
M  V30 3359 C 332.903 1.75054 4.90923 0
M  V30 3360 C 330.231 2.42724 5.34137 0
M  V30 3361 C 332.583 2.9017 5.62125 0
M  V30 3362 C 331.247 3.24416 5.83362 0
M  V30 3363 H 330.517 -0.0285027 0.740452 0
M  V30 3364 H 333.164 0.630543 1.80821 0
M  V30 3365 H 331.469 -1.09584 3.76163 0
M  V30 3366 H 333.166 -0.747377 3.93974 0
M  V30 3367 H 329.756 0.655428 4.23559 0
M  V30 3368 H 333.94 1.50231 4.73016 0
M  V30 3369 H 329.196 2.69525 5.48786 0
M  V30 3370 H 333.37 3.54169 5.99614 0
M  V30 3371 H 330.997 4.14396 6.37323 0
M  V30 3372 N 332.573 -1.56217 0.208337 0
M  V30 3373 C 333.536 -2.18455 -0.693557 0
M  V30 3374 C 334.536 -1.14268 -1.13135 0
M  V30 3375 O 335.726 -1.39577 -1.0423 0
M  V30 3376 C 332.858 -2.79727 -1.94848 0
M  V30 3377 H 334.051 -2.99519 -0.15114 0
M  V30 3378 H 331.604 -1.56245 -0.041287 0
M  V30 3379 H 332.339 -2.02497 -2.53309 0
M  V30 3380 H 332.124 -3.56009 -1.64316 0
M  V30 3381 H 333.614 -3.27475 -2.59133 0
M  V30 3382 N 334.051 0.0651679 -1.57465 0
M  V30 3383 C 335.328 0.79644 -1.78651 0
M  V30 3384 C 335.708 1.95454 -0.797566 0
M  V30 3385 O 335.056 2.27882 0.167946 0
M  V30 3386 C 335.266 1.26322 -3.25337 0
M  V30 3387 C 336.614 1.6939 -3.89348 0
M  V30 3388 O 337.638 1.35872 -3.29268 0
M  V30 3389 O 336.497 2.31471 -4.95059 0
M  V30 3390 H 333.591 0.382157 -0.733407 0
M  V30 3391 H 336.137 0.0447311 -1.69641 0
M  V30 3392 H 334.909 0.434859 -3.88876 0
M  V30 3393 H 334.532 2.07604 -3.39096 0
M  V30 3394 N 335.529 1.53961 0.336706 0
M  V30 3395 C 336.492 1.81724 1.39675 0
M  V30 3396 C 337.492 0.688532 1.45313 0
M  V30 3397 O 338.682 0.956829 1.45569 0
M  V30 3398 C 335.814 1.96543 2.78538 0
M  V30 3399 H 337.007 2.76424 1.16318 0
M  V30 3400 H 334.56 1.45478 0.571474 0
M  V30 3401 H 335.295 1.0401 3.07168 0
M  V30 3402 H 335.08 2.78665 2.75841 0
M  V30 3403 H 336.57 2.19516 3.5525 0
M  V30 3404 N 337.007 -0.598083 1.45811 0
M  V30 3405 C 338.255 -1.35413 1.50026 0
M  V30 3406 C 338.576 -1.94444 0.147177 0
M  V30 3407 O 337.846 -1.77701 -0.824571 0
M  V30 3408 H 336.426 -0.502727 0.552517 0
M  V30 3409 H 339.088 -0.701606 1.81834 0
M  V30 3410 H 338.184 -2.16871 2.2444 0
M  V30 3411 N 338.485 -1.33259 -0.841409 0
M  V30 3412 C 339.415 -1.25926 -1.96634 0
M  V30 3413 C 340.396 -0.140349 -1.6952 0
M  V30 3414 O 341.581 -0.329707 -1.91381 0
M  V30 3415 C 338.711 -0.99512 -3.32738 0
M  V30 3416 C 337.665 -2.0767 -3.74242 0
M  V30 3417 C 336.991 -1.66474 -5.08125 0
M  V30 3418 C 338.291 -3.49318 -3.88297 0
M  V30 3419 H 339.985 -2.20046 -2.03027 0
M  V30 3420 H 337.531 -1.05931 -0.975425 0
M  V30 3421 H 339.484 -0.930323 -4.11002 0
M  V30 3422 H 338.208 -0.0183004 -3.26595 0
M  V30 3423 H 336.867 -2.13187 -2.98239 0
M  V30 3424 H 336.515 -0.675012 -4.9845 0
M  V30 3425 H 336.215 -2.3885 -5.36865 0
M  V30 3426 H 337.739 -1.61455 -5.88867 0
M  V30 3427 H 339.153 -3.46316 -4.56879 0
M  V30 3428 H 337.55 -4.20158 -4.28471 0
M  V30 3429 H 338.62 -3.8801 -2.9082 0
M  V30 3430 N 339.963 1.05934 -1.16686 0
M  V30 3431 C 340.926 2.11669 -0.879144 0
M  V30 3432 C 341.926 1.60294 0.127445 0
M  V30 3433 O 343.116 1.7389 -0.103865 0
M  V30 3434 C 340.248 3.39438 -0.315425 0
M  V30 3435 H 341.441 2.38626 -1.81653 0
M  V30 3436 H 338.994 1.22058 -0.976299 0
M  V30 3437 H 339.729 3.18132 0.629468 0
M  V30 3438 H 339.514 3.78034 -1.04079 0
M  V30 3439 H 341.004 4.17391 -0.132189 0
M  V30 3440 N 341.441 0.965919 1.2453 0
M  V30 3441 C 342.718 0.543777 1.87889 0
M  V30 3442 C 343.098 -0.97909 1.87021 0
M  V30 3443 O 342.446 -1.84969 1.3416 0
M  V30 3444 C 342.656 1.13327 3.30088 0
M  V30 3445 C 344.004 1.21707 4.06783 0
M  V30 3446 O 345.028 1.08566 3.39252 0
M  V30 3447 O 343.887 1.42456 5.27606 0
M  V30 3448 H 340.981 0.181054 0.806938 0
M  V30 3449 H 343.527 1.06007 1.32516 0
M  V30 3450 H 342.299 2.17612 3.25209 0
M  V30 3451 H 341.922 0.600911 3.93033 0
M  V30 3452 N 342.919 -1.39368 0.735821 0
M  V30 3453 C 344.335 -1.54204 0.411492 0
M  V30 3454 C 344.535 -1.70268 -1.07755 0
M  V30 3455 O 343.591 -1.70364 -1.86366 0
M  V30 3456 C 344.904 -2.75925 1.19523 0
M  V30 3457 C 346.452 -2.89761 1.18354 0
M  V30 3458 C 346.927 -4.14421 1.94986 0
M  V30 3459 N 348.418 -4.21462 1.92156 0
M  V30 3460 C 349.153 -5.16871 2.48258 0
M  V30 3461 N 348.649 -6.18063 3.13001 0
M  V30 3462 N 350.442 -5.09093 2.38287 0
M  V30 3463 H 342.593 -1.27189 1.70108 0
M  V30 3464 H 344.856 -0.616517 0.720147 0
M  V30 3465 H 344.562 -2.70401 2.24892 0
M  V30 3466 H 344.436 -3.68614 0.800222 0
M  V30 3467 H 346.823 -2.94777 0.137975 0
M  V30 3468 H 346.904 -1.98133 1.61793 0
M  V30 3469 H 346.548 -4.10166 2.99543 0
M  V30 3470 H 346.478 -5.05095 1.48953 0
M  V30 3471 H 348.969 -3.48979 1.44991 0
M  V30 3472 H 349.282 -6.87326 3.53275 0
M  V30 3473 H 347.627 -6.18448 3.17091 0
M  V30 3474 H 350.818 -4.28973 1.8735 0
M  V30 3475 H 350.991 -5.83272 2.82308 0
M  V30 3476 N 344.397 -0.483516 -1.5 0
M  V30 3477 C 345.643 0.0672592 -2.02688 0
M  V30 3478 C 345.976 1.38247 -1.36387 0
M  V30 3479 O 345.251 1.88131 -0.493675 0
M  V30 3480 C 345.534 0.238109 -3.59312 0
M  V30 3481 C 345.387 -1.099 -4.36168 0
M  V30 3482 C 346.706 0.986916 -4.28892 0
M  V30 3483 H 343.825 0.0229696 -0.736642 0
M  V30 3484 H 346.467 -0.631527 -1.79197 0
M  V30 3485 H 344.617 0.8333 -3.79458 0
M  V30 3486 H 346.289 -1.73172 -4.27562 0
M  V30 3487 H 344.532 -1.69261 -3.99416 0
M  V30 3488 H 345.203 -0.932954 -5.44059 0
M  V30 3489 H 347.679 0.482302 -4.13295 0
M  V30 3490 H 346.555 1.07527 -5.38265 0
M  V30 3491 H 346.816 2.0265 -3.92919 0
M  V30 3492 N 345.875 1.56104 -0.216619 0
M  V30 3493 C 347.103 2.02563 0.421413 0
M  V30 3494 C 347.518 1.0965 1.53695 0
M  V30 3495 O 346.875 0.10521 1.82196 0
M  V30 3496 C 346.926 3.48584 0.957665 0
M  V30 3497 O 346.647 4.37953 -0.113389 0
M  V30 3498 C 348.148 4.10664 1.66943 0
M  V30 3499 H 345.368 0.662944 0.103665 0
M  V30 3500 H 347.912 2.01793 -0.331629 0
M  V30 3501 H 346.067 3.49985 1.661 0
M  V30 3502 H 346.481 5.23704 0.288932 0
M  V30 3503 H 347.955 5.14622 1.99671 0
M  V30 3504 H 348.432 3.55373 2.58083 0
M  V30 3505 H 349.038 4.13098 1.01142 0
M  V30 3506 N 347.353 -0.0568162 1.57498 0
M  V30 3507 C 348.599 -0.75422 1.88253 0
M  V30 3508 C 348.932 -1.76461 0.810865 0
M  V30 3509 O 348.207 -1.93691 -0.177259 0
M  V30 3510 C 348.49 -1.44878 3.2967 0
M  V30 3511 C 348.343 -0.453789 4.47505 0
M  V30 3512 C 349.662 -2.38994 3.69554 0
M  V30 3513 H 346.781 -0.272724 0.684683 0
M  V30 3514 H 349.423 -0.0172113 1.89992 0
M  V30 3515 H 347.573 -2.077 3.28318 0
M  V30 3516 H 349.245 0.170371 4.60985 0
M  V30 3517 H 347.488 0.229552 4.33192 0
M  V30 3518 H 348.159 -0.977699 5.43273 0
M  V30 3519 H 350.635 -1.86239 3.72095 0
M  V30 3520 H 349.511 -2.84587 4.69363 0
M  V30 3521 H 349.772 -3.24461 3.00296 0
M  V30 3522 N 348.832 -1.54138 -0.328536 0
M  V30 3523 C 349.795 -1.82462 -1.38709 0
M  V30 3524 C 350.795 -0.696229 -1.44946 0
M  V30 3525 O 351.985 -0.964535 -1.4506 0
M  V30 3526 C 349.117 -1.98018 -2.77492 0
M  V30 3527 H 350.31 -2.77037 -1.14851 0
M  V30 3528 H 347.863 -1.45779 -0.563751 0
M  V30 3529 H 348.598 -1.05637 -3.06613 0
M  V30 3530 H 348.383 -2.80124 -2.74359 0
M  V30 3531 H 349.873 -2.21396 -3.54081 0
M  V30 3532 N 350.31 0.590341 -1.46126 0
M  V30 3533 C 351.22 1.72793 -1.58681 0
M  V30 3534 C 352.236 1.67516 -0.470566 0
M  V30 3535 O 353.412 1.87562 -0.733642 0
M  V30 3536 C 350.477 3.09287 -1.5666 0
M  V30 3537 C 349.538 3.25886 -2.79458 0
M  V30 3538 C 348.771 4.55869 -2.77524 0
M  V30 3539 O 348.994 5.3928 -1.85832 0
M  V30 3540 O 347.928 4.75552 -3.68964 0
M  V30 3541 H 351.754 1.65149 -2.54872 0
M  V30 3542 H 349.339 0.756486 -1.28832 0
M  V30 3543 H 351.221 3.90577 -1.58202 0
M  V30 3544 H 349.896 3.17385 -0.636271 0
M  V30 3545 H 348.803 2.44119 -2.83472 0
M  V30 3546 H 350.136 3.22675 -3.71674 0
M  V30 3547 N 351.788 1.33704 0.83433 0
M  V30 3548 C 353.036 1.25169 1.58673 0
M  V30 3549 C 353.357 -0.18127 1.94156 0
M  V30 3550 O 352.627 -1.11113 1.6134 0
M  V30 3551 H 351.207 0.4603 0.58833 0
M  V30 3552 H 353.869 1.67478 0.996847 0
M  V30 3553 H 352.965 1.84856 2.51465 0
M  V30 3554 N 353.266 -1.05314 1.17247 0
M  V30 3555 C 354.543 -1.75184 0.87005 0
M  V30 3556 C 354.923 -2.01481 -0.629965 0
M  V30 3557 O 354.271 -1.64988 -1.58086 0
M  V30 3558 C 354.481 -3.04594 1.70363 0
M  V30 3559 C 355.829 -3.78567 1.92281 0
M  V30 3560 O 356.853 -3.14461 1.67311 0
M  V30 3561 O 355.712 -4.93755 2.3424 0
M  V30 3562 H 352.806 -0.761729 0.322021 0
M  V30 3563 H 355.352 -1.11493 1.27935 0
M  V30 3564 H 354.124 -2.81201 2.72106 0
M  V30 3565 H 353.747 -3.76022 1.29202 0
M  V30 3566 N 354.744 -0.972509 -1.24016 0
M  V30 3567 C 355.991 -0.637034 -1.92219 0
M  V30 3568 C 356.319 0.828418 -1.75976 0
M  V30 3569 O 355.574 1.61206 -1.10955 0
M  V30 3570 C 355.873 -0.963694 -3.44162 0
M  V30 3571 C 355.539 -2.41807 -3.80579 0
M  V30 3572 C 354.201 -2.81556 -3.9023 0
M  V30 3573 C 356.553 -3.36172 -3.98293 0
M  V30 3574 C 353.881 -4.14702 -4.15017 0
M  V30 3575 C 356.233 -4.68952 -4.24578 0
M  V30 3576 C 354.897 -5.08472 -4.32449 0
M  V30 3577 H 354.167 -0.233107 -0.703379 0
M  V30 3578 H 356.814 -1.2249 -1.47202 0
M  V30 3579 H 355.119 -0.29365 -3.90698 0
M  V30 3580 H 356.816 -0.682449 -3.9515 0
M  V30 3581 H 353.406 -2.09988 -3.73635 0
M  V30 3582 H 357.59 -3.06644 -3.90234 0
M  V30 3583 H 352.846 -4.4494 -4.19331 0
M  V30 3584 H 357.02 -5.42037 -4.37229 0
M  V30 3585 H 354.647 -6.11665 -4.51409 0
M  V30 3586 N 356.222 1.38976 -0.743202 0
M  V30 3587 C 357.469 2.00343 -0.294752 0
M  V30 3588 C 357.797 1.58983 1.12047 0
M  V30 3589 O 357.052 0.813809 1.77977 0
M  V30 3590 C 357.351 3.55647 -0.353517 0
M  V30 3591 C 357.017 4.16685 -1.72292 0
M  V30 3592 C 355.679 4.3307 -2.09771 0
M  V30 3593 C 358.031 4.50464 -2.62168 0
M  V30 3594 C 355.359 4.80526 -3.36618 0
M  V30 3595 C 357.711 4.99332 -3.88395 0
M  V30 3596 C 356.375 5.13924 -4.25956 0
M  V30 3597 H 355.645 0.733108 -0.107857 0
M  V30 3598 H 358.292 1.6618 -0.951651 0
M  V30 3599 H 356.597 3.89884 0.386954 0
M  V30 3600 H 358.294 4.00998 0.0117269 0
M  V30 3601 H 354.884 4.04339 -1.42155 0
M  V30 3602 H 359.068 4.37416 -2.3448 0
M  V30 3603 H 354.324 4.90008 -3.65653 0
M  V30 3604 H 358.498 5.2444 -4.58187 0
M  V30 3605 H 356.125 5.50457 -5.2431 0
M  V30 3606 N 357.7 0.491464 1.49741 0
M  V30 3607 C 358.647 -0.292027 2.28945 0
M  V30 3608 C 359.617 -0.968973 1.34908 0
M  V30 3609 O 360.802 -0.97748 1.6386 0
M  V30 3610 C 357.942 -1.35617 3.17336 0
M  V30 3611 C 357.055 -0.691957 4.26422 0
M  V30 3612 C 356.19 -1.73572 5.02042 0
M  V30 3613 C 355.229 -1.05286 6.02977 0
M  V30 3614 N 354.366 -2.0404 6.71798 0
M  V30 3615 H 359.206 0.389654 2.95442 0
M  V30 3616 H 356.743 0.204003 1.45679 0
M  V30 3617 H 358.701 -1.98502 3.66951 0
M  V30 3618 H 357.331 -2.00674 2.52844 0
M  V30 3619 H 356.383 0.0499523 3.80367 0
M  V30 3620 H 357.695 -0.153946 4.98562 0
M  V30 3621 H 356.849 -2.43987 5.55478 0
M  V30 3622 H 355.588 -2.30757 4.29654 0
M  V30 3623 H 354.593 -0.334446 5.48782 0
M  V30 3624 H 355.818 -0.487636 6.77347 0
M  V30 3625 H 353.764 -2.60205 6.02187 0
M  V30 3626 H 353.681 -1.55279 7.39881 0
M  V30 3627 H 354.949 -2.73772 7.29842 0
M  V30 3628 N 359.178 -1.55987 0.224894 0
M  V30 3629 C 360.589 -1.84553 -0.282345 0
M  V30 3630 C 360.94 -1.14634 -1.59227 0
M  V30 3631 O 360.065 -0.417155 -2.12341 0
M  V30 3632 C 360.66 -3.348 -0.519062 0
M  V30 3633 C 359.219 -3.63671 -0.970604 0
M  V30 3634 C 358.366 -2.77277 -0.0355261 0
M  V30 3635 H 361.317 -1.52245 0.448006 0
M  V30 3636 H 361.338 -3.55187 -1.36463 0
M  V30 3637 H 360.85 -3.8566 0.43449 0
M  V30 3638 H 358.951 -3.1827 -1.9374 0
M  V30 3639 H 359.064 -4.71631 -0.842698 0
M  V30 3640 H 357.428 -2.48846 -0.542927 0
M  V30 3641 H 358.211 -3.30937 0.913003 0
M  V30 3642 N 360.656 0.0484629 -1.57525 0
M  V30 3643 C 361.586 1.0549 -2.08313 0
M  V30 3644 C 362.567 1.38929 -0.981463 0
M  V30 3645 O 363.752 1.48151 -1.25558 0
M  V30 3646 C 360.882 2.36162 -2.54646 0
M  V30 3647 C 359.836 2.17016 -3.68901 0
M  V30 3648 C 359.162 3.53278 -4.01371 0
M  V30 3649 C 360.462 1.57219 -4.98076 0
M  V30 3650 H 362.156 0.632195 -2.92649 0
M  V30 3651 H 359.702 0.302654 -1.40784 0
M  V30 3652 H 361.655 3.06882 -2.88793 0
M  V30 3653 H 360.379 2.80456 -1.67368 0
M  V30 3654 H 359.038 1.48733 -3.35073 0
M  V30 3655 H 358.686 3.95185 -3.11188 0
M  V30 3656 H 358.386 3.41299 -4.78318 0
M  V30 3657 H 359.91 4.25391 -4.38035 0
M  V30 3658 H 361.324 2.17832 -5.30304 0
M  V30 3659 H 359.721 1.55871 -5.79503 0
M  V30 3660 H 360.791 0.535956 -4.81929 0
M  V30 3661 N 362.134 1.5431 0.320358 0
M  V30 3662 C 363.545 1.63872 0.894594 0
M  V30 3663 C 363.896 0.534847 1.88769 0
M  V30 3664 O 363.021 -0.331732 2.13842 0
M  V30 3665 C 363.616 2.97049 1.62934 0
M  V30 3666 C 362.175 3.08796 2.15226 0
M  V30 3667 C 361.322 2.59456 0.978671 0
M  V30 3668 H 364.273 1.58398 0.0978544 0
M  V30 3669 H 364.294 2.87388 2.49376 0
M  V30 3670 H 363.806 3.7737 0.906302 0
M  V30 3671 H 361.907 2.33156 2.90636 0
M  V30 3672 H 362.02 4.14649 2.40006 0
M  V30 3673 H 360.384 2.1543 1.35875 0
M  V30 3674 H 361.167 3.42237 0.269895 0
M  V30 3675 N 363.613 -0.582584 1.46437 0
M  V30 3676 C 364.859 -1.34278 1.51978 0
M  V30 3677 C 365.192 -1.93446 0.170973 0
M  V30 3678 O 364.467 -1.76481 -0.817608 0
M  V30 3679 C 364.75 -2.47203 2.61845 0
M  V30 3680 C 364.603 -1.93069 4.06257 0
M  V30 3681 C 365.922 -3.49247 2.67795 0
M  V30 3682 H 363.041 -0.486876 0.553282 0
M  V30 3683 H 365.683 -0.654437 1.78374 0
M  V30 3684 H 363.833 -3.0592 2.39469 0
M  V30 3685 H 365.505 -1.38808 4.3992 0
M  V30 3686 H 363.748 -1.23898 4.1573 0
M  V30 3687 H 364.419 -2.74586 4.7886 0
M  V30 3688 H 366.895 -3.00411 2.8791 0
M  V30 3689 H 365.771 -4.25719 3.46489 0
M  V30 3690 H 366.032 -4.06482 1.73852 0
M  V30 3691 N 365.091 -1.34144 -0.827227 0
M  V30 3692 C 366.319 -1.29325 -1.61501 0
M  V30 3693 C 366.734 0.13354 -1.88327 0
M  V30 3694 O 366.091 1.0793 -1.47164 0
M  V30 3695 C 366.142 -2.07746 -2.95844 0
M  V30 3696 O 365.863 -3.4486 -2.70191 0
M  V30 3697 C 367.364 -2.10273 -3.90256 0
M  V30 3698 H 364.584 -0.445069 -0.50215 0
M  V30 3699 H 367.128 -1.76693 -1.02955 0
M  V30 3700 H 365.283 -1.6403 -3.5096 0
M  V30 3701 H 365.697 -3.85345 -3.55822 0
M  V30 3702 H 367.171 -2.69575 -4.81698 0
M  V30 3703 H 367.648 -1.096 -4.25305 0
M  V30 3704 H 368.254 -2.54059 -3.41078 0
M  V30 3705 N 366.569 1.04691 -1.17803 0
M  V30 3706 C 367.532 2.10724 -0.901545 0
M  V30 3707 C 368.532 1.6042 0.110437 0
M  V30 3708 O 369.722 1.7377 -0.122303 0
M  V30 3709 C 366.854 3.39084 -0.351409 0
M  V30 3710 H 368.047 2.36686 -1.84174 0
M  V30 3711 H 365.6 1.21015 -0.98919 0
M  V30 3712 H 366.335 3.18782 0.59569 0
M  V30 3713 H 366.12 3.76909 -1.08083 0
M  V30 3714 H 367.61 4.17227 -0.176451 0
M  V30 3715 N 368.047 0.979072 1.23499 0
M  V30 3716 C 369.324 0.563674 1.87302 0
M  V30 3717 C 369.704 -0.959199 1.88049 0
M  V30 3718 O 369.052 -1.83535 1.36114 0
M  V30 3719 C 369.262 1.16822 3.28867 0
M  V30 3720 C 370.61 1.26014 4.0547 0
M  V30 3721 O 371.634 1.12158 3.38082 0
M  V30 3722 O 370.493 1.48044 5.26066 0
M  V30 3723 H 367.587 0.189602 0.804972 0
M  V30 3724 H 370.133 1.07407 1.31384 0
M  V30 3725 H 368.905 2.21049 3.22883 0
M  V30 3726 H 368.528 0.642564 3.92373 0
M  V30 3727 N 369.525 -1.3858 0.750561 0
M  V30 3728 C 370.771 -2.00481 0.305825 0
M  V30 3729 C 371.104 -1.5944 -1.10872 0
M  V30 3730 O 370.379 -0.83052 -1.75877 0
M  V30 3731 C 370.662 -3.5758 0.425287 0
M  V30 3732 C 370.515 -4.08594 1.88072 0
M  V30 3733 C 371.834 -4.39719 -0.183122 0
M  V30 3734 H 368.953 -0.728348 0.112598 0
M  V30 3735 H 371.595 -1.64566 0.949638 0
M  V30 3736 H 369.745 -3.88306 -0.122828 0
M  V30 3737 H 371.417 -3.88523 2.48691 0
M  V30 3738 H 369.66 -3.61574 2.39681 0
M  V30 3739 H 370.331 -5.177 1.91548 0
M  V30 3740 H 372.807 -4.15128 0.284303 0
M  V30 3741 H 371.683 -5.48856 -0.0692757 0
M  V30 3742 H 371.944 -4.23434 -1.27106 0
M  V30 3743 N 371.003 -0.499398 -1.49478 0
M  V30 3744 C 372.249 0.0457576 -2.02748 0
M  V30 3745 C 372.582 1.36793 -1.37846 0
M  V30 3746 O 371.857 1.87596 -0.513601 0
M  V30 3747 C 372.14 0.199986 -3.59544 0
M  V30 3748 C 371.993 -1.1452 -4.34977 0
M  V30 3749 C 373.312 0.94137 -4.29914 0
M  V30 3750 H 370.431 0.0151552 -0.736844 0
M  V30 3751 H 373.073 -0.650498 -1.78518 0
M  V30 3752 H 371.223 0.793007 -3.8032 0
M  V30 3753 H 372.895 -1.77697 -4.25701 0
M  V30 3754 H 371.138 -1.73488 -3.97598 0
M  V30 3755 H 371.809 -0.990607 -5.43039 0
M  V30 3756 H 374.285 0.43844 -4.13784 0
M  V30 3757 H 373.161 1.01812 -5.39375 0
M  V30 3758 H 373.422 1.98471 -3.95046 0
M  V30 3759 N 372.481 1.55866 -0.233164 0
M  V30 3760 C 373.411 2.23783 0.666599 0
M  V30 3761 C 374.392 1.21343 1.19205 0
M  V30 3762 O 375.577 1.4996 1.23392 0
M  V30 3763 C 372.707 2.92671 1.86978 0
M  V30 3764 C 371.661 4.01682 1.47768 0
M  V30 3765 C 370.987 4.57926 2.76058 0
M  V30 3766 C 372.287 5.18126 0.658993 0
M  V30 3767 H 373.981 2.99232 0.100306 0
M  V30 3768 H 371.527 1.43924 0.046804 0
M  V30 3769 H 373.48 3.3888 2.50476 0
M  V30 3770 H 372.204 2.14688 2.46123 0
M  V30 3771 H 370.863 3.56222 0.866106 0
M  V30 3772 H 370.511 3.76659 3.33372 0
M  V30 3773 H 370.211 5.31505 2.50552 0
M  V30 3774 H 371.735 5.06859 3.40479 0
M  V30 3775 H 373.149 5.60644 1.19795 0
M  V30 3776 H 371.546 5.98009 0.500552 0
M  V30 3777 H 372.616 4.83763 -0.331856 0
M  V30 3778 N 373.959 -0.0401083 1.57549 0
M  V30 3779 C 374.889 -1.04384 2.08869 0
M  V30 3780 C 375.87 -1.38407 0.988817 0
M  V30 3781 O 377.055 -1.47483 1.26342 0
M  V30 3782 C 374.185 -2.34808 2.55895 0
M  V30 3783 C 373.139 -2.15057 3.70047 0
M  V30 3784 C 372.465 -3.51145 4.03239 0
M  V30 3785 C 373.765 -1.54576 4.98902 0
M  V30 3786 H 375.459 -0.616666 2.92981 0
M  V30 3787 H 373.005 -0.295184 1.40942 0
M  V30 3788 H 374.958 -3.05346 2.90417 0
M  V30 3789 H 373.682 -2.79565 1.68853 0
M  V30 3790 H 372.341 -1.46954 3.35857 0
M  V30 3791 H 371.989 -3.93529 3.13279 0
M  V30 3792 H 371.689 -3.38758 4.80122 0
M  V30 3793 H 373.213 -4.23062 4.40285 0
M  V30 3794 H 374.627 -2.15017 5.31451 0
M  V30 3795 H 373.024 -1.52796 5.80322 0
M  V30 3796 H 374.094 -0.51039 4.82206 0
M  V30 3797 N 375.437 -1.54477 -0.31217 0
M  V30 3798 C 376.662 -1.77526 -1.07235 0
M  V30 3799 C 377.087 -0.527775 -1.80544 0
M  V30 3800 O 376.445 0.52121 -1.73646 0
M  V30 3801 C 376.493 -2.97535 -2.03728 0
M  V30 3802 O 375.597 -2.69878 -3.11833 0
M  V30 3803 H 374.938 -0.58792 -0.30862 0
M  V30 3804 H 377.468 -2.01532 -0.352993 0
M  V30 3805 H 377.478 -3.25198 -2.46395 0
M  V30 3806 H 376.153 -3.87996 -1.49774 0
M  V30 3807 H 374.73 -2.53199 -2.7376 0
M  V30 3808 N 376.915 0.57481 -1.46744 0
M  V30 3809 C 378.162 1.33272 -1.52462 0
M  V30 3810 C 378.49 1.93669 -0.179572 0
M  V30 3811 O 377.745 1.7743 0.825664 0
M  V30 3812 C 378.044 2.476 -2.57738 0
M  V30 3813 C 377.71 2.05146 -4.01529 0
M  V30 3814 C 376.372 1.93284 -4.40676 0
M  V30 3815 C 378.724 1.72506 -4.91824 0
M  V30 3816 C 376.052 1.47049 -5.67973 0
M  V30 3817 C 378.404 1.27748 -6.19567 0
M  V30 3818 C 377.068 1.14468 -6.57612 0
M  V30 3819 H 376.338 0.487678 -0.557899 0
M  V30 3820 H 378.985 0.646456 -1.80259 0
M  V30 3821 H 377.29 3.21708 -2.23632 0
M  V30 3822 H 378.987 3.05807 -2.5939 0
M  V30 3823 H 375.577 2.15316 -3.7059 0
M  V30 3824 H 379.761 1.80552 -4.62293 0
M  V30 3825 H 375.017 1.35417 -5.96215 0
M  V30 3826 H 379.191 1.01547 -6.88957 0
M  V30 3827 H 376.818 0.78419 -7.56145 0
M  V30 3828 N 378.394 1.34581 0.820102 0
M  V30 3829 C 379.64 1.27285 1.57881 0
M  V30 3830 C 379.973 -0.156137 1.93571 0
M  V30 3831 O 379.248 -1.10222 1.60254 0
M  V30 3832 C 379.531 2.16639 2.87645 0
M  V30 3833 C 379.384 3.68088 2.58517 0
M  V30 3834 C 380.703 2.05378 3.8924 0
M  V30 3835 H 377.822 0.463714 0.572833 0
M  V30 3836 H 380.464 1.64859 0.944539 0
M  V30 3837 H 378.614 1.84725 3.41773 0
M  V30 3838 H 380.286 4.10382 2.10676 0
M  V30 3839 H 378.529 3.89038 1.91917 0
M  V30 3840 H 379.2 4.2598 3.51063 0
M  V30 3841 H 381.676 2.33404 3.44473 0
M  V30 3842 H 380.552 2.7012 4.77835 0
M  V30 3843 H 380.813 1.0316 4.29896 0
M  V30 3844 N 379.872 -1.04064 1.18357 0
M  V30 3845 C 380.802 -2.14001 0.934113 0
M  V30 3846 C 381.783 -1.69616 -0.128186 0
M  V30 3847 O 382.968 -1.94185 0.0244093 0
M  V30 3848 C 380.098 -3.44253 0.459066 0
M  V30 3849 C 379.052 -4.02261 1.46185 0
M  V30 3850 C 378.378 -5.27992 0.844322 0
M  V30 3851 C 379.678 -4.38432 2.83856 0
M  V30 3852 H 381.372 -2.35127 1.85352 0
M  V30 3853 H 378.918 -1.12998 0.892604 0
M  V30 3854 H 380.871 -4.20522 0.271907 0
M  V30 3855 H 379.595 -3.22813 -0.495912 0
M  V30 3856 H 378.254 -3.28074 1.63595 0
M  V30 3857 H 377.902 -5.02862 -0.117845 0
M  V30 3858 H 377.602 -5.67765 1.51384 0
M  V30 3859 H 379.126 -6.06938 0.667693 0
M  V30 3860 H 380.54 -5.05688 2.70098 0
M  V30 3861 H 378.937 -4.89254 3.47491 0
M  V30 3862 H 380.007 -3.4826 3.37406 0
M  V30 3863 N 381.35 -0.985608 -1.22978 0
M  V30 3864 C 382.28 -0.549649 -2.26939 0
M  V30 3865 C 383.261 0.419803 -1.64838 0
M  V30 3866 O 384.446 0.31203 -1.91677 0
M  V30 3867 C 381.576 0.143652 -3.47003 0
M  V30 3868 C 380.53 -0.743606 -4.21491 0
M  V30 3869 C 379.856 0.0822027 -5.34637 0
M  V30 3870 C 381.156 -2.03694 -4.80943 0
M  V30 3871 H 382.85 -1.41862 -2.63658 0
M  V30 3872 H 380.396 -0.683571 -1.26741 0
M  V30 3873 H 382.349 0.459985 -4.18882 0
M  V30 3874 H 381.073 1.04711 -3.09359 0
M  V30 3875 H 379.732 -1.04347 -3.51436 0
M  V30 3876 H 379.38 0.986359 -4.93234 0
M  V30 3877 H 379.08 -0.508377 -5.85397 0
M  V30 3878 H 380.604 0.392797 -6.09335 0
M  V30 3879 H 382.018 -1.78504 -5.44802 0
M  V30 3880 H 380.415 -2.57573 -5.42011 0
M  V30 3881 H 381.485 -2.72042 -4.01399 0
M  V30 3882 N 382.828 1.3818 -0.7579 0
M  V30 3883 C 383.776 2.32277 -0.122482 0
M  V30 3884 C 384.77 1.54238 0.700505 0
M  V30 3885 O 385.976 1.69737 0.599119 0
M  V30 3886 H 382.351 0.751712 -0.0208143 0
M  V30 3887 H 384.322 2.83469 -0.932099 0
M  V30 3888 C 383.071 3.39447 0.753076 0
M  V30 3889 H 382.394 3.99591 0.129184 0
M  V30 3890 H 383.834 4.07684 1.16489 0
M  V30 3891 C 382.293 2.78375 1.8976 0
M  V30 3892 O 382.823 2.68025 2.99208 0
M  V30 3893 N 381.029 2.36121 1.69397 0
M  V30 3894 H 380.576 2.4474 0.803762 0
M  V30 3895 H 380.534 1.95602 2.46145 0
M  V30 3896 N 384.306 0.507319 1.49211 0
M  V30 3897 C 385.552 -0.0269732 2.03382 0
M  V30 3898 C 385.907 -1.34111 1.37957 0
M  V30 3899 O 385.2 -1.84733 0.508351 0
M  V30 3900 C 385.394 -0.229513 3.56662 0
M  V30 3901 C 385.223 1.06344 4.36945 0
M  V30 3902 C 383.993 1.617 4.78729 0
M  V30 3903 C 386.191 1.96833 4.75143 0
M  V30 3904 N 384.173 2.8552 5.43463 0
M  V30 3905 C 385.544 3.0523 5.39661 0
M  V30 3906 C 387.599 1.97434 4.57082 0
M  V30 3907 C 386.302 4.14265 5.88028 0
M  V30 3908 C 388.328 3.05448 5.06414 0
M  V30 3909 C 387.69 4.12564 5.70938 0
M  V30 3910 H 383.789 0.0310673 0.781383 0
M  V30 3911 H 386.373 0.683579 1.82305 0
M  V30 3912 H 384.544 -0.909127 3.7761 0
M  V30 3913 H 386.276 -0.761377 3.97473 0
M  V30 3914 H 383.031 1.16132 4.59141 0
M  V30 3915 H 383.455 3.48499 5.80412 0
M  V30 3916 H 388.097 1.15924 4.06597 0
M  V30 3917 H 385.815 4.96569 6.3753 0
M  V30 3918 H 389.401 3.06941 4.94246 0
M  V30 3919 H 388.281 4.94767 6.0842 0
M  V30 3920 N 385.784 -1.5574 0.241426 0
M  V30 3921 C 387.009 -2.0366 -0.392111 0
M  V30 3922 C 387.434 -1.11969 -1.51144 0
M  V30 3923 O 386.792 -0.111594 -1.80956 0
M  V30 3924 C 386.84 -3.49638 -0.882371 0
M  V30 3925 O 385.944 -3.6108 -1.99235 0
M  V30 3926 H 385.285 -0.658379 -0.0862122 0
M  V30 3927 H 387.815 -2.01302 0.365881 0
M  V30 3928 H 387.825 -3.90351 -1.18702 0
M  V30 3929 H 386.5 -4.15852 -0.0632361 0
M  V30 3930 H 385.077 -3.32262 -1.69282 0
M  V30 3931 N 387.262 0.0317525 -1.57568 0
M  V30 3932 C 388.539 0.758366 -1.803 0
M  V30 3933 C 388.919 1.93718 -0.838845 0
M  V30 3934 O 388.267 2.28187 0.119571 0
M  V30 3935 C 388.477 1.19392 -3.27943 0
M  V30 3936 C 389.825 1.61094 -3.92854 0
M  V30 3937 O 390.849 1.28857 -3.32076 0
M  V30 3938 O 389.708 2.20918 -4.99858 0
M  V30 3939 H 386.802 0.366514 -0.741348 0
M  V30 3940 H 389.348 0.00873765 -1.69698 0
M  V30 3941 H 388.12 0.352275 -3.89711 0
M  V30 3942 H 387.743 2.00365 -3.43424 0
M  V30 3943 N 388.74 1.54641 0.303973 0
M  V30 3944 C 389.65 1.88439 1.39743 0
M  V30 3945 C 390.666 0.778239 1.55626 0
M  V30 3946 O 391.842 1.07442 1.70347 0
M  V30 3947 C 388.907 2.12212 2.74166 0
M  V30 3948 C 387.968 3.35936 2.67293 0
M  V30 3949 C 387.201 3.58566 3.95305 0
M  V30 3950 O 387.424 2.84263 4.9452 0
M  V30 3951 O 386.358 4.52078 3.97378 0
M  V30 3952 H 390.184 2.81458 1.14083 0
M  V30 3953 H 387.769 1.40793 0.499768 0
M  V30 3954 H 389.651 2.29067 3.53704 0
M  V30 3955 H 388.326 1.22379 2.99675 0
M  V30 3956 H 387.233 3.24448 1.86237 0
M  V30 3957 H 388.566 4.2589 2.46736 0
M  V30 3958 N 390.218 -0.567019 1.47046 0
M  V30 3959 C 391.495 -1.3276 1.43646 0
M  V30 3960 C 391.875 -2.1071 0.128186 0
M  V30 3961 O 391.223 -2.10441 -0.890326 0
M  V30 3962 C 391.433 -2.2404 2.67595 0
M  V30 3963 C 392.781 -2.85372 3.14401 0
M  V30 3964 O 393.805 -2.34346 2.68254 0
M  V30 3965 O 392.664 -3.78091 3.946 0
M  V30 3966 H 389.758 -0.597293 0.571988 0
M  V30 3967 H 392.304 -0.586735 1.59234 0
M  V30 3968 H 391.076 -1.65975 3.54356 0
M  V30 3969 H 390.699 -3.05439 2.54544 0
M  V30 3970 N 391.696 -1.35014 -0.812953 0
M  V30 3971 C 392.659 -1.27292 -1.90602 0
M  V30 3972 C 393.659 -0.185817 -1.59723 0
M  V30 3973 O 394.849 -0.439102 -1.68575 0
M  V30 3974 C 391.981 -0.967676 -3.26877 0
M  V30 3975 H 393.174 -2.24479 -1.9887 0
M  V30 3976 H 390.727 -1.19446 -1.00808 0
M  V30 3977 H 391.462 0.0005954 -3.243 0
M  V30 3978 H 391.247 -1.75412 -3.50675 0
M  V30 3979 H 392.737 -0.939085 -4.06904 0
M  V30 3980 N 393.175 1.03435 -1.18907 0
M  V30 3981 C 394.105 2.13503 -0.945448 0
M  V30 3982 C 395.086 1.69682 0.119189 0
M  V30 3983 O 396.271 1.94169 -0.034707 0
M  V30 3984 C 393.401 3.44004 -0.477316 0
M  V30 3985 C 392.355 4.0148 -1.48316 0
M  V30 3986 C 391.681 5.27537 -0.872311 0
M  V30 3987 C 392.981 4.36921 -2.86177 0
M  V30 3988 H 394.675 2.34141 -1.86597 0
M  V30 3989 H 392.221 1.12523 -0.898584 0
M  V30 3990 H 394.174 4.20372 -0.294204 0
M  V30 3991 H 392.898 3.23072 0.478786 0
M  V30 3992 H 391.557 3.27201 -1.65332 0
M  V30 3993 H 391.205 5.02917 0.0911752 0
M  V30 3994 H 390.905 5.66954 -1.54393 0
M  V30 3995 H 392.429 6.06576 -0.699871 0
M  V30 3996 H 393.843 5.04248 -2.72776 0
M  V30 3997 H 392.24 4.87405 -3.50081 0
M  V30 3998 H 393.31 3.46466 -3.39248 0
M  V30 3999 N 394.653 0.992116 1.22453 0
M  V30 4000 C 395.881 0.685944 1.95198 0
M  V30 4001 C 396.296 -0.749233 1.73297 0
M  V30 4002 O 395.653 -1.50549 1.03156 0
M  V30 4003 C 395.704 0.981395 3.47924 0
M  V30 4004 O 395.425 2.36018 3.6909 0
M  V30 4005 C 396.926 0.692815 4.37853 0
M  V30 4006 H 394.146 0.253821 0.621141 0
M  V30 4007 H 396.69 1.32668 1.55626 0
M  V30 4008 H 394.845 0.386481 3.85467 0
M  V30 4009 H 395.259 2.45884 4.63294 0
M  V30 4010 H 396.733 0.949818 5.43767 0
M  V30 4011 H 397.21 -0.373181 4.37612 0
M  V30 4012 H 397.816 1.26874 4.05935 0
M  V30 4013 N 396.131 -1.37776 0.765217 0
M  V30 4014 C 397.38 -1.99092 0.323307 0
M  V30 4015 C 397.693 -1.61434 -1.10446 0
M  V30 4016 O 398.899 -2.15805 -1.64743 0
M  V30 4017 C 397.355 -3.56019 0.527098 0
M  V30 4018 C 396.963 -4.0262 1.96471 0
M  V30 4019 C 398.707 -4.2424 0.148483 0
M  V30 4020 C 396.614 -5.52233 2.11644 0
M  V30 4021 H 395.544 -0.744846 0.117137 0
M  V30 4022 H 398.195 -1.57391 0.943417 0
M  V30 4023 H 396.577 -3.95667 -0.162372 0
M  V30 4024 H 397.751 -3.74234 2.68859 0
M  V30 4025 H 396.066 -3.47161 2.29931 0
M  V30 4026 H 398.663 -5.34159 0.240456 0
M  V30 4027 H 399.006 -4.06446 -0.900422 0
M  V30 4028 H 399.539 -3.89872 0.79025 0
M  V30 4029 H 396.278 -5.74945 3.1483 0
M  V30 4030 H 395.798 -5.82324 1.4373 0
M  V30 4031 H 397.477 -6.18106 1.91193 0
M  V30 4032 N 397.609 -0.515225 -1.4894 0
M  V30 4033 C 398.539 0.244628 -2.32215 0
M  V30 4034 C 399.52 0.949136 -1.41157 0
M  V30 4035 O 400.705 0.937783 -1.70057 0
M  V30 4036 C 397.835 1.30096 -3.22013 0
M  V30 4037 C 396.789 0.715486 -4.21977 0
M  V30 4038 C 396.115 1.87339 -5.00808 0
M  V30 4039 C 397.415 -0.302982 -5.2142 0
M  V30 4040 H 399.109 -0.450501 -2.95991 0
M  V30 4041 H 396.655 -0.218098 -1.42339 0
M  V30 4042 H 398.608 1.84037 -3.79089 0
M  V30 4043 H 397.332 2.02547 -2.56207 0
M  V30 4044 H 395.991 0.197715 -3.66066 0
M  V30 4045 H 395.639 2.58592 -4.31438 0
M  V30 4046 H 395.339 1.48764 -5.68457 0
M  V30 4047 H 396.863 2.41686 -5.60732 0
M  V30 4048 H 398.277 0.148802 -5.73107 0
M  V30 4049 H 396.674 -0.60532 -5.97039 0
M  V30 4050 H 397.744 -1.21395 -4.69459 0
M  V30 4051 N 399.087 1.5561 -0.249682 0
M  V30 4052 C 400.503 1.59254 0.105103 0
M  V30 4053 C 400.703 1.26685 1.56694 0
M  V30 4054 O 399.759 1.0155 2.31179 0
M  V30 4055 C 401.072 2.99687 -0.246592 0
M  V30 4056 C 402.62 3.12416 -0.191118 0
M  V30 4057 C 403.095 4.55074 -0.516885 0
M  V30 4058 N 404.586 4.60835 -0.467489 0
M  V30 4059 C 405.321 5.69201 -0.69268 0
M  V30 4060 N 404.817 6.85817 -0.981146 0
M  V30 4061 N 406.61 5.58635 -0.623198 0
M  V30 4062 H 398.761 1.75049 -1.20298 0
M  V30 4063 H 401.024 0.815003 -0.484225 0
M  V30 4064 H 400.73 3.28267 -1.26228 0
M  V30 4065 H 400.604 3.74798 0.424962 0
M  V30 4066 H 402.991 2.83615 0.815247 0
M  V30 4067 H 403.072 2.39573 -0.896563 0
M  V30 4068 H 402.716 4.84596 -1.52082 0
M  V30 4069 H 402.646 5.26181 0.210068 0
M  V30 4070 H 405.137 3.7705 -0.253373 0
M  V30 4071 H 405.45 7.64341 -1.14032 0
M  V30 4072 H 403.795 6.87494 -1.01865 0
M  V30 4073 H 406.986 4.66406 -0.397863 0
M  V30 4074 H 407.159 6.43017 -0.802093 0
M  V30 4075 N 400.565 -0.0233959 1.57583 0
M  V30 4076 C 401.813 -0.711654 1.89156 0
M  V30 4077 C 402.134 -1.75591 0.848096 0
M  V30 4078 O 401.404 -1.95547 -0.117566 0
M  V30 4079 H 399.984 -0.265835 0.698098 0
M  V30 4080 H 402.646 0.0119948 1.94896 0
M  V30 4081 H 401.742 -1.19766 2.88206 0
M  V30 4082 N 402.043 -1.548 -0.295768 0
M  V30 4083 C 403.283 -1.76069 -1.03823 0
M  V30 4084 C 403.647 -0.537992 -1.84309 0
M  V30 4085 O 404.848 -0.628514 -2.61349 0
M  V30 4086 C 403.119 -3.01705 -1.91596 0
M  V30 4087 S 404.678 -3.43998 -2.72416 0
M  V30 4088 H 401.496 -0.618852 -0.350062 0
M  V30 4089 H 404.098 -1.93009 -0.31106 0
M  V30 4090 H 402.802 -3.88812 -1.31351 0
M  V30 4091 H 402.333 -2.87366 -2.68671 0
M  V30 4092 H 404.348 -3.0148 -3.94112 0
M  V30 4093 N 403.521 0.559213 -1.47345 0
M  V30 4094 C 404.767 1.31843 -1.54095 0
M  V30 4095 C 405.1 1.93149 -0.201726 0
M  V30 4096 O 404.375 1.77759 0.789428 0
M  V30 4097 C 404.658 2.43006 -2.65744 0
M  V30 4098 C 404.511 1.86581 -4.09277 0
M  V30 4099 C 405.83 3.44943 -2.73318 0
M  V30 4100 H 402.949 0.478012 -0.560957 0
M  V30 4101 H 405.591 0.625977 -1.79392 0
M  V30 4102 H 403.741 3.02072 -2.44305 0
M  V30 4103 H 405.413 1.31792 -4.42073 0
M  V30 4104 H 403.656 1.17268 -4.17649 0
M  V30 4105 H 404.327 2.66933 -4.83168 0
M  V30 4106 H 406.803 2.95793 -2.92653 0
M  V30 4107 H 405.679 4.20153 -3.53218 0
M  V30 4108 H 405.94 4.03665 -1.80296 0
M  V30 4109 N 404.999 1.35443 0.805782 0
M  V30 4110 C 406.415 1.15499 1.10146 0
M  V30 4111 C 406.615 -0.0319975 2.01475 0
M  V30 4112 O 405.671 -0.70236 2.42535 0
M  V30 4113 C 406.984 2.45833 1.73166 0
M  V30 4114 C 408.532 2.52047 1.85583 0
M  V30 4115 C 409.007 3.82427 2.52019 0
M  V30 4116 N 410.498 3.83682 2.59504 0
M  V30 4117 C 411.233 4.81294 3.11679 0
M  V30 4118 N 410.729 5.89294 3.64287 0
M  V30 4119 N 412.522 4.6873 3.1024 0
M  V30 4120 H 404.673 2.11469 0.198678 0
M  V30 4121 H 406.936 0.93594 0.150731 0
M  V30 4122 H 406.642 3.32874 1.13526 0
M  V30 4123 H 406.516 2.6044 2.72857 0
M  V30 4124 H 408.903 1.65435 2.44367 0
M  V30 4125 H 408.984 2.41354 0.847455 0
M  V30 4126 H 408.628 4.69437 1.93885 0
M  V30 4127 H 408.558 3.90409 3.53395 0
M  V30 4128 H 411.049 3.05648 2.22234 0
M  V30 4129 H 411.362 6.59768 4.02401 0
M  V30 4130 H 409.707 5.92985 3.62483 0
M  V30 4131 H 412.898 3.83496 2.68419 0
M  V30 4132 H 413.071 5.44965 3.50596 0
M  V30 4133 N 406.477 -1.02803 1.19454 0
M  V30 4134 C 407.44 -2.09264 0.934955 0
M  V30 4135 C 408.44 -1.60576 -0.0849015 0
M  V30 4136 O 409.63 -1.73554 0.149933 0
M  V30 4137 C 406.762 -3.38482 0.40531 0
M  V30 4138 H 407.955 -2.33726 1.87916 0
M  V30 4139 H 405.508 -1.19426 1.00832 0
M  V30 4140 H 406.243 -3.19689 -0.544899 0
M  V30 4141 H 406.028 -3.75142 1.14065 0
M  V30 4142 H 407.518 -4.16894 0.242806 0
M  V30 4143 N 407.956 -0.998596 -1.21925 0
M  V30 4144 C 408.886 -0.573688 -2.26343 0
M  V30 4145 C 409.867 0.402296 -1.65274 0
M  V30 4146 O 411.052 0.291683 -1.91997 0
M  V30 4147 C 408.182 0.106839 -3.47136 0
M  V30 4148 C 407.136 -0.788269 -4.20678 0
M  V30 4149 C 406.462 0.0254927 -5.34694 0
M  V30 4150 C 407.762 -2.08784 -4.78755 0
M  V30 4151 H 409.456 -1.44651 -2.62138 0
M  V30 4152 H 407.002 -0.696975 -1.26009 0
M  V30 4153 H 408.955 0.415531 -4.19346 0
M  V30 4154 H 407.679 1.01424 -3.10452 0
M  V30 4155 H 406.338 -1.08069 -3.50309 0
M  V30 4156 H 405.986 0.933989 -4.94253 0
M  V30 4157 H 405.686 -0.570437 -5.84825 0
M  V30 4158 H 407.21 0.328147 -6.09718 0
M  V30 4159 H 408.624 -1.84272 -5.42878 0
M  V30 4160 H 407.021 -2.63307 -5.39249 0
M  V30 4161 H 408.091 -2.76284 -3.98491 0
M  V30 4162 N 409.434 1.37368 -0.772513 0
M  V30 4163 C 410.344 2.34053 -0.160081 0
M  V30 4164 C 411.36 1.60216 0.678728 0
M  V30 4165 O 412.536 1.92303 0.59847 0
M  V30 4166 C 409.601 3.3939 0.708182 0
M  V30 4167 C 408.662 4.29048 -0.147172 0
M  V30 4168 C 407.895 5.29354 0.679744 0
M  V30 4169 O 408.118 5.3723 1.91678 0
M  V30 4170 O 407.052 6.01835 0.0885444 0
M  V30 4171 H 410.878 2.88159 -0.959053 0
M  V30 4172 H 408.463 1.39543 -0.533685 0
M  V30 4173 H 410.345 4.03839 1.20384 0
M  V30 4174 H 409.02 2.8761 1.48533 0
M  V30 4175 H 407.927 3.67697 -0.689205 0
M  V30 4176 H 409.26 4.84134 -0.887423 0
M  V30 4177 N 410.912 0.523116 1.48665 0
M  V30 4178 C 412.323 0.0808997 1.86525 0
M  V30 4179 C 412.674 -1.33975 1.43336 0
M  V30 4180 O 411.799 -2.00221 0.821009 0
M  V30 4181 C 412.394 0.140037 3.3851 0
M  V30 4182 C 410.953 -0.246948 3.75589 0
M  V30 4183 C 410.1 0.502845 2.72703 0
M  V30 4184 H 413.051 0.734736 1.40667 0
M  V30 4185 H 413.072 -0.649945 3.74908 0
M  V30 4186 H 412.584 1.17412 3.69914 0
M  V30 4187 H 410.685 -1.28343 3.49798 0
M  V30 4188 H 410.798 0.0878859 4.79019 0
M  V30 4189 H 409.162 -0.0500581 2.54651 0
M  V30 4190 H 409.945 1.53743 3.0695 0
M  V30 4191 N 412.39 -1.55475 0.257931 0
M  V30 4192 C 413.638 -1.98813 -0.363009 0
M  V30 4193 C 413.959 -1.14757 -1.57657 0
M  V30 4194 O 413.229 -0.232956 -1.9451 0
M  V30 4195 H 411.809 -0.734308 -0.137113 0
M  V30 4196 H 414.471 -1.9156 0.359281 0
M  V30 4197 H 413.567 -3.04941 -0.664634 0
M  V30 4198 N 413.868 0.0150385 -1.57593 0
M  V30 4199 C 415.116 0.701613 -1.8953 0
M  V30 4200 C 415.437 1.75139 -0.857396 0
M  V30 4201 O 414.707 1.95607 0.107194 0
M  V30 4202 H 413.287 0.26213 -0.699498 0
M  V30 4203 H 415.949 -0.0223304 -1.94887 0
M  V30 4204 H 415.045 1.18236 -2.88837 0
M  V30 4205 N 415.346 1.54954 0.287554 0
M  V30 4206 C 416.762 1.46469 0.633964 0
M  V30 4207 C 416.962 0.666865 1.90145 0
M  V30 4208 O 416.018 0.179906 2.51858 0
M  V30 4209 C 417.331 2.90556 0.774454 0
M  V30 4210 C 418.879 3.00681 0.869462 0
M  V30 4211 C 419.354 4.45993 1.04184 0
M  V30 4212 N 420.845 4.4976 1.10772 0
M  V30 4213 C 421.58 5.59393 1.25964 0
M  V30 4214 N 421.076 6.78923 1.37968 0
M  V30 4215 N 422.869 5.47107 1.28959 0
M  V30 4216 H 415.02 2.05288 -0.545041 0
M  V30 4217 H 417.283 0.930305 -0.182308 0
M  V30 4218 H 416.989 3.51594 -0.086207 0
M  V30 4219 H 416.863 3.38743 1.6593 0
M  V30 4220 H 419.25 2.39749 1.7206 0
M  V30 4221 H 419.331 2.55769 -0.0396831 0
M  V30 4222 H 418.975 5.07524 0.195422 0
M  V30 4223 H 418.905 4.88548 1.96542 0
M  V30 4224 H 421.396 3.63651 1.02794 0
M  V30 4225 H 421.709 7.58231 1.49353 0
M  V30 4226 H 420.054 6.81763 1.34999 0
M  V30 4227 H 423.245 4.52668 1.19202 0
M  V30 4228 H 423.418 6.32595 1.40455 0
M  V30 4229 N 416.824 -0.551391 1.4764 0
M  V30 4230 C 417.754 -1.66757 1.63445 0
M  V30 4231 C 418.735 -1.63077 0.483742 0
M  V30 4232 O 419.92 -1.80607 0.71377 0
M  V30 4233 C 417.05 -3.05387 1.65396 0
M  V30 4234 C 416.004 -3.23918 2.79752 0
M  V30 4235 C 415.33 -4.63393 2.66779 0
M  V30 4236 C 416.63 -3.08735 4.21284 0
M  V30 4237 H 418.324 -1.53786 2.56886 0
M  V30 4238 H 415.87 -0.738415 1.23626 0
M  V30 4239 H 417.823 -3.83325 1.75043 0
M  V30 4240 H 416.547 -3.19332 0.685195 0
M  V30 4241 H 415.206 -2.48391 2.69625 0
M  V30 4242 H 414.854 -4.74144 1.67918 0
M  V30 4243 H 414.554 -4.7674 3.43501 0
M  V30 4244 H 416.078 -5.43458 2.78364 0
M  V30 4245 H 417.492 -3.76484 4.32357 0
M  V30 4246 H 415.889 -3.33588 4.98838 0
M  V30 4247 H 416.959 -2.0541 4.39243 0
M  V30 4248 N 418.302 -1.35869 -0.798587 0
M  V30 4249 C 419.232 -1.32118 -1.92528 0
M  V30 4250 C 420.213 -0.194209 -1.68988 0
M  V30 4251 O 421.398 -0.390426 -1.90235 0
M  V30 4252 C 418.528 -1.10047 -3.29404 0
M  V30 4253 C 417.482 -2.19471 -3.67446 0
M  V30 4254 C 416.808 -1.82555 -5.02571 0
M  V30 4255 C 418.108 -3.61495 -3.76987 0
M  V30 4256 H 419.802 -2.26394 -1.95924 0
M  V30 4257 H 417.348 -1.08981 -0.94123 0
M  V30 4258 H 419.301 -1.06061 -4.07835 0
M  V30 4259 H 418.025 -0.122195 -3.26371 0
M  V30 4260 H 416.684 -2.22568 -2.91306 0
M  V30 4261 H 416.332 -0.833249 -4.9605 0
M  V30 4262 H 416.032 -2.5581 -5.28995 0
M  V30 4263 H 417.556 -1.80108 -5.83432 0
M  V30 4264 H 418.97 -3.60676 -4.4563 0
M  V30 4265 H 417.367 -4.33577 -4.14887 0
M  V30 4266 H 418.437 -3.97065 -2.78329 0
M  V30 4267 N 419.78 1.02168 -1.19998 0
M  V30 4268 C 421.026 1.75945 -1.00852 0
M  V30 4269 C 421.359 1.88702 0.458828 0
M  V30 4270 O 420.634 1.40911 1.34069 0
M  V30 4271 C 420.917 3.18154 -1.68671 0
M  V30 4272 C 420.77 3.13224 -3.22817 0
M  V30 4273 C 422.089 4.16711 -1.41561 0
M  V30 4274 H 419.208 0.638673 -0.367785 0
M  V30 4275 H 421.85 1.19222 -1.4794 0
M  V30 4276 H 420 3.66586 -1.28636 0
M  V30 4277 H 421.672 2.72635 -3.72112 0
M  V30 4278 H 419.915 2.50751 -3.53986 0
M  V30 4279 H 420.586 4.13728 -3.65422 0
M  V30 4280 H 423.062 3.76913 -1.76284 0
M  V30 4281 H 421.938 5.14391 -1.91553 0
M  V30 4282 H 422.199 4.40774 -0.342193 0
M  V30 4283 N 421.258 1.00505 1.21394 0
M  V30 4284 C 422.188 0.585684 2.26035 0
M  V30 4285 C 423.169 -0.393525 1.65485 0
M  V30 4286 O 424.354 -0.281497 1.92149 0
M  V30 4287 C 421.484 -0.0884283 3.47187 0
M  V30 4288 C 420.438 0.810567 4.20254 0
M  V30 4289 C 419.764 0.00286382 5.347 0
M  V30 4290 C 421.064 2.1132 4.77641 0
M  V30 4291 H 422.758 1.46039 2.61368 0
M  V30 4292 H 420.304 0.703648 1.25638 0
M  V30 4293 H 422.257 -0.393286 4.19561 0
M  V30 4294 H 420.981 -0.997766 3.10986 0
M  V30 4295 H 419.64 1.09925 3.49731 0
M  V30 4296 H 419.288 -0.907765 4.94741 0
M  V30 4297 H 418.988 0.601444 5.84514 0
M  V30 4298 H 420.512 -0.295808 6.09883 0
M  V30 4299 H 421.926 1.87148 5.41893 0
M  V30 4300 H 420.323 2.66164 5.37845 0
M  V30 4301 H 421.393 2.78393 3.9702 0
M  V30 4302 N 422.737 -1.36956 0.779787 0
M  V30 4303 C 424.014 -1.93697 0.272156 0
M  V30 4304 C 424.394 -1.71267 -1.23413 0
M  V30 4305 O 423.742 -1.06607 -2.02107 0
M  V30 4306 C 423.952 -3.42812 0.654291 0
M  V30 4307 C 425.3 -4.19921 0.628602 0
M  V30 4308 O 426.324 -3.51209 0.594172 0
M  V30 4309 O 425.183 -5.42465 0.662864 0
M  V30 4310 H 422.277 -0.824447 0.0649286 0
M  V30 4311 H 424.823 -1.46196 0.861682 0
M  V30 4312 H 423.595 -3.52754 1.69353 0
M  V30 4313 H 423.218 -3.97582 0.0381369 0
M  V30 4314 N 424.215 -0.530993 -1.48385 0
M  V30 4315 C 425.631 -0.188919 -1.58478 0
M  V30 4316 C 425.831 1.30786 -1.53288 0
M  V30 4317 O 424.887 2.08619 -1.42248 0
M  V30 4318 C 426.2 -0.792343 -2.90073 0
M  V30 4319 C 427.748 -0.76117 -3.03604 0
M  V30 4320 C 428.223 -1.34319 -4.37861 0
M  V30 4321 N 429.714 -1.3052 -4.44431 0
M  V30 4322 C 430.449 -1.72543 -5.46824 0
M  V30 4323 N 429.945 -2.22299 -6.56167 0
M  V30 4324 N 431.738 -1.63773 -5.37712 0
M  V30 4325 H 423.889 -1.50377 -1.50002 0
M  V30 4326 H 426.152 -0.625559 -0.712306 0
M  V30 4327 H 425.858 -1.84323 -2.99529 0
M  V30 4328 H 425.732 -0.270026 -3.76232 0
M  V30 4329 H 428.119 0.280957 -2.93759 0
M  V30 4330 H 428.2 -1.32097 -2.19053 0
M  V30 4331 H 427.844 -2.38425 -4.4846 0
M  V30 4332 H 427.774 -0.759064 -5.21101 0
M  V30 4333 H 430.265 -0.940973 -3.65997 0
M  V30 4334 H 430.578 -2.52356 -7.30436 0
M  V30 4335 H 428.923 -2.26293 -6.57127 0
M  V30 4336 H 432.114 -1.24698 -4.51185 0
M  V30 4337 H 432.287 -1.96844 -6.17379 0
M  V30 4338 N 425.693 1.55336 -0.266172 0
M  V30 4339 C 426.656 2.20878 0.612001 0
M  V30 4340 C 427.656 1.18388 1.08816 0
M  V30 4341 O 428.846 1.4335 0.989774 0
M  V30 4342 C 425.978 2.86765 1.84332 0
M  V30 4343 H 427.171 2.99873 0.0398718 0
M  V30 4344 H 424.724 1.56291 -0.0167309 0
M  V30 4345 H 425.459 2.11759 2.45619 0
M  V30 4346 H 425.244 3.61862 1.5099 0
M  V30 4347 H 426.734 3.36867 2.46801 0
M  V30 4348 N 427.171 -0.0066808 1.57599 0
M  V30 4349 C 428.448 -0.729586 1.81484 0
M  V30 4350 C 428.828 -1.92359 0.869558 0
M  V30 4351 O 428.176 -2.28348 -0.0832533 0
M  V30 4352 C 428.386 -1.1416 3.29801 0
M  V30 4353 C 429.734 -1.54823 3.95367 0
M  V30 4354 O 430.758 -1.23558 3.34084 0
M  V30 4355 O 429.617 -2.12937 5.03309 0
M  V30 4356 H 426.711 -0.354674 0.747085 0
M  V30 4357 H 429.257 0.0182609 1.6969 0
M  V30 4358 H 428.029 -0.290231 3.90222 0
M  V30 4359 H 427.652 -1.94876 3.46568 0
M  V30 4360 N 428.649 -1.55105 -0.279332 0
M  V30 4361 C 429.895 -1.75672 -1.01327 0
M  V30 4362 C 430.228 -0.552739 -1.86168 0
M  V30 4363 O 429.503 0.449827 -1.89227 0
M  V30 4364 C 429.786 -3.05825 -1.90114 0
M  V30 4365 C 429.639 -4.36565 -1.08309 0
M  V30 4366 C 430.958 -3.31975 -2.8893 0
M  V30 4367 H 428.077 -0.639149 -0.366957 0
M  V30 4368 H 430.719 -1.87833 -0.286154 0
M  V30 4369 H 428.869 -2.95588 -2.52111 0
M  V30 4370 H 430.541 -4.58751 -0.484314 0
M  V30 4371 H 428.784 -4.32076 -0.386362 0
M  V30 4372 H 429.455 -5.23946 -1.73737 0
M  V30 4373 H 431.931 -3.41963 -2.37067 0
M  V30 4374 H 430.807 -4.2432 -3.48201 0
M  V30 4375 H 431.068 -2.51309 -3.63725 0
M  V30 4376 N 430.127 0.543554 -1.4793 0
M  V30 4377 C 431.037 1.67657 -1.64098 0
M  V30 4378 C 432.053 1.65934 -0.523622 0
M  V30 4379 O 433.229 1.85133 -0.792943 0
M  V30 4380 C 430.294 3.04146 -1.66421 0
M  V30 4381 C 429.355 3.16831 -2.89684 0
M  V30 4382 C 428.588 4.46809 -2.91886 0
M  V30 4383 O 428.811 5.33095 -2.02895 0
M  V30 4384 O 427.745 4.63573 -3.83906 0
M  V30 4385 H 431.571 1.56957 -2.59997 0
M  V30 4386 H 429.156 0.715116 -1.31173 0
M  V30 4387 H 431.038 3.85346 -1.70548 0
M  V30 4388 H 429.713 3.152 -0.736923 0
M  V30 4389 H 428.62 2.34977 -2.91095 0
M  V30 4390 H 429.953 3.10687 -3.81752 0
M  V30 4391 N 431.605 1.3629 0.791371 0
M  V30 4392 C 432.853 1.30154 1.5461 0
M  V30 4393 C 433.174 -0.119409 1.94634 0
M  V30 4394 O 432.444 -1.05924 1.64794 0
M  V30 4395 H 431.024 0.478784 0.573389 0
M  V30 4396 H 433.686 1.70565 0.94306 0
M  V30 4397 H 432.782 1.92762 2.45457 0
M  V30 4398 N 433.083 -1.0153 1.20538 0
M  V30 4399 C 434.36 -1.72327 0.925343 0
M  V30 4400 C 434.74 -2.03383 -0.565547 0
M  V30 4401 O 434.088 -1.69934 -1.52757 0
M  V30 4402 C 434.298 -2.9902 1.79967 0
M  V30 4403 C 435.646 -3.72258 2.04228 0
M  V30 4404 O 436.67 -3.08979 1.77231 0
M  V30 4405 O 435.529 -4.86053 2.4983 0
M  V30 4406 H 432.623 -0.751099 0.346092 0
M  V30 4407 H 435.169 -1.07366 1.31417 0
M  V30 4408 H 433.941 -2.72402 2.80915 0
M  V30 4409 H 433.564 -3.71721 1.41099 0
M  V30 4410 N 434.561 -1.01147 -1.20859 0
M  V30 4411 C 435.809 -0.696486 -1.89719 0
M  V30 4412 C 436.13 0.775788 -1.78904 0
M  V30 4413 O 435.4 1.55759 -1.18811 0
M  V30 4414 H 433.98 -0.254628 -0.702263 0
M  V30 4415 H 436.642 -1.28197 -1.46804 0
M  V30 4416 H 435.738 -0.975357 -2.96468 0
M  V30 4417 N 436.039 1.36541 -0.78704 0
M  V30 4418 C 437.002 2.28413 -0.189778 0
M  V30 4419 C 438.002 1.48719 0.611499 0
M  V30 4420 O 439.192 1.68737 0.432842 0
M  V30 4421 C 436.324 3.32824 0.737638 0
M  V30 4422 H 437.517 2.82743 -0.999831 0
M  V30 4423 H 435.07 1.46065 -0.556298 0
M  V30 4424 H 435.805 2.83646 1.57212 0
M  V30 4425 H 435.59 3.91752 0.165044 0
M  V30 4426 H 437.08 4.0144 1.15047 0
M  V30 4427 N 437.518 0.538854 1.48102 0
M  V30 4428 C 438.795 -0.0568108 1.95517 0
M  V30 4429 C 439.175 -1.50408 1.48124 0
M  V30 4430 O 438.523 -2.17133 0.711727 0
M  V30 4431 C 438.733 0.0696262 3.48931 0
M  V30 4432 C 440.081 -0.0851202 4.24515 0
M  V30 4433 O 441.105 -0.0037347 3.562 0
M  V30 4434 O 439.964 -0.257025 5.45895 0
M  V30 4435 H 437.058 -0.0743695 0.823649 0
M  V30 4436 H 439.604 0.604081 1.58584 0
M  V30 4437 H 438.376 1.07744 3.76174 0
M  V30 4438 H 437.999 -0.629714 3.92582 0
M  V30 4439 N 438.996 -1.55193 0.274407 0
M  V30 4440 C 440.412 -1.59401 -0.0797543 0
M  V30 4441 C 440.612 -1.29162 -1.54659 0
M  V30 4442 O 439.668 -1.05215 -2.29534 0
M  V30 4443 C 440.981 -2.99257 0.294238 0
M  V30 4444 C 442.529 -3.12072 0.240796 0
M  V30 4445 C 443.004 -4.54194 0.589218 0
M  V30 4446 N 444.495 -4.60033 0.540744 0
M  V30 4447 C 445.23 -5.68027 0.783147 0
M  V30 4448 N 444.726 -6.8417 1.09013 0
M  V30 4449 N 446.519 -5.57572 0.711993 0
M  V30 4450 H 438.67 -1.73113 1.23067 0
M  V30 4451 H 440.933 -0.807197 0.497129 0
M  V30 4452 H 440.639 -3.26217 1.31435 0
M  V30 4453 H 440.513 -3.75427 -0.365281 0
M  V30 4454 H 442.9 -2.84877 -0.770024 0
M  V30 4455 H 442.981 -2.38117 0.934563 0
M  V30 4456 H 442.625 -4.82115 1.59772 0
M  V30 4457 H 442.555 -5.26448 -0.126331 0
M  V30 4458 H 445.046 -3.76599 0.313327 0
M  V30 4459 H 445.359 -7.6243 1.26178 0
M  V30 4460 H 443.704 -6.85787 1.12789 0
M  V30 4461 H 446.895 -4.65714 0.472014 0
M  V30 4462 H 447.068 -6.41659 0.90429 0
M  V30 4463 N 440.474 -0.00167713 -1.576 0
M  V30 4464 C 441.721 0.68282 -1.90641 0
M  V30 4465 C 442.049 1.73686 -0.875415 0
M  V30 4466 O 441.304 1.95334 0.119575 0
M  V30 4467 C 441.603 1.36189 -3.30435 0
M  V30 4468 C 441.269 0.440887 -4.48739 0
M  V30 4469 C 439.931 0.187312 -4.80835 0
M  V30 4470 C 442.283 -0.193134 -5.20842 0
M  V30 4471 C 439.611 -0.70855 -5.82406 0
M  V30 4472 C 441.963 -1.07688 -6.23367 0
M  V30 4473 C 440.627 -1.33962 -6.53919 0
M  V30 4474 H 439.897 0.249862 -0.697603 0
M  V30 4475 H 442.544 -0.0575642 -1.91413 0
M  V30 4476 H 440.849 2.17636 -3.25794 0
M  V30 4477 H 442.546 1.89759 -3.5326 0
M  V30 4478 H 439.136 0.648694 -4.23663 0
M  V30 4479 H 443.32 -0.0102445 -4.96299 0
M  V30 4480 H 438.576 -0.920097 -6.04437 0
M  V30 4481 H 442.75 -1.57451 -6.78367 0
M  V30 4482 H 440.377 -2.03549 -7.32442 0
M  V30 4483 N 441.952 1.55251 0.271103 0
M  V30 4484 C 443.199 1.75946 1.00245 0
M  V30 4485 C 443.527 0.561611 1.86215 0
M  V30 4486 O 442.782 -0.455832 1.90317 0
M  V30 4487 C 443.081 3.01879 1.91321 0
M  V30 4488 C 442.747 4.34337 1.21086 0
M  V30 4489 C 441.409 4.70338 1.01666 0
M  V30 4490 C 443.761 5.16325 0.71119 0
M  V30 4491 C 441.089 5.8588 0.310099 0
M  V30 4492 C 443.441 6.32597 0.0182157 0
M  V30 4493 C 442.105 6.67236 -0.18768 0
M  V30 4494 H 441.375 0.643833 0.366824 0
M  V30 4495 H 444.022 1.89521 0.27458 0
M  V30 4496 H 442.327 2.83212 2.70736 0
M  V30 4497 H 444.024 3.15088 2.48033 0
M  V30 4498 H 440.614 4.06043 1.37213 0
M  V30 4499 H 444.798 4.88987 0.848844 0
M  V30 4500 H 440.054 6.1124 0.139873 0
M  V30 4501 H 444.228 6.9538 -0.376711 0
M  V30 4502 H 441.855 7.56618 -0.73715 0
M  V30 4503 N 443.43 -0.535701 1.48216 0
M  V30 4504 C 444.655 -1.32149 1.59848 0
M  V30 4505 C 445.08 -1.86338 0.256842 0
M  V30 4506 O 444.438 -1.64107 -0.770632 0
M  V30 4507 C 444.486 -2.45224 2.64381 0
M  V30 4508 O 443.59 -3.48093 2.21144 0
M  V30 4509 H 442.931 -0.391634 0.536208 0
M  V30 4510 H 445.461 -0.645202 1.94161 0
M  V30 4511 H 445.471 -2.91491 2.85476 0
M  V30 4512 H 444.146 -2.05143 3.61786 0
M  V30 4513 H 442.723 -3.07984 2.10239 0
M  V30 4514 N 444.908 -1.36708 -0.784132 0
M  V30 4515 C 446.136 -1.34398 -1.57305 0
M  V30 4516 C 446.551 0.0735577 -1.88657 0
M  V30 4517 O 445.908 1.03193 -1.50524 0
M  V30 4518 C 445.959 -2.17053 -2.89085 0
M  V30 4519 O 445.68 -3.53281 -2.59083 0
M  V30 4520 C 447.181 -2.22583 -3.83369 0
M  V30 4521 H 444.401 -0.460819 -0.487736 0
M  V30 4522 H 446.945 -1.79879 -0.972819 0
M  V30 4523 H 445.1 -1.75113 -3.45564 0
M  V30 4524 H 445.514 -3.9647 -3.43383 0
M  V30 4525 H 446.988 -2.84763 -4.72878 0
M  V30 4526 H 447.465 -1.23075 -4.21603 0
M  V30 4527 H 448.071 -2.64781 -3.32823 0
M  V30 4528 N 446.386 1.0089 -1.21074 0
M  V30 4529 C 447.316 2.1145 -0.990523 0
M  V30 4530 C 448.297 1.69897 0.0831699 0
M  V30 4531 O 449.482 1.94052 -0.0758853 0
M  V30 4532 C 446.612 3.42914 -0.550177 0
M  V30 4533 C 445.566 3.98244 -1.56799 0
M  V30 4534 C 444.892 5.25568 -0.984013 0
M  V30 4535 C 446.192 4.30752 -2.95381 0
M  V30 4536 H 447.886 2.3013 -1.91521 0
M  V30 4537 H 445.432 1.10592 -0.92225 0
M  V30 4538 H 447.385 4.19653 -0.383305 0
M  V30 4539 H 446.109 3.24014 0.41015 0
M  V30 4540 H 444.768 3.23621 -1.72236 0
M  V30 4541 H 444.416 5.02998 -0.0155216 0
M  V30 4542 H 444.116 5.63551 -1.66384 0
M  V30 4543 H 445.64 6.04955 -0.828378 0
M  V30 4544 H 447.054 4.98349 -2.8341 0
M  V30 4545 H 445.451 4.79869 -3.60341 0
M  V30 4546 H 446.521 3.39192 -3.46521 0
M  V30 4547 N 447.864 1.01787 1.20321 0
M  V30 4548 C 448.794 0.609625 2.25401 0
M  V30 4549 C 449.775 -0.375951 1.65893 0
M  V30 4550 O 450.96 -0.261101 1.92437 0
M  V30 4551 C 448.09 -0.0515995 3.47262 0
M  V30 4552 C 447.044 0.855095 4.19371 0
M  V30 4553 C 446.37 0.0595757 5.34667 0
M  V30 4554 C 447.67 2.16374 4.75373 0
M  V30 4555 H 449.364 1.48803 2.59804 0
M  V30 4556 H 446.91 0.716934 1.24884 0
M  V30 4557 H 448.863 -0.348764 4.19954 0
M  V30 4558 H 447.587 -0.964726 3.12027 0
M  V30 4559 H 446.246 1.13628 3.48546 0
M  V30 4560 H 445.894 -0.85524 4.95676 0
M  V30 4561 H 445.594 0.663406 5.83843 0
M  V30 4562 H 447.118 -0.231105 6.10162 0
M  V30 4563 H 448.532 1.92885 5.39878 0
M  V30 4564 H 446.929 2.71853 5.34991 0
M  V30 4565 H 447.999 2.82589 3.94045 0
M  V30 4566 N 449.342 -1.36122 0.79427 0
M  V30 4567 C 450.619 -1.93398 0.292685 0
M  V30 4568 C 450.999 -1.72567 -1.21589 0
M  V30 4569 O 450.347 -1.08745 -2.00965 0
M  V30 4570 C 450.557 -3.42099 0.690614 0
M  V30 4571 C 451.905 -4.19231 0.673105 0
M  V30 4572 O 452.929 -3.50559 0.631389 0
M  V30 4573 O 451.788 -5.41732 0.720362 0
M  V30 4574 H 448.882 -0.823712 0.0736693 0
M  V30 4575 H 451.428 -1.45273 0.87714 0
M  V30 4576 H 450.2 -3.50938 1.73085 0
M  V30 4577 H 449.823 -3.97519 0.0803036 0
M  V30 4578 N 450.82 -0.546701 -1.47814 0
M  V30 4579 C 451.75 0.195317 -2.32682 0
M  V30 4580 C 452.731 0.918981 -1.43139 0
M  V30 4581 O 453.916 0.901501 -1.72008 0
M  V30 4582 C 451.046 1.23237 -3.247 0
M  V30 4583 C 450 0.625818 -4.234 0
M  V30 4584 C 449.326 1.76674 -5.04669 0
M  V30 4585 C 450.626 -0.413515 -5.2066 0
M  V30 4586 H 452.32 -0.513184 -2.94969 0
M  V30 4587 H 449.866 -0.248241 -1.41844 0
M  V30 4588 H 451.819 1.75955 -3.82907 0
M  V30 4589 H 450.543 1.97067 -2.60446 0
M  V30 4590 H 449.202 0.120023 -3.66403 0
M  V30 4591 H 448.85 2.49383 -4.36826 0
M  V30 4592 H 448.55 1.36673 -5.71484 0
M  V30 4593 H 450.074 2.29738 -5.65732 0
M  V30 4594 H 451.488 0.0272042 -5.73294 0
M  V30 4595 H 449.885 -0.731825 -5.95621 0
M  V30 4596 H 450.955 -1.31325 -4.66778 0
M  V30 4597 N 452.299 1.55045 -0.282633 0
M  V30 4598 C 453.715 1.59441 0.0712997 0
M  V30 4599 C 453.915 1.2998 1.53972 0
M  V30 4600 O 452.971 1.06431 2.28973 0
M  V30 4601 C 454.284 2.99097 -0.310104 0
M  V30 4602 C 455.832 3.1194 -0.257343 0
M  V30 4603 C 456.307 4.53875 -0.613297 0
M  V30 4604 N 457.798 4.5974 -0.565134 0
M  V30 4605 C 458.533 5.67603 -0.81326 0
M  V30 4606 N 458.029 6.83582 -1.1264 0
M  V30 4607 N 459.822 5.57187 -0.741553 0
M  V30 4608 H 451.973 1.72458 -1.23984 0
M  V30 4609 H 454.236 0.804549 -0.501403 0
M  V30 4610 H 453.942 3.25516 -1.33163 0
M  V30 4611 H 453.816 3.75616 0.345366 0
M  V30 4612 H 456.203 2.85281 0.754905 0
M  V30 4613 H 456.284 2.37618 -0.947178 0
M  V30 4614 H 455.928 4.81261 -1.62327 0
M  V30 4615 H 455.858 5.26508 0.09841 0
M  V30 4616 H 458.349 3.76427 -0.333294 0
M  V30 4617 H 458.662 7.6175 -1.30219 0
M  V30 4618 H 457.007 6.85179 -1.16425 0
M  V30 4619 H 460.198 4.65457 -0.496705 0
M  V30 4620 H 460.371 6.41171 -0.938306 0
M  V30 4621 N 453.777 0.010035 1.57597 0
M  V30 4622 C 454.71 -1.01234 2.04516 0
M  V30 4623 C 455.688 -1.32886 0.937024 0
M  V30 4624 O 456.872 -1.44879 1.20592 0
M  V30 4625 C 453.999 -2.33738 2.45121 0
M  V30 4626 C 453.045 -2.17679 3.66767 0
M  V30 4627 S 453.878 -1.49343 5.14254 0
M  V30 4628 C 455.034 -2.83256 5.58137 0
M  V30 4629 H 455.267 -0.612866 2.90914 0
M  V30 4630 H 452.8 -0.201124 1.53084 0
M  V30 4631 H 454.758 -3.09922 2.69182 0
M  V30 4632 H 453.419 -2.70823 1.59103 0
M  V30 4633 H 452.612 -3.1559 3.92962 0
M  V30 4634 H 452.214 -1.4964 3.42759 0
M  V30 4635 H 454.506 -3.79538 5.6121 0
M  V30 4636 H 455.449 -2.61749 6.57946 0
M  V30 4637 H 455.857 -2.87627 4.85727 0
M  V30 4638 N 455.255 -1.55392 -0.262866 0
M  V30 4639 C 456.185 -1.91978 -1.32917 0
M  V30 4640 C 457.166 -0.7828 -1.51017 0
M  V30 4641 O 458.351 -1.04178 -1.63892 0
M  V30 4642 C 455.481 -2.20055 -2.68687 0
M  V30 4643 C 454.435 -3.35854 -2.65304 0
M  V30 4644 C 453.761 -3.49435 -4.04721 0
M  V30 4645 C 455.061 -4.71977 -2.23685 0
M  V30 4646 H 456.755 -2.81292 -1.02544 0
M  V30 4647 H 454.301 -1.3534 -0.491846 0
M  V30 4648 H 456.254 -2.44237 -3.43404 0
M  V30 4649 H 454.978 -1.27551 -3.00663 0
M  V30 4650 H 453.637 -3.11655 -1.93045 0
M  V30 4651 H 453.285 -2.54379 -4.33936 0
M  V30 4652 H 452.985 -4.27297 -4.0335 0
M  V30 4653 H 454.509 -3.7592 -4.81161 0
M  V30 4654 H 455.923 -4.95637 -2.88127 0
M  V30 4655 H 454.32 -5.52828 -2.33456 0
M  V30 4656 H 455.39 -4.70115 -1.18827 0
M  V30 4657 N 456.733 0.527833 -1.48498 0
M  V30 4658 C 457.961 1.30823 -1.6029 0
M  V30 4659 C 458.376 1.86945 -0.263974 0
M  V30 4660 O 457.733 1.6651 0.747034 0
M  V30 4661 C 457.784 2.45756 -2.65116 0
M  V30 4662 O 457.505 1.91946 -3.93813 0
M  V30 4663 C 459.006 3.37543 -2.87367 0
M  V30 4664 H 456.226 0.397763 -0.540394 0
M  V30 4665 H 458.77 0.636529 -1.94341 0
M  V30 4666 H 456.925 3.08806 -2.33917 0
M  V30 4667 H 457.339 2.67195 -4.51339 0
M  V30 4668 H 458.813 4.14532 -3.6451 0
M  V30 4669 H 459.29 3.92905 -1.9627 0
M  V30 4670 H 459.896 2.80283 -3.19878 0
M  V30 4671 N 458.211 1.37122 0.776871 0
M  V30 4672 C 459.458 1.32047 1.53524 0
M  V30 4673 C 459.786 -0.0965631 1.9426 0
M  V30 4674 O 459.041 -1.06866 1.63945 0
M  V30 4675 C 459.34 2.20068 2.81611 0
M  V30 4676 C 459.006 3.68423 2.59953 0
M  V30 4677 C 457.668 4.08854 2.53755 0
M  V30 4678 C 460.02 4.62431 2.40431 0
M  V30 4679 C 457.348 5.41417 2.26018 0
M  V30 4680 C 459.7 5.95225 2.14219 0
M  V30 4681 C 458.364 6.34767 2.06462 0
M  V30 4682 H 457.634 0.483196 0.561785 0
M  V30 4683 H 460.281 1.69284 0.895268 0
M  V30 4684 H 458.586 1.75809 3.50141 0
M  V30 4685 H 460.283 2.13458 3.39465 0
M  V30 4686 H 456.873 3.36354 2.65638 0
M  V30 4687 H 461.057 4.32057 2.44213 0
M  V30 4688 H 456.313 5.71022 2.18504 0
M  V30 4689 H 460.487 6.67626 1.98112 0
M  V30 4690 H 458.114 7.37413 1.84733 0
M  V30 4691 N 459.689 -1.00246 1.21608 0
M  V30 4692 C 460.622 -2.08794 0.920892 0
M  V30 4693 C 461.6 -1.62059 -0.132552 0
M  V30 4694 O 462.784 -1.885 -0.0030366 0
M  V30 4695 C 459.911 -3.36525 0.383226 0
M  V30 4696 C 458.957 -4.02172 1.41987 0
M  V30 4697 S 459.79 -4.44256 2.98994 0
M  V30 4698 C 460.946 -5.7517 2.4684 0
M  V30 4699 H 461.179 -2.33511 1.8401 0
M  V30 4700 H 458.712 -1.13562 1.04609 0
M  V30 4701 H 460.67 -4.10423 0.0795871 0
M  V30 4702 H 459.331 -3.09854 -0.514711 0
M  V30 4703 H 458.524 -4.94114 0.993335 0
M  V30 4704 H 458.126 -3.34559 1.67171 0
M  V30 4705 H 460.418 -6.51042 1.87484 0
M  V30 4706 H 461.361 -6.22638 3.37235 0
M  V30 4707 H 461.769 -5.32112 1.88461 0
M  V30 4708 N 461.167 -1.02423 -1.1978 0
M  V30 4709 C 462.415 -0.716569 -1.8897 0
M  V30 4710 C 462.736 0.756769 -1.79716 0
M  V30 4711 O 462.006 1.5449 -1.20456 0
M  V30 4712 H 460.586 -0.262062 -0.699523 0
M  V30 4713 H 463.248 -1.29747 -1.45436 0
M  V30 4714 H 462.344 -1.00675 -2.95417 0
M  V30 4715 N 462.645 1.35699 -0.801477 0
M  V30 4716 C 463.893 1.9852 -0.37871 0
M  V30 4717 C 464.214 1.63907 1.05638 0
M  V30 4718 O 463.484 0.919013 1.73006 0
M  V30 4719 H 462.064 0.734322 -0.137042 0
M  V30 4720 H 464.726 1.65697 -1.02619 0
M  V30 4721 H 463.822 3.08382 -0.480284 0
M  V30 4722 N 464.123 0.554532 1.47522 0
M  V30 4723 C 465.539 0.214107 1.58157 0
M  V30 4724 C 465.739 -1.28331 1.55349 0
M  V30 4725 O 464.795 -2.06329 1.45549 0
M  V30 4726 C 466.108 0.838391 2.88776 0
M  V30 4727 C 467.656 0.809374 3.02354 0
M  V30 4728 C 468.131 1.41268 4.35669 0
M  V30 4729 N 469.622 1.37574 4.42298 0
M  V30 4730 C 470.357 1.8122 5.4401 0
M  V30 4731 N 469.853 2.3271 6.52547 0
M  V30 4732 N 471.646 1.72307 5.35039 0
M  V30 4733 H 463.797 1.52744 1.4759 0
M  V30 4734 H 466.06 0.636812 0.702264 0
M  V30 4735 H 465.766 1.89065 2.96559 0
M  V30 4736 H 465.64 0.329847 3.75755 0
M  V30 4737 H 468.027 -0.234187 2.94169 0
M  V30 4738 H 468.108 1.35565 2.16924 0
M  V30 4739 H 467.752 2.45529 4.4461 0
M  V30 4740 H 467.682 0.841871 5.19827 0
M  V30 4741 H 470.173 0.999081 3.64454 0
M  V30 4742 H 470.486 2.63944 7.26329 0
M  V30 4743 H 468.831 2.36719 6.53444 0
M  V30 4744 H 472.022 1.3186 4.49144 0
M  V30 4745 H 472.195 2.06641 6.14169 0
M  V30 4746 N 465.601 -1.54893 0.290851 0
M  V30 4747 C 466.847 -2.0023 -0.321867 0
M  V30 4748 C 467.18 -1.179 -1.54316 0
M  V30 4749 O 466.455 -0.25293 -1.92848 0
M  V30 4750 C 466.738 -3.53456 -0.688515 0
M  V30 4751 C 466.591 -4.46532 0.541209 0
M  V30 4752 C 467.91 -4.13057 -1.51895 0
M  V30 4753 H 465.029 -0.727891 -0.115515 0
M  V30 4754 H 467.671 -1.85722 0.400931 0
M  V30 4755 H 465.821 -3.6595 -1.30433 0
M  V30 4756 H 467.493 -4.4596 1.17973 0
M  V30 4757 H 465.736 -4.17545 1.17636 0
M  V30 4758 H 466.407 -5.51475 0.240675 0
M  V30 4759 H 468.883 -4.03937 -0.99872 0
M  V30 4760 H 467.759 -5.20448 -1.74429 0
M  V30 4761 H 468.02 -3.64284 -2.50498 0
M  V30 4762 N 467.08 -0.0183926 -1.57589 0
M  V30 4763 C 468.496 0.337897 -1.55982 0
M  V30 4764 C 468.696 1.73604 -1.02294 0
M  V30 4765 O 467.752 2.43589 -0.664895 0
M  V30 4766 C 469.065 0.196305 -3.00059 0
M  V30 4767 C 470.613 0.269875 -3.11834 0
M  V30 4768 C 471.088 0.157197 -4.5773 0
M  V30 4769 N 472.579 0.214521 -4.62703 0
M  V30 4770 C 473.314 0.150955 -5.73201 0
M  V30 4771 N 472.81 0.0369212 -6.9279 0
M  V30 4772 N 474.603 0.204162 -5.61729 0
M  V30 4773 H 466.754 -0.93279 -1.90821 0
M  V30 4774 H 469.017 -0.359253 -0.877292 0
M  V30 4775 H 468.723 -0.766383 -3.43248 0
M  V30 4776 H 468.597 0.970908 -3.6449 0
M  V30 4777 H 470.984 1.22302 -2.68563 0
M  V30 4778 H 471.065 -0.534918 -2.50144 0
M  V30 4779 H 470.709 -0.792479 -5.01679 0
M  V30 4780 H 470.639 0.980717 -5.17387 0
M  V30 4781 H 473.13 0.303238 -3.76681 0
M  V30 4782 H 473.443 -0.00518321 -7.728 0
M  V30 4783 H 471.788 0.0022886 -6.95 0
M  V30 4784 H 474.979 0.291575 -4.67191 0
M  V30 4785 H 475.152 0.15116 -6.47824 0
M  V30 4786 N 468.558 1.5553 0.254621 0
M  V30 4787 C 469.786 1.81046 1.00149 0
M  V30 4788 C 470.201 0.593047 1.79244 0
M  V30 4789 O 469.558 -0.438196 1.77161 0
M  V30 4790 C 469.609 3.04684 1.94551 0
M  V30 4791 O 469.33 4.21725 1.18658 0
M  V30 4792 C 470.831 3.42943 2.80901 0
M  V30 4793 H 468.051 0.602653 0.295044 0
M  V30 4794 H 470.595 2.02576 0.279842 0
M  V30 4795 H 468.75 2.85226 2.62154 0
M  V30 4796 H 469.164 4.91746 1.82445 0
M  V30 4797 H 470.638 4.32576 3.42902 0
M  V30 4798 H 471.115 2.63176 3.51617 0
M  V30 4799 H 471.721 3.64724 2.18762 0
M  V30 4800 N 470.036 -0.519951 1.48776 0
M  V30 4801 C 471.452 -0.849418 1.35119 0
M  V30 4802 C 471.652 -1.98077 0.36982 0
M  V30 4803 O 470.708 -2.51664 -0.205359 0
M  V30 4804 C 472.021 -1.20748 2.75391 0
M  V30 4805 C 473.569 -1.31679 2.83954 0
M  V30 4806 C 474.044 -1.70824 4.24951 0
M  V30 4807 N 475.535 -1.77908 4.27672 0
M  V30 4808 C 476.27 -2.09603 5.33717 0
M  V30 4809 N 475.766 -2.39652 6.5003 0
M  V30 4810 N 477.559 -2.10694 5.21119 0
M  V30 4811 H 469.71 0.226377 2.1119 0
M  V30 4812 H 471.973 0.0386519 0.947212 0
M  V30 4813 H 471.679 -0.449703 3.48813 0
M  V30 4814 H 471.553 -2.15534 3.09556 0
M  V30 4815 H 473.94 -2.06532 2.10781 0
M  V30 4816 H 474.021 -0.3499 2.53396 0
M  V30 4817 H 473.665 -0.965282 4.98643 0
M  V30 4818 H 473.595 -2.6858 4.52959 0
M  V30 4819 H 476.086 -1.56923 3.43779 0
M  V30 4820 H 476.399 -2.6297 7.26682 0
M  V30 4821 H 474.744 -2.37149 6.53288 0
M  V30 4822 H 477.935 -1.86682 4.29264 0
M  V30 4823 H 478.108 -2.35062 6.03863 0
M  V30 4824 N 471.514 -1.37532 -0.769588 0
M  V30 4825 C 472.791 -1.23392 -1.51768 0
M  V30 4826 C 473.171 0.17157 -2.10402 0
M  V30 4827 O 472.519 1.17943 -1.95708 0
M  V30 4828 C 472.729 -2.33163 -2.59685 0
M  V30 4829 C 474.077 -2.70809 -3.27028 0
M  V30 4830 O 475.101 -2.32355 -2.69981 0
M  V30 4831 O 473.96 -3.37066 -4.30173 0
M  V30 4832 H 471.054 -0.481617 -0.67229 0
M  V30 4833 H 473.6 -1.49318 -0.806368 0
M  V30 4834 H 472.372 -3.27273 -2.14494 0
M  V30 4835 H 471.995 -2.08713 -3.38415 0
M  V30 4836 N 472.992 0.995999 -1.22138 0
M  V30 4837 C 473.902 2.11985 -1.00496 0
M  V30 4838 C 474.918 1.7394 0.0457701 0
M  V30 4839 O 476.094 2.00868 -0.146273 0
M  V30 4840 C 473.159 3.41779 -0.582086 0
M  V30 4841 C 472.22 3.93943 -1.70608 0
M  V30 4842 C 471.453 5.17542 -1.30328 0
M  V30 4843 O 471.676 5.70114 -0.180743 0
M  V30 4844 O 470.61 5.63382 -2.11861 0
M  V30 4845 H 474.436 2.33123 -1.94647 0
M  V30 4846 H 472.021 1.10358 -1.00705 0
M  V30 4847 H 473.903 4.1989 -0.356467 0
M  V30 4848 H 472.578 3.22007 0.330592 0
M  V30 4849 H 471.485 3.17019 -1.98619 0
M  V30 4850 H 472.818 4.18141 -2.59651 0
M  V30 4851 N 474.47 1.03057 1.19235 0
M  V30 4852 C 475.716 0.729098 1.89241 0
M  V30 4853 C 476.049 -0.740573 1.79525 0
M  V30 4854 O 475.324 -1.53946 1.18874 0
M  V30 4855 C 475.607 1.18304 3.40112 0
M  V30 4856 C 475.46 2.71406 3.5869 0
M  V30 4857 C 476.779 0.765161 4.33397 0
M  V30 4858 H 473.898 0.266338 0.687192 0
M  V30 4859 H 476.54 1.28079 1.40341 0
M  V30 4860 H 474.69 0.713672 3.81889 0
M  V30 4861 H 476.362 3.26303 3.26074 0
M  V30 4862 H 474.605 3.11717 3.01687 0
M  V30 4863 H 475.276 2.98225 4.64506 0
M  V30 4864 H 477.752 1.16889 3.99345 0
M  V30 4865 H 476.628 1.11065 5.37546 0
M  V30 4866 H 476.889 -0.332372 4.40849 0
M  V30 4867 N 475.948 -1.35272 0.808662 0
M  V30 4868 C 477.194 -1.99003 0.390581 0
M  V30 4869 C 477.527 -1.63999 -1.0401 0
M  V30 4870 O 476.802 -0.904368 -1.72196 0
M  V30 4871 C 477.085 -3.55454 0.576566 0
M  V30 4872 C 476.938 -4.00249 2.05233 0
M  V30 4873 C 478.257 -4.401 0.00354277 0
M  V30 4874 H 475.376 -0.722917 0.143388 0
M  V30 4875 H 478.018 -1.6039 1.01858 0
M  V30 4876 H 476.168 -3.88477 0.0419766 0
M  V30 4877 H 477.84 -3.77626 2.64946 0
M  V30 4878 H 476.083 -3.51082 2.54801 0
M  V30 4879 H 476.754 -5.0911 2.13333 0
M  V30 4880 H 479.23 -4.13548 0.460117 0
M  V30 4881 H 478.106 -5.48656 0.163575 0
M  V30 4882 H 478.367 -4.28444 -1.09032 0
M  V30 4883 N 477.426 -0.562348 -1.47226 0
M  V30 4884 C 478.703 0.0256985 -1.95583 0
M  V30 4885 C 479.083 1.48032 -1.50498 0
M  V30 4886 O 478.431 2.15973 -0.746181 0
M  V30 4887 C 478.641 -0.125129 -3.48776 0
M  V30 4888 C 479.989 0.0175728 -4.24596 0
M  V30 4889 O 481.013 -0.0529341 -3.56161 0
M  V30 4890 O 479.872 0.170145 -5.46235 0
M  V30 4891 H 476.966 0.0612565 -0.824728 0
M  V30 4892 H 479.512 -0.629233 -1.57603 0
M  V30 4893 H 478.284 -1.13715 -3.74412 0
M  V30 4894 H 477.907 0.567178 -3.93534 0
M  V30 4895 N 478.904 1.54736 -0.299062 0
M  V30 4896 C 479.834 2.26409 0.571085 0
M  V30 4897 C 480.815 1.2629 1.13951 0
M  V30 4898 O 482 1.55059 1.16921 0
M  V30 4899 C 479.13 3.00338 1.74396 0
M  V30 4900 C 478.084 4.07588 1.30599 0
M  V30 4901 C 477.41 4.69222 2.56387 0
M  V30 4902 C 478.71 5.20455 0.438645 0
M  V30 4903 H 480.404 2.99388 -0.0266991 0
M  V30 4904 H 477.95 1.43993 -0.0142812 0
M  V30 4905 H 479.903 3.49198 2.35878 0
M  V30 4906 H 478.627 2.24934 2.36796 0
M  V30 4907 H 477.286 3.59575 0.71424 0
M  V30 4908 H 476.934 3.9046 3.17097 0
M  V30 4909 H 476.634 5.41653 2.27784 0
M  V30 4910 H 478.158 5.20844 3.18675 0
M  V30 4911 H 479.572 5.65221 0.959085 0
M  V30 4912 H 477.969 5.99594 0.246466 0
M  V30 4913 H 479.039 4.8192 -0.536738 0
M  V30 4914 N 480.382 0.0267497 1.57577 0
M  V30 4915 C 481.345 -0.940916 2.08996 0
M  V30 4916 C 482.345 -1.25561 1.00455 0
M  V30 4917 O 483.535 -1.19634 1.26623 0
M  V30 4918 C 480.667 -2.25814 2.55384 0
M  V30 4919 H 481.86 -0.495628 2.95776 0
M  V30 4920 H 479.413 -0.221241 1.54726 0
M  V30 4921 H 480.148 -2.74976 1.71926 0
M  V30 4922 H 479.933 -2.04285 3.34679 0
M  V30 4923 H 481.423 -2.95178 2.95398 0
M  V30 4924 N 481.861 -1.55662 -0.24637 0
M  V30 4925 C 483.109 -1.77168 -0.972411 0
M  V30 4926 C 483.43 -0.590827 -1.85834 0
M  V30 4927 O 482.7 0.393365 -1.9191 0
M  V30 4928 H 481.28 -0.653405 -0.362038 0
M  V30 4929 H 483.942 -1.93101 -0.264189 0
M  V30 4930 H 483.038 -2.68335 -1.59382 0
M  V30 4931 N 483.339 0.512053 -1.4905 0
M  V30 4932 C 484.564 1.2959 -1.6193 0
M  V30 4933 C 484.989 1.85906 -0.286454 0
M  V30 4934 O 484.347 1.65312 0.744426 0
M  V30 4935 C 484.395 2.40987 -2.68249 0
M  V30 4936 O 483.499 3.44531 -2.26654 0
M  V30 4937 H 482.84 0.383053 -0.542371 0
M  V30 4938 H 485.37 0.614231 -1.95162 0
M  V30 4939 H 485.38 2.86913 -2.90078 0
M  V30 4940 H 484.055 1.99361 -3.65004 0
M  V30 4941 H 482.632 3.046 -2.15112 0
M  V30 4942 N 484.817 1.37938 0.762283 0
M  V30 4943 C 485.78 1.34279 1.85747 0
M  V30 4944 C 486.78 0.244969 1.58923 0
M  V30 4945 O 487.97 0.501365 1.66829 0
M  V30 4946 C 485.102 1.08833 3.23061 0
M  V30 4947 H 486.295 2.31705 1.90401 0
M  V30 4948 H 483.848 1.23105 0.963057 0
M  V30 4949 H 484.583 0.119767 3.24079 0
M  V30 4950 H 484.368 1.88306 3.43923 0
M  V30 4951 H 485.858 1.08946 4.03138 0
M  V30 4952 N 486.295 -0.989507 1.22664 0
M  V30 4953 C 487.543 -1.72612 1.05117 0
M  V30 4954 C 487.864 -1.90552 -0.414131 0
M  V30 4955 O 487.134 -1.4676 -1.29762 0
M  V30 4956 H 485.714 -0.639555 0.385977 0
M  V30 4957 H 488.376 -1.19158 1.54232 0
M  V30 4958 H 487.472 -2.71926 1.53175 0
M  V30 4959 N 487.773 -1.03688 -1.18687 0
M  V30 4960 C 488.703 -0.645407 -2.24403 0
M  V30 4961 C 489.684 0.349511 -1.66471 0
M  V30 4962 O 490.869 0.230453 -1.92828 0
M  V30 4963 C 487.999 -0.00365337 -3.473 0
M  V30 4964 C 486.953 -0.921705 -4.17958 0
M  V30 4965 C 486.279 -0.144629 -5.34504 0
M  V30 4966 C 487.579 -2.23909 -4.71871 0
M  V30 4967 H 489.273 -1.52917 -2.57404 0
M  V30 4968 H 486.819 -0.736711 -1.23728 0
M  V30 4969 H 488.772 0.281908 -4.20456 0
M  V30 4970 H 487.496 0.914963 -3.13522 0
M  V30 4971 H 486.155 -1.19159 -3.46694 0
M  V30 4972 H 485.803 0.776274 -4.96974 0
M  V30 4973 H 485.503 -0.756206 -5.82714 0
M  V30 4974 H 487.027 0.134004 -6.10453 0
M  V30 4975 H 488.441 -2.0145 -5.36741 0
M  V30 4976 H 486.838 -2.8033 -5.30599 0
M  V30 4977 H 487.908 -2.88822 -3.895 0
M  V30 4978 N 489.251 1.34841 -0.815825 0
M  V30 4979 C 490.214 2.27959 -0.238185 0
M  V30 4980 C 491.214 1.49983 0.579816 0
M  V30 4981 O 492.404 1.69617 0.396953 0
M  V30 4982 C 489.536 3.34314 0.666876 0
M  V30 4983 H 490.729 2.80558 -1.05958 0
M  V30 4984 H 488.282 1.44852 -0.587156 0
M  V30 4985 H 489.017 2.86916 1.5116 0
M  V30 4986 H 488.802 3.92014 0.0819106 0
M  V30 4987 H 490.292 4.0379 1.06506 0
M  V30 4988 N 490.729 0.570148 1.46925 0
M  V30 4989 C 491.659 -0.158274 2.32963 0
M  V30 4990 C 492.64 -0.896093 1.44583 0
M  V30 4991 O 493.825 -0.874022 1.7342 0
M  V30 4992 C 490.955 -1.18055 3.26619 0
M  V30 4993 C 489.909 -0.558379 4.24342 0
M  V30 4994 C 489.235 -1.68623 5.07415 0
M  V30 4995 C 490.535 0.496295 5.19937 0
M  V30 4996 H 492.229 0.560046 2.94115 0
M  V30 4997 H 489.775 0.270775 1.41431 0
M  V30 4998 H 491.728 -1.69841 3.85658 0
M  V30 4999 H 490.452 -1.92899 2.63548 0
M  V30 5000 H 489.111 -0.0617157 3.66548 0
M  V30 5001 H 488.759 -2.42402 4.40738 0
M  V30 5002 H 488.459 -1.27564 5.73586 0
M  V30 5003 H 489.983 -2.20709 5.69315 0
M  V30 5004 H 491.397 0.0640052 5.73264 0
M  V30 5005 H 489.794 0.82649 5.94381 0
M  V30 5006 H 490.864 1.38735 4.6463 0
M  V30 5007 N 492.207 -1.54576 0.307264 0
M  V30 5008 C 493.17 -2.22423 -0.553224 0
M  V30 5009 C 494.17 -1.21231 -1.05639 0
M  V30 5010 O 495.36 -1.45923 -0.951419 0
M  V30 5011 C 492.492 -2.91552 -1.76664 0
M  V30 5012 H 493.685 -2.99874 0.0396484 0
M  V30 5013 H 491.238 -1.56192 0.0581629 0
M  V30 5014 H 491.973 -2.18196 -2.39918 0
M  V30 5015 H 491.758 -3.65738 -1.41343 0
M  V30 5016 H 493.248 -3.43292 -2.37783 0
M  V30 5017 N 493.685 -0.035106 -1.57561 0
M  V30 5018 C 494.91 0.655802 -1.96759 0
M  V30 5019 C 495.335 1.64523 -0.911809 0
M  V30 5020 O 494.693 1.80857 0.126673 0
M  V30 5021 C 494.741 1.33326 -3.35047 0
M  V30 5022 O 493.845 2.44866 -3.31835 0
M  V30 5023 H 493.186 0.171807 -0.641388 0
M  V30 5024 H 495.716 -0.0987369 -2.04362 0
M  V30 5025 H 495.726 1.68867 -3.71413 0
M  V30 5026 H 494.401 0.608033 -4.11431 0
M  V30 5027 H 492.978 2.11392 -3.07193 0
M  V30 5028 N 495.163 1.55791 0.238111 0
M  V30 5029 C 496.073 1.94196 1.31625 0
M  V30 5030 C 497.089 0.843545 1.52185 0
M  V30 5031 O 498.265 1.1457 1.65637 0
M  V30 5032 C 495.33 2.2365 2.64918 0
M  V30 5033 C 494.391 3.46971 2.52804 0
M  V30 5034 C 493.624 3.7501 3.79741 0
M  V30 5035 O 493.847 3.04982 4.82019 0
M  V30 5036 O 492.781 4.68525 3.77846 0
M  V30 5037 H 496.607 2.86044 1.02043 0
M  V30 5038 H 494.192 1.42786 0.439603 0
M  V30 5039 H 496.074 2.43863 3.4367 0
M  V30 5040 H 494.749 1.34979 2.94215 0
M  V30 5041 H 493.656 3.32055 1.72309 0
M  V30 5042 H 494.989 4.35971 2.28451 0
M  V30 5043 N 496.642 -0.504142 1.49319 0
M  V30 5044 C 498.058 -0.835039 1.36012 0
M  V30 5045 C 498.258 -1.97674 0.390808 0
M  V30 5046 O 497.314 -2.51867 -0.178655 0
M  V30 5047 C 498.627 -1.17821 2.76656 0
M  V30 5048 C 500.175 -1.2866 2.85334 0
M  V30 5049 C 500.65 -1.66307 4.26739 0
M  V30 5050 N 502.141 -1.73362 4.29534 0
M  V30 5051 C 502.876 -2.0393 5.35911 0
M  V30 5052 N 502.372 -2.32744 6.52535 0
M  V30 5053 N 504.165 -2.05155 5.23324 0
M  V30 5054 H 496.316 0.248764 2.10938 0
M  V30 5055 H 498.579 0.0486962 0.946748 0
M  V30 5056 H 498.285 -0.412682 3.4927 0
M  V30 5057 H 498.159 -2.12239 3.11825 0
M  V30 5058 H 500.546 -2.04285 2.1296 0
M  V30 5059 H 500.627 -0.323004 2.53752 0
M  V30 5060 H 500.271 -0.91234 4.99639 0
M  V30 5061 H 500.201 -2.63761 4.55782 0
M  V30 5062 H 502.692 -1.53268 3.45424 0
M  V30 5063 H 503.005 -2.55248 7.2943 0
M  V30 5064 H 501.35 -2.30207 6.55767 0
M  V30 5065 H 504.541 -1.82119 4.3122 0
M  V30 5066 H 504.714 -2.28644 6.06322 0
M  V30 5067 N 498.12 -1.38341 -0.754957 0
M  V30 5068 C 499.348 -1.37704 -1.54419 0
M  V30 5069 C 499.763 0.0335243 -1.8877 0
M  V30 5070 O 499.12 0.999773 -1.52679 0
M  V30 5071 C 499.171 -2.23136 -2.84416 0
M  V30 5072 O 498.892 -3.58697 -2.51531 0
M  V30 5073 C 500.393 -2.30664 -3.78562 0
M  V30 5074 H 497.613 -0.471061 -0.477852 0
M  V30 5075 H 500.157 -1.81902 -0.934446 0
M  V30 5076 H 498.312 -1.82403 -3.41772 0
M  V30 5077 H 498.726 -4.03665 -3.34896 0
M  V30 5078 H 500.2 -2.9473 -4.66732 0
M  V30 5079 H 500.677 -1.3199 -4.18898 0
M  V30 5080 H 501.283 -2.71781 -3.27131 0
M  V30 5081 N 499.598 0.982988 -1.23187 0
M  V30 5082 C 500.823 1.76455 -1.08988 0
M  V30 5083 C 501.248 1.84726 0.354691 0
M  V30 5084 O 500.606 1.30699 1.25649 0
M  V30 5085 C 500.654 3.17094 -1.71708 0
M  V30 5086 O 499.758 4.00648 -0.977477 0
M  V30 5087 H 499.099 0.542988 -0.382177 0
M  V30 5088 H 501.629 1.23413 -1.63188 0
M  V30 5089 H 501.639 3.67684 -1.76841 0
M  V30 5090 H 500.314 3.10389 -2.76823 0
M  V30 5091 H 498.891 3.59161 -1.0029 0
M  V30 5092 N 501.076 1.04316 1.18135 0
M  V30 5093 C 502.324 0.746542 1.87806 0
M  V30 5094 C 502.645 -0.728082 1.80898 0
M  V30 5095 O 501.915 -1.52554 1.22899 0
M  V30 5096 H 500.495 0.273157 0.695265 0
M  V30 5097 H 503.157 1.32044 1.43354 0
M  V30 5098 H 502.253 1.05362 2.93778 0
M  V30 5099 N 502.554 -1.34406 0.822964 0
M  V30 5100 C 503.779 -2.0304 0.423034 0
M  V30 5101 C 504.204 -1.61568 -0.963196 0
M  V30 5102 O 503.562 -0.800339 -1.62678 0
M  V30 5103 C 503.61 -3.56636 0.53321 0
M  V30 5104 O 502.714 -4.09971 -0.446939 0
M  V30 5105 H 502.055 -0.64075 0.174171 0
M  V30 5106 H 504.585 -1.71653 1.11339 0
M  V30 5107 H 504.595 -4.05945 0.408991 0
M  V30 5108 H 503.27 -3.86168 1.54425 0
M  V30 5109 H 501.847 -3.71835 -0.281601 0
M  V30 5110 N 504.032 -0.577932 -1.46621 0
M  V30 5111 C 505.26 -0.0671642 -2.06791 0
M  V30 5112 C 505.675 1.23571 -1.42743 0
M  V30 5113 O 505.032 1.74602 -0.531062 0
M  V30 5114 C 505.083 0.110357 -3.61332 0
M  V30 5115 O 504.804 -1.14095 -4.22982 0
M  V30 5116 C 506.305 0.656025 -4.38419 0
M  V30 5117 H 503.525 -0.0552732 -0.66872 0
M  V30 5118 H 506.069 -0.797242 -1.8832 0
M  V30 5119 H 504.224 0.790637 -3.79246 0
M  V30 5120 H 504.638 -0.951742 -5.15793 0
M  V30 5121 H 506.112 0.729438 -5.47159 0
M  V30 5122 H 506.589 1.67195 -4.06131 0
M  V30 5123 H 507.195 0.0107692 -4.25299 0
M  V30 5124 N 505.51 1.54411 -0.315457 0
M  V30 5125 C 506.738 2.04833 0.291738 0
M  V30 5126 C 507.153 1.19203 1.46411 0
M  V30 5127 O 506.51 0.220867 1.81159 0
M  V30 5128 C 506.561 3.53969 0.73404 0
M  V30 5129 O 506.282 4.36346 -0.391682 0
M  V30 5130 C 507.783 4.2045 1.40489 0
M  V30 5131 H 505.003 0.668195 0.0612947 0
M  V30 5132 H 507.547 1.99276 -0.45929 0
M  V30 5133 H 505.702 3.5984 1.43506 0
M  V30 5134 H 506.116 5.24481 -0.0447088 0
M  V30 5135 H 507.59 5.26278 1.66539 0
M  V30 5136 H 508.067 3.71067 2.3496 0
M  V30 5137 H 508.673 4.18694 0.746662 0
M  V30 5138 N 506.988 0.0434614 1.5754 0
M  V30 5139 C 507.918 -0.931651 2.14109 0
M  V30 5140 C 508.899 -1.32971 1.06079 0
M  V30 5141 O 510.084 -1.40579 1.33982 0
M  V30 5142 C 507.214 -2.20914 2.67982 0
M  V30 5143 C 506.168 -1.95139 3.80926 0
M  V30 5144 C 505.494 -3.29276 4.21285 0
M  V30 5145 C 506.794 -1.27913 5.06395 0
M  V30 5146 H 508.488 -0.460497 2.95837 0
M  V30 5147 H 506.034 -0.220058 1.42309 0
M  V30 5148 H 507.987 -2.89522 3.06194 0
M  V30 5149 H 506.711 -2.70221 1.83434 0
M  V30 5150 H 505.37 -1.28945 3.43175 0
M  V30 5151 H 505.018 -3.76369 3.33699 0
M  V30 5152 H 504.718 -3.12831 4.97404 0
M  V30 5153 H 506.242 -3.99129 4.62091 0
M  V30 5154 H 507.656 -1.86544 5.42102 0
M  V30 5155 H 506.053 -1.2182 5.87605 0
M  V30 5156 H 507.123 -0.254066 4.84234 0
M  V30 5157 N 508.466 -1.55915 -0.229846 0
M  V30 5158 C 509.877 -1.68809 -0.797531 0
M  V30 5159 C 510.228 -0.643995 -1.8533 0
M  V30 5160 O 509.353 0.206492 -2.15413 0
M  V30 5161 C 509.948 -3.06043 -1.45338 0
M  V30 5162 C 508.507 -3.20819 -1.96856 0
M  V30 5163 C 507.654 -2.6472 -0.825736 0
M  V30 5164 H 510.605 -1.58699 -0.00533733 0
M  V30 5165 H 510.626 -3.01438 -2.32196 0
M  V30 5166 H 510.138 -3.82012 -0.684743 0
M  V30 5167 H 508.239 -2.49704 -2.76548 0
M  V30 5168 H 508.352 -4.27937 -2.15423 0
M  V30 5169 H 506.716 -2.22985 -1.23084 0
M  V30 5170 H 507.499 -3.43229 -0.0699019 0
M  V30 5171 N 509.944 0.496216 -1.49584 0
M  V30 5172 C 511.191 1.25003 -1.59312 0
M  V30 5173 C 511.519 1.92445 -0.28198 0
M  V30 5174 O 510.774 1.81557 0.730452 0
M  V30 5175 C 511.073 2.3359 -2.705 0
M  V30 5176 C 510.739 1.83574 -4.11839 0
M  V30 5177 C 509.401 1.69653 -4.50302 0
M  V30 5178 C 511.753 1.46193 -5.00277 0
M  V30 5179 C 509.081 1.16736 -5.74969 0
M  V30 5180 C 511.433 0.947265 -6.25468 0
M  V30 5181 C 510.097 0.794485 -6.62755 0
M  V30 5182 H 509.367 0.45742 -0.582965 0
M  V30 5183 H 512.014 0.549996 -1.83432 0
M  V30 5184 H 510.319 3.09401 -2.40371 0
M  V30 5185 H 512.016 2.91627 -2.75235 0
M  V30 5186 H 508.606 1.9537 -3.81482 0
M  V30 5187 H 512.79 1.55793 -4.71214 0
M  V30 5188 H 508.046 1.03623 -6.02555 0
M  V30 5189 H 512.22 0.648846 -6.93371 0
M  V30 5190 H 509.847 0.382271 -7.59238 0
M  V30 5191 N 511.423 1.38739 0.74761 0
M  V30 5192 C 512.7 1.25791 1.49786 0
M  V30 5193 C 513.08 -0.138075 2.10648 0
M  V30 5194 O 512.428 -1.14815 1.9756 0
M  V30 5195 C 512.638 2.37265 2.55942 0
M  V30 5196 C 513.986 2.75978 3.22679 0
M  V30 5197 O 515.01 2.36621 2.6625 0
M  V30 5198 O 513.869 3.43867 4.24756 0
M  V30 5199 H 510.963 0.492251 0.664543 0
M  V30 5200 H 513.509 1.50582 0.782511 0
M  V30 5201 H 512.281 3.30644 2.0926 0
M  V30 5202 H 511.904 2.14071 3.35051 0
M  V30 5203 N 512.901 -0.976442 1.23707 0
M  V30 5204 C 514.148 -1.71827 1.07153 0
M  V30 5205 C 514.476 -1.9053 -0.390982 0
M  V30 5206 O 513.731 -1.45779 -1.30564 0
M  V30 5207 C 514.03 -3.11814 1.74662 0
M  V30 5208 C 513.696 -3.12978 3.24585 0
M  V30 5209 C 512.358 -3.13003 3.6549 0
M  V30 5210 C 514.71 -3.07986 4.20469 0
M  V30 5211 C 512.038 -3.05757 5.00729 0
M  V30 5212 C 514.39 -3.02282 5.55705 0
M  V30 5213 C 513.054 -3.00631 5.95968 0
M  V30 5214 H 512.324 -0.628758 0.392102 0
M  V30 5215 H 514.971 -1.14239 1.53693 0
M  V30 5216 H 513.276 -3.72812 1.20492 0
M  V30 5217 H 514.973 -3.67989 1.59328 0
M  V30 5218 H 511.563 -3.13718 2.92026 0
M  V30 5219 H 515.747 -3.07103 3.89874 0
M  V30 5220 H 511.003 -3.02834 5.31132 0
M  V30 5221 H 515.177 -2.97376 6.29714 0
M  V30 5222 H 512.804 -2.94771 7.00724 0
M  V30 5223 N 514.379 -1.04941 -1.1758 0
M  V30 5224 C 515.604 -0.778253 -1.92245 0
M  V30 5225 C 516.029 0.659707 -1.76152 0
M  V30 5226 O 515.387 1.45803 -1.07755 0
M  V30 5227 C 515.435 -1.16051 -3.41416 0
M  V30 5228 O 514.539 -0.291153 -4.11371 0
M  V30 5229 H 513.88 -0.285619 -0.599431 0
M  V30 5230 H 516.41 -1.40159 -1.49052 0
M  V30 5231 H 516.42 -1.12619 -3.92149 0
M  V30 5232 H 515.095 -2.208 -3.52449 0
M  V30 5233 H 513.672 -0.385851 -3.70898 0
M  V30 5234 N 515.857 1.33968 -0.830081 0
M  V30 5235 C 517.106 1.97323 -0.417928 0
M  V30 5236 C 517.419 1.6652 1.02618 0
M  V30 5237 O 518.625 2.2342 1.54259 0
M  V30 5238 C 517.081 3.53099 -0.696359 0
M  V30 5239 C 516.689 3.92788 -2.15457 0
M  V30 5240 C 518.433 4.23049 -0.350724 0
M  V30 5241 C 516.34 5.41506 -2.37751 0
M  V30 5242 H 515.27 0.738409 -0.152541 0
M  V30 5243 H 517.921 1.52711 -1.01744 0
M  V30 5244 H 516.303 3.95991 -0.0265904 0
M  V30 5245 H 517.477 3.6098 -2.86408 0
M  V30 5246 H 515.792 3.35795 -2.46232 0
M  V30 5247 H 518.389 5.32403 -0.495036 0
M  V30 5248 H 518.732 4.10279 0.705476 0
M  V30 5249 H 519.265 3.85657 -0.975362 0
M  V30 5250 H 516.004 5.5927 -3.41903 0
M  V30 5251 H 515.524 5.74804 -1.7135 0
M  V30 5252 H 517.203 6.0828 -2.20465 0
M  V30 5253 N 517.335 0.585699 1.46312 0
M  V30 5254 C 518.265 -0.133556 2.33118 0
M  V30 5255 C 519.246 -0.880707 1.45525 0
M  V30 5256 O 520.431 -0.855579 1.74337 0
M  V30 5257 C 517.561 -1.14585 3.27853 0
M  V30 5258 C 516.515 -0.513341 4.2491 0
M  V30 5259 C 515.841 -1.63231 5.09175 0
M  V30 5260 C 517.141 0.551413 5.19381 0
M  V30 5261 H 518.835 0.59121 2.93505 0
M  V30 5262 H 516.381 0.285761 1.41136 0
M  V30 5263 H 518.334 -1.65741 3.87438 0
M  V30 5264 H 517.058 -1.90093 2.65579 0
M  V30 5265 H 515.717 -0.0228349 3.66593 0
M  V30 5266 H 515.365 -2.37713 4.43285 0
M  V30 5267 H 515.065 -1.21473 5.74907 0
M  V30 5268 H 516.589 -2.14658 5.71624 0
M  V30 5269 H 518.003 0.124804 5.73164 0
M  V30 5270 H 516.4 0.889486 5.93471 0
M  V30 5271 H 517.47 1.43655 4.63132 0
M  V30 5272 N 518.813 -1.54241 0.323641 0
M  V30 5273 C 519.723 -2.28033 -0.551205 0
M  V30 5274 C 520.739 -1.32388 -1.12913 0
M  V30 5275 O 521.915 -1.65403 -1.14908 0
M  V30 5276 C 518.98 -3.02382 -1.69606 0
M  V30 5277 C 518.041 -4.13612 -1.14993 0
M  V30 5278 C 517.274 -4.84407 -2.24022 0
M  V30 5279 O 517.497 -4.54716 -3.44368 0
M  V30 5280 O 516.431 -5.71312 -1.89436 0
M  V30 5281 H 520.257 -3.03662 0.048066 0
M  V30 5282 H 517.842 -1.49133 0.0893289 0
M  V30 5283 H 519.724 -3.48941 -2.36259 0
M  V30 5284 H 518.399 -2.29628 -2.28151 0
M  V30 5285 H 517.306 -3.71402 -0.448484 0
M  V30 5286 H 518.639 -4.8841 -0.609608 0
M  V30 5287 N 520.291 -0.0518155 -1.57515 0
M  V30 5288 C 521.538 0.621823 -1.92716 0
M  V30 5289 C 521.866 1.70813 -0.930229 0
M  V30 5290 O 521.121 1.95616 0.0573708 0
M  V30 5291 C 521.42 1.25607 -3.34601 0
M  V30 5292 C 521.086 0.297901 -4.49915 0
M  V30 5293 C 519.748 0.034243 -4.81188 0
M  V30 5294 C 522.1 -0.358738 -5.19964 0
M  V30 5295 C 519.428 -0.893479 -5.79857 0
M  V30 5296 C 521.78 -1.27466 -6.19625 0
M  V30 5297 C 520.444 -1.54698 -6.49326 0
M  V30 5298 H 519.714 0.227541 -0.705199 0
M  V30 5299 H 522.361 -0.118432 -1.91133 0
M  V30 5300 H 520.666 2.07161 -3.32553 0
M  V30 5301 H 522.363 1.78424 -3.59118 0
M  V30 5302 H 518.953 0.513581 -4.25512 0
M  V30 5303 H 523.137 -0.168133 -4.96015 0
M  V30 5304 H 518.393 -1.11193 -6.01204 0
M  V30 5305 H 522.567 -1.78953 -6.73015 0
M  V30 5306 H 520.194 -2.26748 -7.25596 0
M  V30 5307 N 521.769 1.56035 0.221574 0
M  V30 5308 C 522.997 1.8313 0.962864 0
M  V30 5309 C 523.412 0.630934 1.77946 0
M  V30 5310 O 522.769 -0.400519 1.78051 0
M  V30 5311 C 522.82 3.08742 1.88045 0
M  V30 5312 O 522.541 4.24147 1.09686 0
M  V30 5313 C 524.042 3.48824 2.73563 0
M  V30 5314 H 521.262 0.608775 0.282194 0
M  V30 5315 H 523.806 2.03124 0.23681 0
M  V30 5316 H 521.961 2.90723 2.56045 0
M  V30 5317 H 522.375 4.95505 1.71974 0
M  V30 5318 H 523.849 4.39752 3.3365 0
M  V30 5319 H 524.326 2.70575 3.45956 0
M  V30 5320 H 524.932 3.69282 2.10976 0
M  V30 5321 N 523.247 -0.488276 1.49845 0
M  V30 5322 C 524.21 -1.57069 1.66919 0
M  V30 5323 C 525.21 -1.51445 0.540479 0
M  V30 5324 O 526.4 -1.5437 0.807188 0
M  V30 5325 C 523.532 -2.96718 1.67844 0
M  V30 5326 H 524.725 -1.43254 2.63474 0
M  V30 5327 H 522.278 -0.713435 1.39068 0
M  V30 5328 H 523.013 -3.15996 0.7292 0
M  V30 5329 H 522.798 -3.02208 2.49826 0
M  V30 5330 H 524.288 -3.75335 1.83066 0
M  V30 5331 N 524.725 -1.39134 -0.740242 0
M  V30 5332 C 525.971 -1.36273 -1.50192 0
M  V30 5333 C 526.304 0.0430136 -1.94152 0
M  V30 5334 O 525.579 1.00691 -1.66408 0
M  V30 5335 C 525.862 -2.33041 -2.74525 0
M  V30 5336 C 525.715 -3.82535 -2.36617 0
M  V30 5337 C 527.034 -2.27723 -3.76604 0
M  V30 5338 H 524.153 -0.496323 -0.544823 0
M  V30 5339 H 526.795 -1.70085 -0.846815 0
M  V30 5340 H 524.945 -2.04337 -3.30422 0
M  V30 5341 H 526.617 -4.21967 -1.86391 0
M  V30 5342 H 524.86 -3.99565 -1.68909 0
M  V30 5343 H 525.531 -4.45723 -3.2563 0
M  V30 5344 H 528.007 -2.53091 -3.30279 0
M  V30 5345 H 526.883 -2.97519 -4.61274 0
M  V30 5346 H 527.144 -1.28049 -4.2315 0
M  V30 5347 N 526.204 0.969867 -1.24223 0
M  V30 5348 C 527.429 1.75289 -1.10853 0
M  V30 5349 C 527.854 1.85091 0.335079 0
M  V30 5350 O 527.212 1.32024 1.24255 0
M  V30 5351 C 527.26 3.15255 -1.75062 0
M  V30 5352 O 526.364 3.99589 -1.01992 0
M  V30 5353 H 525.705 0.538904 -0.387915 0
M  V30 5354 H 528.235 1.21675 -1.64488 0
M  V30 5355 H 528.245 3.65787 -1.80731 0
M  V30 5356 H 526.92 3.07436 -2.801 0
M  V30 5357 H 525.497 3.58077 -1.04094 0
M  V30 5358 N 527.682 1.05563 1.17022 0
M  V30 5359 C 528.592 0.670758 2.24807 0
M  V30 5360 C 529.608 -0.309865 1.71219 0
M  V30 5361 O 530.784 -0.161025 2.00755 0
M  V30 5362 C 527.849 0.055337 3.46656 0
M  V30 5363 C 526.91 1.08688 4.15314 0
M  V30 5364 C 526.143 0.500736 5.31346 0
M  V30 5365 O 526.366 -0.688718 5.66227 0
M  V30 5366 O 525.3 1.23683 5.89055 0
M  V30 5367 H 529.126 1.56914 2.60023 0
M  V30 5368 H 526.711 0.827428 1.24395 0
M  V30 5369 H 528.593 -0.286492 4.20425 0
M  V30 5370 H 527.268 -0.816638 3.13229 0
M  V30 5371 H 526.175 1.48077 3.43546 0
M  V30 5372 H 527.508 1.93014 4.52777 0
M  V30 5373 N 529.16 -1.33526 0.837174 0
M  V30 5374 C 530.07 -2.33023 0.271568 0
M  V30 5375 C 531.086 -1.63272 -0.601514 0
M  V30 5376 O 532.262 -1.94939 -0.506038 0
M  V30 5377 C 529.327 -3.42382 -0.545448 0
M  V30 5378 C 528.388 -4.27857 0.351709 0
M  V30 5379 C 527.621 -5.31994 -0.426409 0
M  V30 5380 O 527.844 -5.45763 -1.65828 0
M  V30 5381 O 526.778 -6.01572 0.1987 0
M  V30 5382 H 530.604 -2.83256 1.09545 0
M  V30 5383 H 528.189 -1.36837 0.599655 0
M  V30 5384 H 530.071 -4.09122 -1.00979 0
M  V30 5385 H 528.746 -2.94369 -1.34641 0
M  V30 5386 H 527.653 -3.6399 0.863853 0
M  V30 5387 H 528.986 -4.79349 1.1174 0
M  V30 5388 N 530.638 -0.59345 -1.46 0
M  V30 5389 C 531.601 0.123538 -2.28867 0
M  V30 5390 C 532.601 0.808628 -1.38989 0
M  V30 5391 O 533.791 0.658945 -1.61256 0
M  V30 5392 C 530.923 1.1847 -3.19653 0
M  V30 5393 H 532.116 -0.604843 -2.93737 0
M  V30 5394 H 529.669 -0.351875 -1.52288 0
M  V30 5395 H 530.404 1.94431 -2.59552 0
M  V30 5396 H 530.189 0.69783 -3.8584 0
M  V30 5397 H 531.679 1.68726 -3.81997 0
M  V30 5398 N 532.116 1.54067 -0.331816 0
M  V30 5399 C 533.079 2.23275 0.517768 0
M  V30 5400 C 534.079 1.22897 1.03697 0
M  V30 5401 O 535.269 1.47419 0.928084 0
M  V30 5402 C 532.401 2.94326 1.72004 0
M  V30 5403 H 533.594 2.99773 -0.0873507 0
M  V30 5404 H 531.147 1.56079 -0.0830042 0
M  V30 5405 H 531.882 2.21986 2.36417 0
M  V30 5406 H 531.667 3.67941 1.35507 0
M  V30 5407 H 533.157 3.47031 2.32291 0
M  V30 5408 N 533.594 0.0601682 1.57485 0
M  V30 5409 C 535.005 -0.474217 1.80577 0
M  V30 5410 C 535.356 -1.70365 0.973147 0
M  V30 5411 O 534.481 -2.15544 0.192306 0
M  V30 5412 C 535.076 -0.867102 3.27516 0
M  V30 5413 C 533.635 -1.34642 3.51495 0
M  V30 5414 C 532.782 -0.32594 2.75378 0
M  V30 5415 H 535.733 0.285973 1.56102 0
M  V30 5416 H 535.754 -1.72938 3.38929 0
M  V30 5417 H 535.266 0.0278927 3.8809 0
M  V30 5418 H 533.367 -2.2603 2.96212 0
M  V30 5419 H 533.48 -1.33237 4.60201 0
M  V30 5420 H 531.844 -0.800749 2.41785 0
M  V30 5421 H 532.627 0.561125 3.38683 0
M  V30 5422 N 535.072 -1.5615 -0.213296 0
M  V30 5423 C 536.035 -1.92249 -1.24792 0
M  V30 5424 C 537.035 -0.801828 -1.39382 0
M  V30 5425 O 538.225 -1.06948 -1.37506 0
M  V30 5426 C 535.357 -2.18056 -2.62039 0
M  V30 5427 H 536.55 -2.84793 -0.939845 0
M  V30 5428 H 534.103 -1.49559 -0.454062 0
M  V30 5429 H 534.838 -1.2809 -2.97932 0
M  V30 5430 H 534.623 -2.99703 -2.52825 0
M  V30 5431 H 536.113 -2.47051 -3.36683 0
M  V30 5432 N 536.55 0.480323 -1.50102 0
M  V30 5433 C 537.513 1.56181 -1.6775 0
M  V30 5434 C 538.513 1.51156 -0.548503 0
M  V30 5435 O 539.703 1.5394 -0.815363 0
M  V30 5436 C 536.835 2.95823 -1.69415 0
M  V30 5437 H 538.028 1.41855 -2.6423 0
M  V30 5438 H 535.581 0.70605 -1.39444 0
M  V30 5439 H 536.316 3.15604 -0.745948 0
M  V30 5440 H 536.101 3.00878 -2.51425 0
M  V30 5441 H 537.591 3.74359 -1.85054 0
M  V30 5442 N 538.028 1.39524 0.732853 0
M  V30 5443 C 538.96 1.34318 1.85718 0
M  V30 5444 C 539.973 0.251576 1.60844 0
M  V30 5445 O 541.162 0.510685 1.71039 0
M  V30 5446 C 538.262 1.06334 3.21786 0
M  V30 5447 C 537.435 2.26813 3.73998 0
M  V30 5448 C 536.494 1.95253 4.88634 0
M  V30 5449 O 535.52 2.67957 5.02183 0
M  V30 5450 N 536.722 0.919984 5.73164 0
M  V30 5451 H 539.487 2.3121 1.90688 0
M  V30 5452 H 537.048 1.33654 0.91368 0
M  V30 5453 H 539.04 0.832363 3.96048 0
M  V30 5454 H 537.61 0.181682 3.12072 0
M  V30 5455 H 536.83 2.65849 2.91064 0
M  V30 5456 H 538.118 3.0717 4.05616 0
M  V30 5457 H 537.516 0.317487 5.64808 0
M  V30 5458 H 536.073 0.748905 6.47483 0
M  V30 5459 N 539.506 -0.963266 1.24736 0
M  V30 5460 C 540.469 -2.04013 1.04457 0
M  V30 5461 C 541.469 -1.608 0.000335555 0
M  V30 5462 O 542.659 -1.72515 0.241719 0
M  V30 5463 C 539.791 -3.35858 0.584162 0
M  V30 5464 H 540.984 -2.23436 2.00041 0
M  V30 5465 H 538.537 -1.13914 1.07021 0
M  V30 5466 H 539.272 -3.22128 -0.374673 0
M  V30 5467 H 539.057 -3.68568 1.3379 0
M  V30 5468 H 540.547 -4.1502 0.463451 0
M  V30 5469 N 540.985 -1.06182 -1.16461 0
M  V30 5470 C 542.21 -0.798599 -1.91408 0
M  V30 5471 C 542.635 0.640987 -1.76842 0
M  V30 5472 O 541.993 1.44652 -1.09296 0
M  V30 5473 C 542.041 -1.19665 -3.40165 0
M  V30 5474 O 541.145 -0.334768 -4.11039 0
M  V30 5475 H 540.486 -0.291961 -0.596368 0
M  V30 5476 H 543.016 -1.41732 -1.47557 0
M  V30 5477 H 543.026 -1.16772 -3.90933 0
M  V30 5478 H 541.701 -2.24526 -3.50087 0
M  V30 5479 H 540.278 -0.425168 -3.70468 0
M  V30 5480 N 542.463 1.3308 -0.844243 0
M  V30 5481 C 543.373 2.32876 -0.283922 0
M  V30 5482 C 544.389 1.63589 0.592846 0
M  V30 5483 O 545.565 1.95205 0.495693 0
M  V30 5484 C 542.63 3.42667 0.527283 0
M  V30 5485 C 541.691 4.27664 -0.374394 0
M  V30 5486 C 540.924 5.32212 0.39819 0
M  V30 5487 O 541.147 5.46635 1.62932 0
M  V30 5488 O 540.081 6.01458 -0.2306 0
M  V30 5489 H 543.907 2.82671 -1.11045 0
M  V30 5490 H 541.492 1.36518 -0.606903 0
M  V30 5491 H 543.374 4.09652 0.988078 0
M  V30 5492 H 542.049 2.95079 1.33078 0
M  V30 5493 H 540.956 3.63526 -0.883144 0
M  V30 5494 H 542.289 4.78749 -1.1428 0
M  V30 5495 N 543.941 0.601185 1.45683 0
M  V30 5496 C 544.904 -0.111398 2.28929 0
M  V30 5497 C 545.904 -0.801246 1.39416 0
M  V30 5498 O 547.094 -0.650383 1.61603 0
M  V30 5499 C 544.226 -1.16773 3.20276 0
M  V30 5500 H 545.419 0.620412 2.93413 0
M  V30 5501 H 542.972 0.359946 1.52099 0
M  V30 5502 H 543.707 -1.93051 2.60579 0
M  V30 5503 H 543.492 -0.677358 3.86205 0
M  V30 5504 H 544.982 -1.66698 3.82886 0
M  V30 5505 N 545.419 -1.53889 0.339982 0
M  V30 5506 C 546.349 -2.27843 -0.510856 0
M  V30 5507 C 547.33 -1.29267 -1.10563 0
M  V30 5508 O 548.515 -1.58104 -1.12768 0
M  V30 5509 C 545.645 -3.04857 -1.66372 0
M  V30 5510 C 544.599 -4.10907 -1.19746 0
M  V30 5511 C 543.925 -4.75855 -2.43857 0
M  V30 5512 C 545.225 -5.21435 -0.300501 0
M  V30 5513 H 546.919 -2.99212 0.106067 0
M  V30 5514 H 544.465 -1.43904 0.0524533 0
M  V30 5515 H 546.418 -3.5533 -2.26537 0
M  V30 5516 H 545.142 -2.31133 -2.30749 0
M  V30 5517 H 543.801 -3.61342 -0.618654 0
M  V30 5518 H 543.449 -3.9873 -3.06633 0
M  V30 5519 H 543.149 -5.47502 -2.13343 0
M  V30 5520 H 544.673 -5.2911 -3.04754 0
M  V30 5521 H 546.087 -5.67565 -0.80889 0
M  V30 5522 H 544.484 -6.00036 -0.0874076 0
M  V30 5523 H 545.554 -4.80328 0.664321 0
M  V30 5524 N 546.897 -0.0685191 -1.57451 0
M  V30 5525 C 548.308 0.464634 -1.80826 0
M  V30 5526 C 548.659 1.69847 -0.982169 0
M  V30 5527 O 547.784 2.15439 -0.203734 0
M  V30 5528 C 548.379 0.849721 -3.27971 0
M  V30 5529 C 546.938 1.32776 -3.52204 0
M  V30 5530 C 546.085 0.311332 -2.75547 0
M  V30 5531 H 549.036 -0.294248 -1.55948 0
M  V30 5532 H 549.057 1.71138 -3.39841 0
M  V30 5533 H 548.569 -0.0484736 -3.8807 0
M  V30 5534 H 546.67 2.24456 -2.97406 0
M  V30 5535 H 546.783 1.30794 -4.60901 0
M  V30 5536 H 545.147 0.787915 -2.42206 0
M  V30 5537 H 545.93 -0.579078 -3.38381 0
M  V30 5538 N 548.375 1.56261 0.205012 0
M  V30 5539 C 549.338 1.92908 1.23771 0
M  V30 5540 C 550.338 0.809208 1.38955 0
M  V30 5541 O 551.528 1.07676 1.36936 0
M  V30 5542 C 548.66 2.19442 2.60879 0
M  V30 5543 H 549.853 2.85287 0.924728 0
M  V30 5544 H 547.406 1.49798 0.446125 0
M  V30 5545 H 548.141 1.29668 2.97248 0
M  V30 5546 H 547.926 3.0104 2.51232 0
M  V30 5547 H 549.416 2.48833 3.35368 0
M  V30 5548 N 549.853 -0.472356 1.50355 0
M  V30 5549 C 550.785 -1.58795 1.65278 0
M  V30 5550 C 551.798 -1.53782 0.534313 0
M  V30 5551 O 552.987 -1.59193 0.807446 0
M  V30 5552 C 550.087 -2.97672 1.62001 0
M  V30 5553 C 549.26 -3.27568 2.89859 0
M  V30 5554 C 548.319 -4.45993 2.79242 0
M  V30 5555 O 547.345 -4.46364 3.53197 0
M  V30 5556 N 548.547 -5.47578 1.92713 0
M  V30 5557 H 551.312 -1.46411 2.61503 0
M  V30 5558 H 548.873 -0.660751 1.47803 0
M  V30 5559 H 550.865 -3.74862 1.52513 0
M  V30 5560 H 549.435 -3.03832 0.735159 0
M  V30 5561 H 548.655 -2.39003 3.13483 0
M  V30 5562 H 549.943 -3.44352 3.74565 0
M  V30 5563 H 549.341 -5.50099 1.31939 0
M  V30 5564 H 547.898 -6.23757 1.8913 0
M  V30 5565 N 551.331 -1.39911 -0.725443 0
M  V30 5566 C 552.241 -1.41688 -1.8698 0
M  V30 5567 C 553.257 -0.310579 -1.71206 0
M  V30 5568 O 554.433 -0.55359 -1.93642 0
M  V30 5569 C 551.498 -1.26811 -3.22676 0
M  V30 5570 C 550.559 -2.47497 -3.50776 0
M  V30 5571 C 549.792 -2.3332 -4.79997 0
M  V30 5572 O 550.015 -1.34175 -5.54394 0
M  V30 5573 O 548.949 -3.22498 -5.08211 0
M  V30 5574 H 552.775 -2.38171 -1.88436 0
M  V30 5575 H 550.36 -1.21128 -0.874548 0
M  V30 5576 H 552.242 -1.20684 -4.03749 0
M  V30 5577 H 550.917 -0.334289 -3.21969 0
M  V30 5578 H 549.824 -2.59201 -2.69751 0
M  V30 5579 H 551.157 -3.39606 -3.5627 0
M  V30 5580 O 552.848 0.866802 -1.36267 0
M  V30 5581 H 553.539 1.50585 -1.21835 0
M  V30 END ATOM
M  V30 BEGIN BOND
M  V30 END BOND
M  V30 END CTAB
M  END
$$$$
