drugbank_target|P12814 Alpha-actinin-1 (DB06773; DB09130)
 OpenBabel12092121053D

  0  0  0     0  0            999 V3000
M  V30 BEGIN CTAB
M  V30 COUNTS 14343 14486 0 0 0
M  V30 BEGIN ATOM
M  V30 1 H -0.908 1.98254 -0.117106 0
M  V30 2 N 0 1.576 0 0
M  V30 3 C 0.933 2.03868 1.02534 0
M  V30 4 C 1.911 0.928543 1.3348 0
M  V30 5 O 3.095 1.19667 1.45644 0
M  V30 6 C 0.222 2.43627 2.35294 0
M  V30 7 C -0.732 3.65373 2.2001 0
M  V30 8 S 0.101 5.13292 1.52614 0
M  V30 9 C 1.257 5.56322 2.86805 0
M  V30 10 H 1.49 2.90518 0.631377 0
M  V30 11 H -0.977 1.52953 0.210867 0
M  V30 12 H 0.981 2.67203 3.11629 0
M  V30 13 H -0.358 1.57376 2.7183 0
M  V30 14 H -1.165 3.90944 3.18086 0
M  V30 15 H -1.563 3.418 1.51819 0
M  V30 16 H 0.729 5.58782 3.83104 0
M  V30 17 H 1.672 6.56266 2.65933 0
M  V30 18 H 2.08 4.83886 2.90714 0
M  V30 19 N 1.4781 -0.272755 1.55222 0
M  V30 20 C 2.7551 -1.02562 1.66555 0
M  V30 21 C 3.1351 -2.04282 0.532189 0
M  V30 22 O 2.4831 -2.23662 -0.467717 0
M  V30 23 C 2.6931 -1.6822 3.05782 0
M  V30 24 C 4.0411 -2.19373 3.63539 0
M  V30 25 O 5.0651 -1.78206 3.08417 0
M  V30 26 O 3.9241 -2.94883 4.60115 0
M  V30 27 H 1.0181 -0.475755 0.676451 0
M  V30 28 H 3.5641 -0.268593 1.67561 0
M  V30 29 H 2.3361 -0.945112 3.79715 0
M  V30 30 H 1.9591 -2.50609 3.08676 0
M  V30 31 N 2.9562 -1.48159 -0.537278 0
M  V30 32 C 3.9062 -1.5854 -1.63857 0
M  V30 33 C 4.8902 -0.442969 -1.54682 0
M  V30 34 O 6.0822 -0.69401 -1.62827 0
M  V30 35 C 3.2112 -1.62144 -3.02596 0
M  V30 36 C 2.2972 -2.81841 -3.16901 0
M  V30 37 N 2.6882 -4.06337 -3.01204 0
M  V30 38 C 0.9862 -2.79021 -3.47942 0
M  V30 39 C 1.6872 -4.86606 -3.18731 0
M  V30 40 N 0.6632 -4.19288 -3.45974 0
M  V30 41 H 4.4652 -2.5255 -1.50319 0
M  V30 42 H 1.9792 -1.4443 -0.742555 0
M  V30 43 H 3.9762 -1.67674 -3.81695 0
M  V30 44 H 2.6362 -0.69245 -3.17231 0
M  V30 45 H 3.6472 -4.36888 -2.78117 0
M  V30 46 H 0.3242 -1.95347 -3.6898 0
M  V30 47 H 1.7142 -5.95385 -3.11394 0
M  V30 48 N 4.4343 0.785586 -1.36625 0
M  V30 49 C 5.6643 1.5722 -1.34036 0
M  V30 50 C 6.0723 1.89033 0.0795062 0
M  V30 51 O 5.4153 1.50881 1.04789 0
M  V30 52 C 5.4773 2.91759 -2.10041 0
M  V30 53 C 5.1413 2.82654 -3.59104 0
M  V30 54 C 6.1383 2.54634 -4.53274 0
M  V30 55 C 3.8233 3.01111 -4.02042 0
M  V30 56 C 5.8173 2.45177 -5.88359 0
M  V30 57 C 3.5043 2.91276 -5.37216 0
M  V30 58 C 4.5023 2.63348 -6.30188 0
M  V30 59 O 4.1903 2.53514 -7.6288 0
M  V30 60 H 3.9223 0.494177 -0.461265 0
M  V30 61 H 6.4763 0.982632 -1.8037 0
M  V30 62 H 4.7063 3.52781 -1.58375 0
M  V30 63 H 6.3953 3.53059 -2.00261 0
M  V30 64 H 7.1613 2.40073 -4.21414 0
M  V30 65 H 3.0403 3.21854 -3.30047 0
M  V30 66 H 6.5843 2.23299 -6.60896 0
M  V30 67 H 2.4813 3.054 -5.68684 0
M  V30 68 H 3.2493 2.68967 -7.73045 0
M  V30 69 N 5.9124 1.20967 1.01018 0
M  V30 70 C 7.1894 0.93264 1.71934 0
M  V30 71 C 7.5694 -0.55692 2.03621 0
M  V30 72 O 6.9174 -1.52035 1.7058 0
M  V30 73 C 7.1274 1.81233 2.98254 0
M  V30 74 C 8.4754 2.05804 3.71389 0
M  V30 75 O 9.4994 1.78539 3.08225 0
M  V30 76 O 8.3584 2.51888 4.84989 0
M  V30 77 H 5.4524 0.349272 0.749625 0
M  V30 78 H 7.9984 1.31871 1.06808 0
M  V30 79 H 6.7704 2.82067 2.71208 0
M  V30 80 H 6.3934 1.42674 3.7112 0
M  V30 81 N 7.3905 -1.2043 1.01659 0
M  V30 82 C 8.6155 -1.94318 0.724942 0
M  V30 83 C 9.0405 -1.74266 -0.708034 0
M  V30 84 O 8.3985 -1.03694 -1.48719 0
M  V30 85 C 8.4465 -3.44486 1.06591 0
M  V30 86 O 7.5505 -4.12017 0.177599 0
M  V30 87 H 6.8915 -0.60708 0.26898 0
M  V30 88 H 9.4215 -1.52861 1.35995 0
M  V30 89 H 9.4315 -3.95106 1.01762 0
M  V30 90 H 8.1065 -3.58404 2.10997 0
M  V30 91 H 6.6835 -3.71821 0.283421 0
M  V30 92 N 8.8686 -0.792821 -1.36206 0
M  V30 93 C 9.8006 -0.151469 -2.28699 0
M  V30 94 C 10.8136 0.641262 -1.49638 0
M  V30 95 O 12.0026 0.475885 -1.72039 0
M  V30 96 C 9.1026 0.808424 -3.29117 0
M  V30 97 C 8.2756 0.0650202 -4.37352 0
M  V30 98 C 7.3346 0.941358 -5.17711 0
M  V30 99 O 6.3606 0.397352 -5.67811 0
M  V30 100 N 7.5626 2.2652 -5.3448 0
M  V30 101 H 10.3276 -0.945982 -2.84379 0
M  V30 102 H 7.8886 -0.647032 -1.48409 0
M  V30 103 H 9.8806 1.3986 -3.79765 0
M  V30 104 H 8.4506 1.5038 -2.74052 0
M  V30 105 H 7.6706 -0.706255 -3.87822 0
M  V30 106 H 8.9586 -0.447847 -5.06825 0
M  V30 107 H 8.3566 2.73128 -4.95396 0
M  V30 108 H 6.9136 2.80493 -5.88359 0
M  V30 109 N 10.3467 1.47872 -0.545128 0
M  V30 110 C 11.2787 2.27869 0.246621 0
M  V30 111 C 12.2917 1.36282 0.890561 0
M  V30 112 O 13.4807 1.61207 0.766449 0
M  V30 113 C 10.5807 3.10159 1.36582 0
M  V30 114 C 9.7537 4.29627 0.820954 0
M  V30 115 C 8.8127 4.93607 1.82314 0
M  V30 116 O 7.8387 5.52366 1.37406 0
M  V30 117 N 9.0407 4.87211 3.15603 0
M  V30 118 H 11.8057 2.96459 -0.439539 0
M  V30 119 H 9.3667 1.57367 -0.380421 0
M  V30 120 H 11.3587 3.49829 2.03474 0
M  V30 121 H 9.9287 2.43891 1.9554 0
M  V30 122 H 9.1487 3.94192 -0.0244032 0
M  V30 123 H 10.4367 5.06928 0.436063 0
M  V30 124 H 9.8347 4.40651 3.54744 0
M  V30 125 H 8.3917 5.30937 3.78087 0
M  V30 126 N 11.8248 0.280983 1.55075 0
M  V30 127 C 13.0528 -0.337293 2.04132 0
M  V30 128 C 13.4678 -1.4903 1.15912 0
M  V30 129 O 12.8248 -1.81606 0.180459 0
M  V30 130 C 12.8758 -0.812706 3.52246 0
M  V30 131 O 12.5968 0.294387 4.3711 0
M  V30 132 C 14.0978 -1.4982 4.17216 0
M  V30 133 H 11.3178 -0.0761638 0.666663 0
M  V30 134 H 13.8618 0.414787 2.00249 0
M  V30 135 H 12.0168 -1.51486 3.56554 0
M  V30 136 H 12.4308 -0.0721325 5.2445 0
M  V30 137 H 13.9048 -1.7822 5.22438 0
M  V30 138 H 14.3818 -2.43168 3.65741 0
M  V30 139 H 14.9878 -0.839742 4.16927 0
M  V30 140 N 13.3029 -1.57598 0.00835791 0
M  V30 141 C 14.2509 -2.10078 -0.998508 0
M  V30 142 C 15.2449 -1.02262 -1.35051 0
M  V30 143 O 16.4509 -1.20719 -1.33518 0
M  V30 144 H 12.8259 -0.670903 -0.339696 0
M  V30 145 H 14.7969 -2.93648 -0.530398 0
M  V30 146 C 13.5459 -2.62615 -2.27879 0
M  V30 147 H 12.8689 -3.45213 -2.01662 0
M  V30 148 H 14.3089 -3.03004 -2.96588 0
M  V30 149 C 12.7679 -1.54407 -2.99433 0
M  V30 150 O 13.2979 -0.931812 -3.90743 0
M  V30 151 N 11.5039 -1.2695 -2.61404 0
M  V30 152 H 11.0509 -1.76924 -1.87232 0
M  V30 153 H 11.0089 -0.547704 -3.09593 0
M  V30 154 N 14.781 0.264519 -1.55364 0
M  V30 155 C 16.058 1.01677 -1.67096 0
M  V30 156 C 16.438 2.03996 -0.543015 0
M  V30 157 O 15.786 2.23907 0.45585 0
M  V30 158 C 15.996 1.66596 -3.0667 0
M  V30 159 C 17.344 2.17442 -3.64697 0
M  V30 160 O 18.368 1.76568 -3.09358 0
M  V30 161 O 17.227 2.92439 -4.61673 0
M  V30 162 H 14.321 0.472161 -0.678965 0
M  V30 163 H 16.867 0.259703 -1.67701 0
M  V30 164 H 15.639 0.924962 -3.80211 0
M  V30 165 H 15.262 2.48968 -3.10001 0
M  V30 166 N 16.2591 1.48442 0.529413 0
M  V30 167 C 17.4891 1.59919 1.30804 0
M  V30 168 C 17.8971 0.258792 1.87422 0
M  V30 169 O 17.2401 -0.762096 1.67146 0
M  V30 170 C 17.3021 2.58693 2.49636 0
M  V30 171 C 16.9661 4.03745 2.14101 0
M  V30 172 C 17.9631 4.9141 1.6974 0
M  V30 173 C 15.6481 4.49285 2.24607 0
M  V30 174 C 17.6421 6.22645 1.36351 0
M  V30 175 C 15.3291 5.8054 1.9083 0
M  V30 176 C 16.3271 6.67043 1.46773 0
M  V30 177 O 16.0151 7.95856 1.1344 0
M  V30 178 H 15.7471 0.541981 0.404021 0
M  V30 179 H 18.3011 1.95 0.645309 0
M  V30 180 H 16.5311 2.18734 3.18892 0
M  V30 181 H 18.2201 2.59999 3.11698 0
M  V30 182 H 18.9861 4.57465 1.61094 0
M  V30 183 H 14.8651 3.82142 2.57854 0
M  V30 184 H 18.4091 6.90119 1.01891 0
M  V30 185 H 14.3061 6.14022 1.99117 0
M  V30 186 H 15.0741 8.08613 1.26832 0
M  V30 187 N 17.7372 -0.778329 1.37039 0
M  V30 188 C 18.6702 -1.8984 1.26633 0
M  V30 189 C 19.6482 -1.61923 0.148197 0
M  V30 190 O 20.8322 -1.85742 0.321265 0
M  V30 191 C 17.9592 -3.24916 0.956403 0
M  V30 192 C 17.0052 -3.71752 2.09051 0
M  V30 193 S 17.8382 -3.86201 3.70957 0
M  V30 194 C 18.9942 -5.24135 3.42101 0
M  V30 195 H 19.2272 -1.98377 2.21436 0
M  V30 196 H 16.7602 -0.938738 1.22585 0
M  V30 197 H 18.7182 -4.02936 0.784409 0
M  V30 198 H 17.3792 -3.14089 0.0259713 0
M  V30 199 H 16.5722 -4.69661 1.8285 0
M  V30 200 H 16.1742 -3.00815 2.2223 0
M  V30 201 H 18.4662 -6.09086 2.96682 0
M  V30 202 H 19.4092 -5.55346 4.39314 0
M  V30 203 H 19.8172 -4.91761 2.77185 0
M  V30 204 N 19.2153 -1.21501 -1.00376 0
M  V30 205 C 20.1473 -0.933174 -2.09343 0
M  V30 206 C 21.1603 0.0840896 -1.62583 0
M  V30 207 O 22.3493 -0.148563 -1.77881 0
M  V30 208 C 19.4493 -0.379869 -3.36764 0
M  V30 209 C 18.6223 -1.45176 -4.12605 0
M  V30 210 C 17.6813 -0.907476 -5.18316 0
M  V30 211 O 16.7073 -1.5912 -5.46507 0
M  V30 212 N 17.9093 0.276649 -5.7984 0
M  V30 213 H 20.6743 -1.87124 -2.34104 0
M  V30 214 H 18.2353 -1.12043 -1.16867 0
M  V30 215 H 20.2273 -0.00131488 -4.047 0
M  V30 216 H 18.7973 0.463048 -3.09151 0
M  V30 217 H 18.0173 -2.00411 -3.39454 0
M  V30 218 H 19.3053 -2.17328 -4.6005 0
M  V30 219 H 18.7033 0.849147 -5.59291 0
M  V30 220 H 17.2603 0.596702 -6.49063 0
M  V30 221 N 20.6934 1.19889 -1.02296 0
M  V30 222 C 22.1044 1.71124 -0.746568 0
M  V30 223 C 22.4554 1.81939 0.734335 0
M  V30 224 O 21.5804 1.48639 1.57275 0
M  V30 225 C 22.1754 3.10804 -1.34857 0
M  V30 226 C 20.7344 3.59323 -1.1209 0
M  V30 227 C 19.8814 2.3635 -1.45031 0
M  V30 228 H 22.8324 1.04813 -1.19163 0
M  V30 229 H 22.8534 3.73186 -0.742437 0
M  V30 230 H 22.3654 3.029 -2.42638 0
M  V30 231 H 20.4664 3.7255 -0.0610337 0
M  V30 232 H 20.5794 4.4378 -1.80544 0
M  V30 233 H 18.9434 2.39399 -0.869487 0
M  V30 234 H 19.7264 2.31081 -2.53883 0
M  V30 235 N 22.1715 0.800033 1.35784 0
M  V30 236 C 23.0815 0.207204 2.33683 0
M  V30 237 C 24.0975 -0.64631 1.61551 0
M  V30 238 O 25.2735 -0.559604 1.93469 0
M  V30 239 C 22.3385 -0.639659 3.40748 0
M  V30 240 C 21.3995 0.233585 4.28664 0
M  V30 241 C 20.6325 -0.572954 5.30616 0
M  V30 242 O 20.8555 -1.80816 5.40982 0
M  V30 243 O 19.7895 0.0327285 6.01891 0
M  V30 244 H 23.6155 1.01692 2.86169 0
M  V30 245 H 21.2005 0.561691 1.38439 0
M  V30 246 H 23.0825 -1.12223 4.06182 0
M  V30 247 H 21.7575 -1.42708 2.90544 0
M  V30 248 H 20.6645 0.763147 3.66233 0
M  V30 249 H 21.9975 0.984784 4.82248 0
M  V30 250 N 23.6496 -1.47581 0.552962 0
M  V30 251 C 24.5596 -2.33743 -0.200353 0
M  V30 252 C 25.5756 -1.47928 -0.916151 0
M  V30 253 O 26.7516 -1.80865 -0.885993 0
M  V30 254 C 23.8166 -3.24536 -1.21973 0
M  V30 255 C 22.8776 -4.26238 -0.511819 0
M  V30 256 C 22.1106 -5.12693 -1.48263 0
M  V30 257 O 22.3336 -5.01525 -2.71714 0
M  V30 258 O 21.2676 -5.93375 -1.00945 0
M  V30 259 H 25.0936 -2.9945 0.506304 0
M  V30 260 H 22.6786 -1.46071 0.313622 0
M  V30 261 H 24.5606 -3.80631 -1.80827 0
M  V30 262 H 23.2356 -2.61462 -1.90839 0
M  V30 263 H 22.1426 -3.73914 0.117799 0
M  V30 264 H 23.4756 -4.92014 0.135308 0
M  V30 265 N 25.1277 -0.289203 -1.54924 0
M  V30 266 C 26.4047 0.376032 -1.91951 0
M  V30 267 C 26.7847 1.72622 -1.21511 0
M  V30 268 O 26.1327 2.25853 -0.346767 0
M  V30 269 C 26.3427 0.502378 -3.45365 0
M  V30 270 C 27.6907 0.778741 -4.17398 0
M  V30 271 O 28.7147 0.586647 -3.51336 0
M  V30 272 O 27.5737 1.14698 -5.34328 0
M  V30 273 H 24.6677 0.208167 -0.800372 0
M  V30 274 H 27.2137 -0.336394 -1.66332 0
M  V30 275 H 25.9857 -0.447255 -3.88736 0
M  V30 276 H 25.6087 1.26373 -3.76982 0
M  V30 277 N 26.6058 1.57591 -0.0167156 0
M  V30 278 C 27.8518 1.92399 0.659861 0
M  V30 279 C 28.2068 0.892561 1.70444 0
M  V30 280 O 27.4998 -0.0930755 1.91374 0
M  V30 281 C 27.6938 3.3172 1.33029 0
M  V30 282 C 27.5228 4.48319 0.352174 0
M  V30 283 C 26.2928 5.05281 -0.0434883 0
M  V30 284 C 28.4908 5.12831 -0.388474 0
M  V30 285 N 26.4728 6.05399 -1.01807 0
M  V30 286 C 27.8438 6.07934 -1.2172 0
M  V30 287 C 29.8988 4.95858 -0.450513 0
M  V30 288 C 28.6018 6.87891 -2.10235 0
M  V30 289 C 30.6278 5.76413 -1.32295 0
M  V30 290 C 29.9898 6.71123 -2.13948 0
M  V30 291 H 26.0888 0.752106 0.21415 0
M  V30 292 H 28.6728 1.94532 -0.0809846 0
M  V30 293 H 26.8438 3.3043 2.04134 0
M  V30 294 H 28.5758 3.5391 1.9629 0
M  V30 295 H 25.3308 4.7246 0.328384 0
M  V30 296 H 25.7548 6.60145 -1.50123 0
M  V30 297 H 30.3968 4.22472 0.166512 0
M  V30 298 H 28.1148 7.60591 -2.72997 0
M  V30 299 H 31.7008 5.65317 -1.37508 0
M  V30 300 H 30.5808 7.3237 -2.80364 0
M  V30 301 N 28.0839 -0.256276 1.55502 0
M  V30 302 C 29.3609 -1.00789 1.67633 0
M  V30 303 C 29.7409 -2.03706 0.553826 0
M  V30 304 O 29.0889 -2.24145 -0.443969 0
M  V30 305 C 29.2989 -1.64968 3.07549 0
M  V30 306 C 30.6469 -2.15505 3.65845 0
M  V30 307 O 31.6709 -1.74925 3.1029 0
M  V30 308 O 30.5299 -2.89986 4.63217 0
M  V30 309 H 27.6239 -0.468553 0.681459 0
M  V30 310 H 30.1699 -0.250806 1.67836 0
M  V30 311 H 28.9419 -0.904785 3.80696 0
M  V30 312 H 28.5649 -2.47321 3.11317 0
M  V30 313 N 29.562 -1.4872 -0.521534 0
M  V30 314 C 30.978 -1.35028 -0.850855 0
M  V30 315 C 31.178 -0.367712 -1.98116 0
M  V30 316 O 30.234 0.208037 -2.51642 0
M  V30 317 C 31.547 -2.75263 -1.21041 0
M  V30 318 C 33.095 -2.83813 -1.31981 0
M  V30 319 C 33.57 -4.24769 -1.71276 0
M  V30 320 N 35.061 -4.27482 -1.78363 0
M  V30 321 C 35.796 -5.33494 -2.1017 0
M  V30 322 N 35.292 -6.49775 -2.40343 0
M  V30 323 N 37.085 -5.20894 -2.11248 0
M  V30 324 H 29.236 -2.11214 0.22413 0
M  V30 325 H 31.499 -0.947252 0.0376439 0
M  V30 326 H 31.205 -3.48765 -0.453415 0
M  V30 327 H 31.079 -3.09327 -2.15863 0
M  V30 328 H 33.466 -2.10561 -2.06756 0
M  V30 329 H 33.547 -2.53358 -0.352596 0
M  V30 330 H 33.191 -4.9854 -0.970588 0
M  V30 331 H 33.121 -4.52673 -2.69062 0
M  V30 332 H 35.612 -3.43611 -1.57288 0
M  V30 333 H 35.925 -7.26402 -2.63743 0
M  V30 334 H 34.27 -6.53035 -2.37844 0
M  V30 335 H 37.461 -4.29065 -1.87139 0
M  V30 336 H 37.634 -6.03612 -2.35704 0
M  V30 337 N 31.0401 0.771051 -1.3745 0
M  V30 338 C 32.3171 1.519 -1.23231 0
M  V30 339 C 32.6971 2.10383 0.173809 0
M  V30 340 O 32.0451 1.95583 1.18151 0
M  V30 341 C 32.2551 2.59933 -2.32886 0
M  V30 342 C 33.6031 3.27316 -2.70461 0
M  V30 343 O 34.6271 2.70228 -2.32068 0
M  V30 344 O 33.4861 4.30531 -3.36608 0
M  V30 345 H 30.5801 0.672803 -0.480901 0
M  V30 346 H 33.1261 0.807957 -1.49232 0
M  V30 347 H 31.8981 2.14842 -3.27045 0
M  V30 348 H 31.5211 3.38637 -2.08353 0
M  V30 349 N 32.5182 1.22032 0.997298 0
M  V30 350 C 33.4482 1.01065 2.10495 0
M  V30 351 C 34.4292 -0.0669542 1.69968 0
M  V30 352 O 35.6142 0.0943987 1.9397 0
M  V30 353 C 32.7442 0.582874 3.42374 0
M  V30 354 C 31.6982 1.60592 3.96729 0
M  V30 355 C 31.0242 1.03412 5.24605 0
M  V30 356 C 32.3242 2.99478 4.27914 0
M  V30 357 H 34.0182 1.93708 2.28292 0
M  V30 358 H 31.5642 0.932761 1.09707 0
M  V30 359 H 33.5172 0.423332 4.19268 0
M  V30 360 H 32.2412 -0.379213 3.24391 0
M  V30 361 H 30.9002 1.75316 3.21963 0
M  V30 362 H 30.5482 0.063518 5.0296 0
M  V30 363 H 30.2482 1.71754 5.61938 0
M  V30 364 H 31.7722 0.886066 6.04137 0
M  V30 365 H 33.1862 2.88153 4.95622 0
M  V30 366 H 31.5832 3.64903 4.76409 0
M  V30 367 H 32.6532 3.49742 3.3587 0
M  V30 368 N 33.9963 -1.19345 1.0293 0
M  V30 369 C 34.9263 -2.2481 0.631105 0
M  V30 370 C 35.9073 -1.66245 -0.360104 0
M  V30 371 O 37.0923 -1.92677 -0.242726 0
M  V30 372 C 34.2223 -3.47295 -0.0184607 0
M  V30 373 C 33.1763 -4.18536 0.895073 0
M  V30 374 C 32.5023 -5.34586 0.110592 0
M  V30 375 C 33.8023 -4.73287 2.209 0
M  V30 376 H 35.4963 -2.58372 1.51275 0
M  V30 377 H 33.0423 -1.24194 0.728818 0
M  V30 378 H 34.9953 -4.20268 -0.308675 0
M  V30 379 H 33.7193 -3.12933 -0.934907 0
M  V30 380 H 32.3783 -3.47446 1.16949 0
M  V30 381 H 32.0263 -4.96469 -0.807902 0
M  V30 382 H 31.7263 -5.83183 0.719087 0
M  V30 383 H 33.2503 -6.10355 -0.172871 0
M  V30 384 H 34.6643 -5.38013 1.98028 0
M  V30 385 H 33.0613 -5.32373 2.76946 0
M  V30 386 H 34.1313 -3.91331 2.86336 0
M  V30 387 N 35.4744 -0.807222 -1.35358 0
M  V30 388 C 36.4044 -0.232509 -2.3234 0
M  V30 389 C 37.3854 0.642386 -1.57504 0
M  V30 390 O 38.5704 0.572526 -1.85569 0
M  V30 391 C 35.7004 0.619238 -3.41735 0
M  V30 392 C 34.6544 -0.157215 -4.27711 0
M  V30 393 C 33.9804 0.816273 -5.28433 0
M  V30 394 C 35.2804 -1.35656 -5.04376 0
M  V30 395 H 36.9744 -1.04276 -2.80654 0
M  V30 396 H 34.5204 -0.50288 -1.34934 0
M  V30 397 H 36.4734 1.03137 -4.08584 0
M  V30 398 H 35.1974 1.46239 -2.92031 0
M  V30 399 H 33.8564 -0.550525 -3.62443 0
M  V30 400 H 33.5044 1.65494 -4.74996 0
M  V30 401 H 33.2044 0.301067 -5.86828 0
M  V30 402 H 34.7284 1.22659 -5.98153 0
M  V30 403 H 36.1424 -1.01927 -5.64166 0
M  V30 404 H 34.5394 -1.8063 -5.7227 0
M  V30 405 H 35.6094 -2.14288 -4.34981 0
M  V30 406 N 36.9525 1.47285 -0.560781 0
M  V30 407 C 38.2295 1.9558 0.0277798 0
M  V30 408 C 38.6095 1.5034 1.48192 0
M  V30 409 O 37.9575 0.743882 2.16052 0
M  V30 410 C 38.1675 3.48789 -0.121418 0
M  V30 411 C 39.5155 4.24594 0.0220912 0
M  V30 412 O 40.5395 3.56166 -0.0491439 0
M  V30 413 O 39.3985 5.46217 0.175958 0
M  V30 414 H 36.4925 0.824663 0.0621342 0
M  V30 415 H 39.0385 1.5767 -0.627556 0
M  V30 416 H 37.8105 3.74533 -1.13316 0
M  V30 417 H 37.4335 3.93473 0.571366 0
M  V30 418 N 38.4306 0.297415 1.54768 0
M  V30 419 C 39.8416 -0.195947 1.85669 0
M  V30 420 C 40.1926 -1.53707 1.21937 0
M  V30 421 O 39.3176 -2.10164 0.515754 0
M  V30 422 C 39.9126 -0.362318 3.36857 0
M  V30 423 C 38.4716 -0.799901 3.67802 0
M  V30 424 C 37.6186 0.0938578 2.77141 0
M  V30 425 H 40.5696 0.518538 1.4999 0
M  V30 426 H 40.5906 -1.19745 3.61167 0
M  V30 427 H 40.1026 0.613921 3.83214 0
M  V30 428 H 38.2036 -1.78682 3.26961 0
M  V30 429 H 38.3166 -0.621773 4.75048 0
M  V30 430 H 36.6806 -0.426254 2.51108 0
M  V30 431 H 37.4636 1.06639 3.26318 0
M  V30 432 N 39.9087 -1.5758 0.0250728 0
M  V30 433 C 40.8717 -2.08896 -0.943139 0
M  V30 434 C 41.8717 -1.00321 -1.25668 0
M  V30 435 O 43.0617 -1.26495 -1.19769 0
M  V30 436 C 40.1937 -2.55143 -2.26086 0
M  V30 437 H 41.3867 -2.95723 -0.498775 0
M  V30 438 H 38.9397 -1.54703 -0.222888 0
M  V30 439 H 39.6747 -1.71633 -2.75159 0
M  V30 440 H 39.4597 -3.34461 -2.04641 0
M  V30 441 H 40.9497 -2.95083 -2.95492 0
M  V30 442 N 41.3868 0.248026 -1.55636 0
M  V30 443 C 42.6328 0.973427 -1.78594 0
M  V30 444 C 42.9878 1.83007 -0.593823 0
M  V30 445 O 42.2808 1.87097 0.412961 0
M  V30 446 C 42.4748 1.86819 -3.04686 0
M  V30 447 C 42.3038 1.09965 -4.36048 0
M  V30 448 C 41.0738 0.805204 -4.98843 0
M  V30 449 C 43.2718 0.477783 -5.12076 0
M  V30 450 N 41.2538 0.0124859 -6.13899 0
M  V30 451 C 42.6248 -0.179565 -6.1974 0
M  V30 452 C 44.6798 0.388136 -4.96385 0
M  V30 453 C 43.3828 -0.91795 -7.13419 0
M  V30 454 C 45.4088 -0.336716 -5.90441 0
M  V30 455 C 44.7708 -0.982705 -6.97511 0
M  V30 456 H 40.8698 0.337348 -0.705493 0
M  V30 457 H 43.4538 0.24667 -1.93131 0
M  V30 458 H 41.6248 2.56698 -2.9148 0
M  V30 459 H 43.3568 2.52907 -3.15944 0
M  V30 460 H 40.1118 1.11671 -4.60246 0
M  V30 461 H 40.5358 -0.371933 -6.75978 0
M  V30 462 H 45.1778 0.873237 -4.13684 0
M  V30 463 H 42.8958 -1.41466 -7.95621 0
M  V30 464 H 46.4818 -0.406731 -5.80377 0
M  V30 465 H 45.3618 -1.53464 -7.69037 0
M  V30 466 N 42.8649 1.48995 0.513639 0
M  V30 467 C 43.7749 1.67443 1.64317 0
M  V30 468 C 44.7909 0.556947 1.64846 0
M  V30 469 O 45.9669 0.830082 1.83498 0
M  V30 470 C 43.0319 1.72515 3.00732 0
M  V30 471 C 42.0929 2.96009 3.1093 0
M  V30 472 C 41.3259 3.00829 4.40837 0
M  V30 473 O 41.5489 2.13594 5.28898 0
M  V30 474 O 40.4829 3.93168 4.55744 0
M  V30 475 H 44.3089 2.63106 1.51687 0
M  V30 476 H 41.8939 1.32588 0.688543 0
M  V30 477 H 43.7759 1.78277 3.81831 0
M  V30 478 H 42.4509 0.800278 3.13651 0
M  V30 479 H 41.3579 2.9577 2.29065 0
M  V30 480 H 42.6909 3.87934 3.02933 0
M  V30 481 N 44.343 -0.763751 1.37857 0
M  V30 482 C 45.29 -1.87726 1.34267 0
M  V30 483 C 46.26 -1.64807 0.206879 0
M  V30 484 O 47.445 -1.86613 0.397508 0
M  V30 485 C 44.585 -3.24896 1.16346 0
M  V30 486 C 43.698 -3.59716 2.39225 0
M  V30 487 C 42.833 -4.86137 2.14114 0
M  V30 488 C 41.872 -5.13711 3.32817 0
M  V30 489 N 41.009 -6.31323 3.07206 0
M  V30 490 H 45.849 -1.90129 2.29466 0
M  V30 491 H 43.386 -0.929433 1.14017 0
M  V30 492 H 45.344 -4.04036 1.03975 0
M  V30 493 H 43.974 -3.21847 0.247909 0
M  V30 494 H 43.026 -2.75498 2.62307 0
M  V30 495 H 44.338 -3.76027 3.27728 0
M  V30 496 H 43.492 -5.73198 1.9882 0
M  V30 497 H 42.231 -4.71945 1.22961 0
M  V30 498 H 41.236 -4.25123 3.48641 0
M  V30 499 H 42.461 -5.29807 4.24832 0
M  V30 500 H 40.407 -6.18474 2.1869 0
M  V30 501 H 40.324 -6.48087 3.89254 0
M  V30 502 H 41.592 -7.213 2.95546 0
M  V30 503 N 45.8211 -1.22559 -0.990812 0
M  V30 504 C 46.7531 -0.955325 -2.08342 0
M  V30 505 C 47.7661 0.0668408 -1.62663 0
M  V30 506 O 48.9551 -0.167421 -1.77713 0
M  V30 507 C 46.0551 -0.415566 -3.36342 0
M  V30 508 C 45.2281 -1.49544 -4.11042 0
M  V30 509 C 44.2871 -0.962399 -5.17324 0
M  V30 510 O 43.3131 -1.64907 -5.44788 0
M  V30 511 N 44.5151 0.215134 -5.80101 0
M  V30 512 H 47.2801 -1.89596 -2.32106 0
M  V30 513 H 44.8411 -1.13276 -1.15673 0
M  V30 514 H 46.8331 -0.0442386 -4.04676 0
M  V30 515 H 45.4031 0.430232 -3.09625 0
M  V30 516 H 44.6231 -2.04 -3.37309 0
M  V30 517 H 45.9111 -2.22195 -4.57719 0
M  V30 518 H 45.3091 0.789779 -5.6016 0
M  V30 519 H 43.8661 0.527826 -6.49659 0
M  V30 520 N 47.2992 1.18797 -1.03562 0
M  V30 521 C 48.2312 2.21731 -0.580337 0
M  V30 522 C 49.2442 1.59051 0.347349 0
M  V30 523 O 50.4332 1.77929 0.142669 0
M  V30 524 C 47.5332 3.38459 0.172805 0
M  V30 525 C 46.7062 4.3072 -0.761496 0
M  V30 526 C 45.7652 5.26174 -0.0525547 0
M  V30 527 O 44.7912 5.65108 -0.681333 0
M  V30 528 N 45.9932 5.67624 1.21586 0
M  V30 529 H 48.7582 2.61417 -1.46565 0
M  V30 530 H 46.3192 1.33531 -0.915476 0
M  V30 531 H 48.3112 3.99335 0.656793 0
M  V30 532 H 46.8812 2.97507 0.959602 0
M  V30 533 H 46.1012 3.67525 -1.42544 0
M  V30 534 H 47.3892 4.89267 -1.39626 0
M  V30 535 H 46.7872 5.38038 1.74732 0
M  V30 536 H 45.3442 6.30721 1.64421 0
M  V30 537 N 48.7773 0.814389 1.34928 0
M  V30 538 C 50.1933 0.499084 1.51596 0
M  V30 539 C 50.3933 -0.978319 1.76157 0
M  V30 540 O 49.4493 -1.76309 1.80752 0
M  V30 541 C 50.7623 1.35121 2.68631 0
M  V30 542 C 52.3103 1.34746 2.82511 0
M  V30 543 C 52.7853 2.18388 4.0258 0
M  V30 544 N 54.2763 2.15966 4.09772 0
M  V30 545 C 55.0113 2.77437 5.01813 0
M  V30 546 N 54.5073 3.47866 5.99134 0
M  V30 547 N 56.3003 2.67037 4.94619 0
M  V30 548 H 48.4513 1.7711 1.17243 0
M  V30 549 H 50.7143 0.754256 0.574284 0
M  V30 550 H 50.4203 2.40001 2.57085 0
M  V30 551 H 50.2943 1.00991 3.63429 0
M  V30 552 H 52.6813 0.30648 2.93504 0
M  V30 553 H 52.7623 1.72869 1.88547 0
M  V30 554 H 52.4063 3.2253 3.92347 0
M  V30 555 H 52.3363 1.77621 4.9574 0
M  V30 556 H 54.8273 1.64729 3.40107 0
M  V30 557 H 55.1403 3.92038 6.65977 0
M  V30 558 H 53.4853 3.51972 5.99284 0
M  V30 559 H 56.6763 2.11597 4.17546 0
M  V30 560 H 56.8493 3.15232 5.66156 0
M  V30 561 N 50.2554 -1.46986 0.568584 0
M  V30 562 C 51.2024 -2.30153 -0.172707 0
M  V30 563 C 52.1724 -1.39759 -0.897586 0
M  V30 564 O 53.3574 -1.68716 -0.891044 0
M  V30 565 C 50.4974 -3.23952 -1.1895 0
M  V30 566 C 49.6104 -4.29441 -0.469517 0
M  V30 567 C 48.7454 -5.1038 -1.47259 0
M  V30 568 C 47.7844 -6.07632 -0.738225 0
M  V30 569 N 46.9214 -6.8149 -1.68868 0
M  V30 570 H 51.7614 -2.93019 0.542596 0
M  V30 571 H 49.2984 -1.44422 0.279401 0
M  V30 572 H 51.2564 -3.76767 -1.79173 0
M  V30 573 H 49.8864 -2.62926 -1.87269 0
M  V30 574 H 48.9384 -3.79594 0.247467 0
M  V30 575 H 50.2504 -4.98689 0.105241 0
M  V30 576 H 49.4044 -5.67402 -2.14803 0
M  V30 577 H 48.1434 -4.4106 -2.08128 0
M  V30 578 H 47.1484 -5.49778 -0.0489293 0
M  V30 579 H 48.3734 -6.78966 -0.135129 0
M  V30 580 H 46.3194 -6.14891 -2.28573 0
M  V30 581 H 46.2364 -7.46948 -1.16636 0
M  V30 582 H 47.5044 -7.43078 -2.3549 0
M  V30 583 N 51.7335 -0.305618 -1.54608 0
M  V30 584 C 52.9615 0.304775 -2.04643 0
M  V30 585 C 53.3765 1.47167 -1.18268 0
M  V30 586 O 52.7335 1.81296 -0.209328 0
M  V30 587 C 52.7845 0.756564 -3.53495 0
M  V30 588 O 52.5055 -0.36389 -4.36586 0
M  V30 589 C 54.0065 1.43163 -4.19546 0
M  V30 590 H 51.2265 0.0655481 -0.667791 0
M  V30 591 H 53.7705 -0.446592 -1.99564 0
M  V30 592 H 51.9255 1.45794 -3.58919 0
M  V30 593 H 52.3395 -0.0113121 -5.24499 0
M  V30 594 H 53.8135 1.69886 -5.25207 0
M  V30 595 H 54.2905 2.37318 -3.69563 0
M  V30 596 H 54.8965 0.773307 -4.18211 0
M  V30 597 N 53.2116 1.57565 -0.0334293 0
M  V30 598 C 54.4586 1.91978 0.644272 0
M  V30 599 C 54.7866 0.910231 1.71887 0
M  V30 600 O 54.0416 -0.0801961 1.95536 0
M  V30 601 C 54.3406 3.33112 1.29504 0
M  V30 602 C 54.0066 4.49537 0.350388 0
M  V30 603 C 52.6686 4.81115 0.0903974 0
M  V30 604 C 55.0206 5.20347 -0.298032 0
M  V30 605 C 52.3486 5.8086 -0.825746 0
M  V30 606 C 54.7006 6.2107 -1.20226 0
M  V30 607 C 53.3646 6.51088 -1.4711 0
M  V30 608 H 52.6346 0.702496 0.235756 0
M  V30 609 H 55.2816 1.91259 -0.0961176 0
M  V30 610 H 53.5866 3.30113 2.11028 0
M  V30 611 H 55.2836 3.57011 1.82603 0
M  V30 612 H 51.8736 4.24883 0.563205 0
M  V30 613 H 56.0576 4.96178 -0.110234 0
M  V30 614 H 51.3136 6.02461 -1.04169 0
M  V30 615 H 55.4876 6.75057 -1.71086 0
M  V30 616 H 53.1146 7.28193 -2.18264 0
M  V30 617 N 54.6897 -0.239769 1.55765 0
M  V30 618 C 55.9177 -0.98417 1.81994 0
M  V30 619 C 56.3327 -1.7867 0.610124 0
M  V30 620 O 55.6897 -1.77571 -0.421271 0
M  V30 621 C 55.7407 -1.91635 3.06526 0
M  V30 622 O 55.4617 -1.14629 4.22838 0
M  V30 623 C 56.9627 -2.77616 3.45607 0
M  V30 624 H 54.1827 -0.28928 0.605441 0
M  V30 625 H 56.7267 -0.260499 2.02834 0
M  V30 626 H 54.8817 -2.5942 2.87715 0
M  V30 627 H 55.2957 -1.77745 4.93464 0
M  V30 628 H 56.7697 -3.38759 4.35828 0
M  V30 629 H 57.2467 -3.4909 2.6652 0
M  V30 630 H 57.8527 -2.15271 3.66795 0
M  V30 631 N 56.1678 -1.49265 -0.50573 0
M  V30 632 C 57.1308 -1.65075 -1.59006 0
M  V30 633 C 58.1308 -0.522768 -1.52065 0
M  V30 634 O 59.3208 -0.789117 -1.55302 0
M  V30 635 C 56.4528 -1.64369 -2.98656 0
M  V30 636 H 57.6458 -2.61784 -1.46319 0
M  V30 637 H 55.1988 -1.38226 -0.729616 0
M  V30 638 H 55.9338 -0.692272 -3.16825 0
M  V30 639 H 55.7188 -2.46282 -3.05103 0
M  V30 640 H 57.2088 -1.78674 -3.77446 0
M  V30 641 N 57.6459 0.756429 -1.3826 0
M  V30 642 C 58.8919 1.5168 -1.35517 0
M  V30 643 C 59.2469 1.9232 0.0554451 0
M  V30 644 O 58.5399 1.62352 1.01746 0
M  V30 645 C 58.7339 2.78313 -2.24224 0
M  V30 646 C 58.5629 2.50053 -3.7377 0
M  V30 647 C 57.3329 2.43414 -4.42807 0
M  V30 648 C 59.5309 2.1702 -4.66269 0
M  V30 649 N 57.5129 2.07398 -5.77805 0
M  V30 650 C 58.8839 1.91271 -5.89759 0
M  V30 651 C 60.9389 2.03305 -4.54501 0
M  V30 652 C 59.6419 1.53192 -7.02798 0
M  V30 653 C 61.6679 1.66627 -5.67441 0
M  V30 654 C 61.0299 1.4175 -6.8999 0
M  V30 655 H 57.1289 0.554735 -0.551174 0
M  V30 656 H 59.7129 0.881106 -1.73622 0
M  V30 657 H 57.8839 3.39696 -1.88311 0
M  V30 658 H 59.6159 3.44343 -2.12627 0
M  V30 659 H 56.3709 2.59789 -3.95988 0
M  V30 660 H 56.7949 1.92044 -6.4919 0
M  V30 661 H 61.4369 2.21215 -3.60311 0
M  V30 662 H 59.1549 1.34022 -7.96909 0
M  V30 663 H 62.7409 1.56652 -5.60314 0
M  V30 664 H 61.6209 1.1379 -7.759 0
M  V30 665 N 59.124 1.23083 0.984299 0
M  V30 666 C 60.364 1.07226 1.74017 0
M  V30 667 C 60.728 -0.384766 1.88105 0
M  V30 668 O 61.929 -0.664411 2.60459 0
M  V30 669 C 60.2 1.77348 3.10294 0
M  V30 670 S 61.759 1.77014 4.01512 0
M  V30 671 H 58.577 0.383819 0.598502 0
M  V30 672 H 61.179 1.56158 1.17622 0
M  V30 673 H 59.883 2.82506 2.97689 0
M  V30 674 H 59.414 1.28682 3.71759 0
M  V30 675 H 61.429 0.825956 4.89277 0
M  V30 676 N 60.6021 -1.18246 1.0419 0
M  V30 677 C 61.5501 -2.23968 0.627792 0
M  V30 678 C 62.5441 -1.65828 -0.346019 0
M  V30 679 O 63.7501 -1.78733 -0.213175 0
M  V30 680 H 60.1251 -0.728939 0.184802 0
M  V30 681 H 62.0961 -2.56202 1.52981 0
M  V30 682 C 60.8451 -3.47699 0.00796591 0
M  V30 683 H 60.1681 -3.92734 0.748347 0
M  V30 684 H 61.6081 -4.23294 -0.24455 0
M  V30 685 C 60.0671 -3.13153 -1.24246 0
M  V30 686 O 60.5971 -3.27003 -2.33307 0
M  V30 687 N 58.8031 -2.67467 -1.13622 0
M  V30 688 H 58.3501 -2.56396 -0.248734 0
M  V30 689 H 58.3081 -2.44724 -1.97377 0
M  V30 690 N 62.0802 -0.821533 -1.34494 0
M  V30 691 C 63.3052 -0.420873 -2.03085 0
M  V30 692 C 63.7302 0.964915 -1.61465 0
M  V30 693 O 63.0882 1.62763 -0.798607 0
M  V30 694 C 63.1362 -0.529414 -3.56693 0
M  V30 695 O 62.2402 0.451302 -4.09923 0
M  V30 696 H 61.5812 -0.173489 -0.640935 0
M  V30 697 H 64.1112 -1.11157 -1.71771 0
M  V30 698 H 64.1212 -0.404671 -4.05988 0
M  V30 699 H 62.7962 -1.54014 -3.86332 0
M  V30 700 H 61.3732 0.285558 -3.71805 0
M  V30 701 N 63.5583 1.46682 -0.576371 0
M  V30 702 C 64.5083 2.27278 0.181288 0
M  V30 703 C 65.4923 1.35497 0.867721 0
M  V30 704 O 66.6843 1.59717 0.762863 0
M  V30 705 C 63.8133 3.21703 1.19841 0
M  V30 706 C 62.8993 4.20969 0.51442 0
M  V30 707 N 63.2903 5.03999 -0.426407 0
M  V30 708 C 61.5883 4.39373 0.765963 0
M  V30 709 C 62.2893 5.75812 -0.825565 0
M  V30 710 N 61.2653 5.43315 -0.176116 0
M  V30 711 H 65.0673 2.88863 -0.541785 0
M  V30 712 H 62.5813 1.57455 -0.397697 0
M  V30 713 H 64.5783 3.78145 1.75533 0
M  V30 714 H 63.2383 2.61677 1.92238 0
M  V30 715 H 64.2493 5.11659 -0.8016 0
M  V30 716 H 60.9263 3.90502 1.47698 0
M  V30 717 H 62.3163 6.52577 -1.59976 0
M  V30 718 N 65.0364 0.313813 1.54444 0
M  V30 719 C 65.9664 -0.549454 2.26943 0
M  V30 720 C 66.9474 -1.12741 1.27372 0
M  V30 721 O 68.1324 -1.15436 1.56167 0
M  V30 722 C 65.2624 -1.71523 3.01989 0
M  V30 723 C 64.2164 -1.26703 4.08816 0
M  V30 724 C 63.5424 -2.51898 4.71647 0
M  V30 725 C 64.8424 -0.388962 5.2085 0
M  V30 726 H 66.5364 0.0552661 2.99349 0
M  V30 727 H 64.0824 0.0280207 1.43973 0
M  V30 728 H 66.0354 -2.32535 3.51433 0
M  V30 729 H 64.7594 -2.34639 2.27183 0
M  V30 730 H 63.4184 -0.679896 3.6024 0
M  V30 731 H 63.0664 -3.13356 3.93468 0
M  V30 732 H 62.7664 -2.22605 5.43802 0
M  V30 733 H 64.2904 -3.1369 5.23861 0
M  V30 734 H 65.7044 -0.905107 5.6611 0
M  V30 735 H 64.1014 -0.18924 5.99802 0
M  V30 736 H 65.1714 0.582699 4.81386 0
M  V30 737 N 66.5145 -1.57545 0.0417849 0
M  V30 738 C 67.9305 -1.56467 -0.314704 0
M  V30 739 C 68.1305 -1.04859 -1.72066 0
M  V30 740 O 67.1865 -0.700983 -2.42575 0
M  V30 741 C 68.4995 -3.00317 -0.15174 0
M  V30 742 C 70.0475 -3.12201 -0.223553 0
M  V30 743 C 70.5225 -4.57913 -0.0892295 0
M  V30 744 N 72.0135 -4.6297 -0.145808 0
M  V30 745 C 72.7485 -5.73362 -0.0658459 0
M  V30 746 N 72.2445 -6.92769 0.0659282 0
M  V30 747 N 74.0375 -5.6197 -0.12075 0
M  V30 748 H 66.1885 -1.89416 0.961014 0
M  V30 749 H 68.4515 -0.871862 0.372237 0
M  V30 750 H 68.1575 -3.42073 0.817254 0
M  V30 751 H 68.0315 -3.65892 -0.916692 0
M  V30 752 H 70.4185 -2.70349 -1.18301 0
M  V30 753 H 70.4995 -2.49323 0.571994 0
M  V30 754 H 70.1435 -5.00448 0.866867 0
M  V30 755 H 70.0735 -5.18786 -0.903802 0
M  V30 756 H 72.5645 -3.7709 -0.247286 0
M  V30 757 H 72.8775 -7.72707 0.119905 0
M  V30 758 H 71.2225 -6.94927 0.100885 0
M  V30 759 H 74.4135 -4.67572 -0.222187 0
M  V30 760 H 74.5865 -6.47977 -0.0549735 0
M  V30 761 N 67.9926 0.231505 -1.5589 0
M  V30 762 C 68.9396 1.28682 -1.91598 0
M  V30 763 C 69.9096 1.47071 -0.771974 0
M  V30 764 O 71.0946 1.60802 -1.027 0
M  V30 765 C 68.2346 2.6342 -2.22944 0
M  V30 766 C 67.3476 2.52912 -3.50228 0
M  V30 767 C 66.4826 3.80106 -3.7107 0
M  V30 768 C 65.5216 3.64279 -4.91902 0
M  V30 769 N 64.6586 4.834 -5.09184 0
M  V30 770 H 69.4986 0.975305 -2.81588 0
M  V30 771 H 67.0356 0.470299 -1.39379 0
M  V30 772 H 68.9936 3.41869 -2.39126 0
M  V30 773 H 67.6236 2.92687 -1.36139 0
M  V30 774 H 66.6756 1.6595 -3.42294 0
M  V30 775 H 67.9876 2.37133 -4.38827 0
M  V30 776 H 67.1416 4.66999 -3.87295 0
M  V30 777 H 65.8806 3.98799 -2.80733 0
M  V30 778 H 64.8856 2.7577 -4.75637 0
M  V30 779 H 66.1106 3.47067 -5.83714 0
M  V30 780 H 64.0566 5.02425 -4.21788 0
M  V30 781 H 63.9736 4.70311 -5.91898 0
M  V30 782 H 65.2416 5.71747 -5.29835 0
M  V30 783 N 69.4707 1.49531 0.497807 0
M  V30 784 C 70.4337 1.65916 1.58128 0
M  V30 785 C 71.4337 0.530825 1.51786 0
M  V30 786 O 72.6237 0.797342 1.54881 0
M  V30 787 C 69.7557 1.65951 2.9778 0
M  V30 788 H 70.9487 2.62556 1.44929 0
M  V30 789 H 68.5017 1.38611 0.722275 0
M  V30 790 H 69.2367 0.709065 3.16453 0
M  V30 791 H 69.0217 2.47897 3.03792 0
M  V30 792 H 70.5117 1.80673 3.76493 0
M  V30 793 N 70.9488 -0.749086 1.3866 0
M  V30 794 C 72.1968 -1.50535 1.34847 0
M  V30 795 C 72.5178 -1.94909 -0.0595016 0
M  V30 796 O 71.7878 -1.67973 -1.00806 0
M  V30 797 H 70.3678 -0.558395 0.49619 0
M  V30 798 H 73.0298 -0.890165 1.73384 0
M  V30 799 H 72.1258 -2.39413 2.00219 0
M  V30 800 N 72.4269 -1.23603 -0.977757 0
M  V30 801 C 73.6549 -1.09646 -1.75458 0
M  V30 802 C 74.0699 0.351859 -1.85492 0
M  V30 803 O 73.4269 1.24327 -1.336 0
M  V30 804 C 73.4779 -1.71895 -3.18016 0
M  V30 805 O 73.1989 -3.11063 -3.08498 0
M  V30 806 C 74.6999 -1.63415 -4.12081 0
M  V30 807 H 71.9199 -0.38359 -0.550545 0
M  V30 808 H 74.4639 -1.63507 -1.22824 0
M  V30 809 H 72.6189 -1.22061 -3.67668 0
M  V30 810 H 73.0329 -3.41305 -3.9826 0
M  V30 811 H 74.5069 -2.11669 -5.09804 0
M  V30 812 H 74.9839 -0.593462 -4.35172 0
M  V30 813 H 75.5899 -2.12628 -3.68334 0
M  V30 814 N 73.905 1.17692 -1.04816 0
M  V30 815 C 74.837 2.21103 -0.603822 0
M  V30 816 C 75.85 1.59411 0.33046 0
M  V30 817 O 77.039 1.7807 0.12379 0
M  V30 818 C 74.139 3.38623 0.136898 0
M  V30 819 C 73.312 4.29888 -0.807137 0
M  V30 820 C 72.371 5.26088 -0.10836 0
M  V30 821 O 71.397 5.64353 -0.741232 0
M  V30 822 N 72.599 5.68882 1.15558 0
M  V30 823 H 75.364 2.59848 -1.49329 0
M  V30 824 H 72.925 1.32553 -0.929587 0
M  V30 825 H 74.917 4.00009 0.614401 0
M  V30 826 H 73.487 2.98508 0.927993 0
M  V30 827 H 72.707 3.65993 -1.46434 0
M  V30 828 H 73.995 4.87759 -1.44807 0
M  V30 829 H 73.393 5.39861 1.69015 0
M  V30 830 H 71.95 6.32429 1.57722 0
M  V30 831 N 75.3831 0.828654 1.34056 0
M  V30 832 C 76.6321 0.415828 1.97367 0
M  V30 833 C 76.9451 -1.02796 1.6641 0
M  V30 834 O 78.1511 -1.54497 2.23255 0
M  V30 835 C 76.6071 0.692601 3.53173 0
M  V30 836 C 76.2151 2.15038 3.93017 0
M  V30 837 C 77.9591 0.346222 4.23086 0
M  V30 838 C 75.8661 2.37174 5.41758 0
M  V30 839 H 74.7961 0.151755 0.738571 0
M  V30 840 H 77.4471 1.01581 1.52819 0
M  V30 841 H 75.8291 0.0223764 3.95994 0
M  V30 842 H 77.0031 2.86024 3.61285 0
M  V30 843 H 75.3181 2.45875 3.36057 0
M  V30 844 H 77.9151 0.48937 5.32456 0
M  V30 845 H 78.2581 -0.709842 4.10204 0
M  V30 846 H 78.7911 0.971258 3.85761 0
M  V30 847 H 75.5301 3.41308 5.59633 0
M  V30 848 H 75.0501 1.70738 5.74986 0
M  V30 849 H 76.7291 2.19818 6.08514 0
M  V30 850 N 76.8612 -1.46375 0.584142 0
M  V30 851 C 77.7712 -2.34115 -0.150728 0
M  V30 852 C 78.7872 -1.49838 -0.884567 0
M  V30 853 O 79.9632 -1.82704 -0.847429 0
M  V30 854 C 77.0282 -3.2705 -1.15062 0
M  V30 855 C 76.0892 -4.27228 -0.421293 0
M  V30 856 C 75.3222 -5.15722 -1.37355 0
M  V30 857 O 75.5452 -5.07176 -2.61014 0
M  V30 858 O 74.4792 -5.95383 -0.883355 0
M  V30 859 H 78.3052 -2.98309 0.569708 0
M  V30 860 H 75.8902 -1.45373 0.344535 0
M  V30 861 H 77.7722 -3.84381 -1.72712 0
M  V30 862 H 76.4472 -2.65451 -1.8525 0
M  V30 863 H 75.3542 -3.7358 0.197085 0
M  V30 864 H 76.6872 -4.91616 0.239641 0
M  V30 865 N 78.3393 -0.321999 -1.54275 0
M  V30 866 C 79.2873 0.560206 -2.25753 0
M  V30 867 C 80.2813 1.11984 -1.27106 0
M  V30 868 O 81.4873 1.06806 -1.44888 0
M  V30 869 H 77.8623 0.199304 -0.725108 0
M  V30 870 H 79.8333 -0.0649365 -2.98329 0
M  V30 871 C 78.5823 1.71023 -3.02731 0
M  V30 872 H 77.9053 1.28885 -3.78456 0
M  V30 873 H 79.3453 2.30314 -3.55993 0
M  V30 874 C 77.8043 2.62692 -2.10938 0
M  V30 875 O 78.3343 3.64364 -1.6912 0
M  V30 876 N 76.5403 2.30891 -1.76459 0
M  V30 877 H 76.0873 1.48253 -2.10663 0
M  V30 878 H 76.0453 2.92487 -1.1532 0
M  V30 879 N 79.8174 1.5752 -0.0501392 0
M  V30 880 C 81.0664 1.91827 0.623328 0
M  V30 881 C 81.3794 0.930222 1.72065 0
M  V30 882 O 82.5854 1.1653 2.4522 0
M  V30 883 C 81.0414 3.40692 1.16003 0
M  V30 884 C 80.6494 4.479 0.0948811 0
M  V30 885 C 82.3934 3.84034 1.80881 0
M  V30 886 C 80.3004 5.87879 0.644411 0
M  V30 887 H 79.2304 0.715918 0.236596 0
M  V30 888 H 81.8814 1.83115 -0.118861 0
M  V30 889 H 80.2634 3.44405 1.9545 0
M  V30 890 H 81.4374 4.55775 -0.678675 0
M  V30 891 H 79.7524 4.13892 -0.45637 0
M  V30 892 H 82.3494 4.85984 2.22988 0
M  V30 893 H 82.6924 3.20225 2.6601 0
M  V30 894 H 83.2254 3.82833 1.0809 0
M  V30 895 H 79.9644 6.55282 -0.169229 0
M  V30 896 H 79.4844 5.83567 1.38598 0
M  V30 897 H 81.1634 6.37098 1.12763 0
M  V30 898 N 81.2955 -0.223234 1.56011 0
M  V30 899 C 82.2055 -1.29766 1.95443 0
M  V30 900 C 83.2215 -1.51373 0.858028 0
M  V30 901 O 84.3975 -1.64536 1.16146 0
M  V30 902 C 81.4625 -2.62772 2.26167 0
M  V30 903 C 80.5235 -2.49482 3.49367 0
M  V30 904 C 79.7565 -3.76145 3.78616 0
M  V30 905 O 79.9795 -4.79087 3.09568 0
M  V30 906 O 78.9135 -3.73358 4.72109 0
M  V30 907 H 82.7395 -0.99309 2.87004 0
M  V30 908 H 80.3245 -0.425958 1.43199 0
M  V30 909 H 82.2065 -3.41327 2.47131 0
M  V30 910 H 80.8815 -2.92913 1.37781 0
M  V30 911 H 79.7885 -1.69133 3.33684 0
M  V30 912 H 81.1215 -2.2428 4.38131 0
M  V30 913 N 82.7736 -1.49793 -0.48987 0
M  V30 914 C 83.6836 -1.70036 -1.61632 0
M  V30 915 C 84.6996 -0.583102 -1.63939 0
M  V30 916 O 85.8756 -0.859169 -1.82154 0
M  V30 917 C 82.9406 -1.77277 -2.97949 0
M  V30 918 C 82.0016 -3.00918 -3.06181 0
M  V30 919 C 81.2346 -3.07804 -4.35996 0
M  V30 920 O 81.4576 -2.21982 -5.25433 0
M  V30 921 O 80.3916 -4.00369 -4.49431 0
M  V30 922 H 84.2176 -2.65486 -1.47482 0
M  V30 923 H 81.8026 -1.33666 -0.667362 0
M  V30 924 H 83.6846 -1.84329 -3.78947 0
M  V30 925 H 82.3596 -0.850076 -3.12339 0
M  V30 926 H 81.2666 -2.99377 -2.2433 0
M  V30 927 H 82.5996 -3.92704 -2.96723 0
M  V30 928 N 84.2517 0.741722 -1.39055 0
M  V30 929 C 85.5287 1.49252 -1.26425 0
M  V30 930 C 85.9087 2.10705 0.129144 0
M  V30 931 O 85.2567 1.98045 1.13976 0
M  V30 932 C 85.4667 2.54934 -2.38347 0
M  V30 933 C 86.8147 3.21506 -2.77343 0
M  V30 934 O 87.8387 2.65245 -2.37747 0
M  V30 935 O 86.6977 4.23294 -3.45665 0
M  V30 936 H 83.7917 0.662451 -0.495064 0
M  V30 937 H 86.3377 0.776121 -1.50912 0
M  V30 938 H 85.1097 2.07857 -3.31529 0
M  V30 939 H 84.7327 3.34141 -2.15489 0
M  V30 940 N 85.7298 1.2412 0.971189 0
M  V30 941 C 86.9768 1.07881 1.71371 0
M  V30 942 C 87.3048 -0.382901 1.90694 0
M  V30 943 O 86.5598 -1.29945 1.46331 0
M  V30 944 C 86.8588 1.75983 3.11071 0
M  V30 945 C 86.5248 3.25909 3.11599 0
M  V30 946 C 85.1868 3.66813 3.11451 0
M  V30 947 C 87.5388 4.21771 3.062 0
M  V30 948 C 84.8668 5.02021 3.03631 0
M  V30 949 C 87.2188 5.56982 2.99923 0
M  V30 950 C 85.8828 5.97237 2.98102 0
M  V30 951 H 85.1528 0.394764 0.62709 0
M  V30 952 H 87.7998 1.54176 1.13587 0
M  V30 953 H 86.1048 1.22072 3.72298 0
M  V30 954 H 87.8018 1.60887 3.6731 0
M  V30 955 H 84.3918 2.93353 3.12477 0
M  V30 956 H 88.5758 3.91172 3.05447 0
M  V30 957 H 83.8318 5.32411 3.0058 0
M  V30 958 H 88.0058 6.30969 2.94704 0
M  V30 959 H 85.6328 7.01967 2.91798 0
M  V30 960 N 87.2079 -1.17134 1.05439 0
M  V30 961 C 88.6239 -1.39454 0.776201 0
M  V30 962 C 88.8239 -1.91454 -0.628307 0
M  V30 963 O 87.8799 -2.10777 -1.39031 0
M  V30 964 C 89.1929 -2.38305 1.83388 0
M  V30 965 C 90.7409 -2.52006 1.85639 0
M  V30 966 C 91.2159 -3.54133 2.90437 0
M  V30 967 N 92.7069 -3.61653 2.89415 0
M  V30 968 C 93.4419 -4.4044 3.67152 0
M  V30 969 N 92.9379 -5.22721 4.54681 0
M  V30 970 N 94.7309 -4.35337 3.55581 0
M  V30 971 H 86.8819 -0.817134 1.96053 0
M  V30 972 H 89.1449 -0.421626 0.849079 0
M  V30 973 H 88.8509 -2.07173 2.84204 0
M  V30 974 H 88.7249 -3.37841 1.67761 0
M  V30 975 H 91.1119 -2.82447 0.85486 0
M  V30 976 H 91.1929 -1.52537 2.05344 0
M  V30 977 H 90.8369 -3.24431 3.90777 0
M  V30 978 H 90.7669 -4.53313 2.67983 0
M  V30 979 H 93.2579 -3.02909 2.25952 0
M  V30 980 H 93.5709 -5.80027 5.10674 0
M  V30 981 H 91.9159 -5.22093 4.58741 0
M  V30 982 H 95.1069 -3.70112 2.86592 0
M  V30 983 H 95.2799 -4.96494 4.1641 0
M  V30 984 N 88.686 -0.835752 -1.33615 0
M  V30 985 C 89.963 -0.352017 -1.92406 0
M  V30 986 C 90.343 1.16225 -1.76224 0
M  V30 987 O 89.691 1.97526 -1.14873 0
M  V30 988 C 89.901 -0.795485 -3.39813 0
M  V30 989 C 91.249 -0.801703 -4.16963 0
M  V30 990 O 92.273 -0.738889 -3.48452 0
M  V30 991 O 91.132 -0.886607 -5.3926 0
M  V30 992 H 88.226 -0.0989641 -0.821057 0
M  V30 993 H 90.772 -0.921397 -1.42507 0
M  V30 994 H 89.544 -1.83795 -3.45449 0
M  V30 995 H 89.167 -0.202505 -3.97084 0
M  V30 996 N 90.1641 1.46063 -0.591896 0
M  V30 997 C 91.4121 2.01938 -0.0808391 0
M  V30 998 C 91.7331 1.46475 1.28725 0
M  V30 999 O 91.0031 0.652944 1.84698 0
M  V30 1000 H 89.5831 0.746516 -0.0268938 0
M  V30 1001 H 92.2451 1.79055 -0.769752 0
M  V30 1002 H 91.3411 3.12094 -0.0187578 0
M  V30 1003 N 91.6422 0.330177 1.54103 0
M  V30 1004 C 92.5722 -0.525353 2.27513 0
M  V30 1005 C 93.5532 -1.11383 1.2856 0
M  V30 1006 O 94.7382 -1.13773 1.57383 0
M  V30 1007 C 91.8682 -1.6831 3.03791 0
M  V30 1008 C 90.8222 -1.2236 4.10137 0
M  V30 1009 C 90.1482 -2.46882 4.74293 0
M  V30 1010 C 91.4482 -0.333697 5.21233 0
M  V30 1011 H 93.1422 0.087013 2.99274 0
M  V30 1012 H 90.6882 0.0432893 1.43935 0
M  V30 1013 H 92.6412 -2.28795 3.5388 0
M  V30 1014 H 91.3652 -2.32216 2.29659 0
M  V30 1015 H 90.0242 -0.64165 3.60941 0
M  V30 1016 H 89.6722 -3.09165 3.96769 0
M  V30 1017 H 89.3722 -2.16825 5.46133 0
M  V30 1018 H 90.8962 -3.08117 5.27159 0
M  V30 1019 H 92.3102 -0.845013 5.67038 0
M  V30 1020 H 90.7072 -0.125612 5.99969 0
M  V30 1021 H 91.7772 0.633724 4.80741 0
M  V30 1022 N 93.1203 -1.57491 0.0584922 0
M  V30 1023 C 94.0673 -2.11958 -0.913376 0
M  V30 1024 C 95.0373 -1.02875 -1.30407 0
M  V30 1025 O 96.2223 -1.30464 -1.39226 0
M  V30 1026 C 93.3623 -2.67497 -2.18035 0
M  V30 1027 C 92.4753 -3.90691 -1.84349 0
M  V30 1028 C 91.6103 -4.3452 -3.05559 0
M  V30 1029 C 90.6493 -5.50395 -2.67827 0
M  V30 1030 N 89.7863 -5.89244 -3.81754 0
M  V30 1031 H 94.6263 -2.94704 -0.442017 0
M  V30 1032 H 92.1633 -1.45643 -0.206545 0
M  V30 1033 H 94.1213 -2.978 -2.92183 0
M  V30 1034 H 92.7513 -1.87537 -2.62735 0
M  V30 1035 H 91.8033 -3.66934 -1.00319 0
M  V30 1036 H 93.1153 -4.7489 -1.5258 0
M  V30 1037 H 92.2693 -4.66414 -3.87998 0
M  V30 1038 H 91.0083 -3.49147 -3.40511 0
M  V30 1039 H 90.0133 -5.18165 -1.83806 0
M  V30 1040 H 91.2383 -6.3749 -2.34059 0
M  V30 1041 H 89.1843 -5.06823 -4.16493 0
M  V30 1042 H 89.1013 -6.68151 -3.53708 0
M  V30 1043 H 90.3693 -6.25756 -4.64811 0
M  V30 1044 N 94.5984 0.214957 -1.56127 0
M  V30 1045 C 95.5284 1.2695 -1.95974 0
M  V30 1046 C 96.5094 1.48539 -0.828868 0
M  V30 1047 O 97.6944 1.60611 -1.09168 0
M  V30 1048 C 94.8244 2.61794 -2.28214 0
M  V30 1049 C 93.7784 2.54851 -3.43853 0
M  V30 1050 C 93.1044 3.93785 -3.61715 0
M  V30 1051 C 94.4044 2.09065 -4.78632 0
M  V30 1052 H 96.0984 0.93846 -2.84312 0
M  V30 1053 H 93.6444 0.449996 -1.36788 0
M  V30 1054 H 95.5974 3.35731 -2.54682 0
M  V30 1055 H 94.3214 2.96599 -1.36736 0
M  V30 1056 H 92.9804 1.8337 -3.17444 0
M  V30 1057 H 92.6284 4.25908 -2.67602 0
M  V30 1058 H 92.3284 3.90019 -4.39498 0
M  V30 1059 H 93.8524 4.69374 -3.90539 0
M  V30 1060 H 95.2664 2.7275 -5.04262 0
M  V30 1061 H 93.6634 2.16346 -5.59745 0
M  V30 1062 H 94.7334 1.04315 -4.73547 0
M  V30 1063 N 96.0765 1.50051 0.48192 0
M  V30 1064 C 97.0095 1.62749 1.59963 0
M  V30 1065 C 97.9875 0.475903 1.5548 0
M  V30 1066 O 99.1715 0.693986 1.7526 0
M  V30 1067 C 96.2985 1.60008 2.98522 0
M  V30 1068 C 95.3445 2.80596 3.21198 0
M  V30 1069 S 96.1775 4.42038 3.02262 0
M  V30 1070 C 97.3335 4.41973 4.43182 0
M  V30 1071 H 97.5665 2.57296 1.4895 0
M  V30 1072 H 95.0995 1.39179 0.668477 0
M  V30 1073 H 97.0575 1.59112 3.78409 0
M  V30 1074 H 95.7185 0.667153 3.06933 0
M  V30 1075 H 94.9115 2.74952 4.22395 0
M  V30 1076 H 94.5135 2.79003 2.49065 0
M  V30 1077 H 96.8055 4.14868 5.35622 0
M  V30 1078 H 97.7485 5.43512 4.53873 0
M  V30 1079 H 98.1565 3.71812 4.24755 0
M  V30 1080 N 97.5546 -0.734337 1.39446 0
M  V30 1081 C 98.4846 -1.86155 1.40955 0
M  V30 1082 C 99.4656 -1.67898 0.272827 0
M  V30 1083 O 100.651 -1.88207 0.478743 0
M  V30 1084 C 97.7806 -3.23912 1.25294 0
M  V30 1085 C 96.7346 -3.56808 2.36373 0
M  V30 1086 C 96.0606 -4.93508 2.058 0
M  V30 1087 C 97.3606 -3.59713 3.78687 0
M  V30 1088 H 99.0546 -1.8515 2.35287 0
M  V30 1089 H 96.6006 -0.889367 1.13253 0
M  V30 1090 H 98.5536 -4.02443 1.2497 0
M  V30 1091 H 97.2776 -3.25446 0.274308 0
M  V30 1092 H 95.9366 -2.80606 2.35914 0
M  V30 1093 H 95.5846 -4.91623 1.06374 0
M  V30 1094 H 95.2846 -5.16486 2.80208 0
M  V30 1095 H 96.8086 -5.74396 2.07128 0
M  V30 1096 H 98.2226 -4.2832 3.81071 0
M  V30 1097 H 96.6196 -3.94209 4.52459 0
M  V30 1098 H 97.6896 -2.59504 4.09617 0
M  V30 1099 N 99.0327 -1.24633 -0.964593 0
M  V30 1100 C 99.9627 -1.06611 -2.07741 0
M  V30 1101 C 100.944 0.0218666 -1.70086 0
M  V30 1102 O 102.129 -0.145793 -1.93652 0
M  V30 1103 C 99.2587 -0.673444 -3.40708 0
M  V30 1104 C 98.2127 -1.71054 -3.92332 0
M  V30 1105 C 97.5387 -1.17285 -5.21678 0
M  V30 1106 C 98.8387 -3.10718 -4.19824 0
M  V30 1107 H 100.533 -1.99693 -2.23076 0
M  V30 1108 H 98.0787 -0.96152 -1.07195 0
M  V30 1109 H 100.032 -0.534345 -4.17998 0
M  V30 1110 H 98.7557 0.293073 -3.25282 0
M  V30 1111 H 97.4147 -1.83791 -3.17201 0
M  V30 1112 H 97.0627 -0.196847 -5.02615 0
M  V30 1113 H 96.7627 -1.86592 -5.57187 0
M  V30 1114 H 98.2867 -1.04593 -6.01575 0
M  V30 1115 H 99.7007 -3.01192 -4.87808 0
M  V30 1116 H 98.0977 -3.77406 -4.66567 0
M  V30 1117 H 99.1677 -3.58524 -3.26479 0
M  V30 1118 N 100.511 1.16574 -1.06058 0
M  V30 1119 C 101.441 2.23057 -0.690488 0
M  V30 1120 C 102.422 1.67141 0.315901 0
M  V30 1121 O 103.607 1.93253 0.191556 0
M  V30 1122 C 100.737 3.47222 -0.073625 0
M  V30 1123 C 99.6908 4.16016 -1.00573 0
M  V30 1124 C 99.0168 5.34104 -0.252289 0
M  V30 1125 C 100.317 4.67264 -2.33371 0
M  V30 1126 H 102.011 2.54271 -1.58072 0
M  V30 1127 H 99.5568 1.22218 -0.76149 0
M  V30 1128 H 101.51 4.20939 0.19714 0
M  V30 1129 H 100.234 3.15302 0.85161 0
M  V30 1130 H 98.8928 3.44223 -1.2612 0
M  V30 1131 H 98.5408 4.98437 0.675988 0
M  V30 1132 H 98.2408 5.81072 -0.873455 0
M  V30 1133 H 99.7648 6.10599 0.0109857 0
M  V30 1134 H 101.179 5.32573 -2.12223 0
M  V30 1135 H 99.5758 5.24843 -2.90963 0
M  V30 1136 H 100.646 3.83602 -2.96611 0
M  V30 1137 N 101.989 0.842826 1.3317 0
M  V30 1138 C 102.899 0.281444 2.32906 0
M  V30 1139 C 103.915 -0.594587 1.63526 0
M  V30 1140 O 105.091 -0.49777 1.95152 0
M  V30 1141 C 102.156 -0.530929 3.42611 0
M  V30 1142 C 101.217 0.369843 4.27704 0
M  V30 1143 C 100.45 -0.403853 5.3217 0
M  V30 1144 O 100.673 -1.63513 5.46461 0
M  V30 1145 O 99.6069 0.224199 6.01482 0
M  V30 1146 H 103.433 1.10744 2.82789 0
M  V30 1147 H 101.018 0.60545 1.36582 0
M  V30 1148 H 102.9 -0.992437 4.09547 0
M  V30 1149 H 101.575 -1.33392 2.94938 0
M  V30 1150 H 100.482 0.879275 3.6362 0
M  V30 1151 H 101.815 1.13771 4.78871 0
M  V30 1152 N 103.467 -1.45747 0.599634 0
M  V30 1153 C 104.713 -2.02592 0.0918643 0
M  V30 1154 C 105.046 -1.46806 -1.27128 0
M  V30 1155 O 104.321 -0.639658 -1.83681 0
M  V30 1156 C 104.604 -3.60073 0.0443398 0
M  V30 1157 C 104.457 -4.26208 1.43759 0
M  V30 1158 C 105.776 -4.35309 -0.647608 0
M  V30 1159 H 102.895 -0.736175 0.034857 0
M  V30 1160 H 105.537 -1.73694 0.770081 0
M  V30 1161 H 103.687 -3.84823 -0.533224 0
M  V30 1162 H 105.359 -4.12668 2.06162 0
M  V30 1163 H 103.602 -3.84916 2.00056 0
M  V30 1164 H 104.273 -5.35069 1.35665 0
M  V30 1165 H 106.749 -4.15805 -0.156776 0
M  V30 1166 H 105.625 -5.45038 -0.649942 0
M  V30 1167 H 105.886 -4.07598 -1.71219 0
M  V30 1168 N 104.945 -0.338344 -1.53925 0
M  V30 1169 C 106.194 0.260732 -2.00008 0
M  V30 1170 C 106.507 1.52073 -1.23017 0
M  V30 1171 O 107.713 2.19672 -1.5955 0
M  V30 1172 C 106.169 0.51515 -3.56194 0
M  V30 1173 C 105.777 -0.728645 -4.42035 0
M  V30 1174 C 107.521 1.07337 -4.10706 0
M  V30 1175 C 105.428 -0.445315 -5.89721 0
M  V30 1176 H 104.358 0.101205 -0.747177 0
M  V30 1177 H 107.009 -0.452866 -1.77824 0
M  V30 1178 H 105.391 1.28932 -3.74423 0
M  V30 1179 H 106.565 -1.50352 -4.35581 0
M  V30 1180 H 104.88 -1.20813 -3.98489 0
M  V30 1181 H 107.477 1.30022 -5.18651 0
M  V30 1182 H 107.82 2.0273 -3.63602 0
M  V30 1183 H 108.353 0.360034 -3.96167 0
M  V30 1184 H 105.092 -1.36883 -6.41049 0
M  V30 1185 H 104.612 0.291569 -5.99091 0
M  V30 1186 H 106.291 -0.0606218 -6.46972 0
M  V30 1187 N 106.423 1.57458 -0.0668435 0
M  V30 1188 C 107.648 1.9804 0.616027 0
M  V30 1189 C 108.073 0.944771 1.62652 0
M  V30 1190 O 107.431 -0.0902094 1.81075 0
M  V30 1191 C 107.479 3.37665 1.26549 0
M  V30 1192 O 106.583 3.36701 2.38131 0
M  V30 1193 H 105.924 0.644719 0.158849 0
M  V30 1194 H 108.454 2.04121 -0.139891 0
M  V30 1195 H 108.464 3.7474 1.6135 0
M  V30 1196 H 107.139 4.12573 0.525016 0
M  V30 1197 H 105.716 3.1139 2.0516 0
M  V30 1198 N 107.901 -0.206675 1.56239 0
M  V30 1199 C 109.149 -0.927007 1.79586 0
M  V30 1200 C 109.47 -1.8427 0.637929 0
M  V30 1201 O 108.74 -1.92849 -0.344398 0
M  V30 1202 H 107.32 -0.345292 0.662407 0
M  V30 1203 H 109.982 -0.21496 1.93711 0
M  V30 1204 H 109.078 -1.52501 2.72305 0
M  V30 1205 N 109.379 -1.50304 -0.473955 0
M  V30 1206 C 110.289 -1.7174 -1.5982 0
M  V30 1207 C 111.305 -0.600457 -1.63311 0
M  V30 1208 O 112.481 -0.878441 -1.81233 0
M  V30 1209 C 109.546 -1.80427 -2.96052 0
M  V30 1210 C 108.607 -3.04148 -3.02972 0
M  V30 1211 C 107.84 -3.12411 -4.32706 0
M  V30 1212 O 108.063 -2.27542 -5.23049 0
M  V30 1213 O 106.997 -4.05113 -4.45159 0
M  V30 1214 H 110.823 -2.67035 -1.44657 0
M  V30 1215 H 108.408 -1.34366 -0.653148 0
M  V30 1216 H 110.29 -1.88338 -3.7697 0
M  V30 1217 H 108.965 -0.883156 -3.11419 0
M  V30 1218 H 107.872 -3.0174 -2.21142 0
M  V30 1219 H 109.205 -3.95829 -2.92541 0
M  V30 1220 N 110.857 0.726932 -1.39834 0
M  V30 1221 C 112.273 1.03354 -1.21615 0
M  V30 1222 C 112.473 2.01327 -0.08338 0
M  V30 1223 O 111.529 2.46158 0.56238 0
M  V30 1224 C 112.842 1.58811 -2.55342 0
M  V30 1225 C 114.39 1.70851 -2.62257 0
M  V30 1226 C 114.865 2.29716 -3.96225 0
M  V30 1227 N 116.356 2.37116 -3.97907 0
M  V30 1228 C 117.091 2.83619 -4.98345 0
M  V30 1229 N 116.587 3.29958 -6.09179 0
M  V30 1230 N 118.38 2.82901 -4.8572 0
M  V30 1231 H 110.531 0.0773069 -2.12259 0
M  V30 1232 H 112.794 0.0969102 -0.943034 0
M  V30 1233 H 112.5 0.942855 -3.38826 0
M  V30 1234 H 112.374 2.57502 -2.75632 0
M  V30 1235 H 114.761 2.34497 -1.79152 0
M  V30 1236 H 114.842 0.707913 -2.45809 0
M  V30 1237 H 114.486 1.66696 -4.79765 0
M  V30 1238 H 114.416 3.30469 -4.09997 0
M  V30 1239 H 116.907 2.04374 -3.17868 0
M  V30 1240 H 117.22 3.63976 -6.8172 0
M  V30 1241 H 115.565 3.27946 -6.12761 0
M  V30 1242 H 118.756 2.46027 -3.98231 0
M  V30 1243 H 118.929 3.18827 -5.6414 0
M  V30 1244 N 112.336 1.25143 0.95797 0
M  V30 1245 C 113.266 1.07711 2.07173 0
M  V30 1246 C 114.247 -0.0128462 1.70095 0
M  V30 1247 O 115.432 0.156061 1.93572 0
M  V30 1248 C 112.562 0.691503 3.40346 0
M  V30 1249 C 111.516 1.73132 3.9142 0
M  V30 1250 C 110.842 1.20049 5.21049 0
M  V30 1251 C 112.142 3.1294 4.1817 0
M  V30 1252 H 113.836 2.00873 2.22014 0
M  V30 1253 H 111.382 0.967191 1.06684 0
M  V30 1254 H 113.335 0.556505 4.17709 0
M  V30 1255 H 112.059 -0.275819 3.25433 0
M  V30 1256 H 110.718 1.8547 3.16222 0
M  V30 1257 H 110.366 0.223499 5.02503 0
M  V30 1258 H 110.066 1.89545 5.56189 0
M  V30 1259 H 111.59 1.07782 6.01012 0
M  V30 1260 H 113.004 3.03775 4.86203 0
M  V30 1261 H 111.401 3.79875 4.64559 0
M  V30 1262 H 112.471 3.6025 3.24573 0
M  V30 1263 N 113.814 -1.1601 1.06675 0
M  V30 1264 C 114.777 -2.18724 0.685001 0
M  V30 1265 C 115.777 -1.58496 -0.271246 0
M  V30 1266 O 116.967 -1.74119 -0.0531156 0
M  V30 1267 C 114.099 -3.40899 0.00853648 0
M  V30 1268 H 115.292 -2.54011 1.59431 0
M  V30 1269 H 112.845 -1.30352 0.862441 0
M  V30 1270 H 113.58 -3.11173 -0.913337 0
M  V30 1271 H 113.365 -3.8587 0.696204 0
M  V30 1272 H 114.855 -4.16886 -0.24414 0
M  V30 1273 N 115.292 -0.849877 -1.32721 0
M  V30 1274 C 116.239 -0.289033 -2.28983 0
M  V30 1275 C 117.209 0.601324 -1.54833 0
M  V30 1276 O 118.394 0.537253 -1.8308 0
M  V30 1277 C 115.534 0.520623 -3.4115 0
M  V30 1278 C 114.647 -0.394989 -4.3019 0
M  V30 1279 C 113.782 0.426834 -5.29482 0
M  V30 1280 C 112.821 -0.486476 -6.10164 0
M  V30 1281 N 111.958 0.297879 -7.01468 0
M  V30 1282 H 116.798 -1.11519 -2.76347 0
M  V30 1283 H 114.335 -0.56138 -1.35967 0
M  V30 1284 H 116.293 1.00563 -4.04899 0
M  V30 1285 H 114.923 1.31165 -2.9495 0
M  V30 1286 H 113.975 -0.99836 -3.67065 0
M  V30 1287 H 115.287 -1.09612 -4.86607 0
M  V30 1288 H 114.441 0.975205 -5.98811 0
M  V30 1289 H 113.18 1.16136 -4.73671 0
M  V30 1290 H 112.185 -1.04677 -5.39743 0
M  V30 1291 H 113.41 -1.21953 -6.6806 0
M  V30 1292 H 111.356 1.01558 -6.48091 0
M  V30 1293 H 111.273 -0.344318 -7.55216 0
M  V30 1294 H 112.541 0.828131 -7.75089 0
M  V30 1295 N 116.77 1.45427 -0.607355 0
M  V30 1296 C 118.181 1.85756 -0.187535 0
M  V30 1297 C 118.532 1.5077 1.25551 0
M  V30 1298 O 117.657 0.93427 1.95193 0
M  V30 1299 C 118.252 3.37154 -0.333572 0
M  V30 1300 C 116.811 3.76387 0.0315542 0
M  V30 1301 C 115.958 2.69377 -0.658117 0
M  V30 1302 H 118.909 1.36231 -0.81405 0
M  V30 1303 H 118.93 3.78014 0.43428 0
M  V30 1304 H 118.442 3.62586 -1.38393 0
M  V30 1305 H 116.543 3.56571 1.0811 0
M  V30 1306 H 116.656 4.77731 -0.361935 0
M  V30 1307 H 115.02 2.5452 -0.0957873 0
M  V30 1308 H 115.803 2.97646 -1.7106 0
M  V30 1309 N 118.248 0.346503 1.53744 0
M  V30 1310 C 119.158 -0.517293 2.28826 0
M  V30 1311 C 120.174 -1.10935 1.3405 0
M  V30 1312 O 121.35 -1.1244 1.6709 0
M  V30 1313 C 118.415 -1.65098 3.04866 0
M  V30 1314 C 117.476 -1.0884 4.15274 0
M  V30 1315 C 116.709 -2.16806 4.87679 0
M  V30 1316 O 116.932 -3.3758 4.59778 0
M  V30 1317 O 115.866 -1.80934 5.74061 0
M  V30 1318 H 119.692 0.0931396 3.03557 0
M  V30 1319 H 117.277 0.111458 1.48984 0
M  V30 1320 H 119.159 -2.31053 3.5241 0
M  V30 1321 H 117.834 -2.24717 2.32989 0
M  V30 1322 H 116.741 -0.3933 3.72027 0
M  V30 1323 H 118.074 -0.537036 4.89261 0
M  V30 1324 N 119.726 -1.57421 0.075193 0
M  V30 1325 C 121.142 -1.57099 -0.281444 0
M  V30 1326 C 121.342 -1.08486 -1.69803 0
M  V30 1327 O 120.398 -0.752279 -2.41033 0
M  V30 1328 C 121.711 -3.00571 -0.0880041 0
M  V30 1329 C 123.259 -3.12605 -0.157281 0
M  V30 1330 C 123.734 -4.57999 0.0079207 0
M  V30 1331 N 125.225 -4.63176 -0.0475725 0
M  V30 1332 C 125.96 -5.73373 0.0557876 0
M  V30 1333 N 125.456 -6.92473 0.21286 0
M  V30 1334 N 127.249 -5.621 -0.00152098 0
M  V30 1335 H 119.4 -1.87335 1.00098 0
M  V30 1336 H 121.663 -0.86377 0.390646 0
M  V30 1337 H 121.369 -3.40262 0.889629 0
M  V30 1338 H 121.243 -3.67754 -0.838875 0
M  V30 1339 H 123.63 -2.72798 -1.1254 0
M  V30 1340 H 123.711 -2.48053 0.62475 0
M  V30 1341 H 123.355 -4.98496 0.972824 0
M  V30 1342 H 123.285 -5.20586 -0.793556 0
M  V30 1343 H 125.776 -3.7753 -0.167244 0
M  V30 1344 H 126.089 -7.72279 0.283781 0
M  V30 1345 H 124.434 -6.94556 0.248267 0
M  V30 1346 H 127.625 -4.67938 -0.122958 0
M  V30 1347 H 127.798 -6.47948 0.0824844 0
M  V30 1348 N 121.204 0.198386 -1.56346 0
M  V30 1349 C 122.452 0.91747 -1.80075 0
M  V30 1350 C 122.773 1.83929 -0.647692 0
M  V30 1351 O 122.043 1.93029 0.334166 0
M  V30 1352 H 120.623 0.341774 -0.664228 0
M  V30 1353 H 123.285 0.204684 -1.93822 0
M  V30 1354 H 122.381 1.51055 -2.7311 0
M  V30 1355 N 122.682 1.50554 0.465978 0
M  V30 1356 C 123.629 1.6979 1.56333 0
M  V30 1357 C 124.599 0.539239 1.57103 0
M  V30 1358 O 125.784 0.770401 1.74555 0
M  V30 1359 C 122.924 1.80273 2.94271 0
M  V30 1360 C 122.037 3.07674 3.0325 0
M  V30 1361 C 121.172 3.08922 4.32135 0
M  V30 1362 C 120.211 4.30755 4.34875 0
M  V30 1363 N 119.348 4.29714 5.55239 0
M  V30 1364 H 124.188 2.63472 1.39235 0
M  V30 1365 H 121.725 1.30602 0.676873 0
M  V30 1366 H 123.683 1.84332 3.74269 0
M  V30 1367 H 122.313 0.900258 3.09992 0
M  V30 1368 H 121.365 3.13062 2.16094 0
M  V30 1369 H 122.677 3.97642 3.01135 0
M  V30 1370 H 121.831 3.11738 5.20485 0
M  V30 1371 H 120.57 2.16792 4.36866 0
M  V30 1372 H 119.575 4.28146 3.44922 0
M  V30 1373 H 120.8 5.24117 4.31831 0
M  V30 1374 H 118.746 3.4044 5.60746 0
M  V30 1375 H 118.663 5.13456 5.54886 0
M  V30 1376 H 119.931 4.36683 6.457 0
M  V30 1377 N 124.16 -0.719506 1.40217 0
M  V30 1378 C 125.093 -1.84298 1.34571 0
M  V30 1379 C 126.071 -1.61149 0.216741 0
M  V30 1380 O 127.255 -1.84212 0.399756 0
M  V30 1381 C 124.382 -3.20568 1.09335 0
M  V30 1382 C 123.428 -3.62551 2.24631 0
M  V30 1383 S 124.261 -3.7012 3.87004 0
M  V30 1384 C 125.417 -5.09154 3.64024 0
M  V30 1385 H 125.65 -1.88807 2.2965 0
M  V30 1386 H 123.183 -0.885901 1.26456 0
M  V30 1387 H 125.141 -3.99246 0.954602 0
M  V30 1388 H 123.802 -3.13696 0.159164 0
M  V30 1389 H 122.995 -4.61483 2.02606 0
M  V30 1390 H 122.597 -2.91119 2.34789 0
M  V30 1391 H 124.889 -5.95955 3.22248 0
M  V30 1392 H 125.832 -5.36213 4.62473 0
M  V30 1393 H 126.24 -4.79562 2.97793 0
M  V30 1394 N 125.638 -1.25649 -0.95132 0
M  V30 1395 C 127.054 -1.02542 -1.223 0
M  V30 1396 C 127.254 0.255715 -1.99871 0
M  V30 1397 O 126.31 0.967558 -2.33226 0
M  V30 1398 C 127.623 -2.25065 -1.99415 0
M  V30 1399 C 129.171 -2.29861 -2.12446 0
M  V30 1400 C 129.646 -3.52048 -2.92961 0
M  V30 1401 N 131.137 -3.52465 -3.00538 0
M  V30 1402 C 131.872 -4.43672 -3.63239 0
M  V30 1403 N 131.368 -5.45157 -4.27523 0
M  V30 1404 N 133.161 -4.31346 -3.60412 0
M  V30 1405 H 125.312 -2.07951 -0.432471 0
M  V30 1406 H 127.575 -0.91339 -0.253816 0
M  V30 1407 H 127.281 -3.18194 -1.49817 0
M  V30 1408 H 127.155 -2.28502 -3.00111 0
M  V30 1409 H 129.542 -1.37252 -2.61239 0
M  V30 1410 H 129.623 -2.3044 -1.11044 0
M  V30 1411 H 129.267 -4.44981 -2.44856 0
M  V30 1412 H 129.197 -3.48715 -3.94596 0
M  V30 1413 H 131.688 -2.79056 -2.54826 0
M  V30 1414 H 132.001 -6.10958 -4.73234 0
M  V30 1415 H 130.346 -5.49025 -4.26141 0
M  V30 1416 H 133.537 -3.51288 -3.09377 0
M  V30 1417 H 133.71 -5.02624 -4.0899 0
M  V30 1418 N 127.117 1.15442 -1.07289 0
M  V30 1419 C 128.363 1.86489 -0.796846 0
M  V30 1420 C 128.696 1.82078 0.675371 0
M  V30 1421 O 127.971 1.24346 1.4956 0
M  V30 1422 C 128.254 3.35626 -1.30489 0
M  V30 1423 C 128.107 3.48673 -2.84161 0
M  V30 1424 C 129.426 4.30357 -0.920907 0
M  V30 1425 H 126.545 0.677144 -0.290939 0
M  V30 1426 H 129.187 1.35633 -1.33056 0
M  V30 1427 H 127.337 3.79068 -0.850883 0
M  V30 1428 H 129.009 3.14099 -3.37846 0
M  V30 1429 H 127.252 2.90253 -3.22391 0
M  V30 1430 H 127.923 4.53453 -3.14777 0
M  V30 1431 H 130.399 3.94871 -1.3121 0
M  V30 1432 H 129.275 5.33193 -1.30372 0
M  V30 1433 H 129.536 4.4176 0.173226 0
M  V30 1434 N 128.595 0.856903 1.32268 0
M  V30 1435 C 129.545 0.274899 2.26337 0
M  V30 1436 C 130.529 -0.580543 1.50062 0
M  V30 1437 O 131.721 -0.429559 1.71708 0
M  V30 1438 C 128.85 -0.533841 3.39124 0
M  V30 1439 C 127.936 0.334114 4.22782 0
M  V30 1440 N 128.327 1.42143 4.85416 0
M  V30 1441 C 126.625 0.124256 4.45827 0
M  V30 1442 C 127.326 1.95559 5.47843 0
M  V30 1443 N 126.302 1.25444 5.28928 0
M  V30 1444 H 130.104 1.10612 2.72291 0
M  V30 1445 H 127.618 0.703258 1.46383 0
M  V30 1446 H 129.615 -0.96722 4.05525 0
M  V30 1447 H 128.275 -1.36283 2.94715 0
M  V30 1448 H 129.286 1.80436 4.85451 0
M  V30 1449 H 125.963 -0.669837 4.12092 0
M  V30 1450 H 127.353 2.86714 6.07655 0
M  V30 1451 N 130.073 -1.45103 0.615059 0
M  V30 1452 C 131.02 -2.30586 -0.0993978 0
M  V30 1453 C 131.99 -1.42544 -0.852669 0
M  V30 1454 O 133.175 -1.71465 -0.836917 0
M  V30 1455 C 130.315 -3.27572 -1.08583 0
M  V30 1456 C 129.428 -4.30717 -0.332656 0
M  V30 1457 C 128.563 -5.14807 -1.30947 0
M  V30 1458 C 127.602 -6.09673 -0.544538 0
M  V30 1459 N 126.739 -6.86517 -1.47101 0
M  V30 1460 H 131.579 -2.91144 0.635542 0
M  V30 1461 H 129.116 -1.4346 0.325206 0
M  V30 1462 H 131.074 -3.82276 -1.67095 0
M  V30 1463 H 129.704 -2.68751 -1.78809 0
M  V30 1464 H 128.756 -3.78615 0.368107 0
M  V30 1465 H 130.068 -4.98102 0.263842 0
M  V30 1466 H 129.222 -5.73948 -1.96643 0
M  V30 1467 H 127.961 -4.47458 -1.9399 0
M  V30 1468 H 126.966 -5.49656 0.126003 0
M  V30 1469 H 128.191 -6.79052 0.080947 0
M  V30 1470 H 126.137 -6.21851 -2.08895 0
M  V30 1471 H 126.054 -7.50281 -0.928137 0
M  V30 1472 H 127.322 -7.50194 -2.11731 0
M  V30 1473 N 131.551 -0.354651 -1.53558 0
M  V30 1474 C 132.8 0.239504 -2.00273 0
M  V30 1475 C 133.113 1.50759 -1.24623 0
M  V30 1476 O 134.319 2.17968 -1.61871 0
M  V30 1477 C 132.775 0.477341 -3.5672 0
M  V30 1478 C 132.383 -0.775488 -4.41237 0
M  V30 1479 C 134.127 1.02975 -4.11821 0
M  V30 1480 C 132.034 -0.507838 -5.89216 0
M  V30 1481 H 130.964 0.0932743 -0.748208 0
M  V30 1482 H 133.615 -0.471701 -1.77334 0
M  V30 1483 H 131.997 1.24953 -3.7577 0
M  V30 1484 H 133.171 -1.54963 -4.33962 0
M  V30 1485 H 131.486 -1.25033 -3.97185 0
M  V30 1486 H 134.083 1.24513 -5.2 0
M  V30 1487 H 134.426 1.98862 -3.65731 0
M  V30 1488 H 134.959 0.317994 -3.96527 0
M  V30 1489 H 131.698 -1.43674 -6.39561 0
M  V30 1490 H 131.218 0.228011 -5.99366 0
M  V30 1491 H 132.897 -0.129238 -6.46871 0
M  V30 1492 N 133.029 1.57378 -0.0835403 0
M  V30 1493 C 134.254 1.98682 0.594987 0
M  V30 1494 C 134.679 0.961969 1.61641 0
M  V30 1495 O 134.037 -0.0709989 1.81161 0
M  V30 1496 C 134.085 3.38988 1.2296 0
M  V30 1497 O 133.189 3.39208 2.34546 0
M  V30 1498 H 132.53 0.646368 0.152002 0
M  V30 1499 H 135.06 2.03961 -0.161533 0
M  V30 1500 H 135.07 3.76431 1.57366 0
M  V30 1501 H 133.745 4.13107 0.481228 0
M  V30 1502 H 132.322 3.13548 2.01846 0
M  V30 1503 N 134.507 -0.190092 1.56449 0
M  V30 1504 C 135.455 -1.25501 1.95837 0
M  V30 1505 C 136.449 -1.4685 0.844485 0
M  V30 1506 O 137.655 -1.47651 1.02952 0
M  V30 1507 H 134.03 -0.421447 0.622805 0
M  V30 1508 H 136.001 -0.895821 2.84636 0
M  V30 1509 C 134.75 -2.59124 2.31841 0
M  V30 1510 H 134.073 -2.43514 3.17082 0
M  V30 1511 H 135.513 -3.32371 2.6326 0
M  V30 1512 C 133.972 -3.16488 1.15486 0
M  V30 1513 O 134.502 -3.99365 0.432535 0
M  V30 1514 N 132.708 -2.75305 0.930349 0
M  V30 1515 H 132.255 -2.08013 1.51948 0
M  V30 1516 H 132.213 -3.14024 0.153634 0
M  V30 1517 N 135.985 -1.50799 -0.457987 0
M  V30 1518 C 137.231 -1.62683 -1.21088 0
M  V30 1519 C 137.564 -0.332268 -1.91336 0
M  V30 1520 O 136.839 0.667043 -1.82704 0
M  V30 1521 C 137.122 -2.81615 -2.24422 0
M  V30 1522 C 136.975 -4.20989 -1.58392 0
M  V30 1523 C 138.294 -2.96085 -3.2561 0
M  V30 1524 H 135.413 -0.592087 -0.438864 0
M  V30 1525 H 138.055 -1.83225 -0.50286 0
M  V30 1526 H 136.205 -2.64231 -2.84806 0
M  V30 1527 H 137.877 -4.49994 -1.01504 0
M  V30 1528 H 136.12 -4.24641 -0.886704 0
M  V30 1529 H 136.791 -5.0016 -2.33547 0
M  V30 1530 H 139.267 -3.12042 -2.75262 0
M  V30 1531 H 138.143 -3.80902 -3.95228 0
M  V30 1532 H 138.404 -2.0726 -3.90507 0
M  V30 1533 N 137.463 0.71206 -1.40597 0
M  V30 1534 C 138.411 1.84746 -1.41321 0
M  V30 1535 C 139.405 1.66842 -0.293268 0
M  V30 1536 O 140.611 1.73904 -0.464481 0
M  V30 1537 H 136.986 0.608522 -0.441819 0
M  V30 1538 H 138.957 1.81252 -2.37045 0
M  V30 1539 C 137.706 3.22638 -1.29614 0
M  V30 1540 H 137.029 3.37023 -2.15071 0
M  V30 1541 H 138.469 4.02209 -1.3418 0
M  V30 1542 C 136.928 3.36899 -0.00673121 0
M  V30 1543 O 137.458 3.90186 0.954859 0
M  V30 1544 N 135.664 2.9053 0.0639327 0
M  V30 1545 H 135.211 2.47353 -0.719311 0
M  V30 1546 H 135.169 3.0045 0.926118 0
M  V30 1547 N 138.941 1.26152 0.944643 0
M  V30 1548 C 139.888 1.07408 2.04285 0
M  V30 1549 C 140.858 -0.0198413 1.66088 0
M  V30 1550 O 142.043 0.139264 1.90291 0
M  V30 1551 C 139.183 0.70945 3.37729 0
M  V30 1552 C 138.296 1.87926 3.88983 0
M  V30 1553 C 137.431 1.45807 5.10797 0
M  V30 1554 C 136.47 2.5964 5.54305 0
M  V30 1555 N 135.607 2.18226 6.67324 0
M  V30 1556 H 140.447 2.01389 2.1965 0
M  V30 1557 H 137.984 1.00275 1.07626 0
M  V30 1558 H 139.942 0.478948 4.14442 0
M  V30 1559 H 138.572 -0.193389 3.2222 0
M  V30 1560 H 137.624 2.22279 3.08701 0
M  V30 1561 H 138.936 2.73377 4.17213 0
M  V30 1562 H 138.09 1.18781 5.94959 0
M  V30 1563 H 136.829 0.574414 4.84305 0
M  V30 1564 H 135.834 2.87399 4.68702 0
M  V30 1565 H 137.059 3.48599 5.828 0
M  V30 1566 H 135.005 1.3229 6.42523 0
M  V30 1567 H 134.922 2.97221 6.95123 0
M  V30 1568 H 136.19 1.94403 7.54869 0
M  V30 1569 N 140.419 -1.14872 1.07899 0
M  V30 1570 C 141.382 -2.17986 0.708161 0
M  V30 1571 C 142.382 -1.58775 -0.25442 0
M  V30 1572 O 143.572 -1.74166 -0.034645 0
M  V30 1573 C 140.704 -3.40871 0.0446929 0
M  V30 1574 H 141.897 -2.52306 1.62116 0
M  V30 1575 H 139.45 -1.2943 0.876218 0
M  V30 1576 H 140.185 -3.12124 -0.880281 0
M  V30 1577 H 139.97 -3.8511 0.737091 0
M  V30 1578 H 141.46 -4.17121 -0.19991 0
M  V30 1579 N 141.898 -0.863906 -1.31812 0
M  V30 1580 C 142.828 -0.330843 -2.31144 0
M  V30 1581 C 143.809 0.575005 -1.60087 0
M  V30 1582 O 144.994 0.493304 -1.8783 0
M  V30 1583 C 142.124 0.47374 -3.44054 0
M  V30 1584 C 141.078 -0.338481 -4.26659 0
M  V30 1585 C 140.404 0.591412 -5.31419 0
M  V30 1586 C 141.704 -1.56926 -4.98168 0
M  V30 1587 H 143.398 -1.16086 -2.75979 0
M  V30 1588 H 140.944 -0.559657 -1.32679 0
M  V30 1589 H 142.897 0.857143 -4.12591 0
M  V30 1590 H 141.621 1.33721 -2.9797 0
M  V30 1591 H 140.28 -0.703754 -3.59782 0
M  V30 1592 H 139.928 1.45199 -4.81587 0
M  V30 1593 H 139.628 0.0519022 -5.87577 0
M  V30 1594 H 141.152 0.97179 -6.02817 0
M  V30 1595 H 142.566 -1.25764 -5.59336 0
M  V30 1596 H 140.963 -2.04739 -5.64094 0
M  V30 1597 H 142.033 -2.32544 -4.25501 0
M  V30 1598 N 143.376 1.44774 -0.622745 0
M  V30 1599 C 144.653 1.95522 -0.0551974 0
M  V30 1600 C 145.033 1.5649 1.41683 0
M  V30 1601 O 144.381 0.834848 2.12703 0
M  V30 1602 C 144.591 3.4796 -0.269242 0
M  V30 1603 C 145.939 4.24306 -0.158014 0
M  V30 1604 O 146.963 3.55637 -0.200162 0
M  V30 1605 O 145.822 5.46471 -0.0558693 0
M  V30 1606 H 142.916 0.826556 0.0271015 0
M  V30 1607 H 145.462 1.54866 -0.693864 0
M  V30 1608 H 144.234 3.6939 -1.29099 0
M  V30 1609 H 143.857 3.95543 0.403966 0
M  V30 1610 N 144.854 0.36279 1.53368 0
M  V30 1611 C 146.101 -0.227776 2.01215 0
M  V30 1612 C 146.429 -1.49003 1.25014 0
M  V30 1613 O 145.684 -1.92876 0.331236 0
M  V30 1614 C 145.983 -0.568417 3.52851 0
M  V30 1615 C 145.649 0.59918 4.46901 0
M  V30 1616 C 144.311 0.919559 4.72332 0
M  V30 1617 C 146.663 1.38156 5.02556 0
M  V30 1618 C 143.991 2.02434 5.5067 0
M  V30 1619 C 146.343 2.47674 5.821 0
M  V30 1620 C 145.007 2.8025 6.05819 0
M  V30 1621 H 144.277 -0.083349 0.736297 0
M  V30 1622 H 146.924 0.494677 1.85001 0
M  V30 1623 H 145.229 -1.37185 3.66998 0
M  V30 1624 H 146.926 -1.03756 3.87344 0
M  V30 1625 H 143.516 0.339437 4.27254 0
M  V30 1626 H 147.7 1.14729 4.82857 0
M  V30 1627 H 142.956 2.28075 5.67267 0
M  V30 1628 H 147.13 3.08716 6.24234 0
M  V30 1629 H 144.757 3.65979 6.66306 0
M  V30 1630 N 146.332 -1.57332 0.0918853 0
M  V30 1631 C 147.581 -1.93412 -0.572249 0
M  V30 1632 C 147.894 -0.975515 -1.69538 0
M  V30 1633 O 149.1 -1.22991 -2.42045 0
M  V30 1634 C 147.556 -3.43648 -1.0693 0
M  V30 1635 C 147.164 -4.47994 0.0239049 0
M  V30 1636 C 148.908 -3.88695 -1.70635 0
M  V30 1637 C 146.815 -5.89381 -0.488319 0
M  V30 1638 H 145.745 -0.721939 -0.217532 0
M  V30 1639 H 148.396 -1.82735 0.167369 0
M  V30 1640 H 146.778 -3.49466 -1.8625 0
M  V30 1641 H 147.952 -4.53815 0.799277 0
M  V30 1642 H 146.267 -4.12536 0.565946 0
M  V30 1643 H 148.864 -4.91725 -2.10025 0
M  V30 1644 H 149.207 -3.27166 -2.57426 0
M  V30 1645 H 149.74 -3.85564 -0.979023 0
M  V30 1646 H 146.479 -6.54602 0.342906 0
M  V30 1647 H 145.999 -5.87037 -1.23077 0
M  V30 1648 H 147.678 -6.39863 -0.958317 0
M  V30 1649 N 147.81 0.181792 -1.56548 0
M  V30 1650 C 148.773 1.20894 -1.94724 0
M  V30 1651 C 149.773 1.37738 -0.829747 0
M  V30 1652 O 150.963 1.35323 -1.09697 0
M  V30 1653 C 148.095 2.57593 -2.23291 0
M  V30 1654 H 149.288 0.882275 -2.86629 0
M  V30 1655 H 146.841 0.423838 -1.50444 0
M  V30 1656 H 147.576 2.95291 -1.34067 0
M  V30 1657 H 147.361 2.46735 -3.04736 0
M  V30 1658 H 148.851 3.31637 -2.53785 0
M  V30 1659 N 149.288 1.51039 0.449983 0
M  V30 1660 C 150.513 1.6715 1.22783 0
M  V30 1661 C 150.938 0.363081 1.84563 0
M  V30 1662 O 150.296 -0.675433 1.68249 0
M  V30 1663 C 150.344 2.77985 2.29689 0
M  V30 1664 O 149.448 2.40707 3.34864 0
M  V30 1665 H 148.789 0.557746 0.360299 0
M  V30 1666 H 151.319 1.97535 0.533005 0
M  V30 1667 H 151.329 3.01693 2.74673 0
M  V30 1668 H 150.004 3.72935 1.84098 0
M  V30 1669 H 148.581 2.27523 2.95445 0
M  V30 1670 N 150.766 -0.704594 1.40972 0
M  V30 1671 C 151.713 -1.81862 1.42109 0
M  V30 1672 C 152.683 -1.63781 0.276593 0
M  V30 1673 O 153.868 -1.84759 0.4763 0
M  V30 1674 C 151.008 -3.19669 1.30022 0
M  V30 1675 C 150.121 -3.49246 2.54267 0
M  V30 1676 C 149.256 -4.76618 2.3454 0
M  V30 1677 C 148.295 -4.99133 3.54306 0
M  V30 1678 N 147.432 -6.17726 3.33706 0
M  V30 1679 H 152.272 -1.80226 2.37324 0
M  V30 1680 H 149.809 -0.880238 1.17857 0
M  V30 1681 H 151.767 -3.99263 1.21018 0
M  V30 1682 H 150.397 -3.20506 0.384192 0
M  V30 1683 H 149.449 -2.64125 2.73756 0
M  V30 1684 H 150.761 -3.61788 3.43381 0
M  V30 1685 H 149.915 -5.64249 2.22952 0
M  V30 1686 H 148.654 -4.66305 1.42867 0
M  V30 1687 H 147.659 -4.09953 3.66359 0
M  V30 1688 H 148.884 -5.11311 4.4692 0
M  V30 1689 H 146.83 -6.08642 2.44725 0
M  V30 1690 H 146.747 -6.30995 4.16391 0
M  V30 1691 H 148.015 -7.08115 3.25873 0
M  V30 1692 N 152.244 -1.26651 -0.937939 0
M  V30 1693 C 153.492 -1.12165 -1.68118 0
M  V30 1694 C 153.813 0.334983 -1.92101 0
M  V30 1695 O 153.083 1.23583 -1.52 0
M  V30 1696 H 151.663 -0.412093 -0.623048 0
M  V30 1697 H 154.325 -1.59027 -1.12678 0
M  V30 1698 H 153.421 -1.64289 -2.6536 0
M  V30 1699 N 153.722 1.14298 -1.08507 0
M  V30 1700 C 154.968 1.85633 -0.816581 0
M  V30 1701 C 155.301 1.82784 0.656021 0
M  V30 1702 O 154.576 1.25926 1.48233 0
M  V30 1703 C 154.859 3.34223 -1.34041 0
M  V30 1704 C 154.712 3.45639 -2.87843 0
M  V30 1705 C 156.031 4.29356 -0.9665 0
M  V30 1706 H 153.15 0.67402 -0.298104 0
M  V30 1707 H 155.792 1.34214 -1.34487 0
M  V30 1708 H 153.942 3.78144 -0.89104 0
M  V30 1709 H 155.614 3.10498 -3.41158 0
M  V30 1710 H 153.857 2.86817 -3.25451 0
M  V30 1711 H 154.528 4.50089 -3.19569 0
M  V30 1712 H 157.004 3.93457 -1.35391 0
M  V30 1713 H 155.88 5.3178 -1.3602 0
M  V30 1714 H 156.141 4.41919 0.126362 0
M  V30 1715 N 155.201 0.870884 1.31352 0
M  V30 1716 C 156.148 0.325425 2.28494 0
M  V30 1717 C 157.118 -0.576615 1.5577 0
M  V30 1718 O 158.303 -0.508059 1.83911 0
M  V30 1719 C 155.443 -0.466283 3.41935 0
M  V30 1720 C 154.556 0.463378 4.29508 0
M  V30 1721 C 153.691 -0.342544 5.30094 0
M  V30 1722 C 152.73 0.583486 6.09313 0
M  V30 1723 N 151.867 -0.186244 7.01853 0
M  V30 1724 H 156.707 1.15901 2.74538 0
M  V30 1725 H 154.244 0.58294 1.35056 0
M  V30 1726 H 156.202 -0.941085 4.06447 0
M  V30 1727 H 154.832 -1.26456 2.97 0
M  V30 1728 H 153.884 1.05663 3.65431 0
M  V30 1729 H 155.196 1.1734 4.84802 0
M  V30 1730 H 154.35 -0.879816 6.00287 0
M  V30 1731 H 153.089 -1.08585 4.75458 0
M  V30 1732 H 152.094 1.13251 5.3801 0
M  V30 1733 H 153.319 1.32566 6.66035 0
M  V30 1734 H 151.265 -0.912348 6.49625 0
M  V30 1735 H 151.182 0.464422 7.54572 0
M  V30 1736 H 152.45 -0.704716 7.76308 0
M  V30 1737 N 156.679 -1.44442 0.630414 0
M  V30 1738 C 157.609 -2.33418 -0.0618083 0
M  V30 1739 C 158.59 -1.48165 -0.835541 0
M  V30 1740 O 159.775 -1.76886 -0.801564 0
M  V30 1741 C 156.905 -3.31222 -1.04449 0
M  V30 1742 C 155.859 -4.26288 -0.382436 0
M  V30 1743 C 155.185 -5.13954 -1.47497 0
M  V30 1744 C 156.485 -5.1744 0.710865 0
M  V30 1745 H 158.179 -2.91548 0.681184 0
M  V30 1746 H 155.725 -1.40191 0.329026 0
M  V30 1747 H 157.678 -3.92351 -1.53748 0
M  V30 1748 H 156.402 -2.71299 -1.81836 0
M  V30 1749 H 155.061 -3.6649 0.0899054 0
M  V30 1750 H 154.709 -4.50385 -2.2397 0
M  V30 1751 H 154.409 -5.7837 -1.03737 0
M  V30 1752 H 155.933 -5.77955 -1.96979 0
M  V30 1753 H 157.347 -5.72509 0.300996 0
M  V30 1754 H 155.744 -5.90455 1.07156 0
M  V30 1755 H 156.814 -4.58496 1.57829 0
M  V30 1756 N 158.157 -0.370918 -1.53173 0
M  V30 1757 C 159.403 0.217423 -2.01631 0
M  V30 1758 C 159.736 1.47983 -1.25756 0
M  V30 1759 O 159.011 1.91274 -0.352764 0
M  V30 1760 C 159.294 0.503982 -3.56556 0
M  V30 1761 C 159.147 -0.77243 -4.43118 0
M  V30 1762 C 160.466 1.30234 -4.20389 0
M  V30 1763 H 157.585 0.0775486 -0.732909 0
M  V30 1764 H 160.227 -0.496863 -1.83388 0
M  V30 1765 H 158.377 1.11248 -3.72231 0
M  V30 1766 H 160.049 -1.4098 -4.39229 0
M  V30 1767 H 158.292 -1.39167 -4.10871 0
M  V30 1768 H 158.963 -0.526815 -5.4948 0
M  V30 1769 H 161.439 0.787546 -4.08579 0
M  V30 1770 H 160.315 1.47158 -5.28806 0
M  V30 1771 H 160.576 2.31237 -3.76805 0
M  V30 1772 N 159.635 1.57281 -0.100228 0
M  V30 1773 C 160.86 1.99302 0.573881 0
M  V30 1774 C 161.285 0.979059 1.60611 0
M  V30 1775 O 160.643 -0.0517803 1.81226 0
M  V30 1776 C 160.691 3.40274 1.19358 0
M  V30 1777 O 159.795 3.41676 2.30935 0
M  V30 1778 H 159.136 0.647944 0.145138 0
M  V30 1779 H 161.666 2.03779 -0.183156 0
M  V30 1780 H 161.676 3.78078 1.53365 0
M  V30 1781 H 160.351 4.13594 0.437385 0
M  V30 1782 H 158.928 3.15672 1.98509 0
M  V30 1783 N 161.113 -0.173488 1.56642 0
M  V30 1784 C 162.362 -0.888758 1.81063 0
M  V30 1785 C 162.675 -1.83506 0.67712 0
M  V30 1786 O 163.881 -2.59254 0.806206 0
M  V30 1787 C 162.337 -1.63091 3.20826 0
M  V30 1788 C 161.945 -0.728357 4.4204 0
M  V30 1789 C 163.689 -2.33454 3.54541 0
M  V30 1790 C 161.596 -1.47062 5.72823 0
M  V30 1791 H 160.526 -0.335618 0.675186 0
M  V30 1792 H 163.177 -0.141712 1.82952 0
M  V30 1793 H 161.559 -2.42263 3.13248 0
M  V30 1794 H 162.733 0.0262449 4.60793 0
M  V30 1795 H 161.048 -0.134492 4.16183 0
M  V30 1796 H 163.645 -2.89578 4.49498 0
M  V30 1797 H 163.988 -3.08687 2.79317 0
M  V30 1798 H 164.521 -1.61227 3.63663 0
M  V30 1799 H 161.26 -0.760658 6.51072 0
M  V30 1800 H 160.78 -2.1986 5.58052 0
M  V30 1801 H 162.459 -2.01868 6.14702 0
M  V30 1802 N 162.591 -1.51276 -0.441967 0
M  V30 1803 C 163.839 -1.63392 -1.18943 0
M  V30 1804 C 164.16 -0.350159 -1.9183 0
M  V30 1805 O 163.43 0.633784 -1.85364 0
M  V30 1806 H 162.01 -0.602164 -0.442049 0
M  V30 1807 H 164.672 -1.88186 -0.507165 0
M  V30 1808 H 163.768 -2.45934 -1.92154 0
M  V30 1809 N 164.069 0.697108 -1.41344 0
M  V30 1810 C 165.032 1.79281 -1.42797 0
M  V30 1811 C 166.032 1.57607 -0.318837 0
M  V30 1812 O 167.222 1.64309 -0.578642 0
M  V30 1813 C 164.354 3.17632 -1.23785 0
M  V30 1814 H 165.547 1.79385 -2.40335 0
M  V30 1815 H 163.1 0.904582 -1.27464 0
M  V30 1816 H 163.835 3.23167 -0.270814 0
M  V30 1817 H 163.62 3.34765 -2.04144 0
M  V30 1818 H 165.11 3.97617 -1.27633 0
M  V30 1819 N 165.547 1.27147 0.931209 0
M  V30 1820 C 166.457 1.11372 2.06478 0
M  V30 1821 C 167.473 0.044645 1.73943 0
M  V30 1822 O 168.649 0.250417 1.99837 0
M  V30 1823 C 165.714 0.758838 3.38294 0
M  V30 1824 C 164.775 1.90841 3.84549 0
M  V30 1825 C 164.008 1.57036 5.10074 0
M  V30 1826 O 164.231 0.476645 5.68405 0
M  V30 1827 O 163.165 2.40839 5.51616 0
M  V30 1828 H 166.991 2.06493 2.22698 0
M  V30 1829 H 164.576 1.06301 1.04978 0
M  V30 1830 H 166.458 0.574098 4.17471 0
M  V30 1831 H 165.133 -0.162879 3.2329 0
M  V30 1832 H 164.04 2.14819 3.06274 0
M  V30 1833 H 165.373 2.81021 4.04089 0
M  V30 1834 N 167.025 -1.13721 1.09112 0
M  V30 1835 C 167.935 -2.22638 0.73957 0
M  V30 1836 C 168.951 -1.72091 -0.257068 0
M  V30 1837 O 170.127 -2.01155 -0.0992154 0
M  V30 1838 C 167.192 -3.46322 0.16191 0
M  V30 1839 C 166.253 -4.11775 1.21408 0
M  V30 1840 C 165.486 -5.29555 0.663891 0
M  V30 1841 O 165.709 -5.68077 -0.514274 0
M  V30 1842 O 164.643 -5.84973 1.41738 0
M  V30 1843 H 168.469 -2.55074 1.64836 0
M  V30 1844 H 166.054 -1.21791 0.865289 0
M  V30 1845 H 167.936 -4.21107 -0.157073 0
M  V30 1846 H 166.611 -3.15593 -0.719932 0
M  V30 1847 H 165.518 -3.3883 1.58571 0
M  V30 1848 H 166.851 -4.46627 2.06845 0
M  V30 1849 N 168.503 -0.877838 -1.30888 0
M  V30 1850 C 169.752 -0.488793 -1.95688 0
M  V30 1851 C 170.065 0.965485 -1.70111 0
M  V30 1852 O 171.271 1.46104 -2.28836 0
M  V30 1853 C 169.727 -0.823201 -3.50359 0
M  V30 1854 C 169.335 -2.29477 -3.84765 0
M  V30 1855 C 171.079 -0.503009 -4.21509 0
M  V30 1856 C 168.986 -2.57118 -5.32583 0
M  V30 1857 H 167.916 -0.179062 -0.732429 0
M  V30 1858 H 170.567 -1.07183 -1.48943 0
M  V30 1859 H 168.949 -0.169331 -3.95638 0
M  V30 1860 H 170.123 -2.99236 -3.5042 0
M  V30 1861 H 168.438 -2.58178 -3.267 0
M  V30 1862 H 171.035 -0.68665 -5.30273 0
M  V30 1863 H 171.378 0.557109 -4.12555 0
M  V30 1864 H 171.911 -1.11376 -3.8189 0
M  V30 1865 H 168.65 -3.61843 -5.4658 0
M  V30 1866 H 168.17 -1.91961 -5.68253 0
M  V30 1867 H 169.849 -2.42251 -5.99936 0
M  V30 1868 N 169.982 1.44106 -0.638065 0
M  V30 1869 C 171.228 2.02277 -0.145546 0
M  V30 1870 C 171.561 1.50125 1.23191 0
M  V30 1871 O 170.836 0.688133 1.8192 0
M  V30 1872 C 171.119 3.59829 -0.139791 0
M  V30 1873 C 170.972 4.22247 -1.55008 0
M  V30 1874 C 172.291 4.36873 0.531966 0
M  V30 1875 H 169.41 0.734992 -0.0543632 0
M  V30 1876 H 172.052 1.71592 -0.815863 0
M  V30 1877 H 170.202 3.86102 0.431007 0
M  V30 1878 H 171.874 4.07057 -2.1703 0
M  V30 1879 H 170.117 3.79476 -2.10191 0
M  V30 1880 H 170.788 5.31284 -1.49804 0
M  V30 1881 H 173.264 4.16074 0.0464781 0
M  V30 1882 H 172.14 5.4657 0.505206 0
M  V30 1883 H 172.401 4.11995 1.60352 0
M  V30 1884 N 171.46 0.379036 1.52974 0
M  V30 1885 C 172.737 -0.263479 1.93817 0
M  V30 1886 C 173.117 -1.65244 1.31368 0
M  V30 1887 O 172.465 -2.23448 0.477856 0
M  V30 1888 C 172.675 -0.300166 3.47707 0
M  V30 1889 C 174.023 -0.534061 4.21228 0
M  V30 1890 O 175.047 -0.38081 3.54159 0
M  V30 1891 O 173.906 -0.833501 5.40106 0
M  V30 1892 H 171 -0.161149 0.811147 0
M  V30 1893 H 173.546 0.432798 1.64088 0
M  V30 1894 H 172.318 0.673138 3.85467 0
M  V30 1895 H 171.941 -1.04179 3.83709 0
M  V30 1896 N 172.938 -1.57226 0.108567 0
M  V30 1897 C 174.186 -1.94448 -0.550853 0
M  V30 1898 C 174.507 -0.992074 -1.67878 0
M  V30 1899 O 173.777 -0.0465 -1.95845 0
M  V30 1900 H 172.357 -0.717897 -0.206479 0
M  V30 1901 H 175.019 -1.94112 0.175062 0
M  V30 1902 H 174.115 -2.97218 -0.952259 0
M  V30 1903 N 174.416 0.165178 -1.56732 0
M  V30 1904 C 175.364 1.22369 -1.97809 0
M  V30 1905 C 176.358 1.45488 -0.867741 0
M  V30 1906 O 177.564 1.45995 -1.05288 0
M  V30 1907 H 173.939 0.411486 -0.629431 0
M  V30 1908 H 175.91 0.850425 -2.86025 0
M  V30 1909 C 174.659 2.55403 -2.35934 0
M  V30 1910 H 173.982 2.38438 -3.20916 0
M  V30 1911 H 175.422 3.2814 -2.68514 0
M  V30 1912 C 173.881 3.14611 -1.20506 0
M  V30 1913 O 174.411 3.98626 -0.496016 0
M  V30 1914 N 172.617 2.7379 -0.97403 0
M  V30 1915 H 172.164 2.0557 -1.55238 0
M  V30 1916 H 172.122 3.1374 -0.203573 0
M  V30 1917 N 175.894 1.51508 0.433938 0
M  V30 1918 C 177.14 1.64588 1.18484 0
M  V30 1919 C 177.473 0.362666 1.90784 0
M  V30 1920 O 176.748 -0.637892 1.83742 0
M  V30 1921 C 177.031 2.85149 2.19913 0
M  V30 1922 C 176.884 4.23456 1.51674 0
M  V30 1923 C 178.203 3.01227 3.20858 0
M  V30 1924 H 175.322 0.598994 0.429389 0
M  V30 1925 H 177.964 1.84002 0.473647 0
M  V30 1926 H 176.114 2.68729 2.80566 0
M  V30 1927 H 177.786 4.51552 0.943322 0
M  V30 1928 H 176.029 4.25998 0.819035 0
M  V30 1929 H 176.7 5.03812 2.2556 0
M  V30 1930 H 179.176 3.16382 2.70263 0
M  V30 1931 H 178.052 3.87141 3.89118 0
M  V30 1932 H 178.313 2.13447 3.8716 0
M  V30 1933 N 177.372 -0.689602 1.41712 0
M  V30 1934 C 178.319 -1.80345 1.44029 0
M  V30 1935 C 179.289 -1.63478 0.293948 0
M  V30 1936 O 180.474 -1.84244 0.495869 0
M  V30 1937 C 177.614 -3.18272 1.33405 0
M  V30 1938 C 176.727 -3.46529 2.57956 0
M  V30 1939 C 175.862 -4.74103 2.39582 0
M  V30 1940 C 174.901 -4.95347 3.5958 0
M  V30 1941 N 174.038 -6.14151 3.40239 0
M  V30 1942 H 178.878 -1.77698 2.39222 0
M  V30 1943 H 176.415 -0.867688 1.18784 0
M  V30 1944 H 178.373 -3.97956 1.25246 0
M  V30 1945 H 177.003 -3.2008 0.418164 0
M  V30 1946 H 176.055 -2.61207 2.76542 0
M  V30 1947 H 177.367 -3.58126 3.47199 0
M  V30 1948 H 176.521 -5.61853 2.28924 0
M  V30 1949 H 175.26 -4.64763 1.47805 0
M  V30 1950 H 174.265 -4.06044 3.70686 0
M  V30 1951 H 175.49 -5.06542 4.52318 0
M  V30 1952 H 173.436 -6.06013 2.51167 0
M  V30 1953 H 173.353 -6.26543 4.23061 0
M  V30 1954 H 174.621 -7.04619 3.33365 0
M  V30 1955 N 178.85 -1.27639 -0.924453 0
M  V30 1956 C 179.783 -1.04966 -2.02626 0
M  V30 1957 C 180.761 0.0309505 -1.62571 0
M  V30 1958 O 181.945 -0.114846 -1.8815 0
M  V30 1959 C 179.072 -0.59292 -3.3347 0
M  V30 1960 C 178.118 -1.66858 -3.92506 0
M  V30 1961 S 178.951 -3.2619 -4.24689 0
M  V30 1962 C 180.107 -2.82325 -5.58609 0
M  V30 1963 H 180.34 -1.98252 -2.21547 0
M  V30 1964 H 177.873 -1.11506 -1.06798 0
M  V30 1965 H 179.831 -0.336086 -4.09122 0
M  V30 1966 H 178.492 0.319939 -3.12466 0
M  V30 1967 H 177.685 -1.30038 -4.86935 0
M  V30 1968 H 177.287 -1.87766 -3.2345 0
M  V30 1969 H 179.579 -2.2783 -6.38044 0
M  V30 1970 H 180.522 -3.75511 -6.00331 0
M  V30 1971 H 180.93 -2.21367 -5.19285 0
M  V30 1972 N 180.328 1.1314 -1.09713 0
M  V30 1973 C 181.556 1.88321 -0.856898 0
M  V30 1974 C 181.971 1.79276 0.592073 0
M  V30 1975 O 181.328 1.16142 1.40774 0
M  V30 1976 C 181.379 3.37812 -1.28706 0
M  V30 1977 O 181.1 3.46627 -2.67921 0
M  V30 1978 C 182.601 4.29952 -1.07964 0
M  V30 1979 H 179.821 0.596094 -0.308079 0
M  V30 1980 H 182.365 1.43205 -1.45988 0
M  V30 1981 H 180.52 3.805 -0.727912 0
M  V30 1982 H 180.934 4.39579 -2.8613 0
M  V30 1983 H 182.408 5.33159 -1.42986 0
M  V30 1984 H 182.885 4.39196 -0.0176577 0
M  V30 1985 H 183.491 3.93036 -1.62489 0
M  V30 1986 N 181.806 0.884767 1.30421 0
M  V30 1987 C 182.736 0.367574 2.30589 0
M  V30 1988 C 183.717 -0.549464 1.60981 0
M  V30 1989 O 184.902 -0.46336 1.88591 0
M  V30 1990 C 182.032 -0.418944 3.44764 0
M  V30 1991 C 180.986 0.406316 4.26067 0
M  V30 1992 C 180.312 -0.506793 5.32293 0
M  V30 1993 C 181.612 1.64832 4.95608 0
M  V30 1994 H 183.306 1.20462 2.74097 0
M  V30 1995 H 180.852 0.580695 1.31772 0
M  V30 1996 H 182.805 -0.791395 4.13902 0
M  V30 1997 H 181.529 -1.28964 3.0006 0
M  V30 1998 H 180.188 0.760903 3.58617 0
M  V30 1999 H 179.836 -1.37519 4.83836 0
M  V30 2000 H 179.536 0.0415828 5.87585 0
M  V30 2001 H 181.06 -0.875764 6.04287 0
M  V30 2002 H 182.474 1.34646 5.57264 0
M  V30 2003 H 180.871 2.13688 5.60765 0
M  V30 2004 H 181.941 2.39284 4.21748 0
M  V30 2005 N 183.284 -1.43765 0.645699 0
M  V30 2006 C 184.532 -2.01499 0.155731 0
M  V30 2007 C 184.853 -1.51151 -1.232 0
M  V30 2008 O 184.123 -0.721044 -1.82148 0
M  V30 2009 H 182.703 -0.745003 0.0545817 0
M  V30 2010 H 185.365 -1.76075 0.835677 0
M  V30 2011 H 184.461 -3.1181 0.134577 0
M  V30 2012 N 184.763 -0.387143 -1.52771 0
M  V30 2013 C 185.696 0.493123 -2.22808 0
M  V30 2014 C 186.674 1.0658 -1.22798 0
M  V30 2015 O 187.858 1.11785 -1.51777 0
M  V30 2016 C 184.985 1.68238 -2.93962 0
M  V30 2017 C 184.031 1.23515 -4.08223 0
M  V30 2018 S 184.864 0.21848 -5.35054 0
M  V30 2019 C 186.02 1.41357 -6.09729 0
M  V30 2020 H 186.253 -0.101625 -2.97126 0
M  V30 2021 H 183.786 -0.171323 -1.53447 0
M  V30 2022 H 185.744 2.36443 -3.35567 0
M  V30 2023 H 184.405 2.24842 -2.19328 0
M  V30 2024 H 183.598 2.12304 -4.57103 0
M  V30 2025 H 183.2 0.632044 -3.68621 0
M  V30 2026 H 185.492 2.34101 -6.3577 0
M  V30 2027 H 186.435 0.965736 -7.01484 0
M  V30 2028 H 186.843 1.6294 -5.40473 0
M  V30 2029 N 186.241 1.57166 -0.116904 0
M  V30 2030 C 187.49 1.94298 0.541407 0
M  V30 2031 C 187.803 1.00236 1.67964 0
M  V30 2032 O 189.009 1.26826 2.40057 0
M  V30 2033 C 187.465 3.45306 1.01449 0
M  V30 2034 C 187.073 4.47899 -0.0951738 0
M  V30 2035 C 188.817 3.91361 1.6443 0
M  V30 2036 C 186.724 5.90083 0.394491 0
M  V30 2037 H 185.654 0.725308 0.206019 0
M  V30 2038 H 188.305 1.82446 -0.196419 0
M  V30 2039 H 186.687 3.52385 1.80667 0
M  V30 2040 H 187.861 4.52486 -0.871374 0
M  V30 2041 H 186.176 4.11583 -0.631505 0
M  V30 2042 H 188.773 4.95004 2.02176 0
M  V30 2043 H 189.116 3.3122 2.52189 0
M  V30 2044 H 189.649 3.87073 0.917559 0
M  V30 2045 H 186.388 6.53974 -0.447004 0
M  V30 2046 H 185.908 5.88921 1.13722 0
M  V30 2047 H 187.587 6.41307 0.856399 0
M  V30 2048 N 187.719 -0.156864 1.56817 0
M  V30 2049 C 188.965 -0.867645 1.83966 0
M  V30 2050 C 189.32 -1.79233 0.699511 0
M  V30 2051 O 188.613 -1.89186 -0.303176 0
M  V30 2052 C 188.807 -1.68737 3.1506 0
M  V30 2053 C 188.636 -0.843548 4.41718 0
M  V30 2054 C 187.406 -0.512994 5.02689 0
M  V30 2055 C 189.604 -0.178416 5.1399 0
M  V30 2056 N 187.586 0.345456 6.12927 0
M  V30 2057 C 188.957 0.540586 6.17639 0
M  V30 2058 C 191.012 -0.0980696 4.97803 0
M  V30 2059 C 189.715 1.33233 7.06853 0
M  V30 2060 C 191.741 0.680387 5.87473 0
M  V30 2061 C 191.103 1.3877 6.90596 0
M  V30 2062 H 187.202 -0.295642 0.723961 0
M  V30 2063 H 189.786 -0.13365 1.94241 0
M  V30 2064 H 187.957 -2.39268 3.0595 0
M  V30 2065 H 189.689 -2.34056 3.30151 0
M  V30 2066 H 186.444 -0.846476 4.65974 0
M  V30 2067 H 186.868 0.765415 6.72659 0
M  V30 2068 H 191.51 -0.630562 4.18071 0
M  V30 2069 H 189.228 1.87612 7.8602 0
M  V30 2070 H 192.814 0.744415 5.77018 0
M  V30 2071 H 191.694 1.9804 7.58782 0
M  V30 2072 N 189.197 -1.51736 -0.425897 0
M  V30 2073 C 190.425 -1.68794 -1.1965 0
M  V30 2074 C 190.84 -0.390164 -1.84725 0
M  V30 2075 O 190.197 0.632376 -1.71194 0
M  V30 2076 C 190.248 -2.81174 -2.27208 0
M  V30 2077 O 189.969 -4.05925 -1.64793 0
M  V30 2078 C 191.47 -3.09599 -3.17275 0
M  V30 2079 H 188.69 -0.566128 -0.360194 0
M  V30 2080 H 191.234 -1.98211 -0.503249 0
M  V30 2081 H 189.389 -2.54324 -2.9223 0
M  V30 2082 H 189.803 -4.68423 -2.35967 0
M  V30 2083 H 191.277 -3.91786 -3.88854 0
M  V30 2084 H 191.754 -2.22468 -3.78688 0
M  V30 2085 H 192.36 -3.38151 -2.57941 0
M  V30 2086 N 190.675 0.682077 -1.42076 0
M  V30 2087 C 191.924 1.43786 -1.41451 0
M  V30 2088 C 192.237 1.95574 -0.0317074 0
M  V30 2089 O 193.443 2.71326 0.0971462 0
M  V30 2090 C 191.899 2.60071 -2.48779 0
M  V30 2091 C 191.507 2.15013 -3.93031 0
M  V30 2092 C 193.251 3.37626 -2.57311 0
M  V30 2093 C 191.158 3.28336 -4.91883 0
M  V30 2094 H 190.088 0.540143 -0.526082 0
M  V30 2095 H 192.739 0.739157 -1.67955 0
M  V30 2096 H 191.121 3.32275 -2.15429 0
M  V30 2097 H 192.295 1.5001 -4.35699 0
M  V30 2098 H 190.61 1.50416 -3.88284 0
M  V30 2099 H 193.207 4.22012 -3.28345 0
M  V30 2100 H 193.55 3.83727 -1.61429 0
M  V30 2101 H 194.083 2.72488 -2.89819 0
M  V30 2102 H 190.822 2.87234 -5.89217 0
M  V30 2103 H 190.342 3.92145 -4.53853 0
M  V30 2104 H 192.021 3.93913 -5.13265 0
M  V30 2105 N 192.153 1.28127 0.917671 0
M  V30 2106 C 193.402 1.14432 1.66097 0
M  V30 2107 C 193.715 -0.307247 1.93172 0
M  V30 2108 O 194.921 -0.565259 2.65551 0
M  V30 2109 C 193.377 2.00015 2.99202 0
M  V30 2110 C 192.985 3.49889 2.79789 0
M  V30 2111 C 194.729 1.94996 3.77064 0
M  V30 2112 C 192.636 4.27636 4.08511 0
M  V30 2113 H 191.566 0.424662 0.62304 0
M  V30 2114 H 194.217 1.52628 1.01868 0
M  V30 2115 H 192.599 1.54672 3.64544 0
M  V30 2116 H 193.773 4.03162 2.23152 0
M  V30 2117 H 192.088 3.56392 2.15345 0
M  V30 2118 H 194.685 2.50354 4.72469 0
M  V30 2119 H 195.028 0.925819 4.05875 0
M  V30 2120 H 195.561 2.38287 3.18534 0
M  V30 2121 H 192.3 5.30615 3.84874 0
M  V30 2122 H 191.82 3.79137 4.64774 0
M  V30 2123 H 193.499 4.37346 4.76799 0
M  V30 2124 N 193.631 -1.12557 1.10312 0
M  V30 2125 C 194.561 -2.20341 0.772798 0
M  V30 2126 C 195.542 -1.68198 -0.25365 0
M  V30 2127 O 196.727 -1.93831 -0.119699 0
M  V30 2128 C 193.857 -3.46709 0.202443 0
M  V30 2129 C 192.811 -4.11996 1.15943 0
M  V30 2130 C 192.137 -5.328 0.450345 0
M  V30 2131 C 193.437 -4.5828 2.50552 0
M  V30 2132 H 195.131 -2.48229 1.674 0
M  V30 2133 H 192.677 -1.19308 0.806326 0
M  V30 2134 H 194.63 -4.2138 -0.0407752 0
M  V30 2135 H 193.354 -3.18245 -0.734001 0
M  V30 2136 H 192.013 -3.39305 1.38808 0
M  V30 2137 H 191.661 -5.00602 -0.490531 0
M  V30 2138 H 191.361 -5.7743 1.08851 0
M  V30 2139 H 192.885 -6.10219 0.215642 0
M  V30 2140 H 194.299 -5.2433 2.31843 0
M  V30 2141 H 192.696 -5.13683 3.10242 0
M  V30 2142 H 193.766 -3.72329 3.10643 0
M  V30 2143 N 195.109 -0.891671 -1.2995 0
M  V30 2144 C 196.525 -0.58662 -1.48428 0
M  V30 2145 C 196.725 0.873951 -1.81561 0
M  V30 2146 O 195.781 1.65471 -1.90724 0
M  V30 2147 C 197.094 -1.50553 -2.60296 0
M  V30 2148 C 198.642 -1.50988 -2.74175 0
M  V30 2149 C 199.117 -2.41488 -3.89163 0
M  V30 2150 N 200.608 -2.39489 -3.96483 0
M  V30 2151 C 201.343 -3.06223 -4.84784 0
M  V30 2152 N 200.839 -3.82206 -5.77833 0
M  V30 2153 N 202.632 -2.95421 -4.78208 0
M  V30 2154 H 194.783 -1.83644 -1.06718 0
M  V30 2155 H 197.046 -0.786455 -0.529332 0
M  V30 2156 H 196.752 -2.54581 -2.42654 0
M  V30 2157 H 196.626 -1.22008 -3.56923 0
M  V30 2158 H 199.013 -0.47708 -2.91218 0
M  V30 2159 H 199.094 -1.83567 -1.78148 0
M  V30 2160 H 198.738 -3.44857 -3.72876 0
M  V30 2161 H 198.668 -2.06222 -4.84541 0
M  V30 2162 H 201.159 -1.84278 -3.29924 0
M  V30 2163 H 201.472 -4.302 -6.41988 0
M  V30 2164 H 199.817 -3.86313 -5.77743 0
M  V30 2165 H 203.008 -2.35581 -4.04499 0
M  V30 2166 H 203.181 -3.47704 -5.46814 0
M  V30 2167 N 196.587 1.43421 -0.653314 0
M  V30 2168 C 197.834 2.01812 -0.166745 0
M  V30 2169 C 198.162 1.51535 1.21931 0
M  V30 2170 O 197.417 0.698975 1.82792 0
M  V30 2171 C 197.716 3.57176 -0.126623 0
M  V30 2172 C 197.382 4.26798 -1.45444 0
M  V30 2173 C 196.044 4.45534 -1.81805 0
M  V30 2174 C 198.396 4.66225 -2.32989 0
M  V30 2175 C 195.724 5.00961 -3.05377 0
M  V30 2176 C 198.076 5.23021 -3.55853 0
M  V30 2177 C 196.74 5.39973 -3.9241 0
M  V30 2178 H 196.01 0.738484 -0.0610162 0
M  V30 2179 H 198.657 1.71896 -0.84404 0
M  V30 2180 H 196.962 3.86634 0.634123 0
M  V30 2181 H 198.659 4.00112 0.266723 0
M  V30 2182 H 195.249 4.12561 -1.16153 0
M  V30 2183 H 199.433 4.51443 -2.06187 0
M  V30 2184 H 194.689 5.12271 -3.3375 0
M  V30 2185 H 198.863 5.52518 -4.23907 0
M  V30 2186 H 196.49 5.82687 -4.88242 0
M  V30 2187 N 198.065 0.39524 1.52563 0
M  V30 2188 C 199.028 -0.425001 2.25225 0
M  V30 2189 C 200.028 -0.985266 1.27079 0
M  V30 2190 O 201.218 -0.866332 1.5113 0
M  V30 2191 C 198.35 -1.59686 3.01186 0
M  V30 2192 H 199.543 0.211233 2.99155 0
M  V30 2193 H 197.096 0.147472 1.55603 0
M  V30 2194 H 197.831 -2.27035 2.31572 0
M  V30 2195 H 197.616 -1.20176 3.73229 0
M  V30 2196 H 199.106 -2.17743 3.5634 0
M  V30 2197 N 199.544 -1.57102 0.125237 0
M  V30 2198 C 200.793 -1.94582 -0.531095 0
M  V30 2199 C 201.106 -1.01126 -1.6743 0
M  V30 2200 O 202.312 -1.28097 -2.39381 0
M  V30 2201 C 200.768 -3.45839 -0.996164 0
M  V30 2202 C 200.376 -4.47842 0.118926 0
M  V30 2203 C 202.12 -3.92227 -1.62352 0
M  V30 2204 C 200.027 -5.90284 -0.363192 0
M  V30 2205 H 198.957 -0.726391 -0.20217 0
M  V30 2206 H 201.608 -1.82339 0.206092 0
M  V30 2207 H 199.99 -3.53338 -1.78796 0
M  V30 2208 H 201.164 -4.52018 0.895358 0
M  V30 2209 H 199.479 -4.11243 0.653324 0
M  V30 2210 H 202.076 -4.96069 -1.99548 0
M  V30 2211 H 202.419 -3.32552 -2.50429 0
M  V30 2212 H 202.952 -3.87554 -0.897019 0
M  V30 2213 H 199.691 -6.53728 0.481679 0
M  V30 2214 H 199.211 -5.89515 -1.10597 0
M  V30 2215 H 200.89 -6.41752 -0.822377 0
M  V30 2216 N 201.022 0.148545 -1.56898 0
M  V30 2217 C 201.954 1.20852 -1.9475 0
M  V30 2218 C 202.967 1.39265 -0.843152 0
M  V30 2219 O 204.156 1.38864 -1.12156 0
M  V30 2220 C 201.256 2.57362 -2.20495 0
M  V30 2221 C 200.429 2.59947 -3.51776 0
M  V30 2222 C 199.488 3.77984 -3.6608 0
M  V30 2223 O 198.514 3.62929 -4.38487 0
M  V30 2224 N 199.716 4.95375 -3.02629 0
M  V30 2225 H 202.481 0.886804 -2.86279 0
M  V30 2226 H 200.042 0.338121 -1.5833 0
M  V30 2227 H 202.034 3.34833 -2.27307 0
M  V30 2228 H 200.604 2.81832 -1.35238 0
M  V30 2229 H 199.824 1.68403 -3.56419 0
M  V30 2230 H 201.112 2.58704 -4.38121 0
M  V30 2231 H 200.51 5.10509 -2.43715 0
M  V30 2232 H 199.067 5.70627 -3.15004 0
M  V30 2233 N 202.5 1.5196 0.417844 0
M  V30 2234 C 203.777 1.56146 1.17803 0
M  V30 2235 C 204.157 0.337275 2.08388 0
M  V30 2236 O 203.505 -0.676447 2.18258 0
M  V30 2237 C 203.715 2.88566 1.96293 0
M  V30 2238 C 205.063 3.41244 2.52662 0
M  V30 2239 O 206.087 2.90247 2.06483 0
M  V30 2240 O 204.946 4.30273 3.36938 0
M  V30 2241 H 202.04 0.628598 0.537395 0
M  V30 2242 H 204.586 1.64283 0.425331 0
M  V30 2243 H 203.358 3.69116 1.2988 0
M  V30 2244 H 202.981 2.83681 2.78587 0
M  V30 2245 N 203.978 -0.674533 1.42435 0
M  V30 2246 C 205.227 -1.43034 1.42212 0
M  V30 2247 C 205.54 -1.95555 0.0420788 0
M  V30 2248 O 206.746 -2.71374 -0.0827558 0
M  V30 2249 C 205.202 -2.58748 2.50155 0
M  V30 2250 C 204.81 -2.12925 3.94166 0
M  V30 2251 C 206.554 -3.36257 2.59098 0
M  V30 2252 C 204.461 -3.25723 4.93618 0
M  V30 2253 H 203.391 -0.537345 0.528939 0
M  V30 2254 H 206.042 -0.73024 1.68344 0
M  V30 2255 H 204.424 -3.31128 2.17188 0
M  V30 2256 H 205.598 -1.47697 4.36488 0
M  V30 2257 H 203.913 -1.48354 3.89076 0
M  V30 2258 H 206.51 -4.20264 3.30578 0
M  V30 2259 H 206.853 -3.82866 1.63461 0
M  V30 2260 H 207.386 -2.70947 2.9126 0
M  V30 2261 H 204.125 -2.84105 5.90732 0
M  V30 2262 H 203.645 -3.89732 4.55926 0
M  V30 2263 H 205.324 -3.91186 5.15347 0
M  V30 2264 N 205.456 -1.28612 -0.910864 0
M  V30 2265 C 206.681 -1.1891 -1.69927 0
M  V30 2266 C 207.106 0.248372 -1.86453 0
M  V30 2267 O 206.464 1.17961 -1.37676 0
M  V30 2268 C 206.512 -1.89578 -3.06745 0
M  V30 2269 O 205.616 -1.20521 -3.94396 0
M  V30 2270 H 204.957 -0.412632 -0.520222 0
M  V30 2271 H 207.487 -1.69985 -1.1387 0
M  V30 2272 H 207.497 -1.97597 -3.56958 0
M  V30 2273 H 206.172 -2.94136 -2.94035 0
M  V30 2274 H 204.749 -1.20684 -3.52831 0
M  V30 2275 N 206.934 1.1197 -1.10907 0
M  V30 2276 C 208.18 1.8386 -0.855773 0
M  V30 2277 C 208.513 1.84134 0.617103 0
M  V30 2278 O 207.788 1.29041 1.45529 0
M  V30 2279 C 208.071 3.31305 -1.411 0
M  V30 2280 C 207.924 3.39456 -2.9511 0
M  V30 2281 C 209.243 4.2721 -1.05736 0
M  V30 2282 H 206.362 0.667545 -0.312334 0
M  V30 2283 H 209.004 1.31331 -1.37303 0
M  V30 2284 H 207.154 3.76169 -0.97105 0
M  V30 2285 H 208.826 3.03191 -3.47668 0
M  V30 2286 H 207.069 2.79849 -3.31462 0
M  V30 2287 H 207.74 4.43209 -3.29044 0
M  V30 2288 H 210.216 3.90497 -1.43706 0
M  V30 2289 H 209.092 5.28775 -1.47269 0
M  V30 2290 H 209.353 4.42088 0.0325958 0
M  V30 2291 N 208.412 0.89855 1.29475 0
M  V30 2292 C 209.322 0.379974 2.31502 0
M  V30 2293 C 210.338 -0.524695 1.659 0
M  V30 2294 O 211.514 -0.414551 1.97087 0
M  V30 2295 C 208.579 -0.385138 3.44554 0
M  V30 2296 C 207.64 0.550914 4.2575 0
M  V30 2297 C 206.873 -0.177778 5.33404 0
M  V30 2298 O 207.096 -1.40189 5.52904 0
M  V30 2299 O 206.03 0.479106 5.9999 0
M  V30 2300 H 209.856 1.22639 2.77837 0
M  V30 2301 H 207.441 0.662834 1.33891 0
M  V30 2302 H 209.323 -0.817841 4.13388 0
M  V30 2303 H 207.998 -1.20763 3.0033 0
M  V30 2304 H 206.905 1.03271 3.59564 0
M  V30 2305 H 208.238 1.33979 4.73614 0
M  V30 2306 N 209.89 -1.43072 0.660911 0
M  V30 2307 C 210.8 -2.34585 -0.0264163 0
M  V30 2308 C 211.816 -1.54316 -0.803898 0
M  V30 2309 O 212.992 -1.86939 -0.749391 0
M  V30 2310 C 210.057 -3.32689 -0.975639 0
M  V30 2311 C 209.118 -4.2886 -0.194236 0
M  V30 2312 C 208.351 -5.22278 -1.09825 0
M  V30 2313 O 208.574 -5.20299 -2.33763 0
M  V30 2314 O 207.508 -5.99228 -0.566513 0
M  V30 2315 H 211.334 -2.94869 0.727034 0
M  V30 2316 H 208.919 -1.43342 0.42111 0
M  V30 2317 H 210.801 -3.92995 -1.52094 0
M  V30 2318 H 209.476 -2.74898 -1.70918 0
M  V30 2319 H 208.383 -3.72011 0.394835 0
M  V30 2320 H 209.716 -4.89655 0.499899 0
M  V30 2321 N 211.368 -0.403325 -1.52352 0
M  V30 2322 C 212.596 0.174012 -2.06167 0
M  V30 2323 C 213.011 1.39347 -1.27388 0
M  V30 2324 O 212.368 1.79597 -0.324201 0
M  V30 2325 C 212.419 0.530223 -3.5759 0
M  V30 2326 O 212.14 -0.640806 -4.33388 0
M  V30 2327 C 213.641 1.16192 -4.27802 0
M  V30 2328 H 210.861 0.0229464 -0.670608 0
M  V30 2329 H 213.405 -0.572604 -1.9632 0
M  V30 2330 H 211.56 1.22673 -3.67464 0
M  V30 2331 H 211.974 -0.344851 -5.23365 0
M  V30 2332 H 213.448 1.36141 -5.34948 0
M  V30 2333 H 213.925 2.13335 -3.83907 0
M  V30 2334 H 214.531 0.505775 -4.22282 0
M  V30 2335 N 212.846 1.57033 -0.133567 0
M  V30 2336 C 214.071 2.00475 0.531477 0
M  V30 2337 C 214.496 1.01291 1.58499 0
M  V30 2338 O 213.854 -0.0133279 1.81295 0
M  V30 2339 C 213.902 3.42729 1.12113 0
M  V30 2340 O 213.006 3.46498 2.23636 0
M  V30 2341 H 212.347 0.650876 0.131362 0
M  V30 2342 H 214.877 2.03344 -0.22634 0
M  V30 2343 H 214.887 3.81246 1.4531 0
M  V30 2344 H 213.562 4.14428 0.349557 0
M  V30 2345 H 212.139 3.19811 1.91769 0
M  V30 2346 N 214.325 -0.140222 1.56975 0
M  V30 2347 C 215.288 -1.15689 1.97861 0
M  V30 2348 C 216.288 -1.3549 0.865974 0
M  V30 2349 O 217.478 -1.32367 1.13246 0
M  V30 2350 C 214.61 -2.51582 2.30042 0
M  V30 2351 H 215.803 -0.805971 2.88867 0
M  V30 2352 H 213.356 -0.383801 1.51515 0
M  V30 2353 H 214.091 -2.91632 1.41849 0
M  V30 2354 H 213.876 -2.38569 3.11171 0
M  V30 2355 H 215.366 -3.24792 2.62488 0
M  V30 2356 N 215.803 -1.52179 -0.40978 0
M  V30 2357 C 216.75 -1.75475 -1.49924 0
M  V30 2358 C 217.72 -0.597175 -1.54994 0
M  V30 2359 O 218.905 -0.834655 -1.71575 0
M  V30 2360 C 216.045 -1.9107 -2.87378 0
M  V30 2361 C 215.158 -3.18717 -2.91622 0
M  V30 2362 C 214.293 -3.24747 -4.20372 0
M  V30 2363 C 213.332 -4.46598 -4.18588 0
M  V30 2364 N 212.469 -4.50025 -5.38908 0
M  V30 2365 H 217.309 -2.68458 -1.29361 0
M  V30 2366 H 214.846 -1.33024 -0.627934 0
M  V30 2367 H 216.804 -1.98096 -3.6717 0
M  V30 2368 H 215.434 -1.01469 -3.06437 0
M  V30 2369 H 214.486 -3.20866 -2.04326 0
M  V30 2370 H 215.798 -4.08544 -2.86169 0
M  V30 2371 H 214.952 -3.30841 -5.08556 0
M  V30 2372 H 213.691 -2.32857 -4.28519 0
M  V30 2373 H 212.696 -4.40652 -3.28794 0
M  V30 2374 H 213.921 -5.39783 -4.12081 0
M  V30 2375 H 211.867 -3.61017 -5.47725 0
M  V30 2376 H 211.784 -5.33697 -5.35447 0
M  V30 2377 H 213.052 -4.60347 -6.29048 0
M  V30 2378 N 217.281 0.66697 -1.42791 0
M  V30 2379 C 218.191 1.80962 -1.49299 0
M  V30 2380 C 219.207 1.69775 -0.381108 0
M  V30 2381 O 220.383 1.91188 -0.633188 0
M  V30 2382 C 217.448 3.17156 -1.40045 0
M  V30 2383 C 216.509 3.40242 -2.6179 0
M  V30 2384 C 215.742 4.69939 -2.52969 0
M  V30 2385 O 215.965 5.48372 -1.56985 0
M  V30 2386 O 214.899 4.94441 -3.43237 0
M  V30 2387 H 218.725 1.78427 -2.45759 0
M  V30 2388 H 216.31 0.823713 -1.24641 0
M  V30 2389 H 218.192 3.98413 -1.37276 0
M  V30 2390 H 216.867 3.20312 -0.467138 0
M  V30 2391 H 215.774 2.58802 -2.70134 0
M  V30 2392 H 217.107 3.41923 -3.54047 0
M  V30 2393 N 218.759 1.29093 0.90403 0
M  V30 2394 C 220.007 1.16583 1.65085 0
M  V30 2395 C 220.328 -0.283933 1.92922 0
M  V30 2396 O 219.598 -1.19509 1.55224 0
M  V30 2397 H 218.178 0.428467 0.611903 0
M  V30 2398 H 220.84 1.61959 1.08422 0
M  V30 2399 H 219.936 1.71266 2.6091 0
M  V30 2400 N 220.237 -1.11381 1.11499 0
M  V30 2401 C 221.167 -2.19509 0.796125 0
M  V30 2402 C 222.148 -1.68458 -0.235796 0
M  V30 2403 O 223.333 -1.93947 -0.0991344 0
M  V30 2404 C 220.463 -3.46475 0.239205 0
M  V30 2405 C 219.417 -4.10744 1.20307 0
M  V30 2406 C 218.743 -5.32293 0.50683 0
M  V30 2407 C 220.043 -4.55597 2.55399 0
M  V30 2408 H 221.737 -2.46439 1.70024 0
M  V30 2409 H 219.283 -1.18446 0.818935 0
M  V30 2410 H 221.236 -4.214 0.00392006 0
M  V30 2411 H 219.96 -3.19006 -0.700206 0
M  V30 2412 H 218.619 -3.37813 1.42399 0
M  V30 2413 H 218.267 -5.01095 -0.437408 0
M  V30 2414 H 217.967 -5.76243 1.1497 0
M  V30 2415 H 219.491 -6.09956 0.280351 0
M  V30 2416 H 220.905 -5.21841 2.37391 0
M  V30 2417 H 219.302 -5.10363 3.15673 0
M  V30 2418 H 220.372 -3.69013 3.14575 0
M  V30 2419 N 221.715 -0.905404 -1.28997 0
M  V30 2420 C 222.645 -0.404212 -2.29975 0
M  V30 2421 C 223.626 0.523784 -1.61835 0
M  V30 2422 O 224.811 0.433298 -1.89304 0
M  V30 2423 C 221.941 0.364042 -3.45387 0
M  V30 2424 C 220.895 -0.474048 -4.25367 0
M  V30 2425 C 220.221 0.422045 -5.33032 0
M  V30 2426 C 221.521 -1.72696 -4.92923 0
M  V30 2427 H 223.215 -1.24807 -2.72146 0
M  V30 2428 H 220.761 -0.601585 -1.30832 0
M  V30 2429 H 222.714 0.725447 -4.15109 0
M  V30 2430 H 221.438 1.24174 -3.02074 0
M  V30 2431 H 220.097 -0.81786 -3.57361 0
M  V30 2432 H 219.745 1.29804 -4.85963 0
M  V30 2433 H 219.445 -0.135057 -5.87445 0
M  V30 2434 H 220.969 0.779517 -6.05604 0
M  V30 2435 H 222.383 -1.43495 -5.55051 0
M  V30 2436 H 220.78 -2.22582 -5.57295 0
M  V30 2437 H 221.85 -2.45964 -4.17887 0
M  V30 2438 N 223.193 1.4272 -0.668489 0
M  V30 2439 C 224.123 2.335 -0.000100175 0
M  V30 2440 C 225.104 1.50328 0.795964 0
M  V30 2441 O 226.289 1.78949 0.754385 0
M  V30 2442 C 223.419 3.33874 0.956302 0
M  V30 2443 C 222.373 4.27152 0.269278 0
M  V30 2444 C 221.699 5.17684 1.33818 0
M  V30 2445 C 222.999 5.15373 -0.847805 0
M  V30 2446 H 224.693 2.89639 -0.758244 0
M  V30 2447 H 222.239 1.39269 -0.366079 0
M  V30 2448 H 224.192 3.9629 1.43292 0
M  V30 2449 H 222.916 2.76025 1.74579 0
M  V30 2450 H 221.575 3.66123 -0.187042 0
M  V30 2451 H 221.223 4.56165 2.1195 0
M  V30 2452 H 220.923 5.80918 0.883659 0
M  V30 2453 H 222.447 5.82974 1.81586 0
M  V30 2454 H 223.861 5.7151 -0.452681 0
M  V30 2455 H 222.258 5.87407 -1.22773 0
M  V30 2456 H 223.328 4.5415 -1.69929 0
M  V30 2457 N 224.671 0.411399 1.52136 0
M  V30 2458 C 225.917 -0.156262 2.02799 0
M  V30 2459 C 226.272 -1.42613 1.29149 0
M  V30 2460 O 225.565 -1.87592 0.389839 0
M  V30 2461 C 225.759 -0.455872 3.54481 0
M  V30 2462 C 225.588 0.783404 4.42824 0
M  V30 2463 C 224.358 1.30928 4.88043 0
M  V30 2464 C 226.556 1.66217 4.86699 0
M  V30 2465 N 224.538 2.5038 5.6052 0
M  V30 2466 C 225.909 2.70292 5.5798 0
M  V30 2467 C 227.964 1.67966 4.68713 0
M  V30 2468 C 226.667 3.7603 6.13184 0
M  V30 2469 C 228.693 2.72624 5.24815 0
M  V30 2470 C 228.055 3.7542 5.9602 0
M  V30 2471 H 224.154 -0.0186886 0.781777 0
M  V30 2472 H 226.738 0.566255 1.86284 0
M  V30 2473 H 224.909 -1.14743 3.71064 0
M  V30 2474 H 226.641 -1.01261 3.91827 0
M  V30 2475 H 223.396 0.866977 4.65597 0
M  V30 2476 H 223.82 3.10881 6.014 0
M  V30 2477 H 228.462 0.898312 4.13147 0
M  V30 2478 H 226.18 4.55019 6.6782 0
M  V30 2479 H 229.766 2.74887 5.12765 0
M  V30 2480 H 228.646 4.55073 6.38654 0
M  V30 2481 N 226.149 -1.5696 0.141893 0
M  V30 2482 C 227.389 -1.9785 -0.513304 0
M  V30 2483 C 227.753 -1.02467 -1.62371 0
M  V30 2484 O 228.954 -1.32382 -2.33941 0
M  V30 2485 C 227.225 -3.42797 -1.01118 0
M  V30 2486 S 228.784 -4.05709 -1.67169 0
M  V30 2487 H 225.602 -0.691318 -0.166135 0
M  V30 2488 H 228.204 -1.94114 0.232398 0
M  V30 2489 H 226.908 -4.0995 -0.192179 0
M  V30 2490 H 226.439 -3.50235 -1.79162 0
M  V30 2491 H 228.454 -3.98342 -2.95868 0
M  V30 2492 N 227.627 0.131896 -1.57047 0
M  V30 2493 C 228.559 1.1878 -1.9602 0
M  V30 2494 C 229.572 1.38363 -0.857875 0
M  V30 2495 O 230.761 1.37666 -1.13623 0
M  V30 2496 C 227.861 2.55008 -2.23213 0
M  V30 2497 C 227.034 2.56201 -3.54513 0
M  V30 2498 C 226.093 3.7408 -3.70069 0
M  V30 2499 O 225.119 3.58258 -4.42312 0
M  V30 2500 N 226.321 4.92137 -3.07866 0
M  V30 2501 H 229.086 0.85639 -2.87204 0
M  V30 2502 H 226.647 0.321309 -1.5868 0
M  V30 2503 H 228.639 3.32404 -2.30846 0
M  V30 2504 H 227.209 2.80382 -1.3822 0
M  V30 2505 H 226.429 1.64613 -3.58185 0
M  V30 2506 H 227.717 2.54043 -4.4084 0
M  V30 2507 H 227.115 5.07895 -2.49116 0
M  V30 2508 H 225.672 5.67254 -3.21039 0
M  V30 2509 N 229.106 1.52395 0.401703 0
M  V30 2510 C 230.522 1.41363 0.740864 0
M  V30 2511 C 230.722 0.523982 1.94568 0
M  V30 2512 O 229.778 -0.00741204 2.52499 0
M  V30 2513 C 231.091 2.84011 0.987847 0
M  V30 2514 C 232.639 2.93404 1.09011 0
M  V30 2515 C 233.114 4.37036 1.3698 0
M  V30 2516 N 234.605 4.40304 1.43829 0
M  V30 2517 C 235.34 5.48508 1.67112 0
M  V30 2518 N 234.836 6.66819 1.87949 0
M  V30 2519 N 236.629 5.36034 1.69187 0
M  V30 2520 H 228.78 2.08765 -0.391262 0
M  V30 2521 H 231.043 0.941265 -0.112798 0
M  V30 2522 H 230.749 3.51265 0.174835 0
M  V30 2523 H 230.623 3.25502 1.906 0
M  V30 2524 H 233.01 2.26325 1.8937 0
M  V30 2525 H 233.091 2.55359 0.15015 0
M  V30 2526 H 232.735 5.04676 0.571353 0
M  V30 2527 H 232.665 4.72623 2.3224 0
M  V30 2528 H 235.156 3.55024 1.29486 0
M  V30 2529 H 235.469 7.45063 2.05185 0
M  V30 2530 H 233.814 6.6987 1.85199 0
M  V30 2531 H 237.005 4.42579 1.52451 0
M  V30 2532 H 237.178 6.20434 1.86993 0
M  V30 2533 N 230.584 -0.659388 1.43143 0
M  V30 2534 C 231.531 -1.77249 1.47822 0
M  V30 2535 C 232.501 -1.62818 0.328558 0
M  V30 2536 O 233.686 -1.83151 0.534838 0
M  V30 2537 C 230.826 -3.15371 1.40126 0
M  V30 2538 C 229.939 -3.4098 2.65249 0
M  V30 2539 C 229.074 -4.68915 2.49584 0
M  V30 2540 C 228.113 -4.87608 3.70006 0
M  V30 2541 N 227.25 -6.06796 3.53189 0
M  V30 2542 H 232.09 -1.72584 2.42938 0
M  V30 2543 H 229.627 -0.842297 1.20598 0
M  V30 2544 H 231.585 -3.9521 1.33659 0
M  V30 2545 H 230.215 -3.19121 0.485964 0
M  V30 2546 H 229.267 -2.55282 2.8202 0
M  V30 2547 H 230.579 -3.50681 3.54717 0
M  V30 2548 H 229.733 -5.56871 2.4079 0
M  V30 2549 H 228.472 -4.61524 1.5763 0
M  V30 2550 H 227.477 -3.9809 3.79215 0
M  V30 2551 H 228.702 -4.96834 4.62961 0
M  V30 2552 H 226.648 -6.00549 2.63965 0
M  V30 2553 H 226.565 -6.17428 4.36255 0
M  V30 2554 H 227.833 -6.9739 3.48236 0
M  V30 2555 N 232.062 -1.29571 -0.897171 0
M  V30 2556 C 233.29 -1.20583 -1.68129 0
M  V30 2557 C 233.705 0.233181 -1.87354 0
M  V30 2558 O 233.062 1.15579 -1.41236 0
M  V30 2559 C 233.113 -1.91772 -3.06441 0
M  V30 2560 O 232.834 -3.30053 -2.88091 0
M  V30 2561 C 234.335 -1.89291 -4.00854 0
M  V30 2562 H 231.555 -0.417826 -0.525036 0
M  V30 2563 H 234.099 -1.70987 -1.12177 0
M  V30 2564 H 232.254 -1.45196 -3.59161 0
M  V30 2565 H 232.668 -3.65942 -3.75748 0
M  V30 2566 H 234.142 -2.43662 -4.95311 0
M  V30 2567 H 234.619 -0.869014 -4.30517 0
M  V30 2568 H 235.225 -2.35622 -3.54066 0
M  V30 2569 N 233.54 1.10788 -1.12088 0
M  V30 2570 C 234.503 2.15207 -0.788577 0
M  V30 2571 C 235.503 1.59609 0.195317 0
M  V30 2572 O 236.693 1.74174 -0.0300193 0
M  V30 2573 C 233.825 3.4047 -0.171174 0
M  V30 2574 H 235.018 2.46116 -1.71368 0
M  V30 2575 H 232.571 1.26089 -0.923652 0
M  V30 2576 H 233.306 3.15176 0.763832 0
M  V30 2577 H 233.091 3.82109 -0.879514 0
M  V30 2578 H 234.581 4.17576 0.04496 0
M  V30 2579 N 235.018 0.912232 1.28515 0
M  V30 2580 C 236.429 0.591352 1.77087 0
M  V30 2581 C 236.78 -0.8933 1.74684 0
M  V30 2582 O 235.905 -1.69876 1.34056 0
M  V30 2583 C 236.5 1.06668 3.2157 0
M  V30 2584 C 235.059 0.79675 3.67871 0
M  V30 2585 C 234.206 1.23427 2.48316 0
M  V30 2586 H 237.157 1.09365 1.15 0
M  V30 2587 H 237.178 0.407455 3.78312 0
M  V30 2588 H 236.69 2.14726 3.23287 0
M  V30 2589 H 234.791 -0.270679 3.71616 0
M  V30 2590 H 234.904 1.40343 4.58084 0
M  V30 2591 H 233.268 0.653036 2.46186 0
M  V30 2592 H 234.051 2.32316 2.52753 0
M  V30 2593 N 236.496 -1.42363 0.676048 0
M  V30 2594 C 237.726 -2.05561 0.206967 0
M  V30 2595 C 238.134 -1.50887 -1.14148 0
M  V30 2596 O 237.477 -0.643933 -1.72044 0
M  V30 2597 C 237.539 -3.5944 0.0659508 0
M  V30 2598 C 237.203 -4.36812 1.34331 0
M  V30 2599 C 238.2 -4.67383 2.27704 0
M  V30 2600 C 235.885 -4.76429 1.59125 0
M  V30 2601 C 237.879 -5.36509 3.44147 0
M  V30 2602 C 235.566 -5.45294 2.75857 0
M  V30 2603 C 236.564 -5.75259 3.68193 0
M  V30 2604 O 236.252 -6.42712 4.82883 0
M  V30 2605 H 235.984 -0.668872 0.0979084 0
M  V30 2606 H 238.538 -1.83467 0.923531 0
M  V30 2607 H 236.768 -3.80197 -0.706204 0
M  V30 2608 H 238.457 -4.0427 -0.363418 0
M  V30 2609 H 239.223 -4.37275 2.09799 0
M  V30 2610 H 235.102 -4.52498 0.881258 0
M  V30 2611 H 238.646 -5.59814 4.16238 0
M  V30 2612 H 234.543 -5.7482 2.93688 0
M  V30 2613 H 235.311 -6.61204 4.82444 0
M  V30 2614 N 237.974 -0.419461 -1.51915 0
M  V30 2615 C 238.921 0.400927 -2.27291 0
M  V30 2616 C 239.891 1.03224 -1.30131 0
M  V30 2617 O 241.076 1.05455 -1.59009 0
M  V30 2618 C 238.216 1.50603 -3.10504 0
M  V30 2619 C 237.329 0.89462 -4.22635 0
M  V30 2620 C 236.464 1.97328 -4.93189 0
M  V30 2621 C 235.503 1.33935 -5.97267 0
M  V30 2622 N 234.64 2.3586 -6.61298 0
M  V30 2623 H 239.48 -0.248251 -2.96964 0
M  V30 2624 H 237.017 -0.134266 -1.46486 0
M  V30 2625 H 238.975 2.15783 -3.57062 0
M  V30 2626 H 237.605 2.12509 -2.42981 0
M  V30 2627 H 236.657 0.131583 -3.80172 0
M  V30 2628 H 237.969 0.391641 -4.9726 0
M  V30 2629 H 237.123 2.70211 -5.43204 0
M  V30 2630 H 235.862 2.50994 -4.18155 0
M  V30 2631 H 234.867 0.595896 -5.46561 0
M  V30 2632 H 236.092 0.810252 -6.74249 0
M  V30 2633 H 234.038 2.88639 -5.89087 0
M  V30 2634 H 233.955 1.90403 -7.3163 0
M  V30 2635 H 235.223 3.08282 -7.15949 0
M  V30 2636 N 239.452 1.56882 -0.150215 0
M  V30 2637 C 240.4 2.18214 0.805313 0
M  V30 2638 C 241.394 1.14006 1.25296 0
M  V30 2639 O 242.6 1.3225 1.22107 0
M  V30 2640 H 238.975 0.698762 0.277913 0
M  V30 2641 H 240.946 2.97231 0.263862 0
M  V30 2642 C 239.695 2.82065 2.03309 0
M  V30 2643 H 239.018 3.61968 1.69763 0
M  V30 2644 H 240.458 3.28477 2.68103 0
M  V30 2645 C 238.917 1.80739 2.84315 0
M  V30 2646 O 239.447 1.27983 3.80767 0
M  V30 2647 N 237.653 1.4997 2.48913 0
M  V30 2648 H 237.2 1.93062 1.70542 0
M  V30 2649 H 237.158 0.824217 3.03404 0
M  V30 2650 N 240.93 -0.123565 1.57115 0
M  V30 2651 C 242.176 -0.833386 1.84885 0
M  V30 2652 C 242.509 -1.79742 0.735292 0
M  V30 2653 O 241.784 -1.92764 -0.25925 0
M  V30 2654 C 242.067 -1.5873 3.23228 0
M  V30 2655 C 241.92 -0.643183 4.45178 0
M  V30 2656 C 243.239 -2.54453 3.59085 0
M  V30 2657 H 240.358 -0.301518 0.6725 0
M  V30 2658 H 243 -0.097778 1.89748 0
M  V30 2659 H 241.15 -2.21438 3.19214 0
M  V30 2660 H 242.822 -0.0253015 4.61293 0
M  V30 2661 H 241.065 0.0456139 4.33776 0
M  V30 2662 H 241.736 -1.20724 5.38637 0
M  V30 2663 H 244.212 -2.01853 3.63861 0
M  V30 2664 H 243.088 -3.04238 4.5687 0
M  V30 2665 H 243.349 -3.36906 2.86264 0
M  V30 2666 N 242.408 -1.52605 -0.393616 0
M  V30 2667 C 243.356 -1.77688 -1.50099 0
M  V30 2668 C 244.35 -0.644615 -1.56656 0
M  V30 2669 O 245.556 -0.826997 -1.59877 0
M  V30 2670 H 241.931 -0.562159 -0.499481 0
M  V30 2671 H 243.902 -2.7043 -1.26135 0
M  V30 2672 C 242.651 -1.95858 -2.87289 0
M  V30 2673 H 241.974 -2.8241 -2.82992 0
M  V30 2674 H 243.414 -2.174 -3.64024 0
M  V30 2675 C 241.873 -0.729848 -3.28899 0
M  V30 2676 O 242.403 0.0949217 -4.01588 0
M  V30 2677 N 240.609 -0.561283 -2.85128 0
M  V30 2678 H 240.156 -1.23357 -2.26143 0
M  V30 2679 H 240.114 0.2595 -3.13327 0
M  V30 2680 N 243.887 0.651787 -1.4349 0
M  V30 2681 C 245.136 1.40754 -1.44469 0
M  V30 2682 C 245.449 1.95463 -0.0731845 0
M  V30 2683 O 246.655 2.71471 0.0395721 0
M  V30 2684 C 245.111 2.54735 -2.5424 0
M  V30 2685 C 244.719 2.06628 -3.97504 0
M  V30 2686 C 246.463 3.32092 -2.64414 0
M  V30 2687 C 244.37 3.17829 -4.98737 0
M  V30 2688 H 243.3 0.528862 -0.53742 0
M  V30 2689 H 245.951 0.703365 -1.69485 0
M  V30 2690 H 244.333 3.2763 -2.22428 0
M  V30 2691 H 245.507 1.40734 -4.38783 0
M  V30 2692 H 243.822 1.42146 -3.91387 0
M  V30 2693 H 246.419 4.14952 -3.37223 0
M  V30 2694 H 246.762 3.80217 -1.69532 0
M  V30 2695 H 247.295 2.66279 -2.95534 0
M  V30 2696 H 244.034 2.74671 -5.95177 0
M  V30 2697 H 243.554 3.82429 -4.62069 0
M  V30 2698 H 245.233 3.82937 -5.21505 0
M  V30 2699 N 245.365 1.30045 0.890287 0
M  V30 2700 C 246.297 1.11786 2.00091 0
M  V30 2701 C 247.31 0.0626307 1.62679 0
M  V30 2702 O 248.499 0.308112 1.75821 0
M  V30 2703 C 245.599 0.681527 3.31977 0
M  V30 2704 C 244.772 1.81735 3.97858 0
M  V30 2705 C 243.831 1.37045 5.08041 0
M  V30 2706 O 242.857 2.07677 5.29961 0
M  V30 2707 N 244.059 0.246525 5.79976 0
M  V30 2708 H 246.824 2.07441 2.16306 0
M  V30 2709 H 244.385 1.2211 1.06305 0
M  V30 2710 H 246.377 0.365675 4.03045 0
M  V30 2711 H 244.947 -0.182828 3.12065 0
M  V30 2712 H 244.167 2.30159 3.20032 0
M  V30 2713 H 245.455 2.57865 4.38615 0
M  V30 2714 H 244.853 -0.34215 5.64664 0
M  V30 2715 H 243.41 -0.00990438 6.51799 0
M  V30 2716 N 246.843 -1.10192 1.12674 0
M  V30 2717 C 247.791 -2.18694 0.792196 0
M  V30 2718 C 248.785 -1.67938 -0.222058 0
M  V30 2719 O 249.991 -1.79822 -0.0800074 0
M  V30 2720 H 246.366 -0.713223 0.238364 0
M  V30 2721 H 248.337 -2.44149 1.71564 0
M  V30 2722 C 247.086 -3.46682 0.265859 0
M  V30 2723 H 246.409 -3.86101 1.03761 0
M  V30 2724 H 247.849 -4.23942 0.0701128 0
M  V30 2725 C 246.308 -3.21506 -1.00675 0
M  V30 2726 O 246.838 -3.43408 -2.08408 0
M  V30 2727 N 245.044 -2.75158 -0.934692 0
M  V30 2728 H 244.591 -2.57535 -0.0578604 0
M  V30 2729 H 244.549 -2.58691 -1.7868 0
M  V30 2730 N 248.321 -0.919034 -1.28029 0
M  V30 2731 C 249.568 -0.554934 -1.94748 0
M  V30 2732 C 249.896 0.90231 -1.72304 0
M  V30 2733 O 249.151 1.65767 -1.04018 0
M  V30 2734 C 249.45 -0.816855 -3.4794 0
M  V30 2735 C 249.116 -2.25448 -3.90492 0
M  V30 2736 C 247.778 -2.64752 -4.01821 0
M  V30 2737 C 250.13 -3.18977 -4.12193 0
M  V30 2738 C 247.458 -3.96727 -4.32232 0
M  V30 2739 C 249.81 -4.50523 -4.44086 0
M  V30 2740 C 248.474 -4.89673 -4.53626 0
M  V30 2741 H 247.744 -0.203065 -0.712633 0
M  V30 2742 H 250.391 -1.16136 -1.52265 0
M  V30 2743 H 248.696 -0.127677 -3.91592 0
M  V30 2744 H 250.393 -0.514238 -3.97689 0
M  V30 2745 H 246.983 -1.93952 -3.82205 0
M  V30 2746 H 251.167 -2.89817 -4.02889 0
M  V30 2747 H 246.423 -4.26754 -4.37825 0
M  V30 2748 H 250.597 -5.23005 -4.59825 0
M  V30 2749 H 248.224 -5.91969 -4.76946 0
M  V30 2750 N 249.799 1.42003 -0.683588 0
M  V30 2751 C 250.749 2.27997 0.0121992 0
M  V30 2752 C 251.733 1.4156 0.764822 0
M  V30 2753 O 252.925 1.64935 0.642287 0
M  V30 2754 C 250.054 3.29706 0.956482 0
M  V30 2755 C 249.14 4.23625 0.200739 0
M  V30 2756 N 249.531 4.99448 -0.799087 0
M  V30 2757 C 247.829 4.43845 0.437937 0
M  V30 2758 C 248.53 5.68102 -1.25041 0
M  V30 2759 N 247.506 5.40511 -0.578648 0
M  V30 2760 H 251.308 2.84048 -0.754564 0
M  V30 2761 H 248.822 1.54071 -0.513398 0
M  V30 2762 H 250.819 3.90124 1.47 0
M  V30 2763 H 249.479 2.75216 1.72297 0
M  V30 2764 H 250.49 5.04303 -1.17893 0
M  V30 2765 H 247.167 4.00382 1.18325 0
M  V30 2766 H 248.557 6.38913 -2.07942 0
M  V30 2767 N 251.277 0.427512 1.51691 0
M  V30 2768 C 252.526 -0.143679 2.01188 0
M  V30 2769 C 252.839 -1.44642 1.31674 0
M  V30 2770 O 254.045 -2.09997 1.72086 0
M  V30 2771 C 252.501 -0.306602 3.58592 0
M  V30 2772 C 252.109 0.985125 4.37035 0
M  V30 2773 C 253.853 -0.832091 4.16265 0
M  V30 2774 C 251.76 0.788382 5.86122 0
M  V30 2775 H 250.69 -0.0574701 0.751807 0
M  V30 2776 H 253.341 0.555772 1.74881 0
M  V30 2777 H 251.723 -1.06882 3.81303 0
M  V30 2778 H 252.897 1.75492 4.26074 0
M  V30 2779 H 251.212 1.4384 3.90767 0
M  V30 2780 H 253.809 -0.995617 5.25349 0
M  V30 2781 H 254.152 -1.81186 3.74803 0
M  V30 2782 H 254.685 -0.128444 3.97593 0
M  V30 2783 H 251.424 1.74025 6.31978 0
M  V30 2784 H 250.944 0.0582143 5.99772 0
M  V30 2785 H 252.623 0.437722 6.45518 0
M  V30 2786 N 252.755 -1.56801 0.158532 0
M  V30 2787 C 253.98 -2.01295 -0.499516 0
M  V30 2788 C 254.405 -1.03799 -1.56867 0
M  V30 2789 O 253.763 -0.0155162 -1.81293 0
M  V30 2790 C 253.811 -3.44469 -1.06647 0
M  V30 2791 O 252.915 -3.50012 -2.18095 0
M  V30 2792 H 252.256 -0.652884 -0.12099 0
M  V30 2793 H 254.786 -2.02958 0.258661 0
M  V30 2794 H 254.796 -3.8351 -1.39227 0
M  V30 2795 H 253.471 -4.14932 -0.283581 0
M  V30 2796 H 252.048 -3.22822 -1.86656 0
M  V30 2797 N 254.233 0.115231 -1.57178 0
M  V30 2798 C 255.479 0.818565 -1.86202 0
M  V30 2799 C 255.834 1.77316 -0.746785 0
M  V30 2800 O 255.127 1.89923 0.25291 0
M  V30 2801 C 255.321 1.60324 -3.19423 0
M  V30 2802 C 255.15 0.726138 -4.43799 0
M  V30 2803 C 253.92 0.379535 -5.03873 0
M  V30 2804 C 256.118 0.0420774 -5.14283 0
M  V30 2805 N 254.1 -0.507841 -6.11796 0
M  V30 2806 C 255.471 -0.704152 -6.15988 0
M  V30 2807 C 257.526 -0.0339486 -4.97888 0
M  V30 2808 C 256.229 -1.51927 -7.03072 0
M  V30 2809 C 258.255 -0.835906 -5.85463 0
M  V30 2810 C 257.617 -1.57031 -6.86673 0
M  V30 2811 H 253.716 0.276343 -0.731545 0
M  V30 2812 H 256.3 0.0821032 -1.94527 0
M  V30 2813 H 254.471 2.31072 -3.12186 0
M  V30 2814 H 256.203 2.2522 -3.36241 0
M  V30 2815 H 252.958 0.722634 -4.68054 0
M  V30 2816 H 253.382 -0.94349 -6.70393 0
M  V30 2817 H 258.024 0.519496 -4.19596 0
M  V30 2818 H 255.742 -2.08386 -7.80769 0
M  V30 2819 H 259.328 -0.89714 -5.74841 0
M  V30 2820 H 258.208 -2.18088 -7.53264 0
M  V30 2821 N 255.711 1.52812 0.385517 0
M  V30 2822 C 256.658 1.77838 1.47113 0
M  V30 2823 C 257.628 0.621757 1.54024 0
M  V30 2824 O 258.813 0.861846 1.70226 0
M  V30 2825 C 255.953 1.95618 2.84302 0
M  V30 2826 C 255.066 3.23316 2.86515 0
M  V30 2827 C 254.201 3.31394 4.15152 0
M  V30 2828 C 253.24 4.53201 4.1143 0
M  V30 2829 N 252.377 4.58542 5.3168 0
M  V30 2830 H 257.217 2.70482 1.25073 0
M  V30 2831 H 254.754 1.34006 0.606692 0
M  V30 2832 H 256.712 2.03912 3.63972 0
M  V30 2833 H 255.342 1.06331 3.04784 0
M  V30 2834 H 254.394 3.24076 1.99195 0
M  V30 2835 H 255.706 4.13045 2.79634 0
M  V30 2836 H 254.86 3.3889 5.03228 0
M  V30 2837 H 253.599 2.39645 4.24761 0
M  V30 2838 H 252.604 4.45827 3.21742 0
M  V30 2839 H 253.829 5.46271 4.03442 0
M  V30 2840 H 251.775 3.69686 5.41912 0
M  V30 2841 H 251.692 5.42148 5.26889 0
M  V30 2842 H 252.96 4.70296 6.21644 0
M  V30 2843 N 257.189 -0.644168 1.43834 0
M  V30 2844 C 258.466 -1.40188 1.36406 0
M  V30 2845 C 258.846 -2.11094 0.0163124 0
M  V30 2846 O 258.194 -2.05426 -1.00062 0
M  V30 2847 C 258.404 -2.3791 2.55343 0
M  V30 2848 C 259.752 -3.01637 2.98832 0
M  V30 2849 O 260.776 -2.48237 2.55455 0
M  V30 2850 O 259.635 -3.98477 3.74003 0
M  V30 2851 H 256.729 -0.626773 0.539523 0
M  V30 2852 H 259.275 -0.670317 1.559 0
M  V30 2853 H 258.047 -1.84525 3.4506 0
M  V30 2854 H 257.67 -3.18503 2.37995 0
M  V30 2855 N 258.668 -1.30515 -0.883378 0
M  V30 2856 C 259.916 -1.19194 -1.63209 0
M  V30 2857 C 260.237 0.253205 -1.93349 0
M  V30 2858 O 259.507 1.17025 -1.57105 0
M  V30 2859 H 258.087 -0.438148 -0.605009 0
M  V30 2860 H 260.749 -1.63663 -1.05832 0
M  V30 2861 H 259.845 -1.75396 -2.58153 0
M  V30 2862 N 260.146 1.09593 -1.13257 0
M  V30 2863 C 261.076 2.18214 -0.830946 0
M  V30 2864 C 262.057 1.68812 0.208966 0
M  V30 2865 O 263.242 1.9408 0.0682666 0
M  V30 2866 C 260.372 3.46051 -0.294296 0
M  V30 2867 C 259.326 4.08778 -1.26826 0
M  V30 2868 C 258.652 5.31419 -0.591449 0
M  V30 2869 C 259.952 4.51476 -2.62615 0
M  V30 2870 H 261.646 2.43703 -1.73923 0
M  V30 2871 H 259.192 1.17128 -0.837675 0
M  V30 2872 H 261.145 4.2134 -0.0709606 0
M  V30 2873 H 259.869 3.20079 0.649366 0
M  V30 2874 H 258.528 3.35505 -1.47756 0
M  V30 2875 H 258.176 5.01727 0.357633 0
M  V30 2876 H 257.876 5.74341 -1.24123 0
M  V30 2877 H 259.4 6.09433 -0.377355 0
M  V30 2878 H 260.814 5.17999 -2.45663 0
M  V30 2879 H 259.211 5.05277 -3.23752 0
M  V30 2880 H 260.281 3.63962 -3.20406 0
M  V30 2881 N 261.624 0.925811 1.2754 0
M  V30 2882 C 262.872 0.564138 1.94067 0
M  V30 2883 C 263.193 -0.897188 1.73134 0
M  V30 2884 O 262.463 -1.63573 1.07799 0
M  V30 2885 H 261.043 0.205645 0.718136 0
M  V30 2886 H 263.705 1.1778 1.55287 0
M  V30 2887 H 262.801 0.76881 3.02483 0
M  V30 2888 N 263.102 -1.41638 0.69111 0
M  V30 2889 C 264.349 -2.01299 0.220193 0
M  V30 2890 C 264.677 -1.54715 -1.17871 0
M  V30 2891 O 263.932 -0.747193 -1.80874 0
M  V30 2892 C 264.231 -3.56714 0.221277 0
M  V30 2893 C 263.897 -4.22792 1.56709 0
M  V30 2894 C 262.559 -4.40557 1.93554 0
M  V30 2895 C 264.911 -4.59883 2.45268 0
M  V30 2896 C 262.239 -4.92688 3.18552 0
M  V30 2897 C 264.591 -5.13403 3.69595 0
M  V30 2898 C 263.255 -5.29379 4.06589 0
M  V30 2899 H 262.525 -0.736606 0.0805743 0
M  V30 2900 H 265.172 -1.69598 0.889319 0
M  V30 2901 H 263.477 -3.8818 -0.531391 0
M  V30 2902 H 265.174 -4.00678 -0.160547 0
M  V30 2903 H 261.764 -4.09336 1.2705 0
M  V30 2904 H 265.948 -4.45817 2.18084 0
M  V30 2905 H 261.204 -5.03242 3.47214 0
M  V30 2906 H 265.378 -5.41084 4.38407 0
M  V30 2907 H 263.005 -5.69537 5.03519 0
M  V30 2908 N 264.58 -0.43555 -1.51462 0
M  V30 2909 C 265.82 0.130708 -2.03982 0
M  V30 2910 C 266.184 1.40117 -1.31268 0
M  V30 2911 O 267.385 2.04755 -1.74152 0
M  V30 2912 C 265.656 0.346102 -3.5572 0
M  V30 2913 S 267.215 0.876022 -4.29967 0
M  V30 2914 H 264.033 0.0326881 -0.710248 0
M  V30 2915 H 266.635 -0.594544 -1.8624 0
M  V30 2916 H 265.339 -0.584911 -4.0621 0
M  V30 2917 H 264.87 1.09849 -3.77752 0
M  V30 2918 H 266.885 2.15379 -4.47019 0
M  V30 2919 N 266.058 1.56714 -0.166846 0
M  V30 2920 C 267.021 2.16539 0.751232 0
M  V30 2921 C 268.021 1.11228 1.16125 0
M  V30 2922 O 269.211 1.36765 1.07894 0
M  V30 2923 C 266.343 2.74462 2.02196 0
M  V30 2924 H 267.536 2.99013 0.230499 0
M  V30 2925 H 265.089 1.56081 0.0826982 0
M  V30 2926 H 265.824 1.95709 2.58589 0
M  V30 2927 H 265.609 3.51527 1.73698 0
M  V30 2928 H 267.099 3.20489 2.67725 0
M  V30 2929 N 267.536 -0.106894 1.57237 0
M  V30 2930 C 268.466 -1.13148 2.04254 0
M  V30 2931 C 269.447 -1.42476 0.929224 0
M  V30 2932 O 270.632 -1.52709 1.19973 0
M  V30 2933 C 267.762 -2.4545 2.45706 0
M  V30 2934 C 266.716 -2.30558 3.60592 0
M  V30 2935 C 266.042 -3.67931 3.87983 0
M  V30 2936 C 267.342 -1.75597 4.91897 0
M  V30 2937 H 269.036 -0.740374 2.90101 0
M  V30 2938 H 266.582 -0.354696 1.39563 0
M  V30 2939 H 268.535 -3.17389 2.77205 0
M  V30 2940 H 267.259 -2.86475 1.56843 0
M  V30 2941 H 265.918 -1.61067 3.29322 0
M  V30 2942 H 265.566 -4.06462 2.96306 0
M  V30 2943 H 265.266 -3.58817 4.65322 0
M  V30 2944 H 266.79 -4.41356 4.21945 0
M  V30 2945 H 268.204 -2.37364 5.21854 0
M  V30 2946 H 266.601 -1.77272 5.73319 0
M  V30 2947 H 267.671 -0.714451 4.79608 0
M  V30 2948 N 269.014 -1.53014 -0.377408 0
M  V30 2949 C 270.263 -1.67845 -1.11853 0
M  V30 2950 C 270.576 -0.430625 -1.90801 0
M  V30 2951 O 271.782 -0.459261 -2.67587 0
M  V30 2952 C 270.238 -2.96668 -2.03756 0
M  V30 2953 C 269.846 -4.28671 -1.30175 0
M  V30 2954 C 271.59 -3.20865 -2.77932 0
M  V30 2955 C 269.497 -5.48591 -2.20911 0
M  V30 2956 H 268.427 -0.625343 -0.421263 0
M  V30 2957 H 271.078 -1.79514 -0.380409 0
M  V30 2958 H 269.46 -2.78773 -2.8125 0
M  V30 2959 H 270.634 -4.57157 -0.578259 0
M  V30 2960 H 268.949 -4.10825 -0.679108 0
M  V30 2961 H 271.546 -4.07642 -3.46024 0
M  V30 2962 H 271.889 -2.36424 -3.4265 0
M  V30 2963 H 272.422 -3.39379 -2.07525 0
M  V30 2964 H 269.161 -6.35474 -1.6079 0
M  V30 2965 H 268.681 -5.244 -2.91144 0
M  V30 2966 H 270.36 -5.8292 -2.80736 0
M  V30 2967 N 270.492 0.636531 -1.44174 0
M  V30 2968 C 271.442 1.74233 -1.47061 0
M  V30 2969 C 272.426 1.57331 -0.337034 0
M  V30 2970 O 273.618 1.67159 -0.581973 0
M  V30 2971 C 270.747 3.12897 -1.41246 0
M  V30 2972 C 269.833 3.35288 -2.59698 0
M  V30 2973 N 270.224 3.2807 -3.84972 0
M  V30 2974 C 268.522 3.66065 -2.54778 0
M  V30 2975 C 269.223 3.51001 -4.63867 0
M  V30 2976 N 268.199 3.73616 -3.94857 0
M  V30 2977 H 272.001 1.67103 -2.41773 0
M  V30 2978 H 269.515 0.838806 -1.3906 0
M  V30 2979 H 271.512 3.92189 -1.41398 0
M  V30 2980 H 270.172 3.21197 -0.47569 0
M  V30 2981 H 271.183 3.07109 -4.17019 0
M  V30 2982 H 267.86 3.81379 -1.6987 0
M  V30 2983 H 269.25 3.51059 -5.72894 0
M  V30 2984 N 271.97 1.30982 0.876444 0
M  V30 2985 C 273.386 1.09498 1.16113 0
M  V30 2986 C 273.586 -0.13875 2.01022 0
M  V30 2987 O 272.642 -0.829935 2.38471 0
M  V30 2988 C 273.955 2.36308 1.85954 0
M  V30 2989 C 275.503 2.41856 1.98683 0
M  V30 2990 C 275.978 3.6853 2.71937 0
M  V30 2991 N 277.469 3.69387 2.79477 0
M  V30 2992 C 278.204 4.64096 3.36753 0
M  V30 2993 N 277.7 5.69155 3.95012 0
M  V30 2994 N 279.493 4.51626 3.3465 0
M  V30 2995 H 271.644 2.10118 0.310494 0
M  V30 2996 H 273.907 0.926634 0.200131 0
M  V30 2997 H 273.613 3.26388 1.31011 0
M  V30 2998 H 273.487 2.4561 2.86278 0
M  V30 2999 H 275.874 1.52249 2.52793 0
M  V30 3000 H 275.955 2.36523 0.9742 0
M  V30 3001 H 275.599 4.58499 2.18496 0
M  V30 3002 H 275.529 3.71127 3.73593 0
M  V30 3003 H 278.02 2.93438 2.38123 0
M  V30 3004 H 278.333 6.3751 4.36808 0
M  V30 3005 H 276.678 5.72937 3.93406 0
M  V30 3006 H 279.869 3.68728 2.8837 0
M  V30 3007 H 280.042 5.25614 3.7899 0
M  V30 3008 N 273.449 -1.08991 1.13837 0
M  V30 3009 C 274.399 -2.1393 0.788535 0
M  V30 3010 C 275.383 -1.59396 -0.219516 0
M  V30 3011 O 276.575 -1.76985 -0.0227557 0
M  V30 3012 C 273.704 -3.42305 0.261147 0
M  V30 3013 C 272.79 -4.03736 1.29837 0
M  V30 3014 N 273.181 -4.39659 2.50067 0
M  V30 3015 C 271.479 -4.30993 1.1472 0
M  V30 3016 C 272.18 -4.88113 3.16419 0
M  V30 3017 N 271.156 -4.85846 2.43832 0
M  V30 3018 H 274.958 -2.39516 1.70322 0
M  V30 3019 H 272.472 -1.26263 1.02134 0
M  V30 3020 H 274.469 -4.16899 -0.0077405 0
M  V30 3021 H 273.129 -3.18172 -0.647805 0
M  V30 3022 H 274.14 -4.30878 2.8734 0
M  V30 3023 H 270.817 -4.16444 0.296773 0
M  V30 3024 H 272.207 -5.25336 4.18894 0
M  V30 3025 N 274.927 -0.932562 -1.27047 0
M  V30 3026 C 276.343 -0.633544 -1.46487 0
M  V30 3027 C 276.543 0.815746 -1.84249 0
M  V30 3028 O 275.599 1.59319 -1.95892 0
M  V30 3029 C 276.912 -1.58758 -2.55375 0
M  V30 3030 C 278.46 -1.59634 -2.69232 0
M  V30 3031 C 278.935 -2.53747 -3.81283 0
M  V30 3032 N 280.426 -2.51982 -3.88664 0
M  V30 3033 C 281.161 -3.21491 -4.74796 0
M  V30 3034 N 280.657 -4.00395 -5.65381 0
M  V30 3035 N 282.45 -3.10485 -4.68568 0
M  V30 3036 H 274.601 -1.86946 -1.00821 0
M  V30 3037 H 276.864 -0.802897 -0.504044 0
M  V30 3038 H 276.57 -2.62172 -2.34432 0
M  V30 3039 H 276.444 -1.33301 -3.52861 0
M  V30 3040 H 278.831 -0.569488 -2.89553 0
M  V30 3041 H 278.912 -1.89142 -1.72218 0
M  V30 3042 H 278.556 -3.56545 -3.61715 0
M  V30 3043 H 278.486 -2.21532 -4.77735 0
M  V30 3044 H 280.977 -1.94681 -3.23895 0
M  V30 3045 H 281.29 -4.50406 -6.27976 0
M  V30 3046 H 279.635 -4.04498 -5.65161 0
M  V30 3047 H 282.826 -2.48331 -3.96799 0
M  V30 3048 H 282.999 -3.64925 -5.35475 0
M  V30 3049 N 276.405 1.4127 -0.698611 0
M  V30 3050 C 277.816 1.84187 -0.305289 0
M  V30 3051 C 278.167 1.58449 1.15708 0
M  V30 3052 O 277.292 1.05651 1.88856 0
M  V30 3053 C 277.887 3.3435 -0.547314 0
M  V30 3054 C 276.446 3.75826 -0.207878 0
M  V30 3055 C 275.593 2.64647 -0.828099 0
M  V30 3056 H 278.544 1.30778 -0.89904 0
M  V30 3057 H 278.565 3.8001 0.192998 0
M  V30 3058 H 278.077 3.53051 -1.61172 0
M  V30 3059 H 276.178 3.62725 0.852143 0
M  V30 3060 H 276.291 4.74462 -0.665021 0
M  V30 3061 H 274.655 2.53395 -0.257458 0
M  V30 3062 H 275.438 2.86165 -1.89643 0
M  V30 3063 N 277.883 0.443576 1.51229 0
M  V30 3064 C 278.793 -0.370721 2.31652 0
M  V30 3065 C 279.809 -1.02186 1.40833 0
M  V30 3066 O 280.985 -1.01586 1.73903 0
M  V30 3067 C 278.05 -1.45376 3.14749 0
M  V30 3068 C 277.111 -0.822099 4.21355 0
M  V30 3069 C 276.344 -1.85353 5.0048 0
M  V30 3070 O 276.567 -3.07656 4.80316 0
M  V30 3071 O 275.501 -1.4406 5.84406 0
M  V30 3072 H 279.327 0.286002 3.0235 0
M  V30 3073 H 276.912 0.20598 1.47973 0
M  V30 3074 H 278.794 -2.08173 3.66391 0
M  V30 3075 H 277.469 -2.09445 2.46809 0
M  V30 3076 H 276.376 -0.155909 3.73775 0
M  V30 3077 H 277.709 -0.224797 4.91686 0
M  V30 3078 N 279.361 -1.56624 0.175154 0
M  V30 3079 C 280.291 -2.21155 -0.749195 0
M  V30 3080 C 281.272 -1.16836 -1.23626 0
M  V30 3081 O 282.457 -1.45277 -1.28873 0
M  V30 3082 C 279.587 -2.8553 -1.97711 0
M  V30 3083 C 278.541 -3.95921 -1.62575 0
M  V30 3084 C 277.867 -4.47365 -2.92864 0
M  V30 3085 C 279.167 -5.15323 -0.850838 0
M  V30 3086 H 280.861 -2.98653 -0.211295 0
M  V30 3087 H 278.407 -1.43651 -0.100188 0
M  V30 3088 H 280.36 -3.2935 -2.62881 0
M  V30 3089 H 279.084 -2.05406 -2.53921 0
M  V30 3090 H 277.743 -3.52762 -0.997719 0
M  V30 3091 H 277.391 -3.64027 -3.47122 0
M  V30 3092 H 277.091 -5.21839 -2.70106 0
M  V30 3093 H 278.615 -4.93873 -3.59056 0
M  V30 3094 H 280.029 -5.55812 -1.40521 0
M  V30 3095 H 278.426 -5.95739 -0.722154 0
M  V30 3096 H 279.496 -4.84661 0.152082 0
M  V30 3097 N 280.839 0.0985539 -1.57292 0
M  V30 3098 C 282.088 0.801358 -1.85098 0
M  V30 3099 C 282.401 1.80066 -0.763902 0
M  V30 3100 O 283.607 2.55112 -0.928981 0
M  V30 3101 C 282.063 1.47599 -3.28242 0
M  V30 3102 C 281.671 0.516624 -4.45011 0
M  V30 3103 C 283.415 2.16272 -3.65276 0
M  V30 3104 C 281.322 1.19564 -5.79188 0
M  V30 3105 H 280.252 0.303022 -0.69043 0
M  V30 3106 H 282.903 0.0542623 -1.8342 0
M  V30 3107 H 281.285 2.27042 -3.2445 0
M  V30 3108 H 282.459 -0.246065 -4.60143 0
M  V30 3109 H 280.774 -0.064227 -4.1635 0
M  V30 3110 H 283.371 2.67802 -4.62803 0
M  V30 3111 H 283.714 2.95009 -2.93727 0
M  V30 3112 H 284.247 1.43693 -3.70941 0
M  V30 3113 H 280.986 0.449157 -6.53959 0
M  V30 3114 H 280.506 1.92984 -5.67906 0
M  V30 3115 H 282.185 1.7231 -6.23633 0
M  V30 3116 N 282.317 1.53212 0.369288 0
M  V30 3117 C 283.594 1.59815 1.12776 0
M  V30 3118 C 283.974 0.403402 2.0721 0
M  V30 3119 O 283.322 -0.606667 2.20299 0
M  V30 3120 C 283.532 2.94664 1.87013 0
M  V30 3121 C 284.88 3.49109 2.41677 0
M  V30 3122 O 285.904 2.96669 1.97144 0
M  V30 3123 O 284.763 4.40775 3.23079 0
M  V30 3124 H 281.857 0.645376 0.517125 0
M  V30 3125 H 284.403 1.65553 0.37285 0
M  V30 3126 H 283.175 3.73061 1.18071 0
M  V30 3127 H 282.798 2.92401 2.69421 0
M  V30 3128 N 283.795 -0.628877 1.44509 0
M  V30 3129 C 285.025 -1.41349 1.50678 0
M  V30 3130 C 285.433 -1.88745 0.131075 0
M  V30 3131 O 284.776 -1.61592 -0.87371 0
M  V30 3132 C 284.838 -2.66608 2.41165 0
M  V30 3133 C 284.502 -2.40993 3.88293 0
M  V30 3134 C 285.499 -2.0268 4.78766 0
M  V30 3135 C 283.184 -2.54563 4.33016 0
M  V30 3136 C 285.178 -1.78269 6.11963 0
M  V30 3137 C 282.865 -2.29766 5.6626 0
M  V30 3138 C 283.863 -1.91678 6.55552 0
M  V30 3139 O 283.551 -1.67158 7.86329 0
M  V30 3140 H 283.283 -0.439851 0.51333 0
M  V30 3141 H 285.837 -0.776084 1.90174 0
M  V30 3142 H 284.067 -3.32994 1.96601 0
M  V30 3143 H 285.756 -3.28615 2.38259 0
M  V30 3144 H 286.522 -1.91751 4.45485 0
M  V30 3145 H 282.401 -2.83179 3.63773 0
M  V30 3146 H 285.945 -1.48465 6.81619 0
M  V30 3147 H 281.842 -2.40306 5.99102 0
M  V30 3148 H 282.61 -1.81386 7.98149 0
M  V30 3149 N 285.273 -1.31445 -0.869486 0
M  V30 3150 C 286.521 -1.20918 -1.61936 0
M  V30 3151 C 286.842 0.232683 -1.93607 0
M  V30 3152 O 286.112 1.15352 -1.58338 0
M  V30 3153 H 284.692 -0.44454 -0.600328 0
M  V30 3154 H 287.354 -1.64776 -1.0409 0
M  V30 3155 H 286.45 -1.78124 -2.56278 0
M  V30 3156 N 286.751 1.08385 -1.14413 0
M  V30 3157 C 287.698 2.15311 -0.831265 0
M  V30 3158 C 288.668 1.64751 0.211292 0
M  V30 3159 O 289.853 1.90627 0.0811674 0
M  V30 3160 C 286.993 3.43658 -0.315143 0
M  V30 3161 C 286.106 4.08064 -1.41802 0
M  V30 3162 C 285.241 5.24207 -0.859126 0
M  V30 3163 C 284.28 5.80554 -1.93967 0
M  V30 3164 N 283.417 6.88042 -1.39793 0
M  V30 3165 H 288.257 2.41415 -1.74708 0
M  V30 3166 H 285.794 1.18474 -0.871909 0
M  V30 3167 H 287.752 4.172 0.00230884 0
M  V30 3168 H 286.382 3.17839 0.56378 0
M  V30 3169 H 285.434 3.3228 -1.85187 0
M  V30 3170 H 286.746 4.45962 -2.23427 0
M  V30 3171 H 285.9 6.04689 -0.49359 0
M  V30 3172 H 284.639 4.87699 -0.011932 0
M  V30 3173 H 283.644 4.98725 -2.31415 0
M  V30 3174 H 284.869 6.19121 -2.79046 0
M  V30 3175 H 282.815 6.53493 -0.572919 0
M  V30 3176 H 282.732 7.24767 -2.15054 0
M  V30 3177 H 284 7.72255 -1.0603 0
M  V30 3178 N 288.23 0.939286 1.26551 0
M  V30 3179 C 289.16 0.465044 2.28822 0
M  V30 3180 C 290.141 -0.480692 1.63167 0
M  V30 3181 O 291.326 -0.382955 1.90387 0
M  V30 3182 C 288.456 -0.27234 3.46231 0
M  V30 3183 C 287.41 0.58666 4.2396 0
M  V30 3184 C 286.736 -0.280573 5.33963 0
M  V30 3185 C 288.036 1.85704 4.88171 0
M  V30 3186 H 289.73 1.31979 2.68741 0
M  V30 3187 H 287.276 0.636061 1.29191 0
M  V30 3188 H 289.229 -0.615133 4.16886 0
M  V30 3189 H 287.953 -1.16121 3.0526 0
M  V30 3190 H 286.612 0.91232 3.55067 0
M  V30 3191 H 286.26 -1.16874 4.89234 0
M  V30 3192 H 285.96 0.29076 5.8688 0
M  V30 3193 H 287.484 -0.618678 6.07458 0
M  V30 3194 H 288.898 1.58161 5.51052 0
M  V30 3195 H 287.295 2.37279 5.51197 0
M  V30 3196 H 288.365 2.56957 4.11219 0
M  V30 3197 N 289.708 -1.40897 0.706093 0
M  V30 3198 C 291.124 -1.55042 0.37869 0
M  V30 3199 C 291.324 -1.67944 -1.11342 0
M  V30 3200 O 290.38 -1.66372 -1.89938 0
M  V30 3201 C 291.693 -2.78398 1.13643 0
M  V30 3202 C 293.241 -2.92206 1.12181 0
M  V30 3203 C 293.716 -4.18463 1.86152 0
M  V30 3204 N 295.207 -4.25443 1.83173 0
M  V30 3205 C 295.942 -5.2202 2.37239 0
M  V30 3206 N 295.438 -6.24563 2.99821 0
M  V30 3207 N 297.231 -5.14033 2.27435 0
M  V30 3208 H 289.382 -1.30769 1.67372 0
M  V30 3209 H 291.645 -0.631653 0.706907 0
M  V30 3210 H 291.351 -2.7511 2.19106 0
M  V30 3211 H 291.225 -3.70228 0.721853 0
M  V30 3212 H 293.612 -2.95004 0.0754171 0
M  V30 3213 H 293.693 -2.01521 1.57554 0
M  V30 3214 H 293.337 -4.16427 2.90776 0
M  V30 3215 H 293.267 -5.08141 1.38206 0
M  V30 3216 H 295.758 -3.51976 1.37556 0
M  V30 3217 H 296.071 -6.94665 3.38616 0
M  V30 3218 H 294.416 -6.25035 3.03902 0
M  V30 3219 H 297.607 -4.3285 1.78208 0
M  V30 3220 H 297.78 -5.89129 2.69873 0
M  V30 3221 N 291.186 -0.45159 -1.50991 0
M  V30 3222 C 292.133 0.352625 -2.2809 0
M  V30 3223 C 293.103 1.0044 -1.32291 0
M  V30 3224 O 294.288 1.02058 -1.6121 0
M  V30 3225 C 291.428 1.43983 -3.13629 0
M  V30 3226 C 290.541 0.804772 -4.24438 0
M  V30 3227 C 289.676 1.86822 -4.97263 0
M  V30 3228 C 288.715 1.21236 -5.99973 0
M  V30 3229 N 287.852 2.2178 -6.66152 0
M  V30 3230 H 292.692 -0.311186 -2.96371 0
M  V30 3231 H 290.229 -0.165308 -1.46168 0
M  V30 3232 H 292.187 2.08161 -3.61559 0
M  V30 3233 H 290.817 2.07307 -2.47434 0
M  V30 3234 H 289.869 0.0509129 -3.80366 0
M  V30 3235 H 291.181 0.286076 -4.97979 0
M  V30 3236 H 290.335 2.58628 -5.48813 0
M  V30 3237 H 289.074 2.42068 -4.23385 0
M  V30 3238 H 288.079 0.479828 -5.47702 0
M  V30 3239 H 289.304 0.667051 -6.75816 0
M  V30 3240 H 287.25 2.76079 -5.95077 0
M  V30 3241 H 287.167 1.74841 -7.35504 0
M  V30 3242 H 288.435 2.93026 -7.22327 0
M  V30 3243 N 292.664 1.56529 -0.183458 0
M  V30 3244 C 293.941 1.88959 0.50536 0
M  V30 3245 C 294.321 1.09523 1.80466 0
M  V30 3246 O 293.669 0.19278 2.27685 0
M  V30 3247 C 293.879 3.41162 0.73547 0
M  V30 3248 C 295.227 4.11155 1.06005 0
M  V30 3249 O 296.251 3.46548 0.823594 0
M  V30 3250 O 295.11 5.25318 1.50675 0
M  V30 3251 H 292.204 0.78441 0.261973 0
M  V30 3252 H 294.75 1.68231 -0.222802 0
M  V30 3253 H 293.522 3.90874 -0.182561 0
M  V30 3254 H 293.145 3.67543 1.51651 0
M  V30 3255 N 294.142 -0.090211 1.57342 0
M  V30 3256 C 295.419 -0.824761 1.77361 0
M  V30 3257 C 295.799 -1.96698 0.76637 0
M  V30 3258 O 295.147 -2.27586 -0.204179 0
M  V30 3259 C 295.357 -1.31481 3.23286 0
M  V30 3260 C 296.705 -1.75563 3.86604 0
M  V30 3261 O 297.729 -1.41093 3.27065 0
M  V30 3262 O 296.588 -2.39317 4.91314 0
M  V30 3263 H 293.682 -0.393776 0.727234 0
M  V30 3264 H 296.228 -0.0717138 1.69548 0
M  V30 3265 H 295 -0.496671 3.88135 0
M  V30 3266 H 294.623 -2.12973 3.35751 0
M  V30 3267 N 295.62 -1.53406 -0.361157 0
M  V30 3268 C 297.031 -1.61442 -0.937728 0
M  V30 3269 C 297.382 -0.48461 -1.90121 0
M  V30 3270 O 296.507 0.388312 -2.12888 0
M  V30 3271 C 297.102 -2.92624 -1.70753 0
M  V30 3272 C 295.661 -3.02981 -2.23337 0
M  V30 3273 C 294.808 -2.5677 -1.04712 0
M  V30 3274 H 297.759 -1.58083 -0.139816 0
M  V30 3275 H 297.78 -2.80675 -2.56908 0
M  V30 3276 H 297.292 -3.74834 -1.00604 0
M  V30 3277 H 295.393 -2.25368 -2.96715 0
M  V30 3278 H 295.506 -4.0814 -2.50916 0
M  V30 3279 H 293.87 -2.11752 -1.41539 0
M  V30 3280 H 294.653 -3.41402 -0.360539 0
M  V30 3281 N 297.098 0.621204 -1.44841 0
M  V30 3282 C 298.028 1.74366 -1.55303 0
M  V30 3283 C 299.009 1.65199 -0.405385 0
M  V30 3284 O 300.194 1.83807 -0.626787 0
M  V30 3285 C 297.324 3.12931 -1.50637 0
M  V30 3286 C 296.278 3.36896 -2.63979 0
M  V30 3287 C 295.604 4.75594 -2.44366 0
M  V30 3288 C 296.904 3.28483 -4.06074 0
M  V30 3289 H 298.598 1.65867 -2.49256 0
M  V30 3290 H 296.144 0.796558 -1.19962 0
M  V30 3291 H 298.097 3.9124 -1.56555 0
M  V30 3292 H 296.821 3.22237 -0.532057 0
M  V30 3293 H 295.48 2.60972 -2.57467 0
M  V30 3294 H 295.128 4.81616 -1.45105 0
M  V30 3295 H 294.828 4.92586 -3.20364 0
M  V30 3296 H 296.352 5.5612 -2.52117 0
M  V30 3297 H 297.766 3.96684 -4.13902 0
M  V30 3298 H 296.163 3.57008 -4.82354 0
M  V30 3299 H 297.233 2.26133 -4.28943 0
M  V30 3300 N 298.576 1.31904 0.862503 0
M  V30 3301 C 299.804 1.24998 1.64873 0
M  V30 3302 C 300.219 -0.183425 1.87907 0
M  V30 3303 O 299.576 -1.11794 1.44251 0
M  V30 3304 C 299.627 1.99829 3.01248 0
M  V30 3305 O 299.348 3.37575 2.79239 0
M  V30 3306 C 300.849 1.99852 3.95694 0
M  V30 3307 H 298.069 0.431599 0.513773 0
M  V30 3308 H 300.613 1.73901 1.07604 0
M  V30 3309 H 298.768 1.54668 3.55185 0
M  V30 3310 H 299.182 3.75776 3.65914 0
M  V30 3311 H 300.656 2.56709 4.88676 0
M  V30 3312 H 301.133 0.982852 4.28062 0
M  V30 3313 H 301.739 2.44926 3.47694 0
M  V30 3314 N 300.054 -1.07777 1.14986 0
M  V30 3315 C 301.002 -2.16964 0.838406 0
M  V30 3316 C 301.996 -1.68372 -0.186386 0
M  V30 3317 O 303.202 -1.79951 -0.0418465 0
M  V30 3318 H 299.577 -0.708006 0.253439 0
M  V30 3319 H 301.548 -2.40454 1.76704 0
M  V30 3320 C 300.297 -3.4604 0.339335 0
M  V30 3321 H 299.62 -3.83813 1.11927 0
M  V30 3322 H 301.06 -4.23698 0.160021 0
M  V30 3323 C 299.519 -3.23569 -0.938325 0
M  V30 3324 O 300.049 -3.47752 -2.01077 0
M  V30 3325 N 298.255 -2.77079 -0.876117 0
M  V30 3326 H 297.802 -2.576 -0.00322037 0
M  V30 3327 H 297.76 -2.62422 -1.73153 0
M  V30 3328 N 301.532 -0.945985 -1.26051 0
M  V30 3329 C 302.462 -0.477172 -2.28572 0
M  V30 3330 C 303.443 0.472032 -1.63419 0
M  V30 3331 O 304.628 0.372853 -1.90587 0
M  V30 3332 C 301.758 0.253975 -3.4637 0
M  V30 3333 C 300.712 -0.609135 -4.23643 0
M  V30 3334 C 300.038 0.252252 -5.34105 0
M  V30 3335 C 301.338 -1.8829 -4.8718 0
M  V30 3336 H 303.032 -1.33402 -2.68038 0
M  V30 3337 H 300.578 -0.642904 -1.28852 0
M  V30 3338 H 302.531 0.593016 -4.17207 0
M  V30 3339 H 301.255 1.145 -3.05871 0
M  V30 3340 H 299.914 -0.931138 -3.54578 0
M  V30 3341 H 299.562 1.14278 -4.89846 0
M  V30 3342 H 299.262 -0.32188 -5.86718 0
M  V30 3343 H 300.786 0.586454 -6.07777 0
M  V30 3344 H 302.2 -1.61081 -5.50205 0
M  V30 3345 H 300.597 -2.40199 -5.49931 0
M  V30 3346 H 301.667 -2.59134 -4.09851 0
M  V30 3347 N 303.011 1.40521 -0.713556 0
M  V30 3348 C 303.959 2.32549 -0.0485227 0
M  V30 3349 C 304.953 1.51931 0.74922 0
M  V30 3350 O 306.159 1.67745 0.652816 0
M  V30 3351 H 302.534 0.751994 0.00311138 0
M  V30 3352 H 304.505 2.86291 -0.841443 0
M  V30 3353 C 303.254 3.36879 0.860687 0
M  V30 3354 H 302.577 3.98978 0.256246 0
M  V30 3355 H 304.017 4.03772 1.294 0
M  V30 3356 C 302.476 2.72197 1.9852 0
M  V30 3357 O 303.006 2.5837 3.07584 0
M  V30 3358 N 301.212 2.30612 1.76823 0
M  V30 3359 H 300.759 2.42059 0.881217 0
M  V30 3360 H 300.717 1.87672 2.52243 0
M  V30 3361 N 304.489 0.459591 1.5075 0
M  V30 3362 C 305.717 -0.0973749 2.06671 0
M  V30 3363 C 306.132 -1.34524 1.32472 0
M  V30 3364 O 305.489 -1.7827 0.390634 0
M  V30 3365 C 305.54 -0.39714 3.59312 0
M  V30 3366 O 305.261 0.801214 4.30711 0
M  V30 3367 C 306.762 -1.00234 4.31819 0
M  V30 3368 H 303.982 0.00195854 0.670997 0
M  V30 3369 H 306.526 0.645072 1.94059 0
M  V30 3370 H 304.681 -1.08951 3.71764 0
M  V30 3371 H 305.095 0.538857 5.21725 0
M  V30 3372 H 306.569 -1.16193 5.39632 0
M  V30 3373 H 307.046 -1.98939 3.91561 0
M  V30 3374 H 307.652 -0.348699 4.23868 0
M  V30 3375 N 305.967 -1.56429 0.191757 0
M  V30 3376 C 306.93 -2.17707 -0.716688 0
M  V30 3377 C 307.93 -1.13061 -1.14341 0
M  V30 3378 O 309.12 -1.38464 -1.05704 0
M  V30 3379 C 306.252 -2.77644 -1.97804 0
M  V30 3380 H 307.445 -2.99342 -0.1829 0
M  V30 3381 H 304.998 -1.56193 -0.0578566 0
M  V30 3382 H 305.733 -1.99799 -2.55443 0
M  V30 3383 H 305.518 -3.54246 -1.68083 0
M  V30 3384 H 307.008 -3.24708 -2.62592 0
M  V30 3385 N 307.445 0.0818655 -1.57387 0
M  V30 3386 C 308.692 0.782914 -1.86753 0
M  V30 3387 C 309.02 1.78082 -0.782118 0
M  V30 3388 O 308.275 1.94426 0.22295 0
M  V30 3389 C 308.574 1.53513 -3.22752 0
M  V30 3390 C 308.24 0.678134 -4.45771 0
M  V30 3391 C 306.902 0.441929 -4.79166 0
M  V30 3392 C 309.254 0.0832243 -5.21134 0
M  V30 3393 C 306.582 -0.398833 -5.85343 0
M  V30 3394 C 308.934 -0.744935 -6.28199 0
M  V30 3395 C 307.598 -0.991107 -6.60101 0
M  V30 3396 H 306.868 0.286489 -0.683378 0
M  V30 3397 H 309.515 0.0439808 -1.91449 0
M  V30 3398 H 307.82 2.34599 -3.138 0
M  V30 3399 H 309.517 2.08218 -3.42705 0
M  V30 3400 H 306.107 0.872357 -4.19628 0
M  V30 3401 H 310.291 0.252847 -4.95655 0
M  V30 3402 H 305.547 -0.598405 -6.08465 0
M  V30 3403 H 309.721 -1.21271 -6.8576 0
M  V30 3404 H 307.348 -1.64437 -7.42202 0
M  V30 3405 N 308.923 1.53595 0.353017 0
M  V30 3406 C 310.2 1.61002 1.11075 0
M  V30 3407 C 310.58 0.425356 2.0677 0
M  V30 3408 O 309.928 -0.583267 2.2093 0
M  V30 3409 C 310.138 2.96631 1.83877 0
M  V30 3410 C 311.486 3.51653 2.37961 0
M  V30 3411 O 312.51 2.98743 1.93987 0
M  V30 3412 O 311.369 4.44177 3.18386 0
M  V30 3413 H 308.463 0.650825 0.510251 0
M  V30 3414 H 311.009 1.6594 0.35527 0
M  V30 3415 H 309.781 3.74293 1.14108 0
M  V30 3416 H 309.404 2.95242 2.66304 0
M  V30 3417 N 310.401 -0.613514 1.45168 0
M  V30 3418 C 311.647 -1.37471 1.49096 0
M  V30 3419 C 311.98 -1.93765 0.129901 0
M  V30 3420 O 311.255 -1.74707 -0.854858 0
M  V30 3421 C 311.538 -2.52701 2.56542 0
M  V30 3422 C 311.391 -2.01643 4.0207 0
M  V30 3423 C 312.71 -3.54849 2.60327 0
M  V30 3424 H 309.829 -0.498502 0.54283 0
M  V30 3425 H 312.471 -0.692125 1.76945 0
M  V30 3426 H 310.621 -3.10931 2.32926 0
M  V30 3427 H 312.293 -1.48108 4.36877 0
M  V30 3428 H 310.536 -1.32688 4.13009 0
M  V30 3429 H 311.207 -2.84681 4.72928 0
M  V30 3430 H 313.683 -3.0645 2.81474 0
M  V30 3431 H 312.559 -4.32973 3.37381 0
M  V30 3432 H 312.82 -4.10079 1.6519 0
M  V30 3433 N 311.879 -1.3236 -0.855495 0
M  V30 3434 C 312.842 -1.21164 -1.94556 0
M  V30 3435 C 313.842 -0.134908 -1.60233 0
M  V30 3436 O 315.032 -0.385249 -1.69887 0
M  V30 3437 C 312.164 -0.863192 -3.29791 0
M  V30 3438 H 313.357 -2.18038 -2.05911 0
M  V30 3439 H 310.91 -1.16179 -1.04557 0
M  V30 3440 H 311.645 0.103769 -3.24134 0
M  V30 3441 H 311.43 -1.64166 -3.56078 0
M  V30 3442 H 312.92 -0.809156 -4.09686 0
M  V30 3443 N 313.357 1.07166 -1.15556 0
M  V30 3444 C 314.267 2.17947 -0.868116 0
M  V30 3445 C 315.283 1.73297 0.156297 0
M  V30 3446 O 316.459 2.01392 -0.0182327 0
M  V30 3447 C 313.524 3.44789 -0.36355 0
M  V30 3448 C 312.585 4.03996 -1.45209 0
M  V30 3449 C 311.818 5.24783 -0.971508 0
M  V30 3450 O 312.041 5.70109 0.182194 0
M  V30 3451 O 310.975 5.75715 -1.75603 0
M  V30 3452 H 314.801 2.4503 -1.79427 0
M  V30 3453 H 312.386 1.16539 -0.934824 0
M  V30 3454 H 314.268 4.21307 -0.0887113 0
M  V30 3455 H 312.943 3.19253 0.534708 0
M  V30 3456 H 311.85 3.29009 -1.78056 0
M  V30 3457 H 313.183 4.33808 -2.32533 0
M  V30 3458 N 314.835 0.952656 1.25548 0
M  V30 3459 C 315.782 0.47008 2.25962 0
M  V30 3460 C 316.752 -0.476384 1.59122 0
M  V30 3461 O 317.937 -0.39007 1.8677 0
M  V30 3462 C 315.077 -0.247881 3.44209 0
M  V30 3463 C 314.19 0.735591 4.25691 0
M  V30 3464 C 313.325 -0.0047306 5.312 0
M  V30 3465 C 312.364 0.969805 6.04368 0
M  V30 3466 N 311.501 0.260486 7.01617 0
M  V30 3467 H 316.341 1.33126 2.66611 0
M  V30 3468 H 313.878 0.66765 1.31076 0
M  V30 3469 H 315.836 -0.680695 4.1161 0
M  V30 3470 H 314.466 -1.07312 3.0444 0
M  V30 3471 H 313.518 1.28689 3.57971 0
M  V30 3472 H 314.83 1.47934 4.76358 0
M  V30 3473 H 313.984 -0.496275 6.04667 0
M  V30 3474 H 312.723 -0.781282 4.81401 0
M  V30 3475 H 311.728 1.47237 5.29718 0
M  V30 3476 H 312.953 1.74655 6.56256 0
M  V30 3477 H 310.899 -0.497364 6.54112 0
M  V30 3478 H 310.816 0.943362 7.50091 0
M  V30 3479 H 312.084 -0.209587 7.79218 0
M  V30 3480 N 316.313 -1.40141 0.720998 0
M  V30 3481 C 317.543 -2.04798 0.27226 0
M  V30 3482 C 317.951 -1.54442 -1.09289 0
M  V30 3483 O 317.294 -0.698342 -1.69908 0
M  V30 3484 C 317.356 -3.59048 0.18027 0
M  V30 3485 C 317.02 -4.32317 1.48159 0
M  V30 3486 C 318.017 -4.59902 2.42458 0
M  V30 3487 C 315.702 -4.71125 1.74202 0
M  V30 3488 C 317.696 -5.25288 3.61042 0
M  V30 3489 C 315.383 -5.36242 2.93066 0
M  V30 3490 C 316.381 -5.63254 3.86308 0
M  V30 3491 O 316.069 -6.27024 5.03086 0
M  V30 3492 H 315.801 -0.665419 0.119139 0
M  V30 3493 H 318.355 -1.80436 0.981432 0
M  V30 3494 H 316.585 -3.82251 -0.58489 0
M  V30 3495 H 318.274 -4.05221 -0.234618 0
M  V30 3496 H 319.04 -4.30379 2.23604 0
M  V30 3497 H 314.919 -4.49466 1.02477 0
M  V30 3498 H 318.463 -5.46289 4.33837 0
M  V30 3499 H 314.36 -5.65185 3.11826 0
M  V30 3500 H 315.128 -6.4552 5.03235 0
M  V30 3501 N 317.792 -0.46758 -1.50504 0
M  V30 3502 C 318.722 0.318381 -2.31319 0
M  V30 3503 C 319.703 0.993564 -1.38066 0
M  V30 3504 O 320.888 0.991411 -1.66987 0
M  V30 3505 C 318.018 1.40275 -3.17711 0
M  V30 3506 C 316.972 0.849373 -4.19487 0
M  V30 3507 C 316.298 2.03177 -4.94594 0
M  V30 3508 C 317.598 -0.136942 -5.2212 0
M  V30 3509 H 319.292 -0.356106 -2.97275 0
M  V30 3510 H 316.838 -0.172703 -1.42961 0
M  V30 3511 H 318.791 1.96004 -3.73042 0
M  V30 3512 H 317.515 2.10596 -2.49634 0
M  V30 3513 H 316.174 0.314076 -3.65252 0
M  V30 3514 H 315.822 2.72187 -4.22993 0
M  V30 3515 H 315.522 1.66774 -5.63436 0
M  V30 3516 H 317.046 2.59403 -5.52759 0
M  V30 3517 H 318.46 0.331056 -5.72343 0
M  V30 3518 H 316.857 -0.41507 -5.98663 0
M  V30 3519 H 317.927 -1.06398 -4.73083 0
M  V30 3520 N 319.27 1.56325 -0.20005 0
M  V30 3521 C 320.547 1.89484 0.48529 0
M  V30 3522 C 320.927 1.1143 1.79294 0
M  V30 3523 O 320.275 0.216919 2.27468 0
M  V30 3524 C 320.485 3.41923 0.699243 0
M  V30 3525 C 321.833 4.12256 1.01638 0
M  V30 3526 O 322.857 3.47402 0.786792 0
M  V30 3527 O 321.716 5.26887 1.45095 0
M  V30 3528 H 318.81 0.787144 0.253639 0
M  V30 3529 H 321.356 1.67985 -0.240633 0
M  V30 3530 H 320.128 3.90658 -0.224008 0
M  V30 3531 H 319.751 3.69131 1.47744 0
M  V30 3532 N 320.748 -0.0735177 1.57428 0
M  V30 3533 C 321.997 -0.771809 1.86349 0
M  V30 3534 C 322.31 -1.78828 0.792452 0
M  V30 3535 O 323.516 -2.53602 0.96945 0
M  V30 3536 C 321.972 -1.42358 3.30548 0
M  V30 3537 C 321.58 -0.445761 4.45777 0
M  V30 3538 C 323.324 -2.10434 3.6867 0
M  V30 3539 C 321.231 -1.10335 5.81016 0
M  V30 3540 H 320.161 -0.291999 0.695164 0
M  V30 3541 H 322.812 -0.0250749 1.83483 0
M  V30 3542 H 321.194 -2.21852 3.28021 0
M  V30 3543 H 322.368 0.319239 4.59693 0
M  V30 3544 H 320.683 0.130457 4.16196 0
M  V30 3545 H 323.28 -2.60405 4.67004 0
M  V30 3546 H 323.623 -2.90298 2.98383 0
M  V30 3547 H 324.156 -1.37773 3.7318 0
M  V30 3548 H 320.895 -0.345061 6.54591 0
M  V30 3549 H 320.415 -1.83925 5.70904 0
M  V30 3550 H 322.094 -1.62367 6.26295 0
M  V30 3551 N 322.226 -1.5378 -0.344866 0
M  V30 3552 C 323.637 -1.62428 -0.920552 0
M  V30 3553 C 323.988 -0.504747 -1.89596 0
M  V30 3554 O 323.113 0.365711 -2.13287 0
M  V30 3555 C 323.708 -2.94419 -1.67639 0
M  V30 3556 C 322.267 -3.05333 -2.20111 0
M  V30 3557 C 321.414 -2.57866 -1.01982 0
M  V30 3558 H 324.365 -1.58222 -0.123042 0
M  V30 3559 H 324.386 -2.83384 -2.53917 0
M  V30 3560 H 323.898 -3.7588 -0.966224 0
M  V30 3561 H 321.999 -2.28502 -2.94308 0
M  V30 3562 H 322.112 -4.10778 -2.46573 0
M  V30 3563 H 320.476 -2.13241 -1.39285 0
M  V30 3564 H 321.259 -3.41765 -0.324308 0
M  V30 3565 N 323.704 0.605807 -1.45491 0
M  V30 3566 C 324.651 1.7164 -1.54299 0
M  V30 3567 C 325.621 1.61486 -0.388761 0
M  V30 3568 O 326.806 1.81039 -0.602445 0
M  V30 3569 C 323.946 3.09953 -1.51734 0
M  V30 3570 C 323.059 3.309 -2.77721 0
M  V30 3571 C 322.194 4.59329 -2.66816 0
M  V30 3572 C 321.233 4.7354 -3.87848 0
M  V30 3573 N 320.37 5.9327 -3.75467 0
M  V30 3574 H 325.21 1.63449 -2.49176 0
M  V30 3575 H 322.747 0.796957 -1.23641 0
M  V30 3576 H 324.705 3.89977 -1.48235 0
M  V30 3577 H 323.335 3.17098 -0.604068 0
M  V30 3578 H 322.387 2.44639 -2.913 0
M  V30 3579 H 323.699 3.37274 -3.67488 0
M  V30 3580 H 322.853 5.4755 -2.61292 0
M  V30 3581 H 321.592 4.55355 -1.74651 0
M  V30 3582 H 320.597 3.83741 -3.93729 0
M  V30 3583 H 321.822 4.79309 -4.81082 0
M  V30 3584 H 319.768 5.90338 -2.86072 0
M  V30 3585 H 319.685 6.00811 -4.5887 0
M  V30 3586 H 320.953 6.83984 -3.73879 0
M  V30 3587 N 325.182 1.32811 0.848464 0
M  V30 3588 C 326.115 1.16601 1.96162 0
M  V30 3589 C 327.093 0.0638855 1.62474 0
M  V30 3590 O 328.277 0.224348 1.8716 0
M  V30 3591 C 325.404 0.786333 3.29446 0
M  V30 3592 C 324.45 1.89459 3.8211 0
M  V30 3593 S 325.283 3.50395 4.04949 0
M  V30 3594 C 326.439 3.14413 5.41198 0
M  V30 3595 H 326.672 2.10832 2.09612 0
M  V30 3596 H 324.205 1.17543 1.00115 0
M  V30 3597 H 326.163 0.574044 4.06466 0
M  V30 3598 H 324.824 -0.137218 3.138 0
M  V30 3599 H 324.017 1.58207 4.78526 0
M  V30 3600 H 323.619 2.06304 3.11953 0
M  V30 3601 H 325.911 2.64642 6.23675 0
M  V30 3602 H 326.854 4.09874 5.77416 0
M  V30 3603 H 327.262 2.51266 5.05495 0
M  V30 3604 N 326.66 -1.06551 1.16123 0
M  V30 3605 C 327.59 -2.15935 0.88851 0
M  V30 3606 C 328.571 -1.69306 -0.164135 0
M  V30 3607 O 329.756 -1.94193 -0.0167857 0
M  V30 3608 C 326.886 -3.45149 0.385942 0
M  V30 3609 C 325.84 -4.05271 1.3762 0
M  V30 3610 C 325.166 -5.29664 0.732137 0
M  V30 3611 C 326.466 -4.44355 2.74493 0
M  V30 3612 H 328.16 -2.39006 1.80323 0
M  V30 3613 H 325.706 -1.14866 0.868435 0
M  V30 3614 H 327.659 -4.21004 0.182647 0
M  V30 3615 H 326.383 -3.21689 -0.564274 0
M  V30 3616 H 325.042 -3.3147 1.56599 0
M  V30 3617 H 324.69 -5.02499 -0.224483 0
M  V30 3618 H 324.39 -5.70848 1.39307 0
M  V30 3619 H 325.914 -6.08218 0.538802 0
M  V30 3620 H 327.328 -5.11303 2.59311 0
M  V30 3621 H 325.725 -4.96515 3.37035 0
M  V30 3622 H 326.795 -3.55339 3.29943 0
M  V30 3623 N 328.138 -0.959301 -1.25041 0
M  V30 3624 C 329.415 -0.533805 -1.88175 0
M  V30 3625 C 329.795 0.988994 -1.865 0
M  V30 3626 O 329.143 1.85677 -1.33177 0
M  V30 3627 C 329.353 -1.11575 -3.30684 0
M  V30 3628 C 330.701 -1.19548 -4.07423 0
M  V30 3629 O 331.725 -1.06765 -3.39823 0
M  V30 3630 O 330.584 -1.39656 -5.28354 0
M  V30 3631 H 327.678 -0.176772 -0.807887 0
M  V30 3632 H 330.224 -1.05303 -1.33076 0
M  V30 3633 H 328.996 -2.15884 -3.26358 0
M  V30 3634 H 328.619 -0.580059 -3.93346 0
M  V30 3635 N 329.616 1.39756 -0.72842 0
M  V30 3636 C 330.579 2.29012 -0.0927297 0
M  V30 3637 C 331.579 1.45992 0.674025 0
M  V30 3638 O 332.769 1.66749 0.50402 0
M  V30 3639 C 329.901 3.29396 0.878137 0
M  V30 3640 H 331.094 2.86729 -0.879011 0
M  V30 3641 H 328.647 1.48293 -0.493847 0
M  V30 3642 H 329.382 2.76722 1.69101 0
M  V30 3643 H 329.167 3.907 0.331051 0
M  V30 3644 H 330.657 3.96199 1.3197 0
M  V30 3645 N 331.094 0.475555 1.50254 0
M  V30 3646 C 332.004 -0.321501 2.32387 0
M  V30 3647 C 333.02 -0.991755 1.42969 0
M  V30 3648 O 334.196 -0.978747 1.76018 0
M  V30 3649 C 331.261 -1.38667 3.17762 0
M  V30 3650 C 330.322 -0.732538 4.23004 0
M  V30 3651 C 329.555 -1.74695 5.04299 0
M  V30 3652 O 329.778 -2.97399 4.86734 0
M  V30 3653 O 328.712 -1.31631 5.8733 0
M  V30 3654 H 332.538 0.350071 3.01676 0
M  V30 3655 H 330.123 0.237321 1.47503 0
M  V30 3656 H 332.005 -2.00354 3.70724 0
M  V30 3657 H 330.68 -2.04163 2.51196 0
M  V30 3658 H 329.587 -0.0765902 3.74022 0
M  V30 3659 H 330.92 -0.120452 4.92053 0
M  V30 3660 N 332.573 -1.56217 0.208337 0
M  V30 3661 C 333.85 -1.89739 -0.475234 0
M  V30 3662 C 334.23 -1.1238 -1.78701 0
M  V30 3663 O 333.578 -0.228979 -2.2735 0
M  V30 3664 C 333.788 -3.42289 -0.681101 0
M  V30 3665 C 335.136 -4.12789 -0.994507 0
M  V30 3666 O 336.16 -3.47814 -0.768357 0
M  V30 3667 O 335.019 -5.27649 -1.42299 0
M  V30 3668 H 332.113 -0.788478 -0.249461 0
M  V30 3669 H 334.659 -1.67855 0.249538 0
M  V30 3670 H 333.431 -3.90534 0.244722 0
M  V30 3671 H 333.054 -3.69909 -1.45785 0
M  V30 3672 N 334.051 0.0651679 -1.57465 0
M  V30 3673 C 335.3 0.761916 -1.86756 0
M  V30 3674 C 335.613 1.78406 -0.801925 0
M  V30 3675 O 336.819 2.53084 -0.982885 0
M  V30 3676 C 335.275 1.40603 -3.31299 0
M  V30 3677 C 334.883 0.422115 -4.46007 0
M  V30 3678 C 336.627 2.08476 -3.69781 0
M  V30 3679 C 334.534 1.07252 -5.81593 0
M  V30 3680 H 333.464 0.288308 -0.696702 0
M  V30 3681 H 336.115 0.015344 -1.83494 0
M  V30 3682 H 334.497 2.20109 -3.29193 0
M  V30 3683 H 335.671 -0.343613 -4.59517 0
M  V30 3684 H 333.986 -0.152527 -4.16121 0
M  V30 3685 H 336.583 2.57925 -4.68379 0
M  V30 3686 H 336.926 2.88712 -2.99919 0
M  V30 3687 H 337.459 1.35792 -3.73905 0
M  V30 3688 H 334.198 0.310342 -6.54765 0
M  V30 3689 H 333.718 1.80895 -5.71872 0
M  V30 3690 H 335.397 1.59043 -6.27148 0
M  V30 3691 N 335.529 1.53961 0.336706 0
M  V30 3692 C 336.775 1.7179 1.07777 0
M  V30 3693 C 337.108 0.483263 1.88091 0
M  V30 3694 O 336.383 -0.519747 1.87427 0
M  V30 3695 C 336.666 2.98558 2.01334 0
M  V30 3696 C 336.519 4.32245 1.24437 0
M  V30 3697 C 337.838 3.21023 3.01052 0
M  V30 3698 H 334.957 0.625089 0.390426 0
M  V30 3699 H 337.599 1.86641 0.35567 0
M  V30 3700 H 335.749 2.86028 2.62908 0
M  V30 3701 H 337.421 4.56637 0.654243 0
M  V30 3702 H 335.664 4.30344 0.546458 0
M  V30 3703 H 336.335 5.17137 1.93063 0
M  V30 3704 H 338.811 3.32929 2.49595 0
M  V30 3705 H 337.687 4.11104 3.6371 0
M  V30 3706 H 337.948 2.37637 3.72802 0
M  V30 3707 N 337.007 -0.598083 1.45811 0
M  V30 3708 C 338.255 -1.35413 1.50026 0
M  V30 3709 C 338.576 -1.94444 0.147177 0
M  V30 3710 O 337.846 -1.77701 -0.824571 0
M  V30 3711 H 336.426 -0.502727 0.552517 0
M  V30 3712 H 339.088 -0.701606 1.81834 0
M  V30 3713 H 338.184 -2.16871 2.2444 0
M  V30 3714 N 338.485 -1.33259 -0.841409 0
M  V30 3715 C 339.713 -1.27605 -1.62864 0
M  V30 3716 C 340.128 0.153507 -1.88175 0
M  V30 3717 O 339.485 1.09485 -1.46011 0
M  V30 3718 C 339.536 -2.04596 -2.98031 0
M  V30 3719 O 339.257 -3.41975 -2.73834 0
M  V30 3720 C 340.758 -2.06122 -3.92465 0
M  V30 3721 H 337.978 -0.439718 -0.506842 0
M  V30 3722 H 340.522 -1.75591 -1.04824 0
M  V30 3723 H 338.677 -1.60299 -3.5268 0
M  V30 3724 H 339.091 -3.81549 -3.59889 0
M  V30 3725 H 340.565 -2.64451 -4.84531 0
M  V30 3726 H 341.042 -1.05083 -4.26444 0
M  V30 3727 H 341.648 -2.50427 -3.43753 0
M  V30 3728 N 339.963 1.05934 -1.16686 0
M  V30 3729 C 340.926 2.11669 -0.879144 0
M  V30 3730 C 341.926 1.60294 0.127445 0
M  V30 3731 O 343.116 1.7389 -0.103865 0
M  V30 3732 C 340.248 3.39438 -0.315425 0
M  V30 3733 H 341.441 2.38626 -1.81653 0
M  V30 3734 H 338.994 1.22058 -0.976299 0
M  V30 3735 H 339.729 3.18132 0.629468 0
M  V30 3736 H 339.514 3.78034 -1.04079 0
M  V30 3737 H 341.004 4.17391 -0.132189 0
M  V30 3738 N 341.441 0.965919 1.2453 0
M  V30 3739 C 342.857 0.67216 1.44756 0
M  V30 3740 C 343.057 -0.766609 1.86347 0
M  V30 3741 O 342.113 -1.5407 2.00047 0
M  V30 3742 C 343.426 1.65473 2.51076 0
M  V30 3743 C 344.974 1.66716 2.64905 0
M  V30 3744 C 345.449 2.63766 3.74421 0
M  V30 3745 N 346.94 2.62198 3.81846 0
M  V30 3746 C 347.675 3.33966 4.66106 0
M  V30 3747 N 347.171 4.15245 5.54566 0
M  V30 3748 N 348.964 3.22799 4.60171 0
M  V30 3749 H 341.115 1.89553 0.958293 0
M  V30 3750 H 343.378 0.815979 0.482579 0
M  V30 3751 H 343.084 2.68296 2.27399 0
M  V30 3752 H 342.958 1.4261 3.49202 0
M  V30 3753 H 345.345 0.646057 2.87941 0
M  V30 3754 H 345.426 1.93642 1.67142 0
M  V30 3755 H 345.07 3.6601 3.52135 0
M  V30 3756 H 345 2.34121 4.71694 0
M  V30 3757 H 347.491 2.032 3.18619 0
M  V30 3758 H 347.804 4.66898 6.15814 0
M  V30 3759 H 346.149 4.1934 5.54237 0
M  V30 3760 H 349.34 2.58764 3.90075 0
M  V30 3761 H 349.513 3.78994 5.25612 0
M  V30 3762 N 342.919 -1.39368 0.735821 0
M  V30 3763 C 344.33 -1.83313 0.354015 0
M  V30 3764 C 344.681 -1.61461 -1.11466 0
M  V30 3765 O 343.806 -1.10621 -1.85989 0
M  V30 3766 C 344.401 -3.32781 0.635769 0
M  V30 3767 C 342.96 -3.75142 0.307448 0
M  V30 3768 C 342.107 -2.62358 0.897974 0
M  V30 3769 H 345.058 -1.28349 0.933398 0
M  V30 3770 H 345.079 -3.80388 -0.0921773 0
M  V30 3771 H 344.591 -3.48654 1.70476 0
M  V30 3772 H 342.692 -3.64857 -0.755674 0
M  V30 3773 H 342.805 -4.72532 0.790583 0
M  V30 3774 H 341.169 -2.52624 0.324551 0
M  V30 3775 H 341.952 -2.81036 1.97164 0
M  V30 3776 N 344.397 -0.483516 -1.5 0
M  V30 3777 C 345.674 0.129337 -1.95172 0
M  V30 3778 C 346.054 1.55802 -1.4244 0
M  V30 3779 O 345.402 2.19625 -0.630649 0
M  V30 3780 C 345.612 0.0599251 -3.48949 0
M  V30 3781 C 346.96 0.242617 -4.23906 0
M  V30 3782 O 347.984 0.135933 -3.55941 0
M  V30 3783 O 346.843 0.459454 -5.44565 0
M  V30 3784 H 343.937 0.104887 -0.820322 0
M  V30 3785 H 346.483 -0.544807 -1.60717 0
M  V30 3786 H 345.255 -0.937079 -3.79914 0
M  V30 3787 H 344.878 0.774984 -3.89974 0
M  V30 3788 N 345.875 1.56104 -0.216619 0
M  V30 3789 C 346.785 2.23694 0.706982 0
M  V30 3790 C 347.801 1.24295 1.21765 0
M  V30 3791 O 348.977 1.57094 1.2603 0
M  V30 3792 C 346.042 2.8998 1.90033 0
M  V30 3793 C 345.103 4.04708 1.43213 0
M  V30 3794 C 344.336 4.67824 2.56859 0
M  V30 3795 O 344.559 4.29913 3.74874 0
M  V30 3796 O 343.493 5.56905 2.28343 0
M  V30 3797 H 347.319 3.03272 0.161235 0
M  V30 3798 H 344.904 1.49394 0.0136177 0
M  V30 3799 H 346.786 3.31837 2.59735 0
M  V30 3800 H 345.461 2.13365 2.43428 0
M  V30 3801 H 344.368 3.6743 0.70327 0
M  V30 3802 H 345.701 4.83051 0.944615 0
M  V30 3803 N 347.353 -0.0568162 1.57498 0
M  V30 3804 C 348.3 -1.06591 2.04712 0
M  V30 3805 C 349.27 -1.3758 0.930644 0
M  V30 3806 O 350.455 -1.48392 1.19935 0
M  V30 3807 C 347.595 -2.3701 2.50839 0
M  V30 3808 C 346.708 -2.12421 3.76167 0
M  V30 3809 C 345.843 -3.36511 4.11015 0
M  V30 3810 C 344.882 -3.07353 5.2934 0
M  V30 3811 N 344.019 -4.23816 5.59754 0
M  V30 3812 H 348.859 -0.65631 2.90683 0
M  V30 3813 H 346.396 -0.312481 1.43743 0
M  V30 3814 H 348.354 -3.13175 2.7564 0
M  V30 3815 H 346.984 -2.75744 1.67825 0
M  V30 3816 H 346.036 -1.2688 3.58616 0
M  V30 3817 H 347.348 -1.86894 4.62463 0
M  V30 3818 H 346.502 -4.21062 4.36797 0
M  V30 3819 H 345.241 -3.65128 3.23315 0
M  V30 3820 H 344.246 -2.212 5.03339 0
M  V30 3821 H 345.471 -2.80043 6.1867 0
M  V30 3822 H 343.417 -4.52436 4.75014 0
M  V30 3823 H 343.334 -4.01614 6.40501 0
M  V30 3824 H 344.602 -5.0932 5.90096 0
M  V30 3825 N 348.832 -1.54138 -0.328536 0
M  V30 3826 C 349.795 -1.82462 -1.38709 0
M  V30 3827 C 350.795 -0.696229 -1.44946 0
M  V30 3828 O 351.985 -0.964535 -1.4506 0
M  V30 3829 C 349.117 -1.98018 -2.77492 0
M  V30 3830 H 350.31 -2.77037 -1.14851 0
M  V30 3831 H 347.863 -1.45779 -0.563751 0
M  V30 3832 H 348.598 -1.05637 -3.06613 0
M  V30 3833 H 348.383 -2.80124 -2.74359 0
M  V30 3834 H 349.873 -2.21396 -3.54081 0
M  V30 3835 N 350.31 0.590341 -1.46126 0
M  V30 3836 C 351.559 1.34499 -1.50309 0
M  V30 3837 C 351.872 1.94977 -0.156021 0
M  V30 3838 O 353.078 2.71395 -0.0756037 0
M  V30 3839 C 351.534 2.43723 -2.64815 0
M  V30 3840 C 351.142 1.89582 -4.0591 0
M  V30 3841 C 352.886 3.20579 -2.78262 0
M  V30 3842 C 350.793 2.9639 -5.11769 0
M  V30 3843 H 349.723 0.505593 -0.559368 0
M  V30 3844 H 352.374 0.630848 -1.72315 0
M  V30 3845 H 350.756 3.17902 -2.36124 0
M  V30 3846 H 351.93 1.21997 -4.44357 0
M  V30 3847 H 350.245 1.25418 -3.97063 0
M  V30 3848 H 352.842 4.00276 -3.54519 0
M  V30 3849 H 353.185 3.72684 -1.85505 0
M  V30 3850 H 353.718 2.53505 -3.06562 0
M  V30 3851 H 350.457 2.49181 -6.06291 0
M  V30 3852 H 349.977 3.62487 -4.77873 0
M  V30 3853 H 351.656 3.60474 -5.37278 0
M  V30 3854 N 351.788 1.33704 0.83433 0
M  V30 3855 C 352.721 1.18675 1.94914 0
M  V30 3856 C 353.699 0.0811145 1.62398 0
M  V30 3857 O 354.883 0.244186 1.86912 0
M  V30 3858 C 352.01 0.821231 3.28593 0
M  V30 3859 C 351.056 1.93501 3.80079 0
M  V30 3860 S 351.889 3.54671 4.01209 0
M  V30 3861 C 353.045 3.20136 5.37833 0
M  V30 3862 H 353.278 2.13043 2.07364 0
M  V30 3863 H 350.811 1.18598 0.988624 0
M  V30 3864 H 352.769 0.617123 4.05835 0
M  V30 3865 H 351.43 -0.103927 3.13928 0
M  V30 3866 H 350.623 1.63273 4.76821 0
M  V30 3867 H 350.225 2.09601 3.09747 0
M  V30 3868 H 352.517 2.71242 6.20833 0
M  V30 3869 H 353.46 4.15975 5.73036 0
M  V30 3870 H 353.868 2.56613 5.02802 0
M  V30 3871 N 353.266 -1.05314 1.17247 0
M  V30 3872 C 354.494 -1.81971 0.984593 0
M  V30 3873 C 354.909 -1.82929 -0.467166 0
M  V30 3874 O 354.266 -1.25564 -1.32438 0
M  V30 3875 C 354.317 -3.28143 1.51672 0
M  V30 3876 O 354.038 -3.27347 2.91163 0
M  V30 3877 C 355.539 -4.21493 1.37326 0
M  V30 3878 H 352.759 -0.573455 0.348411 0
M  V30 3879 H 355.303 -1.32808 1.55506 0
M  V30 3880 H 353.458 -3.74582 0.988302 0
M  V30 3881 H 353.872 -4.18824 3.15732 0
M  V30 3882 H 355.346 -5.22043 1.79375 0
M  V30 3883 H 355.823 -4.38031 0.320169 0
M  V30 3884 H 356.429 -3.80909 1.89178 0
M  V30 3885 N 354.744 -0.972509 -1.24016 0
M  V30 3886 C 355.974 -0.653853 -1.9598 0
M  V30 3887 C 356.382 0.781801 -1.72292 0
M  V30 3888 O 355.725 1.53677 -1.00644 0
M  V30 3889 C 355.787 -0.854608 -3.49194 0
M  V30 3890 C 355.451 -2.27082 -3.96589 0
M  V30 3891 C 356.448 -3.24892 -4.05883 0
M  V30 3892 C 354.133 -2.5998 -4.29786 0
M  V30 3893 C 356.127 -4.53684 -4.47716 0
M  V30 3894 C 353.814 -3.88997 -4.71301 0
M  V30 3895 C 354.812 -4.85661 -4.80232 0
M  V30 3896 O 354.5 -6.12376 -5.20818 0
M  V30 3897 H 354.232 -0.242572 -0.630979 0
M  V30 3898 H 356.786 -1.30431 -1.58673 0
M  V30 3899 H 355.016 -0.146985 -3.86421 0
M  V30 3900 H 356.705 -0.534311 -4.02368 0
M  V30 3901 H 357.471 -3.00805 -3.80449 0
M  V30 3902 H 353.35 -1.85457 -4.22051 0
M  V30 3903 H 356.894 -5.29135 -4.54601 0
M  V30 3904 H 352.791 -4.12882 -4.96184 0
M  V30 3905 H 353.559 -6.16013 -5.38953 0
M  V30 3906 N 356.222 1.38976 -0.743202 0
M  V30 3907 C 357.468 2.0064 -0.295189 0
M  V30 3908 C 357.801 1.5885 1.11716 0
M  V30 3909 O 357.076 0.821181 1.76315 0
M  V30 3910 C 357.359 3.578 -0.406318 0
M  V30 3911 C 357.212 4.09586 -1.85903 0
M  V30 3912 C 358.531 4.39616 0.206439 0
M  V30 3913 H 355.65 0.728935 -0.108733 0
M  V30 3914 H 358.292 1.65067 -0.940897 0
M  V30 3915 H 356.442 3.88235 0.143419 0
M  V30 3916 H 358.114 3.89837 -2.46627 0
M  V30 3917 H 356.357 3.6284 -2.3776 0
M  V30 3918 H 357.028 5.18708 -1.888 0
M  V30 3919 H 359.504 4.15273 -0.262283 0
M  V30 3920 H 358.38 5.48812 0.0983819 0
M  V30 3921 H 358.641 4.22754 1.2935 0
M  V30 3922 N 357.7 0.491464 1.49741 0
M  V30 3923 C 358.925 -0.0557177 2.07325 0
M  V30 3924 C 359.35 -1.30925 1.35056 0
M  V30 3925 O 358.708 -1.76733 0.404365 0
M  V30 3926 C 358.756 -0.302074 3.59333 0
M  V30 3927 O 357.86 -1.37868 3.88672 0
M  V30 3928 H 357.201 0.0219956 0.663636 0
M  V30 3929 H 359.731 0.688352 1.92673 0
M  V30 3930 H 359.741 -0.536464 4.04458 0
M  V30 3931 H 358.416 0.61383 4.11345 0
M  V30 3932 H 356.993 -1.12999 3.55367 0
M  V30 3933 N 359.178 -1.55987 0.224894 0
M  V30 3934 C 360.403 -2.03232 -0.41369 0
M  V30 3935 C 360.828 -1.10359 -1.52323 0
M  V30 3936 O 360.186 -0.092395 -1.81064 0
M  V30 3937 C 360.234 -3.48682 -0.919405 0
M  V30 3938 O 359.338 -3.58947 -2.03054 0
M  V30 3939 H 358.679 -0.657428 -0.0931903 0
M  V30 3940 H 361.209 -2.01679 0.34451 0
M  V30 3941 H 361.219 -3.8907 -1.22835 0
M  V30 3942 H 359.894 -4.15761 -0.107339 0
M  V30 3943 H 358.471 -3.30448 -1.72796 0
M  V30 3944 N 360.656 0.0484629 -1.57525 0
M  V30 3945 C 361.903 0.743125 -1.88372 0
M  V30 3946 C 362.231 1.76383 -0.819715 0
M  V30 3947 O 361.486 1.94855 0.181659 0
M  V30 3948 C 361.785 1.46632 -3.25935 0
M  V30 3949 C 361.451 0.583427 -4.4711 0
M  V30 3950 C 360.113 0.340191 -4.79996 0
M  V30 3951 C 362.465 -0.0273345 -5.21193 0
M  V30 3952 C 359.793 -0.522903 -5.84365 0
M  V30 3953 C 362.145 -0.878017 -6.26477 0
M  V30 3954 C 360.809 -1.1309 -6.5785 0
M  V30 3955 H 360.079 0.271929 -0.689301 0
M  V30 3956 H 362.726 0.00336166 -1.915 0
M  V30 3957 H 361.031 2.2789 -3.18706 0
M  V30 3958 H 362.728 2.00902 -3.47044 0
M  V30 3959 H 359.318 0.783151 -4.21384 0
M  V30 3960 H 363.502 0.147654 -4.9608 0
M  V30 3961 H 358.758 -0.727335 -6.07058 0
M  V30 3962 H 362.932 -1.35789 -6.83033 0
M  V30 3963 H 360.559 -1.80144 -7.38547 0
M  V30 3964 N 362.134 1.5431 0.320358 0
M  V30 3965 C 363.364 1.7638 1.07582 0
M  V30 3966 C 363.772 0.513944 1.82086 0
M  V30 3967 O 363.115 -0.525123 1.76035 0
M  V30 3968 C 363.177 2.9055 2.1171 0
M  V30 3969 C 362.841 4.2934 1.56575 0
M  V30 3970 C 363.838 5.10077 1.00586 0
M  V30 3971 C 361.523 4.75893 1.60722 0
M  V30 3972 C 363.517 6.35477 0.494756 0
M  V30 3973 C 361.204 6.0126 1.09224 0
M  V30 3974 C 362.202 6.80886 0.53696 0
M  V30 3975 O 361.89 8.03894 0.0297371 0
M  V30 3976 H 361.622 0.592369 0.325692 0
M  V30 3977 H 364.176 2.02019 0.37116 0
M  V30 3978 H 362.406 2.60489 2.85801 0
M  V30 3979 H 364.095 3.00373 2.73003 0
M  V30 3980 H 364.861 4.75265 0.966869 0
M  V30 3981 H 360.74 4.13957 2.02882 0
M  V30 3982 H 364.284 6.97574 0.0606842 0
M  V30 3983 H 360.181 6.35562 1.12831 0
M  V30 3984 H 360.949 8.18372 0.14486 0
M  V30 3985 N 363.613 -0.582584 1.46437 0
M  V30 3986 C 364.563 -1.68654 1.53426 0
M  V30 3987 C 365.547 -1.55971 0.395194 0
M  V30 3988 O 366.739 -1.64884 0.643612 0
M  V30 3989 C 363.868 -3.07439 1.52762 0
M  V30 3990 C 362.954 -3.25418 2.71963 0
M  V30 3991 N 363.345 -3.13556 3.96883 0
M  V30 3992 C 361.643 -3.56357 2.68189 0
M  V30 3993 C 362.344 -3.33543 4.76575 0
M  V30 3994 N 361.32 -3.58704 4.08451 0
M  V30 3995 H 365.122 -1.58014 2.47808 0
M  V30 3996 H 362.636 -0.786617 1.42078 0
M  V30 3997 H 364.633 -3.86671 1.55857 0
M  V30 3998 H 363.293 -3.1921 0.594573 0
M  V30 3999 H 364.304 -2.9142 4.28129 0
M  V30 4000 H 360.981 -3.74812 1.83908 0
M  V30 4001 H 362.371 -3.29555 5.85528 0
M  V30 4002 N 365.091 -1.34144 -0.827227 0
M  V30 4003 C 366.054 -1.25264 -1.91942 0
M  V30 4004 C 367.054 -0.168866 -1.59911 0
M  V30 4005 O 368.244 -0.421198 -1.69031 0
M  V30 4006 C 365.376 -0.932952 -3.27885 0
M  V30 4007 H 366.569 -2.22357 -2.0124 0
M  V30 4008 H 364.122 -1.1837 -1.0207 0
M  V30 4009 H 364.857 0.0349917 -3.24281 0
M  V30 4010 H 364.642 -1.71682 -3.52516 0
M  V30 4011 H 366.132 -0.895874 -4.07877 0
M  V30 4012 N 366.569 1.04691 -1.17803 0
M  V30 4013 C 367.816 1.77782 -0.969532 0
M  V30 4014 C 368.144 1.87926 0.501401 0
M  V30 4015 O 367.399 1.37918 1.38842 0
M  V30 4016 C 367.698 3.21467 -1.56186 0
M  V30 4017 C 367.364 3.3137 -3.05786 0
M  V30 4018 C 366.026 3.3378 -3.46619 0
M  V30 4019 C 368.378 3.31976 -4.01797 0
M  V30 4020 C 365.706 3.34431 -4.82051 0
M  V30 4021 C 368.058 3.34167 -5.37136 0
M  V30 4022 C 366.722 3.34866 -5.77426 0
M  V30 4023 H 365.992 0.650549 -0.354777 0
M  V30 4024 H 368.639 1.23006 -1.46772 0
M  V30 4025 H 366.944 3.79203 -0.985515 0
M  V30 4026 H 368.641 3.76652 -1.37602 0
M  V30 4027 H 365.231 3.3021 -2.73238 0
M  V30 4028 H 369.415 3.29311 -3.71306 0
M  V30 4029 H 364.671 3.33285 -5.12573 0
M  V30 4030 H 368.845 3.33585 -6.11305 0
M  V30 4031 H 366.472 3.35124 -6.82346 0
M  V30 4032 N 368.047 0.979072 1.23499 0
M  V30 4033 C 369.272 0.664845 1.96455 0
M  V30 4034 C 369.697 -0.761287 1.72006 0
M  V30 4035 O 369.055 -1.51837 0.990713 0
M  V30 4036 C 369.103 0.959479 3.47601 0
M  V30 4037 O 368.207 0.0508168 4.12369 0
M  V30 4038 H 367.548 0.250185 0.615064 0
M  V30 4039 H 370.078 1.31231 1.5697 0
M  V30 4040 H 370.088 0.895642 3.98048 0
M  V30 4041 H 368.763 1.99876 3.64723 0
M  V30 4042 H 367.34 0.16895 3.72517 0
M  V30 4043 N 369.525 -1.3858 0.750561 0
M  V30 4044 C 370.773 -1.99789 0.30477 0
M  V30 4045 C 371.094 -1.59874 -1.11649 0
M  V30 4046 O 370.364 -0.85417 -1.76297 0
M  V30 4047 H 368.944 -0.738902 0.109694 0
M  V30 4048 H 371.606 -1.69391 0.963983 0
M  V30 4049 H 370.702 -3.09952 0.365499 0
M  V30 4050 N 371.003 -0.499398 -1.49478 0
M  V30 4051 C 371.966 0.268838 -2.27618 0
M  V30 4052 C 372.966 0.895383 -1.33565 0
M  V30 4053 O 374.156 0.760164 -1.56739 0
M  V30 4054 C 371.288 1.38559 -3.11471 0
M  V30 4055 H 372.481 -0.416812 -2.96989 0
M  V30 4056 H 370.034 -0.254313 -1.54217 0
M  V30 4057 H 370.769 2.10544 -2.46661 0
M  V30 4058 H 370.554 0.941797 -3.80621 0
M  V30 4059 H 372.044 1.92678 -3.70493 0
M  V30 4060 N 372.481 1.55866 -0.233164 0
M  V30 4061 C 373.413 2.18099 0.704668 0
M  V30 4062 C 374.426 1.15334 1.14899 0
M  V30 4063 O 375.615 1.42262 1.07814 0
M  V30 4064 C 372.715 2.7592 1.96777 0
M  V30 4065 C 371.888 4.03969 1.67713 0
M  V30 4066 C 370.947 4.46242 2.78845 0
M  V30 4067 O 369.973 5.12903 2.46818 0
M  V30 4068 N 371.175 4.12886 4.08051 0
M  V30 4069 H 373.94 2.99205 0.172258 0
M  V30 4070 H 371.501 1.61815 -0.0525945 0
M  V30 4071 H 373.493 3.01165 2.70337 0
M  V30 4072 H 372.063 1.99051 2.41034 0
M  V30 4073 H 371.283 3.86459 0.777391 0
M  V30 4074 H 372.571 4.8748 1.4574 0
M  V30 4075 H 371.969 3.59342 4.3691 0
M  V30 4076 H 370.526 4.42997 4.78118 0
M  V30 4077 N 373.959 -0.0401083 1.57549 0
M  V30 4078 C 374.906 -1.04413 2.05831 0
M  V30 4079 C 375.876 -1.36585 0.945184 0
M  V30 4080 O 377.061 -1.47112 1.21502 0
M  V30 4081 C 374.201 -2.34336 2.53339 0
M  V30 4082 C 373.314 -2.08419 3.78398 0
M  V30 4083 C 372.449 -3.32133 4.14561 0
M  V30 4084 C 371.488 -3.01721 5.3257 0
M  V30 4085 N 370.625 -4.17855 5.64218 0
M  V30 4086 H 375.465 -0.625442 2.91363 0
M  V30 4087 H 373.002 -0.297218 1.44066 0
M  V30 4088 H 374.96 -3.10234 2.78946 0
M  V30 4089 H 373.59 -2.73948 1.7074 0
M  V30 4090 H 372.642 -1.23069 3.59942 0
M  V30 4091 H 373.954 -1.81978 4.64419 0
M  V30 4092 H 373.108 -4.16406 4.41238 0
M  V30 4093 H 371.847 -3.61678 3.2717 0
M  V30 4094 H 370.852 -2.15849 5.05657 0
M  V30 4095 H 372.077 -2.73466 6.21605 0
M  V30 4096 H 370.023 -4.47372 4.79786 0
M  V30 4097 H 369.94 -3.94798 6.44725 0
M  V30 4098 H 371.208 -5.03033 5.95465 0
M  V30 4099 N 375.437 -1.54477 -0.31217 0
M  V30 4100 C 376.4 -1.83923 -1.36766 0
M  V30 4101 C 377.4 -0.711563 -1.44199 0
M  V30 4102 O 378.59 -0.979866 -1.44029 0
M  V30 4103 C 375.722 -2.0095 -2.75376 0
M  V30 4104 H 376.915 -2.78239 -1.11906 0
M  V30 4105 H 374.468 -1.46369 -0.548257 0
M  V30 4106 H 375.203 -1.08883 -3.05475 0
M  V30 4107 H 374.988 -2.83018 -2.71373 0
M  V30 4108 H 376.478 -2.2514 -3.51713 0
M  V30 4109 N 376.915 0.57481 -1.46744 0
M  V30 4110 C 377.825 1.711 -1.60505 0
M  V30 4111 C 378.841 1.67008 -0.488307 0
M  V30 4112 O 380.017 1.86774 -0.753495 0
M  V30 4113 C 377.082 3.07608 -1.59932 0
M  V30 4114 C 376.143 3.22904 -2.82898 0
M  V30 4115 C 375.376 4.529 -2.82343 0
M  V30 4116 O 375.599 5.37278 -1.91542 0
M  V30 4117 O 374.533 4.71611 -3.73987 0
M  V30 4118 H 378.359 1.62436 -2.56609 0
M  V30 4119 H 375.944 0.742779 -1.29627 0
M  V30 4120 H 377.826 3.88877 -1.62336 0
M  V30 4121 H 376.501 3.16692 -0.669898 0
M  V30 4122 H 375.408 2.41099 -2.86046 0
M  V30 4123 H 376.741 3.18715 -3.75076 0
M  V30 4124 N 378.394 1.34581 0.820102 0
M  V30 4125 C 379.622 1.3018 1.60813 0
M  V30 4126 C 380.037 -0.123551 1.88395 0
M  V30 4127 O 379.394 -1.07148 1.47735 0
M  V30 4128 C 379.445 2.09312 2.94739 0
M  V30 4129 O 379.166 3.46288 2.68358 0
M  V30 4130 C 380.667 2.1234 3.89136 0
M  V30 4131 H 377.887 0.447726 0.499782 0
M  V30 4132 H 380.431 1.77237 1.02017 0
M  V30 4133 H 378.586 1.65889 3.50085 0
M  V30 4134 H 379 3.87227 3.53774 0
M  V30 4135 H 380.474 2.72126 4.80262 0
M  V30 4136 H 380.951 1.11854 4.24718 0
M  V30 4137 H 381.557 2.55864 3.39726 0
M  V30 4138 N 379.872 -1.04064 1.18357 0
M  V30 4139 C 380.835 -2.10243 0.912707 0
M  V30 4140 C 381.835 -1.60477 -0.101928 0
M  V30 4141 O 383.025 -1.73703 0.131517 0
M  V30 4142 C 380.157 -3.38893 0.369387 0
M  V30 4143 H 381.35 -2.35706 1.85426 0
M  V30 4144 H 378.903 -1.20489 0.995594 0
M  V30 4145 H 379.638 -3.19094 -0.578776 0
M  V30 4146 H 379.423 -3.76331 1.1008 0
M  V30 4147 H 380.913 -4.17128 0.198575 0
M  V30 4148 N 381.35 -0.985608 -1.22978 0
M  V30 4149 C 382.313 -0.535071 -2.22867 0
M  V30 4150 C 383.313 0.378123 -1.56291 0
M  V30 4151 O 384.503 0.171092 -1.73358 0
M  V30 4152 C 381.635 0.222702 -3.40172 0
M  V30 4153 H 382.828 -1.41835 -2.6424 0
M  V30 4154 H 380.381 -0.772042 -1.35901 0
M  V30 4155 H 381.116 1.12229 -3.04262 0
M  V30 4156 H 380.901 -0.43288 -3.89703 0
M  V30 4157 H 382.391 0.526335 -4.1427 0
M  V30 4158 N 382.828 1.3818 -0.7579 0
M  V30 4159 C 383.776 2.32277 -0.122482 0
M  V30 4160 C 384.77 1.54238 0.700505 0
M  V30 4161 O 385.976 1.69737 0.599119 0
M  V30 4162 H 382.351 0.751712 -0.0208143 0
M  V30 4163 H 384.322 2.83469 -0.932099 0
M  V30 4164 C 383.071 3.39447 0.753076 0
M  V30 4165 H 382.394 3.99591 0.129184 0
M  V30 4166 H 383.834 4.07684 1.16489 0
M  V30 4167 C 382.293 2.78375 1.8976 0
M  V30 4168 O 382.823 2.68025 2.99208 0
M  V30 4169 N 381.029 2.36121 1.69397 0
M  V30 4170 H 380.576 2.4474 0.803762 0
M  V30 4171 H 380.534 1.95602 2.46145 0
M  V30 4172 N 384.306 0.507319 1.49211 0
M  V30 4173 C 385.722 0.163682 1.58758 0
M  V30 4174 C 385.922 -1.33208 1.51188 0
M  V30 4175 O 384.978 -2.10855 1.38911 0
M  V30 4176 C 386.291 0.746095 2.91297 0
M  V30 4177 C 387.839 0.712773 3.04776 0
M  V30 4178 C 388.314 1.27336 4.39943 0
M  V30 4179 N 389.805 1.23433 4.46451 0
M  V30 4180 C 390.54 1.63821 5.495 0
M  V30 4181 N 390.036 2.11832 6.5962 0
M  V30 4182 N 391.829 1.55198 5.4025 0
M  V30 4183 H 383.98 1.47972 1.52375 0
M  V30 4184 H 386.243 0.614147 0.722168 0
M  V30 4185 H 385.949 1.79534 3.02424 0
M  V30 4186 H 385.823 0.210137 3.76614 0
M  V30 4187 H 388.21 -0.327656 2.93275 0
M  V30 4188 H 388.291 1.28595 2.21127 0
M  V30 4189 H 387.935 2.3126 4.52196 0
M  V30 4190 H 387.865 0.676066 5.22242 0
M  V30 4191 H 390.356 0.882627 3.67448 0
M  V30 4192 H 390.669 2.40703 7.34358 0
M  V30 4193 H 389.014 2.1581 6.60644 0
M  V30 4194 H 392.205 1.17505 4.53112 0
M  V30 4195 H 392.378 1.86997 6.20432 0
M  V30 4196 N 385.784 -1.5574 0.241426 0
M  V30 4197 C 387.033 -1.97986 -0.385295 0
M  V30 4198 C 387.346 -1.13267 -1.59468 0
M  V30 4199 O 388.552 -1.45501 -2.2922 0
M  V30 4200 C 387.008 -3.52275 -0.736884 0
M  V30 4201 C 386.616 -4.45726 0.450796 0
M  V30 4202 C 388.36 -4.03189 -1.3281 0
M  V30 4203 C 386.267 -5.91352 0.0756662 0
M  V30 4204 H 385.197 -0.739386 -0.147731 0
M  V30 4205 H 387.848 -1.80308 0.340779 0
M  V30 4206 H 386.23 -3.65628 -1.52094 0
M  V30 4207 H 387.404 -4.44131 1.22819 0
M  V30 4208 H 385.719 -4.05264 0.956573 0
M  V30 4209 H 388.316 -5.09505 -1.62201 0
M  V30 4210 H 388.659 -3.50212 -2.25071 0
M  V30 4211 H 389.192 -3.93141 -0.607069 0
M  V30 4212 H 385.931 -6.48354 0.965272 0
M  V30 4213 H 385.451 -5.96095 -0.665635 0
M  V30 4214 H 387.13 -6.46084 -0.344075 0
M  V30 4215 N 387.262 0.0317525 -1.57568 0
M  V30 4216 C 388.502 0.727979 -1.90997 0
M  V30 4217 C 388.866 1.72664 -0.839708 0
M  V30 4218 O 390.067 2.47092 -1.05825 0
M  V30 4219 C 388.338 1.38239 -3.29583 0
M  V30 4220 S 389.897 2.10814 -3.84841 0
M  V30 4221 H 386.715 0.241226 -0.668828 0
M  V30 4222 H 389.317 -0.0173037 -1.95492 0
M  V30 4223 H 388.021 0.642288 -4.05343 0
M  V30 4224 H 387.552 2.16628 -3.28384 0
M  V30 4225 H 389.567 3.3792 -3.63352 0
M  V30 4226 N 388.74 1.54641 0.303973 0
M  V30 4227 C 389.687 1.85386 1.37479 0
M  V30 4228 C 390.657 0.702528 1.50512 0
M  V30 4229 O 391.842 0.950867 1.65418 0
M  V30 4230 C 388.982 2.10413 2.73533 0
M  V30 4231 C 388.095 3.38049 2.68974 0
M  V30 4232 C 387.23 3.52934 3.97002 0
M  V30 4233 C 386.269 4.74373 3.86829 0
M  V30 4234 N 385.406 4.8608 5.06627 0
M  V30 4235 H 390.246 2.76732 1.1056 0
M  V30 4236 H 387.783 1.37034 0.534805 0
M  V30 4237 H 389.741 2.22919 3.52652 0
M  V30 4238 H 388.371 1.22338 2.98719 0
M  V30 4239 H 387.423 3.3418 1.81736 0
M  V30 4240 H 388.735 4.27288 2.57346 0
M  V30 4241 H 387.889 3.65088 4.84557 0
M  V30 4242 H 386.628 2.61824 4.1146 0
M  V30 4243 H 385.633 4.62255 2.97658 0
M  V30 4244 H 386.858 5.66888 3.73918 0
M  V30 4245 H 384.804 3.97891 5.21554 0
M  V30 4246 H 384.721 5.69315 4.9741 0
M  V30 4247 H 385.989 5.02587 5.95841 0
M  V30 4248 N 390.218 -0.567019 1.47046 0
M  V30 4249 C 391.464 -1.32658 1.53394 0
M  V30 4250 C 391.797 -1.93254 0.19148 0
M  V30 4251 O 391.072 -1.77338 -0.798844 0
M  V30 4252 C 391.355 -2.44412 2.64452 0
M  V30 4253 C 391.208 -1.88749 4.08282 0
M  V30 4254 C 392.527 -3.46387 2.71485 0
M  V30 4255 H 389.646 -0.48098 0.558415 0
M  V30 4256 H 392.288 -0.635481 1.79058 0
M  V30 4257 H 390.438 -3.03363 2.427 0
M  V30 4258 H 392.11 -1.34134 4.41368 0
M  V30 4259 H 390.353 -1.19481 4.17021 0
M  V30 4260 H 391.024 -2.69491 4.81745 0
M  V30 4261 H 393.5 -2.9734 2.91081 0
M  V30 4262 H 392.376 -4.2202 3.50985 0
M  V30 4263 H 392.637 -4.04616 1.78153 0
M  V30 4264 N 391.696 -1.35014 -0.812953 0
M  V30 4265 C 392.626 -1.30069 -1.93919 0
M  V30 4266 C 393.607 -0.176275 -1.69184 0
M  V30 4267 O 394.792 -0.370227 -1.90638 0
M  V30 4268 C 391.922 -1.06547 -3.30552 0
M  V30 4269 C 390.876 -2.15561 -3.69753 0
M  V30 4270 C 390.202 -1.77214 -5.04479 0
M  V30 4271 C 391.502 -3.57476 -3.808 0
M  V30 4272 H 393.196 -2.24303 -1.98314 0
M  V30 4273 H 390.742 -1.07977 -0.952736 0
M  V30 4274 H 392.695 -1.01729 -4.08937 0
M  V30 4275 H 391.419 -0.0875719 -3.26483 0
M  V30 4276 H 390.078 -2.19466 -2.9365 0
M  V30 4277 H 389.726 -0.780589 -4.96906 0
M  V30 4278 H 389.426 -2.50184 -5.31678 0
M  V30 4279 H 390.95 -1.7391 -5.8531 0
M  V30 4280 H 392.364 -3.55929 -4.4943 0
M  V30 4281 H 390.761 -4.29152 -4.19462 0
M  V30 4282 H 391.831 -3.94091 -2.82525 0
M  V30 4283 N 393.175 1.03435 -1.18907 0
M  V30 4284 C 394.138 2.09756 -0.923844 0
M  V30 4285 C 395.138 1.60528 0.093416 0
M  V30 4286 O 396.328 1.73631 -0.140727 0
M  V30 4287 C 393.46 3.38692 -0.387354 0
M  V30 4288 H 394.653 2.34719 -1.86674 0
M  V30 4289 H 392.206 1.19959 -1.00197 0
M  V30 4290 H 392.941 3.19396 0.561845 0
M  V30 4291 H 392.726 3.75742 -1.12074 0
M  V30 4292 H 394.216 4.17016 -0.220694 0
M  V30 4293 N 394.653 0.992116 1.22453 0
M  V30 4294 C 395.899 0.668523 1.91464 0
M  V30 4295 C 396.232 -0.797313 1.77078 0
M  V30 4296 O 395.507 -1.5765 1.13916 0
M  V30 4297 C 395.79 1.07424 3.43703 0
M  V30 4298 C 395.643 2.59857 3.67143 0
M  V30 4299 C 396.962 0.626891 4.35612 0
M  V30 4300 H 394.081 0.244341 0.695318 0
M  V30 4301 H 396.723 1.2355 1.44345 0
M  V30 4302 H 394.873 0.591816 3.83966 0
M  V30 4303 H 396.545 3.15764 3.3629 0
M  V30 4304 H 394.788 3.01961 3.11451 0
M  V30 4305 H 395.459 2.83296 4.73759 0
M  V30 4306 H 397.935 1.04125 4.02861 0
M  V30 4307 H 396.811 0.939076 5.40807 0
M  V30 4308 H 397.072 -0.472457 4.39568 0
M  V30 4309 N 396.131 -1.37776 0.765217 0
M  V30 4310 C 397.079 -2.32209 0.134798 0
M  V30 4311 C 398.073 -1.54607 -0.692315 0
M  V30 4312 O 399.279 -1.70052 -0.590109 0
M  V30 4313 H 395.654 -0.751591 0.0248005 0
M  V30 4314 H 397.625 -2.8297 0.947119 0
M  V30 4315 C 396.374 -3.39841 -0.735063 0
M  V30 4316 H 395.697 -3.99654 -0.107991 0
M  V30 4317 H 397.137 -4.08296 -1.14326 0
M  V30 4318 C 395.596 -2.79378 -1.88281 0
M  V30 4319 O 396.126 -2.69608 -2.97783 0
M  V30 4320 N 394.332 -2.37016 -1.68142 0
M  V30 4321 H 393.879 -2.45162 -0.790772 0
M  V30 4322 H 393.837 -1.96905 -2.45104 0
M  V30 4323 N 397.609 -0.515225 -1.4894 0
M  V30 4324 C 398.541 0.292481 -2.27326 0
M  V30 4325 C 399.554 0.917838 -1.3446 0
M  V30 4326 O 400.743 0.798772 -1.5963 0
M  V30 4327 C 397.843 1.42803 -3.07344 0
M  V30 4328 C 397.016 0.907347 -4.27885 0
M  V30 4329 C 396.075 1.92222 -4.89834 0
M  V30 4330 O 395.101 1.48506 -5.49486 0
M  V30 4331 N 396.303 3.25355 -4.80754 0
M  V30 4332 H 399.068 -0.379721 -2.97285 0
M  V30 4333 H 396.629 -0.348638 -1.58102 0
M  V30 4334 H 398.621 2.10481 -3.45658 0
M  V30 4335 H 397.191 2.00414 -2.39902 0
M  V30 4336 H 396.411 0.0550218 -3.94162 0
M  V30 4337 H 397.699 0.538108 -5.05946 0
M  V30 4338 H 397.097 3.6355 -4.33414 0
M  V30 4339 H 395.654 3.88707 -5.23211 0
M  V30 4340 N 399.087 1.5561 -0.249682 0
M  V30 4341 C 399.997 2.25143 0.659375 0
M  V30 4342 C 401.013 1.2685 1.19101 0
M  V30 4343 O 402.189 1.59732 1.22669 0
M  V30 4344 C 399.254 2.93945 1.8384 0
M  V30 4345 C 398.315 4.07655 1.34596 0
M  V30 4346 C 397.548 4.73167 2.46878 0
M  V30 4347 O 397.771 4.37768 3.65671 0
M  V30 4348 O 396.705 5.61623 2.16478 0
M  V30 4349 H 400.531 3.03545 0.0968698 0
M  V30 4350 H 398.116 1.49389 -0.018074 0
M  V30 4351 H 399.998 3.37271 2.52638 0
M  V30 4352 H 398.673 2.18481 2.38847 0
M  V30 4353 H 397.58 3.68839 0.625174 0
M  V30 4354 H 398.913 4.84946 0.841941 0
M  V30 4355 N 400.565 -0.0233959 1.57583 0
M  V30 4356 C 401.513 -1.04063 2.08023 0
M  V30 4357 C 402.507 -1.37084 0.995204 0
M  V30 4358 O 403.713 -1.35923 1.18004 0
M  V30 4359 H 400.088 -0.353144 0.663922 0
M  V30 4360 H 402.059 -0.589453 2.9252 0
M  V30 4361 C 400.808 -2.33123 2.57971 0
M  V30 4362 H 400.131 -2.08577 3.4108 0
M  V30 4363 H 401.571 -3.02632 2.96967 0
M  V30 4364 C 400.03 -3.02483 1.48342 0
M  V30 4365 O 400.56 -3.92541 0.852898 0
M  V30 4366 N 398.766 -2.63909 1.21658 0
M  V30 4367 H 398.313 -1.90758 1.73116 0
M  V30 4368 H 398.271 -3.10633 0.485218 0
M  V30 4369 N 402.043 -1.548 -0.295768 0
M  V30 4370 C 402.953 -1.89177 -1.38742 0
M  V30 4371 C 403.969 -0.786481 -1.55211 0
M  V30 4372 O 405.145 -1.08344 -1.69775 0
M  V30 4373 C 402.21 -2.13663 -2.73036 0
M  V30 4374 C 401.271 -3.37349 -2.65508 0
M  V30 4375 C 400.504 -3.60658 -3.93398 0
M  V30 4376 O 400.727 -2.86882 -4.93006 0
M  V30 4377 O 399.661 -4.54179 -3.94975 0
M  V30 4378 H 403.487 -2.82059 -1.12589 0
M  V30 4379 H 401.072 -1.41056 -0.492295 0
M  V30 4380 H 402.954 -2.3094 -3.52484 0
M  V30 4381 H 401.629 -1.23967 -2.99022 0
M  V30 4382 H 400.536 -3.25431 -1.84514 0
M  V30 4383 H 401.869 -4.27192 -2.44474 0
M  V30 4384 N 403.521 0.559213 -1.47345 0
M  V30 4385 C 404.453 1.68161 -1.55738 0
M  V30 4386 C 405.466 1.56636 -0.443744 0
M  V30 4387 O 406.655 1.6363 -0.713258 0
M  V30 4388 C 403.755 3.06611 -1.4437 0
M  V30 4389 C 402.928 3.4391 -2.70268 0
M  V30 4390 C 401.987 4.61515 -2.52765 0
M  V30 4391 O 401.013 4.66197 -3.26572 0
M  V30 4392 N 402.215 5.57883 -1.6046 0
M  V30 4393 H 404.98 1.61408 -2.52522 0
M  V30 4394 H 402.541 0.7458 -1.43699 0
M  V30 4395 H 404.533 3.83117 -1.30398 0
M  V30 4396 H 403.103 3.07602 -0.556766 0
M  V30 4397 H 402.323 2.56873 -2.99015 0
M  V30 4398 H 403.611 3.65605 -3.53851 0
M  V30 4399 H 403.009 5.56855 -0.996422 0
M  V30 4400 H 401.566 6.33723 -1.52441 0
M  V30 4401 N 404.999 1.35443 0.805782 0
M  V30 4402 C 405.929 1.31095 1.93226 0
M  V30 4403 C 406.91 0.185244 1.69088 0
M  V30 4404 O 408.095 0.380332 1.90439 0
M  V30 4405 C 405.225 1.08299 3.29983 0
M  V30 4406 C 404.179 2.17519 3.68605 0
M  V30 4407 C 403.505 1.79887 5.03532 0
M  V30 4408 C 404.805 3.5949 3.78898 0
M  V30 4409 H 406.499 2.25352 1.97122 0
M  V30 4410 H 404.045 1.0848 0.946996 0
M  V30 4411 H 405.998 1.03897 4.08391 0
M  V30 4412 H 404.722 0.104885 3.26432 0
M  V30 4413 H 403.381 2.2102 2.92482 0
M  V30 4414 H 403.029 0.80693 4.96485 0
M  V30 4415 H 402.729 2.53001 5.30344 0
M  V30 4416 H 404.253 1.77011 5.84379 0
M  V30 4417 H 405.667 3.58307 4.47536 0
M  V30 4418 H 404.064 4.31371 4.1718 0
M  V30 4419 H 405.134 3.95584 2.80431 0
M  V30 4420 N 406.477 -1.02803 1.19454 0
M  V30 4421 C 407.41 -2.107 0.876396 0
M  V30 4422 C 408.388 -1.61741 -0.166897 0
M  V30 4423 O 409.572 -1.88451 -0.0430195 0
M  V30 4424 C 406.699 -3.37262 0.311758 0
M  V30 4425 C 405.745 -4.05093 1.33424 0
M  V30 4426 S 406.578 -4.50498 2.89503 0
M  V30 4427 C 407.734 -5.80277 2.34584 0
M  V30 4428 H 407.967 -2.37362 1.79016 0
M  V30 4429 H 405.5 -1.15755 1.02177 0
M  V30 4430 H 407.458 -4.10499 -0.00748752 0
M  V30 4431 H 406.119 -3.08693 -0.58032 0
M  V30 4432 H 405.312 -4.9611 0.888302 0
M  V30 4433 H 404.914 -3.3803 1.60037 0
M  V30 4434 H 407.206 -6.54873 1.73633 0
M  V30 4435 H 408.149 -6.29651 3.23952 0
M  V30 4436 H 408.557 -5.3599 1.77131 0
M  V30 4437 N 407.956 -0.998596 -1.21925 0
M  V30 4438 C 408.866 -0.562736 -2.27751 0
M  V30 4439 C 409.882 0.391203 -1.69545 0
M  V30 4440 O 411.058 0.256625 -1.99758 0
M  V30 4441 C 408.123 0.11012 -3.46525 0
M  V30 4442 C 407.184 -0.887495 -4.20026 0
M  V30 4443 C 406.417 -0.246654 -5.3313 0
M  V30 4444 O 406.64 0.958088 -5.62296 0
M  V30 4445 O 405.574 -0.954374 -5.94286 0
M  V30 4446 H 409.4 -1.44329 -2.67213 0
M  V30 4447 H 406.985 -0.767135 -1.28201 0
M  V30 4448 H 408.867 0.486756 -4.18579 0
M  V30 4449 H 407.542 0.965154 -3.08976 0
M  V30 4450 H 406.449 -1.31517 -3.5022 0
M  V30 4451 H 407.782 -1.71191 -4.6147 0
M  V30 4452 N 409.434 1.37368 -0.772513 0
M  V30 4453 C 410.711 1.93839 -0.26188 0
M  V30 4454 C 411.091 1.7061 1.24319 0
M  V30 4455 O 410.439 1.05534 2.02669 0
M  V30 4456 C 410.649 3.43154 -0.636102 0
M  V30 4457 C 411.997 4.20249 -0.606324 0
M  V30 4458 O 413.021 3.5152 -0.575538 0
M  V30 4459 O 411.88 5.42809 -0.634086 0
M  V30 4460 H 408.974 0.82478 -0.0605555 0
M  V30 4461 H 411.52 1.4665 -0.853917 0
M  V30 4462 H 410.292 3.53647 -1.6748 0
M  V30 4463 H 409.915 3.97596 -0.0170516 0
M  V30 4464 N 410.912 0.523116 1.48665 0
M  V30 4465 C 412.142 -0.00961724 2.06598 0
M  V30 4466 C 412.55 -1.29333 1.38093 0
M  V30 4467 O 411.893 -1.77846 0.46007 0
M  V30 4468 C 411.955 -0.311135 3.58151 0
M  V30 4469 C 411.619 0.878092 4.48485 0
M  V30 4470 C 412.616 1.77464 4.88674 0
M  V30 4471 C 410.301 1.08315 4.90483 0
M  V30 4472 C 412.295 2.86021 5.69623 0
M  V30 4473 C 409.982 2.17187 5.71203 0
M  V30 4474 C 410.98 3.05873 6.10681 0
M  V30 4475 O 410.668 4.12862 6.89783 0
M  V30 4476 H 410.4 0.0272658 0.67545 0
M  V30 4477 H 412.954 0.726156 1.92136 0
M  V30 4478 H 411.184 -1.10079 3.70701 0
M  V30 4479 H 412.873 -0.785125 3.98234 0
M  V30 4480 H 413.639 1.62813 4.56855 0
M  V30 4481 H 409.518 0.402149 4.59243 0
M  V30 4482 H 413.062 3.55272 6.00356 0
M  V30 4483 H 408.959 2.31824 6.02435 0
M  V30 4484 H 409.727 4.10487 7.08126 0
M  V30 4485 N 412.39 -1.55475 0.257931 0
M  V30 4486 C 413.3 -2.2549 -0.647425 0
M  V30 4487 C 414.316 -1.2748 -1.18427 0
M  V30 4488 O 415.492 -1.6038 -1.2182 0
M  V30 4489 C 412.557 -2.94916 -1.82278 0
M  V30 4490 C 411.618 -4.08363 -1.32432 0
M  V30 4491 C 410.851 -4.74469 -2.44366 0
M  V30 4492 O 411.074 -4.39701 -3.63344 0
M  V30 4493 O 410.008 -5.62763 -2.13497 0
M  V30 4494 H 413.834 -3.03593 -0.0807707 0
M  V30 4495 H 411.419 -1.49377 0.0259962 0
M  V30 4496 H 413.301 -3.38606 -2.50846 0
M  V30 4497 H 411.976 -2.19744 -2.37685 0
M  V30 4498 H 410.883 -3.69166 -0.605605 0
M  V30 4499 H 412.216 -4.85385 -0.816211 0
M  V30 4500 N 413.868 0.0150385 -1.57593 0
M  V30 4501 C 414.815 1.01126 -2.07466 0
M  V30 4502 C 415.785 1.35064 -0.966794 0
M  V30 4503 O 416.97 1.4516 -1.23827 0
M  V30 4504 C 414.11 2.30276 -2.57035 0
M  V30 4505 C 413.223 2.02373 -3.81666 0
M  V30 4506 C 412.358 3.25496 -4.19793 0
M  V30 4507 C 411.397 2.93211 -5.37303 0
M  V30 4508 N 410.534 4.08826 -5.70794 0
M  V30 4509 H 415.374 0.57901 -2.92321 0
M  V30 4510 H 412.911 0.27426 -1.44521 0
M  V30 4511 H 414.869 3.05757 -2.83846 0
M  V30 4512 H 413.499 2.71197 -1.75077 0
M  V30 4513 H 412.551 1.17327 -3.61854 0
M  V30 4514 H 413.863 1.74567 -4.67256 0
M  V30 4515 H 413.017 4.09333 -4.47807 0
M  V30 4516 H 411.756 3.56428 -3.32882 0
M  V30 4517 H 410.761 2.07777 -5.09027 0
M  V30 4518 H 411.986 2.63542 -6.25877 0
M  V30 4519 H 409.932 4.39682 -4.86842 0
M  V30 4520 H 409.849 3.84491 -6.50924 0
M  V30 4521 H 411.117 4.93496 -6.03392 0
M  V30 4522 N 415.346 1.54954 0.287554 0
M  V30 4523 C 416.276 1.89839 1.35954 0
M  V30 4524 C 417.257 0.758675 1.52244 0
M  V30 4525 O 418.442 1.01557 1.65529 0
M  V30 4526 C 415.572 2.15753 2.72154 0
M  V30 4527 C 414.526 3.3159 2.70614 0
M  V30 4528 C 413.852 3.42952 4.10229 0
M  V30 4529 C 415.152 4.68359 2.31165 0
M  V30 4530 H 416.846 2.79625 1.07007 0
M  V30 4531 H 414.392 1.3454 0.513316 0
M  V30 4532 H 416.345 2.38743 3.47246 0
M  V30 4533 H 415.069 1.22752 3.02654 0
M  V30 4534 H 413.728 3.08545 1.97979 0
M  V30 4535 H 413.376 2.47443 4.37928 0
M  V30 4536 H 413.076 4.20826 4.10097 0
M  V30 4537 H 414.6 3.68218 4.87081 0
M  V30 4538 H 416.014 4.9099 2.95976 0
M  V30 4539 H 414.411 5.49044 2.42221 0
M  V30 4540 H 415.481 4.68165 1.26291 0
M  V30 4541 N 416.824 -0.551391 1.4764 0
M  V30 4542 C 417.787 -1.64007 1.60107 0
M  V30 4543 C 418.787 -1.53601 0.47576 0
M  V30 4544 O 419.977 -1.57655 0.740988 0
M  V30 4545 C 417.109 -3.03569 1.55108 0
M  V30 4546 H 418.302 -1.543 2.57161 0
M  V30 4547 H 415.855 -0.771776 1.35917 0
M  V30 4548 H 416.59 -3.18804 0.594519 0
M  V30 4549 H 416.375 -3.12532 2.36783 0
M  V30 4550 H 417.865 -3.82762 1.66982 0
M  V30 4551 N 418.302 -1.35869 -0.798587 0
M  V30 4552 C 419.527 -1.32883 -1.59238 0
M  V30 4553 C 419.952 0.0894587 -1.87887 0
M  V30 4554 O 419.31 1.05869 -1.47178 0
M  V30 4555 C 419.358 -2.14892 -2.89575 0
M  V30 4556 O 418.462 -1.53512 -3.82763 0
M  V30 4557 H 417.803 -0.455236 -0.48338 0
M  V30 4558 H 420.333 -1.79024 -0.990539 0
M  V30 4559 H 420.343 -2.27139 -3.38928 0
M  V30 4560 H 419.018 -3.17998 -2.68049 0
M  V30 4561 H 417.595 -1.50153 -3.41334 0
M  V30 4562 N 419.78 1.02168 -1.19998 0
M  V30 4563 C 421.057 1.72816 -0.916191 0
M  V30 4564 C 421.437 2.03081 0.576325 0
M  V30 4565 O 420.785 1.69122 1.53656 0
M  V30 4566 C 420.995 2.9997 -1.78378 0
M  V30 4567 C 422.343 3.73336 -2.02251 0
M  V30 4568 O 423.367 3.09914 -1.75589 0
M  V30 4569 O 422.226 4.87371 -2.47249 0
M  V30 4570 H 419.32 0.752924 -0.342103 0
M  V30 4571 H 421.866 1.08062 -1.30846 0
M  V30 4572 H 420.638 2.73888 -2.79466 0
M  V30 4573 H 420.261 3.72464 -1.39126 0
M  V30 4574 N 421.258 1.00505 1.21394 0
M  V30 4575 C 422.188 0.585684 2.26035 0
M  V30 4576 C 423.169 -0.393525 1.65485 0
M  V30 4577 O 424.354 -0.281497 1.92149 0
M  V30 4578 C 421.484 -0.0884283 3.47187 0
M  V30 4579 C 420.438 0.810567 4.20254 0
M  V30 4580 C 419.764 0.00286382 5.347 0
M  V30 4581 C 421.064 2.1132 4.77641 0
M  V30 4582 H 422.758 1.46039 2.61368 0
M  V30 4583 H 420.304 0.703648 1.25638 0
M  V30 4584 H 422.257 -0.393286 4.19561 0
M  V30 4585 H 420.981 -0.997766 3.10986 0
M  V30 4586 H 419.64 1.09925 3.49731 0
M  V30 4587 H 419.288 -0.907765 4.94741 0
M  V30 4588 H 418.988 0.601444 5.84514 0
M  V30 4589 H 420.512 -0.295808 6.09883 0
M  V30 4590 H 421.926 1.87148 5.41893 0
M  V30 4591 H 420.323 2.66164 5.37845 0
M  V30 4592 H 421.393 2.78393 3.9702 0
M  V30 4593 N 422.737 -1.36956 0.779787 0
M  V30 4594 C 423.667 -2.32761 0.185651 0
M  V30 4595 C 424.648 -1.56177 -0.673989 0
M  V30 4596 O 425.833 -1.84378 -0.609797 0
M  V30 4597 C 422.963 -3.40418 -0.687964 0
M  V30 4598 C 421.917 -4.27941 0.0710102 0
M  V30 4599 C 421.243 -5.26681 -0.922573 0
M  V30 4600 C 422.543 -5.07006 1.25467 0
M  V30 4601 H 424.237 -2.82698 0.986008 0
M  V30 4602 H 421.783 -1.3592 0.475592 0
M  V30 4603 H 423.736 -4.06423 -1.11348 0
M  V30 4604 H 422.46 -2.89025 -1.52093 0
M  V30 4605 H 421.119 -3.63478 0.47739 0
M  V30 4606 H 420.767 -4.71565 -1.7503 0
M  V30 4607 H 420.467 -5.86103 -0.419237 0
M  V30 4608 H 421.991 -5.9556 -1.34686 0
M  V30 4609 H 423.405 -5.66105 0.905401 0
M  V30 4610 H 421.802 -5.75793 1.69063 0
M  V30 4611 H 422.872 -4.3921 2.05481 0
M  V30 4612 N 424.215 -0.530993 -1.48385 0
M  V30 4613 C 425.125 0.23503 -2.3342 0
M  V30 4614 C 426.141 0.93801 -1.46552 0
M  V30 4615 O 427.317 0.912745 -1.7953 0
M  V30 4616 C 424.382 1.26778 -3.22689 0
M  V30 4617 C 423.443 0.575038 -4.25431 0
M  V30 4618 C 422.676 1.55858 -5.10435 0
M  V30 4619 O 422.899 2.79129 -4.97437 0
M  V30 4620 O 421.833 1.09742 -5.91811 0
M  V30 4621 H 425.659 -0.461794 -3.00169 0
M  V30 4622 H 423.244 -0.291903 -1.46521 0
M  V30 4623 H 425.126 1.86457 -3.77904 0
M  V30 4624 H 423.801 1.94699 -2.586 0
M  V30 4625 H 422.708 -0.0622782 -3.74048 0
M  V30 4626 H 424.041 -0.062253 -4.92161 0
M  V30 4627 N 425.693 1.55336 -0.266172 0
M  V30 4628 C 426.939 2.00423 0.346714 0
M  V30 4629 C 427.294 1.15132 1.54151 0
M  V30 4630 O 426.587 0.211289 1.90431 0
M  V30 4631 C 426.781 3.48606 0.787957 0
M  V30 4632 C 426.61 4.48236 -0.362535 0
M  V30 4633 C 425.38 4.98211 -0.843445 0
M  V30 4634 C 427.578 5.00199 -1.19603 0
M  V30 4635 N 425.56 5.81625 -1.96434 0
M  V30 4636 C 426.931 5.80973 -2.16497 0
M  V30 4637 C 428.986 4.82458 -1.2304 0
M  V30 4638 C 427.689 6.45896 -3.1656 0
M  V30 4639 C 429.715 5.48174 -2.21944 0
M  V30 4640 C 429.077 6.28751 -3.17571 0
M  V30 4641 H 425.176 0.776535 0.0922914 0
M  V30 4642 H 427.76 1.90792 -0.388154 0
M  V30 4643 H 425.931 3.58597 1.49207 0
M  V30 4644 H 427.663 3.80538 1.37742 0
M  V30 4645 H 424.418 4.71696 -0.424271 0
M  V30 4646 H 424.842 6.28025 -2.52813 0
M  V30 4647 H 429.484 4.19774 -0.504903 0
M  V30 4648 H 427.202 7.07734 -3.90048 0
M  V30 4649 H 430.788 5.36392 -2.25333 0
M  V30 4650 H 429.668 6.78703 -3.92851 0
M  V30 4651 N 427.171 -0.0066808 1.57599 0
M  V30 4652 C 428.42 -0.692078 1.89455 0
M  V30 4653 C 428.733 -1.75306 0.867586 0
M  V30 4654 O 429.939 -2.49262 1.07614 0
M  V30 4655 C 428.395 -1.2821 3.36289 0
M  V30 4656 C 428.003 -0.256291 4.47266 0
M  V30 4657 C 429.747 -1.94608 3.77264 0
M  V30 4658 C 427.654 -0.855927 5.85173 0
M  V30 4659 H 426.584 -0.262252 0.706923 0
M  V30 4660 H 429.235 0.052769 1.83424 0
M  V30 4661 H 427.617 -2.0774 3.37135 0
M  V30 4662 H 428.791 0.513923 4.57925 0
M  V30 4663 H 427.106 0.306862 4.15268 0
M  V30 4664 H 429.703 -2.40364 4.77629 0
M  V30 4665 H 430.046 -2.77382 3.10427 0
M  V30 4666 H 430.579 -1.21822 3.78688 0
M  V30 4667 H 427.318 -0.0671161 6.55466 0
M  V30 4668 H 426.838 -1.59546 5.78191 0
M  V30 4669 H 428.517 -1.35658 6.32618 0
M  V30 4670 N 428.649 -1.55105 -0.279332 0
M  V30 4671 C 430.065 -1.46803 -0.626187 0
M  V30 4672 C 430.265 -0.676939 -1.89789 0
M  V30 4673 O 429.321 -0.19326 -2.51759 0
M  V30 4674 C 430.634 -2.90962 -0.759034 0
M  V30 4675 C 432.182 -3.01138 -0.853504 0
M  V30 4676 C 432.657 -4.46539 -1.01818 0
M  V30 4677 N 434.148 -4.50341 -1.08386 0
M  V30 4678 C 434.883 -5.60053 -1.22996 0
M  V30 4679 N 434.379 -6.79645 -1.34366 0
M  V30 4680 N 436.172 -5.47783 -1.26056 0
M  V30 4681 H 428.323 -2.04996 0.555921 0
M  V30 4682 H 430.586 -0.929325 0.187239 0
M  V30 4683 H 430.292 -3.51544 0.104852 0
M  V30 4684 H 430.166 -3.39619 -1.64131 0
M  V30 4685 H 432.553 -2.40658 -1.70786 0
M  V30 4686 H 432.634 -2.55745 0.0532466 0
M  V30 4687 H 432.278 -5.0762 -0.168504 0
M  V30 4688 H 432.208 -4.89583 -1.93948 0
M  V30 4689 H 434.699 -3.64191 -1.00864 0
M  V30 4690 H 435.012 -7.59012 -1.4533 0
M  V30 4691 H 433.357 -6.82469 -1.31382 0
M  V30 4692 H 436.548 -4.53294 -1.168 0
M  V30 4693 H 436.721 -6.33331 -1.37098 0
M  V30 4694 N 430.127 0.543554 -1.4793 0
M  V30 4695 C 431.543 0.870806 -1.3375 0
M  V30 4696 C 431.743 1.9864 -0.338261 0
M  V30 4697 O 430.799 2.51305 0.245371 0
M  V30 4698 C 432.112 1.25114 -2.73435 0
M  V30 4699 C 433.66 1.3618 -2.81823 0
M  V30 4700 C 434.135 1.77563 -4.22179 0
M  V30 4701 N 435.626 1.8469 -4.24787 0
M  V30 4702 C 436.361 2.18067 -5.30315 0
M  V30 4703 N 435.857 2.49963 -6.46135 0
M  V30 4704 N 437.65 2.18958 -5.17701 0
M  V30 4705 H 429.801 -0.19275 -2.11524 0
M  V30 4706 H 432.064 -0.0235777 -0.947707 0
M  V30 4707 H 431.77 0.50514 -3.48053 0
M  V30 4708 H 431.644 2.20431 -3.06088 0
M  V30 4709 H 434.031 2.09859 -2.07468 0
M  V30 4710 H 434.112 0.390169 -2.52807 0
M  V30 4711 H 433.756 1.04449 -4.97044 0
M  V30 4712 H 433.686 2.75753 -4.48629 0
M  V30 4713 H 436.177 1.62372 -3.41239 0
M  V30 4714 H 436.49 2.74497 -7.22406 0
M  V30 4715 H 434.835 2.47513 -6.49432 0
M  V30 4716 H 438.026 1.93488 -4.2624 0
M  V30 4717 H 438.199 2.44639 -6.00047 0
M  V30 4718 N 431.605 1.3629 0.791371 0
M  V30 4719 C 432.833 1.33562 1.58016 0
M  V30 4720 C 433.248 -0.0835616 1.88615 0
M  V30 4721 O 432.605 -1.0399 1.49974 0
M  V30 4722 C 432.656 2.15517 2.90232 0
M  V30 4723 O 432.377 3.51902 2.60953 0
M  V30 4724 C 433.878 2.20546 3.84544 0
M  V30 4725 H 431.098 0.458226 0.490173 0
M  V30 4726 H 433.642 1.79361 0.982345 0
M  V30 4727 H 431.797 1.73278 3.46487 0
M  V30 4728 H 432.211 3.94644 3.4548 0
M  V30 4729 H 433.685 2.82252 4.74382 0
M  V30 4730 H 434.162 1.20838 4.2225 0
M  V30 4731 H 434.768 2.63013 3.34222 0
M  V30 4732 N 433.083 -1.0153 1.20538 0
M  V30 4733 C 434.332 -1.74558 1.01057 0
M  V30 4734 C 434.645 -1.90168 -0.457756 0
M  V30 4735 O 435.851 -2.60301 -0.771722 0
M  V30 4736 C 434.307 -3.13963 1.75941 0
M  V30 4737 C 433.915 -3.06361 3.26875 0
M  V30 4738 C 435.659 -3.91191 1.64832 0
M  V30 4739 C 433.566 -4.40782 3.94291 0
M  V30 4740 H 432.496 -0.654417 0.374505 0
M  V30 4741 H 435.147 -1.13521 1.44171 0
M  V30 4742 H 433.529 -3.75549 1.25614 0
M  V30 4743 H 434.703 -2.54074 3.84425 0
M  V30 4744 H 433.018 -2.42625 3.38411 0
M  V30 4745 H 435.615 -4.90644 2.12539 0
M  V30 4746 H 435.958 -4.11884 0.604745 0
M  V30 4747 H 436.491 -3.36236 2.12579 0
M  V30 4748 H 433.23 -4.25292 4.98805 0
M  V30 4749 H 432.75 -4.9307 3.41529 0
M  V30 4750 H 434.429 -5.09621 3.98617 0
M  V30 4751 N 434.561 -1.01147 -1.20859 0
M  V30 4752 C 435.972 -0.730205 -1.71828 0
M  V30 4753 C 436.323 0.751662 -1.8123 0
M  V30 4754 O 435.448 1.58686 -1.47132 0
M  V30 4755 C 436.043 -1.31885 -3.12077 0
M  V30 4756 C 434.602 -1.08656 -3.60376 0
M  V30 4757 C 433.749 -1.42769 -2.37723 0
M  V30 4758 H 436.7 -1.18158 -1.05945 0
M  V30 4759 H 436.721 -0.706793 -3.73878 0
M  V30 4760 H 436.233 -2.39737 -3.05201 0
M  V30 4761 H 434.334 -0.0254814 -3.72591 0
M  V30 4762 H 434.447 -1.76301 -4.45483 0
M  V30 4763 H 432.811 -0.846603 -2.40218 0
M  V30 4764 H 433.594 -2.51666 -2.33493 0
M  V30 4765 N 436.039 1.36541 -0.78704 0
M  V30 4766 C 437.285 2.00044 -0.367938 0
M  V30 4767 C 437.64 1.61345 1.04812 0
M  V30 4768 O 436.933 0.856936 1.71368 0
M  V30 4769 C 437.127 3.54343 -0.466485 0
M  V30 4770 C 436.956 4.08029 -1.89058 0
M  V30 4771 C 435.726 4.38284 -2.51466 0
M  V30 4772 C 437.924 4.27954 -2.85236 0
M  V30 4773 N 435.906 4.77778 -3.85488 0
M  V30 4774 C 437.277 4.70227 -4.04088 0
M  V30 4775 C 439.332 4.10119 -2.82324 0
M  V30 4776 C 438.035 4.96532 -5.20432 0
M  V30 4777 C 440.061 4.37569 -3.97854 0
M  V30 4778 C 439.423 4.80095 -5.15449 0
M  V30 4779 H 435.522 0.760525 -0.182004 0
M  V30 4780 H 438.106 1.65589 -1.02413 0
M  V30 4781 H 436.277 3.88072 0.159606 0
M  V30 4782 H 438.009 4.04693 -0.0238577 0
M  V30 4783 H 434.764 4.27905 -2.02965 0
M  V30 4784 H 435.188 5.01813 -4.54437 0
M  V30 4785 H 439.83 3.76399 -1.92571 0
M  V30 4786 H 437.548 5.29134 -6.10773 0
M  V30 4787 H 441.134 4.25341 -3.96958 0
M  V30 4788 H 440.014 5.00925 -6.0336 0
M  V30 4789 N 437.518 0.538854 1.48102 0
M  V30 4790 C 438.448 -0.207654 2.32575 0
M  V30 4791 C 439.429 -0.926559 1.4265 0
M  V30 4792 O 440.614 -0.91061 1.71527 0
M  V30 4793 C 437.744 -1.24957 3.24042 0
M  V30 4794 C 436.698 -0.648263 4.23062 0
M  V30 4795 C 436.024 -1.79348 5.03725 0
M  V30 4796 C 437.324 0.385897 5.20872 0
M  V30 4797 H 439.018 0.497534 2.95237 0
M  V30 4798 H 436.564 0.240715 1.41974 0
M  V30 4799 H 438.517 -1.77983 3.81969 0
M  V30 4800 H 437.241 -1.98446 2.59397 0
M  V30 4801 H 435.9 -0.139452 3.66335 0
M  V30 4802 H 435.548 -2.51696 4.35498 0
M  V30 4803 H 435.248 -1.39702 5.70751 0
M  V30 4804 H 436.772 -2.32735 5.64506 0
M  V30 4805 H 438.186 -0.057607 5.73271 0
M  V30 4806 H 436.583 0.700227 5.96001 0
M  V30 4807 H 437.653 1.28848 4.67468 0
M  V30 4808 N 438.996 -1.55193 0.274407 0
M  V30 4809 C 439.906 -2.26164 -0.623473 0
M  V30 4810 C 440.922 -1.28729 -1.17068 0
M  V30 4811 O 442.098 -1.61663 -1.20112 0
M  V30 4812 C 439.163 -2.96833 -1.7914 0
M  V30 4813 C 438.224 -4.09745 -1.28093 0
M  V30 4814 C 437.457 -4.77034 -2.3932 0
M  V30 4815 O 437.68 -4.4353 -3.5866 0
M  V30 4816 O 436.614 -5.64996 -2.07516 0
M  V30 4817 H 440.44 -3.03661 -0.0485661 0
M  V30 4818 H 438.025 -1.49341 0.0418382 0
M  V30 4819 H 439.907 -3.41248 -2.4724 0
M  V30 4820 H 438.582 -2.22253 -2.35341 0
M  V30 4821 H 437.489 -3.69787 -0.566416 0
M  V30 4822 H 438.822 -4.86224 -0.764683 0
M  V30 4823 N 440.474 -0.00167713 -1.576 0
M  V30 4824 C 441.422 1.0074 -2.09652 0
M  V30 4825 C 442.416 1.35483 -1.01689 0
M  V30 4826 O 443.622 1.34028 -1.20152 0
M  V30 4827 H 439.997 0.342537 -0.669457 0
M  V30 4828 H 441.968 0.542841 -2.93421 0
M  V30 4829 C 440.717 2.2899 -2.61647 0
M  V30 4830 H 440.04 2.03124 -3.44355 0
M  V30 4831 H 441.48 2.9787 -3.01744 0
M  V30 4832 C 439.939 3.00085 -1.53136 0
M  V30 4833 O 440.469 3.91135 -0.91524 0
M  V30 4834 N 438.675 2.6194 -1.25841 0
M  V30 4835 H 438.222 1.8798 -1.76129 0
M  V30 4836 H 438.18 3.09822 -0.534576 0
M  V30 4837 N 441.952 1.55251 0.271103 0
M  V30 4838 C 443.368 1.47133 0.618393 0
M  V30 4839 C 443.568 0.686994 1.89427 0
M  V30 4840 O 442.624 0.206609 2.51653 0
M  V30 4841 C 443.937 2.91361 0.743593 0
M  V30 4842 C 445.485 3.01587 0.837522 0
M  V30 4843 C 445.96 4.47073 0.994483 0
M  V30 4844 N 447.451 4.50909 1.05996 0
M  V30 4845 C 448.186 5.60698 1.20024 0
M  V30 4846 N 447.682 6.80348 1.30759 0
M  V30 4847 N 449.475 5.48444 1.23149 0
M  V30 4848 H 441.626 2.04698 -0.566784 0
M  V30 4849 H 443.889 0.928319 -0.192165 0
M  V30 4850 H 443.595 3.51483 -0.123493 0
M  V30 4851 H 443.469 3.40484 1.62328 0
M  V30 4852 H 445.856 2.4156 1.69507 0
M  V30 4853 H 445.937 2.55713 -0.0668086 0
M  V30 4854 H 445.581 5.07703 0.141582 0
M  V30 4855 H 445.511 4.90605 1.91349 0
M  V30 4856 H 448.002 3.6472 0.989316 0
M  V30 4857 H 448.315 7.59772 1.41303 0
M  V30 4858 H 446.66 6.83156 1.27761 0
M  V30 4859 H 449.851 4.53907 1.14394 0
M  V30 4860 H 450.024 6.34049 1.33738 0
M  V30 4861 N 443.43 -0.535701 1.48216 0
M  V30 4862 C 444.676 -1.29375 1.56173 0
M  V30 4863 C 445.009 -1.92804 0.232429 0
M  V30 4864 O 444.284 -1.78992 -0.761048 0
M  V30 4865 C 444.567 -2.38747 2.69577 0
M  V30 4866 C 444.42 -1.80046 4.12193 0
M  V30 4867 C 445.739 -3.40551 2.78771 0
M  V30 4868 H 442.858 -0.469027 0.568491 0
M  V30 4869 H 445.5 -0.597358 1.80365 0
M  V30 4870 H 443.65 -2.98147 2.4908 0
M  V30 4871 H 445.322 -1.24742 4.44114 0
M  V30 4872 H 443.565 -1.10609 4.19462 0
M  V30 4873 H 444.236 -2.59212 4.87353 0
M  V30 4874 H 446.712 -2.91099 2.97322 0
M  V30 4875 H 445.588 -4.1448 3.59857 0
M  V30 4876 H 445.849 -4.00746 1.86696 0
M  V30 4877 N 444.908 -1.36708 -0.784132 0
M  V30 4878 C 446.319 -1.27947 -1.35965 0
M  V30 4879 C 446.67 0.0784013 -1.96043 0
M  V30 4880 O 445.795 0.979989 -1.92938 0
M  V30 4881 C 446.39 -2.31689 -2.47195 0
M  V30 4882 C 444.949 -2.26601 -3.00548 0
M  V30 4883 C 444.096 -2.16184 -1.73666 0
M  V30 4884 H 447.047 -1.4751 -0.585358 0
M  V30 4885 H 447.068 -1.95638 -3.26352 0
M  V30 4886 H 446.58 -3.30506 -2.03439 0
M  V30 4887 H 444.681 -1.31268 -3.48711 0
M  V30 4888 H 444.794 -3.19508 -3.57004 0
M  V30 4889 H 443.158 -1.62524 -1.96107 0
M  V30 4890 H 443.941 -3.16896 -1.32031 0
M  V30 4891 N 446.386 1.0089 -1.21074 0
M  V30 4892 C 447.296 2.13039 -0.982425 0
M  V30 4893 C 448.312 1.73881 0.0642161 0
M  V30 4894 O 449.488 2.01012 -0.12496 0
M  V30 4895 C 446.553 3.42377 -0.545803 0
M  V30 4896 C 445.614 3.95731 -1.6642 0
M  V30 4897 C 444.847 5.18896 -1.24832 0
M  V30 4898 O 445.07 5.70273 -0.120265 0
M  V30 4899 O 444.004 5.65597 -2.05873 0
M  V30 4900 H 447.83 2.35175 -1.92163 0
M  V30 4901 H 445.415 1.1142 -0.995285 0
M  V30 4902 H 447.297 4.20244 -0.311912 0
M  V30 4903 H 445.972 3.21639 0.364727 0
M  V30 4904 H 444.879 3.19108 -1.95246 0
M  V30 4905 H 446.212 4.20872 -2.55201 0
M  V30 4906 N 447.864 1.01787 1.20321 0
M  V30 4907 C 448.812 0.58254 2.25187 0
M  V30 4908 C 449.806 -0.379359 1.65098 0
M  V30 4909 O 451.012 -0.249142 1.78267 0
M  V30 4910 H 447.387 0.170078 0.732514 0
M  V30 4911 H 449.358 1.47788 2.59232 0
M  V30 4912 C 448.107 -0.0620885 3.47645 0
M  V30 4913 H 447.43 0.669069 3.94162 0
M  V30 4914 H 448.87 -0.329784 4.22716 0
M  V30 4915 C 447.329 -1.3053 3.10586 0
M  V30 4916 O 447.859 -2.39848 3.22236 0
M  V30 4917 N 446.065 -1.18988 2.65123 0
M  V30 4918 H 445.612 -0.300341 2.55843 0
M  V30 4919 H 445.57 -2.02267 2.40698 0
M  V30 4920 N 449.342 -1.36122 0.79427 0
M  V30 4921 C 450.57 -2.03362 0.380989 0
M  V30 4922 C 450.985 -1.59881 -1.00416 0
M  V30 4923 O 450.342 -0.790515 -1.6449 0
M  V30 4924 C 450.393 -3.58804 0.440649 0
M  V30 4925 O 450.114 -4.007 1.77118 0
M  V30 4926 C 451.615 -4.43296 0.0186117 0
M  V30 4927 H 448.835 -0.652526 0.156367 0
M  V30 4928 H 451.379 -1.73998 1.07447 0
M  V30 4929 H 449.534 -3.8686 -0.204458 0
M  V30 4930 H 449.948 -4.95309 1.72538 0
M  V30 4931 H 451.422 -5.51887 0.111488 0
M  V30 4932 H 451.899 -4.2684 -1.03461 0
M  V30 4933 H 452.505 -4.20512 0.636395 0
M  V30 4934 N 450.82 -0.546701 -1.47814 0
M  V30 4935 C 451.753 0.254472 -2.26777 0
M  V30 4936 C 452.731 0.929809 -1.33392 0
M  V30 4937 O 453.915 0.950889 -1.62759 0
M  V30 4938 C 451.042 1.36171 -3.10121 0
M  V30 4939 C 450.088 0.796038 -4.19005 0
M  V30 4940 S 450.921 -0.349191 -5.3436 0
M  V30 4941 C 452.077 0.760122 -6.21267 0
M  V30 4942 H 452.31 -0.415612 -2.94381 0
M  V30 4943 H 449.843 -0.332809 -1.5077 0
M  V30 4944 H 451.801 1.99588 -3.58713 0
M  V30 4945 H 450.462 2.00359 -2.41899 0
M  V30 4946 H 449.655 1.62719 -4.7701 0
M  V30 4947 H 449.257 0.238246 -3.7324 0
M  V30 4948 H 451.549 1.65479 -6.5698 0
M  V30 4949 H 452.492 0.217673 -7.07765 0
M  V30 4950 H 452.9 1.04806 -5.54685 0
M  V30 4951 N 452.299 1.55045 -0.282633 0
M  V30 4952 C 453.249 2.19514 0.616249 0
M  V30 4953 C 454.233 1.16216 1.11277 0
M  V30 4954 O 455.425 1.42004 1.05659 0
M  V30 4955 C 452.554 2.92548 1.7964 0
M  V30 4956 C 451.64 4.03142 1.31671 0
M  V30 4957 N 452.031 5.0276 0.553695 0
M  V30 4958 C 450.329 4.1635 1.59903 0
M  V30 4959 C 451.03 5.80923 0.30054 0
M  V30 4960 N 450.006 5.3651 0.875116 0
M  V30 4961 H 453.808 2.93889 0.0255363 0
M  V30 4962 H 451.322 1.62169 -0.0865362 0
M  V30 4963 H 453.319 3.37188 2.45173 0
M  V30 4964 H 451.979 2.19685 2.39099 0
M  V30 4965 H 452.99 5.17512 0.20032 0
M  V30 4966 H 449.667 3.54682 2.20243 0
M  V30 4967 H 451.057 6.7118 -0.311053 0
M  V30 4968 N 453.777 0.010035 1.57597 0
M  V30 4969 C 454.74 -0.963029 2.07986 0
M  V30 4970 C 455.74 -1.26619 0.991173 0
M  V30 4971 O 456.93 -1.2097 1.25347 0
M  V30 4972 C 454.062 -2.2851 2.52974 0
M  V30 4973 H 455.255 -0.526971 2.95234 0
M  V30 4974 H 452.808 -0.237639 1.54483 0
M  V30 4975 H 453.543 -2.76784 1.69 0
M  V30 4976 H 453.328 -2.07824 3.32493 0
M  V30 4977 H 454.818 -2.98294 2.9225 0
M  V30 4978 N 455.255 -1.55392 -0.262866 0
M  V30 4979 C 456.188 -1.8391 -1.35101 0
M  V30 4980 C 457.166 -0.692901 -1.47097 0
M  V30 4981 O 458.35 -0.936979 -1.63563 0
M  V30 4982 C 455.477 -2.00969 -2.72634 0
M  V30 4983 C 454.523 -3.23559 -2.7787 0
M  V30 4984 S 455.356 -4.80647 -2.3609 0
M  V30 4985 C 456.512 -5.00692 -3.75578 0
M  V30 4986 H 456.745 -2.75918 -1.1071 0
M  V30 4987 H 454.278 -1.47294 -0.463029 0
M  V30 4988 H 456.236 -2.11482 -3.51832 0
M  V30 4989 H 454.897 -1.09832 -2.94272 0
M  V30 4990 H 454.09 -3.32413 -3.78837 0
M  V30 4991 H 453.692 -3.11689 -2.06702 0
M  V30 4992 H 455.984 -4.87055 -4.70939 0
M  V30 4993 H 456.927 -6.02717 -3.71669 0
M  V30 4994 H 457.335 -4.28619 -3.6735 0
M  V30 4995 N 456.733 0.527833 -1.48498 0
M  V30 4996 C 457.665 1.6482 -1.5927 0
M  V30 4997 C 458.678 1.55659 -0.476869 0
M  V30 4998 O 459.867 1.62081 -0.747806 0
M  V30 4999 C 456.967 3.0348 -1.50842 0
M  V30 5000 C 456.14 3.381 -2.77502 0
M  V30 5001 C 455.199 4.5605 -2.62497 0
M  V30 5002 O 454.225 4.59165 -3.36387 0
M  V30 5003 N 455.427 5.54353 -1.72257 0
M  V30 5004 H 458.192 1.56015 -2.55889 0
M  V30 5005 H 455.753 0.715152 -1.45249 0
M  V30 5006 H 457.745 3.80264 -1.38496 0
M  V30 5007 H 456.315 3.06352 -0.621887 0
M  V30 5008 H 455.535 2.50473 -3.04396 0
M  V30 5009 H 456.823 3.58017 -3.61527 0
M  V30 5010 H 456.221 5.54617 -1.11431 0
M  V30 5011 H 454.778 6.30347 -1.65849 0
M  V30 5012 N 458.211 1.37122 0.776871 0
M  V30 5013 C 459.143 1.28342 1.89897 0
M  V30 5014 C 460.156 0.200277 1.61563 0
M  V30 5015 O 461.345 0.456012 1.72577 0
M  V30 5016 C 458.445 0.960427 3.25006 0
M  V30 5017 C 457.618 2.148 3.81025 0
M  V30 5018 C 456.677 1.79608 4.94598 0
M  V30 5019 O 455.703 2.51845 5.10454 0
M  V30 5020 N 456.905 0.737171 5.758 0
M  V30 5021 H 459.67 2.25027 1.97947 0
M  V30 5022 H 457.231 1.3068 0.955739 0
M  V30 5023 H 459.223 0.705942 3.98495 0
M  V30 5024 H 457.793 0.0823066 3.12492 0
M  V30 5025 H 457.013 2.56454 2.99374 0
M  V30 5026 H 458.301 2.9411 4.15183 0
M  V30 5027 H 457.699 0.137637 5.65533 0
M  V30 5028 H 456.256 0.542534 6.49538 0
M  V30 5029 N 459.689 -1.00246 1.21608 0
M  V30 5030 C 460.636 -2.09073 0.977613 0
M  V30 5031 C 461.606 -1.65815 -0.097297 0
M  V30 5032 O 462.791 -1.90734 0.0503445 0
M  V30 5033 C 459.931 -3.40671 0.551133 0
M  V30 5034 C 459.044 -3.97326 1.69576 0
M  V30 5035 C 458.179 -5.17043 1.2182 0
M  V30 5036 C 457.218 -5.65813 2.335 0
M  V30 5037 N 456.355 -6.76778 1.86859 0
M  V30 5038 H 461.195 -2.28806 1.90924 0
M  V30 5039 H 458.732 -1.12186 0.951452 0
M  V30 5040 H 460.69 -4.16225 0.285097 0
M  V30 5041 H 459.32 -3.20967 -0.343489 0
M  V30 5042 H 458.372 -3.18734 2.07637 0
M  V30 5043 H 459.684 -4.29511 2.53617 0
M  V30 5044 H 458.838 -5.99852 0.908975 0
M  V30 5045 H 457.577 -4.86458 0.347869 0
M  V30 5046 H 456.582 -4.81599 2.65222 0
M  V30 5047 H 457.807 -5.98427 3.21033 0
M  V30 5048 H 455.753 -6.47994 1.02174 0
M  V30 5049 H 455.67 -7.08231 2.64471 0
M  V30 5050 H 456.938 -7.63116 1.58978 0
M  V30 5051 N 461.167 -1.02423 -1.1978 0
M  V30 5052 C 462.097 -0.62157 -2.25075 0
M  V30 5053 C 463.078 0.367148 -1.6609 0
M  V30 5054 O 464.263 0.250892 -1.92573 0
M  V30 5055 C 461.393 0.0331826 -3.47284 0
M  V30 5056 C 460.347 -0.877323 -4.18912 0
M  V30 5057 C 459.673 -0.0879296 -5.34628 0
M  V30 5058 C 460.973 -2.18892 -4.74219 0
M  V30 5059 H 462.667 -1.50179 -2.59011 0
M  V30 5060 H 460.213 -0.723547 -1.24502 0
M  V30 5061 H 462.166 0.326488 -4.20133 0
M  V30 5062 H 460.89 0.948164 -3.12534 0
M  V30 5063 H 459.549 -1.15475 -3.47938 0
M  V30 5064 H 459.197 0.828941 -4.96123 0
M  V30 5065 H 458.897 -0.694359 -5.83483 0
M  V30 5066 H 460.421 0.198743 -6.10276 0
M  V30 5067 H 461.835 -1.95746 -5.38847 0
M  V30 5068 H 460.232 -2.74686 -5.33542 0
M  V30 5069 H 461.302 -2.84674 -3.92541 0
M  V30 5070 N 462.645 1.35699 -0.801477 0
M  V30 5071 C 463.555 2.33661 -0.209691 0
M  V30 5072 C 464.571 1.6162 0.644591 0
M  V30 5073 O 465.747 1.93529 0.557545 0
M  V30 5074 C 462.812 3.40816 0.636033 0
M  V30 5075 C 461.873 4.28639 -0.238147 0
M  V30 5076 C 461.106 5.30676 0.567307 0
M  V30 5077 O 461.329 5.41174 1.8024 0
M  V30 5078 O 460.263 6.01887 -0.0391336 0
M  V30 5079 H 464.089 2.8606 -1.01996 0
M  V30 5080 H 461.674 1.38379 -0.563164 0
M  V30 5081 H 463.556 4.06301 1.11791 0
M  V30 5082 H 462.231 2.90696 1.42399 0
M  V30 5083 H 461.138 3.66152 -0.767044 0
M  V30 5084 H 462.471 4.82143 -0.989915 0
M  V30 5085 N 464.123 0.554532 1.47522 0
M  V30 5086 C 465.4 -0.0360704 1.95567 0
M  V30 5087 C 465.78 -1.48828 1.49711 0
M  V30 5088 O 465.128 -2.16366 0.734717 0
M  V30 5089 C 465.338 0.106631 3.48837 0
M  V30 5090 C 466.686 -0.0400899 4.24581 0
M  V30 5091 O 467.71 0.0340453 3.56184 0
M  V30 5092 O 466.569 -0.199111 5.46137 0
M  V30 5093 H 463.663 -0.0656294 0.824392 0
M  V30 5094 H 466.209 0.620867 1.57935 0
M  V30 5095 H 464.981 1.11727 3.7501 0
M  V30 5096 H 464.604 -0.58804 3.93227 0
M  V30 5097 N 465.601 -1.54893 0.290851 0
M  V30 5098 C 466.848 -1.99933 -0.321391 0
M  V30 5099 C 467.176 -1.17927 -1.54672 0
M  V30 5100 O 466.431 -0.240902 -1.94212 0
M  V30 5101 C 466.73 -3.49815 -0.732397 0
M  V30 5102 C 466.396 -4.4921 0.390056 0
M  V30 5103 C 465.058 -4.76107 0.698223 0
M  V30 5104 C 467.41 -5.08453 1.14562 0
M  V30 5105 C 464.738 -5.59514 1.76526 0
M  V30 5106 C 467.09 -5.9302 2.2025 0
M  V30 5107 C 465.754 -6.18232 2.51684 0
M  V30 5108 H 465.024 -0.731608 -0.117605 0
M  V30 5109 H 467.671 -1.87107 0.407839 0
M  V30 5110 H 465.976 -3.60199 -1.54155 0
M  V30 5111 H 467.673 -3.82083 -1.21712 0
M  V30 5112 H 464.263 -4.28372 0.13976 0
M  V30 5113 H 468.447 -4.87683 0.920801 0
M  V30 5114 H 463.703 -5.77289 2.01364 0
M  V30 5115 H 467.877 -6.37955 2.7926 0
M  V30 5116 H 465.504 -6.82653 3.34499 0
M  V30 5117 N 467.08 -0.0183926 -1.57589 0
M  V30 5118 C 468.496 0.337897 -1.55982 0
M  V30 5119 C 468.696 1.73604 -1.02294 0
M  V30 5120 O 467.752 2.43589 -0.664895 0
M  V30 5121 C 469.065 0.196305 -3.00059 0
M  V30 5122 C 470.613 0.269875 -3.11834 0
M  V30 5123 C 471.088 0.157197 -4.5773 0
M  V30 5124 N 472.579 0.214521 -4.62703 0
M  V30 5125 C 473.314 0.150955 -5.73201 0
M  V30 5126 N 472.81 0.0369212 -6.9279 0
M  V30 5127 N 474.603 0.204162 -5.61729 0
M  V30 5128 H 466.754 -0.93279 -1.90821 0
M  V30 5129 H 469.017 -0.359253 -0.877292 0
M  V30 5130 H 468.723 -0.766383 -3.43248 0
M  V30 5131 H 468.597 0.970908 -3.6449 0
M  V30 5132 H 470.984 1.22302 -2.68563 0
M  V30 5133 H 471.065 -0.534918 -2.50144 0
M  V30 5134 H 470.709 -0.792479 -5.01679 0
M  V30 5135 H 470.639 0.980717 -5.17387 0
M  V30 5136 H 473.13 0.303238 -3.76681 0
M  V30 5137 H 473.443 -0.00518321 -7.728 0
M  V30 5138 H 471.788 0.0022886 -6.95 0
M  V30 5139 H 474.979 0.291575 -4.67191 0
M  V30 5140 H 475.152 0.15116 -6.47824 0
M  V30 5141 N 468.558 1.5553 0.254621 0
M  V30 5142 C 469.835 1.6774 1.00611 0
M  V30 5143 C 470.215 0.555993 2.03647 0
M  V30 5144 O 469.563 -0.441583 2.24193 0
M  V30 5145 C 469.773 3.07725 1.6464 0
M  V30 5146 C 471.121 3.66074 2.15116 0
M  V30 5147 O 472.145 3.10476 1.74595 0
M  V30 5148 O 471.004 4.63526 2.89493 0
M  V30 5149 H 468.098 0.681958 0.467828 0
M  V30 5150 H 470.644 1.67863 0.24902 0
M  V30 5151 H 469.416 3.80792 0.900734 0
M  V30 5152 H 469.039 3.1158 2.46989 0
M  V30 5153 N 470.036 -0.519951 1.48776 0
M  V30 5154 C 471.266 -1.29783 1.60748 0
M  V30 5155 C 471.674 -1.87253 0.27072 0
M  V30 5156 O 471.017 -1.67628 -0.751438 0
M  V30 5157 C 471.079 -2.47984 2.60277 0
M  V30 5158 C 470.743 -2.11526 4.051 0
M  V30 5159 C 471.74 -1.66608 4.92481 0
M  V30 5160 C 469.425 -2.21742 4.50706 0
M  V30 5161 C 471.419 -1.32384 6.23501 0
M  V30 5162 C 469.106 -1.87129 5.81744 0
M  V30 5163 C 470.104 -1.42523 6.67964 0
M  V30 5164 O 469.792 -1.0837 7.96562 0
M  V30 5165 H 469.524 -0.400562 0.544542 0
M  V30 5166 H 472.078 -0.632879 1.95407 0
M  V30 5167 H 470.308 -3.17493 2.2076 0
M  V30 5168 H 471.997 -3.10036 2.61978 0
M  V30 5169 H 472.763 -1.58178 4.58481 0
M  V30 5170 H 468.642 -2.55415 3.83776 0
M  V30 5171 H 472.186 -0.974949 6.90754 0
M  V30 5172 H 468.083 -1.95204 6.15277 0
M  V30 5173 H 468.851 -1.21681 8.09405 0
M  V30 5174 N 471.514 -1.37532 -0.769588 0
M  V30 5175 C 472.93 -1.18379 -1.07045 0
M  V30 5176 C 473.13 -0.0214312 -2.01489 0
M  V30 5177 O 472.186 0.637809 -2.44312 0
M  V30 5178 C 473.499 -2.50338 -1.66588 0
M  V30 5179 C 475.047 -2.56879 -1.78835 0
M  V30 5180 C 475.522 -3.88974 -2.41792 0
M  V30 5181 N 477.013 -3.90428 -2.4924 0
M  V30 5182 C 477.748 -4.89388 -2.98809 0
M  V30 5183 N 477.244 -5.98745 -3.48535 0
M  V30 5184 N 479.037 -4.76791 -2.97703 0
M  V30 5185 H 471.188 -2.11921 -0.142541 0
M  V30 5186 H 473.451 -0.939608 -0.125863 0
M  V30 5187 H 473.157 -3.35767 -1.0466 0
M  V30 5188 H 473.031 -2.67583 -2.65856 0
M  V30 5189 H 475.418 -1.71856 -2.39895 0
M  V30 5190 H 475.499 -2.43516 -0.783166 0
M  V30 5191 H 475.143 -4.74412 -1.81371 0
M  V30 5192 H 475.073 -3.99641 -3.4292 0
M  V30 5193 H 477.564 -3.11433 -2.14052 0
M  V30 5194 H 477.877 -6.70205 -3.84767 0
M  V30 5195 H 476.222 -6.02387 -3.46634 0
M  V30 5196 H 479.413 -3.90478 -2.58157 0
M  V30 5197 H 479.586 -5.54069 -3.36024 0
M  V30 5198 N 472.992 0.995999 -1.22138 0
M  V30 5199 C 474.408 1.25917 -0.980667 0
M  V30 5200 C 474.608 1.98819 0.327604 0
M  V30 5201 O 473.664 2.29587 1.05101 0
M  V30 5202 C 474.977 2.07399 -2.17729 0
M  V30 5203 C 476.525 2.20594 -2.22052 0
M  V30 5204 C 477 3.05462 -3.41258 0
M  V30 5205 N 478.491 3.13049 -3.41401 0
M  V30 5206 C 479.226 3.78997 -4.30289 0
M  V30 5207 N 478.722 4.46899 -5.2939 0
M  V30 5208 N 480.515 3.75728 -4.18073 0
M  V30 5209 H 472.666 0.507158 -2.06256 0
M  V30 5210 H 474.929 0.28658 -0.903646 0
M  V30 5211 H 474.635 1.61191 -3.12586 0
M  V30 5212 H 474.509 3.08154 -2.17534 0
M  V30 5213 H 476.896 2.66017 -1.27745 0
M  V30 5214 H 476.977 1.1928 -2.26287 0
M  V30 5215 H 476.621 2.60739 -4.35864 0
M  V30 5216 H 476.551 4.06911 -3.34262 0
M  V30 5217 H 479.042 2.64721 -2.69688 0
M  V30 5218 H 479.355 4.94952 -5.935 0
M  V30 5219 H 477.7 4.45657 -5.33306 0
M  V30 5220 H 480.891 3.2184 -3.39907 0
M  V30 5221 H 481.064 4.26845 -4.87553 0
M  V30 5222 N 474.47 1.03057 1.19235 0
M  V30 5223 C 475.4 0.633497 2.24742 0
M  V30 5224 C 476.381 -0.358335 1.66283 0
M  V30 5225 O 477.566 -0.240676 1.92703 0
M  V30 5226 C 474.696 -0.0147648 3.47297 0
M  V30 5227 C 473.65 0.899527 4.18441 0
M  V30 5228 C 472.976 0.116281 5.34574 0
M  V30 5229 C 474.276 2.21404 4.73051 0
M  V30 5230 H 475.97 1.5155 2.58211 0
M  V30 5231 H 473.516 0.73014 1.24117 0
M  V30 5232 H 475.469 -0.304202 4.20301 0
M  V30 5233 H 474.193 -0.931577 3.13032 0
M  V30 5234 H 472.852 1.17319 3.47321 0
M  V30 5235 H 472.5 -0.802619 4.96555 0
M  V30 5236 H 472.2 0.725293 5.83107 0
M  V30 5237 H 473.724 -0.166376 6.10373 0
M  V30 5238 H 475.138 1.98601 5.37802 0
M  V30 5239 H 473.535 2.77512 5.32078 0
M  V30 5240 H 474.605 2.86752 3.91026 0
M  V30 5241 N 475.948 -1.35272 0.808662 0
M  V30 5242 C 476.898 -2.27181 0.193124 0
M  V30 5243 C 477.882 -1.47871 -0.634265 0
M  V30 5244 O 479.074 -1.70048 -0.491182 0
M  V30 5245 C 476.203 -3.36979 -0.655751 0
M  V30 5246 C 475.289 -4.23712 0.181481 0
M  V30 5247 N 475.68 -4.90225 1.24551 0
M  V30 5248 C 473.978 -4.45985 -0.0365493 0
M  V30 5249 C 474.679 -5.54537 1.75682 0
M  V30 5250 N 473.655 -5.33107 1.06294 0
M  V30 5251 H 477.457 -2.76101 1.00724 0
M  V30 5252 H 474.971 -1.48823 0.650029 0
M  V30 5253 H 476.968 -4.01774 -1.11279 0
M  V30 5254 H 475.628 -2.89611 -1.46819 0
M  V30 5255 H 476.639 -4.91641 1.62818 0
M  V30 5256 H 473.316 -4.09409 -0.817964 0
M  V30 5257 H 474.706 -6.17597 2.64621 0
M  V30 5258 N 477.426 -0.562348 -1.47226 0
M  V30 5259 C 478.373 0.182461 -2.30078 0
M  V30 5260 C 479.343 0.903503 -1.39377 0
M  V30 5261 O 480.528 0.898188 -1.68337 0
M  V30 5262 C 477.668 1.20322 -3.23445 0
M  V30 5263 C 476.781 0.487717 -4.29238 0
M  V30 5264 C 475.916 1.49422 -5.09752 0
M  V30 5265 C 474.955 0.763976 -6.07314 0
M  V30 5266 N 474.092 1.71755 -6.80768 0
M  V30 5267 H 478.932 -0.530169 -2.93246 0
M  V30 5268 H 476.469 -0.273276 -1.44539 0
M  V30 5269 H 478.427 1.80768 -3.76004 0
M  V30 5270 H 477.057 1.88382 -2.6213 0
M  V30 5271 H 476.109 -0.231374 -3.79696 0
M  V30 5272 H 477.421 -0.0841003 -4.98729 0
M  V30 5273 H 476.575 2.17206 -5.66486 0
M  V30 5274 H 475.314 2.09995 -4.40174 0
M  V30 5275 H 474.319 0.0722344 -5.49753 0
M  V30 5276 H 475.544 0.16391 -6.78902 0
M  V30 5277 H 473.49 2.31177 -6.13916 0
M  V30 5278 H 473.407 1.19802 -7.46447 0
M  V30 5279 H 474.675 2.38638 -7.42073 0
M  V30 5280 N 478.904 1.54736 -0.299062 0
M  V30 5281 C 480.315 1.8569 0.193971 0
M  V30 5282 C 480.666 1.22101 1.53577 0
M  V30 5283 O 479.791 0.51799 2.10109 0
M  V30 5284 C 480.386 3.36895 0.358733 0
M  V30 5285 C 478.945 3.67887 0.795986 0
M  V30 5286 C 478.092 2.77131 -0.096807 0
M  V30 5287 H 481.043 1.49934 -0.520134 0
M  V30 5288 H 481.064 3.61294 1.19361 0
M  V30 5289 H 480.576 3.83148 -0.617998 0
M  V30 5290 H 478.677 3.27151 1.78334 0
M  V30 5291 H 478.79 4.75114 0.616718 0
M  V30 5292 H 477.154 2.51153 0.423581 0
M  V30 5293 H 477.937 3.26204 -1.06986 0
M  V30 5294 N 480.382 0.0267497 1.57577 0
M  V30 5295 C 481.793 -0.512413 1.79531 0
M  V30 5296 C 482.144 -1.72391 0.936791 0
M  V30 5297 O 481.269 -2.15903 0.146543 0
M  V30 5298 C 481.864 -0.936378 3.25603 0
M  V30 5299 C 480.423 -1.42067 3.4856 0
M  V30 5300 C 479.57 -0.384278 2.74624 0
M  V30 5301 H 482.521 0.252797 1.56674 0
M  V30 5302 H 482.542 -1.80088 3.35184 0
M  V30 5303 H 482.054 -0.0544332 3.88062 0
M  V30 5304 H 480.155 -2.32262 2.9135 0
M  V30 5305 H 480.268 -1.42968 4.57271 0
M  V30 5306 H 478.632 -0.851855 2.40032 0
M  V30 5307 H 479.415 0.489159 3.39797 0
M  V30 5308 N 481.861 -1.55662 -0.24637 0
M  V30 5309 C 482.808 -1.90361 -1.30504 0
M  V30 5310 C 483.778 -0.757905 -1.47801 0
M  V30 5311 O 484.963 -1.01161 -1.61775 0
M  V30 5312 C 482.103 -2.2042 -2.65535 0
M  V30 5313 C 481.216 -3.47799 -2.56242 0
M  V30 5314 C 480.351 -3.67426 -3.8363 0
M  V30 5315 C 479.39 -4.88403 -3.68956 0
M  V30 5316 N 478.527 -5.04548 -4.88237 0
M  V30 5317 H 483.367 -2.80645 -1.00213 0
M  V30 5318 H 480.904 -1.38924 -0.483577 0
M  V30 5319 H 482.862 -2.35853 -3.44135 0
M  V30 5320 H 481.492 -1.3334 -2.93973 0
M  V30 5321 H 480.544 -3.40694 -1.69208 0
M  V30 5322 H 481.856 -4.36544 -2.4131 0
M  V30 5323 H 481.01 -3.82821 -4.70673 0
M  V30 5324 H 479.749 -2.76914 -4.01459 0
M  V30 5325 H 478.754 -4.72984 -2.80296 0
M  V30 5326 H 479.979 -5.80375 -3.52621 0
M  V30 5327 H 477.925 -4.16974 -5.06427 0
M  V30 5328 H 477.842 -5.87384 -4.75937 0
M  V30 5329 H 479.11 -5.24355 -5.76777 0
M  V30 5330 N 483.339 0.512053 -1.4905 0
M  V30 5331 C 484.585 1.26874 -1.58212 0
M  V30 5332 C 484.918 1.9241 -0.263073 0
M  V30 5333 O 484.193 1.80181 0.732476 0
M  V30 5334 C 484.476 2.34428 -2.73341 0
M  V30 5335 C 484.329 1.73466 -4.15006 0
M  V30 5336 C 485.648 3.36073 -2.84154 0
M  V30 5337 H 482.767 0.459924 -0.575881 0
M  V30 5338 H 485.409 0.568587 -1.81293 0
M  V30 5339 H 483.559 2.94146 -2.53792 0
M  V30 5340 H 485.231 1.17661 -4.46042 0
M  V30 5341 H 483.474 1.03921 -4.21168 0
M  V30 5342 H 484.145 2.51426 -4.91415 0
M  V30 5343 H 486.621 2.86332 -3.01916 0
M  V30 5344 H 485.497 4.08703 -3.66406 0
M  V30 5345 H 485.758 3.97725 -1.93048 0
M  V30 5346 N 484.817 1.37938 0.762283 0
M  V30 5347 C 485.749 1.30349 1.88525 0
M  V30 5348 C 486.762 0.217402 1.61342 0
M  V30 5349 O 487.951 0.474291 1.72084 0
M  V30 5350 C 485.051 0.994844 3.23969 0
M  V30 5351 C 484.224 2.18829 3.78725 0
M  V30 5352 C 483.283 1.84844 4.92665 0
M  V30 5353 O 482.309 2.57244 5.07754 0
M  V30 5354 N 483.511 0.798201 5.74986 0
M  V30 5355 H 486.276 2.27114 1.95549 0
M  V30 5356 H 483.837 1.31686 0.941825 0
M  V30 5357 H 485.829 0.748168 3.97724 0
M  V30 5358 H 484.399 0.115446 3.12387 0
M  V30 5359 H 483.619 2.59615 2.96637 0
M  V30 5360 H 484.907 2.98497 4.1204 0
M  V30 5361 H 484.305 0.197611 5.65355 0
M  V30 5362 H 482.862 0.611396 6.48926 0
M  V30 5363 N 486.295 -0.989507 1.22664 0
M  V30 5364 C 487.205 -2.11449 1.01619 0
M  V30 5365 C 488.221 -1.73962 -0.036545 0
M  V30 5366 O 489.397 -2.00788 0.156924 0
M  V30 5367 C 486.462 -3.41465 0.600204 0
M  V30 5368 C 485.523 -3.93033 1.72695 0
M  V30 5369 C 484.756 -5.16844 1.33071 0
M  V30 5370 O 484.979 -5.7001 0.210975 0
M  V30 5371 O 483.913 -5.6225 2.14845 0
M  V30 5372 H 487.739 -2.32088 1.9588 0
M  V30 5373 H 485.324 -1.09823 1.01289 0
M  V30 5374 H 487.206 -4.19695 0.37873 0
M  V30 5375 H 485.881 -3.22178 -0.313511 0
M  V30 5376 H 484.788 -3.15961 2.00298 0
M  V30 5377 H 486.121 -4.16758 2.61865 0
M  V30 5378 N 487.773 -1.03688 -1.18687 0
M  V30 5379 C 488.72 -0.624624 -2.22187 0
M  V30 5380 C 489.69 0.365636 -1.62026 0
M  V30 5381 O 490.875 0.260481 -1.89014 0
M  V30 5382 C 488.015 0.0101738 -3.45099 0
M  V30 5383 C 487.128 -1.02709 -4.19613 0
M  V30 5384 C 486.263 -0.361213 -5.2997 0
M  V30 5385 C 485.302 -1.38384 -5.96252 0
M  V30 5386 N 484.439 -0.743196 -6.98155 0
M  V30 5387 H 489.279 -1.51176 -2.56807 0
M  V30 5388 H 486.816 -0.75636 -1.26165 0
M  V30 5389 H 488.774 0.395528 -4.15321 0
M  V30 5390 H 487.404 0.860848 -3.1111 0
M  V30 5391 H 486.456 -1.53043 -3.48256 0
M  V30 5392 H 487.768 -1.80398 -4.65036 0
M  V30 5393 H 486.922 0.0785537 -6.06649 0
M  V30 5394 H 485.661 0.447799 -4.8564 0
M  V30 5395 H 484.666 -1.83378 -5.18317 0
M  V30 5396 H 485.891 -2.19448 -6.42666 0
M  V30 5397 H 483.837 0.0455789 -6.55984 0
M  V30 5398 H 483.754 -1.45784 -7.41811 0
M  V30 5399 H 485.022 -0.327698 -7.78811 0
M  V30 5400 N 489.251 1.34841 -0.815825 0
M  V30 5401 C 490.491 2.00321 -0.406297 0
M  V30 5402 C 490.855 1.63293 1.00992 0
M  V30 5403 O 492.056 2.21563 1.52195 0
M  V30 5404 C 490.327 3.52421 -0.594469 0
M  V30 5405 S 491.886 4.37926 -0.276735 0
M  V30 5406 H 488.704 0.694155 -0.153848 0
M  V30 5407 H 491.306 1.64263 -1.06009 0
M  V30 5408 H 490.01 3.76858 -1.625 0
M  V30 5409 H 489.541 3.9333 0.0743157 0
M  V30 5410 H 491.556 4.87743 0.912215 0
M  V30 5411 N 490.729 0.570148 1.46925 0
M  V30 5412 C 491.661 -0.207909 2.28255 0
M  V30 5413 C 492.674 -0.867301 1.37774 0
M  V30 5414 O 493.863 -0.738976 1.62485 0
M  V30 5415 C 490.963 -1.31298 3.12433 0
M  V30 5416 C 490.136 -0.747915 4.30958 0
M  V30 5417 C 489.195 -1.7391 4.9663 0
M  V30 5418 O 488.221 -1.2801 5.54619 0
M  V30 5419 N 489.423 -3.07288 4.92498 0
M  V30 5420 H 492.188 0.489794 2.95671 0
M  V30 5421 H 489.749 0.407076 1.56699 0
M  V30 5422 H 491.741 -1.97507 3.53232 0
M  V30 5423 H 490.311 -1.91373 2.47175 0
M  V30 5424 H 489.531 0.0913066 3.94094 0
M  V30 5425 H 490.819 -0.349958 5.07595 0
M  V30 5426 H 490.217 -3.47213 4.46609 0
M  V30 5427 H 488.774 -3.69021 5.37277 0
M  V30 5428 N 492.207 -1.54576 0.307264 0
M  V30 5429 C 493.137 -2.26708 -0.55907 0
M  V30 5430 C 494.118 -1.26893 -1.1328 0
M  V30 5431 O 495.303 -1.55677 -1.16097 0
M  V30 5432 C 492.433 -3.01259 -1.72801 0
M  V30 5433 C 491.387 -4.08275 -1.28435 0
M  V30 5434 C 490.713 -4.70575 -2.53895 0
M  V30 5435 C 492.013 -5.2068 -0.411038 0
M  V30 5436 H 493.707 -2.9937 0.042576 0
M  V30 5437 H 491.253 -1.43983 0.0219173 0
M  V30 5438 H 493.206 -3.50444 -2.34023 0
M  V30 5439 H 491.93 -2.26187 -2.356 0
M  V30 5440 H 490.589 -3.59949 -0.695161 0
M  V30 5441 H 490.237 -3.92136 -3.15021 0
M  V30 5442 H 489.937 -5.42854 -2.24908 0
M  V30 5443 H 491.461 -5.22527 -3.15908 0
M  V30 5444 H 492.875 -5.65721 -0.929097 0
M  V30 5445 H 491.272 -5.99716 -0.214664 0
M  V30 5446 H 492.342 -4.81629 0.562287 0
M  V30 5447 N 493.685 -0.035106 -1.57561 0
M  V30 5448 C 494.595 0.960295 -2.14046 0
M  V30 5449 C 495.611 1.3529 -1.0942 0
M  V30 5450 O 496.787 1.43309 -1.41508 0
M  V30 5451 C 493.852 2.22214 -2.66124 0
M  V30 5452 C 492.913 1.8894 -3.85487 0
M  V30 5453 C 492.146 3.09109 -4.35072 0
M  V30 5454 O 492.369 4.21963 -3.83802 0
M  V30 5455 O 491.303 2.91058 -5.26848 0
M  V30 5456 H 495.129 0.509983 -2.99387 0
M  V30 5457 H 492.714 0.185853 -1.48239 0
M  V30 5458 H 494.596 2.96279 -2.99661 0
M  V30 5459 H 493.271 2.66414 -1.83862 0
M  V30 5460 H 492.178 1.12241 -3.56865 0
M  V30 5461 H 493.511 1.49551 -4.6893 0
M  V30 5462 N 495.163 1.55791 0.238111 0
M  V30 5463 C 496.412 1.77234 0.962868 0
M  V30 5464 C 496.725 0.600661 1.86149 0
M  V30 5465 O 497.931 0.698315 2.62366 0
M  V30 5466 C 496.387 3.13808 1.76218 0
M  V30 5467 C 495.995 4.3865 0.910518 0
M  V30 5468 C 497.739 3.44585 2.47914 0
M  V30 5469 C 495.646 5.66252 1.70623 0
M  V30 5470 H 494.576 0.660731 0.36325 0
M  V30 5471 H 497.227 1.8221 0.217242 0
M  V30 5472 H 495.609 3.02963 2.55009 0
M  V30 5473 H 496.783 4.60507 0.164316 0
M  V30 5474 H 495.098 4.15271 0.30647 0
M  V30 5475 H 497.695 4.3714 3.07917 0
M  V30 5476 H 498.038 2.66314 3.19973 0
M  V30 5477 H 498.571 3.56685 1.76127 0
M  V30 5478 H 495.31 6.47369 1.02923 0
M  V30 5479 H 494.83 5.48483 2.42748 0
M  V30 5480 H 496.509 6.05829 2.27114 0
M  V30 5481 N 496.642 -0.504142 1.49319 0
M  V30 5482 C 497.59 -1.62689 1.66238 0
M  V30 5483 C 498.584 -1.6095 0.528349 0
M  V30 5484 O 499.79 -1.65496 0.707887 0
M  V30 5485 H 496.165 -0.539247 0.524134 0
M  V30 5486 H 498.136 -1.45571 2.60484 0
M  V30 5487 C 496.885 -3.00841 1.74328 0
M  V30 5488 H 496.208 -3.02884 2.60963 0
M  V30 5489 H 497.648 -3.78945 1.90202 0
M  V30 5490 C 496.107 -3.33355 0.487416 0
M  V30 5491 O 496.637 -3.99819 -0.388294 0
M  V30 5492 N 494.843 -2.88469 0.351306 0
M  V30 5493 H 494.39 -2.34557 1.06492 0
M  V30 5494 H 494.348 -3.10591 -0.487899 0
M  V30 5495 N 498.12 -1.38341 -0.754957 0
M  V30 5496 C 499.367 -1.34473 -1.51404 0
M  V30 5497 C 499.695 0.0656458 -1.94389 0
M  V30 5498 O 498.95 1.04244 -1.65625 0
M  V30 5499 C 499.249 -2.2452 -2.78075 0
M  V30 5500 C 498.915 -3.72512 -2.54059 0
M  V30 5501 C 497.577 -4.1284 -2.47218 0
M  V30 5502 C 499.929 -4.66197 -2.33044 0
M  V30 5503 C 497.257 -5.44945 -2.17376 0
M  V30 5504 C 499.609 -5.98558 -2.04723 0
M  V30 5505 C 498.273 -6.37972 -1.96337 0
M  V30 5506 H 497.543 -0.492072 -0.554027 0
M  V30 5507 H 500.19 -1.70687 -0.868223 0
M  V30 5508 H 498.495 -1.81357 -3.473 0
M  V30 5509 H 500.192 -2.18832 -3.36026 0
M  V30 5510 H 496.782 -3.40538 -2.60253 0
M  V30 5511 H 500.966 -4.35888 -2.37309 0
M  V30 5512 H 496.222 -5.74426 -2.09391 0
M  V30 5513 H 500.396 -6.70693 -1.87465 0
M  V30 5514 H 498.023 -7.40258 -1.72978 0
M  V30 5515 N 499.598 0.982988 -1.23187 0
M  V30 5516 C 500.546 2.09616 -1.00817 0
M  V30 5517 C 501.54 1.6932 0.0519995 0
M  V30 5518 O 502.746 1.79715 -0.101284 0
M  V30 5519 H 499.121 0.685628 -0.308899 0
M  V30 5520 H 501.092 2.25652 -1.95253 0
M  V30 5521 C 499.841 3.42249 -0.613243 0
M  V30 5522 H 499.164 3.73705 -1.42073 0
M  V30 5523 H 500.604 4.21086 -0.496208 0
M  V30 5524 C 499.063 3.30002 0.678233 0
M  V30 5525 O 499.593 3.6263 1.72807 0
M  V30 5526 N 497.799 2.83164 0.653165 0
M  V30 5527 H 497.346 2.56811 -0.201492 0
M  V30 5528 H 497.304 2.75352 1.51752 0
M  V30 5529 N 501.076 1.04316 1.18135 0
M  V30 5530 C 502.304 0.768117 1.92113 0
M  V30 5531 C 502.719 -0.675057 1.76319 0
M  V30 5532 O 502.076 -1.46038 1.09449 0
M  V30 5533 C 502.127 1.12808 3.43448 0
M  V30 5534 O 501.848 2.5146 3.58747 0
M  V30 5535 C 503.349 0.8779 4.3452 0
M  V30 5536 H 500.569 0.279937 0.609817 0
M  V30 5537 H 503.113 1.39149 1.49859 0
M  V30 5538 H 501.268 0.549623 3.83481 0
M  V30 5539 H 501.682 2.65313 4.52448 0
M  V30 5540 H 503.156 1.17959 5.39249 0
M  V30 5541 H 503.633 -0.187239 4.38801 0
M  V30 5542 H 504.239 1.43977 4.00188 0
M  V30 5543 N 502.554 -1.34406 0.822964 0
M  V30 5544 C 503.484 -2.32052 0.259608 0
M  V30 5545 C 504.465 -1.58243 -0.623961 0
M  V30 5546 O 505.65 -1.86224 -0.55083 0
M  V30 5547 C 502.78 -3.42434 -0.579314 0
M  V30 5548 C 501.734 -4.27499 0.20712 0
M  V30 5549 C 501.06 -5.29349 -0.754547 0
M  V30 5550 C 502.36 -5.02758 1.41533 0
M  V30 5551 H 504.054 -2.79418 1.07545 0
M  V30 5552 H 501.6 -1.34338 0.518593 0
M  V30 5553 H 503.553 -4.0976 -0.983612 0
M  V30 5554 H 502.277 -2.93717 -1.4282 0
M  V30 5555 H 500.936 -3.61776 0.592787 0
M  V30 5556 H 500.584 -4.76895 -1.59939 0
M  V30 5557 H 500.284 -5.8714 -0.232561 0
M  V30 5558 H 501.808 -5.99544 -1.1567 0
M  V30 5559 H 503.222 -5.62938 1.08504 0
M  V30 5560 H 501.619 -5.70123 1.87296 0
M  V30 5561 H 502.689 -4.32451 2.1935 0
M  V30 5562 N 504.032 -0.577932 -1.46621 0
M  V30 5563 C 504.964 0.195801 -2.28362 0
M  V30 5564 C 505.977 0.859983 -1.38232 0
M  V30 5565 O 507.166 0.730349 -1.62875 0
M  V30 5566 C 504.266 1.29639 -3.13124 0
M  V30 5567 C 503.439 0.725049 -4.31349 0
M  V30 5568 C 502.498 1.71274 -4.97546 0
M  V30 5569 O 501.524 1.25067 -5.5529 0
M  V30 5570 N 502.726 3.04672 -4.94121 0
M  V30 5571 H 505.491 -0.505468 -2.95407 0
M  V30 5572 H 503.052 -0.415381 -1.56481 0
M  V30 5573 H 505.044 1.95631 -3.54275 0
M  V30 5574 H 503.614 1.90059 -2.48186 0
M  V30 5575 H 502.834 -0.112205 -3.9404 0
M  V30 5576 H 504.122 0.323034 -5.07774 0
M  V30 5577 H 503.52 3.4484 -4.48444 0
M  V30 5578 H 502.077 3.66166 -5.39227 0
M  V30 5579 N 505.51 1.54411 -0.315457 0
M  V30 5580 C 506.738 2.04833 0.291738 0
M  V30 5581 C 507.153 1.19203 1.46411 0
M  V30 5582 O 506.51 0.220867 1.81159 0
M  V30 5583 C 506.561 3.53969 0.73404 0
M  V30 5584 O 506.282 4.36346 -0.391682 0
M  V30 5585 C 507.783 4.2045 1.40489 0
M  V30 5586 H 505.003 0.668195 0.0612947 0
M  V30 5587 H 507.547 1.99276 -0.45929 0
M  V30 5588 H 505.702 3.5984 1.43506 0
M  V30 5589 H 506.116 5.24481 -0.0447088 0
M  V30 5590 H 507.59 5.26278 1.66539 0
M  V30 5591 H 508.067 3.71067 2.3496 0
M  V30 5592 H 508.673 4.18694 0.746662 0
M  V30 5593 N 506.988 0.0434614 1.5754 0
M  V30 5594 C 507.935 -0.93356 2.11077 0
M  V30 5595 C 508.905 -1.31383 1.01626 0
M  V30 5596 O 510.09 -1.40465 1.29129 0
M  V30 5597 C 507.23 -2.20578 2.65404 0
M  V30 5598 C 506.343 -1.88068 3.88914 0
M  V30 5599 C 505.478 -3.09691 4.31584 0
M  V30 5600 C 504.517 -2.73067 5.47815 0
M  V30 5601 N 503.654 -3.87359 5.85574 0
M  V30 5602 H 508.494 -0.470118 2.94268 0
M  V30 5603 H 506.031 -0.220434 1.45439 0
M  V30 5604 H 507.989 -2.95011 2.94999 0
M  V30 5605 H 506.619 -2.64513 1.85021 0
M  V30 5606 H 505.671 -1.03816 3.6596 0
M  V30 5607 H 506.983 -1.57104 4.73413 0
M  V30 5608 H 506.137 -3.92431 4.62691 0
M  V30 5609 H 504.876 -3.43827 3.45882 0
M  V30 5610 H 503.881 -1.88742 5.16388 0
M  V30 5611 H 505.106 -2.40131 6.35227 0
M  V30 5612 H 503.052 -4.21311 5.02825 0
M  V30 5613 H 502.969 -3.60068 6.64746 0
M  V30 5614 H 504.237 -4.70761 6.21292 0
M  V30 5615 N 508.466 -1.55915 -0.229846 0
M  V30 5616 C 509.396 -1.94754 -1.28815 0
M  V30 5617 C 510.377 -0.814657 -1.49323 0
M  V30 5618 O 511.562 -1.07631 -1.61645 0
M  V30 5619 C 508.692 -2.25705 -2.63959 0
M  V30 5620 C 507.646 -3.41406 -2.5812 0
M  V30 5621 C 506.972 -3.57941 -3.97218 0
M  V30 5622 C 508.272 -4.76616 -2.13623 0
M  V30 5623 H 509.966 -2.83404 -0.965547 0
M  V30 5624 H 507.512 -1.36353 -0.463028 0
M  V30 5625 H 509.465 -2.51467 -3.38146 0
M  V30 5626 H 508.189 -1.339 -2.9789 0
M  V30 5627 H 506.848 -3.1568 -1.86391 0
M  V30 5628 H 506.496 -2.63526 -4.28443 0
M  V30 5629 H 506.196 -4.35757 -3.94195 0
M  V30 5630 H 507.72 -3.86042 -4.73079 0
M  V30 5631 H 509.134 -5.01637 -2.77549 0
M  V30 5632 H 507.531 -5.57655 -2.21677 0
M  V30 5633 H 508.601 -4.7253 -1.08829 0
M  V30 5634 N 509.944 0.496216 -1.49584 0
M  V30 5635 C 511.36 0.827814 -1.36453 0
M  V30 5636 C 511.56 1.97464 -0.401285 0
M  V30 5637 O 510.616 2.51958 0.165296 0
M  V30 5638 C 511.929 1.16352 -2.77277 0
M  V30 5639 C 513.477 1.27145 -2.86013 0
M  V30 5640 C 513.952 1.64042 -4.27615 0
M  V30 5641 N 515.443 1.71082 -4.30448 0
M  V30 5642 C 516.178 2.01085 -5.36984 0
M  V30 5643 N 515.674 2.2928 -6.5376 0
M  V30 5644 N 517.467 2.02376 -5.24405 0
M  V30 5645 H 509.618 -0.259947 -2.10803 0
M  V30 5646 H 511.881 -0.0537163 -0.946477 0
M  V30 5647 H 511.587 0.394153 -3.49484 0
M  V30 5648 H 511.461 2.10582 -3.12946 0
M  V30 5649 H 513.848 2.03152 -2.1404 0
M  V30 5650 H 513.929 0.309542 -2.5392 0
M  V30 5651 H 513.573 0.88583 -5.00115 0
M  V30 5652 H 513.503 2.6134 -4.57175 0
M  V30 5653 H 515.994 1.51434 -3.46232 0
M  V30 5654 H 516.307 2.51376 -7.30774 0
M  V30 5655 H 514.652 2.26726 -6.56978 0
M  V30 5656 H 517.843 1.79829 -4.32179 0
M  V30 5657 H 518.016 2.25425 -6.07526 0
M  V30 5658 N 511.423 1.38739 0.74761 0
M  V30 5659 C 512.353 1.39173 1.87492 0
M  V30 5660 C 513.334 0.256794 1.6815 0
M  V30 5661 O 514.519 0.460762 1.88655 0
M  V30 5662 C 511.649 1.22197 3.25093 0
M  V30 5663 C 510.603 2.32957 3.59047 0
M  V30 5664 C 509.929 2.01082 4.95449 0
M  V30 5665 C 511.229 3.75237 3.6331 0
M  V30 5666 H 512.923 2.3351 1.87386 0
M  V30 5667 H 510.469 1.12399 0.900134 0
M  V30 5668 H 512.422 1.21124 4.03617 0
M  V30 5669 H 511.146 0.243241 3.25693 0
M  V30 5670 H 509.805 2.33226 2.82845 0
M  V30 5671 H 509.453 1.01678 4.92616 0
M  V30 5672 H 509.153 2.75267 5.19136 0
M  V30 5673 H 510.677 2.01638 5.76346 0
M  V30 5674 H 512.091 3.76966 4.31937 0
M  V30 5675 H 510.488 4.48677 3.98509 0
M  V30 5676 H 511.558 4.07122 2.634 0
M  V30 5677 N 512.901 -0.976442 1.23707 0
M  V30 5678 C 514.126 -1.75875 1.09922 0
M  V30 5679 C 514.551 -1.84911 -0.34489 0
M  V30 5680 O 513.909 -1.31363 -1.24954 0
M  V30 5681 C 513.957 -3.16179 1.73388 0
M  V30 5682 O 513.061 -4.00124 0.99871 0
M  V30 5683 H 512.402 -0.540954 0.385052 0
M  V30 5684 H 514.932 -1.22546 1.6384 0
M  V30 5685 H 514.942 -3.66741 1.78788 0
M  V30 5686 H 513.617 -3.08917 2.78466 0
M  V30 5687 H 512.194 -3.58624 1.02193 0
M  V30 5688 N 514.379 -1.04941 -1.1758 0
M  V30 5689 C 515.327 -0.64204 -2.23563 0
M  V30 5690 C 516.321 0.335453 -1.66045 0
M  V30 5691 O 517.527 0.20179 -1.78865 0
M  V30 5692 H 513.902 -0.18944 -0.727748 0
M  V30 5693 H 515.873 -1.54609 -2.55223 0
M  V30 5694 C 514.622 -0.0301051 -3.47687 0
M  V30 5695 H 513.945 -0.773339 -3.92249 0
M  V30 5696 H 515.385 0.217592 -4.23441 0
M  V30 5697 C 513.844 1.2225 -3.13937 0
M  V30 5698 O 514.374 2.3122 -3.28482 0
M  V30 5699 N 512.58 1.11917 -2.68185 0
M  V30 5700 H 512.127 0.232403 -2.5655 0
M  V30 5701 H 512.085 1.95814 -2.45976 0
M  V30 5702 N 515.857 1.33968 -0.830081 0
M  V30 5703 C 517.273 1.51003 -0.516742 0
M  V30 5704 C 517.473 1.77286 0.957694 0
M  V30 5705 O 516.529 1.82797 1.74188 0
M  V30 5706 C 517.842 2.67036 -1.38247 0
M  V30 5707 C 519.39 2.80919 -1.38034 0
M  V30 5708 C 519.865 4.00004 -2.23071 0
M  V30 5709 N 521.356 4.07224 -2.20733 0
M  V30 5710 C 522.091 4.98541 -2.83275 0
M  V30 5711 N 521.587 5.95033 -3.54835 0
M  V30 5712 N 523.38 4.91469 -2.72791 0
M  V30 5713 H 515.531 1.15168 -1.78466 0
M  V30 5714 H 517.794 0.565443 -0.760906 0
M  V30 5715 H 517.5 2.54266 -2.42985 0
M  V30 5716 H 517.374 3.62226 -1.05225 0
M  V30 5717 H 519.761 2.93127 -0.340713 0
M  V30 5718 H 519.842 1.86517 -1.75057 0
M  V30 5719 H 519.486 3.88557 -3.27087 0
M  V30 5720 H 519.416 4.93634 -1.83394 0
M  V30 5721 H 521.907 3.38162 -1.68687 0
M  V30 5722 H 522.22 6.61357 -3.99784 0
M  V30 5723 H 520.565 5.95135 -3.58942 0
M  V30 5724 H 523.756 4.15048 -2.16456 0
M  V30 5725 H 523.929 5.62439 -3.21818 0
M  V30 5726 N 517.335 0.585699 1.46312 0
M  V30 5727 C 518.746 0.159938 1.86014 0
M  V30 5728 C 519.097 -1.27775 1.48889 0
M  V30 5729 O 518.222 -1.96559 0.90519 0
M  V30 5730 C 518.817 0.283485 3.37612 0
M  V30 5731 C 517.376 -0.0874256 3.76298 0
M  V30 5732 C 516.523 0.618055 2.70325 0
M  V30 5733 H 519.474 0.793737 1.37425 0
M  V30 5734 H 519.495 -0.490348 3.77327 0
M  V30 5735 H 519.007 1.32995 3.64601 0
M  V30 5736 H 517.108 -1.13391 3.54927 0
M  V30 5737 H 517.221 0.290975 4.78216 0
M  V30 5738 H 515.585 0.057993 2.54634 0
M  V30 5739 H 516.368 1.66623 3.00153 0
M  V30 5740 N 518.813 -1.54241 0.323641 0
M  V30 5741 C 519.776 -2.22997 -0.529602 0
M  V30 5742 C 520.776 -1.22345 -1.04347 0
M  V30 5743 O 521.966 -1.46924 -0.935889 0
M  V30 5744 C 519.098 -2.93409 -1.73562 0
M  V30 5745 H 520.291 -2.99815 0.0714518 0
M  V30 5746 H 517.844 -1.56121 0.0747258 0
M  V30 5747 H 518.579 -2.20729 -2.37591 0
M  V30 5748 H 518.364 -3.67217 -1.37456 0
M  V30 5749 H 519.854 -3.45794 -2.34128 0
M  V30 5750 N 520.291 -0.0518155 -1.57515 0
M  V30 5751 C 521.538 0.621823 -1.92716 0
M  V30 5752 C 521.866 1.70813 -0.930229 0
M  V30 5753 O 521.121 1.95616 0.0573708 0
M  V30 5754 C 521.42 1.25607 -3.34601 0
M  V30 5755 C 521.086 0.297901 -4.49915 0
M  V30 5756 C 519.748 0.034243 -4.81188 0
M  V30 5757 C 522.1 -0.358738 -5.19964 0
M  V30 5758 C 519.428 -0.893479 -5.79857 0
M  V30 5759 C 521.78 -1.27466 -6.19625 0
M  V30 5760 C 520.444 -1.54698 -6.49326 0
M  V30 5761 H 519.714 0.227541 -0.705199 0
M  V30 5762 H 522.361 -0.118432 -1.91133 0
M  V30 5763 H 520.666 2.07161 -3.32553 0
M  V30 5764 H 522.363 1.78424 -3.59118 0
M  V30 5765 H 518.953 0.513581 -4.25512 0
M  V30 5766 H 523.137 -0.168133 -4.96015 0
M  V30 5767 H 518.393 -1.11193 -6.01204 0
M  V30 5768 H 522.567 -1.78953 -6.73015 0
M  V30 5769 H 520.194 -2.26748 -7.25596 0
M  V30 5770 N 521.769 1.56035 0.221574 0
M  V30 5771 C 522.702 1.87427 1.30178 0
M  V30 5772 C 523.68 0.731658 1.45209 0
M  V30 5773 O 524.864 0.980016 1.61022 0
M  V30 5774 C 521.991 2.08127 2.67209 0
M  V30 5775 C 521.037 3.30813 2.69194 0
M  V30 5776 S 521.87 4.86738 2.23263 0
M  V30 5777 C 523.026 5.10474 3.62171 0
M  V30 5778 H 523.259 2.78756 1.03355 0
M  V30 5779 H 520.792 1.48469 0.423813 0
M  V30 5780 H 522.75 2.20736 3.46101 0
M  V30 5781 H 521.411 1.17595 2.91256 0
M  V30 5782 H 520.604 3.42341 3.6989 0
M  V30 5783 H 520.206 3.1706 1.98366 0
M  V30 5784 H 522.498 4.9937 4.5786 0
M  V30 5785 H 523.441 6.12359 3.55558 0
M  V30 5786 H 523.849 4.38208 3.55857 0
M  V30 5787 N 523.247 -0.488276 1.49845 0
M  V30 5788 C 524.658 -1.06955 1.53028 0
M  V30 5789 C 525.009 -1.9351 0.323797 0
M  V30 5790 O 524.134 -2.08891 -0.565116 0
M  V30 5791 C 524.729 -1.94643 2.77307 0
M  V30 5792 C 523.288 -2.4791 2.83227 0
M  V30 5793 C 522.435 -1.25833 2.47106 0
M  V30 5794 H 525.386 -0.271626 1.56358 0
M  V30 5795 H 525.407 -2.79496 2.5819 0
M  V30 5796 H 524.919 -1.31621 3.65099 0
M  V30 5797 H 523.02 -3.14535 1.99745 0
M  V30 5798 H 523.133 -2.84193 3.85709 0
M  V30 5799 H 521.497 -1.58764 1.99163 0
M  V30 5800 H 522.28 -0.644993 3.37186 0
M  V30 5801 N 524.725 -1.39134 -0.740242 0
M  V30 5802 C 525.95 -1.39518 -1.53459 0
M  V30 5803 C 526.375 0.00968883 -1.88098 0
M  V30 5804 O 525.733 0.995312 -1.51536 0
M  V30 5805 C 525.781 -2.26981 -2.802 0
M  V30 5806 O 524.885 -1.69609 -3.75908 0
M  V30 5807 H 524.226 -0.475328 -0.463637 0
M  V30 5808 H 526.756 -1.83064 -0.913717 0
M  V30 5809 H 526.766 -2.41309 -3.28989 0
M  V30 5810 H 525.441 -3.29081 -2.5432 0
M  V30 5811 H 524.018 -1.64495 -3.34658 0
M  V30 5812 N 526.204 0.969867 -1.24223 0
M  V30 5813 C 527.114 2.09806 -1.0497 0
M  V30 5814 C 528.13 1.73998 0.00886455 0
M  V30 5815 O 529.306 2.00513 -0.188848 0
M  V30 5816 C 526.371 3.40467 -0.654452 0
M  V30 5817 C 525.432 3.90236 -1.78926 0
M  V30 5818 C 524.665 5.14662 -1.41277 0
M  V30 5819 O 524.888 5.69602 -0.301632 0
M  V30 5820 O 523.822 5.58761 -2.23763 0
M  V30 5821 H 527.648 2.28942 -1.99548 0
M  V30 5822 H 525.233 1.08197 -1.03023 0
M  V30 5823 H 527.115 4.19039 -0.445452 0
M  V30 5824 H 525.79 3.22636 0.262216 0
M  V30 5825 H 524.697 3.12735 -2.05299 0
M  V30 5826 H 526.03 4.1254 -2.68462 0
M  V30 5827 N 527.682 1.05563 1.17022 0
M  V30 5828 C 528.93 0.76642 1.87004 0
M  V30 5829 C 529.251 -0.708854 1.8166 0
M  V30 5830 O 528.521 -1.51242 1.2451 0
M  V30 5831 H 527.101 0.280516 0.692329 0
M  V30 5832 H 529.763 1.33557 1.41945 0
M  V30 5833 H 528.859 1.08472 2.92644 0
M  V30 5834 N 529.16 -1.33526 0.837174 0
M  V30 5835 C 530.576 -1.50727 0.524743 0
M  V30 5836 C 530.776 -1.77792 -0.948279 0
M  V30 5837 O 529.832 -1.83719 -1.73216 0
M  V30 5838 C 531.145 -2.66299 1.39661 0
M  V30 5839 C 532.693 -2.80183 1.39521 0
M  V30 5840 C 533.168 -3.98815 2.25189 0
M  V30 5841 N 534.659 -4.06047 2.2289 0
M  V30 5842 C 535.394 -4.97032 2.85915 0
M  V30 5843 N 534.89 -5.93143 3.57985 0
M  V30 5844 N 536.683 -4.90015 2.75394 0
M  V30 5845 H 528.834 -1.1422 1.79074 0
M  V30 5846 H 531.097 -0.561399 0.763894 0
M  V30 5847 H 530.803 -2.52974 2.4433 0
M  V30 5848 H 530.677 -3.61663 1.07145 0
M  V30 5849 H 533.064 -2.92942 0.356253 0
M  V30 5850 H 533.145 -1.85586 1.76044 0
M  V30 5851 H 532.789 -3.86817 3.29143 0
M  V30 5852 H 532.719 -4.92654 1.86009 0
M  V30 5853 H 535.21 -3.37262 1.70478 0
M  V30 5854 H 535.523 -6.59227 4.03286 0
M  V30 5855 H 533.868 -5.93223 3.62093 0
M  V30 5856 H 537.059 -4.13894 2.18654 0
M  V30 5857 H 537.232 -5.60724 3.24796 0
M  V30 5858 N 530.638 -0.59345 -1.46 0
M  V30 5859 C 531.571 0.182196 -2.27472 0
M  V30 5860 C 532.549 0.886901 -1.36282 0
M  V30 5861 O 533.733 0.898627 -1.65701 0
M  V30 5862 C 530.86 1.26236 -3.14296 0
M  V30 5863 C 529.906 0.662331 -4.21326 0
M  V30 5864 S 530.739 -0.519017 -5.32979 0
M  V30 5865 C 531.895 0.562086 -6.23371 0
M  V30 5866 H 532.128 -0.509056 -2.92909 0
M  V30 5867 H 529.661 -0.380607 -1.49635 0
M  V30 5868 H 531.619 1.88075 -3.64881 0
M  V30 5869 H 530.28 1.92562 -2.48151 0
M  V30 5870 H 529.473 1.47461 -4.81945 0
M  V30 5871 H 529.075 0.119381 -3.73809 0
M  V30 5872 H 531.367 1.44494 -6.61912 0
M  V30 5873 H 532.31 -0.00760776 -7.081 0
M  V30 5874 H 532.718 0.871061 -5.57739 0
M  V30 5875 N 532.116 1.54067 -0.331816 0
M  V30 5876 C 533.362 2.01012 0.268667 0
M  V30 5877 C 533.695 1.2195 1.51136 0
M  V30 5878 O 532.97 0.303972 1.9211 0
M  V30 5879 C 533.253 3.55158 0.59456 0
M  V30 5880 C 533.106 4.4494 -0.659409 0
M  V30 5881 C 534.425 4.16939 1.4089 0
M  V30 5882 H 531.544 0.730698 0.0961756 0
M  V30 5883 H 534.186 1.84593 -0.450031 0
M  V30 5884 H 532.336 3.6928 1.20685 0
M  V30 5885 H 534.008 4.42675 -1.29756 0
M  V30 5886 H 532.251 4.1428 -1.28665 0
M  V30 5887 H 532.922 5.50643 -0.386804 0
M  V30 5888 H 535.398 4.06443 0.891272 0
M  V30 5889 H 534.274 5.24889 1.60569 0
M  V30 5890 H 534.535 3.70798 2.40752 0
M  V30 5891 N 533.594 0.0601682 1.57485 0
M  V30 5892 C 534.819 -0.624416 1.97777 0
M  V30 5893 C 535.244 -1.63051 0.937867 0
M  V30 5894 O 534.602 -1.81036 -0.0978845 0
M  V30 5895 C 534.65 -1.27979 3.37126 0
M  V30 5896 O 533.754 -2.39556 3.35688 0
M  V30 5897 H 533.095 -0.161581 0.64404 0
M  V30 5898 H 535.625 0.131237 2.04179 0
M  V30 5899 H 535.635 -1.62937 3.74053 0
M  V30 5900 H 534.31 -0.542501 4.12347 0
M  V30 5901 H 532.887 -2.06478 3.10517 0
M  V30 5902 N 535.072 -1.5615 -0.213296 0
M  V30 5903 C 536.349 -1.70349 -0.961281 0
M  V30 5904 C 536.729 -0.609791 -2.02101 0
M  V30 5905 O 536.077 0.381987 -2.25285 0
M  V30 5906 C 536.287 -3.11982 -1.56424 0
M  V30 5907 C 537.635 -3.71649 -2.05334 0
M  V30 5908 O 538.659 -3.14995 -1.66302 0
M  V30 5909 O 537.518 -4.71038 -2.77102 0
M  V30 5910 H 534.612 -0.694121 -0.449582 0
M  V30 5911 H 537.158 -1.68464 -0.204426 0
M  V30 5912 H 535.93 -3.83046 -0.799457 0
M  V30 5913 H 535.553 -3.18019 -2.38641 0
M  V30 5914 N 536.55 0.480323 -1.50102 0
M  V30 5915 C 537.799 1.22979 -1.59872 0
M  V30 5916 C 538.112 1.93282 -0.30022 0
M  V30 5917 O 539.318 2.70086 -0.276709 0
M  V30 5918 C 537.774 2.23408 -2.82164 0
M  V30 5919 C 537.382 1.5895 -4.18854 0
M  V30 5920 C 539.126 2.99055 -3.01275 0
M  V30 5921 C 537.033 2.57611 -5.32344 0
M  V30 5922 H 535.963 0.462707 -0.59533 0
M  V30 5923 H 538.614 0.501291 -1.7652 0
M  V30 5924 H 536.996 2.99511 -2.59055 0
M  V30 5925 H 538.17 0.887 -4.52182 0
M  V30 5926 H 536.485 0.956191 -4.05273 0
M  V30 5927 H 539.082 3.72876 -3.83233 0
M  V30 5928 H 539.425 3.57897 -2.12639 0
M  V30 5929 H 539.958 2.30066 -3.24522 0
M  V30 5930 H 536.697 2.03521 -6.23105 0
M  V30 5931 H 536.217 3.26041 -5.03445 0
M  V30 5932 H 537.896 3.19627 -5.62537 0
M  V30 5933 N 538.028 1.39524 0.732853 0
M  V30 5934 C 538.976 1.38563 1.86824 0
M  V30 5935 C 539.97 0.268467 1.67259 0
M  V30 5936 O 541.176 0.438613 1.74574 0
M  V30 5937 H 537.551 0.432737 0.615014 0
M  V30 5938 H 539.522 2.34328 1.84751 0
M  V30 5939 C 538.271 1.2481 3.24527 0
M  V30 5940 H 537.594 2.10044 3.40179 0
M  V30 5941 H 539.034 1.28194 4.04156 0
M  V30 5942 C 537.493 -0.0432825 3.36872 0
M  V30 5943 O 538.023 -1.01268 3.88726 0
M  V30 5944 N 536.229 -0.107055 2.90403 0
M  V30 5945 H 535.776 0.682512 2.48394 0
M  V30 5946 H 535.734 -0.970618 2.99042 0
M  V30 5947 N 539.506 -0.963266 1.24736 0
M  V30 5948 C 540.454 -2.07985 1.04139 0
M  V30 5949 C 541.448 -1.69381 -0.0250556 0
M  V30 5950 O 542.654 -1.79531 0.129863 0
M  V30 5951 H 539.029 -0.680627 0.319768 0
M  V30 5952 H 541 -2.22517 1.98818 0
M  V30 5953 C 539.749 -3.4123 0.667615 0
M  V30 5954 H 539.072 -3.71397 1.48 0
M  V30 5955 H 540.512 -4.20244 0.563136 0
M  V30 5956 C 538.971 -3.3104 -0.625647 0
M  V30 5957 O 539.501 -3.65334 -1.67016 0
M  V30 5958 N 537.707 -2.84168 -0.608033 0
M  V30 5959 H 537.254 -2.56458 0.242323 0
M  V30 5960 H 537.212 -2.77732 -1.47352 0
M  V30 5961 N 540.985 -1.06182 -1.16461 0
M  V30 5962 C 541.948 -0.675723 -2.19013 0
M  V30 5963 C 542.948 0.277963 -1.58379 0
M  V30 5964 O 544.138 0.0604962 -1.74095 0
M  V30 5965 C 541.27 0.00591459 -3.40899 0
M  V30 5966 H 542.463 -1.58353 -2.54685 0
M  V30 5967 H 540.016 -0.856908 -1.30716 0
M  V30 5968 H 540.751 0.92652 -3.10783 0
M  V30 5969 H 540.536 -0.67984 -3.86161 0
M  V30 5970 H 542.026 0.26181 -4.16778 0
M  V30 5971 N 542.463 1.3308 -0.844243 0
M  V30 5972 C 543.709 1.98304 -0.452453 0
M  V30 5973 C 544.064 1.65645 0.978746 0
M  V30 5974 O 543.357 0.928849 1.6758 0
M  V30 5975 C 543.551 3.52045 -0.616354 0
M  V30 5976 C 543.38 3.99643 -2.06193 0
M  V30 5977 C 542.15 4.27224 -2.69829 0
M  V30 5978 C 544.348 4.15471 -3.03131 0
M  V30 5979 N 542.33 4.60998 -4.05406 0
M  V30 5980 C 543.701 4.52665 -4.23668 0
M  V30 5981 C 545.756 3.97776 -2.99465 0
M  V30 5982 C 544.459 4.74011 -5.41023 0
M  V30 5983 C 546.485 4.20301 -4.16055 0
M  V30 5984 C 545.847 4.57801 -5.35348 0
M  V30 5985 H 541.946 0.752122 -0.214096 0
M  V30 5986 H 544.53 1.61096 -1.09344 0
M  V30 5987 H 542.701 3.884 -0.00513205 0
M  V30 5988 H 544.433 4.04228 -0.19548 0
M  V30 5989 H 541.188 4.18911 -2.20931 0
M  V30 5990 H 541.612 4.82087 -4.75312 0
M  V30 5991 H 546.254 3.67893 -2.08362 0
M  V30 5992 H 543.972 5.02753 -6.32665 0
M  V30 5993 H 547.558 4.08122 -4.14641 0
M  V30 5994 H 546.438 4.74884 -6.24063 0
M  V30 5995 N 543.941 0.601185 1.45683 0
M  V30 5996 C 545.189 0.0936957 2.01883 0
M  V30 5997 C 545.51 -1.2779 1.47291 0
M  V30 5998 O 544.78 -1.84279 0.664691 0
M  V30 5999 H 543.36 0.0316466 0.746329 0
M  V30 6000 H 546.022 0.781137 1.78562 0
M  V30 6001 H 545.118 0.0386297 3.12076 0
M  V30 6002 N 545.419 -1.53889 0.339982 0
M  V30 6003 C 546.659 -2.02765 -0.258011 0
M  V30 6004 C 547.023 -1.22249 -1.48051 0
M  V30 6005 O 548.224 -1.61007 -2.15245 0
M  V30 6006 C 546.495 -3.5286 -0.567872 0
M  V30 6007 S 548.054 -4.23647 -1.14318 0
M  V30 6008 H 544.872 -0.706814 -0.0770389 0
M  V30 6009 H 547.474 -1.89594 0.476917 0
M  V30 6010 H 546.178 -4.09073 0.329745 0
M  V30 6011 H 545.709 -3.70144 -1.33256 0
M  V30 6012 H 547.724 -4.32676 -2.42911 0
M  V30 6013 N 546.897 -0.0685191 -1.57451 0
M  V30 6014 C 547.827 0.89747 -2.15564 0
M  V30 6015 C 548.808 1.31266 -1.08181 0
M  V30 6016 O 549.993 1.38429 -1.36202 0
M  V30 6017 C 547.123 2.16623 -2.71463 0
M  V30 6018 C 546.077 1.89054 -3.83982 0
M  V30 6019 C 545.403 3.22532 -4.26471 0
M  V30 6020 C 546.703 1.1984 -5.08366 0
M  V30 6021 H 548.397 0.413373 -2.96533 0
M  V30 6022 H 545.943 0.197391 -1.42641 0
M  V30 6023 H 547.896 2.84614 -3.10761 0
M  V30 6024 H 546.62 2.67269 -1.8771 0
M  V30 6025 H 545.279 1.23469 -3.45183 0
M  V30 6026 H 544.927 3.71013 -3.39644 0
M  V30 6027 H 544.627 3.04879 -5.02317 0
M  V30 6028 H 546.151 3.91727 -4.68383 0
M  V30 6029 H 547.565 1.77896 -5.45001 0
M  V30 6030 H 545.962 1.12456 -5.89469 0
M  V30 6031 H 547.032 0.176996 -4.84577 0
M  V30 6032 N 548.375 1.56261 0.205012 0
M  V30 6033 C 549.285 1.96944 1.27476 0
M  V30 6034 C 550.301 0.875636 1.50362 0
M  V30 6035 O 551.477 1.18058 1.6317 0
M  V30 6036 C 548.542 2.29219 2.60115 0
M  V30 6037 C 547.603 3.52255 2.45387 0
M  V30 6038 C 546.836 3.8298 3.71701 0
M  V30 6039 O 547.059 3.15138 4.75441 0
M  V30 6040 O 545.993 4.76435 3.67823 0
M  V30 6041 H 549.819 2.88144 0.959527 0
M  V30 6042 H 547.404 1.43686 0.409217 0
M  V30 6043 H 549.286 2.51098 3.3842 0
M  V30 6044 H 547.961 1.4119 2.91285 0
M  V30 6045 H 546.868 3.35635 1.65227 0
M  V30 6046 H 548.201 4.40719 2.19152 0
M  V30 6047 N 549.853 -0.472356 1.50355 0
M  V30 6048 C 550.785 -1.58795 1.65278 0
M  V30 6049 C 551.798 -1.53782 0.534313 0
M  V30 6050 O 552.987 -1.59193 0.807446 0
M  V30 6051 C 550.087 -2.97672 1.62001 0
M  V30 6052 C 549.26 -3.27568 2.89859 0
M  V30 6053 C 548.319 -4.45993 2.79242 0
M  V30 6054 O 547.345 -4.46364 3.53197 0
M  V30 6055 N 548.547 -5.47578 1.92713 0
M  V30 6056 H 551.312 -1.46411 2.61503 0
M  V30 6057 H 548.873 -0.660751 1.47803 0
M  V30 6058 H 550.865 -3.74862 1.52513 0
M  V30 6059 H 549.435 -3.03832 0.735159 0
M  V30 6060 H 548.655 -2.39003 3.13483 0
M  V30 6061 H 549.943 -3.44352 3.74565 0
M  V30 6062 H 549.341 -5.50099 1.31939 0
M  V30 6063 H 547.898 -6.23757 1.8913 0
M  V30 6064 N 551.331 -1.39911 -0.725443 0
M  V30 6065 C 552.577 -1.37858 -1.48738 0
M  V30 6066 C 552.91 0.0224187 -1.94187 0
M  V30 6067 O 552.185 0.989204 -1.67466 0
M  V30 6068 C 552.468 -2.3594 -2.72038 0
M  V30 6069 C 552.321 -3.85023 -2.32546 0
M  V30 6070 C 553.64 -2.31704 -3.74167 0
M  V30 6071 H 550.759 -0.502074 -0.539528 0
M  V30 6072 H 553.401 -1.70974 -0.828728 0
M  V30 6073 H 551.551 -2.0783 -3.28236 0
M  V30 6074 H 553.223 -4.2392 -1.81905 0
M  V30 6075 H 551.466 -4.01334 -1.64661 0
M  V30 6076 H 552.137 -4.49152 -3.20884 0
M  V30 6077 H 554.613 -2.5658 -3.27576 0
M  V30 6078 H 553.489 -3.02395 -4.58092 0
M  V30 6079 H 553.75 -1.3253 -4.21768 0
M  V30 6080 N 552.809 0.956637 -1.25245 0
M  V30 6081 C 553.719 2.0868 -1.0719 0
M  V30 6082 C 554.735 1.73997 -0.00959074 0
M  V30 6083 O 555.911 2.00301 -0.210104 0
M  V30 6084 C 552.976 3.39754 -0.690526 0
M  V30 6085 C 552.037 3.88316 -1.83055 0
M  V30 6086 C 551.27 5.13134 -1.46728 0
M  V30 6087 O 551.493 5.6925 -0.362029 0
M  V30 6088 O 550.427 5.56356 -2.29677 0
M  V30 6089 H 554.253 2.26813 -2.01965 0
M  V30 6090 H 551.838 1.07098 -1.04165 0
M  V30 6091 H 553.72 4.18543 -0.489871 0
M  V30 6092 H 552.395 3.22896 0.227981 0
M  V30 6093 H 551.302 3.1054 -2.08604 0
M  V30 6094 H 552.635 4.09669 -2.72822 0
M  V30 6095 N 554.287 1.06798 1.15896 0
M  V30 6096 C 555.234 0.683314 2.20453 0
M  V30 6097 C 556.204 -0.32255 1.62938 0
M  V30 6098 O 557.389 -0.210276 1.89638 0
M  V30 6099 C 554.529 0.0813266 3.45004 0
M  V30 6100 C 553.642 1.13799 4.16742 0
M  V30 6101 C 552.777 0.501598 5.28826 0
M  V30 6102 C 551.816 1.54144 5.92373 0
M  V30 6103 N 550.953 0.928038 6.9594 0
M  V30 6104 H 555.793 1.57932 2.52708 0
M  V30 6105 H 553.33 0.789544 1.24115 0
M  V30 6106 H 555.288 -0.285274 4.16224 0
M  V30 6107 H 553.918 -0.77806 3.13283 0
M  V30 6108 H 552.97 1.62223 3.44075 0
M  V30 6109 H 554.282 1.92664 4.60089 0
M  V30 6110 H 553.436 0.0823162 6.06644 0
M  V30 6111 H 552.175 -0.318883 4.86656 0
M  V30 6112 H 551.18 1.97056 5.13273 0
M  V30 6113 H 552.405 2.3641 6.36621 0
M  V30 6114 H 550.351 0.12836 6.55874 0
M  V30 6115 H 550.268 1.65401 7.37685 0
M  V30 6116 H 551.536 0.534071 7.77668 0
M  V30 6117 N 555.766 -1.3263 0.851289 0
M  V30 6118 C 557.014 -1.96978 0.452128 0
M  V30 6119 C 557.335 -1.67715 -0.99482 0
M  V30 6120 O 556.605 -0.98259 -1.69476 0
M  V30 6121 H 555.185 -0.72873 0.164202 0
M  V30 6122 H 557.847 -1.61774 1.08698 0
M  V30 6123 H 556.943 -3.06387 0.594407 0
M  V30 6124 N 557.244 -0.608902 -1.45362 0
M  V30 6125 C 558.474 -0.110852 -2.06302 0
M  V30 6126 C 558.882 1.21062 -1.45398 0
M  V30 6127 O 558.225 1.74861 -0.562976 0
M  V30 6128 C 558.287 0.101793 -3.59356 0
M  V30 6129 C 557.951 -1.13808 -4.42602 0
M  V30 6130 C 558.948 -2.05653 -4.77496 0
M  V30 6131 C 556.633 -1.36727 -4.83333 0
M  V30 6132 C 558.627 -3.18745 -5.51978 0
M  V30 6133 C 556.314 -2.5012 -5.57569 0
M  V30 6134 C 557.312 -3.40957 -5.91809 0
M  V30 6135 O 557 -4.52376 -6.64538 0
M  V30 6136 H 556.732 -0.0666001 -0.672711 0
M  V30 6137 H 559.286 -0.836942 -1.87575 0
M  V30 6138 H 557.516 0.88279 -3.76489 0
M  V30 6139 H 559.205 0.551607 -4.02134 0
M  V30 6140 H 559.971 -1.89172 -4.46586 0
M  V30 6141 H 555.85 -0.669216 -4.56117 0
M  V30 6142 H 559.394 -3.8967 -5.78622 0
M  V30 6143 H 555.291 -2.66553 -5.87894 0
M  V30 6144 H 556.059 -4.51075 -6.82989 0
M  V30 6145 N 558.722 1.53707 -0.348139 0
M  V30 6146 C 559.632 2.28881 0.514857 0
M  V30 6147 C 560.648 1.34168 1.10793 0
M  V30 6148 O 561.824 1.6721 1.12262 0
M  V30 6149 C 558.889 3.05042 1.64774 0
M  V30 6150 C 557.95 4.15389 1.08398 0
M  V30 6151 C 557.183 4.87909 2.16287 0
M  V30 6152 O 557.406 4.60137 3.3709 0
M  V30 6153 O 556.34 5.74254 1.80323 0
M  V30 6154 H 560.166 3.03547 -0.0963699 0
M  V30 6155 H 557.751 1.48972 -0.113043 0
M  V30 6156 H 559.633 3.52656 2.30677 0
M  V30 6157 H 558.308 2.33228 2.24469 0
M  V30 6158 H 557.215 3.72068 0.389341 0
M  V30 6159 H 558.548 4.89318 0.531829 0
M  V30 6160 N 560.2 0.0768682 1.57412 0
M  V30 6161 C 561.11 -0.903207 2.16516 0
M  V30 6162 C 562.126 -1.32341 1.12968 0
M  V30 6163 O 563.302 -1.39507 1.45258 0
M  V30 6164 C 560.367 -2.1508 2.71922 0
M  V30 6165 C 559.428 -1.78653 3.90361 0
M  V30 6166 C 558.661 -2.97465 4.43114 0
M  V30 6167 O 558.884 -4.11638 3.94854 0
M  V30 6168 O 557.818 -2.76987 5.3438 0
M  V30 6169 H 561.644 -0.430427 3.00634 0
M  V30 6170 H 559.229 -0.146485 1.4868 0
M  V30 6171 H 561.111 -2.8823 3.07411 0
M  V30 6172 H 559.786 -2.61446 1.9086 0
M  V30 6173 H 558.693 -1.0274 3.59716 0
M  V30 6174 H 560.026 -1.37066 4.7273 0
M  V30 6175 N 561.678 -1.56367 -0.196722 0
M  V30 6176 C 562.924 -1.81698 -0.914182 0
M  V30 6177 C 563.279 -0.65367 -1.80956 0
M  V30 6178 O 562.572 0.351224 -1.88353 0
M  V30 6179 C 562.766 -3.10663 -1.767 0
M  V30 6180 C 562.595 -4.39428 -0.955689 0
M  V30 6181 C 561.365 -5.01221 -0.64076 0
M  V30 6182 C 563.563 -5.1337 -0.309165 0
M  V30 6183 N 561.545 -6.13608 0.189358 0
M  V30 6184 C 562.916 -6.18815 0.383225 0
M  V30 6185 C 564.971 -4.97393 -0.224726 0
M  V30 6186 C 563.674 -7.10015 1.15201 0
M  V30 6187 C 565.7 -5.89014 0.530658 0
M  V30 6188 C 565.062 -6.93903 1.2115 0
M  V30 6189 H 561.161 -0.716203 -0.31397 0
M  V30 6190 H 563.745 -1.93838 -0.18304 0
M  V30 6191 H 561.916 -2.99762 -2.46976 0
M  V30 6192 H 563.648 -3.24088 -2.42382 0
M  V30 6193 H 560.403 -4.63669 -0.96479 0
M  V30 6194 H 560.827 -6.74389 0.593979 0
M  V30 6195 H 565.469 -4.16331 -0.736754 0
M  V30 6196 H 563.187 -7.9054 1.67547 0
M  V30 6197 H 566.773 -5.78726 0.597326 0
M  V30 6198 H 565.653 -7.63576 1.78665 0
M  V30 6199 N 563.156 0.464375 -1.50603 0
M  V30 6200 C 564.086 1.56944 -1.72889 0
M  V30 6201 C 565.067 1.59979 -0.577997 0
M  V30 6202 O 566.252 1.76138 -0.817855 0
M  V30 6203 C 563.382 2.95225 -1.8292 0
M  V30 6204 C 562.336 3.07056 -2.98162 0
M  V30 6205 C 561.662 4.47051 -2.93343 0
M  V30 6206 C 562.962 2.83648 -4.38567 0
M  V30 6207 H 564.656 1.38547 -2.65415 0
M  V30 6208 H 562.202 0.665082 -1.27721 0
M  V30 6209 H 564.155 3.72467 -1.97095 0
M  V30 6210 H 562.879 3.14793 -0.870209 0
M  V30 6211 H 561.538 2.32248 -2.83648 0
M  V30 6212 H 561.186 4.63547 -1.95276 0
M  V30 6213 H 560.886 4.55902 -3.70712 0
M  V30 6214 H 562.41 5.26304 -3.09575 0
M  V30 6215 H 563.824 3.50636 -4.53572 0
M  V30 6216 H 562.221 3.03937 -5.17438 0
M  V30 6217 H 563.291 1.79451 -4.50472 0
M  V30 6218 N 564.634 1.40294 0.718013 0
M  V30 6219 C 565.564 1.43118 1.84498 0
M  V30 6220 C 566.545 0.292403 1.67568 0
M  V30 6221 O 567.73 0.500675 1.87635 0
M  V30 6222 C 564.86 1.29065 3.22427 0
M  V30 6223 C 563.814 2.40521 3.54025 0
M  V30 6224 C 563.14 2.11546 4.91073 0
M  V30 6225 C 564.44 3.82859 3.55269 0
M  V30 6226 H 566.134 2.37432 1.82391 0
M  V30 6227 H 563.68 1.14283 0.87609 0
M  V30 6228 H 565.633 1.29658 4.00957 0
M  V30 6229 H 564.357 0.312271 3.25104 0
M  V30 6230 H 563.016 2.39173 2.77834 0
M  V30 6231 H 562.664 1.12104 4.90348 0
M  V30 6232 H 562.364 2.86216 5.1318 0
M  V30 6233 H 563.888 2.13817 5.71939 0
M  V30 6234 H 565.302 3.86044 4.23843 0
M  V30 6235 H 563.699 4.57029 3.88902 0
M  V30 6236 H 564.769 4.12617 2.54706 0
M  V30 6237 N 566.112 -0.949982 1.2575 0
M  V30 6238 C 567.06 -2.06869 1.06339 0
M  V30 6239 C 568.054 -1.69399 -0.00708901 0
M  V30 6240 O 569.26 -1.79383 0.148897 0
M  V30 6241 H 565.635 -0.677197 0.326969 0
M  V30 6242 H 567.606 -2.20396 2.01167 0
M  V30 6243 C 566.355 -3.40503 0.703769 0
M  V30 6244 H 565.678 -3.69807 1.51931 0
M  V30 6245 H 567.118 -4.19623 0.607677 0
M  V30 6246 C 565.577 -3.31685 -0.5905 0
M  V30 6247 O 566.107 -3.67085 -1.63131 0
M  V30 6248 N 564.313 -2.84797 -0.577859 0
M  V30 6249 H 563.86 -2.56186 0.26951 0
M  V30 6250 H 563.818 -2.79279 -1.44398 0
M  V30 6251 N 567.59 -1.07411 -1.15328 0
M  V30 6252 C 568.5 -0.706438 -2.23711 0
M  V30 6253 C 569.516 0.282586 -1.7169 0
M  V30 6254 O 570.692 0.129066 -2.00986 0
M  V30 6255 C 567.757 -0.11048 -3.46524 0
M  V30 6256 C 566.818 -1.15282 -4.13532 0
M  V30 6257 C 566.051 -0.585205 -5.30482 0
M  V30 6258 O 566.274 0.598549 -5.67251 0
M  V30 6259 O 565.208 -1.33039 -5.87013 0
M  V30 6260 H 569.034 -1.61031 -2.57493 0
M  V30 6261 H 566.619 -0.847113 -1.23062 0
M  V30 6262 H 568.501 0.21957 -4.20828 0
M  V30 6263 H 567.176 0.766703 -3.14489 0
M  V30 6264 H 566.083 -1.53523 -3.41147 0
M  V30 6265 H 567.416 -2.00192 -4.49649 0
M  V30 6266 N 569.068 1.32177 -0.85831 0
M  V30 6267 C 570.317 1.96392 -0.459689 0
M  V30 6268 C 570.63 1.68659 0.990632 0
M  V30 6269 O 571.836 2.26641 1.49485 0
M  V30 6270 C 570.292 3.51542 -0.7711 0
M  V30 6271 C 569.9 3.8813 -2.2374 0
M  V30 6272 C 571.644 4.2221 -0.44038 0
M  V30 6273 C 569.551 5.36341 -2.49183 0
M  V30 6274 H 568.481 0.735007 -0.168169 0
M  V30 6275 H 571.132 1.50518 -1.0496 0
M  V30 6276 H 569.514 3.95846 -0.11058 0
M  V30 6277 H 570.688 3.54824 -2.94001 0
M  V30 6278 H 569.003 3.30497 -2.533 0
M  V30 6279 H 571.6 5.31234 -0.607855 0
M  V30 6280 H 571.943 4.11683 0.618291 0
M  V30 6281 H 572.476 3.83502 -1.05695 0
M  V30 6282 H 569.215 5.51892 -3.53689 0
M  V30 6283 H 568.735 5.7104 -1.83504 0
M  V30 6284 H 570.414 6.03466 -2.33318 0
M  V30 6285 N 570.547 0.616602 1.45037 0
M  V30 6286 C 571.963 0.280994 1.57107 0
M  V30 6287 C 572.163 -1.21627 1.60653 0
M  V30 6288 O 571.219 -1.9997 1.54169 0
M  V30 6289 C 572.532 0.960116 2.8496 0
M  V30 6290 C 574.08 0.936884 2.98649 0
M  V30 6291 C 574.555 1.59619 4.29285 0
M  V30 6292 N 576.046 1.5621 4.36065 0
M  V30 6293 C 576.781 2.04131 5.35834 0
M  V30 6294 N 576.277 2.60177 6.4209 0
M  V30 6295 N 578.07 1.94845 5.27249 0
M  V30 6296 H 570.221 1.58867 1.40979 0
M  V30 6297 H 572.484 0.666024 0.674623 0
M  V30 6298 H 572.19 2.01473 2.88273 0
M  V30 6299 H 572.064 0.488921 3.74018 0
M  V30 6300 H 574.451 -0.109209 2.94898 0
M  V30 6301 H 574.532 1.44643 2.10979 0
M  V30 6302 H 574.176 2.64166 4.33796 0
M  V30 6303 H 574.106 1.06159 5.15789 0
M  V30 6304 H 576.597 1.15276 3.59889 0
M  V30 6305 H 576.91 2.94513 7.1448 0
M  V30 6306 H 575.255 2.64221 6.42816 0
M  V30 6307 H 578.446 1.50792 4.43147 0
M  V30 6308 H 578.619 2.32504 6.04852 0
M  V30 6309 N 572.025 -1.5352 0.356285 0
M  V30 6310 C 573.441 -1.59599 0.00485267 0
M  V30 6311 C 573.641 -1.37179 -1.47595 0
M  V30 6312 O 572.697 -1.17234 -2.23635 0
M  V30 6313 C 574.01 -2.97277 0.452454 0
M  V30 6314 C 575.558 -3.10357 0.405881 0
M  V30 6315 C 576.033 -4.50432 0.829148 0
M  V30 6316 N 577.524 -4.5652 0.783838 0
M  V30 6317 C 578.259 -5.63077 1.08315 0
M  V30 6318 N 577.755 -6.77429 1.45126 0
M  V30 6319 N 579.548 -5.53014 1.00655 0
M  V30 6320 H 571.699 -1.66346 1.32071 0
M  V30 6321 H 573.962 -0.77971 0.539218 0
M  V30 6322 H 573.668 -3.18792 1.48542 0
M  V30 6323 H 573.542 -3.76836 -0.165762 0
M  V30 6324 H 575.929 -2.88558 -0.617934 0
M  V30 6325 H 576.01 -2.32828 1.05947 0
M  V30 6326 H 575.654 -4.72968 1.85103 0
M  V30 6327 H 575.584 -5.26378 0.152906 0
M  V30 6328 H 578.075 -3.74408 0.512513 0
M  V30 6329 H 578.388 -7.54669 1.66415 0
M  V30 6330 H 576.733 -6.78844 1.48983 0
M  V30 6331 H 579.924 -4.62557 0.718215 0
M  V30 6332 H 580.097 -6.35964 1.24315 0
M  V30 6333 N 573.503 -0.0852151 -1.57369 0
M  V30 6334 C 574.433 0.874556 -2.16503 0
M  V30 6335 C 575.414 1.30111 -1.09568 0
M  V30 6336 O 576.599 1.36977 -1.37662 0
M  V30 6337 C 573.729 2.13731 -2.73745 0
M  V30 6338 C 572.683 1.84971 -3.85966 0
M  V30 6339 C 572.009 3.17991 -4.29867 0
M  V30 6340 C 573.309 1.14442 -5.09608 0
M  V30 6341 H 575.003 0.381899 -2.96954 0
M  V30 6342 H 572.549 0.18225 -1.42842 0
M  V30 6343 H 574.502 2.81302 -3.13763 0
M  V30 6344 H 573.226 2.65263 -1.90534 0
M  V30 6345 H 571.885 1.19801 -3.46473 0
M  V30 6346 H 571.533 3.6739 -3.4356 0
M  V30 6347 H 571.233 2.99534 -5.05523 0
M  V30 6348 H 572.757 3.86737 -4.72511 0
M  V30 6349 H 574.171 1.72105 -5.46857 0
M  V30 6350 H 572.568 1.06197 -5.90629 0
M  V30 6351 H 573.638 0.12559 -4.84737 0
M  V30 6352 N 574.981 1.5647 0.188427 0
M  V30 6353 C 575.891 1.98285 1.2538 0
M  V30 6354 C 576.907 0.891535 1.49424 0
M  V30 6355 O 578.083 1.19782 1.61908 0
M  V30 6356 C 575.148 2.31965 2.57669 0
M  V30 6357 C 574.209 3.54838 2.41638 0
M  V30 6358 C 573.442 3.86901 3.67618 0
M  V30 6359 O 573.665 3.20163 4.72072 0
M  V30 6360 O 572.599 4.80309 3.62749 0
M  V30 6361 H 576.425 2.89145 0.928912 0
M  V30 6362 H 574.01 1.44112 0.393955 0
M  V30 6363 H 575.892 2.54673 3.35737 0
M  V30 6364 H 574.567 1.44271 2.89771 0
M  V30 6365 H 573.474 3.37369 1.61658 0
M  V30 6366 H 574.807 4.43019 2.14465 0
M  V30 6367 N 576.459 -0.456382 1.50847 0
M  V30 6368 C 577.875 -0.791345 1.386 0
M  V30 6369 C 578.075 -1.9633 0.453498 0
M  V30 6370 O 577.131 -2.52308 -0.0984353 0
M  V30 6371 C 578.444 -1.08959 2.80265 0
M  V30 6372 C 579.992 -1.19517 2.89283 0
M  V30 6373 C 580.467 -1.52647 4.31814 0
M  V30 6374 N 581.958 -1.59609 4.34832 0
M  V30 6375 C 582.693 -1.86777 5.42127 0
M  V30 6376 N 582.189 -2.11866 6.59609 0
M  V30 6377 N 583.982 -1.88402 5.29586 0
M  V30 6378 H 576.133 0.315746 2.1004 0
M  V30 6379 H 578.396 0.0787916 0.94472 0
M  V30 6380 H 578.102 -0.301355 3.50407 0
M  V30 6381 H 577.976 -2.02211 3.18419 0
M  V30 6382 H 580.363 -1.97406 2.19351 0
M  V30 6383 H 580.444 -0.242111 2.54652 0
M  V30 6384 H 580.088 -0.752922 5.02288 0
M  V30 6385 H 580.018 -2.49127 4.63943 0
M  V30 6386 H 582.509 -1.42201 3.50125 0
M  V30 6387 H 582.822 -2.31912 7.37182 0
M  V30 6388 H 581.167 -2.09228 6.62758 0
M  V30 6389 H 584.358 -1.68307 4.36795 0
M  V30 6390 H 584.531 -2.09238 6.13289 0
M  V30 6391 N 577.937 -1.40673 -0.710563 0
M  V30 6392 C 578.867 -1.44095 -1.83736 0
M  V30 6393 C 579.848 -0.301286 -1.67411 0
M  V30 6394 O 581.033 -0.510618 -1.87367 0
M  V30 6395 C 578.163 -1.30773 -3.21738 0
M  V30 6396 C 577.117 -2.42395 -3.52745 0
M  V30 6397 C 576.443 -2.14147 -4.89944 0
M  V30 6398 C 577.743 -3.84738 -3.53234 0
M  V30 6399 H 579.437 -2.38396 -1.81129 0
M  V30 6400 H 576.983 -1.14746 -0.870017 0
M  V30 6401 H 578.936 -1.31783 -4.00264 0
M  V30 6402 H 577.66 -0.329507 -3.24934 0
M  V30 6403 H 576.319 -2.40643 -2.76562 0
M  V30 6404 H 575.967 -1.14703 -4.89747 0
M  V30 6405 H 575.667 -2.88934 -5.11655 0
M  V30 6406 H 577.191 -2.16848 -5.70797 0
M  V30 6407 H 578.605 -3.88286 -4.2179 0
M  V30 6408 H 577.002 -4.59085 -3.86473 0
M  V30 6409 H 578.072 -4.13962 -2.52514 0
M  V30 6410 N 579.415 0.9433 -1.26252 0
M  V30 6411 C 580.692 1.66639 -1.02424 0
M  V30 6412 C 581.072 2.06335 0.446006 0
M  V30 6413 O 580.42 1.78551 1.42589 0
M  V30 6414 C 580.63 2.88019 -1.97094 0
M  V30 6415 C 581.978 3.59718 -2.25584 0
M  V30 6416 O 583.002 2.9812 -1.94943 0
M  V30 6417 O 581.861 4.7066 -2.77743 0
M  V30 6418 H 578.955 0.729643 -0.389294 0
M  V30 6419 H 581.501 0.995218 -1.37454 0
M  V30 6420 H 580.273 2.5556 -2.96319 0
M  V30 6421 H 579.896 3.62863 -1.62532 0
M  V30 6422 N 580.893 1.08022 1.14757 0
M  V30 6423 C 581.843 0.676345 2.17737 0
M  V30 6424 C 582.827 -0.302018 1.5804 0
M  V30 6425 O 584.019 -0.11466 1.76628 0
M  V30 6426 C 581.148 0.082984 3.432 0
M  V30 6427 C 580.234 1.0869 4.09936 0
M  V30 6428 N 580.625 2.26891 4.52055 0
M  V30 6429 C 578.923 0.921768 4.36371 0
M  V30 6430 C 579.624 2.90636 5.0389 0
M  V30 6431 N 578.6 2.18266 4.97856 0
M  V30 6432 H 582.402 1.5765 2.4804 0
M  V30 6433 H 579.916 0.954374 1.31398 0
M  V30 6434 H 581.913 -0.224289 4.16296 0
M  V30 6435 H 580.573 -0.812206 3.14378 0
M  V30 6436 H 581.584 2.6457 4.45223 0
M  V30 6437 H 578.261 0.0800499 4.17423 0
M  V30 6438 H 579.651 3.9104 5.46386 0
M  V30 6439 N 582.371 -1.3172 0.865308 0
M  V30 6440 C 583.301 -2.31109 0.333302 0
M  V30 6441 C 584.282 -1.60148 -0.573301 0
M  V30 6442 O 585.467 -1.87882 -0.491305 0
M  V30 6443 C 582.597 -3.44104 -0.470078 0
M  V30 6444 C 581.551 -4.26623 0.343021 0
M  V30 6445 C 580.877 -5.31482 -0.585756 0
M  V30 6446 C 582.177 -4.98001 1.57456 0
M  V30 6447 H 583.871 -2.75855 1.1638 0
M  V30 6448 H 581.417 -1.3262 0.561069 0
M  V30 6449 H 583.37 -4.12682 -0.852752 0
M  V30 6450 H 582.094 -2.98112 -1.33404 0
M  V30 6451 H 580.753 -3.59707 0.707583 0
M  V30 6452 H 580.401 -4.81741 -1.44686 0
M  V30 6453 H 580.101 -5.87582 -0.0456494 0
M  V30 6454 H 581.625 -6.0292 -0.965375 0
M  V30 6455 H 583.039 -5.59201 1.26359 0
M  V30 6456 H 581.436 -5.63876 2.05339 0
M  V30 6457 H 582.506 -4.25253 2.32997 0
M  V30 6458 N 583.85 -0.624285 -1.44708 0
M  V30 6459 C 584.812 0.0749638 -2.29077 0
M  V30 6460 C 585.812 0.778965 -1.40673 0
M  V30 6461 O 587.003 0.624591 -1.62618 0
M  V30 6462 C 584.135 1.11663 -3.22094 0
M  V30 6463 H 585.327 -0.667013 -2.92388 0
M  V30 6464 H 582.88 -0.384098 -1.51507 0
M  V30 6465 H 583.615 1.88881 -2.63618 0
M  V30 6466 H 583.401 0.61583 -3.87234 0
M  V30 6467 H 584.891 1.60585 -3.8549 0
M  V30 6468 N 585.328 1.53329 -0.364422 0
M  V30 6469 C 586.238 2.29414 0.490552 0
M  V30 6470 C 587.254 1.35335 1.09363 0
M  V30 6471 O 588.43 1.68391 1.10483 0
M  V30 6472 C 585.495 3.06772 1.61529 0
M  V30 6473 C 584.556 4.16516 1.03986 0
M  V30 6474 C 583.789 4.90176 2.111 0
M  V30 6475 O 584.012 4.63687 3.32191 0
M  V30 6476 O 582.946 5.76134 1.74222 0
M  V30 6477 H 586.772 3.03428 -0.12856 0
M  V30 6478 H 584.357 1.48843 -0.128837 0
M  V30 6479 H 586.239 3.55082 2.26924 0
M  V30 6480 H 584.914 2.35596 2.21983 0
M  V30 6481 H 583.821 3.7246 0.349856 0
M  V30 6482 H 585.154 4.89855 0.4799 0
M  V30 6483 N 586.806 0.0935595 1.57322 0
M  V30 6484 C 587.753 -0.865935 2.1394 0
M  V30 6485 C 588.723 -1.28083 1.05754 0
M  V30 6486 O 589.908 -1.36285 1.33533 0
M  V30 6487 C 587.048 -2.12023 2.72287 0
M  V30 6488 C 586.161 -1.756 3.94701 0
M  V30 6489 C 585.296 -2.95804 4.41218 0
M  V30 6490 C 584.335 -2.555 5.56225 0
M  V30 6491 N 583.472 -3.68534 5.97601 0
M  V30 6492 H 588.312 -0.376261 2.95615 0
M  V30 6493 H 585.849 -0.174052 1.46067 0
M  V30 6494 H 587.807 -2.85477 3.04235 0
M  V30 6495 H 586.437 -2.58492 1.93343 0
M  V30 6496 H 585.489 -0.921208 3.69077 0
M  V30 6497 H 586.801 -1.41964 4.78171 0
M  V30 6498 H 585.955 -3.77513 4.74941 0
M  V30 6499 H 584.694 -3.32649 3.56645 0
M  V30 6500 H 583.699 -1.72218 5.22131 0
M  V30 6501 H 584.924 -2.19801 6.42545 0
M  V30 6502 H 582.87 -4.051 5.15974 0
M  V30 6503 H 582.787 -3.38737 6.75865 0
M  V30 6504 H 584.055 -4.50757 6.35955 0
M  V30 6505 N 588.284 -1.56567 -0.180126 0
M  V30 6506 C 589.531 -1.81492 -0.898167 0
M  V30 6507 C 589.859 -0.669225 -1.82624 0
M  V30 6508 O 589.114 0.344096 -1.92651 0
M  V30 6509 C 589.413 -3.1252 -1.73395 0
M  V30 6510 C 589.079 -4.40658 -0.955567 0
M  V30 6511 C 587.741 -4.75465 -0.740707 0
M  V30 6512 C 590.093 -5.19593 -0.408948 0
M  V30 6513 C 587.421 -5.86691 0.0320128 0
M  V30 6514 C 589.773 -6.31627 0.350638 0
M  V30 6515 C 588.437 -6.65007 0.576378 0
M  V30 6516 H 587.707 -0.664125 -0.328662 0
M  V30 6517 H 590.354 -1.908 -0.163616 0
M  V30 6518 H 588.659 -2.98515 -2.53763 0
M  V30 6519 H 590.356 -3.29013 -2.29241 0
M  V30 6520 H 586.946 -4.13352 -1.13306 0
M  V30 6521 H 591.13 -4.93104 -0.562307 0
M  V30 6522 H 586.386 -6.11016 0.216735 0
M  V30 6523 H 590.56 -6.92001 0.781497 0
M  V30 6524 H 588.187 -7.51033 1.17703 0
M  V30 6525 N 589.762 0.448376 -1.51087 0
M  V30 6526 C 591.178 0.783984 -1.39017 0
M  V30 6527 C 591.378 1.96087 -0.463904 0
M  V30 6528 O 590.434 2.52357 0.0850534 0
M  V30 6529 C 591.747 1.07471 -2.80839 0
M  V30 6530 C 593.295 1.17981 -2.89913 0
M  V30 6531 C 593.77 1.50354 -4.32617 0
M  V30 6532 N 595.261 1.57301 -4.35673 0
M  V30 6533 C 595.996 1.839 -5.4311 0
M  V30 6534 N 595.492 2.08365 -6.60724 0
M  V30 6535 N 597.285 1.8559 -5.30578 0
M  V30 6536 H 589.436 -0.326881 -2.0987 0
M  V30 6537 H 591.699 -0.0838006 -0.944289 0
M  V30 6538 H 591.405 0.282768 -3.50561 0
M  V30 6539 H 591.279 2.00519 -3.19487 0
M  V30 6540 H 593.666 1.9624 -2.20395 0
M  V30 6541 H 593.747 0.228603 -2.54776 0
M  V30 6542 H 593.391 0.726273 -5.0268 0
M  V30 6543 H 593.321 2.46663 -4.65258 0
M  V30 6544 H 595.812 1.40342 -3.50874 0
M  V30 6545 H 596.125 2.27999 -7.38401 0
M  V30 6546 H 594.47 2.0571 -6.63859 0
M  V30 6547 H 597.661 1.65989 -4.37682 0
M  V30 6548 H 597.834 2.05983 -6.1439 0
M  V30 6549 N 591.24 1.41047 0.703093 0
M  V30 6550 C 592.172 1.38228 1.82827 0
M  V30 6551 C 593.185 0.285637 1.60275 0
M  V30 6552 O 594.374 0.54685 1.69917 0
M  V30 6553 C 591.474 1.13136 3.19458 0
M  V30 6554 C 590.647 2.34695 3.69103 0
M  V30 6555 C 589.706 2.05574 4.84382 0
M  V30 6556 O 588.732 2.78549 4.96386 0
M  V30 6557 N 589.934 1.04135 5.71083 0
M  V30 6558 H 592.699 2.35203 1.85741 0
M  V30 6559 H 590.26 1.35562 0.885125 0
M  V30 6560 H 592.252 0.916183 3.94193 0
M  V30 6561 H 590.822 0.247836 3.11616 0
M  V30 6562 H 590.042 2.71963 2.85359 0
M  V30 6563 H 591.33 3.15705 3.99009 0
M  V30 6564 H 590.728 0.43722 5.64008 0
M  V30 6565 H 589.285 0.886078 6.45749 0
M  V30 6566 N 592.718 -0.936591 1.26751 0
M  V30 6567 C 593.665 -2.03597 1.08706 0
M  V30 6568 C 594.635 -1.66097 -0.00926542 0
M  V30 6569 O 595.82 -1.90199 0.151377 0
M  V30 6570 C 592.96 -3.3727 0.73094 0
M  V30 6571 C 592.073 -3.87778 1.90399 0
M  V30 6572 C 591.208 -5.09859 1.49056 0
M  V30 6573 C 590.247 -5.5264 2.63164 0
M  V30 6574 N 589.384 -6.65921 2.22471 0
M  V30 6575 H 594.224 -2.18364 2.02784 0
M  V30 6576 H 591.761 -1.06985 1.00958 0
M  V30 6577 H 593.719 -4.14128 0.505328 0
M  V30 6578 H 592.349 -3.22337 -0.172868 0
M  V30 6579 H 591.401 -3.07279 2.2424 0
M  V30 6580 H 592.713 -4.15464 2.76028 0
M  V30 6581 H 591.867 -5.9419 1.22567 0
M  V30 6582 H 590.606 -4.8393 0.60524 0
M  V30 6583 H 589.611 -4.66863 2.90377 0
M  V30 6584 H 590.836 -5.80568 3.52303 0
M  V30 6585 H 588.782 -6.41667 1.36379 0
M  V30 6586 H 588.699 -6.93216 3.01641 0
M  V30 6587 H 589.967 -7.53616 1.99205 0
M  V30 6588 N 594.196 -1.08629 -1.14182 0
M  V30 6589 C 595.159 -0.722027 -2.1753 0
M  V30 6590 C 596.159 0.244305 -1.58933 0
M  V30 6591 O 597.349 0.0235545 -1.74184 0
M  V30 6592 C 594.481 -0.0663966 -3.40835 0
M  V30 6593 H 595.674 -1.63719 -2.51269 0
M  V30 6594 H 593.227 -0.884442 -1.28869 0
M  V30 6595 H 593.962 0.860389 -3.12678 0
M  V30 6596 H 593.747 -0.761598 -3.84632 0
M  V30 6597 H 595.237 0.173346 -4.1724 0
M  V30 6598 N 595.674 1.31259 -0.872281 0
M  V30 6599 C 596.899 2.0133 -0.498099 0
M  V30 6600 C 597.324 1.65031 0.902568 0
M  V30 6601 O 596.682 0.860164 1.59596 0
M  V30 6602 C 596.73 3.54411 -0.665205 0
M  V30 6603 O 595.834 4.11347 0.294473 0
M  V30 6604 H 595.175 0.633844 -0.197832 0
M  V30 6605 H 597.705 1.67402 -1.17633 0
M  V30 6606 H 597.715 4.04147 -0.559373 0
M  V30 6607 H 596.39 3.80171 -1.68651 0
M  V30 6608 H 594.967 3.72624 0.143403 0
M  V30 6609 N 597.152 0.631951 1.44375 0
M  V30 6610 C 598.401 0.134214 2.01253 0
M  V30 6611 C 598.714 -1.25171 1.50305 0
M  V30 6612 O 599.92 -1.8435 1.99317 0
M  V30 6613 C 598.376 0.189187 3.59402 0
M  V30 6614 C 597.984 1.57647 4.19346 0
M  V30 6615 C 599.728 -0.252044 4.23751 0
M  V30 6616 C 597.635 1.58651 5.69722 0
M  V30 6617 H 596.565 0.0464101 0.75257 0
M  V30 6618 H 599.216 0.790868 1.65582 0
M  V30 6619 H 597.598 -0.534584 3.92375 0
M  V30 6620 H 598.772 2.32389 3.97909 0
M  V30 6621 H 597.087 1.96186 3.67288 0
M  V30 6622 H 599.684 -0.264084 5.34047 0
M  V30 6623 H 600.027 -1.27951 3.96149 0
M  V30 6624 H 600.56 0.41926 3.95584 0
M  V30 6625 H 597.299 2.59237 6.0206 0
M  V30 6626 H 596.819 0.882039 5.93279 0
M  V30 6627 H 598.498 1.32082 6.33375 0
M  V30 6628 N 598.631 -1.53133 0.372548 0
M  V30 6629 C 599.581 -2.22733 -0.487218 0
M  V30 6630 C 600.565 -1.22506 -1.04312 0
M  V30 6631 O 601.757 -1.47923 -0.972005 0
M  V30 6632 C 598.886 -3.02524 -1.62278 0
M  V30 6633 C 597.972 -4.10133 -1.07943 0
M  V30 6634 N 598.363 -5.05133 -0.259629 0
M  V30 6635 C 596.661 -4.24964 -1.35356 0
M  V30 6636 C 597.362 -5.81687 0.0386656 0
M  V30 6637 N 596.338 -5.40699 -0.560827 0
M  V30 6638 H 600.14 -2.93538 0.145853 0
M  V30 6639 H 597.654 -1.61389 0.180938 0
M  V30 6640 H 599.651 -3.50909 -2.25096 0
M  V30 6641 H 598.311 -2.33252 -2.25884 0
M  V30 6642 H 599.322 -5.178 0.101746 0
M  V30 6643 H 595.999 -3.66919 -1.9919 0
M  V30 6644 H 597.389 -6.68224 0.701841 0
M  V30 6645 N 600.109 -0.101901 -1.5727 0
M  V30 6646 C 601.019 0.868647 -2.17926 0
M  V30 6647 C 602.035 1.30527 -1.1506 0
M  V30 6648 O 603.211 1.37178 -1.47459 0
M  V30 6649 C 600.276 2.10727 -2.75309 0
M  V30 6650 C 599.337 1.7242 -3.93154 0
M  V30 6651 C 598.57 2.90377 -4.47791 0
M  V30 6652 O 598.793 4.05305 -4.01353 0
M  V30 6653 O 597.727 2.6845 -5.38719 0
M  V30 6654 H 601.553 0.382544 -3.01281 0
M  V30 6655 H 599.138 0.122812 -1.48894 0
M  V30 6656 H 601.02 2.83303 -3.11958 0
M  V30 6657 H 599.695 2.58376 -1.94996 0
M  V30 6658 H 598.602 0.970039 -3.61305 0
M  V30 6659 H 599.935 1.29528 -4.74851 0
M  V30 6660 N 601.587 1.56661 0.17182 0
M  V30 6661 C 602.55 1.9549 1.19651 0
M  V30 6662 C 603.55 0.838501 1.37207 0
M  V30 6663 O 604.74 1.10556 1.34622 0
M  V30 6664 C 601.872 2.24927 2.56166 0
M  V30 6665 H 603.065 2.87184 0.864007 0
M  V30 6666 H 600.618 1.50711 0.41425 0
M  V30 6667 H 601.353 1.35944 2.94431 0
M  V30 6668 H 601.138 3.06301 2.4479 0
M  V30 6669 H 602.628 2.55891 3.30014 0
M  V30 6670 N 603.065 -0.440357 1.51323 0
M  V30 6671 C 604.311 -1.18874 1.65047 0
M  V30 6672 C 604.666 -1.88988 0.360742 0
M  V30 6673 O 603.959 -1.80479 -0.643272 0
M  V30 6674 C 604.153 -2.2339 2.78984 0
M  V30 6675 C 603.982 -1.63534 4.18911 0
M  V30 6676 C 602.752 -1.42158 4.84891 0
M  V30 6677 C 604.95 -1.11324 5.02107 0
M  V30 6678 N 602.932 -0.778679 6.08942 0
M  V30 6679 C 604.303 -0.595421 6.17134 0
M  V30 6680 C 606.358 -1.00471 4.87658 0
M  V30 6681 C 605.061 0.0202557 7.19297 0
M  V30 6682 C 607.087 -0.402928 5.90026 0
M  V30 6683 C 606.449 0.10436 7.04323 0
M  V30 6684 H 602.548 -0.422771 0.657866 0
M  V30 6685 H 605.132 -0.485814 1.88542 0
M  V30 6686 H 603.303 -2.91074 2.57158 0
M  V30 6687 H 605.035 -2.90366 2.81904 0
M  V30 6688 H 601.79 -1.68247 4.42707 0
M  V30 6689 H 602.214 -0.474755 6.75333 0
M  V30 6690 H 606.856 -1.38278 3.99548 0
M  V30 6691 H 604.574 0.410468 8.07057 0
M  V30 6692 H 608.16 -0.320897 5.80914 0
M  V30 6693 H 607.04 0.562697 7.82179 0
M  V30 6694 N 604.543 -1.41418 -0.695603 0
M  V30 6695 C 605.771 -1.4413 -1.48439 0
M  V30 6696 C 606.186 -0.0465698 -1.88743 0
M  V30 6697 O 605.543 0.934117 -1.56782 0
M  V30 6698 C 605.594 -2.34998 -2.74696 0
M  V30 6699 O 605.315 -3.69043 -2.36091 0
M  V30 6700 C 606.816 -2.46513 -3.68438 0
M  V30 6701 H 604.036 -0.490905 -0.457442 0
M  V30 6702 H 606.58 -1.85702 -0.856454 0
M  V30 6703 H 604.735 -1.96735 -3.33728 0
M  V30 6704 H 605.149 -4.17505 -3.17474 0
M  V30 6705 H 606.623 -3.1426 -4.53811 0
M  V30 6706 H 607.1 -1.49638 -4.12922 0
M  V30 6707 H 607.706 -2.85412 -3.1531 0
M  V30 6708 N 606.021 0.929856 -1.27246 0
M  V30 6709 C 607.298 1.65544 -1.04186 0
M  V30 6710 C 607.678 2.06796 0.424097 0
M  V30 6711 O 607.026 1.80053 1.40688 0
M  V30 6712 C 607.236 2.85912 -2.00138 0
M  V30 6713 C 608.584 3.57305 -2.29387 0
M  V30 6714 O 609.608 2.96036 -1.98094 0
M  V30 6715 O 608.467 4.67688 -2.82719 0
M  V30 6716 H 605.561 0.725473 -0.397011 0
M  V30 6717 H 608.107 0.980583 -1.38501 0
M  V30 6718 H 606.879 2.52403 -2.99013 0
M  V30 6719 H 606.502 3.61118 -1.66371 0
M  V30 6720 N 607.499 1.09233 1.13605 0
M  V30 6721 C 608.747 0.825525 1.84471 0
M  V30 6722 C 609.068 -0.650702 1.83823 0
M  V30 6723 O 608.338 -1.47204 1.29259 0
M  V30 6724 H 606.918 0.3024 0.683054 0
M  V30 6725 H 609.58 1.38006 1.37624 0
M  V30 6726 H 608.676 1.17727 2.89045 0
M  V30 6727 N 608.977 -1.30795 0.87923 0
M  V30 6728 C 609.924 -2.28282 0.339968 0
M  V30 6729 C 610.894 -1.56134 -0.566685 0
M  V30 6730 O 612.079 -1.84231 -0.496338 0
M  V30 6731 C 609.219 -3.42225 -0.444501 0
M  V30 6732 C 608.332 -4.29204 0.490717 0
M  V30 6733 C 607.467 -5.30302 -0.308784 0
M  V30 6734 C 606.506 -6.08929 0.622272 0
M  V30 6735 N 605.643 -7.01957 -0.14155 0
M  V30 6736 H 610.483 -2.73794 1.17647 0
M  V30 6737 H 608.02 -1.34682 0.591527 0
M  V30 6738 H 609.978 -4.07038 -0.915186 0
M  V30 6739 H 608.608 -2.97799 -1.24562 0
M  V30 6740 H 607.66 -3.6475 1.07988 0
M  V30 6741 H 608.972 -4.84045 1.20425 0
M  V30 6742 H 608.126 -6.00835 -0.841575 0
M  V30 6743 H 606.865 -4.7614 -1.05556 0
M  V30 6744 H 605.87 -5.37278 1.16674 0
M  V30 6745 H 607.095 -6.65178 1.36804 0
M  V30 6746 H 605.041 -6.50192 -0.870966 0
M  V30 6747 H 604.958 -7.54261 0.51246 0
M  V30 6748 H 606.226 -7.76741 -0.655271 0
M  V30 6749 N 610.455 -0.639598 -1.44038 0
M  V30 6750 C 611.365 0.0612377 -2.3452 0
M  V30 6751 C 612.381 0.826717 -1.53106 0
M  V30 6752 O 613.557 0.777059 -1.85806 0
M  V30 6753 C 610.622 1.02492 -3.31204 0
M  V30 6754 C 609.683 0.25788 -4.28525 0
M  V30 6755 C 608.916 1.17566 -5.2059 0
M  V30 6756 O 609.139 2.41461 -5.16771 0
M  V30 6757 O 608.073 0.655407 -5.98321 0
M  V30 6758 H 611.899 -0.68318 -2.95916 0
M  V30 6759 H 609.484 -0.399784 -1.43952 0
M  V30 6760 H 611.366 1.57911 -3.90694 0
M  V30 6761 H 610.041 1.7498 -2.7233 0
M  V30 6762 H 608.948 -0.339566 -3.72556 0
M  V30 6763 H 610.281 -0.427154 -4.90343 0
M  V30 6764 N 611.933 1.52934 -0.380664 0
M  V30 6765 C 612.896 2.24809 0.446473 0
M  V30 6766 C 613.896 1.26133 0.997347 0
M  V30 6767 O 615.086 1.50297 0.880714 0
M  V30 6768 C 612.218 2.99649 1.62553 0
M  V30 6769 H 613.411 2.99343 -0.182677 0
M  V30 6770 H 610.964 1.55736 -0.132618 0
M  V30 6771 H 611.699 2.29395 2.29235 0
M  V30 6772 H 611.484 3.72066 1.23732 0
M  V30 6773 H 612.974 3.54246 2.21133 0
M  V30 6774 N 613.412 0.11024 1.57214 0
M  V30 6775 C 614.345 -0.880224 2.1054 0
M  V30 6776 C 615.323 -1.26658 1.01964 0
M  V30 6777 O 616.507 -1.36917 1.29561 0
M  V30 6778 C 613.634 -2.17676 2.59489 0
M  V30 6779 C 612.68 -1.93914 3.79868 0
M  V30 6780 S 613.513 -1.16336 5.2271 0
M  V30 6781 C 614.669 -2.47188 5.75021 0
M  V30 6782 H 614.902 -0.426614 2.94223 0
M  V30 6783 H 612.435 -0.10336 1.54054 0
M  V30 6784 H 614.393 -2.92175 2.88347 0
M  V30 6785 H 613.054 -2.60156 1.76005 0
M  V30 6786 H 612.247 -2.8996 4.12236 0
M  V30 6787 H 611.849 -1.27539 3.51582 0
M  V30 6788 H 614.141 -3.43079 5.84211 0
M  V30 6789 H 615.084 -2.19377 6.7326 0
M  V30 6790 H 615.492 -2.56154 5.03036 0
M  V30 6791 N 614.89 -1.56749 -0.16351 0
M  V30 6792 C 615.82 -2.00042 -1.20438 0
M  V30 6793 C 616.801 -0.877256 -1.45733 0
M  V30 6794 O 617.986 -1.1439 -1.56935 0
M  V30 6795 C 615.116 -2.36697 -2.54149 0
M  V30 6796 C 614.07 -3.52046 -2.43408 0
M  V30 6797 C 613.396 -3.74466 -3.81679 0
M  V30 6798 C 614.696 -4.85247 -1.93216 0
M  V30 6799 H 616.39 -2.87244 -0.844477 0
M  V30 6800 H 613.936 -1.38194 -0.40478 0
M  V30 6801 H 615.889 -2.65582 -3.27176 0
M  V30 6802 H 614.613 -1.46414 -2.91943 0
M  V30 6803 H 613.272 -3.23301 -1.72834 0
M  V30 6804 H 612.92 -2.81461 -4.1688 0
M  V30 6805 H 612.62 -4.52084 -3.75359 0
M  V30 6806 H 614.144 -4.0576 -4.5628 0
M  V30 6807 H 615.558 -5.12957 -2.56023 0
M  V30 6808 H 613.955 -5.66556 -1.97825 0
M  V30 6809 H 615.025 -4.7672 -0.88689 0
M  V30 6810 N 616.368 0.432326 -1.51554 0
M  V30 6811 C 617.784 0.769195 -1.39841 0
M  V30 6812 C 617.984 1.95584 -0.484675 0
M  V30 6813 O 617.04 2.52433 0.0582829 0
M  V30 6814 C 618.353 1.04487 -2.81963 0
M  V30 6815 C 619.901 1.149 -2.91148 0
M  V30 6816 C 620.376 1.45758 -4.34187 0
M  V30 6817 N 621.867 1.52671 -4.37317 0
M  V30 6818 C 622.602 1.78129 -5.4503 0
M  V30 6819 N 622.098 2.01345 -6.62897 0
M  V30 6820 N 623.891 1.79953 -5.32516 0
M  V30 6821 H 616.042 -0.349122 -2.09511 0
M  V30 6822 H 618.305 -0.0938113 -0.943347 0
M  V30 6823 H 618.011 0.24557 -3.50842 0
M  V30 6824 H 617.885 1.97119 -3.21596 0
M  V30 6825 H 620.272 1.93891 -2.22464 0
M  V30 6826 H 620.353 0.201568 -2.55005 0
M  V30 6827 H 619.997 0.672917 -5.03423 0
M  V30 6828 H 619.927 2.41715 -4.67848 0
M  V30 6829 H 622.418 1.36612 -3.52343 0
M  V30 6830 H 622.731 2.20155 -7.40778 0
M  V30 6831 H 621.076 1.98657 -6.66003 0
M  V30 6832 H 624.267 1.61337 -4.39418 0
M  V30 6833 H 624.44 1.99455 -6.1654 0
M  V30 6834 N 617.846 1.41785 0.688094 0
M  V30 6835 C 618.778 1.40159 1.81351 0
M  V30 6836 C 619.791 0.30262 1.59963 0
M  V30 6837 O 620.98 0.564841 1.69327 0
M  V30 6838 C 618.08 1.16517 3.1824 0
M  V30 6839 C 617.253 2.38597 3.66593 0
M  V30 6840 C 616.312 2.10699 4.82174 0
M  V30 6841 O 615.338 2.83798 4.93404 0
M  V30 6842 N 616.54 1.10187 5.69947 0
M  V30 6843 H 619.305 2.3716 1.83236 0
M  V30 6844 H 616.866 1.36494 0.870697 0
M  V30 6845 H 618.858 0.957941 3.93199 0
M  V30 6846 H 617.428 0.280873 3.11336 0
M  V30 6847 H 616.648 2.74974 2.82459 0
M  V30 6848 H 617.936 3.19919 3.95638 0
M  V30 6849 H 617.334 0.497016 5.63512 0
M  V30 6850 H 615.891 0.954518 6.44773 0
M  V30 6851 N 619.324 -0.923095 1.27737 0
M  V30 6852 C 620.271 -2.02432 1.1086 0
M  V30 6853 C 621.241 -1.66098 0.00835195 0
M  V30 6854 O 622.426 -1.90027 0.171542 0
M  V30 6855 C 619.566 -3.36476 0.766671 0
M  V30 6856 C 618.679 -3.85737 1.94501 0
M  V30 6857 C 617.814 -5.08249 1.54455 0
M  V30 6858 C 616.853 -5.49818 2.6901 0
M  V30 6859 N 615.99 -6.63524 2.29521 0
M  V30 6860 H 620.83 -2.16201 2.05089 0
M  V30 6861 H 618.367 -1.05909 1.02087 0
M  V30 6862 H 620.325 -4.13569 0.549223 0
M  V30 6863 H 618.955 -3.22502 -0.13867 0
M  V30 6864 H 618.007 -3.04883 2.27487 0
M  V30 6865 H 619.319 -4.12513 2.80419 0
M  V30 6866 H 618.473 -5.92857 1.28862 0
M  V30 6867 H 617.212 -4.83261 0.656534 0
M  V30 6868 H 616.217 -4.63757 2.95313 0
M  V30 6869 H 617.442 -5.76799 3.5844 0
M  V30 6870 H 615.388 -6.40185 1.43177 0
M  V30 6871 H 615.305 -6.89978 3.08977 0
M  V30 6872 H 616.573 -7.51461 2.07187 0
M  V30 6873 N 620.802 -1.09834 -1.13024 0
M  V30 6874 C 622.079 -0.749225 -1.80682 0
M  V30 6875 C 622.459 0.765171 -1.96744 0
M  V30 6876 O 621.807 1.68912 -1.53886 0
M  V30 6877 C 622.017 -1.49311 -3.15448 0
M  V30 6878 C 623.365 -1.66162 -3.90737 0
M  V30 6879 O 624.389 -1.45597 -3.25085 0
M  V30 6880 O 623.248 -2.00211 -5.08505 0
M  V30 6881 H 620.342 -0.269614 -0.781817 0
M  V30 6882 H 622.888 -1.20078 -1.19914 0
M  V30 6883 H 621.66 -2.52407 -2.99009 0
M  V30 6884 H 621.283 -1.034 -3.8392 0
M  V30 6885 N 622.28 1.30327 -0.886154 0
M  V30 6886 C 623.51 1.99964 -0.519421 0
M  V30 6887 C 623.918 1.66593 0.89686 0
M  V30 6888 O 623.261 0.899886 1.60149 0
M  V30 6889 C 623.323 3.54187 -0.615795 0
M  V30 6890 C 622.987 4.11078 -1.9966 0
M  V30 6891 C 623.984 4.26985 -2.96614 0
M  V30 6892 C 621.669 4.46429 -2.30231 0
M  V30 6893 C 623.663 4.77456 -4.22273 0
M  V30 6894 C 621.35 4.966 -3.56135 0
M  V30 6895 C 622.348 5.12066 -4.5197 0
M  V30 6896 O 622.036 5.61154 -5.7564 0
M  V30 6897 H 621.768 0.645979 -0.199217 0
M  V30 6898 H 624.322 1.67154 -1.19368 0
M  V30 6899 H 622.552 3.86528 0.115448 0
M  V30 6900 H 624.241 4.05065 -0.26017 0
M  V30 6901 H 625.007 3.99975 -2.74308 0
M  V30 6902 H 620.886 4.33658 -1.56404 0
M  V30 6903 H 624.43 4.89444 -4.97082 0
M  V30 6904 H 620.327 5.23045 -3.78277 0
M  V30 6905 H 621.095 5.79494 -5.78039 0
M  V30 6906 N 623.758 0.647228 1.43697 0
M  V30 6907 C 624.668 -0.0487997 2.34549 0
M  V30 6908 C 625.684 -0.818586 1.53542 0
M  V30 6909 O 626.86 -0.767195 1.86215 0
M  V30 6910 C 623.925 -1.00734 3.31743 0
M  V30 6911 C 622.986 -0.23515 4.28655 0
M  V30 6912 C 622.219 -1.14803 5.21206 0
M  V30 6913 O 622.442 -2.38717 5.18045 0
M  V30 6914 O 621.376 -0.623667 5.9866 0
M  V30 6915 H 625.202 0.698863 2.9555 0
M  V30 6916 H 622.787 0.407412 1.43738 0
M  V30 6917 H 624.669 -1.55837 3.91526 0
M  V30 6918 H 623.344 -1.73534 2.73254 0
M  V30 6919 H 622.251 0.359319 3.7237 0
M  V30 6920 H 623.584 0.453152 4.9011 0
M  V30 6921 N 625.236 -1.5273 0.388769 0
M  V30 6922 C 626.464 -2.05992 -0.193677 0
M  V30 6923 C 626.879 -1.26053 -1.40557 0
M  V30 6924 O 626.236 -0.307049 -1.79898 0
M  V30 6925 C 626.287 -3.57068 -0.564321 0
M  V30 6926 O 626.008 -4.3398 0.599422 0
M  V30 6927 C 627.509 -4.26674 -1.20269 0
M  V30 6928 H 624.729 -0.670358 -0.0293445 0
M  V30 6929 H 627.273 -1.96857 0.553844 0
M  V30 6930 H 625.428 -3.66277 -1.26174 0
M  V30 6931 H 625.842 -5.2367 0.294895 0
M  V30 6932 H 627.316 -5.33625 -1.4124 0
M  V30 6933 H 627.793 -3.81854 -2.16989 0
M  V30 6934 H 628.399 -4.2178 -0.546047 0
M  V30 6935 N 626.714 -0.118576 -1.57153 0
M  V30 6936 C 627.677 0.817464 -2.14127 0
M  V30 6937 C 628.677 1.1949 -1.07604 0
M  V30 6938 O 629.867 1.12048 -1.33382 0
M  V30 6939 C 626.999 2.10541 -2.68115 0
M  V30 6940 H 628.192 0.322339 -2.98163 0
M  V30 6941 H 625.745 0.130655 -1.55753 0
M  V30 6942 H 626.48 2.64485 -1.87665 0
M  V30 6943 H 626.265 1.84425 -3.4602 0
M  V30 6944 H 627.755 2.77453 -3.12105 0
M  V30 6945 N 628.193 1.56834 0.155195 0
M  V30 6946 C 629.421 1.87049 0.884326 0
M  V30 6947 C 629.836 0.705839 1.7511 0
M  V30 6948 O 629.193 -0.324641 1.79589 0
M  V30 6949 C 629.244 3.1644 1.74781 0
M  V30 6950 O 628.965 4.28417 0.915978 0
M  V30 6951 C 630.466 3.60113 2.58522 0
M  V30 6952 H 627.686 0.620196 0.25612 0
M  V30 6953 H 630.23 2.03946 0.150445 0
M  V30 6954 H 628.385 3.01321 2.43484 0
M  V30 6955 H 628.799 5.02353 1.50803 0
M  V30 6956 H 630.273 4.53508 3.14698 0
M  V30 6957 H 630.75 2.85005 3.34169 0
M  V30 6958 H 631.356 3.77898 1.95124 0
M  V30 6959 N 629.671 -0.424282 1.51781 0
M  V30 6960 C 630.601 -1.52305 1.7699 0
M  V30 6961 C 631.582 -1.5839 0.620209 0
M  V30 6962 O 632.767 -1.73908 0.864268 0
M  V30 6963 C 629.897 -2.90271 1.90683 0
M  V30 6964 C 628.851 -2.99043 3.06198 0
M  V30 6965 C 628.177 -4.39116 3.05092 0
M  V30 6966 C 629.477 -2.7192 4.45934 0
M  V30 6967 H 631.171 -1.31461 2.68995 0
M  V30 6968 H 628.717 -0.630985 1.29439 0
M  V30 6969 H 630.67 -3.6711 2.06901 0
M  V30 6970 H 629.394 -3.12376 0.953365 0
M  V30 6971 H 628.053 -2.24646 2.89706 0
M  V30 6972 H 627.701 -4.58207 2.07498 0
M  V30 6973 H 627.401 -4.45912 3.82669 0
M  V30 6974 H 628.925 -5.17911 3.2342 0
M  V30 6975 H 630.339 -3.38487 4.62709 0
M  V30 6976 H 628.736 -2.90111 5.25315 0
M  V30 6977 H 629.806 -1.67445 4.55072 0
M  V30 6978 N 631.149 -1.42148 -0.680565 0
M  V30 6979 C 632.374 -1.45901 -1.47403 0
M  V30 6980 C 632.799 -0.0700985 -1.87969 0
M  V30 6981 O 632.157 0.930145 -1.55621 0
M  V30 6982 C 632.205 -2.38661 -2.70321 0
M  V30 6983 O 631.309 -1.85399 -3.68376 0
M  V30 6984 H 630.65 -0.494565 -0.443059 0
M  V30 6985 H 633.18 -1.86774 -0.835251 0
M  V30 6986 H 633.19 -2.55046 -3.18458 0
M  V30 6987 H 631.865 -3.39571 -2.40134 0
M  V30 6988 H 630.442 -1.78541 -3.2738 0
M  V30 6989 N 632.627 0.916307 -1.28225 0
M  V30 6990 C 633.537 2.05165 -1.13775 0
M  V30 6991 C 634.553 1.73879 -0.0649418 0
M  V30 6992 O 635.729 1.99531 -0.273722 0
M  V30 6993 C 632.794 3.37385 -0.798267 0
M  V30 6994 C 631.855 3.82296 -1.95316 0
M  V30 6995 C 631.088 5.08206 -1.62978 0
M  V30 6996 O 631.311 5.6781 -0.542948 0
M  V30 6997 O 630.245 5.48768 -2.47261 0
M  V30 6998 H 634.071 2.20273 -2.09078 0
M  V30 6999 H 631.656 1.0373 -1.07519 0
M  V30 7000 H 633.538 4.16773 -0.62278 0
M  V30 7001 H 632.213 3.23458 0.125139 0
M  V30 7002 H 631.12 3.03746 -2.18378 0
M  V30 7003 H 632.453 4.00782 -2.85718 0
M  V30 7004 N 634.105 1.10431 1.1244 0
M  V30 7005 C 635.354 0.841539 1.83306 0
M  V30 7006 C 635.667 -0.634961 1.85007 0
M  V30 7007 O 636.873 -1.01363 2.51869 0
M  V30 7008 C 635.329 1.45565 3.29149 0
M  V30 7009 C 634.937 2.96544 3.35806 0
M  V30 7010 C 636.681 1.27227 4.04986 0
M  V30 7011 C 634.588 3.5099 4.75983 0
M  V30 7012 H 633.518 0.311156 0.686803 0
M  V30 7013 H 636.169 1.32829 1.26604 0
M  V30 7014 H 634.551 0.896574 3.85717 0
M  V30 7015 H 635.725 3.58766 2.89177 0
M  V30 7016 H 634.04 3.14036 2.73442 0
M  V30 7017 H 636.637 1.65348 5.08492 0
M  V30 7018 H 636.98 0.213834 4.1575 0
M  V30 7019 H 637.513 1.79941 3.54776 0
M  V30 7020 H 634.252 4.56499 4.70413 0
M  V30 7021 H 633.772 2.93535 5.23065 0
M  V30 7022 H 635.451 3.48808 5.44924 0
M  V30 7023 N 635.583 -1.29855 0.893053 0
M  V30 7024 C 636.53 -2.27909 0.364161 0
M  V30 7025 C 637.5 -1.56726 -0.550093 0
M  V30 7026 O 638.685 -1.84747 -0.47677 0
M  V30 7027 C 635.825 -3.42678 -0.408178 0
M  V30 7028 C 634.938 -4.28659 0.536212 0
M  V30 7029 C 634.073 -5.30599 -0.252521 0
M  V30 7030 C 633.112 -6.08234 0.686822 0
M  V30 7031 N 632.249 -7.02068 -0.0670902 0
M  V30 7032 H 637.089 -2.72531 1.20544 0
M  V30 7033 H 634.626 -1.34047 0.605779 0
M  V30 7034 H 636.584 -4.07986 -0.871962 0
M  V30 7035 H 635.214 -2.99103 -1.21397 0
M  V30 7036 H 634.266 -3.63584 1.1185 0
M  V30 7037 H 635.578 -4.8274 1.25552 0
M  V30 7038 H 634.732 -6.01694 -0.777801 0
M  V30 7039 H 633.471 -4.77233 -1.005 0
M  V30 7040 H 632.476 -5.3601 1.22366 0
M  V30 7041 H 633.701 -6.63689 1.43852 0
M  V30 7042 H 631.647 -6.5108 -0.801955 0
M  V30 7043 H 631.564 -7.53675 0.59243 0
M  V30 7044 H 632.832 -7.77392 -0.572851 0
M  V30 7045 N 637.061 -0.65484 -1.43351 0
M  V30 7046 C 638.024 0.0263562 -2.29185 0
M  V30 7047 C 639.024 0.748951 -1.42293 0
M  V30 7048 O 640.214 0.589957 -1.63906 0
M  V30 7049 C 637.346 1.04806 -3.2439 0
M  V30 7050 H 638.539 -0.728883 -2.90908 0
M  V30 7051 H 636.092 -0.416149 -1.50658 0
M  V30 7052 H 636.827 1.83247 -2.67565 0
M  V30 7053 H 636.612 0.533554 -3.88453 0
M  V30 7054 H 638.102 1.52372 -3.88809 0
M  V30 7055 N 638.539 1.52521 -0.396863 0
M  V30 7056 C 639.469 2.29582 0.425941 0
M  V30 7057 C 640.45 1.33281 1.05689 0
M  V30 7058 O 641.635 1.62181 1.06823 0
M  V30 7059 C 638.765 3.10821 1.54943 0
M  V30 7060 C 637.719 4.15069 1.04413 0
M  V30 7061 C 637.045 4.84578 2.26028 0
M  V30 7062 C 638.345 5.22191 0.106767 0
M  V30 7063 H 640.039 2.98612 -0.217045 0
M  V30 7064 H 637.585 1.43611 -0.105826 0
M  V30 7065 H 639.538 3.63492 2.13193 0
M  V30 7066 H 638.262 2.39538 2.22011 0
M  V30 7067 H 636.921 3.63389 0.484118 0
M  V30 7068 H 636.569 4.09835 2.91623 0
M  V30 7069 H 636.269 5.55043 1.92876 0
M  V30 7070 H 637.793 5.40056 2.84906 0
M  V30 7071 H 639.207 5.70176 0.597685 0
M  V30 7072 H 637.604 5.99947 -0.135352 0
M  V30 7073 H 638.674 4.77531 -0.842134 0
M  V30 7074 N 640.017 0.126909 1.57088 0
M  V30 7075 C 640.947 -0.816847 2.18746 0
M  V30 7076 C 641.928 -1.27161 1.12979 0
M  V30 7077 O 643.113 -1.33279 1.41246 0
M  V30 7078 C 640.243 -2.06398 2.79315 0
M  V30 7079 C 639.197 -1.74673 3.90735 0
M  V30 7080 C 638.523 -3.06482 4.38147 0
M  V30 7081 C 639.823 -1.0089 5.12463 0
M  V30 7082 H 641.517 -0.303032 2.97863 0
M  V30 7083 H 639.063 -0.144314 1.43275 0
M  V30 7084 H 641.016 -2.72885 3.2111 0
M  V30 7085 H 639.74 -2.60118 1.975 0
M  V30 7086 H 638.399 -1.10572 3.49527 0
M  V30 7087 H 638.047 -3.58152 3.5318 0
M  V30 7088 H 637.747 -2.86025 5.13287 0
M  V30 7089 H 639.271 -3.74073 4.82599 0
M  V30 7090 H 640.685 -1.57546 5.51228 0
M  V30 7091 H 639.082 -0.905006 5.93237 0
M  V30 7092 H 640.152 0.00297335 4.849 0
M  V30 7093 N 641.495 -1.56914 -0.146875 0
M  V30 7094 C 642.442 -1.98275 -1.18134 0
M  V30 7095 C 643.412 -0.850367 -1.42681 0
M  V30 7096 O 644.597 -1.11244 -1.55014 0
M  V30 7097 C 641.737 -2.36861 -2.5098 0
M  V30 7098 C 640.85 -3.63391 -2.33605 0
M  V30 7099 C 639.985 -3.91079 -3.59486 0
M  V30 7100 C 639.024 -5.10879 -3.37149 0
M  V30 7101 N 638.161 -5.34577 -4.55161 0
M  V30 7102 H 643.001 -2.8645 -0.821622 0
M  V30 7103 H 640.538 -1.41718 -0.394248 0
M  V30 7104 H 642.496 -2.57262 -3.28439 0
M  V30 7105 H 641.126 -1.51766 -2.84898 0
M  V30 7106 H 640.178 -3.50766 -1.47199 0
M  V30 7107 H 641.49 -4.51007 -2.13059 0
M  V30 7108 H 640.644 -4.11979 -4.45374 0
M  V30 7109 H 639.383 -3.01885 -3.83036 0
M  V30 7110 H 638.388 -4.89853 -2.49649 0
M  V30 7111 H 639.613 -6.01626 -3.14997 0
M  V30 7112 H 637.559 -4.48337 -4.78884 0
M  V30 7113 H 637.476 -6.16463 -4.37618 0
M  V30 7114 H 638.744 -5.59975 -5.42263 0
M  V30 7115 N 642.974 0.416227 -1.52004 0
M  V30 7116 C 643.921 1.50666 -1.74838 0
M  V30 7117 C 644.891 1.55245 -0.590599 0
M  V30 7118 O 646.076 1.71928 -0.827374 0
M  V30 7119 C 643.216 2.88185 -1.89851 0
M  V30 7120 C 642.329 2.92971 -3.17478 0
M  V30 7121 C 641.464 4.21745 -3.22962 0
M  V30 7122 C 640.503 4.20478 -4.4482 0
M  V30 7123 N 639.64 5.40811 -4.47736 0
M  V30 7124 H 644.48 1.30498 -2.67907 0
M  V30 7125 H 642.017 0.633568 -1.32757 0
M  V30 7126 H 643.975 3.68007 -1.96537 0
M  V30 7127 H 642.605 3.06865 -1.00169 0
M  V30 7128 H 641.657 2.05684 -3.19997 0
M  V30 7129 H 642.969 2.87899 -4.07328 0
M  V30 7130 H 642.123 5.09954 -3.28682 0
M  V30 7131 H 640.862 4.29503 -2.31038 0
M  V30 7132 H 639.867 3.30659 -4.39254 0
M  V30 7133 H 641.092 4.14366 -5.38031 0
M  V30 7134 H 639.038 5.4925 -3.58692 0
M  V30 7135 H 638.955 5.37705 -5.31422 0
M  V30 7136 H 640.223 6.30993 -4.57676 0
M  V30 7137 N 644.452 1.42507 0.673017 0
M  V30 7138 C 645.402 1.4258 1.77919 0
M  V30 7139 C 646.386 0.296885 1.58137 0
M  V30 7140 O 647.578 0.539243 1.68586 0
M  V30 7141 C 644.707 1.33238 3.1639 0
M  V30 7142 C 643.793 2.51081 3.41788 0
M  V30 7143 N 644.184 3.76498 3.37761 0
M  V30 7144 C 642.482 2.4538 3.72431 0
M  V30 7145 C 643.183 4.54784 3.62693 0
M  V30 7146 N 642.159 3.8522 3.83544 0
M  V30 7147 H 645.961 2.37442 1.73201 0
M  V30 7148 H 643.475 1.36881 0.873924 0
M  V30 7149 H 645.472 1.31372 3.9566 0
M  V30 7150 H 644.132 0.393794 3.22303 0
M  V30 7151 H 645.143 4.09068 3.17622 0
M  V30 7152 H 641.82 1.60109 3.85579 0
M  V30 7153 H 643.21 5.63774 3.65525 0
M  V30 7154 N 645.93 -0.909495 1.28709 0
M  V30 7155 C 646.84 -2.04558 1.14861 0
M  V30 7156 C 647.856 -1.73842 0.0741621 0
M  V30 7157 O 649.032 -1.99383 0.2843 0
M  V30 7158 C 646.097 -3.36957 0.816148 0
M  V30 7159 C 645.158 -3.81255 1.97341 0
M  V30 7160 C 644.391 -5.07335 1.65671 0
M  V30 7161 O 644.614 -5.67514 0.573053 0
M  V30 7162 O 643.548 -5.47449 2.50167 0
M  V30 7163 H 647.374 -2.19161 2.10243 0
M  V30 7164 H 644.959 -1.03159 1.08068 0
M  V30 7165 H 646.841 -4.16436 0.644873 0
M  V30 7166 H 645.516 -3.2352 -0.107983 0
M  V30 7167 H 644.423 -3.02584 2.19986 0
M  V30 7168 H 645.756 -3.99261 2.87839 0
M  V30 7169 N 647.408 -1.11026 -1.11852 0
M  V30 7170 C 648.371 -0.768006 -2.1595 0
M  V30 7171 C 649.371 0.210538 -1.59416 0
M  V30 7172 O 650.561 -0.0133978 -1.74195 0
M  V30 7173 C 647.693 -0.138678 -3.40618 0
M  V30 7174 H 648.886 -1.69012 -2.4774 0
M  V30 7175 H 646.439 -0.911578 -1.26964 0
M  V30 7176 H 647.174 0.793872 -3.14433 0
M  V30 7177 H 646.959 -0.843012 -3.8293 0
M  V30 7178 H 648.449 0.0848039 -4.17514 0
M  V30 7179 N 648.886 1.2938 -0.899927 0
M  V30 7180 C 650.133 1.9555 -0.525963 0
M  V30 7181 C 650.461 1.70945 0.927789 0
M  V30 7182 O 649.716 1.01545 1.67293 0
M  V30 7183 C 650.015 3.49114 -0.765113 0
M  V30 7184 C 649.681 3.93796 -2.19626 0
M  V30 7185 C 648.343 4.05707 -2.58758 0
M  V30 7186 C 650.695 4.16883 -3.12823 0
M  V30 7187 C 648.023 4.38074 -3.90267 0
M  V30 7188 C 650.375 4.50725 -4.4388 0
M  V30 7189 C 649.039 4.60845 -4.82885 0
M  V30 7190 H 648.309 0.715569 -0.192463 0
M  V30 7191 H 650.956 1.53972 -1.13863 0
M  V30 7192 H 649.261 3.91738 -0.069531 0
M  V30 7193 H 650.958 3.98409 -0.455144 0
M  V30 7194 H 647.548 3.85042 -1.88256 0
M  V30 7195 H 651.732 4.07147 -2.83804 0
M  V30 7196 H 646.988 4.44112 -4.20207 0
M  V30 7197 H 651.162 4.67538 -5.16121 0
M  V30 7198 H 648.789 4.85681 -5.84823 0
M  V30 7199 N 650.364 0.662433 1.43002 0
M  V30 7200 C 651.274 -0.0239199 2.34588 0
M  V30 7201 C 652.29 -0.802255 1.54402 0
M  V30 7202 O 653.466 -0.747401 1.87018 0
M  V30 7203 C 650.531 -0.972098 3.32793 0
M  V30 7204 C 649.592 -0.189673 4.28881 0
M  V30 7205 C 648.825 -1.09269 5.22395 0
M  V30 7206 O 649.048 -2.33209 5.20547 0
M  V30 7207 O 647.982 -0.560136 5.99288 0
M  V30 7208 H 651.808 0.730171 2.94792 0
M  V30 7209 H 649.393 0.422635 1.43297 0
M  V30 7210 H 651.275 -1.51676 3.93157 0
M  V30 7211 H 649.95 -1.70626 2.75079 0
M  V30 7212 H 648.857 0.398794 3.71968 0
M  V30 7213 H 650.19 0.50511 4.89601 0
M  V30 7214 N 651.842 -1.52309 0.404946 0
M  V30 7215 C 653.067 -2.06666 -0.1743 0
M  V30 7216 C 653.492 -1.27341 -1.38441 0
M  V30 7217 O 652.85 -0.302539 -1.78758 0
M  V30 7218 C 652.898 -3.57014 -0.507262 0
M  V30 7219 O 652.002 -3.80144 -1.59889 0
M  V30 7220 H 651.343 -0.663807 -0.0160273 0
M  V30 7221 H 653.873 -1.96297 0.576937 0
M  V30 7222 H 653.883 -4.00724 -0.767098 0
M  V30 7223 H 652.558 -4.14184 0.377368 0
M  V30 7224 H 651.135 -3.48316 -1.33155 0
M  V30 7225 N 653.32 -0.135238 -1.57019 0
M  V30 7226 C 654.597 0.563227 -1.87316 0
M  V30 7227 C 654.977 1.83749 -1.03921 0
M  V30 7228 O 654.325 2.2817 -0.122675 0
M  V30 7229 C 654.535 0.840031 -3.3874 0
M  V30 7230 C 655.883 1.18598 -4.077 0
M  V30 7231 O 656.907 0.92977 -3.43851 0
M  V30 7232 O 655.766 1.66758 -5.20436 0
M  V30 7233 H 652.86 0.285971 -0.775983 0
M  V30 7234 H 655.406 -0.170965 -1.68837 0
M  V30 7235 H 654.178 -0.0622785 -3.9125 0
M  V30 7236 H 653.801 1.62882 -3.62706 0
M  V30 7237 N 654.798 1.5699 0.138552 0
M  V30 7238 C 655.728 2.01933 1.17241 0
M  V30 7239 C 656.709 0.90033 1.44319 0
M  V30 7240 O 657.894 1.16872 1.55095 0
M  V30 7241 C 655.024 2.40711 2.50351 0
M  V30 7242 C 653.978 3.55874 2.37776 0
M  V30 7243 C 653.304 3.80491 3.75674 0
M  V30 7244 C 654.604 4.8826 1.85472 0
M  V30 7245 H 656.298 2.88551 0.798672 0
M  V30 7246 H 653.844 1.3882 0.382743 0
M  V30 7247 H 655.797 2.70754 3.22909 0
M  V30 7248 H 654.521 1.5104 2.89576 0
M  V30 7249 H 653.18 3.2601 1.67669 0
M  V30 7250 H 652.828 2.88057 4.12349 0
M  V30 7251 H 652.528 4.57998 3.68119 0
M  V30 7252 H 654.052 4.12967 4.49767 0
M  V30 7253 H 655.466 5.16965 2.4783 0
M  V30 7254 H 653.863 5.69631 1.88787 0
M  V30 7255 H 654.933 4.78071 0.810935 0
M  V30 7256 N 656.276 -0.40816 1.52223 0
M  V30 7257 C 657.239 -1.48 1.7501 0
M  V30 7258 C 658.239 -1.48367 0.619996 0
M  V30 7259 O 659.429 -1.49874 0.887881 0
M  V30 7260 C 656.561 -2.87403 1.83336 0
M  V30 7261 H 657.754 -1.29086 2.70697 0
M  V30 7262 H 655.307 -0.638715 1.42654 0
M  V30 7263 H 656.042 -3.11686 0.895677 0
M  V30 7264 H 655.827 -2.8854 2.65494 0
M  V30 7265 H 657.317 -3.65103 2.02705 0
M  V30 7266 N 657.755 -1.42862 -0.66545 0
M  V30 7267 C 658.718 -1.46756 -1.76055 0
M  V30 7268 C 659.718 -0.353866 -1.56858 0
M  V30 7269 O 660.908 -0.615099 -1.62979 0
M  V30 7270 C 658.04 -1.30829 -3.14796 0
M  V30 7271 H 659.233 -2.44271 -1.73987 0
M  V30 7272 H 656.786 -1.29447 -0.875965 0
M  V30 7273 H 657.521 -0.342733 -3.22484 0
M  V30 7274 H 657.306 -2.11551 -3.30134 0
M  V30 7275 H 658.796 -1.36458 -3.94676 0
M  V30 7276 N 659.233 0.902656 -1.29189 0
M  V30 7277 C 660.183 1.99326 -1.10695 0
M  V30 7278 C 661.167 1.60877 -0.0272521 0
M  V30 7279 O 662.359 1.75245 -0.248635 0
M  V30 7280 C 659.488 3.34265 -0.78244 0
M  V30 7281 C 658.574 3.79081 -1.90153 0
M  V30 7282 N 658.965 3.96162 -3.14466 0
M  V30 7283 C 657.263 4.08333 -1.79389 0
M  V30 7284 C 657.964 4.3388 -3.87458 0
M  V30 7285 N 656.94 4.42759 -3.15381 0
M  V30 7286 H 660.742 2.10597 -2.05003 0
M  V30 7287 H 658.256 1.09127 -1.20271 0
M  V30 7288 H 660.253 4.12097 -0.630996 0
M  V30 7289 H 658.913 3.2434 0.152754 0
M  V30 7290 H 659.924 3.81775 -3.49954 0
M  V30 7291 H 656.601 4.06982 -0.931217 0
M  V30 7292 H 657.991 4.54965 -4.94425 0
M  V30 7293 N 660.711 1.11618 1.11262 0
M  V30 7294 C 661.643 0.734015 2.17129 0
M  V30 7295 C 662.656 -0.235243 1.61091 0
M  V30 7296 O 663.845 -0.0178597 1.78491 0
M  V30 7297 C 660.945 0.0643682 3.38839 0
M  V30 7298 C 660.118 1.06092 4.24339 0
M  V30 7299 C 659.177 0.420482 5.24517 0
M  V30 7300 O 658.203 1.07495 5.58957 0
M  V30 7301 N 659.405 -0.815828 5.74739 0
M  V30 7302 H 662.17 1.64492 2.50524 0
M  V30 7303 H 659.731 1.00664 1.26801 0
M  V30 7304 H 661.723 -0.375851 4.02951 0
M  V30 7305 H 660.293 -0.749147 3.03491 0
M  V30 7306 H 659.513 1.67903 3.56654 0
M  V30 7307 H 660.801 1.73507 4.78302 0
M  V30 7308 H 660.199 -1.36668 5.48943 0
M  V30 7309 H 658.756 -1.199 6.40677 0
M  V30 7310 N 662.189 -1.289 0.906776 0
M  V30 7311 C 663.466 -1.90221 0.455537 0
M  V30 7312 C 663.846 -1.82251 -1.06527 0
M  V30 7313 O 663.194 -1.25385 -1.91026 0
M  V30 7314 C 663.404 -3.35015 0.97806 0
M  V30 7315 C 664.752 -4.12018 1.02598 0
M  V30 7316 O 665.776 -3.43947 0.926218 0
M  V30 7317 O 664.635 -5.33677 1.17689 0
M  V30 7318 H 661.729 -0.814505 0.143214 0
M  V30 7319 H 664.275 -1.37317 0.997104 0
M  V30 7320 H 663.047 -3.35006 2.02204 0
M  V30 7321 H 662.67 -3.95408 0.416914 0
M  V30 7322 N 663.667 -0.670007 -1.42649 0
M  V30 7323 C 665.083 -0.33911 -1.55956 0
M  V30 7324 C 665.283 1.1558 -1.65056 0
M  V30 7325 O 664.339 1.94111 -1.61485 0
M  V30 7326 C 665.652 -1.06522 -2.812 0
M  V30 7327 C 667.2 -1.04708 -2.94966 0
M  V30 7328 C 667.675 -1.75442 -4.23065 0
M  V30 7329 N 669.166 -1.72286 -4.29967 0
M  V30 7330 C 669.901 -2.23877 -5.27889 0
M  V30 7331 N 669.397 -2.83829 -6.31991 0
M  V30 7332 N 671.19 -2.14279 -5.19654 0
M  V30 7333 H 663.341 -1.6399 -1.34986 0
M  V30 7334 H 665.604 -0.690603 -0.649439 0
M  V30 7335 H 665.31 -2.12033 -2.80597 0
M  V30 7336 H 665.184 -0.627398 -3.71946 0
M  V30 7337 H 667.571 -0.000315966 -2.951 0
M  V30 7338 H 667.652 -1.52374 -2.05465 0
M  V30 7339 H 667.296 -2.80084 -4.23693 0
M  V30 7340 H 667.226 -1.25229 -5.11493 0
M  V30 7341 H 669.717 -1.28554 -3.55362 0
M  V30 7342 H 670.03 -3.20827 -7.03057 0
M  V30 7343 H 668.375 -2.87896 -6.32567 0
M  V30 7344 H 671.566 -1.67135 -4.37245 0
M  V30 7345 H 671.739 -2.54792 -5.95806 0
M  V30 7346 N 665.145 1.52092 -0.413018 0
M  V30 7347 C 666.391 2.02154 0.161737 0
M  V30 7348 C 666.724 1.29789 1.44459 0
M  V30 7349 O 665.999 0.405378 1.90229 0
M  V30 7350 C 666.282 3.5781 0.405463 0
M  V30 7351 C 666.135 4.40819 -0.894335 0
M  V30 7352 C 667.454 4.23821 1.18591 0
M  V30 7353 H 664.573 0.734769 0.0573077 0
M  V30 7354 H 667.215 1.81948 -0.547247 0
M  V30 7355 H 665.365 3.75158 1.0094 0
M  V30 7356 H 667.037 4.35175 -1.53039 0
M  V30 7357 H 665.28 4.06877 -1.50444 0
M  V30 7358 H 665.951 5.47819 -0.678144 0
M  V30 7359 H 668.427 4.10596 0.674573 0
M  V30 7360 H 667.303 5.32663 1.3252 0
M  V30 7361 H 667.564 3.83038 2.20758 0
M  V30 7362 N 666.623 0.143563 1.56945 0
M  V30 7363 C 667.533 -0.810562 2.20152 0
M  V30 7364 C 668.549 -1.27431 1.1848 0
M  V30 7365 O 669.725 -1.33221 1.51044 0
M  V30 7366 C 666.79 -2.03353 2.80799 0
M  V30 7367 C 665.851 -1.61936 3.97587 0
M  V30 7368 C 665.084 -2.78403 4.55332 0
M  V30 7369 O 665.307 -3.94521 4.11958 0
M  V30 7370 O 664.241 -2.54073 5.45647 0
M  V30 7371 H 668.067 -0.30253 3.02189 0
M  V30 7372 H 665.652 -0.0832925 1.49168 0
M  V30 7373 H 667.534 -2.74932 3.19359 0
M  V30 7374 H 666.209 -2.53116 2.01777 0
M  V30 7375 H 665.116 -0.873904 3.6375 0
M  V30 7376 H 666.449 -1.16892 4.78118 0
M  V30 7377 N 668.101 -1.57061 -0.130224 0
M  V30 7378 C 669.033 -1.96147 -1.18571 0
M  V30 7379 C 670.046 -0.859347 -1.38272 0
M  V30 7380 O 671.235 -1.13769 -1.37545 0
M  V30 7381 C 668.335 -2.23484 -2.54771 0
M  V30 7382 C 667.508 -3.54786 -2.55824 0
M  V30 7383 C 666.567 -3.70467 -3.73686 0
M  V30 7384 O 665.593 -4.42693 -3.57787 0
M  V30 7385 N 666.795 -3.08389 -4.91809 0
M  V30 7386 H 669.56 -2.87295 -0.853333 0
M  V30 7387 H 667.121 -1.58714 -0.319621 0
M  V30 7388 H 669.113 -2.312 -3.32158 0
M  V30 7389 H 667.683 -1.38518 -2.80235 0
M  V30 7390 H 666.903 -3.5836 -1.64232 0
M  V30 7391 H 668.191 -4.4111 -2.53573 0
M  V30 7392 H 667.589 -2.49656 -5.0763 0
M  V30 7393 H 666.146 -3.21642 -5.66912 0
M  V30 7394 N 669.579 0.400081 -1.52437 0
M  V30 7395 C 670.828 1.14332 -1.66166 0
M  V30 7396 C 671.141 1.91419 -0.402253 0
M  V30 7397 O 672.347 2.6824 -0.419487 0
M  V30 7398 C 670.803 2.08137 -2.9361 0
M  V30 7399 C 670.411 1.36524 -4.26691 0
M  V30 7400 C 672.155 2.82664 -3.16703 0
M  V30 7401 C 670.062 2.29031 -5.45251 0
M  V30 7402 H 668.992 0.430499 -0.61902 0
M  V30 7403 H 671.643 0.407017 -1.78929 0
M  V30 7404 H 670.025 2.85358 -2.74567 0
M  V30 7405 H 671.199 0.646061 -4.56249 0
M  V30 7406 H 669.514 0.74002 -4.09771 0
M  V30 7407 H 672.111 3.52037 -4.0246 0
M  V30 7408 H 672.454 3.46122 -2.31312 0
M  V30 7409 H 672.987 2.12541 -3.36261 0
M  V30 7410 H 669.726 1.70206 -6.33017 0
M  V30 7411 H 669.246 2.98896 -5.2002 0
M  V30 7412 H 670.925 2.89359 -5.78689 0
M  V30 7413 N 671.057 1.43213 0.657864 0
M  V30 7414 C 672.02 1.47687 1.75275 0
M  V30 7415 C 673.02 0.362179 1.56668 0
M  V30 7416 O 674.21 0.623734 1.62651 0
M  V30 7417 C 671.342 1.32497 3.14098 0
M  V30 7418 H 672.535 2.4519 1.7269 0
M  V30 7419 H 670.088 1.2991 0.869087 0
M  V30 7420 H 670.823 0.359831 3.22298 0
M  V30 7421 H 670.608 2.13299 3.29008 0
M  V30 7422 H 672.098 1.38549 3.93946 0
M  V30 7423 N 672.536 -0.895792 1.29666 0
M  V30 7424 C 673.499 -1.98189 1.15124 0
M  V30 7425 C 674.499 -1.60572 0.0855717 0
M  V30 7426 O 675.689 -1.70991 0.332826 0
M  V30 7427 C 672.821 -3.32289 0.761372 0
M  V30 7428 H 674.014 -2.12518 2.11603 0
M  V30 7429 H 671.567 -1.0808 1.12908 0
M  V30 7430 H 672.302 -3.23662 -0.203393 0
M  V30 7431 H 672.087 -3.60958 1.53139 0
M  V30 7432 H 673.577 -4.1198 0.682792 0
M  V30 7433 N 674.014 -1.12206 -1.10668 0
M  V30 7434 C 675.263 -0.870595 -1.81944 0
M  V30 7435 C 675.576 0.605447 -1.85994 0
M  V30 7436 O 676.782 0.973433 -2.53449 0
M  V30 7437 C 675.238 -1.50783 -3.26791 0
M  V30 7438 C 674.846 -3.01849 -3.31046 0
M  V30 7439 C 676.59 -1.33653 -4.02911 0
M  V30 7440 C 674.497 -3.58518 -4.70339 0
M  V30 7441 H 673.427 -0.322043 -0.681765 0
M  V30 7442 H 676.078 -1.34827 -1.24475 0
M  V30 7443 H 674.46 -0.957825 -3.84242 0
M  V30 7444 H 675.634 -3.63321 -2.83433 0
M  V30 7445 H 673.949 -3.18346 -2.68411 0
M  V30 7446 H 676.546 -1.73416 -5.05797 0
M  V30 7447 H 676.889 -0.279949 -4.15358 0
M  V30 7448 H 677.422 -1.85562 -3.51868 0
M  V30 7449 H 674.161 -4.63925 -4.63091 0
M  V30 7450 H 673.681 -3.01819 -5.18329 0
M  V30 7451 H 675.36 -3.57434 -5.39305 0
M  V30 7452 N 675.492 1.28418 -0.913599 0
M  V30 7453 C 676.455 2.25564 -0.406624 0
M  V30 7454 C 677.455 1.5387 0.466965 0
M  V30 7455 O 678.645 1.72094 0.270042 0
M  V30 7456 C 675.777 3.38339 0.417053 0
M  V30 7457 H 676.97 2.71926 -1.26477 0
M  V30 7458 H 674.523 1.40098 -0.692986 0
M  V30 7459 H 675.258 2.97339 1.29461 0
M  V30 7460 H 675.043 3.91542 -0.209102 0
M  V30 7461 H 676.533 4.10578 0.762602 0
M  V30 7462 N 676.97 0.677563 1.42291 0
M  V30 7463 C 677.902 -0.0380218 2.29168 0
M  V30 7464 C 678.915 -0.762714 1.43828 0
M  V30 7465 O 680.104 -0.616413 1.67519 0
M  V30 7466 C 677.204 -1.07761 3.21311 0
M  V30 7467 C 676.377 -0.42618 4.35319 0
M  V30 7468 C 675.436 -1.36592 5.08162 0
M  V30 7469 O 674.462 -0.865174 5.62586 0
M  V30 7470 N 675.664 -2.69909 5.13935 0
M  V30 7471 H 678.429 0.707766 2.91223 0
M  V30 7472 H 675.99 0.52219 1.53247 0
M  V30 7473 H 677.982 -1.70761 3.6691 0
M  V30 7474 H 676.552 -1.72511 2.60689 0
M  V30 7475 H 675.772 0.383385 3.92331 0
M  V30 7476 H 677.06 0.0275277 5.08793 0
M  V30 7477 H 676.458 -3.13129 4.71134 0
M  V30 7478 H 675.015 -3.2815 5.6317 0
M  V30 7479 N 678.448 -1.51871 0.421078 0
M  V30 7480 C 679.358 -2.31077 -0.405069 0
M  V30 7481 C 680.374 -1.39301 -1.04265 0
M  V30 7482 O 681.55 -1.72376 -1.04157 0
M  V30 7483 C 678.615 -3.12556 -1.50032 0
M  V30 7484 C 677.676 -4.20088 -0.884559 0
M  V30 7485 C 676.909 -4.97673 -1.92762 0
M  V30 7486 O 677.132 -4.75696 -3.14753 0
M  V30 7487 O 676.066 -5.82203 -1.52719 0
M  V30 7488 H 679.892 -3.02742 0.241086 0
M  V30 7489 H 677.477 -1.48263 0.183991 0
M  V30 7490 H 679.359 -3.6326 -2.13589 0
M  V30 7491 H 678.034 -2.43672 -2.13086 0
M  V30 7492 H 676.941 -3.73502 -0.211379 0
M  V30 7493 H 678.274 -4.91298 -0.297763 0
M  V30 7494 N 679.926 -0.151884 -1.56866 0
M  V30 7495 C 680.856 0.781943 -2.20018 0
M  V30 7496 C 681.837 1.25347 -1.14987 0
M  V30 7497 O 683.022 1.31015 -1.43348 0
M  V30 7498 C 680.152 2.01928 -2.82564 0
M  V30 7499 C 679.106 1.68434 -3.93464 0
M  V30 7500 C 678.432 2.99472 -4.42968 0
M  V30 7501 C 679.732 0.927244 -5.14003 0
M  V30 7502 H 681.426 0.255607 -2.98307 0
M  V30 7503 H 678.972 0.121502 -1.43486 0
M  V30 7504 H 680.925 2.67741 -3.25411 0
M  V30 7505 H 679.649 2.56943 -2.01614 0
M  V30 7506 H 678.308 1.04998 -3.51242 0
M  V30 7507 H 677.956 3.52488 -3.58834 0
M  V30 7508 H 677.656 2.77823 -5.17772 0
M  V30 7509 H 679.18 3.66348 -4.88489 0
M  V30 7510 H 680.594 1.48756 -5.53665 0
M  V30 7511 H 678.991 0.810513 -5.94601 0
M  V30 7512 H 680.061 -0.0801163 -4.84834 0
M  V30 7513 N 681.404 1.57128 0.121893 0
M  V30 7514 C 682.352 2.01109 1.16868 0
M  V30 7515 C 683.346 0.907532 1.43039 0
M  V30 7516 O 684.552 1.09274 1.43036 0
M  V30 7517 H 680.927 0.640539 0.393971 0
M  V30 7518 H 682.898 2.88261 0.771224 0
M  V30 7519 C 681.647 2.42887 2.48799 0
M  V30 7520 H 680.97 3.2737 2.29498 0
M  V30 7521 H 682.41 2.77461 3.20611 0
M  V30 7522 C 680.869 1.29137 3.11168 0
M  V30 7523 O 681.399 0.605756 3.97106 0
M  V30 7524 N 679.605 1.04916 2.71 0
M  V30 7525 H 679.152 1.60848 2.01211 0
M  V30 7526 H 679.11 0.290016 3.1306 0
M  V30 7527 N 682.882 -0.391992 1.52647 0
M  V30 7528 C 683.792 -1.503 1.80131 0
M  V30 7529 C 684.808 -1.59825 0.687882 0
M  V30 7530 O 685.984 -1.76218 0.975149 0
M  V30 7531 C 683.049 -2.85863 1.96171 0
M  V30 7532 C 682.11 -2.86084 3.20085 0
M  V30 7533 C 681.343 -4.15181 3.35351 0
M  V30 7534 O 681.566 -5.09981 2.55491 0
M  V30 7535 O 680.5 -4.22603 4.28591 0
M  V30 7536 H 684.326 -1.30007 2.74466 0
M  V30 7537 H 681.911 -0.579539 1.37701 0
M  V30 7538 H 683.793 -3.66236 2.08445 0
M  V30 7539 H 682.468 -3.06189 1.05025 0
M  V30 7540 H 681.375 -2.04504 3.13256 0
M  V30 7541 H 682.708 -2.7071 4.11068 0
M  V30 7542 N 684.36 -1.4356 -0.65026 0
M  V30 7543 C 685.29 -1.51758 -1.77459 0
M  V30 7544 C 686.271 -0.372019 -1.65982 0
M  V30 7545 O 687.456 -0.589627 -1.85033 0
M  V30 7546 C 684.586 -1.44302 -3.15902 0
M  V30 7547 C 683.54 -2.57138 -3.42146 0
M  V30 7548 C 682.866 -2.34735 -4.8042 0
M  V30 7549 C 684.166 -3.99373 -3.36598 0
M  V30 7550 H 685.86 -2.45863 -1.70855 0
M  V30 7551 H 683.406 -1.18333 -0.820566 0
M  V30 7552 H 685.359 -1.48641 -3.94314 0
M  V30 7553 H 684.083 -0.467026 -3.23244 0
M  V30 7554 H 682.742 -2.52157 -2.66106 0
M  V30 7555 H 682.39 -1.35372 -4.84441 0
M  V30 7556 H 682.09 -3.10375 -4.9894 0
M  V30 7557 H 683.614 -2.40862 -5.61086 0
M  V30 7558 H 685.028 -4.05826 -4.04942 0
M  V30 7559 H 683.425 -4.75063 -3.66654 0
M  V30 7560 H 684.495 -4.243 -2.34729 0
M  V30 7561 N 685.838 0.888903 -1.30139 0
M  V30 7562 C 687.115 1.62145 -1.094 0
M  V30 7563 C 687.495 2.08041 0.358091 0
M  V30 7564 O 686.843 1.84438 1.34888 0
M  V30 7565 C 687.053 2.794 -2.09133 0
M  V30 7566 C 688.401 3.49826 -2.40638 0
M  V30 7567 O 689.425 2.89583 -2.07412 0
M  V30 7568 O 688.284 4.58457 -2.97455 0
M  V30 7569 H 685.378 0.712475 -0.41989 0
M  V30 7570 H 687.924 0.936023 -1.41551 0
M  V30 7571 H 686.696 2.42762 -3.06891 0
M  V30 7572 H 686.319 3.55643 -1.77776 0
M  V30 7573 N 687.317 1.12792 1.10072 0
M  V30 7574 C 688.547 0.907189 1.85617 0
M  V30 7575 C 688.955 -0.547181 1.81115 0
M  V30 7576 O 688.298 -1.39024 1.20075 0
M  V30 7577 C 688.36 1.30872 3.34832 0
M  V30 7578 C 688.024 2.77516 3.6309 0
M  V30 7579 C 689.021 3.75696 3.59373 0
M  V30 7580 C 686.706 3.14513 3.91646 0
M  V30 7581 C 688.7 5.08888 3.83812 0
M  V30 7582 C 686.387 4.47886 4.15742 0
M  V30 7583 C 687.385 5.44882 4.11816 0
M  V30 7584 O 687.073 6.7585 4.35295 0
M  V30 7585 H 686.805 0.323855 0.593375 0
M  V30 7586 H 689.359 1.50262 1.40038 0
M  V30 7587 H 687.589 0.656518 3.81086 0
M  V30 7588 H 689.278 1.06153 3.91773 0
M  V30 7589 H 690.044 3.48458 3.37345 0
M  V30 7590 H 685.923 2.39622 3.93831 0
M  V30 7591 H 689.467 5.84586 3.80663 0
M  V30 7592 H 685.364 4.74851 4.37249 0
M  V30 7593 H 686.132 6.81853 4.52791 0
M  V30 7594 N 688.795 -1.27931 0.920396 0
M  V30 7595 C 690.025 -1.98516 0.572256 0
M  V30 7596 C 690.433 -1.68912 -0.852375 0
M  V30 7597 O 689.776 -0.94203 -1.57707 0
M  V30 7598 C 689.838 -3.5243 0.709485 0
M  V30 7599 C 689.502 -4.0564 2.10489 0
M  V30 7600 C 690.499 -4.1897 3.07831 0
M  V30 7601 C 688.184 -4.40168 2.41986 0
M  V30 7602 C 690.178 -4.66093 4.34783 0
M  V30 7603 C 687.865 -4.86983 3.69176 0
M  V30 7604 C 688.863 -4.99903 4.65388 0
M  V30 7605 O 688.551 -5.45694 5.90316 0
M  V30 7606 H 688.283 -0.64047 0.216274 0
M  V30 7607 H 690.837 -1.6393 1.23758 0
M  V30 7608 H 689.067 -3.86698 -0.0129263 0
M  V30 7609 H 690.756 -4.04233 0.367474 0
M  V30 7610 H 691.522 -3.92562 2.84816 0
M  V30 7611 H 687.401 -4.29358 1.67846 0
M  V30 7612 H 690.945 -4.76092 5.09884 0
M  V30 7613 H 686.842 -5.12832 3.92012 0
M  V30 7614 H 687.61 -5.63965 5.932 0
M  V30 7615 N 690.273 -0.685099 -1.4193 0
M  V30 7616 C 691.55 -0.140152 -1.95097 0
M  V30 7617 C 691.93 1.34745 -1.62502 0
M  V30 7618 O 691.278 2.08872 -0.926534 0
M  V30 7619 C 691.488 -0.420268 -3.4646 0
M  V30 7620 C 692.836 -0.342338 -4.23218 0
M  V30 7621 O 693.86 -0.354592 -3.54431 0
M  V30 7622 O 692.719 -0.293404 -5.45712 0
M  V30 7623 H 689.813 -0.00885998 -0.826953 0
M  V30 7624 H 692.359 -0.760539 -1.51703 0
M  V30 7625 H 691.131 -1.45037 -3.63428 0
M  V30 7626 H 690.754 0.231616 -3.96925 0
M  V30 7627 N 691.751 1.51645 -0.429126 0
M  V30 7628 C 692.976 2.06917 0.141399 0
M  V30 7629 C 693.401 1.29527 1.36398 0
M  V30 7630 O 692.759 0.33094 1.78254 0
M  V30 7631 C 692.807 3.57776 0.4504 0
M  V30 7632 O 691.911 3.82639 1.53821 0
M  V30 7633 H 691.252 0.663978 0.0054647 0
M  V30 7634 H 693.782 1.95355 -0.608093 0
M  V30 7635 H 693.792 4.01894 0.703249 0
M  V30 7636 H 692.467 4.13532 -0.443213 0
M  V30 7637 H 691.044 3.5039 1.27597 0
M  V30 7638 N 693.229 0.160201 1.56784 0
M  V30 7639 C 694.64 -0.358417 1.83227 0
M  V30 7640 C 694.991 -1.63831 1.07952 0
M  V30 7641 O 694.116 -2.13885 0.328995 0
M  V30 7642 C 694.711 -0.657058 3.32368 0
M  V30 7643 C 693.27 -1.12015 3.59346 0
M  V30 7644 C 692.417 -0.15015 2.76893 0
M  V30 7645 H 695.368 0.384669 1.53967 0
M  V30 7646 H 695.389 -1.51033 3.49241 0
M  V30 7647 H 694.901 0.274647 3.87127 0
M  V30 7648 H 693.002 -2.06734 3.09987 0
M  V30 7649 H 693.115 -1.037 4.67743 0
M  V30 7650 H 691.479 -0.645361 2.46388 0
M  V30 7651 H 692.262 0.775379 3.34429 0
M  V30 7652 N 694.707 -1.5719 -0.113559 0
M  V30 7653 C 695.932 -1.89702 -0.838336 0
M  V30 7654 C 696.357 -0.752679 -1.72384 0
M  V30 7655 O 695.715 0.296575 -1.78858 0
M  V30 7656 C 695.763 -3.20989 -1.64312 0
M  V30 7657 O 694.867 -3.07278 -2.75053 0
M  V30 7658 H 694.208 -0.622339 -0.231496 0
M  V30 7659 H 696.738 -2.04382 -0.0943228 0
M  V30 7660 H 696.748 -3.53843 -2.03123 0
M  V30 7661 H 695.423 -4.03869 -0.993119 0
M  V30 7662 H 694 -2.85901 -2.39406 0
M  V30 7663 N 696.185 0.383891 -1.52853 0
M  V30 7664 C 697.431 1.13009 -1.68395 0
M  V30 7665 C 697.764 1.89488 -0.425195 0
M  V30 7666 O 697.039 1.8574 0.577136 0
M  V30 7667 C 697.322 2.10419 -2.92226 0
M  V30 7668 C 697.175 1.3767 -4.28214 0
M  V30 7669 C 698.494 3.10781 -3.11614 0
M  V30 7670 H 695.613 0.409463 -0.612788 0
M  V30 7671 H 698.255 0.412895 -1.85459 0
M  V30 7672 H 696.405 2.71579 -2.77808 0
M  V30 7673 H 698.077 0.794352 -4.54409 0
M  V30 7674 H 696.32 0.678533 -4.2846 0
M  V30 7675 H 696.991 2.08874 -5.10956 0
M  V30 7676 H 699.467 2.59715 -3.25096 0
M  V30 7677 H 698.343 3.76179 -3.99725 0
M  V30 7678 H 698.604 3.79933 -2.2606 0
M  V30 7679 N 697.663 1.43903 0.642637 0
M  V30 7680 C 698.611 1.50164 1.77634 0
M  V30 7681 C 699.605 0.374294 1.65213 0
M  V30 7682 O 700.811 0.548748 1.71431 0
M  V30 7683 H 697.186 0.470974 0.586249 0
M  V30 7684 H 699.157 2.45603 1.69474 0
M  V30 7685 C 697.906 1.45196 3.15933 0
M  V30 7686 H 697.229 2.31253 3.26132 0
M  V30 7687 H 698.669 1.53638 3.95185 0
M  V30 7688 C 697.128 0.171043 3.36466 0
M  V30 7689 O 697.658 -0.763413 3.94379 0
M  V30 7690 N 695.864 0.077847 2.90496 0
M  V30 7691 H 695.411 0.8391 2.43551 0
M  V30 7692 H 695.369 -0.778473 3.0461 0
M  V30 7693 N 699.141 -0.881989 1.30609 0
M  V30 7694 C 700.104 -1.96957 1.1722 0
M  V30 7695 C 701.104 -1.60472 0.102598 0
M  V30 7696 O 702.294 -1.70628 0.350943 0
M  V30 7697 C 699.426 -3.31463 0.796572 0
M  V30 7698 H 700.619 -2.10262 2.13846 0
M  V30 7699 H 698.172 -1.06877 1.14048 0
M  V30 7700 H 698.907 -3.23859 -0.169053 0
M  V30 7701 H 698.692 -3.59314 1.56959 0
M  V30 7702 H 700.182 -4.11233 0.72645 0
M  V30 7703 N 700.619 -1.13374 -1.09472 0
M  V30 7704 C 702.035 -0.871846 -1.33682 0
M  V30 7705 C 702.235 0.492847 -1.9538 0
M  V30 7706 O 701.291 1.23946 -2.19985 0
M  V30 7707 C 702.604 -1.99608 -2.24893 0
M  V30 7708 C 704.152 -2.02812 -2.38404 0
M  V30 7709 C 704.627 -3.14497 -3.3295 0
M  V30 7710 N 706.118 -3.14004 -3.40523 0
M  V30 7711 C 706.853 -3.97061 -4.13679 0
M  V30 7712 N 706.349 -4.90131 -4.89636 0
M  V30 7713 N 708.142 -3.85162 -4.09398 0
M  V30 7714 H 700.293 -2.01288 -0.677995 0
M  V30 7715 H 702.556 -0.876492 -0.361201 0
M  V30 7716 H 702.262 -2.98 -1.86786 0
M  V30 7717 H 702.136 -1.90981 -3.25278 0
M  V30 7718 H 704.523 -1.05034 -2.75775 0
M  V30 7719 H 704.604 -2.15511 -1.37799 0
M  V30 7720 H 704.248 -4.12514 -2.96302 0
M  V30 7721 H 704.178 -2.99035 -4.33458 0
M  V30 7722 H 706.669 -2.46587 -2.86362 0
M  V30 7723 H 706.982 -5.49996 -5.42885 0
M  V30 7724 H 705.327 -4.94138 -4.88726 0
M  V30 7725 H 708.518 -3.11779 -3.49158 0
M  V30 7726 H 708.691 -4.5012 -4.6615 0
M  V30 7727 N 702.098 1.27442 -0.927168 0
M  V30 7728 C 703.338 1.96157 -0.574608 0
M  V30 7729 C 703.702 1.71265 0.867897 0
M  V30 7730 O 704.903 2.33664 1.3287 0
M  V30 7731 C 703.174 3.46115 -0.891009 0
M  V30 7732 S 704.733 4.34006 -0.646885 0
M  V30 7733 H 701.551 0.678619 -0.212125 0
M  V30 7734 H 704.153 1.54688 -1.19549 0
M  V30 7735 H 702.857 3.6173 -1.93854 0
M  V30 7736 H 702.388 3.92545 -0.259301 0
M  V30 7737 H 704.403 4.93719 0.495568 0
M  V30 7738 N 703.576 0.692616 1.41565 0
M  V30 7739 C 704.508 -0.0137132 2.29196 0
M  V30 7740 C 705.521 -0.747417 1.44629 0
M  V30 7741 O 706.71 -0.598611 1.68163 0
M  V30 7742 C 703.81 -1.04347 3.22436 0
M  V30 7743 C 702.983 -0.379985 4.35746 0
M  V30 7744 C 702.042 -1.31195 5.09583 0
M  V30 7745 O 701.068 -0.805455 5.63472 0
M  V30 7746 N 702.27 -2.64443 5.16769 0
M  V30 7747 H 705.035 0.738614 2.90456 0
M  V30 7748 H 702.596 0.538415 1.52685 0
M  V30 7749 H 704.588 -1.6686 3.687 0
M  V30 7750 H 703.158 -1.69736 2.62504 0
M  V30 7751 H 702.378 0.424975 3.91903 0
M  V30 7752 H 703.666 0.0814904 5.08735 0
M  V30 7753 H 703.064 -3.08114 4.74428 0
M  V30 7754 H 701.621 -3.22159 5.66619 0
M  V30 7755 N 705.054 -1.51416 0.437162 0
M  V30 7756 C 706.001 -2.27743 -0.374374 0
M  V30 7757 C 706.971 -1.31327 -1.01698 0
M  V30 7758 O 708.156 -1.60229 -1.03592 0
M  V30 7759 C 705.296 -3.12241 -1.46969 0
M  V30 7760 C 704.409 -4.23651 -0.845236 0
M  V30 7761 C 703.544 -4.95458 -1.91559 0
M  V30 7762 C 702.583 -5.98789 -1.26956 0
M  V30 7763 N 701.72 -6.64005 -2.28126 0
M  V30 7764 H 706.56 -2.96654 0.282892 0
M  V30 7765 H 704.097 -1.46319 0.151352 0
M  V30 7766 H 706.055 -3.59556 -2.11602 0
M  V30 7767 H 704.685 -2.45445 -2.09659 0
M  V30 7768 H 703.737 -3.803 -0.0872059 0
M  V30 7769 H 705.049 -4.97683 -0.333582 0
M  V30 7770 H 704.203 -5.46321 -2.63854 0
M  V30 7771 H 702.942 -4.21055 -2.46097 0
M  V30 7772 H 701.947 -5.47219 -0.53207 0
M  V30 7773 H 703.172 -6.75149 -0.731509 0
M  V30 7774 H 701.118 -5.92415 -2.81745 0
M  V30 7775 H 701.035 -7.33802 -1.81852 0
M  V30 7776 H 702.303 -7.19498 -2.99905 0
M  V30 7777 N 706.532 -0.168513 -1.56696 0
M  V30 7778 C 707.781 0.477233 -1.95973 0
M  V30 7779 C 708.094 1.64578 -1.05704 0
M  V30 7780 O 709.3 2.35758 -1.3465 0
M  V30 7781 C 707.756 0.900413 -3.48455 0
M  V30 7782 C 707.364 -0.242382 -4.47344 0
M  V30 7783 C 709.108 1.51474 -3.96555 0
M  V30 7784 C 707.015 0.200272 -5.91061 0
M  V30 7785 H 705.945 0.182061 -0.73169 0
M  V30 7786 H 708.596 -0.256297 -1.81701 0
M  V30 7787 H 706.978 1.68984 -3.58135 0
M  V30 7788 H 708.152 -1.01967 -4.49377 0
M  V30 7789 H 706.467 -0.766484 -4.09285 0
M  V30 7790 H 709.064 1.85792 -5.01384 0
M  V30 7791 H 709.407 2.41163 -3.39332 0
M  V30 7792 H 709.94 0.789802 -3.89881 0
M  V30 7793 H 706.679 -0.661775 -6.52151 0
M  V30 7794 H 706.199 0.942979 -5.92341 0
M  V30 7795 H 707.878 0.645088 -6.43776 0
M  V30 7796 N 708.01 1.57248 0.105221 0
M  V30 7797 C 709.25 1.87393 0.816283 0
M  V30 7798 C 709.614 0.758249 1.76393 0
M  V30 7799 O 710.815 0.941835 2.5176 0
M  V30 7800 C 709.086 3.22775 1.53463 0
M  V30 7801 S 710.645 3.74588 2.28537 0
M  V30 7802 H 707.463 0.656847 0.272164 0
M  V30 7803 H 710.065 1.9536 0.073909 0
M  V30 7804 H 708.769 4.01905 0.830674 0
M  V30 7805 H 708.3 3.17921 2.3171 0
M  V30 7806 H 710.315 3.47193 3.54502 0
M  V30 7807 N 709.488 -0.375779 1.53054 0
M  V30 7808 C 710.765 -1.13453 1.59336 0
M  V30 7809 C 711.145 -2.07379 0.394614 0
M  V30 7810 O 710.493 -2.2004 -0.616 0
M  V30 7811 C 710.703 -1.8826 2.93869 0
M  V30 7812 C 712.051 -2.43155 3.48081 0
M  V30 7813 O 713.075 -1.984 2.95831 0
M  V30 7814 O 711.934 -3.24944 4.39401 0
M  V30 7815 H 709.028 -0.519856 0.643179 0
M  V30 7816 H 711.574 -0.379865 1.65394 0
M  V30 7817 H 710.346 -1.19652 3.72558 0
M  V30 7818 H 709.969 -2.70658 2.91256 0
M  V30 7819 N 710.966 -1.44241 -0.634997 0
M  V30 7820 C 711.898 -1.46793 -1.76024 0
M  V30 7821 C 712.911 -0.361781 -1.58729 0
M  V30 7822 O 714.1 -0.627297 -1.67114 0
M  V30 7823 C 711.2 -1.28248 -3.13697 0
M  V30 7824 C 710.373 -2.52038 -3.57485 0
M  V30 7825 C 709.432 -2.2845 -4.74022 0
M  V30 7826 O 708.458 -3.01915 -4.82531 0
M  V30 7827 N 709.66 -1.31264 -5.65464 0
M  V30 7828 H 712.425 -2.43797 -1.74307 0
M  V30 7829 H 709.986 -1.39631 -0.819438 0
M  V30 7830 H 711.978 -1.10321 -3.89373 0
M  V30 7831 H 710.548 -0.39623 -3.10079 0
M  V30 7832 H 709.768 -2.85268 -2.72059 0
M  V30 7833 H 711.056 -3.34382 -3.83492 0
M  V30 7834 H 710.454 -0.705817 -5.6128 0
M  V30 7835 H 709.011 -1.19316 -6.40786 0
M  V30 7836 N 712.444 0.87505 -1.31075 0
M  V30 7837 C 713.69 1.63006 -1.21657 0
M  V30 7838 C 714.045 1.91088 0.224306 0
M  V30 7839 O 713.338 1.52779 1.15625 0
M  V30 7840 C 713.532 2.96948 -1.98888 0
M  V30 7841 C 713.361 2.81944 -3.50339 0
M  V30 7842 C 712.131 2.814 -4.19693 0
M  V30 7843 C 714.329 2.57171 -4.45385 0
M  V30 7844 N 712.311 2.57392 -5.57335 0
M  V30 7845 C 713.682 2.42379 -5.7066 0
M  V30 7846 C 715.737 2.42474 -4.34868 0
M  V30 7847 C 714.44 2.14385 -6.86609 0
M  V30 7848 C 716.466 2.15868 -5.50595 0
M  V30 7849 C 715.828 2.0186 -6.74857 0
M  V30 7850 H 711.927 0.601043 -0.500271 0
M  V30 7851 H 714.511 1.03033 -1.65204 0
M  V30 7852 H 712.682 3.54936 -1.57718 0
M  V30 7853 H 714.414 3.61702 -1.81531 0
M  V30 7854 H 711.169 2.93596 -3.71616 0
M  V30 7855 H 711.593 2.48373 -6.29794 0
M  V30 7856 H 716.235 2.52035 -3.39468 0
M  V30 7857 H 713.953 2.03562 -7.82041 0
M  V30 7858 H 717.539 2.05304 -5.44372 0
M  V30 7859 H 716.419 1.81562 -7.62892 0
M  V30 7860 N 713.922 1.13953 1.08869 0
M  V30 7861 C 715.199 0.815768 1.77777 0
M  V30 7862 C 715.579 -0.691624 1.99449 0
M  V30 7863 O 714.927 -1.63085 1.60049 0
M  V30 7864 C 715.137 1.60916 3.09689 0
M  V30 7865 C 716.485 1.80549 3.84301 0
M  V30 7866 O 717.509 1.57562 3.19457 0
M  V30 7867 O 716.368 2.18946 5.00724 0
M  V30 7868 H 713.462 0.298445 0.771271 0
M  V30 7869 H 716.008 1.24446 1.15374 0
M  V30 7870 H 714.78 2.6333 2.89435 0
M  V30 7871 H 714.403 1.17578 3.79817 0
M  V30 7872 N 715.4 -1.26948 0.933913 0
M  V30 7873 C 716.348 -2.2862 0.428463 0
M  V30 7874 C 717.342 -1.62144 -0.490464 0
M  V30 7875 O 718.548 -1.76167 -0.36948 0
M  V30 7876 H 714.923 -0.742363 0.120003 0
M  V30 7877 H 716.894 -2.68659 1.29865 0
M  V30 7878 C 715.643 -3.46423 -0.29774 0
M  V30 7879 H 714.966 -3.97792 0.400183 0
M  V30 7880 H 716.406 -4.19505 -0.615736 0
M  V30 7881 C 714.865 -3.01017 -1.51295 0
M  V30 7882 O 715.395 -3.05226 -2.61151 0
M  V30 7883 N 713.601 -2.56442 -1.36696 0
M  V30 7884 H 713.148 -2.53217 -0.473178 0
M  V30 7885 H 713.106 -2.26424 -2.18127 0
M  V30 7886 N 716.879 -0.700114 -1.41195 0
M  V30 7887 C 717.809 -0.0521132 -2.33442 0
M  V30 7888 C 718.79 0.76228 -1.52063 0
M  V30 7889 O 719.975 0.714336 -1.80585 0
M  V30 7890 C 717.105 0.881693 -3.35922 0
M  V30 7891 C 716.059 0.174062 -4.27646 0
M  V30 7892 C 715.385 1.22254 -5.20536 0
M  V30 7893 C 716.685 -0.962396 -5.13357 0
M  V30 7894 H 718.379 -0.822574 -2.87879 0
M  V30 7895 H 715.925 -0.397011 -1.38419 0
M  V30 7896 H 717.878 1.34429 -3.99383 0
M  V30 7897 H 716.602 1.68387 -2.79845 0
M  V30 7898 H 715.261 -0.268551 -3.65615 0
M  V30 7899 H 714.909 2.01736 -4.60773 0
M  V30 7900 H 714.609 0.754038 -5.82742 0
M  V30 7901 H 716.133 1.68555 -5.86874 0
M  V30 7902 H 717.547 -0.579875 -5.7036 0
M  V30 7903 H 715.944 -1.35828 -5.84526 0
M  V30 7904 H 717.014 -1.80003 -4.50252 0
M  V30 7905 N 718.357 1.51182 -0.445186 0
M  V30 7906 C 719.605 2.01753 0.11841 0
M  V30 7907 C 719.926 1.33087 1.42523 0
M  V30 7908 O 719.196 0.467891 1.9023 0
M  V30 7909 H 717.776 0.745536 0.0467492 0
M  V30 7910 H 720.438 1.85765 -0.589688 0
M  V30 7911 H 719.534 3.10762 0.288665 0
M  V30 7912 N 719.835 0.176821 1.56605 0
M  V30 7913 C 720.798 -0.737429 2.17013 0
M  V30 7914 C 721.798 -1.15414 1.11965 0
M  V30 7915 O 722.988 -1.0702 1.37449 0
M  V30 7916 C 720.12 -2.00445 2.75744 0
M  V30 7917 H 721.313 -0.211455 2.99154 0
M  V30 7918 H 718.866 -0.0727582 1.56131 0
M  V30 7919 H 719.601 -2.57338 1.97352 0
M  V30 7920 H 719.386 -1.71456 3.52626 0
M  V30 7921 H 720.876 -2.65679 3.22187 0
M  V30 7922 N 721.313 -1.57302 -0.09688 0
M  V30 7923 C 722.243 -2.0497 -1.11846 0
M  V30 7924 C 723.224 -0.938278 -1.41882 0
M  V30 7925 O 724.409 -1.20943 -1.51942 0
M  V30 7926 C 721.539 -2.47264 -2.43881 0
M  V30 7927 C 720.493 -3.62053 -2.28257 0
M  V30 7928 C 719.819 -3.90318 -3.65453 0
M  V30 7929 C 721.119 -4.93005 -1.72461 0
M  V30 7930 H 722.813 -2.90567 -0.721888 0
M  V30 7931 H 720.359 -1.39786 -0.345803 0
M  V30 7932 H 722.312 -2.7922 -3.15617 0
M  V30 7933 H 721.036 -1.58664 -2.8547 0
M  V30 7934 H 719.695 -3.30341 -1.58967 0
M  V30 7935 H 719.343 -2.98889 -4.04567 0
M  V30 7936 H 719.043 -4.67597 -3.55846 0
M  V30 7937 H 720.567 -4.24747 -4.3866 0
M  V30 7938 H 721.981 -5.23354 -2.34036 0
M  V30 7939 H 720.378 -5.74436 -1.73618 0
M  V30 7940 H 721.448 -4.80053 -0.683898 0
M  V30 7941 N 722.791 0.367657 -1.53252 0
M  V30 7942 C 724.019 1.13119 -1.73239 0
M  V30 7943 C 724.434 1.831 -0.460404 0
M  V30 7944 O 723.791 1.73483 0.566557 0
M  V30 7945 C 723.842 2.16308 -2.89643 0
M  V30 7946 O 723.563 1.49175 -4.1192 0
M  V30 7947 C 725.064 3.05224 -3.21486 0
M  V30 7948 H 722.284 0.338318 -0.579467 0
M  V30 7949 H 724.828 0.42721 -1.99988 0
M  V30 7950 H 722.983 2.82307 -2.65295 0
M  V30 7951 H 723.397 2.17912 -4.7709 0
M  V30 7952 H 724.871 3.73613 -4.06346 0
M  V30 7953 H 725.348 3.69919 -2.36763 0
M  V30 7954 H 725.954 2.44843 -3.47753 0
M  V30 7955 N 724.269 1.44576 0.627338 0
M  V30 7956 C 725.201 1.47724 1.75243 0
M  V30 7957 C 726.214 0.370193 1.58535 0
M  V30 7958 O 727.403 0.636151 1.66779 0
M  V30 7959 C 724.503 1.2991 3.13012 0
M  V30 7960 C 723.676 2.5393 3.56143 0
M  V30 7961 C 722.735 2.30961 4.72804 0
M  V30 7962 O 721.761 3.04469 4.80923 0
M  V30 7963 N 722.963 1.34261 5.6476 0
M  V30 7964 H 725.728 2.44718 1.73012 0
M  V30 7965 H 723.289 1.40064 0.812022 0
M  V30 7966 H 725.281 1.12385 3.88782 0
M  V30 7967 H 723.851 0.412668 3.09864 0
M  V30 7968 H 723.071 2.86707 2.70542 0
M  V30 7969 H 724.359 3.36411 3.81713 0
M  V30 7970 H 723.757 0.735573 5.60897 0
M  V30 7971 H 722.314 1.22713 6.40144 0
M  V30 7972 N 725.747 -0.868086 1.31537 0
M  V30 7973 C 726.694 -1.97548 1.19346 0
M  V30 7974 C 727.664 -1.65913 0.0787922 0
M  V30 7975 O 728.849 -1.89129 0.251985 0
M  V30 7976 C 725.989 -3.32922 0.908692 0
M  V30 7977 C 725.102 -3.77141 2.10687 0
M  V30 7978 C 724.237 -5.01241 1.75873 0
M  V30 7979 C 723.276 -5.37914 2.92088 0
M  V30 7980 N 722.413 -6.53192 2.57457 0
M  V30 7981 H 727.253 -2.07307 2.14074 0
M  V30 7982 H 724.79 -1.01483 1.06487 0
M  V30 7983 H 726.748 -4.10867 0.724138 0
M  V30 7984 H 725.378 -3.228 -0.0017611 0
M  V30 7985 H 724.43 -2.94961 2.40213 0
M  V30 7986 H 725.742 -4.00248 2.97663 0
M  V30 7987 H 724.896 -5.86858 1.53891 0
M  V30 7988 H 723.635 -4.80041 0.86091 0
M  V30 7989 H 722.64 -4.50814 3.14717 0
M  V30 7990 H 723.865 -5.61077 3.82582 0
M  V30 7991 H 721.811 -6.33536 1.702 0
M  V30 7992 H 721.728 -6.76252 3.37963 0
M  V30 7993 H 722.996 -7.41997 2.38873 0
M  V30 7994 N 727.225 -1.14528 -1.08264 0
M  V30 7995 C 728.641 -0.885976 -1.3275 0
M  V30 7996 C 728.841 0.472096 -1.95892 0
M  V30 7997 O 727.897 1.21606 -2.21288 0
M  V30 7998 C 729.21 -2.01982 -2.22764 0
M  V30 7999 C 730.758 -2.05329 -2.36239 0
M  V30 8000 C 731.233 -3.1801 -3.29596 0
M  V30 8001 N 732.724 -3.17598 -3.37173 0
M  V30 8002 C 733.459 -4.01426 -4.09444 0
M  V30 8003 N 732.955 -4.95297 -4.8441 0
M  V30 8004 N 734.748 -3.89482 -4.0529 0
M  V30 8005 H 726.899 -2.01996 -0.656607 0
M  V30 8006 H 729.162 -0.880274 -0.351884 0
M  V30 8007 H 728.868 -2.99964 -1.83615 0
M  V30 8008 H 728.742 -1.94421 -3.23234 0
M  V30 8009 H 731.129 -1.07953 -2.74646 0
M  V30 8010 H 731.21 -2.1696 -1.35506 0
M  V30 8011 H 730.854 -4.15633 -2.9191 0
M  V30 8012 H 730.784 -3.03616 -4.30261 0
M  V30 8013 H 733.275 -2.4961 -2.83731 0
M  V30 8014 H 733.588 -5.55723 -5.37021 0
M  V30 8015 H 731.933 -4.99293 -4.83457 0
M  V30 8016 H 735.124 -3.15465 -3.45832 0
M  V30 8017 H 735.297 -4.55039 -4.6135 0
M  V30 8018 N 728.703 1.26451 -0.940633 0
M  V30 8019 C 730.119 1.4608 -0.642859 0
M  V30 8020 C 730.319 1.84765 0.803998 0
M  V30 8021 O 729.375 1.96902 1.58069 0
M  V30 8022 C 730.688 2.54359 -1.60381 0
M  V30 8023 C 732.236 2.6821 -1.61345 0
M  V30 8024 C 732.711 3.79659 -2.56169 0
M  V30 8025 N 734.202 3.87051 -2.54452 0
M  V30 8026 C 734.937 4.72739 -3.24507 0
M  V30 8027 N 734.433 5.6282 -4.03987 0
M  V30 8028 N 736.226 4.66581 -3.13462 0
M  V30 8029 H 728.377 0.996289 -1.87584 0
M  V30 8030 H 730.64 0.498921 -0.80609 0
M  V30 8031 H 730.346 2.32758 -2.6366 0
M  V30 8032 H 730.22 3.52005 -1.35545 0
M  V30 8033 H 732.607 2.89184 -0.587913 0
M  V30 8034 H 732.688 1.7101 -1.90235 0
M  V30 8035 H 732.332 3.59438 -3.58841 0
M  V30 8036 H 732.262 4.76315 -2.2457 0
M  V30 8037 H 734.753 3.22649 -1.96739 0
M  V30 8038 H 735.066 6.25095 -4.54396 0
M  V30 8039 H 733.411 5.62574 -4.08088 0
M  V30 8040 H 736.602 3.9521 -2.50852 0
M  V30 8041 H 736.775 5.33141 -3.68327 0
M  V30 8042 N 730.181 0.707592 1.40822 0
M  V30 8043 C 731.091 0.0507246 2.34545 0
M  V30 8044 C 732.107 -0.752727 1.56876 0
M  V30 8045 O 733.283 -0.687524 1.89302 0
M  V30 8046 C 730.348 -0.865731 3.35717 0
M  V30 8047 C 729.409 -0.0531313 4.29267 0
M  V30 8048 C 728.642 -0.925939 5.25606 0
M  V30 8049 O 728.865 -2.16531 5.27703 0
M  V30 8050 O 727.799 -0.369194 6.00767 0
M  V30 8051 H 731.625 0.823587 2.9232 0
M  V30 8052 H 729.21 0.46801 1.4188 0
M  V30 8053 H 731.092 -1.39091 3.97783 0
M  V30 8054 H 729.767 -1.61788 2.80368 0
M  V30 8055 H 728.674 0.516931 3.70511 0
M  V30 8056 H 730.007 0.660617 4.87747 0
M  V30 8057 N 731.66 -1.50943 0.453197 0
M  V30 8058 C 732.623 -2.26684 -0.338705 0
M  V30 8059 C 733.623 -1.30748 -0.936032 0
M  V30 8060 O 734.813 -1.54327 -0.808002 0
M  V30 8061 C 731.945 -3.07063 -1.48071 0
M  V30 8062 H 733.138 -2.98131 0.325289 0
M  V30 8063 H 730.691 -1.54926 0.206771 0
M  V30 8064 H 731.426 -2.4007 -2.18029 0
M  V30 8065 H 731.211 -3.77545 -1.0584 0
M  V30 8066 H 732.701 -3.64393 -2.0398 0
M  V30 8067 N 733.138 -0.185124 -1.56509 0
M  V30 8068 C 734.068 0.735098 -2.21627 0
M  V30 8069 C 735.049 1.2288 -1.1762 0
M  V30 8070 O 736.234 1.27945 -1.46095 0
M  V30 8071 C 733.364 1.95889 -2.86783 0
M  V30 8072 C 732.318 1.6005 -3.96948 0
M  V30 8073 C 731.644 2.90009 -4.4922 0
M  V30 8074 C 732.944 0.818008 -5.15855 0
M  V30 8075 H 734.638 0.192274 -2.98782 0
M  V30 8076 H 732.184 0.0910393 -1.43712 0
M  V30 8077 H 734.137 2.60779 -3.31017 0
M  V30 8078 H 732.861 2.52608 -2.07018 0
M  V30 8079 H 731.52 0.975237 -3.5339 0
M  V30 8080 H 731.168 3.44797 -3.6623 0
M  V30 8081 H 730.868 2.66778 -5.23549 0
M  V30 8082 H 732.392 3.55904 -4.9615 0
M  V30 8083 H 733.806 1.36979 -5.56695 0
M  V30 8084 H 732.203 0.684207 -5.96187 0
M  V30 8085 H 733.273 -0.182939 -4.84555 0
M  V30 8086 N 734.616 1.57351 0.0885366 0
M  V30 8087 C 735.526 2.05858 1.12516 0
M  V30 8088 C 736.542 0.984758 1.43452 0
M  V30 8089 O 737.718 1.29836 1.53963 0
M  V30 8090 C 734.783 2.47882 2.42395 0
M  V30 8091 C 733.844 3.69487 2.18582 0
M  V30 8092 C 733.077 4.09497 3.42268 0
M  V30 8093 O 733.3 3.49536 4.50755 0
M  V30 8094 O 732.234 5.02406 3.31469 0
M  V30 8095 H 736.06 2.94467 0.743146 0
M  V30 8096 H 733.645 1.46326 0.301507 0
M  V30 8097 H 735.527 2.75509 3.18862 0
M  V30 8098 H 734.202 1.62408 2.8001 0
M  V30 8099 H 733.109 3.46967 1.39875 0
M  V30 8100 H 734.442 4.55761 1.85857 0
M  V30 8101 N 736.094 -0.359525 1.53444 0
M  V30 8102 C 737.51 -0.701599 1.43352 0
M  V30 8103 C 737.71 -1.93049 0.577439 0
M  V30 8104 O 736.766 -2.52423 0.0622224 0
M  V30 8105 C 738.079 -0.90915 2.86627 0
M  V30 8106 C 739.627 -1.00878 2.96298 0
M  V30 8107 C 740.102 -1.24876 4.40647 0
M  V30 8108 N 741.593 -1.31632 4.44103 0
M  V30 8109 C 742.328 -1.51922 5.52908 0
M  V30 8110 N 741.824 -1.69489 6.71748 0
M  V30 8111 N 743.617 -1.54341 5.40496 0
M  V30 8112 H 735.768 0.448685 2.07607 0
M  V30 8113 H 738.031 0.138713 0.937797 0
M  V30 8114 H 737.737 -0.0778997 3.51614 0
M  V30 8115 H 737.611 -1.81551 3.30634 0
M  V30 8116 H 739.998 -1.83057 2.31461 0
M  V30 8117 H 740.079 -0.0796721 2.55676 0
M  V30 8118 H 739.723 -0.431961 5.0606 0
M  V30 8119 H 739.653 -2.19118 4.78848 0
M  V30 8120 H 742.144 -1.19646 3.5846 0
M  V30 8121 H 742.457 -1.84561 7.50438 0
M  V30 8122 H 740.802 -1.66655 6.74723 0
M  V30 8123 H 743.993 -1.40188 4.46615 0
M  V30 8124 H 744.166 -1.69812 6.25354 0
M  V30 8125 N 737.572 -1.44907 -0.619662 0
M  V30 8126 C 738.8 -1.51795 -1.40591 0
M  V30 8127 C 739.215 -0.146553 -1.8823 0
M  V30 8128 O 738.572 0.849698 -1.61513 0
M  V30 8129 C 738.623 -2.49229 -2.61853 0
M  V30 8130 O 738.344 -3.81039 -2.16197 0
M  V30 8131 C 739.845 -2.65696 -3.54853 0
M  V30 8132 H 737.065 -0.514463 -0.430777 0
M  V30 8133 H 739.609 -1.8998 -0.756813 0
M  V30 8134 H 737.764 -2.14149 -3.2283 0
M  V30 8135 H 738.178 -4.33747 -2.94896 0
M  V30 8136 H 739.652 -3.37874 -4.36515 0
M  V30 8137 H 740.129 -1.71316 -4.0441 0
M  V30 8138 H 740.735 -3.01724 -2.99737 0
M  V30 8139 N 739.05 0.861098 -1.31996 0
M  V30 8140 C 739.96 2.00154 -1.22374 0
M  V30 8141 C 740.976 1.73447 -0.138631 0
M  V30 8142 O 742.152 1.98191 -0.358104 0
M  V30 8143 C 739.217 3.33696 -0.940645 0
M  V30 8144 C 738.278 3.73668 -2.11355 0
M  V30 8145 C 737.511 5.00837 -1.84386 0
M  V30 8146 O 737.734 5.64996 -0.783287 0
M  V30 8147 O 736.668 5.37787 -2.70313 0
M  V30 8148 H 740.494 2.11207 -2.18233 0
M  V30 8149 H 738.079 0.990768 -1.11822 0
M  V30 8150 H 739.961 4.13756 -0.798987 0
M  V30 8151 H 738.636 3.23698 -0.0121636 0
M  V30 8152 H 737.543 2.94211 -2.31065 0
M  V30 8153 H 738.876 3.88303 -3.02459 0
M  V30 8154 N 740.528 1.15101 1.07655 0
M  V30 8155 C 741.475 0.844958 2.14777 0
M  V30 8156 C 742.445 -0.200798 1.64882 0
M  V30 8157 O 743.63 -0.0690278 1.90675 0
M  V30 8158 C 740.77 0.337018 3.4345 0
M  V30 8159 C 739.883 1.44398 4.07153 0
M  V30 8160 C 739.018 0.892487 5.23649 0
M  V30 8161 C 738.057 1.9766 5.79307 0
M  V30 8162 N 737.194 1.44171 6.87138 0
M  V30 8163 H 742.034 1.76242 2.40297 0
M  V30 8164 H 739.571 0.879435 1.17917 0
M  V30 8165 H 741.529 0.024256 4.17193 0
M  V30 8166 H 740.159 -0.543531 3.18191 0
M  V30 8167 H 739.211 1.87299 3.31094 0
M  V30 8168 H 740.523 2.26262 4.4453 0
M  V30 8169 H 739.677 0.532083 6.04362 0
M  V30 8170 H 738.416 0.0429854 4.87681 0
M  V30 8171 H 737.421 2.34586 4.97242 0
M  V30 8172 H 738.646 2.82982 6.17331 0
M  V30 8173 H 736.592 0.614518 6.53115 0
M  V30 8174 H 736.509 2.19665 7.23383 0
M  V30 8175 H 737.777 1.10945 7.71564 0
M  V30 8176 N 742.006 -1.2595 0.947325 0
M  V30 8177 C 742.936 -2.28521 0.479604 0
M  V30 8178 C 743.917 -1.63469 -0.470293 0
M  V30 8179 O 745.102 -1.90627 -0.370824 0
M  V30 8180 C 742.232 -3.46397 -0.250289 0
M  V30 8181 C 741.186 -4.23578 0.613643 0
M  V30 8182 C 740.512 -5.34131 -0.246568 0
M  V30 8183 C 741.812 -4.86979 1.88809 0
M  V30 8184 H 743.506 -2.67895 1.33688 0
M  V30 8185 H 741.052 -1.28783 0.644274 0
M  V30 8186 H 743.005 -4.17269 -0.588576 0
M  V30 8187 H 741.729 -3.05993 -1.14175 0
M  V30 8188 H 740.388 -3.54478 0.93491 0
M  V30 8189 H 740.036 -4.89968 -1.13756 0
M  V30 8190 H 739.736 -5.86683 0.328123 0
M  V30 8191 H 741.26 -6.07839 -0.579986 0
M  V30 8192 H 742.674 -5.50034 1.61666 0
M  V30 8193 H 741.071 -5.49675 2.40784 0
M  V30 8194 H 742.141 -4.09575 2.5957 0
M  V30 8195 N 743.484 -0.715051 -1.40445 0
M  V30 8196 C 744.414 -0.0768699 -2.33373 0
M  V30 8197 C 745.395 0.746109 -1.52863 0
M  V30 8198 O 746.58 0.695142 -1.81332 0
M  V30 8199 C 743.71 0.846014 -3.36838 0
M  V30 8200 C 742.664 0.128694 -4.27806 0
M  V30 8201 C 741.99 1.16726 -5.21804 0
M  V30 8202 C 743.29 -1.01679 -5.12307 0
M  V30 8203 H 744.984 -0.853061 -2.8699 0
M  V30 8204 H 742.53 -0.41167 -1.3799 0
M  V30 8205 H 744.483 1.30185 -4.00786 0
M  V30 8206 H 743.207 1.6541 -2.81615 0
M  V30 8207 H 741.866 -0.307314 -3.6531 0
M  V30 8208 H 741.514 1.96838 -4.62887 0
M  V30 8209 H 741.214 0.692188 -5.83509 0
M  V30 8210 H 742.738 1.62321 -5.88629 0
M  V30 8211 H 744.152 -0.640337 -5.69713 0
M  V30 8212 H 742.549 -1.4202 -5.83053 0
M  V30 8213 H 743.619 -1.84769 -4.48317 0
M  V30 8214 N 744.962 1.50701 -0.461195 0
M  V30 8215 C 745.872 2.32069 0.343661 0
M  V30 8216 C 746.888 1.42016 1.00535 0
M  V30 8217 O 748.064 1.75077 0.995498 0
M  V30 8218 C 745.129 3.16424 1.41692 0
M  V30 8219 C 744.19 4.22286 0.772869 0
M  V30 8220 C 743.423 5.02609 1.79499 0
M  V30 8221 O 743.646 4.83874 3.0203 0
M  V30 8222 O 742.58 5.86047 1.3723 0
M  V30 8223 H 746.406 3.01996 -0.321268 0
M  V30 8224 H 743.991 1.47723 -0.223235 0
M  V30 8225 H 745.873 3.68795 2.03883 0
M  V30 8226 H 744.548 2.49236 2.0655 0
M  V30 8227 H 743.455 3.73931 0.112277 0
M  V30 8228 H 744.788 4.91915 0.167399 0
M  V30 8229 N 746.441 0.193421 1.56409 0
M  V30 8230 C 747.669 -0.451438 2.01915 0
M  V30 8231 C 748.084 -1.55306 1.07357 0
M  V30 8232 O 747.441 -1.82333 0.0781512 0
M  V30 8233 C 747.492 -1.00931 3.47124 0
M  V30 8234 O 747.213 0.0483623 4.38073 0
M  V30 8235 C 748.714 -1.73021 4.0814 0
M  V30 8236 H 745.934 -0.113495 0.661332 0
M  V30 8237 H 748.478 0.301636 2.02263 0
M  V30 8238 H 746.633 -1.71277 3.47481 0
M  V30 8239 H 747.047 -0.366644 5.23217 0
M  V30 8240 H 748.521 -2.07289 5.11601 0
M  V30 8241 H 748.998 -2.6333 3.51502 0
M  V30 8242 H 749.604 -1.07264 4.11551 0
M  V30 8243 N 747.919 -1.57396 -0.0801906 0
M  V30 8244 C 749.168 -1.8602 -0.779702 0
M  V30 8245 C 749.481 -0.784864 -1.79163 0
M  V30 8246 O 750.687 -0.958691 -2.54011 0
M  V30 8247 C 749.143 -3.29942 -1.43758 0
M  V30 8248 C 748.751 -4.45584 -0.464654 0
M  V30 8249 C 750.495 -3.67775 -2.11995 0
M  V30 8250 C 748.402 -5.80544 -1.12797 0
M  V30 8251 H 747.332 -0.69392 -0.294943 0
M  V30 8252 H 749.983 -1.83471 -0.0328527 0
M  V30 8253 H 748.365 -3.27078 -2.2324 0
M  V30 8254 H 749.539 -4.59824 0.299749 0
M  V30 8255 H 747.854 -4.16247 0.112813 0
M  V30 8256 H 750.451 -4.65896 -2.62383 0
M  V30 8257 H 750.794 -2.9715 -2.91561 0
M  V30 8258 H 751.327 -3.72593 -1.39354 0
M  V30 8259 H 748.066 -6.54439 -0.372807 0
M  V30 8260 H 747.586 -5.70119 -1.86344 0
M  V30 8261 H 749.265 -6.25602 -1.6502 0
M  V30 8262 N 749.397 0.351382 -1.53633 0
M  V30 8263 C 750.674 1.10903 -1.6112 0
M  V30 8264 C 751.054 2.06725 -0.427556 0
M  V30 8265 O 750.402 2.20992 0.580916 0
M  V30 8266 C 750.612 1.83561 -2.96827 0
M  V30 8267 C 751.96 2.37587 -3.51906 0
M  V30 8268 O 752.984 1.93669 -2.9895 0
M  V30 8269 O 751.843 3.17913 -4.44515 0
M  V30 8270 H 748.937 0.509558 -0.651368 0
M  V30 8271 H 751.483 0.353504 -1.65977 0
M  V30 8272 H 750.255 1.1371 -3.74414 0
M  V30 8273 H 749.878 2.6599 -2.95525 0
M  V30 8274 N 750.875 1.45233 0.611969 0
M  V30 8275 C 751.807 1.49575 1.73666 0
M  V30 8276 C 752.82 0.386987 1.58134 0
M  V30 8277 O 754.009 0.653804 1.66095 0
M  V30 8278 C 751.109 1.33223 3.11617 0
M  V30 8279 C 750.282 2.57694 3.5343 0
M  V30 8280 C 749.341 2.35962 4.70328 0
M  V30 8281 O 748.367 3.09553 4.77667 0
M  V30 8282 N 749.569 1.40243 5.63305 0
M  V30 8283 H 752.334 2.46539 1.70407 0
M  V30 8284 H 749.895 1.40917 0.79712 0
M  V30 8285 H 751.887 1.16502 3.87569 0
M  V30 8286 H 750.457 0.44551 3.09409 0
M  V30 8287 H 749.677 2.8956 2.67486 0
M  V30 8288 H 750.965 3.40441 3.78124 0
M  V30 8289 H 750.363 0.795023 5.60086 0
M  V30 8290 H 748.92 1.29496 6.38807 0
M  V30 8291 N 752.353 -0.854086 1.3245 0
M  V30 8292 C 753.283 -1.97827 1.24044 0
M  V30 8293 C 754.264 -1.69646 0.124166 0
M  V30 8294 O 755.449 -1.91687 0.31143 0
M  V30 8295 C 752.579 -3.33673 0.963324 0
M  V30 8296 C 751.533 -3.76207 2.04089 0
M  V30 8297 C 750.859 -5.0969 1.61618 0
M  V30 8298 C 752.159 -3.91612 3.45597 0
M  V30 8299 H 753.853 -2.05118 2.18099 0
M  V30 8300 H 751.399 -0.985489 1.04996 0
M  V30 8301 H 753.352 -4.11871 0.891061 0
M  V30 8302 H 752.076 -3.26597 -0.0128649 0
M  V30 8303 H 750.735 -3.0026 2.10332 0
M  V30 8304 H 750.383 -4.99072 0.627418 0
M  V30 8305 H 750.083 -5.3912 2.33717 0
M  V30 8306 H 751.607 -5.90381 1.55829 0
M  V30 8307 H 753.021 -4.60163 3.4194 0
M  V30 8308 H 751.418 -4.3246 4.16051 0
M  V30 8309 H 752.488 -2.9451 3.85217 0
M  V30 8310 N 753.831 -1.1567 -1.07043 0
M  V30 8311 C 755.061 -0.956083 -1.83146 0
M  V30 8312 C 755.469 0.498969 -1.82502 0
M  V30 8313 O 754.812 1.35791 -1.23719 0
M  V30 8314 C 754.874 -1.39704 -3.31245 0
M  V30 8315 C 754.538 -2.87045 -3.55604 0
M  V30 8316 C 755.535 -3.85092 -3.49285 0
M  V30 8317 C 753.22 -3.24787 -3.8317 0
M  V30 8318 C 755.214 -5.18885 -3.70185 0
M  V30 8319 C 752.901 -4.58751 -4.03721 0
M  V30 8320 C 753.899 -5.55609 -3.97224 0
M  V30 8321 O 753.587 -6.87154 -4.17223 0
M  V30 8322 H 753.319 -0.339473 -0.58458 0
M  V30 8323 H 755.873 -1.53922 -1.36005 0
M  V30 8324 H 754.103 -0.757326 -3.79212 0
M  V30 8325 H 755.792 -1.16503 -3.88821 0
M  V30 8326 H 756.558 -3.5728 -3.27988 0
M  V30 8327 H 752.437 -2.49979 -3.87339 0
M  V30 8328 H 755.981 -5.94473 -3.6503 0
M  V30 8329 H 751.878 -4.86277 -4.24505 0
M  V30 8330 H 752.646 -6.93618 -4.34553 0
M  V30 8331 N 755.309 1.25446 -0.953992 0
M  V30 8332 C 756.239 2.28264 -0.491717 0
M  V30 8333 C 757.22 1.63717 0.461617 0
M  V30 8334 O 758.405 1.90821 0.36071 0
M  V30 8335 C 755.535 3.46525 0.231915 0
M  V30 8336 C 754.489 4.23247 -0.636098 0
M  V30 8337 C 753.815 5.34254 0.218238 0
M  V30 8338 C 755.115 4.85971 -1.91389 0
M  V30 8339 H 756.809 2.67183 -1.35106 0
M  V30 8340 H 754.355 1.2844 -0.651095 0
M  V30 8341 H 756.308 4.17576 0.566439 0
M  V30 8342 H 755.032 3.06594 1.12551 0
M  V30 8343 H 753.691 3.53978 -0.953696 0
M  V30 8344 H 753.339 4.90564 1.11156 0
M  V30 8345 H 753.039 5.86501 -0.359232 0
M  V30 8346 H 754.563 6.08138 0.547743 0
M  V30 8347 H 755.977 5.49168 -1.64581 0
M  V30 8348 H 754.374 5.48391 -2.43696 0
M  V30 8349 H 755.444 4.08192 -2.61738 0
M  V30 8350 N 756.787 0.722489 1.40064 0
M  V30 8351 C 757.697 0.0755984 2.34478 0
M  V30 8352 C 758.713 -0.736046 1.57665 0
M  V30 8353 O 759.889 -0.667407 1.9002 0
M  V30 8354 C 756.954 -0.830075 3.36616 0
M  V30 8355 C 756.015 -0.00759884 4.29299 0
M  V30 8356 C 755.248 -0.870139 5.26559 0
M  V30 8357 O 755.471 -2.10921 5.2997 0
M  V30 8358 O 754.405 -0.305454 6.01124 0
M  V30 8359 H 758.231 0.854545 2.9143 0
M  V30 8360 H 755.816 0.483032 1.41376 0
M  V30 8361 H 757.698 -1.34864 3.99236 0
M  V30 8362 H 756.373 -1.58805 2.82069 0
M  V30 8363 H 755.28 0.556199 3.69942 0
M  V30 8364 H 756.613 0.712312 4.87018 0
M  V30 8365 N 758.265 -1.50454 0.469181 0
M  V30 8366 C 759.495 -2.06429 -0.0840913 0
M  V30 8367 C 759.903 -1.3334 -1.34227 0
M  V30 8368 O 759.246 -0.395656 -1.79389 0
M  V30 8369 C 759.308 -3.56797 -0.440049 0
M  V30 8370 C 758.972 -4.51359 0.715838 0
M  V30 8371 C 759.969 -4.94754 1.59732 0
M  V30 8372 C 757.654 -4.94069 0.905621 0
M  V30 8373 C 759.648 -5.79564 2.653 0
M  V30 8374 C 757.335 -5.78662 1.96453 0
M  V30 8375 C 758.333 -6.21311 2.83658 0
M  V30 8376 O 758.021 -7.04218 3.87727 0
M  V30 8377 H 757.753 -0.675994 0.00289751 0
M  V30 8378 H 760.307 -1.94629 0.656417 0
M  V30 8379 H 758.537 -3.66492 -1.23372 0
M  V30 8380 H 760.226 -3.95145 -0.928181 0
M  V30 8381 H 760.992 -4.62428 1.46237 0
M  V30 8382 H 756.871 -4.60394 0.236326 0
M  V30 8383 H 760.415 -6.12774 3.33398 0
M  V30 8384 H 756.312 -6.10401 2.09955 0
M  V30 8385 H 757.08 -7.22464 3.84692 0
M  V30 8386 N 759.743 -0.201713 -1.56304 0
M  V30 8387 C 760.706 0.702811 -2.18159 0
M  V30 8388 C 761.706 1.13619 -1.13787 0
M  V30 8389 O 762.896 1.0482 -1.39134 0
M  V30 8390 C 760.028 1.96032 -2.78898 0
M  V30 8391 H 761.221 0.163836 -2.99452 0
M  V30 8392 H 758.774 0.04791 -1.56227 0
M  V30 8393 H 759.509 2.54165 -2.01421 0
M  V30 8394 H 759.294 1.65824 -3.55309 0
M  V30 8395 H 760.784 2.60519 -3.26373 0
M  V30 8396 N 761.222 1.57436 0.0718424 0
M  V30 8397 C 762.169 2.03686 1.08539 0
M  V30 8398 C 763.139 0.917474 1.38462 0
M  V30 8399 O 764.324 1.18513 1.4953 0
M  V30 8400 C 761.464 2.48566 2.39393 0
M  V30 8401 C 760.577 3.74122 2.16001 0
M  V30 8402 C 759.712 4.07786 3.40418 0
M  V30 8403 C 758.751 5.26383 3.1239 0
M  V30 8404 N 757.888 5.55685 4.29138 0
M  V30 8405 H 762.728 2.90043 0.684018 0
M  V30 8406 H 760.265 1.43438 0.326183 0
M  V30 8407 H 762.223 2.72639 3.15791 0
M  V30 8408 H 760.853 1.65186 2.77333 0
M  V30 8409 H 759.905 3.57389 1.30296 0
M  V30 8410 H 761.217 4.60659 1.91298 0
M  V30 8411 H 760.371 4.32759 4.25211 0
M  V30 8412 H 759.11 3.19817 3.68197 0
M  V30 8413 H 758.115 5.01206 2.25993 0
M  V30 8414 H 759.34 6.1597 2.85934 0
M  V30 8415 H 757.286 4.70675 4.56948 0
M  V30 8416 H 757.203 6.3664 4.07708 0
M  V30 8417 H 758.471 5.85209 5.14928 0
M  V30 8418 N 762.7 -0.34323 1.53817 0
M  V30 8419 C 764.116 -0.686355 1.44088 0
M  V30 8420 C 764.316 -1.92426 0.597882 0
M  V30 8421 O 763.372 -2.52343 0.0889918 0
M  V30 8422 C 764.685 -0.878698 2.87575 0
M  V30 8423 C 766.233 -0.977296 2.97352 0
M  V30 8424 C 766.708 -1.20195 4.41947 0
M  V30 8425 N 768.199 -1.26915 4.45474 0
M  V30 8426 C 768.934 -1.46049 5.54488 0
M  V30 8427 N 768.43 -1.62354 6.73508 0
M  V30 8428 N 770.223 -1.48599 5.42102 0
M  V30 8429 H 762.374 0.470679 2.07119 0
M  V30 8430 H 764.637 0.148652 0.936273 0
M  V30 8431 H 764.343 -0.040602 3.51677 0
M  V30 8432 H 764.217 -1.78034 3.32541 0
M  V30 8433 H 766.604 -1.80591 2.3339 0
M  V30 8434 H 766.685 -0.0525498 2.55746 0
M  V30 8435 H 766.329 -0.378262 5.06489 0
M  V30 8436 H 766.259 -2.14027 4.81145 0
M  V30 8437 H 768.75 -1.15837 3.59708 0
M  V30 8438 H 769.063 -1.76591 7.52353 0
M  V30 8439 H 767.408 -1.5949 6.76453 0
M  V30 8440 H 770.599 -1.35443 4.48077 0
M  V30 8441 H 770.772 -1.6317 6.2712 0
M  V30 8442 N 764.178 -1.45556 -0.604258 0
M  V30 8443 C 765.141 -1.54091 -1.69672 0
M  V30 8444 C 766.141 -0.420076 -1.55216 0
M  V30 8445 O 767.331 -0.683671 -1.60224 0
M  V30 8446 C 764.463 -1.44063 -3.08964 0
M  V30 8447 H 765.656 -2.51431 -1.6347 0
M  V30 8448 H 763.209 -1.33046 -0.820273 0
M  V30 8449 H 763.944 -0.479201 -3.2074 0
M  V30 8450 H 763.729 -2.25362 -3.20865 0
M  V30 8451 H 765.219 -1.53075 -3.88533 0
M  V30 8452 N 765.656 0.84705 -1.32902 0
M  V30 8453 C 766.619 1.9378 -1.224 0
M  V30 8454 C 767.619 1.60144 -0.145108 0
M  V30 8455 O 768.809 1.69638 -0.396058 0
M  V30 8456 C 765.941 3.29234 -0.884174 0
M  V30 8457 H 767.134 2.04518 -2.19345 0
M  V30 8458 H 764.687 1.03816 -1.16842 0
M  V30 8459 H 765.422 3.24193 0.0831277 0
M  V30 8460 H 765.207 3.55026 -1.6643 0
M  V30 8461 H 766.697 4.09162 -0.835226 0
M  V30 8462 N 767.134 1.16236 1.06428 0
M  V30 8463 C 768.545 0.950942 1.60667 0
M  V30 8464 C 768.896 -0.505491 1.89576 0
M  V30 8465 O 768.021 -1.37843 1.66818 0
M  V30 8466 C 768.616 1.71982 2.91904 0
M  V30 8467 C 767.175 1.55342 3.4285 0
M  V30 8468 C 766.322 1.72942 2.16763 0
M  V30 8469 H 769.273 1.31126 0.893959 0
M  V30 8470 H 769.294 1.19483 3.61253 0
M  V30 8471 H 768.806 2.77978 2.70831 0
M  V30 8472 H 766.907 0.5178 3.68985 0
M  V30 8473 H 767.02 2.33643 4.18267 0
M  V30 8474 H 765.384 1.15673 2.26918 0
M  V30 8475 H 766.167 2.80324 1.98175 0
M  V30 8476 N 768.612 -1.24939 0.960631 0
M  V30 8477 C 769.859 -1.92818 0.618663 0
M  V30 8478 C 770.187 -1.75177 -0.845173 0
M  V30 8479 O 769.442 -1.09412 -1.62258 0
M  V30 8480 C 769.741 -3.45066 0.930809 0
M  V30 8481 C 769.407 -3.82869 2.38164 0
M  V30 8482 C 768.069 -3.92899 2.7782 0
M  V30 8483 C 770.421 -4.01483 3.32356 0
M  V30 8484 C 767.749 -4.18955 4.10723 0
M  V30 8485 C 770.101 -4.29033 4.6488 0
M  V30 8486 C 768.765 -4.37282 5.04322 0
M  V30 8487 H 768.035 -0.705571 0.226385 0
M  V30 8488 H 770.682 -1.48365 1.21079 0
M  V30 8489 H 768.987 -3.9096 0.256355 0
M  V30 8490 H 770.684 -3.95783 0.644712 0
M  V30 8491 H 767.274 -3.75622 2.06413 0
M  V30 8492 H 771.458 -3.93143 3.02907 0
M  V30 8493 H 766.714 -4.23558 4.40918 0
M  V30 8494 H 770.888 -4.42381 5.3784 0
M  V30 8495 H 768.515 -4.57225 6.0733 0
M  V30 8496 N 770.09 -0.729906 -1.39679 0
M  V30 8497 C 771.038 -0.0756589 -2.32477 0
M  V30 8498 C 772.032 0.731438 -1.52795 0
M  V30 8499 O 773.238 0.633195 -1.68495 0
M  V30 8500 H 769.613 -0.00566492 -0.751979 0
M  V30 8501 H 771.584 -0.874797 -2.85289 0
M  V30 8502 C 770.333 0.821313 -3.37861 0
M  V30 8503 H 769.656 0.209666 -3.9925 0
M  V30 8504 H 771.096 1.24679 -4.05254 0
M  V30 8505 C 769.555 1.9533 -2.74495 0
M  V30 8506 O 770.085 3.04548 -2.61942 0
M  V30 8507 N 768.291 1.74119 -2.3266 0
M  V30 8508 H 767.838 0.852908 -2.4307 0
M  V30 8509 H 767.796 2.50036 -1.90603 0
M  V30 8510 N 771.568 1.50203 -0.477153 0
M  V30 8511 C 772.516 2.30278 0.327826 0
M  V30 8512 C 773.51 1.37831 0.984839 0
M  V30 8513 O 774.716 1.54994 0.915251 0
M  V30 8514 H 771.091 0.741612 0.124564 0
M  V30 8515 H 773.062 2.96124 -0.367853 0
M  V30 8516 C 771.811 3.18548 1.39365 0
M  V30 8517 H 771.134 3.89596 0.897475 0
M  V30 8518 H 772.574 3.77561 1.92934 0
M  V30 8519 C 771.033 2.36548 2.39889 0
M  V30 8520 O 771.563 2.05282 3.45286 0
M  V30 8521 N 769.769 1.99015 2.11758 0
M  V30 8522 H 769.316 2.24641 1.26071 0
M  V30 8523 H 769.274 1.44454 2.7925 0
M  V30 8524 N 773.046 0.209999 1.56195 0
M  V30 8525 C 774.292 -0.418742 1.99043 0
M  V30 8526 C 774.647 -1.58201 1.095 0
M  V30 8527 O 773.94 -1.91069 0.1425 0
M  V30 8528 C 774.134 -0.91312 3.45539 0
M  V30 8529 C 773.963 0.200706 4.49252 0
M  V30 8530 C 772.733 0.663287 5.00928 0
M  V30 8531 C 774.931 1.01493 5.04186 0
M  V30 8532 N 772.913 1.75338 5.88328 0
M  V30 8533 C 774.284 1.95411 5.884 0
M  V30 8534 C 776.339 1.05567 4.8658 0
M  V30 8535 C 775.042 2.93069 6.56889 0
M  V30 8536 C 777.068 2.02037 5.55819 0
M  V30 8537 C 776.43 2.94697 6.39791 0
M  V30 8538 H 772.529 -0.120226 0.772703 0
M  V30 8539 H 775.113 0.319119 1.92067 0
M  V30 8540 H 773.284 -1.62038 3.52985 0
M  V30 8541 H 775.016 -1.51371 3.75325 0
M  V30 8542 H 771.771 0.253945 4.72919 0
M  V30 8543 H 772.195 2.30007 6.3673 0
M  V30 8544 H 776.837 0.353242 4.21322 0
M  V30 8545 H 774.555 3.6428 7.21336 0
M  V30 8546 H 778.141 2.05849 5.44167 0
M  V30 8547 H 777.021 3.68128 6.92425 0
M  V30 8548 N 774.524 -1.57472 -0.0634922 0
M  V30 8549 C 775.457 -1.99571 -1.10664 0
M  V30 8550 C 776.435 -0.874015 -1.37112 0
M  V30 8551 O 777.619 -1.13702 -1.50347 0
M  V30 8552 C 774.746 -2.3395 -2.44918 0
M  V30 8553 C 773.792 -3.56213 -2.34551 0
M  V30 8554 S 774.625 -5.06727 -1.73169 0
M  V30 8555 C 775.781 -5.44316 -3.08984 0
M  V30 8556 H 776.014 -2.87739 -0.747905 0
M  V30 8557 H 773.547 -1.5198 -0.272316 0
M  V30 8558 H 775.505 -2.54431 -3.22141 0
M  V30 8559 H 774.166 -1.46297 -2.7795 0
M  V30 8560 H 773.359 -3.77812 -3.33578 0
M  V30 8561 H 772.961 -3.35406 -1.65466 0
M  V30 8562 H 775.253 -5.42894 -4.05305 0
M  V30 8563 H 776.196 -6.4502 -2.92156 0
M  V30 8564 H 776.604 -4.71781 -3.09972 0
M  V30 8565 N 776.003 0.335068 -1.53997 0
M  V30 8566 C 776.913 1.43511 -1.85585 0
M  V30 8567 C 777.929 1.57162 -0.746726 0
M  V30 8568 O 779.105 1.72477 -1.03988 0
M  V30 8569 C 776.17 2.78386 -2.06646 0
M  V30 8570 C 775.231 2.74007 -3.30483 0
M  V30 8571 C 774.464 4.02449 -3.50529 0
M  V30 8572 O 774.687 5.00147 -2.74242 0
M  V30 8573 O 773.621 4.06405 -4.4398 0
M  V30 8574 H 777.447 1.19731 -2.79102 0
M  V30 8575 H 775.032 0.528033 -1.39758 0
M  V30 8576 H 776.914 3.58247 -2.21894 0
M  V30 8577 H 775.589 3.0208 -1.16317 0
M  V30 8578 H 774.496 1.92736 -3.2063 0
M  V30 8579 H 775.829 2.55267 -4.20832 0
M  V30 8580 N 777.481 1.45874 0.596531 0
M  V30 8581 C 778.729 1.5017 1.35253 0
M  V30 8582 C 779.05 0.149246 1.94428 0
M  V30 8583 O 778.32 -0.82268 1.77789 0
M  V30 8584 H 776.9 0.553052 0.502138 0
M  V30 8585 H 779.562 1.81908 0.699671 0
M  V30 8586 H 778.658 2.24671 2.16632 0
M  V30 8587 N 778.959 -0.83999 1.33349 0
M  V30 8588 C 779.922 -1.93128 1.23426 0
M  V30 8589 C 780.922 -1.60065 0.153599 0
M  V30 8590 O 782.112 -1.69425 0.405049 0
M  V30 8591 C 779.244 -3.28761 0.901622 0
M  V30 8592 H 780.437 -2.03352 2.20427 0
M  V30 8593 H 777.99 -1.03194 1.17391 0
M  V30 8594 H 778.725 -3.24233 -0.0659337 0
M  V30 8595 H 778.51 -3.54138 1.68311 0
M  V30 8596 H 780 -4.08714 0.856913 0
M  V30 8597 N 780.437 -1.16799 -1.0581 0
M  V30 8598 C 781.37 -0.822491 -2.12862 0
M  V30 8599 C 782.348 0.208006 -1.61264 0
M  V30 8600 O 783.532 0.0909652 -1.8828 0
M  V30 8601 C 780.659 -0.225826 -3.37946 0
M  V30 8602 C 779.705 -1.23071 -4.08357 0
M  V30 8603 S 780.538 -2.77944 -4.5772 0
M  V30 8604 C 781.694 -2.19741 -5.86059 0
M  V30 8605 H 781.927 -1.72917 -2.41841 0
M  V30 8606 H 779.46 -0.991982 -1.18318 0
M  V30 8607 H 781.418 0.111955 -4.10347 0
M  V30 8608 H 780.079 0.658692 -3.07116 0
M  V30 8609 H 779.272 -0.761758 -4.9821 0
M  V30 8610 H 778.874 -1.51383 -3.41993 0
M  V30 8611 H 781.166 -1.5691 -6.59079 0
M  V30 8612 H 782.109 -3.07823 -6.37692 0
M  V30 8613 H 782.517 -1.63433 -5.40324 0
M  V30 8614 N 781.915 1.24427 -0.967243 0
M  V30 8615 C 782.825 2.29109 -0.504592 0
M  V30 8616 C 783.841 1.68495 0.434224 0
M  V30 8617 O 785.017 1.99041 0.307379 0
M  V30 8618 C 782.082 3.46133 0.198273 0
M  V30 8619 C 781.143 4.22149 -0.780313 0
M  V30 8620 C 780.376 5.33585 -0.110896 0
M  V30 8621 O 780.599 5.59676 1.10088 0
M  V30 8622 O 779.533 5.96522 -0.802823 0
M  V30 8623 H 783.359 2.708 -1.37482 0
M  V30 8624 H 780.944 1.30111 -0.73426 0
M  V30 8625 H 782.826 4.17205 0.593124 0
M  V30 8626 H 781.501 3.0642 1.04347 0
M  V30 8627 H 780.408 3.53454 -1.22561 0
M  V30 8628 H 781.741 4.65677 -1.59392 0
M  V30 8629 N 783.393 0.737304 1.3929 0
M  V30 8630 C 784.67 0.212464 1.94443 0
M  V30 8631 C 785.05 -1.28621 1.67391 0
M  V30 8632 O 784.398 -2.0529 1.00342 0
M  V30 8633 C 784.608 0.548565 3.44662 0
M  V30 8634 C 785.956 0.499177 4.21656 0
M  V30 8635 O 786.98 0.485892 3.5287 0
M  V30 8636 O 785.839 0.495739 5.44247 0
M  V30 8637 H 782.933 0.0395457 0.826054 0
M  V30 8638 H 785.479 0.816319 1.48776 0
M  V30 8639 H 784.251 1.58426 3.57795 0
M  V30 8640 H 783.874 -0.0841399 3.97511 0
M  V30 8641 N 784.871 -1.49948 0.485112 0
M  V30 8642 C 785.801 -2.31675 -0.291364 0
M  V30 8643 C 786.782 -1.39216 -0.977383 0
M  V30 8644 O 787.967 -1.68133 -0.971855 0
M  V30 8645 C 785.097 -3.19326 -1.36558 0
M  V30 8646 C 784.051 -4.2045 -0.800359 0
M  V30 8647 C 783.377 -4.96931 -1.97391 0
M  V30 8648 C 784.677 -5.21925 0.197867 0
M  V30 8649 H 786.371 -2.96839 0.390775 0
M  V30 8650 H 783.917 -1.42749 0.189375 0
M  V30 8651 H 785.87 -3.75304 -1.91638 0
M  V30 8652 H 784.594 -2.52074 -2.07668 0
M  V30 8653 H 783.253 -3.65594 -0.271428 0
M  V30 8654 H 782.901 -4.26141 -2.67232 0
M  V30 8655 H 782.601 -5.65344 -1.60187 0
M  V30 8656 H 784.125 -5.55749 -2.52935 0
M  V30 8657 H 785.539 -5.72691 -0.264239 0
M  V30 8658 H 783.936 -5.98138 0.484908 0
M  V30 8659 H 785.006 -4.71809 1.11912 0
M  V30 8660 N 786.349 -0.21828 -1.56081 0
M  V30 8661 C 787.281 0.725447 -2.17416 0
M  V30 8662 C 788.294 1.15995 -1.14233 0
M  V30 8663 O 789.483 1.09166 -1.41227 0
M  V30 8664 C 786.583 1.99401 -2.7403 0
M  V30 8665 C 785.756 1.7156 -4.02351 0
M  V30 8666 C 784.815 2.8309 -4.43561 0
M  V30 8667 O 783.841 2.51701 -5.10525 0
M  V30 8668 N 785.043 4.11972 -4.08973 0
M  V30 8669 H 787.808 0.200801 -2.99027 0
M  V30 8670 H 785.369 -0.0371514 -1.61857 0
M  V30 8671 H 787.361 2.73198 -2.98571 0
M  V30 8672 H 785.931 2.42923 -1.96742 0
M  V30 8673 H 785.151 0.814233 -3.85699 0
M  V30 8674 H 786.439 1.50385 -4.86068 0
M  V30 8675 H 785.837 4.40319 -3.55156 0
M  V30 8676 H 784.394 4.82323 -4.38415 0
M  V30 8677 N 787.827 1.57504 0.0551401 0
M  V30 8678 C 789.104 1.79155 0.785048 0
M  V30 8679 C 789.484 0.809995 1.94942 0
M  V30 8680 O 788.832 -0.153432 2.27984 0
M  V30 8681 C 789.042 3.26134 1.24247 0
M  V30 8682 C 790.39 3.90419 1.66908 0
M  V30 8683 O 791.414 3.30126 1.33772 0
M  V30 8684 O 790.273 4.96523 2.28314 0
M  V30 8685 H 787.367 0.735825 0.377479 0
M  V30 8686 H 789.913 1.69666 0.0339285 0
M  V30 8687 H 788.685 3.89145 0.410089 0
M  V30 8688 H 788.308 3.40411 2.05441 0
M  V30 8689 N 789.305 -0.326896 1.54172 0
M  V30 8690 C 790.533 -1.08486 1.76177 0
M  V30 8691 C 790.948 -1.81815 0.508788 0
M  V30 8692 O 790.305 -1.74924 -0.520362 0
M  V30 8693 C 790.356 -2.08552 2.95276 0
M  V30 8694 O 790.077 -1.38202 4.15731 0
M  V30 8695 C 791.578 -2.96593 3.29466 0
M  V30 8696 H 788.798 -0.322835 0.588233 0
M  V30 8697 H 791.342 -0.374036 2.0105 0
M  V30 8698 H 789.497 -2.75174 2.72687 0
M  V30 8699 H 789.911 -2.05186 4.827 0
M  V30 8700 H 791.385 -3.62708 4.16109 0
M  V30 8701 H 791.862 -3.63511 2.46487 0
M  V30 8702 H 792.468 -2.35537 3.54122 0
M  V30 8703 N 790.784 -1.46188 -0.588786 0
M  V30 8704 C 792.031 -1.51184 -1.34721 0
M  V30 8705 C 792.359 -0.161084 -1.93832 0
M  V30 8706 O 791.614 0.842557 -1.76634 0
M  V30 8707 C 791.913 -2.55364 -2.50048 0
M  V30 8708 C 791.579 -3.99553 -2.08969 0
M  V30 8709 C 790.241 -4.38811 -1.9748 0
M  V30 8710 C 792.593 -4.90156 -1.77191 0
M  V30 8711 C 789.921 -5.66544 -1.52463 0
M  V30 8712 C 792.273 -6.1832 -1.33654 0
M  V30 8713 C 790.937 -6.5649 -1.20738 0
M  V30 8714 H 790.207 -0.55322 -0.49298 0
M  V30 8715 H 792.854 -1.79634 -0.663627 0
M  V30 8716 H 791.159 -2.20552 -3.23827 0
M  V30 8717 H 792.856 -2.5646 -3.08268 0
M  V30 8718 H 789.446 -3.68518 -2.18843 0
M  V30 8719 H 793.63 -4.60549 -1.84955 0
M  V30 8720 H 788.886 -5.94895 -1.411 0
M  V30 8721 H 793.06 -6.87956 -1.08117 0
M  V30 8722 H 790.687 -7.55362 -0.856307 0
M  V30 8723 N 792.262 0.832906 -1.33792 0
M  V30 8724 C 793.511 1.58351 -1.24932 0
M  V30 8725 C 793.824 1.94754 0.181703 0
M  V30 8726 O 795.03 2.6865 0.392375 0
M  V30 8727 C 793.486 2.85643 -2.18943 0
M  V30 8728 C 793.094 2.56581 -3.67247 0
M  V30 8729 C 794.838 3.63667 -2.18968 0
M  V30 8730 C 792.745 3.80006 -4.53155 0
M  V30 8731 H 791.675 0.594278 -0.464058 0
M  V30 8732 H 794.326 0.91786 -1.58895 0
M  V30 8733 H 792.708 3.53781 -1.77919 0
M  V30 8734 H 793.882 1.96617 -4.16747 0
M  V30 8735 H 792.197 1.91851 -3.6957 0
M  V30 8736 H 794.794 4.55293 -2.80379 0
M  V30 8737 H 795.137 3.99039 -1.18631 0
M  V30 8738 H 795.67 3.0246 -2.58384 0
M  V30 8739 H 792.409 3.4976 -5.5439 0
M  V30 8740 H 791.929 4.39288 -4.08395 0
M  V30 8741 H 793.608 4.47523 -4.6726 0
M  V30 8742 N 793.74 1.17359 1.05189 0
M  V30 8743 C 794.986 0.963413 1.78455 0
M  V30 8744 C 795.319 -0.506703 1.87473 0
M  V30 8745 O 794.594 -1.37611 1.37453 0
M  V30 8746 C 794.877 1.60519 3.22344 0
M  V30 8747 C 794.73 3.14741 3.21338 0
M  V30 8748 C 796.049 1.3091 4.20179 0
M  V30 8749 H 793.168 0.351412 0.647826 0
M  V30 8750 H 795.81 1.44858 1.22948 0
M  V30 8751 H 793.96 1.19265 3.69741 0
M  V30 8752 H 795.632 3.65053 2.82017 0
M  V30 8753 H 793.875 3.4749 2.59679 0
M  V30 8754 H 794.546 3.54775 4.22894 0
M  V30 8755 H 797.022 1.66635 3.81277 0
M  V30 8756 H 795.898 1.784 5.191 0
M  V30 8757 H 796.159 0.229908 4.41502 0
M  V30 8758 N 795.218 -1.23913 0.973828 0
M  V30 8759 C 796.168 -2.22892 0.479933 0
M  V30 8760 C 797.152 -1.54726 -0.441434 0
M  V30 8761 O 798.344 -1.74908 -0.271358 0
M  V30 8762 C 795.473 -3.42577 -0.222702 0
M  V30 8763 C 794.559 -4.17981 0.717851 0
M  V30 8764 N 794.95 -4.7045 1.8577 0
M  V30 8765 C 793.248 -4.42841 0.529858 0
M  V30 8766 C 793.949 -5.27751 2.44651 0
M  V30 8767 N 792.925 -5.15302 1.73104 0
M  V30 8768 H 796.727 -2.61083 1.34956 0
M  V30 8769 H 794.241 -1.39368 0.83368 0
M  V30 8770 H 796.238 -4.1265 -0.593793 0
M  V30 8771 H 794.898 -3.05904 -1.0887 0
M  V30 8772 H 795.909 -4.66997 2.23908 0
M  V30 8773 H 792.586 -4.1648 -0.291664 0
M  V30 8774 H 793.976 -5.79011 3.40875 0
M  V30 8775 N 796.696 -0.74468 -1.38897 0
M  V30 8776 C 797.924 -0.307428 -2.04603 0
M  V30 8777 C 798.339 1.06115 -1.56157 0
M  V30 8778 O 797.696 1.67233 -0.730701 0
M  V30 8779 C 797.747 -0.31101 -3.6016 0
M  V30 8780 O 797.468 -1.62557 -4.06825 0
M  V30 8781 C 798.969 0.141213 -4.43075 0
M  V30 8782 H 796.189 -0.132741 -0.657739 0
M  V30 8783 H 798.733 -1.01104 -1.77759 0
M  V30 8784 H 796.888 0.343792 -3.85872 0
M  V30 8785 H 797.302 -1.54569 -5.01207 0
M  V30 8786 H 798.776 0.0875449 -5.51931 0
M  V30 8787 H 799.253 1.18782 -4.22833 0
M  V30 8788 H 799.859 -0.484383 -4.22533 0
M  V30 8789 N 798.174 1.49689 -0.493057 0
M  V30 8790 C 799.423 2.01622 0.0560733 0
M  V30 8791 C 799.736 1.37838 1.3878 0
M  V30 8792 O 800.942 1.81054 2.02316 0
M  V30 8793 C 799.398 3.59586 0.150409 0
M  V30 8794 C 799.006 4.32338 -1.1742 0
M  V30 8795 C 800.75 4.19489 0.650327 0
M  V30 8796 C 798.657 5.8214 -1.04246 0
M  V30 8797 H 797.587 0.753594 0.0247297 0
M  V30 8798 H 800.238 1.723 -0.631279 0
M  V30 8799 H 798.62 3.8559 0.902035 0
M  V30 8800 H 799.794 4.18042 -1.9385 0
M  V30 8801 H 798.109 3.84144 -1.60694 0
M  V30 8802 H 800.706 5.29181 0.766272 0
M  V30 8803 H 801.049 3.82326 1.6472 0
M  V30 8804 H 801.582 3.97775 -0.0445371 0
M  V30 8805 H 798.321 6.23814 -2.01336 0
M  V30 8806 H 797.841 5.98952 -0.31892 0
M  V30 8807 H 799.52 6.43004 -0.717957 0
M  V30 8808 N 799.652 0.226554 1.55963 0
M  V30 8809 C 800.562 -0.692725 2.24139 0
M  V30 8810 C 801.578 -1.20971 1.25068 0
M  V30 8811 O 802.754 -1.25027 1.57893 0
M  V30 8812 C 799.819 -1.88183 2.91184 0
M  V30 8813 C 798.88 -1.40633 4.05612 0
M  V30 8814 C 798.113 -2.53875 4.6945 0
M  V30 8815 O 798.336 -3.72129 4.32292 0
M  V30 8816 O 797.27 -2.24792 5.58348 0
M  V30 8817 H 801.096 -0.141921 3.03368 0
M  V30 8818 H 798.681 -0.0041049 1.49399 0
M  V30 8819 H 800.563 -2.57617 3.33484 0
M  V30 8820 H 799.238 -2.42064 2.14911 0
M  V30 8821 H 798.145 -0.67986 3.67871 0
M  V30 8822 H 799.478 -0.913838 4.83642 0
M  V30 8823 N 801.13 -1.57531 -0.0467866 0
M  V30 8824 C 802.04 -2.08768 -1.07018 0
M  V30 8825 C 803.056 -1.02245 -1.40791 0
M  V30 8826 O 804.232 -1.33873 -1.50466 0
M  V30 8827 C 801.297 -2.54221 -2.35738 0
M  V30 8828 C 800.358 -3.75152 -2.08709 0
M  V30 8829 C 799.591 -4.18428 -3.31291 0
M  V30 8830 O 799.814 -3.61365 -4.4133 0
M  V30 8831 O 798.748 -5.11018 -3.18032 0
M  V30 8832 H 802.574 -2.96334 -0.664812 0
M  V30 8833 H 800.159 -1.47074 -0.262605 0
M  V30 8834 H 802.041 -2.83866 -3.11445 0
M  V30 8835 H 800.716 -1.69774 -2.75605 0
M  V30 8836 H 799.623 -3.50553 -1.30627 0
M  V30 8837 H 800.956 -4.60528 -1.73708 0
M  V30 8838 N 802.608 0.318715 -1.54344 0
M  V30 8839 C 803.857 1.05363 -1.71993 0
M  V30 8840 C 804.17 1.89018 -0.503155 0
M  V30 8841 O 805.376 2.65639 -0.561085 0
M  V30 8842 C 803.832 1.92281 -3.0423 0
M  V30 8843 C 803.44 1.13715 -4.33328 0
M  V30 8844 C 805.184 2.65479 -3.31242 0
M  V30 8845 C 803.091 1.99806 -5.56625 0
M  V30 8846 H 802.021 0.397081 -0.64097 0
M  V30 8847 H 804.672 0.311598 -1.80835 0
M  V30 8848 H 803.054 2.70402 -2.89307 0
M  V30 8849 H 804.228 0.403305 -4.59032 0
M  V30 8850 H 802.543 0.521769 -4.13118 0
M  V30 8851 H 805.14 3.30209 -4.20555 0
M  V30 8852 H 805.483 3.33374 -2.49334 0
M  V30 8853 H 806.016 1.94417 -3.47054 0
M  V30 8854 H 802.755 1.36411 -6.41149 0
M  V30 8855 H 802.275 2.70911 -5.35133 0
M  V30 8856 H 803.954 2.58277 -5.93213 0
M  V30 8857 N 804.086 1.46499 0.581025 0
M  V30 8858 C 805.018 1.53225 1.70455 0
M  V30 8859 C 806.031 0.420443 1.57277 0
M  V30 8860 O 807.22 0.688888 1.64671 0
M  V30 8861 C 804.32 1.39803 3.08721 0
M  V30 8862 C 803.493 2.65132 3.47884 0
M  V30 8863 C 802.552 2.45886 4.65217 0
M  V30 8864 O 801.578 3.19615 4.70993 0
M  V30 8865 N 802.78 1.5216 5.60203 0
M  V30 8866 H 805.545 2.50098 1.65139 0
M  V30 8867 H 803.106 1.42576 0.76705 0
M  V30 8868 H 805.098 1.24697 3.8501 0
M  V30 8869 H 803.668 0.51104 3.08394 0
M  V30 8870 H 802.888 2.95169 2.61284 0
M  V30 8871 H 804.176 3.48385 3.70817 0
M  V30 8872 H 803.574 0.913646 5.58273 0
M  V30 8873 H 802.131 1.43017 6.35916 0
M  V30 8874 N 805.565 -0.825799 1.34232 0
M  V30 8875 C 806.813 -1.57873 1.26177 0
M  V30 8876 C 807.134 -1.94267 -0.168904 0
M  V30 8877 O 806.404 -1.62045 -1.10084 0
M  V30 8878 H 804.984 -0.585388 0.464037 0
M  V30 8879 H 807.646 -0.986163 1.6811 0
M  V30 8880 H 806.742 -2.50283 1.86453 0
M  V30 8881 N 807.043 -1.17915 -1.04565 0
M  V30 8882 C 807.973 -0.925033 -2.14395 0
M  V30 8883 C 808.954 0.135375 -1.6956 0
M  V30 8884 O 810.139 -0.0161774 -1.94193 0
M  V30 8885 C 807.269 -0.444469 -3.44444 0
M  V30 8886 C 806.223 -1.44478 -4.02877 0
M  V30 8887 C 805.549 -0.821933 -5.28345 0
M  V30 8888 C 806.849 -2.81995 -4.39632 0
M  V30 8889 H 808.543 -1.84354 -2.35911 0
M  V30 8890 H 806.089 -0.887806 -1.13375 0
M  V30 8891 H 808.042 -0.254078 -4.20633 0
M  V30 8892 H 806.766 0.509592 -3.226 0
M  V30 8893 H 805.425 -1.62203 -3.28764 0
M  V30 8894 H 805.073 0.139161 -5.02807 0
M  V30 8895 H 804.773 -1.48976 -5.68401 0
M  V30 8896 H 806.297 -0.641959 -6.07216 0
M  V30 8897 H 807.711 -2.67952 -5.06828 0
M  V30 8898 H 806.108 -3.45414 -4.90723 0
M  V30 8899 H 807.178 -3.35927 -3.49687 0
M  V30 8900 N 808.521 1.23394 -0.980386 0
M  V30 8901 C 809.749 1.95844 -0.667286 0
M  V30 8902 C 810.164 1.72574 0.765735 0
M  V30 8903 O 809.521 1.01715 1.51526 0
M  V30 8904 C 809.572 3.48844 -0.948151 0
M  V30 8905 O 809.293 3.71325 -2.32485 0
M  V30 8906 C 810.794 4.38494 -0.651002 0
M  V30 8907 H 808.014 0.623535 -0.247882 0
M  V30 8908 H 810.558 1.56885 -1.31176 0
M  V30 8909 H 808.713 3.85819 -0.349681 0
M  V30 8910 H 809.127 4.65619 -2.41452 0
M  V30 8911 H 810.601 5.44648 -0.897887 0
M  V30 8912 H 811.078 4.37236 0.414922 0
M  V30 8913 H 811.684 4.07127 -1.22995 0
M  V30 8914 N 809.999 0.752036 1.385 0
M  V30 8915 C 811.227 0.318274 2.04437 0
M  V30 8916 C 811.642 -1.05285 1.56718 0
M  V30 8917 O 810.999 -1.66844 0.73956 0
M  V30 8918 C 811.05 0.330106 3.5999 0
M  V30 8919 O 810.771 1.64712 4.05957 0
M  V30 8920 C 812.272 -0.117713 4.43144 0
M  V30 8921 H 809.492 0.136228 0.657026 0
M  V30 8922 H 812.036 1.02045 1.7722 0
M  V30 8923 H 810.191 -0.323323 3.86048 0
M  V30 8924 H 810.605 1.57225 5.0038 0
M  V30 8925 H 812.079 -0.0582735 5.51969 0
M  V30 8926 H 812.556 -1.16538 4.23457 0
M  V30 8927 H 813.162 0.506784 4.2227 0
M  V30 8928 N 811.477 -1.49425 0.500989 0
M  V30 8929 C 812.44 -2.27646 -0.266416 0
M  V30 8930 C 813.44 -1.3366 -0.893961 0
M  V30 8931 O 814.63 -1.5682 -0.758495 0
M  V30 8932 C 811.762 -3.11618 -1.38227 0
M  V30 8933 H 812.955 -2.96945 0.419973 0
M  V30 8934 H 810.508 -1.5419 0.255954 0
M  V30 8935 H 811.243 -2.46885 -2.10281 0
M  V30 8936 H 811.028 -3.80721 -0.937746 0
M  V30 8937 H 812.518 -3.70698 -1.92283 0
M  V30 8938 N 812.955 -0.234822 -1.55841 0
M  V30 8939 C 813.905 0.68346 -2.17515 0
M  V30 8940 C 814.889 1.14798 -1.1274 0
M  V30 8941 O 816.081 1.09976 -1.38688 0
M  V30 8942 C 813.21 1.88551 -2.86886 0
M  V30 8943 C 812.296 1.44006 -3.98903 0
M  V30 8944 N 812.687 0.708034 -5.0082 0
M  V30 8945 C 810.985 1.7263 -4.11236 0
M  V30 8946 C 811.686 0.479036 -5.79724 0
M  V30 8947 N 810.662 1.03968 -5.33565 0
M  V30 8948 H 814.464 0.115897 -2.93671 0
M  V30 8949 H 811.978 -0.0366273 -1.62359 0
M  V30 8950 H 813.975 2.55425 -3.2949 0
M  V30 8951 H 812.635 2.45742 -2.12229 0
M  V30 8952 H 813.646 0.359363 -5.16652 0
M  V30 8953 H 810.323 2.31046 -3.47741 0
M  V30 8954 H 811.713 -0.104514 -6.71819 0
M  V30 8955 N 814.433 1.57553 0.0384317 0
M  V30 8956 C 815.343 2.09333 1.0591 0
M  V30 8957 C 816.359 1.0299 1.40247 0
M  V30 8958 O 817.535 1.34669 1.49754 0
M  V30 8959 C 814.6 2.55468 2.34386 0
M  V30 8960 C 813.661 3.76254 2.06716 0
M  V30 8961 C 812.894 4.20179 3.29067 0
M  V30 8962 O 813.117 3.637 4.39407 0
M  V30 8963 O 812.051 5.12697 3.15317 0
M  V30 8964 H 815.877 2.96683 0.649087 0
M  V30 8965 H 813.462 1.47211 0.254802 0
M  V30 8966 H 815.344 2.85514 3.09935 0
M  V30 8967 H 814.019 1.71234 2.74701 0
M  V30 8968 H 812.926 3.51241 1.28766 0
M  V30 8969 H 814.259 4.61443 1.71263 0
M  V30 8970 N 815.911 -0.310526 1.54511 0
M  V30 8971 C 816.843 -1.40405 1.8116 0
M  V30 8972 C 817.856 -1.47261 0.694114 0
M  V30 8973 O 819.045 -1.49751 0.971441 0
M  V30 8974 C 816.145 -2.78849 1.92604 0
M  V30 8975 C 815.318 -2.95041 3.22908 0
M  V30 8976 C 814.377 -4.13925 3.24889 0
M  V30 8977 O 813.403 -4.06463 3.98467 0
M  V30 8978 N 814.605 -5.24099 2.496 0
M  V30 8979 H 817.37 -1.17903 2.75534 0
M  V30 8980 H 814.931 -0.500564 1.53967 0
M  V30 8981 H 816.923 -3.5661 1.91342 0
M  V30 8982 H 815.493 -2.94342 1.05268 0
M  V30 8983 H 814.713 -2.04472 3.37023 0
M  V30 8984 H 816.001 -3.02763 4.08916 0
M  V30 8985 H 815.399 -5.33039 1.89435 0
M  V30 8986 H 813.956 -6.0023 2.54102 0
M  V30 8987 N 817.389 -1.46805 -0.573248 0
M  V30 8988 C 818.636 -1.52604 -1.3311 0
M  V30 8989 C 818.964 -0.181633 -1.9365 0
M  V30 8990 O 818.219 0.823775 -1.77517 0
M  V30 8991 C 818.518 -2.58001 -2.47326 0
M  V30 8992 C 818.184 -4.01747 -2.04719 0
M  V30 8993 C 816.846 -4.40881 -1.92814 0
M  V30 8994 C 819.198 -4.92008 -1.71982 0
M  V30 8995 C 816.526 -5.68129 -1.46445 0
M  V30 8996 C 818.878 -6.19703 -1.27089 0
M  V30 8997 C 817.542 -6.57733 -1.13768 0
M  V30 8998 H 816.812 -0.558417 -0.487084 0
M  V30 8999 H 819.459 -1.80327 -0.644538 0
M  V30 9000 H 817.764 -2.23974 -3.2147 0
M  V30 9001 H 819.461 -2.59715 -3.05531 0
M  V30 9002 H 816.051 -3.70819 -2.14922 0
M  V30 9003 H 820.235 -4.62485 -1.8006 0
M  V30 9004 H 815.491 -5.96359 -1.34783 0
M  V30 9005 H 819.665 -6.89064 -1.00814 0
M  V30 9006 H 817.292 -7.56228 -0.776142 0
M  V30 9007 N 818.867 0.818669 -1.34668 0
M  V30 9008 C 819.814 1.92983 -1.26595 0
M  V30 9009 C 820.784 1.65506 -0.140315 0
M  V30 9010 O 821.969 1.88063 -0.322005 0
M  V30 9011 C 819.109 3.2932 -1.03163 0
M  V30 9012 C 818.222 3.69061 -2.24539 0
M  V30 9013 C 817.357 4.94368 -1.94355 0
M  V30 9014 C 816.396 5.26702 -3.11851 0
M  V30 9015 N 815.533 6.43187 -2.81522 0
M  V30 9016 H 820.373 1.99219 -2.2162 0
M  V30 9017 H 817.91 0.974612 -1.1018 0
M  V30 9018 H 819.868 4.07897 -0.87613 0
M  V30 9019 H 818.498 3.22584 -0.118045 0
M  V30 9020 H 817.55 2.85842 -2.50995 0
M  V30 9021 H 818.862 3.88924 -3.12313 0
M  V30 9022 H 818.016 5.80742 -1.75566 0
M  V30 9023 H 816.755 4.76515 -1.03848 0
M  V30 9024 H 815.76 4.38823 -3.31231 0
M  V30 9025 H 816.985 5.46492 -4.03142 0
M  V30 9026 H 814.931 6.26783 -1.93596 0
M  V30 9027 H 814.848 6.63243 -3.62829 0
M  V30 9028 H 816.116 7.32621 -2.66247 0
M  V30 9029 N 820.346 1.18468 1.03938 0
M  V30 9030 C 821.309 0.914944 2.10146 0
M  V30 9031 C 822.309 -0.10022 1.60487 0
M  V30 9032 O 823.499 0.133365 1.73689 0
M  V30 9033 C 820.631 0.372993 3.38853 0
M  V30 9034 H 821.824 1.85677 2.35508 0
M  V30 9035 H 819.377 0.996876 1.20383 0
M  V30 9036 H 820.112 -0.57538 3.19155 0
M  V30 9037 H 819.897 1.1048 3.76213 0
M  V30 9038 H 821.387 0.203014 4.17106 0
M  V30 9039 N 821.824 -1.22873 0.986916 0
M  V30 9040 C 823.052 -1.95487 0.677663 0
M  V30 9041 C 823.467 -1.72978 -0.756572 0
M  V30 9042 O 822.824 -1.02517 -1.50985 0
M  V30 9043 C 822.875 -3.48337 0.966638 0
M  V30 9044 O 822.596 -3.70087 2.34451 0
M  V30 9045 C 824.097 -4.38142 0.674248 0
M  V30 9046 H 821.317 -0.622211 0.251185 0
M  V30 9047 H 823.861 -1.56187 1.32007 0
M  V30 9048 H 822.016 -3.85628 0.370137 0
M  V30 9049 H 822.43 -4.64332 2.43918 0
M  V30 9050 H 823.904 -5.44165 0.926759 0
M  V30 9051 H 824.381 -4.3745 -0.391728 0
M  V30 9052 H 824.987 -4.06469 1.25152 0
M  V30 9053 N 823.302 -0.75937 -1.38099 0
M  V30 9054 C 824.232 -0.151077 -2.33011 0
M  V30 9055 C 825.213 0.697099 -1.5516 0
M  V30 9056 O 826.398 0.637101 -1.83452 0
M  V30 9057 C 823.528 0.738423 -3.39359 0
M  V30 9058 C 822.482 -0.0074741 -4.27999 0
M  V30 9059 C 821.808 1.00066 -5.25253 0
M  V30 9060 C 823.108 -1.17926 -5.08813 0
M  V30 9061 H 824.802 -0.943933 -2.84131 0
M  V30 9062 H 822.348 -0.455362 -1.36611 0
M  V30 9063 H 824.301 1.17369 -4.04725 0
M  V30 9064 H 823.025 1.56366 -2.86735 0
M  V30 9065 H 821.684 -0.423379 -3.64147 0
M  V30 9066 H 821.332 1.82012 -4.68914 0
M  V30 9067 H 821.032 0.506199 -5.85416 0
M  V30 9068 H 822.556 1.43512 -5.93495 0
M  V30 9069 H 823.97 -0.821262 -5.67387 0
M  V30 9070 H 822.367 -1.60497 -5.78239 0
M  V30 9071 H 823.437 -1.98938 -4.42212 0
M  V30 9072 N 824.78 1.49157 -0.508906 0
M  V30 9073 C 826.191 1.86593 -0.0630975 0
M  V30 9074 C 826.542 1.42051 1.35337 0
M  V30 9075 O 825.667 0.801866 2.00995 0
M  V30 9076 C 826.262 3.38629 -0.107729 0
M  V30 9077 C 824.821 3.75336 0.282776 0
M  V30 9078 C 823.968 2.7317 -0.4768 0
M  V30 9079 H 826.919 1.41362 -0.72128 0
M  V30 9080 H 826.94 3.74271 0.685689 0
M  V30 9081 H 826.452 3.71017 -1.13876 0
M  V30 9082 H 824.553 3.48558 1.31675 0
M  V30 9083 H 824.666 4.79081 -0.0421728 0
M  V30 9084 H 823.03 2.54591 0.0743552 0
M  V30 9085 H 823.813 3.08403 -1.50807 0
M  V30 9086 N 826.258 0.243083 1.55714 0
M  V30 9087 C 827.535 -0.432851 1.90751 0
M  V30 9088 C 827.915 -1.76153 1.16333 0
M  V30 9089 O 827.263 -2.26783 0.279565 0
M  V30 9090 C 827.473 -0.604685 3.43722 0
M  V30 9091 C 828.821 -0.90231 4.14902 0
M  V30 9092 O 829.845 -0.690689 3.49439 0
M  V30 9093 O 828.704 -1.3051 5.30688 0
M  V30 9094 H 825.798 -0.231835 0.79384 0
M  V30 9095 H 828.344 0.286867 1.67258 0
M  V30 9096 H 827.116 0.331655 3.89892 0
M  V30 9097 H 826.739 -1.37509 3.73065 0
M  V30 9098 N 827.736 -1.57571 -0.0300757 0
M  V30 9099 C 828.699 -2.05468 -1.01565 0
M  V30 9100 C 829.699 -0.958628 -1.29101 0
M  V30 9101 O 830.889 -1.22228 -1.24121 0
M  V30 9102 C 828.021 -2.47077 -2.34874 0
M  V30 9103 H 829.214 -2.93797 -0.601936 0
M  V30 9104 H 826.767 -1.53828 -0.276878 0
M  V30 9105 H 827.502 -1.61901 -2.80996 0
M  V30 9106 H 827.287 -3.27097 -2.16218 0
M  V30 9107 H 828.777 -2.84564 -3.05635 0
M  V30 9108 N 829.214 0.302327 -1.54673 0
M  V30 9109 C 830.491 1.05721 -1.64567 0
M  V30 9110 C 830.871 2.0526 -0.493108 0
M  V30 9111 O 830.219 2.22729 0.510315 0
M  V30 9112 C 830.429 1.74025 -3.02517 0
M  V30 9113 C 831.777 2.26271 -3.59286 0
M  V30 9114 O 832.801 1.8406 -3.0496 0
M  V30 9115 O 831.66 3.0361 -4.54404 0
M  V30 9116 H 828.754 0.488577 -0.667249 0
M  V30 9117 H 831.3 0.300521 -1.67018 0
M  V30 9118 H 830.072 1.0174 -3.77842 0
M  V30 9119 H 829.695 2.56454 -3.03838 0
M  V30 9120 N 830.692 1.47107 0.565454 0
M  V30 9121 C 831.639 1.58974 1.6732 0
M  V30 9122 C 832.609 0.433146 1.60353 0
M  V30 9123 O 833.794 0.652141 1.79309 0
M  V30 9124 C 830.934 1.60224 3.05651 0
M  V30 9125 C 830.047 2.86741 3.23116 0
M  V30 9126 C 829.182 2.79381 4.51796 0
M  V30 9127 C 828.221 4.0076 4.62664 0
M  V30 9128 N 827.358 3.91685 5.8269 0
M  V30 9129 H 832.198 2.53588 1.56515 0
M  V30 9130 H 829.735 1.25791 0.762558 0
M  V30 9131 H 831.693 1.58933 3.85741 0
M  V30 9132 H 830.323 0.691285 3.15311 0
M  V30 9133 H 829.375 2.97936 2.36513 0
M  V30 9134 H 830.687 3.7665 3.27011 0
M  V30 9135 H 829.841 2.76293 5.40136 0
M  V30 9136 H 828.58 1.87142 4.50366 0
M  V30 9137 H 827.585 4.04162 3.72738 0
M  V30 9138 H 828.81 4.94117 4.6586 0
M  V30 9139 H 826.756 3.02243 5.82224 0
M  V30 9140 H 826.673 4.75264 5.87929 0
M  V30 9141 H 827.941 3.92599 6.73414 0
M  V30 9142 N 832.17 -0.811516 1.35101 0
M  V30 9143 C 833.08 -1.95475 1.29718 0
M  V30 9144 C 834.096 -1.72813 0.202909 0
M  V30 9145 O 835.272 -1.96725 0.431414 0
M  V30 9146 C 832.337 -3.29975 1.06385 0
M  V30 9147 C 831.398 -3.65566 2.25077 0
M  V30 9148 C 830.631 -4.93648 2.02848 0
M  V30 9149 O 830.854 -5.617 0.992442 0
M  V30 9150 O 829.788 -5.27384 2.90087 0
M  V30 9151 H 833.614 -2.02961 2.25921 0
M  V30 9152 H 831.199 -0.948583 1.15422 0
M  V30 9153 H 833.081 -4.10506 0.951999 0
M  V30 9154 H 831.756 -3.2343 0.132294 0
M  V30 9155 H 830.663 -2.85432 2.41825 0
M  V30 9156 H 831.996 -3.7681 3.16662 0
M  V30 9157 N 833.648 -1.19017 -1.03309 0
M  V30 9158 C 835.064 -0.941483 -1.28873 0
M  V30 9159 C 835.264 0.388587 -1.97718 0
M  V30 9160 O 834.32 1.12111 -2.26246 0
M  V30 9161 C 835.633 -2.11249 -2.13996 0
M  V30 9162 C 837.181 -2.15164 -2.27318 0
M  V30 9163 C 837.656 -3.31704 -3.15811 0
M  V30 9164 N 839.147 -3.31613 -3.23399 0
M  V30 9165 C 839.882 -4.18431 -3.9205 0
M  V30 9166 N 839.378 -5.15397 -4.62966 0
M  V30 9167 N 841.171 -4.06321 -3.88406 0
M  V30 9168 H 833.322 -2.04599 -0.570343 0
M  V30 9169 H 835.585 -0.894406 -0.314232 0
M  V30 9170 H 835.291 -3.07482 -1.70727 0
M  V30 9171 H 835.165 -2.07955 -3.14697 0
M  V30 9172 H 837.552 -1.19504 -2.6982 0
M  V30 9173 H 837.633 -2.22513 -1.26182 0
M  V30 9174 H 837.277 -4.2764 -2.74019 0
M  V30 9175 H 837.207 -3.21592 -4.16997 0
M  V30 9176 H 839.698 -2.6142 -2.72888 0
M  V30 9177 H 840.011 -5.78 -5.12968 0
M  V30 9178 H 838.356 -5.19349 -4.61846 0
M  V30 9179 H 841.547 -3.29849 -3.3214 0
M  V30 9180 H 841.72 -4.74196 -4.41635 0
M  V30 9181 N 835.127 1.22348 -0.993418 0
M  V30 9182 C 836.057 2.26584 -0.564088 0
M  V30 9183 C 837.038 1.65102 0.409298 0
M  V30 9184 O 838.223 1.91872 0.299819 0
M  V30 9185 C 835.353 3.47087 0.121554 0
M  V30 9186 C 834.307 4.21009 -0.770429 0
M  V30 9187 C 833.633 5.34678 0.0481586 0
M  V30 9188 C 834.933 4.79636 -2.06752 0
M  V30 9189 H 836.627 2.62749 -1.43538 0
M  V30 9190 H 834.173 1.26303 -0.691628 0
M  V30 9191 H 836.126 4.19166 0.433303 0
M  V30 9192 H 834.85 3.1002 1.0274 0
M  V30 9193 H 833.509 3.50764 -1.06583 0
M  V30 9194 H 833.157 4.93852 0.954933 0
M  V30 9195 H 832.857 5.85061 -0.545641 0
M  V30 9196 H 834.381 6.09573 0.353991 0
M  V30 9197 H 835.795 5.43654 -1.81969 0
M  V30 9198 H 834.192 5.4036 -2.61019 0
M  V30 9199 H 835.262 3.99659 -2.74592 0
M  V30 9200 N 836.605 0.766683 1.37694 0
M  V30 9201 C 837.568 0.155849 2.2867 0
M  V30 9202 C 838.568 -0.633509 1.47795 0
M  V30 9203 O 839.758 -0.457844 1.68076 0
M  V30 9204 C 836.89 -0.786965 3.31692 0
M  V30 9205 H 838.083 0.957748 2.84196 0
M  V30 9206 H 835.636 0.534554 1.46875 0
M  V30 9207 H 836.371 -1.61406 2.8128 0
M  V30 9208 H 836.156 -0.223182 3.91464 0
M  V30 9209 H 837.646 -1.20994 3.99688 0
M  V30 9210 N 838.083 -1.48885 0.516809 0
M  V30 9211 C 839.332 -2.01686 -0.0239899 0
M  V30 9212 C 839.645 -1.40029 -1.3657 0
M  V30 9213 O 840.851 -1.84249 -1.9941 0
M  V30 9214 C 839.307 -3.59779 -0.0931825 0
M  V30 9215 C 838.915 -4.30416 1.24283 0
M  V30 9216 C 840.659 -4.20471 -0.583507 0
M  V30 9217 C 838.566 -5.80408 1.13494 0
M  V30 9218 H 837.496 -0.753892 -0.0127376 0
M  V30 9219 H 840.147 -1.71273 0.65861 0
M  V30 9220 H 838.529 -3.86976 -0.840577 0
M  V30 9221 H 839.703 -4.14905 2.00476 0
M  V30 9222 H 838.018 -3.81539 1.66785 0
M  V30 9223 H 840.615 -5.30333 -0.681987 0
M  V30 9224 H 840.958 -3.84898 -1.58617 0
M  V30 9225 H 841.491 -3.97654 0.107814 0
M  V30 9226 H 838.23 -6.20532 2.11235 0
M  V30 9227 H 837.75 -5.98368 0.414167 0
M  V30 9228 H 839.429 -6.41781 0.820162 0
M  V30 9229 N 839.561 -0.251338 -1.55583 0
M  V30 9230 C 840.491 0.640437 -2.24545 0
M  V30 9231 C 841.472 1.17781 -1.22726 0
M  V30 9232 O 842.657 1.21633 -1.5139 0
M  V30 9233 C 839.787 1.8355 -2.94834 0
M  V30 9234 C 838.741 1.4307 -4.03379 0
M  V30 9235 C 838.067 2.70695 -4.61116 0
M  V30 9236 C 839.367 0.59848 -5.1886 0
M  V30 9237 H 841.061 0.0653772 -2.99329 0
M  V30 9238 H 838.607 0.0300042 -1.43969 0
M  V30 9239 H 840.56 2.46505 -3.4178 0
M  V30 9240 H 839.284 2.43601 -2.17546 0
M  V30 9241 H 837.943 0.824474 -3.57209 0
M  V30 9242 H 837.591 3.28954 -3.80524 0
M  V30 9243 H 837.291 2.44332 -5.34393 0
M  V30 9244 H 838.815 3.34541 -5.10798 0
M  V30 9245 H 840.229 1.13244 -5.62004 0
M  V30 9246 H 838.626 0.430728 -5.98552 0
M  V30 9247 H 839.696 -0.38829 -4.83343 0
M  V30 9248 N 841.039 1.57585 0.0217189 0
M  V30 9249 C 842.287 1.89231 0.709641 0
M  V30 9250 C 842.608 0.849964 1.75501 0
M  V30 9251 O 841.878 -0.115485 1.95559 0
M  V30 9252 H 840.458 0.69838 0.265092 0
M  V30 9253 H 843.12 1.94895 -0.0140688 0
M  V30 9254 H 842.216 2.88333 1.19459 0
M  V30 9255 N 842.517 -0.29412 1.54831 0
M  V30 9256 C 843.766 -1.02614 1.73647 0
M  V30 9257 C 844.079 -1.88193 0.533162 0
M  V30 9258 O 845.285 -2.64713 0.603275 0
M  V30 9259 C 843.741 -1.87417 3.07251 0
M  V30 9260 C 843.349 -1.06806 4.35082 0
M  V30 9261 C 845.093 -2.60176 3.35423 0
M  V30 9262 C 843 -1.90926 5.59733 0
M  V30 9263 H 841.93 -0.386834 0.647206 0
M  V30 9264 H 844.581 -0.282789 1.81308 0
M  V30 9265 H 842.963 -2.65765 2.93572 0
M  V30 9266 H 844.137 -0.330226 4.59615 0
M  V30 9267 H 842.452 -0.455979 4.13896 0
M  V30 9268 H 845.049 -3.23476 4.25755 0
M  V30 9269 H 845.392 -3.29365 2.54606 0
M  V30 9270 H 845.925 -1.88871 3.50103 0
M  V30 9271 H 842.664 -1.26194 6.43238 0
M  V30 9272 H 842.184 -2.62363 5.39375 0
M  V30 9273 H 843.863 -2.48807 5.97247 0
M  V30 9274 N 843.995 -1.47404 -0.557645 0
M  V30 9275 C 844.945 -1.56267 -1.66026 0
M  V30 9276 C 845.929 -0.42161 -1.55278 0
M  V30 9277 O 847.121 -0.671505 -1.63768 0
M  V30 9278 C 844.25 -1.57958 -3.04802 0
M  V30 9279 C 843.336 -2.77447 -3.20755 0
M  V30 9280 N 843.727 -4.02148 -3.06775 0
M  V30 9281 C 842.025 -2.74199 -3.51754 0
M  V30 9282 C 842.726 -4.82168 -3.25406 0
M  V30 9283 N 841.702 -4.14481 -3.5172 0
M  V30 9284 H 845.504 -2.50454 -1.53785 0
M  V30 9285 H 843.018 -1.43392 -0.762388 0
M  V30 9286 H 845.015 -1.62397 -3.8397 0
M  V30 9287 H 843.675 -0.648667 -3.18155 0
M  V30 9288 H 844.686 -4.33014 -2.84111 0
M  V30 9289 H 841.363 -1.90243 -3.71637 0
M  V30 9290 H 842.753 -5.91037 -3.19569 0
M  V30 9291 N 845.473 0.80434 -1.35529 0
M  V30 9292 C 846.421 1.93769 -1.28671 0
M  V30 9293 C 847.415 1.68428 -0.181222 0
M  V30 9294 O 848.621 1.76617 -0.347338 0
M  V30 9295 H 844.996 0.636663 -0.400206 0
M  V30 9296 H 846.967 1.96673 -2.24415 0
M  V30 9297 C 845.716 3.30572 -1.07784 0
M  V30 9298 H 845.039 3.5063 -1.9209 0
M  V30 9299 H 846.479 4.1027 -1.07027 0
M  V30 9300 C 844.938 3.36193 0.218213 0
M  V30 9301 O 845.468 3.82941 1.21323 0
M  V30 9302 N 843.674 2.89455 0.257761 0
M  V30 9303 H 843.221 2.51604 -0.552562 0
M  V30 9304 H 843.179 2.93597 1.12465 0
M  V30 9305 N 846.951 1.19563 1.02676 0
M  V30 9306 C 847.861 0.950691 2.14474 0
M  V30 9307 C 848.877 -0.0900219 1.73767 0
M  V30 9308 O 850.053 0.0951063 2.01175 0
M  V30 9309 C 847.118 0.494917 3.43149 0
M  V30 9310 C 846.179 1.60527 3.98158 0
M  V30 9311 C 845.412 1.17115 5.20692 0
M  V30 9312 O 845.635 0.0355937 5.70389 0
M  V30 9313 O 844.569 1.97454 5.68591 0
M  V30 9314 H 848.395 1.88651 2.38001 0
M  V30 9315 H 845.98 0.978635 1.12885 0
M  V30 9316 H 847.862 0.249492 4.20661 0
M  V30 9317 H 846.537 -0.412434 3.21062 0
M  V30 9318 H 845.444 1.90487 3.21971 0
M  V30 9319 H 846.777 2.48925 4.24614 0
M  V30 9320 N 848.429 -1.21819 0.999893 0
M  V30 9321 C 849.675 -1.91035 0.680701 0
M  V30 9322 C 850.008 -1.77582 -0.786021 0
M  V30 9323 O 849.283 -1.14917 -1.56921 0
M  V30 9324 C 849.566 -3.43013 1.0961 0
M  V30 9325 C 849.419 -3.65481 2.6219 0
M  V30 9326 C 850.738 -4.35204 0.654616 0
M  V30 9327 H 847.857 -0.693748 0.248763 0
M  V30 9328 H 850.499 -1.43555 1.24466 0
M  V30 9329 H 848.649 -3.83581 0.616253 0
M  V30 9330 H 850.321 -3.34273 3.17899 0
M  V30 9331 H 848.564 -3.09522 3.03938 0
M  V30 9332 H 849.235 -4.71945 2.86307 0
M  V30 9333 H 851.711 -4.0219 1.06688 0
M  V30 9334 H 850.587 -5.40198 0.973492 0
M  V30 9335 H 850.848 -4.3986 -0.444458 0
M  V30 9336 N 849.908 -0.773975 -1.37286 0
M  V30 9337 C 851.133 -0.349561 -2.04433 0
M  V30 9338 C 851.558 1.02082 -1.5799 0
M  V30 9339 O 850.916 1.65458 -0.741172 0
M  V30 9340 C 850.964 -0.404292 -3.58326 0
M  V30 9341 O 850.068 0.594447 -4.08093 0
M  V30 9342 H 849.409 -0.150959 -0.646612 0
M  V30 9343 H 851.939 -1.05079 -1.75555 0
M  V30 9344 H 851.949 -0.262378 -4.07155 0
M  V30 9345 H 850.624 -1.40403 -3.91484 0
M  V30 9346 H 849.201 0.415468 -3.70578 0
M  V30 9347 N 851.386 1.48609 -0.524698 0
M  V30 9348 C 852.333 2.29539 0.240956 0
M  V30 9349 C 853.303 1.37033 0.938681 0
M  V30 9350 O 854.488 1.65996 0.940737 0
M  V30 9351 C 851.628 3.20278 1.28514 0
M  V30 9352 C 850.741 4.27858 0.596798 0
M  V30 9353 C 849.876 5.05784 1.62346 0
M  V30 9354 C 848.915 6.05173 0.918287 0
M  V30 9355 N 848.052 6.76176 1.89025 0
M  V30 9356 H 852.892 2.945 -0.455368 0
M  V30 9357 H 850.429 1.45188 -0.236403 0
M  V30 9358 H 852.387 3.71281 1.90279 0
M  V30 9359 H 851.017 2.57251 1.94992 0
M  V30 9360 H 850.069 3.80162 -0.134668 0
M  V30 9361 H 851.381 4.98782 0.0428506 0
M  V30 9362 H 850.535 5.60775 2.31553 0
M  V30 9363 H 849.274 4.34687 2.2113 0
M  V30 9364 H 848.279 5.49391 0.21212 0
M  V30 9365 H 849.504 6.78265 0.336633 0
M  V30 9366 H 847.45 6.07834 2.46726 0
M  V30 9367 H 847.367 7.43157 1.3876 0
M  V30 9368 H 848.635 7.35759 2.57446 0
M  V30 9369 N 852.864 0.259585 1.55447 0
M  V30 9370 C 854.113 -0.362163 1.98422 0
M  V30 9371 C 854.426 -1.58135 1.1512 0
M  V30 9372 O 855.632 -2.27506 1.48166 0
M  V30 9373 C 854.088 -0.695722 3.53111 0
M  V30 9374 C 853.696 0.502784 4.4517 0
M  V30 9375 C 855.44 -1.28096 4.04712 0
M  V30 9376 C 853.347 0.144674 5.91223 0
M  V30 9377 H 852.277 -0.139092 0.74106 0
M  V30 9378 H 854.928 0.361798 1.79898 0
M  V30 9379 H 853.31 -1.47816 3.67378 0
M  V30 9380 H 854.484 1.27994 4.42667 0
M  V30 9381 H 852.799 1.0038 4.0412 0
M  V30 9382 H 855.396 -1.56243 5.11363 0
M  V30 9383 H 855.739 -2.20969 3.52815 0
M  V30 9384 H 856.272 -0.561146 3.93822 0
M  V30 9385 H 853.011 1.04087 6.47183 0
M  V30 9386 H 852.531 -0.596023 5.96831 0
M  V30 9387 H 854.21 -0.268651 6.46442 0
M  V30 9388 N 854.342 -1.57594 -0.0133615 0
M  V30 9389 C 855.588 -1.90262 -0.702019 0
M  V30 9390 C 855.921 -0.859219 -1.74158 0
M  V30 9391 O 855.196 0.123778 -1.94106 0
M  V30 9392 C 855.479 -3.3354 -1.35732 0
M  V30 9393 C 855.332 -4.48586 -0.330208 0
M  V30 9394 C 856.651 -3.76004 -2.28712 0
M  V30 9395 H 853.77 -0.691943 -0.253739 0
M  V30 9396 H 856.412 -1.89967 0.0351894 0
M  V30 9397 H 854.562 -3.33921 -1.98567 0
M  V30 9398 H 856.234 -4.6034 0.297433 0
M  V30 9399 H 854.477 -4.32394 0.348926 0
M  V30 9400 H 855.148 -5.45762 -0.827508 0
M  V30 9401 H 857.624 -3.77089 -1.75906 0
M  V30 9402 H 856.5 -4.77032 -2.71535 0
M  V30 9403 H 856.761 -3.09129 -3.16056 0
M  V30 9404 N 855.82 0.285905 -1.54985 0
M  V30 9405 C 856.752 1.37505 -1.83371 0
M  V30 9406 C 857.765 1.46138 -0.717454 0
M  V30 9407 O 858.954 1.48186 -0.995142 0
M  V30 9408 C 856.054 2.7575 -1.97016 0
M  V30 9409 C 855.227 2.89866 -3.27561 0
M  V30 9410 C 854.286 4.08704 -3.31433 0
M  V30 9411 O 853.312 4.00073 -4.04883 0
M  V30 9412 N 854.514 5.20062 -2.57907 0
M  V30 9413 H 857.279 1.13505 -2.77375 0
M  V30 9414 H 854.84 0.476006 -1.54744 0
M  V30 9415 H 856.832 3.5352 -1.96991 0
M  V30 9416 H 855.402 2.9263 -1.09938 0
M  V30 9417 H 854.622 1.99085 -3.40234 0
M  V30 9418 H 855.91 2.96219 -4.13681 0
M  V30 9419 H 855.308 5.29958 -1.97891 0
M  V30 9420 H 853.865 5.96111 -2.63619 0
M  V30 9421 N 857.298 1.47698 0.54982 0
M  V30 9422 C 858.526 1.5833 1.33188 0
M  V30 9423 C 858.941 0.236193 1.87317 0
M  V30 9424 O 858.298 -0.77167 1.65383 0
M  V30 9425 C 858.349 2.61438 2.49664 0
M  V30 9426 O 858.07 3.9092 1.97771 0
M  V30 9427 C 859.571 2.82324 3.41772 0
M  V30 9428 H 856.791 0.53443 0.405741 0
M  V30 9429 H 859.335 1.93375 0.665309 0
M  V30 9430 H 857.49 2.29307 3.12245 0
M  V30 9431 H 857.904 4.47323 2.73866 0
M  V30 9432 H 859.378 3.58316 4.19897 0
M  V30 9433 H 859.855 1.90416 3.95776 0
M  V30 9434 H 860.461 3.15682 2.85 0
M  V30 9435 N 858.776 -0.797141 1.35954 0
M  V30 9436 C 860.006 -1.5835 1.32698 0
M  V30 9437 C 860.414 -1.88959 -0.0955298 0
M  V30 9438 O 859.757 -1.49987 -1.06064 0
M  V30 9439 C 859.819 -2.93529 2.0756 0
M  V30 9440 C 859.483 -2.85688 3.56695 0
M  V30 9441 C 860.48 -2.58467 4.51099 0
M  V30 9442 C 858.165 -3.04508 3.99475 0
M  V30 9443 C 860.159 -2.50157 5.8626 0
M  V30 9444 C 857.846 -2.9582 5.34728 0
M  V30 9445 C 858.844 -2.68681 6.27933 0
M  V30 9446 O 858.532 -2.59973 7.60703 0
M  V30 9447 H 858.264 -0.49807 0.457059 0
M  V30 9448 H 860.818 -0.997889 1.79531 0
M  V30 9449 H 859.048 -3.54111 1.55378 0
M  V30 9450 H 860.737 -3.54744 1.9726 0
M  V30 9451 H 861.503 -2.43638 4.19363 0
M  V30 9452 H 857.382 -3.24641 3.27306 0
M  V30 9453 H 860.926 -2.28894 6.58979 0
M  V30 9454 H 856.823 -3.10211 5.66074 0
M  V30 9455 H 857.591 -2.75511 7.70737 0
M  V30 9456 N 860.254 -1.20106 -1.0204 0
M  V30 9457 C 861.204 -0.914145 -2.08872 0
M  V30 9458 C 862.188 0.124503 -1.60418 0
M  V30 9459 O 863.38 -0.0823521 -1.76808 0
M  V30 9460 C 860.509 -0.463897 -3.40151 0
M  V30 9461 C 859.595 -1.53576 -3.95317 0
M  V30 9462 N 859.986 -2.75726 -4.24038 0
M  V30 9463 C 858.284 -1.40103 -4.23423 0
M  V30 9464 C 858.985 -3.44838 -4.68468 0
M  V30 9465 N 857.961 -2.72245 -4.70514 0
M  V30 9466 H 861.763 -1.8424 -2.28982 0
M  V30 9467 H 859.277 -1.0945 -1.19977 0
M  V30 9468 H 861.274 -0.239766 -4.1621 0
M  V30 9469 H 859.934 0.457779 -3.21457 0
M  V30 9470 H 860.945 -3.12412 -4.13061 0
M  V30 9471 H 857.622 -0.543472 -4.13948 0
M  V30 9472 H 859.012 -4.49342 -4.99541 0
M  V30 9473 N 861.732 1.21287 -1.00634 0
M  V30 9474 C 862.978 1.90671 -0.690822 0
M  V30 9475 C 863.311 1.77996 0.776592 0
M  V30 9476 O 862.586 1.15748 1.5631 0
M  V30 9477 C 862.869 3.42426 -1.11428 0
M  V30 9478 C 862.722 3.64086 -2.64124 0
M  V30 9479 C 864.041 4.34851 -0.677686 0
M  V30 9480 H 861.16 0.692419 -0.252439 0
M  V30 9481 H 863.802 1.42893 -1.25226 0
M  V30 9482 H 861.952 3.83249 -0.636586 0
M  V30 9483 H 863.624 3.32582 -3.19667 0
M  V30 9484 H 861.867 3.07906 -3.05576 0
M  V30 9485 H 862.538 4.7042 -2.88806 0
M  V30 9486 H 865.014 4.01619 -1.0882 0
M  V30 9487 H 863.89 5.39675 -1.00213 0
M  V30 9488 H 864.151 4.4009 0.421125 0
M  V30 9489 N 863.21 0.781244 1.36873 0
M  V30 9490 C 864.158 0.161889 2.32036 0
M  V30 9491 C 865.152 -0.674225 1.55405 0
M  V30 9492 O 866.358 -0.570223 1.70729 0
M  V30 9493 H 862.733 0.0335702 0.75125 0
M  V30 9494 H 864.704 0.980078 2.81846 0
M  V30 9495 C 863.453 -0.695352 3.40676 0
M  V30 9496 H 862.776 -0.0613425 3.99753 0
M  V30 9497 H 864.216 -1.09553 4.09602 0
M  V30 9498 C 862.675 -1.85008 2.81556 0
M  V30 9499 O 863.205 -2.94616 2.73065 0
M  V30 9500 N 861.411 -1.65364 2.38962 0
M  V30 9501 H 860.958 -0.762106 2.46068 0
M  V30 9502 H 860.916 -2.42789 1.99752 0
M  V30 9503 N 864.689 -1.48329 0.532571 0
M  V30 9504 C 865.622 -2.26524 -0.2761 0
M  V30 9505 C 866.6 -1.32498 -0.942496 0
M  V30 9506 O 867.784 -1.61844 -0.966376 0
M  V30 9507 C 864.911 -3.08808 -1.39124 0
M  V30 9508 C 863.957 -4.18227 -0.835984 0
M  V30 9509 S 864.79 -5.34669 0.298186 0
M  V30 9510 C 865.946 -6.20514 -0.81937 0
M  V30 9511 H 866.179 -2.94764 0.387502 0
M  V30 9512 H 863.712 -1.51081 0.318407 0
M  V30 9513 H 865.67 -3.56792 -2.03002 0
M  V30 9514 H 864.331 -2.39976 -2.02658 0
M  V30 9515 H 863.524 -4.75435 -1.67264 0
M  V30 9516 H 863.126 -3.72996 -0.27385 0
M  V30 9517 H 865.418 -6.55371 -1.7174 0
M  V30 9518 H 866.361 -7.07525 -0.285199 0
M  V30 9519 H 866.769 -5.5366 -1.10094 0
M  V30 9520 N 866.167 -0.267825 -1.55308 0
M  V30 9521 C 867.13 0.60965 -2.20943 0
M  V30 9522 C 868.13 1.0869 -1.18504 0
M  V30 9523 O 869.32 0.988248 -1.43455 0
M  V30 9524 C 866.452 1.84027 -2.86961 0
M  V30 9525 H 867.645 0.0366806 -2.99878 0
M  V30 9526 H 865.198 -0.0183941 -1.56289 0
M  V30 9527 H 865.933 2.45394 -2.1202 0
M  V30 9528 H 865.718 1.50605 -3.62023 0
M  V30 9529 H 867.208 2.46442 -3.37129 0
M  V30 9530 N 867.645 1.57599 0.00500368 0
M  V30 9531 C 868.893 1.89973 0.68953 0
M  V30 9532 C 869.214 0.868531 1.7459 0
M  V30 9533 O 868.484 -0.0947367 1.95671 0
M  V30 9534 H 867.064 0.701153 0.25767 0
M  V30 9535 H 869.726 1.94869 -0.0347392 0
M  V30 9536 H 868.822 2.89584 1.16394 0
M  V30 9537 N 869.123 -0.277682 1.55134 0
M  V30 9538 C 870.351 -1.02826 1.7954 0
M  V30 9539 C 870.766 -1.80105 0.566373 0
M  V30 9540 O 870.123 -1.76491 -0.464448 0
M  V30 9541 C 870.174 -1.99053 3.01762 0
M  V30 9542 O 869.895 -1.24906 4.19917 0
M  V30 9543 C 871.396 -2.85961 3.38735 0
M  V30 9544 H 868.616 -0.303958 0.598206 0
M  V30 9545 H 871.16 -0.309884 2.02138 0
M  V30 9546 H 869.315 -2.66359 2.81303 0
M  V30 9547 H 869.729 -1.89725 4.88983 0
M  V30 9548 H 871.203 -3.49286 4.27438 0
M  V30 9549 H 871.68 -3.55486 2.57928 0
M  V30 9550 H 872.286 -2.24152 3.61436 0
M  V30 9551 N 870.601 -1.47988 -0.541979 0
M  V30 9552 C 871.549 -1.62044 -1.66867 0
M  V30 9553 C 872.543 -0.487217 -1.62242 0
M  V30 9554 O 873.749 -0.66554 -1.67244 0
M  V30 9555 H 870.124 -0.51024 -0.552412 0
M  V30 9556 H 872.095 -2.56695 -1.52153 0
M  V30 9557 C 870.844 -1.66615 -3.0518 0
M  V30 9558 H 870.167 -2.5317 -3.09427 0
M  V30 9559 H 871.607 -1.80496 -3.83663 0
M  V30 9560 C 870.066 -0.402421 -3.34488 0
M  V30 9561 O 870.596 0.48992 -3.98701 0
M  V30 9562 N 868.802 -0.277778 -2.89269 0
M  V30 9563 H 868.349 -1.00488 -2.37192 0
M  V30 9564 H 868.307 0.566784 -3.09249 0
M  V30 9565 N 872.079 0.78992 -1.36375 0
M  V30 9566 C 873.49 1.36506 -1.2737 0
M  V30 9567 C 873.841 1.96008 0.086711 0
M  V30 9568 O 872.966 1.92521 0.988159 0
M  V30 9569 C 873.561 2.48175 -2.30639 0
M  V30 9570 C 872.12 3.01506 -2.25325 0
M  V30 9571 C 871.267 1.74581 -2.15445 0
M  V30 9572 H 874.218 0.591606 -1.47261 0
M  V30 9573 H 874.239 3.27179 -1.94253 0
M  V30 9574 H 873.751 2.04838 -3.2964 0
M  V30 9575 H 871.852 3.49265 -1.29788 0
M  V30 9576 H 871.965 3.58355 -3.17992 0
M  V30 9577 H 870.329 1.96794 -1.61692 0
M  V30 9578 H 871.112 1.33373 -3.16333 0
M  V30 9579 N 873.557 1.20646 1.01402 0
M  V30 9580 C 874.787 1.04238 1.78376 0
M  V30 9581 C 875.195 -0.411327 1.84675 0
M  V30 9582 O 874.538 -1.29734 1.30057 0
M  V30 9583 C 874.6 1.55349 3.24202 0
M  V30 9584 C 874.264 3.03684 3.41504 0
M  V30 9585 C 875.261 4.01318 3.30514 0
M  V30 9586 C 872.946 3.42698 3.67237 0
M  V30 9587 C 874.94 5.35956 3.45007 0
M  V30 9588 C 872.627 4.77491 3.81373 0
M  V30 9589 C 873.625 5.73929 3.70263 0
M  V30 9590 O 873.313 7.06277 3.83963 0
M  V30 9591 H 873.045 0.366978 0.567718 0
M  V30 9592 H 875.599 1.60235 1.28506 0
M  V30 9593 H 873.829 0.93739 3.75166 0
M  V30 9594 H 875.518 1.34921 3.8282 0
M  V30 9595 H 876.284 3.72522 3.10568 0
M  V30 9596 H 872.163 2.68175 3.74971 0
M  V30 9597 H 875.707 6.11212 3.36252 0
M  V30 9598 H 871.604 5.05977 4.00821 0
M  V30 9599 H 872.372 7.13561 4.00965 0
M  V30 9600 N 875.035 -1.20752 1.01276 0
M  V30 9601 C 876.263 -1.94006 0.718976 0
M  V30 9602 C 876.678 -1.74544 -0.719711 0
M  V30 9603 O 876.035 -1.05697 -1.48776 0
M  V30 9604 C 876.086 -3.46208 1.04031 0
M  V30 9605 O 875.807 -3.65031 2.42248 0
M  V30 9606 C 877.308 -4.36614 0.767032 0
M  V30 9607 H 874.528 -0.616743 0.264327 0
M  V30 9608 H 877.072 -1.53352 1.3529 0
M  V30 9609 H 875.227 -3.84756 0.451852 0
M  V30 9610 H 875.641 -4.59054 2.53712 0
M  V30 9611 H 877.115 -5.42076 1.04198 0
M  V30 9612 H 877.592 -4.38182 -0.298851 0
M  V30 9613 H 878.198 -4.03723 1.33746 0
M  V30 9614 N 876.513 -0.788492 -1.36457 0
M  V30 9615 C 877.741 -0.372365 -2.03522 0
M  V30 9616 C 878.156 1.01093 -1.59454 0
M  V30 9617 O 877.513 1.64824 -0.783535 0
M  V30 9618 C 877.564 -0.425435 -3.58988 0
M  V30 9619 O 877.285 -1.75418 -4.01448 0
M  V30 9620 C 878.786 0.000180167 -4.433 0
M  V30 9621 H 876.006 -0.1536 -0.653183 0
M  V30 9622 H 878.55 -1.06708 -1.74452 0
M  V30 9623 H 876.705 0.220856 -3.8677 0
M  V30 9624 H 877.119 -1.70437 -4.96036 0
M  V30 9625 H 878.593 -0.0880919 -5.5193 0
M  V30 9626 H 879.07 1.05269 -4.26398 0
M  V30 9627 H 879.676 -0.618563 -4.20778 0
M  V30 9628 N 877.991 1.48044 -0.54043 0
M  V30 9629 C 879.24 2.01698 -0.00809961 0
M  V30 9630 C 879.553 1.42184 1.34325 0
M  V30 9631 O 880.759 1.87398 1.96454 0
M  V30 9632 C 879.215 3.59882 0.035933 0
M  V30 9633 C 878.823 4.28384 -1.31115 0
M  V30 9634 C 880.567 4.21346 0.51654 0
M  V30 9635 C 878.474 5.78529 -1.22714 0
M  V30 9636 H 877.404 0.754 0.000742174 0
M  V30 9637 H 880.055 1.70204 -0.685775 0
M  V30 9638 H 878.437 3.88264 0.778906 0
M  V30 9639 H 879.611 4.11663 -2.07051 0
M  V30 9640 H 877.926 3.78837 -1.72834 0
M  V30 9641 H 880.523 5.31351 0.597529 0
M  V30 9642 H 880.866 3.87373 1.52473 0
M  V30 9643 H 881.399 3.97432 -0.171064 0
M  V30 9644 H 878.138 6.17093 -2.21081 0
M  V30 9645 H 877.658 5.97634 -0.50931 0
M  V30 9646 H 879.337 6.40395 -0.92216 0
M  V30 9647 N 879.47 0.276058 1.55163 0
M  V30 9648 C 880.698 -0.343772 2.04024 0
M  V30 9649 C 881.113 -1.49397 1.15438 0
M  V30 9650 O 880.47 -1.81662 0.174692 0
M  V30 9651 C 880.521 -0.823885 3.51986 0
M  V30 9652 O 880.242 0.280507 4.37201 0
M  V30 9653 C 881.743 -1.51143 4.16738 0
M  V30 9654 H 878.963 -0.07828 0.666418 0
M  V30 9655 H 881.507 0.408427 2.0038 0
M  V30 9656 H 879.662 -1.52617 3.56071 0
M  V30 9657 H 880.076 -0.0887831 5.24425 0
M  V30 9658 H 881.55 -1.79878 5.2187 0
M  V30 9659 H 882.027 -2.44327 3.64967 0
M  V30 9660 H 882.633 -0.852975 4.16659 0
M  V30 9661 N 880.948 -1.576 0.00335426 0
M  V30 9662 C 882.359 -1.7875 -0.539008 0
M  V30 9663 C 882.71 -0.911097 -1.73763 0
M  V30 9664 O 881.835 -0.114476 -2.16097 0
M  V30 9665 C 882.43 -3.24177 -0.984611 0
M  V30 9666 C 880.989 -3.46412 -1.47226 0
M  V30 9667 C 880.136 -2.74024 -0.425004 0
M  V30 9668 H 883.087 -1.57032 0.229511 0
M  V30 9669 H 883.108 -3.32474 -1.85044 0
M  V30 9670 H 882.62 -3.87938 -0.112035 0
M  V30 9671 H 880.721 -2.8787 -2.36562 0
M  V30 9672 H 880.834 -4.55098 -1.49741 0
M  V30 9673 H 879.198 -2.38741 -0.887394 0
M  V30 9674 H 879.981 -3.40486 0.438662 0
M  V30 9675 N 882.426 0.269451 -1.5528 0
M  V30 9676 C 883.358 1.35553 -1.84819 0
M  V30 9677 C 884.371 1.45369 -0.732914 0
M  V30 9678 O 885.56 1.47122 -1.0108 0
M  V30 9679 C 882.66 2.73645 -1.9993 0
M  V30 9680 C 881.833 2.86376 -3.30617 0
M  V30 9681 C 880.892 4.05165 -3.35749 0
M  V30 9682 O 879.918 3.95756 -4.09104 0
M  V30 9683 N 881.12 5.17297 -2.63408 0
M  V30 9684 H 883.885 1.10557 -2.78563 0
M  V30 9685 H 881.446 0.459566 -1.5524 0
M  V30 9686 H 883.438 3.51411 -2.00729 0
M  V30 9687 H 882.008 2.91448 -1.13035 0
M  V30 9688 H 881.228 1.95465 -3.42326 0
M  V30 9689 H 882.516 2.91815 -4.16799 0
M  V30 9690 H 881.914 5.2783 -2.03501 0
M  V30 9691 H 880.471 5.93281 -2.69927 0
M  V30 9692 N 883.904 1.48273 0.534124 0
M  V30 9693 C 884.814 1.65162 1.66609 0
M  V30 9694 C 885.83 0.534177 1.65598 0
M  V30 9695 O 887.006 0.804715 1.84625 0
M  V30 9696 C 884.071 1.68354 3.03081 0
M  V30 9697 C 883.132 2.91696 3.1498 0
M  V30 9698 C 882.365 2.94725 4.44941 0
M  V30 9699 O 882.588 2.06285 5.31792 0
M  V30 9700 O 881.522 3.8685 4.61119 0
M  V30 9701 H 885.348 2.60991 1.55298 0
M  V30 9702 H 882.933 1.31626 0.706749 0
M  V30 9703 H 884.815 1.72998 3.84252 0
M  V30 9704 H 883.49 0.756978 3.14725 0
M  V30 9705 H 882.397 2.92586 2.33119 0
M  V30 9706 H 883.73 3.83722 3.0825 0
M  V30 9707 N 885.382 -0.782676 1.36792 0
M  V30 9708 C 886.631 -1.53605 1.30723 0
M  V30 9709 C 886.944 -1.95294 -0.109296 0
M  V30 9710 O 888.15 -2.69921 -0.292398 0
M  V30 9711 C 886.606 -2.77321 2.29393 0
M  V30 9712 C 886.214 -2.42774 3.76517 0
M  V30 9713 C 887.958 -3.55289 2.32314 0
M  V30 9714 C 885.865 -3.62926 4.66947 0
M  V30 9715 H 884.795 -0.576646 0.485794 0
M  V30 9716 H 887.446 -0.858255 1.62192 0
M  V30 9717 H 885.828 -3.46934 1.90927 0
M  V30 9718 H 887.002 -1.81014 4.23758 0
M  V30 9719 H 885.317 -1.78002 3.76436 0
M  V30 9720 H 887.914 -4.44573 2.97083 0
M  V30 9721 H 888.257 -3.94361 1.3336 0
M  V30 9722 H 888.79 -2.92662 2.69432 0
M  V30 9723 H 885.529 -3.28944 5.66989 0
M  V30 9724 H 885.049 -4.23828 4.24418 0
M  V30 9725 H 886.728 -4.29873 4.83548 0
M  V30 9726 N 886.86 -1.21182 -1.00761 0
M  V30 9727 C 887.808 -0.965728 -2.11604 0
M  V30 9728 C 888.802 0.0861028 -1.69181 0
M  V30 9729 O 890.008 -0.0650558 -1.79882 0
M  V30 9730 H 886.383 -0.295023 -0.691712 0
M  V30 9731 H 888.354 -1.90667 -2.2954 0
M  V30 9732 C 887.103 -0.544164 -3.43415 0
M  V30 9733 H 886.426 -1.34515 -3.76491 0
M  V30 9734 H 887.866 -0.411268 -4.22001 0
M  V30 9735 C 886.325 0.744583 -3.28569 0
M  V30 9736 O 886.855 1.80078 -3.59075 0
M  V30 9737 N 885.061 0.710083 -2.81791 0
M  V30 9738 H 884.608 -0.14971 -2.57165 0
M  V30 9739 H 884.566 1.57268 -2.72239 0
M  V30 9740 N 888.338 1.20213 -1.01915 0
M  V30 9741 C 889.586 1.89272 -0.708552 0
M  V30 9742 C 889.907 1.79394 0.76438 0
M  V30 9743 O 889.177 1.198 1.54999 0
M  V30 9744 H 887.757 0.700628 -0.259094 0
M  V30 9745 H 890.419 1.45985 -1.29129 0
M  V30 9746 H 889.515 2.95841 -0.994215 0
M  V30 9747 N 889.816 0.795718 1.36037 0
M  V30 9748 C 890.763 0.196548 2.29962 0
M  V30 9749 C 891.733 -0.663213 1.52285 0
M  V30 9750 O 892.918 -0.610574 1.80767 0
M  V30 9751 C 890.058 -0.657639 3.38776 0
M  V30 9752 C 889.171 0.221358 4.31433 0
M  V30 9753 C 888.306 -0.6398 5.27333 0
M  V30 9754 C 887.345 0.240265 6.11628 0
M  V30 9755 N 886.482 -0.580237 6.99698 0
M  V30 9756 H 891.322 1.00295 2.80615 0
M  V30 9757 H 888.859 0.506147 1.38118 0
M  V30 9758 H 890.817 -1.16793 4.00519 0
M  V30 9759 H 889.447 -1.42941 2.89426 0
M  V30 9760 H 888.499 0.84967 3.70789 0
M  V30 9761 H 889.811 0.899195 4.90628 0
M  V30 9762 H 888.965 -1.21566 5.94396 0
M  V30 9763 H 887.704 -1.35124 4.68607 0
M  V30 9764 H 886.709 0.828474 5.43522 0
M  V30 9765 H 887.934 0.949403 6.72431 0
M  V30 9766 H 885.88 -1.27585 6.43473 0
M  V30 9767 H 885.797 0.0397853 7.5599 0
M  V30 9768 H 887.065 -1.13972 7.71123 0
M  V30 9769 N 891.294 -1.47756 0.548274 0
M  V30 9770 C 892.54 -2.03379 0.0291238 0
M  V30 9771 C 892.895 -1.41603 -1.30255 0
M  V30 9772 O 892.188 -0.559102 -1.83261 0
M  V30 9773 C 892.382 -3.5716 -0.131069 0
M  V30 9774 C 892.211 -4.33846 1.18353 0
M  V30 9775 C 890.981 -4.74087 1.74841 0
M  V30 9776 C 893.179 -4.69535 2.09861 0
M  V30 9777 N 891.161 -5.35382 3.00398 0
M  V30 9778 C 892.532 -5.31039 3.19997 0
M  V30 9779 C 894.587 -4.51464 2.09964 0
M  V30 9780 C 893.29 -5.7638 4.30323 0
M  V30 9781 C 895.316 -4.97798 3.19297 0
M  V30 9782 C 894.678 -5.59343 4.28152 0
M  V30 9783 H 890.777 -0.780229 0.0526037 0
M  V30 9784 H 893.361 -1.80351 0.733593 0
M  V30 9785 H 891.532 -3.79974 -0.804647 0
M  V30 9786 H 893.264 -3.99422 -0.651476 0
M  V30 9787 H 890.019 -4.55764 1.2875 0
M  V30 9788 H 890.443 -5.7058 3.64372 0
M  V30 9789 H 895.085 -4.03246 1.27093 0
M  V30 9790 H 892.803 -6.23594 5.13961 0
M  V30 9791 H 896.389 -4.85593 3.20454 0
M  V30 9792 H 895.269 -5.94544 5.11358 0
M  V30 9793 N 892.772 -0.284283 -1.55015 0
M  V30 9794 C 894.049 0.382125 -1.91831 0
M  V30 9795 C 894.429 1.73007 -1.20962 0
M  V30 9796 O 893.777 2.25962 -0.339594 0
M  V30 9797 C 893.987 0.513341 -3.45204 0
M  V30 9798 C 895.335 0.791989 -4.17148 0
M  V30 9799 O 896.359 0.597799 -3.51148 0
M  V30 9800 O 895.218 1.16394 -5.33961 0
M  V30 9801 H 892.312 0.210707 -0.799707 0
M  V30 9802 H 894.858 -0.331111 -1.66438 0
M  V30 9803 H 893.63 -0.434911 -3.88876 0
M  V30 9804 H 893.253 1.27569 -3.76579 0
M  V30 9805 N 894.251 1.57596 -0.0117121 0
M  V30 9806 C 895.201 2.05641 0.98467 0
M  V30 9807 C 896.185 0.953422 1.2961 0
M  V30 9808 O 897.377 1.21712 1.28512 0
M  V30 9809 C 894.506 2.57285 2.27286 0
M  V30 9810 C 893.592 3.74483 1.99057 0
M  V30 9811 N 893.983 4.85741 1.41029 0
M  V30 9812 C 892.281 3.82637 2.2914 0
M  V30 9813 C 892.982 5.67094 1.29536 0
M  V30 9814 N 891.958 5.13459 1.78497 0
M  V30 9815 H 895.76 2.89069 0.530702 0
M  V30 9816 H 893.274 1.6124 0.193717 0
M  V30 9817 H 895.271 2.89988 2.99521 0
M  V30 9818 H 893.931 1.75281 2.73325 0
M  V30 9819 H 894.942 5.06352 1.08756 0
M  V30 9820 H 891.619 3.11509 2.77972 0
M  V30 9821 H 893.009 6.66525 0.848144 0
M  V30 9822 N 895.729 -0.261212 1.5542 0
M  V30 9823 C 896.975 -0.992699 1.76843 0
M  V30 9824 C 897.308 -1.8551 0.574428 0
M  V30 9825 O 896.583 -1.89739 -0.427713 0
M  V30 9826 C 896.866 -1.86532 3.08022 0
M  V30 9827 C 896.719 -1.03206 4.378 0
M  V30 9828 C 898.038 -2.85036 3.35324 0
M  V30 9829 H 895.157 -0.359473 0.643388 0
M  V30 9830 H 897.799 -0.264214 1.88154 0
M  V30 9831 H 895.949 -2.48644 2.9851 0
M  V30 9832 H 897.621 -0.430743 4.59285 0
M  V30 9833 H 895.864 -0.335911 4.32497 0
M  V30 9834 H 896.535 -1.6761 5.25938 0
M  V30 9835 H 899.011 -2.3306 3.44706 0
M  V30 9836 H 897.887 -3.43226 4.28354 0
M  V30 9837 H 898.148 -3.60768 2.55537 0
M  V30 9838 N 897.207 -1.48554 -0.526253 0
M  V30 9839 C 898.623 -1.34757 -0.855138 0
M  V30 9840 C 898.823 -0.36142 -1.98232 0
M  V30 9841 O 897.879 0.216026 -2.51574 0
M  V30 9842 C 899.192 -2.74877 -1.21915 0
M  V30 9843 C 900.74 -2.83393 -1.32882 0
M  V30 9844 C 901.215 -4.24223 -1.72624 0
M  V30 9845 N 902.706 -4.26913 -1.7972 0
M  V30 9846 C 903.441 -5.32824 -2.11863 0
M  V30 9847 N 902.937 -6.49008 -2.42405 0
M  V30 9848 N 904.73 -5.20221 -2.12901 0
M  V30 9849 H 896.881 -2.11284 0.217422 0
M  V30 9850 H 899.144 -0.947367 0.0346362 0
M  V30 9851 H 898.85 -3.48619 -0.464486 0
M  V30 9852 H 898.724 -3.0864 -2.16844 0
M  V30 9853 H 901.111 -2.09904 -2.07424 0
M  V30 9854 H 901.192 -2.53245 -0.360638 0
M  V30 9855 H 900.836 -4.98229 -0.986411 0
M  V30 9856 H 900.766 -4.51817 -2.70498 0
M  V30 9857 H 903.257 -3.4311 -1.58379 0
M  V30 9858 H 903.57 -7.25561 -2.66048 0
M  V30 9859 H 901.915 -6.52277 -2.39917 0
M  V30 9860 H 905.106 -4.28469 -1.885 0
M  V30 9861 H 905.279 -6.02861 -2.37619 0
M  V30 9862 N 898.685 0.775411 -1.37205 0
M  V30 9863 C 899.617 1.89761 -1.28544 0
M  V30 9864 C 900.63 1.61542 -0.201996 0
M  V30 9865 O 901.819 1.72528 -0.457848 0
M  V30 9866 C 898.919 3.24904 -0.963885 0
M  V30 9867 C 898.092 3.80796 -2.15205 0
M  V30 9868 C 897.151 4.94407 -1.80135 0
M  V30 9869 O 896.177 5.10185 -2.52388 0
M  V30 9870 N 897.379 5.75722 -0.743298 0
M  V30 9871 H 900.144 1.97708 -2.25237 0
M  V30 9872 H 897.705 0.954348 -1.30782 0
M  V30 9873 H 899.697 3.9842 -0.710182 0
M  V30 9874 H 898.267 3.12483 -0.085632 0
M  V30 9875 H 897.487 2.99101 -2.56773 0
M  V30 9876 H 898.775 4.1487 -2.94552 0
M  V30 9877 H 898.173 5.65518 -0.143655 0
M  V30 9878 H 896.73 6.4948 -0.549446 0
M  V30 9879 N 900.163 1.21714 1.00117 0
M  V30 9880 C 901.093 1.00397 2.10815 0
M  V30 9881 C 902.074 -0.0723502 1.69946 0
M  V30 9882 O 903.259 0.0882398 1.93999 0
M  V30 9883 C 900.389 0.572001 3.42557 0
M  V30 9884 C 899.343 1.59331 3.97237 0
M  V30 9885 C 898.669 1.01746 5.2493 0
M  V30 9886 C 899.969 2.98117 4.28863 0
M  V30 9887 H 901.663 1.92983 2.28906 0
M  V30 9888 H 899.209 0.929273 1.10002 0
M  V30 9889 H 901.162 0.410018 4.19401 0
M  V30 9890 H 899.886 -0.38951 3.24269 0
M  V30 9891 H 898.545 1.74293 3.22518 0
M  V30 9892 H 898.193 0.0475491 5.02978 0
M  V30 9893 H 897.893 1.69969 5.62481 0
M  V30 9894 H 899.417 0.866881 6.04415 0
M  V30 9895 H 900.831 2.86578 4.96534 0
M  V30 9896 H 899.228 3.63389 4.77565 0
M  V30 9897 H 900.298 3.48674 3.36979 0
M  V30 9898 N 901.641 -1.19671 1.02551 0
M  V30 9899 C 902.887 -1.89548 0.721069 0
M  V30 9900 C 903.22 -1.79209 -0.748176 0
M  V30 9901 O 902.495 -1.1822 -1.54448 0
M  V30 9902 C 902.778 -3.4061 1.16861 0
M  V30 9903 C 902.631 -3.59838 2.69883 0
M  V30 9904 C 903.95 -4.33718 0.746782 0
M  V30 9905 H 901.069 -0.688315 0.263422 0
M  V30 9906 H 903.711 -1.40883 1.27483 0
M  V30 9907 H 901.861 -3.82188 0.697477 0
M  V30 9908 H 903.533 -3.27454 3.24917 0
M  V30 9909 H 901.776 -3.03005 3.10435 0
M  V30 9910 H 902.447 -4.65766 2.96253 0
M  V30 9911 H 904.923 -3.99837 1.15195 0
M  V30 9912 H 903.799 -5.38012 1.08786 0
M  V30 9913 H 904.06 -4.40704 -0.351057 0
M  V30 9914 N 903.119 -0.802921 -1.35613 0
M  V30 9915 C 904.53 -0.443004 -1.81368 0
M  V30 9916 C 904.881 1.03459 -1.66706 0
M  V30 9917 O 904.006 1.80372 -1.19561 0
M  V30 9918 C 904.601 -0.797324 -3.29284 0
M  V30 9919 C 903.16 -0.490055 -3.73196 0
M  V30 9920 C 902.307 -1.02487 -2.57666 0
M  V30 9921 H 905.258 -0.994888 -1.23643 0
M  V30 9922 H 905.279 -0.0934638 -3.80385 0
M  V30 9923 H 904.791 -1.87278 -3.39924 0
M  V30 9924 H 902.892 0.576818 -3.68108 0
M  V30 9925 H 903.005 -1.02012 -4.68114 0
M  V30 9926 H 901.369 -0.44738 -2.5074 0
M  V30 9927 H 902.152 -2.10636 -2.71085 0
M  V30 9928 N 904.597 1.47463 -0.556102 0
M  V30 9929 C 906.013 1.58134 -0.21579 0
M  V30 9930 C 906.213 1.55486 1.28166 0
M  V30 9931 O 905.269 1.45768 2.06174 0
M  V30 9932 C 906.582 2.88686 -0.841464 0
M  V30 9933 C 908.13 3.02268 -0.812591 0
M  V30 9934 C 908.605 4.35518 -1.41731 0
M  V30 9935 N 910.096 4.42151 -1.38045 0
M  V30 9936 C 910.831 5.43817 -1.81799 0
M  V30 9937 N 910.327 6.52299 -2.33404 0
M  V30 9938 N 912.12 5.34855 -1.72877 0
M  V30 9939 H 904.271 1.47428 -1.52901 0
M  V30 9940 H 906.534 0.701586 -0.637559 0
M  V30 9941 H 906.24 2.96358 -1.8938 0
M  V30 9942 H 906.114 3.7572 -0.333846 0
M  V30 9943 H 908.501 2.94194 0.231056 0
M  V30 9944 H 908.582 2.16779 -1.35796 0
M  V30 9945 H 908.226 4.44348 -2.46002 0
M  V30 9946 H 908.156 5.19737 -0.847402 0
M  V30 9947 H 910.647 3.64348 -1.00296 0
M  V30 9948 H 910.96 7.26047 -2.64717 0
M  V30 9949 H 909.305 6.53192 -2.37414 0
M  V30 9950 H 912.496 4.49004 -1.32338 0
M  V30 9951 H 912.669 6.13949 -2.07294 0
M  V30 9952 N 906.075 0.2925 1.54862 0
M  V30 9953 C 907.491 -0.0611461 1.59483 0
M  V30 9954 C 907.691 -1.53141 1.30958 0
M  V30 9955 O 906.747 -2.28291 1.07887 0
M  V30 9956 C 908.06 0.329143 2.98893 0
M  V30 9957 C 909.608 0.2772 3.1177 0
M  V30 9958 C 910.083 0.642185 4.53475 0
M  V30 9959 N 911.574 0.594396 4.5937 0
M  V30 9960 C 912.309 0.849385 5.67074 0
M  V30 9961 N 911.805 1.1699 6.82851 0
M  V30 9962 N 913.598 0.777016 5.56704 0
M  V30 9963 H 905.749 1.25079 1.71665 0
M  V30 9964 H 908.012 0.506516 0.80134 0
M  V30 9965 H 907.718 1.35233 3.24661 0
M  V30 9966 H 907.592 -0.321442 3.75828 0
M  V30 9967 H 909.979 -0.736725 2.85756 0
M  V30 9968 H 910.06 0.962289 2.3701 0
M  V30 9969 H 909.704 1.65388 4.80218 0
M  V30 9970 H 909.634 -0.0648831 5.2656 0
M  V30 9971 H 912.125 0.357256 3.76208 0
M  V30 9972 H 912.438 1.35067 7.60905 0
M  V30 9973 H 910.783 1.20785 6.84424 0
M  V30 9974 H 913.974 0.526333 4.65132 0
M  V30 9975 H 914.147 0.979113 6.4056 0
M  V30 9976 N 907.553 -1.57587 0.0200696 0
M  V30 9977 C 908.83 -1.82696 -0.698677 0
M  V30 9978 C 909.21 -0.902082 -1.90855 0
M  V30 9979 O 908.558 0.0444834 -2.28457 0
M  V30 9980 C 908.768 -3.31691 -1.08546 0
M  V30 9981 C 910.116 -3.97938 -1.4809 0
M  V30 9982 O 911.14 -3.36133 -1.17869 0
M  V30 9983 O 909.999 -5.06851 -2.04364 0
M  V30 9984 H 907.093 -0.752997 -0.341942 0
M  V30 9985 H 909.639 -1.69635 0.04706 0
M  V30 9986 H 908.411 -3.90659 -0.223956 0
M  V30 9987 H 908.034 -3.49825 -1.88965 0
M  V30 9988 N 909.032 0.252966 -1.55557 0
M  V30 9989 C 909.964 1.33585 -1.86246 0
M  V30 9990 C 910.977 1.44584 -0.748291 0
M  V30 9991 O 912.166 1.46042 -1.02635 0
M  V30 9992 C 909.266 2.71509 -2.02821 0
M  V30 9993 C 908.439 2.82853 -3.33636 0
M  V30 9994 C 907.498 4.01581 -3.40028 0
M  V30 9995 O 906.524 3.91394 -4.13278 0
M  V30 9996 N 907.726 5.14474 -2.6888 0
M  V30 9997 H 910.491 1.07596 -2.7972 0
M  V30 9998 H 908.052 0.443075 -1.55719 0
M  V30 9999 H 910.044 3.49262 -2.04445 0
M  V30 10000 H 908.614 2.90232 -1.1612 0
M  V30 10001 H 907.834 1.91823 -3.4438 0
M  V30 10002 H 909.122 2.87378 -4.19871 0
M  V30 10003 H 908.52 5.25641 -2.09087 0
M  V30 10004 H 907.077 5.90385 -2.76204 0
M  V30 10005 N 910.51 1.48831 0.518367 0
M  V30 10006 C 911.473 1.63721 1.604 0
M  V30 10007 C 912.473 0.509857 1.52503 0
M  V30 10008 O 913.663 0.775922 1.55965 0
M  V30 10009 C 910.795 1.61831 3.00039 0
M  V30 10010 H 911.988 2.60534 1.48533 0
M  V30 10011 H 909.541 1.37602 0.741309 0
M  V30 10012 H 910.276 0.665387 3.17401 0
M  V30 10013 H 910.061 2.43686 3.0718 0
M  V30 10014 H 911.551 1.75467 3.78947 0
M  V30 10015 N 911.988 -0.768124 1.37614 0
M  V30 10016 C 912.918 -1.89537 1.36374 0
M  V30 10017 C 913.899 -1.68513 0.231803 0
M  V30 10018 O 915.084 -1.89318 0.432705 0
M  V30 10019 C 912.214 -3.26871 1.17358 0
M  V30 10020 C 911.168 -3.62466 2.27602 0
M  V30 10021 C 910.494 -4.9838 1.93705 0
M  V30 10022 C 911.794 -3.68841 3.69802 0
M  V30 10023 H 913.488 -1.90832 2.30702 0
M  V30 10024 H 911.034 -0.91672 1.11051 0
M  V30 10025 H 912.987 -4.05371 1.15119 0
M  V30 10026 H 911.711 -3.26018 0.194865 0
M  V30 10027 H 910.37 -2.86276 2.29002 0
M  V30 10028 H 910.018 -4.94071 0.943539 0
M  V30 10029 H 909.718 -5.23165 2.6753 0
M  V30 10030 H 911.242 -5.79276 1.93059 0
M  V30 10031 H 912.656 -4.37485 3.70513 0
M  V30 10032 H 911.053 -4.05126 4.42711 0
M  V30 10033 H 912.123 -2.69415 4.03167 0
M  V30 10034 N 913.466 -1.22244 -0.994698 0
M  V30 10035 C 914.694 -1.07218 -1.76952 0
M  V30 10036 C 915.109 0.377388 -1.8499 0
M  V30 10037 O 914.466 1.26157 -1.31874 0
M  V30 10038 C 914.517 -1.67496 -3.20355 0
M  V30 10039 O 914.238 -3.06782 -3.12756 0
M  V30 10040 C 915.739 -1.57721 -4.14294 0
M  V30 10041 H 912.959 -0.375966 -0.555779 0
M  V30 10042 H 915.503 -1.61799 -1.25065 0
M  V30 10043 H 913.658 -1.16982 -3.69315 0
M  V30 10044 H 914.072 -3.35784 -4.02926 0
M  V30 10045 H 915.546 -2.04623 -5.12673 0
M  V30 10046 H 916.023 -0.533434 -4.35949 0
M  V30 10047 H 916.629 -2.07531 -3.71229 0
M  V30 10048 N 914.944 1.19125 -1.03184 0
M  V30 10049 C 915.854 2.26112 -0.625329 0
M  V30 10050 C 916.87 1.7056 0.344298 0
M  V30 10051 O 918.046 2.0039 0.20144 0
M  V30 10052 C 915.111 3.46697 0.0145169 0
M  V30 10053 C 914.172 4.17419 -1.00299 0
M  V30 10054 C 913.405 5.32247 -0.393581 0
M  V30 10055 O 913.628 5.64724 0.802659 0
M  V30 10056 O 912.562 5.91428 -1.1179 0
M  V30 10057 H 916.388 2.63131 -1.51643 0
M  V30 10058 H 913.973 1.26036 -0.802197 0
M  V30 10059 H 915.855 4.19762 0.371139 0
M  V30 10060 H 914.53 3.11521 0.879581 0
M  V30 10061 H 913.437 3.4646 -1.41125 0
M  V30 10062 H 914.77 4.56573 -1.83852 0
M  V30 10063 N 916.422 0.810101 1.35185 0
M  V30 10064 C 917.332 0.224565 2.33523 0
M  V30 10065 C 918.348 -0.634287 1.62027 0
M  V30 10066 O 919.524 -0.545211 1.9388 0
M  V30 10067 C 916.589 -0.614319 3.41214 0
M  V30 10068 C 915.65 0.265435 4.28479 0
M  V30 10069 C 914.883 -0.533506 5.31027 0
M  V30 10070 O 915.106 -1.7679 5.42311 0
M  V30 10071 O 914.04 0.0774573 6.0185 0
M  V30 10072 H 917.866 1.03815 2.85405 0
M  V30 10073 H 915.451 0.571964 1.38018 0
M  V30 10074 H 917.333 -1.09201 4.07005 0
M  V30 10075 H 916.008 -1.40545 2.91597 0
M  V30 10076 H 914.915 0.790343 3.65656 0
M  V30 10077 H 916.248 1.0206 4.81503 0
M  V30 10078 N 917.9 -1.47166 0.563914 0
M  V30 10079 C 918.85 -2.27116 -0.20055 0
M  V30 10080 C 919.834 -1.34756 -0.879177 0
M  V30 10081 O 921.026 -1.59064 -0.776377 0
M  V30 10082 C 918.155 -3.20676 -1.22565 0
M  V30 10083 C 917.241 -4.20517 -0.550092 0
M  V30 10084 N 917.632 -5.04343 0.383662 0
M  V30 10085 C 915.93 -4.38708 -0.803186 0
M  V30 10086 C 916.631 -5.76491 0.776718 0
M  V30 10087 N 915.607 -5.43444 0.130047 0
M  V30 10088 H 919.409 -2.89312 0.517275 0
M  V30 10089 H 916.923 -1.57787 0.384334 0
M  V30 10090 H 918.92 -3.76643 -1.78733 0
M  V30 10091 H 917.58 -2.60038 -1.94449 0
M  V30 10092 H 918.591 -5.1232 0.758192 0
M  V30 10093 H 915.268 -3.89235 -1.51003 0
M  V30 10094 H 916.658 -6.5391 1.54437 0
M  V30 10095 N 919.378 -0.300708 -1.54705 0
M  V30 10096 C 920.341 0.562648 -2.22187 0
M  V30 10097 C 921.341 1.06152 -1.20782 0
M  V30 10098 O 922.531 0.957596 -1.45519 0
M  V30 10099 C 919.663 1.77899 -2.908 0
M  V30 10100 H 920.856 -0.0269361 -2.99888 0
M  V30 10101 H 918.409 -0.0515412 -1.56215 0
M  V30 10102 H 919.144 2.40841 -2.17177 0
M  V30 10103 H 918.929 1.42892 -3.65136 0
M  V30 10104 H 920.419 2.39236 -3.42281 0
M  V30 10105 N 920.856 1.57574 -0.0284266 0
M  V30 10106 C 922.272 1.56194 0.327958 0
M  V30 10107 C 922.472 1.03397 1.72949 0
M  V30 10108 O 921.528 0.680392 2.4316 0
M  V30 10109 C 922.841 3.00177 0.177196 0
M  V30 10110 C 924.389 3.12 0.250014 0
M  V30 10111 C 924.864 4.57821 0.128049 0
M  V30 10112 N 926.355 4.6283 0.185054 0
M  V30 10113 C 927.09 5.73286 0.114454 0
M  V30 10114 N 926.586 6.928 -0.00719225 0
M  V30 10115 N 928.379 5.61848 0.16839 0
M  V30 10116 H 920.53 1.90224 -0.944921 0
M  V30 10117 H 922.793 0.874987 -0.364832 0
M  V30 10118 H 922.499 3.42753 -0.788224 0
M  V30 10119 H 922.373 3.65101 0.94768 0
M  V30 10120 H 924.76 2.69337 1.20589 0
M  V30 10121 H 924.841 2.49799 -0.550835 0
M  V30 10122 H 924.485 5.01165 -0.824407 0
M  V30 10123 H 924.415 5.18001 0.947753 0
M  V30 10124 H 926.906 3.76867 0.279247 0
M  V30 10125 H 927.219 7.72781 -0.0543903 0
M  V30 10126 H 925.564 6.94987 -0.0419648 0
M  V30 10127 H 928.755 4.67367 0.261821 0
M  V30 10128 H 928.928 6.47907 0.109908 0
M  V30 10129 N 922.334 -0.244713 1.55689 0
M  V30 10130 C 923.266 -1.32595 1.86952 0
M  V30 10131 C 924.279 -1.44185 0.755948 0
M  V30 10132 O 925.468 -1.45496 1.03408 0
M  V30 10133 C 922.568 -2.70429 2.04258 0
M  V30 10134 C 921.741 -2.8108 3.35131 0
M  V30 10135 C 920.8 -3.99773 3.42152 0
M  V30 10136 O 919.826 -3.89197 4.15348 0
M  V30 10137 N 921.028 -5.13041 2.71604 0
M  V30 10138 H 923.793 -1.06111 2.80287 0
M  V30 10139 H 921.354 -0.434811 1.55952 0
M  V30 10140 H 923.346 -3.48173 2.06295 0
M  V30 10141 H 921.916 -2.89612 1.17658 0
M  V30 10142 H 921.136 -1.89994 3.45392 0
M  V30 10143 H 922.424 -2.85147 4.21389 0
M  V30 10144 H 921.822 -5.24525 2.11872 0
M  V30 10145 H 920.379 -5.88912 2.79331 0
M  V30 10146 N 923.813 -1.49104 -0.510467 0
M  V30 10147 C 924.745 -1.61183 -1.6295 0
M  V30 10148 C 925.758 -0.495003 -1.55092 0
M  V30 10149 O 926.947 -0.766671 -1.61197 0
M  V30 10150 C 924.047 -1.54373 -3.01699 0
M  V30 10151 C 923.22 -2.81428 -3.34838 0
M  V30 10152 C 922.279 -2.67802 -4.52956 0
M  V30 10153 O 921.305 -3.41723 -4.55208 0
M  V30 10154 N 922.507 -1.78715 -5.52305 0
M  V30 10155 H 925.272 -2.57693 -1.53018 0
M  V30 10156 H 922.833 -1.46073 -0.698152 0
M  V30 10157 H 924.825 -1.42924 -3.78622 0
M  V30 10158 H 923.395 -0.657597 -3.05605 0
M  V30 10159 H 922.615 -3.07299 -2.46903 0
M  V30 10160 H 923.903 -3.6568 -3.53773 0
M  V30 10161 H 923.301 -1.17897 -5.53278 0
M  V30 10162 H 921.858 -1.73194 -6.28369 0
M  V30 10163 N 925.291 0.760815 -1.38019 0
M  V30 10164 C 926.241 1.86487 -1.31174 0
M  V30 10165 C 927.225 1.59684 -0.197414 0
M  V30 10166 O 928.417 1.71628 -0.432764 0
M  V30 10167 C 925.546 3.24103 -1.13192 0
M  V30 10168 C 924.632 3.5682 -2.29216 0
M  V30 10169 N 925.023 3.60644 -3.5464 0
M  V30 10170 C 923.321 3.87047 -2.2161 0
M  V30 10171 C 924.022 3.90423 -4.31214 0
M  V30 10172 N 922.998 4.06883 -3.60482 0
M  V30 10173 H 926.8 1.87711 -2.26146 0
M  V30 10174 H 924.314 0.957811 -1.31148 0
M  V30 10175 H 926.311 4.03101 -1.06372 0
M  V30 10176 H 924.971 3.24135 -0.191473 0
M  V30 10177 H 925.982 3.42581 -3.88405 0
M  V30 10178 H 922.659 3.94837 -1.35684 0
M  V30 10179 H 924.049 4.00065 -5.39812 0
M  V30 10180 N 926.769 1.22769 0.988202 0
M  V30 10181 C 927.717 0.999271 2.10041 0
M  V30 10182 C 928.711 -0.0591767 1.69297 0
M  V30 10183 O 929.917 0.0936653 1.79756 0
M  V30 10184 H 926.292 0.30599 0.686931 0
M  V30 10185 H 928.263 1.94294 2.26478 0
M  V30 10186 C 927.012 0.59873 3.42506 0
M  V30 10187 H 926.335 1.40487 3.74304 0
M  V30 10188 H 927.775 0.478353 4.21293 0
M  V30 10189 C 926.234 -0.692216 3.29712 0
M  V30 10190 O 926.764 -1.74342 3.61895 0
M  V30 10191 N 924.97 -0.665163 2.82885 0
M  V30 10192 H 924.517 0.190604 2.56894 0
M  V30 10193 H 924.475 -1.52917 2.74706 0
M  V30 10194 N 928.247 -1.18576 1.03814 0
M  V30 10195 C 929.157 -2.25778 0.637311 0
M  V30 10196 C 930.173 -1.7074 -0.335248 0
M  V30 10197 O 931.349 -2.00494 -0.19081 0
M  V30 10198 C 928.414 -3.467 0.00386953 0
M  V30 10199 C 927.475 -4.16881 1.02511 0
M  V30 10200 C 926.708 -5.32031 0.421802 0
M  V30 10201 O 926.931 -5.65142 -0.772699 0
M  V30 10202 O 925.865 -5.90826 1.14925 0
M  V30 10203 H 929.691 -2.62323 1.53037 0
M  V30 10204 H 927.276 -1.25609 0.80887 0
M  V30 10205 H 929.158 -4.19953 -0.348873 0
M  V30 10206 H 927.833 -3.11983 -0.863047 0
M  V30 10207 H 926.74 -3.45707 1.4296 0
M  V30 10208 H 928.073 -4.55592 1.86271 0
M  V30 10209 N 929.725 -0.817259 -1.34754 0
M  V30 10210 C 931.141 -0.502309 -1.51489 0
M  V30 10211 C 931.341 0.974568 -1.76364 0
M  V30 10212 O 930.397 1.75924 -1.81127 0
M  V30 10213 C 931.71 -1.35693 -2.68343 0
M  V30 10214 C 933.258 -1.35347 -2.82224 0
M  V30 10215 C 933.733 -2.19244 -4.02114 0
M  V30 10216 N 935.224 -2.16837 -4.09311 0
M  V30 10217 C 935.959 -2.78505 -5.01221 0
M  V30 10218 N 935.455 -3.4914 -5.98392 0
M  V30 10219 N 937.248 -2.68089 -4.94049 0
M  V30 10220 H 929.399 -1.77359 -1.16866 0
M  V30 10221 H 931.662 -0.755476 -0.572678 0
M  V30 10222 H 931.368 -2.40548 -2.56573 0
M  V30 10223 H 931.242 -1.01764 -3.63213 0
M  V30 10224 H 933.629 -0.312727 -2.93438 0
M  V30 10225 H 933.71 -1.7327 -1.88179 0
M  V30 10226 H 933.354 -3.23365 -3.9166 0
M  V30 10227 H 933.284 -1.78675 -4.95361 0
M  V30 10228 H 935.775 -1.65452 -3.39756 0
M  V30 10229 H 936.088 -3.93455 -6.65141 0
M  V30 10230 H 934.433 -3.53246 -5.98533 0
M  V30 10231 H 937.624 -2.12485 -4.17094 0
M  V30 10232 H 937.797 -3.16436 -5.65484 0
M  V30 10233 N 931.203 1.46865 -0.571711 0
M  V30 10234 C 932.133 2.3298 0.155795 0
M  V30 10235 C 933.114 1.44678 0.894553 0
M  V30 10236 O 934.299 1.73513 0.872176 0
M  V30 10237 C 931.429 3.26745 1.17708 0
M  V30 10238 C 930.383 4.24401 0.553863 0
M  V30 10239 C 929.709 5.07595 1.68083 0
M  V30 10240 C 931.009 5.19884 -0.501827 0
M  V30 10241 H 932.703 2.94056 -0.563176 0
M  V30 10242 H 930.249 1.41402 -0.27228 0
M  V30 10243 H 932.202 3.85838 1.6943 0
M  V30 10244 H 930.926 2.63753 1.92618 0
M  V30 10245 H 929.585 3.66554 0.057815 0
M  V30 10246 H 929.233 4.40996 2.41933 0
M  V30 10247 H 928.933 5.73722 1.26953 0
M  V30 10248 H 930.457 5.6955 2.20103 0
M  V30 10249 H 931.871 5.73257 -0.0701057 0
M  V30 10250 H 930.268 5.94293 -0.832815 0
M  V30 10251 H 931.338 4.64482 -1.39229 0
M  V30 10252 N 932.681 0.308908 1.54543 0
M  V30 10253 C 934.097 -0.0442273 1.59539 0
M  V30 10254 C 934.297 -1.51743 1.32575 0
M  V30 10255 O 933.353 -2.27134 1.10302 0
M  V30 10256 C 934.666 0.360826 2.98527 0
M  V30 10257 C 936.214 0.310252 3.11459 0
M  V30 10258 C 936.689 0.690246 4.52769 0
M  V30 10259 N 938.18 0.643084 4.58714 0
M  V30 10260 C 938.915 0.909483 5.66141 0
M  V30 10261 N 938.411 1.24226 6.81572 0
M  V30 10262 N 940.204 0.836018 5.55848 0
M  V30 10263 H 932.355 1.26893 1.70329 0
M  V30 10264 H 934.618 0.514986 0.795923 0
M  V30 10265 H 934.324 1.38669 3.23209 0
M  V30 10266 H 934.198 -0.281563 3.76148 0
M  V30 10267 H 936.585 -0.706375 2.86521 0
M  V30 10268 H 936.666 0.987373 2.35976 0
M  V30 10269 H 936.31 1.70472 4.78437 0
M  V30 10270 H 936.24 -0.00903075 5.26599 0
M  V30 10271 H 938.731 0.397138 3.75807 0
M  V30 10272 H 939.044 1.4313 7.5943 0
M  V30 10273 H 937.389 1.28038 6.83104 0
M  V30 10274 H 940.58 0.575637 4.64547 0
M  V30 10275 H 940.753 1.047 6.39486 0
M  V30 10276 N 934.159 -1.57557 0.0367827 0
M  V30 10277 C 935.106 -2.10679 -0.942499 0
M  V30 10278 C 936.076 -1.01068 -1.31812 0
M  V30 10279 O 937.261 -1.28533 -1.41011 0
M  V30 10280 C 934.401 -2.64467 -2.21701 0
M  V30 10281 C 933.514 -3.88114 -1.89715 0
M  V30 10282 C 932.649 -4.30268 -3.11518 0
M  V30 10283 C 931.688 -5.46652 -2.75387 0
M  V30 10284 N 930.825 -5.83927 -3.89838 0
M  V30 10285 H 935.665 -2.94066 -0.482588 0
M  V30 10286 H 933.202 -1.45344 -0.226597 0
M  V30 10287 H 935.16 -2.93745 -2.96259 0
M  V30 10288 H 933.79 -1.83898 -2.65295 0
M  V30 10289 H 932.842 -3.65516 -1.05366 0
M  V30 10290 H 934.154 -4.72743 -1.5911 0
M  V30 10291 H 933.308 -4.61023 -3.94389 0
M  V30 10292 H 932.047 -3.44421 -3.4529 0
M  V30 10293 H 931.052 -5.15583 -1.90929 0
M  V30 10294 H 932.277 -6.34204 -2.42822 0
M  V30 10295 H 930.223 -5.01035 -4.23438 0
M  V30 10296 H 930.14 -6.63214 -3.62883 0
M  V30 10297 H 931.408 -6.19291 -4.73391 0
M  V30 10298 N 935.637 0.236453 -1.55816 0
M  V30 10299 C 936.569 1.31602 -1.87653 0
M  V30 10300 C 937.582 1.43782 -0.763584 0
M  V30 10301 O 938.771 1.44945 -1.04178 0
M  V30 10302 C 935.871 2.69342 -2.05689 0
M  V30 10303 C 935.044 2.79298 -3.36617 0
M  V30 10304 C 934.103 3.97952 -3.44268 0
M  V30 10305 O 933.129 3.86989 -4.17406 0
M  V30 10306 N 934.331 5.11594 -2.74321 0
M  V30 10307 H 937.096 1.04623 -2.80845 0
M  V30 10308 H 934.657 0.426534 -1.5618 0
M  V30 10309 H 936.649 3.47074 -2.08138 0
M  V30 10310 H 935.219 2.88984 -1.19192 0
M  V30 10311 H 934.439 1.8816 -3.46395 0
M  V30 10312 H 935.727 2.82908 -4.22895 0
M  V30 10313 H 935.125 5.23394 -2.14651 0
M  V30 10314 H 933.682 5.87422 -2.8245 0
M  V30 10315 N 937.115 1.49373 0.502552 0
M  V30 10316 C 938.362 1.58781 1.25678 0
M  V30 10317 C 938.69 0.273819 1.92563 0
M  V30 10318 O 937.945 -0.738141 1.81246 0
M  V30 10319 C 938.244 2.69508 2.34735 0
M  V30 10320 C 937.91 4.11057 1.85318 0
M  V30 10321 C 936.572 4.49578 1.7156 0
M  V30 10322 C 938.924 4.99653 1.48312 0
M  V30 10323 C 936.252 5.74469 1.19172 0
M  V30 10324 C 938.604 6.2506 0.97377 0
M  V30 10325 C 937.268 6.62412 0.822573 0
M  V30 10326 H 936.538 0.581021 0.459887 0
M  V30 10327 H 939.185 1.83197 0.557767 0
M  V30 10328 H 937.49 2.39057 3.10418 0
M  V30 10329 H 939.187 2.73997 2.92791 0
M  V30 10330 H 935.777 3.80651 1.96985 0
M  V30 10331 H 939.961 4.70549 1.57789 0
M  V30 10332 H 935.217 6.0211 1.06176 0
M  V30 10333 H 939.391 6.93089 0.678233 0
M  V30 10334 H 937.018 7.59069 0.414453 0
M  V30 10335 N 938.594 -0.753485 1.38421 0
M  V30 10336 C 939.842 -1.50962 1.34368 0
M  V30 10337 C 940.163 -1.94889 -0.0656895 0
M  V30 10338 O 939.433 -1.67652 -1.01339 0
M  V30 10339 H 938.013 -0.559967 0.494415 0
M  V30 10340 H 940.675 -0.895665 1.73101 0
M  V30 10341 H 939.771 -2.40048 1.99458 0
M  V30 10342 N 940.072 -1.23292 -0.981677 0
M  V30 10343 C 941.035 -1.01417 -2.05542 0
M  V30 10344 C 942.035 0.0235354 -1.60783 0
M  V30 10345 O 943.225 -0.216082 -1.72855 0
M  V30 10346 C 940.357 -0.534239 -3.36688 0
M  V30 10347 H 941.55 -1.96702 -2.26381 0
M  V30 10348 H 939.103 -1.05318 -1.1549 0
M  V30 10349 H 939.838 0.422452 -3.21537 0
M  V30 10350 H 939.623 -1.28304 -3.70514 0
M  V30 10351 H 941.113 -0.40179 -4.15663 0
M  V30 10352 N 941.55 1.18024 -1.04442 0
M  V30 10353 C 942.482 2.21294 -0.596799 0
M  V30 10354 C 943.495 1.59305 0.33552 0
M  V30 10355 O 944.684 1.7803 0.129443 0
M  V30 10356 C 941.784 3.38578 0.147648 0
M  V30 10357 C 940.957 4.30143 -0.793484 0
M  V30 10358 C 940.016 5.2612 -0.0916561 0
M  V30 10359 O 939.042 5.64586 -0.72331 0
M  V30 10360 N 940.244 5.68512 1.17364 0
M  V30 10361 H 943.009 2.6032 -1.48504 0
M  V30 10362 H 940.57 1.32847 -0.925374 0
M  V30 10363 H 942.562 3.99812 0.627098 0
M  V30 10364 H 941.132 2.98212 0.937466 0
M  V30 10365 H 940.352 3.66456 -1.45272 0
M  V30 10366 H 941.64 4.88216 -1.43258 0
M  V30 10367 H 941.038 5.39322 1.70729 0
M  V30 10368 H 939.595 6.31925 1.5973 0
M  V30 10369 N 943.028 0.824394 1.34319 0
M  V30 10370 C 943.991 0.252696 2.27803 0
M  V30 10371 C 944.991 -0.570254 1.50349 0
M  V30 10372 O 946.181 -0.386145 1.69866 0
M  V30 10373 C 943.313 -0.645575 3.34731 0
M  V30 10374 H 944.506 1.07742 2.79878 0
M  V30 10375 H 942.059 0.596367 1.44475 0
M  V30 10376 H 942.794 -1.4933 2.87873 0
M  V30 10377 H 942.579 -0.0569478 3.92059 0
M  V30 10378 H 944.069 -1.03933 4.0446 0
M  V30 10379 N 944.506 -1.46559 0.579492 0
M  V30 10380 C 945.454 -2.3199 -0.168413 0
M  V30 10381 C 946.448 -1.44288 -0.887551 0
M  V30 10382 O 947.654 -1.60931 -0.806305 0
M  V30 10383 H 944.029 -0.748431 -0.0731799 0
M  V30 10384 H 946 -2.92886 0.570973 0
M  V30 10385 C 944.749 -3.27392 -1.1709 0
M  V30 10386 H 944.072 -3.94853 -0.626958 0
M  V30 10387 H 945.512 -3.89955 -1.66467 0
M  V30 10388 C 943.971 -2.52511 -2.23024 0
M  V30 10389 O 944.501 -2.2858 -3.30324 0
M  V30 10390 N 942.707 -2.1313 -1.97545 0
M  V30 10391 H 942.254 -2.32793 -1.10297 0
M  V30 10392 H 942.212 -1.63348 -2.68635 0
M  V30 10393 N 945.984 -0.3171 -1.54377 0
M  V30 10394 C 947.23 0.287836 -2.00747 0
M  V30 10395 C 947.563 1.52292 -1.20502 0
M  V30 10396 O 946.838 1.92391 -0.285626 0
M  V30 10397 C 947.121 0.628423 -3.54574 0
M  V30 10398 C 946.974 -0.616922 -4.45549 0
M  V30 10399 C 948.293 1.44862 -4.15575 0
M  V30 10400 H 945.412 0.103144 -0.729747 0
M  V30 10401 H 948.054 -0.432396 -1.85014 0
M  V30 10402 H 946.204 1.24203 -3.68111 0
M  V30 10403 H 947.876 -1.25526 -4.43893 0
M  V30 10404 H 946.119 -1.24706 -4.15489 0
M  V30 10405 H 946.79 -0.334243 -5.50987 0
M  V30 10406 H 949.266 0.930015 -4.05574 0
M  V30 10407 H 948.142 1.6557 -5.23333 0
M  V30 10408 H 948.403 2.44279 -3.68484 0
M  V30 10409 N 947.462 1.57535 -0.0451378 0
M  V30 10410 C 948.711 1.91628 0.629415 0
M  V30 10411 C 949.024 0.924754 1.72359 0
M  V30 10412 O 950.23 1.15751 2.45589 0
M  V30 10413 C 948.686 3.40322 1.17084 0
M  V30 10414 C 948.294 4.47867 0.109101 0
M  V30 10415 C 950.038 3.83458 1.82099 0
M  V30 10416 C 947.945 5.87671 0.663072 0
M  V30 10417 H 946.875 0.715163 0.238868 0
M  V30 10418 H 949.526 1.83151 -0.113046 0
M  V30 10419 H 947.908 3.43783 1.96543 0
M  V30 10420 H 949.082 4.55988 -0.664201 0
M  V30 10421 H 947.397 4.14034 -0.443227 0
M  V30 10422 H 949.994 4.85273 2.2453 0
M  V30 10423 H 950.337 3.19379 2.67026 0
M  V30 10424 H 950.87 3.82488 1.09305 0
M  V30 10425 H 947.609 6.55332 -0.148423 0
M  V30 10426 H 947.129 5.83124 1.4045 0
M  V30 10427 H 948.808 6.36737 1.14785 0
M  V30 10428 N 948.94 -0.228186 1.55939 0
M  V30 10429 C 950.188 -0.951668 1.78291 0
M  V30 10430 C 950.509 -1.85132 0.612474 0
M  V30 10431 O 949.779 -1.92356 -0.370942 0
M  V30 10432 H 948.359 -0.354388 0.657585 0
M  V30 10433 H 951.021 -0.241635 1.93396 0
M  V30 10434 H 950.117 -1.56239 2.70177 0
M  V30 10435 N 950.418 -1.49637 -0.494624 0
M  V30 10436 C 951.829 -1.52573 -1.07603 0
M  V30 10437 C 952.18 -0.315591 -1.93645 0
M  V30 10438 O 951.305 0.573966 -2.08649 0
M  V30 10439 C 951.9 -2.7648 -1.95817 0
M  V30 10440 C 950.459 -2.82173 -2.49109 0
M  V30 10441 C 949.606 -2.4657 -1.2688 0
M  V30 10442 H 952.557 -1.56242 -0.278251 0
M  V30 10443 H 952.578 -2.57003 -2.80588 0
M  V30 10444 H 952.09 -3.64538 -1.33167 0
M  V30 10445 H 950.191 -1.9841 -3.15379 0
M  V30 10446 H 950.304 -3.84501 -2.85825 0
M  V30 10447 H 948.668 -1.98489 -1.59607 0
M  V30 10448 H 949.451 -3.3691 -0.659281 0
M  V30 10449 N 951.896 0.746133 -1.38819 0
M  V30 10450 C 953.142 1.50669 -1.3664 0
M  V30 10451 C 953.497 1.92356 0.0411513 0
M  V30 10452 O 952.79 1.63104 1.00537 0
M  V30 10453 C 952.984 2.76639 -2.26286 0
M  V30 10454 C 952.813 2.47268 -3.75618 0
M  V30 10455 C 951.583 2.40116 -4.44603 0
M  V30 10456 C 953.781 2.13548 -4.67869 0
M  V30 10457 N 951.763 2.03098 -5.79331 0
M  V30 10458 C 953.134 1.86883 -5.91164 0
M  V30 10459 C 955.189 1.99922 -4.56 0
M  V30 10460 C 953.892 1.47965 -7.03917 0
M  V30 10461 C 955.918 1.62406 -5.68664 0
M  V30 10462 C 955.28 1.36618 -6.91025 0
M  V30 10463 H 951.379 0.550624 -0.555282 0
M  V30 10464 H 953.963 0.868179 -1.74272 0
M  V30 10465 H 952.134 3.38287 -1.9083 0
M  V30 10466 H 953.866 3.42753 -2.1518 0
M  V30 10467 H 950.621 2.56839 -3.97908 0
M  V30 10468 H 951.045 1.87214 -6.506 0
M  V30 10469 H 955.687 2.18531 -3.61945 0
M  V30 10470 H 953.405 1.28096 -7.97883 0
M  V30 10471 H 956.991 1.52483 -5.61462 0
M  V30 10472 H 955.871 1.08021 -7.76725 0
M  V30 10473 N 953.375 1.23811 0.975125 0
M  V30 10474 C 954.624 1.06741 1.71141 0
M  V30 10475 C 954.937 -0.394986 1.9157 0
M  V30 10476 O 956.143 -0.685723 2.62698 0
M  V30 10477 C 954.599 1.86168 3.08009 0
M  V30 10478 C 954.207 3.36771 2.95448 0
M  V30 10479 C 955.951 1.77604 3.85561 0
M  V30 10480 C 953.858 4.0857 4.2758 0
M  V30 10481 H 952.788 0.395819 0.64175 0
M  V30 10482 H 955.439 1.47825 1.0872 0
M  V30 10483 H 953.821 1.37893 3.71216 0
M  V30 10484 H 954.995 3.92571 2.41298 0
M  V30 10485 H 953.31 3.46205 2.31368 0
M  V30 10486 H 955.907 2.28556 4.83391 0
M  V30 10487 H 956.25 0.739837 4.09673 0
M  V30 10488 H 956.783 2.23519 3.29065 0
M  V30 10489 H 953.522 5.12518 4.08663 0
M  V30 10490 H 953.042 3.57556 4.81574 0
M  V30 10491 H 954.721 4.15157 4.9624 0
M  V30 10492 N 954.853 -1.17469 1.05066 0
M  V30 10493 C 955.785 -2.20974 0.608526 0
M  V30 10494 C 956.798 -1.59481 -0.327066 0
M  V30 10495 O 957.987 -1.78096 -0.12 0
M  V30 10496 C 955.087 -3.38652 -0.12969 0
M  V30 10497 C 954.26 -4.29716 0.816285 0
M  V30 10498 C 953.319 -5.26064 0.119556 0
M  V30 10499 O 952.345 -5.64194 0.753241 0
M  V30 10500 N 953.547 -5.69126 -1.14347 0
M  V30 10501 H 956.312 -2.59529 1.49882 0
M  V30 10502 H 953.873 -1.32355 0.932406 0
M  V30 10503 H 955.865 -4.00139 -0.605886 0
M  V30 10504 H 954.435 -2.98705 -0.921638 0
M  V30 10505 H 953.655 -3.6568 1.47213 0
M  V30 10506 H 954.943 -4.87449 1.45845 0
M  V30 10507 H 954.341 -5.4022 -1.67866 0
M  V30 10508 H 952.898 -6.32764 -1.56376 0
M  V30 10509 N 956.331 -0.831506 -1.3388 0
M  V30 10510 C 957.559 -0.436925 -2.02234 0
M  V30 10511 C 957.974 0.959689 -1.6259 0
M  V30 10512 O 957.331 1.62248 -0.835576 0
M  V30 10513 C 957.382 -0.539429 -3.57453 0
M  V30 10514 O 957.103 -1.88101 -3.95664 0
M  V30 10515 C 958.604 -0.140852 -4.43076 0
M  V30 10516 H 955.824 -0.174302 -0.647966 0
M  V30 10517 H 958.368 -1.12204 -1.70969 0
M  V30 10518 H 956.523 0.0976959 -3.87277 0
M  V30 10519 H 956.937 -1.86131 -4.90363 0
M  V30 10520 H 958.411 -0.26364 -5.5137 0
M  V30 10521 H 958.888 0.916505 -4.29531 0
M  V30 10522 H 959.494 -0.752117 -4.18597 0
M  V30 10523 N 957.809 1.4625 -0.587256 0
M  V30 10524 C 958.756 2.30354 0.143384 0
M  V30 10525 C 959.726 1.40891 0.879716 0
M  V30 10526 O 960.911 1.69837 0.869486 0
M  V30 10527 C 958.051 3.25441 1.14815 0
M  V30 10528 C 957.164 4.30004 0.414792 0
M  V30 10529 C 956.299 5.12214 1.40748 0
M  V30 10530 C 955.338 6.08523 0.660786 0
M  V30 10531 N 954.475 6.83585 1.60176 0
M  V30 10532 H 959.315 2.92304 -0.579866 0
M  V30 10533 H 956.852 1.44055 -0.29777 0
M  V30 10534 H 958.81 3.79018 1.7436 0
M  V30 10535 H 957.44 2.6529 1.83906 0
M  V30 10536 H 956.492 3.79248 -0.295787 0
M  V30 10537 H 957.804 4.98515 -0.168738 0
M  V30 10538 H 956.958 5.70091 2.0756 0
M  V30 10539 H 955.697 4.43675 2.02494 0
M  V30 10540 H 954.702 5.49796 -0.0210864 0
M  V30 10541 H 955.927 6.79083 0.0486551 0
M  V30 10542 H 953.873 6.17752 2.20724 0
M  V30 10543 H 953.79 7.48373 1.07115 0
M  V30 10544 H 955.058 7.46016 2.26009 0
M  V30 10545 N 959.287 0.325282 1.54207 0
M  V30 10546 C 960.22 -0.582485 2.20641 0
M  V30 10547 C 961.198 -1.11441 1.18405 0
M  V30 10548 O 962.382 -1.17809 1.4715 0
M  V30 10549 C 959.509 -1.79944 2.86946 0
M  V30 10550 C 958.555 -1.39861 4.02916 0
M  V30 10551 S 959.388 -0.433859 5.3374 0
M  V30 10552 C 960.544 -1.65806 6.03539 0
M  V30 10553 H 960.777 -0.0181601 2.97294 0
M  V30 10554 H 958.31 0.109365 1.54012 0
M  V30 10555 H 960.268 -2.4977 3.25769 0
M  V30 10556 H 958.929 -2.33495 2.10092 0
M  V30 10557 H 958.122 -2.30547 4.48179 0
M  V30 10558 H 957.724 -0.780036 3.65775 0
M  V30 10559 H 960.016 -2.59524 6.25822 0
M  V30 10560 H 960.959 -1.24756 6.97023 0
M  V30 10561 H 961.367 -1.84581 5.3347 0
M  V30 10562 N 960.765 -1.57509 0.0534917 0
M  V30 10563 C 961.675 -2.15152 -0.935249 0
M  V30 10564 C 962.691 -1.10991 -1.34003 0
M  V30 10565 O 963.867 -1.43171 -1.41648 0
M  V30 10566 C 960.932 -2.68699 -2.19093 0
M  V30 10567 C 959.993 -3.87666 -1.84428 0
M  V30 10568 C 959.226 -4.3865 -3.0401 0
M  V30 10569 O 959.449 -3.887 -4.17455 0
M  V30 10570 O 958.383 -5.30209 -2.84889 0
M  V30 10571 H 962.209 -2.99962 -0.475009 0
M  V30 10572 H 959.794 -1.48446 -0.16854 0
M  V30 10573 H 961.676 -3.03098 -2.92762 0
M  V30 10574 H 960.351 -1.86958 -2.6425 0
M  V30 10575 H 959.258 -3.58151 -1.08068 0
M  V30 10576 H 960.591 -4.70643 -1.44068 0
M  V30 10577 N 962.243 0.219913 -1.56058 0
M  V30 10578 C 963.153 1.29349 -1.95719 0
M  V30 10579 C 964.169 1.5119 -0.861248 0
M  V30 10580 O 965.345 1.64289 -1.16495 0
M  V30 10581 C 962.41 2.6229 -2.26726 0
M  V30 10582 C 961.471 2.48738 -3.49897 0
M  V30 10583 C 960.704 3.75339 -3.79416 0
M  V30 10584 O 960.927 4.78427 -3.10586 0
M  V30 10585 O 959.861 3.72352 -4.72903 0
M  V30 10586 H 963.687 0.986979 -2.87215 0
M  V30 10587 H 961.272 0.42291 -1.43289 0
M  V30 10588 H 963.154 3.408 -2.47857 0
M  V30 10589 H 961.829 2.92619 -1.38404 0
M  V30 10590 H 960.736 1.68422 -3.34043 0
M  V30 10591 H 962.069 2.23347 -4.38608 0
M  V30 10592 N 963.721 1.49897 0.486681 0
M  V30 10593 C 964.97 1.59349 1.23656 0
M  V30 10594 C 965.283 0.292024 1.93408 0
M  V30 10595 O 966.489 0.265258 2.70201 0
M  V30 10596 C 964.945 2.81215 2.24602 0
M  V30 10597 C 964.553 4.18177 1.60725 0
M  V30 10598 C 966.297 3.00004 3.00329 0
M  V30 10599 C 964.204 5.31247 2.59866 0
M  V30 10600 H 963.134 0.593363 0.465227 0
M  V30 10601 H 965.785 1.76306 0.508769 0
M  V30 10602 H 964.167 2.57783 3.00606 0
M  V30 10603 H 965.341 4.51802 0.90616 0
M  V30 10604 H 963.656 4.04864 0.973362 0
M  V30 10605 H 966.253 3.81649 3.74497 0
M  V30 10606 H 966.596 2.1112 3.58795 0
M  V30 10607 H 967.129 3.23544 2.3144 0
M  V30 10608 H 963.868 6.22236 2.06161 0
M  V30 10609 H 963.388 5.02059 3.28172 0
M  V30 10610 H 965.067 5.61177 3.22009 0
M  V30 10611 N 965.199 -0.738761 1.39212 0
M  V30 10612 C 966.447 -1.49529 1.35962 0
M  V30 10613 C 966.768 -1.94948 -0.0450152 0
M  V30 10614 O 966.038 -1.68717 -0.995552 0
M  V30 10615 H 964.618 -0.554692 0.500326 0
M  V30 10616 H 967.28 -0.877255 1.74041 0
M  V30 10617 H 966.376 -2.37919 2.01993 0
M  V30 10618 N 966.677 -1.24326 -0.968545 0
M  V30 10619 C 968.093 -1.00847 -1.23701 0
M  V30 10620 C 968.293 0.283235 -1.99499 0
M  V30 10621 O 967.349 0.999607 -2.31871 0
M  V30 10622 C 968.662 -2.22295 -2.02498 0
M  V30 10623 C 970.21 -2.26911 -2.15593 0
M  V30 10624 C 970.685 -3.47978 -2.97784 0
M  V30 10625 N 972.176 -3.48289 -3.05367 0
M  V30 10626 C 972.911 -4.38625 -3.69318 0
M  V30 10627 N 972.407 -5.39213 -4.34995 0
M  V30 10628 N 974.2 -4.26339 -3.66322 0
M  V30 10629 H 966.351 -2.07335 -0.461087 0
M  V30 10630 H 968.614 -0.909805 -0.26638 0
M  V30 10631 H 968.32 -3.161 -1.54188 0
M  V30 10632 H 968.194 -2.24344 -3.03232 0
M  V30 10633 H 970.581 -1.33639 -2.63106 0
M  V30 10634 H 970.662 -2.28888 -1.14209 0
M  V30 10635 H 970.306 -4.41564 -2.50965 0
M  V30 10636 H 970.236 -3.43244 -3.99364 0
M  V30 10637 H 972.727 -2.75517 -2.58648 0
M  V30 10638 H 973.04 -6.04378 -4.81608 0
M  V30 10639 H 971.385 -5.43101 -4.33667 0
M  V30 10640 H 974.576 -3.46991 -3.14189 0
M  V30 10641 H 974.749 -4.9694 -4.15878 0
M  V30 10642 N 968.156 1.1691 -1.05688 0
M  V30 10643 C 969.405 1.86629 -0.765022 0
M  V30 10644 C 969.718 1.82223 0.710918 0
M  V30 10645 O 970.924 2.47462 1.11691 0
M  V30 10646 C 969.38 3.34886 -1.3183 0
M  V30 10647 C 968.988 3.47781 -2.82404 0
M  V30 10648 C 970.732 4.099 -1.10372 0
M  V30 10649 C 968.639 4.9009 -3.31008 0
M  V30 10650 H 967.569 0.699082 -0.282491 0
M  V30 10651 H 970.22 1.31989 -1.27481 0
M  V30 10652 H 968.602 3.89094 -0.736312 0
M  V30 10653 H 969.776 3.03765 -3.46502 0
M  V30 10654 H 968.091 2.86193 -3.02461 0
M  V30 10655 H 970.688 5.14894 -1.4418 0
M  V30 10656 H 971.031 4.16279 -0.0417372 0
M  V30 10657 H 971.564 3.61913 -1.65117 0
M  V30 10658 H 968.303 4.88887 -4.36657 0
M  V30 10659 H 967.823 5.34756 -2.71655 0
M  V30 10660 H 969.502 5.58881 -3.25977 0
M  V30 10661 N 969.634 0.838594 1.33437 0
M  V30 10662 C 970.859 0.446701 2.02532 0
M  V30 10663 C 971.284 -0.944275 1.62681 0
M  V30 10664 O 970.642 -1.61733 0.81927 0
M  V30 10665 C 970.69 0.574794 3.55989 0
M  V30 10666 O 969.794 -0.399063 4.10465 0
M  V30 10667 H 969.135 0.181637 0.638674 0
M  V30 10668 H 971.665 1.13335 1.70342 0
M  V30 10669 H 971.675 0.456339 4.0544 0
M  V30 10670 H 970.35 1.58921 3.8434 0
M  V30 10671 H 968.927 -0.238187 3.72139 0
M  V30 10672 N 971.112 -1.45937 0.595003 0
M  V30 10673 C 972.361 -2.01529 0.0829531 0
M  V30 10674 C 972.674 -1.47071 -1.28955 0
M  V30 10675 O 973.88 -1.94561 -1.89363 0
M  V30 10676 C 972.336 -3.59767 0.0976597 0
M  V30 10677 C 971.944 -4.23223 1.46924 0
M  V30 10678 C 973.688 -4.22972 -0.359805 0
M  V30 10679 C 971.595 -5.73576 1.44101 0
M  V30 10680 H 970.525 -0.753508 0.0272425 0
M  V30 10681 H 973.176 -1.67541 0.748473 0
M  V30 10682 H 971.558 -3.90888 -0.634268 0
M  V30 10683 H 972.732 -4.03695 2.22187 0
M  V30 10684 H 971.047 -3.72161 1.86775 0
M  V30 10685 H 973.644 -5.33202 -0.39991 0
M  V30 10686 H 973.987 -3.92765 -1.37991 0
M  V30 10687 H 974.52 -3.96523 0.31845 0
M  V30 10688 H 971.259 -6.08462 2.43831 0
M  V30 10689 H 970.779 -5.95332 0.730767 0
M  V30 10690 H 972.458 -6.36531 1.1592 0
M  V30 10691 N 972.59 -0.333456 -1.54032 0
M  V30 10692 C 973.5 0.536674 -2.28379 0
M  V30 10693 C 974.516 1.12068 -1.33104 0
M  V30 10694 O 975.692 1.13853 -1.66131 0
M  V30 10695 C 972.757 1.67677 -3.03456 0
M  V30 10696 C 971.818 1.12357 -4.14336 0
M  V30 10697 C 971.051 2.20933 -4.85823 0
M  V30 10698 O 971.274 3.41466 -4.569 0
M  V30 10699 O 970.208 1.85795 -5.72507 0
M  V30 10700 H 974.034 -0.0674003 -3.03625 0
M  V30 10701 H 971.619 -0.098823 -1.49073 0
M  V30 10702 H 973.501 2.34032 -3.50438 0
M  V30 10703 H 972.176 2.26684 -2.31076 0
M  V30 10704 H 971.083 0.424827 -3.7168 0
M  V30 10705 H 972.416 0.578497 -4.88789 0
M  V30 10706 N 974.068 1.57479 -0.061844 0
M  V30 10707 C 975.001 2.07734 0.94455 0
M  V30 10708 C 975.979 0.980207 1.29733 0
M  V30 10709 O 977.163 1.2529 1.40836 0
M  V30 10710 C 974.29 2.52673 2.25553 0
M  V30 10711 C 973.336 3.73725 2.05503 0
M  V30 10712 S 974.169 5.18886 1.32354 0
M  V30 10713 C 975.325 5.67148 2.64753 0
M  V30 10714 H 975.558 2.92772 0.516888 0
M  V30 10715 H 973.091 1.53663 0.150684 0
M  V30 10716 H 975.049 2.79226 3.00904 0
M  V30 10717 H 973.71 1.67921 2.65445 0
M  V30 10718 H 972.903 4.03125 3.025 0
M  V30 10719 H 972.505 3.47494 1.3829 0
M  V30 10720 H 974.797 5.73385 3.60882 0
M  V30 10721 H 975.74 6.66196 2.39976 0
M  V30 10722 H 976.148 4.94921 2.71502 0
M  V30 10723 N 975.546 -0.211634 1.56173 0
M  V30 10724 C 976.496 -1.26602 1.8962 0
M  V30 10725 C 977.48 -1.41808 0.760222 0
M  V30 10726 O 978.672 -1.44456 1.02281 0
M  V30 10727 C 975.801 -2.61438 2.22497 0
M  V30 10728 C 974.887 -2.50094 3.42511 0
M  V30 10729 N 975.278 -2.0841 4.60868 0
M  V30 10730 C 973.576 -2.81028 3.46322 0
M  V30 10731 C 974.277 -2.08557 5.43028 0
M  V30 10732 N 973.253 -2.49427 4.82998 0
M  V30 10733 H 977.055 -0.934806 2.78637 0
M  V30 10734 H 974.569 -0.420154 1.56871 0
M  V30 10735 H 976.566 -3.37577 2.44638 0
M  V30 10736 H 975.226 -2.95397 1.34798 0
M  V30 10737 H 976.237 -1.79382 4.85842 0
M  V30 10738 H 972.914 -3.19294 2.68994 0
M  V30 10739 H 974.304 -1.7837 6.47791 0
M  V30 10740 N 977.024 -1.50153 -0.478725 0
M  V30 10741 C 978.272 -1.60443 -1.22892 0
M  V30 10742 C 978.593 -0.303276 -1.92627 0
M  V30 10743 O 977.863 0.678798 -1.83764 0
M  V30 10744 H 976.443 -0.591205 -0.456602 0
M  V30 10745 H 979.105 -1.86893 -0.552905 0
M  V30 10746 H 978.201 -2.41175 -1.98094 0
M  V30 10747 N 978.502 0.731368 -1.39602 0
M  V30 10748 C 979.73 1.52059 -1.40305 0
M  V30 10749 C 980.145 1.888 0.00147921 0
M  V30 10750 O 979.502 1.54354 0.973715 0
M  V30 10751 C 979.553 2.80588 -2.27931 0
M  V30 10752 O 979.274 2.45406 -3.62915 0
M  V30 10753 C 980.775 3.74592 -2.37056 0
M  V30 10754 H 977.995 0.469787 -0.479104 0
M  V30 10755 H 980.539 0.903436 -1.83462 0
M  V30 10756 H 978.694 3.38626 -1.88178 0
M  V30 10757 H 979.108 3.27996 -4.09291 0
M  V30 10758 H 980.582 4.61662 -3.02609 0
M  V30 10759 H 981.059 4.16597 -1.39081 0
M  V30 10760 H 981.665 3.22471 -2.77295 0
M  V30 10761 N 979.98 1.24838 0.961938 0
M  V30 10762 C 980.91 1.07053 2.07514 0
M  V30 10763 C 981.891 -0.0182465 1.7009 0
M  V30 10764 O 983.076 0.149915 1.9362 0
M  V30 10765 C 980.206 0.680693 3.40564 0
M  V30 10766 C 979.16 1.71889 3.91967 0
M  V30 10767 C 978.486 1.18395 5.21428 0
M  V30 10768 C 979.786 3.1161 4.19161 0
M  V30 10769 H 981.48 2.00167 2.22651 0
M  V30 10770 H 979.026 0.963799 1.0699 0
M  V30 10771 H 980.979 0.54324 4.17884 0
M  V30 10772 H 979.703 -0.28615 3.25344 0
M  V30 10773 H 978.362 1.84465 3.16809 0
M  V30 10774 H 978.01 0.207543 5.02572 0
M  V30 10775 H 977.71 1.87778 5.56788 0
M  V30 10776 H 979.234 1.05873 6.01351 0
M  V30 10777 H 980.648 3.0223 4.87165 0
M  V30 10778 H 979.045 3.78398 4.65763 0
M  V30 10779 H 980.115 3.59218 3.25715 0
M  V30 10780 N 981.458 -1.16348 1.06306 0
M  V30 10781 C 982.368 -2.24375 0.685059 0
M  V30 10782 C 983.384 -1.71413 -0.298956 0
M  V30 10783 O 984.56 -2.00854 -0.148239 0
M  V30 10784 C 981.625 -3.46614 0.0774088 0
M  V30 10785 C 980.686 -4.14613 1.11331 0
M  V30 10786 C 979.919 -5.31016 0.534559 0
M  V30 10787 O 980.142 -5.66654 -0.65265 0
M  V30 10788 O 979.076 -5.88256 1.27431 0
M  V30 10789 H 982.902 -2.59018 1.58566 0
M  V30 10790 H 980.487 -1.23865 0.835332 0
M  V30 10791 H 982.369 -4.20599 -0.259716 0
M  V30 10792 H 981.044 -3.13743 -0.796677 0
M  V30 10793 H 979.951 -3.42597 1.50261 0
M  V30 10794 H 981.284 -4.51538 1.95893 0
M  V30 10795 N 982.937 -0.845659 -1.3299 0
M  V30 10796 C 984.214 -0.366306 -1.92139 0
M  V30 10797 C 984.594 1.14912 -1.77083 0
M  V30 10798 O 983.942 1.96667 -1.16338 0
M  V30 10799 C 984.152 -0.820716 -3.39213 0
M  V30 10800 C 985.5 -0.832667 -4.16355 0
M  V30 10801 O 986.524 -0.764764 -3.47893 0
M  V30 10802 O 985.383 -0.926658 -5.38586 0
M  V30 10803 H 982.477 -0.105063 -0.820299 0
M  V30 10804 H 985.023 -0.931962 -1.41819 0
M  V30 10805 H 983.795 -1.86357 -3.44074 0
M  V30 10806 H 983.418 -0.232009 -3.96923 0
M  V30 10807 N 984.415 1.45619 -0.602734 0
M  V30 10808 C 985.347 2.28662 0.157012 0
M  V30 10809 C 986.36 1.39672 0.836396 0
M  V30 10810 O 987.549 1.64091 0.702599 0
M  V30 10811 C 984.649 3.1528 1.24306 0
M  V30 10812 C 983.822 4.32517 0.651731 0
M  V30 10813 C 982.881 5.00381 1.62804 0
M  V30 10814 O 981.907 5.57333 1.15624 0
M  V30 10815 N 983.109 4.99221 2.96241 0
M  V30 10816 H 985.874 2.94506 -0.555535 0
M  V30 10817 H 983.435 1.55753 -0.441881 0
M  V30 10818 H 985.427 3.57544 1.8959 0
M  V30 10819 H 983.997 2.51376 1.85819 0
M  V30 10820 H 983.217 3.93793 -0.17907 0
M  V30 10821 H 984.505 5.08249 0.236802 0
M  V30 10822 H 983.903 4.54232 3.37179 0
M  V30 10823 H 982.46 5.45364 3.56961 0
M  V30 10824 N 985.893 0.34162 1.53853 0
M  V30 10825 C 986.823 -0.508431 2.27897 0
M  V30 10826 C 987.804 -1.10425 1.29384 0
M  V30 10827 O 988.989 -1.126 1.58224 0
M  V30 10828 C 986.119 -1.66048 3.05034 0
M  V30 10829 C 985.073 -1.19309 4.11035 0
M  V30 10830 C 984.399 -2.4335 4.76114 0
M  V30 10831 C 985.699 -0.294952 5.21467 0
M  V30 10832 H 987.393 0.109251 2.99201 0
M  V30 10833 H 984.939 0.0539847 1.43899 0
M  V30 10834 H 986.892 -2.26158 3.5557 0
M  V30 10835 H 985.616 -2.30503 2.31379 0
M  V30 10836 H 984.275 -0.614809 3.61408 0
M  V30 10837 H 983.923 -3.06208 3.99056 0
M  V30 10838 H 983.623 -2.1276 5.47729 0
M  V30 10839 H 985.147 -3.0419 5.29434 0
M  V30 10840 H 986.561 -0.80285 5.67651 0
M  V30 10841 H 984.958 -0.0810221 6.00045 0
M  V30 10842 H 986.028 0.669433 4.80257 0
M  V30 10843 N 987.371 -1.57444 0.0701946 0
M  V30 10844 C 988.596 -1.98171 -0.61181 0
M  V30 10845 C 989.021 -0.94823 -1.62451 0
M  V30 10846 O 988.379 0.0863553 -1.81094 0
M  V30 10847 C 988.427 -3.37934 -1.2583 0
M  V30 10848 O 987.531 -3.37207 -2.37414 0
M  V30 10849 H 986.872 -0.645056 -0.157477 0
M  V30 10850 H 989.402 -2.04091 0.144235 0
M  V30 10851 H 989.412 -3.75083 -1.60552 0
M  V30 10852 H 988.087 -4.12684 -0.516234 0
M  V30 10853 H 986.664 -3.11826 -2.04497 0
M  V30 10854 N 988.849 0.203349 -1.56283 0
M  V30 10855 C 989.799 1.25595 -1.90289 0
M  V30 10856 C 990.783 1.41403 -0.767732 0
M  V30 10857 O 991.975 1.43912 -1.03046 0
M  V30 10858 C 989.104 2.60255 -2.23881 0
M  V30 10859 C 988.19 2.48274 -3.43833 0
M  V30 10860 N 988.581 2.05963 -4.61966 0
M  V30 10861 C 986.879 2.79188 -3.47808 0
M  V30 10862 C 987.58 2.05674 -5.44126 0
M  V30 10863 N 986.556 2.46862 -4.84314 0
M  V30 10864 H 990.358 0.920016 -2.79129 0
M  V30 10865 H 987.872 0.411829 -1.57091 0
M  V30 10866 H 989.869 3.36274 -2.46425 0
M  V30 10867 H 988.529 2.94678 -1.36363 0
M  V30 10868 H 989.54 1.76803 -4.86787 0
M  V30 10869 H 986.217 3.17863 -2.70684 0
M  V30 10870 H 987.607 1.74932 -6.48728 0
M  V30 10871 N 990.327 1.50405 0.470755 0
M  V30 10872 C 991.257 1.72222 1.57676 0
M  V30 10873 C 992.238 0.57121 1.60222 0
M  V30 10874 O 993.423 0.810381 1.76484 0
M  V30 10875 C 990.553 1.81666 2.95998 0
M  V30 10876 C 989.507 2.96857 3.08318 0
M  V30 10877 C 988.833 2.91445 4.4829 0
M  V30 10878 C 990.133 4.37361 2.85504 0
M  V30 10879 H 991.827 2.64825 1.39671 0
M  V30 10880 H 989.373 1.27438 0.67049 0
M  V30 10881 H 991.326 1.95514 3.73299 0
M  V30 10882 H 990.05 0.856856 3.1516 0
M  V30 10883 H 988.709 2.82661 2.33449 0
M  V30 10884 H 988.357 1.93309 4.64371 0
M  V30 10885 H 988.057 3.68776 4.57469 0
M  V30 10886 H 989.581 3.07341 5.27611 0
M  V30 10887 H 990.995 4.52081 3.52555 0
M  V30 10888 H 989.392 5.16145 3.06127 0
M  V30 10889 H 990.462 4.49708 1.81359 0
M  V30 10890 N 991.805 -0.723954 1.39988 0
M  V30 10891 C 993.221 -1.03095 1.21834 0
M  V30 10892 C 993.421 -2.01309 0.0876647 0
M  V30 10893 O 992.477 -2.46277 -0.55714 0
M  V30 10894 C 993.79 -1.58267 2.5568 0
M  V30 10895 C 995.338 -1.70293 2.6262 0
M  V30 10896 C 995.813 -2.28872 3.96713 0
M  V30 10897 N 997.304 -2.36269 3.98411 0
M  V30 10898 C 998.039 -2.82557 4.98948 0
M  V30 10899 N 997.535 -3.28661 6.0988 0
M  V30 10900 N 999.328 -2.81866 4.86321 0
M  V30 10901 H 991.479 -0.0727891 2.12275 0
M  V30 10902 H 993.742 -0.0949029 0.943238 0
M  V30 10903 H 993.448 -0.935642 3.39026 0
M  V30 10904 H 993.322 -2.56914 2.76179 0
M  V30 10905 H 995.709 -2.34115 1.7965 0
M  V30 10906 H 995.79 -0.70268 2.45959 0
M  V30 10907 H 995.434 -1.65675 4.80119 0
M  V30 10908 H 995.364 -3.29595 4.107 0
M  V30 10909 H 997.855 -2.03697 3.18302 0
M  V30 10910 H 998.168 -3.62524 6.82493 0
M  V30 10911 H 996.513 -3.26641 6.13458 0
M  V30 10912 H 999.704 -2.45179 3.98754 0
M  V30 10913 H 999.877 -3.17626 5.64817 0
M  V30 10914 N 993.283 -1.25346 -0.955304 0
M  V30 10915 C 994.215 -1.0146 -2.0552 0
M  V30 10916 C 995.228 0.0202256 -1.62787 0
M  V30 10917 O 996.417 -0.218251 -1.77161 0
M  V30 10918 C 993.517 -0.511727 -3.35014 0
M  V30 10919 C 992.69 -1.61256 -4.0659 0
M  V30 10920 C 991.749 -1.11017 -5.14356 0
M  V30 10921 O 990.775 -1.80443 -5.39842 0
M  V30 10922 N 991.977 0.0489001 -5.80479 0
M  V30 10923 H 994.742 -1.96166 -2.26581 0
M  V30 10924 H 992.303 -1.16543 -1.12381 0
M  V30 10925 H 994.295 -0.160123 -4.04383 0
M  V30 10926 H 992.865 0.341377 -3.1073 0
M  V30 10927 H 992.085 -2.13577 -3.31328 0
M  V30 10928 H 993.373 -2.35213 -4.51168 0
M  V30 10929 H 992.771 0.629021 -5.62192 0
M  V30 10930 H 991.328 0.341542 -6.50905 0
M  V30 10931 N 994.761 1.15782 -1.06922 0
M  V30 10932 C 995.991 1.90079 -0.809545 0
M  V30 10933 C 996.399 1.78028 0.640523 0
M  V30 10934 O 995.742 1.12692 1.45073 0
M  V30 10935 C 995.804 3.41179 -1.13302 0
M  V30 10936 C 995.468 3.77015 -2.5828 0
M  V30 10937 C 996.465 3.78403 -3.56521 0
M  V30 10938 C 994.15 4.07455 -2.93745 0
M  V30 10939 C 996.144 4.09729 -4.88264 0
M  V30 10940 C 993.831 4.38446 -4.25686 0
M  V30 10941 C 994.829 4.39564 -5.22755 0
M  V30 10942 O 994.517 4.69814 -6.52326 0
M  V30 10943 H 994.249 0.609397 -0.292595 0
M  V30 10944 H 996.803 1.47654 -1.42784 0
M  V30 10945 H 995.033 3.83982 -0.457676 0
M  V30 10946 H 996.722 3.96759 -0.856586 0
M  V30 10947 H 997.488 3.54991 -3.30464 0
M  V30 10948 H 993.367 4.05746 -2.1884 0
M  V30 10949 H 996.911 4.10516 -5.64023 0
M  V30 10950 H 992.808 4.61325 -4.51497 0
M  V30 10951 H 993.576 4.87598 -6.57412 0
M  V30 10952 N 996.239 0.8527 1.3254 0
M  V30 10953 C 997.149 0.298744 2.3269 0
M  V30 10954 C 998.165 -0.582418 1.63963 0
M  V30 10955 O 999.341 -0.483253 1.95516 0
M  V30 10956 C 996.406 -0.505453 3.42996 0
M  V30 10957 C 995.467 0.401618 4.27417 0
M  V30 10958 C 994.7 -0.364294 5.32455 0
M  V30 10959 O 994.923 -1.59448 5.47661 0
M  V30 10960 O 993.857 0.268892 6.01299 0
M  V30 10961 H 997.683 1.12843 2.81958 0
M  V30 10962 H 995.268 0.615584 1.36128 0
M  V30 10963 H 997.15 -0.961974 4.10273 0
M  V30 10964 H 995.825 -1.31197 2.95921 0
M  V30 10965 H 994.732 0.906274 3.62957 0
M  V30 10966 H 996.065 1.17327 4.78012 0
M  V30 10967 N 997.718 -1.45297 0.610449 0
M  V30 10968 C 998.665 -2.30553 -0.106718 0
M  V30 10969 C 999.635 -1.42272 -0.85719 0
M  V30 10970 O 1000.82 -1.71199 -0.842357 0
M  V30 10971 C 997.96 -3.27226 -1.09623 0
M  V30 10972 C 997.073 -4.3061 -0.346329 0
M  V30 10973 C 996.208 -5.14389 -1.32581 0
M  V30 10974 C 995.247 -6.09497 -0.563892 0
M  V30 10975 N 994.384 -6.86047 -1.4928 0
M  V30 10976 H 999.224 -2.91344 0.626296 0
M  V30 10977 H 996.761 -1.43563 0.32065 0
M  V30 10978 H 998.719 -3.81744 -1.68308 0
M  V30 10979 H 997.349 -2.68182 -1.79662 0
M  V30 10980 H 996.401 -3.7873 0.356084 0
M  V30 10981 H 997.713 -4.98183 0.248026 0
M  V30 10982 H 996.867 -5.73321 -1.98464 0
M  V30 10983 H 995.606 -4.4684 -1.9541 0
M  V30 10984 H 994.611 -5.49693 0.108551 0
M  V30 10985 H 995.836 -6.79074 0.0593872 0
M  V30 10986 H 993.782 -6.21185 -2.10868 0
M  V30 10987 H 993.699 -7.49983 -0.951953 0
M  V30 10988 H 994.967 -7.49518 -2.14112 0
M  V30 10989 N 999.196 -0.349774 -1.5367 0
M  V30 10990 C 1000.42 0.248692 -2.05904 0
M  V30 10991 C 1000.85 1.42942 -1.22267 0
M  V30 10992 O 1000.2 1.79732 -0.237899 0
M  V30 10993 C 1000.25 0.635639 -3.54953 0
M  V30 10994 O 999.356 1.7349 -3.74132 0
M  V30 10995 H 998.697 0.0399477 -0.662797 0
M  V30 10996 H 1001.23 -0.505795 -1.9825 0
M  V30 10997 H 1001.24 0.911064 -3.97698 0
M  V30 10998 H 999.912 -0.227805 -4.15276 0
M  V30 10999 H 998.489 1.45626 -3.43289 0
M  V30 11000 N 1000.67 1.57404 -0.0785433 0
M  V30 11001 C 1001.92 1.9292 0.588626 0
M  V30 11002 C 1002.24 0.961106 1.70359 0
M  V30 11003 O 1003.44 1.20934 2.43079 0
M  V30 11004 C 1001.9 3.42729 1.09839 0
M  V30 11005 C 1001.51 4.47998 0.0140773 0
M  V30 11006 C 1003.25 3.87235 1.73924 0
M  V30 11007 C 1001.16 5.88945 0.538269 0
M  V30 11008 H 1000.09 0.720069 0.223645 0
M  V30 11009 H 1002.74 1.8287 -0.15187 0
M  V30 11010 H 1001.12 3.47875 1.89207 0
M  V30 11011 H 1002.29 4.54476 -0.760773 0
M  V30 11012 H 1000.61 4.13001 -0.53095 0
M  V30 11013 H 1003.21 4.89927 2.14186 0
M  V30 11014 H 1003.55 3.24971 2.60191 0
M  V30 11015 H 1004.08 3.84721 1.01168 0
M  V30 11016 H 1000.82 6.5487 -0.287395 0
M  V30 11017 H 1000.34 5.85972 1.28049 0
M  V30 11018 H 1002.02 6.39028 1.01253 0
M  V30 11019 N 1002.15 -0.195058 1.56388 0
M  V30 11020 C 1003.4 -0.9168 1.80894 0
M  V30 11021 C 1003.73 -1.82907 0.652592 0
M  V30 11022 O 1003.01 -1.91382 -0.346853 0
M  V30 11023 C 1003.29 -1.733 3.15657 0
M  V30 11024 C 1003.14 -0.845449 4.41783 0
M  V30 11025 C 1004.46 -2.70557 3.47112 0
M  V30 11026 H 1001.58 -0.331861 0.658056 0
M  V30 11027 H 1004.22 -0.184174 1.89105 0
M  V30 11028 H 1002.37 -2.3576 3.08787 0
M  V30 11029 H 1004.04 -0.235557 4.60698 0
M  V30 11030 H 1002.29 -0.152172 4.33533 0
M  V30 11031 H 1002.96 -1.45152 5.32574 0
M  V30 11032 H 1005.43 -2.1823 3.54281 0
M  V30 11033 H 1004.31 -3.24749 4.42526 0
M  V30 11034 H 1004.57 -3.49605 2.70608 0
M  V30 11035 N 1003.63 -1.50653 -0.462772 0
M  V30 11036 C 1004.58 -1.70661 -1.58043 0
M  V30 11037 C 1005.57 -0.572533 -1.59432 0
M  V30 11038 O 1006.78 -0.753257 -1.63481 0
M  V30 11039 H 1003.15 -0.538805 -0.524588 0
M  V30 11040 H 1005.12 -2.64399 -1.38332 0
M  V30 11041 C 1003.87 -1.82558 -2.95919 0
M  V30 11042 H 1003.2 -2.69216 -2.95572 0
M  V30 11043 H 1004.64 -2.0058 -3.73556 0
M  V30 11044 C 1003.09 -0.57916 -3.31885 0
M  V30 11045 O 1003.62 0.277888 -4.00738 0
M  V30 11046 N 1001.83 -0.430723 -2.8739 0
M  V30 11047 H 1001.38 -1.1292 -2.31531 0
M  V30 11048 H 1001.34 0.402061 -3.11819 0
M  V30 11049 N 1005.11 0.71652 -1.4037 0
M  V30 11050 C 1006.34 1.50344 -1.41704 0
M  V30 11051 C 1006.75 1.89194 -0.0148011 0
M  V30 11052 O 1006.09 1.55916 0.971391 0
M  V30 11053 C 1006.15 2.80928 -2.2432 0
M  V30 11054 C 1005.82 2.64406 -3.72744 0
M  V30 11055 C 1006.81 2.31727 -4.65401 0
M  V30 11056 C 1004.5 2.807 -4.16549 0
M  V30 11057 C 1006.49 2.15551 -5.99847 0
M  V30 11058 C 1004.18 2.64141 -5.51065 0
M  V30 11059 C 1005.18 2.31614 -6.42529 0
M  V30 11060 O 1004.86 2.15179 -7.74566 0
M  V30 11061 H 1004.6 0.470574 -0.48532 0
M  V30 11062 H 1007.15 0.89152 -1.85043 0
M  V30 11063 H 1005.38 3.4445 -1.75759 0
M  V30 11064 H 1007.07 3.4264 -2.17607 0
M  V30 11065 H 1007.84 2.18773 -4.32855 0
M  V30 11066 H 1003.71 3.05005 -3.45677 0
M  V30 11067 H 1007.26 1.90084 -6.71203 0
M  V30 11068 H 1003.16 2.76679 -5.83197 0
M  V30 11069 H 1003.92 2.30106 -7.85489 0
M  V30 11070 N 1006.59 1.25851 0.948643 0
M  V30 11071 C 1007.53 1.06759 2.04625 0
M  V30 11072 C 1008.5 -0.0251144 1.66081 0
M  V30 11073 O 1009.69 0.133221 1.90334 0
M  V30 11074 C 1006.83 0.698724 3.37952 0
M  V30 11075 C 1005.94 1.8669 3.89578 0
M  V30 11076 C 1005.08 1.44184 5.11258 0
M  V30 11077 C 1004.12 2.57878 5.55126 0
M  V30 11078 N 1003.25 2.16106 6.68014 0
M  V30 11079 H 1008.09 2.00691 2.20289 0
M  V30 11080 H 1005.63 0.999327 1.07944 0
M  V30 11081 H 1007.59 0.465788 4.14592 0
M  V30 11082 H 1006.22 -0.203618 3.22157 0
M  V30 11083 H 1005.27 2.21298 3.09405 0
M  V30 11084 H 1006.58 2.72051 4.18079 0
M  V30 11085 H 1005.74 1.16891 5.95333 0
M  V30 11086 H 1004.47 0.559035 4.84485 0
M  V30 11087 H 1003.48 2.85909 4.69612 0
M  V30 11088 H 1004.7 3.46747 5.83904 0
M  V30 11089 H 1002.65 1.3025 6.42939 0
M  V30 11090 H 1002.57 2.95012 6.96063 0
M  V30 11091 H 1003.84 1.92005 7.55483 0
M  V30 11092 N 1008.06 -1.15214 1.07534 0
M  V30 11093 C 1009.48 -1.67628 0.822045 0
M  V30 11094 C 1009.83 -1.8503 -0.652571 0
M  V30 11095 O 1008.95 -1.55497 -1.50498 0
M  V30 11096 C 1009.55 -3.04489 1.48566 0
M  V30 11097 C 1008.11 -3.53974 1.27983 0
M  V30 11098 C 1007.25 -2.29656 1.55414 0
M  V30 11099 H 1010.2 -0.994016 1.23713 0
M  V30 11100 H 1010.22 -3.69509 0.907916 0
M  V30 11101 H 1009.74 -2.91792 2.55888 0
M  V30 11102 H 1007.84 -3.71908 0.226906 0
M  V30 11103 H 1007.95 -4.35298 2.0013 0
M  V30 11104 H 1006.31 -2.35289 0.975251 0
M  V30 11105 H 1007.1 -2.19544 2.63923 0
M  V30 11106 N 1009.54 -0.859717 -1.32086 0
M  V30 11107 C 1010.49 -0.306042 -2.28762 0
M  V30 11108 C 1011.46 0.589801 -1.55276 0
M  V30 11109 O 1012.64 0.523633 -1.83474 0
M  V30 11110 C 1009.78 0.495256 -3.41528 0
M  V30 11111 C 1008.9 -0.426947 -4.29885 0
M  V30 11112 C 1008.03 0.387474 -5.29785 0
M  V30 11113 C 1007.07 -0.531807 -6.09785 0
M  V30 11114 N 1006.21 0.245741 -7.0167 0
M  V30 11115 H 1011.05 -1.1357 -2.7551 0
M  V30 11116 H 1008.59 -0.571468 -1.35546 0
M  V30 11117 H 1010.54 0.97551 -4.05635 0
M  V30 11118 H 1009.17 1.28969 -2.95917 0
M  V30 11119 H 1008.23 -1.02561 -3.66313 0
M  V30 11120 H 1009.54 -1.13226 -4.85779 0
M  V30 11121 H 1008.69 0.930677 -5.99519 0
M  V30 11122 H 1007.43 1.12612 -4.74521 0
M  V30 11123 H 1006.44 -1.08685 -5.3895 0
M  V30 11124 H 1007.66 -1.26915 -6.67135 0
M  V30 11125 H 1005.61 0.967391 -6.48828 0
M  V30 11126 H 1005.52 -0.400432 -7.54939 0
M  V30 11127 H 1006.79 0.770507 -7.75683 0
M  V30 11128 N 1011.02 1.44971 -0.618145 0
M  V30 11129 C 1012.27 2.01372 -0.115004 0
M  V30 11130 C 1012.58 1.49104 1.26599 0
M  V30 11131 O 1013.79 1.97549 1.86244 0
M  V30 11132 C 1012.24 3.59567 -0.154883 0
M  V30 11133 C 1011.85 4.20832 -1.53639 0
M  V30 11134 C 1013.6 4.23491 0.292468 0
M  V30 11135 C 1011.5 5.7121 -1.53208 0
M  V30 11136 H 1010.43 0.752979 -0.0392267 0
M  V30 11137 H 1013.08 1.66329 -0.775032 0
M  V30 11138 H 1011.47 3.91847 0.572001 0
M  V30 11139 H 1012.64 4.00109 -2.28582 0
M  V30 11140 H 1010.96 3.69143 -1.92672 0
M  V30 11141 H 1013.55 5.33771 0.315032 0
M  V30 11142 H 1013.9 3.9491 1.31725 0
M  V30 11143 H 1014.43 3.95967 -0.381493 0
M  V30 11144 H 1011.17 6.04506 -2.53481 0
M  V30 11145 H 1010.69 5.94094 -0.825387 0
M  V30 11146 H 1012.37 6.34606 -1.26032 0
M  V30 11147 N 1012.5 0.357919 1.53482 0
M  V30 11148 C 1013.78 -0.290164 1.93436 0
M  V30 11149 C 1014.16 -1.67039 1.29079 0
M  V30 11150 O 1013.5 -2.24085 0.447017 0
M  V30 11151 C 1013.71 -0.348055 3.4726 0
M  V30 11152 C 1015.06 -0.59206 4.20452 0
M  V30 11153 O 1016.09 -0.429581 3.536 0
M  V30 11154 O 1014.94 -0.907855 5.38907 0
M  V30 11155 H 1012.04 -0.172312 0.80885 0
M  V30 11156 H 1014.58 0.410144 1.64669 0
M  V30 11157 H 1013.36 0.619953 3.86358 0
M  V30 11158 H 1012.98 -1.09457 3.82237 0
M  V30 11159 N 1013.98 -1.5736 0.0868897 0
M  V30 11160 C 1014.91 -2.10582 -0.904858 0
M  V30 11161 C 1015.92 -1.04124 -1.25148 0
M  V30 11162 O 1017.11 -1.31595 -1.20603 0
M  V30 11163 C 1014.21 -2.56381 -2.21635 0
M  V30 11164 C 1013.38 -3.86581 -2.04631 0
M  V30 11165 C 1012.44 -4.18313 -3.19219 0
M  V30 11166 O 1011.47 -4.87669 -2.93544 0
M  V30 11167 N 1012.67 -3.73061 -4.44754 0
M  V30 11168 H 1015.44 -2.96297 -0.450352 0
M  V30 11169 H 1013 -1.616 -0.0984376 0
M  V30 11170 H 1014.99 -2.7466 -2.97227 0
M  V30 11171 H 1013.56 -1.75721 -2.58536 0
M  V30 11172 H 1012.78 -3.77532 -1.13417 0
M  V30 11173 H 1014.07 -4.71777 -1.90537 0
M  V30 11174 H 1013.46 -3.1706 -4.68497 0
M  V30 11175 H 1012.02 -3.96511 -5.17322 0
M  V30 11176 N 1015.45 0.186762 -1.56489 0
M  V30 11177 C 1016.38 1.23395 -1.98232 0
M  V30 11178 C 1017.37 1.4702 -0.855526 0
M  V30 11179 O 1018.55 1.58616 -1.12048 0
M  V30 11180 C 1015.68 2.57635 -2.32898 0
M  V30 11181 C 1014.63 2.48607 -3.48394 0
M  V30 11182 C 1013.96 3.87196 -3.68759 0
M  V30 11183 C 1015.26 2.00398 -4.82325 0
M  V30 11184 H 1016.95 0.887026 -2.85958 0
M  V30 11185 H 1014.5 0.42525 -1.37578 0
M  V30 11186 H 1016.45 3.31082 -2.60696 0
M  V30 11187 H 1015.18 2.94084 -1.42064 0
M  V30 11188 H 1013.84 1.77615 -3.207 0
M  V30 11189 H 1013.48 4.21012 -2.75241 0
M  V30 11190 H 1013.18 3.82029 -4.46462 0
M  V30 11191 H 1014.71 4.62253 -3.98941 0
M  V30 11192 H 1016.12 2.6361 -5.091 0
M  V30 11193 H 1014.52 2.06214 -5.63556 0
M  V30 11194 H 1015.59 0.957562 -4.75351 0
M  V30 11195 N 1016.93 1.50896 0.454776 0
M  V30 11196 C 1017.84 1.73762 1.5762 0
M  V30 11197 C 1018.86 0.621206 1.62533 0
M  V30 11198 O 1020.03 0.901449 1.801 0
M  V30 11199 C 1017.1 1.84183 2.9373 0
M  V30 11200 C 1016.16 3.07982 2.99075 0
M  V30 11201 C 1015.39 3.17896 4.28693 0
M  V30 11202 O 1015.62 2.34184 5.20109 0
M  V30 11203 O 1014.55 4.10749 4.39964 0
M  V30 11204 H 1018.38 2.68856 1.41245 0
M  V30 11205 H 1015.96 1.35187 0.635984 0
M  V30 11206 H 1017.84 1.93123 3.74542 0
M  V30 11207 H 1016.52 0.922742 3.10269 0
M  V30 11208 H 1015.43 3.04531 2.17282 0
M  V30 11209 H 1016.76 3.99523 2.87476 0
M  V30 11210 N 1018.41 -0.709066 1.40748 0
M  V30 11211 C 1019.66 -1.46611 1.39103 0
M  V30 11212 C 1019.98 -1.95 -0.00365366 0
M  V30 11213 O 1019.25 -1.70791 -0.959541 0
M  V30 11214 H 1017.83 -0.543954 0.511979 0
M  V30 11215 H 1020.49 -0.840141 1.75863 0
M  V30 11216 H 1019.59 -2.33581 2.06994 0
M  V30 11217 N 1019.89 -1.26353 -0.941956 0
M  V30 11218 C 1021.17 -1.02601 -1.6653 0
M  V30 11219 C 1021.55 0.44381 -2.06382 0
M  V30 11220 O 1020.89 1.42399 -1.78703 0
M  V30 11221 C 1021.1 -1.97401 -2.87809 0
M  V30 11222 C 1022.45 -2.25967 -3.59478 0
M  V30 11223 O 1023.48 -1.95261 -2.97912 0
M  V30 11224 O 1022.34 -2.78244 -4.70364 0
M  V30 11225 H 1019.43 -0.39007 -0.729228 0
M  V30 11226 H 1021.98 -1.37559 -0.993754 0
M  V30 11227 H 1020.75 -2.9659 -2.55245 0
M  V30 11228 H 1020.37 -1.62918 -3.62689 0
M  V30 11229 N 1021.37 1.14642 -1.08144 0
M  V30 11230 C 1022.32 2.17665 -0.678661 0
M  V30 11231 C 1023.3 1.58072 0.300336 0
M  V30 11232 O 1024.49 1.7664 0.112781 0
M  V30 11233 C 1021.62 3.43191 -0.0866362 0
M  V30 11234 C 1020.71 4.0982 -1.09126 0
M  V30 11235 N 1021.1 4.51814 -2.27372 0
M  V30 11236 C 1019.4 4.36272 -0.926411 0
M  V30 11237 C 1020.1 5.03581 -2.91172 0
M  V30 11238 N 1019.07 4.97624 -2.18795 0
M  V30 11239 H 1022.88 2.47872 -1.57914 0
M  V30 11240 H 1020.39 1.31296 -0.955772 0
M  V30 11241 H 1022.39 4.1632 0.219859 0
M  V30 11242 H 1021.05 3.14464 0.80886 0
M  V30 11243 H 1022.06 4.44941 -2.65044 0
M  V30 11244 H 1018.74 4.17414 -0.084492 0
M  V30 11245 H 1020.13 5.45969 -3.91621 0
M  V30 11246 N 1022.85 0.866709 1.31628 0
M  V30 11247 C 1023.78 0.277328 2.27516 0
M  V30 11248 C 1024.79 -0.557786 1.52946 0
M  V30 11249 O 1025.98 -0.38031 1.74402 0
M  V30 11250 C 1023.08 -0.625742 3.33073 0
M  V30 11251 C 1022.25 0.176204 4.37045 0
M  V30 11252 C 1021.31 -0.654497 5.22114 0
M  V30 11253 O 1020.34 -0.0836961 5.69138 0
M  V30 11254 N 1021.54 -1.96708 5.46156 0
M  V30 11255 H 1024.3 1.10133 2.78731 0
M  V30 11256 H 1021.87 0.72787 1.44616 0
M  V30 11257 H 1023.86 -1.18709 3.86898 0
M  V30 11258 H 1022.43 -1.35042 2.81926 0
M  V30 11259 H 1021.65 0.918999 3.83338 0
M  V30 11260 H 1022.94 0.726594 5.03585 0
M  V30 11261 H 1022.33 -2.454 5.09701 0
M  V30 11262 H 1020.89 -2.47629 6.02929 0
M  V30 11263 N 1024.32 -1.44642 0.625825 0
M  V30 11264 C 1025.25 -2.33397 -0.0692188 0
M  V30 11265 C 1026.23 -1.47898 -0.840241 0
M  V30 11266 O 1027.42 -1.7663 -0.807176 0
M  V30 11267 C 1024.55 -3.30888 -1.055 0
M  V30 11268 C 1023.5 -4.26164 -0.395968 0
M  V30 11269 C 1022.83 -5.13483 -1.49128 0
M  V30 11270 C 1024.13 -5.17663 0.694433 0
M  V30 11271 H 1025.82 -2.91763 0.671925 0
M  V30 11272 H 1023.37 -1.40294 0.324573 0
M  V30 11273 H 1025.32 -3.91861 -1.54993 0
M  V30 11274 H 1024.05 -2.7072 -1.82696 0
M  V30 11275 H 1022.71 -3.66516 0.0782691 0
M  V30 11276 H 1022.35 -4.49672 -2.25399 0
M  V30 11277 H 1022.05 -5.78038 -1.05573 0
M  V30 11278 H 1023.58 -5.77327 -1.98813 0
M  V30 11279 H 1024.99 -5.72602 0.282818 0
M  V30 11280 H 1023.39 -5.90793 1.05281 0
M  V30 11281 H 1024.46 -4.58994 1.56372 0
M  V30 11282 N 1025.8 -0.366053 -1.5329 0
M  V30 11283 C 1027.05 0.224614 -2.00445 0
M  V30 11284 C 1027.36 1.49829 -1.2574 0
M  V30 11285 O 1028.57 2.16759 -1.63487 0
M  V30 11286 C 1027.03 0.450818 -3.57065 0
M  V30 11287 C 1026.63 -0.808257 -4.40649 0
M  V30 11288 C 1028.38 0.999116 -4.12575 0
M  V30 11289 C 1026.28 -0.551612 -5.88822 0
M  V30 11290 H 1025.21 0.0877114 -0.748881 0
M  V30 11291 H 1027.87 -0.484866 -1.76978 0
M  V30 11292 H 1026.25 1.22157 -3.76688 0
M  V30 11293 H 1027.42 -1.58184 -4.32798 0
M  V30 11294 H 1025.74 -1.27981 -3.96245 0
M  V30 11295 H 1028.33 1.20646 -5.20911 0
M  V30 11296 H 1028.68 1.96139 -3.67199 0
M  V30 11297 H 1029.21 0.288518 -3.96752 0
M  V30 11298 H 1025.95 -1.48423 -6.38475 0
M  V30 11299 H 1025.47 0.183462 -5.99519 0
M  V30 11300 H 1027.15 -0.177307 -6.46757 0
M  V30 11301 N 1027.28 1.57312 -0.0952337 0
M  V30 11302 C 1028.21 2.11059 0.893678 0
M  V30 11303 C 1029.22 1.04787 1.24594 0
M  V30 11304 O 1030.41 1.32233 1.19903 0
M  V30 11305 C 1027.51 2.57552 2.20272 0
M  V30 11306 C 1026.69 3.87661 2.02578 0
M  V30 11307 C 1025.75 4.2 3.16996 0
M  V30 11308 O 1024.77 4.89219 2.90953 0
M  V30 11309 N 1025.97 3.75414 4.42769 0
M  V30 11310 H 1028.74 2.96532 0.434632 0
M  V30 11311 H 1026.3 1.6165 0.0898661 0
M  V30 11312 H 1028.29 2.76232 2.95766 0
M  V30 11313 H 1026.86 1.7709 2.576 0
M  V30 11314 H 1026.08 3.78128 1.11413 0
M  V30 11315 H 1027.37 4.7278 1.88032 0
M  V30 11316 H 1026.77 3.1954 4.66809 0
M  V30 11317 H 1025.32 3.99249 5.15212 0
M  V30 11318 N 1028.76 -0.17846 1.56586 0
M  V30 11319 C 1029.67 -1.24115 1.9908 0
M  V30 11320 C 1030.68 -1.48854 0.901031 0
M  V30 11321 O 1031.86 -1.61142 1.2081 0
M  V30 11322 C 1028.92 -2.56187 2.33601 0
M  V30 11323 C 1027.99 -2.39373 3.56369 0
M  V30 11324 C 1027.22 -3.65147 3.89234 0
M  V30 11325 O 1027.44 -4.70024 3.23162 0
M  V30 11326 O 1026.38 -3.59683 4.82609 0
M  V30 11327 H 1030.2 -0.910482 2.89731 0
M  V30 11328 H 1027.79 -0.38477 1.4436 0
M  V30 11329 H 1029.67 -3.34109 2.56806 0
M  V30 11330 H 1028.34 -2.88847 1.46113 0
M  V30 11331 H 1027.25 -1.59506 3.38391 0
M  V30 11332 H 1028.58 -2.1164 4.44375 0
M  V30 11333 N 1030.24 -1.51135 -0.446768 0
M  V30 11334 C 1031.2 -1.71187 -1.52406 0
M  V30 11335 C 1032.2 -0.582037 -1.49897 0
M  V30 11336 O 1033.39 -0.849452 -1.52085 0
M  V30 11337 C 1030.52 -1.75962 -2.91976 0
M  V30 11338 H 1031.71 -2.67324 -1.35934 0
M  V30 11339 H 1029.27 -1.40982 -0.674813 0
M  V30 11340 H 1030 -0.816065 -3.13864 0
M  V30 11341 H 1029.79 -2.58065 -2.95203 0
M  V30 11342 H 1031.28 -1.93347 -3.70144 0
M  V30 11343 N 1031.71 0.701592 -1.41122 0
M  V30 11344 C 1032.64 1.82815 -1.45262 0
M  V30 11345 C 1033.62 1.67215 -0.311939 0
M  V30 11346 O 1034.81 1.87038 -0.522538 0
M  V30 11347 C 1031.94 3.20899 -1.32819 0
M  V30 11348 C 1030.89 3.51194 -2.44636 0
M  V30 11349 C 1030.22 4.8857 -2.17263 0
M  V30 11350 C 1031.52 3.50777 -3.86979 0
M  V30 11351 H 1033.21 1.79608 -2.39544 0
M  V30 11352 H 1030.76 0.862693 -1.15298 0
M  V30 11353 H 1032.71 3.99417 -1.34329 0
M  V30 11354 H 1031.44 3.24717 -0.350191 0
M  V30 11355 H 1030.1 2.75024 -2.42399 0
M  V30 11356 H 1029.74 4.89007 -1.17819 0
M  V30 11357 H 1029.44 5.09805 -2.92186 0
M  V30 11358 H 1030.97 5.69405 -2.20478 0
M  V30 11359 H 1032.38 4.19309 -3.90964 0
M  V30 11360 H 1030.78 3.83542 -4.61536 0
M  V30 11361 H 1031.85 2.49873 -4.15562 0
M  V30 11362 N 1033.19 1.2685 0.935242 0
M  V30 11363 C 1034.44 1.12132 1.67658 0
M  V30 11364 C 1034.75 -0.333839 1.9273 0
M  V30 11365 O 1035.96 -0.601801 2.64746 0
M  V30 11366 C 1034.42 1.95873 3.0193 0
M  V30 11367 C 1034.02 3.46 2.84584 0
M  V30 11368 C 1035.77 1.89781 3.79715 0
M  V30 11369 C 1033.67 4.21966 4.14365 0
M  V30 11370 H 1032.6 0.416035 0.628833 0
M  V30 11371 H 1035.26 1.51209 1.03962 0
M  V30 11372 H 1033.64 1.49633 3.66641 0
M  V30 11373 H 1034.81 4.00049 2.28687 0
M  V30 11374 H 1033.13 3.53391 2.20236 0
M  V30 11375 H 1035.72 2.43819 4.75875 0
M  V30 11376 H 1036.07 0.869797 4.07112 0
M  V30 11377 H 1036.6 2.33875 3.21788 0
M  V30 11378 H 1033.34 5.2526 3.9215 0
M  V30 11379 H 1032.86 3.72696 4.69955 0
M  V30 11380 H 1034.54 4.30734 4.82781 0
M  V30 11381 N 1034.67 -1.14067 1.0875 0
M  V30 11382 C 1035.92 -1.85185 0.819317 0
M  V30 11383 C 1036.25 -1.8314 -0.654969 0
M  V30 11384 O 1035.5 -1.25974 -1.49763 0
M  V30 11385 C 1035.8 -3.33273 1.29089 0
M  V30 11386 C 1035.47 -3.55504 2.77359 0
M  V30 11387 C 1034.13 -3.61279 3.17853 0
M  V30 11388 C 1036.48 -3.64041 3.72992 0
M  V30 11389 C 1033.81 -3.73119 4.52768 0
M  V30 11390 C 1036.16 -3.77407 5.07687 0
M  V30 11391 C 1034.82 -3.81433 5.47782 0
M  V30 11392 H 1034.09 -0.67764 0.299809 0
M  V30 11393 H 1036.74 -1.34713 1.36106 0
M  V30 11394 H 1035.05 -3.86049 0.668811 0
M  V30 11395 H 1036.74 -3.86734 1.06009 0
M  V30 11396 H 1033.33 -3.51659 2.45019 0
M  V30 11397 H 1037.52 -3.58866 3.42825 0
M  V30 11398 H 1032.77 -3.74499 4.83281 0
M  V30 11399 H 1036.95 -3.82956 5.81651 0
M  V30 11400 H 1034.57 -3.9036 6.52321 0
M  V30 11401 N 1036.15 -0.873678 -1.31166 0
M  V30 11402 C 1037.43 -0.40698 -1.91319 0
M  V30 11403 C 1037.81 1.1113 -1.79481 0
M  V30 11404 O 1037.15 1.94155 -1.20483 0
M  V30 11405 C 1037.36 -0.892484 -3.37396 0
M  V30 11406 C 1038.71 -0.920795 -4.14496 0
M  V30 11407 O 1039.74 -0.838386 -3.46193 0
M  V30 11408 O 1038.59 -1.04069 -5.365 0
M  V30 11409 H 1035.69 -0.122439 -0.817886 0
M  V30 11410 H 1038.23 -0.961835 -1.3981 0
M  V30 11411 H 1037.01 -1.93613 -3.40044 0
M  V30 11412 H 1036.63 -0.31615 -3.96341 0
M  V30 11413 N 1037.63 1.44308 -0.633487 0
M  V30 11414 C 1038.57 2.32455 0.0821956 0
M  V30 11415 C 1039.57 1.47482 0.833388 0
M  V30 11416 O 1040.77 1.63812 0.746021 0
M  V30 11417 H 1037.15 0.750631 0.045352 0
M  V30 11418 H 1039.12 2.90566 -0.679282 0
M  V30 11419 C 1037.87 3.31512 1.04858 0
M  V30 11420 H 1037.19 3.96908 0.479979 0
M  V30 11421 H 1038.63 3.95865 1.51879 0
M  V30 11422 C 1037.09 2.60615 2.13498 0
M  V30 11423 O 1037.62 2.40682 3.21613 0
M  V30 11424 N 1035.83 2.20315 1.89499 0
M  V30 11425 H 1035.37 2.36726 1.01581 0
M  V30 11426 H 1035.33 1.73205 2.62388 0
M  V30 11427 N 1039.1 0.374177 1.53094 0
M  V30 11428 C 1040.05 -0.468226 2.26001 0
M  V30 11429 C 1041.02 -1.07041 1.27009 0
M  V30 11430 O 1042.21 -1.10129 1.55809 0
M  V30 11431 C 1039.35 -1.59754 3.05896 0
M  V30 11432 C 1038.46 -1.01969 4.19793 0
M  V30 11433 C 1037.59 -2.11882 4.87113 0
M  V30 11434 C 1036.63 -1.51607 5.93028 0
M  V30 11435 N 1035.77 -2.55388 6.54004 0
M  V30 11436 H 1040.61 0.159983 2.9757 0
M  V30 11437 H 1038.15 0.0907196 1.4682 0
M  V30 11438 H 1040.11 -2.26288 3.50499 0
M  V30 11439 H 1038.74 -2.19628 2.36565 0
M  V30 11440 H 1037.79 -0.244386 3.79614 0
M  V30 11441 H 1039.1 -0.539089 4.95878 0
M  V30 11442 H 1038.25 -2.86218 5.34943 0
M  V30 11443 H 1036.99 -2.63297 4.10519 0
M  V30 11444 H 1036 -0.757891 5.44551 0
M  V30 11445 H 1037.22 -1.01006 6.71546 0
M  V30 11446 H 1035.17 -3.06 5.80258 0
M  V30 11447 H 1035.09 -2.12039 7.25655 0
M  V30 11448 H 1036.35 -3.294 7.06481 0
M  V30 11449 N 1040.58 -1.57259 0.103575 0
M  V30 11450 C 1041.53 -2.11032 -0.863101 0
M  V30 11451 C 1042.52 -1.02737 -1.2383 0
M  V30 11452 O 1043.71 -1.28997 -1.21197 0
M  V30 11453 C 1040.84 -2.70099 -2.11899 0
M  V30 11454 C 1039.92 -3.85451 -1.76885 0
M  V30 11455 N 1040.31 -4.93137 -1.12469 0
M  V30 11456 C 1038.61 -3.95346 -2.06441 0
M  V30 11457 C 1039.31 -5.73681 -0.962527 0
M  V30 11458 N 1038.29 -5.22992 -1.48258 0
M  V30 11459 H 1042.09 -2.91671 -0.361264 0
M  V30 11460 H 1039.61 -1.62096 -0.0993794 0
M  V30 11461 H 1041.6 -3.06957 -2.82104 0
M  V30 11462 H 1040.26 -1.90918 -2.62641 0
M  V30 11463 H 1041.27 -5.11832 -0.790489 0
M  V30 11464 H 1037.95 -3.27185 -2.59338 0
M  V30 11465 H 1039.34 -6.70337 -0.458098 0
M  V30 11466 N 1042.06 0.170153 -1.56679 0
M  V30 11467 C 1043.29 0.902134 -1.86197 0
M  V30 11468 C 1043.7 1.75775 -0.689098 0
M  V30 11469 O 1043.06 1.79271 0.341763 0
M  V30 11470 C 1043.11 1.77792 -3.14757 0
M  V30 11471 O 1042.83 0.956817 -4.27524 0
M  V30 11472 C 1044.33 2.61947 -3.57629 0
M  V30 11473 H 1041.55 0.262026 -0.617724 0
M  V30 11474 H 1044.1 0.169899 -2.03793 0
M  V30 11475 H 1042.25 2.46348 -2.98984 0
M  V30 11476 H 1042.67 1.5559 -5.00891 0
M  V30 11477 H 1044.14 3.19011 -4.50484 0
M  V30 11478 H 1044.62 3.36873 -2.81803 0
M  V30 11479 H 1045.22 1.98721 -3.76019 0
M  V30 11480 N 1043.54 1.5137 0.438746 0
M  V30 11481 C 1044.49 1.73154 1.55308 0
M  V30 11482 C 1045.48 0.597825 1.58501 0
M  V30 11483 O 1046.69 0.77917 1.62262 0
M  V30 11484 H 1043.06 0.547083 0.51595 0
M  V30 11485 H 1045.03 2.66566 1.34108 0
M  V30 11486 C 1043.78 1.87242 2.92977 0
M  V30 11487 H 1043.1 2.73884 2.91252 0
M  V30 11488 H 1044.54 2.06497 3.70317 0
M  V30 11489 C 1043 0.631887 3.30921 0
M  V30 11490 O 1043.53 -0.214099 4.01129 0
M  V30 11491 N 1041.74 0.47639 2.86669 0
M  V30 11492 H 1041.29 1.16589 2.29706 0
M  V30 11493 H 1041.24 -0.352403 3.12419 0
M  V30 11494 N 1045.02 -0.694098 1.41492 0
M  V30 11495 C 1046.25 -1.48071 1.44078 0
M  V30 11496 C 1046.65 -1.89147 0.0448984 0
M  V30 11497 O 1046 -1.57441 -0.946464 0
M  V30 11498 C 1046.06 -2.77324 2.28761 0
M  V30 11499 C 1045.72 -2.58443 3.76904 0
M  V30 11500 C 1046.72 -2.24294 4.69029 0
M  V30 11501 C 1044.41 -2.74037 4.20962 0
M  V30 11502 C 1046.4 -2.0598 6.03201 0
M  V30 11503 C 1044.09 -2.5534 5.55198 0
M  V30 11504 C 1045.08 -2.21362 6.46133 0
M  V30 11505 O 1044.77 -2.02829 7.77892 0
M  V30 11506 H 1044.5 -0.462794 0.492745 0
M  V30 11507 H 1047.06 -0.861968 1.86438 0
M  V30 11508 H 1045.29 -3.4161 1.81217 0
M  V30 11509 H 1046.98 -3.39134 2.23031 0
M  V30 11510 H 1047.74 -2.11859 4.36281 0
M  V30 11511 H 1043.62 -2.99467 3.50486 0
M  V30 11512 H 1047.17 -1.79382 6.74142 0
M  V30 11513 H 1043.06 -2.67366 5.87525 0
M  V30 11514 H 1043.83 -2.17581 7.89051 0
M  V30 11515 N 1046.49 -1.27344 -0.928501 0
M  V30 11516 C 1047.72 -1.16447 -1.7102 0
M  V30 11517 C 1048.14 0.278799 -1.8673 0
M  V30 11518 O 1047.49 1.18989 -1.38376 0
M  V30 11519 C 1047.55 -1.84242 -3.11026 0
M  V30 11520 O 1047.27 -3.2293 -2.96054 0
M  V30 11521 C 1048.77 -1.7946 -4.05351 0
M  V30 11522 H 1045.99 -0.404898 -0.535069 0
M  V30 11523 H 1048.53 -1.68201 -1.16313 0
M  V30 11524 H 1046.69 -1.36395 -3.62595 0
M  V30 11525 H 1047.1 -3.5667 -3.8456 0
M  V30 11526 H 1048.57 -2.31511 -5.01105 0
M  V30 11527 H 1049.05 -0.763771 -4.32508 0
M  V30 11528 H 1049.66 -2.26918 -3.59706 0
M  V30 11529 N 1047.97 1.13488 -1.09353 0
M  V30 11530 C 1048.91 2.17951 -0.67622 0
M  V30 11531 C 1049.88 1.59482 0.316906 0
M  V30 11532 O 1051.07 1.8723 0.218459 0
M  V30 11533 C 1048.19 3.387 0.00391024 0
M  V30 11534 C 1047.24 4.15764 -0.950906 0
M  V30 11535 S 1048.07 4.75517 -2.46259 0
M  V30 11536 C 1049.23 5.99613 -1.79485 0
M  V30 11537 H 1049.46 2.53012 -1.56115 0
M  V30 11538 H 1047 1.24773 -0.909447 0
M  V30 11539 H 1048.95 4.08643 0.39002 0
M  V30 11540 H 1047.61 3.01941 0.86548 0
M  V30 11541 H 1046.81 5.02229 -0.422086 0
M  V30 11542 H 1046.41 3.51473 -1.27838 0
M  V30 11543 H 1048.7 6.68204 -1.11846 0
M  V30 11544 H 1049.64 6.57102 -2.63862 0
M  V30 11545 H 1050.05 5.50165 -1.26409 0
M  V30 11546 N 1049.45 0.880621 1.30701 0
M  V30 11547 C 1050.36 0.348034 2.32004 0
M  V30 11548 C 1051.38 -0.547508 1.65162 0
M  V30 11549 O 1052.55 -0.441673 1.96497 0
M  V30 11550 C 1049.62 -0.432585 3.43991 0
M  V30 11551 C 1048.68 0.492189 4.26469 0
M  V30 11552 C 1047.91 -0.25127 5.33108 0
M  V30 11553 O 1048.14 -1.47795 5.5092 0
M  V30 11554 O 1047.07 0.396376 6.00593 0
M  V30 11555 H 1050.9 1.18798 2.79501 0
M  V30 11556 H 1048.48 0.64432 1.34792 0
M  V30 11557 H 1050.36 -0.874733 4.12221 0
M  V30 11558 H 1049.04 -1.2489 2.98637 0
M  V30 11559 H 1047.94 0.983058 3.60953 0
M  V30 11560 H 1049.28 1.27439 4.75416 0
M  V30 11561 N 1050.93 -1.4397 0.641131 0
M  V30 11562 C 1051.88 -2.2786 -0.079879 0
M  V30 11563 C 1052.86 -1.39227 -0.80651 0
M  V30 11564 O 1054.06 -1.62956 -0.690969 0
M  V30 11565 C 1051.18 -3.26722 -1.05394 0
M  V30 11566 C 1050.27 -4.22842 -0.326411 0
M  V30 11567 N 1050.66 -5.016 0.650464 0
M  V30 11568 C 1048.96 -4.42349 -0.569507 0
M  V30 11569 C 1049.66 -5.71563 1.08121 0
M  V30 11570 N 1048.64 -5.41991 0.417932 0
M  V30 11571 H 1052.44 -2.86163 0.669906 0
M  V30 11572 H 1049.95 -1.55528 0.467433 0
M  V30 11573 H 1051.95 -3.85588 -1.58517 0
M  V30 11574 H 1050.61 -2.69979 -1.80392 0
M  V30 11575 H 1051.62 -5.07581 1.0287 0
M  V30 11576 H 1048.3 -3.96693 -1.30159 0
M  V30 11577 H 1049.69 -6.44805 1.88883 0
M  V30 11578 N 1052.41 -0.382291 -1.52893 0
M  V30 11579 C 1053.66 0.203342 -2.00672 0
M  V30 11580 C 1053.97 1.48487 -1.27322 0
M  V30 11581 O 1055.18 2.15013 -1.65776 0
M  V30 11582 C 1053.63 0.412922 -3.57523 0
M  V30 11583 C 1053.24 -0.854949 -4.39767 0
M  V30 11584 C 1054.98 0.955301 -4.13611 0
M  V30 11585 C 1052.89 -0.614033 -5.88204 0
M  V30 11586 H 1051.82 0.0797635 -0.749769 0
M  V30 11587 H 1054.47 -0.50361 -1.76454 0
M  V30 11588 H 1052.85 1.18155 -3.77962 0
M  V30 11589 H 1054.03 -1.62765 -4.31096 0
M  V30 11590 H 1052.34 -1.32176 -3.94865 0
M  V30 11591 H 1054.94 1.15114 -5.22162 0
M  V30 11592 H 1055.28 1.92233 -3.69259 0
M  V30 11593 H 1055.82 0.24642 -3.97036 0
M  V30 11594 H 1052.55 -1.55187 -6.36865 0
M  V30 11595 H 1052.07 0.119865 -5.9968 0
M  V30 11596 H 1053.75 -0.245895 -6.46533 0
M  V30 11597 N 1053.89 1.57202 -0.111913 0
M  V30 11598 C 1055.3 1.57713 0.244702 0
M  V30 11599 C 1055.5 1.12419 1.67225 0
M  V30 11600 O 1054.56 0.808329 2.39212 0
M  V30 11601 C 1055.87 3.00695 0.0178289 0
M  V30 11602 C 1057.42 3.12887 0.0842781 0
M  V30 11603 C 1057.89 4.57856 -0.114812 0
M  V30 11604 N 1059.38 4.6316 -0.0605423 0
M  V30 11605 C 1060.12 5.73086 -0.189594 0
M  V30 11606 N 1059.62 6.91787 -0.37442 0
M  V30 11607 N 1061.41 5.6195 -0.12967 0
M  V30 11608 H 1053.56 1.84947 -1.04443 0
M  V30 11609 H 1055.82 0.854418 -0.4107 0
M  V30 11610 H 1055.53 3.38093 -0.968802 0
M  V30 11611 H 1055.4 3.69611 0.752815 0
M  V30 11612 H 1057.79 2.7535 1.06143 0
M  V30 11613 H 1057.87 2.46528 -0.682474 0
M  V30 11614 H 1057.51 4.9609 -1.0889 0
M  V30 11615 H 1057.44 5.22297 0.671839 0
M  V30 11616 H 1059.94 3.77817 0.0790856 0
M  V30 11617 H 1060.25 7.71406 -0.463948 0
M  V30 11618 H 1058.59 6.93788 -0.410303 0
M  V30 11619 H 1061.78 4.68098 0.0137115 0
M  V30 11620 H 1061.96 6.47578 -0.233688 0
M  V30 11621 N 1055.36 -0.161842 1.56767 0
M  V30 11622 C 1056.61 -0.878224 1.82798 0
M  V30 11623 C 1056.94 -1.81481 0.691242 0
M  V30 11624 O 1056.22 -1.92075 -0.30618 0
M  V30 11625 C 1056.5 -1.66565 3.19262 0
M  V30 11626 C 1056.35 -0.751551 4.43477 0
M  V30 11627 C 1057.67 -2.63134 3.52773 0
M  V30 11628 H 1054.79 -0.317828 0.664947 0
M  V30 11629 H 1057.43 -0.14402 1.89453 0
M  V30 11630 H 1055.58 -2.29157 3.13719 0
M  V30 11631 H 1057.26 -0.137783 4.61094 0
M  V30 11632 H 1055.5 -0.0601785 4.33758 0
M  V30 11633 H 1056.17 -1.33823 5.35533 0
M  V30 11634 H 1058.65 -2.10666 3.5883 0
M  V30 11635 H 1057.52 -3.15289 4.49315 0
M  V30 11636 H 1057.78 -3.43786 2.77963 0
M  V30 11637 N 1056.84 -1.516 -0.430713 0
M  V30 11638 C 1058.09 -1.64271 -1.17726 0
M  V30 11639 C 1058.41 -0.364406 -1.91565 0
M  V30 11640 O 1057.68 0.619991 -1.8583 0
M  V30 11641 H 1056.26 -0.605432 -0.437562 0
M  V30 11642 H 1058.92 -1.88557 -0.493166 0
M  V30 11643 H 1058.02 -2.47355 -1.90321 0
M  V30 11644 N 1058.32 0.686584 -1.41858 0
M  V30 11645 C 1059.57 1.44738 -1.42908 0
M  V30 11646 C 1059.92 1.92357 -0.0404705 0
M  V30 11647 O 1059.21 1.67221 0.935287 0
M  V30 11648 C 1059.41 2.66793 -2.37816 0
M  V30 11649 C 1059.24 2.31114 -3.85767 0
M  V30 11650 C 1058.01 2.21043 -4.54388 0
M  V30 11651 C 1060.2 1.93512 -4.76505 0
M  V30 11652 N 1058.19 1.78344 -5.87424 0
M  V30 11653 C 1059.56 1.61642 -5.98558 0
M  V30 11654 C 1061.61 1.80401 -4.64069 0
M  V30 11655 C 1060.32 1.17977 -7.09559 0
M  V30 11656 C 1062.34 1.38141 -5.7504 0
M  V30 11657 C 1061.7 1.07186 -6.96197 0
M  V30 11658 H 1057.8 0.526577 -0.578136 0
M  V30 11659 H 1060.39 0.793483 -1.77797 0
M  V30 11660 H 1058.56 3.29889 -2.05007 0
M  V30 11661 H 1060.29 3.33318 -2.29524 0
M  V30 11662 H 1057.04 2.39731 -4.08443 0
M  V30 11663 H 1057.47 1.59451 -6.57955 0
M  V30 11664 H 1062.11 2.02983 -3.70888 0
M  V30 11665 H 1059.83 0.941397 -8.02598 0
M  V30 11666 H 1063.41 1.28533 -5.67425 0
M  V30 11667 H 1062.29 0.749804 -7.80607 0
M  V30 11668 N 1059.8 1.27835 0.921735 0
M  V30 11669 C 1060.71 1.12904 2.05645 0
M  V30 11670 C 1061.72 0.0575704 1.73905 0
M  V30 11671 O 1062.9 0.265261 1.99645 0
M  V30 11672 C 1059.96 0.783957 3.3772 0
M  V30 11673 C 1059.03 1.93694 3.8312 0
M  V30 11674 C 1058.26 1.60823 5.08893 0
M  V30 11675 O 1058.48 0.518873 5.68035 0
M  V30 11676 O 1057.42 2.44932 5.49811 0
M  V30 11677 H 1061.24 2.08143 2.21157 0
M  V30 11678 H 1058.83 1.07078 1.04185 0
M  V30 11679 H 1060.71 0.605107 4.17033 0
M  V30 11680 H 1059.38 -0.138849 3.23402 0
M  V30 11681 H 1058.29 2.17089 3.04669 0
M  V30 11682 H 1059.62 2.84016 4.0199 0
M  V30 11683 N 1061.28 -1.12907 1.09954 0
M  V30 11684 C 1062.21 -2.18194 0.701701 0
M  V30 11685 C 1063.22 -1.60724 -0.259131 0
M  V30 11686 O 1064.41 -1.78445 -0.0443549 0
M  V30 11687 C 1061.51 -3.38897 0.0140602 0
M  V30 11688 C 1060.68 -4.25867 0.997807 0
M  V30 11689 C 1059.74 -5.25084 0.34257 0
M  V30 11690 O 1058.77 -5.60492 0.991857 0
M  V30 11691 N 1059.97 -5.73464 -0.901058 0
M  V30 11692 H 1062.73 -2.52939 1.60755 0
M  V30 11693 H 1060.3 -1.28281 0.987703 0
M  V30 11694 H 1062.29 -4.02349 -0.435628 0
M  V30 11695 H 1060.86 -3.02345 -0.794118 0
M  V30 11696 H 1060.08 -3.59107 1.6259 0
M  V30 11697 H 1061.37 -4.80825 1.66388 0
M  V30 11698 H 1060.76 -5.46854 -1.44802 0
M  V30 11699 H 1059.32 -6.38827 -1.29398 0
M  V30 11700 N 1062.75 -0.88754 -1.30232 0
M  V30 11701 C 1063.68 -0.372481 -2.3051 0
M  V30 11702 C 1064.66 0.546037 -1.61098 0
M  V30 11703 O 1065.85 0.459345 -1.88689 0
M  V30 11704 C 1062.98 0.411605 -3.44852 0
M  V30 11705 C 1061.93 -0.415383 -4.2598 0
M  V30 11706 C 1061.26 0.495463 -5.324 0
M  V30 11707 C 1062.56 -1.65886 -4.95257 0
M  V30 11708 H 1064.25 -1.21045 -2.7384 0
M  V30 11709 H 1061.8 -0.583498 -1.31648 0
M  V30 11710 H 1063.75 0.782584 -4.1407 0
M  V30 11711 H 1062.48 1.28325 -3.00334 0
M  V30 11712 H 1061.14 -0.768534 -3.58454 0
M  V30 11713 H 1060.78 1.36489 -4.84128 0
M  V30 11714 H 1060.48 -0.0540885 -5.87575 0
M  V30 11715 H 1062.01 0.862901 -6.04472 0
M  V30 11716 H 1063.42 -1.35832 -5.56976 0
M  V30 11717 H 1061.82 -2.14881 -5.60309 0
M  V30 11718 H 1062.89 -2.40181 -4.21237 0
M  V30 11719 N 1064.23 1.43628 -0.648757 0
M  V30 11720 C 1065.16 2.33478 0.0320785 0
M  V30 11721 C 1066.14 1.49217 0.816605 0
M  V30 11722 O 1067.33 1.77892 0.778974 0
M  V30 11723 C 1064.46 3.32525 1.00222 0
M  V30 11724 C 1063.41 4.2674 0.328119 0
M  V30 11725 C 1062.74 5.15791 1.4094 0
M  V30 11726 C 1064.04 5.16493 -0.776701 0
M  V30 11727 H 1065.73 2.90657 -0.718257 0
M  V30 11728 H 1063.28 1.3976 -0.346852 0
M  V30 11729 H 1065.23 3.94277 1.4874 0
M  V30 11730 H 1063.96 2.73593 1.78366 0
M  V30 11731 H 1062.61 3.66346 -0.136569 0
M  V30 11732 H 1062.26 4.53201 2.18216 0
M  V30 11733 H 1061.96 5.79645 0.963631 0
M  V30 11734 H 1063.49 5.80416 1.89603 0
M  V30 11735 H 1064.9 5.7208 -0.373878 0
M  V30 11736 H 1063.3 5.89043 -1.14667 0
M  V30 11737 H 1064.37 4.56448 -1.63654 0
M  V30 11738 N 1065.71 0.390394 1.52688 0
M  V30 11739 C 1066.94 -0.191485 2.06012 0
M  V30 11740 C 1067.35 -1.40422 1.26202 0
M  V30 11741 O 1066.71 -1.79866 0.308963 0
M  V30 11742 C 1066.76 -0.560521 3.57128 0
M  V30 11743 O 1066.48 0.60404 4.33916 0
M  V30 11744 C 1067.98 -1.19814 4.26801 0
M  V30 11745 H 1065.2 -0.0286311 0.670389 0
M  V30 11746 H 1067.75 0.555939 1.96798 0
M  V30 11747 H 1065.9 -1.25784 3.66411 0
M  V30 11748 H 1066.32 0.300467 5.23639 0
M  V30 11749 H 1067.79 -1.40672 5.33775 0
M  V30 11750 H 1068.27 -2.16582 3.82085 0
M  V30 11751 H 1068.87 -0.541558 4.21838 0
M  V30 11752 N 1067.19 -1.57141 0.120249 0
M  V30 11753 C 1068.42 -1.99589 -0.545136 0
M  V30 11754 C 1068.83 -0.999951 -1.60145 0
M  V30 11755 O 1068.19 0.00698897 -1.82499 0
M  V30 11756 C 1068.24 -3.42038 -1.17014 0
M  V30 11757 O 1067.96 -4.37822 -0.156044 0
M  V30 11758 C 1069.46 -3.99625 -1.91872 0
M  V30 11759 H 1066.68 -0.655318 -0.144222 0
M  V30 11760 H 1069.23 -2.0345 0.206955 0
M  V30 11761 H 1067.38 -3.39113 -1.873 0
M  V30 11762 H 1067.79 -5.20937 -0.610317 0
M  V30 11763 H 1069.27 -5.01374 -2.30928 0
M  V30 11764 H 1069.75 -3.38836 -2.7944 0
M  V30 11765 H 1070.35 -4.061 -1.26345 0
M  V30 11766 N 1068.67 0.153526 -1.5685 0
M  V30 11767 C 1069.92 0.865628 -1.82181 0
M  V30 11768 C 1070.23 1.82629 -0.700434 0
M  V30 11769 O 1071.43 2.58206 -0.839155 0
M  V30 11770 C 1069.89 1.58993 -3.22877 0
M  V30 11771 C 1069.5 0.672006 -4.42931 0
M  V30 11772 C 1071.24 2.2892 -3.57486 0
M  V30 11773 C 1069.15 1.39755 -5.7465 0
M  V30 11774 H 1068.08 0.326993 -0.679406 0
M  V30 11775 H 1070.73 0.118403 -1.83118 0
M  V30 11776 H 1069.11 2.38255 -3.16308 0
M  V30 11777 H 1070.29 -0.0849226 -4.60722 0
M  V30 11778 H 1068.6 0.0814825 -4.1632 0
M  V30 11779 H 1071.2 2.8383 -4.5315 0
M  V30 11780 H 1071.54 3.05105 -2.83226 0
M  V30 11781 H 1072.07 1.56583 -3.65686 0
M  V30 11782 H 1068.81 0.677686 -6.51987 0
M  V30 11783 H 1068.33 2.12736 -5.60806 0
M  V30 11784 H 1070.01 1.94024 -6.17223 0
M  V30 11785 N 1070.14 1.51827 0.422667 0
M  V30 11786 C 1071.11 1.7359 1.49663 0
M  V30 11787 C 1072.11 0.605811 1.48952 0
M  V30 11788 O 1073.3 0.87354 1.50715 0
M  V30 11789 C 1070.43 1.80585 2.8914 0
M  V30 11790 H 1071.62 2.69453 1.31664 0
M  V30 11791 H 1069.18 1.42038 0.652298 0
M  V30 11792 H 1069.91 0.865895 3.12526 0
M  V30 11793 H 1069.7 2.62729 2.9106 0
M  V30 11794 H 1071.19 1.99212 3.67021 0
M  V30 11795 N 1071.62 -0.679052 1.4222 0
M  V30 11796 C 1073.04 -0.991665 1.25053 0
M  V30 11797 C 1073.24 -2.00928 0.151665 0
M  V30 11798 O 1072.29 -2.47925 -0.478507 0
M  V30 11799 C 1073.61 -1.50053 2.60585 0
M  V30 11800 C 1075.16 -1.61852 2.67905 0
M  V30 11801 C 1075.63 -2.16135 4.03794 0
M  V30 11802 N 1077.12 -2.23474 4.05726 0
M  V30 11803 C 1077.86 -2.66541 5.07685 0
M  V30 11804 N 1077.35 -3.09092 6.20028 0
M  V30 11805 N 1079.15 -2.66252 4.95042 0
M  V30 11806 H 1071.3 -0.00521851 2.12399 0
M  V30 11807 H 1073.56 -0.0648465 0.94578 0
M  V30 11808 H 1073.27 -0.82731 3.41831 0
M  V30 11809 H 1073.14 -2.47998 2.84213 0
M  V30 11810 H 1075.53 -2.28281 1.87008 0
M  V30 11811 H 1075.61 -0.624074 2.4807 0
M  V30 11812 H 1075.25 -1.50316 4.85147 0
M  V30 11813 H 1075.18 -3.16363 4.20978 0
M  V30 11814 H 1077.67 -1.93467 3.24621 0
M  V30 11815 H 1077.99 -3.40627 6.93681 0
M  V30 11816 H 1076.33 -3.06959 6.23539 0
M  V30 11817 H 1079.52 -2.32369 4.06352 0
M  V30 11818 H 1079.69 -2.99496 5.74636 0
M  V30 11819 N 1073.1 -1.28322 -0.914942 0
M  V30 11820 C 1074.33 -1.18254 -1.69775 0
M  V30 11821 C 1074.74 0.258978 -1.87015 0
M  V30 11822 O 1074.1 1.17514 -1.3963 0
M  V30 11823 C 1074.15 -1.8753 -3.09054 0
M  V30 11824 O 1073.87 -3.26051 -2.92613 0
M  V30 11825 C 1075.37 -1.83749 -4.03424 0
M  V30 11826 H 1072.59 -0.41055 -0.530744 0
M  V30 11827 H 1075.14 -1.69425 -1.14523 0
M  V30 11828 H 1073.29 -1.40233 -3.61128 0
M  V30 11829 H 1073.71 -3.60729 -3.80756 0
M  V30 11830 H 1075.18 -2.36813 -4.98622 0
M  V30 11831 H 1075.66 -0.809601 -4.31674 0
M  V30 11832 H 1076.26 -2.3072 -3.57279 0
M  V30 11833 N 1074.58 1.12322 -1.10551 0
M  V30 11834 C 1075.83 1.83216 -0.84349 0
M  V30 11835 C 1076.14 1.85075 0.632992 0
M  V30 11836 O 1077.35 2.51976 1.01095 0
M  V30 11837 C 1075.8 3.28994 -1.45915 0
M  V30 11838 C 1075.41 3.3549 -2.96901 0
M  V30 11839 C 1077.15 4.0485 -1.27657 0
M  V30 11840 C 1075.06 4.7561 -3.51496 0
M  V30 11841 H 1073.99 0.686471 -0.311887 0
M  V30 11842 H 1076.64 1.26463 -1.32964 0
M  V30 11843 H 1075.02 3.85621 -0.900678 0
M  V30 11844 H 1076.2 2.88795 -3.59074 0
M  V30 11845 H 1074.51 2.73107 -3.14327 0
M  V30 11846 H 1077.11 5.08316 -1.65889 0
M  V30 11847 H 1077.45 4.15727 -0.218258 0
M  V30 11848 H 1077.99 3.54584 -1.80318 0
M  V30 11849 H 1074.73 4.69927 -4.56999 0
M  V30 11850 H 1074.25 5.22753 -2.94091 0
M  V30 11851 H 1075.92 5.44552 -3.49388 0
M  V30 11852 N 1076.06 0.894434 1.2976 0
M  V30 11853 C 1077 0.357958 2.29829 0
M  V30 11854 C 1078 -0.540093 1.6056 0
M  V30 11855 O 1079.2 -0.423478 1.74948 0
M  V30 11856 H 1075.58 0.0971183 0.745702 0
M  V30 11857 H 1077.55 1.21542 2.72526 0
M  V30 11858 C 1076.3 -0.404126 3.45343 0
M  V30 11859 H 1075.62 0.277671 3.98835 0
M  V30 11860 H 1077.06 -0.744446 4.17413 0
M  V30 11861 C 1075.52 -1.6048 2.96222 0
M  V30 11862 O 1076.05 -2.70414 2.97051 0
M  V30 11863 N 1074.26 -1.44517 2.52117 0
M  V30 11864 H 1073.8 -0.55082 2.51642 0
M  V30 11865 H 1073.76 -2.24987 2.1961 0
M  V30 11866 N 1077.53 -1.43282 0.656365 0
M  V30 11867 C 1078.44 -2.34576 -0.033864 0
M  V30 11868 C 1079.46 -1.5406 -0.808793 0
M  V30 11869 O 1080.64 -1.867 -0.755322 0
M  V30 11870 C 1077.7 -3.32378 -0.986197 0
M  V30 11871 C 1076.76 -4.28797 -0.207851 0
M  V30 11872 C 1076 -5.21927 -1.11482 0
M  V30 11873 O 1076.22 -5.19554 -2.35414 0
M  V30 11874 O 1075.15 -5.99045 -0.585536 0
M  V30 11875 H 1078.98 -2.95099 0.717668 0
M  V30 11876 H 1076.56 -1.43475 0.416556 0
M  V30 11877 H 1078.45 -3.9251 -1.53341 0
M  V30 11878 H 1077.12 -2.74354 -1.7179 0
M  V30 11879 H 1076.03 -3.72134 0.383022 0
M  V30 11880 H 1077.36 -4.89811 0.48435 0
M  V30 11881 N 1079.01 -0.398486 -1.52479 0
M  V30 11882 C 1080.26 0.181019 -2.0199 0
M  V30 11883 C 1080.59 1.45691 -1.28405 0
M  V30 11884 O 1079.87 1.90607 -0.387207 0
M  V30 11885 C 1080.15 0.439587 -3.57407 0
M  V30 11886 C 1080 -0.85223 -4.41653 0
M  V30 11887 C 1081.32 1.2263 -4.2267 0
M  V30 11888 H 1078.44 0.0643164 -0.734188 0
M  V30 11889 H 1081.08 -0.52986 -1.82462 0
M  V30 11890 H 1079.23 1.04516 -3.74177 0
M  V30 11891 H 1080.91 -1.48879 -4.36615 0
M  V30 11892 H 1079.15 -1.46555 -4.08294 0
M  V30 11893 H 1079.82 -0.625839 -5.48441 0
M  V30 11894 H 1082.3 0.713722 -4.09933 0
M  V30 11895 H 1081.17 1.37596 -5.31374 0
M  V30 11896 H 1081.43 2.24403 -3.80914 0
M  V30 11897 N 1080.49 1.57075 -0.12858 0
M  V30 11898 C 1081.4 2.19369 0.831533 0
M  V30 11899 C 1082.42 1.17258 1.28555 0
M  V30 11900 O 1083.59 1.49766 1.34656 0
M  V30 11901 C 1080.66 2.78846 2.06024 0
M  V30 11902 C 1079.72 3.96024 1.65722 0
M  V30 11903 C 1078.95 4.52655 2.82735 0
M  V30 11904 O 1079.18 4.08175 3.98434 0
M  V30 11905 O 1078.11 5.43198 2.59268 0
M  V30 11906 H 1081.94 3.01887 0.331352 0
M  V30 11907 H 1079.52 1.49081 0.0975226 0
M  V30 11908 H 1081.4 3.16721 2.77967 0
M  V30 11909 H 1080.08 1.99353 2.5503 0
M  V30 11910 H 1078.98 3.62899 0.908574 0
M  V30 11911 H 1080.32 4.76981 1.21449 0
M  V30 11912 N 1081.97 -0.145205 1.5693 0
M  V30 11913 C 1082.92 -1.19841 1.99351 0
M  V30 11914 C 1083.91 -1.44371 0.886197 0
M  V30 11915 O 1085.12 -1.44642 1.07138 0
M  V30 11916 H 1081.49 -0.403437 0.63462 0
M  V30 11917 H 1083.46 -0.813932 2.87085 0
M  V30 11918 C 1082.21 -2.52377 2.39167 0
M  V30 11919 H 1081.54 -2.34332 3.23927 0
M  V30 11920 H 1082.98 -3.24694 2.72671 0
M  V30 11921 C 1081.43 -3.1305 1.24503 0
M  V30 11922 O 1081.96 -3.97962 0.546739 0
M  V30 11923 N 1080.17 -2.72528 1.00882 0
M  V30 11924 H 1079.72 -2.03576 1.57843 0
M  V30 11925 H 1079.68 -3.13456 0.24351 0
M  V30 11926 N 1083.45 -1.52049 -0.414609 0
M  V30 11927 C 1084.38 -1.7122 -1.52369 0
M  V30 11928 C 1085.39 -0.592634 -1.5163 0
M  V30 11929 O 1086.58 -0.867634 -1.55995 0
M  V30 11930 C 1083.68 -1.73247 -2.91271 0
M  V30 11931 C 1082.85 -3.02153 -3.16263 0
M  V30 11932 C 1081.91 -2.96066 -4.35007 0
M  V30 11933 O 1080.94 -3.69981 -4.32554 0
M  V30 11934 N 1082.14 -2.13478 -5.39822 0
M  V30 11935 H 1084.91 -2.66902 -1.3632 0
M  V30 11936 H 1082.47 -1.50218 -0.603842 0
M  V30 11937 H 1084.46 -1.66714 -3.68766 0
M  V30 11938 H 1083.03 -0.85062 -3.00804 0
M  V30 11939 H 1082.25 -3.22379 -2.2686 0
M  V30 11940 H 1083.54 -3.87439 -3.29801 0
M  V30 11941 H 1082.94 -1.52844 -5.44661 0
M  V30 11942 H 1081.49 -2.12805 -6.16082 0
M  V30 11943 N 1084.93 0.6715 -1.42579 0
M  V30 11944 C 1086.17 1.42731 -1.42516 0
M  V30 11945 C 1086.49 1.95545 -0.0462407 0
M  V30 11946 O 1087.69 2.71391 0.0769798 0
M  V30 11947 C 1086.15 2.58215 -2.50705 0
M  V30 11948 C 1085.76 2.12086 -3.94618 0
M  V30 11949 C 1087.5 3.35705 -2.59813 0
M  V30 11950 C 1085.41 3.24672 -4.9431 0
M  V30 11951 H 1084.34 0.536218 -0.530081 0
M  V30 11952 H 1086.99 0.726655 -1.68499 0
M  V30 11953 H 1085.37 3.30665 -2.17892 0
M  V30 11954 H 1086.55 1.46768 -4.36802 0
M  V30 11955 H 1084.86 1.47526 -3.89391 0
M  V30 11956 H 1087.46 4.1956 -3.31472 0
M  V30 11957 H 1087.8 3.82517 -1.64276 0
M  V30 11958 H 1088.33 2.70326 -2.91836 0
M  V30 11959 H 1085.07 2.82848 -5.91335 0
M  V30 11960 H 1084.59 3.88761 -4.56755 0
M  V30 11961 H 1086.27 3.90088 -5.16179 0
M  V30 11962 N 1086.4 1.28806 0.908124 0
M  V30 11963 C 1087.33 1.15758 2.02787 0
M  V30 11964 C 1088.31 0.053911 1.70015 0
M  V30 11965 O 1089.5 0.231901 1.9281 0
M  V30 11966 C 1086.63 0.824526 3.37371 0
M  V30 11967 C 1085.58 1.88359 3.84324 0
M  V30 11968 C 1084.91 1.40404 5.15937 0
M  V30 11969 C 1086.21 3.29108 4.05568 0
M  V30 11970 H 1087.9 2.09431 2.13961 0
M  V30 11971 H 1085.45 1.00831 1.02806 0
M  V30 11972 H 1087.4 0.71999 4.15204 0
M  V30 11973 H 1086.13 -0.147902 3.26265 0
M  V30 11974 H 1084.79 1.97736 3.087 0
M  V30 11975 H 1084.43 0.420515 5.01239 0
M  V30 11976 H 1084.13 2.11224 5.48323 0
M  V30 11977 H 1085.66 1.31283 5.9632 0
M  V30 11978 H 1087.07 3.2262 4.73909 0
M  V30 11979 H 1085.47 3.97812 4.49294 0
M  V30 11980 H 1086.54 3.72709 3.10187 0
M  V30 11981 N 1087.88 -1.11734 1.11145 0
M  V30 11982 C 1089.11 -1.87215 0.880811 0
M  V30 11983 C 1089.52 -1.80016 -0.569195 0
M  V30 11984 O 1088.88 -1.17926 -1.39283 0
M  V30 11985 C 1088.93 -3.36146 1.32998 0
M  V30 11986 O 1088.65 -3.43187 2.72313 0
M  V30 11987 C 1090.15 -4.28542 1.1343 0
M  V30 11988 H 1087.37 -0.592123 0.315645 0
M  V30 11989 H 1089.92 -1.41335 1.478 0
M  V30 11990 H 1088.07 -3.79542 0.776308 0
M  V30 11991 H 1088.49 -4.359 2.91705 0
M  V30 11992 H 1089.96 -5.31295 1.49764 0
M  V30 11993 H 1090.44 -4.39138 0.0735859 0
M  V30 11994 H 1091.04 -3.90935 1.67481 0
M  V30 11995 N 1089.36 -0.901303 -1.29284 0
M  V30 11996 C 1090.78 -0.597634 -1.47988 0
M  V30 11997 C 1090.98 0.860434 -1.82205 0
M  V30 11998 O 1090.03 1.64049 -1.91948 0
M  V30 11999 C 1091.34 -1.52484 -2.5917 0
M  V30 12000 C 1092.89 -1.53021 -2.73045 0
M  V30 12001 C 1093.37 -2.44373 -3.87357 0
M  V30 12002 N 1094.86 -2.42429 -3.94693 0
M  V30 12003 C 1095.59 -3.09817 -4.82495 0
M  V30 12004 N 1095.09 -3.86489 -5.74976 0
M  V30 12005 N 1096.88 -2.98966 -4.76 0
M  V30 12006 H 1089.03 -1.84432 -1.0535 0
M  V30 12007 H 1091.3 -0.790367 -0.523473 0
M  V30 12008 H 1091 -2.56378 -2.40756 0
M  V30 12009 H 1090.88 -1.24657 -3.56006 0
M  V30 12010 H 1093.26 -0.498709 -2.90855 0
M  V30 12011 H 1093.34 -1.84886 -1.76779 0
M  V30 12012 H 1092.99 -3.47618 -3.70302 0
M  V30 12013 H 1092.92 -2.09817 -4.82995 0
M  V30 12014 H 1095.41 -1.86724 -3.28546 0
M  V30 12015 H 1095.72 -4.34959 -6.38773 0
M  V30 12016 H 1094.07 -3.90596 -5.74857 0
M  V30 12017 H 1097.26 -2.38581 -4.02737 0
M  V30 12018 H 1097.43 -3.51758 -5.44215 0
M  V30 12019 N 1090.84 1.42931 -0.663954 0
M  V30 12020 C 1092.11 1.95284 -0.111174 0
M  V30 12021 C 1092.49 1.60484 1.37142 0
M  V30 12022 O 1091.84 0.895425 2.10225 0
M  V30 12023 C 1092.05 3.47046 -0.368789 0
M  V30 12024 C 1093.4 4.23679 -0.279473 0
M  V30 12025 O 1094.42 3.54918 -0.301937 0
M  V30 12026 O 1093.28 5.46087 -0.21236 0
M  V30 12027 H 1090.38 0.826993 0.00341718 0
M  V30 12028 H 1092.92 1.52816 -0.737935 0
M  V30 12029 H 1091.7 3.65541 -1.39626 0
M  V30 12030 H 1091.32 3.96537 0.290514 0
M  V30 12031 N 1092.32 0.406567 1.52266 0
M  V30 12032 C 1093.28 -0.408251 2.25535 0
M  V30 12033 C 1094.28 -0.975795 1.27808 0
M  V30 12034 O 1095.47 -0.855077 1.5177 0
M  V30 12035 C 1092.6 -1.57443 3.02365 0
M  V30 12036 H 1093.79 0.233459 2.9899 0
M  V30 12037 H 1091.35 0.159032 1.55489 0
M  V30 12038 H 1092.08 -2.25308 2.33252 0
M  V30 12039 H 1091.87 -1.17399 3.74112 0
M  V30 12040 H 1093.36 -2.15088 3.57948 0
M  V30 12041 N 1093.79 -1.57004 0.136909 0
M  V30 12042 C 1094.74 -2.16246 -0.806607 0
M  V30 12043 C 1095.71 -1.09246 -1.25118 0
M  V30 12044 O 1096.9 -1.3724 -1.32551 0
M  V30 12045 C 1094.04 -2.78031 -2.04433 0
M  V30 12046 C 1093.15 -3.99393 -1.64649 0
M  V30 12047 C 1092.28 -4.49208 -2.83524 0
M  V30 12048 C 1091.32 -5.63059 -2.40064 0
M  V30 12049 N 1090.46 -6.07537 -3.51913 0
M  V30 12050 H 1095.3 -2.9654 -0.294596 0
M  V30 12051 H 1092.84 -1.46491 -0.133705 0
M  V30 12052 H 1094.8 -3.11992 -2.76978 0
M  V30 12053 H 1093.43 -2.00398 -2.53062 0
M  V30 12054 H 1092.48 -3.71477 -0.819077 0
M  V30 12055 H 1093.79 -4.81904 -1.28723 0
M  V30 12056 H 1092.94 -4.85171 -3.64271 0
M  V30 12057 H 1091.68 -3.65683 -3.22688 0
M  V30 12058 H 1090.69 -5.26682 -1.57754 0
M  V30 12059 H 1091.91 -6.48362 -2.01997 0
M  V30 12060 H 1089.86 -5.2695 -3.90717 0
M  V30 12061 H 1089.78 -6.84949 -3.1997 0
M  V30 12062 H 1091.04 -6.48143 -4.33048 0
M  V30 12063 N 1095.27 0.136881 -1.57004 0
M  V30 12064 C 1096.52 0.8461 -1.83536 0
M  V30 12065 C 1096.84 1.81246 -0.71937 0
M  V30 12066 O 1096.11 1.94191 0.258161 0
M  V30 12067 H 1094.69 0.315446 -0.677128 0
M  V30 12068 H 1097.35 0.128469 -1.94476 0
M  V30 12069 H 1096.45 1.40221 -2.78827 0
M  V30 12070 N 1096.75 1.52266 0.40654 0
M  V30 12071 C 1098 1.6568 1.15035 0
M  V30 12072 C 1098.31 0.394135 1.91588 0
M  V30 12073 O 1099.52 0.408113 2.68415 0
M  V30 12074 C 1097.97 2.92725 2.0938 0
M  V30 12075 C 1097.58 4.26108 1.38332 0
M  V30 12076 C 1099.33 3.15502 2.84004 0
M  V30 12077 C 1097.23 5.44275 2.3134 0
M  V30 12078 H 1096.16 0.61719 0.43312 0
M  V30 12079 H 1098.81 1.78755 0.414598 0
M  V30 12080 H 1097.2 2.73355 2.86519 0
M  V30 12081 H 1098.37 4.55971 0.665396 0
M  V30 12082 H 1096.69 4.09454 0.757384 0
M  V30 12083 H 1099.28 4.00964 3.5374 0
M  V30 12084 H 1099.63 2.29842 3.471 0
M  V30 12085 H 1100.16 3.35357 2.13964 0
M  V30 12086 H 1096.9 6.3229 1.72887 0
M  V30 12087 H 1096.42 5.18749 3.01098 0
M  V30 12088 H 1098.1 5.77457 2.91809 0
M  V30 12089 N 1098.23 -0.663929 1.42933 0
M  V30 12090 C 1099.45 -1.45691 1.47611 0
M  V30 12091 C 1099.88 -1.87875 0.0920305 0
M  V30 12092 O 1099.24 -1.56696 -0.91192 0
M  V30 12093 C 1099.28 -2.67517 2.41799 0
M  V30 12094 O 1098.39 -3.66187 1.89686 0
M  V30 12095 H 1097.73 -0.437257 0.499702 0
M  V30 12096 H 1100.26 -0.813397 1.87737 0
M  V30 12097 H 1100.27 -3.1546 2.58745 0
M  V30 12098 H 1098.94 -2.36155 3.4235 0
M  V30 12099 H 1097.52 -3.25274 1.82349 0
M  V30 12100 N 1099.71 -1.29285 -0.901281 0
M  V30 12101 C 1100.64 -1.10086 -2.01032 0
M  V30 12102 C 1101.65 -0.0488364 -1.62727 0
M  V30 12103 O 1102.84 -0.293194 -1.76076 0
M  V30 12104 C 1099.94 -0.653357 -3.32542 0
M  V30 12105 C 1099.11 -1.78355 -3.99385 0
M  V30 12106 C 1098.17 -1.32733 -5.09184 0
M  V30 12107 O 1097.2 -2.03177 -5.31703 0
M  V30 12108 N 1098.4 -0.197345 -5.80164 0
M  V30 12109 H 1101.17 -2.056 -2.18057 0
M  V30 12110 H 1098.73 -1.21204 -1.07337 0
M  V30 12111 H 1100.72 -0.331491 -4.0334 0
M  V30 12112 H 1099.29 0.209278 -3.11899 0
M  V30 12113 H 1098.51 -2.27438 -3.21972 0
M  V30 12114 H 1099.8 -2.54137 -4.40785 0
M  V30 12115 H 1099.19 0.390011 -5.64354 0
M  V30 12116 H 1097.75 0.0651642 -6.51767 0
M  V30 12117 N 1101.18 1.11143 -1.11736 0
M  V30 12118 C 1102.09 2.20851 -0.791331 0
M  V30 12119 C 1103.11 1.72644 0.216833 0
M  V30 12120 O 1104.29 2.01332 0.0522401 0
M  V30 12121 C 1101.35 3.4585 -0.242694 0
M  V30 12122 C 1100.41 4.08829 -1.30986 0
M  V30 12123 C 1099.65 5.27861 -0.787305 0
M  V30 12124 O 1099.87 5.69122 0.381549 0
M  V30 12125 O 1098.8 5.81506 -1.55352 0
M  V30 12126 H 1102.63 2.51158 -1.70744 0
M  V30 12127 H 1100.21 1.19739 -0.893478 0
M  V30 12128 H 1102.1 4.21359 0.0587472 0
M  V30 12129 H 1100.77 3.17187 0.646079 0
M  V30 12130 H 1099.68 3.35037 -1.66436 0
M  V30 12131 H 1101.01 4.41678 -2.17213 0
M  V30 12132 N 1102.66 0.908147 1.28804 0
M  V30 12133 C 1103.59 0.34957 2.26519 0
M  V30 12134 C 1104.61 -0.508845 1.54643 0
M  V30 12135 O 1105.8 -0.324633 1.75523 0
M  V30 12136 C 1102.9 -0.519461 3.34895 0
M  V30 12137 C 1102.07 0.315157 4.36263 0
M  V30 12138 C 1101.13 -0.488059 5.23932 0
M  V30 12139 O 1100.15 0.0974133 5.69117 0
M  V30 12140 N 1101.36 -1.79233 5.52137 0
M  V30 12141 H 1104.12 1.18945 2.75086 0
M  V30 12142 H 1101.68 0.77351 1.42227 0
M  V30 12143 H 1103.67 -1.0634 3.90479 0
M  V30 12144 H 1102.24 -1.26004 2.8608 0
M  V30 12145 H 1101.46 1.04049 3.8022 0
M  V30 12146 H 1102.75 0.886438 5.01019 0
M  V30 12147 H 1102.15 -2.2906 5.1725 0
M  V30 12148 H 1100.71 -2.28322 6.10502 0
M  V30 12149 N 1104.14 -1.42577 0.671525 0
M  V30 12150 C 1105.07 -2.28124 -0.0589347 0
M  V30 12151 C 1106.05 -1.40878 -0.811915 0
M  V30 12152 O 1107.24 -1.70318 -0.807717 0
M  V30 12153 C 1104.36 -3.20662 -1.09057 0
M  V30 12154 C 1103.41 -4.24291 -0.43355 0
M  V30 12155 S 1104.24 -5.29393 0.806442 0
M  V30 12156 C 1105.4 -6.25498 -0.224204 0
M  V30 12157 H 1105.63 -2.89728 0.666689 0
M  V30 12158 H 1103.16 -1.47359 0.460959 0
M  V30 12159 H 1105.12 -3.74516 -1.68071 0
M  V30 12160 H 1103.78 -2.582 -1.78862 0
M  V30 12161 H 1102.98 -4.89213 -1.21186 0
M  V30 12162 H 1102.58 -3.73908 0.0829136 0
M  V30 12163 H 1104.87 -6.68757 -1.08492 0
M  V30 12164 H 1105.81 -7.07023 0.390469 0
M  V30 12165 H 1106.22 -5.61633 -0.568214 0
M  V30 12166 N 1105.62 -0.414636 -1.52048 0
M  V30 12167 C 1106.57 0.422766 -2.28726 0
M  V30 12168 C 1107.56 1.04099 -1.3364 0
M  V30 12169 O 1108.77 0.978559 -1.51077 0
M  V30 12170 H 1105.14 0.155123 -0.735827 0
M  V30 12171 H 1107.11 -0.245091 -2.97392 0
M  V30 12172 C 1105.86 1.52418 -3.12513 0
M  V30 12173 H 1105.18 1.05781 -3.85552 0
M  V30 12174 H 1106.62 2.08382 -3.6926 0
M  V30 12175 C 1105.08 2.49465 -2.26426 0
M  V30 12176 O 1105.61 3.53479 -1.90829 0
M  V30 12177 N 1103.82 2.19806 -1.90088 0
M  V30 12178 H 1103.37 1.35253 -2.19236 0
M  V30 12179 H 1103.32 2.84984 -1.32783 0
M  V30 12180 N 1107.1 1.56929 -0.145233 0
M  V30 12181 C 1108.01 2.20238 0.808219 0
M  V30 12182 C 1109.02 1.18615 1.27304 0
M  V30 12183 O 1110.2 1.51186 1.3306 0
M  V30 12184 C 1107.26 2.81016 2.03055 0
M  V30 12185 C 1106.32 3.97759 1.61512 0
M  V30 12186 C 1105.56 4.55628 2.77918 0
M  V30 12187 O 1105.78 4.12378 3.94082 0
M  V30 12188 O 1104.71 5.45917 2.53492 0
M  V30 12189 H 1108.54 3.02221 0.299314 0
M  V30 12190 H 1106.13 1.49176 0.0817051 0
M  V30 12191 H 1108.01 3.19652 2.74592 0
M  V30 12192 H 1106.68 2.02047 2.52901 0
M  V30 12193 H 1105.59 3.63842 0.870033 0
M  V30 12194 H 1106.92 4.78242 1.16383 0
M  V30 12195 N 1108.58 -0.128553 1.57075 0
M  V30 12196 C 1109.82 -0.83801 1.84347 0
M  V30 12197 C 1110.15 -1.80325 0.728906 0
M  V30 12198 O 1109.41 -1.93678 -0.280571 0
M  V30 12199 C 1109.7 -1.63027 3.18052 0
M  V30 12200 C 1109.37 -0.810171 4.43562 0
M  V30 12201 C 1108.03 -0.583984 4.77643 0
M  V30 12202 C 1110.38 -0.237896 5.20657 0
M  V30 12203 C 1107.71 0.224887 5.86269 0
M  V30 12204 C 1110.06 0.558114 6.30133 0
M  V30 12205 C 1108.73 0.794706 6.62752 0
M  V30 12206 H 1108 -0.30665 0.674572 0
M  V30 12207 H 1110.65 -0.100797 1.91235 0
M  V30 12208 H 1108.95 -2.43812 3.06697 0
M  V30 12209 H 1110.65 -2.183 3.36372 0
M  V30 12210 H 1107.24 -0.996547 4.16854 0
M  V30 12211 H 1111.42 -0.399881 4.94686 0
M  V30 12212 H 1106.68 0.417507 6.09973 0
M  V30 12213 H 1110.85 1.00859 6.89058 0
M  V30 12214 H 1108.48 1.42331 7.46757 0
M  V30 12215 N 1110.05 -1.5248 -0.398459 0
M  V30 12216 C 1111.47 -1.4152 -0.737854 0
M  V30 12217 C 1111.67 -0.528122 -1.94456 0
M  V30 12218 O 1110.73 0.00203799 -2.525 0
M  V30 12219 C 1112.04 -2.8422 -0.9818 0
M  V30 12220 C 1113.59 -2.93635 -1.08386 0
M  V30 12221 C 1114.06 -4.37327 -1.3605 0
M  V30 12222 N 1115.55 -4.40609 -1.42892 0
M  V30 12223 C 1116.29 -5.48863 -1.65944 0
M  V30 12224 N 1115.78 -6.67217 -1.86529 0
M  V30 12225 N 1117.58 -5.36393 -1.68046 0
M  V30 12226 H 1109.73 -2.08681 0.395705 0
M  V30 12227 H 1111.99 -0.941023 0.114801 0
M  V30 12228 H 1111.7 -3.51302 -0.167358 0
M  V30 12229 H 1111.57 -3.25907 -1.89907 0
M  V30 12230 H 1113.96 -2.26728 -1.88888 0
M  V30 12231 H 1114.04 -2.5539 -0.144714 0
M  V30 12232 H 1113.68 -5.04797 -0.56061 0
M  V30 12233 H 1113.61 -4.73116 -2.31233 0
M  V30 12234 H 1116.1 -3.55298 -1.2873 0
M  V30 12235 H 1116.42 -7.45498 -2.03599 0
M  V30 12236 H 1114.76 -6.70263 -1.83773 0
M  V30 12237 H 1117.95 -4.42903 -1.51509 0
M  V30 12238 H 1118.13 -6.2083 -1.85672 0
M  V30 12239 N 1111.53 0.65634 -1.43283 0
M  V30 12240 C 1112.49 1.75117 -1.47874 0
M  V30 12241 C 1113.49 1.56629 -0.363846 0
M  V30 12242 O 1114.68 1.62584 -0.625464 0
M  V30 12243 C 1111.82 3.13957 -1.32831 0
M  V30 12244 H 1113.01 1.72429 -2.45374 0
M  V30 12245 H 1110.56 0.867704 -1.30002 0
M  V30 12246 H 1111.3 3.22259 -0.36326 0
M  V30 12247 H 1111.08 3.28781 -2.13649 0
M  V30 12248 H 1112.57 3.93799 -1.38969 0
M  V30 12249 N 1113.01 1.29761 0.894412 0
M  V30 12250 C 1114.23 1.21064 1.68399 0
M  V30 12251 C 1114.66 -0.224608 1.86754 0
M  V30 12252 O 1114.02 -1.16199 1.39167 0
M  V30 12253 C 1114.07 1.93468 3.04306 0
M  V30 12254 O 1113.17 1.25533 3.9283 0
M  V30 12255 H 1112.51 0.419223 0.514925 0
M  V30 12256 H 1115.04 1.71421 1.11696 0
M  V30 12257 H 1115.05 2.02127 3.54413 0
M  V30 12258 H 1113.73 2.97857 2.90265 0
M  V30 12259 H 1112.3 1.25168 3.51266 0
M  V30 12260 N 1114.49 -1.10549 1.12324 0
M  V30 12261 C 1115.73 -1.82485 0.877817 0
M  V30 12262 C 1116.06 -1.85131 -0.596373 0
M  V30 12263 O 1115.32 -1.30675 -1.45679 0
M  V30 12264 C 1115.62 -3.28997 1.39626 0
M  V30 12265 C 1115.28 -3.465 2.88529 0
M  V30 12266 C 1113.94 -3.50984 3.29186 0
M  V30 12267 C 1116.3 -3.51991 3.84385 0
M  V30 12268 C 1113.62 -3.58525 4.6441 0
M  V30 12269 C 1115.98 -3.61065 5.19437 0
M  V30 12270 C 1114.64 -3.63813 5.5964 0
M  V30 12271 H 1113.91 -0.667758 0.321216 0
M  V30 12272 H 1116.56 -1.30314 1.40323 0
M  V30 12273 H 1114.86 -3.83726 0.791291 0
M  V30 12274 H 1116.56 -3.83165 1.18259 0
M  V30 12275 H 1113.15 -3.43686 2.56082 0
M  V30 12276 H 1117.33 -3.47777 3.54069 0
M  V30 12277 H 1112.59 -3.58934 4.94951 0
M  V30 12278 H 1116.76 -3.64257 5.9354 0
M  V30 12279 H 1114.39 -3.69409 6.6441 0
M  V30 12280 N 1115.97 -0.914965 -1.28321 0
M  V30 12281 C 1116.91 -0.394477 -2.29231 0
M  V30 12282 C 1117.91 0.514481 -1.61398 0
M  V30 12283 O 1119.11 0.395591 -1.75599 0
M  V30 12284 H 1115.49 -0.108969 -0.744063 0
M  V30 12285 H 1117.46 -1.25862 -2.70557 0
M  V30 12286 C 1116.21 0.349134 -3.45943 0
M  V30 12287 H 1115.53 -0.341087 -3.98342 0
M  V30 12288 H 1116.97 0.677944 -4.18545 0
M  V30 12289 C 1115.43 1.55747 -2.98738 0
M  V30 12290 O 1115.96 2.65654 -3.01315 0
M  V30 12291 N 1114.17 1.40488 -2.54384 0
M  V30 12292 H 1113.71 0.510716 -2.52487 0
M  V30 12293 H 1113.67 2.21464 -2.23161 0
M  V30 12294 N 1117.44 1.42219 -0.679077 0
M  V30 12295 C 1118.39 2.27992 0.0194379 0
M  V30 12296 C 1119.38 1.41317 0.769313 0
M  V30 12297 O 1120.57 1.64731 0.647521 0
M  V30 12298 C 1117.7 3.29401 0.966945 0
M  V30 12299 C 1116.78 4.23559 0.214187 0
M  V30 12300 N 1117.18 4.99699 -0.783226 0
M  V30 12301 C 1115.47 4.43703 0.452026 0
M  V30 12302 C 1116.17 5.68496 -1.23237 0
M  V30 12303 N 1115.15 5.40692 -0.561484 0
M  V30 12304 H 1118.95 2.84287 -0.745542 0
M  V30 12305 H 1116.47 1.54234 -0.508504 0
M  V30 12306 H 1118.46 3.89655 1.48238 0
M  V30 12307 H 1117.12 2.74667 1.7317 0
M  V30 12308 H 1118.13 5.04675 -1.16291 0
M  V30 12309 H 1114.81 4.00004 1.19595 0
M  V30 12310 H 1116.2 6.3957 -2.05912 0
M  V30 12311 N 1118.92 0.422693 1.51826 0
M  V30 12312 C 1120.17 -0.148641 2.01954 0
M  V30 12313 C 1120.5 -1.43982 1.30765 0
M  V30 12314 O 1119.75 -1.91428 0.406668 0
M  V30 12315 C 1120.05 -0.429516 3.5481 0
M  V30 12316 C 1119.72 0.774088 4.44206 0
M  V30 12317 C 1118.38 1.1042 4.6836 0
M  V30 12318 C 1120.73 1.5777 4.96747 0
M  V30 12319 C 1118.06 2.23887 5.42302 0
M  V30 12320 C 1120.41 2.70325 5.71933 0
M  V30 12321 C 1119.07 3.03807 5.94355 0
M  V30 12322 H 1118.34 -0.0543917 0.739001 0
M  V30 12323 H 1120.99 0.566892 1.82917 0
M  V30 12324 H 1119.3 -1.22678 3.72099 0
M  V30 12325 H 1120.99 -0.884761 3.91118 0
M  V30 12326 H 1117.58 0.506834 4.25593 0
M  V30 12327 H 1121.77 1.33589 4.77983 0
M  V30 12328 H 1117.02 2.50159 5.5788 0
M  V30 12329 H 1121.2 3.32974 6.11638 0
M  V30 12330 H 1118.82 3.91844 6.51431 0
M  V30 12331 N 1120.4 -1.5685 0.153553 0
M  V30 12332 C 1121.68 -1.8796 -0.541328 0
M  V30 12333 C 1122.06 -1.06059 -1.82523 0
M  V30 12334 O 1121.4 -0.149295 -2.28012 0
M  V30 12335 C 1121.61 -3.39697 -0.800442 0
M  V30 12336 C 1122.96 -4.09057 -1.13832 0
M  V30 12337 O 1123.99 -3.44913 -0.889578 0
M  V30 12338 O 1122.85 -5.22347 -1.60673 0
M  V30 12339 H 1119.94 -0.779268 -0.276895 0
M  V30 12340 H 1122.49 -1.68626 0.190657 0
M  V30 12341 H 1121.26 -3.91151 0.107935 0
M  V30 12342 H 1120.88 -3.64582 -1.58638 0
M  V30 12343 N 1121.88 0.120221 -1.57141 0
M  V30 12344 C 1123.29 0.473718 -1.52408 0
M  V30 12345 C 1123.49 1.81925 -0.866354 0
M  V30 12346 O 1122.55 2.48491 -0.448173 0
M  V30 12347 C 1123.86 0.459338 -2.97171 0
M  V30 12348 C 1125.41 0.542975 -3.08254 0
M  V30 12349 C 1125.89 0.558996 -4.54576 0
M  V30 12350 N 1127.38 0.620469 -4.59026 0
M  V30 12351 C 1128.11 0.654292 -5.69655 0
M  V30 12352 N 1127.61 0.645835 -6.89783 0
M  V30 12353 N 1129.4 0.697208 -5.57759 0
M  V30 12354 H 1121.55 -0.76142 -1.98283 0
M  V30 12355 H 1123.81 -0.280736 -0.905479 0
M  V30 12356 H 1123.52 -0.461654 -3.48657 0
M  V30 12357 H 1123.39 1.28759 -3.54543 0
M  V30 12358 H 1125.78 1.45439 -2.56772 0
M  V30 12359 H 1125.86 -0.312936 -2.53879 0
M  V30 12360 H 1125.51 -0.348367 -5.06704 0
M  V30 12361 H 1125.44 1.43177 -5.06762 0
M  V30 12362 H 1127.93 0.633218 -3.72557 0
M  V30 12363 H 1128.24 0.674233 -7.69853 0
M  V30 12364 H 1126.59 0.613279 -6.92289 0
M  V30 12365 H 1129.78 0.70117 -4.62819 0
M  V30 12366 H 1129.95 0.7201 -6.43986 0
M  V30 12367 N 1123.36 1.52689 0.390367 0
M  V30 12368 C 1124.63 1.58246 1.14968 0
M  V30 12369 C 1125.01 0.374808 2.07746 0
M  V30 12370 O 1124.36 -0.636969 2.19442 0
M  V30 12371 C 1124.57 2.92059 1.91056 0
M  V30 12372 C 1125.92 3.45745 2.46466 0
M  V30 12373 O 1126.94 2.93924 2.01214 0
M  V30 12374 O 1125.8 4.3628 3.29122 0
M  V30 12375 H 1122.9 0.638189 0.52597 0
M  V30 12376 H 1125.44 1.65024 0.39563 0
M  V30 12377 H 1124.21 3.71399 1.23201 0
M  V30 12378 H 1123.84 2.8866 2.73425 0
M  V30 12379 N 1124.83 -0.648732 1.43629 0
M  V30 12380 C 1125.78 -1.75473 1.45579 0
M  V30 12381 C 1126.77 -1.57611 0.323683 0
M  V30 12382 O 1127.96 -1.67646 0.56778 0
M  V30 12383 C 1125.09 -3.14083 1.38589 0
M  V30 12384 C 1124.18 -3.37477 2.56846 0
M  V30 12385 N 1124.57 -3.31322 3.82177 0
M  V30 12386 C 1122.86 -3.68212 2.51666 0
M  V30 12387 C 1123.57 -3.54921 4.60875 0
M  V30 12388 N 1122.54 -3.76951 3.91675 0
M  V30 12389 H 1126.34 -1.69146 2.40347 0
M  V30 12390 H 1123.86 -0.850566 1.38344 0
M  V30 12391 H 1125.85 -3.93374 1.38068 0
M  V30 12392 H 1124.51 -3.21588 0.448442 0
M  V30 12393 H 1125.53 -3.10633 4.144 0
M  V30 12394 H 1122.2 -3.82806 1.66631 0
M  V30 12395 H 1123.59 -3.55904 5.69897 0
M  V30 12396 N 1126.31 -1.30234 -0.887518 0
M  V30 12397 C 1127.54 -1.21955 -1.67755 0
M  V30 12398 C 1127.96 0.214701 -1.86871 0
M  V30 12399 O 1127.32 1.15459 -1.39782 0
M  V30 12400 C 1127.37 -1.95079 -3.03276 0
M  V30 12401 O 1126.47 -1.27615 -3.92158 0
M  V30 12402 H 1125.81 -0.421948 -0.512695 0
M  V30 12403 H 1128.34 -1.72011 -1.10785 0
M  V30 12404 H 1128.35 -2.04004 -3.53336 0
M  V30 12405 H 1127.03 -2.99392 -2.88682 0
M  V30 12406 H 1125.61 -1.27029 -3.50597 0
M  V30 12407 N 1127.79 1.09952 -1.12909 0
M  V30 12408 C 1129.04 1.81657 -0.885729 0
M  V30 12409 C 1129.36 1.85863 0.589913 0
M  V30 12410 O 1128.63 1.34028 1.42875 0
M  V30 12411 H 1127.21 0.672743 -0.324694 0
M  V30 12412 H 1129.87 1.33013 -1.42456 0
M  V30 12413 H 1128.97 2.85018 -1.27167 0
M  V30 12414 N 1129.27 0.921757 1.27833 0
M  V30 12415 C 1130.5 0.575202 1.98744 0
M  V30 12416 C 1130.91 -0.845405 1.68815 0
M  V30 12417 O 1130.27 -1.56106 0.94536 0
M  V30 12418 C 1130.32 0.784389 3.52888 0
M  V30 12419 O 1130.04 2.1491 3.81766 0
M  V30 12420 C 1131.54 0.445744 4.41053 0
M  V30 12421 H 1128.76 0.218525 0.634419 0
M  V30 12422 H 1131.31 1.23715 1.62834 0
M  V30 12423 H 1129.46 0.169323 3.8703 0
M  V30 12424 H 1129.87 2.19469 4.76375 0
M  V30 12425 H 1131.35 0.64284 5.48244 0
M  V30 12426 H 1131.83 -0.618433 4.34824 0
M  V30 12427 H 1132.43 1.03869 4.12421 0
M  V30 12428 N 1130.75 -1.41857 0.686609 0
M  V30 12429 C 1131.68 -2.33481 0.0298353 0
M  V30 12430 C 1132.66 -1.51329 -0.776756 0
M  V30 12431 O 1133.84 -1.79895 -0.731535 0
M  V30 12432 C 1130.97 -3.35065 -0.913707 0
M  V30 12433 C 1129.93 -4.2746 -0.214861 0
M  V30 12434 C 1129.25 -5.19346 -1.27215 0
M  V30 12435 C 1130.55 -5.14252 0.913367 0
M  V30 12436 H 1132.25 -2.8865 0.795067 0
M  V30 12437 H 1129.79 -1.38792 0.383785 0
M  V30 12438 H 1131.75 -3.98082 -1.38234 0
M  V30 12439 H 1130.47 -2.78226 -1.7105 0
M  V30 12440 H 1129.13 -3.65855 0.233651 0
M  V30 12441 H 1128.78 -4.58827 -2.06124 0
M  V30 12442 H 1128.48 -5.81996 -0.80961 0
M  V30 12443 H 1130 -5.85239 -1.74147 0
M  V30 12444 H 1131.41 -5.70887 0.525424 0
M  V30 12445 H 1129.81 -5.85796 1.30244 0
M  V30 12446 H 1130.88 -4.51949 1.75699 0
M  V30 12447 N 1132.22 -0.430739 -1.51599 0
M  V30 12448 C 1133.47 0.137657 -2.01631 0
M  V30 12449 C 1133.79 1.43787 -1.31721 0
M  V30 12450 O 1133.06 1.90668 -0.449717 0
M  V30 12451 H 1131.64 0.0538611 -0.745056 0
M  V30 12452 H 1134.31 -0.571935 -1.86319 0
M  V30 12453 H 1133.4 0.318305 -3.10473 0
M  V30 12454 N 1133.7 1.56767 -0.161869 0
M  V30 12455 C 1135.11 1.83265 0.356466 0
M  V30 12456 C 1135.46 1.08127 1.63716 0
M  V30 12457 O 1134.59 0.33127 2.13849 0
M  V30 12458 C 1135.18 3.32437 0.653521 0
M  V30 12459 C 1133.74 3.59465 1.11633 0
M  V30 12460 C 1132.89 2.76909 0.147204 0
M  V30 12461 H 1135.84 1.53926 -0.386308 0
M  V30 12462 H 1135.86 3.49401 1.50662 0
M  V30 12463 H 1135.37 3.87098 -0.278766 0
M  V30 12464 H 1133.48 3.10206 2.06404 0
M  V30 12465 H 1133.59 4.67853 1.03202 0
M  V30 12466 H 1131.95 2.46457 0.642739 0
M  V30 12467 H 1132.74 3.34346 -0.778938 0
M  V30 12468 N 1135.18 -0.111886 1.57202 0
M  V30 12469 C 1136.09 -1.1556 2.04165 0
M  V30 12470 C 1137.11 -1.44898 0.963354 0
M  V30 12471 O 1138.28 -1.55873 1.27536 0
M  V30 12472 C 1135.35 -2.46048 2.44256 0
M  V30 12473 C 1134.41 -2.24043 3.66201 0
M  V30 12474 C 1133.64 -3.4831 4.04371 0
M  V30 12475 O 1133.86 -4.55895 3.42806 0
M  V30 12476 O 1132.8 -3.38891 4.9743 0
M  V30 12477 H 1136.62 -0.786778 2.93332 0
M  V30 12478 H 1134.21 -0.323196 1.45862 0
M  V30 12479 H 1136.09 -3.22916 2.70745 0
M  V30 12480 H 1134.77 -2.8239 1.58233 0
M  V30 12481 H 1133.67 -1.4501 3.44852 0
M  V30 12482 H 1135.01 -1.92602 4.52952 0
M  V30 12483 N 1136.66 -1.52894 -0.382264 0
M  V30 12484 C 1137.57 -1.81084 -1.4915 0
M  V30 12485 C 1138.58 -0.698045 -1.59384 0
M  V30 12486 O 1139.76 -0.98635 -1.75594 0
M  V30 12487 C 1136.83 -1.97987 -2.84608 0
M  V30 12488 C 1135.89 -3.219 -2.8404 0
M  V30 12489 C 1135.12 -3.37988 -4.13037 0
M  V30 12490 O 1135.34 -2.58733 -5.08344 0
M  V30 12491 O 1134.28 -4.31273 -4.19866 0
M  V30 12492 H 1138.1 -2.75289 -1.28257 0
M  V30 12493 H 1135.69 -1.38068 -0.57076 0
M  V30 12494 H 1137.57 -2.10773 -3.64901 0
M  V30 12495 H 1136.24 -1.06972 -3.05514 0
M  V30 12496 H 1135.15 -3.14551 -2.02505 0
M  V30 12497 H 1136.48 -4.12783 -2.68087 0
M  V30 12498 N 1138.14 0.641106 -1.43971 0
M  V30 12499 C 1139.38 1.40084 -1.46228 0
M  V30 12500 C 1139.71 1.94287 -0.0911011 0
M  V30 12501 O 1138.97 1.73481 0.905688 0
M  V30 12502 C 1139.27 2.59092 -2.46183 0
M  V30 12503 C 1138.93 2.23237 -3.9176 0
M  V30 12504 C 1137.59 2.13171 -4.31407 0
M  V30 12505 C 1139.95 1.94746 -4.83449 0
M  V30 12506 C 1137.27 1.72788 -5.60679 0
M  V30 12507 C 1139.63 1.55858 -6.13099 0
M  V30 12508 C 1138.29 1.44326 -6.5171 0
M  V30 12509 H 1137.56 0.512603 -0.535088 0
M  V30 12510 H 1140.21 0.727956 -1.77124 0
M  V30 12511 H 1138.51 3.31568 -2.08734 0
M  V30 12512 H 1140.21 3.17313 -2.4518 0
M  V30 12513 H 1136.8 2.31986 -3.60389 0
M  V30 12514 H 1140.98 2.01438 -4.53582 0
M  V30 12515 H 1136.24 1.62455 -5.89422 0
M  V30 12516 H 1140.41 1.32848 -6.83611 0
M  V30 12517 H 1138.04 1.12806 -7.51784 0
M  V30 12518 N 1139.62 1.30703 0.880598 0
M  V30 12519 C 1140.56 1.17455 1.98678 0
M  V30 12520 C 1141.53 0.0629569 1.65981 0
M  V30 12521 O 1142.72 0.233926 1.89361 0
M  V30 12522 C 1139.86 0.876882 3.33774 0
M  V30 12523 C 1138.97 2.07078 3.79134 0
M  V30 12524 C 1138.11 1.71082 5.02896 0
M  V30 12525 C 1137.14 2.86942 5.40676 0
M  V30 12526 N 1136.28 2.51212 6.55619 0
M  V30 12527 H 1141.12 2.12086 2.09341 0
M  V30 12528 H 1138.66 1.05514 1.02495 0
M  V30 12529 H 1140.62 0.684899 4.1154 0
M  V30 12530 H 1139.25 -0.0325633 3.22784 0
M  V30 12531 H 1138.3 2.37388 2.97239 0
M  V30 12532 H 1139.61 2.9383 4.0307 0
M  V30 12533 H 1138.76 1.48284 5.883 0
M  V30 12534 H 1137.5 0.815064 4.80841 0
M  V30 12535 H 1136.51 3.10401 4.53797 0
M  V30 12536 H 1137.73 3.77211 5.64703 0
M  V30 12537 H 1135.68 1.64147 6.35131 0
M  V30 12538 H 1135.6 3.31495 6.79446 0
M  V30 12539 H 1136.86 2.31781 7.44243 0
M  V30 12540 N 1141.09 -1.09351 1.1349 0
M  V30 12541 C 1142.06 -2.14185 0.815919 0
M  V30 12542 C 1143.06 -1.59845 -0.174976 0
M  V30 12543 O 1144.25 -1.74122 0.0521971 0
M  V30 12544 C 1141.38 -3.40224 0.214517 0
M  V30 12545 H 1142.57 -2.43913 1.74489 0
M  V30 12546 H 1140.12 -1.24902 0.939634 0
M  V30 12547 H 1140.86 -3.16123 -0.723634 0
M  V30 12548 H 1140.64 -3.80958 0.928102 0
M  V30 12549 H 1142.13 -4.17599 0.00821999 0
M  V30 12550 N 1142.57 -0.928524 -1.27343 0
M  V30 12551 C 1143.81 -0.576696 -1.96096 0
M  V30 12552 C 1144.18 0.866074 -1.71357 0
M  V30 12553 O 1145.38 1.32621 -2.33805 0
M  V30 12554 C 1143.65 -0.894692 -3.4602 0
M  V30 12555 S 1145.21 -0.651503 -4.33936 0
M  V30 12556 H 1142.02 -0.212847 -0.678393 0
M  V30 12557 H 1144.63 -1.19714 -1.5456 0
M  V30 12558 H 1143.33 -1.94239 -3.61524 0
M  V30 12559 H 1142.86 -0.263478 -3.92517 0
M  V30 12560 H 1144.88 0.490314 -4.93772 0
M  V30 12561 N 1144.05 1.41491 -0.694123 0
M  V30 12562 C 1144.98 2.33462 -0.0422169 0
M  V30 12563 C 1145.96 1.51739 0.76872 0
M  V30 12564 O 1147.15 1.8028 0.721985 0
M  V30 12565 C 1144.28 3.35545 0.895925 0
M  V30 12566 C 1143.23 4.27568 0.192188 0
M  V30 12567 C 1142.56 5.20014 1.24459 0
M  V30 12568 C 1143.86 5.1376 -0.940626 0
M  V30 12569 H 1145.55 2.88225 -0.810363 0
M  V30 12570 H 1143.1 1.38586 -0.39114 0
M  V30 12571 H 1145.05 3.9881 1.36121 0
M  V30 12572 H 1143.77 2.79129 1.69572 0
M  V30 12573 H 1142.43 3.65726 -0.25305 0
M  V30 12574 H 1142.08 4.59913 2.03687 0
M  V30 12575 H 1141.78 5.82417 0.778734 0
M  V30 12576 H 1143.3 5.86155 1.71041 0
M  V30 12577 H 1144.72 5.70601 -0.555692 0
M  V30 12578 H 1143.11 5.85097 -1.33349 0
M  V30 12579 H 1144.18 4.51011 -1.78093 0
M  V30 12580 N 1145.53 0.438773 1.51369 0
M  V30 12581 C 1146.78 -0.128723 2.01289 0
M  V30 12582 C 1147.09 -1.43659 1.32745 0
M  V30 12583 O 1148.3 -2.08712 1.73642 0
M  V30 12584 C 1146.75 -0.279945 3.5881 0
M  V30 12585 C 1146.36 1.01758 4.3629 0
M  V30 12586 C 1148.1 -0.801133 4.16872 0
M  V30 12587 C 1146.01 0.831918 5.85519 0
M  V30 12588 H 1144.94 -0.0518814 0.752213 0
M  V30 12589 H 1147.59 0.568753 1.74463 0
M  V30 12590 H 1145.97 -1.04046 3.82087 0
M  V30 12591 H 1147.15 1.78653 4.24758 0
M  V30 12592 H 1145.46 1.46741 3.89687 0
M  V30 12593 H 1148.06 -0.956548 5.26074 0
M  V30 12594 H 1148.4 -1.78396 3.76139 0
M  V30 12595 H 1148.94 -0.0988934 3.97677 0
M  V30 12596 H 1145.67 1.78716 6.30667 0
M  V30 12597 H 1145.19 0.102785 5.99712 0
M  V30 12598 H 1146.87 0.485681 6.45174 0
M  V30 12599 N 1147.01 -1.56678 0.170181 0
M  V30 12600 C 1148.23 -2.0166 -0.484543 0
M  V30 12601 C 1148.66 -1.04962 -1.56091 0
M  V30 12602 O 1148.01 -0.0289887 -1.81277 0
M  V30 12603 C 1148.06 -3.45252 -1.04084 0
M  V30 12604 O 1147.17 -3.51623 -2.15488 0
M  V30 12605 H 1146.51 -0.653765 -0.116135 0
M  V30 12606 H 1149.04 -2.02761 0.273737 0
M  V30 12607 H 1149.05 -3.84534 -1.36373 0
M  V30 12608 H 1147.72 -4.15131 -0.252738 0
M  V30 12609 H 1146.3 -3.242 -1.84252 0
M  V30 12610 N 1148.48 0.103547 -1.57259 0
M  V30 12611 C 1149.41 1.12714 -2.04494 0
M  V30 12612 C 1150.39 1.42278 -0.932255 0
M  V30 12613 O 1151.58 1.52453 -1.20298 0
M  V30 12614 C 1148.71 2.44927 -2.46228 0
M  V30 12615 C 1147.66 2.2979 -3.61082 0
M  V30 12616 C 1146.99 3.67105 -3.88765 0
M  V30 12617 C 1148.29 1.7455 -4.9227 0
M  V30 12618 H 1149.98 0.734198 -2.90258 0
M  V30 12619 H 1147.53 0.351725 -1.39638 0
M  V30 12620 H 1149.48 3.16798 -2.77879 0
M  V30 12621 H 1148.21 2.8614 -1.57453 0
M  V30 12622 H 1146.87 1.60366 -3.29664 0
M  V30 12623 H 1146.51 4.05831 -2.97171 0
M  V30 12624 H 1146.21 3.57825 -4.66084 0
M  V30 12625 H 1147.74 4.40456 -4.22884 0
M  V30 12626 H 1149.15 2.36253 -5.22358 0
M  V30 12627 H 1147.55 1.76051 -5.73695 0
M  V30 12628 H 1148.62 0.704242 -4.79759 0
M  V30 12629 N 1149.96 1.53094 0.37415 0
M  V30 12630 C 1151.21 1.68527 1.11548 0
M  V30 12631 C 1151.53 0.435253 1.9008 0
M  V30 12632 O 1150.8 -0.550594 1.88003 0
M  V30 12633 H 1149.38 0.621255 0.41479 0
M  V30 12634 H 1152.04 1.90258 0.422844 0
M  V30 12635 H 1151.14 2.54248 1.81009 0
M  V30 12636 N 1151.44 -0.633461 1.44309 0
M  V30 12637 C 1152.67 -1.41827 1.50229 0
M  V30 12638 C 1153.08 -1.88786 0.125082 0
M  V30 12639 O 1152.42 -1.61314 -0.878836 0
M  V30 12640 C 1152.48 -2.67372 2.40317 0
M  V30 12641 C 1152.15 -2.42224 3.87526 0
M  V30 12642 C 1153.14 -2.04199 4.7812 0
M  V30 12643 C 1150.83 -2.55936 4.32206 0
M  V30 12644 C 1152.82 -1.80211 6.11394 0
M  V30 12645 C 1150.51 -2.31563 5.65528 0
M  V30 12646 C 1151.51 -1.93758 6.5494 0
M  V30 12647 O 1151.2 -1.69654 7.85794 0
M  V30 12648 H 1150.93 -0.441478 0.51193 0
M  V30 12649 H 1153.48 -0.782118 1.89927 0
M  V30 12650 H 1151.71 -3.33616 1.95543 0
M  V30 12651 H 1153.4 -3.2937 2.37214 0
M  V30 12652 H 1154.17 -1.93164 4.44874 0
M  V30 12653 H 1150.05 -2.84333 3.62872 0
M  V30 12654 H 1153.59 -1.50628 6.81144 0
M  V30 12655 H 1149.49 -2.42206 5.98336 0
M  V30 12656 H 1150.25 -1.83919 7.97569 0
M  V30 12657 N 1152.92 -1.31168 -0.873655 0
M  V30 12658 C 1154.2 -1.11285 -1.60857 0
M  V30 12659 C 1154.58 0.333788 -2.08444 0
M  V30 12660 O 1153.92 1.32726 -1.86 0
M  V30 12661 C 1154.13 -2.12379 -2.7694 0
M  V30 12662 C 1155.48 -2.44704 -3.46994 0
M  V30 12663 O 1156.51 -2.10778 -2.87143 0
M  V30 12664 O 1155.36 -3.02786 -4.54954 0
M  V30 12665 H 1152.46 -0.428177 -0.707526 0
M  V30 12666 H 1155 -1.42634 -0.91944 0
M  V30 12667 H 1153.78 -3.09703 -2.39164 0
M  V30 12668 H 1153.4 -1.81914 -3.53544 0
M  V30 12669 N 1154.4 1.08748 -1.14068 0
M  V30 12670 C 1155.65 1.8044 -0.901352 0
M  V30 12671 C 1155.96 1.86995 0.573791 0
M  V30 12672 O 1157.16 2.55065 0.930275 0
M  V30 12673 C 1155.62 3.24185 -1.56308 0
M  V30 12674 C 1155.23 3.25875 -3.07424 0
M  V30 12675 C 1156.97 4.00584 -1.40473 0
M  V30 12676 C 1154.88 4.64186 -3.66449 0
M  V30 12677 H 1153.81 0.676201 -0.333569 0
M  V30 12678 H 1156.46 1.22169 -1.3692 0
M  V30 12679 H 1154.84 3.82561 -1.0229 0
M  V30 12680 H 1156.02 2.77225 -3.6808 0
M  V30 12681 H 1154.33 2.62969 -3.22856 0
M  V30 12682 H 1156.93 5.02781 -1.81976 0
M  V30 12683 H 1157.27 4.14823 -0.350408 0
M  V30 12684 H 1157.8 3.48668 -1.91508 0
M  V30 12685 H 1154.54 4.5515 -4.71719 0
M  V30 12686 H 1154.06 5.13132 -3.10574 0
M  V30 12687 H 1155.74 5.33161 -3.66536 0
M  V30 12688 N 1155.87 0.935264 1.26849 0
M  V30 12689 C 1157.12 0.578545 1.93642 0
M  V30 12690 C 1157.44 -0.884296 1.73796 0
M  V30 12691 O 1156.71 -1.62768 1.09011 0
M  V30 12692 H 1155.29 0.210976 0.716588 0
M  V30 12693 H 1157.96 1.1893 1.54407 0
M  V30 12694 H 1157.05 0.791268 3.01903 0
M  V30 12695 N 1157.35 -1.41121 0.701616 0
M  V30 12696 C 1158.3 -2.32582 0.0288052 0
M  V30 12697 C 1159.29 -1.5129 -0.762074 0
M  V30 12698 O 1160.5 -1.67185 -0.667014 0
M  V30 12699 H 1156.88 -0.75194 -0.00948675 0
M  V30 12700 H 1158.85 -2.86994 0.817141 0
M  V30 12701 C 1157.6 -3.36137 -0.889217 0
M  V30 12702 H 1156.92 -3.98746 -0.290062 0
M  V30 12703 H 1158.36 -4.0266 -1.32819 0
M  V30 12704 C 1156.82 -2.70504 -2.00821 0
M  V30 12705 O 1157.35 -2.55753 -3.09763 0
M  V30 12706 N 1155.55 -2.29105 -1.78772 0
M  V30 12707 H 1155.1 -2.41303 -0.901708 0
M  V30 12708 H 1155.06 -1.85527 -2.53825 0
M  V30 12709 N 1158.83 -0.446794 -1.51134 0
M  V30 12710 C 1160.11 0.176892 -1.94798 0
M  V30 12711 C 1160.49 1.59229 -1.38598 0
M  V30 12712 O 1159.84 2.21097 -0.576905 0
M  V30 12713 C 1160.05 0.145 -3.48699 0
M  V30 12714 C 1161.39 0.345917 -4.23189 0
M  V30 12715 O 1162.42 0.222691 -3.55503 0
M  V30 12716 O 1161.28 0.592112 -5.43283 0
M  V30 12717 H 1158.37 0.12486 -0.81752 0
M  V30 12718 H 1160.92 -0.505453 -1.61998 0
M  V30 12719 H 1159.69 -0.844156 -3.82086 0
M  V30 12720 H 1159.31 0.869851 -3.87968 0
M  V30 12721 N 1160.31 1.56586 -0.178487 0
M  V30 12722 C 1161.72 1.83633 0.337009 0
M  V30 12723 C 1162.07 1.09857 1.6256 0
M  V30 12724 O 1161.2 0.353933 2.13486 0
M  V30 12725 C 1161.79 3.33112 0.618225 0
M  V30 12726 C 1160.35 3.60629 1.07814 0
M  V30 12727 C 1159.5 2.7705 0.117825 0
M  V30 12728 H 1162.45 1.53508 -0.402612 0
M  V30 12729 H 1162.47 3.5098 1.46947 0
M  V30 12730 H 1161.98 3.8678 -0.319808 0
M  V30 12731 H 1160.08 3.12378 2.03103 0
M  V30 12732 H 1160.19 4.68921 0.982339 0
M  V30 12733 H 1158.56 2.47125 0.616563 0
M  V30 12734 H 1159.34 3.33501 -0.814356 0
M  V30 12735 N 1161.79 -0.095206 1.57312 0
M  V30 12736 C 1162.72 -1.14173 1.98739 0
M  V30 12737 C 1163.73 -1.36323 0.889934 0
M  V30 12738 O 1164.92 -1.34977 1.16805 0
M  V30 12739 C 1162.02 -2.49729 2.29104 0
M  V30 12740 C 1161.19 -2.47857 3.60396 0
M  V30 12741 C 1160.25 -3.65341 3.78699 0
M  V30 12742 O 1159.28 -3.47837 4.50553 0
M  V30 12743 N 1160.48 -4.84818 3.19268 0
M  V30 12744 H 1163.25 -0.789126 2.89124 0
M  V30 12745 H 1160.81 -0.284187 1.59386 0
M  V30 12746 H 1162.8 -3.26925 2.38541 0
M  V30 12747 H 1161.37 -2.7708 1.44726 0
M  V30 12748 H 1160.59 -1.56208 3.61929 0
M  V30 12749 H 1161.88 -2.43685 4.46649 0
M  V30 12750 H 1161.27 -5.01943 2.60902 0
M  V30 12751 H 1159.83 -5.59607 3.34191 0
M  V30 12752 N 1163.26 -1.53291 -0.366026 0
M  V30 12753 C 1164.51 -1.69117 -1.10653 0
M  V30 12754 C 1164.83 -0.445327 -1.89847 0
M  V30 12755 O 1164.1 0.540616 -1.88293 0
M  V30 12756 H 1162.68 -0.623446 -0.41149 0
M  V30 12757 H 1165.35 -1.90479 -0.412749 0
M  V30 12758 H 1164.44 -2.55205 -1.79658 0
M  V30 12759 N 1164.74 0.6258 -1.44643 0
M  V30 12760 C 1165.65 1.76611 -1.5442 0
M  V30 12761 C 1166.67 1.68614 -0.429576 0
M  V30 12762 O 1167.84 1.89296 -0.687686 0
M  V30 12763 C 1164.91 3.13015 -1.49071 0
M  V30 12764 C 1163.97 3.32604 -2.71428 0
M  V30 12765 C 1163.2 4.62501 -2.66325 0
M  V30 12766 O 1163.43 5.43651 -1.72626 0
M  V30 12767 O 1162.36 4.84408 -3.57258 0
M  V30 12768 H 1166.19 1.71315 -2.50769 0
M  V30 12769 H 1163.77 0.787677 -1.26949 0
M  V30 12770 H 1165.65 3.94318 -1.48631 0
M  V30 12771 H 1164.33 3.18842 -0.558686 0
M  V30 12772 H 1163.24 2.50959 -2.77435 0
M  V30 12773 H 1164.57 3.31642 -3.63695 0
M  V30 12774 N 1166.22 1.31629 0.866686 0
M  V30 12775 C 1167.18 1.1951 1.95576 0
M  V30 12776 C 1168.18 0.121319 1.60342 0
M  V30 12777 O 1169.37 0.370832 1.70207 0
M  V30 12778 C 1166.51 0.835201 3.30511 0
M  V30 12779 H 1167.7 2.16285 2.07752 0
M  V30 12780 H 1165.25 1.15288 1.05539 0
M  V30 12781 H 1165.99 -0.131245 3.24034 0
M  V30 12782 H 1165.77 1.61142 3.57457 0
M  V30 12783 H 1167.26 0.774393 4.10357 0
M  V30 12784 N 1167.7 -1.08142 1.14644 0
M  V30 12785 C 1168.61 -2.18675 0.849607 0
M  V30 12786 C 1169.63 -1.73158 -0.170983 0
M  V30 12787 O 1170.8 -2.014 0.0011579 0
M  V30 12788 C 1167.87 -3.45084 0.334305 0
M  V30 12789 C 1166.93 -4.05213 1.41779 0
M  V30 12790 C 1166.16 -5.25588 0.926981 0
M  V30 12791 O 1166.38 -5.69934 -0.230522 0
M  V30 12792 O 1165.32 -5.77183 1.70715 0
M  V30 12793 H 1169.14 -2.46542 1.77343 0
M  V30 12794 H 1166.73 -1.17328 0.924911 0
M  V30 12795 H 1168.61 -4.21367 0.0529893 0
M  V30 12796 H 1167.29 -3.18788 -0.561755 0
M  V30 12797 H 1166.19 -3.30507 1.7526 0
M  V30 12798 H 1167.53 -4.35764 2.28847 0
M  V30 12799 N 1169.18 -0.941978 -1.26351 0
M  V30 12800 C 1170.42 -0.589971 -1.93715 0
M  V30 12801 C 1170.75 0.871085 -1.73903 0
M  V30 12802 O 1170.01 1.63864 -1.06991 0
M  V30 12803 C 1170.31 -0.879481 -3.4641 0
M  V30 12804 C 1169.97 -2.32454 -3.86362 0
M  V30 12805 C 1168.63 -2.71957 -3.9698 0
M  V30 12806 C 1170.99 -3.2636 -4.06373 0
M  V30 12807 C 1168.31 -4.04459 -4.25006 0
M  V30 12808 C 1170.67 -4.58459 -4.35887 0
M  V30 12809 C 1169.33 -4.97775 -4.4472 0
M  V30 12810 H 1168.6 -0.215886 -0.708854 0
M  V30 12811 H 1171.25 -1.18863 -1.50146 0
M  V30 12812 H 1169.55 -0.198289 -3.91298 0
M  V30 12813 H 1171.25 -0.585887 -3.96697 0
M  V30 12814 H 1167.84 -2.00814 -3.78645 0
M  V30 12815 H 1172.02 -2.97037 -3.97596 0
M  V30 12816 H 1167.28 -4.34582 -4.30057 0
M  V30 12817 H 1171.45 -5.31213 -4.50317 0
M  V30 12818 H 1169.08 -6.00475 -4.66191 0
M  V30 12819 N 1170.66 1.40747 -0.709091 0
M  V30 12820 C 1171.62 2.29118 -0.0611607 0
M  V30 12821 C 1172.62 1.45049 0.694081 0
M  V30 12822 O 1173.81 1.66039 0.526952 0
M  V30 12823 C 1170.94 3.28154 0.923447 0
M  V30 12824 H 1172.13 2.87913 -0.839413 0
M  V30 12825 H 1169.69 1.4896 -0.473363 0
M  V30 12826 H 1170.42 2.74366 1.72899 0
M  V30 12827 H 1170.21 3.90207 0.384862 0
M  V30 12828 H 1171.7 3.94343 1.37417 0
M  V30 12829 N 1172.13 0.454803 1.50895 0
M  V30 12830 C 1173.55 0.108037 1.59234 0
M  V30 12831 C 1173.75 -1.38416 1.46435 0
M  V30 12832 O 1172.81 -2.15586 1.31449 0
M  V30 12833 C 1174.12 0.643721 2.93729 0
M  V30 12834 C 1175.67 0.605703 3.07083 0
M  V30 12835 C 1176.14 1.11865 4.44128 0
M  V30 12836 N 1177.63 1.07738 4.50496 0
M  V30 12837 C 1178.37 1.44495 5.54895 0
M  V30 12838 N 1177.86 1.88624 6.66628 0
M  V30 12839 N 1179.66 1.36201 5.45349 0
M  V30 12840 H 1171.81 1.4255 1.57459 0
M  V30 12841 H 1174.07 0.588504 0.743214 0
M  V30 12842 H 1173.78 1.68844 3.0852 0
M  V30 12843 H 1173.65 0.0782404 3.77119 0
M  V30 12844 H 1176.04 -0.430065 2.91949 0
M  V30 12845 H 1176.12 1.2078 2.2549 0
M  V30 12846 H 1175.76 2.15297 4.6001 0
M  V30 12847 H 1175.69 0.492933 5.24288 0
M  V30 12848 H 1178.18 0.753526 3.70311 0
M  V30 12849 H 1178.5 2.14863 7.4233 0
M  V30 12850 H 1176.84 1.92564 6.6779 0
M  V30 12851 H 1180.03 1.01579 4.56946 0
M  V30 12852 H 1180.21 1.65175 6.26595 0
M  V30 12853 N 1173.61 -1.56489 0.186789 0
M  V30 12854 C 1174.86 -1.96517 -0.45433 0
M  V30 12855 C 1175.17 -1.07618 -1.63333 0
M  V30 12856 O 1176.38 -1.37392 -2.3417 0
M  V30 12857 C 1174.84 -3.49482 -0.859685 0
M  V30 12858 C 1174.44 -4.47031 0.294572 0
M  V30 12859 C 1176.19 -3.98296 -1.46835 0
M  V30 12860 C 1174.09 -5.91254 -0.131279 0
M  V30 12861 H 1173.02 -0.733765 -0.17351 0
M  V30 12862 H 1175.68 -1.8139 0.277485 0
M  V30 12863 H 1174.06 -3.60082 -1.64793 0
M  V30 12864 H 1175.23 -4.48156 1.07205 0
M  V30 12865 H 1173.55 -4.08362 0.814197 0
M  V30 12866 H 1176.14 -5.03518 -1.79928 0
M  V30 12867 H 1176.49 -3.42123 -2.37186 0
M  V30 12868 H 1177.02 -3.90776 -0.744247 0
M  V30 12869 H 1173.76 -6.51334 0.737839 0
M  V30 12870 H 1173.28 -5.93401 -0.873786 0
M  V30 12871 H 1174.96 -6.44485 -0.569913 0
M  V30 12872 N 1175.09 0.086862 -1.5736 0
M  V30 12873 C 1176.02 1.13614 -1.97907 0
M  V30 12874 C 1177 1.38395 -0.853564 0
M  V30 12875 O 1178.18 1.52018 -1.11457 0
M  V30 12876 C 1175.31 2.48364 -2.30289 0
M  V30 12877 C 1174.36 2.39814 -3.52692 0
M  V30 12878 S 1175.19 1.80673 -5.04101 0
M  V30 12879 C 1176.35 3.17031 -5.39669 0
M  V30 12880 H 1176.58 0.790538 -2.86597 0
M  V30 12881 H 1174.11 0.294847 -1.51559 0
M  V30 12882 H 1176.07 3.25883 -2.49621 0
M  V30 12883 H 1174.73 2.80091 -1.42154 0
M  V30 12884 H 1173.92 3.3915 -3.72818 0
M  V30 12885 H 1173.53 1.70427 -3.32912 0
M  V30 12886 H 1175.82 4.13319 -5.36818 0
M  V30 12887 H 1176.76 3.017 -6.40611 0
M  V30 12888 H 1177.17 3.16942 -4.67128 0
M  V30 12889 N 1176.57 1.53483 0.357892 0
M  V30 12890 C 1177.79 1.74264 1.12458 0
M  V30 12891 C 1178.22 0.473944 1.82031 0
M  V30 12892 O 1177.58 -0.57253 1.72023 0
M  V30 12893 C 1177.62 2.91356 2.12471 0
M  V30 12894 O 1176.73 2.60502 3.19707 0
M  V30 12895 H 1176.07 0.578499 0.325937 0
M  V30 12896 H 1178.6 2.00395 0.412666 0
M  V30 12897 H 1178.61 3.1774 2.5594 0
M  V30 12898 H 1177.28 3.83378 1.61226 0
M  V30 12899 H 1175.86 2.44961 2.81156 0
M  V30 12900 N 1178.05 -0.61812 1.44973 0
M  V30 12901 C 1179.29 -1.37343 1.47715 0
M  V30 12902 C 1179.61 -1.95239 0.118784 0
M  V30 12903 O 1180.81 -2.7149 0.0237981 0
M  V30 12904 C 1179.27 -2.48732 2.60116 0
M  V30 12905 C 1178.88 -1.97294 4.02218 0
M  V30 12906 C 1180.62 -3.25831 2.72093 0
M  V30 12907 C 1178.53 -3.06102 5.06019 0
M  V30 12908 H 1177.46 -0.516175 0.549617 0
M  V30 12909 H 1180.11 -0.663617 1.7108 0
M  V30 12910 H 1178.49 -3.2235 2.30014 0
M  V30 12911 H 1179.67 -1.30455 4.41948 0
M  V30 12912 H 1177.98 -1.32972 3.94598 0
M  V30 12913 H 1180.58 -4.06968 3.46815 0
M  V30 12914 H 1180.92 -3.76156 1.7836 0
M  V30 12915 H 1181.45 -2.59309 3.01668 0
M  V30 12916 H 1178.19 -2.60706 6.01426 0
M  V30 12917 H 1177.71 -3.71541 4.70869 0
M  V30 12918 H 1179.39 -3.70662 5.30301 0
M  V30 12919 N 1179.52 -1.32087 -0.859693 0
M  V30 12920 C 1180.77 -1.22542 -1.6159 0
M  V30 12921 C 1181.1 0.213533 -1.93022 0
M  V30 12922 O 1180.38 1.14931 -1.56911 0
M  V30 12923 C 1180.66 -2.08004 -2.93949 0
M  V30 12924 C 1180.51 -3.60252 -2.6933 0
M  V30 12925 C 1181.83 -1.93732 -3.95166 0
M  V30 12926 H 1178.95 -0.446504 -0.586347 0
M  V30 12927 H 1181.59 -1.61982 -0.993064 0
M  V30 12928 H 1179.74 -1.74498 -3.47106 0
M  V30 12929 H 1181.42 -4.03947 -2.22766 0
M  V30 12930 H 1179.66 -3.83169 -2.03382 0
M  V30 12931 H 1180.33 -4.1537 -3.63555 0
M  V30 12932 H 1182.81 -2.23075 -3.5125 0
M  V30 12933 H 1181.68 -2.55815 -4.85644 0
M  V30 12934 H 1181.94 -0.903528 -4.32769 0
M  V30 12935 N 1181 1.07532 -1.15215 0
M  V30 12936 C 1182.28 1.76813 -0.83646 0
M  V30 12937 C 1182.66 2.00242 0.6683 0
M  V30 12938 O 1182.01 1.61941 1.61206 0
M  V30 12939 C 1182.22 3.0779 -1.64519 0
M  V30 12940 C 1183.56 3.82168 -1.85022 0
M  V30 12941 O 1184.59 3.17596 -1.61279 0
M  V30 12942 O 1183.45 4.98135 -2.24775 0
M  V30 12943 H 1180.54 0.767736 -0.307426 0
M  V30 12944 H 1183.09 1.13914 -1.25784 0
M  V30 12945 H 1181.86 2.86342 -2.6669 0
M  V30 12946 H 1181.48 3.78419 -1.22002 0
M  V30 12947 N 1182.48 0.948665 1.2585 0
M  V30 12948 C 1183.89 0.641829 1.75321 0
M  V30 12949 C 1184.24 -0.842903 1.77171 0
M  V30 12950 O 1183.37 -1.65967 1.38867 0
M  V30 12951 C 1183.96 1.15835 3.18383 0
M  V30 12952 C 1182.52 0.901784 3.65438 0
M  V30 12953 C 1181.67 1.30489 2.44679 0
M  V30 12954 H 1184.62 1.12614 1.1182 0
M  V30 12955 H 1184.64 0.515639 3.7699 0
M  V30 12956 H 1184.15 2.23897 3.17004 0
M  V30 12957 H 1182.25 -0.164135 3.72238 0
M  V30 12958 H 1182.37 1.53405 4.53876 0
M  V30 12959 H 1180.73 0.723278 2.44215 0
M  V30 12960 H 1181.51 2.3946 2.45996 0
M  V30 12961 N 1183.96 -1.40369 0.716545 0
M  V30 12962 C 1184.91 -2.32539 0.053472 0
M  V30 12963 C 1185.9 -1.5209 -0.745984 0
M  V30 12964 O 1187.11 -1.67883 -0.649245 0
M  V30 12965 H 1183.48 -0.751998 -0.00151088 0
M  V30 12966 H 1185.45 -2.86111 0.847535 0
M  V30 12967 C 1184.2 -3.37061 -0.853515 0
M  V30 12968 H 1183.52 -3.99032 -0.247754 0
M  V30 12969 H 1184.96 -4.04046 -1.28541 0
M  V30 12970 C 1183.42 -2.72619 -1.97941 0
M  V30 12971 O 1183.95 -2.59024 -3.07033 0
M  V30 12972 N 1182.16 -2.30988 -1.76332 0
M  V30 12973 H 1181.71 -2.42246 -0.876063 0
M  V30 12974 H 1181.66 -1.88209 -2.51843 0
M  V30 12975 N 1185.44 -0.462799 -1.50652 0
M  V30 12976 C 1186.85 -0.11648 -1.59174 0
M  V30 12977 C 1187.05 1.37638 -1.47167 0
M  V30 12978 O 1186.11 2.14886 -1.3259 0
M  V30 12979 C 1187.42 -0.659289 -2.93383 0
M  V30 12980 C 1188.97 -0.62198 -3.06758 0
M  V30 12981 C 1189.44 -1.14219 -4.43529 0
M  V30 12982 N 1190.94 -1.10125 -4.49919 0
M  V30 12983 C 1191.67 -1.47436 -5.54121 0
M  V30 12984 N 1191.17 -1.92156 -6.65618 0
M  V30 12985 N 1192.96 -1.39091 -5.44619 0
M  V30 12986 H 1185.11 -1.43383 -1.56701 0
M  V30 12987 H 1187.37 -0.592438 -0.740082 0
M  V30 12988 H 1187.08 -1.70477 -3.07621 0
M  V30 12989 H 1186.95 -0.0982388 -3.77072 0
M  V30 12990 H 1189.34 0.414576 -2.92173 0
M  V30 12991 H 1189.42 -1.21974 -2.24847 0
M  V30 12992 H 1189.07 -2.17734 -4.58862 0
M  V30 12993 H 1189 -0.52073 -5.24019 0
M  V30 12994 H 1191.49 -0.773154 -3.69906 0
M  V30 12995 H 1191.8 -2.18796 -7.4118 0
M  V30 12996 H 1190.14 -1.96103 -6.6676 0
M  V30 12997 H 1193.34 -1.04001 -4.564 0
M  V30 12998 H 1193.51 -1.68496 -6.2571 0
M  V30 12999 N 1186.91 1.56388 -0.195085 0
M  V30 13000 C 1187.84 2.22091 0.720971 0
M  V30 13001 C 1188.83 1.184 1.22128 0
M  V30 13002 O 1190.01 1.46907 1.27012 0
M  V30 13003 C 1187.14 2.88025 1.94059 0
M  V30 13004 C 1186.09 3.97959 1.5752 0
M  V30 13005 C 1185.42 4.51058 2.87143 0
M  V30 13006 C 1186.72 5.16365 0.785145 0
M  V30 13007 H 1188.41 2.98898 0.173245 0
M  V30 13008 H 1185.96 1.43767 0.0818868 0
M  V30 13009 H 1187.91 3.32671 2.58666 0
M  V30 13010 H 1186.64 2.08623 2.51285 0
M  V30 13011 H 1185.3 3.54004 0.952715 0
M  V30 13012 H 1184.94 3.68418 3.42458 0
M  V30 13013 H 1184.64 5.25237 2.63439 0
M  V30 13014 H 1186.17 4.98406 3.52738 0
M  V30 13015 H 1187.58 5.57556 1.33431 0
M  V30 13016 H 1185.98 5.9661 0.646231 0
M  V30 13017 H 1187.05 4.84428 -0.213789 0
M  V30 13018 N 1188.39 -0.0785156 1.57404 0
M  V30 13019 C 1189.64 -0.777399 1.8655 0
M  V30 13020 C 1189.96 -1.78451 0.786142 0
M  V30 13021 O 1189.23 -1.95016 -0.185911 0
M  V30 13022 H 1187.81 -0.290097 0.688369 0
M  V30 13023 H 1190.47 -0.0562017 1.94819 0
M  V30 13024 H 1189.57 -1.29776 2.83839 0
M  V30 13025 N 1189.87 -1.5367 -0.349747 0
M  V30 13026 C 1191.12 -1.7087 -1.0923 0
M  V30 13027 C 1191.45 -0.467299 -1.88494 0
M  V30 13028 O 1190.72 0.535619 -1.8698 0
M  V30 13029 C 1191.01 -2.9684 -2.03858 0
M  V30 13030 C 1190.86 -4.31174 -1.28097 0
M  V30 13031 C 1192.18 -3.18459 -3.03763 0
M  V30 13032 H 1189.3 -0.621757 -0.395711 0
M  V30 13033 H 1191.94 -1.86333 -0.371481 0
M  V30 13034 H 1190.09 -2.83788 -2.65323 0
M  V30 13035 H 1191.76 -4.56066 -0.692933 0
M  V30 13036 H 1190.01 -4.29866 -0.582924 0
M  V30 13037 H 1190.68 -5.15482 -1.9744 0
M  V30 13038 H 1193.15 -3.30801 -2.52409 0
M  V30 13039 H 1192.03 -4.08006 -3.67182 0
M  V30 13040 H 1192.29 -2.34467 -3.74803 0
M  V30 13041 N 1191.35 0.610423 -1.45298 0
M  V30 13042 C 1192.59 1.37154 -1.49388 0
M  V30 13043 C 1192.93 1.93737 -0.134025 0
M  V30 13044 O 1192.2 1.74888 0.851138 0
M  V30 13045 C 1192.49 2.52155 -2.5708 0
M  V30 13046 C 1192.34 2.00786 -4.02498 0
M  V30 13047 C 1193.66 3.54294 -2.61082 0
M  V30 13048 H 1190.78 0.497346 -0.54389 0
M  V30 13049 H 1193.42 0.688358 -1.77092 0
M  V30 13050 H 1191.57 3.10434 -2.33587 0
M  V30 13051 H 1193.24 1.47178 -4.37191 0
M  V30 13052 H 1191.48 1.31809 -4.1329 0
M  V30 13053 H 1192.15 2.83674 -4.73533 0
M  V30 13054 H 1194.63 3.05851 -2.82125 0
M  V30 13055 H 1193.51 4.32254 -3.38301 0
M  V30 13056 H 1193.77 4.09726 -1.66063 0
M  V30 13057 N 1192.83 1.32541 0.852676 0
M  V30 13058 C 1194.05 1.2622 1.6394 0
M  V30 13059 C 1194.47 -0.169455 1.88038 0
M  V30 13060 O 1193.83 -1.10719 1.45078 0
M  V30 13061 C 1193.88 2.02062 2.99755 0
M  V30 13062 O 1193.6 3.39641 2.76723 0
M  V30 13063 C 1195.1 2.02787 3.94198 0
M  V30 13064 H 1192.32 0.435405 0.510552 0
M  V30 13065 H 1194.86 1.74696 1.06309 0
M  V30 13066 H 1193.02 1.57303 3.54026 0
M  V30 13067 H 1193.43 3.78484 3.63111 0
M  V30 13068 H 1194.91 2.60333 4.86755 0
M  V30 13069 H 1195.38 1.01464 4.27319 0
M  V30 13070 H 1195.99 2.47504 3.45864 0
M  V30 13071 N 1194.3 -1.0692 1.15784 0
M  V30 13072 C 1195.55 -1.796 0.935429 0
M  V30 13073 C 1195.88 -1.86935 -0.537173 0
M  V30 13074 O 1195.13 -1.35244 -1.41448 0
M  V30 13075 C 1195.43 -3.24389 1.50022 0
M  V30 13076 C 1195.1 -3.37145 2.99406 0
M  V30 13077 C 1193.76 -3.40334 3.40186 0
M  V30 13078 C 1196.11 -3.39584 3.95389 0
M  V30 13079 C 1193.44 -3.43569 4.75581 0
M  V30 13080 C 1195.79 -3.44356 5.30661 0
M  V30 13081 C 1194.46 -3.45824 5.70931 0
M  V30 13082 H 1193.73 -0.657201 0.342298 0
M  V30 13083 H 1196.37 -1.25784 1.44397 0
M  V30 13084 H 1194.68 -3.81015 0.91297 0
M  V30 13085 H 1196.38 -3.79209 1.30389 0
M  V30 13086 H 1192.97 -3.35365 2.66887 0
M  V30 13087 H 1197.15 -3.36337 3.64954 0
M  V30 13088 H 1192.41 -3.43006 5.06119 0
M  V30 13089 H 1196.58 -3.4519 6.04828 0
M  V30 13090 H 1194.21 -3.48084 6.75826 0
M  V30 13091 N 1195.78 -0.955326 -1.25345 0
M  V30 13092 C 1196.71 -0.4334 -2.25065 0
M  V30 13093 C 1197.73 0.451099 -1.56425 0
M  V30 13094 O 1198.92 0.259265 -1.76607 0
M  V30 13095 C 1196.02 0.394809 -3.36592 0
M  V30 13096 C 1195.19 -0.476856 -4.34793 0
M  V30 13097 C 1194.25 0.293269 -5.25382 0
M  V30 13098 O 1193.27 -0.30857 -5.68363 0
M  V30 13099 N 1194.48 1.58617 -5.58409 0
M  V30 13100 H 1197.24 -1.29073 -2.70482 0
M  V30 13101 H 1194.8 -0.825764 -1.39258 0
M  V30 13102 H 1196.79 0.917747 -3.94157 0
M  V30 13103 H 1195.36 1.153 -2.90559 0
M  V30 13104 H 1194.58 -1.18089 -3.76097 0
M  V30 13105 H 1195.87 -1.07178 -4.97384 0
M  V30 13106 H 1195.27 2.09705 -5.25395 0
M  V30 13107 H 1193.83 2.05506 -6.18555 0
M  V30 13108 N 1197.26 1.39987 -0.723979 0
M  V30 13109 C 1198.22 2.29041 -0.0854583 0
M  V30 13110 C 1199.22 1.45777 0.678657 0
M  V30 13111 O 1200.41 1.66588 0.509311 0
M  V30 13112 C 1197.55 3.29115 0.88859 0
M  V30 13113 H 1198.74 2.87006 -0.869903 0
M  V30 13114 H 1196.29 1.48449 -0.489136 0
M  V30 13115 H 1197.03 2.76184 1.69979 0
M  V30 13116 H 1196.81 3.90593 0.343454 0
M  V30 13117 H 1198.3 3.95778 1.33227 0
M  V30 13118 N 1198.74 0.470782 1.50404 0
M  V30 13119 C 1199.99 -0.084316 2.02324 0
M  V30 13120 C 1200.31 -1.39749 1.35279 0
M  V30 13121 O 1199.57 -1.90037 0.467364 0
M  V30 13122 C 1199.87 -0.316419 3.55997 0
M  V30 13123 C 1199.53 0.915017 4.41518 0
M  V30 13124 C 1198.2 1.25265 4.6461 0
M  V30 13125 C 1200.55 1.73494 4.91477 0
M  V30 13126 C 1197.88 2.41027 5.34905 0
M  V30 13127 C 1200.23 2.88384 5.63043 0
M  V30 13128 C 1198.89 3.22562 5.84389 0
M  V30 13129 H 1198.16 -0.0308534 0.740357 0
M  V30 13130 H 1200.81 0.624799 1.81021 0
M  V30 13131 H 1199.11 -1.10778 3.75813 0
M  V30 13132 H 1200.81 -0.759882 3.93734 0
M  V30 13133 H 1197.4 0.641977 4.23765 0
M  V30 13134 H 1201.59 1.48728 4.73491 0
M  V30 13135 H 1196.84 2.67781 5.49639 0
M  V30 13136 H 1201.02 3.52264 6.00735 0
M  V30 13137 H 1198.64 4.1237 6.38635 0
M  V30 13138 N 1200.22 -1.56282 0.203376 0
M  V30 13139 C 1201.47 -1.96987 -0.433461 0
M  V30 13140 C 1201.78 -1.09344 -1.62183 0
M  V30 13141 O 1202.99 -1.39868 -2.327 0
M  V30 13142 C 1201.44 -3.50374 -0.82257 0
M  V30 13143 C 1201.05 -4.46693 0.341969 0
M  V30 13144 C 1202.79 -3.99831 -1.42603 0
M  V30 13145 C 1200.7 -5.9136 -0.0685608 0
M  V30 13146 H 1199.63 -0.735564 -0.165717 0
M  V30 13147 H 1202.28 -1.81085 0.296708 0
M  V30 13148 H 1200.66 -3.6181 -1.60964 0
M  V30 13149 H 1201.84 -4.46994 1.11952 0
M  V30 13150 H 1200.15 -4.07476 0.857463 0
M  V30 13151 H 1202.75 -5.05398 -1.74577 0
M  V30 13152 H 1203.09 -3.4462 -2.33544 0
M  V30 13153 H 1203.63 -3.91543 -0.702758 0
M  V30 13154 H 1200.36 -6.50515 0.80688 0
M  V30 13155 H 1199.88 -5.94295 -0.810798 0
M  V30 13156 H 1201.56 -6.45053 -0.501525 0
M  V30 13157 N 1201.7 0.070167 -1.57444 0
M  V30 13158 C 1202.97 0.802108 -1.78397 0
M  V30 13159 C 1203.35 1.95706 -0.791356 0
M  V30 13160 O 1202.7 2.27827 0.17518 0
M  V30 13161 C 1202.91 1.27354 -3.24934 0
M  V30 13162 C 1204.26 1.70626 -3.88808 0
M  V30 13163 O 1205.28 1.36916 -3.28835 0
M  V30 13164 O 1204.14 2.33041 -4.94322 0
M  V30 13165 H 1201.24 0.384483 -0.73219 0
M  V30 13166 H 1203.78 0.0501168 -1.69626 0
M  V30 13167 H 1202.55 0.447204 -3.88736 0
M  V30 13168 H 1202.18 2.0868 -3.38435 0
M  V30 13169 N 1203.17 1.53854 0.341593 0
M  V30 13170 C 1204.42 1.71194 1.08162 0
M  V30 13171 C 1204.75 0.47614 1.88582 0
M  V30 13172 O 1204 -0.542115 1.88041 0
M  V30 13173 C 1204.3 2.92844 2.04884 0
M  V30 13174 C 1203.97 4.28366 1.40759 0
M  V30 13175 C 1202.63 4.65214 1.23 0
M  V30 13176 C 1204.98 5.12546 0.945819 0
M  V30 13177 C 1202.31 5.83857 0.576852 0
M  V30 13178 C 1204.66 6.31857 0.306568 0
M  V30 13179 C 1203.33 6.67398 0.116677 0
M  V30 13180 H 1202.6 0.626442 0.395792 0
M  V30 13181 H 1205.24 1.88073 0.360688 0
M  V30 13182 H 1203.55 2.70576 2.83365 0
M  V30 13183 H 1205.25 3.03454 2.62139 0
M  V30 13184 H 1201.84 3.99366 1.5558 0
M  V30 13185 H 1206.02 4.84609 1.07087 0
M  V30 13186 H 1201.28 6.09967 0.418363 0
M  V30 13187 H 1205.45 6.96375 -0.0593285 0
M  V30 13188 H 1203.08 7.59191 -0.391477 0
M  V30 13189 N 1204.65 -0.602709 1.4562 0
M  V30 13190 C 1205.58 -1.72705 1.49159 0
M  V30 13191 C 1206.56 -1.58843 0.347494 0
M  V30 13192 O 1207.75 -1.80337 0.548716 0
M  V30 13193 C 1204.87 -3.10579 1.35125 0
M  V30 13194 C 1203.92 -3.43016 2.53461 0
M  V30 13195 S 1204.75 -3.37311 4.1591 0
M  V30 13196 C 1205.91 -4.77757 4.0435 0
M  V30 13197 H 1206.14 -1.69441 2.44289 0
M  V30 13198 H 1203.67 -0.779776 1.33262 0
M  V30 13199 H 1205.63 -3.90127 1.27715 0
M  V30 13200 H 1204.29 -3.11352 0.414568 0
M  V30 13201 H 1203.49 -4.43415 2.39581 0
M  V30 13202 H 1203.09 -2.70993 2.57757 0
M  V30 13203 H 1205.38 -5.67677 3.69796 0
M  V30 13204 H 1206.32 -4.96694 5.04679 0
M  V30 13205 H 1206.73 -4.53667 3.35926 0
M  V30 13206 N 1206.13 -1.32992 -0.845635 0
M  V30 13207 C 1207.35 -1.27231 -1.6379 0
M  V30 13208 C 1207.78 0.155141 -1.87459 0
M  V30 13209 O 1207.14 1.10953 -1.43384 0
M  V30 13210 C 1207.19 -2.04629 -2.96916 0
M  V30 13211 O 1206.29 -1.40027 -3.879 0
M  V30 13212 H 1205.63 -0.438045 -0.499011 0
M  V30 13213 H 1208.16 -1.75448 -1.05257 0
M  V30 13214 H 1208.17 -2.15141 -3.46667 0
M  V30 13215 H 1206.85 -3.08425 -2.79011 0
M  V30 13216 H 1205.42 -1.38118 -3.46378 0
M  V30 13217 N 1207.61 1.06304 -1.1635 0
M  V30 13218 C 1209.02 1.31227 -0.90838 0
M  V30 13219 C 1209.22 1.96665 0.438779 0
M  V30 13220 O 1208.28 2.2332 1.17833 0
M  V30 13221 C 1209.59 2.19303 -2.05734 0
M  V30 13222 C 1211.14 2.3272 -2.09309 0
M  V30 13223 C 1211.62 3.24151 -3.23559 0
M  V30 13224 N 1213.11 3.31734 -3.23275 0
M  V30 13225 C 1213.84 4.02572 -4.08318 0
M  V30 13226 N 1213.34 4.75933 -5.03448 0
M  V30 13227 N 1215.13 3.98621 -3.96305 0
M  V30 13228 H 1207.28 0.622228 -2.03081 0
M  V30 13229 H 1209.54 0.336892 -0.886119 0
M  V30 13230 H 1209.25 1.78497 -3.03037 0
M  V30 13231 H 1209.12 3.19888 -1.99879 0
M  V30 13232 H 1211.51 2.72774 -1.12599 0
M  V30 13233 H 1211.59 1.31804 -2.19229 0
M  V30 13234 H 1211.24 2.84813 -4.20528 0
M  V30 13235 H 1211.17 4.25046 -3.10875 0
M  V30 13236 H 1213.66 2.79453 -2.5439 0
M  V30 13237 H 1213.97 5.27512 -5.64758 0
M  V30 13238 H 1212.32 4.74913 -5.07427 0
M  V30 13239 H 1215.51 3.40427 -3.21289 0
M  V30 13240 H 1215.68 4.5356 -4.62804 0
M  V30 13241 N 1209.09 0.96196 1.24836 0
M  V30 13242 C 1210 0.494876 2.29321 0
M  V30 13243 C 1211.01 -0.441363 1.68309 0
M  V30 13244 O 1212.19 -0.315814 1.98908 0
M  V30 13245 C 1209.25 -0.212944 3.46045 0
M  V30 13246 C 1208.31 0.762411 4.22476 0
M  V30 13247 C 1207.55 0.0882756 5.33627 0
M  V30 13248 O 1207.77 -1.12459 5.59204 0
M  V30 13249 O 1206.7 0.777529 5.96857 0
M  V30 13250 H 1210.53 1.36333 2.7138 0
M  V30 13251 H 1208.11 0.728738 1.30421 0
M  V30 13252 H 1210 -0.610805 4.1695 0
M  V30 13253 H 1208.67 -1.05645 3.05975 0
M  V30 13254 H 1207.58 1.21062 3.5397 0
M  V30 13255 H 1208.91 1.57416 4.66349 0
M  V30 13256 N 1210.56 -1.39601 0.731392 0
M  V30 13257 C 1211.79 -2.04887 0.28789 0
M  V30 13258 C 1212.21 -1.55138 -1.076 0
M  V30 13259 O 1211.56 -0.71471 -1.67923 0
M  V30 13260 C 1211.61 -3.6044 0.276629 0
M  V30 13261 O 1211.34 -4.08358 1.58668 0
M  V30 13262 C 1212.84 -4.4292 -0.183485 0
M  V30 13263 H 1210.06 -0.658976 0.126459 0
M  V30 13264 H 1212.6 -1.78716 0.994031 0
M  V30 13265 H 1210.76 -3.85526 -0.380597 0
M  V30 13266 H 1211.17 -5.02659 1.4978 0
M  V30 13267 H 1212.64 -5.51822 -0.140207 0
M  V30 13268 H 1213.12 -4.2168 -1.22811 0
M  V30 13269 H 1213.73 -4.22976 0.444042 0
M  V30 13270 N 1212.04 -0.478751 -1.50152 0
M  V30 13271 C 1213.01 0.300181 -2.27226 0
M  V30 13272 C 1214.01 0.913705 -1.32318 0
M  V30 13273 O 1215.2 0.781692 -1.55677 0
M  V30 13274 C 1212.33 1.42838 -3.09532 0
M  V30 13275 H 1213.52 -0.375845 -2.97536 0
M  V30 13276 H 1211.07 -0.233037 -1.54553 0
M  V30 13277 H 1211.81 2.13923 -2.43737 0
M  V30 13278 H 1211.59 0.994161 -3.79287 0
M  V30 13279 H 1213.08 1.97765 -3.67802 0
M  V30 13280 N 1213.52 1.56172 -0.211661 0
M  V30 13281 C 1214.8 1.8984 0.471195 0
M  V30 13282 C 1215.18 1.1276 1.78461 0
M  V30 13283 O 1214.53 0.233817 2.27301 0
M  V30 13284 C 1214.74 3.42434 0.673814 0
M  V30 13285 C 1216.08 4.13 0.985719 0
M  V30 13286 O 1217.11 3.47977 0.760953 0
M  V30 13287 O 1215.97 5.2795 1.41176 0
M  V30 13288 H 1213.06 0.789008 0.247782 0
M  V30 13289 H 1215.61 1.67802 -0.25311 0
M  V30 13290 H 1214.38 3.90481 -0.253034 0
M  V30 13291 H 1214 3.70218 1.44997 0
M  V30 13292 N 1215 -0.0618163 1.57479 0
M  V30 13293 C 1216.23 -0.771724 1.91969 0
M  V30 13294 C 1216.64 -1.7061 0.808549 0
M  V30 13295 O 1216 -1.812 -0.217455 0
M  V30 13296 C 1216.05 -1.55687 3.26257 0
M  V30 13297 O 1215.77 -0.660032 4.331 0
M  V30 13298 C 1217.27 -2.36688 3.74825 0
M  V30 13299 H 1214.49 -0.21885 0.634307 0
M  V30 13300 H 1217.04 -0.0291068 2.04479 0
M  V30 13301 H 1215.19 -2.25167 3.15244 0
M  V30 13302 H 1215.6 -1.20715 5.1042 0
M  V30 13303 H 1217.08 -2.8722 4.7139 0
M  V30 13304 H 1217.56 -3.1666 3.0434 0
M  V30 13305 H 1218.16 -1.72346 3.88815 0
M  V30 13306 N 1216.48 -1.54033 -0.333429 0
M  V30 13307 C 1217.75 -1.62404 -1.09015 0
M  V30 13308 C 1218.13 -0.451653 -2.06212 0
M  V30 13309 O 1217.48 0.555086 -2.21655 0
M  V30 13310 C 1217.69 -2.98949 -1.80085 0
M  V30 13311 C 1219.04 -3.54655 -2.33464 0
M  V30 13312 O 1220.06 -3.0119 -1.90166 0
M  V30 13313 O 1218.92 -4.48195 -3.12703 0
M  V30 13314 H 1216.02 -0.65727 -0.501921 0
M  V30 13315 H 1218.56 -1.66378 -0.33411 0
M  V30 13316 H 1217.33 -3.75716 -1.09332 0
M  V30 13317 H 1216.96 -2.98609 -2.62523 0
M  V30 13318 N 1217.95 0.594978 -1.45938 0
M  V30 13319 C 1219.18 1.37994 -1.5416 0
M  V30 13320 C 1219.6 1.87954 -0.17848 0
M  V30 13321 O 1218.95 1.62932 0.822161 0
M  V30 13322 C 1219.01 2.57586 -2.53637 0
M  V30 13323 O 1218.73 2.09698 -3.84653 0
M  V30 13324 C 1220.23 3.50292 -2.71681 0
M  V30 13325 H 1217.45 0.421983 -0.5217 0
M  V30 13326 H 1219.99 0.724459 -1.91238 0
M  V30 13327 H 1218.15 3.19149 -2.19597 0
M  V30 13328 H 1218.56 2.87492 -4.3869 0
M  V30 13329 H 1220.03 4.30717 -3.45234 0
M  V30 13330 H 1220.51 4.01444 -1.78156 0
M  V30 13331 H 1221.12 2.94573 -3.06768 0
M  V30 13332 N 1219.43 1.33438 0.838571 0
M  V30 13333 C 1220.4 1.23632 1.92997 0
M  V30 13334 C 1221.4 0.155302 1.60048 0
M  V30 13335 O 1222.59 0.406852 1.69382 0
M  V30 13336 C 1219.72 0.90512 3.28665 0
M  V30 13337 H 1220.91 2.20643 2.03117 0
M  V30 13338 H 1218.46 1.17501 1.03069 0
M  V30 13339 H 1219.2 -0.0624833 3.2424 0
M  V30 13340 H 1218.98 1.68688 3.53959 0
M  V30 13341 H 1220.47 0.861262 4.08622 0
M  V30 13342 N 1220.91 -1.05686 1.16912 0
M  V30 13343 C 1222.19 -1.7546 0.864483 0
M  V30 13344 C 1222.57 -2.0128 -0.636359 0
M  V30 13345 O 1221.92 -1.64485 -1.58609 0
M  V30 13346 C 1222.13 -3.05134 1.69395 0
M  V30 13347 C 1223.47 -3.79176 1.91079 0
M  V30 13348 O 1224.5 -3.1499 1.66312 0
M  V30 13349 O 1223.36 -4.94496 2.32671 0
M  V30 13350 H 1220.45 -0.762748 0.319601 0
M  V30 13351 H 1223 -1.11899 1.27581 0
M  V30 13352 H 1221.77 -2.82063 2.71212 0
M  V30 13353 H 1221.39 -3.76431 1.28007 0
M  V30 13354 N 1222.39 -0.968567 -1.24324 0
M  V30 13355 C 1223.32 -0.457247 -2.24593 0
M  V30 13356 C 1224.33 0.434483 -1.56895 0
M  V30 13357 O 1225.52 0.240519 -1.76872 0
M  V30 13358 C 1222.62 0.359086 -3.36992 0
M  V30 13359 C 1221.8 -0.522945 -4.34263 0
M  V30 13360 C 1220.85 0.237528 -5.25664 0
M  V30 13361 O 1219.88 -0.368835 -5.68004 0
M  V30 13362 N 1221.08 1.52686 -5.6006 0
M  V30 13363 H 1223.85 -1.31934 -2.69098 0
M  V30 13364 H 1221.41 -0.840488 -1.38374 0
M  V30 13365 H 1223.4 0.87589 -3.95108 0
M  V30 13366 H 1221.97 1.12212 -2.91766 0
M  V30 13367 H 1221.19 -1.22071 -3.74823 0
M  V30 13368 H 1222.48 -1.12447 -4.96219 0
M  V30 13369 H 1221.88 2.0412 -5.2759 0
M  V30 13370 H 1220.43 1.98934 -6.207 0
M  V30 13371 N 1223.87 1.39211 -0.738786 0
M  V30 13372 C 1225.11 2.00733 -0.288817 0
M  V30 13373 C 1225.45 1.58494 1.1222 0
M  V30 13374 O 1224.72 0.815579 1.76575 0
M  V30 13375 C 1225 3.57928 -0.394956 0
M  V30 13376 C 1224.86 4.10174 -1.84601 0
M  V30 13377 C 1226.18 4.39548 0.220395 0
M  V30 13378 H 1223.29 0.729276 -0.106418 0
M  V30 13379 H 1225.94 1.65365 -0.935652 0
M  V30 13380 H 1224.09 3.88188 0.155744 0
M  V30 13381 H 1225.76 3.90618 -2.45388 0
M  V30 13382 H 1224 3.63593 -2.36607 0
M  V30 13383 H 1224.67 5.19305 -1.87152 0
M  V30 13384 H 1227.15 4.15354 -0.249098 0
M  V30 13385 H 1226.02 5.48778 0.115806 0
M  V30 13386 H 1226.29 4.22341 1.30691 0
M  V30 13387 N 1225.34 0.486708 1.49896 0
M  V30 13388 C 1226.28 -0.345627 2.25567 0
M  V30 13389 C 1227.26 -0.982794 1.29537 0
M  V30 13390 O 1228.44 -1.01569 1.58796 0
M  V30 13391 C 1225.57 -1.48555 3.04383 0
M  V30 13392 C 1224.61 -0.964196 4.15458 0
M  V30 13393 S 1225.45 0.133631 5.35333 0
M  V30 13394 C 1226.6 -1.00979 6.17701 0
M  V30 13395 H 1226.83 0.296677 2.95816 0
M  V30 13396 H 1224.37 0.271798 1.51989 0
M  V30 13397 H 1226.33 -2.13878 3.50381 0
M  V30 13398 H 1224.99 -2.09942 2.33631 0
M  V30 13399 H 1224.18 -1.81804 4.70067 0
M  V30 13400 H 1223.78 -0.388419 3.71978 0
M  V30 13401 H 1226.07 -1.91812 6.4978 0
M  V30 13402 H 1227.02 -0.502633 7.06314 0
M  V30 13403 H 1227.42 -1.27067 5.50013 0
M  V30 13404 N 1226.82 -1.56058 0.219941 0
M  V30 13405 C 1227.79 -2.18964 -0.677303 0
M  V30 13406 C 1228.79 -1.15105 -1.12283 0
M  V30 13407 O 1229.98 -1.40348 -1.03189 0
M  V30 13408 C 1227.11 -2.81167 -1.92764 0
M  V30 13409 H 1228.3 -2.99623 -0.128877 0
M  V30 13410 H 1225.85 -1.56272 -0.0296744 0
M  V30 13411 H 1226.59 -2.04374 -2.51797 0
M  V30 13412 H 1226.37 -3.5722 -1.61666 0
M  V30 13413 H 1227.86 -3.29391 -2.56693 0
M  V30 13414 N 1228.3 0.053464 -1.57509 0
M  V30 13415 C 1229.53 0.765301 -1.92764 0
M  V30 13416 C 1229.95 1.69385 -0.817943 0
M  V30 13417 O 1229.31 1.7986 0.228075 0
M  V30 13418 C 1229.36 1.51938 -3.27028 0
M  V30 13419 O 1228.46 2.63121 -3.17555 0
M  V30 13420 H 1227.8 0.207567 -0.630723 0
M  V30 13421 H 1230.33 0.0162254 -2.04594 0
M  V30 13422 H 1230.34 1.89466 -3.6134 0
M  V30 13423 H 1229.02 0.838207 -4.07366 0
M  V30 13424 H 1227.59 2.28316 -2.94832 0
M  V30 13425 N 1229.78 1.54207 0.325255 0
M  V30 13426 C 1231.03 1.72331 1.0634 0
M  V30 13427 C 1231.35 0.496115 1.88066 0
M  V30 13428 O 1230.61 -0.52214 1.88606 0
M  V30 13429 C 1230.91 2.95 2.01766 0
M  V30 13430 C 1230.57 4.29835 1.36208 0
M  V30 13431 C 1229.24 4.66493 1.18059 0
M  V30 13432 C 1231.59 5.13521 0.891404 0
M  V30 13433 C 1228.92 5.84436 0.514894 0
M  V30 13434 C 1231.27 6.32146 0.239534 0
M  V30 13435 C 1229.93 6.67484 0.0458839 0
M  V30 13436 H 1229.2 0.630605 0.389125 0
M  V30 13437 H 1231.85 1.88445 0.34072 0
M  V30 13438 H 1230.15 2.73567 2.80479 0
M  V30 13439 H 1231.85 3.06217 2.58906 0
M  V30 13440 H 1228.44 4.00993 1.51335 0
M  V30 13441 H 1232.63 4.85718 1.01941 0
M  V30 13442 H 1227.88 6.10376 0.353644 0
M  V30 13443 H 1232.06 6.96273 -0.133185 0
M  V30 13444 H 1229.68 7.58733 -0.471978 0
M  V30 13445 N 1231.26 -0.58723 1.46251 0
M  V30 13446 C 1232.2 -1.69662 1.56472 0
M  V30 13447 C 1233.17 -1.60978 0.409294 0
M  V30 13448 O 1234.36 -1.80257 0.625451 0
M  V30 13449 C 1231.5 -3.07996 1.55669 0
M  V30 13450 C 1230.61 -3.27337 2.81913 0
M  V30 13451 C 1229.75 -4.55894 2.72644 0
M  V30 13452 C 1228.79 -4.68562 3.93847 0
M  V30 13453 N 1227.92 -5.8844 3.82991 0
M  V30 13454 H 1232.76 -1.60262 2.51237 0
M  V30 13455 H 1230.3 -0.781148 1.24645 0
M  V30 13456 H 1232.26 -3.88058 1.53189 0
M  V30 13457 H 1230.89 -3.16303 0.6444 0
M  V30 13458 H 1229.94 -2.4091 2.94392 0
M  V30 13459 H 1231.25 -3.32567 3.71754 0
M  V30 13460 H 1230.41 -5.44178 2.68244 0
M  V30 13461 H 1229.15 -4.53094 1.80435 0
M  V30 13462 H 1228.15 -3.78696 3.98584 0
M  V30 13463 H 1229.38 -4.73144 4.87146 0
M  V30 13464 H 1227.32 -5.86647 2.93566 0
M  V30 13465 H 1227.24 -5.94919 4.66484 0
M  V30 13466 H 1228.51 -6.79168 3.82559 0
M  V30 13467 N 1232.74 -1.33881 -0.831482 0
M  V30 13468 C 1233.98 -1.251 -1.58218 0
M  V30 13469 C 1234.3 0.17963 -1.94773 0
M  V30 13470 O 1235.5 0.389516 -2.68691 0
M  V30 13471 C 1233.96 -2.19246 -2.8541 0
M  V30 13472 C 1233.57 -3.6752 -2.5619 0
M  V30 13473 C 1235.31 -2.19355 -3.63433 0
M  V30 13474 C 1233.22 -4.53559 -3.79523 0
M  V30 13475 H 1232.15 -0.46469 -0.593784 0
M  V30 13476 H 1234.8 -1.58992 -0.916169 0
M  V30 13477 H 1233.18 -1.78295 -3.53591 0
M  V30 13478 H 1234.36 -4.16956 -1.96173 0
M  V30 13479 H 1232.67 -3.69774 -1.91458 0
M  V30 13480 H 1235.27 -2.80863 -4.54995 0
M  V30 13481 H 1235.61 -1.19056 -3.98913 0
M  V30 13482 H 1236.14 -2.58706 -3.02185 0
M  V30 13483 H 1232.88 -5.54762 -3.4917 0
M  V30 13484 H 1232.4 -4.08862 -4.38853 0
M  V30 13485 H 1234.08 -4.67736 -4.47025 0
M  V30 13486 N 1234.21 1.05064 -1.1747 0
M  V30 13487 C 1235.14 2.14786 -0.915936 0
M  V30 13488 C 1236.12 1.69502 0.142561 0
M  V30 13489 O 1237.31 1.94198 -0.00794522 0
M  V30 13490 C 1234.44 3.44629 -0.429864 0
M  V30 13491 C 1233.39 4.03486 -1.42769 0
M  V30 13492 C 1232.72 5.28689 -0.799528 0
M  V30 13493 C 1234.02 4.40823 -2.80129 0
M  V30 13494 H 1235.71 2.3669 -1.83352 0
M  V30 13495 H 1233.26 1.13751 -0.882992 0
M  V30 13496 H 1235.21 4.20737 -0.236245 0
M  V30 13497 H 1233.94 3.22381 0.523263 0
M  V30 13498 H 1232.6 3.29449 -1.60808 0
M  V30 13499 H 1232.24 5.02744 0.160474 0
M  V30 13500 H 1231.94 5.69028 -1.46565 0
M  V30 13501 H 1233.47 6.07483 -0.616212 0
M  V30 13502 H 1234.88 5.07959 -2.65801 0
M  V30 13503 H 1233.28 4.92183 -3.43331 0
M  V30 13504 H 1234.35 3.51108 -3.34441 0
M  V30 13505 N 1235.69 0.975146 1.23809 0
M  V30 13506 C 1236.65 0.516157 2.23312 0
M  V30 13507 C 1237.65 -0.39136 1.55965 0
M  V30 13508 O 1238.84 -0.185783 1.73206 0
M  V30 13509 C 1235.98 -0.251534 3.39971 0
M  V30 13510 H 1237.17 1.3959 2.65433 0
M  V30 13511 H 1234.72 0.760493 1.36551 0
M  V30 13512 H 1235.46 -1.14805 3.03299 0
M  V30 13513 H 1235.24 0.399825 3.90056 0
M  V30 13514 H 1236.73 -0.561438 4.13809 0
M  V30 13515 N 1237.17 -1.38817 0.746158 0
M  V30 13516 C 1238.42 -1.99885 0.298425 0
M  V30 13517 C 1238.74 -1.59518 -1.12156 0
M  V30 13518 O 1238.01 -0.848568 -1.76568 0
M  V30 13519 H 1236.59 -0.739247 0.107347 0
M  V30 13520 H 1239.25 -1.69696 0.9586 0
M  V30 13521 H 1238.35 -3.10067 0.355656 0
M  V30 13522 N 1238.65 -0.49465 -1.49636 0
M  V30 13523 C 1239.92 0.114829 -1.95263 0
M  V30 13524 C 1240.3 1.54739 -1.43593 0
M  V30 13525 O 1239.65 2.1915 -0.646953 0
M  V30 13526 C 1239.86 0.0339912 -3.48983 0
M  V30 13527 C 1241.21 0.211108 -4.24075 0
M  V30 13528 O 1242.23 0.109478 -3.56032 0
M  V30 13529 O 1241.09 0.418971 -5.44892 0
M  V30 13530 H 1238.19 0.0987883 -0.821078 0
M  V30 13531 H 1240.73 -0.556736 -1.60308 0
M  V30 13532 H 1239.51 -0.965287 -3.79207 0
M  V30 13533 H 1239.13 0.745982 -3.90539 0
M  V30 13534 N 1240.13 1.55939 -0.228214 0
M  V30 13535 C 1241.07 2.20581 0.679157 0
M  V30 13536 C 1242.04 1.16355 1.18536 0
M  V30 13537 O 1243.23 1.44735 1.24324 0
M  V30 13538 C 1240.37 2.89477 1.87875 0
M  V30 13539 C 1239.48 4.08313 1.41083 0
M  V30 13540 C 1238.62 4.64974 2.56851 0
M  V30 13541 C 1237.65 5.76098 2.06828 0
M  V30 13542 N 1236.79 6.27021 3.15894 0
M  V30 13543 H 1241.63 2.97753 0.121203 0
M  V30 13544 H 1239.17 1.47021 0.0480688 0
M  V30 13545 H 1241.13 3.2761 2.58317 0
M  V30 13546 H 1239.76 2.14811 2.40948 0
M  V30 13547 H 1238.81 3.75621 0.601102 0
M  V30 13548 H 1240.12 4.8859 1.00408 0
M  V30 13549 H 1239.27 5.05584 3.35365 0
M  V30 13550 H 1238.01 3.83875 3.00818 0
M  V30 13551 H 1237.02 5.34984 1.26778 0
M  V30 13552 H 1238.24 6.59037 1.63852 0
M  V30 13553 H 1236.19 5.48833 3.5933 0
M  V30 13554 H 1236.11 7.02439 2.79491 0
M  V30 13555 H 1237.37 6.72289 3.94523 0
M  V30 13556 N 1241.6 -0.0451101 1.57535 0
M  V30 13557 C 1242.55 -1.0692 2.06569 0
M  V30 13558 C 1243.55 -1.38443 0.976218 0
M  V30 13559 O 1244.75 -1.37536 1.1612 0
M  V30 13560 H 1241.13 -0.36226 0.658993 0
M  V30 13561 H 1243.1 -0.629709 2.9168 0
M  V30 13562 C 1241.85 -2.36656 2.54733 0
M  V30 13563 H 1241.17 -2.13257 3.38174 0
M  V30 13564 H 1242.61 -3.06696 2.92769 0
M  V30 13565 C 1241.07 -3.04499 1.4416 0
M  V30 13566 O 1241.6 -3.93679 0.798721 0
M  V30 13567 N 1239.81 -2.6556 1.18009 0
M  V30 13568 H 1239.35 -1.93126 1.7047 0
M  V30 13569 H 1239.31 -3.11272 0.442363 0
M  V30 13570 N 1243.08 -1.54377 -0.317073 0
M  V30 13571 C 1244.31 -1.76608 -1.07206 0
M  V30 13572 C 1244.72 -0.517818 -1.81976 0
M  V30 13573 O 1244.06 0.521375 -1.76146 0
M  V30 13574 C 1244.13 -2.91 -2.11091 0
M  V30 13575 C 1243.79 -4.29673 -1.55661 0
M  V30 13576 C 1244.79 -5.1029 -0.994999 0
M  V30 13577 C 1242.47 -4.76234 -1.59708 0
M  V30 13578 C 1244.47 -6.35581 -0.48123 0
M  V30 13579 C 1242.15 -6.01491 -1.07944 0
M  V30 13580 C 1243.15 -6.80999 -0.522467 0
M  V30 13581 O 1242.84 -8.03899 -0.0126274 0
M  V30 13582 H 1242.57 -0.593061 -0.32443 0
M  V30 13583 H 1245.12 -2.02097 -0.366859 0
M  V30 13584 H 1243.35 -2.61097 -2.85246 0
M  V30 13585 H 1245.04 -3.00954 -2.72363 0
M  V30 13586 H 1245.81 -4.7547 -0.956752 0
M  V30 13587 H 1241.69 -4.14387 -2.02 0
M  V30 13588 H 1245.23 -6.97585 -0.0458374 0
M  V30 13589 H 1241.13 -6.35801 -1.11478 0
M  V30 13590 H 1241.9 -8.18401 -0.127442 0
M  V30 13591 N 1244.56 0.579466 -1.4656 0
M  V30 13592 C 1245.81 1.33379 -1.51304 0
M  V30 13593 C 1246.12 1.94855 -0.170507 0
M  V30 13594 O 1247.33 2.71331 -0.0957704 0
M  V30 13595 C 1245.78 2.41748 -2.66619 0
M  V30 13596 C 1245.39 1.8656 -4.07307 0
M  V30 13597 C 1247.14 3.18502 -2.80636 0
M  V30 13598 C 1245.04 2.92578 -5.13957 0
M  V30 13599 H 1243.97 0.501422 -0.56311 0
M  V30 13600 H 1246.62 0.618025 -1.72779 0
M  V30 13601 H 1245.01 3.16138 -2.3848 0
M  V30 13602 H 1246.18 1.18692 -4.45252 0
M  V30 13603 H 1244.5 1.22464 -3.97984 0
M  V30 13604 H 1247.09 3.9763 -3.57483 0
M  V30 13605 H 1247.44 3.71295 -1.8827 0
M  V30 13606 H 1247.97 2.51219 -3.08437 0
M  V30 13607 H 1244.71 2.44668 -6.08126 0
M  V30 13608 H 1244.23 3.58926 -4.80554 0
M  V30 13609 H 1245.91 3.56471 -5.39942 0
M  V30 13610 N 1246.04 1.3432 0.824371 0
M  V30 13611 C 1247.27 1.29669 1.61226 0
M  V30 13612 C 1247.68 -0.129532 1.88355 0
M  V30 13613 O 1247.04 -1.07616 1.47394 0
M  V30 13614 C 1247.09 2.08375 2.95402 0
M  V30 13615 O 1246.81 3.45434 2.69456 0
M  V30 13616 C 1248.31 2.11103 3.89808 0
M  V30 13617 H 1245.53 0.446137 0.501201 0
M  V30 13618 H 1248.08 1.76912 1.02579 0
M  V30 13619 H 1246.23 1.64777 3.5061 0
M  V30 13620 H 1246.64 3.86101 3.55001 0
M  V30 13621 H 1248.12 2.706 4.81124 0
M  V30 13622 H 1248.6 1.10505 4.25071 0
M  V30 13623 H 1249.2 2.54784 3.40537 0
M  V30 13624 N 1247.52 -1.0444 1.18026 0
M  V30 13625 C 1248.45 -2.11888 0.847277 0
M  V30 13626 C 1249.43 -1.61496 -0.189171 0
M  V30 13627 O 1250.61 -1.88374 -0.0689859 0
M  V30 13628 C 1247.74 -3.3766 0.26525 0
M  V30 13629 C 1246.78 -4.06893 1.27829 0
M  V30 13630 S 1247.62 -4.54445 2.83267 0
M  V30 13631 C 1248.77 -5.83454 2.26565 0
M  V30 13632 H 1249.01 -2.39806 1.75727 0
M  V30 13633 H 1246.54 -1.17152 1.00572 0
M  V30 13634 H 1248.5 -4.1045 -0.0640578 0
M  V30 13635 H 1247.16 -3.07864 -0.622806 0
M  V30 13636 H 1246.35 -4.97287 0.819849 0
M  V30 13637 H 1245.95 -3.40203 1.55364 0
M  V30 13638 H 1248.25 -6.57203 1.64591 0
M  V30 13639 H 1249.19 -6.34056 3.15244 0
M  V30 13640 H 1249.6 -5.3838 1.69728 0
M  V30 13641 N 1248.99 -0.981699 -1.2329 0
M  V30 13642 C 1250.27 -0.567659 -1.87182 0
M  V30 13643 C 1250.65 0.955194 -1.88253 0
M  V30 13644 O 1250 1.83245 -1.36504 0
M  V30 13645 C 1250.21 -1.17522 -3.28618 0
M  V30 13646 C 1251.56 -1.26877 -4.052 0
M  V30 13647 O 1252.58 -1.12877 -3.37842 0
M  V30 13648 O 1251.44 -1.49163 -5.2575 0
M  V30 13649 H 1248.53 -0.191315 -0.804567 0
M  V30 13650 H 1251.08 -1.07686 -1.31155 0
M  V30 13651 H 1249.85 -2.21735 -3.22411 0
M  V30 13652 H 1249.48 -0.650913 -3.92236 0
M  V30 13653 N 1250.47 1.3842 -0.753509 0
M  V30 13654 C 1251.38 2.34252 -0.127811 0
M  V30 13655 C 1252.4 1.59266 0.700743 0
M  V30 13656 O 1253.57 1.9146 0.624914 0
M  V30 13657 C 1250.64 3.38382 0.754886 0
M  V30 13658 C 1249.7 4.2921 -0.0880312 0
M  V30 13659 C 1248.93 5.28367 0.75263 0
M  V30 13660 O 1249.16 5.34537 1.99064 0
M  V30 13661 O 1248.09 6.01656 0.171475 0
M  V30 13662 H 1251.92 2.89454 -0.91925 0
M  V30 13663 H 1249.5 1.40265 -0.514404 0
M  V30 13664 H 1251.38 4.02141 1.25938 0
M  V30 13665 H 1250.06 2.85536 1.52482 0
M  V30 13666 H 1248.97 3.68611 -0.638468 0
M  V30 13667 H 1250.3 4.85311 -0.82062 0
M  V30 13668 N 1251.95 0.502579 1.49372 0
M  V30 13669 C 1252.88 -0.264307 2.31999 0
M  V30 13670 C 1253.86 -0.96107 1.40348 0
M  V30 13671 O 1255.05 -0.952167 1.69255 0
M  V30 13672 C 1252.18 -1.32822 3.20898 0
M  V30 13673 C 1251.13 -0.751236 4.21355 0
M  V30 13674 C 1250.46 -1.91578 4.99201 0
M  V30 13675 C 1251.76 0.258764 5.21659 0
M  V30 13676 H 1253.45 0.425391 2.96363 0
M  V30 13677 H 1251 0.206022 1.42519 0
M  V30 13678 H 1252.95 -1.87245 3.77515 0
M  V30 13679 H 1251.67 -2.04712 2.54481 0
M  V30 13680 H 1250.33 -0.228743 3.65886 0
M  V30 13681 H 1249.98 -2.62241 4.2923 0
M  V30 13682 H 1249.68 -1.53578 5.67175 0
M  V30 13683 H 1251.2 -2.46432 5.58663 0
M  V30 13684 H 1252.62 -0.197385 5.7296 0
M  V30 13685 H 1251.02 0.554681 5.97531 0
M  V30 13686 H 1252.09 1.1741 4.70471 0
M  V30 13687 N 1253.43 -1.55816 0.23648 0
M  V30 13688 C 1254.84 -1.59159 -0.118601 0
M  V30 13689 C 1255.04 -1.25352 -1.57763 0
M  V30 13690 O 1254.1 -0.995863 -2.32032 0
M  V30 13691 C 1255.41 -2.99885 0.221175 0
M  V30 13692 C 1256.96 -3.12567 0.164624 0
M  V30 13693 C 1257.44 -4.55496 0.478285 0
M  V30 13694 N 1258.93 -4.61215 0.428402 0
M  V30 13695 C 1259.66 -5.69768 0.644398 0
M  V30 13696 N 1259.16 -6.86624 0.922966 0
M  V30 13697 N 1260.95 -5.59143 0.575814 0
M  V30 13698 H 1253.1 -1.76063 1.18809 0
M  V30 13699 H 1255.37 -0.819079 0.477297 0
M  V30 13700 H 1255.07 -3.29326 1.2344 0
M  V30 13701 H 1254.95 -3.74425 -0.456723 0
M  V30 13702 H 1257.33 -2.82914 -0.839263 0
M  V30 13703 H 1257.41 -2.40325 0.876219 0
M  V30 13704 H 1257.06 -4.85868 1.47968 0
M  V30 13705 H 1256.99 -5.25984 -0.254671 0
M  V30 13706 H 1259.48 -3.77251 0.221398 0
M  V30 13707 H 1259.79 -7.6528 1.07548 0
M  V30 13708 H 1258.14 -6.88333 0.960325 0
M  V30 13709 H 1261.33 -4.66727 0.358307 0
M  V30 13710 H 1261.5 -6.43674 0.747548 0
M  V30 13711 N 1254.91 0.036755 -1.57557 0
M  V30 13712 C 1256.32 0.392264 -1.54704 0
M  V30 13713 C 1256.52 1.77076 -0.96157 0
M  V30 13714 O 1255.58 2.45766 -0.579263 0
M  V30 13715 C 1256.89 0.301168 -2.99188 0
M  V30 13716 C 1258.44 0.378813 -3.10699 0
M  V30 13717 C 1258.91 0.317249 -4.569 0
M  V30 13718 N 1260.41 0.376277 -4.61669 0
M  V30 13719 C 1261.14 0.351411 -5.72322 0
M  V30 13720 N 1260.64 0.279288 -6.92237 0
M  V30 13721 N 1262.43 0.400571 -5.60671 0
M  V30 13722 H 1254.58 -0.865455 -1.93968 0
M  V30 13723 H 1256.84 -0.328339 -0.889324 0
M  V30 13724 H 1256.55 -0.64582 -3.4572 0
M  V30 13725 H 1256.42 1.09784 -3.6087 0
M  V30 13726 H 1258.81 1.31623 -2.6412 0
M  V30 13727 H 1258.89 -0.447072 -2.51863 0
M  V30 13728 H 1258.54 -0.616469 -5.04145 0
M  V30 13729 H 1258.47 1.16114 -5.13639 0
M  V30 13730 H 1260.96 0.434843 -3.7539 0
M  V30 13731 H 1261.27 0.265202 -7.72345 0
M  V30 13732 H 1259.61 0.24545 -6.94566 0
M  V30 13733 H 1262.81 0.454854 -4.65885 0
M  V30 13734 H 1262.98 0.377724 -6.46898 0
M  V30 13735 N 1256.39 1.54543 0.308881 0
M  V30 13736 C 1257.3 1.87994 1.4034 0
M  V30 13737 C 1258.31 0.773294 1.55872 0
M  V30 13738 O 1259.49 1.069 1.70688 0
M  V30 13739 C 1256.55 2.11341 2.74838 0
M  V30 13740 C 1255.61 3.35086 2.68358 0
M  V30 13741 C 1254.85 3.5731 3.96441 0
M  V30 13742 O 1255.07 2.82692 4.9542 0
M  V30 13743 O 1254 4.50814 3.98811 0
M  V30 13744 H 1257.83 2.81094 1.14976 0
M  V30 13745 H 1255.41 1.40634 0.504236 0
M  V30 13746 H 1257.3 2.27943 3.54429 0
M  V30 13747 H 1255.97 1.21427 3.00062 0
M  V30 13748 H 1254.88 3.23855 1.87267 0
M  V30 13749 H 1256.21 4.25104 2.48087 0
M  V30 13750 N 1257.86 -0.571685 1.46866 0
M  V30 13751 C 1258.79 -1.68994 1.61131 0
M  V30 13752 C 1259.77 -1.63728 0.461222 0
M  V30 13753 O 1260.96 -1.81574 0.688813 0
M  V30 13754 C 1258.09 -3.07638 1.61172 0
M  V30 13755 C 1257.04 -3.27742 2.75262 0
M  V30 13756 C 1256.37 -4.67025 2.60368 0
M  V30 13757 C 1257.67 -3.14511 4.16989 0
M  V30 13758 H 1259.36 -1.57311 2.54742 0
M  V30 13759 H 1256.91 -0.755382 1.22597 0
M  V30 13760 H 1258.86 -3.857 1.69744 0
M  V30 13761 H 1257.59 -3.20245 0.641122 0
M  V30 13762 H 1256.25 -2.52083 2.66176 0
M  V30 13763 H 1255.89 -4.76413 1.61368 0
M  V30 13764 H 1255.59 -4.81428 3.36899 0
M  V30 13765 H 1257.12 -5.47242 2.70848 0
M  V30 13766 H 1258.53 -3.82407 4.27128 0
M  V30 13767 H 1256.93 -3.40431 4.94193 0
M  V30 13768 H 1258 -2.11443 4.36371 0
M  V30 13769 N 1259.34 -1.34755 -0.817236 0
M  V30 13770 C 1260.75 -1.24594 -1.39044 0
M  V30 13771 C 1261.1 0.126184 -1.95794 0
M  V30 13772 O 1260.23 1.02675 -1.90491 0
M  V30 13773 C 1260.82 -2.25592 -2.52772 0
M  V30 13774 C 1259.38 -2.19204 -3.05984 0
M  V30 13775 C 1258.53 -2.11884 -1.78886 0
M  V30 13776 H 1261.48 -1.46039 -0.621155 0
M  V30 13777 H 1261.5 -1.87622 -3.31026 0
M  V30 13778 H 1261.01 -3.25447 -2.11438 0
M  V30 13779 H 1259.11 -1.22725 -3.51809 0
M  V30 13780 H 1259.23 -3.10707 -3.64689 0
M  V30 13781 H 1257.59 -1.57694 -2.00012 0
M  V30 13782 H 1258.37 -3.13582 -1.39719 0
M  V30 13783 N 1260.82 1.03812 -1.18578 0
M  V30 13784 C 1262.23 1.58509 -0.986496 0
M  V30 13785 C 1262.58 1.90655 0.463136 0
M  V30 13786 O 1261.71 1.69847 1.34093 0
M  V30 13787 C 1262.3 2.88 -1.78441 0
M  V30 13788 C 1260.86 3.39304 -1.6294 0
M  V30 13789 C 1260.01 2.12857 -1.77727 0
M  V30 13790 H 1262.96 0.864528 -1.33085 0
M  V30 13791 H 1262.98 3.58502 -1.27501 0
M  V30 13792 H 1262.49 2.64572 -2.83942 0
M  V30 13793 H 1260.59 3.6774 -0.599864 0
M  V30 13794 H 1260.71 4.12959 -2.42902 0
M  V30 13795 H 1259.07 2.24285 -1.20699 0
M  V30 13796 H 1259.85 1.91882 -2.84669 0
M  V30 13797 N 1262.3 0.988223 1.22768 0
M  V30 13798 C 1263.57 0.577578 1.86878 0
M  V30 13799 C 1263.95 -0.945197 1.88757 0
M  V30 13800 O 1263.3 -1.82519 1.37474 0
M  V30 13801 C 1263.51 1.19263 3.2799 0
M  V30 13802 C 1264.86 1.29024 4.04522 0
M  V30 13803 O 1265.88 1.14667 3.37239 0
M  V30 13804 O 1264.74 1.51949 5.24951 0
M  V30 13805 H 1261.84 0.195579 0.803541 0
M  V30 13806 H 1264.38 1.0838 1.30582 0
M  V30 13807 H 1263.16 2.23442 3.21231 0
M  V30 13808 H 1262.78 0.671706 3.91885 0
M  V30 13809 N 1263.78 -1.38018 0.760839 0
M  V30 13810 C 1264.71 -2.2899 0.0980916 0
M  V30 13811 C 1265.72 -1.48102 -0.675985 0
M  V30 13812 O 1266.91 -1.70883 -0.515878 0
M  V30 13813 C 1264.01 -3.27142 -0.884959 0
M  V30 13814 C 1263.18 -4.37081 -0.167 0
M  V30 13815 C 1262.24 -5.15375 -1.06184 0
M  V30 13816 O 1261.27 -5.6673 -0.529667 0
M  V30 13817 N 1262.47 -5.29052 -2.38924 0
M  V30 13818 H 1265.23 -2.86508 0.879403 0
M  V30 13819 H 1262.8 -1.49877 0.612245 0
M  V30 13820 H 1264.79 -3.764 -1.48678 0
M  V30 13821 H 1263.36 -2.70471 -1.5673 0
M  V30 13822 H 1262.58 -3.89363 0.615617 0
M  V30 13823 H 1263.87 -5.07732 0.329525 0
M  V30 13824 H 1263.26 -4.88892 -2.84607 0
M  V30 13825 H 1261.82 -5.81658 -2.94139 0
M  V30 13826 N 1265.25 -0.510493 -1.49103 0
M  V30 13827 C 1266.22 0.251915 -2.27811 0
M  V30 13828 C 1267.22 0.885432 -1.34226 0
M  V30 13829 O 1268.41 0.748494 -1.573 0
M  V30 13830 C 1265.54 1.3624 -3.12492 0
M  V30 13831 H 1266.73 -0.438872 -2.96671 0
M  V30 13832 H 1264.28 -0.265767 -1.54024 0
M  V30 13833 H 1265.02 2.08705 -2.48219 0
M  V30 13834 H 1264.8 0.913485 -3.81311 0
M  V30 13835 H 1266.29 1.89919 -3.71915 0
M  V30 13836 N 1266.73 1.55688 -0.24474 0
M  V30 13837 C 1267.64 2.24933 0.666519 0
M  V30 13838 C 1268.66 1.26471 1.19503 0
M  V30 13839 O 1269.83 1.59342 1.23176 0
M  V30 13840 C 1266.9 2.9336 1.84772 0
M  V30 13841 C 1265.96 4.07225 1.35889 0
M  V30 13842 C 1265.19 4.72381 2.48379 0
M  V30 13843 O 1265.42 4.36605 3.67059 0
M  V30 13844 O 1264.35 5.60933 2.18261 0
M  V30 13845 H 1268.18 3.03513 0.106507 0
M  V30 13846 H 1265.76 1.49394 -0.0133309 0
M  V30 13847 H 1267.64 3.36468 2.53708 0
M  V30 13848 H 1266.32 2.17721 2.39539 0
M  V30 13849 H 1265.22 3.68639 0.636881 0
M  V30 13850 H 1266.56 4.84676 0.857333 0
M  V30 13851 N 1268.21 -0.0283989 1.57574 0
M  V30 13852 C 1269.44 -0.729772 1.93282 0
M  V30 13853 C 1269.85 -1.69384 0.842959 0
M  V30 13854 O 1269.19 -1.82722 -0.189286 0
M  V30 13855 C 1269.25 -1.54107 3.24794 0
M  V30 13856 C 1268.92 -0.741709 4.50941 0
M  V30 13857 C 1269.91 -0.0416985 5.19883 0
M  V30 13858 C 1267.6 -0.696053 4.97454 0
M  V30 13859 C 1269.59 0.693261 6.33619 0
M  V30 13860 C 1267.28 0.042651 6.11085 0
M  V30 13861 C 1268.28 0.736067 6.79022 0
M  V30 13862 O 1267.97 1.46278 7.9048 0
M  V30 13863 H 1267.7 -0.210092 0.642524 0
M  V30 13864 H 1270.25 0.0102277 2.05397 0
M  V30 13865 H 1268.48 -2.3249 3.09007 0
M  V30 13866 H 1270.17 -2.12512 3.45823 0
M  V30 13867 H 1270.94 -0.0679975 4.84952 0
M  V30 13868 H 1266.82 -1.22528 4.44419 0
M  V30 13869 H 1270.36 1.23504 6.8658 0
M  V30 13870 H 1266.26 0.0708708 6.45461 0
M  V30 13871 H 1267.02 1.37652 8.06842 0
M  V30 13872 N 1269.69 -1.54705 -0.300681 0
M  V30 13873 C 1270.93 -1.75738 -1.04381 0
M  V30 13874 C 1271.29 -0.532138 -1.84478 0
M  V30 13875 O 1272.49 -0.620213 -2.61547 0
M  V30 13876 C 1270.76 -3.01095 -1.92553 0
M  V30 13877 S 1272.32 -3.43132 -2.73507 0
M  V30 13878 H 1269.14 -0.617737 -0.352025 0
M  V30 13879 H 1271.74 -1.9291 -0.317187 0
M  V30 13880 H 1270.45 -3.88393 -1.32585 0
M  V30 13881 H 1269.98 -2.86512 -2.69582 0
M  V30 13882 H 1271.99 -3.00227 -3.95067 0
M  V30 13883 N 1271.17 0.563888 -1.47167 0
M  V30 13884 C 1272.42 1.31766 -1.5271 0
M  V30 13885 C 1272.73 1.94664 -0.191164 0
M  V30 13886 O 1273.93 2.71214 -0.124543 0
M  V30 13887 C 1272.39 2.38907 -2.69168 0
M  V30 13888 C 1272 1.8223 -4.09263 0
M  V30 13889 C 1273.74 3.15508 -2.83999 0
M  V30 13890 C 1271.65 2.87111 -5.17031 0
M  V30 13891 H 1270.58 0.495421 -0.568396 0
M  V30 13892 H 1273.23 0.599665 -1.73425 0
M  V30 13893 H 1271.61 3.13591 -2.4182 0
M  V30 13894 H 1272.79 1.13963 -4.46485 0
M  V30 13895 H 1271.1 1.18235 -3.99261 0
M  V30 13896 H 1273.7 3.93816 -3.61681 0
M  V30 13897 H 1274.04 3.69277 -1.92197 0
M  V30 13898 H 1274.57 2.47934 -3.11085 0
M  V30 13899 H 1271.31 2.38204 -6.10687 0
M  V30 13900 H 1270.83 3.53809 -4.84334 0
M  V30 13901 H 1272.51 3.50724 -5.43692 0
M  V30 13902 N 1272.64 1.35187 0.810078 0
M  V30 13903 C 1273.61 1.27698 1.90331 0
M  V30 13904 C 1274.61 0.189216 1.59683 0
M  V30 13905 O 1275.8 0.442689 1.68481 0
M  V30 13906 C 1272.93 0.974631 3.26671 0
M  V30 13907 H 1274.12 2.24902 1.98392 0
M  V30 13908 H 1271.68 1.1966 1.00554 0
M  V30 13909 H 1272.41 0.0063068 3.24299 0
M  V30 13910 H 1272.2 1.76158 3.50301 0
M  V30 13911 H 1273.69 0.947743 4.06703 0
M  V30 13912 N 1274.12 -1.03182 1.19127 0
M  V30 13913 C 1275.54 -1.28773 0.942854 0
M  V30 13914 C 1275.74 -1.97759 -0.386483 0
M  V30 13915 O 1274.79 -2.26365 -1.1187 0
M  V30 13916 C 1276.11 -2.13771 2.11476 0
M  V30 13917 C 1277.66 -2.27089 2.15406 0
M  V30 13918 C 1278.13 -3.15458 3.32039 0
M  V30 13919 N 1279.62 -3.23046 3.31957 0
M  V30 13920 C 1280.36 -3.91604 4.18848 0
M  V30 13921 N 1279.85 -4.62418 5.15889 0
M  V30 13922 N 1281.65 -3.87974 4.06734 0
M  V30 13923 H 1273.8 -0.568165 2.0466 0
M  V30 13924 H 1276.06 -0.31328 0.89474 0
M  V30 13925 H 1275.77 -1.704 3.07663 0
M  V30 13926 H 1275.64 -3.14476 2.0829 0
M  V30 13927 H 1278.03 -2.69693 1.19791 0
M  V30 13928 H 1278.11 -1.25945 2.22647 0
M  V30 13929 H 1277.75 -2.73564 4.27931 0
M  V30 13930 H 1277.68 -4.16654 3.22035 0
M  V30 13931 H 1280.17 -2.7261 2.6171 0
M  V30 13932 H 1280.49 -5.12353 5.78545 0
M  V30 13933 H 1278.83 -4.61293 5.1984 0
M  V30 13934 H 1282.02 -3.31789 3.30202 0
M  V30 13935 H 1282.19 -4.4113 4.74666 0
M  V30 13936 N 1275.6 -0.99472 -1.22242 0
M  V30 13937 C 1276.53 -0.491445 -2.22845 0
M  V30 13938 C 1277.51 0.449265 -1.5627 0
M  V30 13939 O 1278.7 0.374386 -1.84745 0
M  V30 13940 C 1275.82 0.287355 -3.37479 0
M  V30 13941 C 1274.87 -0.599617 -4.22264 0
M  V30 13942 S 1275.7 -2.05599 -4.94459 0
M  V30 13943 C 1276.86 -1.28673 -6.12531 0
M  V30 13944 H 1277.09 -1.34393 -2.6519 0
M  V30 13945 H 1274.62 -0.801833 -1.31947 0
M  V30 13946 H 1276.58 0.730646 -4.03945 0
M  V30 13947 H 1275.24 1.11514 -2.93638 0
M  V30 13948 H 1274.44 -0.000289277 -5.04 0
M  V30 13949 H 1274.04 -0.979748 -3.60939 0
M  V30 13950 H 1276.33 -0.555315 -6.7522 0
M  V30 13951 H 1277.27 -2.07943 -6.76879 0
M  V30 13952 H 1277.68 -0.79922 -5.58814 0
M  V30 13953 N 1277.08 1.37613 -0.768148 0
M  V30 13954 C 1278.04 2.28653 -0.158283 0
M  V30 13955 C 1279.04 1.47862 0.631936 0
M  V30 13956 O 1280.23 1.68124 0.456055 0
M  V30 13957 C 1277.36 3.31776 0.783435 0
M  V30 13958 H 1278.56 2.84094 -0.960772 0
M  V30 13959 H 1276.11 1.46818 -0.536116 0
M  V30 13960 H 1276.84 2.81452 1.61106 0
M  V30 13961 H 1276.63 3.91488 0.219016 0
M  V30 13962 H 1278.12 3.99816 1.20568 0
M  V30 13963 N 1278.56 0.518393 1.4883 0
M  V30 13964 C 1279.97 0.0749773 1.86549 0
M  V30 13965 C 1280.32 -1.34429 1.4291 0
M  V30 13966 O 1279.44 -2.00481 0.814648 0
M  V30 13967 C 1280.04 0.129289 3.38553 0
M  V30 13968 C 1278.6 -0.258871 3.75509 0
M  V30 13969 C 1277.74 0.494185 2.72861 0
M  V30 13970 H 1280.7 0.730266 1.409 0
M  V30 13971 H 1280.72 -0.661844 3.747 0
M  V30 13972 H 1280.23 1.16237 3.70285 0
M  V30 13973 H 1278.33 -1.29453 3.49389 0
M  V30 13974 H 1278.44 0.0726769 4.79045 0
M  V30 13975 H 1276.81 -0.0581428 2.54634 0
M  V30 13976 H 1277.59 1.52767 3.07436 0
M  V30 13977 N 1280.03 -1.55556 0.252993 0
M  V30 13978 C 1281.26 -2.03196 -0.37348 0
M  V30 13979 C 1281.67 -1.13145 -1.51641 0
M  V30 13980 O 1281.02 -0.139519 -1.83169 0
M  V30 13981 C 1281.08 -3.47066 -0.937308 0
M  V30 13982 C 1280.74 -4.5694 0.0741513 0
M  V30 13983 C 1281.74 -5.12297 0.885862 0
M  V30 13984 C 1279.42 -5.01894 0.202003 0
M  V30 13985 C 1281.42 -6.11107 1.81182 0
M  V30 13986 C 1279.1 -6.00534 1.13146 0
M  V30 13987 C 1280.1 -6.5502 1.93489 0
M  V30 13988 O 1279.79 -7.51735 2.84868 0
M  V30 13989 H 1279.52 -0.669687 -0.092171 0
M  V30 13990 H 1282.08 -2.01924 0.376264 0
M  V30 13991 H 1280.31 -3.45507 -1.73672 0
M  V30 13992 H 1282 -3.78171 -1.47451 0
M  V30 13993 H 1282.76 -4.78395 0.797707 0
M  V30 13994 H 1278.64 -4.59144 -0.413301 0
M  V30 13995 H 1282.18 -6.53561 2.43935 0
M  V30 13996 H 1278.08 -6.33856 1.22052 0
M  V30 13997 H 1278.85 -7.69373 2.79298 0
M  V30 13998 N 1281.51 0.0200419 -1.57587 0
M  V30 13999 C 1282.74 0.720556 -1.93947 0
M  V30 14000 C 1283.16 1.68407 -0.853499 0
M  V30 14001 O 1282.51 1.81713 0.169337 0
M  V30 14002 C 1282.56 1.46982 -3.3027 0
M  V30 14003 O 1282.28 0.544971 -4.34697 0
M  V30 14004 C 1283.79 2.26667 -3.80968 0
M  V30 14005 H 1281.01 0.201956 -0.639887 0
M  V30 14006 H 1283.55 -0.0251175 -2.04485 0
M  V30 14007 H 1281.7 2.16729 -3.21103 0
M  V30 14008 H 1282.12 1.07139 -5.13441 0
M  V30 14009 H 1283.59 2.74621 -4.78839 0
M  V30 14010 H 1284.07 3.0848 -3.12629 0
M  V30 14011 H 1284.68 1.61976 -3.93248 0
M  V30 14012 N 1282.99 1.54862 0.292472 0
M  V30 14013 C 1284.24 1.74203 1.02458 0
M  V30 14014 C 1284.56 0.535398 1.87506 0
M  V30 14015 O 1283.83 -0.450164 1.90658 0
M  V30 14016 H 1282.41 0.642369 0.381276 0
M  V30 14017 H 1285.07 1.92232 0.321398 0
M  V30 14018 H 1284.17 2.63486 1.67277 0
M  V30 14019 N 1284.47 -0.556076 1.47464 0
M  V30 14020 C 1285.88 -1.1382 1.47993 0
M  V30 14021 C 1286.23 -1.94785 0.235249 0
M  V30 14022 O 1285.36 -2.06098 -0.659752 0
M  V30 14023 C 1285.95 -2.07082 2.68146 0
M  V30 14024 C 1284.51 -2.60564 2.71631 0
M  V30 14025 C 1283.66 -1.36967 2.41113 0
M  V30 14026 H 1286.61 -0.34262 1.54957 0
M  V30 14027 H 1286.63 -2.90975 2.45181 0
M  V30 14028 H 1286.14 -1.48127 3.5872 0
M  V30 14029 H 1284.24 -3.23314 1.852 0
M  V30 14030 H 1284.35 -3.0148 3.72353 0
M  V30 14031 H 1282.72 -1.67678 1.91719 0
M  V30 14032 H 1283.5 -0.79803 3.33896 0
M  V30 14033 N 1285.95 -1.35615 -0.802897 0
M  V30 14034 C 1287.22 -1.19655 -1.54732 0
M  V30 14035 C 1287.6 0.222827 -2.09921 0
M  V30 14036 O 1286.95 1.2268 -1.92774 0
M  V30 14037 C 1287.16 -2.26761 -2.65293 0
M  V30 14038 C 1288.51 -2.62754 -3.33535 0
M  V30 14039 O 1289.53 -2.25702 -2.75567 0
M  V30 14040 O 1288.39 -3.26476 -4.38264 0
M  V30 14041 H 1285.49 -0.465079 -0.683835 0
M  V30 14042 H 1288.03 -1.47307 -0.84254 0
M  V30 14043 H 1286.81 -3.21946 -2.22411 0
M  V30 14044 H 1286.43 -2.00399 -3.43404 0
M  V30 14045 N 1287.43 1.02549 -1.19673 0
M  V30 14046 C 1288.65 1.8016 -1.02748 0
M  V30 14047 C 1289.08 1.83372 0.419105 0
M  V30 14048 O 1288.43 1.26222 1.30144 0
M  V30 14049 C 1288.48 3.22907 -1.60509 0
M  V30 14050 O 1287.59 4.03823 -0.836702 0
M  V30 14051 H 1286.93 0.556027 -0.362946 0
M  V30 14052 H 1289.46 1.29047 -1.5877 0
M  V30 14053 H 1289.47 3.73646 -1.63868 0
M  V30 14054 H 1288.14 3.19885 -2.65794 0
M  V30 14055 H 1286.72 3.6245 -0.876626 0
M  V30 14056 N 1288.9 1.00119 1.21713 0
M  V30 14057 C 1290.15 0.682733 1.90962 0
M  V30 14058 C 1290.48 -0.784131 1.77665 0
M  V30 14059 O 1289.76 -1.56799 1.15084 0
M  V30 14060 C 1290.04 1.09975 3.42896 0
M  V30 14061 C 1289.89 2.62578 3.65202 0
M  V30 14062 C 1291.21 0.659247 4.35134 0
M  V30 14063 H 1288.33 0.249501 0.693483 0
M  V30 14064 H 1290.97 1.24619 1.43423 0
M  V30 14065 H 1289.12 0.620334 3.83515 0
M  V30 14066 H 1290.8 3.18254 3.33934 0
M  V30 14067 H 1289.04 3.04268 3.09198 0
M  V30 14068 H 1289.71 2.86809 4.7164 0
M  V30 14069 H 1292.19 1.07116 4.02076 0
M  V30 14070 H 1291.06 0.979241 5.40095 0
M  V30 14071 H 1291.32 -0.439777 4.39907 0
M  V30 14072 N 1290.38 -1.37203 0.775435 0
M  V30 14073 C 1291.79 -1.82224 0.406372 0
M  V30 14074 C 1292.14 -1.64587 -1.06796 0
M  V30 14075 O 1291.27 -1.15903 -1.82744 0
M  V30 14076 C 1291.86 -3.30824 0.730819 0
M  V30 14077 C 1290.42 -3.74108 0.414766 0
M  V30 14078 C 1289.57 -2.59679 0.972747 0
M  V30 14079 H 1292.52 -1.25623 0.969775 0
M  V30 14080 H 1292.54 -3.80496 0.0168066 0
M  V30 14081 H 1292.05 -3.43628 1.80392 0
M  V30 14082 H 1290.15 -3.66871 -0.650866 0
M  V30 14083 H 1290.27 -4.70074 0.925595 0
M  V30 14084 H 1288.63 -2.51591 0.396772 0
M  V30 14085 H 1289.41 -2.75274 2.05132 0
M  V30 14086 N 1291.86 -0.526279 -1.48553 0
M  V30 14087 C 1293.11 0.00914839 -2.02098 0
M  V30 14088 C 1293.43 1.35119 -1.40598 0
M  V30 14089 O 1292.7 1.87422 -0.570065 0
M  V30 14090 H 1291.28 0.00636935 -0.746973 0
M  V30 14091 H 1293.94 -0.689269 -1.82305 0
M  V30 14092 H 1293.04 0.120212 -3.11868 0
M  V30 14093 N 1293.34 1.5542 -0.261239 0
M  V30 14094 C 1294.3 2.20683 0.619011 0
M  V30 14095 C 1295.3 1.18042 1.09192 0
M  V30 14096 O 1296.49 1.43035 0.99432 0
M  V30 14097 C 1293.62 2.86179 1.85242 0
M  V30 14098 H 1294.82 2.99859 0.0493924 0
M  V30 14099 H 1292.37 1.56296 -0.0117687 0
M  V30 14100 H 1293.1 2.10978 2.4629 0
M  V30 14101 H 1292.89 3.61381 1.52138 0
M  V30 14102 H 1294.38 3.36081 2.47869 0
M  V30 14103 N 1294.82 -0.0116844 1.57596 0
M  V30 14104 C 1295.75 -1.00599 2.10718 0
M  V30 14105 C 1296.73 -1.36601 1.01362 0
M  V30 14106 O 1297.91 -1.4518 1.28982 0
M  V30 14107 C 1295.04 -2.30155 2.60089 0
M  V30 14108 C 1294 -2.08347 3.73866 0
M  V30 14109 C 1293.32 -3.43814 4.09507 0
M  V30 14110 C 1294.62 -1.45552 5.01609 0
M  V30 14111 H 1296.32 -0.563721 2.94045 0
M  V30 14112 H 1293.86 -0.269714 1.41452 0
M  V30 14113 H 1295.81 -3.00058 2.95877 0
M  V30 14114 H 1294.54 -2.76473 1.73868 0
M  V30 14115 H 1293.2 -1.40872 3.38453 0
M  V30 14116 H 1292.85 -3.87814 3.20326 0
M  V30 14117 H 1292.55 -3.30043 4.86154 0
M  V30 14118 H 1294.07 -4.15052 4.47844 0
M  V30 14119 H 1295.48 -2.05396 5.35243 0
M  V30 14120 H 1293.88 -1.42304 5.82983 0
M  V30 14121 H 1294.95 -0.423331 4.83049 0
M  V30 14122 N 1296.29 -1.55015 -0.284256 0
M  V30 14123 C 1297.57 -1.6579 -1.03794 0
M  V30 14124 C 1297.95 -0.517029 -2.04671 0
M  V30 14125 O 1297.3 0.484287 -2.23309 0
M  V30 14126 C 1297.51 -3.04527 -1.70483 0
M  V30 14127 C 1298.86 -3.61903 -2.22062 0
M  V30 14128 O 1299.88 -3.07087 -1.80488 0
M  V30 14129 O 1298.74 -4.57917 -2.98286 0
M  V30 14130 H 1295.83 -0.672906 -0.480757 0
M  V30 14131 H 1298.38 -1.67357 -0.281009 0
M  V30 14132 H 1297.15 -3.79004 -0.973238 0
M  V30 14133 H 1296.77 -3.0681 -2.5289 0
M  V30 14134 N 1297.77 0.548248 -1.47757 0
M  V30 14135 C 1299 1.32827 -1.58242 0
M  V30 14136 C 1299.41 1.87736 -0.234936 0
M  V30 14137 O 1298.75 1.66163 0.78329 0
M  V30 14138 C 1298.81 2.52906 -2.55497 0
M  V30 14139 C 1298.48 2.19218 -4.00989 0
M  V30 14140 C 1299.48 1.75976 -4.89212 0
M  V30 14141 C 1297.16 2.30302 -4.46392 0
M  V30 14142 C 1299.15 1.44258 -6.20861 0
M  V30 14143 C 1296.84 1.98197 -5.78067 0
M  V30 14144 C 1297.84 1.55244 -6.65123 0
M  V30 14145 O 1297.53 1.23551 -7.94349 0
M  V30 14146 H 1297.26 0.41088 -0.536799 0
M  V30 14147 H 1299.81 0.670055 -1.94163 0
M  V30 14148 H 1298.04 3.21648 -2.14661 0
M  V30 14149 H 1299.73 3.14979 -2.56014 0
M  V30 14150 H 1300.5 1.66898 -4.55379 0
M  V30 14151 H 1296.38 2.62693 -3.78832 0
M  V30 14152 H 1299.92 1.10659 -6.88767 0
M  V30 14153 H 1295.82 2.0691 -6.1144 0
M  V30 14154 H 1296.59 1.37105 -8.06935 0
M  V30 14155 N 1299.25 1.36039 0.795694 0
M  V30 14156 C 1300.18 1.24209 1.91435 0
M  V30 14157 C 1301.16 0.127593 1.62099 0
M  V30 14158 O 1302.34 0.297619 1.86136 0
M  V30 14159 C 1299.47 0.915006 3.26106 0
M  V30 14160 C 1298.52 2.04307 3.74381 0
M  V30 14161 S 1299.35 3.66016 3.90887 0
M  V30 14162 C 1300.51 3.35408 5.28443 0
M  V30 14163 H 1300.74 2.18895 2.01177 0
M  V30 14164 H 1298.27 1.21381 0.954251 0
M  V30 14165 H 1300.23 0.733104 4.03901 0
M  V30 14166 H 1298.89 -0.0139734 3.14097 0
M  V30 14167 H 1298.08 1.76863 4.71949 0
M  V30 14168 H 1297.69 2.18387 3.03617 0
M  V30 14169 H 1299.98 2.88912 6.1281 0
M  V30 14170 H 1300.92 4.32216 5.60887 0
M  V30 14171 H 1301.33 2.70909 4.95246 0
M  V30 14172 N 1300.73 -1.01913 1.20215 0
M  V30 14173 C 1301.95 -1.79613 1.03702 0
M  V30 14174 C 1302.38 -1.83591 -0.409374 0
M  V30 14175 O 1301.74 -1.26911 -1.29473 0
M  V30 14176 C 1301.78 -3.22052 1.62219 0
M  V30 14177 O 1300.89 -4.03374 0.858106 0
M  V30 14178 H 1300.23 -0.554095 0.365889 0
M  V30 14179 H 1302.76 -1.28203 1.59452 0
M  V30 14180 H 1302.77 -3.72772 1.65847 0
M  V30 14181 H 1301.44 -3.18471 2.67487 0
M  V30 14182 H 1300.02 -3.6198 0.895835 0
M  V30 14183 N 1302.21 -1.00763 -1.2118 0
M  V30 14184 C 1303.45 -0.691826 -1.90316 0
M  V30 14185 C 1303.78 0.777678 -1.78276 0
M  V30 14186 O 1303.04 1.57962 -1.15526 0
M  V30 14187 C 1303.34 -1.06187 -3.41261 0
M  V30 14188 C 1303 -2.52608 -3.73497 0
M  V30 14189 C 1301.66 -2.92617 -3.82006 0
M  V30 14190 C 1304.02 -3.47442 -3.88502 0
M  V30 14191 C 1301.34 -4.26419 -4.02969 0
M  V30 14192 C 1303.7 -4.8092 -4.10973 0
M  V30 14193 C 1302.36 -5.20649 -4.17709 0
M  V30 14194 H 1301.63 -0.253157 -0.696414 0
M  V30 14195 H 1304.28 -1.26655 -1.43634 0
M  V30 14196 H 1302.58 -0.405428 -3.89697 0
M  V30 14197 H 1304.28 -0.795343 -3.93033 0
M  V30 14198 H 1300.87 -2.20603 -3.67468 0
M  V30 14199 H 1305.05 -3.17695 -3.81292 0
M  V30 14200 H 1300.31 -4.56767 -4.06416 0
M  V30 14201 H 1304.48 -5.54337 -4.21525 0
M  V30 14202 H 1302.11 -6.24343 -4.33705 0
M  V30 14203 N 1303.68 1.3679 -0.7827 0
M  V30 14204 C 1304.91 2.04206 -0.362571 0
M  V30 14205 C 1305.33 1.58637 1.01074 0
M  V30 14206 O 1304.69 0.751692 1.64983 0
M  V30 14207 C 1304.74 3.58062 -0.4271 0
M  V30 14208 O 1303.84 4.08463 0.56845 0
M  V30 14209 H 1303.19 0.645638 -0.155073 0
M  V30 14210 H 1305.72 1.74883 -1.06194 0
M  V30 14211 H 1305.73 4.0698 -0.288298 0
M  V30 14212 H 1304.4 3.90582 -1.42893 0
M  V30 14213 H 1302.98 3.70835 0.391863 0
M  V30 14214 N 1305.16 0.53415 1.48272 0
M  V30 14215 C 1306.39 0.00574475 2.06899 0
M  V30 14216 C 1306.81 -1.27754 1.39012 0
M  V30 14217 O 1306.16 -1.76102 0.478993 0
M  V30 14218 C 1306.21 -0.217576 3.60845 0
M  V30 14219 O 1305.93 1.01487 4.26183 0
M  V30 14220 C 1307.44 -0.785888 4.36278 0
M  V30 14221 H 1304.66 0.0353967 0.670066 0
M  V30 14222 H 1307.2 0.740984 1.90603 0
M  V30 14223 H 1305.35 -0.902875 3.76732 0
M  V30 14224 H 1305.77 0.7982 5.18391 0
M  V30 14225 H 1307.24 -0.891551 5.44753 0
M  V30 14226 H 1307.72 -1.79178 4.00989 0
M  V30 14227 H 1308.33 -0.137022 4.25079 0
M  V30 14228 N 1306.64 -1.55279 0.269478 0
M  V30 14229 C 1307.6 -2.21008 -0.607299 0
M  V30 14230 C 1308.6 -1.18619 -1.08564 0
M  V30 14231 O 1309.79 -1.4356 -0.986721 0
M  V30 14232 C 1306.93 -2.87157 -1.83721 0
M  V30 14233 H 1308.12 -2.99881 -0.0334894 0
M  V30 14234 H 1305.67 -1.56287 0.0200573 0
M  V30 14235 H 1306.41 -2.12281 -2.45168 0
M  V30 14236 H 1306.19 -3.62183 -1.5022 0
M  V30 14237 H 1307.68 -3.37391 -2.46083 0
M  V30 14238 N 1308.12 0.00332656 -1.576 0
M  V30 14239 C 1309.05 0.994803 -2.11248 0
M  V30 14240 C 1310.03 1.36061 -1.02085 0
M  V30 14241 O 1311.21 1.44494 -1.2975 0
M  V30 14242 C 1308.34 2.28772 -2.61306 0
M  V30 14243 C 1307.3 2.06362 -3.74965 0
M  V30 14244 C 1306.62 3.41638 -4.11324 0
M  V30 14245 C 1307.92 1.4289 -5.02374 0
M  V30 14246 H 1309.62 0.548119 -2.9434 0
M  V30 14247 H 1307.16 0.262208 -1.41593 0
M  V30 14248 H 1309.12 2.98485 -2.97464 0
M  V30 14249 H 1307.84 2.75547 -1.75332 0
M  V30 14250 H 1306.5 1.39076 -3.39195 0
M  V30 14251 H 1306.15 3.8611 -3.22379 0
M  V30 14252 H 1305.85 3.2746 -4.87897 0
M  V30 14253 H 1307.37 4.12671 -4.50039 0
M  V30 14254 H 1308.79 2.02555 -5.36325 0
M  V30 14255 H 1307.18 1.3921 -5.8373 0
M  V30 14256 H 1308.25 0.397708 -4.83266 0
M  V30 14257 N 1309.6 1.55164 0.276031 0
M  V30 14258 C 1310.83 1.79388 1.02486 0
M  V30 14259 C 1311.23 0.565884 1.80539 0
M  V30 14260 O 1310.58 -0.47449 1.77466 0
M  V30 14261 C 1310.64 2.96494 2.03302 0
M  V30 14262 C 1310.3 4.33649 1.44214 0
M  V30 14263 C 1311.3 5.12749 0.859355 0
M  V30 14264 C 1308.99 4.80301 1.47026 0
M  V30 14265 C 1310.98 6.36633 0.312548 0
M  V30 14266 C 1308.67 6.04141 0.919587 0
M  V30 14267 C 1309.66 6.82145 0.341729 0
M  V30 14268 O 1309.35 8.0365 -0.200517 0
M  V30 14269 H 1309.08 0.601454 0.308592 0
M  V30 14270 H 1311.64 2.02999 0.313148 0
M  V30 14271 H 1309.87 2.68568 2.78223 0
M  V30 14272 H 1311.56 3.08069 2.64288 0
M  V30 14273 H 1312.32 4.77839 0.830353 0
M  V30 14274 H 1308.2 4.19597 1.90942 0
M  V30 14275 H 1311.75 6.97461 -0.139131 0
M  V30 14276 H 1307.64 6.38533 0.945819 0
M  V30 14277 H 1308.41 8.18451 -0.0895877 0
M  V30 14278 N 1311.07 -0.540404 1.48045 0
M  V30 14279 C 1312.32 -1.29422 1.55224 0
M  V30 14280 C 1312.64 -1.93716 0.223365 0
M  V30 14281 O 1311.91 -1.808 -0.754204 0
M  V30 14282 H 1310.49 -0.480658 0.571819 0
M  V30 14283 H 1313.16 -0.629712 1.84447 0
M  V30 14284 H 1312.25 -2.07897 2.32777 0
M  V30 14285 N 1312.55 -1.36459 -0.788468 0
M  V30 14286 C 1313.46 -1.33017 -1.93245 0
M  V30 14287 C 1314.48 -0.232212 -1.72444 0
M  V30 14288 O 1315.65 -0.464743 -1.95965 0
M  V30 14289 C 1312.72 -1.1197 -3.28121 0
M  V30 14290 C 1311.78 -2.3125 -3.61693 0
M  V30 14291 C 1311.01 -2.11197 -4.90134 0
M  V30 14292 O 1311.24 -1.08764 -5.59934 0
M  V30 14293 O 1310.17 -2.98996 -5.22384 0
M  V30 14294 H 1314 -2.29333 -1.99098 0
M  V30 14295 H 1311.58 -1.17016 -0.928856 0
M  V30 14296 H 1313.46 -1.02154 -4.08831 0
M  V30 14297 H 1312.14 -0.187171 -3.23158 0
M  V30 14298 H 1311.05 -2.46635 -2.81286 0
M  V30 14299 H 1312.38 -3.23012 -3.71381 0
M  V30 14300 N 1314.03 1.01274 -1.20754 0
M  V30 14301 C 1315.26 1.7906 -1.04653 0
M  V30 14302 C 1315.68 1.83806 0.399632 0
M  V30 14303 O 1315.04 1.27596 1.28798 0
M  V30 14304 C 1315.09 3.21187 -1.63925 0
M  V30 14305 O 1314.19 4.02913 -0.879486 0
M  V30 14306 H 1313.53 0.552147 -0.368823 0
M  V30 14307 H 1316.06 1.27356 -1.6013 0
M  V30 14308 H 1316.07 3.71887 -1.67822 0
M  V30 14309 H 1314.75 3.17048 -2.69172 0
M  V30 14310 H 1313.32 3.61499 -0.915019 0
M  V30 14311 N 1315.51 1.01404 1.20644 0
M  V30 14312 C 1316.79 0.617088 1.85611 0
M  V30 14313 C 1317.17 -0.904947 1.9072 0
M  V30 14314 O 1316.51 -1.79562 1.41315 0
M  V30 14315 C 1316.72 1.26193 3.25386 0
M  V30 14316 C 1318.07 1.37575 4.01694 0
M  V30 14317 O 1319.1 1.21795 3.34731 0
M  V30 14318 O 1317.96 1.6305 5.2161 0
M  V30 14319 H 1315.05 0.212579 0.799211 0
M  V30 14320 H 1317.6 1.11126 1.28254 0
M  V30 14321 H 1316.37 2.30206 3.16419 0
M  V30 14322 H 1315.99 0.754679 3.90372 0
M  V30 14323 N 1316.99 -1.36373 0.789944 0
M  V30 14324 C 1317.92 -2.32616 0.202944 0
M  V30 14325 C 1318.9 -1.56674 -0.662364 0
M  V30 14326 O 1320.08 -1.84826 -0.596078 0
M  V30 14327 C 1317.21 -3.4092 -0.662646 0
M  V30 14328 C 1316.17 -4.27877 0.102811 0
M  V30 14329 C 1315.49 -5.27352 -0.883407 0
M  V30 14330 C 1316.79 -5.0606 1.29231 0
M  V30 14331 H 1318.49 -2.81958 1.00699 0
M  V30 14332 H 1316.03 -1.35562 0.48568 0
M  V30 14333 H 1317.99 -4.07239 -1.08324 0
M  V30 14334 H 1316.71 -2.90147 -1.4994 0
M  V30 14335 H 1315.37 -3.63114 0.504389 0
M  V30 14336 H 1315.02 -4.72853 -1.71521 0
M  V30 14337 H 1314.72 -5.86398 -0.375669 0
M  V30 14338 H 1316.24 -5.96545 -1.30256 0
M  V30 14339 H 1317.66 -5.65417 0.947446 0
M  V30 14340 H 1316.05 -5.74521 1.73338 0
M  V30 14341 H 1317.12 -4.37671 2.08739 0
M  V30 14342 O 1318.5 -0.683242 -1.46335 0
M  V30 14343 H 1319.2 -0.218069 -1.92469 0
M  V30 END ATOM
M  V30 BEGIN BOND
M  V30 END BOND
M  V30 END CTAB
M  END
$$$$
